# Generated by pormake.
# Topology vbb, (4)-cn, num edge types: 1
# Building blocks:
#     Node 0, Type 0, BuildingBlock: KOZSID_clean_sbu_0, # of connection points: 4
#     Node 1, Type 0, BuildingBlock: KOZSID_clean_sbu_0, # of connection points: 4
#     Node 2, Type 0, BuildingBlock: KOZSID_clean_sbu_0, # of connection points: 4
#     Node 3, Type 0, BuildingBlock: KOZSID_clean_sbu_0, # of connection points: 4
#     Node 4, Type 0, BuildingBlock: KOZSID_clean_sbu_0, # of connection points: 4
#     Node 5, Type 0, BuildingBlock: KOZSID_clean_sbu_0, # of connection points: 4
#     Node 6, Type 0, BuildingBlock: KOZSID_clean_sbu_0, # of connection points: 4
#     Node 7, Type 0, BuildingBlock: KOZSID_clean_sbu_0, # of connection points: 4
#     Node 8, Type 0, BuildingBlock: KOZSID_clean_sbu_0, # of connection points: 4
#     Node 9, Type 0, BuildingBlock: KOZSID_clean_sbu_0, # of connection points: 4
#     Node 10, Type 0, BuildingBlock: KOZSID_clean_sbu_0, # of connection points: 4
#     Node 11, Type 0, BuildingBlock: KOZSID_clean_sbu_0, # of connection points: 4
#     Node 12, Type 0, BuildingBlock: KOZSID_clean_sbu_0, # of connection points: 4
#     Node 13, Type 0, BuildingBlock: KOZSID_clean_sbu_0, # of connection points: 4
#     Node 14, Type 0, BuildingBlock: KOZSID_clean_sbu_0, # of connection points: 4
#     Node 15, Type 0, BuildingBlock: KOZSID_clean_sbu_0, # of connection points: 4
#     Node 16, Type 0, BuildingBlock: KOZSID_clean_sbu_0, # of connection points: 4
#     Node 17, Type 0, BuildingBlock: KOZSID_clean_sbu_0, # of connection points: 4
#     Node 18, Type 0, BuildingBlock: KOZSID_clean_sbu_0, # of connection points: 4
#     Node 19, Type 0, BuildingBlock: KOZSID_clean_sbu_0, # of connection points: 4
#     Node 20, Type 0, BuildingBlock: KOZSID_clean_sbu_0, # of connection points: 4
#     Node 21, Type 0, BuildingBlock: KOZSID_clean_sbu_0, # of connection points: 4
#     Node 22, Type 0, BuildingBlock: KOZSID_clean_sbu_0, # of connection points: 4
#     Node 23, Type 0, BuildingBlock: KOZSID_clean_sbu_0, # of connection points: 4
#     Node 24, Type 0, BuildingBlock: KOZSID_clean_sbu_0, # of connection points: 4
#     Node 25, Type 0, BuildingBlock: KOZSID_clean_sbu_0, # of connection points: 4
#     Node 26, Type 0, BuildingBlock: KOZSID_clean_sbu_0, # of connection points: 4
#     Node 27, Type 0, BuildingBlock: KOZSID_clean_sbu_0, # of connection points: 4
#     Node 28, Type 0, BuildingBlock: KOZSID_clean_sbu_0, # of connection points: 4
#     Node 29, Type 0, BuildingBlock: KOZSID_clean_sbu_0, # of connection points: 4
#     Node 30, Type 0, BuildingBlock: KOZSID_clean_sbu_0, # of connection points: 4
#     Node 31, Type 0, BuildingBlock: KOZSID_clean_sbu_0, # of connection points: 4
#     Edge 32, Type (0, 0), BuildingBlock: TEMPAE_clean_linker_10, # of connection points: 2
#     Edge 33, Type (0, 0), BuildingBlock: TEMPAE_clean_linker_10, # of connection points: 2
#     Edge 34, Type (0, 0), BuildingBlock: TEMPAE_clean_linker_10, # of connection points: 2
#     Edge 35, Type (0, 0), BuildingBlock: TEMPAE_clean_linker_10, # of connection points: 2
#     Edge 36, Type (0, 0), BuildingBlock: TEMPAE_clean_linker_10, # of connection points: 2
#     Edge 37, Type (0, 0), BuildingBlock: TEMPAE_clean_linker_10, # of connection points: 2
#     Edge 38, Type (0, 0), BuildingBlock: TEMPAE_clean_linker_10, # of connection points: 2
#     Edge 39, Type (0, 0), BuildingBlock: TEMPAE_clean_linker_10, # of connection points: 2
#     Edge 40, Type (0, 0), BuildingBlock: TEMPAE_clean_linker_10, # of connection points: 2
#     Edge 41, Type (0, 0), BuildingBlock: TEMPAE_clean_linker_10, # of connection points: 2
#     Edge 42, Type (0, 0), BuildingBlock: TEMPAE_clean_linker_10, # of connection points: 2
#     Edge 43, Type (0, 0), BuildingBlock: TEMPAE_clean_linker_10, # of connection points: 2
#     Edge 44, Type (0, 0), BuildingBlock: TEMPAE_clean_linker_10, # of connection points: 2
#     Edge 45, Type (0, 0), BuildingBlock: TEMPAE_clean_linker_10, # of connection points: 2
#     Edge 46, Type (0, 0), BuildingBlock: TEMPAE_clean_linker_10, # of connection points: 2
#     Edge 47, Type (0, 0), BuildingBlock: TEMPAE_clean_linker_10, # of connection points: 2
#     Edge 48, Type (0, 0), BuildingBlock: TEMPAE_clean_linker_10, # of connection points: 2
#     Edge 49, Type (0, 0), BuildingBlock: TEMPAE_clean_linker_10, # of connection points: 2
#     Edge 50, Type (0, 0), BuildingBlock: TEMPAE_clean_linker_10, # of connection points: 2
#     Edge 51, Type (0, 0), BuildingBlock: TEMPAE_clean_linker_10, # of connection points: 2
#     Edge 52, Type (0, 0), BuildingBlock: TEMPAE_clean_linker_10, # of connection points: 2
#     Edge 53, Type (0, 0), BuildingBlock: TEMPAE_clean_linker_10, # of connection points: 2
#     Edge 54, Type (0, 0), BuildingBlock: TEMPAE_clean_linker_10, # of connection points: 2
#     Edge 55, Type (0, 0), BuildingBlock: TEMPAE_clean_linker_10, # of connection points: 2
#     Edge 56, Type (0, 0), BuildingBlock: TEMPAE_clean_linker_10, # of connection points: 2
#     Edge 57, Type (0, 0), BuildingBlock: TEMPAE_clean_linker_10, # of connection points: 2
#     Edge 58, Type (0, 0), BuildingBlock: TEMPAE_clean_linker_10, # of connection points: 2
#     Edge 59, Type (0, 0), BuildingBlock: TEMPAE_clean_linker_10, # of connection points: 2
#     Edge 60, Type (0, 0), BuildingBlock: TEMPAE_clean_linker_10, # of connection points: 2
#     Edge 61, Type (0, 0), BuildingBlock: TEMPAE_clean_linker_10, # of connection points: 2
#     Edge 62, Type (0, 0), BuildingBlock: TEMPAE_clean_linker_10, # of connection points: 2
#     Edge 63, Type (0, 0), BuildingBlock: TEMPAE_clean_linker_10, # of connection points: 2
#     Edge 64, Type (0, 0), BuildingBlock: TEMPAE_clean_linker_10, # of connection points: 2
#     Edge 65, Type (0, 0), BuildingBlock: TEMPAE_clean_linker_10, # of connection points: 2
#     Edge 66, Type (0, 0), BuildingBlock: TEMPAE_clean_linker_10, # of connection points: 2
#     Edge 67, Type (0, 0), BuildingBlock: TEMPAE_clean_linker_10, # of connection points: 2
#     Edge 68, Type (0, 0), BuildingBlock: TEMPAE_clean_linker_10, # of connection points: 2
#     Edge 69, Type (0, 0), BuildingBlock: TEMPAE_clean_linker_10, # of connection points: 2
#     Edge 70, Type (0, 0), BuildingBlock: TEMPAE_clean_linker_10, # of connection points: 2
#     Edge 71, Type (0, 0), BuildingBlock: TEMPAE_clean_linker_10, # of connection points: 2
#     Edge 72, Type (0, 0), BuildingBlock: TEMPAE_clean_linker_10, # of connection points: 2
#     Edge 73, Type (0, 0), BuildingBlock: TEMPAE_clean_linker_10, # of connection points: 2
#     Edge 74, Type (0, 0), BuildingBlock: TEMPAE_clean_linker_10, # of connection points: 2
#     Edge 75, Type (0, 0), BuildingBlock: TEMPAE_clean_linker_10, # of connection points: 2
#     Edge 76, Type (0, 0), BuildingBlock: TEMPAE_clean_linker_10, # of connection points: 2
#     Edge 77, Type (0, 0), BuildingBlock: TEMPAE_clean_linker_10, # of connection points: 2
#     Edge 78, Type (0, 0), BuildingBlock: TEMPAE_clean_linker_10, # of connection points: 2
#     Edge 79, Type (0, 0), BuildingBlock: TEMPAE_clean_linker_10, # of connection points: 2
#     Edge 80, Type (0, 0), BuildingBlock: TEMPAE_clean_linker_10, # of connection points: 2
#     Edge 81, Type (0, 0), BuildingBlock: TEMPAE_clean_linker_10, # of connection points: 2
#     Edge 82, Type (0, 0), BuildingBlock: TEMPAE_clean_linker_10, # of connection points: 2
#     Edge 83, Type (0, 0), BuildingBlock: TEMPAE_clean_linker_10, # of connection points: 2
#     Edge 84, Type (0, 0), BuildingBlock: TEMPAE_clean_linker_10, # of connection points: 2
#     Edge 85, Type (0, 0), BuildingBlock: TEMPAE_clean_linker_10, # of connection points: 2
#     Edge 86, Type (0, 0), BuildingBlock: TEMPAE_clean_linker_10, # of connection points: 2
#     Edge 87, Type (0, 0), BuildingBlock: TEMPAE_clean_linker_10, # of connection points: 2
#     Edge 88, Type (0, 0), BuildingBlock: TEMPAE_clean_linker_10, # of connection points: 2
#     Edge 89, Type (0, 0), BuildingBlock: TEMPAE_clean_linker_10, # of connection points: 2
#     Edge 90, Type (0, 0), BuildingBlock: TEMPAE_clean_linker_10, # of connection points: 2
#     Edge 91, Type (0, 0), BuildingBlock: TEMPAE_clean_linker_10, # of connection points: 2
#     Edge 92, Type (0, 0), BuildingBlock: TEMPAE_clean_linker_10, # of connection points: 2
#     Edge 93, Type (0, 0), BuildingBlock: TEMPAE_clean_linker_10, # of connection points: 2
#     Edge 94, Type (0, 0), BuildingBlock: TEMPAE_clean_linker_10, # of connection points: 2
#     Edge 95, Type (0, 0), BuildingBlock: TEMPAE_clean_linker_10, # of connection points: 2
# Relax obj value: 0.043
# Max RMSD: 0.155
# Mean RMSD: 0.153
data_MOF--net-vbb--node1-KOZSID_clean_sbu_0--edge1-TEMPAE_clean_linker_10
_symmetry_space_group_name_H-M    P1
_symmetry_Int_Tables_number       1
_symmetry_cell_setting            triclinic
loop_
_symmetry_equiv_pos_as_xyz
'x, y, z'
_cell_length_a     66.449662
_cell_length_b     41.757751
_cell_length_c     125.80827
_cell_angle_alpha  89.778433
_cell_angle_beta   90.000548
_cell_angle_gamma 89.993271
loop_
_atom_site_label
_atom_site_type_symbol
_atom_site_fract_x
_atom_site_fract_y
_atom_site_fract_z
_atom_type_partial_charge
C0 C 0.49622 0.07706 0.08786 0.0
C1 C 0.4853 0.10417 0.09058 0.0
C2 C 0.47426 0.11245 0.0818 0.0
C3 C 0.479 0.08998 0.07427 0.0
N4 N 0.49223 0.06797 0.07778 0.0
Co5 Co 0.50309 0.0314 0.06954 0.0
N6 N 0.49569 0.052 0.05583 0.0
C7 C 0.48357 0.07764 0.05461 0.0
C8 C 0.48277 0.08868 0.04435 0.0
C9 C 0.4948 0.06838 0.0387 0.0
C10 C 0.50189 0.04539 0.04581 0.0
N11 N 0.51349 0.99439 0.0613 0.0
C12 C 0.51637 0.99089 0.05066 0.0
C13 C 0.52208 0.95969 0.04832 0.0
C14 C 0.52263 0.94323 0.05778 0.0
C15 C 0.51714 0.96505 0.06537 0.0
N16 N 0.51076 0.01181 0.08338 0.0
C17 C 0.51499 0.98076 0.08508 0.0
C18 C 0.52054 0.9747 0.09544 0.0
C19 C 0.51972 0.00383 0.10051 0.0
C20 C 0.51369 0.02606 0.09295 0.0
N21 N 0.4766 0.00959 0.07017 0.0
C22 C 0.44385 0.96622 0.0714 0.0
C23 C 0.45088 0.98241 0.08047 0.0
C24 C 0.46711 0.00407 0.07968 0.0
C25 C 0.45272 0.9743 0.06163 0.0
C26 C 0.46886 0.99585 0.06119 0.0
N27 N 0.52985 0.05177 0.06891 0.0
C28 C 0.56596 0.04585 0.06995 0.0
C29 C 0.56882 0.07848 0.0679 0.0
C30 C 0.55162 0.09768 0.06652 0.0
C31 C 0.53228 0.08382 0.06697 0.0
C32 C 0.54655 0.03314 0.0705 0.0
H33 H 0.51934 0.09898 0.06572 0.0
H34 H 0.54514 0.00802 0.07223 0.0
H35 H 0.47256 0.01522 0.08685 0.0
H36 H 0.47563 1.00011 0.05355 0.0
C37 C 0.47538 0.09324 0.0634 0.0
C38 C 0.50987 0.06018 0.09508 0.0
C39 C 0.51164 0.01531 0.04251 0.0
C40 C 0.51716 0.95991 0.07643 0.0
H41 H 0.48556 0.11695 0.09805 0.0
H42 H 0.46495 0.13353 0.08082 0.0
H43 H 0.47483 0.10949 0.04138 0.0
H44 H 0.49751 0.06986 0.03024 0.0
H45 H 0.52502 0.94956 0.04057 0.0
H46 H 0.52667 0.91836 0.05896 0.0
H47 H 0.52552 0.95214 0.09879 0.0
H48 H 0.52322 0.00823 0.10878 0.0
H49 H 0.44452 0.97742 0.08822 0.0
H50 H 0.44753 0.96354 0.05431 0.0
H51 H 0.5787 0.03013 0.07126 0.0
H52 H 0.55308 0.12306 0.0649 0.0
C53 C 0.78169 0.18558 0.08865 0.0
C54 C 0.7929 0.1588 0.09149 0.0
C55 C 0.80317 0.14965 0.08264 0.0
C56 C 0.7977 0.17127 0.07495 0.0
N57 N 0.78486 0.19408 0.07838 0.0
Co58 Co 0.77257 0.22939 0.0697 0.0
N59 N 0.78371 0.21123 0.05622 0.0
C60 C 0.79609 0.18569 0.0553 0.0
C61 C 0.80201 0.17951 0.0451 0.0
C62 C 0.79254 0.20209 0.03907 0.0
C63 C 0.78106 0.22054 0.04597 0.0
N64 N 0.76062 0.265 0.06096 0.0
C65 C 0.75921 0.26841 0.05021 0.0
C66 C 0.74837 0.29571 0.04753 0.0
C67 C 0.74306 0.31016 0.05685 0.0
C68 C 0.75068 0.29089 0.06472 0.0
N69 N 0.7608 0.24652 0.08324 0.0
C70 C 0.74994 0.27367 0.08434 0.0
C71 C 0.74225 0.27759 0.09438 0.0
C72 C 0.74816 0.25097 0.09994 0.0
C73 C 0.7592 0.23233 0.09296 0.0
N74 N 0.79764 0.25627 0.07162 0.0
C75 C 0.83182 0.2977 0.07218 0.0
C76 C 0.81275 0.30831 0.07517 0.0
C77 C 0.79625 0.28744 0.07499 0.0
C78 C 0.83369 0.26541 0.06936 0.0
C79 C 0.81659 0.24535 0.06909 0.0
N80 N 0.7475 0.20367 0.06782 0.0
C81 C 0.71108 0.20235 0.06705 0.0
C82 C 0.71093 0.1691 0.06627 0.0
C83 C 0.72956 0.15319 0.06624 0.0
C84 C 0.74764 0.17092 0.06685 0.0
C85 C 0.72921 0.21886 0.0679 0.0
H86 H 0.76159 0.15793 0.06661 0.0
H87 H 0.72791 0.24407 0.06877 0.0
H88 H 0.78249 0.29754 0.07756 0.0
H89 H 0.81913 0.2213 0.0667 0.0
C90 C 0.80209 0.16817 0.06419 0.0
C91 C 0.76731 0.20081 0.09577 0.0
C92 C 0.7674 0.24587 0.04236 0.0
C93 C 0.74587 0.29345 0.07556 0.0
H94 H 0.79305 0.14642 0.09907 0.0
H95 H 0.81263 0.12872 0.08176 0.0
H96 H 0.812 0.16079 0.04237 0.0
H97 H 0.79386 0.20445 0.03053 0.0
H98 H 0.74413 0.30396 0.03969 0.0
H99 H 0.73375 0.33125 0.05777 0.0
H100 H 0.73277 0.29686 0.0972 0.0
H101 H 0.74438 0.24544 0.10811 0.0
H102 H 0.81051 0.33282 0.07771 0.0
H103 H 0.84821 0.25582 0.06708 0.0
H104 H 0.6971 0.21571 0.06725 0.0
H105 H 0.73017 0.12734 0.06561 0.0
C106 C 0.49673 0.18175 0.167 0.0
C107 C 0.48583 0.15478 0.1641 0.0
C108 C 0.47464 0.14617 0.17279 0.0
C109 C 0.47928 0.16831 0.18045 0.0
N110 N 0.49259 0.19043 0.17711 0.0
Co111 Co 0.50327 0.22668 0.18556 0.0
N112 N 0.49553 0.20558 0.19914 0.0
C113 C 0.48341 0.17987 0.20017 0.0
C114 C 0.4824 0.1684 0.21038 0.0
C115 C 0.49429 0.18849 0.21619 0.0
C116 C 0.50149 0.2118 0.20923 0.0
N117 N 0.51343 0.26338 0.19404 0.0
C118 C 0.51599 0.26652 0.20471 0.0
C119 C 0.5216 0.29763 0.20722 0.0
C120 C 0.52244 0.31441 0.19783 0.0
C121 C 0.51719 0.29285 0.1901 0.0
N122 N 0.51136 0.24672 0.17186 0.0
C123 C 0.51571 0.2778 0.17032 0.0
C124 C 0.5215 0.28424 0.16003 0.0
C125 C 0.52072 0.25532 0.15482 0.0
C126 C 0.51446 0.23283 0.16224 0.0
N127 N 0.47675 0.24859 0.18481 0.0
C128 C 0.44353 0.29107 0.18352 0.0
C129 C 0.45153 0.27658 0.17439 0.0
C130 C 0.46782 0.25506 0.17521 0.0
C131 C 0.45186 0.28228 0.19335 0.0
C132 C 0.46838 0.26133 0.19382 0.0
N133 N 0.53006 0.2062 0.18629 0.0
C134 C 0.56619 0.21185 0.18501 0.0
C135 C 0.5691 0.17889 0.18654 0.0
C136 C 0.55179 0.15993 0.18811 0.0
C137 C 0.53248 0.17402 0.18798 0.0
C138 C 0.5468 0.22481 0.18484 0.0
H139 H 0.51951 0.15885 0.18915 0.0
H140 H 0.54545 0.25013 0.18344 0.0
H141 H 0.47368 0.24465 0.16801 0.0
H142 H 0.47488 0.25672 0.2015 0.0
C143 C 0.47543 0.16461 0.19127 0.0
C144 C 0.51053 0.19886 0.15992 0.0
C145 C 0.51116 0.24174 0.21273 0.0
C146 C 0.51761 0.29836 0.17907 0.0
H147 H 0.48621 0.14231 0.15658 0.0
H148 H 0.4653 0.12508 0.17363 0.0
H149 H 0.47443 0.14744 0.21321 0.0
H150 H 0.49684 0.18661 0.22466 0.0
H151 H 0.52432 0.30747 0.21503 0.0
H152 H 0.52652 0.33931 0.19677 0.0
H153 H 0.52658 0.3069 0.1568 0.0
H154 H 0.52436 0.25122 0.14655 0.0
H155 H 0.44538 0.28206 0.16662 0.0
H156 H 0.44627 0.2927 0.20065 0.0
H157 H 0.57884 0.2279 0.18401 0.0
H158 H 0.55305 0.13431 0.18925 0.0
C159 C 0.78256 0.07389 0.16673 0.0
C160 C 0.79491 0.09905 0.16361 0.0
C161 C 0.80755 0.10507 0.172 0.0
C162 C 0.80222 0.08333 0.17973 0.0
N163 N 0.78705 0.06414 0.17669 0.0
Co164 Co 0.77479 0.02958 0.18527 0.0
N165 N 0.78423 0.04936 0.19861 0.0
C166 C 0.79981 0.06983 0.19946 0.0
C167 C 0.80415 0.0776 0.20978 0.0
C168 C 0.79054 0.0608 0.21579 0.0
C169 C 0.77844 0.04385 0.20875 0.0
N170 N 0.76277 0.99488 0.19395 0.0
C171 C 0.75781 0.99466 0.20443 0.0
C172 C 0.74831 0.96609 0.20706 0.0
C173 C 0.74807 0.94767 0.19802 0.0
C174 C 0.75712 0.966 0.19029 0.0
N175 N 0.76549 0.01044 0.17177 0.0
C176 C 0.75987 0.97986 0.17037 0.0
C177 C 0.75346 0.9742 0.16014 0.0
C178 C 0.75521 1.00308 0.15487 0.0
C179 C 0.7626 0.02481 0.16219 0.0
N180 N 0.80007 0.00435 0.18442 0.0
C181 C 0.83307 0.96154 0.18306 0.0
C182 C 0.82546 0.9771 0.17398 0.0
C183 C 0.80923 0.99869 0.17485 0.0
C184 C 0.82412 0.96878 0.19286 0.0
C185 C 0.80765 0.98982 0.19335 0.0
N186 N 0.74916 0.05346 0.18608 0.0
C187 C 0.71293 0.05207 0.18459 0.0
C188 C 0.71148 0.08511 0.18627 0.0
C189 C 0.72955 0.10195 0.18812 0.0
C190 C 0.74822 0.08568 0.18799 0.0
C191 C 0.73164 0.03697 0.18445 0.0
H192 H 0.76188 0.0991 0.18933 0.0
H193 H 0.73179 0.01168 0.18292 0.0
H194 H 0.80375 0.01015 0.16771 0.0
H195 H 0.80069 0.99349 0.20099 0.0
C196 C 0.80814 0.08429 0.1904 0.0
C197 C 0.76756 0.05855 0.15991 0.0
C198 C 0.76301 0.02048 0.212 0.0
C199 C 0.75672 0.95991 0.17927 0.0
H200 H 0.79479 0.11171 0.15609 0.0
H201 H 0.81861 0.12402 0.17257 0.0
H202 H 0.81559 0.09393 0.21261 0.0
H203 H 0.78999 0.06054 0.22439 0.0
H204 H 0.74195 0.95921 0.21464 0.0
H205 H 0.7411 0.92443 0.19708 0.0
H206 H 0.74718 0.95224 0.15703 0.0
H207 H 0.75133 0.0077 0.14665 0.0
H208 H 0.832 0.97261 0.16625 0.0
H209 H 0.82932 0.95731 0.20009 0.0
H210 H 0.69961 0.03757 0.18342 0.0
H211 H 0.72934 0.12754 0.18945 0.0
C212 C 0.5154 0.98474 0.9123 0.0
C213 C 0.50845 0.00664 0.90485 0.0
C214 C 0.50677 0.03554 0.91003 0.0
C215 C 0.51278 0.02972 0.92033 0.0
N216 N 0.5181 0.99903 0.92188 0.0
Co217 Co 0.52683 0.97978 0.93556 0.0
N218 N 0.51515 0.01515 0.94403 0.0
C219 C 0.50986 0.04407 0.94015 0.0
C220 C 0.50136 0.06329 0.94776 0.0
C221 C 0.50163 0.04552 0.95697 0.0
C222 C 0.51063 0.01641 0.95455 0.0
N223 N 0.53558 0.95967 0.94908 0.0
C224 C 0.53006 0.96597 0.95923 0.0
C225 C 0.54167 0.94819 0.96634 0.0
C226 C 0.55468 0.93019 0.96042 0.0
C227 C 0.55054 0.93806 0.95007 0.0
N228 N 0.53885 0.9447 0.92714 0.0
C229 C 0.55352 0.92477 0.93038 0.0
C230 C 0.5588 0.9028 0.92278 0.0
C231 C 0.54666 0.9094 0.91423 0.0
C232 C 0.53463 0.93512 0.91714 0.0
N233 N 0.55242 0.00422 0.93485 0.0
C234 C 0.58499 0.04836 0.93388 0.0
C235 C 0.57634 0.03899 0.94361 0.0
C236 C 0.56009 0.01765 0.9439 0.0
C237 C 0.57747 0.03331 0.92467 0.0
C238 C 0.56152 0.01108 0.92535 0.0
N239 N 0.50089 0.95686 0.93627 0.0
C240 C 0.48059 0.90912 0.93837 0.0
C241 C 0.46277 0.92668 0.93654 0.0
C242 C 0.46471 0.95968 0.9348 0.0
C243 C 0.48363 0.97402 0.9346 0.0
C244 C 0.49948 0.92466 0.93823 0.0
H245 H 0.48416 0.99929 0.93302 0.0
H246 H 0.51293 0.91071 0.93959 0.0
H247 H 0.55335 0.01297 0.95152 0.0
H248 H 0.55606 1.00038 0.9181 0.0
C249 C 0.50968 0.04986 0.92911 0.0
C250 C 0.52018 0.95094 0.91008 0.0
C251 C 0.51594 0.99137 0.96245 0.0
C252 C 0.55885 0.92333 0.94111 0.0
H253 H 0.50484 1.00213 0.8966 0.0
H254 H 0.50083 0.05766 0.9068 0.0
H255 H 0.49487 0.08685 0.94665 0.0
H256 H 0.49578 0.05326 0.96456 0.0
H257 H 0.54139 0.94887 0.97493 0.0
H258 H 0.56574 0.91327 0.96332 0.0
H259 H 0.56945 0.88331 0.92353 0.0
H260 H 0.54664 0.89672 0.90674 0.0
H261 H 0.58178 0.04831 0.95108 0.0
H262 H 0.58329 0.03923 0.91688 0.0
H263 H 0.48002 0.88352 0.93973 0.0
H264 H 0.45163 0.97474 0.93364 0.0
C265 C 0.26896 0.77536 0.91186 0.0
C266 C 0.2761 0.75372 0.90444 0.0
C267 C 0.27755 0.7246 0.90958 0.0
C268 C 0.27121 0.73005 0.91983 0.0
N269 N 0.26592 0.76072 0.92139 0.0
Co270 Co 0.25669 0.77944 0.935 0.0
N271 N 0.26801 0.74368 0.94351 0.0
C272 C 0.27344 0.71491 0.93964 0.0
C273 C 0.2818 0.69548 0.94729 0.0
C274 C 0.28129 0.71297 0.95652 0.0
C275 C 0.27229 0.74212 0.95407 0.0
N276 N 0.24735 0.79888 0.94846 0.0
C277 C 0.25242 0.79205 0.95864 0.0
C278 C 0.24038 0.80923 0.96567 0.0
C279 C 0.22758 0.82746 0.95965 0.0
C280 C 0.23226 0.82029 0.94932 0.0
N281 N 0.24508 0.81496 0.92655 0.0
C282 C 0.23028 0.83476 0.92966 0.0
C283 C 0.22533 0.85709 0.92206 0.0
C284 C 0.23781 0.85084 0.91363 0.0
C285 C 0.2497 0.82496 0.91662 0.0
N286 N 0.23111 0.75524 0.93392 0.0
C287 C 0.19808 0.71279 0.93225 0.0
C288 C 0.20682 0.71969 0.94211 0.0
C289 C 0.22328 0.74058 0.94276 0.0
C290 C 0.20583 0.72862 0.92326 0.0
C291 C 0.22209 0.75006 0.92428 0.0
N292 N 0.28263 0.80225 0.93605 0.0
C293 C 0.30287 0.84998 0.93822 0.0
C294 C 0.32073 0.83245 0.93649 0.0
C295 C 0.31883 0.79946 0.93481 0.0
C296 C 0.29992 0.78511 0.93452 0.0
C297 C 0.28399 0.8344 0.938 0.0
H298 H 0.29944 0.75987 0.93294 0.0
H299 H 0.2705 0.84833 0.93926 0.0
H300 H 0.23009 0.74385 0.95045 0.0
H301 H 0.22775 0.76169 0.91721 0.0
C302 C 0.27399 0.70954 0.9286 0.0
C303 C 0.26433 0.80926 0.90967 0.0
C304 C 0.26668 0.76688 0.96194 0.0
C305 C 0.22439 0.83556 0.94032 0.0
H306 H 0.27999 0.75853 0.89623 0.0
H307 H 0.28354 0.70258 0.90636 0.0
H308 H 0.28839 0.67202 0.9462 0.0
H309 H 0.287 0.70504 0.96413 0.0
H310 H 0.24027 0.80805 0.97426 0.0
H311 H 0.21632 0.84411 0.96247 0.0
H312 H 0.21463 0.87652 0.92273 0.0
H313 H 0.23813 0.86383 0.90617 0.0
H314 H 0.20149 0.70798 0.94928 0.0
H315 H 0.19943 0.72437 0.91548 0.0
H316 H 0.3034 0.87556 0.93954 0.0
H317 H 0.33195 0.78443 0.93375 0.0
C318 C 0.51457 0.77887 0.84286 0.0
C319 C 0.50744 0.75755 0.85045 0.0
C320 C 0.50572 0.72833 0.84548 0.0
C321 C 0.51189 0.7334 0.83517 0.0
N322 N 0.51733 0.76393 0.8334 0.0
Co323 Co 0.52649 0.782 0.81962 0.0
N324 N 0.515 0.74597 0.81137 0.0
C325 C 0.50944 0.71745 0.81547 0.0
C326 C 0.50101 0.69772 0.80799 0.0
C327 C 0.5016 0.7147 0.79862 0.0
C328 C 0.51073 0.74387 0.80083 0.0
N329 N 0.53573 0.80082 0.80598 0.0
C330 C 0.53062 0.79353 0.79584 0.0
C331 C 0.54259 0.81047 0.78868 0.0
C332 C 0.55539 0.82899 0.79454 0.0
C333 C 0.55078 0.82223 0.80492 0.0
N334 N 0.5383 0.81779 0.82781 0.0
C335 C 0.55307 0.83742 0.82448 0.0
C336 C 0.55823 0.85995 0.83192 0.0
C337 C 0.54594 0.85404 0.84046 0.0
C338 C 0.53393 0.82814 0.83771 0.0
N339 N 0.55207 0.75767 0.8208 0.0
C340 C 0.58554 0.71596 0.82258 0.0
C341 C 0.57657 0.72235 0.81272 0.0
C342 C 0.55988 0.74282 0.81202 0.0
C343 C 0.57771 0.73178 0.83152 0.0
C344 C 0.56123 0.75284 0.83044 0.0
N345 N 0.5006 0.80501 0.81846 0.0
C346 C 0.48063 0.8529 0.81582 0.0
C347 C 0.46271 0.83536 0.81713 0.0
C348 C 0.46429 0.80259 0.81922 0.0
C349 C 0.48317 0.7881 0.81997 0.0
C350 C 0.49944 0.83718 0.81638 0.0
H351 H 0.48352 0.76299 0.82183 0.0
H352 H 0.51301 0.85095 0.81517 0.0
H353 H 0.55296 0.74573 0.80434 0.0
H354 H 0.55558 0.76457 0.83746 0.0
C355 C 0.50894 0.7126 0.82655 0.0
C356 C 0.51947 0.81274 0.84488 0.0
C357 C 0.51644 0.76809 0.79273 0.0
C358 C 0.55877 0.83781 0.8138 0.0
H359 H 0.50376 0.76263 0.85864 0.0
H360 H 0.49969 0.70647 0.84886 0.0
H361 H 0.49434 0.67438 0.80927 0.0
H362 H 0.49586 0.70642 0.79108 0.0
H363 H 0.54267 0.80892 0.7801 0.0
H364 H 0.56663 0.84553 0.79158 0.0
H365 H 0.56897 0.87929 0.83107 0.0
H366 H 0.54583 0.86725 0.84785 0.0
H367 H 0.58194 0.71062 0.8056 0.0
H368 H 0.58426 0.72788 0.8393 0.0
H369 H 0.4801 0.87836 0.81418 0.0
H370 H 0.45094 0.78815 0.82045 0.0
C371 C 0.26902 0.9833 0.84272 0.0
C372 C 0.27631 0.00473 0.85017 0.0
C373 C 0.27791 0.03389 0.84507 0.0
C374 C 0.2715 0.02867 0.83482 0.0
N375 N 0.26602 0.99812 0.83322 0.0
Co376 Co 0.25663 0.97973 0.8196 0.0
N377 N 0.26809 0.01546 0.81112 0.0
C378 C 0.27371 0.04408 0.81503 0.0
C379 C 0.28216 0.06348 0.80741 0.0
C380 C 0.28152 0.04614 0.79815 0.0
C381 C 0.27235 0.0171 0.80057 0.0
N382 N 0.24713 0.96061 0.80611 0.0
C383 C 0.25222 0.96749 0.79593 0.0
C384 C 0.2401 0.95054 0.78889 0.0
C385 C 0.22722 0.93241 0.7949 0.0
C386 C 0.23195 0.9394 0.80523 0.0
N387 N 0.24486 0.94425 0.828 0.0
C388 C 0.22994 0.9247 0.82487 0.0
C389 C 0.2249 0.90233 0.83245 0.0
C390 C 0.23745 0.90829 0.84087 0.0
C391 C 0.24946 0.93405 0.83792 0.0
N392 N 0.23112 0.00422 0.82074 0.0
C393 C 0.19767 0.04594 0.82242 0.0
C394 C 0.20654 0.03937 0.81256 0.0
C395 C 0.22323 0.0189 0.81191 0.0
C396 C 0.2056 0.03032 0.83141 0.0
C397 C 0.22207 0.00925 0.83038 0.0
N398 N 0.28245 0.95654 0.81846 0.0
C399 C 0.30229 0.9085 0.81598 0.0
C400 C 0.32027 0.92598 0.81715 0.0
C401 C 0.31877 0.95881 0.81908 0.0
C402 C 0.29993 0.9734 0.81982 0.0
C403 C 0.28352 0.92432 0.81654 0.0
H404 H 0.29966 0.99856 0.82156 0.0
H405 H 0.26991 0.9106 0.81545 0.0
H406 H 0.23008 0.01582 0.80423 0.0
H407 H 0.2278 0.99767 0.83745 0.0
C408 C 0.27435 0.04927 0.82608 0.0
C409 C 0.26421 0.94944 0.84487 0.0
C410 C 0.26662 0.9925 0.79266 0.0
C411 C 0.22402 0.92412 0.81422 0.0
H412 H 0.28021 0.99974 0.85836 0.0
H413 H 0.28404 0.05578 0.84832 0.0
H414 H 0.28891 0.08682 0.80853 0.0
H415 H 0.28728 0.05408 0.79055 0.0
H416 H 0.23999 0.95182 0.78031 0.0
H417 H 0.21587 0.91593 0.79206 0.0
H418 H 0.2141 0.88305 0.83176 0.0
H419 H 0.23774 0.89518 0.84831 0.0
H420 H 0.2011 0.05096 0.8054 0.0
H421 H 0.19912 0.03435 0.83919 0.0
H422 H 0.30275 0.883 0.81448 0.0
H423 H 0.33216 0.97321 0.82019 0.0
C424 C 0.49824 0.57502 0.58796 0.0
C425 C 0.4871 0.6016 0.59099 0.0
C426 C 0.47558 0.61003 0.5824 0.0
C427 C 0.48028 0.58817 0.57466 0.0
N428 N 0.49394 0.56639 0.57786 0.0
Co429 Co 0.50489 0.53069 0.56924 0.0
N430 N 0.49653 0.55178 0.55576 0.0
C431 C 0.48413 0.57721 0.55488 0.0
C432 C 0.48266 0.58877 0.5447 0.0
C433 C 0.49453 0.56904 0.53874 0.0
C434 C 0.50219 0.54582 0.5456 0.0
N435 N 0.51525 0.49445 0.56061 0.0
C436 C 0.51743 0.49147 0.5499 0.0
C437 C 0.52329 0.46052 0.54731 0.0
C438 C 0.52469 0.4437 0.55666 0.0
C439 C 0.51951 0.46505 0.56446 0.0
N440 N 0.51365 0.5107 0.58283 0.0
C441 C 0.51851 0.47978 0.58428 0.0
C442 C 0.52471 0.47338 0.59451 0.0
C443 C 0.52365 0.50216 0.59978 0.0
C444 C 0.51685 0.52453 0.59245 0.0
N445 N 0.47863 0.5079 0.57015 0.0
C446 C 0.44539 0.46533 0.57156 0.0
C447 C 0.45369 0.47956 0.58068 0.0
C448 C 0.46998 0.50108 0.57979 0.0
C449 C 0.45355 0.4743 0.5617 0.0
C450 C 0.47007 0.49526 0.56118 0.0
N451 N 0.53143 0.55215 0.56837 0.0
C452 C 0.56773 0.54778 0.5689 0.0
C453 C 0.56996 0.58094 0.56781 0.0
C454 C 0.55236 0.59952 0.56703 0.0
C455 C 0.53328 0.58465 0.56719 0.0
C456 C 0.54853 0.53403 0.56929 0.0
H457 H 0.52006 0.59947 0.56641 0.0
H458 H 0.54764 0.50855 0.57047 0.0
H459 H 0.47601 0.51134 0.58698 0.0
H460 H 0.47635 0.5001 0.55346 0.0
C461 C 0.47618 0.59202 0.56387 0.0
C462 C 0.5125 0.5583 0.59488 0.0
C463 C 0.51203 0.51616 0.54196 0.0
C464 C 0.52039 0.45943 0.57548 0.0
H465 H 0.48755 0.614 0.59853 0.0
H466 H 0.46598 0.63087 0.58167 0.0
H467 H 0.47436 0.60954 0.54197 0.0
H468 H 0.49675 0.57106 0.53025 0.0
H469 H 0.52578 0.45077 0.53946 0.0
H470 H 0.52908 0.41891 0.55765 0.0
H471 H 0.53019 0.45084 0.59765 0.0
H472 H 0.52747 0.50625 0.60803 0.0
H473 H 0.44772 0.47394 0.58847 0.0
H474 H 0.44777 0.46409 0.55442 0.0
H475 H 0.58082 0.53246 0.56968 0.0
H476 H 0.55333 0.62527 0.56614 0.0
C477 C 0.7836 0.67778 0.58936 0.0
C478 C 0.79436 0.65117 0.5928 0.0
C479 C 0.80632 0.64209 0.58447 0.0
C480 C 0.80223 0.66361 0.57648 0.0
N481 N 0.78855 0.68578 0.57928 0.0
Co482 Co 0.77826 0.72114 0.57023 0.0
N483 N 0.78705 0.69905 0.55707 0.0
C484 C 0.79925 0.67331 0.55657 0.0
C485 C 0.80082 0.66086 0.54655 0.0
C486 C 0.78923 0.68033 0.54029 0.0
C487 C 0.78169 0.70432 0.54682 0.0
N488 N 0.76855 0.75704 0.56116 0.0
C489 C 0.76689 0.7594 0.55041 0.0
C490 C 0.76148 0.79033 0.54746 0.0
C491 C 0.75982 0.80776 0.55664 0.0
C492 C 0.76442 0.78677 0.5647 0.0
N493 N 0.76908 0.74214 0.58351 0.0
C494 C 0.76448 0.77325 0.58464 0.0
C495 C 0.75781 0.78028 0.59472 0.0
C496 C 0.75825 0.75171 0.60022 0.0
C497 C 0.76518 0.72884 0.59316 0.0
N498 N 0.80464 0.74346 0.57126 0.0
C499 C 0.83806 0.78554 0.57272 0.0
C500 C 0.82927 0.77198 0.58185 0.0
C501 C 0.81289 0.75067 0.58095 0.0
C502 C 0.83032 0.77612 0.56284 0.0
C503 C 0.81369 0.7554 0.56228 0.0
N504 N 0.75161 0.70014 0.56923 0.0
C505 C 0.71533 0.70516 0.5695 0.0
C506 C 0.71286 0.67203 0.56841 0.0
C507 C 0.73038 0.65317 0.56779 0.0
C508 C 0.74956 0.66769 0.56811 0.0
C509 C 0.73462 0.71857 0.56997 0.0
H510 H 0.76271 0.65264 0.56749 0.0
H511 H 0.73567 0.74405 0.57105 0.0
H512 H 0.80647 0.74093 0.58815 0.0
H513 H 0.80773 0.7502 0.55453 0.0
C514 C 0.80677 0.65896 0.56579 0.0
C515 C 0.76898 0.69507 0.59585 0.0
C516 C 0.7724 0.73405 0.54279 0.0
C517 C 0.76316 0.79314 0.57565 0.0
H518 H 0.79334 0.63914 0.60041 0.0
H519 H 0.81576 0.621 0.58406 0.0
H520 H 0.80895 0.63965 0.54412 0.0
H521 H 0.78715 0.67763 0.53181 0.0
H522 H 0.75946 0.79968 0.5395 0.0
H523 H 0.75566 0.83272 0.55734 0.0
H524 H 0.75237 0.80309 0.5976 0.0
H525 H 0.75393 0.74807 0.60843 0.0
H526 H 0.83491 0.77798 0.58967 0.0
H527 H 0.83651 0.78581 0.55554 0.0
H528 H 0.70237 0.72076 0.57019 0.0
H529 H 0.72929 0.62745 0.56691 0.0
C530 C 0.49824 0.67986 0.66689 0.0
C531 C 0.48701 0.65326 0.66398 0.0
C532 C 0.47555 0.64517 0.67263 0.0
C533 C 0.48037 0.66723 0.68028 0.0
N534 N 0.49405 0.68882 0.67697 0.0
Co535 Co 0.5052 0.72468 0.68545 0.0
N536 N 0.49693 0.70404 0.69903 0.0
C537 C 0.48449 0.67871 0.70002 0.0
C538 C 0.48321 0.66734 0.71023 0.0
C539 C 0.49523 0.68712 0.71608 0.0
C540 C 0.50279 0.71019 0.70914 0.0
N541 N 0.51577 0.76108 0.69393 0.0
C542 C 0.51808 0.76436 0.70462 0.0
C543 C 0.52402 0.79535 0.7071 0.0
C544 C 0.52535 0.81189 0.69768 0.0
C545 C 0.52006 0.79034 0.68997 0.0
N546 N 0.51385 0.74423 0.67177 0.0
C547 C 0.51876 0.77508 0.67021 0.0
C548 C 0.52485 0.78115 0.65994 0.0
C549 C 0.52368 0.75222 0.65477 0.0
C550 C 0.51692 0.7301 0.66218 0.0
N551 N 0.479 0.74763 0.68456 0.0
C552 C 0.44581 0.79029 0.68315 0.0
C553 C 0.45397 0.77583 0.67404 0.0
C554 C 0.47024 0.75426 0.67493 0.0
C555 C 0.45408 0.78154 0.693 0.0
C556 C 0.47057 0.76053 0.69353 0.0
N557 N 0.53165 0.70302 0.68631 0.0
C558 C 0.56796 0.70696 0.68562 0.0
C559 C 0.57007 0.67385 0.68698 0.0
C560 C 0.55239 0.65554 0.68796 0.0
C561 C 0.53338 0.67059 0.68773 0.0
C562 C 0.54881 0.7209 0.6852 0.0
H563 H 0.52011 0.65597 0.68865 0.0
H564 H 0.548 0.74632 0.68386 0.0
H565 H 0.47616 0.7438 0.66774 0.0
H566 H 0.47695 0.75586 0.70124 0.0
C567 C 0.47639 0.6637 0.6911 0.0
C568 C 0.51248 0.69628 0.65988 0.0
C569 C 0.51272 0.73992 0.71266 0.0
C570 C 0.5208 0.79566 0.67893 0.0
H571 H 0.48737 0.64064 0.65648 0.0
H572 H 0.46592 0.6244 0.67345 0.0
H573 H 0.47494 0.64664 0.71304 0.0
H574 H 0.49764 0.68521 0.72456 0.0
H575 H 0.5266 0.80534 0.7149 0.0
H576 H 0.52977 0.83663 0.6966 0.0
H577 H 0.53036 0.80356 0.65671 0.0
H578 H 0.52741 0.74787 0.64652 0.0
H579 H 0.44791 0.78129 0.66625 0.0
H580 H 0.44841 0.79195 0.70028 0.0
H581 H 0.58108 0.7221 0.68467 0.0
H582 H 0.55325 0.62984 0.68906 0.0
C583 C 0.78287 0.57137 0.66651 0.0
C584 C 0.79407 0.59768 0.66321 0.0
C585 C 0.80605 0.60601 0.67162 0.0
C586 C 0.80154 0.58439 0.67951 0.0
N587 N 0.78757 0.56286 0.67658 0.0
Co588 Co 0.7766 0.52763 0.68546 0.0
N589 N 0.78544 0.549 0.69873 0.0
C590 C 0.79815 0.57408 0.69938 0.0
C591 C 0.79989 0.58597 0.70947 0.0
C592 C 0.78787 0.56683 0.71561 0.0
C593 C 0.77984 0.5436 0.70894 0.0
N594 N 0.7662 0.49185 0.69434 0.0
C595 C 0.76409 0.48938 0.70506 0.0
C596 C 0.75807 0.45865 0.7079 0.0
C597 C 0.75651 0.44144 0.69867 0.0
C598 C 0.76174 0.46236 0.6907 0.0
N599 N 0.7674 0.50735 0.67207 0.0
C600 C 0.76242 0.47644 0.67081 0.0
C601 C 0.75583 0.46995 0.66067 0.0
C602 C 0.75673 0.49868 0.65528 0.0
C603 C 0.76384 0.52109 0.66245 0.0
N604 N 0.80268 0.50446 0.68451 0.0
C605 C 0.83588 0.46191 0.68312 0.0
C606 C 0.82743 0.47598 0.67398 0.0
C607 C 0.81115 0.49749 0.67485 0.0
C608 C 0.82787 0.47095 0.69298 0.0
C609 C 0.81136 0.49191 0.6935 0.0
N610 N 0.75025 0.54957 0.68638 0.0
C611 C 0.71392 0.54589 0.68602 0.0
C612 C 0.71195 0.57911 0.68705 0.0
C613 C 0.72971 0.59733 0.6877 0.0
C614 C 0.74867 0.5821 0.68748 0.0
C615 C 0.733 0.53177 0.68559 0.0
H616 H 0.76202 0.59665 0.68815 0.0
H617 H 0.7337 0.50626 0.6845 0.0
H618 H 0.80499 0.50766 0.66765 0.0
H619 H 0.80519 0.49686 0.70123 0.0
C620 C 0.80603 0.58844 0.69025 0.0
C621 C 0.7681 0.55482 0.6599 0.0
C622 C 0.7697 0.51436 0.71279 0.0
C623 C 0.76064 0.45633 0.67973 0.0
H624 H 0.79333 0.60998 0.65563 0.0
H625 H 0.8158 0.62671 0.67214 0.0
H626 H 0.80844 0.60662 0.71203 0.0
H627 H 0.78578 0.56924 0.7241 0.0
H628 H 0.75556 0.44931 0.71582 0.0
H629 H 0.75193 0.41668 0.69788 0.0
H630 H 0.75012 0.44743 0.65769 0.0
H631 H 0.75258 0.50272 0.64706 0.0
H632 H 0.83329 0.47028 0.66618 0.0
H633 H 0.83377 0.46082 0.70028 0.0
H634 H 0.70072 0.53082 0.68533 0.0
H635 H 0.72896 0.6231 0.68854 0.0
C636 C 0.51556 0.47863 0.41171 0.0
C637 C 0.50873 0.4999 0.40403 0.0
C638 C 0.50675 0.52915 0.40896 0.0
C639 C 0.51246 0.52416 0.41935 0.0
N640 N 0.51788 0.49365 0.4212 0.0
Co641 Co 0.52636 0.47565 0.43512 0.0
N642 N 0.51437 0.51159 0.4432 0.0
C643 C 0.50901 0.5401 0.43902 0.0
C644 C 0.50035 0.55993 0.44641 0.0
C645 C 0.50059 0.543 0.4558 0.0
C646 C 0.50971 0.51376 0.4537 0.0
N647 N 0.53495 0.45681 0.44888 0.0
C648 C 0.52931 0.46401 0.45894 0.0
C649 C 0.5409 0.447 0.46626 0.0
C650 C 0.55402 0.42856 0.46057 0.0
C651 C 0.54996 0.43542 0.45013 0.0
N652 N 0.53866 0.43994 0.42709 0.0
C653 C 0.55331 0.42038 0.43061 0.0
C654 C 0.55888 0.39786 0.42325 0.0
C655 C 0.54697 0.40368 0.41455 0.0
C656 C 0.53478 0.42952 0.41713 0.0
N657 N 0.55193 0.5003 0.43433 0.0
C658 C 0.58465 0.54376 0.43311 0.0
C659 C 0.5755 0.53635 0.44284 0.0
C660 C 0.5592 0.51503 0.44327 0.0
C661 C 0.57747 0.52793 0.42402 0.0
C662 C 0.56139 0.50595 0.42482 0.0
N663 N 0.50043 0.45254 0.4359 0.0
C664 C 0.48015 0.4049 0.43843 0.0
C665 C 0.4623 0.42215 0.43634 0.0
C666 C 0.46424 0.45497 0.43424 0.0
C667 C 0.48315 0.4694 0.43396 0.0
C668 C 0.49904 0.42054 0.43819 0.0
H669 H 0.48365 0.49451 0.4321 0.0
H670 H 0.51249 0.4068 0.43978 0.0
H671 H 0.55205 0.51154 0.45086 0.0
H672 H 0.55621 0.49431 0.41768 0.0
C673 C 0.50906 0.54495 0.42793 0.0
C674 C 0.52058 0.44473 0.40978 0.0
C675 C 0.51505 0.48954 0.46187 0.0
C676 C 0.55844 0.41995 0.44137 0.0
H677 H 0.50541 0.49476 0.39579 0.0
H678 H 0.50082 0.55096 0.4055 0.0
H679 H 0.49383 0.58334 0.44505 0.0
H680 H 0.49467 0.55138 0.46329 0.0
H681 H 0.54054 0.44849 0.47484 0.0
H682 H 0.56512 0.41203 0.46368 0.0
H683 H 0.56959 0.37856 0.42425 0.0
H684 H 0.54724 0.39044 0.40717 0.0
H685 H 0.58036 0.54801 0.45007 0.0
H686 H 0.58419 0.53256 0.41632 0.0
H687 H 0.47963 0.37945 0.44007 0.0
H688 H 0.45115 0.46987 0.43287 0.0
C689 C 0.26855 0.26927 0.41239 0.0
C690 C 0.27583 0.24776 0.40497 0.0
C691 C 0.27726 0.21858 0.41008 0.0
C692 C 0.27078 0.22388 0.42032 0.0
N693 N 0.2654 0.25449 0.42189 0.0
Co694 Co 0.25619 0.27317 0.4355 0.0
N695 N 0.26765 0.23754 0.44401 0.0
C696 C 0.27311 0.20878 0.44014 0.0
C697 C 0.28157 0.18947 0.44779 0.0
C698 C 0.2811 0.20703 0.45701 0.0
C699 C 0.27203 0.23612 0.45455 0.0
N700 N 0.24687 0.29263 0.44895 0.0
C701 C 0.25206 0.28594 0.45912 0.0
C702 C 0.24 0.30303 0.46616 0.0
C703 C 0.22706 0.32105 0.46015 0.0
C704 C 0.23168 0.31385 0.44983 0.0
N705 N 0.24443 0.30855 0.42706 0.0
C706 C 0.22952 0.32816 0.43016 0.0
C707 C 0.22452 0.35045 0.42254 0.0
C708 C 0.2371 0.34437 0.41414 0.0
C709 C 0.24909 0.31864 0.41715 0.0
N710 N 0.23061 0.24873 0.43448 0.0
C711 C 0.19733 0.2065 0.43297 0.0
C712 C 0.20621 0.21351 0.44279 0.0
C713 C 0.22279 0.23424 0.44336 0.0
C714 C 0.20515 0.22202 0.42392 0.0
C715 C 0.22152 0.24334 0.42487 0.0
N716 N 0.28213 0.29619 0.43649 0.0
C717 C 0.30233 0.34408 0.43853 0.0
C718 C 0.32024 0.32665 0.43681 0.0
C719 C 0.31837 0.29361 0.4352 0.0
C720 C 0.29947 0.27914 0.43497 0.0
C721 C 0.28346 0.3284 0.43837 0.0
H722 H 0.29903 0.25387 0.43344 0.0
H723 H 0.26995 0.34229 0.43962 0.0
H724 H 0.22966 0.23759 0.45102 0.0
H725 H 0.22718 0.25478 0.41776 0.0
C726 C 0.27363 0.20338 0.42909 0.0
C727 C 0.26395 0.30323 0.41027 0.0
C728 C 0.2665 0.261 0.4624 0.0
C729 C 0.22366 0.32896 0.44082 0.0
H730 H 0.27985 0.2527 0.39679 0.0
H731 H 0.28338 0.19665 0.40686 0.0
H732 H 0.28822 0.16604 0.44671 0.0
H733 H 0.28692 0.19921 0.46461 0.0
H734 H 0.23999 0.30192 0.47475 0.0
H735 H 0.21574 0.33759 0.46299 0.0
H736 H 0.21375 0.36978 0.4232 0.0
H737 H 0.23744 0.3574 0.40669 0.0
H738 H 0.20086 0.20205 0.44999 0.0
H739 H 0.19868 0.21768 0.41616 0.0
H740 H 0.3028 0.3697 0.43978 0.0
H741 H 0.3315 0.2786 0.43415 0.0
C742 C 0.5176 0.26999 0.34293 0.0
C743 C 0.51063 0.24847 0.35049 0.0
C744 C 0.50863 0.21943 0.34543 0.0
C745 C 0.5145 0.22477 0.33508 0.0
N746 N 0.52003 0.25531 0.33339 0.0
Co747 Co 0.52858 0.27393 0.3196 0.0
N748 N 0.51628 0.23873 0.31131 0.0
C749 C 0.51078 0.21006 0.3153 0.0
C750 C 0.50183 0.19096 0.3078 0.0
C751 C 0.50201 0.20856 0.29855 0.0
C752 C 0.51139 0.23746 0.30083 0.0
N753 N 0.53726 0.29341 0.30597 0.0
C754 C 0.5314 0.28706 0.29588 0.0
C755 C 0.5431 0.30419 0.28865 0.0
C756 C 0.55651 0.32187 0.29443 0.0
C757 C 0.5525 0.31444 0.30483 0.0
N758 N 0.54111 0.30894 0.32783 0.0
C759 C 0.55594 0.32837 0.32445 0.0
C760 C 0.56152 0.35051 0.33194 0.0
C761 C 0.54942 0.34457 0.34056 0.0
C762 C 0.53711 0.31905 0.3378 0.0
N763 N 0.55394 0.2488 0.32017 0.0
C764 C 0.58629 0.20461 0.32099 0.0
C765 C 0.57707 0.21276 0.31134 0.0
C766 C 0.56097 0.23444 0.31112 0.0
C767 C 0.57938 0.22007 0.33021 0.0
C768 C 0.56346 0.24239 0.32961 0.0
N769 N 0.50284 0.29745 0.31895 0.0
C770 C 0.48279 0.34503 0.31594 0.0
C771 C 0.46491 0.32757 0.31755 0.0
C772 C 0.4666 0.29511 0.32011 0.0
C773 C 0.48547 0.28074 0.32084 0.0
C774 C 0.50163 0.32943 0.31659 0.0
H775 H 0.48586 0.25576 0.32288 0.0
H776 H 0.51518 0.34305 0.31511 0.0
H777 H 0.55375 0.23851 0.30358 0.0
H778 H 0.55844 0.2537 0.33684 0.0
C779 C 0.51091 0.20451 0.32636 0.0
C780 C 0.52261 0.30383 0.34499 0.0
C781 C 0.51673 0.26226 0.29284 0.0
C782 C 0.56113 0.32925 0.31369 0.0
H783 H 0.50718 0.25335 0.35874 0.0
H784 H 0.50254 0.19756 0.34877 0.0
H785 H 0.49511 0.16761 0.30901 0.0
H786 H 0.49585 0.20086 0.29102 0.0
H787 H 0.54259 0.30332 0.28006 0.0
H788 H 0.56772 0.33833 0.2914 0.0
H789 H 0.57234 0.36971 0.33106 0.0
H790 H 0.5496 0.35756 0.34799 0.0
H791 H 0.58172 0.20143 0.30401 0.0
H792 H 0.58619 0.21488 0.33784 0.0
H793 H 0.4822 0.37027 0.31396 0.0
H794 H 0.45332 0.28074 0.32162 0.0
C795 C 0.27421 0.4784 0.34361 0.0
C796 C 0.28543 0.49675 0.35059 0.0
C797 C 0.29124 0.52357 0.34511 0.0
C798 C 0.28332 0.52003 0.3351 0.0
N799 N 0.27241 0.49296 0.33394 0.0
Co800 Co 0.2604 0.47643 0.32038 0.0
N801 N 0.27166 0.51291 0.31178 0.0
C802 C 0.28139 0.53885 0.31565 0.0
C803 C 0.28834 0.55906 0.30787 0.0
C804 C 0.28273 0.54527 0.29849 0.0
C805 C 0.2724 0.51738 0.30105 0.0
N806 N 0.24914 0.45872 0.30684 0.0
C807 C 0.2511 0.46898 0.29665 0.0
C808 C 0.23962 0.45055 0.28974 0.0
C809 C 0.23088 0.42707 0.29568 0.0
C810 C 0.23718 0.4327 0.30586 0.0
N811 N 0.24858 0.44043 0.32894 0.0
C812 C 0.2358 0.41763 0.32544 0.0
C813 C 0.23043 0.39572 0.33306 0.0
C814 C 0.24066 0.40472 0.34194 0.0
C815 C 0.25175 0.4317 0.33919 0.0
N816 N 0.23519 0.50265 0.32261 0.0
C817 C 0.20111 0.54417 0.32319 0.0
C818 C 0.19932 0.51231 0.31989 0.0
C819 C 0.21639 0.49216 0.31962 0.0
C820 C 0.21996 0.55418 0.32673 0.0
C821 C 0.23641 0.53322 0.32655 0.0
N822 N 0.28569 0.45144 0.31817 0.0
C823 C 0.30427 0.40149 0.31664 0.0
C824 C 0.32268 0.41803 0.31636 0.0
C825 C 0.32209 0.4513 0.31693 0.0
C826 C 0.30378 0.46723 0.31791 0.0
C827 C 0.28597 0.41863 0.31738 0.0
H828 H 0.3048 0.49252 0.31861 0.0
H829 H 0.2722 0.40515 0.31739 0.0
H830 H 0.21398 0.46845 0.31683 0.0
H831 H 0.25003 0.54281 0.32955 0.0
C832 C 0.28672 0.5406 0.32644 0.0
C833 C 0.26601 0.4469 0.34638 0.0
C834 C 0.26398 0.4954 0.29309 0.0
C835 C 0.2314 0.41482 0.31469 0.0
H836 H 0.28933 0.49097 0.35873 0.0
H837 H 0.30067 0.54283 0.34797 0.0
H838 H 0.29739 0.58039 0.30887 0.0
H839 H 0.28643 0.55439 0.29068 0.0
H840 H 0.2377 0.45364 0.28126 0.0
H841 H 0.22095 0.40829 0.29293 0.0
H842 H 0.22104 0.37474 0.33212 0.0
H843 H 0.24052 0.39213 0.34948 0.0
H844 H 0.18493 0.50319 0.31719 0.0
H845 H 0.22207 0.5783 0.32967 0.0
H846 H 0.30399 0.3756 0.31617 0.0
H847 H 0.33587 0.46517 0.31688 0.0
C848 C 0.99843 0.07117 0.58813 0.0
C849 C 0.986 0.09638 0.59104 0.0
C850 C 0.97337 0.10189 0.5826 0.0
C851 C 0.9788 0.07982 0.57506 0.0
N852 N 0.99401 0.06084 0.57823 0.0
Co853 Co 1.00643 0.026 0.56989 0.0
N854 N 0.99675 0.04492 0.55636 0.0
C855 C 0.98127 0.06561 0.55542 0.0
C856 C 0.97653 0.07263 0.54508 0.0
C857 C 0.9897 0.05505 0.53911 0.0
C858 C 1.00198 0.03836 0.54619 0.0
N859 N 0.01853 0.99085 0.56148 0.0
C860 C 0.02274 0.98937 0.55092 0.0
C861 C 0.03228 0.96065 0.54856 0.0
C862 C 0.03324 0.94332 0.55785 0.0
C863 C 0.02458 0.96241 0.56544 0.0
N864 N 1.01604 0.00787 0.58355 0.0
C865 C 0.02204 0.97755 0.58521 0.0
C866 C 0.02856 0.97257 0.59547 0.0
C867 C 0.0265 1.00164 0.60051 0.0
C868 C 0.01883 0.02278 0.59302 0.0
N869 N 0.98129 1.00036 0.57099 0.0
C870 C 0.94837 0.95726 0.57259 0.0
C871 C 0.95604 0.97298 0.5816 0.0
C872 C 0.97223 0.99469 0.58061 0.0
C873 C 0.95727 0.96442 0.56277 0.0
C874 C 0.97366 0.98557 0.56215 0.0
N875 N 0.03193 0.05031 0.56879 0.0
C876 C 0.0683 0.04961 0.56951 0.0
C877 C 0.06928 0.08263 0.56774 0.0
C878 C 0.05101 0.09935 0.56658 0.0
C879 C 0.03249 0.08268 0.56699 0.0
C880 C 0.0497 0.03415 0.57013 0.0
H881 H 0.01866 0.0959 0.56591 0.0
H882 H 0.04983 0.0089 0.57179 0.0
H883 H 0.97774 0.0063 0.58769 0.0
H884 H 0.98051 0.98909 0.55448 0.0
C885 C 0.973 0.08038 0.56438 0.0
C886 C 1.01352 0.05646 0.59508 0.0
C887 C 0.01663 0.01374 0.54296 0.0
C888 C 0.02527 0.95717 0.5765 0.0
H889 H 0.98608 0.10946 0.59845 0.0
H890 H 0.96229 0.12077 0.58186 0.0
H891 H 0.96498 0.08875 0.5422 0.0
H892 H 0.98967 0.05392 0.53053 0.0
H893 H 0.03804 0.9529 0.54095 0.0
H894 H 0.04027 0.92019 0.55901 0.0
H895 H 0.03509 0.95094 0.59875 0.0
H896 H 0.03035 0.00677 0.60868 0.0
H897 H 0.94957 0.96855 0.58937 0.0
H898 H 0.95208 0.95283 0.55559 0.0
H899 H 0.08192 0.03573 0.57061 0.0
H900 H 0.05103 0.12496 0.56518 0.0
C901 C 0.28284 0.18236 0.58864 0.0
C902 C 0.2939 0.15572 0.59176 0.0
C903 C 0.3055 0.14727 0.58323 0.0
C904 C 0.30092 0.16916 0.57543 0.0
N905 N 0.28726 0.19098 0.57854 0.0
Co906 Co 0.27641 0.22672 0.56983 0.0
N907 N 0.28473 0.20551 0.55642 0.0
C908 C 0.29707 0.18001 0.55562 0.0
C909 C 0.29836 0.16825 0.54549 0.0
C910 C 0.28643 0.18792 0.53949 0.0
C911 C 0.27894 0.21133 0.54627 0.0
N912 N 0.26614 0.263 0.5611 0.0
C913 C 0.26394 0.26591 0.55039 0.0
C914 C 0.25816 0.29687 0.5477 0.0
C915 C 0.25684 0.31377 0.557 0.0
C916 C 0.26198 0.29245 0.56487 0.0
N917 N 0.2677 0.24682 0.58335 0.0
C918 C 0.26296 0.27778 0.58473 0.0
C919 C 0.25672 0.28419 0.59493 0.0
C920 C 0.2576 0.25535 0.60026 0.0
C921 C 0.26435 0.23295 0.59298 0.0
N922 N 0.30273 0.24935 0.57067 0.0
C923 C 0.336 0.29185 0.57192 0.0
C924 C 0.32769 0.27775 0.58109 0.0
C925 C 0.31137 0.25625 0.58029 0.0
C926 C 0.32785 0.28277 0.5621 0.0
C927 C 0.31131 0.26185 0.56165 0.0
N928 N 0.24982 0.20546 0.569 0.0
C929 C 0.21353 0.21013 0.56948 0.0
C930 C 0.21117 0.17706 0.56821 0.0
C931 C 0.22873 0.15838 0.56741 0.0
C932 C 0.24787 0.17304 0.56771 0.0
C933 C 0.23278 0.22367 0.56996 0.0
H934 H 0.26105 0.15815 0.56692 0.0
H935 H 0.23376 0.24909 0.5712 0.0
H936 H 0.30532 0.24609 0.58752 0.0
H937 H 0.30503 0.25695 0.55394 0.0
C938 C 0.30503 0.16522 0.56465 0.0
C939 C 0.2685 0.19911 0.59546 0.0
C940 C 0.26925 0.24109 0.54255 0.0
C941 C 0.26114 0.29815 0.57587 0.0
H942 H 0.29334 0.1433 0.59933 0.0
H943 H 0.31505 0.12636 0.58257 0.0
H944 H 0.30655 0.14736 0.54282 0.0
H945 H 0.28407 0.18577 0.53102 0.0
H946 H 0.25565 0.30655 0.53982 0.0
H947 H 0.25251 0.3386 0.55791 0.0
H948 H 0.25128 0.30675 0.59801 0.0
H949 H 0.25368 0.25123 0.6085 0.0
H950 H 0.33365 0.28345 0.58887 0.0
H951 H 0.33364 0.29288 0.55477 0.0
H952 H 0.20052 0.22555 0.5703 0.0
H953 H 0.22769 0.13269 0.56639 0.0
C954 C 0.99859 0.17983 0.66644 0.0
C955 C 0.98753 0.15313 0.66345 0.0
C956 C 0.97608 0.14468 0.67206 0.0
C957 C 0.98074 0.16663 0.67978 0.0
N958 N 0.99431 0.18848 0.67654 0.0
Co959 Co 1.00527 0.22426 0.68512 0.0
N960 N 0.99708 0.20316 0.69862 0.0
C961 C 0.98477 0.17765 0.69955 0.0
C962 C 0.98353 0.16601 0.70972 0.0
C963 C 0.99547 0.18578 0.71563 0.0
C964 C 1.00291 0.20912 0.70875 0.0
N965 N 1.01565 0.26058 0.6937 0.0
C966 C 0.01792 0.26361 0.7044 0.0
C967 C 0.0237 0.29461 0.70696 0.0
C968 C 0.02497 0.31141 0.6976 0.0
C969 C 0.01979 0.29 0.68982 0.0
N970 N 1.01385 0.24428 0.6715 0.0
C971 C 0.01859 0.27523 0.67002 0.0
C972 C 0.02466 0.28163 0.65977 0.0
C973 C 0.02366 0.25281 0.65453 0.0
C974 C 0.01702 0.23043 0.66189 0.0
N975 N 0.97897 0.24689 0.68428 0.0
C976 C 0.94558 0.28913 0.68297 0.0
C977 C 0.95381 0.27497 0.67383 0.0
C978 C 0.97019 0.2536 0.67466 0.0
C979 C 0.95388 0.28027 0.6928 0.0
C980 C 0.97048 0.25946 0.69328 0.0
N981 N 0.03182 0.2029 0.68594 0.0
C982 C 0.06811 0.20728 0.6853 0.0
C983 C 0.07036 0.17417 0.6866 0.0
C984 C 0.05277 0.15563 0.6875 0.0
C985 C 0.03369 0.17046 0.68728 0.0
C986 C 0.0489 0.221 0.68489 0.0
H987 H 0.02048 0.15567 0.68814 0.0
H988 H 0.04797 0.24644 0.68361 0.0
H989 H 0.97617 0.24337 0.66745 0.0
H990 H 0.97687 0.2547 0.70098 0.0
C991 C 0.97675 0.16277 0.69058 0.0
C992 C 1.01278 0.19662 0.6595 0.0
C993 C 1.01265 0.2389 0.71235 0.0
C994 C 0.02052 0.29563 0.6788 0.0
H995 H 0.98801 0.14067 0.65593 0.0
H996 H 0.96657 0.12375 0.67282 0.0
H997 H 0.97537 0.14514 0.71248 0.0
H998 H 0.99787 0.18372 0.72411 0.0
H999 H 0.02622 0.30443 0.71479 0.0
H1000 H 0.02926 0.33624 0.69659 0.0
H1001 H 0.03005 0.30419 0.65661 0.0
H1002 H 0.02742 0.2487 0.64627 0.0
H1003 H 0.94772 0.28053 0.66605 0.0
H1004 H 0.94816 0.29045 0.70011 0.0
H1005 H 0.08117 0.22258 0.68442 0.0
H1006 H 0.05374 0.12992 0.68855 0.0
C1007 C 0.28394 0.07431 0.66644 0.0
C1008 C 0.29513 0.10081 0.66331 0.0
C1009 C 0.30689 0.10896 0.67182 0.0
C1010 C 0.30227 0.08705 0.67961 0.0
N1011 N 0.28845 0.06549 0.67651 0.0
Co1012 Co 0.27741 0.02989 0.68521 0.0
N1013 N 0.28594 0.05085 0.69862 0.0
C1014 C 0.29848 0.07611 0.69943 0.0
C1015 C 0.29991 0.08777 0.70956 0.0
C1016 C 0.28788 0.06827 0.71556 0.0
C1017 C 0.28017 0.04506 0.70878 0.0
N1018 N 0.26696 0.99373 0.69392 0.0
C1019 C 0.26476 0.99079 0.70463 0.0
C1020 C 0.25883 0.95989 0.70731 0.0
C1021 C 0.2574 0.94306 0.698 0.0
C1022 C 0.26263 0.96436 0.69014 0.0
N1023 N 0.26849 0.01005 0.67169 0.0
C1024 C 0.26357 0.97917 0.67029 0.0
C1025 C 0.25717 0.97298 0.6601 0.0
C1026 C 0.25813 1.00187 0.65481 0.0
C1027 C 0.26509 0.02408 0.66209 0.0
N1028 N 0.30357 0.00686 0.68431 0.0
C1029 C 0.33672 0.96416 0.68297 0.0
C1030 C 0.3284 0.9784 0.67382 0.0
C1031 C 0.31215 0.99999 0.67467 0.0
C1032 C 0.32863 0.97315 0.69281 0.0
C1033 C 0.31214 0.99417 0.69331 0.0
N1034 N 0.25099 0.05162 0.68609 0.0
C1035 C 0.21468 0.04768 0.68558 0.0
C1036 C 0.2126 0.08084 0.68674 0.0
C1037 C 0.23029 0.09918 0.68752 0.0
C1038 C 0.24929 0.0841 0.68731 0.0
C1039 C 0.23381 0.03372 0.68517 0.0
H1040 H 0.26259 0.09873 0.68807 0.0
H1041 H 0.23459 0.00826 0.68398 0.0
H1042 H 0.3061 0.01028 0.66747 0.0
H1043 H 0.3059 0.99903 0.70102 0.0
C1044 C 0.30648 0.09082 0.69038 0.0
C1045 C 0.26937 0.05791 0.65966 0.0
C1046 C 0.2702 0.0155 0.71249 0.0
C1047 C 0.26169 0.95875 0.67913 0.0
H1048 H 0.29453 0.11334 0.65577 0.0
H1049 H 0.31656 0.12972 0.67248 0.0
H1050 H 0.30826 0.10849 0.71223 0.0
H1051 H 0.28556 0.07046 0.72404 0.0
H1052 H 0.2563 0.95017 0.71518 0.0
H1053 H 0.25293 0.9183 0.69708 0.0
H1054 H 0.25156 0.95054 0.65701 0.0
H1055 H 0.25414 0.00615 0.64659 0.0
H1056 H 0.33432 0.97274 0.66603 0.0
H1057 H 0.33443 0.96292 0.70012 0.0
H1058 H 0.20153 0.03253 0.6848 0.0
H1059 H 0.22945 0.12491 0.68845 0.0
C1060 C 1.01495 0.97991 0.41231 0.0
C1061 C 1.00879 1.0026 0.40493 0.0
C1062 C 1.00783 0.03133 0.41022 0.0
C1063 C 1.01343 0.02458 0.42051 0.0
N1064 N 0.0178 0.99348 0.422 0.0
Co1065 Co 0.02603 0.97331 0.43568 0.0
N1066 N 0.01614 0.01016 0.4442 0.0
C1067 C 1.01233 0.03963 0.44028 0.0
C1068 C 1.00736 0.06132 0.44801 0.0
C1069 C 1.00842 0.04464 0.4574 0.0
C1070 C 1.01389 0.01346 0.45489 0.0
N1071 N 0.03391 0.9522 0.44925 0.0
C1072 C 0.02826 0.95865 0.45937 0.0
C1073 C 0.03544 0.9353 0.46632 0.0
C1074 C 0.047 0.91489 0.46046 0.0
C1075 C 0.04583 0.92624 0.45025 0.0
N1076 N 0.03648 0.93692 0.42717 0.0
C1077 C 0.04961 0.9145 0.43051 0.0
C1078 C 0.05423 0.89241 0.42284 0.0
C1079 C 0.04326 0.90139 0.41412 0.0
C1080 C 0.0325 0.92852 0.41701 0.0
N1081 N 0.05264 0.99493 0.43479 0.0
C1082 C 0.0864 0.03624 0.4333 0.0
C1083 C 0.07807 0.02793 0.44317 0.0
C1084 C 0.06127 0.00757 0.44374 0.0
C1085 C 0.07806 0.02194 0.42422 0.0
C1086 C 0.06151 1.001 0.42514 0.0
N1087 N 0.99918 0.95296 0.43655 0.0
C1088 C 0.9775 0.90666 0.43852 0.0
C1089 C 0.96007 0.92562 0.43731 0.0
C1090 C 0.96297 0.95865 0.43583 0.0
C1091 C 0.98238 0.9716 0.43536 0.0
C1092 C 0.9968 0.92074 0.43818 0.0
H1093 H 0.98369 0.99695 0.43399 0.0
H1094 H 1.00979 0.90551 0.43914 0.0
H1095 H 0.05483 1.00325 0.45146 0.0
H1096 H 0.05545 0.99065 0.41798 0.0
C1097 C 1.0117 0.04511 0.42926 0.0
C1098 C 0.01915 0.94615 0.40982 0.0
C1099 C 0.01887 0.98879 0.4629 0.0
C1100 C 0.05353 0.91077 0.44132 0.0
H1101 H 1.00539 0.99877 0.39662 0.0
H1102 H 1.00289 0.05411 0.40702 0.0
H1103 H 1.00333 0.08624 0.44695 0.0
H1104 H 1.00597 0.05462 0.46522 0.0
H1105 H 0.0331 0.93362 0.47482 0.0
H1106 H 0.05489 0.89381 0.46327 0.0
H1107 H 0.06349 0.87123 0.42367 0.0
H1108 H 0.043 0.8891 0.40656 0.0
H1109 H 0.08392 0.03824 0.45043 0.0
H1110 H 0.08419 0.02709 0.41642 0.0
H1111 H 0.97636 0.88099 0.43957 0.0
H1112 H 0.95032 0.97483 0.43511 0.0
C1113 C 0.75599 0.78777 0.41396 0.0
C1114 C 0.7587 0.76747 0.40534 0.0
C1115 C 0.76172 0.73726 0.40938 0.0
C1116 C 0.76041 0.74045 0.42021 0.0
N1117 N 0.75685 0.77082 0.42323 0.0
Co1118 Co 0.75119 0.78431 0.43806 0.0
N1119 N 0.76328 0.7449 0.44424 0.0
C1120 C 0.76708 0.71772 0.4389 0.0
C1121 C 0.77642 0.69501 0.4451 0.0
C1122 C 0.77839 0.7087 0.45497 0.0
C1123 C 0.76986 0.73899 0.45429 0.0
N1124 N 0.74515 0.79809 0.45279 0.0
C1125 C 0.7519 0.78653 0.46218 0.0
C1126 C 0.7417 0.80061 0.47063 0.0
C1127 C 0.72853 0.82218 0.46634 0.0
C1128 C 0.73113 0.81973 0.45558 0.0
N1129 N 0.73923 0.82396 0.43202 0.0
C1130 C 0.72801 0.84547 0.43736 0.0
C1131 C 0.72631 0.87418 0.43215 0.0
C1132 C 0.73676 0.87037 0.42291 0.0
C1133 C 0.74339 0.83876 0.42266 0.0
N1134 N 0.72483 0.76188 0.43742 0.0
C1135 C 0.69171 0.71961 0.43544 0.0
C1136 C 0.69753 0.73966 0.427 0.0
C1137 C 0.71379 0.76105 0.42821 0.0
C1138 C 0.7022 0.72247 0.44505 0.0
C1139 C 0.7187 0.74332 0.44584 0.0
N1140 N 0.77789 0.80525 0.43863 0.0
C1141 C 0.79979 0.85013 0.4425 0.0
C1142 C 0.81682 0.83329 0.43882 0.0
C1143 C 0.81366 0.80189 0.43524 0.0
C1144 C 0.79433 0.78865 0.43511 0.0
C1145 C 0.78056 0.83567 0.4424 0.0
H1146 H 0.79279 0.76467 0.43212 0.0
H1147 H 0.76786 0.84916 0.4453 0.0
H1148 H 0.71791 0.77599 0.42155 0.0
H1149 H 0.72701 0.74321 0.45318 0.0
C1150 C 0.76472 0.71669 0.42781 0.0
C1151 C 0.75112 0.82238 0.41306 0.0
C1152 C 0.76677 0.76076 0.46339 0.0
C1153 C 0.72356 0.84108 0.44808 0.0
H1154 H 0.75816 0.77349 0.39698 0.0
H1155 H 0.76479 0.71565 0.40494 0.0
H1156 H 0.78194 0.6718 0.44264 0.0
H1157 H 0.78532 0.69755 0.46182 0.0
H1158 H 0.74334 0.79569 0.47904 0.0
H1159 H 0.71872 0.83842 0.47058 0.0
H1160 H 0.71958 0.89606 0.43508 0.0
H1161 H 0.73912 0.88905 0.41707 0.0
H1162 H 0.68967 0.7386 0.41946 0.0
H1163 H 0.69825 0.70754 0.45179 0.0
H1164 H 0.80113 0.87451 0.4453 0.0
H1165 H 0.82607 0.78714 0.4326 0.0
C1166 C 0.01836 0.77857 0.34168 0.0
C1167 C 1.01048 0.75762 0.34917 0.0
C1168 C 1.00817 0.7286 0.34414 0.0
C1169 C 1.01475 0.73342 0.33388 0.0
N1170 N 0.02102 0.76359 0.33222 0.0
Co1171 Co 0.03085 0.78145 0.31855 0.0
N1172 N 0.01835 0.74664 0.31016 0.0
C1173 C 1.01198 0.71839 0.31413 0.0
C1174 C 1.00297 0.69964 0.30656 0.0
C1175 C 1.00402 0.71701 0.29727 0.0
C1176 C 1.01398 0.74538 0.29962 0.0
N1177 N 0.04072 0.80007 0.30502 0.0
C1178 C 0.03525 0.79381 0.29486 0.0
C1179 C 0.04758 0.8103 0.28776 0.0
C1180 C 0.06102 0.82746 0.29371 0.0
C1181 C 0.05637 0.82039 0.30407 0.0
N1182 N 0.0436 0.81597 0.3269 0.0
C1183 C 0.05898 0.83459 0.32372 0.0
C1184 C 0.06453 0.85662 0.33126 0.0
C1185 C 0.05183 0.85143 0.33969 0.0
C1186 C 0.0392 0.82646 0.33679 0.0
N1187 N 0.05562 0.75518 0.31966 0.0
C1188 C 0.08772 0.7104 0.32116 0.0
C1189 C 0.08027 0.72641 0.3302 0.0
C1190 C 0.06451 0.74888 0.32927 0.0
C1191 C 0.07913 0.71885 0.31133 0.0
C1192 C 0.06312 0.74058 0.31078 0.0
N1193 N 1.0058 0.80646 0.31738 0.0
C1194 C 0.98751 0.85568 0.31424 0.0
C1195 C 0.96905 0.83961 0.31544 0.0
C1196 C 0.9695 0.80691 0.31781 0.0
C1197 C 0.98784 0.791 0.31885 0.0
C1198 C 1.00575 0.83856 0.31513 0.0
H1199 H 0.98737 0.76595 0.32082 0.0
H1200 H 0.01977 0.85116 0.31396 0.0
H1201 H 0.05908 0.7604 0.33638 0.0
H1202 H 0.0565 0.7448 0.3031 0.0
C1203 C 1.01129 0.71312 0.32518 0.0
C1204 C 0.02397 0.81211 0.34374 0.0
C1205 C 0.02028 0.76964 0.29166 0.0
C1206 C 0.06477 0.835 0.31303 0.0
H1207 H 1.00665 0.76285 0.35734 0.0
H1208 H 1.00143 0.70714 0.34742 0.0
H1209 H 0.99562 0.67677 0.30772 0.0
H1210 H 0.998 0.70952 0.2897 0.0
H1211 H 0.04742 0.80935 0.27918 0.0
H1212 H 0.07264 0.84341 0.29081 0.0
H1213 H 0.07575 0.87528 0.33052 0.0
H1214 H 0.05181 0.86455 0.34709 0.0
H1215 H 0.08607 0.72111 0.33805 0.0
H1216 H 0.08452 0.7086 0.30398 0.0
H1217 H 0.98784 0.88104 0.31241 0.0
H1218 H 0.95566 0.79363 0.31899 0.0
C1219 C 0.76298 0.98112 0.34132 0.0
C1220 C 0.77072 1.00126 0.34908 0.0
C1221 C 0.78285 0.02298 0.344 0.0
C1222 C 0.78146 0.01569 0.33341 0.0
N1223 N 0.76878 0.99123 0.33146 0.0
Co1224 Co 0.76064 0.97597 0.31707 0.0
N1225 N 0.7727 0.01387 0.30975 0.0
C1226 C 0.78586 0.03454 0.31411 0.0
C1227 C 0.7911 0.05898 0.30733 0.0
C1228 C 0.78077 0.05321 0.2981 0.0
C1229 C 0.76989 0.02524 0.29971 0.0
N1230 N 0.7523 0.96059 0.30275 0.0
C1231 C 0.75163 0.97599 0.29326 0.0
C1232 C 0.74654 0.95492 0.28512 0.0
C1233 C 0.74373 0.92563 0.28969 0.0
C1234 C 0.74741 0.93027 0.30027 0.0
N1235 N 0.74907 0.93727 0.32417 0.0
C1236 C 0.74506 0.90942 0.31917 0.0
C1237 C 0.74145 0.88429 0.32585 0.0
C1238 C 0.74353 0.89661 0.33577 0.0
C1239 C 0.74775 0.9292 0.33463 0.0
N1240 N 0.73496 0.99987 0.31852 0.0
C1241 C 0.69965 0.03818 0.32002 0.0
C1242 C 0.6987 0.00558 0.31704 0.0
C1243 C 0.7165 0.98692 0.31631 0.0
C1244 C 0.71881 0.05062 0.32213 0.0
C1245 C 0.73589 0.03132 0.3215 0.0
N1246 N 0.78672 0.95342 0.3157 0.0
C1247 C 0.81678 0.94153 0.30559 0.0
C1248 C 0.82622 0.92805 0.31457 0.0
C1249 C 0.81497 0.92679 0.32402 0.0
C1250 C 0.79538 0.93909 0.32437 0.0
C1251 C 0.79724 0.95421 0.30634 0.0
H1252 H 0.78759 0.9378 0.33184 0.0
H1253 H 0.79089 0.96534 0.29937 0.0
H1254 H 0.71537 0.96217 0.31391 0.0
H1255 H 0.74997 0.0425 0.3233 0.0
C1256 C 0.78952 0.03389 0.32506 0.0
C1257 C 0.75251 0.9505 0.34365 0.0
C1258 C 0.75783 0.0093 0.29142 0.0
C1259 C 0.7449 0.90746 0.30817 0.0
H1260 H 0.76821 1.00018 0.35757 0.0
H1261 H 0.7912 0.04238 0.34759 0.0
H1262 H 0.80047 0.07952 0.30906 0.0
H1263 H 0.7811 0.06811 0.29105 0.0
H1264 H 0.7456 0.9597 0.27668 0.0
H1265 H 0.73945 0.90362 0.28578 0.0
H1266 H 0.73844 0.85962 0.32376 0.0
H1267 H 0.74312 0.88221 0.34291 0.0
H1268 H 0.68437 0.99441 0.31534 0.0
H1269 H 0.72093 0.07559 0.32409 0.0
H1270 H 0.82439 0.94258 0.298 0.0
H1271 H 0.82135 0.91727 0.33128 0.0
C1272 C 0.99645 0.57571 0.08682 0.0
C1273 C 0.9842 0.60135 0.08953 0.0
C1274 C 0.97211 0.60725 0.08091 0.0
C1275 C 0.97764 0.58496 0.07346 0.0
N1276 N 0.99241 0.56548 0.07687 0.0
Co1277 Co 1.00478 0.53016 0.06872 0.0
N1278 N 0.99604 0.54929 0.05504 0.0
C1279 C 0.9809 0.57048 0.05387 0.0
C1280 C 0.97677 0.57755 0.04346 0.0
C1281 C 0.99 0.55947 0.0377 0.0
C1282 C 1.00171 0.54246 0.04496 0.0
N1283 N 0.01687 0.49455 0.06052 0.0
C1284 C 0.02162 0.49284 0.05003 0.0
C1285 C 0.03096 0.46384 0.04784 0.0
C1286 C 0.0312 0.44655 0.05716 0.0
C1287 C 0.02235 0.46596 0.0646 0.0
N1288 N 1.01344 0.5118 0.08254 0.0
C1289 C 0.01892 0.48128 0.08431 0.0
C1290 C 0.02484 0.47614 0.09466 0.0
C1291 C 0.0229 0.5053 0.09965 0.0
C1292 C 1.01591 0.52666 0.09204 0.0
N1293 N 0.97936 0.50537 0.06949 0.0
C1294 C 0.94658 0.46174 0.0707 0.0
C1295 C 0.95384 0.47771 0.07979 0.0
C1296 C 0.96993 0.49961 0.07899 0.0
C1297 C 0.95568 0.46974 0.06095 0.0
C1298 C 0.972 0.49094 0.06055 0.0
N1299 N 0.03054 0.55357 0.06797 0.0
C1300 C 0.0667 0.55184 0.06974 0.0
C1301 C 0.06832 0.5848 0.06782 0.0
C1302 C 0.05037 0.60175 0.06573 0.0
C1303 C 0.03166 0.58569 0.06582 0.0
C1304 C 0.04793 0.53696 0.06986 0.0
H1305 H 0.0181 0.59919 0.06428 0.0
H1306 H 0.04761 0.51176 0.07159 0.0
H1307 H 0.97521 0.51105 0.08616 0.0
H1308 H 0.97901 0.4948 0.05294 0.0
C1309 C 0.97238 0.58561 0.0627 0.0
C1310 C 1.01093 0.56051 0.09401 0.0
C1311 C 0.01618 0.51729 0.04196 0.0
C1312 C 0.02236 0.46075 0.07567 0.0
H1313 H 0.98405 0.61444 0.09694 0.0
H1314 H 0.96132 0.62648 0.08 0.0
H1315 H 0.96557 0.59401 0.04041 0.0
H1316 H 0.99035 0.55823 0.02912 0.0
H1317 H 0.03706 0.45585 0.04034 0.0
H1318 H 0.0379 0.42323 0.05844 0.0
H1319 H 0.0309 0.45432 0.09805 0.0
H1320 H 0.0264 0.51033 0.10787 0.0
H1321 H 0.94765 0.47276 0.08757 0.0
H1322 H 0.95047 0.4595 0.05356 0.0
H1323 H 0.07992 0.53724 0.0711 0.0
H1324 H 0.0507 0.62728 0.06423 0.0
C1325 C 0.2828 0.68105 0.08761 0.0
C1326 C 0.29367 0.65394 0.09045 0.0
C1327 C 0.3048 0.64557 0.08174 0.0
C1328 C 0.30017 0.668 0.07411 0.0
N1329 N 0.28692 0.69007 0.0775 0.0
Co1330 Co 0.27616 0.72659 0.06911 0.0
N1331 N 0.28378 0.70593 0.0555 0.0
C1332 C 0.29584 0.68018 0.05441 0.0
C1333 C 0.29671 0.66903 0.04419 0.0
C1334 C 0.28481 0.68939 0.03843 0.0
C1335 C 0.27775 0.71253 0.04544 0.0
N1336 N 0.26588 0.76358 0.06071 0.0
C1337 C 0.26329 0.76713 0.05004 0.0
C1338 C 0.25766 0.79834 0.04759 0.0
C1339 C 0.25685 0.81476 0.057 0.0
C1340 C 0.26213 0.79292 0.06469 0.0
N1341 N 0.26825 0.74624 0.08285 0.0
C1342 C 0.26395 0.77728 0.08444 0.0
C1343 C 0.25826 0.78339 0.09476 0.0
C1344 C 0.25906 0.7543 0.09993 0.0
C1345 C 0.26521 0.73205 0.09246 0.0
N1346 N 0.30263 0.74842 0.06981 0.0
C1347 C 0.33538 0.79173 0.07115 0.0
C1348 C 0.32819 0.77544 0.0802 0.0
C1349 C 0.31196 0.75382 0.07936 0.0
C1350 C 0.32666 0.78379 0.06134 0.0
C1351 C 0.31053 0.76224 0.06085 0.0
N1352 N 0.24942 0.70612 0.06844 0.0
C1353 C 0.21331 0.71165 0.06968 0.0
C1354 C 0.21045 0.67875 0.06807 0.0
C1355 C 0.22778 0.65989 0.0665 0.0
C1356 C 0.24706 0.67401 0.06668 0.0
C1357 C 0.23267 0.72464 0.06993 0.0
H1358 H 0.26004 0.65892 0.06548 0.0
H1359 H 0.234 0.7499 0.07138 0.0
H1360 H 0.30639 0.7426 0.08652 0.0
H1361 H 0.30391 0.75802 0.05318 0.0
C1362 C 0.3039 0.66461 0.06328 0.0
C1363 C 0.26905 0.69798 0.09471 0.0
C1364 C 0.26828 0.74276 0.04198 0.0
C1365 C 0.2619 0.7981 0.07573 0.0
H1366 H 0.2933 0.6412 0.09796 0.0
H1367 H 0.3141 0.62446 0.08086 0.0
H1368 H 0.30461 0.64813 0.04132 0.0
H1369 H 0.28221 0.68788 0.02996 0.0
H1370 H 0.25496 0.80852 0.0398 0.0
H1371 H 0.25281 0.83964 0.0581 0.0
H1372 H 0.25322 0.80596 0.09802 0.0
H1373 H 0.25546 0.74994 0.10819 0.0
H1374 H 0.33442 0.78032 0.08798 0.0
H1375 H 0.33199 0.79465 0.05404 0.0
H1376 H 0.20064 0.72765 0.07069 0.0
H1377 H 0.22657 0.63431 0.06532 0.0
C1378 C 0.99702 0.68197 0.16631 0.0
C1379 C 0.98599 0.65499 0.16357 0.0
C1380 C 0.97487 0.64682 0.17233 0.0
C1381 C 0.97968 0.66921 0.17988 0.0
N1382 N 0.99304 0.69106 0.1764 0.0
Co1383 Co 1.00406 0.72742 0.18468 0.0
N1384 N 0.99638 0.70695 0.19837 0.0
C1385 C 0.98406 0.68154 0.19955 0.0
C1386 C 0.98307 0.67053 0.20981 0.0
C1387 C 0.99518 0.69062 0.2155 0.0
C1388 C 1.00251 0.71347 0.20841 0.0
N1389 N 1.0146 0.76424 0.19295 0.0
C1390 C 0.01741 0.76768 0.20359 0.0
C1391 C 0.02327 0.7988 0.20596 0.0
C1392 C 0.02401 0.81526 0.19651 0.0
C1393 C 0.01848 0.79353 0.1889 0.0
N1394 N 1.01204 0.74693 0.17087 0.0
C1395 C 0.0165 0.7779 0.16919 0.0
C1396 C 0.02211 0.78397 0.15885 0.0
C1397 C 0.02107 0.75491 0.15375 0.0
C1398 C 1.01487 0.73273 0.16129 0.0
N1399 N 0.97764 0.74964 0.18396 0.0
C1400 C 0.94396 0.79118 0.18271 0.0
C1401 C 0.95194 0.77665 0.17358 0.0
C1402 C 0.96846 0.75559 0.17439 0.0
C1403 C 0.95265 0.78309 0.19251 0.0
C1404 C 0.96941 0.76265 0.19296 0.0
N1405 N 0.0307 0.70645 0.18537 0.0
C1406 C 0.06686 0.71095 0.18386 0.0
C1407 C 0.06942 0.67803 0.18569 0.0
C1408 C 0.05193 0.65972 0.18749 0.0
C1409 C 0.03279 0.67434 0.18732 0.0
C1410 C 0.0476 0.72448 0.18369 0.0
H1411 H 0.01969 0.65961 0.18867 0.0
H1412 H 0.04648 0.74976 0.18212 0.0
H1413 H 0.97424 0.745 0.16719 0.0
H1414 H 0.97614 0.75851 0.20062 0.0
C1415 C 0.97591 0.66603 0.19073 0.0
C1416 C 1.01074 0.69876 0.1591 0.0
C1417 C 1.01261 0.74325 0.21172 0.0
C1418 C 0.01869 0.79871 0.17785 0.0
H1419 H 0.98622 0.64224 0.15609 0.0
H1420 H 0.96545 0.62587 0.17329 0.0
H1421 H 0.97497 0.64984 0.21276 0.0
H1422 H 0.99782 0.68901 0.22397 0.0
H1423 H 0.02619 0.80888 0.21371 0.0
H1424 H 0.02821 0.84006 0.19534 0.0
H1425 H 0.02722 0.80647 0.15552 0.0
H1426 H 0.02452 0.75052 0.14548 0.0
H1427 H 0.94554 0.78168 0.16583 0.0
H1428 H 0.94709 0.79362 0.1998 0.0
H1429 H 0.07969 0.72651 0.18265 0.0
H1430 H 0.05292 0.63416 0.18885 0.0
C1431 C 0.28333 0.5765 0.16667 0.0
C1432 C 0.29452 0.60297 0.16353 0.0
C1433 C 0.30609 0.61143 0.17208 0.0
C1434 C 0.30136 0.58969 0.17991 0.0
N1435 N 0.28764 0.56798 0.1768 0.0
Co1436 Co 0.27659 0.53247 0.18554 0.0
N1437 N 0.28489 0.55375 0.19893 0.0
C1438 C 0.29744 0.57899 0.19973 0.0
C1439 C 0.29869 0.59092 0.20984 0.0
C1440 C 0.2865 0.57164 0.21583 0.0
C1441 C 0.2789 0.54827 0.20907 0.0
N1442 N 0.26604 0.4965 0.19429 0.0
C1443 C 0.26353 0.49393 0.20499 0.0
C1444 C 0.25757 0.46309 0.20774 0.0
C1445 C 0.25643 0.44594 0.19847 0.0
C1446 C 0.26186 0.467 0.19058 0.0
N1447 N 0.268 0.5122 0.17202 0.0
C1448 C 0.26326 0.48121 0.17069 0.0
C1449 C 0.25716 0.47464 0.16048 0.0
C1450 C 0.25816 0.50338 0.15509 0.0
C1451 C 0.26483 0.52589 0.16235 0.0
N1452 N 0.30279 0.50962 0.18479 0.0
C1453 C 0.33576 0.46665 0.18355 0.0
C1454 C 0.32773 0.48118 0.17439 0.0
C1455 C 0.31156 0.50291 0.17519 0.0
C1456 C 0.32754 0.47558 0.19337 0.0
C1457 C 0.31114 0.49677 0.19382 0.0
N1458 N 0.25013 0.55401 0.18623 0.0
C1459 C 0.21393 0.54996 0.18492 0.0
C1460 C 0.2116 0.58307 0.18627 0.0
C1461 C 0.22923 0.60127 0.18779 0.0
C1462 C 0.24828 0.58632 0.18776 0.0
C1463 C 0.23308 0.5361 0.18488 0.0
H1464 H 0.2615 0.60095 0.18885 0.0
H1465 H 0.23401 0.51067 0.18364 0.0
H1466 H 0.30569 0.51336 0.16797 0.0
H1467 H 0.30474 0.50159 0.20151 0.0
C1468 C 0.3055 0.59361 0.19068 0.0
C1469 C 0.26906 0.55968 0.15983 0.0
C1470 C 0.2687 0.51893 0.21281 0.0
C1471 C 0.26124 0.46105 0.17958 0.0
H1472 H 0.29409 0.61525 0.15594 0.0
H1473 H 0.31574 0.63221 0.17272 0.0
H1474 H 0.30697 0.61174 0.21248 0.0
H1475 H 0.28398 0.57413 0.22428 0.0
H1476 H 0.25481 0.45364 0.21562 0.0
H1477 H 0.25203 0.42114 0.19761 0.0
H1478 H 0.25174 0.45204 0.15742 0.0
H1479 H 0.25437 0.50734 0.14683 0.0
H1480 H 0.33378 0.47559 0.16662 0.0
H1481 H 0.33315 0.46513 0.20069 0.0
H1482 H 0.20098 0.5345 0.18396 0.0
H1483 H 0.22841 0.62697 0.1888 0.0
C1484 C 0.01778 0.48243 0.91155 0.0
C1485 C 1.0114 0.50492 0.90416 0.0
C1486 C 1.0108 0.53386 0.90935 0.0
C1487 C 0.01682 0.52741 0.91961 0.0
N1488 N 0.02114 0.49631 0.92114 0.0
Co1489 Co 0.02956 0.47625 0.93477 0.0
N1490 N 0.0196 0.51298 0.94329 0.0
C1491 C 1.01582 0.54248 0.93938 0.0
C1492 C 1.01077 0.56407 0.94713 0.0
C1493 C 1.01173 0.54728 0.95651 0.0
C1494 C 0.01723 0.51612 0.95398 0.0
N1495 N 0.03763 0.45522 0.94831 0.0
C1496 C 0.03188 0.46144 0.95843 0.0
C1497 C 0.03926 0.43816 0.96535 0.0
C1498 C 0.05105 0.4181 0.95946 0.0
C1499 C 0.04981 0.42955 0.94926 0.0
N1500 N 0.04002 0.43999 0.92626 0.0
C1501 C 0.05342 0.41788 0.9295 0.0
C1502 C 0.05779 0.39567 0.92182 0.0
C1503 C 0.04634 0.40426 0.91322 0.0
C1504 C 0.03556 0.43129 0.91619 0.0
N1505 N 0.05603 0.498 0.93383 0.0
C1506 C 0.08947 0.53968 0.93227 0.0
C1507 C 0.08127 0.53134 0.94216 0.0
C1508 C 0.06462 0.51077 0.94276 0.0
C1509 C 0.08121 0.5252 0.9232 0.0
C1510 C 0.06479 0.50406 0.92416 0.0
N1511 N 1.00287 0.45575 0.93569 0.0
C1512 C 0.98144 0.40931 0.93774 0.0
C1513 C 0.96409 0.42827 0.93655 0.0
C1514 C 0.96671 0.46115 0.93485 0.0
C1515 C 0.98604 0.47426 0.93439 0.0
C1516 C 1.00066 0.42353 0.93737 0.0
H1517 H 0.98727 0.49955 0.93288 0.0
H1518 H 1.01371 0.40847 0.93842 0.0
H1519 H 0.05822 0.50644 0.95049 0.0
H1520 H 0.05872 0.49358 0.91702 0.0
C1521 C 1.01518 0.54801 0.92835 0.0
C1522 C 0.02159 0.44845 0.90922 0.0
C1523 C 0.02213 0.49131 0.96196 0.0
C1524 C 0.05756 0.41424 0.9403 0.0
H1525 H 1.00756 0.50082 0.89591 0.0
H1526 H 1.00571 0.55654 0.90615 0.0
H1527 H 1.00671 0.58899 0.94609 0.0
H1528 H 1.0092 0.55719 0.96433 0.0
H1529 H 0.03685 0.43622 0.97383 0.0
H1530 H 0.05908 0.39713 0.96224 0.0
H1531 H 0.06713 0.37455 0.9226 0.0
H1532 H 0.04571 0.39174 0.90571 0.0
H1533 H 0.08709 0.54182 0.9494 0.0
H1534 H 0.08726 0.53042 0.91539 0.0
H1535 H 0.98019 0.38377 0.93911 0.0
H1536 H 0.95386 0.47675 0.93371 0.0
C1537 C 0.77235 0.2761 0.91155 0.0
C1538 C 0.78347 0.257 0.90475 0.0
C1539 C 0.7888 0.23028 0.91043 0.0
C1540 C 0.78076 0.23469 0.92037 0.0
N1541 N 0.77016 0.26215 0.92129 0.0
Co1542 Co 0.75865 0.28024 0.93474 0.0
N1543 N 0.76898 0.24371 0.94357 0.0
C1544 C 0.77729 0.21647 0.93979 0.0
C1545 C 0.78141 0.19434 0.94757 0.0
C1546 C 0.77526 0.20821 0.95685 0.0
C1547 C 0.76795 0.23838 0.95424 0.0
N1548 N 0.74859 0.3001 0.94819 0.0
C1549 C 0.75182 0.29179 0.95849 0.0
C1550 C 0.74496 0.31545 0.96536 0.0
C1551 C 0.73626 0.33856 0.95924 0.0
C1552 C 0.73876 0.32832 0.94901 0.0
N1553 N 0.74715 0.31578 0.92591 0.0
C1554 C 0.73454 0.33901 0.92924 0.0
C1555 C 0.72891 0.35998 0.92138 0.0
C1556 C 0.73877 0.34982 0.91251 0.0
C1557 C 0.74996 0.32318 0.91552 0.0
N1558 N 0.73287 0.25536 0.93296 0.0
C1559 C 0.69836 0.21486 0.9328 0.0
C1560 C 0.69766 0.2454 0.93737 0.0
C1561 C 0.71498 0.26505 0.93742 0.0
C1562 C 0.71625 0.20581 0.92786 0.0
C1563 C 0.73292 0.22629 0.92787 0.0
N1564 N 0.78451 0.30396 0.9365 0.0
C1565 C 0.80411 0.35307 0.93667 0.0
C1566 C 0.82215 0.33576 0.93757 0.0
C1567 C 0.82086 0.30244 0.93801 0.0
C1568 C 0.80219 0.28723 0.93741 0.0
C1569 C 0.78551 0.33681 0.93629 0.0
H1570 H 0.80256 0.26172 0.9375 0.0
H1571 H 0.7721 0.35108 0.93574 0.0
H1572 H 0.71361 0.28774 0.94128 0.0
H1573 H 0.74576 0.21751 0.92379 0.0
C1574 C 0.78294 0.21397 0.92909 0.0
C1575 C 0.76434 0.30749 0.90853 0.0
C1576 C 0.76022 0.26117 0.96213 0.0
C1577 C 0.73181 0.34438 0.94004 0.0
H1578 H 0.7875 0.26212 0.89658 0.0
H1579 H 0.79784 0.21036 0.90771 0.0
H1580 H 0.78841 0.17111 0.94664 0.0
H1581 H 0.77619 0.19733 0.96465 0.0
H1582 H 0.74594 0.31605 0.97394 0.0
H1583 H 0.72906 0.36034 0.96192 0.0
H1584 H 0.71988 0.38142 0.92217 0.0
H1585 H 0.73852 0.36162 0.90484 0.0
H1586 H 0.68403 0.25368 0.9412 0.0
H1587 H 0.71742 0.18276 0.92398 0.0
H1588 H 0.80433 0.37899 0.93637 0.0
H1589 H 0.83433 0.28791 0.93856 0.0
C1590 C 1.01467 0.2761 0.84244 0.0
C1591 C 1.00771 0.25475 0.85006 0.0
C1592 C 1.00616 0.22544 0.84513 0.0
C1593 C 1.01224 0.23049 0.8348 0.0
N1594 N 0.01747 0.26109 0.83299 0.0
Co1595 Co 0.02638 0.27924 0.81918 0.0
N1596 N 1.01497 0.24302 0.811 0.0
C1597 C 1.00964 0.21443 0.81512 0.0
C1598 C 1.0012 0.19459 0.80768 0.0
C1599 C 1.00154 0.2116 0.79831 0.0
C1600 C 1.01053 0.24089 0.80048 0.0
N1601 N 0.03539 0.2981 0.80551 0.0
C1602 C 0.03017 0.29073 0.79541 0.0
C1603 C 0.04201 0.30769 0.78819 0.0
C1604 C 0.05484 0.32632 0.794 0.0
C1605 C 0.05038 0.3196 0.8044 0.0
N1606 N 0.03808 0.31521 0.82729 0.0
C1607 C 0.05276 0.33496 0.82393 0.0
C1608 C 0.05788 0.3576 0.83135 0.0
C1609 C 0.04564 0.35162 0.83991 0.0
C1610 C 0.03372 0.32558 0.83719 0.0
N1611 N 0.05208 0.25524 0.82031 0.0
C1612 C 0.08562 0.21372 0.82209 0.0
C1613 C 0.07663 0.22 0.81223 0.0
C1614 C 0.05989 0.24038 0.81153 0.0
C1615 C 0.07782 0.2296 0.83102 0.0
C1616 C 0.06132 0.25058 0.82993 0.0
N1617 N 1.00035 0.30191 0.81811 0.0
C1618 C 0.98002 0.34956 0.81574 0.0
C1619 C 0.96219 0.33214 0.81769 0.0
C1620 C 0.96414 0.2992 0.81959 0.0
C1621 C 0.98308 0.28484 0.81986 0.0
C1622 C 0.99892 0.33399 0.81595 0.0
H1623 H 0.98362 0.25966 0.82161 0.0
H1624 H 1.01236 0.34788 0.81451 0.0
H1625 H 0.05291 0.24318 0.80386 0.0
H1626 H 0.05569 0.26235 0.83695 0.0
C1627 C 1.00931 0.20959 0.82621 0.0
C1628 C 0.01934 0.31008 0.84438 0.0
C1629 C 1.01597 0.26524 0.79237 0.0
C1630 C 0.0584 0.33532 0.81324 0.0
H1631 H 1.00401 0.25987 0.85825 0.0
H1632 H 1.00027 0.20354 0.84854 0.0
H1633 H 0.99467 0.17116 0.80899 0.0
H1634 H 0.99572 0.20326 0.79079 0.0
H1635 H 0.04198 0.30608 0.77961 0.0
H1636 H 0.066 0.34292 0.79099 0.0
H1637 H 0.06853 0.37703 0.83047 0.0
H1638 H 0.04553 0.36487 0.84729 0.0
H1639 H 0.082 0.20822 0.80512 0.0
H1640 H 0.08441 0.22579 0.83879 0.0
H1641 H 0.97948 0.37509 0.81426 0.0
H1642 H 0.95106 0.28421 0.82084 0.0
C1643 C 0.76892 0.48532 0.84286 0.0
C1644 C 0.77619 0.50669 0.85033 0.0
C1645 C 0.77757 0.53598 0.84529 0.0
C1646 C 0.77107 0.53088 0.83504 0.0
N1647 N 0.76573 0.50028 0.8334 0.0
Co1648 Co 0.75644 0.48188 0.81977 0.0
N1649 N 0.76779 0.51776 0.81134 0.0
C1650 C 0.77322 0.54646 0.81526 0.0
C1651 C 0.78159 0.56598 0.80765 0.0
C1652 C 0.78109 0.54861 0.79839 0.0
C1653 C 0.77212 0.51943 0.8008 0.0
N1654 N 0.74704 0.46275 0.80629 0.0
C1655 C 0.75223 0.46962 0.79613 0.0
C1656 C 0.74022 0.4526 0.78905 0.0
C1657 C 0.72728 0.43445 0.79502 0.0
C1658 C 0.73188 0.44149 0.80537 0.0
N1659 N 0.74478 0.44626 0.82813 0.0
C1660 C 0.72987 0.42669 0.825 0.0
C1661 C 0.72493 0.40424 0.83257 0.0
C1662 C 0.73754 0.41017 0.84097 0.0
C1663 C 0.7495 0.43598 0.83801 0.0
N1664 N 0.73085 0.50615 0.82092 0.0
C1665 C 0.69741 0.54785 0.82265 0.0
C1666 C 0.70622 0.54128 0.81278 0.0
C1667 C 0.7229 0.52082 0.8121 0.0
C1668 C 0.70537 0.5322 0.83163 0.0
C1669 C 0.72183 0.51113 0.83057 0.0
N1670 N 0.78236 0.45894 0.81865 0.0
C1671 C 0.80249 0.4111 0.81636 0.0
C1672 C 0.82042 0.42843 0.8181 0.0
C1673 C 0.81861 0.46141 0.81986 0.0
C1674 C 0.79972 0.47592 0.8202 0.0
C1675 C 0.78364 0.42681 0.81663 0.0
H1676 H 0.7993 0.50114 0.82183 0.0
H1677 H 0.77012 0.413 0.81535 0.0
H1678 H 0.72973 0.51776 0.80441 0.0
H1679 H 0.72759 0.49953 0.83763 0.0
C1680 C 0.77382 0.55161 0.82632 0.0
C1681 C 0.76435 0.45132 0.84491 0.0
C1682 C 0.76665 0.49463 0.79292 0.0
C1683 C 0.72393 0.42613 0.81434 0.0
H1684 H 0.78024 0.50159 0.85849 0.0
H1685 H 0.78366 0.55787 0.84855 0.0
H1686 H 0.78819 0.58942 0.80877 0.0
H1687 H 0.78684 0.55662 0.79079 0.0
H1688 H 0.74025 0.45383 0.78047 0.0
H1689 H 0.71601 0.4179 0.79215 0.0
H1690 H 0.71417 0.3849 0.83188 0.0
H1691 H 0.73792 0.397 0.8484 0.0
H1692 H 0.70072 0.55288 0.80563 0.0
H1693 H 0.69894 0.53625 0.83942 0.0
H1694 H 0.80293 0.38554 0.81498 0.0
H1695 H 0.83176 0.47633 0.82095 0.0
C1696 C 0.50405 0.07095 0.11446 0.0
C1697 C 0.51546 0.07626 0.10526 0.0
C1698 C 0.50571 0.09141 0.12331 0.0
C1699 C 0.51913 0.11787 0.12297 0.0
C1700 C 0.53138 0.12232 0.11385 0.0
C1701 C 0.52925 0.10168 0.10508 0.0
C1702 C 0.49225 0.08575 0.1328 0.0
C1703 C 0.54605 0.14982 0.11314 0.0
C1704 C 0.50453 0.18879 0.14052 0.0
C1705 C 0.51608 0.18323 0.14966 0.0
C1706 C 0.50596 0.16845 0.13163 0.0
C1707 C 0.5193 0.14188 0.13185 0.0
C1708 C 0.53175 0.13725 0.14089 0.0
C1709 C 0.52984 0.15777 0.14971 0.0
C1710 C 0.4923 0.17431 0.12223 0.0
C1711 C 0.54634 0.10962 0.14148 0.0
H1712 H 0.49299 0.05188 0.11449 0.0
H1713 H 0.53774 0.10623 0.09787 0.0
H1714 H 0.5013 0.08494 0.1402 0.0
H1715 H 0.48147 0.10591 0.13357 0.0
H1716 H 0.48359 0.06309 0.13214 0.0
H1717 H 0.55599 0.14797 0.10607 0.0
H1718 H 0.53764 0.17274 0.11265 0.0
H1719 H 0.55554 0.15078 0.12039 0.0
H1720 H 0.49349 0.2079 0.14059 0.0
H1721 H 0.53844 0.15301 0.15687 0.0
H1722 H 0.48137 0.15432 0.12155 0.0
H1723 H 0.50116 0.17495 0.11476 0.0
H1724 H 0.4838 0.19711 0.12295 0.0
H1725 H 0.53787 0.08678 0.14205 0.0
H1726 H 0.5565 0.1114 0.14846 0.0
H1727 H 0.55561 0.10858 0.13415 0.0
C1728 C 0.77227 0.06916 0.14045 0.0
C1729 C 0.76172 0.07519 0.14987 0.0
C1730 C 0.77059 0.08991 0.13164 0.0
C1731 C 0.758 0.11733 0.13224 0.0
C1732 C 0.7465 0.12245 0.14158 0.0
C1733 C 0.74867 0.10152 0.15031 0.0
C1734 C 0.78326 0.08356 0.12191 0.0
C1735 C 0.73272 0.151 0.14256 0.0
C1736 C 0.77415 0.188 0.11489 0.0
C1737 C 0.76201 0.18409 0.1059 0.0
C1738 C 0.77248 0.16716 0.12367 0.0
C1739 C 0.75824 0.14182 0.12348 0.0
C1740 C 0.74523 0.13889 0.11459 0.0
C1741 C 0.7474 0.15989 0.10587 0.0
C1742 C 0.78674 0.17116 0.13291 0.0
C1743 C 0.72969 0.11262 0.11407 0.0
H1744 H 0.78275 0.04928 0.14022 0.0
H1745 H 0.74084 0.10653 0.15768 0.0
H1746 H 0.77378 0.08398 0.11466 0.0
H1747 H 0.7947 0.10274 0.12103 0.0
H1748 H 0.79113 0.06012 0.12237 0.0
H1749 H 0.72301 0.14946 0.14974 0.0
H1750 H 0.74183 0.1732 0.14306 0.0
H1751 H 0.72298 0.15316 0.13543 0.0
H1752 H 0.78572 0.20631 0.11479 0.0
H1753 H 0.73828 0.15654 0.09882 0.0
H1754 H 0.79688 0.15008 0.13342 0.0
H1755 H 0.77824 0.17235 0.14049 0.0
H1756 H 0.79611 0.19309 0.13215 0.0
H1757 H 0.73732 0.08911 0.11331 0.0
H1758 H 0.71931 0.11571 0.10722 0.0
H1759 H 0.72071 0.11192 0.1215 0.0
C1760 C 0.52607 0.82347 0.86419 0.0
C1761 C 0.51449 0.82922 0.85507 0.0
C1762 C 0.52475 0.8437 0.87311 0.0
C1763 C 0.51144 0.87031 0.87295 0.0
C1764 C 0.49904 0.87525 0.86391 0.0
C1765 C 0.50089 0.85489 0.85505 0.0
C1766 C 0.5384 0.83756 0.88249 0.0
C1767 C 0.48445 0.9029 0.86341 0.0
C1768 C 0.50127 0.90921 0.89992 0.0
C1769 C 0.51491 0.93481 0.89987 0.0
C1770 C 0.49924 0.88894 0.89104 0.0
C1771 C 0.5115 0.89392 0.88196 0.0
C1772 C 0.52483 0.92049 0.88176 0.0
C1773 C 0.52633 0.94063 0.8907 0.0
C1774 C 0.48464 0.86132 0.89159 0.0
C1775 C 0.53835 0.92665 0.87233 0.0
H1776 H 0.53696 0.80414 0.8641 0.0
H1777 H 0.49224 0.85973 0.84791 0.0
H1778 H 0.54918 0.8577 0.88332 0.0
H1779 H 0.5295 0.83633 0.88993 0.0
H1780 H 0.54707 0.81496 0.88164 0.0
H1781 H 0.47442 0.9015 0.85636 0.0
H1782 H 0.47504 0.90351 0.87069 0.0
H1783 H 0.49291 0.92578 0.86303 0.0
H1784 H 0.49274 0.9043 0.90709 0.0
H1785 H 0.53727 0.9599 0.89076 0.0
H1786 H 0.49309 0.83843 0.89196 0.0
H1787 H 0.47516 0.8607 0.88434 0.0
H1788 H 0.47468 0.86275 0.89867 0.0
H1789 H 0.54914 0.90654 0.87147 0.0
H1790 H 0.547 0.94927 0.87314 0.0
H1791 H 0.52934 0.92783 0.86492 0.0
C1792 C 0.28337 0.90745 0.85486 0.0
C1793 C 0.26965 0.93293 0.85501 0.0
C1794 C 0.2855 0.88678 0.86367 0.0
C1795 C 0.27324 0.89123 0.87278 0.0
C1796 C 0.25986 0.91772 0.87308 0.0
C1797 C 0.25827 0.93828 0.86421 0.0
C1798 C 0.30017 0.85928 0.86303 0.0
C1799 C 0.24635 0.92331 0.88254 0.0
C1800 C 0.2584 0.82011 0.89031 0.0
C1801 C 0.26979 0.82557 0.89949 0.0
C1802 C 0.25994 0.84059 0.88141 0.0
C1803 C 0.2733 0.86712 0.88168 0.0
C1804 C 0.28558 0.87167 0.89077 0.0
C1805 C 0.2835 0.85107 0.8996 0.0
C1806 C 0.24641 0.83491 0.87197 0.0
C1807 C 0.30021 0.89922 0.89138 0.0
H1808 H 0.29186 0.90294 0.84766 0.0
H1809 H 0.24729 0.95748 0.86422 0.0
H1810 H 0.30959 0.85823 0.87031 0.0
H1811 H 0.29177 0.83638 0.86254 0.0
H1812 H 0.31018 0.86124 0.85598 0.0
H1813 H 0.23765 0.94594 0.88182 0.0
H1814 H 0.23559 0.90311 0.88334 0.0
H1815 H 0.25536 0.92414 0.88995 0.0
H1816 H 0.24742 0.80091 0.89033 0.0
H1817 H 0.292 0.85567 0.9068 0.0
H1818 H 0.25538 0.83416 0.86455 0.0
H1819 H 0.23558 0.85502 0.87119 0.0
H1820 H 0.23779 0.81221 0.87271 0.0
H1821 H 0.30957 0.90032 0.88408 0.0
H1822 H 0.31028 0.8973 0.8984 0.0
H1823 H 0.29178 0.9221 0.89189 0.0
C1824 C 0.50675 0.5683 0.61431 0.0
C1825 C 0.51818 0.57392 0.60513 0.0
C1826 C 0.50832 0.58856 0.62321 0.0
C1827 C 0.52169 0.61508 0.62297 0.0
C1828 C 0.53402 0.61976 0.61389 0.0
C1829 C 0.53195 0.59935 0.60505 0.0
C1830 C 0.49475 0.58267 0.63264 0.0
C1831 C 0.54866 0.64731 0.61328 0.0
C1832 C 0.50666 0.68587 0.64048 0.0
C1833 C 0.51807 0.68035 0.64967 0.0
C1834 C 0.50826 0.66553 0.6316 0.0
C1835 C 0.52164 0.63902 0.63188 0.0
C1836 C 0.53392 0.63439 0.64098 0.0
C1837 C 0.53182 0.65488 0.64979 0.0
C1838 C 0.49475 0.67136 0.62214 0.0
C1839 C 0.54857 0.60685 0.64162 0.0
H1840 H 0.49571 0.54919 0.61426 0.0
H1841 H 0.54046 0.60415 0.59786 0.0
H1842 H 0.5037 0.58185 0.64008 0.0
H1843 H 0.48389 0.60272 0.6334 0.0
H1844 H 0.48618 0.55994 0.63192 0.0
H1845 H 0.55877 0.6455 0.60628 0.0
H1846 H 0.54023 0.6702 0.61273 0.0
H1847 H 0.55798 0.6483 0.62059 0.0
H1848 H 0.49563 0.70501 0.64049 0.0
H1849 H 0.54032 0.65017 0.65699 0.0
H1850 H 0.48394 0.65124 0.62136 0.0
H1851 H 0.50375 0.67225 0.61472 0.0
H1852 H 0.48611 0.69403 0.62285 0.0
H1853 H 0.54015 0.58396 0.64213 0.0
H1854 H 0.5586 0.60865 0.64867 0.0
H1855 H 0.55798 0.60592 0.63435 0.0
C1856 C 0.77284 0.56552 0.64047 0.0
C1857 C 0.76176 0.57058 0.64978 0.0
C1858 C 0.77101 0.58642 0.63171 0.0
C1859 C 0.75768 0.61296 0.63225 0.0
C1860 C 0.74557 0.61692 0.64143 0.0
C1861 C 0.74793 0.5959 0.65013 0.0
C1862 C 0.78435 0.58132 0.62215 0.0
C1863 C 0.73096 0.64443 0.64232 0.0
C1864 C 0.77349 0.68469 0.61531 0.0
C1865 C 0.76234 0.67986 0.60601 0.0
C1866 C 0.77143 0.66394 0.6241 0.0
C1867 C 0.75779 0.63781 0.6236 0.0
C1868 C 0.74558 0.63417 0.61444 0.0
C1869 C 0.74818 0.65502 0.60571 0.0
C1870 C 0.78488 0.66868 0.63363 0.0
C1871 C 0.73064 0.6071 0.61358 0.0
H1872 H 0.78392 0.54647 0.64032 0.0
H1873 H 0.7397 0.60021 0.65743 0.0
H1874 H 0.77526 0.5814 0.61476 0.0
H1875 H 0.79531 0.60129 0.62152 0.0
H1876 H 0.79281 0.55842 0.62263 0.0
H1877 H 0.7208 0.64174 0.64928 0.0
H1878 H 0.73943 0.66718 0.64317 0.0
H1879 H 0.7217 0.64643 0.63501 0.0
H1880 H 0.78483 0.70335 0.61542 0.0
H1881 H 0.73989 0.65086 0.59842 0.0
H1882 H 0.79564 0.64843 0.63424 0.0
H1883 H 0.77584 0.66884 0.64104 0.0
H1884 H 0.79358 0.69136 0.63314 0.0
H1885 H 0.73883 0.5841 0.61272 0.0
H1886 H 0.72046 0.61009 0.60664 0.0
H1887 H 0.72141 0.60541 0.62091 0.0
C1888 C 0.52766 0.43356 0.39051 0.0
C1889 C 0.51591 0.42792 0.39958 0.0
C1890 C 0.52665 0.41304 0.38164 0.0
C1891 C 0.5135 0.38622 0.38179 0.0
C1892 C 0.50097 0.38135 0.39078 0.0
C1893 C 0.5025 0.40201 0.3996 0.0
C1894 C 0.54044 0.41913 0.37232 0.0
C1895 C 0.48654 0.35349 0.3913 0.0
C1896 C 0.50375 0.34623 0.35491 0.0
C1897 C 0.5174 0.32064 0.35511 0.0
C1898 C 0.50163 0.36689 0.36369 0.0
C1899 C 0.51383 0.36236 0.37283 0.0
C1900 C 0.52723 0.33587 0.37316 0.0
C1901 C 0.52881 0.31533 0.36432 0.0
C1902 C 0.48695 0.39438 0.363 0.0
C1903 C 0.54068 0.33016 0.38264 0.0
H1904 H 0.53843 0.45306 0.39059 0.0
H1905 H 0.49373 0.39722 0.4067 0.0
H1906 H 0.55134 0.39912 0.37159 0.0
H1907 H 0.53167 0.42007 0.36482 0.0
H1908 H 0.54897 0.44187 0.37315 0.0
H1909 H 0.47642 0.35484 0.39831 0.0
H1910 H 0.47722 0.35261 0.38398 0.0
H1911 H 0.49513 0.33074 0.39174 0.0
H1912 H 0.49523 0.35077 0.34771 0.0
H1913 H 0.53976 0.29608 0.36437 0.0
H1914 H 0.49532 0.41734 0.36265 0.0
H1915 H 0.4773 0.39502 0.37019 0.0
H1916 H 0.47715 0.39275 0.35586 0.0
H1917 H 0.55133 0.35047 0.38349 0.0
H1918 H 0.54949 0.30766 0.38192 0.0
H1919 H 0.5316 0.329 0.39003 0.0
C1920 C 0.28551 0.4056 0.35655 0.0
C1921 C 0.2711 0.43011 0.35654 0.0
C1922 C 0.28736 0.38443 0.36525 0.0
C1923 C 0.27422 0.38749 0.37408 0.0
C1924 C 0.26019 0.41314 0.37424 0.0
C1925 C 0.25883 0.43414 0.36548 0.0
C1926 C 0.30268 0.35782 0.36476 0.0
C1927 C 0.2458 0.41731 0.38342 0.0
C1928 C 0.25944 0.31465 0.39082 0.0
C1929 C 0.26996 0.32016 0.40029 0.0
C1930 C 0.26133 0.33565 0.38208 0.0
C1931 C 0.2741 0.36283 0.38281 0.0
C1932 C 0.28553 0.36747 0.39219 0.0
C1933 C 0.28315 0.3463 0.40085 0.0
C1934 C 0.24873 0.3298 0.3723 0.0
C1935 C 0.29948 0.39576 0.39331 0.0
H1936 H 0.29472 0.40212 0.34953 0.0
H1937 H 0.2474 0.45266 0.36535 0.0
H1938 H 0.31153 0.35682 0.37224 0.0
H1939 H 0.29486 0.3345 0.36392 0.0
H1940 H 0.3132 0.36079 0.35796 0.0
H1941 H 0.23667 0.43949 0.38265 0.0
H1942 H 0.23545 0.39649 0.38382 0.0
H1943 H 0.25417 0.41812 0.39104 0.0
H1944 H 0.24884 0.29495 0.39049 0.0
H1945 H 0.29095 0.35094 0.40826 0.0
H1946 H 0.25831 0.33014 0.36508 0.0
H1947 H 0.23747 0.34926 0.37142 0.0
H1948 H 0.24064 0.30653 0.37267 0.0
H1949 H 0.30938 0.39785 0.38624 0.0
H1950 H 0.30903 0.39393 0.40054 0.0
H1951 H 0.29052 0.41812 0.39379 0.0
C1952 C 0.03214 0.09956 0.60473 0.0
C1953 C 0.01894 0.0734 0.60511 0.0
C1954 C 0.03416 0.12046 0.61344 0.0
C1955 C 0.02233 0.11554 0.62268 0.0
C1956 C 1.00948 0.08841 0.62322 0.0
C1957 C 1.00798 0.06766 0.61444 0.0
C1958 C 0.04826 0.14866 0.61254 0.0
C1959 C 0.99643 0.08228 0.63283 0.0
C1960 C 0.03273 0.15633 0.64929 0.0
C1961 C 0.01847 0.18106 0.64926 0.0
C1962 C 0.03494 0.13586 0.64048 0.0
C1963 C 0.02225 0.13974 0.6315 0.0
C1964 C 1.00837 0.16559 0.6313 0.0
C1965 C 1.00669 0.18597 0.64017 0.0
C1966 C 0.05014 0.10906 0.64102 0.0
C1967 C 0.99439 0.17057 0.62198 0.0
H1968 H 0.04029 0.10438 0.59743 0.0
H1969 H 0.99739 0.04792 0.61463 0.0
H1970 H 0.0394 0.17114 0.61205 0.0
H1971 H 0.05792 0.15027 0.61971 0.0
H1972 H 0.05804 0.14711 0.6054 0.0
H1973 H 0.98814 0.05925 0.63228 0.0
H1974 H 1.00573 0.08195 0.64015 0.0
H1975 H 0.98534 0.10198 0.63368 0.0
H1976 H 0.04153 0.15211 0.65642 0.0
H1977 H 0.99529 0.20454 0.64026 0.0
H1978 H 0.05922 0.10833 0.63363 0.0
H1979 H 0.04219 0.08579 0.64173 0.0
H1980 H 0.06045 0.11158 0.64792 0.0
H1981 H 1.00307 0.1716 0.61446 0.0
H1982 H 0.98542 0.1929 0.62272 0.0
H1983 H 0.98389 0.14999 0.62139 0.0
C1984 C 0.24862 0.15808 0.60546 0.0
C1985 C 0.26252 0.18333 0.60565 0.0
C1986 C 0.24648 0.13714 0.6142 0.0
C1987 C 0.25886 0.14108 0.62328 0.0
C1988 C 0.27229 0.1675 0.62366 0.0
C1989 C 0.27392 0.18832 0.61486 0.0
C1990 C 0.23176 0.10974 0.61345 0.0
C1991 C 0.28592 0.1726 0.63311 0.0
C1992 C 0.24934 0.09926 0.6499 0.0
C1993 C 0.2632 0.07398 0.64956 0.0
C1994 C 0.24693 0.12029 0.6412 0.0
C1995 C 0.25902 0.11639 0.632 0.0
C1996 C 0.27244 0.08997 0.63148 0.0
C1997 C 0.27433 0.06907 0.64025 0.0
C1998 C 0.23223 0.14769 0.64209 0.0
C1999 C 0.28575 0.08492 0.62191 0.0
H2000 H 0.24014 0.15378 0.59824 0.0
H2001 H 0.28506 0.20729 0.61489 0.0
H2002 H 0.24012 0.08687 0.61266 0.0
H2003 H 0.22258 0.10808 0.62081 0.0
H2004 H 0.2215 0.11229 0.60652 0.0
H2005 H 0.29448 0.19539 0.63252 0.0
H2006 H 0.27702 0.17278 0.64057 0.0
H2007 H 0.29679 0.1525 0.6337 0.0
H2008 H 0.24106 0.10349 0.65719 0.0
H2009 H 0.28544 0.05006 0.64009 0.0
H2010 H 0.2228 0.14933 0.63483 0.0
H2011 H 0.24062 0.17055 0.64279 0.0
H2012 H 0.22224 0.14513 0.64912 0.0
H2013 H 0.2766 0.08469 0.61453 0.0
H2014 H 0.29437 0.06217 0.62242 0.0
H2015 H 0.29657 0.10507 0.62121 0.0
C2016 C 0.02893 0.82265 0.3632 0.0
C2017 C 0.0185 0.82911 0.35376 0.0
C2018 C 0.02681 0.84259 0.37215 0.0
C2019 C 1.01388 0.86963 0.37167 0.0
C2020 C 1.00273 0.87544 0.36224 0.0
C2021 C 1.00535 0.85533 0.35337 0.0
C2022 C 0.03915 0.83553 0.38195 0.0
C2023 C 0.9886 0.90362 0.36138 0.0
C2024 C 1.00064 0.90669 0.39853 0.0
C2025 C 1.01466 0.93166 0.39924 0.0
C2026 C 0.99947 0.88734 0.38939 0.0
C2027 C 1.01296 0.89262 0.38083 0.0
C2028 C 0.02663 0.9187 0.38137 0.0
C2029 C 0.02728 0.93791 0.39055 0.0
C2030 C 0.9845 0.86019 0.38915 0.0
C2031 C 0.04141 0.92517 0.37251 0.0
H2032 H 0.03946 0.80283 0.36341 0.0
H2033 H 0.99758 0.86066 0.34599 0.0
H2034 H 0.04992 0.85539 0.38335 0.0
H2035 H 0.02926 0.83396 0.38904 0.0
H2036 H 0.04776 0.81283 0.38126 0.0
H2037 H 0.97962 0.90311 0.35393 0.0
H2038 H 0.97815 0.90399 0.36826 0.0
H2039 H 0.99735 0.92623 0.36156 0.0
H2040 H 0.99119 0.90141 0.40534 0.0
H2041 H 0.0385 0.95665 0.39122 0.0
H2042 H 0.99261 0.837 0.38966 0.0
H2043 H 0.97606 0.86037 0.38154 0.0
H2044 H 0.9736 0.86147 0.39583 0.0
H2045 H 0.05217 0.90492 0.37192 0.0
H2046 H 0.05007 0.94758 0.37379 0.0
H2047 H 0.03344 0.92695 0.36478 0.0
C2048 C 0.76586 0.83715 0.39497 0.0
C2049 C 0.75008 0.83907 0.40235 0.0
C2050 C 0.76515 0.85414 0.38524 0.0
C2051 C 0.74977 0.87742 0.38346 0.0
C2052 C 0.73408 0.87977 0.39109 0.0
C2053 C 0.73344 0.85821 0.39967 0.0
C2054 C 0.78102 0.84645 0.37706 0.0
C2055 C 0.71808 0.90547 0.39073 0.0
C2056 C 0.7672 0.9364 0.36182 0.0
C2057 C 0.75077 0.93692 0.35479 0.0
C2058 C 0.76626 0.91986 0.3716 0.0
C2059 C 0.74987 0.89879 0.37372 0.0
C2060 C 0.73352 0.89854 0.3664 0.0
C2061 C 0.73341 0.91995 0.35774 0.0
C2062 C 0.78321 0.92514 0.37939 0.0
C2063 C 0.71646 0.8747 0.36706 0.0
H2064 H 0.77869 0.82197 0.39669 0.0
H2065 H 0.72025 0.85818 0.40474 0.0
H2066 H 0.77731 0.85566 0.36902 0.0
H2067 H 0.79568 0.85643 0.37966 0.0
H2068 H 0.78303 0.8201 0.37652 0.0
H2069 H 0.71572 0.91543 0.39881 0.0
H2070 H 0.72187 0.92564 0.38533 0.0
H2071 H 0.70355 0.8947 0.38829 0.0
H2072 H 0.78105 0.94845 0.3597 0.0
H2073 H 0.72046 0.92036 0.35249 0.0
H2074 H 0.79691 0.91268 0.37652 0.0
H2075 H 0.77958 0.91686 0.38755 0.0
H2076 H 0.78698 0.95103 0.37974 0.0
H2077 H 0.71337 0.8647 0.35905 0.0
H2078 H 0.70253 0.88719 0.36958 0.0
H2079 H 0.71953 0.85437 0.37251 0.0
C2080 C 1.00403 0.6884 0.13979 0.0
C2081 C 1.01594 0.68305 0.14881 0.0
C2082 C 1.00549 0.66835 0.13083 0.0
C2083 C 0.01925 0.64232 0.13088 0.0
C2084 C 0.03199 0.63788 0.1398 0.0
C2085 C 0.03003 0.65807 0.1487 0.0
C2086 C 0.99148 0.67394 0.12157 0.0
C2087 C 0.04703 0.61083 0.14018 0.0
C2088 C 1.0049 0.57123 0.11337 0.0
C2089 C 1.01603 0.57728 0.10412 0.0
C2090 C 1.00633 0.59159 0.12225 0.0
C2091 C 0.01925 0.61865 0.1219 0.0
C2092 C 0.03119 0.62395 0.11272 0.0
C2093 C 0.02926 0.60342 0.10391 0.0
C2094 C 0.99318 0.58506 0.1318 0.0
C2095 C 0.04534 0.65213 0.11201 0.0
H2096 H 0.99277 0.70717 0.13999 0.0
H2097 H 0.03893 0.65351 0.15577 0.0
H2098 H 1.00014 0.67531 0.11404 0.0
H2099 H 0.98092 0.65348 0.12087 0.0
H2100 H 0.98258 0.69629 0.12245 0.0
H2101 H 0.0573 0.6127 0.14712 0.0
H2102 H 0.03895 0.58762 0.14068 0.0
H2103 H 0.05618 0.6105 0.1328 0.0
H2104 H 0.99428 0.55152 0.11343 0.0
H2105 H 0.03756 0.60847 0.09667 0.0
H2106 H 0.98215 0.6048 0.13275 0.0
H2107 H 1.00243 0.58425 0.13914 0.0
H2108 H 0.98481 0.56214 0.13109 0.0
H2109 H 0.03653 0.67468 0.11172 0.0
H2110 H 0.05506 0.65105 0.10483 0.0
H2111 H 0.05506 0.65315 0.11917 0.0
C2112 C 0.27454 0.56952 0.14037 0.0
C2113 C 0.26326 0.57525 0.14957 0.0
C2114 C 0.27295 0.58985 0.13143 0.0
C2115 C 0.25971 0.61654 0.13169 0.0
C2116 C 0.24751 0.6213 0.1408 0.0
C2117 C 0.24959 0.60081 0.14966 0.0
C2118 C 0.28636 0.58387 0.12196 0.0
C2119 C 0.23303 0.64906 0.14141 0.0
C2120 C 0.27501 0.68728 0.11409 0.0
C2121 C 0.26346 0.68209 0.10495 0.0
C2122 C 0.27338 0.66686 0.123 0.0
C2123 C 0.25981 0.64059 0.12277 0.0
C2124 C 0.24739 0.63631 0.11373 0.0
C2125 C 0.24951 0.6569 0.10489 0.0
C2126 C 0.28703 0.6723 0.13241 0.0
C2127 C 0.23257 0.609 0.11315 0.0
H2128 H 0.28551 0.55031 0.14041 0.0
H2129 H 0.24121 0.60567 0.15687 0.0
H2130 H 0.27732 0.58337 0.11455 0.0
H2131 H 0.29736 0.60372 0.12117 0.0
H2132 H 0.29477 0.56097 0.12267 0.0
H2133 H 0.22298 0.64731 0.14845 0.0
H2134 H 0.24159 0.67182 0.14191 0.0
H2135 H 0.22363 0.65027 0.13413 0.0
H2136 H 0.28619 0.7062 0.11403 0.0
H2137 H 0.2409 0.65245 0.09772 0.0
H2138 H 0.29773 0.65201 0.13316 0.0
H2139 H 0.27812 0.67319 0.13985 0.0
H2140 H 0.29579 0.69485 0.13165 0.0
H2141 H 0.24084 0.58599 0.11263 0.0
H2142 H 0.22247 0.61107 0.10614 0.0
H2143 H 0.22324 0.60809 0.12046 0.0
C2144 C 0.02561 0.32081 0.8637 0.0
C2145 C 1.01425 0.32669 0.85451 0.0
C2146 C 0.02434 0.34126 0.87256 0.0
C2147 C 1.01134 0.36824 0.87225 0.0
C2148 C 0.99914 0.37331 0.86315 0.0
C2149 C 1.00091 0.35269 0.85436 0.0
C2150 C 0.03777 0.33499 0.88202 0.0
C2151 C 0.9849 0.40139 0.8625 0.0
C2152 C 1.0016 0.40811 0.89907 0.0
C2153 C 1.01575 0.433 0.89899 0.0
C2154 C 0.99923 0.38785 0.89022 0.0
C2155 C 1.01162 0.39214 0.88115 0.0
C2156 C 0.02539 0.41814 0.88091 0.0
C2157 C 0.02726 0.43826 0.88982 0.0
C2158 C 0.98419 0.36084 0.89081 0.0
C2159 C 0.03903 0.42356 0.87148 0.0
H2160 H 0.03631 0.30122 0.86371 0.0
H2161 H 0.99244 0.35761 0.84717 0.0
H2162 H 0.04882 0.35476 0.88281 0.0
H2163 H 0.02875 0.33435 0.88943 0.0
H2164 H 0.04613 0.31205 0.8813 0.0
H2165 H 0.97489 0.40002 0.85544 0.0
H2166 H 0.97546 0.40262 0.86976 0.0
H2167 H 0.99364 0.42398 0.86203 0.0
H2168 H 0.99302 0.40361 0.90625 0.0
H2169 H 0.03858 0.45696 0.88988 0.0
H2170 H 0.99228 0.33765 0.89134 0.0
H2171 H 0.97484 0.36025 0.88351 0.0
H2172 H 0.97412 0.36298 0.89783 0.0
H2173 H 0.04961 0.40314 0.87073 0.0
H2174 H 0.04791 0.44598 0.87221 0.0
H2175 H 0.0301 0.4247 0.86404 0.0
C2176 C 0.75799 0.32012 0.88935 0.0
C2177 C 0.76998 0.32394 0.89841 0.0
C2178 C 0.75975 0.34115 0.88062 0.0
C2179 C 0.77393 0.36656 0.88094 0.0
C2180 C 0.78686 0.3693 0.88986 0.0
C2181 C 0.78459 0.34813 0.89853 0.0
C2182 C 0.74557 0.33733 0.87134 0.0
C2183 C 0.80234 0.39564 0.8905 0.0
C2184 C 0.78342 0.40816 0.85431 0.0
C2185 C 0.77027 0.43433 0.85488 0.0
C2186 C 0.78565 0.38685 0.86294 0.0
C2187 C 0.7741 0.39143 0.87229 0.0
C2188 C 0.7614 0.41868 0.87303 0.0
C2189 C 0.75967 0.43982 0.86432 0.0
C2190 C 0.79954 0.35847 0.86183 0.0
C2191 C 0.74868 0.42446 0.88277 0.0
H2192 H 0.7464 0.30184 0.88938 0.0
H2193 H 0.79359 0.35143 0.90563 0.0
H2194 H 0.73531 0.35826 0.87092 0.0
H2195 H 0.75413 0.33664 0.86377 0.0
H2196 H 0.73635 0.31523 0.87198 0.0
H2197 H 0.81275 0.39226 0.89733 0.0
H2198 H 0.81129 0.39676 0.88307 0.0
H2199 H 0.79465 0.41905 0.8914 0.0
H2200 H 0.79129 0.40356 0.84692 0.0
H2201 H 0.7491 0.45957 0.86464 0.0
H2202 H 0.79051 0.33622 0.86119 0.0
H2203 H 0.80925 0.35605 0.86896 0.0
H2204 H 0.80927 0.36045 0.85467 0.0
H2205 H 0.73732 0.40511 0.88356 0.0
H2206 H 0.7407 0.44782 0.88242 0.0
H2207 H 0.75815 0.42385 0.89003 0.0
C2208 C 0.36759 0.81505 0.07892 0.0
C2209 C 0.35126 0.81751 0.07184 0.0
C2210 C 0.38261 0.83901 0.07942 0.0
C2211 C 0.38144 0.86637 0.07271 0.0
C2212 C 0.36487 0.8692 0.06567 0.0
C2213 C 0.35009 0.84497 0.06534 0.0
C2214 C 0.39995 0.83481 0.08704 0.0
C2215 C 0.36282 0.89781 0.05837 0.0
C2216 C 0.41154 0.94266 0.07904 0.0
C2217 C 0.42797 0.94039 0.07204 0.0
C2218 C 0.3965 0.91869 0.07947 0.0
C2219 C 0.39778 0.89151 0.07275 0.0
C2220 C 0.41447 0.88886 0.06579 0.0
C2221 C 0.42926 0.91308 0.06554 0.0
C2222 C 0.37905 0.92268 0.08702 0.0
C2223 C 0.41663 0.86045 0.05848 0.0
H2224 H 0.36887 0.79403 0.08395 0.0
H2225 H 0.33741 0.84776 0.05999 0.0
H2226 H 0.41427 0.83323 0.08255 0.0
H2227 H 0.40109 0.85592 0.09233 0.0
H2228 H 0.39836 0.81294 0.09203 0.0
H2229 H 0.34885 0.89692 0.05353 0.0
H2230 H 0.36276 0.92021 0.06308 0.0
H2231 H 0.37593 0.89901 0.05292 0.0
H2232 H 0.41017 0.96356 0.08407 0.0
H2233 H 0.44202 0.91042 0.06025 0.0
H2234 H 0.37782 0.90142 0.09229 0.0
H2235 H 0.3648 0.92441 0.08246 0.0
H2236 H 0.38057 0.94441 0.09202 0.0
H2237 H 0.41662 0.83792 0.06318 0.0
H2238 H 0.43067 0.86147 0.0537 0.0
H2239 H 0.40361 0.8594 0.05298 0.0
C2240 C 0.84723 0.35068 0.06698 0.0
C2241 C 0.84927 0.32059 0.07191 0.0
C2242 C 0.86314 0.37305 0.06685 0.0
C2243 C 0.88158 0.3657 0.07199 0.0
C2244 C 0.88372 0.33536 0.07701 0.0
C2245 C 0.86769 0.31309 0.0768 0.0
C2246 C 0.86022 0.40456 0.06114 0.0
C2247 C 0.90288 0.3266 0.08277 0.0
C2248 C 0.92903 0.41178 0.06372 0.0
C2249 C 0.93008 0.43665 0.07127 0.0
C2250 C 0.91343 0.38886 0.06385 0.0
C2251 C 0.89863 0.38963 0.07194 0.0
C2252 C 0.89984 0.41387 0.07979 0.0
C2253 C 0.91526 0.43718 0.07928 0.0
C2254 C 0.91266 0.36399 0.05517 0.0
C2255 C 0.8847 0.41535 0.08872 0.0
H2256 H 0.83316 0.35662 0.06309 0.0
H2257 H 0.86937 0.29007 0.08071 0.0
H2258 H 0.86188 0.42467 0.0668 0.0
H2259 H 0.87197 0.40757 0.05495 0.0
H2260 H 0.8452 0.40637 0.0573 0.0
H2261 H 0.90207 0.30246 0.08649 0.0
H2262 H 0.91577 0.3271 0.07718 0.0
H2263 H 0.90602 0.34449 0.08906 0.0
H2264 H 0.94051 0.4099 0.05766 0.0
H2265 H 0.91543 0.45611 0.08513 0.0
H2266 H 0.89804 0.3655 0.05093 0.0
H2267 H 0.9137 0.33964 0.05868 0.0
H2268 H 0.92499 0.36695 0.04929 0.0
H2269 H 0.86954 0.42054 0.08546 0.0
H2270 H 0.8885 0.43405 0.09465 0.0
H2271 H 0.88384 0.39184 0.09284 0.0
C2272 C 0.42864 0.34181 0.17569 0.0
C2273 C 0.4272 0.31605 0.18288 0.0
C2274 C 0.41413 0.36661 0.1755 0.0
C2275 C 0.39736 0.36552 0.18249 0.0
C2276 C 0.3956 0.33915 0.18959 0.0
C2277 C 0.41058 0.3151 0.18979 0.0
C2278 C 0.41701 0.39441 0.16796 0.0
C2279 C 0.37788 0.33636 0.19704 0.0
C2280 C 0.36871 0.4424 0.1898 0.0
C2281 C 0.35203 0.44158 0.18293 0.0
C2282 C 0.38367 0.41833 0.18959 0.0
C2283 C 0.38186 0.39209 0.1825 0.0
C2284 C 0.36503 0.39113 0.17555 0.0
C2285 C 0.35052 0.41593 0.17577 0.0
C2286 C 0.40147 0.42099 0.19699 0.0
C2287 C 0.36209 0.36347 0.16803 0.0
H2288 H 0.44151 0.3431 0.17042 0.0
H2289 H 0.4092 0.29528 0.19533 0.0
H2290 H 0.40386 0.39651 0.16257 0.0
H2291 H 0.41798 0.41707 0.17251 0.0
H2292 H 0.43083 0.39191 0.16306 0.0
H2293 H 0.37816 0.31377 0.20173 0.0
H2294 H 0.37777 0.35684 0.20262 0.0
H2295 H 0.36362 0.33736 0.19245 0.0
H2296 H 0.37014 0.46213 0.19533 0.0
H2297 H 0.33762 0.41474 0.17052 0.0
H2298 H 0.41568 0.42011 0.19237 0.0
H2299 H 0.40163 0.40039 0.20258 0.0
H2300 H 0.40121 0.44348 0.20167 0.0
H2301 H 0.37518 0.3615 0.16261 0.0
H2302 H 0.34821 0.36604 0.16317 0.0
H2303 H 0.36118 0.34073 0.1726 0.0
C2304 C 0.84889 0.91201 0.17504 0.0
C2305 C 0.84977 0.93726 0.18238 0.0
C2306 C 0.86385 0.88791 0.17476 0.0
C2307 C 0.88052 0.8893 0.18181 0.0
C2308 C 0.88171 0.91521 0.18906 0.0
C2309 C 0.86627 0.93849 0.18935 0.0
C2310 C 0.86156 0.86052 0.16707 0.0
C2311 C 0.89933 0.91835 0.19656 0.0
C2312 C 0.91052 0.81343 0.18892 0.0
C2313 C 0.92721 0.81541 0.18209 0.0
C2314 C 0.8951 0.83675 0.18874 0.0
C2315 C 0.89649 0.86345 0.18175 0.0
C2316 C 0.91335 0.86559 0.17485 0.0
C2317 C 0.9283 0.84145 0.175 0.0
C2318 C 0.87729 0.83283 0.19607 0.0
C2319 C 0.91587 0.89383 0.16745 0.0
H2320 H 0.83612 0.91056 0.1697 0.0
H2321 H 0.8672 0.95796 0.19501 0.0
H2322 H 0.87479 0.85942 0.16171 0.0
H2323 H 0.86098 0.83752 0.17151 0.0
H2324 H 0.84774 0.8627 0.16215 0.0
H2325 H 0.89861 0.94066 0.20133 0.0
H2326 H 0.89973 0.89758 0.20207 0.0
H2327 H 0.91363 0.91823 0.19201 0.0
H2328 H 0.90944 0.79337 0.19439 0.0
H2329 H 0.94122 0.8435 0.16979 0.0
H2330 H 0.8631 0.83348 0.19142 0.0
H2331 H 0.87675 0.85299 0.20178 0.0
H2332 H 0.87787 0.81001 0.20063 0.0
H2333 H 0.90279 0.89557 0.162 0.0
H2334 H 0.92982 0.89216 0.16262 0.0
H2335 H 0.91636 0.91632 0.17212 0.0
C2336 C 0.66205 0.20004 0.92915 0.0
C2337 C 0.68102 0.1919 0.93327 0.0
C2338 C 0.64618 0.17747 0.92888 0.0
C2339 C 0.64907 0.14618 0.9331 0.0
C2340 C 0.66809 0.13822 0.9375 0.0
C2341 C 0.68382 0.16092 0.93739 0.0
C2342 C 0.62641 0.1869 0.92387 0.0
C2343 C 0.67185 0.10569 0.94239 0.0
C2344 C 0.60279 0.09734 0.94148 0.0
C2345 C 0.60128 0.07391 0.93346 0.0
C2346 C 0.6182 0.12059 0.94149 0.0
C2347 C 0.63226 0.12183 0.93304 0.0
C2348 C 0.63053 0.09916 0.92472 0.0
C2349 C 0.6154 0.07533 0.9251 0.0
C2350 C 0.6196 0.14362 0.95069 0.0
C2351 C 0.6448 0.09992 0.91538 0.0
H2352 H 0.65983 0.22378 0.92585 0.0
H2353 H 0.6984 0.15448 0.94062 0.0
H2354 H 0.62282 0.17034 0.91725 0.0
H2355 H 0.61409 0.18482 0.92977 0.0
H2356 H 0.62664 0.2118 0.92072 0.0
H2357 H 0.68717 0.10361 0.94585 0.0
H2358 H 0.66063 0.10093 0.94874 0.0
H2359 H 0.66999 0.08681 0.93629 0.0
H2360 H 0.59184 0.09787 0.94784 0.0
H2361 H 0.61493 0.05758 0.91887 0.0
H2362 H 0.61791 0.16859 0.9478 0.0
H2363 H 0.63465 0.14175 0.95447 0.0
H2364 H 0.60795 0.13901 0.95684 0.0
H2365 H 0.64518 0.12429 0.91184 0.0
H2366 H 0.64051 0.08254 0.90912 0.0
H2367 H 0.66027 0.09424 0.9181 0.0
C2368 C 0.1827 0.66331 0.92405 0.0
C2369 C 0.18155 0.68839 0.93143 0.0
C2370 C 0.16804 0.63879 0.92378 0.0
C2371 C 0.15147 0.63957 0.93089 0.0
C2372 C 0.14997 0.66536 0.93817 0.0
C2373 C 0.16508 0.68912 0.93843 0.0
C2374 C 0.17059 0.61155 0.91605 0.0
C2375 C 0.13243 0.66778 0.94574 0.0
C2376 C 0.10426 0.59026 0.92441 0.0
C2377 C 0.10591 0.56426 0.93148 0.0
C2378 C 0.11888 0.61482 0.92413 0.0
C2379 C 0.13594 0.61318 0.9309 0.0
C2380 C 0.13791 0.58654 0.93787 0.0
C2381 C 0.12282 0.56273 0.93816 0.0
C2382 C 0.1158 0.64299 0.91675 0.0
C2383 C 0.15595 0.58324 0.94508 0.0
H2384 H 0.19547 0.66227 0.9187 0.0
H2385 H 0.16397 0.70847 0.94412 0.0
H2386 H 0.17173 0.58857 0.92046 0.0
H2387 H 0.15723 0.60987 0.9108 0.0
H2388 H 0.18422 0.61439 0.91101 0.0
H2389 H 0.13287 0.6901 0.95052 0.0
H2390 H 0.11805 0.66708 0.94126 0.0
H2391 H 0.13246 0.647 0.95126 0.0
H2392 H 0.09115 0.59192 0.91931 0.0
H2393 H 0.12431 0.54271 0.94362 0.0
H2394 H 0.12878 0.64531 0.91126 0.0
H2395 H 0.115 0.66542 0.92144 0.0
H2396 H 0.10183 0.64076 0.91197 0.0
H2397 H 0.17001 0.58446 0.94034 0.0
H2398 H 0.15582 0.56038 0.94963 0.0
H2399 H 0.15631 0.60338 0.9508 0.0
C2400 C 0.61904 0.6939 0.81651 0.0
C2401 C 0.60249 0.69224 0.82344 0.0
C2402 C 0.6346 0.67086 0.81683 0.0
C2403 C 0.63349 0.64478 0.82408 0.0
C2404 C 0.61681 0.64303 0.83112 0.0
C2405 C 0.60171 0.6669 0.83081 0.0
C2406 C 0.65221 0.67436 0.80935 0.0
C2407 C 0.61462 0.61542 0.83881 0.0
C2408 C 0.66371 0.56965 0.81673 0.0
C2409 C 0.68049 0.57161 0.8235 0.0
C2410 C 0.64815 0.59268 0.81705 0.0
C2411 C 0.6495 0.61906 0.8241 0.0
C2412 C 0.66642 0.62112 0.83096 0.0
C2413 C 0.68151 0.59725 0.83067 0.0
C2414 C 0.63028 0.58885 0.80976 0.0
C2415 C 0.66887 0.64906 0.83842 0.0
H2416 H 0.61986 0.71344 0.81083 0.0
H2417 H 0.5889 0.66515 0.83611 0.0
H2418 H 0.66652 0.67404 0.81389 0.0
H2419 H 0.65261 0.65385 0.80378 0.0
H2420 H 0.65148 0.69688 0.80463 0.0
H2421 H 0.60087 0.61747 0.84378 0.0
H2422 H 0.61395 0.59256 0.83435 0.0
H2423 H 0.62792 0.61413 0.84411 0.0
H2424 H 0.66272 0.54989 0.8112 0.0
H2425 H 0.69451 0.59922 0.83584 0.0
H2426 H 0.62968 0.60911 0.80404 0.0
H2427 H 0.61613 0.58938 0.81444 0.0
H2428 H 0.63084 0.56612 0.80521 0.0
H2429 H 0.66937 0.67173 0.83379 0.0
H2430 H 0.6828 0.64722 0.84327 0.0
H2431 H 0.65576 0.65056 0.84385 0.0
C2432 C 0.10161 0.16443 0.83024 0.0
C2433 C 0.10257 0.19002 0.82298 0.0
C2434 C 0.11672 0.1406 0.83058 0.0
C2435 C 0.13361 0.14266 0.82369 0.0
C2436 C 0.13489 0.169 0.81655 0.0
C2437 C 0.1193 0.19198 0.81618 0.0
C2438 C 0.11433 0.11269 0.83813 0.0
C2439 C 0.15272 0.17284 0.80922 0.0
C2440 C 0.18148 0.09502 0.8305 0.0
C2441 C 0.1807 0.06963 0.82322 0.0
C2442 C 0.16635 0.11884 0.83075 0.0
C2443 C 0.14965 0.11699 0.82374 0.0
C2444 C 0.14854 0.09086 0.81658 0.0
C2445 C 0.16412 0.06787 0.81631 0.0
C2446 C 0.16854 0.14651 0.83834 0.0
C2447 C 0.1309 0.08726 0.80912 0.0
H2448 H 0.08865 0.16246 0.83543 0.0
H2449 H 0.12024 0.21171 0.81057 0.0
H2450 H 0.11385 0.08999 0.83358 0.0
H2451 H 0.12747 0.11126 0.84355 0.0
H2452 H 0.10042 0.11451 0.84299 0.0
H2453 H 0.15211 0.19554 0.8046 0.0
H2454 H 0.1669 0.17238 0.81389 0.0
H2455 H 0.15332 0.15254 0.80357 0.0
H2456 H 0.19431 0.09685 0.83578 0.0
H2457 H 0.1633 0.04828 0.8107 0.0
H2458 H 0.15526 0.14778 0.84366 0.0
H2459 H 0.16915 0.16935 0.83381 0.0
H2460 H 0.18232 0.14453 0.8433 0.0
H2461 H 0.1166 0.08756 0.81368 0.0
H2462 H 0.13164 0.06471 0.80448 0.0
H2463 H 0.13045 0.10774 0.80348 0.0
C2464 C 0.43011 0.4149 0.57948 0.0
C2465 C 0.42887 0.44059 0.57224 0.0
C2466 C 0.41538 0.39042 0.57974 0.0
C2467 C 0.39858 0.39172 0.57277 0.0
C2468 C 0.39703 0.41801 0.56561 0.0
C2469 C 0.41222 0.44176 0.56535 0.0
C2470 C 0.41805 0.3627 0.58734 0.0
C2471 C 0.3793 0.42107 0.55818 0.0
C2472 C 0.3692 0.31529 0.56564 0.0
C2473 C 0.35253 0.31658 0.57251 0.0
C2474 C 0.38438 0.33904 0.56579 0.0
C2475 C 0.38282 0.36546 0.57282 0.0
C2476 C 0.36601 0.36689 0.57978 0.0
C2477 C 0.35128 0.3424 0.57962 0.0
C2478 C 0.40212 0.33585 0.55838 0.0
C2479 C 0.36332 0.39475 0.58725 0.0
H2480 H 0.44298 0.41341 0.58474 0.0
H2481 H 0.41096 0.46151 0.55978 0.0
H2482 H 0.4049 0.36099 0.59274 0.0
H2483 H 0.41881 0.33994 0.58283 0.0
H2484 H 0.4319 0.36499 0.59221 0.0
H2485 H 0.37978 0.44356 0.55344 0.0
H2486 H 0.379 0.40048 0.55264 0.0
H2487 H 0.36506 0.42048 0.56278 0.0
H2488 H 0.37046 0.29544 0.56015 0.0
H2489 H 0.33839 0.34398 0.58488 0.0
H2490 H 0.41636 0.33652 0.56299 0.0
H2491 H 0.40243 0.35633 0.55275 0.0
H2492 H 0.40166 0.31328 0.55375 0.0
H2493 H 0.37646 0.39656 0.59265 0.0
H2494 H 0.34945 0.39255 0.59213 0.0
H2495 H 0.36257 0.41742 0.58263 0.0
C2496 C 0.87173 0.8081 0.56683 0.0
C2497 C 0.85467 0.81008 0.5734 0.0
C2498 C 0.88703 0.83163 0.56708 0.0
C2499 C 0.8852 0.85853 0.57389 0.0
C2500 C 0.86798 0.86066 0.58054 0.0
C2501 C 0.85313 0.83637 0.58031 0.0
C2502 C 0.9052 0.82772 0.56 0.0
C2503 C 0.86498 0.88907 0.58774 0.0
C2504 C 0.93233 0.90794 0.58085 0.0
C2505 C 0.93164 0.93295 0.57335 0.0
C2506 C 0.91745 0.88369 0.58111 0.0
C2507 C 0.90105 0.88462 0.57387 0.0
C2508 C 0.90003 0.91032 0.56646 0.0
C2509 C 0.91537 0.93379 0.56621 0.0
C2510 C 0.91955 0.85658 0.589 0.0
C2511 C 0.88272 0.913 0.55875 0.0
H2512 H 0.8732 0.78788 0.56151 0.0
H2513 H 0.83994 0.83846 0.58533 0.0
H2514 H 0.9059 0.84773 0.55419 0.0
H2515 H 0.91916 0.82866 0.56483 0.0
H2516 H 0.90493 0.80478 0.55556 0.0
H2517 H 0.85085 0.88733 0.59242 0.0
H2518 H 0.87783 0.89117 0.59333 0.0
H2519 H 0.86456 0.91141 0.58294 0.0
H2520 H 0.94491 0.90676 0.58632 0.0
H2521 H 0.91455 0.95305 0.56042 0.0
H2522 H 0.92052 0.83346 0.5847 0.0
H2523 H 0.90606 0.85539 0.59418 0.0
H2524 H 0.9331 0.85917 0.59409 0.0
H2525 H 0.88267 0.89208 0.55334 0.0
H2526 H 0.88351 0.93519 0.55386 0.0
H2527 H 0.86822 0.91279 0.56312 0.0
C2528 C 0.41272 0.81401 0.6894 0.0
C2529 C 0.42932 0.81506 0.68247 0.0
C2530 C 0.39757 0.83782 0.68915 0.0
C2531 C 0.3991 0.86404 0.68198 0.0
C2532 C 0.41585 0.86523 0.67496 0.0
C2533 C 0.43054 0.84068 0.67521 0.0
C2534 C 0.3799 0.8349 0.69662 0.0
C2535 C 0.4185 0.89288 0.66734 0.0
C2536 C 0.35184 0.91356 0.67523 0.0
C2537 C 0.3532 0.93938 0.68233 0.0
C2538 C 0.36653 0.88901 0.67503 0.0
C2539 C 0.38341 0.89039 0.68195 0.0
C2540 C 0.38508 0.91682 0.68896 0.0
C2541 C 0.36994 0.94062 0.68916 0.0
C2542 C 0.36372 0.86114 0.66758 0.0
C2543 C 0.40291 0.91995 0.69632 0.0
H2544 H 0.41148 0.79431 0.69499 0.0
H2545 H 0.44337 0.84206 0.66991 0.0
H2546 H 0.37969 0.8555 0.70216 0.0
H2547 H 0.36561 0.83556 0.69206 0.0
H2548 H 0.38036 0.81242 0.70137 0.0
H2549 H 0.4323 0.89048 0.66242 0.0
H2550 H 0.4053 0.89464 0.66197 0.0
H2551 H 0.41936 0.91566 0.67183 0.0
H2552 H 0.3389 0.91203 0.67001 0.0
H2553 H 0.37128 0.96048 0.69464 0.0
H2554 H 0.36295 0.83849 0.67221 0.0
H2555 H 0.37681 0.85924 0.66215 0.0
H2556 H 0.34982 0.86341 0.66273 0.0
H2557 H 0.40323 0.8995 0.70197 0.0
H2558 H 0.40254 0.94256 0.70094 0.0
H2559 H 0.4171 0.91915 0.69168 0.0
C2560 C 0.85111 0.41147 0.67533 0.0
C2561 C 0.85243 0.43725 0.68246 0.0
C2562 C 0.86589 0.38707 0.6751 0.0
C2563 C 0.8828 0.38856 0.68199 0.0
C2564 C 0.88441 0.41493 0.68903 0.0
C2565 C 0.86919 0.4386 0.68927 0.0
C2566 C 0.86316 0.35925 0.66762 0.0
C2567 C 0.90225 0.41815 0.69637 0.0
C2568 C 0.91242 0.3124 0.68929 0.0
C2569 C 0.92899 0.31373 0.68234 0.0
C2570 C 0.89719 0.33605 0.6891 0.0
C2571 C 0.89859 0.36239 0.68197 0.0
C2572 C 0.9153 0.36385 0.67493 0.0
C2573 C 0.93008 0.33946 0.67513 0.0
C2574 C 0.87956 0.33286 0.6966 0.0
C2575 C 0.9178 0.39164 0.66735 0.0
H2576 H 0.83816 0.40986 0.67013 0.0
H2577 H 0.87049 0.45843 0.69476 0.0
H2578 H 0.87623 0.35754 0.66217 0.0
H2579 H 0.86251 0.33654 0.67222 0.0
H2580 H 0.84923 0.36143 0.66279 0.0
H2581 H 0.9018 0.44068 0.70103 0.0
H2582 H 0.90269 0.39763 0.70199 0.0
H2583 H 0.91642 0.4176 0.69171 0.0
H2584 H 0.91129 0.2926 0.69485 0.0
H2585 H 0.94289 0.34106 0.66982 0.0
H2586 H 0.86525 0.33342 0.69205 0.0
H2587 H 0.87929 0.3534 0.70216 0.0
H2588 H 0.88014 0.31034 0.70131 0.0
H2589 H 0.90457 0.39334 0.662 0.0
H2590 H 0.93159 0.38943 0.66241 0.0
H2591 H 0.9186 0.41436 0.67187 0.0
C2592 C 0.59979 0.59443 0.42537 0.0
C2593 C 0.60102 0.56864 0.43255 0.0
C2594 C 0.61418 0.61941 0.4254 0.0
C2595 C 0.63063 0.61842 0.43261 0.0
C2596 C 0.63223 0.5919 0.43966 0.0
C2597 C 0.61734 0.56773 0.43965 0.0
C2598 C 0.61145 0.64739 0.41792 0.0
C2599 C 0.64966 0.58912 0.4473 0.0
C2600 C 0.67741 0.67002 0.42685 0.0
C2601 C 0.67545 0.69492 0.43424 0.0
C2602 C 0.66306 0.64506 0.42623 0.0
C2603 C 0.6459 0.64531 0.43297 0.0
C2604 C 0.64361 0.67098 0.44025 0.0
C2605 C 0.65852 0.69505 0.44092 0.0
C2606 C 0.66658 0.61791 0.41858 0.0
C2607 C 0.62543 0.67297 0.4474 0.0
H2608 H 0.58713 0.59563 0.41994 0.0
H2609 H 0.61851 0.54789 0.4452 0.0
H2610 H 0.61001 0.66985 0.42254 0.0
H2611 H 0.62487 0.65 0.41274 0.0
H2612 H 0.59794 0.64473 0.4128 0.0
H2613 H 0.64944 0.56619 0.45181 0.0
H2614 H 0.66411 0.59088 0.44291 0.0
H2615 H 0.64924 0.60917 0.45305 0.0
H2616 H 0.69058 0.6695 0.42176 0.0
H2617 H 0.6569 0.71417 0.44666 0.0
H2618 H 0.65374 0.6159 0.41299 0.0
H2619 H 0.66753 0.59495 0.42303 0.0
H2620 H 0.68063 0.62108 0.41391 0.0
H2621 H 0.61145 0.67164 0.44259 0.0
H2622 H 0.62516 0.69542 0.4521 0.0
H2623 H 0.62528 0.65233 0.45297 0.0
C2624 C 0.11996 0.05867 0.4393 0.0
C2625 C 0.10313 0.06049 0.43255 0.0
C2626 C 0.13537 0.08201 0.43897 0.0
C2627 C 0.13384 0.10854 0.43192 0.0
C2628 C 0.11686 0.1105 0.4251 0.0
C2629 C 0.10191 0.08638 0.4254 0.0
C2630 C 0.1533 0.07829 0.44623 0.0
C2631 C 0.1142 0.13856 0.41763 0.0
C2632 C 0.16405 0.18381 0.43925 0.0
C2633 C 0.18051 0.18244 0.43225 0.0
C2634 C 0.14862 0.16051 0.43905 0.0
C2635 C 0.14977 0.13445 0.43186 0.0
C2636 C 0.16637 0.13298 0.42476 0.0
C2637 C 0.18133 0.15708 0.42495 0.0
C2638 C 0.1311 0.16375 0.4466 0.0
C2639 C 0.1686 0.10544 0.41712 0.0
H2640 H 0.12115 0.03874 0.4448 0.0
H2641 H 0.08889 0.08832 0.42025 0.0
H2642 H 0.16741 0.07887 0.44152 0.0
H2643 H 0.1539 0.09858 0.45189 0.0
H2644 H 0.15282 0.05558 0.45085 0.0
H2645 H 0.1002 0.13672 0.41285 0.0
H2646 H 0.11373 0.16115 0.42225 0.0
H2647 H 0.12722 0.14023 0.41214 0.0
H2648 H 0.16317 0.20334 0.44488 0.0
H2649 H 0.19407 0.15551 0.4196 0.0
H2650 H 0.13082 0.14313 0.45218 0.0
H2651 H 0.11673 0.16341 0.4421 0.0
H2652 H 0.13181 0.18619 0.45129 0.0
H2653 H 0.16936 0.08254 0.42161 0.0
H2654 H 0.18232 0.10764 0.41212 0.0
H2655 H 0.15527 0.1041 0.41184 0.0
C2656 C 0.66447 0.05614 0.31419 0.0
C2657 C 0.68135 0.05981 0.32085 0.0
C2658 C 0.64821 0.07814 0.31442 0.0
C2659 C 0.64886 0.10509 0.32128 0.0
C2660 C 0.66558 0.10854 0.32815 0.0
C2661 C 0.68123 0.08573 0.32802 0.0
C2662 C 0.63048 0.07284 0.30715 0.0
C2663 C 0.66728 0.13694 0.3355 0.0
C2664 C 0.6186 0.18048 0.31402 0.0
C2665 C 0.60257 0.17955 0.3213 0.0
C2666 C 0.63362 0.15654 0.31391 0.0
C2667 C 0.63249 0.13028 0.32109 0.0
C2668 C 0.61618 0.12902 0.32838 0.0
C2669 C 0.60163 0.15376 0.32849 0.0
C2670 C 0.6509 0.15962 0.30619 0.0
C2671 C 0.61397 0.10129 0.33602 0.0
H2672 H 0.66412 0.03655 0.30858 0.0
H2673 H 0.69357 0.0886 0.33354 0.0
H2674 H 0.61624 0.07393 0.31174 0.0
H2675 H 0.62989 0.09214 0.30108 0.0
H2676 H 0.63128 0.04941 0.30302 0.0
H2677 H 0.68137 0.13652 0.34025 0.0
H2678 H 0.6669 0.15948 0.33079 0.0
H2679 H 0.6543 0.13751 0.34103 0.0
H2680 H 0.61954 0.20031 0.30845 0.0
H2681 H 0.58917 0.1525 0.33404 0.0
H2682 H 0.65144 0.13839 0.30093 0.0
H2683 H 0.66534 0.16042 0.31061 0.0
H2684 H 0.64971 0.18147 0.30117 0.0
H2685 H 0.61386 0.07839 0.33157 0.0
H2686 H 0.59997 0.1029 0.34081 0.0
H2687 H 0.62702 0.10051 0.34151 0.0
C2688 C 0.18629 0.59759 0.31809 0.0
C2689 C 0.18383 0.56733 0.32284 0.0
C2690 C 0.17055 0.62025 0.31789 0.0
C2691 C 0.15186 0.61302 0.3228 0.0
C2692 C 0.14931 0.58251 0.32765 0.0
C2693 C 0.16519 0.55994 0.32749 0.0
C2694 C 0.1739 0.65193 0.31235 0.0
C2695 C 0.1299 0.57389 0.33318 0.0
C2696 C 0.11846 0.68488 0.33002 0.0
C2697 C 0.10394 0.68489 0.32185 0.0
C2698 C 0.13367 0.66124 0.33061 0.0
C2699 C 0.135 0.63725 0.32268 0.0
C2700 C 0.12049 0.63701 0.31443 0.0
C2701 C 0.10506 0.66022 0.31424 0.0
C2702 C 0.14848 0.66213 0.33969 0.0
C2703 C 0.12142 0.61245 0.30567 0.0
H2704 H 0.20057 0.60343 0.31439 0.0
H2705 H 0.1632 0.53678 0.33126 0.0
H2706 H 0.16238 0.65543 0.30606 0.0
H2707 H 0.1722 0.67184 0.31809 0.0
H2708 H 0.18906 0.65359 0.30866 0.0
H2709 H 0.13041 0.54961 0.33681 0.0
H2710 H 0.12664 0.59161 0.3395 0.0
H2711 H 0.11722 0.57481 0.32746 0.0
H2712 H 0.11822 0.70364 0.33593 0.0
H2713 H 0.0938 0.65874 0.30805 0.0
H2714 H 0.16379 0.66726 0.33661 0.0
H2715 H 0.14907 0.63844 0.34371 0.0
H2716 H 0.14456 0.68062 0.34567 0.0
H2717 H 0.1362 0.61385 0.30158 0.0
H2718 H 0.10934 0.61585 0.29967 0.0
H2719 H 0.12008 0.58799 0.30906 0.0
C2720 C 0.49291 0.00749 0.02533 0.0
C2721 C 0.51117 0.00651 0.03095 0.0
C2722 C 0.49242 0.00481 0.0142 0.0
C2723 C 0.51042 0.99837 0.00858 0.0
C2724 C 0.5286 0.99405 0.01436 0.0
C2725 C 0.52887 0.99909 0.02543 0.0
C2726 C 0.47271 0.00998 0.00848 0.0
C2727 C 0.5478 0.98431 0.00884 0.0
C2728 C 0.50409 0.96934 0.97998 0.0
C2729 C 0.51182 0.99522 0.97411 0.0
C2730 C 0.50396 0.96957 0.99116 0.0
C2731 C 0.51038 0.99734 0.99667 0.0
C2732 C 0.5169 0.02438 0.99074 0.0
C2733 C 0.51834 0.02249 0.9796 0.0
C2734 C 0.49734 0.93957 0.99692 0.0
C2735 C 0.52257 0.05533 0.99614 0.0
H2736 H 0.47907 0.01213 0.02961 0.0
H2737 H 0.54294 0.99762 0.02977 0.0
H2738 H 0.47476 0.02655 1.00164 0.0
H2739 H 0.4672 0.98684 0.00533 0.0
H2740 H 0.46095 0.01995 0.0138 0.0
H2741 H 0.5594 0.97597 0.01458 0.0
H2742 H 0.54481 0.96487 0.00305 0.0
H2743 H 0.55402 0.00496 0.00437 0.0
H2744 H 0.49926 0.94801 0.9758 0.0
H2745 H 0.52504 0.04218 0.97522 0.0
H2746 H 0.4807 0.93949 0.99756 0.0
H2747 H 0.5038 0.93767 0.00503 0.0
H2748 H 0.50172 0.91788 0.99238 0.0
H2749 H 0.51132 0.06156 1.00232 0.0
H2750 H 0.52364 0.07555 0.99039 0.0
H2751 H 0.53735 0.05264 1.00011 0.0
C2752 C 0.75568 0.2215 0.02522 0.0
C2753 C 0.76283 0.24843 0.0307 0.0
C2754 C 0.75486 0.22097 0.01405 0.0
C2755 C 0.76006 0.2488 0.00819 0.0
C2756 C 0.76602 0.27678 0.01373 0.0
C2757 C 0.76799 0.27591 0.02487 0.0
C2758 C 0.74957 0.19006 0.00852 0.0
C2759 C 0.77075 0.3075 0.00788 0.0
C2760 C 0.77778 0.247 0.97932 0.0
C2761 C 0.75989 0.25329 0.97379 0.0
C2762 C 0.77784 0.24362 0.99047 0.0
C2763 C 0.75979 0.24847 0.99628 0.0
C2764 C 0.74163 0.25415 0.99069 0.0
C2765 C 0.74181 0.25526 0.97952 0.0
C2766 C 0.79734 0.23564 0.99603 0.0
C2767 C 0.72223 0.26105 0.99649 0.0
H2768 H 0.75185 0.2001 0.02969 0.0
H2769 H 0.77401 0.29653 0.02899 0.0
H2770 H 0.73662 0.19362 0.00309 0.0
H2771 H 0.76249 0.1822 0.00358 0.0
H2772 H 0.7458 0.17059 0.01423 0.0
H2773 H 0.77196 0.3282 0.01336 0.0
H2774 H 0.78524 0.30501 0.00359 0.0
H2775 H 0.75895 0.31275 1.00188 0.0
H2776 H 0.7918 0.24541 0.97495 0.0
H2777 H 0.7279 0.25974 0.97525 0.0
H2778 H 0.7949 0.21685 1.00216 0.0
H2779 H 0.80316 0.2572 1.00012 0.0
H2780 H 0.80902 0.22721 0.99037 0.0
H2781 H 0.71842 0.24111 1.00197 0.0
H2782 H 0.7094 0.26488 0.99097 0.0
H2783 H 0.7241 0.28286 1.00142 0.0
C2784 C 0.49252 0.24847 0.23 0.0
C2785 C 0.51073 0.24991 0.22434 0.0
C2786 C 0.49211 0.25048 0.24114 0.0
C2787 C 0.51012 0.25681 0.24676 0.0
C2788 C 0.52825 0.26147 0.24098 0.0
C2789 C 0.52845 0.25709 0.22987 0.0
C2790 C 0.47251 0.24445 0.24688 0.0
C2791 C 0.54751 0.27072 0.24653 0.0
C2792 C 0.50459 0.28503 0.27549 0.0
C2793 C 0.51203 0.25869 0.28123 0.0
C2794 C 0.50427 0.28515 0.2643 0.0
C2795 C 0.51016 0.25731 0.25868 0.0
C2796 C 0.51639 0.22986 0.26448 0.0
C2797 C 0.51801 0.23131 0.27563 0.0
C2798 C 0.49826 0.31554 0.25858 0.0
C2799 C 0.52171 0.19901 0.25893 0.0
H2800 H 0.47866 0.24394 0.22571 0.0
H2801 H 0.54249 0.25885 0.22552 0.0
H2802 H 0.47475 0.22701 0.25346 0.0
H2803 H 0.46697 0.26706 0.25041 0.0
H2804 H 0.46067 0.23508 0.24148 0.0
H2805 H 0.55931 0.27849 0.24083 0.0
H2806 H 0.54466 0.29044 0.25224 0.0
H2807 H 0.55336 0.25003 0.25113 0.0
H2808 H 0.50024 0.30644 0.27977 0.0
H2809 H 0.52452 0.21127 0.2799 0.0
H2810 H 0.48222 0.31406 0.25624 0.0
H2811 H 0.50733 0.31925 0.25127 0.0
H2812 H 0.50005 0.33687 0.26375 0.0
H2813 H 0.51008 0.19299 0.25292 0.0
H2814 H 0.52312 0.17866 0.26459 0.0
H2815 H 0.53623 0.20178 0.25469 0.0
C2816 C 0.75 0.04784 0.22832 0.0
C2817 C 0.75712 0.01974 0.22351 0.0
C2818 C 0.74884 0.05061 0.23945 0.0
C2819 C 0.75377 0.02398 0.24595 0.0
C2820 C 0.75938 0.99471 0.24108 0.0
C2821 C 0.76178 0.99335 0.22998 0.0
C2822 C 0.74323 0.08245 0.24423 0.0
C2823 C 0.76338 0.96494 0.24759 0.0
C2824 C 0.77398 0.02642 0.27421 0.0
C2825 C 0.7565 0.0218 0.28026 0.0
C2826 C 0.77299 0.03022 0.2631 0.0
C2827 C 0.75425 0.02686 0.25781 0.0
C2828 C 0.73645 0.02356 0.26394 0.0
C2829 C 0.73778 0.02229 0.2751 0.0
C2830 C 0.7922 0.03638 0.25702 0.0
C2831 C 0.71598 0.01973 0.25889 0.0
H2832 H 0.74662 0.06845 0.22335 0.0
H2833 H 0.76808 0.97196 0.22645 0.0
H2834 H 0.72828 0.08055 0.24809 0.0
H2835 H 0.75428 0.08931 0.25044 0.0
H2836 H 0.74254 0.10185 0.23817 0.0
H2837 H 0.76345 0.94305 0.2426 0.0
H2838 H 0.77825 0.96688 0.25153 0.0
H2839 H 0.75182 0.9621 0.2539 0.0
H2840 H 0.78855 0.02547 0.27806 0.0
H2841 H 0.72423 0.0186 0.27976 0.0
H2842 H 0.78961 0.05381 0.25048 0.0
H2843 H 0.79762 0.01375 0.25344 0.0
H2844 H 0.80427 0.04574 0.26228 0.0
H2845 H 0.70859 0.04351 0.25842 0.0
H2846 H 0.70619 0.00401 0.26381 0.0
H2847 H 0.71678 0.00961 0.25076 0.0
C2848 C 0.27783 0.78913 0.97949 0.0
C2849 C 0.27067 0.76297 0.97362 0.0
C2850 C 0.27769 0.78877 0.99068 0.0
C2851 C 0.27149 0.76075 0.99617 0.0
C2852 C 0.26545 0.73356 0.99026 0.0
C2853 C 0.26435 0.73545 0.9791 0.0
C2854 C 0.28293 0.81902 0.9966 0.0
C2855 C 0.25966 0.70261 0.9957 0.0
C2856 C 0.28774 0.75017 0.025 0.0
C2857 C 0.26929 0.75169 0.03043 0.0
C2858 C 0.28867 0.75284 0.01388 0.0
C2859 C 0.27097 0.75991 0.00807 0.0
C2860 C 0.25261 0.76457 0.01363 0.0
C2861 C 0.25188 0.75954 0.02471 0.0
C2862 C 0.30837 0.74606 0.00833 0.0
C2863 C 0.2336 0.77411 0.00786 0.0
H2864 H 0.2823 0.81073 0.9753 0.0
H2865 H 0.25794 0.71563 0.97472 0.0
H2866 H 0.26957 0.82731 1.00112 0.0
H2867 H 0.29506 0.81446 0.00246 0.0
H2868 H 0.28782 0.83858 0.99118 0.0
H2869 H 0.25875 0.68238 0.99001 0.0
H2870 H 0.27072 0.69643 1.00199 0.0
H2871 H 0.24476 0.70534 0.99955 0.0
H2872 H 0.30135 0.74496 0.02943 0.0
H2873 H 0.23765 0.76122 0.02888 0.0
H2874 H 0.31288 0.76671 0.00331 0.0
H2875 H 0.30651 0.72519 0.00297 0.0
H2876 H 0.32073 0.74078 0.01401 0.0
H2877 H 0.23678 0.79309 1.00189 0.0
H2878 H 0.22188 0.78292 0.01343 0.0
H2879 H 0.22745 0.75316 0.00357 0.0
C2880 C 0.52989 0.75611 0.72977 0.0
C2881 C 0.51222 0.74836 0.72427 0.0
C2882 C 0.52961 0.76153 0.74083 0.0
C2883 C 0.51145 0.7573 0.74663 0.0
C2884 C 0.49353 0.75003 0.74105 0.0
C2885 C 0.49401 0.74705 0.72993 0.0
C2886 C 0.54885 0.77123 0.74632 0.0
C2887 C 0.47403 0.74364 0.74685 0.0
C2888 C 0.51875 0.73541 0.77587 0.0
C2889 C 0.51253 0.7634 0.78107 0.0
C2890 C 0.51746 0.73256 0.76475 0.0
C2891 C 0.51131 0.75922 0.75853 0.0
C2892 C 0.50529 0.78774 0.76372 0.0
C2893 C 0.50534 0.78907 0.7749 0.0
C2894 C 0.52308 0.70112 0.75966 0.0
C2895 C 0.49994 0.81747 0.75746 0.0
H2896 H 0.54396 0.75763 0.72544 0.0
H2897 H 0.48018 0.74201 0.72567 0.0
H2898 H 0.54595 0.7906 0.75214 0.0
H2899 H 0.55509 0.7505 0.75075 0.0
H2900 H 0.5604 0.7796 0.74056 0.0
H2901 H 0.46157 0.73734 0.74136 0.0
H2902 H 0.47617 0.72361 0.75257 0.0
H2903 H 0.46948 0.76491 0.75151 0.0
H2904 H 0.52517 0.71592 0.78046 0.0
H2905 H 0.50094 0.81102 0.77885 0.0
H2906 H 0.53791 0.70342 0.75569 0.0
H2907 H 0.51189 0.69445 0.7535 0.0
H2908 H 0.52406 0.6814 0.76559 0.0
H2909 H 0.51301 0.82482 0.75252 0.0
H2910 H 0.4957 0.83778 0.76268 0.0
H2911 H 0.4873 0.81261 0.75196 0.0
C2912 C 0.28909 0.00875 0.72971 0.0
C2913 C 0.27079 0.00745 0.72414 0.0
C2914 C 0.28967 0.00641 0.74085 0.0
C2915 C 0.27176 0.9998 0.74654 0.0
C2916 C 0.25351 0.99545 0.74085 0.0
C2917 C 0.25315 1.00023 0.72975 0.0
C2918 C 0.30926 0.01289 0.74654 0.0
C2919 C 0.23428 0.98639 0.74648 0.0
C2920 C 0.27778 0.97015 0.77512 0.0
C2921 C 0.27073 0.99638 0.78099 0.0
C2922 C 0.27785 0.97063 0.76393 0.0
C2923 C 0.27198 0.99882 0.75844 0.0
C2924 C 0.26601 0.02606 0.76436 0.0
C2925 C 0.26468 0.02407 0.7755 0.0
C2926 C 0.283 0.94034 0.75801 0.0
C2927 C 0.26056 0.05717 0.75893 0.0
H2928 H 0.30289 0.01338 0.72537 0.0
H2929 H 0.23902 0.9987 0.72547 0.0
H2930 H 0.30734 0.03353 0.75199 0.0
H2931 H 0.31365 0.992 0.75148 0.0
H2932 H 0.32175 0.01836 0.74095 0.0
H2933 H 0.22262 0.97779 0.74084 0.0
H2934 H 0.23713 0.96739 0.75249 0.0
H2935 H 0.22819 0.00751 0.75071 0.0
H2936 H 0.28203 0.94843 0.77931 0.0
H2937 H 0.25835 0.04397 0.77988 0.0
H2938 H 0.29549 0.94465 0.75235 0.0
H2939 H 0.26978 0.93261 0.75327 0.0
H2940 H 0.28736 0.92049 0.76344 0.0
H2941 H 0.27177 0.06318 0.75268 0.0
H2942 H 0.25973 0.07737 0.76463 0.0
H2943 H 0.2457 0.0548 0.755 0.0
C2944 C 0.50317 0.46894 0.47958 0.0
C2945 C 0.51082 0.4944 0.47348 0.0
C2946 C 0.50318 0.46996 0.49077 0.0
C2947 C 0.50965 0.49813 0.49604 0.0
C2948 C 0.51602 0.52478 0.48987 0.0
C2949 C 0.51731 0.52212 0.47874 0.0
C2950 C 0.49672 0.44037 0.4968 0.0
C2951 C 0.52173 0.5561 0.49501 0.0
C2952 C 0.49293 0.50917 0.52481 0.0
C2953 C 0.5113 0.50804 0.53033 0.0
C2954 C 0.49219 0.50649 0.51369 0.0
C2955 C 0.51003 0.49984 0.50795 0.0
C2956 C 0.52834 0.49559 0.51361 0.0
C2957 C 0.52887 0.50068 0.52468 0.0
C2958 C 0.47235 0.51171 0.5081 0.0
C2959 C 0.54739 0.48571 0.50798 0.0
H2960 H 0.49836 0.44728 0.47559 0.0
H2961 H 0.52391 0.54153 0.47418 0.0
H2962 H 0.50398 0.43856 0.50472 0.0
H2963 H 0.48018 0.44094 0.49793 0.0
H2964 H 0.50032 0.41835 0.49224 0.0
H2965 H 0.52273 0.57592 0.48911 0.0
H2966 H 0.51056 0.56272 0.50118 0.0
H2967 H 0.53656 0.55369 0.49896 0.0
H2968 H 0.47917 0.51373 0.52919 0.0
H2969 H 0.54304 0.49911 0.52892 0.0
H2970 H 0.4665 0.48846 0.50522 0.0
H2971 H 0.4743 0.52767 0.50109 0.0
H2972 H 0.46087 0.5224 0.51344 0.0
H2973 H 0.54428 0.46579 0.50239 0.0
H2974 H 0.55926 0.47796 0.51365 0.0
H2975 H 0.55332 0.50608 0.50326 0.0
C2976 C 0.79235 0.73877 0.52584 0.0
C2977 C 0.7738 0.74141 0.53113 0.0
C2978 C 0.79357 0.74047 0.5147 0.0
C2979 C 0.77613 0.7479 0.50872 0.0
C2980 C 0.7577 0.75353 0.51411 0.0
C2981 C 0.75662 0.74927 0.52522 0.0
C2982 C 0.81328 0.73265 0.50933 0.0
C2983 C 0.73901 0.76358 0.50815 0.0
C2984 C 0.78259 0.77858 0.48036 0.0
C2985 C 0.77399 0.75368 0.47442 0.0
C2986 C 0.78352 0.77707 0.49151 0.0
C2987 C 0.77701 0.74898 0.49684 0.0
C2988 C 0.77026 0.72248 0.49079 0.0
C2989 C 0.76811 0.72557 0.47971 0.0
C2990 C 0.78957 0.80669 0.49757 0.0
C2991 C 0.76432 0.69134 0.49605 0.0
H2992 H 0.80581 0.73364 0.5304 0.0
H2993 H 0.74232 0.75179 0.52927 0.0
H2994 H 0.81115 0.71203 0.5039 0.0
H2995 H 0.81844 0.75314 0.50441 0.0
H2996 H 0.82531 0.72655 0.51513 0.0
H2997 H 0.72701 0.77216 0.51359 0.0
H2998 H 0.74258 0.78291 0.50237 0.0
H2999 H 0.73303 0.743 0.5036 0.0
H3000 H 0.78675 0.8006 0.47632 0.0
H3001 H 0.76078 0.70664 0.4753 0.0
H3002 H 0.80066 0.80092 0.50387 0.0
H3003 H 0.77609 0.81676 0.50156 0.0
H3004 H 0.79605 0.82541 0.49229 0.0
H3005 H 0.77521 0.68479 0.50239 0.0
H3006 H 0.7635 0.67142 0.49024 0.0
H3007 H 0.74932 0.69395 0.49981 0.0
C3008 C 0.77842 0.47198 0.77558 0.0
C3009 C 0.771 0.49826 0.78129 0.0
C3010 C 0.77844 0.47182 0.7644 0.0
C3011 C 0.77223 0.49957 0.75874 0.0
C3012 C 0.76613 0.52703 0.76451 0.0
C3013 C 0.76477 0.52556 0.77566 0.0
C3014 C 0.78463 0.44142 0.75881 0.0
C3015 C 0.76075 0.55795 0.75893 0.0
C3016 C 0.78889 0.50742 0.72988 0.0
C3017 C 0.77044 0.50673 0.72444 0.0
C3018 C 0.78971 0.50549 0.74101 0.0
C3019 C 0.77181 0.50004 0.74685 0.0
C3020 C 0.75339 0.496 0.74129 0.0
C3021 C 0.75282 0.50036 0.73018 0.0
C3022 C 0.80967 0.51031 0.7465 0.0
C3023 C 0.73425 0.48721 0.74706 0.0
H3024 H 0.783 0.45063 0.77988 0.0
H3025 H 0.75827 0.54554 0.77992 0.0
H3026 H 0.77806 0.43941 0.75074 0.0
H3027 H 0.80127 0.44083 0.75812 0.0
H3028 H 0.78006 0.42003 0.76351 0.0
H3029 H 0.76019 0.57844 0.76453 0.0
H3030 H 0.77186 0.56346 0.75259 0.0
H3031 H 0.74578 0.55567 0.75513 0.0
H3032 H 0.80266 0.51116 0.72542 0.0
H3033 H 0.73859 0.49907 0.72599 0.0
H3034 H 0.81511 0.48708 0.74967 0.0
H3035 H 0.80806 0.527 0.7533 0.0
H3036 H 0.82131 0.51994 0.74101 0.0
H3037 H 0.73719 0.46798 0.75298 0.0
H3038 H 0.72235 0.47896 0.74151 0.0
H3039 H 0.72845 0.5083 0.75142 0.0
C3040 C 0.26473 0.23014 0.47969 0.0
C3041 C 0.27081 0.25753 0.47405 0.0
C3042 C 0.26601 0.22873 0.49084 0.0
C3043 C 0.27199 0.25625 0.4966 0.0
C3044 C 0.27798 0.2841 0.49096 0.0
C3045 C 0.27795 0.284 0.47978 0.0
C3046 C 0.26045 0.19794 0.49645 0.0
C3047 C 0.28315 0.31468 0.49671 0.0
C3048 C 0.25262 0.25636 0.52519 0.0
C3049 C 0.27013 0.24914 0.53092 0.0
C3050 C 0.25323 0.26071 0.51407 0.0
C3051 C 0.27157 0.25597 0.5085 0.0
C3052 C 0.28935 0.24948 0.51432 0.0
C3053 C 0.28854 0.24754 0.52545 0.0
C3054 C 0.23413 0.26968 0.50829 0.0
C3055 C 0.30903 0.24262 0.50876 0.0
H3056 H 0.25833 0.21007 0.47543 0.0
H3057 H 0.28222 0.30549 0.47547 0.0
H3058 H 0.2716 0.19221 0.50275 0.0
H3059 H 0.24557 0.20061 0.50032 0.0
H3060 H 0.25962 0.17744 0.49086 0.0
H3061 H 0.2879 0.33405 0.49118 0.0
H3062 H 0.26981 0.32302 0.50123 0.0
H3063 H 0.29536 0.31052 0.50256 0.0
H3064 H 0.23841 0.25812 0.52938 0.0
H3065 H 0.30222 0.24286 0.52989 0.0
H3066 H 0.2281 0.24844 0.5041 0.0
H3067 H 0.23715 0.28846 0.50223 0.0
H3068 H 0.22237 0.27853 0.51383 0.0
H3069 H 0.30721 0.22153 0.5035 0.0
H3070 H 0.32145 0.23765 0.51445 0.0
H3071 H 0.31346 0.2631 0.50365 0.0
C3072 C 0.2617 0.52759 0.27604 0.0
C3073 C 0.26759 0.49956 0.28137 0.0
C3074 C 0.26296 0.53 0.26489 0.0
C3075 C 0.26886 0.50297 0.25884 0.0
C3076 C 0.27464 0.47451 0.26419 0.0
C3077 C 0.27465 0.4736 0.27537 0.0
C3078 C 0.25769 0.56139 0.25959 0.0
C3079 C 0.27979 0.44446 0.25813 0.0
C3080 C 0.25094 0.50451 0.22995 0.0
C3081 C 0.26882 0.51136 0.22449 0.0
C3082 C 0.25089 0.50011 0.24107 0.0
C3083 C 0.26894 0.50445 0.24693 0.0
C3084 C 0.28707 0.51081 0.2414 0.0
C3085 C 0.2869 0.51275 0.23026 0.0
C3086 C 0.23144 0.49125 0.24653 0.0
C3087 C 0.30648 0.51724 0.24727 0.0
H3088 H 0.25574 0.54748 0.28057 0.0
H3089 H 0.27907 0.45178 0.27944 0.0
H3090 H 0.26914 0.56772 0.25351 0.0
H3091 H 0.243 0.55922 0.25549 0.0
H3092 H 0.25663 0.58128 0.26541 0.0
H3093 H 0.28327 0.42398 0.26348 0.0
H3094 H 0.26694 0.43772 0.25295 0.0
H3095 H 0.29291 0.44865 0.25287 0.0
H3096 H 0.23698 0.5029 0.22552 0.0
H3097 H 0.30088 0.51708 0.22604 0.0
H3098 H 0.22546 0.5123 0.25085 0.0
H3099 H 0.23401 0.47192 0.25246 0.0
H3100 H 0.21983 0.48317 0.24079 0.0
H3101 H 0.3043 0.53738 0.25289 0.0
H3102 H 0.31904 0.52337 0.2418 0.0
H3103 H 0.31092 0.49602 0.25204 0.0
C3104 C 0.03807 0.99562 0.48 0.0
C3105 C 0.01971 0.99723 0.47449 0.0
C3106 C 0.03885 0.99842 0.49112 0.0
C3107 C 0.02107 0.00555 0.49684 0.0
C3108 C 1.00278 0.01007 0.4912 0.0
C3109 C 1.00221 0.00503 0.48012 0.0
C3110 C 0.05849 0.99191 0.49677 0.0
C3111 C 0.98369 0.01957 0.49686 0.0
C3112 C 1.01447 0.98189 0.52596 0.0
C3113 C 0.02054 0.00971 0.53129 0.0
C3114 C 1.01558 0.9797 0.51481 0.0
C3115 C 0.02147 0.0068 0.50874 0.0
C3116 C 0.02741 0.03511 0.51407 0.0
C3117 C 0.02746 0.03586 0.52526 0.0
C3118 C 1.01001 0.94851 0.50955 0.0
C3119 C 0.03259 0.06521 0.50797 0.0
H3120 H 0.05175 0.99044 0.47563 0.0
H3121 H 0.98805 0.00676 0.47589 0.0
H3122 H 0.06295 0.01281 0.50163 0.0
H3123 H 0.05661 0.97129 0.50227 0.0
H3124 H 0.07091 0.9864 0.49115 0.0
H3125 H 0.97185 0.02766 0.49122 0.0
H3126 H 0.97776 0.99883 0.50142 0.0
H3127 H 0.98671 0.03908 0.50261 0.0
H3128 H 1.00829 0.96204 0.53046 0.0
H3129 H 0.03173 0.05767 0.52933 0.0
H3130 H 0.02133 0.94209 0.50343 0.0
H3131 H 0.99528 0.95105 0.50549 0.0
H3132 H 1.00887 0.92852 0.51537 0.0
H3133 H 0.04502 0.06063 0.5023 0.0
H3134 H 0.03707 0.08515 0.51329 0.0
H3135 H 0.01936 0.07293 0.50323 0.0
C3136 C 0.02951 0.25492 0.72955 0.0
C3137 C 1.01195 0.24712 0.72396 0.0
C3138 C 0.02905 0.26007 0.74062 0.0
C3139 C 1.01083 0.2555 0.74632 0.0
C3140 C 0.99301 0.2482 0.74066 0.0
C3141 C 0.99366 0.2455 0.72954 0.0
C3142 C 0.04817 0.26983 0.74621 0.0
C3143 C 0.97347 0.24146 0.74638 0.0
C3144 C 0.01811 0.23283 0.77548 0.0
C3145 C 1.01183 0.26064 0.78075 0.0
C3146 C 0.01678 0.23024 0.76435 0.0
C3147 C 1.01054 0.25703 0.75822 0.0
C3148 C 1.00439 0.28533 0.76348 0.0
C3149 C 1.00447 0.28638 0.77467 0.0
C3150 C 0.02252 0.199 0.75917 0.0
C3151 C 0.99894 0.31519 0.75732 0.0
H3152 H 0.04363 0.25667 0.72527 0.0
H3153 H 0.97992 0.2404 0.72522 0.0
H3154 H 0.04512 0.2891 0.75204 0.0
H3155 H 0.0544 0.24909 0.75064 0.0
H3156 H 0.0598 0.27836 0.74052 0.0
H3157 H 0.96108 0.23534 0.74081 0.0
H3158 H 0.97559 0.22117 0.752 0.0
H3159 H 0.96882 0.26247 0.75113 0.0
H3160 H 0.02465 0.21332 0.78 0.0
H3161 H 1.00002 0.3082 0.77868 0.0
H3162 H 0.03737 0.20151 0.75524 0.0
H3163 H 1.01139 0.19243 0.75297 0.0
H3164 H 0.02352 0.17911 0.76504 0.0
H3165 H 1.01209 0.32305 0.75253 0.0
H3166 H 0.99435 0.33517 0.76259 0.0
H3167 H 0.98652 0.31028 0.75168 0.0
C3168 C 0.99481 0.7511 0.22919 0.0
C3169 C 1.01276 0.75184 0.2233 0.0
C3170 C 0.99491 0.75424 0.2403 0.0
C3171 C 1.0132 0.7609 0.24563 0.0
C3172 C 0.03112 0.76455 0.23959 0.0
C3173 C 0.03078 0.75916 0.22854 0.0
C3174 C 0.97562 0.74862 0.24638 0.0
C3175 C 0.05075 0.77352 0.24482 0.0
C3176 C 1.00922 0.79213 0.27405 0.0
C3177 C 1.01605 0.76581 0.28002 0.0
C3178 C 1.00857 0.79115 0.26287 0.0
C3179 C 1.01373 0.7625 0.25752 0.0
C3180 C 0.01965 0.73533 0.26354 0.0
C3181 C 0.02147 0.7377 0.27465 0.0
C3182 C 1.00339 0.82127 0.25678 0.0
C3183 C 0.02441 0.70382 0.25826 0.0
H3184 H 0.98074 0.74636 0.22513 0.0
H3185 H 0.04463 0.76027 0.224 0.0
H3186 H 0.97763 0.72814 0.25193 0.0
H3187 H 0.97182 0.76984 0.25124 0.0
H3188 H 0.96272 0.74334 0.24105 0.0
H3189 H 0.06226 0.78101 0.23891 0.0
H3190 H 0.04844 0.79331 0.25056 0.0
H3191 H 0.05672 0.75271 0.24932 0.0
H3192 H 1.00546 0.81414 0.27814 0.0
H3193 H 0.02762 0.71771 0.2791 0.0
H3194 H 0.99038 0.81708 0.25146 0.0
H3195 H 0.0163 0.82822 0.25167 0.0
H3196 H 0.99976 0.84159 0.26213 0.0
H3197 H 1.01255 0.69762 0.25241 0.0
H3198 H 0.02572 0.68394 0.26412 0.0
H3199 H 0.03884 0.70575 0.25389 0.0
C3200 C 1.00465 0.50728 0.97898 0.0
C3201 C 0.02241 0.49946 0.97358 0.0
C3202 C 1.00469 0.51241 0.99005 0.0
C3203 C 0.02271 0.50789 0.99594 0.0
C3204 C 0.04074 0.50063 0.99046 0.0
C3205 C 0.0405 0.49787 0.97934 0.0
C3206 C 0.98536 0.5221 0.99545 0.0
C3207 C 0.06009 0.49399 0.99637 0.0
C3208 C 0.02798 0.53876 0.02435 0.0
C3209 C 0.02057 0.51291 0.03035 0.0
C3210 C 0.02843 0.53775 0.01317 0.0
C3211 C 0.02256 0.50941 0.00784 0.0
C3212 C 0.01621 0.48255 0.0139 0.0
C3213 C 1.01454 0.48507 0.02501 0.0
C3214 C 0.03402 0.56765 0.00706 0.0
C3215 C 1.01073 0.45129 0.00865 0.0
H3216 H 0.99069 0.50904 0.97456 0.0
H3217 H 0.05439 0.49278 0.97515 0.0
H3218 H 0.97908 0.50139 0.99988 0.0
H3219 H 0.98816 0.54151 1.00127 0.0
H3220 H 0.97387 0.53041 0.98964 0.0
H3221 H 0.0727 0.48801 0.99094 0.0
H3222 H 0.06449 0.51502 1.00119 0.0
H3223 H 0.05782 0.47366 1.00196 0.0
H3224 H 0.03223 0.56058 0.02841 0.0
H3225 H 1.00797 0.46546 0.02948 0.0
H3226 H 0.02103 0.57542 1.00213 0.0
H3227 H 0.04667 0.56283 1.00156 0.0
H3228 H 0.03835 0.58766 0.01238 0.0
H3229 H 0.99609 0.45378 0.00451 0.0
H3230 H 1.00947 0.4314 0.0145 0.0
H3231 H 0.02217 0.44473 0.0026 0.0
C3232 C 0.59517 0.1197 0.07266 0.0
C3233 C 0.58973 0.09177 0.06719 0.0
C3234 C 0.61517 0.13112 0.07253 0.0
C3235 C 0.63013 0.11458 0.06664 0.0
C3236 C 0.62461 0.08667 0.06097 0.0
C3237 C 0.60461 0.07555 0.06137 0.0
C3238 C 0.62035 0.16076 0.07879 0.0
C3239 C 0.63985 0.06857 0.05443 0.0
C3240 C 0.67665 0.16216 0.05825 0.0
C3241 C 0.69116 0.15212 0.06566 0.0
C3242 C 0.65697 0.14971 0.05835 0.0
C3243 C 0.65139 0.12689 0.06618 0.0
C3244 C 0.6661 0.11615 0.07357 0.0
C3245 C 0.68584 0.1287 0.07317 0.0
C3246 C 0.64202 0.16149 0.05019 0.0
C3247 C 0.66082 0.09216 0.08212 0.0
H3248 H 0.58386 0.1322 0.07727 0.0
H3249 H 0.60054 0.05412 0.05704 0.0
H3250 H 0.63246 0.15524 0.08458 0.0
H3251 H 0.62616 0.17962 0.07337 0.0
H3252 H 0.60718 0.17044 0.08316 0.0
H3253 H 0.63318 0.04739 0.05044 0.0
H3254 H 0.64635 0.08462 0.04827 0.0
H3255 H 0.65243 0.06038 0.05956 0.0
H3256 H 0.68068 0.18027 0.05242 0.0
H3257 H 0.69687 0.12121 0.07902 0.0
H3258 H 0.62946 0.17407 0.05421 0.0
H3259 H 0.63545 0.14092 0.04584 0.0
H3260 H 0.64895 0.17814 0.04433 0.0
H3261 H 0.64884 0.10209 0.0873 0.0
H3262 H 0.67398 0.08579 0.08715 0.0
H3263 H 0.65478 0.06999 0.07849 0.0
C3264 C 0.60502 0.17796 0.17975 0.0
C3265 C 0.59007 0.16496 0.18643 0.0
C3266 C 0.62495 0.16639 0.17983 0.0
C3267 C 0.6303 0.1406 0.18661 0.0
C3268 C 0.6153 0.12697 0.19327 0.0
C3269 C 0.59549 0.13933 0.19313 0.0
C3270 C 0.64032 0.18177 0.17259 0.0
C3271 C 0.62017 0.09919 0.20053 0.0
C3272 C 0.67617 0.09031 0.17896 0.0
C3273 C 0.69111 0.10104 0.18605 0.0
C3274 C 0.65647 0.10275 0.17913 0.0
C3275 C 0.65136 0.12719 0.18642 0.0
C3276 C 0.66646 0.1389 0.19339 0.0
C3277 C 0.68606 0.12568 0.19315 0.0
C3278 C 0.64103 0.08941 0.17153 0.0
C3279 C 0.66183 0.16523 0.20119 0.0
H3280 H 0.60115 0.1972 0.17433 0.0
H3281 H 0.58431 0.12915 0.19843 0.0
H3282 H 0.65343 0.19009 0.17729 0.0
H3283 H 0.64598 0.16394 0.1668 0.0
H3284 H 0.63405 0.20249 0.16812 0.0
H3285 H 0.60692 0.09122 0.20523 0.0
H3286 H 0.62575 0.07867 0.19579 0.0
H3287 H 0.63237 0.10601 0.2061 0.0
H3288 H 0.67985 0.07193 0.17323 0.0
H3289 H 0.69729 0.13415 0.19871 0.0
H3290 H 0.63522 0.10875 0.1663 0.0
H3291 H 0.62803 0.07971 0.17604 0.0
H3292 H 0.64725 0.07007 0.16646 0.0
H3293 H 0.65603 0.1866 0.19691 0.0
H3294 H 0.67525 0.17235 0.20589 0.0
H3295 H 0.64987 0.15727 0.20676 0.0
C3296 C 0.42725 0.92324 0.92942 0.0
C3297 C 0.44219 0.91154 0.93637 0.0
C3298 C 0.40744 0.91136 0.92961 0.0
C3299 C 0.40223 0.88641 0.93675 0.0
C3300 C 0.41727 0.87379 0.9436 0.0
C3301 C 0.43698 0.88655 0.94337 0.0
C3302 C 0.39201 0.92569 0.92216 0.0
C3303 C 0.41253 0.8468 0.9512 0.0
C3304 C 0.34641 0.8727 0.94327 0.0
C3305 C 0.3413 0.84766 0.93634 0.0
C3306 C 0.3661 0.88553 0.94351 0.0
C3307 C 0.38122 0.87291 0.93673 0.0
C3308 C 0.3761 0.84792 0.92966 0.0
C3309 C 0.3563 0.83598 0.92946 0.0
C3310 C 0.37075 0.91258 0.95103 0.0
C3311 C 0.39161 0.83359 0.9223 0.0
H3312 H 0.43103 0.94187 0.92375 0.0
H3313 H 0.44819 0.87735 0.94884 0.0
H3314 H 0.38637 0.9071 0.91664 0.0
H3315 H 0.3789 0.93455 0.92676 0.0
H3316 H 0.39821 0.94584 0.91739 0.0
H3317 H 0.42586 0.83931 0.95592 0.0
H3318 H 0.40043 0.85423 0.95675 0.0
H3319 H 0.40686 0.82579 0.94673 0.0
H3320 H 0.33514 0.8819 0.94868 0.0
H3321 H 0.3526 0.81732 0.92383 0.0
H3322 H 0.37647 0.93356 0.94651 0.0
H3323 H 0.38277 0.90519 0.95665 0.0
H3324 H 0.35735 0.92009 0.95568 0.0
H3325 H 0.39731 0.85217 0.91674 0.0
H3326 H 0.38547 0.81342 0.91757 0.0
H3327 H 0.40467 0.82474 0.92696 0.0
C3328 C 0.4275 0.83679 0.80981 0.0
C3329 C 0.44227 0.85037 0.81639 0.0
C3330 C 0.40764 0.84863 0.80961 0.0
C3331 C 0.40211 0.87436 0.81632 0.0
C3332 C 0.41702 0.88831 0.82295 0.0
C3333 C 0.43693 0.8764 0.82282 0.0
C3334 C 0.39252 0.83342 0.80223 0.0
C3335 C 0.41182 0.9154 0.83036 0.0
C3336 C 0.35539 0.92431 0.80972 0.0
C3337 C 0.34067 0.91088 0.8164 0.0
C3338 C 0.37523 0.91242 0.80951 0.0
C3339 C 0.38081 0.88678 0.81632 0.0
C3340 C 0.36595 0.87295 0.82304 0.0
C3341 C 0.34605 0.88492 0.82292 0.0
C3342 C 0.3903 0.92751 0.80204 0.0
C3343 C 0.3712 0.84595 0.83055 0.0
H3344 H 0.43152 0.81671 0.8048 0.0
H3345 H 0.44818 0.88672 0.82802 0.0
H3346 H 0.38002 0.82283 0.80691 0.0
H3347 H 0.38589 0.85189 0.79692 0.0
H3348 H 0.39932 0.81435 0.79725 0.0
H3349 H 0.42499 0.92344 0.83509 0.0
H3350 H 0.40596 0.9361 0.82576 0.0
H3351 H 0.39974 0.90772 0.8359 0.0
H3352 H 0.35134 0.94433 0.80464 0.0
H3353 H 0.33485 0.87471 0.8282 0.0
H3354 H 0.39689 0.90895 0.79679 0.0
H3355 H 0.40284 0.93818 0.80664 0.0
H3356 H 0.38345 0.94649 0.79699 0.0
H3357 H 0.37703 0.8252 0.82602 0.0
H3358 H 0.35806 0.83798 0.83534 0.0
H3359 H 0.38332 0.8537 0.83604 0.0
C3360 C 0.677 0.67207 0.56172 0.0
C3361 C 0.69208 0.65777 0.56799 0.0
C3362 C 0.65716 0.66001 0.56152 0.0
C3363 C 0.65194 0.63313 0.56787 0.0
C3364 C 0.6671 0.61854 0.57422 0.0
C3365 C 0.68695 0.6308 0.57412 0.0
C3366 C 0.64176 0.67605 0.55447 0.0
C3367 C 0.66228 0.59019 0.58124 0.0
C3368 C 0.59596 0.62041 0.57445 0.0
C3369 C 0.59062 0.5955 0.56753 0.0
C3370 C 0.61582 0.63257 0.57474 0.0
C3371 C 0.63071 0.62017 0.56778 0.0
C3372 C 0.62522 0.59548 0.56062 0.0
C3373 C 0.60542 0.58326 0.56068 0.0
C3374 C 0.62096 0.65839 0.58265 0.0
C3375 C 0.64029 0.58195 0.55286 0.0
H3376 H 0.68078 0.69271 0.55686 0.0
H3377 H 0.69836 0.61976 0.57908 0.0
H3378 H 0.63537 0.65838 0.54884 0.0
H3379 H 0.62914 0.68527 0.55935 0.0
H3380 H 0.64825 0.69628 0.54984 0.0
H3381 H 0.67557 0.58187 0.58584 0.0
H3382 H 0.65012 0.5966 0.58689 0.0
H3383 H 0.65668 0.57003 0.57635 0.0
H3384 H 0.58473 0.62975 0.57986 0.0
H3385 H 0.60142 0.56413 0.55527 0.0
H3386 H 0.62636 0.6801 0.57842 0.0
H3387 H 0.63336 0.65014 0.58789 0.0
H3388 H 0.60787 0.66507 0.58767 0.0
H3389 H 0.64653 0.60145 0.54783 0.0
H3390 H 0.63356 0.5635 0.54761 0.0
H3391 H 0.65307 0.57104 0.55724 0.0
C3392 C 0.60582 0.67234 0.69374 0.0
C3393 C 0.59067 0.65903 0.68734 0.0
C3394 C 0.62552 0.65971 0.69388 0.0
C3395 C 0.63052 0.63339 0.68729 0.0
C3396 C 0.61527 0.61988 0.68078 0.0
C3397 C 0.59555 0.63258 0.68097 0.0
C3398 C 0.641 0.67453 0.70114 0.0
C3399 C 0.61988 0.59225 0.67348 0.0
C3400 C 0.68639 0.61992 0.68071 0.0
C3401 C 0.69142 0.59411 0.68739 0.0
C3402 C 0.66668 0.63267 0.6805 0.0
C3403 C 0.6516 0.61987 0.68731 0.0
C3404 C 0.65676 0.59424 0.69422 0.0
C3405 C 0.67643 0.58152 0.69409 0.0
C3406 C 0.66189 0.65955 0.67286 0.0
C3407 C 0.64147 0.58021 0.70179 0.0
H3408 H 0.6022 0.69262 0.69874 0.0
H3409 H 0.58404 0.62236 0.67591 0.0
H3410 H 0.6472 0.65603 0.70658 0.0
H3411 H 0.65374 0.68404 0.69638 0.0
H3412 H 0.63466 0.69432 0.70597 0.0
H3413 H 0.60656 0.58485 0.66875 0.0
H3414 H 0.63218 0.59898 0.66795 0.0
H3415 H 0.62519 0.57137 0.67818 0.0
H3416 H 0.69776 0.62957 0.67542 0.0
H3417 H 0.68018 0.56173 0.69933 0.0
H3418 H 0.65668 0.68089 0.6773 0.0
H3419 H 0.64945 0.65226 0.6675 0.0
H3420 H 0.67509 0.66645 0.66794 0.0
H3421 H 0.6354 0.59928 0.70701 0.0
H3422 H 0.64795 0.56097 0.70686 0.0
H3423 H 0.62862 0.57018 0.69727 0.0
C3424 C 0.42671 0.41801 0.42926 0.0
C3425 C 0.44169 0.40686 0.43628 0.0
C3426 C 0.40691 0.40596 0.42952 0.0
C3427 C 0.40174 0.38137 0.4368 0.0
C3428 C 0.41684 0.36931 0.44374 0.0
C3429 C 0.43652 0.38224 0.44344 0.0
C3430 C 0.39146 0.41973 0.42197 0.0
C3431 C 0.41218 0.34271 0.4515 0.0
C3432 C 0.34587 0.36747 0.44338 0.0
C3433 C 0.34083 0.34199 0.4366 0.0
C3434 C 0.36553 0.38049 0.44354 0.0
C3435 C 0.38074 0.36766 0.43686 0.0
C3436 C 0.3757 0.34221 0.42995 0.0
C3437 C 0.35592 0.33008 0.42981 0.0
C3438 C 0.37006 0.40801 0.4509 0.0
C3439 C 0.39127 0.3276 0.42269 0.0
H3440 H 0.43042 0.43632 0.42346 0.0
H3441 H 0.44774 0.37343 0.44897 0.0
H3442 H 0.38592 0.40079 0.41655 0.0
H3443 H 0.3783 0.4287 0.4265 0.0
H3444 H 0.3976 0.43969 0.41709 0.0
H3445 H 0.42553 0.33562 0.45627 0.0
H3446 H 0.40005 0.35035 0.457 0.0
H3447 H 0.40659 0.3214 0.44716 0.0
H3448 H 0.33457 0.3769 0.44872 0.0
H3449 H 0.3523 0.31109 0.42429 0.0
H3450 H 0.37573 0.42878 0.44625 0.0
H3451 H 0.3821 0.40105 0.45657 0.0
H3452 H 0.35663 0.41565 0.45549 0.0
H3453 H 0.39689 0.34591 0.41701 0.0
H3454 H 0.38521 0.30709 0.41809 0.0
H3455 H 0.40436 0.31917 0.4274 0.0
C3456 C 0.43919 0.37012 0.32203 0.0
C3457 C 0.44439 0.34214 0.31654 0.0
C3458 C 0.41923 0.38183 0.32196 0.0
C3459 C 0.40411 0.3655 0.31612 0.0
C3460 C 0.40946 0.33772 0.31034 0.0
C3461 C 0.4294 0.32635 0.31067 0.0
C3462 C 0.41423 0.41135 0.32831 0.0
C3463 C 0.39406 0.31982 0.30384 0.0
C3464 C 0.34845 0.37838 0.32309 0.0
C3465 C 0.34269 0.40172 0.31564 0.0
C3466 C 0.36834 0.3664 0.32336 0.0
C3467 C 0.38278 0.37763 0.3159 0.0
C3468 C 0.37678 0.40041 0.30814 0.0
C3469 C 0.35695 0.41227 0.30816 0.0
C3470 C 0.37405 0.34236 0.33182 0.0
C3471 C 0.39142 0.41269 0.29991 0.0
H3472 H 0.4506 0.38225 0.32668 0.0
H3473 H 0.4333 0.30483 0.30634 0.0
H3474 H 0.40797 0.43015 0.32301 0.0
H3475 H 0.40251 0.40558 0.3343 0.0
H3476 H 0.42759 0.42123 0.33248 0.0
H3477 H 0.40068 0.29901 0.29962 0.0
H3478 H 0.38177 0.31108 0.30906 0.0
H3479 H 0.38717 0.33613 0.29788 0.0
H3480 H 0.33762 0.37047 0.32899 0.0
H3481 H 0.3526 0.43029 0.30237 0.0
H3482 H 0.38621 0.35231 0.33687 0.0
H3483 H 0.38 0.32028 0.32809 0.0
H3484 H 0.36111 0.33582 0.33698 0.0
H3485 H 0.40409 0.42515 0.30387 0.0
H3486 H 0.38425 0.42955 0.2942 0.0
H3487 H 0.3979 0.39237 0.2954 0.0
C3488 C 0.0943 0.12443 0.57385 0.0
C3489 C 0.08945 0.09872 0.56716 0.0
C3490 C 0.11399 0.13731 0.57411 0.0
C3491 C 0.1292 0.12472 0.56737 0.0
C3492 C 0.12415 0.09935 0.56039 0.0
C3493 C 0.10451 0.0865 0.56047 0.0
C3494 C 0.11866 0.16391 0.58181 0.0
C3495 C 0.13956 0.08554 0.55288 0.0
C3496 C 0.1755 0.17655 0.56128 0.0
C3497 C 0.19044 0.16271 0.56775 0.0
C3498 C 0.1557 0.16438 0.56103 0.0
C3499 C 0.15035 0.13796 0.56757 0.0
C3500 C 0.16537 0.12391 0.57414 0.0
C3501 C 0.18521 0.13618 0.57406 0.0
C3502 C 0.14048 0.17976 0.55371 0.0
C3503 C 0.16041 0.09611 0.58137 0.0
H3504 H 0.08286 0.13372 0.57915 0.0
H3505 H 0.1009 0.06668 0.55526 0.0
H3506 H 0.13077 0.15619 0.58732 0.0
H3507 H 0.12427 0.18523 0.57744 0.0
H3508 H 0.1053 0.17099 0.58656 0.0
H3509 H 0.13308 0.0668 0.54765 0.0
H3510 H 0.14598 0.10482 0.54782 0.0
H3511 H 0.15216 0.07488 0.55746 0.0
H3512 H 0.17939 0.19689 0.55631 0.0
H3513 H 0.19653 0.12553 0.57917 0.0
H3514 H 0.12765 0.18917 0.55839 0.0
H3515 H 0.13435 0.16162 0.54816 0.0
H3516 H 0.14704 0.19972 0.54899 0.0
H3517 H 0.14796 0.10281 0.58681 0.0
H3518 H 0.17354 0.08838 0.58621 0.0
H3519 H 0.15513 0.07545 0.5766 0.0
C3520 C 0.17701 0.08271 0.6937 0.0
C3521 C 0.19201 0.09565 0.68708 0.0
C3522 C 0.15729 0.09524 0.69382 0.0
C3523 C 0.1521 0.12104 0.68698 0.0
C3524 C 0.1672 0.1342 0.68026 0.0
C3525 C 0.18696 0.12162 0.68048 0.0
C3526 C 0.14198 0.08084 0.7013 0.0
C3527 C 0.16238 0.16126 0.6727 0.0
C3528 C 0.09607 0.13337 0.68052 0.0
C3529 C 0.09102 0.15957 0.68696 0.0
C3530 C 0.11585 0.12087 0.68035 0.0
C3531 C 0.13097 0.13435 0.68694 0.0
C3532 C 0.1258 0.16041 0.69361 0.0
C3533 C 0.10605 0.17285 0.69345 0.0
C3534 C 0.12064 0.09351 0.67297 0.0
C3535 C 0.14114 0.17516 0.70096 0.0
H3536 H 0.18077 0.06279 0.69888 0.0
H3537 H 0.19835 0.13154 0.67525 0.0
H3538 H 0.13577 0.09968 0.70656 0.0
H3539 H 0.12922 0.07081 0.69671 0.0
H3540 H 0.14848 0.06151 0.70633 0.0
H3541 H 0.17561 0.16845 0.66784 0.0
H3542 H 0.15003 0.15401 0.66728 0.0
H3543 H 0.15704 0.18241 0.6772 0.0
H3544 H 0.08465 0.12318 0.67539 0.0
H3545 H 0.10229 0.19294 0.6985 0.0
H3546 H 0.12599 0.07255 0.67761 0.0
H3547 H 0.13298 0.10053 0.66749 0.0
H3548 H 0.10741 0.08613 0.66817 0.0
H3549 H 0.14736 0.15656 0.70636 0.0
H3550 H 0.13467 0.19474 0.70584 0.0
H3551 H 0.15389 0.18495 0.69628 0.0
C3552 C 0.93438 0.88458 0.44382 0.0
C3553 C 0.93905 0.91157 0.43755 0.0
C3554 C 0.91467 0.87181 0.44421 0.0
C3555 C 0.89892 0.88653 0.43833 0.0
C3556 C 0.90347 0.91376 0.43202 0.0
C3557 C 0.92335 0.92558 0.4316 0.0
C3558 C 0.9107 0.8424 0.45089 0.0
C3559 C 0.88729 0.93054 0.42568 0.0
C3560 C 0.85181 0.83868 0.43083 0.0
C3561 C 0.83772 0.84779 0.43864 0.0
C3562 C 0.87168 0.85057 0.43077 0.0
C3563 C 0.87783 0.87304 0.43853 0.0
C3564 C 0.86367 0.883 0.44629 0.0
C3565 C 0.84396 0.87014 0.44631 0.0
C3566 C 0.88615 0.83892 0.42238 0.0
C3567 C 0.86934 0.90733 0.4546 0.0
H3568 H 0.94606 0.87352 0.44858 0.0
H3569 H 0.92654 0.94583 0.42647 0.0
H3570 H 0.89931 0.84784 0.45707 0.0
H3571 H 0.90445 0.82306 0.44585 0.0
H3572 H 0.92453 0.83337 0.45486 0.0
H3573 H 0.89297 0.95236 0.42159 0.0
H3574 H 0.88109 0.91406 0.41961 0.0
H3575 H 0.87467 0.93747 0.43097 0.0
H3576 H 0.84733 0.82225 0.42463 0.0
H3577 H 0.83355 0.87733 0.45248 0.0
H3578 H 0.89982 0.8288 0.42619 0.0
H3579 H 0.89107 0.85927 0.41732 0.0
H3580 H 0.87939 0.82034 0.41719 0.0
H3581 H 0.88199 0.89813 0.45949 0.0
H3582 H 0.85658 0.91322 0.45995 0.0
H3583 H 0.87459 0.9297 0.4507 0.0
C3584 C 0.94443 0.88314 0.32034 0.0
C3585 C 0.9492 0.85608 0.31427 0.0
C3586 C 0.92484 0.89625 0.32022 0.0
C3587 C 0.90973 0.88235 0.31372 0.0
C3588 C 0.91477 0.8558 0.30726 0.0
C3589 C 0.93432 0.84288 0.30769 0.0
C3590 C 0.9201 0.92417 0.32737 0.0
C3591 C 0.89937 0.84052 0.30006 0.0
C3592 C 0.85408 0.89097 0.32091 0.0
C3593 C 0.84765 0.91609 0.31422 0.0
C3594 C 0.87422 0.88042 0.321 0.0
C3595 C 0.88844 0.89449 0.31401 0.0
C3596 C 0.88209 0.9194 0.3071 0.0
C3597 C 0.86197 0.93013 0.30738 0.0
C3598 C 0.88028 0.85406 0.32861 0.0
C3599 C 0.89658 0.93466 0.29935 0.0
H3600 H 0.9558 0.89322 0.32553 0.0
H3601 H 0.93794 0.82205 0.30294 0.0
H3602 H 0.91352 0.94414 0.32268 0.0
H3603 H 0.9087 0.91684 0.33335 0.0
H3604 H 0.93363 0.9331 0.33161 0.0
H3605 H 0.90603 0.82158 0.29498 0.0
H3606 H 0.88718 0.82967 0.3049 0.0
H3607 H 0.89236 0.85892 0.29486 0.0
H3608 H 0.84334 0.87916 0.32607 0.0
H3609 H 0.85758 0.9499 0.30229 0.0
H3610 H 0.89324 0.8619 0.33351 0.0
H3611 H 0.88517 0.83268 0.32408 0.0
H3612 H 0.86779 0.84693 0.33399 0.0
H3613 H 0.90929 0.94572 0.30372 0.0
H3614 H 0.88928 0.95333 0.29436 0.0
H3615 H 0.90304 0.9161 0.29406 0.0
C3616 C 0.17446 0.67755 0.0747 0.0
C3617 C 0.18953 0.66477 0.06808 0.0
C3618 C 0.15456 0.6659 0.07453 0.0
C3619 C 0.14941 0.64023 0.06773 0.0
C3620 C 0.16453 0.62679 0.06115 0.0
C3621 C 0.18429 0.63927 0.06135 0.0
C3622 C 0.13903 0.68111 0.08167 0.0
C3623 C 0.15984 0.59908 0.05389 0.0
C3624 C 0.10351 0.58984 0.07526 0.0
C3625 C 0.0887 0.60058 0.06807 0.0
C3626 C 0.1232 0.60226 0.07515 0.0
C3627 C 0.1284 0.62673 0.06782 0.0
C3628 C 0.11344 0.63845 0.06075 0.0
C3629 C 0.09386 0.62519 0.06092 0.0
C3630 C 0.13854 0.58887 0.08283 0.0
C3631 C 0.11818 0.66487 0.05293 0.0
H3632 H 0.17821 0.69665 0.08015 0.0
H3633 H 0.19556 0.62928 0.0561 0.0
H3634 H 0.12597 0.68935 0.0769 0.0
H3635 H 0.13334 0.6632 0.08747 0.0
H3636 H 0.14516 0.70184 0.08613 0.0
H3637 H 0.1732 0.5912 0.04928 0.0
H3638 H 0.1542 0.57849 0.05863 0.0
H3639 H 0.14775 0.60592 0.04824 0.0
H3640 H 0.09974 0.5715 0.08104 0.0
H3641 H 0.08274 0.63366 0.05528 0.0
H3642 H 0.14416 0.60814 0.0881 0.0
H3643 H 0.15167 0.57939 0.0784 0.0
H3644 H 0.13228 0.56935 0.08787 0.0
H3645 H 0.12386 0.68621 0.05721 0.0
H3646 H 0.10484 0.67197 0.04815 0.0
H3647 H 0.13026 0.657 0.04744 0.0
C3648 C 0.10519 0.67505 0.17873 0.0
C3649 C 0.0902 0.66341 0.18566 0.0
C3650 C 0.12495 0.66274 0.17886 0.0
C3651 C 0.13009 0.63769 0.18599 0.0
C3652 C 0.11503 0.62542 0.19289 0.0
C3653 C 0.09539 0.63842 0.19267 0.0
C3654 C 0.14038 0.67663 0.17133 0.0
C3655 C 0.1197 0.59855 0.20056 0.0
C3656 C 0.1759 0.58588 0.17923 0.0
C3657 C 0.19091 0.59798 0.18603 0.0
C3658 C 0.15618 0.59833 0.17921 0.0
C3659 C 0.15109 0.62398 0.18605 0.0
C3660 C 0.16619 0.63674 0.1928 0.0
C3661 C 0.18581 0.62361 0.19273 0.0
C3662 C 0.14071 0.58389 0.17186 0.0
C3663 C 0.16159 0.66424 0.20016 0.0
H3664 H 0.10146 0.69379 0.17309 0.0
H3665 H 0.08418 0.62931 0.19815 0.0
H3666 H 0.15349 0.68568 0.17587 0.0
H3667 H 0.146 0.65773 0.16592 0.0
H3668 H 0.13419 0.69656 0.16645 0.0
H3669 H 0.10637 0.59142 0.20535 0.0
H3670 H 0.12517 0.57733 0.19614 0.0
H3671 H 0.1319 0.60593 0.20604 0.0
H3672 H 0.17958 0.56664 0.17382 0.0
H3673 H 0.19705 0.63309 0.1981 0.0
H3674 H 0.13504 0.60239 0.16626 0.0
H3675 H 0.12763 0.57514 0.17652 0.0
H3676 H 0.14688 0.56363 0.16718 0.0
H3677 H 0.15606 0.68507 0.1955 0.0
H3678 H 0.17496 0.67178 0.20482 0.0
H3679 H 0.14944 0.65731 0.20576 0.0
C3680 C 0.84778 0.37499 0.93038 0.0
C3681 C 0.84237 0.35161 0.9379 0.0
C3682 C 0.86748 0.38767 0.93005 0.0
C3683 C 0.88211 0.37713 0.93751 0.0
C3684 C 0.87653 0.35413 0.94528 0.0
C3685 C 0.85686 0.34159 0.94534 0.0
C3686 C 0.87277 0.41187 0.92156 0.0
C3687 C 0.8914 0.34253 0.95351 0.0
C3688 C 0.93837 0.38641 0.93144 0.0
C3689 C 0.9433 0.41436 0.93704 0.0
C3690 C 0.91854 0.37427 0.93142 0.0
C3691 C 0.90322 0.39012 0.93725 0.0
C3692 C 0.90821 0.41808 0.94303 0.0
C3693 C 0.92807 0.4299 0.9428 0.0
C3694 C 0.91393 0.3446 0.92506 0.0
C3695 C 0.89256 0.43552 0.9495 0.0
H3696 H 0.83679 0.3826 0.92453 0.0
H3697 H 0.85278 0.32372 0.95123 0.0
H3698 H 0.87825 0.43428 0.92527 0.0
H3699 H 0.88515 0.40248 0.91654 0.0
H3700 H 0.85974 0.4177 0.91637 0.0
H3701 H 0.88459 0.32522 0.95919 0.0
H3702 H 0.90435 0.33081 0.94954 0.0
H3703 H 0.89743 0.36313 0.95805 0.0
H3704 H 0.94994 0.37444 0.92687 0.0
H3705 H 0.93173 0.45131 0.94725 0.0
H3706 H 0.90193 0.34985 0.91916 0.0
H3707 H 0.90817 0.32545 0.93038 0.0
H3708 H 0.92735 0.3354 0.92078 0.0
H3709 H 0.88002 0.4434 0.9443 0.0
H3710 H 0.89883 0.45683 0.95359 0.0
H3711 H 0.8861 0.41913 0.95557 0.0
C3712 C 0.93644 0.37251 0.81088 0.0
C3713 C 0.9416 0.34744 0.81786 0.0
C3714 C 0.91681 0.3856 0.81072 0.0
C3715 C 0.90174 0.37325 0.81761 0.0
C3716 C 0.90689 0.34818 0.82472 0.0
C3717 C 0.92665 0.33596 0.82485 0.0
C3718 C 0.91215 0.41269 0.80313 0.0
C3719 C 0.89146 0.3341 0.83221 0.0
C3720 C 0.85613 0.42448 0.825 0.0
C3721 C 0.84097 0.41301 0.81817 0.0
C3722 C 0.87587 0.4122 0.82475 0.0
C3723 C 0.88079 0.3871 0.81768 0.0
C3724 C 0.86551 0.37473 0.81095 0.0
C3725 C 0.8459 0.38787 0.81123 0.0
C3726 C 0.89153 0.42629 0.83208 0.0
C3727 C 0.86993 0.3476 0.80341 0.0
H3728 H 0.94764 0.38158 0.80539 0.0
H3729 H 0.93036 0.31728 0.83051 0.0
H3730 H 0.89994 0.40548 0.79763 0.0
H3731 H 0.90668 0.43379 0.80763 0.0
H3732 H 0.92548 0.41994 0.79837 0.0
H3733 H 0.89759 0.31383 0.83696 0.0
H3734 H 0.88601 0.35278 0.83776 0.0
H3735 H 0.87824 0.32547 0.82766 0.0
H3736 H 0.8526 0.44321 0.83063 0.0
H3737 H 0.83453 0.37881 0.80586 0.0
H3738 H 0.9046 0.43492 0.82739 0.0
H3739 H 0.89715 0.40762 0.83762 0.0
H3740 H 0.88555 0.44655 0.83682 0.0
H3741 H 0.88195 0.35478 0.79777 0.0
H3742 H 0.85644 0.34032 0.7988 0.0
H3743 H 0.87555 0.32653 0.80792 0.0
loop_
_geom_bond_atom_site_label_1
_geom_bond_atom_site_label_2
_geom_bond_distance
_geom_bond_site_symmetry_2
_ccdc_geom_bond_type
C0 C1 1.443 . S
C0 N4 1.376 . S
C0 C38 1.389 . S
C1 C0 1.443 . S
C1 C2 1.340 . S
C1 H41 0.951 . S
C2 C1 1.340 . S
C2 C3 1.439 . S
C2 H42 0.950 . S
C3 C2 1.439 . S
C3 N4 1.374 . S
C3 C37 1.395 . S
N4 C0 1.376 . S
N4 C3 1.374 . S
N4 Co5 2.008 . S
Co5 N4 2.008 . S
Co5 N6 1.995 . S
Co5 N11 2.008 1_545 S
Co5 N16 1.982 1_545 S
Co5 N21 2.282 1_545 S
Co5 N27 2.282 . S
N6 Co5 1.995 . S
N6 C7 1.376 . S
N6 C10 1.383 . S
C7 N6 1.376 . S
C7 C8 1.446 . S
C7 C37 1.391 . S
C8 C7 1.446 . S
C8 C9 1.339 . S
C8 H43 0.949 . S
C9 C8 1.339 . S
C9 C10 1.439 . S
C9 H44 0.950 . S
C10 N6 1.383 . S
C10 C9 1.439 . S
C10 C39 1.392 1_545 S
N11 Co5 2.008 1_565 S
N11 C12 1.376 . S
N11 C15 1.374 . S
C12 N11 1.376 . S
C12 C13 1.443 . S
C12 C39 1.389 . S
C13 C12 1.443 . S
C13 C14 1.340 . S
C13 H45 0.951 . S
C14 C13 1.340 . S
C14 C15 1.439 . S
C14 H46 0.950 . S
C15 N11 1.374 . S
C15 C14 1.439 . S
C15 C40 1.395 . S
N16 Co5 1.982 1_565 S
N16 C17 1.406 . S
N16 C20 1.368 1_565 S
C17 N16 1.406 . S
C17 C18 1.446 . S
C17 C40 1.391 . S
C18 C17 1.446 . S
C18 C19 1.339 . S
C18 H47 0.949 . S
C19 C18 1.339 . S
C19 C20 1.439 1_565 S
C19 H48 0.952 . S
C20 N16 1.368 1_545 S
C20 C19 1.439 1_545 S
C20 C38 1.392 . S
N21 Co5 2.282 1_565 S
N21 C24 1.332 . S
N21 C26 1.332 1_565 S
C22 C23 1.386 . S
C22 C25 1.388 . S
C23 C22 1.386 . S
C23 C24 1.382 . S
C23 H49 0.950 . S
C24 N21 1.332 . S
C24 C23 1.382 . S
C24 H35 0.952 . S
C25 C22 1.388 . S
C25 C26 1.382 1_565 S
C25 H50 0.950 . S
C26 N21 1.332 1_545 S
C26 C25 1.382 1_545 S
C26 H36 0.948 . S
N27 Co5 2.282 . S
N27 C31 1.332 . S
N27 C32 1.332 . S
C28 C29 1.388 . S
C28 C32 1.382 . S
C28 H51 0.950 . S
C29 C28 1.388 . S
C29 C30 1.386 . S
C30 C29 1.386 . S
C30 C31 1.382 . S
C30 H52 0.950 . S
C31 N27 1.332 . S
C31 C30 1.382 . S
C31 H33 0.952 . S
C32 N27 1.332 . S
C32 C28 1.382 . S
C32 H34 0.948 . S
H33 C31 0.952 . S
H34 C32 0.948 . S
H35 C24 0.952 . S
H36 C26 0.948 . S
C37 C3 1.395 . S
C37 C7 1.391 . S
C38 C0 1.389 . S
C38 C20 1.392 . S
C39 C10 1.392 1_565 S
C39 C12 1.389 . S
C40 C15 1.395 . S
C40 C17 1.391 . S
H41 C1 0.951 . S
H42 C2 0.950 . S
H43 C8 0.949 . S
H44 C9 0.950 . S
H45 C13 0.951 . S
H46 C14 0.950 . S
H47 C18 0.949 . S
H48 C19 0.952 . S
H49 C23 0.950 . S
H50 C25 0.950 . S
H51 C28 0.950 . S
H52 C30 0.950 . S
C53 C54 1.443 . S
C53 N57 1.376 . S
C53 C91 1.389 . S
C54 C53 1.443 . S
C54 C55 1.340 . S
C54 H94 0.951 . S
C55 C54 1.340 . S
C55 C56 1.439 . S
C55 H95 0.950 . S
C56 C55 1.439 . S
C56 N57 1.374 . S
C56 C90 1.395 . S
N57 C53 1.376 . S
N57 C56 1.374 . S
N57 Co58 2.008 . S
Co58 N57 2.008 . S
Co58 N59 1.995 . S
Co58 N64 2.008 . S
Co58 N69 1.995 . S
Co58 N74 2.282 . S
Co58 N80 2.282 . S
N59 Co58 1.995 . S
N59 C60 1.376 . S
N59 C63 1.383 . S
C60 N59 1.376 . S
C60 C61 1.446 . S
C60 C90 1.391 . S
C61 C60 1.446 . S
C61 C62 1.339 . S
C61 H96 0.949 . S
C62 C61 1.339 . S
C62 C63 1.439 . S
C62 H97 0.950 . S
C63 N59 1.383 . S
C63 C62 1.439 . S
C63 C92 1.392 . S
N64 Co58 2.008 . S
N64 C65 1.376 . S
N64 C68 1.374 . S
C65 N64 1.376 . S
C65 C66 1.443 . S
C65 C92 1.389 . S
C66 C65 1.443 . S
C66 C67 1.340 . S
C66 H98 0.951 . S
C67 C66 1.340 . S
C67 C68 1.439 . S
C67 H99 0.950 . S
C68 N64 1.374 . S
C68 C67 1.439 . S
C68 C93 1.395 . S
N69 Co58 1.995 . S
N69 C70 1.376 . S
N69 C73 1.383 . S
C70 N69 1.376 . S
C70 C71 1.446 . S
C70 C93 1.391 . S
C71 C70 1.446 . S
C71 C72 1.339 . S
C71 H100 0.949 . S
C72 C71 1.339 . S
C72 C73 1.439 . S
C72 H101 0.950 . S
C73 N69 1.383 . S
C73 C72 1.439 . S
C73 C91 1.392 . S
N74 Co58 2.282 . S
N74 C77 1.332 . S
N74 C79 1.332 . S
C75 C76 1.386 . S
C75 C78 1.388 . S
C76 C75 1.386 . S
C76 C77 1.382 . S
C76 H102 0.950 . S
C77 N74 1.332 . S
C77 C76 1.382 . S
C77 H88 0.952 . S
C78 C75 1.388 . S
C78 C79 1.382 . S
C78 H103 0.950 . S
C79 N74 1.332 . S
C79 C78 1.382 . S
C79 H89 0.948 . S
N80 Co58 2.282 . S
N80 C84 1.332 . S
N80 C85 1.332 . S
C81 C82 1.388 . S
C81 C85 1.382 . S
C81 H104 0.950 . S
C82 C81 1.388 . S
C82 C83 1.386 . S
C83 C82 1.386 . S
C83 C84 1.382 . S
C83 H105 0.950 . S
C84 N80 1.332 . S
C84 C83 1.382 . S
C84 H86 0.952 . S
C85 N80 1.332 . S
C85 C81 1.382 . S
C85 H87 0.948 . S
H86 C84 0.952 . S
H87 C85 0.948 . S
H88 C77 0.952 . S
H89 C79 0.948 . S
C90 C56 1.395 . S
C90 C60 1.391 . S
C91 C53 1.389 . S
C91 C73 1.392 . S
C92 C63 1.392 . S
C92 C65 1.389 . S
C93 C68 1.395 . S
C93 C70 1.391 . S
H94 C54 0.951 . S
H95 C55 0.950 . S
H96 C61 0.949 . S
H97 C62 0.950 . S
H98 C66 0.951 . S
H99 C67 0.950 . S
H100 C71 0.949 . S
H101 C72 0.950 . S
H102 C76 0.950 . S
H103 C78 0.950 . S
H104 C81 0.950 . S
H105 C83 0.950 . S
C106 C107 1.443 . S
C106 N110 1.376 . S
C106 C144 1.389 . S
C107 C106 1.443 . S
C107 C108 1.340 . S
C107 H147 0.951 . S
C108 C107 1.340 . S
C108 C109 1.439 . S
C108 H148 0.950 . S
C109 C108 1.439 . S
C109 N110 1.374 . S
C109 C143 1.395 . S
N110 C106 1.376 . S
N110 C109 1.374 . S
N110 Co111 2.008 . S
Co111 N110 2.008 . S
Co111 N112 1.995 . S
Co111 N117 2.008 . S
Co111 N122 1.995 . S
Co111 N127 2.282 . S
Co111 N133 2.282 . S
N112 Co111 1.995 . S
N112 C113 1.376 . S
N112 C116 1.383 . S
C113 N112 1.376 . S
C113 C114 1.446 . S
C113 C143 1.391 . S
C114 C113 1.446 . S
C114 C115 1.339 . S
C114 H149 0.949 . S
C115 C114 1.339 . S
C115 C116 1.439 . S
C115 H150 0.950 . S
C116 N112 1.383 . S
C116 C115 1.439 . S
C116 C145 1.392 . S
N117 Co111 2.008 . S
N117 C118 1.376 . S
N117 C121 1.374 . S
C118 N117 1.376 . S
C118 C119 1.443 . S
C118 C145 1.389 . S
C119 C118 1.443 . S
C119 C120 1.340 . S
C119 H151 0.951 . S
C120 C119 1.340 . S
C120 C121 1.439 . S
C120 H152 0.950 . S
C121 N117 1.374 . S
C121 C120 1.439 . S
C121 C146 1.395 . S
N122 Co111 1.995 . S
N122 C123 1.376 . S
N122 C126 1.383 . S
C123 N122 1.376 . S
C123 C124 1.446 . S
C123 C146 1.391 . S
C124 C123 1.446 . S
C124 C125 1.339 . S
C124 H153 0.949 . S
C125 C124 1.339 . S
C125 C126 1.439 . S
C125 H154 0.950 . S
C126 N122 1.383 . S
C126 C125 1.439 . S
C126 C144 1.392 . S
N127 Co111 2.282 . S
N127 C130 1.332 . S
N127 C132 1.332 . S
C128 C129 1.386 . S
C128 C131 1.388 . S
C129 C128 1.386 . S
C129 C130 1.382 . S
C129 H155 0.950 . S
C130 N127 1.332 . S
C130 C129 1.382 . S
C130 H141 0.952 . S
C131 C128 1.388 . S
C131 C132 1.382 . S
C131 H156 0.950 . S
C132 N127 1.332 . S
C132 C131 1.382 . S
C132 H142 0.948 . S
N133 Co111 2.282 . S
N133 C137 1.332 . S
N133 C138 1.332 . S
C134 C135 1.388 . S
C134 C138 1.382 . S
C134 H157 0.950 . S
C135 C134 1.388 . S
C135 C136 1.386 . S
C136 C135 1.386 . S
C136 C137 1.382 . S
C136 H158 0.950 . S
C137 N133 1.332 . S
C137 C136 1.382 . S
C137 H139 0.952 . S
C138 N133 1.332 . S
C138 C134 1.382 . S
C138 H140 0.948 . S
H139 C137 0.952 . S
H140 C138 0.948 . S
H141 C130 0.952 . S
H142 C132 0.948 . S
C143 C109 1.395 . S
C143 C113 1.391 . S
C144 C106 1.389 . S
C144 C126 1.392 . S
C145 C116 1.392 . S
C145 C118 1.389 . S
C146 C121 1.395 . S
C146 C123 1.391 . S
H147 C107 0.951 . S
H148 C108 0.950 . S
H149 C114 0.949 . S
H150 C115 0.950 . S
H151 C119 0.951 . S
H152 C120 0.950 . S
H153 C124 0.949 . S
H154 C125 0.950 . S
H155 C129 0.950 . S
H156 C131 0.950 . S
H157 C134 0.950 . S
H158 C136 0.950 . S
C159 C160 1.443 . S
C159 N163 1.376 . S
C159 C197 1.389 . S
C160 C159 1.443 . S
C160 C161 1.340 . S
C160 H200 0.951 . S
C161 C160 1.340 . S
C161 C162 1.439 . S
C161 H201 0.950 . S
C162 C161 1.439 . S
C162 N163 1.374 . S
C162 C196 1.395 . S
N163 C159 1.376 . S
N163 C162 1.374 . S
N163 Co164 2.008 . S
Co164 N163 2.008 . S
Co164 N165 1.995 . S
Co164 N170 2.008 1_545 S
Co164 N175 1.986 1_545 S
Co164 N180 2.282 1_545 S
Co164 N186 2.282 . S
N165 Co164 1.995 . S
N165 C166 1.376 . S
N165 C169 1.383 . S
C166 N165 1.376 . S
C166 C167 1.446 . S
C166 C196 1.391 . S
C167 C166 1.446 . S
C167 C168 1.339 . S
C167 H202 0.949 . S
C168 C167 1.339 . S
C168 C169 1.439 . S
C168 H203 0.950 . S
C169 N165 1.383 . S
C169 C168 1.439 . S
C169 C198 1.392 1_545 S
N170 Co164 2.008 1_565 S
N170 C171 1.376 . S
N170 C174 1.374 . S
C171 N170 1.376 . S
C171 C172 1.443 . S
C171 C198 1.389 . S
C172 C171 1.443 . S
C172 C173 1.340 . S
C172 H204 0.951 . S
C173 C172 1.340 . S
C173 C174 1.439 . S
C173 H205 0.950 . S
C174 N170 1.374 . S
C174 C173 1.439 . S
C174 C199 1.395 . S
N175 Co164 1.986 1_565 S
N175 C176 1.396 . S
N175 C179 1.373 1_565 S
C176 N175 1.396 . S
C176 C177 1.446 . S
C176 C199 1.391 . S
C177 C176 1.446 . S
C177 C178 1.339 . S
C177 H206 0.949 . S
C178 C177 1.339 . S
C178 C179 1.439 1_565 S
C178 H207 0.951 . S
C179 N175 1.373 1_545 S
C179 C178 1.439 1_545 S
C179 C197 1.392 . S
N180 Co164 2.282 1_565 S
N180 C183 1.332 . S
N180 C185 1.332 1_565 S
C181 C182 1.386 . S
C181 C184 1.388 . S
C182 C181 1.386 . S
C182 C183 1.382 . S
C182 H208 0.950 . S
C183 N180 1.332 . S
C183 C182 1.382 . S
C183 H194 0.952 . S
C184 C181 1.388 . S
C184 C185 1.382 1_565 S
C184 H209 0.950 . S
C185 N180 1.332 1_545 S
C185 C184 1.382 1_545 S
C185 H195 0.948 . S
N186 Co164 2.282 . S
N186 C190 1.332 . S
N186 C191 1.332 . S
C187 C188 1.388 . S
C187 C191 1.382 . S
C187 H210 0.950 . S
C188 C187 1.388 . S
C188 C189 1.386 . S
C189 C188 1.386 . S
C189 C190 1.382 . S
C189 H211 0.950 . S
C190 N186 1.332 . S
C190 C189 1.382 . S
C190 H192 0.952 . S
C191 N186 1.332 . S
C191 C187 1.382 . S
C191 H193 0.948 . S
H192 C190 0.952 . S
H193 C191 0.948 . S
H194 C183 0.952 . S
H195 C185 0.948 . S
C196 C162 1.395 . S
C196 C166 1.391 . S
C197 C159 1.389 . S
C197 C179 1.392 . S
C198 C169 1.392 1_565 S
C198 C171 1.389 . S
C199 C174 1.395 . S
C199 C176 1.391 . S
H200 C160 0.951 . S
H201 C161 0.950 . S
H202 C167 0.949 . S
H203 C168 0.950 . S
H204 C172 0.951 . S
H205 C173 0.950 . S
H206 C177 0.949 . S
H207 C178 0.951 . S
H208 C182 0.950 . S
H209 C184 0.950 . S
H210 C187 0.950 . S
H211 C189 0.950 . S
C212 C213 1.438 1_565 S
C212 N216 1.376 . S
C212 C250 1.389 . S
C213 C212 1.438 1_545 S
C213 C214 1.348 . S
C213 H253 0.949 1_545 S
C214 C213 1.348 . S
C214 C215 1.439 . S
C214 H254 0.950 . S
C215 C214 1.439 . S
C215 N216 1.374 1_545 S
C215 C249 1.395 . S
N216 C212 1.376 . S
N216 C215 1.374 1_565 S
N216 Co217 2.008 . S
Co217 N216 2.008 . S
Co217 N218 1.995 1_565 S
Co217 N223 2.008 . S
Co217 N228 1.995 . S
Co217 N233 2.282 1_565 S
Co217 N239 2.282 . S
N218 Co217 1.995 1_545 S
N218 C219 1.376 . S
N218 C222 1.383 . S
C219 N218 1.376 . S
C219 C220 1.446 . S
C219 C249 1.391 . S
C220 C219 1.446 . S
C220 C221 1.339 . S
C220 H255 0.949 . S
C221 C220 1.339 . S
C221 C222 1.439 . S
C221 H256 0.950 . S
C222 N218 1.383 . S
C222 C221 1.439 . S
C222 C251 1.392 . S
N223 Co217 2.008 . S
N223 C224 1.376 . S
N223 C227 1.374 . S
C224 N223 1.376 . S
C224 C225 1.443 . S
C224 C251 1.389 1_565 S
C225 C224 1.443 . S
C225 C226 1.340 . S
C225 H257 0.951 . S
C226 C225 1.340 . S
C226 C227 1.439 . S
C226 H258 0.950 . S
C227 N223 1.374 . S
C227 C226 1.439 . S
C227 C252 1.395 . S
N228 Co217 1.995 . S
N228 C229 1.376 . S
N228 C232 1.383 . S
C229 N228 1.376 . S
C229 C230 1.446 . S
C229 C252 1.391 . S
C230 C229 1.446 . S
C230 C231 1.339 . S
C230 H259 0.949 . S
C231 C230 1.339 . S
C231 C232 1.439 . S
C231 H260 0.950 . S
C232 N228 1.383 . S
C232 C231 1.439 . S
C232 C250 1.392 . S
N233 Co217 2.282 1_545 S
N233 C236 1.332 1_545 S
N233 C238 1.332 . S
C234 C235 1.386 . S
C234 C237 1.388 . S
C235 C234 1.386 . S
C235 C236 1.382 1_545 S
C235 H261 0.950 . S
C236 N233 1.332 1_565 S
C236 C235 1.382 1_565 S
C236 H247 0.952 . S
C237 C234 1.388 . S
C237 C238 1.382 . S
C237 H262 0.950 . S
C238 N233 1.332 . S
C238 C237 1.382 . S
C238 H248 0.948 . S
N239 Co217 2.282 . S
N239 C243 1.332 . S
N239 C244 1.332 . S
C240 C241 1.388 . S
C240 C244 1.382 . S
C240 H263 0.950 . S
C241 C240 1.388 . S
C241 C242 1.386 . S
C242 C241 1.386 . S
C242 C243 1.382 . S
C242 H264 0.950 . S
C243 N239 1.332 . S
C243 C242 1.382 . S
C243 H245 0.952 . S
C244 N239 1.332 . S
C244 C240 1.382 . S
C244 H246 0.948 . S
H245 C243 0.952 . S
H246 C244 0.948 . S
H247 C236 0.952 . S
H248 C238 0.948 . S
C249 C215 1.395 . S
C249 C219 1.391 . S
C250 C212 1.389 . S
C250 C232 1.392 . S
C251 C222 1.392 . S
C251 C224 1.389 1_545 S
C252 C227 1.395 . S
C252 C229 1.391 . S
H253 C213 0.949 1_565 S
H254 C214 0.950 . S
H255 C220 0.949 . S
H256 C221 0.950 . S
H257 C225 0.951 . S
H258 C226 0.950 . S
H259 C230 0.949 . S
H260 C231 0.950 . S
H261 C235 0.950 . S
H262 C237 0.950 . S
H263 C240 0.950 . S
H264 C242 0.950 . S
C265 C266 1.443 . S
C265 N269 1.376 . S
C265 C303 1.389 . S
C266 C265 1.443 . S
C266 C267 1.340 . S
C266 H306 0.951 . S
C267 C266 1.340 . S
C267 C268 1.439 . S
C267 H307 0.950 . S
C268 C267 1.439 . S
C268 N269 1.374 . S
C268 C302 1.395 . S
N269 C265 1.376 . S
N269 C268 1.374 . S
N269 Co270 2.008 . S
Co270 N269 2.008 . S
Co270 N271 1.995 . S
Co270 N276 2.008 . S
Co270 N281 1.995 . S
Co270 N286 2.282 . S
Co270 N292 2.282 . S
N271 Co270 1.995 . S
N271 C272 1.376 . S
N271 C275 1.383 . S
C272 N271 1.376 . S
C272 C273 1.446 . S
C272 C302 1.391 . S
C273 C272 1.446 . S
C273 C274 1.339 . S
C273 H308 0.949 . S
C274 C273 1.339 . S
C274 C275 1.439 . S
C274 H309 0.950 . S
C275 N271 1.383 . S
C275 C274 1.439 . S
C275 C304 1.392 . S
N276 Co270 2.008 . S
N276 C277 1.376 . S
N276 C280 1.374 . S
C277 N276 1.376 . S
C277 C278 1.443 . S
C277 C304 1.389 . S
C278 C277 1.443 . S
C278 C279 1.340 . S
C278 H310 0.951 . S
C279 C278 1.340 . S
C279 C280 1.439 . S
C279 H311 0.950 . S
C280 N276 1.374 . S
C280 C279 1.439 . S
C280 C305 1.395 . S
N281 Co270 1.995 . S
N281 C282 1.376 . S
N281 C285 1.383 . S
C282 N281 1.376 . S
C282 C283 1.446 . S
C282 C305 1.391 . S
C283 C282 1.446 . S
C283 C284 1.339 . S
C283 H312 0.949 . S
C284 C283 1.339 . S
C284 C285 1.439 . S
C284 H313 0.950 . S
C285 N281 1.383 . S
C285 C284 1.439 . S
C285 C303 1.392 . S
N286 Co270 2.282 . S
N286 C289 1.332 . S
N286 C291 1.332 . S
C287 C288 1.386 . S
C287 C290 1.388 . S
C288 C287 1.386 . S
C288 C289 1.382 . S
C288 H314 0.950 . S
C289 N286 1.332 . S
C289 C288 1.382 . S
C289 H300 0.952 . S
C290 C287 1.388 . S
C290 C291 1.382 . S
C290 H315 0.950 . S
C291 N286 1.332 . S
C291 C290 1.382 . S
C291 H301 0.948 . S
N292 Co270 2.282 . S
N292 C296 1.332 . S
N292 C297 1.332 . S
C293 C294 1.388 . S
C293 C297 1.382 . S
C293 H316 0.950 . S
C294 C293 1.388 . S
C294 C295 1.386 . S
C295 C294 1.386 . S
C295 C296 1.382 . S
C295 H317 0.950 . S
C296 N292 1.332 . S
C296 C295 1.382 . S
C296 H298 0.952 . S
C297 N292 1.332 . S
C297 C293 1.382 . S
C297 H299 0.948 . S
H298 C296 0.952 . S
H299 C297 0.948 . S
H300 C289 0.952 . S
H301 C291 0.948 . S
C302 C268 1.395 . S
C302 C272 1.391 . S
C303 C265 1.389 . S
C303 C285 1.392 . S
C304 C275 1.392 . S
C304 C277 1.389 . S
C305 C280 1.395 . S
C305 C282 1.391 . S
H306 C266 0.951 . S
H307 C267 0.950 . S
H308 C273 0.949 . S
H309 C274 0.950 . S
H310 C278 0.951 . S
H311 C279 0.950 . S
H312 C283 0.949 . S
H313 C284 0.950 . S
H314 C288 0.950 . S
H315 C290 0.950 . S
H316 C293 0.950 . S
H317 C295 0.950 . S
C318 C319 1.443 . S
C318 N322 1.376 . S
C318 C356 1.389 . S
C319 C318 1.443 . S
C319 C320 1.340 . S
C319 H359 0.951 . S
C320 C319 1.340 . S
C320 C321 1.439 . S
C320 H360 0.950 . S
C321 C320 1.439 . S
C321 N322 1.374 . S
C321 C355 1.395 . S
N322 C318 1.376 . S
N322 C321 1.374 . S
N322 Co323 2.008 . S
Co323 N322 2.008 . S
Co323 N324 1.995 . S
Co323 N329 2.008 . S
Co323 N334 1.995 . S
Co323 N339 2.282 . S
Co323 N345 2.282 . S
N324 Co323 1.995 . S
N324 C325 1.376 . S
N324 C328 1.383 . S
C325 N324 1.376 . S
C325 C326 1.446 . S
C325 C355 1.391 . S
C326 C325 1.446 . S
C326 C327 1.339 . S
C326 H361 0.949 . S
C327 C326 1.339 . S
C327 C328 1.439 . S
C327 H362 0.950 . S
C328 N324 1.383 . S
C328 C327 1.439 . S
C328 C357 1.392 . S
N329 Co323 2.008 . S
N329 C330 1.376 . S
N329 C333 1.374 . S
C330 N329 1.376 . S
C330 C331 1.443 . S
C330 C357 1.389 . S
C331 C330 1.443 . S
C331 C332 1.340 . S
C331 H363 0.951 . S
C332 C331 1.340 . S
C332 C333 1.439 . S
C332 H364 0.950 . S
C333 N329 1.374 . S
C333 C332 1.439 . S
C333 C358 1.395 . S
N334 Co323 1.995 . S
N334 C335 1.376 . S
N334 C338 1.383 . S
C335 N334 1.376 . S
C335 C336 1.446 . S
C335 C358 1.391 . S
C336 C335 1.446 . S
C336 C337 1.339 . S
C336 H365 0.949 . S
C337 C336 1.339 . S
C337 C338 1.439 . S
C337 H366 0.950 . S
C338 N334 1.383 . S
C338 C337 1.439 . S
C338 C356 1.392 . S
N339 Co323 2.282 . S
N339 C342 1.332 . S
N339 C344 1.332 . S
C340 C341 1.386 . S
C340 C343 1.388 . S
C341 C340 1.386 . S
C341 C342 1.382 . S
C341 H367 0.950 . S
C342 N339 1.332 . S
C342 C341 1.382 . S
C342 H353 0.952 . S
C343 C340 1.388 . S
C343 C344 1.382 . S
C343 H368 0.950 . S
C344 N339 1.332 . S
C344 C343 1.382 . S
C344 H354 0.948 . S
N345 Co323 2.282 . S
N345 C349 1.332 . S
N345 C350 1.332 . S
C346 C347 1.388 . S
C346 C350 1.382 . S
C346 H369 0.950 . S
C347 C346 1.388 . S
C347 C348 1.386 . S
C348 C347 1.386 . S
C348 C349 1.382 . S
C348 H370 0.950 . S
C349 N345 1.332 . S
C349 C348 1.382 . S
C349 H351 0.952 . S
C350 N345 1.332 . S
C350 C346 1.382 . S
C350 H352 0.948 . S
H351 C349 0.952 . S
H352 C350 0.948 . S
H353 C342 0.952 . S
H354 C344 0.948 . S
C355 C321 1.395 . S
C355 C325 1.391 . S
C356 C318 1.389 . S
C356 C338 1.392 . S
C357 C328 1.392 . S
C357 C330 1.389 . S
C358 C333 1.395 . S
C358 C335 1.391 . S
H359 C319 0.951 . S
H360 C320 0.950 . S
H361 C326 0.949 . S
H362 C327 0.950 . S
H363 C331 0.951 . S
H364 C332 0.950 . S
H365 C336 0.949 . S
H366 C337 0.950 . S
H367 C341 0.950 . S
H368 C343 0.950 . S
H369 C346 0.950 . S
H370 C348 0.950 . S
C371 C372 1.444 1_565 S
C371 N375 1.376 . S
C371 C409 1.389 . S
C372 C371 1.444 1_545 S
C372 C373 1.339 . S
C372 H412 0.952 1_545 S
C373 C372 1.339 . S
C373 C374 1.439 . S
C373 H413 0.950 . S
C374 C373 1.439 . S
C374 N375 1.374 1_545 S
C374 C408 1.395 . S
N375 C371 1.376 . S
N375 C374 1.374 1_565 S
N375 Co376 2.008 . S
Co376 N375 2.008 . S
Co376 N377 1.995 1_565 S
Co376 N382 2.008 . S
Co376 N387 1.995 . S
Co376 N392 2.282 1_565 S
Co376 N398 2.282 . S
N377 Co376 1.995 1_545 S
N377 C378 1.376 . S
N377 C381 1.383 . S
C378 N377 1.376 . S
C378 C379 1.446 . S
C378 C408 1.391 . S
C379 C378 1.446 . S
C379 C380 1.339 . S
C379 H414 0.949 . S
C380 C379 1.339 . S
C380 C381 1.439 . S
C380 H415 0.950 . S
C381 N377 1.383 . S
C381 C380 1.439 . S
C381 C410 1.392 . S
N382 Co376 2.008 . S
N382 C383 1.376 . S
N382 C386 1.374 . S
C383 N382 1.376 . S
C383 C384 1.443 . S
C383 C410 1.389 1_565 S
C384 C383 1.443 . S
C384 C385 1.340 . S
C384 H416 0.951 . S
C385 C384 1.340 . S
C385 C386 1.439 . S
C385 H417 0.950 . S
C386 N382 1.374 . S
C386 C385 1.439 . S
C386 C411 1.395 . S
N387 Co376 1.995 . S
N387 C388 1.376 . S
N387 C391 1.383 . S
C388 N387 1.376 . S
C388 C389 1.446 . S
C388 C411 1.391 . S
C389 C388 1.446 . S
C389 C390 1.339 . S
C389 H418 0.949 . S
C390 C389 1.339 . S
C390 C391 1.439 . S
C390 H419 0.950 . S
C391 N387 1.383 . S
C391 C390 1.439 . S
C391 C409 1.392 . S
N392 Co376 2.282 1_545 S
N392 C395 1.332 1_545 S
N392 C397 1.332 . S
C393 C394 1.386 . S
C393 C396 1.388 . S
C394 C393 1.386 . S
C394 C395 1.382 1_545 S
C394 H420 0.950 . S
C395 N392 1.332 1_565 S
C395 C394 1.382 1_565 S
C395 H406 0.952 . S
C396 C393 1.388 . S
C396 C397 1.382 . S
C396 H421 0.950 . S
C397 N392 1.332 . S
C397 C396 1.382 . S
C397 H407 0.948 . S
N398 Co376 2.282 . S
N398 C402 1.332 . S
N398 C403 1.332 . S
C399 C400 1.388 . S
C399 C403 1.382 . S
C399 H422 0.950 . S
C400 C399 1.388 . S
C400 C401 1.386 . S
C401 C400 1.386 . S
C401 C402 1.382 . S
C401 H423 0.950 . S
C402 N398 1.332 . S
C402 C401 1.382 . S
C402 H404 0.952 . S
C403 N398 1.332 . S
C403 C399 1.382 . S
C403 H405 0.948 . S
H404 C402 0.952 . S
H405 C403 0.948 . S
H406 C395 0.952 . S
H407 C397 0.948 . S
C408 C374 1.395 . S
C408 C378 1.391 . S
C409 C371 1.389 . S
C409 C391 1.392 . S
C410 C381 1.392 . S
C410 C383 1.389 1_545 S
C411 C386 1.395 . S
C411 C388 1.391 . S
H412 C372 0.952 1_565 S
H413 C373 0.950 . S
H414 C379 0.949 . S
H415 C380 0.950 . S
H416 C384 0.951 . S
H417 C385 0.950 . S
H418 C389 0.949 . S
H419 C390 0.950 . S
H420 C394 0.950 . S
H421 C396 0.950 . S
H422 C399 0.950 . S
H423 C401 0.950 . S
C424 C425 1.443 . S
C424 N428 1.376 . S
C424 C462 1.389 . S
C425 C424 1.443 . S
C425 C426 1.340 . S
C425 H465 0.951 . S
C426 C425 1.340 . S
C426 C427 1.439 . S
C426 H466 0.950 . S
C427 C426 1.439 . S
C427 N428 1.374 . S
C427 C461 1.395 . S
N428 C424 1.376 . S
N428 C427 1.374 . S
N428 Co429 2.008 . S
Co429 N428 2.008 . S
Co429 N430 1.995 . S
Co429 N435 2.008 . S
Co429 N440 1.995 . S
Co429 N445 2.282 . S
Co429 N451 2.282 . S
N430 Co429 1.995 . S
N430 C431 1.376 . S
N430 C434 1.383 . S
C431 N430 1.376 . S
C431 C432 1.446 . S
C431 C461 1.391 . S
C432 C431 1.446 . S
C432 C433 1.339 . S
C432 H467 0.949 . S
C433 C432 1.339 . S
C433 C434 1.439 . S
C433 H468 0.950 . S
C434 N430 1.383 . S
C434 C433 1.439 . S
C434 C463 1.392 . S
N435 Co429 2.008 . S
N435 C436 1.376 . S
N435 C439 1.374 . S
C436 N435 1.376 . S
C436 C437 1.443 . S
C436 C463 1.389 . S
C437 C436 1.443 . S
C437 C438 1.340 . S
C437 H469 0.951 . S
C438 C437 1.340 . S
C438 C439 1.439 . S
C438 H470 0.950 . S
C439 N435 1.374 . S
C439 C438 1.439 . S
C439 C464 1.395 . S
N440 Co429 1.995 . S
N440 C441 1.376 . S
N440 C444 1.383 . S
C441 N440 1.376 . S
C441 C442 1.446 . S
C441 C464 1.391 . S
C442 C441 1.446 . S
C442 C443 1.339 . S
C442 H471 0.949 . S
C443 C442 1.339 . S
C443 C444 1.439 . S
C443 H472 0.950 . S
C444 N440 1.383 . S
C444 C443 1.439 . S
C444 C462 1.392 . S
N445 Co429 2.282 . S
N445 C448 1.332 . S
N445 C450 1.332 . S
C446 C447 1.386 . S
C446 C449 1.388 . S
C447 C446 1.386 . S
C447 C448 1.382 . S
C447 H473 0.950 . S
C448 N445 1.332 . S
C448 C447 1.382 . S
C448 H459 0.952 . S
C449 C446 1.388 . S
C449 C450 1.382 . S
C449 H474 0.950 . S
C450 N445 1.332 . S
C450 C449 1.382 . S
C450 H460 0.948 . S
N451 Co429 2.282 . S
N451 C455 1.332 . S
N451 C456 1.332 . S
C452 C453 1.388 . S
C452 C456 1.382 . S
C452 H475 0.950 . S
C453 C452 1.388 . S
C453 C454 1.386 . S
C454 C453 1.386 . S
C454 C455 1.382 . S
C454 H476 0.950 . S
C455 N451 1.332 . S
C455 C454 1.382 . S
C455 H457 0.952 . S
C456 N451 1.332 . S
C456 C452 1.382 . S
C456 H458 0.948 . S
H457 C455 0.952 . S
H458 C456 0.948 . S
H459 C448 0.952 . S
H460 C450 0.948 . S
C461 C427 1.395 . S
C461 C431 1.391 . S
C462 C424 1.389 . S
C462 C444 1.392 . S
C463 C434 1.392 . S
C463 C436 1.389 . S
C464 C439 1.395 . S
C464 C441 1.391 . S
H465 C425 0.951 . S
H466 C426 0.950 . S
H467 C432 0.949 . S
H468 C433 0.950 . S
H469 C437 0.951 . S
H470 C438 0.950 . S
H471 C442 0.949 . S
H472 C443 0.950 . S
H473 C447 0.950 . S
H474 C449 0.950 . S
H475 C452 0.950 . S
H476 C454 0.950 . S
C477 C478 1.443 . S
C477 N481 1.376 . S
C477 C515 1.389 . S
C478 C477 1.443 . S
C478 C479 1.340 . S
C478 H518 0.951 . S
C479 C478 1.340 . S
C479 C480 1.439 . S
C479 H519 0.950 . S
C480 C479 1.439 . S
C480 N481 1.374 . S
C480 C514 1.395 . S
N481 C477 1.376 . S
N481 C480 1.374 . S
N481 Co482 2.008 . S
Co482 N481 2.008 . S
Co482 N483 1.995 . S
Co482 N488 2.008 . S
Co482 N493 1.995 . S
Co482 N498 2.282 . S
Co482 N504 2.282 . S
N483 Co482 1.995 . S
N483 C484 1.376 . S
N483 C487 1.383 . S
C484 N483 1.376 . S
C484 C485 1.446 . S
C484 C514 1.391 . S
C485 C484 1.446 . S
C485 C486 1.339 . S
C485 H520 0.949 . S
C486 C485 1.339 . S
C486 C487 1.439 . S
C486 H521 0.950 . S
C487 N483 1.383 . S
C487 C486 1.439 . S
C487 C516 1.392 . S
N488 Co482 2.008 . S
N488 C489 1.376 . S
N488 C492 1.374 . S
C489 N488 1.376 . S
C489 C490 1.443 . S
C489 C516 1.389 . S
C490 C489 1.443 . S
C490 C491 1.340 . S
C490 H522 0.951 . S
C491 C490 1.340 . S
C491 C492 1.439 . S
C491 H523 0.950 . S
C492 N488 1.374 . S
C492 C491 1.439 . S
C492 C517 1.395 . S
N493 Co482 1.995 . S
N493 C494 1.376 . S
N493 C497 1.383 . S
C494 N493 1.376 . S
C494 C495 1.446 . S
C494 C517 1.391 . S
C495 C494 1.446 . S
C495 C496 1.339 . S
C495 H524 0.949 . S
C496 C495 1.339 . S
C496 C497 1.439 . S
C496 H525 0.950 . S
C497 N493 1.383 . S
C497 C496 1.439 . S
C497 C515 1.392 . S
N498 Co482 2.282 . S
N498 C501 1.332 . S
N498 C503 1.332 . S
C499 C500 1.386 . S
C499 C502 1.388 . S
C500 C499 1.386 . S
C500 C501 1.382 . S
C500 H526 0.950 . S
C501 N498 1.332 . S
C501 C500 1.382 . S
C501 H512 0.952 . S
C502 C499 1.388 . S
C502 C503 1.382 . S
C502 H527 0.950 . S
C503 N498 1.332 . S
C503 C502 1.382 . S
C503 H513 0.948 . S
N504 Co482 2.282 . S
N504 C508 1.332 . S
N504 C509 1.332 . S
C505 C506 1.388 . S
C505 C509 1.382 . S
C505 H528 0.950 . S
C506 C505 1.388 . S
C506 C507 1.386 . S
C507 C506 1.386 . S
C507 C508 1.382 . S
C507 H529 0.950 . S
C508 N504 1.332 . S
C508 C507 1.382 . S
C508 H510 0.952 . S
C509 N504 1.332 . S
C509 C505 1.382 . S
C509 H511 0.948 . S
H510 C508 0.952 . S
H511 C509 0.948 . S
H512 C501 0.952 . S
H513 C503 0.948 . S
C514 C480 1.395 . S
C514 C484 1.391 . S
C515 C477 1.389 . S
C515 C497 1.392 . S
C516 C487 1.392 . S
C516 C489 1.389 . S
C517 C492 1.395 . S
C517 C494 1.391 . S
H518 C478 0.951 . S
H519 C479 0.950 . S
H520 C485 0.949 . S
H521 C486 0.950 . S
H522 C490 0.951 . S
H523 C491 0.950 . S
H524 C495 0.949 . S
H525 C496 0.950 . S
H526 C500 0.950 . S
H527 C502 0.950 . S
H528 C505 0.950 . S
H529 C507 0.950 . S
C530 C531 1.443 . S
C530 N534 1.376 . S
C530 C568 1.389 . S
C531 C530 1.443 . S
C531 C532 1.340 . S
C531 H571 0.951 . S
C532 C531 1.340 . S
C532 C533 1.439 . S
C532 H572 0.950 . S
C533 C532 1.439 . S
C533 N534 1.374 . S
C533 C567 1.395 . S
N534 C530 1.376 . S
N534 C533 1.374 . S
N534 Co535 2.008 . S
Co535 N534 2.008 . S
Co535 N536 1.995 . S
Co535 N541 2.008 . S
Co535 N546 1.995 . S
Co535 N551 2.282 . S
Co535 N557 2.282 . S
N536 Co535 1.995 . S
N536 C537 1.376 . S
N536 C540 1.383 . S
C537 N536 1.376 . S
C537 C538 1.446 . S
C537 C567 1.391 . S
C538 C537 1.446 . S
C538 C539 1.339 . S
C538 H573 0.949 . S
C539 C538 1.339 . S
C539 C540 1.439 . S
C539 H574 0.950 . S
C540 N536 1.383 . S
C540 C539 1.439 . S
C540 C569 1.392 . S
N541 Co535 2.008 . S
N541 C542 1.376 . S
N541 C545 1.374 . S
C542 N541 1.376 . S
C542 C543 1.443 . S
C542 C569 1.389 . S
C543 C542 1.443 . S
C543 C544 1.340 . S
C543 H575 0.951 . S
C544 C543 1.340 . S
C544 C545 1.439 . S
C544 H576 0.950 . S
C545 N541 1.374 . S
C545 C544 1.439 . S
C545 C570 1.395 . S
N546 Co535 1.995 . S
N546 C547 1.376 . S
N546 C550 1.383 . S
C547 N546 1.376 . S
C547 C548 1.446 . S
C547 C570 1.391 . S
C548 C547 1.446 . S
C548 C549 1.339 . S
C548 H577 0.949 . S
C549 C548 1.339 . S
C549 C550 1.439 . S
C549 H578 0.950 . S
C550 N546 1.383 . S
C550 C549 1.439 . S
C550 C568 1.392 . S
N551 Co535 2.282 . S
N551 C554 1.332 . S
N551 C556 1.332 . S
C552 C553 1.386 . S
C552 C555 1.388 . S
C553 C552 1.386 . S
C553 C554 1.382 . S
C553 H579 0.950 . S
C554 N551 1.332 . S
C554 C553 1.382 . S
C554 H565 0.952 . S
C555 C552 1.388 . S
C555 C556 1.382 . S
C555 H580 0.950 . S
C556 N551 1.332 . S
C556 C555 1.382 . S
C556 H566 0.948 . S
N557 Co535 2.282 . S
N557 C561 1.332 . S
N557 C562 1.332 . S
C558 C559 1.388 . S
C558 C562 1.382 . S
C558 H581 0.950 . S
C559 C558 1.388 . S
C559 C560 1.386 . S
C560 C559 1.386 . S
C560 C561 1.382 . S
C560 H582 0.950 . S
C561 N557 1.332 . S
C561 C560 1.382 . S
C561 H563 0.952 . S
C562 N557 1.332 . S
C562 C558 1.382 . S
C562 H564 0.948 . S
H563 C561 0.952 . S
H564 C562 0.948 . S
H565 C554 0.952 . S
H566 C556 0.948 . S
C567 C533 1.395 . S
C567 C537 1.391 . S
C568 C530 1.389 . S
C568 C550 1.392 . S
C569 C540 1.392 . S
C569 C542 1.389 . S
C570 C545 1.395 . S
C570 C547 1.391 . S
H571 C531 0.951 . S
H572 C532 0.950 . S
H573 C538 0.949 . S
H574 C539 0.950 . S
H575 C543 0.951 . S
H576 C544 0.950 . S
H577 C548 0.949 . S
H578 C549 0.950 . S
H579 C553 0.950 . S
H580 C555 0.950 . S
H581 C558 0.950 . S
H582 C560 0.950 . S
C583 C584 1.443 . S
C583 N587 1.376 . S
C583 C621 1.389 . S
C584 C583 1.443 . S
C584 C585 1.340 . S
C584 H624 0.951 . S
C585 C584 1.340 . S
C585 C586 1.439 . S
C585 H625 0.950 . S
C586 C585 1.439 . S
C586 N587 1.374 . S
C586 C620 1.395 . S
N587 C583 1.376 . S
N587 C586 1.374 . S
N587 Co588 2.008 . S
Co588 N587 2.008 . S
Co588 N589 1.995 . S
Co588 N594 2.008 . S
Co588 N599 1.995 . S
Co588 N604 2.282 . S
Co588 N610 2.282 . S
N589 Co588 1.995 . S
N589 C590 1.376 . S
N589 C593 1.383 . S
C590 N589 1.376 . S
C590 C591 1.446 . S
C590 C620 1.391 . S
C591 C590 1.446 . S
C591 C592 1.339 . S
C591 H626 0.949 . S
C592 C591 1.339 . S
C592 C593 1.439 . S
C592 H627 0.950 . S
C593 N589 1.383 . S
C593 C592 1.439 . S
C593 C622 1.392 . S
N594 Co588 2.008 . S
N594 C595 1.376 . S
N594 C598 1.374 . S
C595 N594 1.376 . S
C595 C596 1.443 . S
C595 C622 1.389 . S
C596 C595 1.443 . S
C596 C597 1.340 . S
C596 H628 0.951 . S
C597 C596 1.340 . S
C597 C598 1.439 . S
C597 H629 0.950 . S
C598 N594 1.374 . S
C598 C597 1.439 . S
C598 C623 1.395 . S
N599 Co588 1.995 . S
N599 C600 1.376 . S
N599 C603 1.383 . S
C600 N599 1.376 . S
C600 C601 1.446 . S
C600 C623 1.391 . S
C601 C600 1.446 . S
C601 C602 1.339 . S
C601 H630 0.949 . S
C602 C601 1.339 . S
C602 C603 1.439 . S
C602 H631 0.950 . S
C603 N599 1.383 . S
C603 C602 1.439 . S
C603 C621 1.392 . S
N604 Co588 2.282 . S
N604 C607 1.332 . S
N604 C609 1.332 . S
C605 C606 1.386 . S
C605 C608 1.388 . S
C606 C605 1.386 . S
C606 C607 1.382 . S
C606 H632 0.950 . S
C607 N604 1.332 . S
C607 C606 1.382 . S
C607 H618 0.952 . S
C608 C605 1.388 . S
C608 C609 1.382 . S
C608 H633 0.950 . S
C609 N604 1.332 . S
C609 C608 1.382 . S
C609 H619 0.948 . S
N610 Co588 2.282 . S
N610 C614 1.332 . S
N610 C615 1.332 . S
C611 C612 1.388 . S
C611 C615 1.382 . S
C611 H634 0.950 . S
C612 C611 1.388 . S
C612 C613 1.386 . S
C613 C612 1.386 . S
C613 C614 1.382 . S
C613 H635 0.950 . S
C614 N610 1.332 . S
C614 C613 1.382 . S
C614 H616 0.952 . S
C615 N610 1.332 . S
C615 C611 1.382 . S
C615 H617 0.948 . S
H616 C614 0.952 . S
H617 C615 0.948 . S
H618 C607 0.952 . S
H619 C609 0.948 . S
C620 C586 1.395 . S
C620 C590 1.391 . S
C621 C583 1.389 . S
C621 C603 1.392 . S
C622 C593 1.392 . S
C622 C595 1.389 . S
C623 C598 1.395 . S
C623 C600 1.391 . S
H624 C584 0.951 . S
H625 C585 0.950 . S
H626 C591 0.949 . S
H627 C592 0.950 . S
H628 C596 0.951 . S
H629 C597 0.950 . S
H630 C601 0.949 . S
H631 C602 0.950 . S
H632 C606 0.950 . S
H633 C608 0.950 . S
H634 C611 0.950 . S
H635 C613 0.950 . S
C636 C637 1.443 . S
C636 N640 1.376 . S
C636 C674 1.389 . S
C637 C636 1.443 . S
C637 C638 1.340 . S
C637 H677 0.951 . S
C638 C637 1.340 . S
C638 C639 1.439 . S
C638 H678 0.950 . S
C639 C638 1.439 . S
C639 N640 1.374 . S
C639 C673 1.395 . S
N640 C636 1.376 . S
N640 C639 1.374 . S
N640 Co641 2.008 . S
Co641 N640 2.008 . S
Co641 N642 1.995 . S
Co641 N647 2.008 . S
Co641 N652 1.995 . S
Co641 N657 2.282 . S
Co641 N663 2.282 . S
N642 Co641 1.995 . S
N642 C643 1.376 . S
N642 C646 1.383 . S
C643 N642 1.376 . S
C643 C644 1.446 . S
C643 C673 1.391 . S
C644 C643 1.446 . S
C644 C645 1.339 . S
C644 H679 0.949 . S
C645 C644 1.339 . S
C645 C646 1.439 . S
C645 H680 0.950 . S
C646 N642 1.383 . S
C646 C645 1.439 . S
C646 C675 1.392 . S
N647 Co641 2.008 . S
N647 C648 1.376 . S
N647 C651 1.374 . S
C648 N647 1.376 . S
C648 C649 1.443 . S
C648 C675 1.389 . S
C649 C648 1.443 . S
C649 C650 1.340 . S
C649 H681 0.951 . S
C650 C649 1.340 . S
C650 C651 1.439 . S
C650 H682 0.950 . S
C651 N647 1.374 . S
C651 C650 1.439 . S
C651 C676 1.395 . S
N652 Co641 1.995 . S
N652 C653 1.376 . S
N652 C656 1.383 . S
C653 N652 1.376 . S
C653 C654 1.446 . S
C653 C676 1.391 . S
C654 C653 1.446 . S
C654 C655 1.339 . S
C654 H683 0.949 . S
C655 C654 1.339 . S
C655 C656 1.439 . S
C655 H684 0.950 . S
C656 N652 1.383 . S
C656 C655 1.439 . S
C656 C674 1.392 . S
N657 Co641 2.282 . S
N657 C660 1.332 . S
N657 C662 1.332 . S
C658 C659 1.386 . S
C658 C661 1.388 . S
C659 C658 1.386 . S
C659 C660 1.382 . S
C659 H685 0.950 . S
C660 N657 1.332 . S
C660 C659 1.382 . S
C660 H671 0.952 . S
C661 C658 1.388 . S
C661 C662 1.382 . S
C661 H686 0.950 . S
C662 N657 1.332 . S
C662 C661 1.382 . S
C662 H672 0.948 . S
N663 Co641 2.282 . S
N663 C667 1.332 . S
N663 C668 1.332 . S
C664 C665 1.388 . S
C664 C668 1.382 . S
C664 H687 0.950 . S
C665 C664 1.388 . S
C665 C666 1.386 . S
C666 C665 1.386 . S
C666 C667 1.382 . S
C666 H688 0.950 . S
C667 N663 1.332 . S
C667 C666 1.382 . S
C667 H669 0.952 . S
C668 N663 1.332 . S
C668 C664 1.382 . S
C668 H670 0.948 . S
H669 C667 0.952 . S
H670 C668 0.948 . S
H671 C660 0.952 . S
H672 C662 0.948 . S
C673 C639 1.395 . S
C673 C643 1.391 . S
C674 C636 1.389 . S
C674 C656 1.392 . S
C675 C646 1.392 . S
C675 C648 1.389 . S
C676 C651 1.395 . S
C676 C653 1.391 . S
H677 C637 0.951 . S
H678 C638 0.950 . S
H679 C644 0.949 . S
H680 C645 0.950 . S
H681 C649 0.951 . S
H682 C650 0.950 . S
H683 C654 0.949 . S
H684 C655 0.950 . S
H685 C659 0.950 . S
H686 C661 0.950 . S
H687 C664 0.950 . S
H688 C666 0.950 . S
C689 C690 1.443 . S
C689 N693 1.376 . S
C689 C727 1.389 . S
C690 C689 1.443 . S
C690 C691 1.340 . S
C690 H730 0.951 . S
C691 C690 1.340 . S
C691 C692 1.439 . S
C691 H731 0.950 . S
C692 C691 1.439 . S
C692 N693 1.374 . S
C692 C726 1.395 . S
N693 C689 1.376 . S
N693 C692 1.374 . S
N693 Co694 2.008 . S
Co694 N693 2.008 . S
Co694 N695 1.995 . S
Co694 N700 2.008 . S
Co694 N705 1.995 . S
Co694 N710 2.282 . S
Co694 N716 2.282 . S
N695 Co694 1.995 . S
N695 C696 1.376 . S
N695 C699 1.383 . S
C696 N695 1.376 . S
C696 C697 1.446 . S
C696 C726 1.391 . S
C697 C696 1.446 . S
C697 C698 1.339 . S
C697 H732 0.949 . S
C698 C697 1.339 . S
C698 C699 1.439 . S
C698 H733 0.950 . S
C699 N695 1.383 . S
C699 C698 1.439 . S
C699 C728 1.392 . S
N700 Co694 2.008 . S
N700 C701 1.376 . S
N700 C704 1.374 . S
C701 N700 1.376 . S
C701 C702 1.443 . S
C701 C728 1.389 . S
C702 C701 1.443 . S
C702 C703 1.340 . S
C702 H734 0.951 . S
C703 C702 1.340 . S
C703 C704 1.439 . S
C703 H735 0.950 . S
C704 N700 1.374 . S
C704 C703 1.439 . S
C704 C729 1.395 . S
N705 Co694 1.995 . S
N705 C706 1.376 . S
N705 C709 1.383 . S
C706 N705 1.376 . S
C706 C707 1.446 . S
C706 C729 1.391 . S
C707 C706 1.446 . S
C707 C708 1.339 . S
C707 H736 0.949 . S
C708 C707 1.339 . S
C708 C709 1.439 . S
C708 H737 0.950 . S
C709 N705 1.383 . S
C709 C708 1.439 . S
C709 C727 1.392 . S
N710 Co694 2.282 . S
N710 C713 1.332 . S
N710 C715 1.332 . S
C711 C712 1.386 . S
C711 C714 1.388 . S
C712 C711 1.386 . S
C712 C713 1.382 . S
C712 H738 0.950 . S
C713 N710 1.332 . S
C713 C712 1.382 . S
C713 H724 0.952 . S
C714 C711 1.388 . S
C714 C715 1.382 . S
C714 H739 0.950 . S
C715 N710 1.332 . S
C715 C714 1.382 . S
C715 H725 0.948 . S
N716 Co694 2.282 . S
N716 C720 1.332 . S
N716 C721 1.332 . S
C717 C718 1.388 . S
C717 C721 1.382 . S
C717 H740 0.950 . S
C718 C717 1.388 . S
C718 C719 1.386 . S
C719 C718 1.386 . S
C719 C720 1.382 . S
C719 H741 0.950 . S
C720 N716 1.332 . S
C720 C719 1.382 . S
C720 H722 0.952 . S
C721 N716 1.332 . S
C721 C717 1.382 . S
C721 H723 0.948 . S
H722 C720 0.952 . S
H723 C721 0.948 . S
H724 C713 0.952 . S
H725 C715 0.948 . S
C726 C692 1.395 . S
C726 C696 1.391 . S
C727 C689 1.389 . S
C727 C709 1.392 . S
C728 C699 1.392 . S
C728 C701 1.389 . S
C729 C704 1.395 . S
C729 C706 1.391 . S
H730 C690 0.951 . S
H731 C691 0.950 . S
H732 C697 0.949 . S
H733 C698 0.950 . S
H734 C702 0.951 . S
H735 C703 0.950 . S
H736 C707 0.949 . S
H737 C708 0.950 . S
H738 C712 0.950 . S
H739 C714 0.950 . S
H740 C717 0.950 . S
H741 C719 0.950 . S
C742 C743 1.443 . S
C742 N746 1.376 . S
C742 C780 1.389 . S
C743 C742 1.443 . S
C743 C744 1.340 . S
C743 H783 0.951 . S
C744 C743 1.340 . S
C744 C745 1.439 . S
C744 H784 0.950 . S
C745 C744 1.439 . S
C745 N746 1.374 . S
C745 C779 1.395 . S
N746 C742 1.376 . S
N746 C745 1.374 . S
N746 Co747 2.008 . S
Co747 N746 2.008 . S
Co747 N748 1.995 . S
Co747 N753 2.008 . S
Co747 N758 1.995 . S
Co747 N763 2.282 . S
Co747 N769 2.282 . S
N748 Co747 1.995 . S
N748 C749 1.376 . S
N748 C752 1.383 . S
C749 N748 1.376 . S
C749 C750 1.446 . S
C749 C779 1.391 . S
C750 C749 1.446 . S
C750 C751 1.339 . S
C750 H785 0.949 . S
C751 C750 1.339 . S
C751 C752 1.439 . S
C751 H786 0.950 . S
C752 N748 1.383 . S
C752 C751 1.439 . S
C752 C781 1.392 . S
N753 Co747 2.008 . S
N753 C754 1.376 . S
N753 C757 1.374 . S
C754 N753 1.376 . S
C754 C755 1.443 . S
C754 C781 1.389 . S
C755 C754 1.443 . S
C755 C756 1.340 . S
C755 H787 0.951 . S
C756 C755 1.340 . S
C756 C757 1.439 . S
C756 H788 0.950 . S
C757 N753 1.374 . S
C757 C756 1.439 . S
C757 C782 1.395 . S
N758 Co747 1.995 . S
N758 C759 1.376 . S
N758 C762 1.383 . S
C759 N758 1.376 . S
C759 C760 1.446 . S
C759 C782 1.391 . S
C760 C759 1.446 . S
C760 C761 1.339 . S
C760 H789 0.949 . S
C761 C760 1.339 . S
C761 C762 1.439 . S
C761 H790 0.950 . S
C762 N758 1.383 . S
C762 C761 1.439 . S
C762 C780 1.392 . S
N763 Co747 2.282 . S
N763 C766 1.332 . S
N763 C768 1.332 . S
C764 C765 1.386 . S
C764 C767 1.388 . S
C765 C764 1.386 . S
C765 C766 1.382 . S
C765 H791 0.950 . S
C766 N763 1.332 . S
C766 C765 1.382 . S
C766 H777 0.952 . S
C767 C764 1.388 . S
C767 C768 1.382 . S
C767 H792 0.950 . S
C768 N763 1.332 . S
C768 C767 1.382 . S
C768 H778 0.948 . S
N769 Co747 2.282 . S
N769 C773 1.332 . S
N769 C774 1.332 . S
C770 C771 1.388 . S
C770 C774 1.382 . S
C770 H793 0.950 . S
C771 C770 1.388 . S
C771 C772 1.386 . S
C772 C771 1.386 . S
C772 C773 1.382 . S
C772 H794 0.950 . S
C773 N769 1.332 . S
C773 C772 1.382 . S
C773 H775 0.952 . S
C774 N769 1.332 . S
C774 C770 1.382 . S
C774 H776 0.948 . S
H775 C773 0.952 . S
H776 C774 0.948 . S
H777 C766 0.952 . S
H778 C768 0.948 . S
C779 C745 1.395 . S
C779 C749 1.391 . S
C780 C742 1.389 . S
C780 C762 1.392 . S
C781 C752 1.392 . S
C781 C754 1.389 . S
C782 C757 1.395 . S
C782 C759 1.391 . S
H783 C743 0.951 . S
H784 C744 0.950 . S
H785 C750 0.949 . S
H786 C751 0.950 . S
H787 C755 0.951 . S
H788 C756 0.950 . S
H789 C760 0.949 . S
H790 C761 0.950 . S
H791 C765 0.950 . S
H792 C767 0.950 . S
H793 C770 0.950 . S
H794 C772 0.950 . S
C795 C796 1.443 . S
C795 N799 1.376 . S
C795 C833 1.389 . S
C796 C795 1.443 . S
C796 C797 1.340 . S
C796 H836 0.951 . S
C797 C796 1.340 . S
C797 C798 1.439 . S
C797 H837 0.950 . S
C798 C797 1.439 . S
C798 N799 1.374 . S
C798 C832 1.395 . S
N799 C795 1.376 . S
N799 C798 1.374 . S
N799 Co800 2.008 . S
Co800 N799 2.008 . S
Co800 N801 1.995 . S
Co800 N806 2.008 . S
Co800 N811 1.995 . S
Co800 N816 2.282 . S
Co800 N822 2.282 . S
N801 Co800 1.995 . S
N801 C802 1.376 . S
N801 C805 1.383 . S
C802 N801 1.376 . S
C802 C803 1.446 . S
C802 C832 1.391 . S
C803 C802 1.446 . S
C803 C804 1.339 . S
C803 H838 0.949 . S
C804 C803 1.339 . S
C804 C805 1.439 . S
C804 H839 0.950 . S
C805 N801 1.383 . S
C805 C804 1.439 . S
C805 C834 1.392 . S
N806 Co800 2.008 . S
N806 C807 1.376 . S
N806 C810 1.374 . S
C807 N806 1.376 . S
C807 C808 1.443 . S
C807 C834 1.389 . S
C808 C807 1.443 . S
C808 C809 1.340 . S
C808 H840 0.951 . S
C809 C808 1.340 . S
C809 C810 1.439 . S
C809 H841 0.950 . S
C810 N806 1.374 . S
C810 C809 1.439 . S
C810 C835 1.395 . S
N811 Co800 1.995 . S
N811 C812 1.376 . S
N811 C815 1.383 . S
C812 N811 1.376 . S
C812 C813 1.446 . S
C812 C835 1.391 . S
C813 C812 1.446 . S
C813 C814 1.339 . S
C813 H842 0.949 . S
C814 C813 1.339 . S
C814 C815 1.439 . S
C814 H843 0.950 . S
C815 N811 1.383 . S
C815 C814 1.439 . S
C815 C833 1.392 . S
N816 Co800 2.282 . S
N816 C819 1.332 . S
N816 C821 1.332 . S
C817 C818 1.386 . S
C817 C820 1.388 . S
C818 C817 1.386 . S
C818 C819 1.382 . S
C818 H844 0.950 . S
C819 N816 1.332 . S
C819 C818 1.382 . S
C819 H830 0.952 . S
C820 C817 1.388 . S
C820 C821 1.382 . S
C820 H845 0.950 . S
C821 N816 1.332 . S
C821 C820 1.382 . S
C821 H831 0.948 . S
N822 Co800 2.282 . S
N822 C826 1.332 . S
N822 C827 1.332 . S
C823 C824 1.388 . S
C823 C827 1.382 . S
C823 H846 0.950 . S
C824 C823 1.388 . S
C824 C825 1.386 . S
C825 C824 1.386 . S
C825 C826 1.382 . S
C825 H847 0.950 . S
C826 N822 1.332 . S
C826 C825 1.382 . S
C826 H828 0.952 . S
C827 N822 1.332 . S
C827 C823 1.382 . S
C827 H829 0.948 . S
H828 C826 0.952 . S
H829 C827 0.948 . S
H830 C819 0.952 . S
H831 C821 0.948 . S
C832 C798 1.395 . S
C832 C802 1.391 . S
C833 C795 1.389 . S
C833 C815 1.392 . S
C834 C805 1.392 . S
C834 C807 1.389 . S
C835 C810 1.395 . S
C835 C812 1.391 . S
H836 C796 0.951 . S
H837 C797 0.950 . S
H838 C803 0.949 . S
H839 C804 0.950 . S
H840 C808 0.951 . S
H841 C809 0.950 . S
H842 C813 0.949 . S
H843 C814 0.950 . S
H844 C818 0.950 . S
H845 C820 0.950 . S
H846 C823 0.950 . S
H847 C825 0.950 . S
C848 C849 1.443 . S
C848 N852 1.376 . S
C848 C886 1.389 1_655 S
C849 C848 1.443 . S
C849 C850 1.340 . S
C849 H889 0.951 . S
C850 C849 1.340 . S
C850 C851 1.439 . S
C850 H890 0.950 . S
C851 C850 1.439 . S
C851 N852 1.374 . S
C851 C885 1.395 . S
N852 C848 1.376 . S
N852 C851 1.374 . S
N852 Co853 2.008 . S
Co853 N852 2.008 . S
Co853 N854 1.995 . S
Co853 N859 2.008 1_645 S
Co853 N864 1.995 1_655 S
Co853 N869 2.282 1_545 S
Co853 N875 2.282 1_655 S
N854 Co853 1.995 . S
N854 C855 1.376 . S
N854 C858 1.383 . S
C855 N854 1.376 . S
C855 C856 1.446 . S
C855 C885 1.391 . S
C856 C855 1.446 . S
C856 C857 1.339 . S
C856 H891 0.949 . S
C857 C856 1.339 . S
C857 C858 1.439 . S
C857 H892 0.950 . S
C858 N854 1.383 . S
C858 C857 1.439 . S
C858 C887 1.392 1_545 S
N859 Co853 2.008 1_465 S
N859 C860 1.376 . S
N859 C863 1.374 . S
C860 N859 1.376 . S
C860 C861 1.443 . S
C860 C887 1.389 1_455 S
C861 C860 1.443 . S
C861 C862 1.340 . S
C861 H893 0.951 . S
C862 C861 1.340 . S
C862 C863 1.439 . S
C862 H894 0.950 . S
C863 N859 1.374 . S
C863 C862 1.439 . S
C863 C888 1.395 . S
N864 Co853 1.995 1_455 S
N864 C865 1.376 1_545 S
N864 C868 1.383 . S
C865 N864 1.376 1_565 S
C865 C866 1.446 . S
C865 C888 1.391 . S
C866 C865 1.446 . S
C866 C867 1.339 . S
C866 H895 0.949 . S
C867 C866 1.339 . S
C867 C868 1.439 1_565 S
C867 H896 0.950 1_565 S
C868 N864 1.383 . S
C868 C867 1.439 1_545 S
C868 C886 1.392 . S
N869 Co853 2.282 1_565 S
N869 C872 1.332 . S
N869 C874 1.332 1_565 S
C870 C871 1.386 . S
C870 C873 1.388 . S
C871 C870 1.386 . S
C871 C872 1.382 . S
C871 H897 0.950 . S
C872 N869 1.332 . S
C872 C871 1.382 . S
C872 H883 0.952 . S
C873 C870 1.388 . S
C873 C874 1.382 1_565 S
C873 H898 0.950 . S
C874 N869 1.332 1_545 S
C874 C873 1.382 1_545 S
C874 H884 0.948 . S
N875 Co853 2.282 1_455 S
N875 C879 1.332 . S
N875 C880 1.332 . S
C876 C877 1.388 . S
C876 C880 1.382 . S
C876 H899 0.950 . S
C877 C876 1.388 . S
C877 C878 1.386 . S
C878 C877 1.386 . S
C878 C879 1.382 . S
C878 H900 0.950 . S
C879 N875 1.332 . S
C879 C878 1.382 . S
C879 H881 0.952 . S
C880 N875 1.332 . S
C880 C876 1.382 . S
C880 H882 0.948 . S
H881 C879 0.952 . S
H882 C880 0.948 . S
H883 C872 0.952 . S
H884 C874 0.948 . S
C885 C851 1.395 . S
C885 C855 1.391 . S
C886 C848 1.389 1_455 S
C886 C868 1.392 . S
C887 C858 1.392 1_565 S
C887 C860 1.389 1_655 S
C888 C863 1.395 . S
C888 C865 1.391 . S
H889 C849 0.951 . S
H890 C850 0.950 . S
H891 C856 0.949 . S
H892 C857 0.950 . S
H893 C861 0.951 . S
H894 C862 0.950 . S
H895 C866 0.949 . S
H896 C867 0.950 1_545 S
H897 C871 0.950 . S
H898 C873 0.950 . S
H899 C876 0.950 . S
H900 C878 0.950 . S
C901 C902 1.443 . S
C901 N905 1.376 . S
C901 C939 1.389 . S
C902 C901 1.443 . S
C902 C903 1.340 . S
C902 H942 0.951 . S
C903 C902 1.340 . S
C903 C904 1.439 . S
C903 H943 0.950 . S
C904 C903 1.439 . S
C904 N905 1.374 . S
C904 C938 1.395 . S
N905 C901 1.376 . S
N905 C904 1.374 . S
N905 Co906 2.008 . S
Co906 N905 2.008 . S
Co906 N907 1.995 . S
Co906 N912 2.008 . S
Co906 N917 1.995 . S
Co906 N922 2.282 . S
Co906 N928 2.282 . S
N907 Co906 1.995 . S
N907 C908 1.376 . S
N907 C911 1.383 . S
C908 N907 1.376 . S
C908 C909 1.446 . S
C908 C938 1.391 . S
C909 C908 1.446 . S
C909 C910 1.339 . S
C909 H944 0.949 . S
C910 C909 1.339 . S
C910 C911 1.439 . S
C910 H945 0.950 . S
C911 N907 1.383 . S
C911 C910 1.439 . S
C911 C940 1.392 . S
N912 Co906 2.008 . S
N912 C913 1.376 . S
N912 C916 1.374 . S
C913 N912 1.376 . S
C913 C914 1.443 . S
C913 C940 1.389 . S
C914 C913 1.443 . S
C914 C915 1.340 . S
C914 H946 0.951 . S
C915 C914 1.340 . S
C915 C916 1.439 . S
C915 H947 0.950 . S
C916 N912 1.374 . S
C916 C915 1.439 . S
C916 C941 1.395 . S
N917 Co906 1.995 . S
N917 C918 1.376 . S
N917 C921 1.383 . S
C918 N917 1.376 . S
C918 C919 1.446 . S
C918 C941 1.391 . S
C919 C918 1.446 . S
C919 C920 1.339 . S
C919 H948 0.949 . S
C920 C919 1.339 . S
C920 C921 1.439 . S
C920 H949 0.950 . S
C921 N917 1.383 . S
C921 C920 1.439 . S
C921 C939 1.392 . S
N922 Co906 2.282 . S
N922 C925 1.332 . S
N922 C927 1.332 . S
C923 C924 1.386 . S
C923 C926 1.388 . S
C924 C923 1.386 . S
C924 C925 1.382 . S
C924 H950 0.950 . S
C925 N922 1.332 . S
C925 C924 1.382 . S
C925 H936 0.952 . S
C926 C923 1.388 . S
C926 C927 1.382 . S
C926 H951 0.950 . S
C927 N922 1.332 . S
C927 C926 1.382 . S
C927 H937 0.948 . S
N928 Co906 2.282 . S
N928 C932 1.332 . S
N928 C933 1.332 . S
C929 C930 1.388 . S
C929 C933 1.382 . S
C929 H952 0.950 . S
C930 C929 1.388 . S
C930 C931 1.386 . S
C931 C930 1.386 . S
C931 C932 1.382 . S
C931 H953 0.950 . S
C932 N928 1.332 . S
C932 C931 1.382 . S
C932 H934 0.952 . S
C933 N928 1.332 . S
C933 C929 1.382 . S
C933 H935 0.948 . S
H934 C932 0.952 . S
H935 C933 0.948 . S
H936 C925 0.952 . S
H937 C927 0.948 . S
C938 C904 1.395 . S
C938 C908 1.391 . S
C939 C901 1.389 . S
C939 C921 1.392 . S
C940 C911 1.392 . S
C940 C913 1.389 . S
C941 C916 1.395 . S
C941 C918 1.391 . S
H942 C902 0.951 . S
H943 C903 0.950 . S
H944 C909 0.949 . S
H945 C910 0.950 . S
H946 C914 0.951 . S
H947 C915 0.950 . S
H948 C919 0.949 . S
H949 C920 0.950 . S
H950 C924 0.950 . S
H951 C926 0.950 . S
H952 C929 0.950 . S
H953 C931 0.950 . S
C954 C955 1.443 . S
C954 N958 1.376 . S
C954 C992 1.389 1_655 S
C955 C954 1.443 . S
C955 C956 1.340 . S
C955 H995 0.951 . S
C956 C955 1.340 . S
C956 C957 1.439 . S
C956 H996 0.950 . S
C957 C956 1.439 . S
C957 N958 1.374 . S
C957 C991 1.395 . S
N958 C954 1.376 . S
N958 C957 1.374 . S
N958 Co959 2.008 . S
Co959 N958 2.008 . S
Co959 N960 1.995 . S
Co959 N965 2.008 1_655 S
Co959 N970 1.995 1_655 S
Co959 N975 2.282 . S
Co959 N981 2.282 1_655 S
N960 Co959 1.995 . S
N960 C961 1.376 . S
N960 C964 1.383 . S
C961 N960 1.376 . S
C961 C962 1.446 . S
C961 C991 1.391 . S
C962 C961 1.446 . S
C962 C963 1.339 . S
C962 H997 0.949 . S
C963 C962 1.339 . S
C963 C964 1.439 . S
C963 H998 0.950 . S
C964 N960 1.383 . S
C964 C963 1.439 . S
C964 C993 1.392 . S
N965 Co959 2.008 1_455 S
N965 C966 1.376 . S
N965 C969 1.374 . S
C966 N965 1.376 . S
C966 C967 1.443 . S
C966 C993 1.389 1_455 S
C967 C966 1.443 . S
C967 C968 1.340 . S
C967 H999 0.951 . S
C968 C967 1.340 . S
C968 C969 1.439 . S
C968 H1000 0.950 . S
C969 N965 1.374 . S
C969 C968 1.439 . S
C969 C994 1.395 . S
N970 Co959 1.995 1_455 S
N970 C971 1.376 . S
N970 C974 1.383 . S
C971 N970 1.376 . S
C971 C972 1.446 . S
C971 C994 1.391 . S
C972 C971 1.446 . S
C972 C973 1.339 . S
C972 H1001 0.949 . S
C973 C972 1.339 . S
C973 C974 1.439 . S
C973 H1002 0.950 . S
C974 N970 1.383 . S
C974 C973 1.439 . S
C974 C992 1.392 . S
N975 Co959 2.282 . S
N975 C978 1.332 . S
N975 C980 1.332 . S
C976 C977 1.386 . S
C976 C979 1.388 . S
C977 C976 1.386 . S
C977 C978 1.382 . S
C977 H1003 0.950 . S
C978 N975 1.332 . S
C978 C977 1.382 . S
C978 H989 0.952 . S
C979 C976 1.388 . S
C979 C980 1.382 . S
C979 H1004 0.950 . S
C980 N975 1.332 . S
C980 C979 1.382 . S
C980 H990 0.948 . S
N981 Co959 2.282 1_455 S
N981 C985 1.332 . S
N981 C986 1.332 . S
C982 C983 1.388 . S
C982 C986 1.382 . S
C982 H1005 0.950 . S
C983 C982 1.388 . S
C983 C984 1.386 . S
C984 C983 1.386 . S
C984 C985 1.382 . S
C984 H1006 0.950 . S
C985 N981 1.332 . S
C985 C984 1.382 . S
C985 H987 0.952 . S
C986 N981 1.332 . S
C986 C982 1.382 . S
C986 H988 0.948 . S
H987 C985 0.952 . S
H988 C986 0.948 . S
H989 C978 0.952 . S
H990 C980 0.948 . S
C991 C957 1.395 . S
C991 C961 1.391 . S
C992 C954 1.389 1_455 S
C992 C974 1.392 . S
C993 C964 1.392 . S
C993 C966 1.389 1_655 S
C994 C969 1.395 . S
C994 C971 1.391 . S
H995 C955 0.951 . S
H996 C956 0.950 . S
H997 C962 0.949 . S
H998 C963 0.950 . S
H999 C967 0.951 . S
H1000 C968 0.950 . S
H1001 C972 0.949 . S
H1002 C973 0.950 . S
H1003 C977 0.950 . S
H1004 C979 0.950 . S
H1005 C982 0.950 . S
H1006 C984 0.950 . S
C1007 C1008 1.443 . S
C1007 N1011 1.376 . S
C1007 C1045 1.389 . S
C1008 C1007 1.443 . S
C1008 C1009 1.340 . S
C1008 H1048 0.951 . S
C1009 C1008 1.340 . S
C1009 C1010 1.439 . S
C1009 H1049 0.950 . S
C1010 C1009 1.439 . S
C1010 N1011 1.374 . S
C1010 C1044 1.395 . S
N1011 C1007 1.376 . S
N1011 C1010 1.374 . S
N1011 Co1012 2.008 . S
Co1012 N1011 2.008 . S
Co1012 N1013 1.995 . S
Co1012 N1018 2.008 1_545 S
Co1012 N1023 1.995 1_545 S
Co1012 N1028 2.282 1_545 S
Co1012 N1034 2.282 . S
N1013 Co1012 1.995 . S
N1013 C1014 1.376 . S
N1013 C1017 1.383 . S
C1014 N1013 1.376 . S
C1014 C1015 1.446 . S
C1014 C1044 1.391 . S
C1015 C1014 1.446 . S
C1015 C1016 1.339 . S
C1015 H1050 0.949 . S
C1016 C1015 1.339 . S
C1016 C1017 1.439 . S
C1016 H1051 0.950 . S
C1017 N1013 1.383 . S
C1017 C1016 1.439 . S
C1017 C1046 1.392 1_545 S
N1018 Co1012 2.008 1_565 S
N1018 C1019 1.376 . S
N1018 C1022 1.374 . S
C1019 N1018 1.376 . S
C1019 C1020 1.443 . S
C1019 C1046 1.389 . S
C1020 C1019 1.443 . S
C1020 C1021 1.340 . S
C1020 H1052 0.951 . S
C1021 C1020 1.340 . S
C1021 C1022 1.439 . S
C1021 H1053 0.950 . S
C1022 N1018 1.374 . S
C1022 C1021 1.439 . S
C1022 C1047 1.395 . S
N1023 Co1012 1.995 1_565 S
N1023 C1024 1.376 . S
N1023 C1027 1.383 1_565 S
C1024 N1023 1.376 . S
C1024 C1025 1.446 . S
C1024 C1047 1.391 . S
C1025 C1024 1.446 . S
C1025 C1026 1.339 . S
C1025 H1054 0.949 . S
C1026 C1025 1.339 . S
C1026 C1027 1.439 1_565 S
C1026 H1055 0.950 . S
C1027 N1023 1.383 1_545 S
C1027 C1026 1.439 1_545 S
C1027 C1045 1.392 . S
N1028 Co1012 2.282 1_565 S
N1028 C1031 1.332 . S
N1028 C1033 1.332 1_565 S
C1029 C1030 1.386 . S
C1029 C1032 1.388 . S
C1030 C1029 1.386 . S
C1030 C1031 1.382 . S
C1030 H1056 0.950 . S
C1031 N1028 1.332 . S
C1031 C1030 1.382 . S
C1031 H1042 0.952 . S
C1032 C1029 1.388 . S
C1032 C1033 1.382 1_565 S
C1032 H1057 0.950 . S
C1033 N1028 1.332 1_545 S
C1033 C1032 1.382 1_545 S
C1033 H1043 0.948 . S
N1034 Co1012 2.282 . S
N1034 C1038 1.332 . S
N1034 C1039 1.332 . S
C1035 C1036 1.388 . S
C1035 C1039 1.382 . S
C1035 H1058 0.950 . S
C1036 C1035 1.388 . S
C1036 C1037 1.386 . S
C1037 C1036 1.386 . S
C1037 C1038 1.382 . S
C1037 H1059 0.950 . S
C1038 N1034 1.332 . S
C1038 C1037 1.382 . S
C1038 H1040 0.952 . S
C1039 N1034 1.332 . S
C1039 C1035 1.382 . S
C1039 H1041 0.948 . S
H1040 C1038 0.952 . S
H1041 C1039 0.948 . S
H1042 C1031 0.952 . S
H1043 C1033 0.948 . S
C1044 C1010 1.395 . S
C1044 C1014 1.391 . S
C1045 C1007 1.389 . S
C1045 C1027 1.392 . S
C1046 C1017 1.392 1_565 S
C1046 C1019 1.389 . S
C1047 C1022 1.395 . S
C1047 C1024 1.391 . S
H1048 C1008 0.951 . S
H1049 C1009 0.950 . S
H1050 C1015 0.949 . S
H1051 C1016 0.950 . S
H1052 C1020 0.951 . S
H1053 C1021 0.950 . S
H1054 C1025 0.949 . S
H1055 C1026 0.950 . S
H1056 C1030 0.950 . S
H1057 C1032 0.950 . S
H1058 C1035 0.950 . S
H1059 C1037 0.950 . S
C1060 C1061 1.443 . S
C1060 N1064 1.376 . S
C1060 C1098 1.389 . S
C1061 C1060 1.443 . S
C1061 C1062 1.340 1_565 S
C1061 H1101 0.951 . S
C1062 C1061 1.340 1_545 S
C1062 C1063 1.439 . S
C1062 H1102 0.950 . S
C1063 C1062 1.439 . S
C1063 N1064 1.374 1_545 S
C1063 C1097 1.395 . S
N1064 C1060 1.376 . S
N1064 C1063 1.374 1_565 S
N1064 Co1065 2.008 1_655 S
Co1065 N1064 2.008 1_455 S
Co1065 N1066 1.995 1_465 S
Co1065 N1071 2.008 . S
Co1065 N1076 1.995 . S
Co1065 N1081 2.282 1_565 S
Co1065 N1087 2.282 1_455 S
N1066 Co1065 1.995 1_645 S
N1066 C1067 1.376 . S
N1066 C1070 1.383 . S
C1067 N1066 1.376 . S
C1067 C1068 1.446 . S
C1067 C1097 1.391 . S
C1068 C1067 1.446 . S
C1068 C1069 1.339 . S
C1068 H1103 0.949 . S
C1069 C1068 1.339 . S
C1069 C1070 1.439 . S
C1069 H1104 0.950 . S
C1070 N1066 1.383 . S
C1070 C1069 1.439 . S
C1070 C1099 1.392 1_655 S
N1071 Co1065 2.008 . S
N1071 C1072 1.376 . S
N1071 C1075 1.374 . S
C1072 N1071 1.376 . S
C1072 C1073 1.443 . S
C1072 C1099 1.389 1_565 S
C1073 C1072 1.443 . S
C1073 C1074 1.340 . S
C1073 H1105 0.951 . S
C1074 C1073 1.340 . S
C1074 C1075 1.439 . S
C1074 H1106 0.950 . S
C1075 N1071 1.374 . S
C1075 C1074 1.439 . S
C1075 C1100 1.395 . S
N1076 Co1065 1.995 . S
N1076 C1077 1.376 . S
N1076 C1080 1.383 . S
C1077 N1076 1.376 . S
C1077 C1078 1.446 . S
C1077 C1100 1.391 . S
C1078 C1077 1.446 . S
C1078 C1079 1.339 . S
C1078 H1107 0.949 . S
C1079 C1078 1.339 . S
C1079 C1080 1.439 . S
C1079 H1108 0.950 . S
C1080 N1076 1.383 . S
C1080 C1079 1.439 . S
C1080 C1098 1.392 1_455 S
N1081 Co1065 2.282 1_545 S
N1081 C1084 1.332 1_545 S
N1081 C1086 1.332 . S
C1082 C1083 1.386 . S
C1082 C1085 1.388 . S
C1083 C1082 1.386 . S
C1083 C1084 1.382 1_545 S
C1083 H1109 0.949 1_545 S
C1084 N1081 1.332 1_565 S
C1084 C1083 1.382 1_565 S
C1084 H1095 0.952 . S
C1085 C1082 1.388 . S
C1085 C1086 1.382 . S
C1085 H1110 0.950 . S
C1086 N1081 1.332 . S
C1086 C1085 1.382 . S
C1086 H1096 0.948 . S
N1087 Co1065 2.282 1_655 S
N1087 C1091 1.332 . S
N1087 C1092 1.332 . S
C1088 C1089 1.388 . S
C1088 C1092 1.382 . S
C1088 H1111 0.950 . S
C1089 C1088 1.388 . S
C1089 C1090 1.386 . S
C1090 C1089 1.386 . S
C1090 C1091 1.382 . S
C1090 H1112 0.950 . S
C1091 N1087 1.332 . S
C1091 C1090 1.382 . S
C1091 H1093 0.952 . S
C1092 N1087 1.332 . S
C1092 C1088 1.382 . S
C1092 H1094 0.948 . S
H1093 C1091 0.952 . S
H1094 C1092 0.948 . S
H1095 C1084 0.952 . S
H1096 C1086 0.948 . S
C1097 C1063 1.395 . S
C1097 C1067 1.391 . S
C1098 C1060 1.389 . S
C1098 C1080 1.392 1_655 S
C1099 C1070 1.392 1_455 S
C1099 C1072 1.389 1_545 S
C1100 C1075 1.395 . S
C1100 C1077 1.391 . S
H1101 C1061 0.951 . S
H1102 C1062 0.950 . S
H1103 C1068 0.949 . S
H1104 C1069 0.950 . S
H1105 C1073 0.951 . S
H1106 C1074 0.950 . S
H1107 C1078 0.949 . S
H1108 C1079 0.950 . S
H1109 C1083 0.949 1_565 S
H1110 C1085 0.950 . S
H1111 C1088 0.950 . S
H1112 C1090 0.950 . S
C1113 C1114 1.443 . S
C1113 N1117 1.376 . S
C1113 C1151 1.389 . S
C1114 C1113 1.443 . S
C1114 C1115 1.340 . S
C1114 H1154 0.951 . S
C1115 C1114 1.340 . S
C1115 C1116 1.439 . S
C1115 H1155 0.950 . S
C1116 C1115 1.439 . S
C1116 N1117 1.374 . S
C1116 C1150 1.395 . S
N1117 C1113 1.376 . S
N1117 C1116 1.374 . S
N1117 Co1118 2.008 . S
Co1118 N1117 2.008 . S
Co1118 N1119 1.995 . S
Co1118 N1124 2.008 . S
Co1118 N1129 1.995 . S
Co1118 N1134 2.282 . S
Co1118 N1140 2.282 . S
N1119 Co1118 1.995 . S
N1119 C1120 1.376 . S
N1119 C1123 1.383 . S
C1120 N1119 1.376 . S
C1120 C1121 1.446 . S
C1120 C1150 1.391 . S
C1121 C1120 1.446 . S
C1121 C1122 1.339 . S
C1121 H1156 0.949 . S
C1122 C1121 1.339 . S
C1122 C1123 1.439 . S
C1122 H1157 0.950 . S
C1123 N1119 1.383 . S
C1123 C1122 1.439 . S
C1123 C1152 1.392 . S
N1124 Co1118 2.008 . S
N1124 C1125 1.376 . S
N1124 C1128 1.374 . S
C1125 N1124 1.376 . S
C1125 C1126 1.443 . S
C1125 C1152 1.389 . S
C1126 C1125 1.443 . S
C1126 C1127 1.340 . S
C1126 H1158 0.951 . S
C1127 C1126 1.340 . S
C1127 C1128 1.439 . S
C1127 H1159 0.950 . S
C1128 N1124 1.374 . S
C1128 C1127 1.439 . S
C1128 C1153 1.395 . S
N1129 Co1118 1.995 . S
N1129 C1130 1.376 . S
N1129 C1133 1.383 . S
C1130 N1129 1.376 . S
C1130 C1131 1.446 . S
C1130 C1153 1.391 . S
C1131 C1130 1.446 . S
C1131 C1132 1.339 . S
C1131 H1160 0.949 . S
C1132 C1131 1.339 . S
C1132 C1133 1.439 . S
C1132 H1161 0.950 . S
C1133 N1129 1.383 . S
C1133 C1132 1.439 . S
C1133 C1151 1.392 . S
N1134 Co1118 2.282 . S
N1134 C1137 1.332 . S
N1134 C1139 1.332 . S
C1135 C1136 1.386 . S
C1135 C1138 1.388 . S
C1136 C1135 1.386 . S
C1136 C1137 1.382 . S
C1136 H1162 0.950 . S
C1137 N1134 1.332 . S
C1137 C1136 1.382 . S
C1137 H1148 0.952 . S
C1138 C1135 1.388 . S
C1138 C1139 1.382 . S
C1138 H1163 0.950 . S
C1139 N1134 1.332 . S
C1139 C1138 1.382 . S
C1139 H1149 0.948 . S
N1140 Co1118 2.282 . S
N1140 C1144 1.332 . S
N1140 C1145 1.332 . S
C1141 C1142 1.388 . S
C1141 C1145 1.382 . S
C1141 H1164 0.950 . S
C1142 C1141 1.388 . S
C1142 C1143 1.386 . S
C1143 C1142 1.386 . S
C1143 C1144 1.382 . S
C1143 H1165 0.950 . S
C1144 N1140 1.332 . S
C1144 C1143 1.382 . S
C1144 H1146 0.952 . S
C1145 N1140 1.332 . S
C1145 C1141 1.382 . S
C1145 H1147 0.948 . S
H1146 C1144 0.952 . S
H1147 C1145 0.948 . S
H1148 C1137 0.952 . S
H1149 C1139 0.948 . S
C1150 C1116 1.395 . S
C1150 C1120 1.391 . S
C1151 C1113 1.389 . S
C1151 C1133 1.392 . S
C1152 C1123 1.392 . S
C1152 C1125 1.389 . S
C1153 C1128 1.395 . S
C1153 C1130 1.391 . S
H1154 C1114 0.951 . S
H1155 C1115 0.950 . S
H1156 C1121 0.949 . S
H1157 C1122 0.950 . S
H1158 C1126 0.951 . S
H1159 C1127 0.950 . S
H1160 C1131 0.949 . S
H1161 C1132 0.950 . S
H1162 C1136 0.950 . S
H1163 C1138 0.950 . S
H1164 C1141 0.950 . S
H1165 C1143 0.950 . S
C1166 C1167 1.443 . S
C1166 N1170 1.376 . S
C1166 C1204 1.389 . S
C1167 C1166 1.443 . S
C1167 C1168 1.340 . S
C1167 H1207 0.951 . S
C1168 C1167 1.340 . S
C1168 C1169 1.439 . S
C1168 H1208 0.950 . S
C1169 C1168 1.439 . S
C1169 N1170 1.374 . S
C1169 C1203 1.395 . S
N1170 C1166 1.376 . S
N1170 C1169 1.374 . S
N1170 Co1171 2.008 1_655 S
Co1171 N1170 2.008 1_455 S
Co1171 N1172 1.995 1_455 S
Co1171 N1177 2.008 . S
Co1171 N1182 1.995 . S
Co1171 N1187 2.282 . S
Co1171 N1193 2.282 1_455 S
N1172 Co1171 1.995 1_655 S
N1172 C1173 1.376 . S
N1172 C1176 1.383 . S
C1173 N1172 1.376 . S
C1173 C1174 1.446 . S
C1173 C1203 1.391 . S
C1174 C1173 1.446 . S
C1174 C1175 1.339 . S
C1174 H1209 0.949 . S
C1175 C1174 1.339 . S
C1175 C1176 1.439 . S
C1175 H1210 0.950 . S
C1176 N1172 1.383 . S
C1176 C1175 1.439 . S
C1176 C1205 1.392 1_655 S
N1177 Co1171 2.008 . S
N1177 C1178 1.376 . S
N1177 C1181 1.374 . S
C1178 N1177 1.376 . S
C1178 C1179 1.443 . S
C1178 C1205 1.389 . S
C1179 C1178 1.443 . S
C1179 C1180 1.340 . S
C1179 H1211 0.951 . S
C1180 C1179 1.340 . S
C1180 C1181 1.439 . S
C1180 H1212 0.950 . S
C1181 N1177 1.374 . S
C1181 C1180 1.439 . S
C1181 C1206 1.395 . S
N1182 Co1171 1.995 . S
N1182 C1183 1.376 . S
N1182 C1186 1.383 . S
C1183 N1182 1.376 . S
C1183 C1184 1.446 . S
C1183 C1206 1.391 . S
C1184 C1183 1.446 . S
C1184 C1185 1.339 . S
C1184 H1213 0.949 . S
C1185 C1184 1.339 . S
C1185 C1186 1.439 . S
C1185 H1214 0.950 . S
C1186 N1182 1.383 . S
C1186 C1185 1.439 . S
C1186 C1204 1.392 1_455 S
N1187 Co1171 2.282 . S
N1187 C1190 1.332 . S
N1187 C1192 1.332 . S
C1188 C1189 1.386 . S
C1188 C1191 1.388 . S
C1189 C1188 1.386 . S
C1189 C1190 1.382 . S
C1189 H1215 0.950 . S
C1190 N1187 1.332 . S
C1190 C1189 1.382 . S
C1190 H1201 0.952 . S
C1191 C1188 1.388 . S
C1191 C1192 1.382 . S
C1191 H1216 0.950 . S
C1192 N1187 1.332 . S
C1192 C1191 1.382 . S
C1192 H1202 0.948 . S
N1193 Co1171 2.282 1_655 S
N1193 C1197 1.332 . S
N1193 C1198 1.332 . S
C1194 C1195 1.388 . S
C1194 C1198 1.382 . S
C1194 H1217 0.950 . S
C1195 C1194 1.388 . S
C1195 C1196 1.386 . S
C1196 C1195 1.386 . S
C1196 C1197 1.382 . S
C1196 H1218 0.950 . S
C1197 N1193 1.332 . S
C1197 C1196 1.382 . S
C1197 H1199 0.952 . S
C1198 N1193 1.332 . S
C1198 C1194 1.382 . S
C1198 H1200 0.948 . S
H1199 C1197 0.952 . S
H1200 C1198 0.948 . S
H1201 C1190 0.952 . S
H1202 C1192 0.948 . S
C1203 C1169 1.395 . S
C1203 C1173 1.391 . S
C1204 C1166 1.389 . S
C1204 C1186 1.392 1_655 S
C1205 C1176 1.392 1_455 S
C1205 C1178 1.389 . S
C1206 C1181 1.395 . S
C1206 C1183 1.391 . S
H1207 C1167 0.951 . S
H1208 C1168 0.950 . S
H1209 C1174 0.949 . S
H1210 C1175 0.950 . S
H1211 C1179 0.951 . S
H1212 C1180 0.950 . S
H1213 C1184 0.949 . S
H1214 C1185 0.950 . S
H1215 C1189 0.950 . S
H1216 C1191 0.950 . S
H1217 C1194 0.950 . S
H1218 C1196 0.950 . S
C1219 C1220 1.443 1_565 S
C1219 N1223 1.374 1_565 S
C1219 C1257 1.389 . S
C1220 C1219 1.443 1_545 S
C1220 C1221 1.340 . S
C1220 H1260 0.951 1_545 S
C1221 C1220 1.340 . S
C1221 C1222 1.439 . S
C1221 H1261 0.950 . S
C1222 C1221 1.439 . S
C1222 N1223 1.377 . S
C1222 C1256 1.395 . S
N1223 C1219 1.374 1_545 S
N1223 C1222 1.377 . S
N1223 Co1224 2.007 1_545 S
Co1224 N1223 2.007 1_565 S
Co1224 N1225 1.995 1_565 S
Co1224 N1230 2.008 . S
Co1224 N1235 1.995 . S
Co1224 N1240 2.282 1_565 S
Co1224 N1246 2.282 . S
N1225 Co1224 1.995 1_545 S
N1225 C1226 1.376 . S
N1225 C1229 1.383 . S
C1226 N1225 1.376 . S
C1226 C1227 1.446 . S
C1226 C1256 1.391 . S
C1227 C1226 1.446 . S
C1227 C1228 1.339 . S
C1227 H1262 0.949 . S
C1228 C1227 1.339 . S
C1228 C1229 1.439 . S
C1228 H1263 0.950 . S
C1229 N1225 1.383 . S
C1229 C1228 1.439 . S
C1229 C1258 1.392 . S
N1230 Co1224 2.008 . S
N1230 C1231 1.376 . S
N1230 C1234 1.374 . S
C1231 N1230 1.376 . S
C1231 C1232 1.443 . S
C1231 C1258 1.389 1_565 S
C1232 C1231 1.443 . S
C1232 C1233 1.340 . S
C1232 H1264 0.951 . S
C1233 C1232 1.340 . S
C1233 C1234 1.439 . S
C1233 H1265 0.950 . S
C1234 N1230 1.374 . S
C1234 C1233 1.439 . S
C1234 C1259 1.395 . S
N1235 Co1224 1.995 . S
N1235 C1236 1.376 . S
N1235 C1239 1.383 . S
C1236 N1235 1.376 . S
C1236 C1237 1.446 . S
C1236 C1259 1.391 . S
C1237 C1236 1.446 . S
C1237 C1238 1.339 . S
C1237 H1266 0.949 . S
C1238 C1237 1.339 . S
C1238 C1239 1.439 . S
C1238 H1267 0.950 . S
C1239 N1235 1.383 . S
C1239 C1238 1.439 . S
C1239 C1257 1.392 . S
N1240 Co1224 2.282 1_545 S
N1240 C1243 1.332 1_545 S
N1240 C1245 1.332 . S
C1241 C1242 1.386 . S
C1241 C1244 1.388 . S
C1242 C1241 1.386 . S
C1242 C1243 1.382 1_545 S
C1242 H1268 0.950 . S
C1243 N1240 1.332 1_565 S
C1243 C1242 1.382 1_565 S
C1243 H1254 0.952 . S
C1244 C1241 1.388 . S
C1244 C1245 1.382 . S
C1244 H1269 0.950 . S
C1245 N1240 1.332 . S
C1245 C1244 1.382 . S
C1245 H1255 0.948 . S
N1246 Co1224 2.282 . S
N1246 C1250 1.332 . S
N1246 C1251 1.332 . S
C1247 C1248 1.388 . S
C1247 C1251 1.382 . S
C1247 H1270 0.950 . S
C1248 C1247 1.388 . S
C1248 C1249 1.386 . S
C1249 C1248 1.386 . S
C1249 C1250 1.382 . S
C1249 H1271 0.950 . S
C1250 N1246 1.332 . S
C1250 C1249 1.382 . S
C1250 H1252 0.952 . S
C1251 N1246 1.332 . S
C1251 C1247 1.382 . S
C1251 H1253 0.948 . S
H1252 C1250 0.952 . S
H1253 C1251 0.948 . S
H1254 C1243 0.952 . S
H1255 C1245 0.948 . S
C1256 C1222 1.395 . S
C1256 C1226 1.391 . S
C1257 C1219 1.389 . S
C1257 C1239 1.392 . S
C1258 C1229 1.392 . S
C1258 C1231 1.389 1_545 S
C1259 C1234 1.395 . S
C1259 C1236 1.391 . S
H1260 C1220 0.951 1_565 S
H1261 C1221 0.950 . S
H1262 C1227 0.949 . S
H1263 C1228 0.950 . S
H1264 C1232 0.951 . S
H1265 C1233 0.950 . S
H1266 C1237 0.949 . S
H1267 C1238 0.950 . S
H1268 C1242 0.950 . S
H1269 C1244 0.950 . S
H1270 C1247 0.950 . S
H1271 C1249 0.950 . S
C1272 C1273 1.443 . S
C1272 N1276 1.376 . S
C1272 C1310 1.389 1_655 S
C1273 C1272 1.443 . S
C1273 C1274 1.340 . S
C1273 H1313 0.951 . S
C1274 C1273 1.340 . S
C1274 C1275 1.439 . S
C1274 H1314 0.950 . S
C1275 C1274 1.439 . S
C1275 N1276 1.374 . S
C1275 C1309 1.395 . S
N1276 C1272 1.376 . S
N1276 C1275 1.374 . S
N1276 Co1277 2.008 . S
Co1277 N1276 2.008 . S
Co1277 N1278 1.995 . S
Co1277 N1283 2.008 1_655 S
Co1277 N1288 1.995 1_655 S
Co1277 N1293 2.282 . S
Co1277 N1299 2.282 1_655 S
N1278 Co1277 1.995 . S
N1278 C1279 1.376 . S
N1278 C1282 1.383 . S
C1279 N1278 1.376 . S
C1279 C1280 1.446 . S
C1279 C1309 1.391 . S
C1280 C1279 1.446 . S
C1280 C1281 1.339 . S
C1280 H1315 0.949 . S
C1281 C1280 1.339 . S
C1281 C1282 1.439 . S
C1281 H1316 0.950 . S
C1282 N1278 1.383 . S
C1282 C1281 1.439 . S
C1282 C1311 1.392 . S
N1283 Co1277 2.008 1_455 S
N1283 C1284 1.376 . S
N1283 C1287 1.374 . S
C1284 N1283 1.376 . S
C1284 C1285 1.443 . S
C1284 C1311 1.389 1_455 S
C1285 C1284 1.443 . S
C1285 C1286 1.340 . S
C1285 H1317 0.951 . S
C1286 C1285 1.340 . S
C1286 C1287 1.439 . S
C1286 H1318 0.950 . S
C1287 N1283 1.374 . S
C1287 C1286 1.439 . S
C1287 C1312 1.395 . S
N1288 Co1277 1.995 1_455 S
N1288 C1289 1.376 . S
N1288 C1292 1.383 . S
C1289 N1288 1.376 . S
C1289 C1290 1.446 . S
C1289 C1312 1.391 . S
C1290 C1289 1.446 . S
C1290 C1291 1.339 . S
C1290 H1319 0.949 . S
C1291 C1290 1.339 . S
C1291 C1292 1.439 . S
C1291 H1320 0.950 . S
C1292 N1288 1.383 . S
C1292 C1291 1.439 . S
C1292 C1310 1.392 . S
N1293 Co1277 2.282 . S
N1293 C1296 1.332 . S
N1293 C1298 1.332 . S
C1294 C1295 1.386 . S
C1294 C1297 1.388 . S
C1295 C1294 1.386 . S
C1295 C1296 1.382 . S
C1295 H1321 0.950 . S
C1296 N1293 1.332 . S
C1296 C1295 1.382 . S
C1296 H1307 0.952 . S
C1297 C1294 1.388 . S
C1297 C1298 1.382 . S
C1297 H1322 0.950 . S
C1298 N1293 1.332 . S
C1298 C1297 1.382 . S
C1298 H1308 0.948 . S
N1299 Co1277 2.282 1_455 S
N1299 C1303 1.332 . S
N1299 C1304 1.332 . S
C1300 C1301 1.388 . S
C1300 C1304 1.382 . S
C1300 H1323 0.950 . S
C1301 C1300 1.388 . S
C1301 C1302 1.386 . S
C1302 C1301 1.386 . S
C1302 C1303 1.382 . S
C1302 H1324 0.950 . S
C1303 N1299 1.332 . S
C1303 C1302 1.382 . S
C1303 H1305 0.952 . S
C1304 N1299 1.332 . S
C1304 C1300 1.382 . S
C1304 H1306 0.948 . S
H1305 C1303 0.952 . S
H1306 C1304 0.948 . S
H1307 C1296 0.952 . S
H1308 C1298 0.948 . S
C1309 C1275 1.395 . S
C1309 C1279 1.391 . S
C1310 C1272 1.389 1_455 S
C1310 C1292 1.392 . S
C1311 C1282 1.392 . S
C1311 C1284 1.389 1_655 S
C1312 C1287 1.395 . S
C1312 C1289 1.391 . S
H1313 C1273 0.951 . S
H1314 C1274 0.950 . S
H1315 C1280 0.949 . S
H1316 C1281 0.950 . S
H1317 C1285 0.951 . S
H1318 C1286 0.950 . S
H1319 C1290 0.949 . S
H1320 C1291 0.950 . S
H1321 C1295 0.950 . S
H1322 C1297 0.950 . S
H1323 C1300 0.950 . S
H1324 C1302 0.950 . S
C1325 C1326 1.443 . S
C1325 N1329 1.376 . S
C1325 C1363 1.389 . S
C1326 C1325 1.443 . S
C1326 C1327 1.340 . S
C1326 H1366 0.951 . S
C1327 C1326 1.340 . S
C1327 C1328 1.439 . S
C1327 H1367 0.950 . S
C1328 C1327 1.439 . S
C1328 N1329 1.374 . S
C1328 C1362 1.395 . S
N1329 C1325 1.376 . S
N1329 C1328 1.374 . S
N1329 Co1330 2.008 . S
Co1330 N1329 2.008 . S
Co1330 N1331 1.995 . S
Co1330 N1336 2.008 . S
Co1330 N1341 1.995 . S
Co1330 N1346 2.282 . S
Co1330 N1352 2.282 . S
N1331 Co1330 1.995 . S
N1331 C1332 1.376 . S
N1331 C1335 1.383 . S
C1332 N1331 1.376 . S
C1332 C1333 1.446 . S
C1332 C1362 1.391 . S
C1333 C1332 1.446 . S
C1333 C1334 1.339 . S
C1333 H1368 0.949 . S
C1334 C1333 1.339 . S
C1334 C1335 1.439 . S
C1334 H1369 0.950 . S
C1335 N1331 1.383 . S
C1335 C1334 1.439 . S
C1335 C1364 1.392 . S
N1336 Co1330 2.008 . S
N1336 C1337 1.376 . S
N1336 C1340 1.374 . S
C1337 N1336 1.376 . S
C1337 C1338 1.443 . S
C1337 C1364 1.389 . S
C1338 C1337 1.443 . S
C1338 C1339 1.340 . S
C1338 H1370 0.951 . S
C1339 C1338 1.340 . S
C1339 C1340 1.439 . S
C1339 H1371 0.950 . S
C1340 N1336 1.374 . S
C1340 C1339 1.439 . S
C1340 C1365 1.395 . S
N1341 Co1330 1.995 . S
N1341 C1342 1.376 . S
N1341 C1345 1.383 . S
C1342 N1341 1.376 . S
C1342 C1343 1.446 . S
C1342 C1365 1.391 . S
C1343 C1342 1.446 . S
C1343 C1344 1.339 . S
C1343 H1372 0.949 . S
C1344 C1343 1.339 . S
C1344 C1345 1.439 . S
C1344 H1373 0.950 . S
C1345 N1341 1.383 . S
C1345 C1344 1.439 . S
C1345 C1363 1.392 . S
N1346 Co1330 2.282 . S
N1346 C1349 1.332 . S
N1346 C1351 1.332 . S
C1347 C1348 1.386 . S
C1347 C1350 1.388 . S
C1348 C1347 1.386 . S
C1348 C1349 1.382 . S
C1348 H1374 0.950 . S
C1349 N1346 1.332 . S
C1349 C1348 1.382 . S
C1349 H1360 0.952 . S
C1350 C1347 1.388 . S
C1350 C1351 1.382 . S
C1350 H1375 0.950 . S
C1351 N1346 1.332 . S
C1351 C1350 1.382 . S
C1351 H1361 0.948 . S
N1352 Co1330 2.282 . S
N1352 C1356 1.332 . S
N1352 C1357 1.332 . S
C1353 C1354 1.388 . S
C1353 C1357 1.382 . S
C1353 H1376 0.950 . S
C1354 C1353 1.388 . S
C1354 C1355 1.386 . S
C1355 C1354 1.386 . S
C1355 C1356 1.382 . S
C1355 H1377 0.950 . S
C1356 N1352 1.332 . S
C1356 C1355 1.382 . S
C1356 H1358 0.952 . S
C1357 N1352 1.332 . S
C1357 C1353 1.382 . S
C1357 H1359 0.948 . S
H1358 C1356 0.952 . S
H1359 C1357 0.948 . S
H1360 C1349 0.952 . S
H1361 C1351 0.948 . S
C1362 C1328 1.395 . S
C1362 C1332 1.391 . S
C1363 C1325 1.389 . S
C1363 C1345 1.392 . S
C1364 C1335 1.392 . S
C1364 C1337 1.389 . S
C1365 C1340 1.395 . S
C1365 C1342 1.391 . S
H1366 C1326 0.951 . S
H1367 C1327 0.950 . S
H1368 C1333 0.949 . S
H1369 C1334 0.950 . S
H1370 C1338 0.951 . S
H1371 C1339 0.950 . S
H1372 C1343 0.949 . S
H1373 C1344 0.950 . S
H1374 C1348 0.950 . S
H1375 C1350 0.950 . S
H1376 C1353 0.950 . S
H1377 C1355 0.950 . S
C1378 C1379 1.443 . S
C1378 N1382 1.376 . S
C1378 C1416 1.389 1_655 S
C1379 C1378 1.443 . S
C1379 C1380 1.340 . S
C1379 H1419 0.951 . S
C1380 C1379 1.340 . S
C1380 C1381 1.439 . S
C1380 H1420 0.950 . S
C1381 C1380 1.439 . S
C1381 N1382 1.374 . S
C1381 C1415 1.395 . S
N1382 C1378 1.376 . S
N1382 C1381 1.374 . S
N1382 Co1383 2.008 . S
Co1383 N1382 2.008 . S
Co1383 N1384 1.995 . S
Co1383 N1389 2.008 1_655 S
Co1383 N1394 1.995 1_655 S
Co1383 N1399 2.282 . S
Co1383 N1405 2.282 1_655 S
N1384 Co1383 1.995 . S
N1384 C1385 1.376 . S
N1384 C1388 1.383 . S
C1385 N1384 1.376 . S
C1385 C1386 1.446 . S
C1385 C1415 1.391 . S
C1386 C1385 1.446 . S
C1386 C1387 1.339 . S
C1386 H1421 0.949 . S
C1387 C1386 1.339 . S
C1387 C1388 1.439 . S
C1387 H1422 0.950 . S
C1388 N1384 1.383 . S
C1388 C1387 1.439 . S
C1388 C1417 1.392 . S
N1389 Co1383 2.008 1_455 S
N1389 C1390 1.376 . S
N1389 C1393 1.374 . S
C1390 N1389 1.376 . S
C1390 C1391 1.443 . S
C1390 C1417 1.389 1_455 S
C1391 C1390 1.443 . S
C1391 C1392 1.340 . S
C1391 H1423 0.951 . S
C1392 C1391 1.340 . S
C1392 C1393 1.439 . S
C1392 H1424 0.950 . S
C1393 N1389 1.374 . S
C1393 C1392 1.439 . S
C1393 C1418 1.395 . S
N1394 Co1383 1.995 1_455 S
N1394 C1395 1.376 . S
N1394 C1398 1.383 . S
C1395 N1394 1.376 . S
C1395 C1396 1.446 . S
C1395 C1418 1.391 . S
C1396 C1395 1.446 . S
C1396 C1397 1.339 . S
C1396 H1425 0.949 . S
C1397 C1396 1.339 . S
C1397 C1398 1.439 . S
C1397 H1426 0.950 . S
C1398 N1394 1.383 . S
C1398 C1397 1.439 . S
C1398 C1416 1.392 . S
N1399 Co1383 2.282 . S
N1399 C1402 1.332 . S
N1399 C1404 1.332 . S
C1400 C1401 1.386 . S
C1400 C1403 1.388 . S
C1401 C1400 1.386 . S
C1401 C1402 1.382 . S
C1401 H1427 0.950 . S
C1402 N1399 1.332 . S
C1402 C1401 1.382 . S
C1402 H1413 0.952 . S
C1403 C1400 1.388 . S
C1403 C1404 1.382 . S
C1403 H1428 0.950 . S
C1404 N1399 1.332 . S
C1404 C1403 1.382 . S
C1404 H1414 0.948 . S
N1405 Co1383 2.282 1_455 S
N1405 C1409 1.332 . S
N1405 C1410 1.332 . S
C1406 C1407 1.388 . S
C1406 C1410 1.382 . S
C1406 H1429 0.950 . S
C1407 C1406 1.388 . S
C1407 C1408 1.386 . S
C1408 C1407 1.386 . S
C1408 C1409 1.382 . S
C1408 H1430 0.950 . S
C1409 N1405 1.332 . S
C1409 C1408 1.382 . S
C1409 H1411 0.952 . S
C1410 N1405 1.332 . S
C1410 C1406 1.382 . S
C1410 H1412 0.948 . S
H1411 C1409 0.952 . S
H1412 C1410 0.948 . S
H1413 C1402 0.952 . S
H1414 C1404 0.948 . S
C1415 C1381 1.395 . S
C1415 C1385 1.391 . S
C1416 C1378 1.389 1_455 S
C1416 C1398 1.392 . S
C1417 C1388 1.392 . S
C1417 C1390 1.389 1_655 S
C1418 C1393 1.395 . S
C1418 C1395 1.391 . S
H1419 C1379 0.951 . S
H1420 C1380 0.950 . S
H1421 C1386 0.949 . S
H1422 C1387 0.950 . S
H1423 C1391 0.951 . S
H1424 C1392 0.950 . S
H1425 C1396 0.949 . S
H1426 C1397 0.950 . S
H1427 C1401 0.950 . S
H1428 C1403 0.950 . S
H1429 C1406 0.950 . S
H1430 C1408 0.950 . S
C1431 C1432 1.443 . S
C1431 N1435 1.376 . S
C1431 C1469 1.389 . S
C1432 C1431 1.443 . S
C1432 C1433 1.340 . S
C1432 H1472 0.951 . S
C1433 C1432 1.340 . S
C1433 C1434 1.439 . S
C1433 H1473 0.950 . S
C1434 C1433 1.439 . S
C1434 N1435 1.374 . S
C1434 C1468 1.395 . S
N1435 C1431 1.376 . S
N1435 C1434 1.374 . S
N1435 Co1436 2.008 . S
Co1436 N1435 2.008 . S
Co1436 N1437 1.995 . S
Co1436 N1442 2.008 . S
Co1436 N1447 1.995 . S
Co1436 N1452 2.282 . S
Co1436 N1458 2.282 . S
N1437 Co1436 1.995 . S
N1437 C1438 1.376 . S
N1437 C1441 1.383 . S
C1438 N1437 1.376 . S
C1438 C1439 1.446 . S
C1438 C1468 1.391 . S
C1439 C1438 1.446 . S
C1439 C1440 1.339 . S
C1439 H1474 0.949 . S
C1440 C1439 1.339 . S
C1440 C1441 1.439 . S
C1440 H1475 0.950 . S
C1441 N1437 1.383 . S
C1441 C1440 1.439 . S
C1441 C1470 1.392 . S
N1442 Co1436 2.008 . S
N1442 C1443 1.376 . S
N1442 C1446 1.374 . S
C1443 N1442 1.376 . S
C1443 C1444 1.443 . S
C1443 C1470 1.389 . S
C1444 C1443 1.443 . S
C1444 C1445 1.340 . S
C1444 H1476 0.951 . S
C1445 C1444 1.340 . S
C1445 C1446 1.439 . S
C1445 H1477 0.950 . S
C1446 N1442 1.374 . S
C1446 C1445 1.439 . S
C1446 C1471 1.395 . S
N1447 Co1436 1.995 . S
N1447 C1448 1.376 . S
N1447 C1451 1.383 . S
C1448 N1447 1.376 . S
C1448 C1449 1.446 . S
C1448 C1471 1.391 . S
C1449 C1448 1.446 . S
C1449 C1450 1.339 . S
C1449 H1478 0.949 . S
C1450 C1449 1.339 . S
C1450 C1451 1.439 . S
C1450 H1479 0.950 . S
C1451 N1447 1.383 . S
C1451 C1450 1.439 . S
C1451 C1469 1.392 . S
N1452 Co1436 2.282 . S
N1452 C1455 1.332 . S
N1452 C1457 1.332 . S
C1453 C1454 1.386 . S
C1453 C1456 1.388 . S
C1454 C1453 1.386 . S
C1454 C1455 1.382 . S
C1454 H1480 0.950 . S
C1455 N1452 1.332 . S
C1455 C1454 1.382 . S
C1455 H1466 0.952 . S
C1456 C1453 1.388 . S
C1456 C1457 1.382 . S
C1456 H1481 0.950 . S
C1457 N1452 1.332 . S
C1457 C1456 1.382 . S
C1457 H1467 0.948 . S
N1458 Co1436 2.282 . S
N1458 C1462 1.332 . S
N1458 C1463 1.332 . S
C1459 C1460 1.388 . S
C1459 C1463 1.382 . S
C1459 H1482 0.950 . S
C1460 C1459 1.388 . S
C1460 C1461 1.386 . S
C1461 C1460 1.386 . S
C1461 C1462 1.382 . S
C1461 H1483 0.950 . S
C1462 N1458 1.332 . S
C1462 C1461 1.382 . S
C1462 H1464 0.952 . S
C1463 N1458 1.332 . S
C1463 C1459 1.382 . S
C1463 H1465 0.948 . S
H1464 C1462 0.952 . S
H1465 C1463 0.948 . S
H1466 C1455 0.952 . S
H1467 C1457 0.948 . S
C1468 C1434 1.395 . S
C1468 C1438 1.391 . S
C1469 C1431 1.389 . S
C1469 C1451 1.392 . S
C1470 C1441 1.392 . S
C1470 C1443 1.389 . S
C1471 C1446 1.395 . S
C1471 C1448 1.391 . S
H1472 C1432 0.951 . S
H1473 C1433 0.950 . S
H1474 C1439 0.949 . S
H1475 C1440 0.950 . S
H1476 C1444 0.951 . S
H1477 C1445 0.950 . S
H1478 C1449 0.949 . S
H1479 C1450 0.950 . S
H1480 C1454 0.950 . S
H1481 C1456 0.950 . S
H1482 C1459 0.950 . S
H1483 C1461 0.950 . S
C1484 C1485 1.443 . S
C1484 N1488 1.376 . S
C1484 C1522 1.389 . S
C1485 C1484 1.443 . S
C1485 C1486 1.340 . S
C1485 H1525 0.951 . S
C1486 C1485 1.340 . S
C1486 C1487 1.439 . S
C1486 H1526 0.950 . S
C1487 C1486 1.439 . S
C1487 N1488 1.374 . S
C1487 C1521 1.395 . S
N1488 C1484 1.376 . S
N1488 C1487 1.374 . S
N1488 Co1489 2.008 1_655 S
Co1489 N1488 2.008 1_455 S
Co1489 N1490 1.995 1_455 S
Co1489 N1495 2.008 . S
Co1489 N1500 1.995 . S
Co1489 N1505 2.282 . S
Co1489 N1511 2.282 1_455 S
N1490 Co1489 1.995 1_655 S
N1490 C1491 1.376 . S
N1490 C1494 1.383 . S
C1491 N1490 1.376 . S
C1491 C1492 1.446 . S
C1491 C1521 1.391 . S
C1492 C1491 1.446 . S
C1492 C1493 1.339 . S
C1492 H1527 0.949 . S
C1493 C1492 1.339 . S
C1493 C1494 1.439 . S
C1493 H1528 0.950 . S
C1494 N1490 1.383 . S
C1494 C1493 1.439 . S
C1494 C1523 1.392 1_655 S
N1495 Co1489 2.008 . S
N1495 C1496 1.376 . S
N1495 C1499 1.374 . S
C1496 N1495 1.376 . S
C1496 C1497 1.443 . S
C1496 C1523 1.389 . S
C1497 C1496 1.443 . S
C1497 C1498 1.340 . S
C1497 H1529 0.951 . S
C1498 C1497 1.340 . S
C1498 C1499 1.439 . S
C1498 H1530 0.950 . S
C1499 N1495 1.374 . S
C1499 C1498 1.439 . S
C1499 C1524 1.395 . S
N1500 Co1489 1.995 . S
N1500 C1501 1.376 . S
N1500 C1504 1.383 . S
C1501 N1500 1.376 . S
C1501 C1502 1.446 . S
C1501 C1524 1.391 . S
C1502 C1501 1.446 . S
C1502 C1503 1.339 . S
C1502 H1531 0.949 . S
C1503 C1502 1.339 . S
C1503 C1504 1.439 . S
C1503 H1532 0.950 . S
C1504 N1500 1.383 . S
C1504 C1503 1.439 . S
C1504 C1522 1.392 1_455 S
N1505 Co1489 2.282 . S
N1505 C1508 1.332 . S
N1505 C1510 1.332 . S
C1506 C1507 1.386 . S
C1506 C1509 1.388 . S
C1507 C1506 1.386 . S
C1507 C1508 1.382 . S
C1507 H1533 0.950 . S
C1508 N1505 1.332 . S
C1508 C1507 1.382 . S
C1508 H1519 0.952 . S
C1509 C1506 1.388 . S
C1509 C1510 1.382 . S
C1509 H1534 0.950 . S
C1510 N1505 1.332 . S
C1510 C1509 1.382 . S
C1510 H1520 0.948 . S
N1511 Co1489 2.282 1_655 S
N1511 C1515 1.332 . S
N1511 C1516 1.332 . S
C1512 C1513 1.388 . S
C1512 C1516 1.382 . S
C1512 H1535 0.950 . S
C1513 C1512 1.388 . S
C1513 C1514 1.386 . S
C1514 C1513 1.386 . S
C1514 C1515 1.382 . S
C1514 H1536 0.950 . S
C1515 N1511 1.332 . S
C1515 C1514 1.382 . S
C1515 H1517 0.952 . S
C1516 N1511 1.332 . S
C1516 C1512 1.382 . S
C1516 H1518 0.948 . S
H1517 C1515 0.952 . S
H1518 C1516 0.948 . S
H1519 C1508 0.952 . S
H1520 C1510 0.948 . S
C1521 C1487 1.395 . S
C1521 C1491 1.391 . S
C1522 C1484 1.389 . S
C1522 C1504 1.392 1_655 S
C1523 C1494 1.392 1_455 S
C1523 C1496 1.389 . S
C1524 C1499 1.395 . S
C1524 C1501 1.391 . S
H1525 C1485 0.951 . S
H1526 C1486 0.950 . S
H1527 C1492 0.949 . S
H1528 C1493 0.950 . S
H1529 C1497 0.951 . S
H1530 C1498 0.950 . S
H1531 C1502 0.949 . S
H1532 C1503 0.950 . S
H1533 C1507 0.950 . S
H1534 C1509 0.950 . S
H1535 C1512 0.950 . S
H1536 C1514 0.950 . S
C1537 C1538 1.443 . S
C1537 N1541 1.376 . S
C1537 C1575 1.389 . S
C1538 C1537 1.443 . S
C1538 C1539 1.340 . S
C1538 H1578 0.951 . S
C1539 C1538 1.340 . S
C1539 C1540 1.439 . S
C1539 H1579 0.950 . S
C1540 C1539 1.439 . S
C1540 N1541 1.374 . S
C1540 C1574 1.395 . S
N1541 C1537 1.376 . S
N1541 C1540 1.374 . S
N1541 Co1542 2.008 . S
Co1542 N1541 2.008 . S
Co1542 N1543 1.995 . S
Co1542 N1548 2.008 . S
Co1542 N1553 1.995 . S
Co1542 N1558 2.282 . S
Co1542 N1564 2.282 . S
N1543 Co1542 1.995 . S
N1543 C1544 1.376 . S
N1543 C1547 1.383 . S
C1544 N1543 1.376 . S
C1544 C1545 1.446 . S
C1544 C1574 1.391 . S
C1545 C1544 1.446 . S
C1545 C1546 1.339 . S
C1545 H1580 0.949 . S
C1546 C1545 1.339 . S
C1546 C1547 1.439 . S
C1546 H1581 0.950 . S
C1547 N1543 1.383 . S
C1547 C1546 1.439 . S
C1547 C1576 1.392 . S
N1548 Co1542 2.008 . S
N1548 C1549 1.376 . S
N1548 C1552 1.374 . S
C1549 N1548 1.376 . S
C1549 C1550 1.443 . S
C1549 C1576 1.389 . S
C1550 C1549 1.443 . S
C1550 C1551 1.340 . S
C1550 H1582 0.951 . S
C1551 C1550 1.340 . S
C1551 C1552 1.439 . S
C1551 H1583 0.950 . S
C1552 N1548 1.374 . S
C1552 C1551 1.439 . S
C1552 C1577 1.395 . S
N1553 Co1542 1.995 . S
N1553 C1554 1.376 . S
N1553 C1557 1.383 . S
C1554 N1553 1.376 . S
C1554 C1555 1.446 . S
C1554 C1577 1.391 . S
C1555 C1554 1.446 . S
C1555 C1556 1.339 . S
C1555 H1584 0.949 . S
C1556 C1555 1.339 . S
C1556 C1557 1.439 . S
C1556 H1585 0.950 . S
C1557 N1553 1.383 . S
C1557 C1556 1.439 . S
C1557 C1575 1.392 . S
N1558 Co1542 2.282 . S
N1558 C1561 1.332 . S
N1558 C1563 1.332 . S
C1559 C1560 1.386 . S
C1559 C1562 1.388 . S
C1560 C1559 1.386 . S
C1560 C1561 1.382 . S
C1560 H1586 0.950 . S
C1561 N1558 1.332 . S
C1561 C1560 1.382 . S
C1561 H1572 0.952 . S
C1562 C1559 1.388 . S
C1562 C1563 1.382 . S
C1562 H1587 0.950 . S
C1563 N1558 1.332 . S
C1563 C1562 1.382 . S
C1563 H1573 0.948 . S
N1564 Co1542 2.282 . S
N1564 C1568 1.332 . S
N1564 C1569 1.332 . S
C1565 C1566 1.388 . S
C1565 C1569 1.382 . S
C1565 H1588 0.950 . S
C1566 C1565 1.388 . S
C1566 C1567 1.386 . S
C1567 C1566 1.386 . S
C1567 C1568 1.382 . S
C1567 H1589 0.950 . S
C1568 N1564 1.332 . S
C1568 C1567 1.382 . S
C1568 H1570 0.952 . S
C1569 N1564 1.332 . S
C1569 C1565 1.382 . S
C1569 H1571 0.948 . S
H1570 C1568 0.952 . S
H1571 C1569 0.948 . S
H1572 C1561 0.952 . S
H1573 C1563 0.948 . S
C1574 C1540 1.395 . S
C1574 C1544 1.391 . S
C1575 C1537 1.389 . S
C1575 C1557 1.392 . S
C1576 C1547 1.392 . S
C1576 C1549 1.389 . S
C1577 C1552 1.395 . S
C1577 C1554 1.391 . S
H1578 C1538 0.951 . S
H1579 C1539 0.950 . S
H1580 C1545 0.949 . S
H1581 C1546 0.950 . S
H1582 C1550 0.951 . S
H1583 C1551 0.950 . S
H1584 C1555 0.949 . S
H1585 C1556 0.950 . S
H1586 C1560 0.950 . S
H1587 C1562 0.950 . S
H1588 C1565 0.950 . S
H1589 C1567 0.950 . S
C1590 C1591 1.443 . S
C1590 N1594 1.376 . S
C1590 C1628 1.389 . S
C1591 C1590 1.443 . S
C1591 C1592 1.340 . S
C1591 H1631 0.951 . S
C1592 C1591 1.340 . S
C1592 C1593 1.439 . S
C1592 H1632 0.950 . S
C1593 C1592 1.439 . S
C1593 N1594 1.374 . S
C1593 C1627 1.395 . S
N1594 C1590 1.376 . S
N1594 C1593 1.374 . S
N1594 Co1595 2.008 1_655 S
Co1595 N1594 2.008 1_455 S
Co1595 N1596 1.995 1_455 S
Co1595 N1601 2.008 . S
Co1595 N1606 1.995 . S
Co1595 N1611 2.282 . S
Co1595 N1617 2.282 1_455 S
N1596 Co1595 1.995 1_655 S
N1596 C1597 1.376 . S
N1596 C1600 1.383 . S
C1597 N1596 1.376 . S
C1597 C1598 1.446 . S
C1597 C1627 1.391 . S
C1598 C1597 1.446 . S
C1598 C1599 1.339 . S
C1598 H1633 0.949 . S
C1599 C1598 1.339 . S
C1599 C1600 1.439 . S
C1599 H1634 0.950 . S
C1600 N1596 1.383 . S
C1600 C1599 1.439 . S
C1600 C1629 1.392 1_655 S
N1601 Co1595 2.008 . S
N1601 C1602 1.376 . S
N1601 C1605 1.374 . S
C1602 N1601 1.376 . S
C1602 C1603 1.443 . S
C1602 C1629 1.389 . S
C1603 C1602 1.443 . S
C1603 C1604 1.340 . S
C1603 H1635 0.951 . S
C1604 C1603 1.340 . S
C1604 C1605 1.439 . S
C1604 H1636 0.950 . S
C1605 N1601 1.374 . S
C1605 C1604 1.439 . S
C1605 C1630 1.395 . S
N1606 Co1595 1.995 . S
N1606 C1607 1.376 . S
N1606 C1610 1.383 . S
C1607 N1606 1.376 . S
C1607 C1608 1.446 . S
C1607 C1630 1.391 . S
C1608 C1607 1.446 . S
C1608 C1609 1.339 . S
C1608 H1637 0.949 . S
C1609 C1608 1.339 . S
C1609 C1610 1.439 . S
C1609 H1638 0.950 . S
C1610 N1606 1.383 . S
C1610 C1609 1.439 . S
C1610 C1628 1.392 1_455 S
N1611 Co1595 2.282 . S
N1611 C1614 1.332 . S
N1611 C1616 1.332 . S
C1612 C1613 1.386 . S
C1612 C1615 1.388 . S
C1613 C1612 1.386 . S
C1613 C1614 1.382 . S
C1613 H1639 0.950 . S
C1614 N1611 1.332 . S
C1614 C1613 1.382 . S
C1614 H1625 0.952 . S
C1615 C1612 1.388 . S
C1615 C1616 1.382 . S
C1615 H1640 0.950 . S
C1616 N1611 1.332 . S
C1616 C1615 1.382 . S
C1616 H1626 0.948 . S
N1617 Co1595 2.282 1_655 S
N1617 C1621 1.332 . S
N1617 C1622 1.332 . S
C1618 C1619 1.388 . S
C1618 C1622 1.382 . S
C1618 H1641 0.950 . S
C1619 C1618 1.388 . S
C1619 C1620 1.386 . S
C1620 C1619 1.386 . S
C1620 C1621 1.382 . S
C1620 H1642 0.950 . S
C1621 N1617 1.332 . S
C1621 C1620 1.382 . S
C1621 H1623 0.952 . S
C1622 N1617 1.332 . S
C1622 C1618 1.382 . S
C1622 H1624 0.948 . S
H1623 C1621 0.952 . S
H1624 C1622 0.948 . S
H1625 C1614 0.952 . S
H1626 C1616 0.948 . S
C1627 C1593 1.395 . S
C1627 C1597 1.391 . S
C1628 C1590 1.389 . S
C1628 C1610 1.392 1_655 S
C1629 C1600 1.392 1_455 S
C1629 C1602 1.389 . S
C1630 C1605 1.395 . S
C1630 C1607 1.391 . S
H1631 C1591 0.951 . S
H1632 C1592 0.950 . S
H1633 C1598 0.949 . S
H1634 C1599 0.950 . S
H1635 C1603 0.951 . S
H1636 C1604 0.950 . S
H1637 C1608 0.949 . S
H1638 C1609 0.950 . S
H1639 C1613 0.950 . S
H1640 C1615 0.950 . S
H1641 C1618 0.950 . S
H1642 C1620 0.950 . S
C1643 C1644 1.443 . S
C1643 N1647 1.376 . S
C1643 C1681 1.389 . S
C1644 C1643 1.443 . S
C1644 C1645 1.340 . S
C1644 H1684 0.951 . S
C1645 C1644 1.340 . S
C1645 C1646 1.439 . S
C1645 H1685 0.950 . S
C1646 C1645 1.439 . S
C1646 N1647 1.374 . S
C1646 C1680 1.395 . S
N1647 C1643 1.376 . S
N1647 C1646 1.374 . S
N1647 Co1648 2.008 . S
Co1648 N1647 2.008 . S
Co1648 N1649 1.995 . S
Co1648 N1654 2.008 . S
Co1648 N1659 1.995 . S
Co1648 N1664 2.282 . S
Co1648 N1670 2.282 . S
N1649 Co1648 1.995 . S
N1649 C1650 1.376 . S
N1649 C1653 1.383 . S
C1650 N1649 1.376 . S
C1650 C1651 1.446 . S
C1650 C1680 1.391 . S
C1651 C1650 1.446 . S
C1651 C1652 1.339 . S
C1651 H1686 0.949 . S
C1652 C1651 1.339 . S
C1652 C1653 1.439 . S
C1652 H1687 0.950 . S
C1653 N1649 1.383 . S
C1653 C1652 1.439 . S
C1653 C1682 1.392 . S
N1654 Co1648 2.008 . S
N1654 C1655 1.376 . S
N1654 C1658 1.374 . S
C1655 N1654 1.376 . S
C1655 C1656 1.443 . S
C1655 C1682 1.389 . S
C1656 C1655 1.443 . S
C1656 C1657 1.340 . S
C1656 H1688 0.951 . S
C1657 C1656 1.340 . S
C1657 C1658 1.439 . S
C1657 H1689 0.950 . S
C1658 N1654 1.374 . S
C1658 C1657 1.439 . S
C1658 C1683 1.395 . S
N1659 Co1648 1.995 . S
N1659 C1660 1.376 . S
N1659 C1663 1.383 . S
C1660 N1659 1.376 . S
C1660 C1661 1.446 . S
C1660 C1683 1.391 . S
C1661 C1660 1.446 . S
C1661 C1662 1.339 . S
C1661 H1690 0.949 . S
C1662 C1661 1.339 . S
C1662 C1663 1.439 . S
C1662 H1691 0.950 . S
C1663 N1659 1.383 . S
C1663 C1662 1.439 . S
C1663 C1681 1.392 . S
N1664 Co1648 2.282 . S
N1664 C1667 1.332 . S
N1664 C1669 1.332 . S
C1665 C1666 1.386 . S
C1665 C1668 1.388 . S
C1666 C1665 1.386 . S
C1666 C1667 1.382 . S
C1666 H1692 0.950 . S
C1667 N1664 1.332 . S
C1667 C1666 1.382 . S
C1667 H1678 0.952 . S
C1668 C1665 1.388 . S
C1668 C1669 1.382 . S
C1668 H1693 0.950 . S
C1669 N1664 1.332 . S
C1669 C1668 1.382 . S
C1669 H1679 0.948 . S
N1670 Co1648 2.282 . S
N1670 C1674 1.332 . S
N1670 C1675 1.332 . S
C1671 C1672 1.388 . S
C1671 C1675 1.382 . S
C1671 H1694 0.950 . S
C1672 C1671 1.388 . S
C1672 C1673 1.386 . S
C1673 C1672 1.386 . S
C1673 C1674 1.382 . S
C1673 H1695 0.950 . S
C1674 N1670 1.332 . S
C1674 C1673 1.382 . S
C1674 H1676 0.952 . S
C1675 N1670 1.332 . S
C1675 C1671 1.382 . S
C1675 H1677 0.948 . S
H1676 C1674 0.952 . S
H1677 C1675 0.948 . S
H1678 C1667 0.952 . S
H1679 C1669 0.948 . S
C1680 C1646 1.395 . S
C1680 C1650 1.391 . S
C1681 C1643 1.389 . S
C1681 C1663 1.392 . S
C1682 C1653 1.392 . S
C1682 C1655 1.389 . S
C1683 C1658 1.395 . S
C1683 C1660 1.391 . S
H1684 C1644 0.951 . S
H1685 C1645 0.950 . S
H1686 C1651 0.949 . S
H1687 C1652 0.950 . S
H1688 C1656 0.951 . S
H1689 C1657 0.950 . S
H1690 C1661 0.949 . S
H1691 C1662 0.950 . S
H1692 C1666 0.950 . S
H1693 C1668 0.950 . S
H1694 C1671 0.950 . S
H1695 C1673 0.950 . S
C1696 C1697 1.391 . S
C1696 C1698 1.394 . S
C1696 H1712 0.931 . S
C1697 C1696 1.391 . S
C1697 C1701 1.376 . S
C1698 C1696 1.394 . S
C1698 C1699 1.369 . S
C1698 C1702 1.531 . S
C1699 C1698 1.369 . S
C1699 C1700 1.410 . S
C1699 C1707 1.503 . S
C1700 C1699 1.410 . S
C1700 C1701 1.392 . S
C1700 C1703 1.511 . S
C1701 C1697 1.376 . S
C1701 C1700 1.392 . S
C1701 H1713 0.929 . S
C1702 C1698 1.531 . S
C1702 H1714 0.960 . S
C1702 H1715 0.962 . S
C1702 H1716 0.960 . S
C1703 C1700 1.511 . S
C1703 H1717 0.961 . S
C1703 H1718 0.961 . S
C1703 H1719 0.961 . S
C1704 C1705 1.370 . S
C1704 C1706 1.363 . S
C1704 H1720 0.931 . S
C1705 C1704 1.370 . S
C1705 C1709 1.408 . S
C1706 C1704 1.363 . S
C1706 C1707 1.370 . S
C1706 C1710 1.524 . S
C1707 C1699 1.503 . S
C1707 C1706 1.370 . S
C1707 C1708 1.403 . S
C1708 C1707 1.403 . S
C1708 C1709 1.404 . S
C1708 C1711 1.539 . S
C1709 C1705 1.408 . S
C1709 C1708 1.404 . S
C1709 H1721 0.930 . S
C1710 C1706 1.524 . S
C1710 H1722 0.956 . S
C1710 H1723 0.961 . S
C1710 H1724 0.961 . S
C1711 C1708 1.539 . S
C1711 H1725 0.958 . S
C1711 H1726 0.961 . S
C1711 H1727 0.960 . S
H1712 C1696 0.931 . S
H1713 C1701 0.929 . S
H1714 C1702 0.960 . S
H1715 C1702 0.962 . S
H1716 C1702 0.960 . S
H1717 C1703 0.961 . S
H1718 C1703 0.961 . S
H1719 C1703 0.961 . S
H1720 C1704 0.931 . S
H1721 C1709 0.930 . S
H1722 C1710 0.956 . S
H1723 C1710 0.961 . S
H1724 C1710 0.961 . S
H1725 C1711 0.958 . S
H1726 C1711 0.961 . S
H1727 C1711 0.960 . S
C1728 C1729 1.391 . S
C1728 C1730 1.394 . S
C1728 H1744 0.931 . S
C1729 C1728 1.391 . S
C1729 C1733 1.376 . S
C1730 C1728 1.394 . S
C1730 C1731 1.369 . S
C1730 C1734 1.531 . S
C1731 C1730 1.369 . S
C1731 C1732 1.410 . S
C1731 C1739 1.503 . S
C1732 C1731 1.410 . S
C1732 C1733 1.392 . S
C1732 C1735 1.511 . S
C1733 C1729 1.376 . S
C1733 C1732 1.392 . S
C1733 H1745 0.929 . S
C1734 C1730 1.531 . S
C1734 H1746 0.960 . S
C1734 H1747 0.962 . S
C1734 H1748 0.960 . S
C1735 C1732 1.511 . S
C1735 H1749 0.961 . S
C1735 H1750 0.961 . S
C1735 H1751 0.961 . S
C1736 C1737 1.370 . S
C1736 C1738 1.363 . S
C1736 H1752 0.931 . S
C1737 C1736 1.370 . S
C1737 C1741 1.408 . S
C1738 C1736 1.363 . S
C1738 C1739 1.370 . S
C1738 C1742 1.524 . S
C1739 C1731 1.503 . S
C1739 C1738 1.370 . S
C1739 C1740 1.403 . S
C1740 C1739 1.403 . S
C1740 C1741 1.404 . S
C1740 C1743 1.539 . S
C1741 C1737 1.408 . S
C1741 C1740 1.404 . S
C1741 H1753 0.930 . S
C1742 C1738 1.524 . S
C1742 H1754 0.956 . S
C1742 H1755 0.961 . S
C1742 H1756 0.961 . S
C1743 C1740 1.539 . S
C1743 H1757 0.958 . S
C1743 H1758 0.961 . S
C1743 H1759 0.960 . S
H1744 C1728 0.931 . S
H1745 C1733 0.929 . S
H1746 C1734 0.960 . S
H1747 C1734 0.962 . S
H1748 C1734 0.960 . S
H1749 C1735 0.961 . S
H1750 C1735 0.961 . S
H1751 C1735 0.961 . S
H1752 C1736 0.931 . S
H1753 C1741 0.930 . S
H1754 C1742 0.956 . S
H1755 C1742 0.961 . S
H1756 C1742 0.961 . S
H1757 C1743 0.958 . S
H1758 C1743 0.961 . S
H1759 C1743 0.960 . S
C1760 C1761 1.391 . S
C1760 C1762 1.394 . S
C1760 H1776 0.931 . S
C1761 C1760 1.391 . S
C1761 C1765 1.376 . S
C1762 C1760 1.394 . S
C1762 C1763 1.369 . S
C1762 C1766 1.531 . S
C1763 C1762 1.369 . S
C1763 C1764 1.410 . S
C1763 C1771 1.503 . S
C1764 C1763 1.410 . S
C1764 C1765 1.392 . S
C1764 C1767 1.511 . S
C1765 C1761 1.376 . S
C1765 C1764 1.392 . S
C1765 H1777 0.929 . S
C1766 C1762 1.531 . S
C1766 H1778 0.960 . S
C1766 H1779 0.962 . S
C1766 H1780 0.960 . S
C1767 C1764 1.511 . S
C1767 H1781 0.961 . S
C1767 H1782 0.961 . S
C1767 H1783 0.961 . S
C1768 C1769 1.370 . S
C1768 C1770 1.363 . S
C1768 H1784 0.931 . S
C1769 C1768 1.370 . S
C1769 C1773 1.408 . S
C1770 C1768 1.363 . S
C1770 C1771 1.370 . S
C1770 C1774 1.524 . S
C1771 C1763 1.503 . S
C1771 C1770 1.370 . S
C1771 C1772 1.403 . S
C1772 C1771 1.403 . S
C1772 C1773 1.404 . S
C1772 C1775 1.539 . S
C1773 C1769 1.408 . S
C1773 C1772 1.404 . S
C1773 H1785 0.930 . S
C1774 C1770 1.524 . S
C1774 H1786 0.956 . S
C1774 H1787 0.961 . S
C1774 H1788 0.961 . S
C1775 C1772 1.539 . S
C1775 H1789 0.958 . S
C1775 H1790 0.961 . S
C1775 H1791 0.960 . S
H1776 C1760 0.931 . S
H1777 C1765 0.929 . S
H1778 C1766 0.960 . S
H1779 C1766 0.962 . S
H1780 C1766 0.960 . S
H1781 C1767 0.961 . S
H1782 C1767 0.961 . S
H1783 C1767 0.961 . S
H1784 C1768 0.931 . S
H1785 C1773 0.930 . S
H1786 C1774 0.956 . S
H1787 C1774 0.961 . S
H1788 C1774 0.961 . S
H1789 C1775 0.958 . S
H1790 C1775 0.961 . S
H1791 C1775 0.960 . S
C1792 C1793 1.391 . S
C1792 C1794 1.394 . S
C1792 H1808 0.931 . S
C1793 C1792 1.391 . S
C1793 C1797 1.376 . S
C1794 C1792 1.394 . S
C1794 C1795 1.369 . S
C1794 C1798 1.531 . S
C1795 C1794 1.369 . S
C1795 C1796 1.410 . S
C1795 C1803 1.503 . S
C1796 C1795 1.410 . S
C1796 C1797 1.392 . S
C1796 C1799 1.511 . S
C1797 C1793 1.376 . S
C1797 C1796 1.392 . S
C1797 H1809 0.929 . S
C1798 C1794 1.531 . S
C1798 H1810 0.960 . S
C1798 H1811 0.962 . S
C1798 H1812 0.960 . S
C1799 C1796 1.511 . S
C1799 H1813 0.961 . S
C1799 H1814 0.961 . S
C1799 H1815 0.961 . S
C1800 C1801 1.370 . S
C1800 C1802 1.363 . S
C1800 H1816 0.931 . S
C1801 C1800 1.370 . S
C1801 C1805 1.408 . S
C1802 C1800 1.363 . S
C1802 C1803 1.370 . S
C1802 C1806 1.524 . S
C1803 C1795 1.503 . S
C1803 C1802 1.370 . S
C1803 C1804 1.403 . S
C1804 C1803 1.403 . S
C1804 C1805 1.404 . S
C1804 C1807 1.539 . S
C1805 C1801 1.408 . S
C1805 C1804 1.404 . S
C1805 H1817 0.930 . S
C1806 C1802 1.524 . S
C1806 H1818 0.956 . S
C1806 H1819 0.961 . S
C1806 H1820 0.961 . S
C1807 C1804 1.539 . S
C1807 H1821 0.958 . S
C1807 H1822 0.961 . S
C1807 H1823 0.960 . S
H1808 C1792 0.931 . S
H1809 C1797 0.929 . S
H1810 C1798 0.960 . S
H1811 C1798 0.962 . S
H1812 C1798 0.960 . S
H1813 C1799 0.961 . S
H1814 C1799 0.961 . S
H1815 C1799 0.961 . S
H1816 C1800 0.931 . S
H1817 C1805 0.930 . S
H1818 C1806 0.956 . S
H1819 C1806 0.961 . S
H1820 C1806 0.961 . S
H1821 C1807 0.958 . S
H1822 C1807 0.961 . S
H1823 C1807 0.960 . S
C1824 C1825 1.391 . S
C1824 C1826 1.394 . S
C1824 H1840 0.931 . S
C1825 C1824 1.391 . S
C1825 C1829 1.376 . S
C1826 C1824 1.394 . S
C1826 C1827 1.369 . S
C1826 C1830 1.531 . S
C1827 C1826 1.369 . S
C1827 C1828 1.410 . S
C1827 C1835 1.503 . S
C1828 C1827 1.410 . S
C1828 C1829 1.392 . S
C1828 C1831 1.511 . S
C1829 C1825 1.376 . S
C1829 C1828 1.392 . S
C1829 H1841 0.929 . S
C1830 C1826 1.531 . S
C1830 H1842 0.960 . S
C1830 H1843 0.962 . S
C1830 H1844 0.960 . S
C1831 C1828 1.511 . S
C1831 H1845 0.961 . S
C1831 H1846 0.961 . S
C1831 H1847 0.961 . S
C1832 C1833 1.370 . S
C1832 C1834 1.363 . S
C1832 H1848 0.931 . S
C1833 C1832 1.370 . S
C1833 C1837 1.408 . S
C1834 C1832 1.363 . S
C1834 C1835 1.370 . S
C1834 C1838 1.524 . S
C1835 C1827 1.503 . S
C1835 C1834 1.370 . S
C1835 C1836 1.403 . S
C1836 C1835 1.403 . S
C1836 C1837 1.404 . S
C1836 C1839 1.539 . S
C1837 C1833 1.408 . S
C1837 C1836 1.404 . S
C1837 H1849 0.930 . S
C1838 C1834 1.524 . S
C1838 H1850 0.956 . S
C1838 H1851 0.961 . S
C1838 H1852 0.961 . S
C1839 C1836 1.539 . S
C1839 H1853 0.958 . S
C1839 H1854 0.961 . S
C1839 H1855 0.960 . S
H1840 C1824 0.931 . S
H1841 C1829 0.929 . S
H1842 C1830 0.960 . S
H1843 C1830 0.962 . S
H1844 C1830 0.960 . S
H1845 C1831 0.961 . S
H1846 C1831 0.961 . S
H1847 C1831 0.961 . S
H1848 C1832 0.931 . S
H1849 C1837 0.930 . S
H1850 C1838 0.956 . S
H1851 C1838 0.961 . S
H1852 C1838 0.961 . S
H1853 C1839 0.958 . S
H1854 C1839 0.961 . S
H1855 C1839 0.960 . S
C1856 C1857 1.391 . S
C1856 C1858 1.394 . S
C1856 H1872 0.931 . S
C1857 C1856 1.391 . S
C1857 C1861 1.376 . S
C1858 C1856 1.394 . S
C1858 C1859 1.369 . S
C1858 C1862 1.531 . S
C1859 C1858 1.369 . S
C1859 C1860 1.410 . S
C1859 C1867 1.503 . S
C1860 C1859 1.410 . S
C1860 C1861 1.392 . S
C1860 C1863 1.511 . S
C1861 C1857 1.376 . S
C1861 C1860 1.392 . S
C1861 H1873 0.929 . S
C1862 C1858 1.531 . S
C1862 H1874 0.960 . S
C1862 H1875 0.962 . S
C1862 H1876 0.960 . S
C1863 C1860 1.511 . S
C1863 H1877 0.961 . S
C1863 H1878 0.961 . S
C1863 H1879 0.961 . S
C1864 C1865 1.370 . S
C1864 C1866 1.363 . S
C1864 H1880 0.931 . S
C1865 C1864 1.370 . S
C1865 C1869 1.408 . S
C1866 C1864 1.363 . S
C1866 C1867 1.370 . S
C1866 C1870 1.524 . S
C1867 C1859 1.503 . S
C1867 C1866 1.370 . S
C1867 C1868 1.403 . S
C1868 C1867 1.403 . S
C1868 C1869 1.404 . S
C1868 C1871 1.539 . S
C1869 C1865 1.408 . S
C1869 C1868 1.404 . S
C1869 H1881 0.930 . S
C1870 C1866 1.524 . S
C1870 H1882 0.956 . S
C1870 H1883 0.961 . S
C1870 H1884 0.961 . S
C1871 C1868 1.539 . S
C1871 H1885 0.958 . S
C1871 H1886 0.961 . S
C1871 H1887 0.960 . S
H1872 C1856 0.931 . S
H1873 C1861 0.929 . S
H1874 C1862 0.960 . S
H1875 C1862 0.962 . S
H1876 C1862 0.960 . S
H1877 C1863 0.961 . S
H1878 C1863 0.961 . S
H1879 C1863 0.961 . S
H1880 C1864 0.931 . S
H1881 C1869 0.930 . S
H1882 C1870 0.956 . S
H1883 C1870 0.961 . S
H1884 C1870 0.961 . S
H1885 C1871 0.958 . S
H1886 C1871 0.961 . S
H1887 C1871 0.960 . S
C1888 C1889 1.391 . S
C1888 C1890 1.394 . S
C1888 H1904 0.931 . S
C1889 C1888 1.391 . S
C1889 C1893 1.376 . S
C1890 C1888 1.394 . S
C1890 C1891 1.369 . S
C1890 C1894 1.531 . S
C1891 C1890 1.369 . S
C1891 C1892 1.410 . S
C1891 C1899 1.503 . S
C1892 C1891 1.410 . S
C1892 C1893 1.392 . S
C1892 C1895 1.511 . S
C1893 C1889 1.376 . S
C1893 C1892 1.392 . S
C1893 H1905 0.929 . S
C1894 C1890 1.531 . S
C1894 H1906 0.960 . S
C1894 H1907 0.962 . S
C1894 H1908 0.960 . S
C1895 C1892 1.511 . S
C1895 H1909 0.961 . S
C1895 H1910 0.961 . S
C1895 H1911 0.961 . S
C1896 C1897 1.370 . S
C1896 C1898 1.363 . S
C1896 H1912 0.931 . S
C1897 C1896 1.370 . S
C1897 C1901 1.408 . S
C1898 C1896 1.363 . S
C1898 C1899 1.370 . S
C1898 C1902 1.524 . S
C1899 C1891 1.503 . S
C1899 C1898 1.370 . S
C1899 C1900 1.403 . S
C1900 C1899 1.403 . S
C1900 C1901 1.404 . S
C1900 C1903 1.539 . S
C1901 C1897 1.408 . S
C1901 C1900 1.404 . S
C1901 H1913 0.930 . S
C1902 C1898 1.524 . S
C1902 H1914 0.956 . S
C1902 H1915 0.961 . S
C1902 H1916 0.961 . S
C1903 C1900 1.539 . S
C1903 H1917 0.958 . S
C1903 H1918 0.961 . S
C1903 H1919 0.960 . S
H1904 C1888 0.931 . S
H1905 C1893 0.929 . S
H1906 C1894 0.960 . S
H1907 C1894 0.962 . S
H1908 C1894 0.960 . S
H1909 C1895 0.961 . S
H1910 C1895 0.961 . S
H1911 C1895 0.961 . S
H1912 C1896 0.931 . S
H1913 C1901 0.930 . S
H1914 C1902 0.956 . S
H1915 C1902 0.961 . S
H1916 C1902 0.961 . S
H1917 C1903 0.958 . S
H1918 C1903 0.961 . S
H1919 C1903 0.960 . S
C1920 C1921 1.391 . S
C1920 C1922 1.394 . S
C1920 H1936 0.931 . S
C1921 C1920 1.391 . S
C1921 C1925 1.376 . S
C1922 C1920 1.394 . S
C1922 C1923 1.369 . S
C1922 C1926 1.531 . S
C1923 C1922 1.369 . S
C1923 C1924 1.410 . S
C1923 C1931 1.503 . S
C1924 C1923 1.410 . S
C1924 C1925 1.392 . S
C1924 C1927 1.511 . S
C1925 C1921 1.376 . S
C1925 C1924 1.392 . S
C1925 H1937 0.929 . S
C1926 C1922 1.531 . S
C1926 H1938 0.960 . S
C1926 H1939 0.962 . S
C1926 H1940 0.960 . S
C1927 C1924 1.511 . S
C1927 H1941 0.961 . S
C1927 H1942 0.961 . S
C1927 H1943 0.961 . S
C1928 C1929 1.370 . S
C1928 C1930 1.363 . S
C1928 H1944 0.931 . S
C1929 C1928 1.370 . S
C1929 C1933 1.408 . S
C1930 C1928 1.363 . S
C1930 C1931 1.370 . S
C1930 C1934 1.524 . S
C1931 C1923 1.503 . S
C1931 C1930 1.370 . S
C1931 C1932 1.403 . S
C1932 C1931 1.403 . S
C1932 C1933 1.404 . S
C1932 C1935 1.539 . S
C1933 C1929 1.408 . S
C1933 C1932 1.404 . S
C1933 H1945 0.930 . S
C1934 C1930 1.524 . S
C1934 H1946 0.956 . S
C1934 H1947 0.961 . S
C1934 H1948 0.961 . S
C1935 C1932 1.539 . S
C1935 H1949 0.958 . S
C1935 H1950 0.961 . S
C1935 H1951 0.960 . S
H1936 C1920 0.931 . S
H1937 C1925 0.929 . S
H1938 C1926 0.960 . S
H1939 C1926 0.962 . S
H1940 C1926 0.960 . S
H1941 C1927 0.961 . S
H1942 C1927 0.961 . S
H1943 C1927 0.961 . S
H1944 C1928 0.931 . S
H1945 C1933 0.930 . S
H1946 C1934 0.956 . S
H1947 C1934 0.961 . S
H1948 C1934 0.961 . S
H1949 C1935 0.958 . S
H1950 C1935 0.961 . S
H1951 C1935 0.960 . S
C1952 C1953 1.391 . S
C1952 C1954 1.394 . S
C1952 H1968 0.931 . S
C1953 C1952 1.391 . S
C1953 C1957 1.376 1_455 S
C1954 C1952 1.394 . S
C1954 C1955 1.379 . S
C1954 C1958 1.531 . S
C1955 C1954 1.379 . S
C1955 C1956 1.400 1_455 S
C1955 C1963 1.504 . S
C1956 C1955 1.400 1_655 S
C1956 C1957 1.392 . S
C1956 C1959 1.511 . S
C1957 C1953 1.376 1_655 S
C1957 C1956 1.392 . S
C1957 H1969 0.929 . S
C1958 C1954 1.531 . S
C1958 H1970 0.960 . S
C1958 H1971 0.962 . S
C1958 H1972 0.960 . S
C1959 C1956 1.511 . S
C1959 H1973 0.961 . S
C1959 H1974 0.961 . S
C1959 H1975 0.961 . S
C1960 C1961 1.370 . S
C1960 C1962 1.363 . S
C1960 H1976 0.931 . S
C1961 C1960 1.370 . S
C1961 C1965 1.408 1_455 S
C1962 C1960 1.363 . S
C1962 C1963 1.370 . S
C1962 C1966 1.524 . S
C1963 C1955 1.504 . S
C1963 C1962 1.370 . S
C1963 C1964 1.403 1_455 S
C1964 C1963 1.403 1_655 S
C1964 C1965 1.404 . S
C1964 C1967 1.539 . S
C1965 C1961 1.408 1_655 S
C1965 C1964 1.404 . S
C1965 H1977 0.930 . S
C1966 C1962 1.524 . S
C1966 H1978 0.956 . S
C1966 H1979 0.961 . S
C1966 H1980 0.961 . S
C1967 C1964 1.539 . S
C1967 H1981 0.958 . S
C1967 H1982 0.961 . S
C1967 H1983 0.960 . S
H1968 C1952 0.931 . S
H1969 C1957 0.929 . S
H1970 C1958 0.960 . S
H1971 C1958 0.962 . S
H1972 C1958 0.960 . S
H1973 C1959 0.961 . S
H1974 C1959 0.961 . S
H1975 C1959 0.961 . S
H1976 C1960 0.931 . S
H1977 C1965 0.930 . S
H1978 C1966 0.956 . S
H1979 C1966 0.961 . S
H1980 C1966 0.961 . S
H1981 C1967 0.958 . S
H1982 C1967 0.961 . S
H1983 C1967 0.960 . S
C1984 C1985 1.391 . S
C1984 C1986 1.394 . S
C1984 H2000 0.931 . S
C1985 C1984 1.391 . S
C1985 C1989 1.376 . S
C1986 C1984 1.394 . S
C1986 C1987 1.369 . S
C1986 C1990 1.531 . S
C1987 C1986 1.369 . S
C1987 C1988 1.410 . S
C1987 C1995 1.503 . S
C1988 C1987 1.410 . S
C1988 C1989 1.392 . S
C1988 C1991 1.511 . S
C1989 C1985 1.376 . S
C1989 C1988 1.392 . S
C1989 H2001 0.929 . S
C1990 C1986 1.531 . S
C1990 H2002 0.960 . S
C1990 H2003 0.962 . S
C1990 H2004 0.960 . S
C1991 C1988 1.511 . S
C1991 H2005 0.961 . S
C1991 H2006 0.961 . S
C1991 H2007 0.961 . S
C1992 C1993 1.370 . S
C1992 C1994 1.363 . S
C1992 H2008 0.931 . S
C1993 C1992 1.370 . S
C1993 C1997 1.408 . S
C1994 C1992 1.363 . S
C1994 C1995 1.370 . S
C1994 C1998 1.524 . S
C1995 C1987 1.503 . S
C1995 C1994 1.370 . S
C1995 C1996 1.403 . S
C1996 C1995 1.403 . S
C1996 C1997 1.404 . S
C1996 C1999 1.539 . S
C1997 C1993 1.408 . S
C1997 C1996 1.404 . S
C1997 H2009 0.930 . S
C1998 C1994 1.524 . S
C1998 H2010 0.956 . S
C1998 H2011 0.961 . S
C1998 H2012 0.961 . S
C1999 C1996 1.539 . S
C1999 H2013 0.958 . S
C1999 H2014 0.961 . S
C1999 H2015 0.960 . S
H2000 C1984 0.931 . S
H2001 C1989 0.929 . S
H2002 C1990 0.960 . S
H2003 C1990 0.962 . S
H2004 C1990 0.960 . S
H2005 C1991 0.961 . S
H2006 C1991 0.961 . S
H2007 C1991 0.961 . S
H2008 C1992 0.931 . S
H2009 C1997 0.930 . S
H2010 C1998 0.956 . S
H2011 C1998 0.961 . S
H2012 C1998 0.961 . S
H2013 C1999 0.958 . S
H2014 C1999 0.961 . S
H2015 C1999 0.960 . S
C2016 C2017 1.391 1_455 S
C2016 C2018 1.394 . S
C2016 H2032 0.931 . S
C2017 C2016 1.391 1_655 S
C2017 C2021 1.376 . S
C2018 C2016 1.394 . S
C2018 C2019 1.369 1_455 S
C2018 C2022 1.531 . S
C2019 C2018 1.369 1_655 S
C2019 C2020 1.410 . S
C2019 C2027 1.503 . S
C2020 C2019 1.410 . S
C2020 C2021 1.392 . S
C2020 C2023 1.511 . S
C2021 C2017 1.376 . S
C2021 C2020 1.392 . S
C2021 H2033 0.929 . S
C2022 C2018 1.531 . S
C2022 H2034 0.960 . S
C2022 H2035 0.962 . S
C2022 H2036 0.960 . S
C2023 C2020 1.511 . S
C2023 H2037 0.961 . S
C2023 H2038 0.961 . S
C2023 H2039 0.961 . S
C2024 C2025 1.370 . S
C2024 C2026 1.363 . S
C2024 H2040 0.931 . S
C2025 C2024 1.370 . S
C2025 C2029 1.404 1_655 S
C2026 C2024 1.363 . S
C2026 C2027 1.370 . S
C2026 C2030 1.524 . S
C2027 C2019 1.503 . S
C2027 C2026 1.370 . S
C2027 C2028 1.394 1_655 S
C2028 C2027 1.394 1_455 S
C2028 C2029 1.403 . S
C2028 C2031 1.548 . S
C2029 C2025 1.404 1_455 S
C2029 C2028 1.403 . S
C2029 H2041 0.934 . S
C2030 C2026 1.524 . S
C2030 H2042 0.956 1_655 S
C2030 H2043 0.961 . S
C2030 H2044 0.961 . S
C2031 C2028 1.548 . S
C2031 H2045 0.958 . S
C2031 H2046 0.961 1_455 S
C2031 H2047 0.960 1_455 S
H2032 C2016 0.931 . S
H2033 C2021 0.929 . S
H2034 C2022 0.960 . S
H2035 C2022 0.962 . S
H2036 C2022 0.960 . S
H2037 C2023 0.961 . S
H2038 C2023 0.961 . S
H2039 C2023 0.961 . S
H2040 C2024 0.931 . S
H2041 C2029 0.934 . S
H2042 C2030 0.956 1_455 S
H2043 C2030 0.961 . S
H2044 C2030 0.961 . S
H2045 C2031 0.958 . S
H2046 C2031 0.961 1_655 S
H2047 C2031 0.960 1_655 S
C2048 C2049 1.391 . S
C2048 C2050 1.394 . S
C2048 H2064 0.931 . S
C2049 C2048 1.391 . S
C2049 C2053 1.376 . S
C2050 C2048 1.394 . S
C2050 C2051 1.369 . S
C2050 C2054 1.531 . S
C2051 C2050 1.369 . S
C2051 C2052 1.410 . S
C2051 C2059 1.503 . S
C2052 C2051 1.410 . S
C2052 C2053 1.392 . S
C2052 C2055 1.511 . S
C2053 C2049 1.376 . S
C2053 C2052 1.392 . S
C2053 H2065 0.929 . S
C2054 C2050 1.531 . S
C2054 H2066 0.960 . S
C2054 H2067 0.962 . S
C2054 H2068 0.960 . S
C2055 C2052 1.511 . S
C2055 H2069 0.961 . S
C2055 H2070 0.961 . S
C2055 H2071 0.961 . S
C2056 C2057 1.370 . S
C2056 C2058 1.363 . S
C2056 H2072 0.931 . S
C2057 C2056 1.370 . S
C2057 C2061 1.408 . S
C2058 C2056 1.363 . S
C2058 C2059 1.370 . S
C2058 C2062 1.524 . S
C2059 C2051 1.503 . S
C2059 C2058 1.370 . S
C2059 C2060 1.403 . S
C2060 C2059 1.403 . S
C2060 C2061 1.404 . S
C2060 C2063 1.539 . S
C2061 C2057 1.408 . S
C2061 C2060 1.404 . S
C2061 H2073 0.930 . S
C2062 C2058 1.524 . S
C2062 H2074 0.956 . S
C2062 H2075 0.961 . S
C2062 H2076 0.961 . S
C2063 C2060 1.539 . S
C2063 H2077 0.958 . S
C2063 H2078 0.961 . S
C2063 H2079 0.960 . S
H2064 C2048 0.931 . S
H2065 C2053 0.929 . S
H2066 C2054 0.960 . S
H2067 C2054 0.962 . S
H2068 C2054 0.960 . S
H2069 C2055 0.961 . S
H2070 C2055 0.961 . S
H2071 C2055 0.961 . S
H2072 C2056 0.931 . S
H2073 C2061 0.930 . S
H2074 C2062 0.956 . S
H2075 C2062 0.961 . S
H2076 C2062 0.961 . S
H2077 C2063 0.958 . S
H2078 C2063 0.961 . S
H2079 C2063 0.960 . S
C2080 C2081 1.391 1_655 S
C2080 C2082 1.394 . S
C2080 H2096 0.931 . S
C2081 C2080 1.391 1_455 S
C2081 C2085 1.376 . S
C2082 C2080 1.394 . S
C2082 C2083 1.369 1_655 S
C2082 C2086 1.531 . S
C2083 C2082 1.369 1_455 S
C2083 C2084 1.410 . S
C2083 C2091 1.503 . S
C2084 C2083 1.410 . S
C2084 C2085 1.392 . S
C2084 C2087 1.511 . S
C2085 C2081 1.376 . S
C2085 C2084 1.392 . S
C2085 H2097 0.929 . S
C2086 C2082 1.531 . S
C2086 H2098 0.960 . S
C2086 H2099 0.962 . S
C2086 H2100 0.960 . S
C2087 C2084 1.511 . S
C2087 H2101 0.961 . S
C2087 H2102 0.961 . S
C2087 H2103 0.961 . S
C2088 C2089 1.370 1_655 S
C2088 C2090 1.363 . S
C2088 H2104 0.931 . S
C2089 C2088 1.370 1_455 S
C2089 C2093 1.408 . S
C2090 C2088 1.363 . S
C2090 C2091 1.370 1_655 S
C2090 C2094 1.524 . S
C2091 C2083 1.503 . S
C2091 C2090 1.370 1_455 S
C2091 C2092 1.403 . S
C2092 C2091 1.403 . S
C2092 C2093 1.404 . S
C2092 C2095 1.539 . S
C2093 C2089 1.408 . S
C2093 C2092 1.404 . S
C2093 H2105 0.930 . S
C2094 C2090 1.524 . S
C2094 H2106 0.956 . S
C2094 H2107 0.961 . S
C2094 H2108 0.961 . S
C2095 C2092 1.539 . S
C2095 H2109 0.958 . S
C2095 H2110 0.961 . S
C2095 H2111 0.960 . S
H2096 C2080 0.931 . S
H2097 C2085 0.929 . S
H2098 C2086 0.960 . S
H2099 C2086 0.962 . S
H2100 C2086 0.960 . S
H2101 C2087 0.961 . S
H2102 C2087 0.961 . S
H2103 C2087 0.961 . S
H2104 C2088 0.931 . S
H2105 C2093 0.930 . S
H2106 C2094 0.956 . S
H2107 C2094 0.961 . S
H2108 C2094 0.961 . S
H2109 C2095 0.958 . S
H2110 C2095 0.961 . S
H2111 C2095 0.960 . S
C2112 C2113 1.391 . S
C2112 C2114 1.394 . S
C2112 H2128 0.931 . S
C2113 C2112 1.391 . S
C2113 C2117 1.376 . S
C2114 C2112 1.394 . S
C2114 C2115 1.369 . S
C2114 C2118 1.531 . S
C2115 C2114 1.369 . S
C2115 C2116 1.410 . S
C2115 C2123 1.503 . S
C2116 C2115 1.410 . S
C2116 C2117 1.392 . S
C2116 C2119 1.511 . S
C2117 C2113 1.376 . S
C2117 C2116 1.392 . S
C2117 H2129 0.929 . S
C2118 C2114 1.531 . S
C2118 H2130 0.960 . S
C2118 H2131 0.962 . S
C2118 H2132 0.960 . S
C2119 C2116 1.511 . S
C2119 H2133 0.961 . S
C2119 H2134 0.961 . S
C2119 H2135 0.961 . S
C2120 C2121 1.370 . S
C2120 C2122 1.363 . S
C2120 H2136 0.931 . S
C2121 C2120 1.370 . S
C2121 C2125 1.408 . S
C2122 C2120 1.363 . S
C2122 C2123 1.370 . S
C2122 C2126 1.524 . S
C2123 C2115 1.503 . S
C2123 C2122 1.370 . S
C2123 C2124 1.403 . S
C2124 C2123 1.403 . S
C2124 C2125 1.404 . S
C2124 C2127 1.539 . S
C2125 C2121 1.408 . S
C2125 C2124 1.404 . S
C2125 H2137 0.930 . S
C2126 C2122 1.524 . S
C2126 H2138 0.956 . S
C2126 H2139 0.961 . S
C2126 H2140 0.961 . S
C2127 C2124 1.539 . S
C2127 H2141 0.958 . S
C2127 H2142 0.961 . S
C2127 H2143 0.960 . S
H2128 C2112 0.931 . S
H2129 C2117 0.929 . S
H2130 C2118 0.960 . S
H2131 C2118 0.962 . S
H2132 C2118 0.960 . S
H2133 C2119 0.961 . S
H2134 C2119 0.961 . S
H2135 C2119 0.961 . S
H2136 C2120 0.931 . S
H2137 C2125 0.930 . S
H2138 C2126 0.956 . S
H2139 C2126 0.961 . S
H2140 C2126 0.961 . S
H2141 C2127 0.958 . S
H2142 C2127 0.961 . S
H2143 C2127 0.960 . S
C2144 C2145 1.391 1_455 S
C2144 C2146 1.394 . S
C2144 H2160 0.931 . S
C2145 C2144 1.391 1_655 S
C2145 C2149 1.376 . S
C2146 C2144 1.394 . S
C2146 C2147 1.369 1_455 S
C2146 C2150 1.531 . S
C2147 C2146 1.369 1_655 S
C2147 C2148 1.410 . S
C2147 C2155 1.503 . S
C2148 C2147 1.410 . S
C2148 C2149 1.392 . S
C2148 C2151 1.511 . S
C2149 C2145 1.376 . S
C2149 C2148 1.392 . S
C2149 H2161 0.929 . S
C2150 C2146 1.531 . S
C2150 H2162 0.960 . S
C2150 H2163 0.962 . S
C2150 H2164 0.960 . S
C2151 C2148 1.511 . S
C2151 H2165 0.961 . S
C2151 H2166 0.961 . S
C2151 H2167 0.961 . S
C2152 C2153 1.370 . S
C2152 C2154 1.363 . S
C2152 H2168 0.931 . S
C2153 C2152 1.370 . S
C2153 C2157 1.408 . S
C2154 C2152 1.363 . S
C2154 C2155 1.370 . S
C2154 C2158 1.524 . S
C2155 C2147 1.503 . S
C2155 C2154 1.370 . S
C2155 C2156 1.403 . S
C2156 C2155 1.403 . S
C2156 C2157 1.404 . S
C2156 C2159 1.539 . S
C2157 C2153 1.408 . S
C2157 C2156 1.404 . S
C2157 H2169 0.930 . S
C2158 C2154 1.524 . S
C2158 H2170 0.956 1_655 S
C2158 H2171 0.961 . S
C2158 H2172 0.961 . S
C2159 C2156 1.539 . S
C2159 H2173 0.958 1_655 S
C2159 H2174 0.961 . S
C2159 H2175 0.960 . S
H2160 C2144 0.931 . S
H2161 C2149 0.929 . S
H2162 C2150 0.960 . S
H2163 C2150 0.962 . S
H2164 C2150 0.960 . S
H2165 C2151 0.961 . S
H2166 C2151 0.961 . S
H2167 C2151 0.961 . S
H2168 C2152 0.931 . S
H2169 C2157 0.930 . S
H2170 C2158 0.956 1_455 S
H2171 C2158 0.961 . S
H2172 C2158 0.961 . S
H2173 C2159 0.958 1_455 S
H2174 C2159 0.961 . S
H2175 C2159 0.960 . S
C2176 C2177 1.391 . S
C2176 C2178 1.394 . S
C2176 H2192 0.931 . S
C2177 C2176 1.391 . S
C2177 C2181 1.376 . S
C2178 C2176 1.394 . S
C2178 C2179 1.369 . S
C2178 C2182 1.531 . S
C2179 C2178 1.369 . S
C2179 C2180 1.410 . S
C2179 C2187 1.503 . S
C2180 C2179 1.410 . S
C2180 C2181 1.392 . S
C2180 C2183 1.511 . S
C2181 C2177 1.376 . S
C2181 C2180 1.392 . S
C2181 H2193 0.929 . S
C2182 C2178 1.531 . S
C2182 H2194 0.960 . S
C2182 H2195 0.962 . S
C2182 H2196 0.960 . S
C2183 C2180 1.511 . S
C2183 H2197 0.961 . S
C2183 H2198 0.961 . S
C2183 H2199 0.961 . S
C2184 C2185 1.370 . S
C2184 C2186 1.363 . S
C2184 H2200 0.931 . S
C2185 C2184 1.370 . S
C2185 C2189 1.408 . S
C2186 C2184 1.363 . S
C2186 C2187 1.370 . S
C2186 C2190 1.524 . S
C2187 C2179 1.503 . S
C2187 C2186 1.370 . S
C2187 C2188 1.403 . S
C2188 C2187 1.403 . S
C2188 C2189 1.404 . S
C2188 C2191 1.539 . S
C2189 C2185 1.408 . S
C2189 C2188 1.404 . S
C2189 H2201 0.930 . S
C2190 C2186 1.524 . S
C2190 H2202 0.956 . S
C2190 H2203 0.961 . S
C2190 H2204 0.961 . S
C2191 C2188 1.539 . S
C2191 H2205 0.958 . S
C2191 H2206 0.961 . S
C2191 H2207 0.960 . S
H2192 C2176 0.931 . S
H2193 C2181 0.929 . S
H2194 C2182 0.960 . S
H2195 C2182 0.962 . S
H2196 C2182 0.960 . S
H2197 C2183 0.961 . S
H2198 C2183 0.961 . S
H2199 C2183 0.961 . S
H2200 C2184 0.931 . S
H2201 C2189 0.930 . S
H2202 C2190 0.956 . S
H2203 C2190 0.961 . S
H2204 C2190 0.961 . S
H2205 C2191 0.958 . S
H2206 C2191 0.961 . S
H2207 C2191 0.960 . S
C2208 C2209 1.391 . S
C2208 C2210 1.394 . S
C2208 H2224 0.931 . S
C2209 C2208 1.391 . S
C2209 C2213 1.376 . S
C2210 C2208 1.394 . S
C2210 C2211 1.369 . S
C2210 C2214 1.531 . S
C2211 C2210 1.369 . S
C2211 C2212 1.410 . S
C2211 C2219 1.503 . S
C2212 C2211 1.410 . S
C2212 C2213 1.392 . S
C2212 C2215 1.511 . S
C2213 C2209 1.376 . S
C2213 C2212 1.392 . S
C2213 H2225 0.929 . S
C2214 C2210 1.531 . S
C2214 H2226 0.960 . S
C2214 H2227 0.962 . S
C2214 H2228 0.960 . S
C2215 C2212 1.511 . S
C2215 H2229 0.961 . S
C2215 H2230 0.961 . S
C2215 H2231 0.961 . S
C2216 C2217 1.370 . S
C2216 C2218 1.363 . S
C2216 H2232 0.931 . S
C2217 C2216 1.370 . S
C2217 C2221 1.408 . S
C2218 C2216 1.363 . S
C2218 C2219 1.370 . S
C2218 C2222 1.524 . S
C2219 C2211 1.503 . S
C2219 C2218 1.370 . S
C2219 C2220 1.403 . S
C2220 C2219 1.403 . S
C2220 C2221 1.404 . S
C2220 C2223 1.539 . S
C2221 C2217 1.408 . S
C2221 C2220 1.404 . S
C2221 H2233 0.930 . S
C2222 C2218 1.524 . S
C2222 H2234 0.956 . S
C2222 H2235 0.961 . S
C2222 H2236 0.961 . S
C2223 C2220 1.539 . S
C2223 H2237 0.958 . S
C2223 H2238 0.961 . S
C2223 H2239 0.960 . S
H2224 C2208 0.931 . S
H2225 C2213 0.929 . S
H2226 C2214 0.960 . S
H2227 C2214 0.962 . S
H2228 C2214 0.960 . S
H2229 C2215 0.961 . S
H2230 C2215 0.961 . S
H2231 C2215 0.961 . S
H2232 C2216 0.931 . S
H2233 C2221 0.930 . S
H2234 C2222 0.956 . S
H2235 C2222 0.961 . S
H2236 C2222 0.961 . S
H2237 C2223 0.958 . S
H2238 C2223 0.961 . S
H2239 C2223 0.960 . S
C2240 C2241 1.391 . S
C2240 C2242 1.394 . S
C2240 H2256 0.931 . S
C2241 C2240 1.391 . S
C2241 C2245 1.376 . S
C2242 C2240 1.394 . S
C2242 C2243 1.369 . S
C2242 C2246 1.531 . S
C2243 C2242 1.369 . S
C2243 C2244 1.410 . S
C2243 C2251 1.503 . S
C2244 C2243 1.410 . S
C2244 C2245 1.392 . S
C2244 C2247 1.511 . S
C2245 C2241 1.376 . S
C2245 C2244 1.392 . S
C2245 H2257 0.929 . S
C2246 C2242 1.531 . S
C2246 H2258 0.960 . S
C2246 H2259 0.962 . S
C2246 H2260 0.960 . S
C2247 C2244 1.511 . S
C2247 H2261 0.961 . S
C2247 H2262 0.961 . S
C2247 H2263 0.961 . S
C2248 C2249 1.370 . S
C2248 C2250 1.363 . S
C2248 H2264 0.931 . S
C2249 C2248 1.370 . S
C2249 C2253 1.408 . S
C2250 C2248 1.363 . S
C2250 C2251 1.370 . S
C2250 C2254 1.524 . S
C2251 C2243 1.503 . S
C2251 C2250 1.370 . S
C2251 C2252 1.403 . S
C2252 C2251 1.403 . S
C2252 C2253 1.404 . S
C2252 C2255 1.539 . S
C2253 C2249 1.408 . S
C2253 C2252 1.404 . S
C2253 H2265 0.930 . S
C2254 C2250 1.524 . S
C2254 H2266 0.956 . S
C2254 H2267 0.961 . S
C2254 H2268 0.961 . S
C2255 C2252 1.539 . S
C2255 H2269 0.958 . S
C2255 H2270 0.961 . S
C2255 H2271 0.960 . S
H2256 C2240 0.931 . S
H2257 C2245 0.929 . S
H2258 C2246 0.960 . S
H2259 C2246 0.962 . S
H2260 C2246 0.960 . S
H2261 C2247 0.961 . S
H2262 C2247 0.961 . S
H2263 C2247 0.961 . S
H2264 C2248 0.931 . S
H2265 C2253 0.930 . S
H2266 C2254 0.956 . S
H2267 C2254 0.961 . S
H2268 C2254 0.961 . S
H2269 C2255 0.958 . S
H2270 C2255 0.961 . S
H2271 C2255 0.960 . S
C2272 C2273 1.391 . S
C2272 C2274 1.394 . S
C2272 H2288 0.931 . S
C2273 C2272 1.391 . S
C2273 C2277 1.376 . S
C2274 C2272 1.394 . S
C2274 C2275 1.369 . S
C2274 C2278 1.531 . S
C2275 C2274 1.369 . S
C2275 C2276 1.410 . S
C2275 C2283 1.503 . S
C2276 C2275 1.410 . S
C2276 C2277 1.392 . S
C2276 C2279 1.511 . S
C2277 C2273 1.376 . S
C2277 C2276 1.392 . S
C2277 H2289 0.929 . S
C2278 C2274 1.531 . S
C2278 H2290 0.960 . S
C2278 H2291 0.962 . S
C2278 H2292 0.960 . S
C2279 C2276 1.511 . S
C2279 H2293 0.961 . S
C2279 H2294 0.961 . S
C2279 H2295 0.961 . S
C2280 C2281 1.370 . S
C2280 C2282 1.363 . S
C2280 H2296 0.931 . S
C2281 C2280 1.370 . S
C2281 C2285 1.408 . S
C2282 C2280 1.363 . S
C2282 C2283 1.370 . S
C2282 C2286 1.524 . S
C2283 C2275 1.503 . S
C2283 C2282 1.370 . S
C2283 C2284 1.403 . S
C2284 C2283 1.403 . S
C2284 C2285 1.404 . S
C2284 C2287 1.539 . S
C2285 C2281 1.408 . S
C2285 C2284 1.404 . S
C2285 H2297 0.930 . S
C2286 C2282 1.524 . S
C2286 H2298 0.956 . S
C2286 H2299 0.961 . S
C2286 H2300 0.961 . S
C2287 C2284 1.539 . S
C2287 H2301 0.958 . S
C2287 H2302 0.961 . S
C2287 H2303 0.960 . S
H2288 C2272 0.931 . S
H2289 C2277 0.929 . S
H2290 C2278 0.960 . S
H2291 C2278 0.962 . S
H2292 C2278 0.960 . S
H2293 C2279 0.961 . S
H2294 C2279 0.961 . S
H2295 C2279 0.961 . S
H2296 C2280 0.931 . S
H2297 C2285 0.930 . S
H2298 C2286 0.956 . S
H2299 C2286 0.961 . S
H2300 C2286 0.961 . S
H2301 C2287 0.958 . S
H2302 C2287 0.961 . S
H2303 C2287 0.960 . S
C2304 C2305 1.391 . S
C2304 C2306 1.394 . S
C2304 H2320 0.931 . S
C2305 C2304 1.391 . S
C2305 C2309 1.376 . S
C2306 C2304 1.394 . S
C2306 C2307 1.369 . S
C2306 C2310 1.531 . S
C2307 C2306 1.369 . S
C2307 C2308 1.410 . S
C2307 C2315 1.503 . S
C2308 C2307 1.410 . S
C2308 C2309 1.392 . S
C2308 C2311 1.511 . S
C2309 C2305 1.376 . S
C2309 C2308 1.392 . S
C2309 H2321 0.929 . S
C2310 C2306 1.531 . S
C2310 H2322 0.960 . S
C2310 H2323 0.962 . S
C2310 H2324 0.960 . S
C2311 C2308 1.511 . S
C2311 H2325 0.961 . S
C2311 H2326 0.961 . S
C2311 H2327 0.961 . S
C2312 C2313 1.370 . S
C2312 C2314 1.363 . S
C2312 H2328 0.931 . S
C2313 C2312 1.370 . S
C2313 C2317 1.408 . S
C2314 C2312 1.363 . S
C2314 C2315 1.370 . S
C2314 C2318 1.524 . S
C2315 C2307 1.503 . S
C2315 C2314 1.370 . S
C2315 C2316 1.403 . S
C2316 C2315 1.403 . S
C2316 C2317 1.404 . S
C2316 C2319 1.539 . S
C2317 C2313 1.408 . S
C2317 C2316 1.404 . S
C2317 H2329 0.930 . S
C2318 C2314 1.524 . S
C2318 H2330 0.956 . S
C2318 H2331 0.961 . S
C2318 H2332 0.961 . S
C2319 C2316 1.539 . S
C2319 H2333 0.958 . S
C2319 H2334 0.961 . S
C2319 H2335 0.960 . S
H2320 C2304 0.931 . S
H2321 C2309 0.929 . S
H2322 C2310 0.960 . S
H2323 C2310 0.962 . S
H2324 C2310 0.960 . S
H2325 C2311 0.961 . S
H2326 C2311 0.961 . S
H2327 C2311 0.961 . S
H2328 C2312 0.931 . S
H2329 C2317 0.930 . S
H2330 C2318 0.956 . S
H2331 C2318 0.961 . S
H2332 C2318 0.961 . S
H2333 C2319 0.958 . S
H2334 C2319 0.961 . S
H2335 C2319 0.960 . S
C2336 C2337 1.391 . S
C2336 C2338 1.394 . S
C2336 H2352 0.931 . S
C2337 C2336 1.391 . S
C2337 C2341 1.376 . S
C2338 C2336 1.394 . S
C2338 C2339 1.369 . S
C2338 C2342 1.531 . S
C2339 C2338 1.369 . S
C2339 C2340 1.410 . S
C2339 C2347 1.503 . S
C2340 C2339 1.410 . S
C2340 C2341 1.392 . S
C2340 C2343 1.511 . S
C2341 C2337 1.376 . S
C2341 C2340 1.392 . S
C2341 H2353 0.929 . S
C2342 C2338 1.531 . S
C2342 H2354 0.960 . S
C2342 H2355 0.962 . S
C2342 H2356 0.960 . S
C2343 C2340 1.511 . S
C2343 H2357 0.961 . S
C2343 H2358 0.961 . S
C2343 H2359 0.961 . S
C2344 C2345 1.370 . S
C2344 C2346 1.363 . S
C2344 H2360 0.931 . S
C2345 C2344 1.370 . S
C2345 C2349 1.408 . S
C2346 C2344 1.363 . S
C2346 C2347 1.370 . S
C2346 C2350 1.524 . S
C2347 C2339 1.503 . S
C2347 C2346 1.370 . S
C2347 C2348 1.403 . S
C2348 C2347 1.403 . S
C2348 C2349 1.404 . S
C2348 C2351 1.539 . S
C2349 C2345 1.408 . S
C2349 C2348 1.404 . S
C2349 H2361 0.930 . S
C2350 C2346 1.524 . S
C2350 H2362 0.956 . S
C2350 H2363 0.961 . S
C2350 H2364 0.961 . S
C2351 C2348 1.539 . S
C2351 H2365 0.958 . S
C2351 H2366 0.961 . S
C2351 H2367 0.960 . S
H2352 C2336 0.931 . S
H2353 C2341 0.929 . S
H2354 C2342 0.960 . S
H2355 C2342 0.962 . S
H2356 C2342 0.960 . S
H2357 C2343 0.961 . S
H2358 C2343 0.961 . S
H2359 C2343 0.961 . S
H2360 C2344 0.931 . S
H2361 C2349 0.930 . S
H2362 C2350 0.956 . S
H2363 C2350 0.961 . S
H2364 C2350 0.961 . S
H2365 C2351 0.958 . S
H2366 C2351 0.961 . S
H2367 C2351 0.960 . S
C2368 C2369 1.391 . S
C2368 C2370 1.394 . S
C2368 H2384 0.931 . S
C2369 C2368 1.391 . S
C2369 C2373 1.376 . S
C2370 C2368 1.394 . S
C2370 C2371 1.369 . S
C2370 C2374 1.531 . S
C2371 C2370 1.369 . S
C2371 C2372 1.410 . S
C2371 C2379 1.503 . S
C2372 C2371 1.410 . S
C2372 C2373 1.392 . S
C2372 C2375 1.511 . S
C2373 C2369 1.376 . S
C2373 C2372 1.392 . S
C2373 H2385 0.929 . S
C2374 C2370 1.531 . S
C2374 H2386 0.960 . S
C2374 H2387 0.962 . S
C2374 H2388 0.960 . S
C2375 C2372 1.511 . S
C2375 H2389 0.961 . S
C2375 H2390 0.961 . S
C2375 H2391 0.961 . S
C2376 C2377 1.370 . S
C2376 C2378 1.363 . S
C2376 H2392 0.931 . S
C2377 C2376 1.370 . S
C2377 C2381 1.408 . S
C2378 C2376 1.363 . S
C2378 C2379 1.370 . S
C2378 C2382 1.524 . S
C2379 C2371 1.503 . S
C2379 C2378 1.370 . S
C2379 C2380 1.403 . S
C2380 C2379 1.403 . S
C2380 C2381 1.404 . S
C2380 C2383 1.539 . S
C2381 C2377 1.408 . S
C2381 C2380 1.404 . S
C2381 H2393 0.930 . S
C2382 C2378 1.524 . S
C2382 H2394 0.956 . S
C2382 H2395 0.961 . S
C2382 H2396 0.961 . S
C2383 C2380 1.539 . S
C2383 H2397 0.958 . S
C2383 H2398 0.961 . S
C2383 H2399 0.960 . S
H2384 C2368 0.931 . S
H2385 C2373 0.929 . S
H2386 C2374 0.960 . S
H2387 C2374 0.962 . S
H2388 C2374 0.960 . S
H2389 C2375 0.961 . S
H2390 C2375 0.961 . S
H2391 C2375 0.961 . S
H2392 C2376 0.931 . S
H2393 C2381 0.930 . S
H2394 C2382 0.956 . S
H2395 C2382 0.961 . S
H2396 C2382 0.961 . S
H2397 C2383 0.958 . S
H2398 C2383 0.961 . S
H2399 C2383 0.960 . S
C2400 C2401 1.391 . S
C2400 C2402 1.394 . S
C2400 H2416 0.931 . S
C2401 C2400 1.391 . S
C2401 C2405 1.376 . S
C2402 C2400 1.394 . S
C2402 C2403 1.369 . S
C2402 C2406 1.531 . S
C2403 C2402 1.369 . S
C2403 C2404 1.410 . S
C2403 C2411 1.503 . S
C2404 C2403 1.410 . S
C2404 C2405 1.392 . S
C2404 C2407 1.511 . S
C2405 C2401 1.376 . S
C2405 C2404 1.392 . S
C2405 H2417 0.929 . S
C2406 C2402 1.531 . S
C2406 H2418 0.960 . S
C2406 H2419 0.962 . S
C2406 H2420 0.960 . S
C2407 C2404 1.511 . S
C2407 H2421 0.961 . S
C2407 H2422 0.961 . S
C2407 H2423 0.961 . S
C2408 C2409 1.370 . S
C2408 C2410 1.363 . S
C2408 H2424 0.931 . S
C2409 C2408 1.370 . S
C2409 C2413 1.408 . S
C2410 C2408 1.363 . S
C2410 C2411 1.370 . S
C2410 C2414 1.524 . S
C2411 C2403 1.503 . S
C2411 C2410 1.370 . S
C2411 C2412 1.403 . S
C2412 C2411 1.403 . S
C2412 C2413 1.404 . S
C2412 C2415 1.539 . S
C2413 C2409 1.408 . S
C2413 C2412 1.404 . S
C2413 H2425 0.930 . S
C2414 C2410 1.524 . S
C2414 H2426 0.956 . S
C2414 H2427 0.961 . S
C2414 H2428 0.961 . S
C2415 C2412 1.539 . S
C2415 H2429 0.958 . S
C2415 H2430 0.961 . S
C2415 H2431 0.960 . S
H2416 C2400 0.931 . S
H2417 C2405 0.929 . S
H2418 C2406 0.960 . S
H2419 C2406 0.962 . S
H2420 C2406 0.960 . S
H2421 C2407 0.961 . S
H2422 C2407 0.961 . S
H2423 C2407 0.961 . S
H2424 C2408 0.931 . S
H2425 C2413 0.930 . S
H2426 C2414 0.956 . S
H2427 C2414 0.961 . S
H2428 C2414 0.961 . S
H2429 C2415 0.958 . S
H2430 C2415 0.961 . S
H2431 C2415 0.960 . S
C2432 C2433 1.391 . S
C2432 C2434 1.394 . S
C2432 H2448 0.931 . S
C2433 C2432 1.391 . S
C2433 C2437 1.376 . S
C2434 C2432 1.394 . S
C2434 C2435 1.369 . S
C2434 C2438 1.531 . S
C2435 C2434 1.369 . S
C2435 C2436 1.410 . S
C2435 C2443 1.503 . S
C2436 C2435 1.410 . S
C2436 C2437 1.392 . S
C2436 C2439 1.511 . S
C2437 C2433 1.376 . S
C2437 C2436 1.392 . S
C2437 H2449 0.929 . S
C2438 C2434 1.531 . S
C2438 H2450 0.960 . S
C2438 H2451 0.962 . S
C2438 H2452 0.960 . S
C2439 C2436 1.511 . S
C2439 H2453 0.961 . S
C2439 H2454 0.961 . S
C2439 H2455 0.961 . S
C2440 C2441 1.370 . S
C2440 C2442 1.363 . S
C2440 H2456 0.931 . S
C2441 C2440 1.370 . S
C2441 C2445 1.408 . S
C2442 C2440 1.363 . S
C2442 C2443 1.370 . S
C2442 C2446 1.524 . S
C2443 C2435 1.503 . S
C2443 C2442 1.370 . S
C2443 C2444 1.403 . S
C2444 C2443 1.403 . S
C2444 C2445 1.404 . S
C2444 C2447 1.539 . S
C2445 C2441 1.408 . S
C2445 C2444 1.404 . S
C2445 H2457 0.930 . S
C2446 C2442 1.524 . S
C2446 H2458 0.956 . S
C2446 H2459 0.961 . S
C2446 H2460 0.961 . S
C2447 C2444 1.539 . S
C2447 H2461 0.958 . S
C2447 H2462 0.961 . S
C2447 H2463 0.960 . S
H2448 C2432 0.931 . S
H2449 C2437 0.929 . S
H2450 C2438 0.960 . S
H2451 C2438 0.962 . S
H2452 C2438 0.960 . S
H2453 C2439 0.961 . S
H2454 C2439 0.961 . S
H2455 C2439 0.961 . S
H2456 C2440 0.931 . S
H2457 C2445 0.930 . S
H2458 C2446 0.956 . S
H2459 C2446 0.961 . S
H2460 C2446 0.961 . S
H2461 C2447 0.958 . S
H2462 C2447 0.961 . S
H2463 C2447 0.960 . S
C2464 C2465 1.391 . S
C2464 C2466 1.394 . S
C2464 H2480 0.931 . S
C2465 C2464 1.391 . S
C2465 C2469 1.376 . S
C2466 C2464 1.394 . S
C2466 C2467 1.369 . S
C2466 C2470 1.531 . S
C2467 C2466 1.369 . S
C2467 C2468 1.410 . S
C2467 C2475 1.503 . S
C2468 C2467 1.410 . S
C2468 C2469 1.392 . S
C2468 C2471 1.511 . S
C2469 C2465 1.376 . S
C2469 C2468 1.392 . S
C2469 H2481 0.929 . S
C2470 C2466 1.531 . S
C2470 H2482 0.960 . S
C2470 H2483 0.962 . S
C2470 H2484 0.960 . S
C2471 C2468 1.511 . S
C2471 H2485 0.961 . S
C2471 H2486 0.961 . S
C2471 H2487 0.961 . S
C2472 C2473 1.370 . S
C2472 C2474 1.363 . S
C2472 H2488 0.931 . S
C2473 C2472 1.370 . S
C2473 C2477 1.408 . S
C2474 C2472 1.363 . S
C2474 C2475 1.370 . S
C2474 C2478 1.524 . S
C2475 C2467 1.503 . S
C2475 C2474 1.370 . S
C2475 C2476 1.403 . S
C2476 C2475 1.403 . S
C2476 C2477 1.404 . S
C2476 C2479 1.539 . S
C2477 C2473 1.408 . S
C2477 C2476 1.404 . S
C2477 H2489 0.930 . S
C2478 C2474 1.524 . S
C2478 H2490 0.956 . S
C2478 H2491 0.961 . S
C2478 H2492 0.961 . S
C2479 C2476 1.539 . S
C2479 H2493 0.958 . S
C2479 H2494 0.961 . S
C2479 H2495 0.960 . S
H2480 C2464 0.931 . S
H2481 C2469 0.929 . S
H2482 C2470 0.960 . S
H2483 C2470 0.962 . S
H2484 C2470 0.960 . S
H2485 C2471 0.961 . S
H2486 C2471 0.961 . S
H2487 C2471 0.961 . S
H2488 C2472 0.931 . S
H2489 C2477 0.930 . S
H2490 C2478 0.956 . S
H2491 C2478 0.961 . S
H2492 C2478 0.961 . S
H2493 C2479 0.958 . S
H2494 C2479 0.961 . S
H2495 C2479 0.960 . S
C2496 C2497 1.391 . S
C2496 C2498 1.394 . S
C2496 H2512 0.931 . S
C2497 C2496 1.391 . S
C2497 C2501 1.376 . S
C2498 C2496 1.394 . S
C2498 C2499 1.369 . S
C2498 C2502 1.531 . S
C2499 C2498 1.369 . S
C2499 C2500 1.410 . S
C2499 C2507 1.503 . S
C2500 C2499 1.410 . S
C2500 C2501 1.392 . S
C2500 C2503 1.511 . S
C2501 C2497 1.376 . S
C2501 C2500 1.392 . S
C2501 H2513 0.929 . S
C2502 C2498 1.531 . S
C2502 H2514 0.960 . S
C2502 H2515 0.962 . S
C2502 H2516 0.960 . S
C2503 C2500 1.511 . S
C2503 H2517 0.961 . S
C2503 H2518 0.961 . S
C2503 H2519 0.961 . S
C2504 C2505 1.370 . S
C2504 C2506 1.363 . S
C2504 H2520 0.931 . S
C2505 C2504 1.370 . S
C2505 C2509 1.408 . S
C2506 C2504 1.363 . S
C2506 C2507 1.370 . S
C2506 C2510 1.524 . S
C2507 C2499 1.503 . S
C2507 C2506 1.370 . S
C2507 C2508 1.403 . S
C2508 C2507 1.403 . S
C2508 C2509 1.404 . S
C2508 C2511 1.539 . S
C2509 C2505 1.408 . S
C2509 C2508 1.404 . S
C2509 H2521 0.930 . S
C2510 C2506 1.524 . S
C2510 H2522 0.956 . S
C2510 H2523 0.961 . S
C2510 H2524 0.961 . S
C2511 C2508 1.539 . S
C2511 H2525 0.958 . S
C2511 H2526 0.961 . S
C2511 H2527 0.960 . S
H2512 C2496 0.931 . S
H2513 C2501 0.929 . S
H2514 C2502 0.960 . S
H2515 C2502 0.962 . S
H2516 C2502 0.960 . S
H2517 C2503 0.961 . S
H2518 C2503 0.961 . S
H2519 C2503 0.961 . S
H2520 C2504 0.931 . S
H2521 C2509 0.930 . S
H2522 C2510 0.956 . S
H2523 C2510 0.961 . S
H2524 C2510 0.961 . S
H2525 C2511 0.958 . S
H2526 C2511 0.961 . S
H2527 C2511 0.960 . S
C2528 C2529 1.391 . S
C2528 C2530 1.394 . S
C2528 H2544 0.931 . S
C2529 C2528 1.391 . S
C2529 C2533 1.376 . S
C2530 C2528 1.394 . S
C2530 C2531 1.369 . S
C2530 C2534 1.531 . S
C2531 C2530 1.369 . S
C2531 C2532 1.410 . S
C2531 C2539 1.503 . S
C2532 C2531 1.410 . S
C2532 C2533 1.392 . S
C2532 C2535 1.511 . S
C2533 C2529 1.376 . S
C2533 C2532 1.392 . S
C2533 H2545 0.929 . S
C2534 C2530 1.531 . S
C2534 H2546 0.960 . S
C2534 H2547 0.962 . S
C2534 H2548 0.960 . S
C2535 C2532 1.511 . S
C2535 H2549 0.961 . S
C2535 H2550 0.961 . S
C2535 H2551 0.961 . S
C2536 C2537 1.370 . S
C2536 C2538 1.363 . S
C2536 H2552 0.931 . S
C2537 C2536 1.370 . S
C2537 C2541 1.408 . S
C2538 C2536 1.363 . S
C2538 C2539 1.370 . S
C2538 C2542 1.524 . S
C2539 C2531 1.503 . S
C2539 C2538 1.370 . S
C2539 C2540 1.403 . S
C2540 C2539 1.403 . S
C2540 C2541 1.404 . S
C2540 C2543 1.539 . S
C2541 C2537 1.408 . S
C2541 C2540 1.404 . S
C2541 H2553 0.930 . S
C2542 C2538 1.524 . S
C2542 H2554 0.956 . S
C2542 H2555 0.961 . S
C2542 H2556 0.961 . S
C2543 C2540 1.539 . S
C2543 H2557 0.958 . S
C2543 H2558 0.961 . S
C2543 H2559 0.960 . S
H2544 C2528 0.931 . S
H2545 C2533 0.929 . S
H2546 C2534 0.960 . S
H2547 C2534 0.962 . S
H2548 C2534 0.960 . S
H2549 C2535 0.961 . S
H2550 C2535 0.961 . S
H2551 C2535 0.961 . S
H2552 C2536 0.931 . S
H2553 C2541 0.930 . S
H2554 C2542 0.956 . S
H2555 C2542 0.961 . S
H2556 C2542 0.961 . S
H2557 C2543 0.958 . S
H2558 C2543 0.961 . S
H2559 C2543 0.960 . S
C2560 C2561 1.391 . S
C2560 C2562 1.394 . S
C2560 H2576 0.931 . S
C2561 C2560 1.391 . S
C2561 C2565 1.376 . S
C2562 C2560 1.394 . S
C2562 C2563 1.369 . S
C2562 C2566 1.531 . S
C2563 C2562 1.369 . S
C2563 C2564 1.410 . S
C2563 C2571 1.503 . S
C2564 C2563 1.410 . S
C2564 C2565 1.392 . S
C2564 C2567 1.511 . S
C2565 C2561 1.376 . S
C2565 C2564 1.392 . S
C2565 H2577 0.929 . S
C2566 C2562 1.531 . S
C2566 H2578 0.960 . S
C2566 H2579 0.962 . S
C2566 H2580 0.960 . S
C2567 C2564 1.511 . S
C2567 H2581 0.961 . S
C2567 H2582 0.961 . S
C2567 H2583 0.961 . S
C2568 C2569 1.370 . S
C2568 C2570 1.363 . S
C2568 H2584 0.931 . S
C2569 C2568 1.370 . S
C2569 C2573 1.408 . S
C2570 C2568 1.363 . S
C2570 C2571 1.370 . S
C2570 C2574 1.524 . S
C2571 C2563 1.503 . S
C2571 C2570 1.370 . S
C2571 C2572 1.403 . S
C2572 C2571 1.403 . S
C2572 C2573 1.404 . S
C2572 C2575 1.539 . S
C2573 C2569 1.408 . S
C2573 C2572 1.404 . S
C2573 H2585 0.930 . S
C2574 C2570 1.524 . S
C2574 H2586 0.956 . S
C2574 H2587 0.961 . S
C2574 H2588 0.961 . S
C2575 C2572 1.539 . S
C2575 H2589 0.958 . S
C2575 H2590 0.961 . S
C2575 H2591 0.960 . S
H2576 C2560 0.931 . S
H2577 C2565 0.929 . S
H2578 C2566 0.960 . S
H2579 C2566 0.962 . S
H2580 C2566 0.960 . S
H2581 C2567 0.961 . S
H2582 C2567 0.961 . S
H2583 C2567 0.961 . S
H2584 C2568 0.931 . S
H2585 C2573 0.930 . S
H2586 C2574 0.956 . S
H2587 C2574 0.961 . S
H2588 C2574 0.961 . S
H2589 C2575 0.958 . S
H2590 C2575 0.961 . S
H2591 C2575 0.960 . S
C2592 C2593 1.391 . S
C2592 C2594 1.394 . S
C2592 H2608 0.931 . S
C2593 C2592 1.391 . S
C2593 C2597 1.376 . S
C2594 C2592 1.394 . S
C2594 C2595 1.369 . S
C2594 C2598 1.531 . S
C2595 C2594 1.369 . S
C2595 C2596 1.410 . S
C2595 C2603 1.503 . S
C2596 C2595 1.410 . S
C2596 C2597 1.392 . S
C2596 C2599 1.511 . S
C2597 C2593 1.376 . S
C2597 C2596 1.392 . S
C2597 H2609 0.929 . S
C2598 C2594 1.531 . S
C2598 H2610 0.960 . S
C2598 H2611 0.962 . S
C2598 H2612 0.960 . S
C2599 C2596 1.511 . S
C2599 H2613 0.961 . S
C2599 H2614 0.961 . S
C2599 H2615 0.961 . S
C2600 C2601 1.370 . S
C2600 C2602 1.363 . S
C2600 H2616 0.931 . S
C2601 C2600 1.370 . S
C2601 C2605 1.408 . S
C2602 C2600 1.363 . S
C2602 C2603 1.370 . S
C2602 C2606 1.524 . S
C2603 C2595 1.503 . S
C2603 C2602 1.370 . S
C2603 C2604 1.403 . S
C2604 C2603 1.403 . S
C2604 C2605 1.404 . S
C2604 C2607 1.539 . S
C2605 C2601 1.408 . S
C2605 C2604 1.404 . S
C2605 H2617 0.930 . S
C2606 C2602 1.524 . S
C2606 H2618 0.956 . S
C2606 H2619 0.961 . S
C2606 H2620 0.961 . S
C2607 C2604 1.539 . S
C2607 H2621 0.958 . S
C2607 H2622 0.961 . S
C2607 H2623 0.960 . S
H2608 C2592 0.931 . S
H2609 C2597 0.929 . S
H2610 C2598 0.960 . S
H2611 C2598 0.962 . S
H2612 C2598 0.960 . S
H2613 C2599 0.961 . S
H2614 C2599 0.961 . S
H2615 C2599 0.961 . S
H2616 C2600 0.931 . S
H2617 C2605 0.930 . S
H2618 C2606 0.956 . S
H2619 C2606 0.961 . S
H2620 C2606 0.961 . S
H2621 C2607 0.958 . S
H2622 C2607 0.961 . S
H2623 C2607 0.960 . S
C2624 C2625 1.391 . S
C2624 C2626 1.394 . S
C2624 H2640 0.931 . S
C2625 C2624 1.391 . S
C2625 C2629 1.376 . S
C2626 C2624 1.394 . S
C2626 C2627 1.369 . S
C2626 C2630 1.531 . S
C2627 C2626 1.369 . S
C2627 C2628 1.410 . S
C2627 C2635 1.503 . S
C2628 C2627 1.410 . S
C2628 C2629 1.392 . S
C2628 C2631 1.511 . S
C2629 C2625 1.376 . S
C2629 C2628 1.392 . S
C2629 H2641 0.929 . S
C2630 C2626 1.531 . S
C2630 H2642 0.960 . S
C2630 H2643 0.962 . S
C2630 H2644 0.960 . S
C2631 C2628 1.511 . S
C2631 H2645 0.961 . S
C2631 H2646 0.961 . S
C2631 H2647 0.961 . S
C2632 C2633 1.370 . S
C2632 C2634 1.363 . S
C2632 H2648 0.931 . S
C2633 C2632 1.370 . S
C2633 C2637 1.408 . S
C2634 C2632 1.363 . S
C2634 C2635 1.370 . S
C2634 C2638 1.524 . S
C2635 C2627 1.503 . S
C2635 C2634 1.370 . S
C2635 C2636 1.403 . S
C2636 C2635 1.403 . S
C2636 C2637 1.404 . S
C2636 C2639 1.539 . S
C2637 C2633 1.408 . S
C2637 C2636 1.404 . S
C2637 H2649 0.930 . S
C2638 C2634 1.524 . S
C2638 H2650 0.956 . S
C2638 H2651 0.961 . S
C2638 H2652 0.961 . S
C2639 C2636 1.539 . S
C2639 H2653 0.958 . S
C2639 H2654 0.961 . S
C2639 H2655 0.960 . S
H2640 C2624 0.931 . S
H2641 C2629 0.929 . S
H2642 C2630 0.960 . S
H2643 C2630 0.962 . S
H2644 C2630 0.960 . S
H2645 C2631 0.961 . S
H2646 C2631 0.961 . S
H2647 C2631 0.961 . S
H2648 C2632 0.931 . S
H2649 C2637 0.930 . S
H2650 C2638 0.956 . S
H2651 C2638 0.961 . S
H2652 C2638 0.961 . S
H2653 C2639 0.958 . S
H2654 C2639 0.961 . S
H2655 C2639 0.960 . S
C2656 C2657 1.391 . S
C2656 C2658 1.394 . S
C2656 H2672 0.931 . S
C2657 C2656 1.391 . S
C2657 C2661 1.376 . S
C2658 C2656 1.394 . S
C2658 C2659 1.369 . S
C2658 C2662 1.531 . S
C2659 C2658 1.369 . S
C2659 C2660 1.410 . S
C2659 C2667 1.503 . S
C2660 C2659 1.410 . S
C2660 C2661 1.392 . S
C2660 C2663 1.511 . S
C2661 C2657 1.376 . S
C2661 C2660 1.392 . S
C2661 H2673 0.929 . S
C2662 C2658 1.531 . S
C2662 H2674 0.960 . S
C2662 H2675 0.962 . S
C2662 H2676 0.960 . S
C2663 C2660 1.511 . S
C2663 H2677 0.961 . S
C2663 H2678 0.961 . S
C2663 H2679 0.961 . S
C2664 C2665 1.370 . S
C2664 C2666 1.363 . S
C2664 H2680 0.931 . S
C2665 C2664 1.370 . S
C2665 C2669 1.408 . S
C2666 C2664 1.363 . S
C2666 C2667 1.370 . S
C2666 C2670 1.524 . S
C2667 C2659 1.503 . S
C2667 C2666 1.370 . S
C2667 C2668 1.403 . S
C2668 C2667 1.403 . S
C2668 C2669 1.404 . S
C2668 C2671 1.539 . S
C2669 C2665 1.408 . S
C2669 C2668 1.404 . S
C2669 H2681 0.930 . S
C2670 C2666 1.524 . S
C2670 H2682 0.956 . S
C2670 H2683 0.961 . S
C2670 H2684 0.961 . S
C2671 C2668 1.539 . S
C2671 H2685 0.958 . S
C2671 H2686 0.961 . S
C2671 H2687 0.960 . S
H2672 C2656 0.931 . S
H2673 C2661 0.929 . S
H2674 C2662 0.960 . S
H2675 C2662 0.962 . S
H2676 C2662 0.960 . S
H2677 C2663 0.961 . S
H2678 C2663 0.961 . S
H2679 C2663 0.961 . S
H2680 C2664 0.931 . S
H2681 C2669 0.930 . S
H2682 C2670 0.956 . S
H2683 C2670 0.961 . S
H2684 C2670 0.961 . S
H2685 C2671 0.958 . S
H2686 C2671 0.961 . S
H2687 C2671 0.960 . S
C2688 C2689 1.391 . S
C2688 C2690 1.394 . S
C2688 H2704 0.931 . S
C2689 C2688 1.391 . S
C2689 C2693 1.376 . S
C2690 C2688 1.394 . S
C2690 C2691 1.369 . S
C2690 C2694 1.531 . S
C2691 C2690 1.369 . S
C2691 C2692 1.410 . S
C2691 C2699 1.503 . S
C2692 C2691 1.410 . S
C2692 C2693 1.392 . S
C2692 C2695 1.511 . S
C2693 C2689 1.376 . S
C2693 C2692 1.392 . S
C2693 H2705 0.929 . S
C2694 C2690 1.531 . S
C2694 H2706 0.960 . S
C2694 H2707 0.962 . S
C2694 H2708 0.960 . S
C2695 C2692 1.511 . S
C2695 H2709 0.961 . S
C2695 H2710 0.961 . S
C2695 H2711 0.961 . S
C2696 C2697 1.370 . S
C2696 C2698 1.363 . S
C2696 H2712 0.931 . S
C2697 C2696 1.370 . S
C2697 C2701 1.408 . S
C2698 C2696 1.363 . S
C2698 C2699 1.370 . S
C2698 C2702 1.524 . S
C2699 C2691 1.503 . S
C2699 C2698 1.370 . S
C2699 C2700 1.403 . S
C2700 C2699 1.403 . S
C2700 C2701 1.404 . S
C2700 C2703 1.539 . S
C2701 C2697 1.408 . S
C2701 C2700 1.404 . S
C2701 H2713 0.930 . S
C2702 C2698 1.524 . S
C2702 H2714 0.956 . S
C2702 H2715 0.961 . S
C2702 H2716 0.961 . S
C2703 C2700 1.539 . S
C2703 H2717 0.958 . S
C2703 H2718 0.961 . S
C2703 H2719 0.960 . S
H2704 C2688 0.931 . S
H2705 C2693 0.929 . S
H2706 C2694 0.960 . S
H2707 C2694 0.962 . S
H2708 C2694 0.960 . S
H2709 C2695 0.961 . S
H2710 C2695 0.961 . S
H2711 C2695 0.961 . S
H2712 C2696 0.931 . S
H2713 C2701 0.930 . S
H2714 C2702 0.956 . S
H2715 C2702 0.961 . S
H2716 C2702 0.961 . S
H2717 C2703 0.958 . S
H2718 C2703 0.961 . S
H2719 C2703 0.960 . S
C2720 C2721 1.391 1_545 S
C2720 C2722 1.394 . S
C2720 H2736 0.931 . S
C2721 C2720 1.391 1_565 S
C2721 C2725 1.376 . S
C2722 C2720 1.394 . S
C2722 C2723 1.369 . S
C2722 C2726 1.531 . S
C2723 C2722 1.369 . S
C2723 C2724 1.410 1_545 S
C2723 C2731 1.503 1_554 S
C2724 C2723 1.410 1_565 S
C2724 C2725 1.392 . S
C2724 C2727 1.511 . S
C2725 C2721 1.376 . S
C2725 C2724 1.392 . S
C2725 H2737 0.929 . S
C2726 C2722 1.531 . S
C2726 H2738 0.960 . S
C2726 H2739 0.962 . S
C2726 H2740 0.960 . S
C2727 C2724 1.511 . S
C2727 H2741 0.961 . S
C2727 H2742 0.961 1_554 S
C2727 H2743 0.961 . S
C2728 C2729 1.370 1_565 S
C2728 C2730 1.363 . S
C2728 H2744 0.931 . S
C2729 C2728 1.370 1_545 S
C2729 C2733 1.408 . S
C2730 C2728 1.363 . S
C2730 C2731 1.370 1_565 S
C2730 C2734 1.524 . S
C2731 C2723 1.503 1_556 S
C2731 C2730 1.370 1_545 S
C2731 C2732 1.403 . S
C2732 C2731 1.403 . S
C2732 C2733 1.404 . S
C2732 C2735 1.539 . S
C2733 C2729 1.408 . S
C2733 C2732 1.404 . S
C2733 H2745 0.930 . S
C2734 C2730 1.524 . S
C2734 H2746 0.956 . S
C2734 H2747 0.961 . S
C2734 H2748 0.961 . S
C2735 C2732 1.539 . S
C2735 H2749 0.958 . S
C2735 H2750 0.961 . S
C2735 H2751 0.960 1_556 S
H2736 C2720 0.931 . S
H2737 C2725 0.929 . S
H2738 C2726 0.960 . S
H2739 C2726 0.962 . S
H2740 C2726 0.960 . S
H2741 C2727 0.961 . S
H2742 C2727 0.961 1_556 S
H2743 C2727 0.961 . S
H2744 C2728 0.931 . S
H2745 C2733 0.930 . S
H2746 C2734 0.956 . S
H2747 C2734 0.961 . S
H2748 C2734 0.961 . S
H2749 C2735 0.958 . S
H2750 C2735 0.961 . S
H2751 C2735 0.960 1_554 S
C2752 C2753 1.391 . S
C2752 C2754 1.394 . S
C2752 H2768 0.931 . S
C2753 C2752 1.391 . S
C2753 C2757 1.376 . S
C2754 C2752 1.394 . S
C2754 C2755 1.369 . S
C2754 C2758 1.531 . S
C2755 C2754 1.369 . S
C2755 C2756 1.410 . S
C2755 C2763 1.503 1_554 S
C2756 C2755 1.410 . S
C2756 C2757 1.392 . S
C2756 C2759 1.511 . S
C2757 C2753 1.376 . S
C2757 C2756 1.392 . S
C2757 H2769 0.929 . S
C2758 C2754 1.531 . S
C2758 H2770 0.960 . S
C2758 H2771 0.962 . S
C2758 H2772 0.960 . S
C2759 C2756 1.511 . S
C2759 H2773 0.961 . S
C2759 H2774 0.961 1_554 S
C2759 H2775 0.961 . S
C2760 C2761 1.370 . S
C2760 C2762 1.363 . S
C2760 H2776 0.931 . S
C2761 C2760 1.370 . S
C2761 C2765 1.408 . S
C2762 C2760 1.363 . S
C2762 C2763 1.370 . S
C2762 C2766 1.524 . S
C2763 C2755 1.503 1_556 S
C2763 C2762 1.370 . S
C2763 C2764 1.403 . S
C2764 C2763 1.403 . S
C2764 C2765 1.404 . S
C2764 C2767 1.539 . S
C2765 C2761 1.408 . S
C2765 C2764 1.404 . S
C2765 H2777 0.930 . S
C2766 C2762 1.524 . S
C2766 H2778 1.011 . S
C2766 H2779 0.961 . S
C2766 H2780 0.961 . S
C2767 C2764 1.539 . S
C2767 H2781 0.958 . S
C2767 H2782 0.961 . S
C2767 H2783 0.932 1_556 S
H2768 C2752 0.931 . S
H2769 C2757 0.929 . S
H2770 C2758 0.960 . S
H2771 C2758 0.962 . S
H2772 C2758 0.960 . S
H2773 C2759 0.961 . S
H2774 C2759 0.961 1_556 S
H2775 C2759 0.961 . S
H2776 C2760 0.931 . S
H2777 C2765 0.930 . S
H2778 C2766 1.011 . S
H2779 C2766 0.961 . S
H2780 C2766 0.961 . S
H2781 C2767 0.958 . S
H2782 C2767 0.961 . S
H2783 C2767 0.932 1_554 S
C2784 C2785 1.391 . S
C2784 C2786 1.394 . S
C2784 H2800 0.931 . S
C2785 C2784 1.391 . S
C2785 C2789 1.376 . S
C2786 C2784 1.394 . S
C2786 C2787 1.369 . S
C2786 C2790 1.531 . S
C2787 C2786 1.369 . S
C2787 C2788 1.410 . S
C2787 C2795 1.503 . S
C2788 C2787 1.410 . S
C2788 C2789 1.392 . S
C2788 C2791 1.511 . S
C2789 C2785 1.376 . S
C2789 C2788 1.392 . S
C2789 H2801 0.929 . S
C2790 C2786 1.531 . S
C2790 H2802 0.960 . S
C2790 H2803 0.962 . S
C2790 H2804 0.960 . S
C2791 C2788 1.511 . S
C2791 H2805 0.961 . S
C2791 H2806 0.961 . S
C2791 H2807 0.961 . S
C2792 C2793 1.370 . S
C2792 C2794 1.363 . S
C2792 H2808 0.931 . S
C2793 C2792 1.370 . S
C2793 C2797 1.408 . S
C2794 C2792 1.363 . S
C2794 C2795 1.370 . S
C2794 C2798 1.524 . S
C2795 C2787 1.503 . S
C2795 C2794 1.370 . S
C2795 C2796 1.403 . S
C2796 C2795 1.403 . S
C2796 C2797 1.404 . S
C2796 C2799 1.539 . S
C2797 C2793 1.408 . S
C2797 C2796 1.404 . S
C2797 H2809 0.930 . S
C2798 C2794 1.524 . S
C2798 H2810 0.956 . S
C2798 H2811 0.961 . S
C2798 H2812 0.961 . S
C2799 C2796 1.539 . S
C2799 H2813 0.958 . S
C2799 H2814 0.961 . S
C2799 H2815 0.960 . S
H2800 C2784 0.931 . S
H2801 C2789 0.929 . S
H2802 C2790 0.960 . S
H2803 C2790 0.962 . S
H2804 C2790 0.960 . S
H2805 C2791 0.961 . S
H2806 C2791 0.961 . S
H2807 C2791 0.961 . S
H2808 C2792 0.931 . S
H2809 C2797 0.930 . S
H2810 C2798 0.956 . S
H2811 C2798 0.961 . S
H2812 C2798 0.961 . S
H2813 C2799 0.958 . S
H2814 C2799 0.961 . S
H2815 C2799 0.960 . S
C2816 C2817 1.391 1_545 S
C2816 C2818 1.394 . S
C2816 H2832 0.931 . S
C2817 C2816 1.391 1_565 S
C2817 C2821 1.376 . S
C2818 C2816 1.394 . S
C2818 C2819 1.369 1_545 S
C2818 C2822 1.531 . S
C2819 C2818 1.369 1_565 S
C2819 C2820 1.410 . S
C2819 C2827 1.499 1_565 S
C2820 C2819 1.410 . S
C2820 C2821 1.392 . S
C2820 C2823 1.511 . S
C2821 C2817 1.376 . S
C2821 C2820 1.392 . S
C2821 H2833 0.929 . S
C2822 C2818 1.531 . S
C2822 H2834 0.960 . S
C2822 H2835 0.962 . S
C2822 H2836 0.960 . S
C2823 C2820 1.511 . S
C2823 H2837 0.961 . S
C2823 H2838 0.961 . S
C2823 H2839 0.961 . S
C2824 C2825 1.370 . S
C2824 C2826 1.363 . S
C2824 H2840 0.931 . S
C2825 C2824 1.370 . S
C2825 C2829 1.408 1_545 S
C2826 C2824 1.363 . S
C2826 C2827 1.385 . S
C2826 C2830 1.524 . S
C2827 C2819 1.499 1_545 S
C2827 C2826 1.385 . S
C2827 C2828 1.393 1_545 S
C2828 C2827 1.393 1_565 S
C2828 C2829 1.404 . S
C2828 C2831 1.539 . S
C2829 C2825 1.408 1_565 S
C2829 C2828 1.404 . S
C2829 H2841 0.930 . S
C2830 C2826 1.524 . S
C2830 H2842 0.956 . S
C2830 H2843 0.961 . S
C2830 H2844 0.961 . S
C2831 C2828 1.539 . S
C2831 H2845 0.958 . S
C2831 H2846 0.961 . S
C2831 H2847 0.960 . S
H2832 C2816 0.931 . S
H2833 C2821 0.929 . S
H2834 C2822 0.960 . S
H2835 C2822 0.962 . S
H2836 C2822 0.960 . S
H2837 C2823 0.961 . S
H2838 C2823 0.961 . S
H2839 C2823 0.961 . S
H2840 C2824 0.931 . S
H2841 C2829 0.930 . S
H2842 C2830 0.956 . S
H2843 C2830 0.961 . S
H2844 C2830 0.961 . S
H2845 C2831 0.958 . S
H2846 C2831 0.961 . S
H2847 C2831 0.960 . S
C2848 C2849 1.391 . S
C2848 C2850 1.394 . S
C2848 H2864 0.931 . S
C2849 C2848 1.391 . S
C2849 C2853 1.376 . S
C2850 C2848 1.394 . S
C2850 C2851 1.369 . S
C2850 C2854 1.531 . S
C2851 C2850 1.369 . S
C2851 C2852 1.410 . S
C2851 C2859 1.503 1_556 S
C2852 C2851 1.410 . S
C2852 C2853 1.392 . S
C2852 C2855 1.511 . S
C2853 C2849 1.376 . S
C2853 C2852 1.392 . S
C2853 H2865 0.929 . S
C2854 C2850 1.531 . S
C2854 H2866 0.960 . S
C2854 H2867 0.962 . S
C2854 H2868 0.960 . S
C2855 C2852 1.511 . S
C2855 H2869 0.961 . S
C2855 H2870 0.961 1_556 S
C2855 H2871 0.961 . S
C2856 C2857 1.370 . S
C2856 C2858 1.363 . S
C2856 H2872 0.931 . S
C2857 C2856 1.370 . S
C2857 C2861 1.408 . S
C2858 C2856 1.363 . S
C2858 C2859 1.370 . S
C2858 C2862 1.524 . S
C2859 C2851 1.503 1_554 S
C2859 C2858 1.370 . S
C2859 C2860 1.403 . S
C2860 C2859 1.403 . S
C2860 C2861 1.404 . S
C2860 C2863 1.539 . S
C2861 C2857 1.408 . S
C2861 C2860 1.404 . S
C2861 H2873 0.930 . S
C2862 C2858 1.524 . S
C2862 H2874 0.956 . S
C2862 H2875 0.961 . S
C2862 H2876 0.961 . S
C2863 C2860 1.539 . S
C2863 H2877 0.958 . S
C2863 H2878 0.961 . S
C2863 H2879 0.960 1_554 S
H2864 C2848 0.931 . S
H2865 C2853 0.929 . S
H2866 C2854 0.960 . S
H2867 C2854 0.962 . S
H2868 C2854 0.960 . S
H2869 C2855 0.961 . S
H2870 C2855 0.961 1_554 S
H2871 C2855 0.961 . S
H2872 C2856 0.931 . S
H2873 C2861 0.930 . S
H2874 C2862 0.956 . S
H2875 C2862 0.961 . S
H2876 C2862 0.961 . S
H2877 C2863 0.958 . S
H2878 C2863 0.961 . S
H2879 C2863 0.960 1_556 S
C2880 C2881 1.391 . S
C2880 C2882 1.394 . S
C2880 H2896 0.931 . S
C2881 C2880 1.391 . S
C2881 C2885 1.376 . S
C2882 C2880 1.394 . S
C2882 C2883 1.369 . S
C2882 C2886 1.531 . S
C2883 C2882 1.369 . S
C2883 C2884 1.410 . S
C2883 C2891 1.503 . S
C2884 C2883 1.410 . S
C2884 C2885 1.392 . S
C2884 C2887 1.511 . S
C2885 C2881 1.376 . S
C2885 C2884 1.392 . S
C2885 H2897 0.929 . S
C2886 C2882 1.531 . S
C2886 H2898 0.960 . S
C2886 H2899 0.962 . S
C2886 H2900 0.960 . S
C2887 C2884 1.511 . S
C2887 H2901 0.961 . S
C2887 H2902 0.961 . S
C2887 H2903 0.961 . S
C2888 C2889 1.370 . S
C2888 C2890 1.363 . S
C2888 H2904 0.931 . S
C2889 C2888 1.370 . S
C2889 C2893 1.408 . S
C2890 C2888 1.363 . S
C2890 C2891 1.370 . S
C2890 C2894 1.524 . S
C2891 C2883 1.503 . S
C2891 C2890 1.370 . S
C2891 C2892 1.403 . S
C2892 C2891 1.403 . S
C2892 C2893 1.404 . S
C2892 C2895 1.539 . S
C2893 C2889 1.408 . S
C2893 C2892 1.404 . S
C2893 H2905 0.930 . S
C2894 C2890 1.524 . S
C2894 H2906 0.956 . S
C2894 H2907 0.961 . S
C2894 H2908 0.961 . S
C2895 C2892 1.539 . S
C2895 H2909 0.958 . S
C2895 H2910 0.961 . S
C2895 H2911 0.960 . S
H2896 C2880 0.931 . S
H2897 C2885 0.929 . S
H2898 C2886 0.960 . S
H2899 C2886 0.962 . S
H2900 C2886 0.960 . S
H2901 C2887 0.961 . S
H2902 C2887 0.961 . S
H2903 C2887 0.961 . S
H2904 C2888 0.931 . S
H2905 C2893 0.930 . S
H2906 C2894 0.956 . S
H2907 C2894 0.961 . S
H2908 C2894 0.961 . S
H2909 C2895 0.958 . S
H2910 C2895 0.961 . S
H2911 C2895 0.960 . S
C2912 C2913 1.391 1_545 S
C2912 C2914 1.394 . S
C2912 H2928 0.931 . S
C2913 C2912 1.391 1_565 S
C2913 C2917 1.376 . S
C2914 C2912 1.394 . S
C2914 C2915 1.369 . S
C2914 C2918 1.531 . S
C2915 C2914 1.369 . S
C2915 C2916 1.410 1_545 S
C2915 C2923 1.503 . S
C2916 C2915 1.410 1_565 S
C2916 C2917 1.392 . S
C2916 C2919 1.511 . S
C2917 C2913 1.376 . S
C2917 C2916 1.392 . S
C2917 H2929 0.929 . S
C2918 C2914 1.531 . S
C2918 H2930 0.960 . S
C2918 H2931 0.962 . S
C2918 H2932 0.960 . S
C2919 C2916 1.511 . S
C2919 H2933 0.961 . S
C2919 H2934 0.961 . S
C2919 H2935 0.961 . S
C2920 C2921 1.370 1_565 S
C2920 C2922 1.363 . S
C2920 H2936 0.931 . S
C2921 C2920 1.370 1_545 S
C2921 C2925 1.408 . S
C2922 C2920 1.363 . S
C2922 C2923 1.370 1_565 S
C2922 C2926 1.524 . S
C2923 C2915 1.503 . S
C2923 C2922 1.370 1_545 S
C2923 C2924 1.403 . S
C2924 C2923 1.403 . S
C2924 C2925 1.404 . S
C2924 C2927 1.539 . S
C2925 C2921 1.408 . S
C2925 C2924 1.404 . S
C2925 H2937 0.930 . S
C2926 C2922 1.524 . S
C2926 H2938 0.956 . S
C2926 H2939 0.961 . S
C2926 H2940 0.961 . S
C2927 C2924 1.539 . S
C2927 H2941 0.958 . S
C2927 H2942 0.961 . S
C2927 H2943 0.960 . S
H2928 C2912 0.931 . S
H2929 C2917 0.929 . S
H2930 C2918 0.960 . S
H2931 C2918 0.962 . S
H2932 C2918 0.960 . S
H2933 C2919 0.961 . S
H2934 C2919 0.961 . S
H2935 C2919 0.961 . S
H2936 C2920 0.931 . S
H2937 C2925 0.930 . S
H2938 C2926 0.956 . S
H2939 C2926 0.961 . S
H2940 C2926 0.961 . S
H2941 C2927 0.958 . S
H2942 C2927 0.961 . S
H2943 C2927 0.960 . S
C2944 C2945 1.391 . S
C2944 C2946 1.394 . S
C2944 H2960 0.931 . S
C2945 C2944 1.391 . S
C2945 C2949 1.376 . S
C2946 C2944 1.394 . S
C2946 C2947 1.369 . S
C2946 C2950 1.531 . S
C2947 C2946 1.369 . S
C2947 C2948 1.410 . S
C2947 C2955 1.503 . S
C2948 C2947 1.410 . S
C2948 C2949 1.392 . S
C2948 C2951 1.511 . S
C2949 C2945 1.376 . S
C2949 C2948 1.392 . S
C2949 H2961 0.929 . S
C2950 C2946 1.531 . S
C2950 H2962 0.960 . S
C2950 H2963 0.962 . S
C2950 H2964 0.960 . S
C2951 C2948 1.511 . S
C2951 H2965 0.961 . S
C2951 H2966 0.961 . S
C2951 H2967 0.961 . S
C2952 C2953 1.370 . S
C2952 C2954 1.363 . S
C2952 H2968 0.931 . S
C2953 C2952 1.370 . S
C2953 C2957 1.408 . S
C2954 C2952 1.363 . S
C2954 C2955 1.370 . S
C2954 C2958 1.524 . S
C2955 C2947 1.503 . S
C2955 C2954 1.370 . S
C2955 C2956 1.403 . S
C2956 C2955 1.403 . S
C2956 C2957 1.404 . S
C2956 C2959 1.539 . S
C2957 C2953 1.408 . S
C2957 C2956 1.404 . S
C2957 H2969 0.930 . S
C2958 C2954 1.524 . S
C2958 H2970 0.956 . S
C2958 H2971 0.961 . S
C2958 H2972 0.961 . S
C2959 C2956 1.539 . S
C2959 H2973 0.958 . S
C2959 H2974 0.961 . S
C2959 H2975 0.960 . S
H2960 C2944 0.931 . S
H2961 C2949 0.929 . S
H2962 C2950 0.960 . S
H2963 C2950 0.962 . S
H2964 C2950 0.960 . S
H2965 C2951 0.961 . S
H2966 C2951 0.961 . S
H2967 C2951 0.961 . S
H2968 C2952 0.931 . S
H2969 C2957 0.930 . S
H2970 C2958 0.956 . S
H2971 C2958 0.961 . S
H2972 C2958 0.961 . S
H2973 C2959 0.958 . S
H2974 C2959 0.961 . S
H2975 C2959 0.960 . S
C2976 C2977 1.391 . S
C2976 C2978 1.394 . S
C2976 H2992 0.931 . S
C2977 C2976 1.391 . S
C2977 C2981 1.376 . S
C2978 C2976 1.394 . S
C2978 C2979 1.369 . S
C2978 C2982 1.531 . S
C2979 C2978 1.369 . S
C2979 C2980 1.410 . S
C2979 C2987 1.503 . S
C2980 C2979 1.410 . S
C2980 C2981 1.392 . S
C2980 C2983 1.511 . S
C2981 C2977 1.376 . S
C2981 C2980 1.392 . S
C2981 H2993 0.929 . S
C2982 C2978 1.531 . S
C2982 H2994 0.960 . S
C2982 H2995 0.962 . S
C2982 H2996 0.960 . S
C2983 C2980 1.511 . S
C2983 H2997 0.961 . S
C2983 H2998 0.961 . S
C2983 H2999 0.961 . S
C2984 C2985 1.370 . S
C2984 C2986 1.363 . S
C2984 H3000 0.931 . S
C2985 C2984 1.370 . S
C2985 C2989 1.408 . S
C2986 C2984 1.363 . S
C2986 C2987 1.370 . S
C2986 C2990 1.524 . S
C2987 C2979 1.503 . S
C2987 C2986 1.370 . S
C2987 C2988 1.403 . S
C2988 C2987 1.403 . S
C2988 C2989 1.404 . S
C2988 C2991 1.539 . S
C2989 C2985 1.408 . S
C2989 C2988 1.404 . S
C2989 H3001 0.930 . S
C2990 C2986 1.524 . S
C2990 H3002 0.956 . S
C2990 H3003 0.961 . S
C2990 H3004 0.961 . S
C2991 C2988 1.539 . S
C2991 H3005 0.958 . S
C2991 H3006 0.961 . S
C2991 H3007 0.960 . S
H2992 C2976 0.931 . S
H2993 C2981 0.929 . S
H2994 C2982 0.960 . S
H2995 C2982 0.962 . S
H2996 C2982 0.960 . S
H2997 C2983 0.961 . S
H2998 C2983 0.961 . S
H2999 C2983 0.961 . S
H3000 C2984 0.931 . S
H3001 C2989 0.930 . S
H3002 C2990 0.956 . S
H3003 C2990 0.961 . S
H3004 C2990 0.961 . S
H3005 C2991 0.958 . S
H3006 C2991 0.961 . S
H3007 C2991 0.960 . S
C3008 C3009 1.391 . S
C3008 C3010 1.394 . S
C3008 H3024 0.931 . S
C3009 C3008 1.391 . S
C3009 C3013 1.376 . S
C3010 C3008 1.394 . S
C3010 C3011 1.369 . S
C3010 C3014 1.531 . S
C3011 C3010 1.369 . S
C3011 C3012 1.410 . S
C3011 C3019 1.503 . S
C3012 C3011 1.410 . S
C3012 C3013 1.392 . S
C3012 C3015 1.511 . S
C3013 C3009 1.376 . S
C3013 C3012 1.392 . S
C3013 H3025 0.929 . S
C3014 C3010 1.531 . S
C3014 H3026 0.960 . S
C3014 H3027 0.962 . S
C3014 H3028 0.960 . S
C3015 C3012 1.511 . S
C3015 H3029 0.961 . S
C3015 H3030 0.961 . S
C3015 H3031 0.961 . S
C3016 C3017 1.370 . S
C3016 C3018 1.363 . S
C3016 H3032 0.931 . S
C3017 C3016 1.370 . S
C3017 C3021 1.408 . S
C3018 C3016 1.363 . S
C3018 C3019 1.370 . S
C3018 C3022 1.524 . S
C3019 C3011 1.503 . S
C3019 C3018 1.370 . S
C3019 C3020 1.403 . S
C3020 C3019 1.403 . S
C3020 C3021 1.404 . S
C3020 C3023 1.539 . S
C3021 C3017 1.408 . S
C3021 C3020 1.404 . S
C3021 H3033 0.930 . S
C3022 C3018 1.524 . S
C3022 H3034 0.956 . S
C3022 H3035 0.961 . S
C3022 H3036 0.961 . S
C3023 C3020 1.539 . S
C3023 H3037 0.958 . S
C3023 H3038 0.961 . S
C3023 H3039 0.960 . S
H3024 C3008 0.931 . S
H3025 C3013 0.929 . S
H3026 C3014 0.960 . S
H3027 C3014 0.962 . S
H3028 C3014 0.960 . S
H3029 C3015 0.961 . S
H3030 C3015 0.961 . S
H3031 C3015 0.961 . S
H3032 C3016 0.931 . S
H3033 C3021 0.930 . S
H3034 C3022 0.956 . S
H3035 C3022 0.961 . S
H3036 C3022 0.961 . S
H3037 C3023 0.958 . S
H3038 C3023 0.961 . S
H3039 C3023 0.960 . S
C3040 C3041 1.391 . S
C3040 C3042 1.394 . S
C3040 H3056 0.931 . S
C3041 C3040 1.391 . S
C3041 C3045 1.376 . S
C3042 C3040 1.394 . S
C3042 C3043 1.369 . S
C3042 C3046 1.531 . S
C3043 C3042 1.369 . S
C3043 C3044 1.410 . S
C3043 C3051 1.503 . S
C3044 C3043 1.410 . S
C3044 C3045 1.392 . S
C3044 C3047 1.511 . S
C3045 C3041 1.376 . S
C3045 C3044 1.392 . S
C3045 H3057 0.929 . S
C3046 C3042 1.531 . S
C3046 H3058 0.960 . S
C3046 H3059 0.962 . S
C3046 H3060 0.960 . S
C3047 C3044 1.511 . S
C3047 H3061 0.961 . S
C3047 H3062 0.961 . S
C3047 H3063 0.961 . S
C3048 C3049 1.370 . S
C3048 C3050 1.363 . S
C3048 H3064 0.931 . S
C3049 C3048 1.370 . S
C3049 C3053 1.408 . S
C3050 C3048 1.363 . S
C3050 C3051 1.370 . S
C3050 C3054 1.524 . S
C3051 C3043 1.503 . S
C3051 C3050 1.370 . S
C3051 C3052 1.403 . S
C3052 C3051 1.403 . S
C3052 C3053 1.404 . S
C3052 C3055 1.539 . S
C3053 C3049 1.408 . S
C3053 C3052 1.404 . S
C3053 H3065 0.930 . S
C3054 C3050 1.524 . S
C3054 H3066 0.956 . S
C3054 H3067 0.961 . S
C3054 H3068 0.961 . S
C3055 C3052 1.539 . S
C3055 H3069 0.958 . S
C3055 H3070 0.961 . S
C3055 H3071 0.960 . S
H3056 C3040 0.931 . S
H3057 C3045 0.929 . S
H3058 C3046 0.960 . S
H3059 C3046 0.962 . S
H3060 C3046 0.960 . S
H3061 C3047 0.961 . S
H3062 C3047 0.961 . S
H3063 C3047 0.961 . S
H3064 C3048 0.931 . S
H3065 C3053 0.930 . S
H3066 C3054 0.956 . S
H3067 C3054 0.961 . S
H3068 C3054 0.961 . S
H3069 C3055 0.958 . S
H3070 C3055 0.961 . S
H3071 C3055 0.960 . S
C3072 C3073 1.391 . S
C3072 C3074 1.394 . S
C3072 H3088 0.931 . S
C3073 C3072 1.391 . S
C3073 C3077 1.376 . S
C3074 C3072 1.394 . S
C3074 C3075 1.369 . S
C3074 C3078 1.531 . S
C3075 C3074 1.369 . S
C3075 C3076 1.410 . S
C3075 C3083 1.503 . S
C3076 C3075 1.410 . S
C3076 C3077 1.392 . S
C3076 C3079 1.511 . S
C3077 C3073 1.376 . S
C3077 C3076 1.392 . S
C3077 H3089 0.929 . S
C3078 C3074 1.531 . S
C3078 H3090 0.960 . S
C3078 H3091 0.962 . S
C3078 H3092 0.960 . S
C3079 C3076 1.511 . S
C3079 H3093 0.961 . S
C3079 H3094 0.961 . S
C3079 H3095 0.961 . S
C3080 C3081 1.370 . S
C3080 C3082 1.363 . S
C3080 H3096 0.931 . S
C3081 C3080 1.370 . S
C3081 C3085 1.408 . S
C3082 C3080 1.363 . S
C3082 C3083 1.370 . S
C3082 C3086 1.524 . S
C3083 C3075 1.503 . S
C3083 C3082 1.370 . S
C3083 C3084 1.403 . S
C3084 C3083 1.403 . S
C3084 C3085 1.404 . S
C3084 C3087 1.539 . S
C3085 C3081 1.408 . S
C3085 C3084 1.404 . S
C3085 H3097 0.930 . S
C3086 C3082 1.524 . S
C3086 H3098 0.956 . S
C3086 H3099 0.961 . S
C3086 H3100 0.961 . S
C3087 C3084 1.539 . S
C3087 H3101 0.958 . S
C3087 H3102 0.961 . S
C3087 H3103 0.960 . S
H3088 C3072 0.931 . S
H3089 C3077 0.929 . S
H3090 C3078 0.960 . S
H3091 C3078 0.962 . S
H3092 C3078 0.960 . S
H3093 C3079 0.961 . S
H3094 C3079 0.961 . S
H3095 C3079 0.961 . S
H3096 C3080 0.931 . S
H3097 C3085 0.930 . S
H3098 C3086 0.956 . S
H3099 C3086 0.961 . S
H3100 C3086 0.961 . S
H3101 C3087 0.958 . S
H3102 C3087 0.961 . S
H3103 C3087 0.960 . S
C3104 C3105 1.391 . S
C3104 C3106 1.394 . S
C3104 H3120 0.931 . S
C3105 C3104 1.391 . S
C3105 C3109 1.376 1_455 S
C3106 C3104 1.394 . S
C3106 C3107 1.366 1_455 S
C3106 C3110 1.531 . S
C3107 C3106 1.366 1_655 S
C3107 C3108 1.412 . S
C3107 C3115 1.503 . S
C3108 C3107 1.412 . S
C3108 C3109 1.392 . S
C3108 C3111 1.511 1_545 S
C3109 C3105 1.376 1_655 S
C3109 C3108 1.392 . S
C3109 H3121 0.929 . S
C3110 C3106 1.531 . S
C3110 H3122 0.960 . S
C3110 H3123 0.962 . S
C3110 H3124 0.960 . S
C3111 C3108 1.511 1_565 S
C3111 H3125 0.961 . S
C3111 H3126 0.961 . S
C3111 H3127 0.961 1_565 S
C3112 C3113 1.370 1_455 S
C3112 C3114 1.363 . S
C3112 H3128 0.931 . S
C3113 C3112 1.370 1_655 S
C3113 C3117 1.408 1_565 S
C3114 C3112 1.363 . S
C3114 C3115 1.370 1_465 S
C3114 C3118 1.524 . S
C3115 C3107 1.503 . S
C3115 C3114 1.370 1_645 S
C3115 C3116 1.403 . S
C3116 C3115 1.403 . S
C3116 C3117 1.404 . S
C3116 C3119 1.539 . S
C3117 C3113 1.408 1_545 S
C3117 C3116 1.404 . S
C3117 H3129 0.930 . S
C3118 C3114 1.524 . S
C3118 H3130 0.956 . S
C3118 H3131 0.961 1_455 S
C3118 H3132 0.961 . S
C3119 C3116 1.539 . S
C3119 H3133 0.942 1_655 S
C3119 H3134 0.961 . S
C3119 H3135 0.960 . S
H3120 C3104 0.931 . S
H3121 C3109 0.929 . S
H3122 C3110 0.960 . S
H3123 C3110 0.962 . S
H3124 C3110 0.960 . S
H3125 C3111 0.961 . S
H3126 C3111 0.961 . S
H3127 C3111 0.961 1_545 S
H3128 C3112 0.931 . S
H3129 C3117 0.930 . S
H3130 C3118 0.956 . S
H3131 C3118 0.961 1_655 S
H3132 C3118 0.961 . S
H3133 C3119 0.942 1_455 S
H3134 C3119 0.961 . S
H3135 C3119 0.960 . S
C3136 C3137 1.391 1_455 S
C3136 C3138 1.394 . S
C3136 H3152 0.931 . S
C3137 C3136 1.391 1_655 S
C3137 C3141 1.376 . S
C3138 C3136 1.394 . S
C3138 C3139 1.369 1_455 S
C3138 C3142 1.531 . S
C3139 C3138 1.369 1_655 S
C3139 C3140 1.410 . S
C3139 C3147 1.503 . S
C3140 C3139 1.410 . S
C3140 C3141 1.392 . S
C3140 C3143 1.511 . S
C3141 C3137 1.376 . S
C3141 C3140 1.392 . S
C3141 H3153 0.929 . S
C3142 C3138 1.531 . S
C3142 H3154 0.960 . S
C3142 H3155 0.962 . S
C3142 H3156 0.960 . S
C3143 C3140 1.511 . S
C3143 H3157 0.961 . S
C3143 H3158 0.961 . S
C3143 H3159 0.961 . S
C3144 C3145 1.370 . S
C3144 C3146 1.363 . S
C3144 H3160 0.931 . S
C3145 C3144 1.370 . S
C3145 C3149 1.408 1_455 S
C3146 C3144 1.363 . S
C3146 C3147 1.370 1_455 S
C3146 C3150 1.524 . S
C3147 C3139 1.503 . S
C3147 C3146 1.370 1_655 S
C3147 C3148 1.403 . S
C3148 C3147 1.403 . S
C3148 C3149 1.404 . S
C3148 C3151 1.539 . S
C3149 C3145 1.408 1_655 S
C3149 C3148 1.404 . S
C3149 H3161 0.930 . S
C3150 C3146 1.524 . S
C3150 H3162 0.956 . S
C3150 H3163 0.961 . S
C3150 H3164 0.961 . S
C3151 C3148 1.539 . S
C3151 H3165 0.958 . S
C3151 H3166 0.961 . S
C3151 H3167 0.960 . S
H3152 C3136 0.931 . S
H3153 C3141 0.929 . S
H3154 C3142 0.960 . S
H3155 C3142 0.962 . S
H3156 C3142 0.960 . S
H3157 C3143 0.961 . S
H3158 C3143 0.961 . S
H3159 C3143 0.961 . S
H3160 C3144 0.931 . S
H3161 C3149 0.930 . S
H3162 C3150 0.956 . S
H3163 C3150 0.961 . S
H3164 C3150 0.961 . S
H3165 C3151 0.958 . S
H3166 C3151 0.961 . S
H3167 C3151 0.960 . S
C3168 C3169 1.391 . S
C3168 C3170 1.394 . S
C3168 H3184 0.931 . S
C3169 C3168 1.391 . S
C3169 C3173 1.376 1_655 S
C3170 C3168 1.394 . S
C3170 C3171 1.369 1_655 S
C3170 C3174 1.531 . S
C3171 C3170 1.369 1_455 S
C3171 C3172 1.410 . S
C3171 C3179 1.503 . S
C3172 C3171 1.410 . S
C3172 C3173 1.392 . S
C3172 C3175 1.511 . S
C3173 C3169 1.376 1_455 S
C3173 C3172 1.392 . S
C3173 H3185 0.929 . S
C3174 C3170 1.531 . S
C3174 H3186 0.960 . S
C3174 H3187 0.962 . S
C3174 H3188 0.960 . S
C3175 C3172 1.511 . S
C3175 H3189 0.961 . S
C3175 H3190 0.961 . S
C3175 H3191 0.961 . S
C3176 C3177 1.370 1_655 S
C3176 C3178 1.363 . S
C3176 H3192 0.931 . S
C3177 C3176 1.370 1_455 S
C3177 C3181 1.408 . S
C3178 C3176 1.363 . S
C3178 C3179 1.370 1_655 S
C3178 C3182 1.524 . S
C3179 C3171 1.503 . S
C3179 C3178 1.370 1_455 S
C3179 C3180 1.403 . S
C3180 C3179 1.403 . S
C3180 C3181 1.404 . S
C3180 C3183 1.539 . S
C3181 C3177 1.408 . S
C3181 C3180 1.404 . S
C3181 H3193 0.930 . S
C3182 C3178 1.524 . S
C3182 H3194 0.956 . S
C3182 H3195 0.961 . S
C3182 H3196 0.961 . S
C3183 C3180 1.539 . S
C3183 H3197 0.958 . S
C3183 H3198 0.961 . S
C3183 H3199 0.960 . S
H3184 C3168 0.931 . S
H3185 C3173 0.929 . S
H3186 C3174 0.960 . S
H3187 C3174 0.962 . S
H3188 C3174 0.960 . S
H3189 C3175 0.961 . S
H3190 C3175 0.961 . S
H3191 C3175 0.961 . S
H3192 C3176 0.931 . S
H3193 C3181 0.930 . S
H3194 C3182 0.956 . S
H3195 C3182 0.961 . S
H3196 C3182 0.961 . S
H3197 C3183 0.958 . S
H3198 C3183 0.961 . S
H3199 C3183 0.960 . S
C3200 C3201 1.391 1_655 S
C3200 C3202 1.394 . S
C3200 H3216 0.931 . S
C3201 C3200 1.391 1_455 S
C3201 C3205 1.376 . S
C3202 C3200 1.394 . S
C3202 C3203 1.397 . S
C3202 C3206 1.531 . S
C3203 C3202 1.397 . S
C3203 C3204 1.379 1_655 S
C3203 C3211 1.505 1_556 S
C3204 C3203 1.379 1_455 S
C3204 C3205 1.392 . S
C3204 C3207 1.511 . S
C3205 C3201 1.376 . S
C3205 C3204 1.392 . S
C3205 H3217 0.929 . S
C3206 C3202 1.531 . S
C3206 H3218 0.989 . S
C3206 H3219 0.962 . S
C3206 H3220 0.960 . S
C3207 C3204 1.511 . S
C3207 H3221 0.961 . S
C3207 H3222 0.961 1_556 S
C3207 H3223 0.961 . S
C3208 C3209 1.370 1_455 S
C3208 C3210 1.363 . S
C3208 H3224 0.931 . S
C3209 C3208 1.370 1_655 S
C3209 C3213 1.408 . S
C3210 C3208 1.363 . S
C3210 C3211 1.370 1_455 S
C3210 C3214 1.524 . S
C3211 C3203 1.505 1_554 S
C3211 C3210 1.370 1_655 S
C3211 C3212 1.403 . S
C3212 C3211 1.403 . S
C3212 C3213 1.404 . S
C3212 C3215 1.539 . S
C3213 C3209 1.408 . S
C3213 C3212 1.404 . S
C3213 H3225 0.930 . S
C3214 C3210 1.524 . S
C3214 H3226 0.956 1_455 S
C3214 H3227 0.961 . S
C3214 H3228 0.961 . S
C3215 C3212 1.539 . S
C3215 H3229 0.958 . S
C3215 H3230 0.961 . S
C3215 H3231 0.960 1_554 S
H3216 C3200 0.931 . S
H3217 C3205 0.929 . S
H3218 C3206 0.989 . S
H3219 C3206 0.962 . S
H3220 C3206 0.960 . S
H3221 C3207 0.961 . S
H3222 C3207 0.961 1_554 S
H3223 C3207 0.961 . S
H3224 C3208 0.931 . S
H3225 C3213 0.930 . S
H3226 C3214 0.956 1_655 S
H3227 C3214 0.961 . S
H3228 C3214 0.961 . S
H3229 C3215 0.958 . S
H3230 C3215 0.961 . S
H3231 C3215 0.960 1_556 S
C3232 C3233 1.391 . S
C3232 C3234 1.394 . S
C3232 H3248 0.931 . S
C3233 C3232 1.391 . S
C3233 C3237 1.376 . S
C3234 C3232 1.394 . S
C3234 C3235 1.369 . S
C3234 C3238 1.531 . S
C3235 C3234 1.369 . S
C3235 C3236 1.410 . S
C3235 C3243 1.503 . S
C3236 C3235 1.410 . S
C3236 C3237 1.392 . S
C3236 C3239 1.511 . S
C3237 C3233 1.376 . S
C3237 C3236 1.392 . S
C3237 H3249 0.929 . S
C3238 C3234 1.531 . S
C3238 H3250 0.960 . S
C3238 H3251 0.962 . S
C3238 H3252 0.960 . S
C3239 C3236 1.511 . S
C3239 H3253 0.961 . S
C3239 H3254 0.961 . S
C3239 H3255 0.961 . S
C3240 C3241 1.370 . S
C3240 C3242 1.363 . S
C3240 H3256 0.931 . S
C3241 C3240 1.370 . S
C3241 C3245 1.408 . S
C3242 C3240 1.363 . S
C3242 C3243 1.370 . S
C3242 C3246 1.524 . S
C3243 C3235 1.503 . S
C3243 C3242 1.370 . S
C3243 C3244 1.403 . S
C3244 C3243 1.403 . S
C3244 C3245 1.404 . S
C3244 C3247 1.539 . S
C3245 C3241 1.408 . S
C3245 C3244 1.404 . S
C3245 H3257 0.930 . S
C3246 C3242 1.524 . S
C3246 H3258 0.956 . S
C3246 H3259 0.961 . S
C3246 H3260 0.961 . S
C3247 C3244 1.539 . S
C3247 H3261 0.958 . S
C3247 H3262 0.961 . S
C3247 H3263 0.960 . S
H3248 C3232 0.931 . S
H3249 C3237 0.929 . S
H3250 C3238 0.960 . S
H3251 C3238 0.962 . S
H3252 C3238 0.960 . S
H3253 C3239 0.961 . S
H3254 C3239 0.961 . S
H3255 C3239 0.961 . S
H3256 C3240 0.931 . S
H3257 C3245 0.930 . S
H3258 C3246 0.956 . S
H3259 C3246 0.961 . S
H3260 C3246 0.961 . S
H3261 C3247 0.958 . S
H3262 C3247 0.961 . S
H3263 C3247 0.960 . S
C3264 C3265 1.391 . S
C3264 C3266 1.394 . S
C3264 H3280 0.931 . S
C3265 C3264 1.391 . S
C3265 C3269 1.376 . S
C3266 C3264 1.394 . S
C3266 C3267 1.369 . S
C3266 C3270 1.531 . S
C3267 C3266 1.369 . S
C3267 C3268 1.410 . S
C3267 C3275 1.503 . S
C3268 C3267 1.410 . S
C3268 C3269 1.392 . S
C3268 C3271 1.511 . S
C3269 C3265 1.376 . S
C3269 C3268 1.392 . S
C3269 H3281 0.929 . S
C3270 C3266 1.531 . S
C3270 H3282 0.960 . S
C3270 H3283 0.962 . S
C3270 H3284 0.960 . S
C3271 C3268 1.511 . S
C3271 H3285 0.961 . S
C3271 H3286 0.961 . S
C3271 H3287 0.961 . S
C3272 C3273 1.370 . S
C3272 C3274 1.363 . S
C3272 H3288 0.931 . S
C3273 C3272 1.370 . S
C3273 C3277 1.408 . S
C3274 C3272 1.363 . S
C3274 C3275 1.370 . S
C3274 C3278 1.524 . S
C3275 C3267 1.503 . S
C3275 C3274 1.370 . S
C3275 C3276 1.403 . S
C3276 C3275 1.403 . S
C3276 C3277 1.404 . S
C3276 C3279 1.539 . S
C3277 C3273 1.408 . S
C3277 C3276 1.404 . S
C3277 H3289 0.930 . S
C3278 C3274 1.524 . S
C3278 H3290 0.956 . S
C3278 H3291 0.961 . S
C3278 H3292 0.961 . S
C3279 C3276 1.539 . S
C3279 H3293 0.958 . S
C3279 H3294 0.961 . S
C3279 H3295 0.960 . S
H3280 C3264 0.931 . S
H3281 C3269 0.929 . S
H3282 C3270 0.960 . S
H3283 C3270 0.962 . S
H3284 C3270 0.960 . S
H3285 C3271 0.961 . S
H3286 C3271 0.961 . S
H3287 C3271 0.961 . S
H3288 C3272 0.931 . S
H3289 C3277 0.930 . S
H3290 C3278 0.956 . S
H3291 C3278 0.961 . S
H3292 C3278 0.961 . S
H3293 C3279 0.958 . S
H3294 C3279 0.961 . S
H3295 C3279 0.960 . S
C3296 C3297 1.391 . S
C3296 C3298 1.394 . S
C3296 H3312 0.931 . S
C3297 C3296 1.391 . S
C3297 C3301 1.376 . S
C3298 C3296 1.394 . S
C3298 C3299 1.369 . S
C3298 C3302 1.531 . S
C3299 C3298 1.369 . S
C3299 C3300 1.410 . S
C3299 C3307 1.503 . S
C3300 C3299 1.410 . S
C3300 C3301 1.392 . S
C3300 C3303 1.511 . S
C3301 C3297 1.376 . S
C3301 C3300 1.392 . S
C3301 H3313 0.929 . S
C3302 C3298 1.531 . S
C3302 H3314 0.960 . S
C3302 H3315 0.962 . S
C3302 H3316 0.960 . S
C3303 C3300 1.511 . S
C3303 H3317 0.961 . S
C3303 H3318 0.961 . S
C3303 H3319 0.961 . S
C3304 C3305 1.370 . S
C3304 C3306 1.363 . S
C3304 H3320 0.931 . S
C3305 C3304 1.370 . S
C3305 C3309 1.408 . S
C3306 C3304 1.363 . S
C3306 C3307 1.370 . S
C3306 C3310 1.524 . S
C3307 C3299 1.503 . S
C3307 C3306 1.370 . S
C3307 C3308 1.403 . S
C3308 C3307 1.403 . S
C3308 C3309 1.404 . S
C3308 C3311 1.539 . S
C3309 C3305 1.408 . S
C3309 C3308 1.404 . S
C3309 H3321 0.930 . S
C3310 C3306 1.524 . S
C3310 H3322 0.956 . S
C3310 H3323 0.961 . S
C3310 H3324 0.961 . S
C3311 C3308 1.539 . S
C3311 H3325 0.958 . S
C3311 H3326 0.961 . S
C3311 H3327 0.960 . S
H3312 C3296 0.931 . S
H3313 C3301 0.929 . S
H3314 C3302 0.960 . S
H3315 C3302 0.962 . S
H3316 C3302 0.960 . S
H3317 C3303 0.961 . S
H3318 C3303 0.961 . S
H3319 C3303 0.961 . S
H3320 C3304 0.931 . S
H3321 C3309 0.930 . S
H3322 C3310 0.956 . S
H3323 C3310 0.961 . S
H3324 C3310 0.961 . S
H3325 C3311 0.958 . S
H3326 C3311 0.961 . S
H3327 C3311 0.960 . S
C3328 C3329 1.391 . S
C3328 C3330 1.394 . S
C3328 H3344 0.931 . S
C3329 C3328 1.391 . S
C3329 C3333 1.376 . S
C3330 C3328 1.394 . S
C3330 C3331 1.369 . S
C3330 C3334 1.531 . S
C3331 C3330 1.369 . S
C3331 C3332 1.410 . S
C3331 C3339 1.503 . S
C3332 C3331 1.410 . S
C3332 C3333 1.392 . S
C3332 C3335 1.511 . S
C3333 C3329 1.376 . S
C3333 C3332 1.392 . S
C3333 H3345 0.929 . S
C3334 C3330 1.531 . S
C3334 H3346 0.960 . S
C3334 H3347 0.962 . S
C3334 H3348 0.960 . S
C3335 C3332 1.511 . S
C3335 H3349 0.961 . S
C3335 H3350 0.961 . S
C3335 H3351 0.961 . S
C3336 C3337 1.370 . S
C3336 C3338 1.363 . S
C3336 H3352 0.931 . S
C3337 C3336 1.370 . S
C3337 C3341 1.408 . S
C3338 C3336 1.363 . S
C3338 C3339 1.370 . S
C3338 C3342 1.524 . S
C3339 C3331 1.503 . S
C3339 C3338 1.370 . S
C3339 C3340 1.403 . S
C3340 C3339 1.403 . S
C3340 C3341 1.404 . S
C3340 C3343 1.539 . S
C3341 C3337 1.408 . S
C3341 C3340 1.404 . S
C3341 H3353 0.930 . S
C3342 C3338 1.524 . S
C3342 H3354 0.956 . S
C3342 H3355 0.961 . S
C3342 H3356 0.961 . S
C3343 C3340 1.539 . S
C3343 H3357 0.958 . S
C3343 H3358 0.961 . S
C3343 H3359 0.960 . S
H3344 C3328 0.931 . S
H3345 C3333 0.929 . S
H3346 C3334 0.960 . S
H3347 C3334 0.962 . S
H3348 C3334 0.960 . S
H3349 C3335 0.961 . S
H3350 C3335 0.961 . S
H3351 C3335 0.961 . S
H3352 C3336 0.931 . S
H3353 C3341 0.930 . S
H3354 C3342 0.956 . S
H3355 C3342 0.961 . S
H3356 C3342 0.961 . S
H3357 C3343 0.958 . S
H3358 C3343 0.961 . S
H3359 C3343 0.960 . S
C3360 C3361 1.391 . S
C3360 C3362 1.394 . S
C3360 H3376 0.931 . S
C3361 C3360 1.391 . S
C3361 C3365 1.376 . S
C3362 C3360 1.394 . S
C3362 C3363 1.369 . S
C3362 C3366 1.531 . S
C3363 C3362 1.369 . S
C3363 C3364 1.410 . S
C3363 C3371 1.503 . S
C3364 C3363 1.410 . S
C3364 C3365 1.392 . S
C3364 C3367 1.511 . S
C3365 C3361 1.376 . S
C3365 C3364 1.392 . S
C3365 H3377 0.929 . S
C3366 C3362 1.531 . S
C3366 H3378 0.960 . S
C3366 H3379 0.962 . S
C3366 H3380 0.960 . S
C3367 C3364 1.511 . S
C3367 H3381 0.961 . S
C3367 H3382 0.961 . S
C3367 H3383 0.961 . S
C3368 C3369 1.370 . S
C3368 C3370 1.363 . S
C3368 H3384 0.931 . S
C3369 C3368 1.370 . S
C3369 C3373 1.408 . S
C3370 C3368 1.363 . S
C3370 C3371 1.370 . S
C3370 C3374 1.524 . S
C3371 C3363 1.503 . S
C3371 C3370 1.370 . S
C3371 C3372 1.403 . S
C3372 C3371 1.403 . S
C3372 C3373 1.404 . S
C3372 C3375 1.539 . S
C3373 C3369 1.408 . S
C3373 C3372 1.404 . S
C3373 H3385 0.930 . S
C3374 C3370 1.524 . S
C3374 H3386 0.956 . S
C3374 H3387 0.961 . S
C3374 H3388 0.961 . S
C3375 C3372 1.539 . S
C3375 H3389 0.958 . S
C3375 H3390 0.961 . S
C3375 H3391 0.960 . S
H3376 C3360 0.931 . S
H3377 C3365 0.929 . S
H3378 C3366 0.960 . S
H3379 C3366 0.962 . S
H3380 C3366 0.960 . S
H3381 C3367 0.961 . S
H3382 C3367 0.961 . S
H3383 C3367 0.961 . S
H3384 C3368 0.931 . S
H3385 C3373 0.930 . S
H3386 C3374 0.956 . S
H3387 C3374 0.961 . S
H3388 C3374 0.961 . S
H3389 C3375 0.958 . S
H3390 C3375 0.961 . S
H3391 C3375 0.960 . S
C3392 C3393 1.391 . S
C3392 C3394 1.394 . S
C3392 H3408 0.931 . S
C3393 C3392 1.391 . S
C3393 C3397 1.376 . S
C3394 C3392 1.394 . S
C3394 C3395 1.369 . S
C3394 C3398 1.531 . S
C3395 C3394 1.369 . S
C3395 C3396 1.410 . S
C3395 C3403 1.503 . S
C3396 C3395 1.410 . S
C3396 C3397 1.392 . S
C3396 C3399 1.511 . S
C3397 C3393 1.376 . S
C3397 C3396 1.392 . S
C3397 H3409 0.929 . S
C3398 C3394 1.531 . S
C3398 H3410 0.960 . S
C3398 H3411 0.962 . S
C3398 H3412 0.960 . S
C3399 C3396 1.511 . S
C3399 H3413 0.961 . S
C3399 H3414 0.961 . S
C3399 H3415 0.961 . S
C3400 C3401 1.370 . S
C3400 C3402 1.363 . S
C3400 H3416 0.931 . S
C3401 C3400 1.370 . S
C3401 C3405 1.408 . S
C3402 C3400 1.363 . S
C3402 C3403 1.370 . S
C3402 C3406 1.524 . S
C3403 C3395 1.503 . S
C3403 C3402 1.370 . S
C3403 C3404 1.403 . S
C3404 C3403 1.403 . S
C3404 C3405 1.404 . S
C3404 C3407 1.539 . S
C3405 C3401 1.408 . S
C3405 C3404 1.404 . S
C3405 H3417 0.930 . S
C3406 C3402 1.524 . S
C3406 H3418 0.956 . S
C3406 H3419 0.961 . S
C3406 H3420 0.961 . S
C3407 C3404 1.539 . S
C3407 H3421 0.958 . S
C3407 H3422 0.961 . S
C3407 H3423 0.960 . S
H3408 C3392 0.931 . S
H3409 C3397 0.929 . S
H3410 C3398 0.960 . S
H3411 C3398 0.962 . S
H3412 C3398 0.960 . S
H3413 C3399 0.961 . S
H3414 C3399 0.961 . S
H3415 C3399 0.961 . S
H3416 C3400 0.931 . S
H3417 C3405 0.930 . S
H3418 C3406 0.956 . S
H3419 C3406 0.961 . S
H3420 C3406 0.961 . S
H3421 C3407 0.958 . S
H3422 C3407 0.961 . S
H3423 C3407 0.960 . S
C3424 C3425 1.391 . S
C3424 C3426 1.394 . S
C3424 H3440 0.931 . S
C3425 C3424 1.391 . S
C3425 C3429 1.376 . S
C3426 C3424 1.394 . S
C3426 C3427 1.369 . S
C3426 C3430 1.531 . S
C3427 C3426 1.369 . S
C3427 C3428 1.410 . S
C3427 C3435 1.503 . S
C3428 C3427 1.410 . S
C3428 C3429 1.392 . S
C3428 C3431 1.511 . S
C3429 C3425 1.376 . S
C3429 C3428 1.392 . S
C3429 H3441 0.929 . S
C3430 C3426 1.531 . S
C3430 H3442 0.960 . S
C3430 H3443 0.962 . S
C3430 H3444 0.960 . S
C3431 C3428 1.511 . S
C3431 H3445 0.961 . S
C3431 H3446 0.961 . S
C3431 H3447 0.961 . S
C3432 C3433 1.370 . S
C3432 C3434 1.363 . S
C3432 H3448 0.931 . S
C3433 C3432 1.370 . S
C3433 C3437 1.408 . S
C3434 C3432 1.363 . S
C3434 C3435 1.370 . S
C3434 C3438 1.524 . S
C3435 C3427 1.503 . S
C3435 C3434 1.370 . S
C3435 C3436 1.403 . S
C3436 C3435 1.403 . S
C3436 C3437 1.404 . S
C3436 C3439 1.539 . S
C3437 C3433 1.408 . S
C3437 C3436 1.404 . S
C3437 H3449 0.930 . S
C3438 C3434 1.524 . S
C3438 H3450 0.956 . S
C3438 H3451 0.961 . S
C3438 H3452 0.961 . S
C3439 C3436 1.539 . S
C3439 H3453 0.958 . S
C3439 H3454 0.961 . S
C3439 H3455 0.960 . S
H3440 C3424 0.931 . S
H3441 C3429 0.929 . S
H3442 C3430 0.960 . S
H3443 C3430 0.962 . S
H3444 C3430 0.960 . S
H3445 C3431 0.961 . S
H3446 C3431 0.961 . S
H3447 C3431 0.961 . S
H3448 C3432 0.931 . S
H3449 C3437 0.930 . S
H3450 C3438 0.956 . S
H3451 C3438 0.961 . S
H3452 C3438 0.961 . S
H3453 C3439 0.958 . S
H3454 C3439 0.961 . S
H3455 C3439 0.960 . S
C3456 C3457 1.391 . S
C3456 C3458 1.394 . S
C3456 H3472 0.931 . S
C3457 C3456 1.391 . S
C3457 C3461 1.376 . S
C3458 C3456 1.394 . S
C3458 C3459 1.369 . S
C3458 C3462 1.531 . S
C3459 C3458 1.369 . S
C3459 C3460 1.410 . S
C3459 C3467 1.503 . S
C3460 C3459 1.410 . S
C3460 C3461 1.392 . S
C3460 C3463 1.511 . S
C3461 C3457 1.376 . S
C3461 C3460 1.392 . S
C3461 H3473 0.929 . S
C3462 C3458 1.531 . S
C3462 H3474 0.960 . S
C3462 H3475 0.962 . S
C3462 H3476 0.960 . S
C3463 C3460 1.511 . S
C3463 H3477 0.961 . S
C3463 H3478 0.961 . S
C3463 H3479 0.961 . S
C3464 C3465 1.370 . S
C3464 C3466 1.363 . S
C3464 H3480 0.931 . S
C3465 C3464 1.370 . S
C3465 C3469 1.408 . S
C3466 C3464 1.363 . S
C3466 C3467 1.370 . S
C3466 C3470 1.524 . S
C3467 C3459 1.503 . S
C3467 C3466 1.370 . S
C3467 C3468 1.403 . S
C3468 C3467 1.403 . S
C3468 C3469 1.404 . S
C3468 C3471 1.539 . S
C3469 C3465 1.408 . S
C3469 C3468 1.404 . S
C3469 H3481 0.930 . S
C3470 C3466 1.524 . S
C3470 H3482 0.956 . S
C3470 H3483 0.961 . S
C3470 H3484 0.961 . S
C3471 C3468 1.539 . S
C3471 H3485 0.958 . S
C3471 H3486 0.961 . S
C3471 H3487 0.960 . S
H3472 C3456 0.931 . S
H3473 C3461 0.929 . S
H3474 C3462 0.960 . S
H3475 C3462 0.962 . S
H3476 C3462 0.960 . S
H3477 C3463 0.961 . S
H3478 C3463 0.961 . S
H3479 C3463 0.961 . S
H3480 C3464 0.931 . S
H3481 C3469 0.930 . S
H3482 C3470 0.956 . S
H3483 C3470 0.961 . S
H3484 C3470 0.961 . S
H3485 C3471 0.958 . S
H3486 C3471 0.961 . S
H3487 C3471 0.960 . S
C3488 C3489 1.391 . S
C3488 C3490 1.394 . S
C3488 H3504 0.931 . S
C3489 C3488 1.391 . S
C3489 C3493 1.376 . S
C3490 C3488 1.394 . S
C3490 C3491 1.369 . S
C3490 C3494 1.531 . S
C3491 C3490 1.369 . S
C3491 C3492 1.410 . S
C3491 C3499 1.503 . S
C3492 C3491 1.410 . S
C3492 C3493 1.392 . S
C3492 C3495 1.511 . S
C3493 C3489 1.376 . S
C3493 C3492 1.392 . S
C3493 H3505 0.929 . S
C3494 C3490 1.531 . S
C3494 H3506 0.960 . S
C3494 H3507 0.962 . S
C3494 H3508 0.960 . S
C3495 C3492 1.511 . S
C3495 H3509 0.961 . S
C3495 H3510 0.961 . S
C3495 H3511 0.961 . S
C3496 C3497 1.370 . S
C3496 C3498 1.363 . S
C3496 H3512 0.931 . S
C3497 C3496 1.370 . S
C3497 C3501 1.408 . S
C3498 C3496 1.363 . S
C3498 C3499 1.370 . S
C3498 C3502 1.524 . S
C3499 C3491 1.503 . S
C3499 C3498 1.370 . S
C3499 C3500 1.403 . S
C3500 C3499 1.403 . S
C3500 C3501 1.404 . S
C3500 C3503 1.539 . S
C3501 C3497 1.408 . S
C3501 C3500 1.404 . S
C3501 H3513 0.930 . S
C3502 C3498 1.524 . S
C3502 H3514 0.956 . S
C3502 H3515 0.961 . S
C3502 H3516 0.961 . S
C3503 C3500 1.539 . S
C3503 H3517 0.958 . S
C3503 H3518 0.961 . S
C3503 H3519 0.960 . S
H3504 C3488 0.931 . S
H3505 C3493 0.929 . S
H3506 C3494 0.960 . S
H3507 C3494 0.962 . S
H3508 C3494 0.960 . S
H3509 C3495 0.961 . S
H3510 C3495 0.961 . S
H3511 C3495 0.961 . S
H3512 C3496 0.931 . S
H3513 C3501 0.930 . S
H3514 C3502 0.956 . S
H3515 C3502 0.961 . S
H3516 C3502 0.961 . S
H3517 C3503 0.958 . S
H3518 C3503 0.961 . S
H3519 C3503 0.960 . S
C3520 C3521 1.391 . S
C3520 C3522 1.394 . S
C3520 H3536 0.931 . S
C3521 C3520 1.391 . S
C3521 C3525 1.376 . S
C3522 C3520 1.394 . S
C3522 C3523 1.369 . S
C3522 C3526 1.531 . S
C3523 C3522 1.369 . S
C3523 C3524 1.410 . S
C3523 C3531 1.503 . S
C3524 C3523 1.410 . S
C3524 C3525 1.392 . S
C3524 C3527 1.511 . S
C3525 C3521 1.376 . S
C3525 C3524 1.392 . S
C3525 H3537 0.929 . S
C3526 C3522 1.531 . S
C3526 H3538 0.960 . S
C3526 H3539 0.962 . S
C3526 H3540 0.960 . S
C3527 C3524 1.511 . S
C3527 H3541 0.961 . S
C3527 H3542 0.961 . S
C3527 H3543 0.961 . S
C3528 C3529 1.370 . S
C3528 C3530 1.363 . S
C3528 H3544 0.931 . S
C3529 C3528 1.370 . S
C3529 C3533 1.408 . S
C3530 C3528 1.363 . S
C3530 C3531 1.370 . S
C3530 C3534 1.524 . S
C3531 C3523 1.503 . S
C3531 C3530 1.370 . S
C3531 C3532 1.403 . S
C3532 C3531 1.403 . S
C3532 C3533 1.404 . S
C3532 C3535 1.539 . S
C3533 C3529 1.408 . S
C3533 C3532 1.404 . S
C3533 H3545 0.930 . S
C3534 C3530 1.524 . S
C3534 H3546 0.956 . S
C3534 H3547 0.961 . S
C3534 H3548 0.961 . S
C3535 C3532 1.539 . S
C3535 H3549 0.958 . S
C3535 H3550 0.961 . S
C3535 H3551 0.960 . S
H3536 C3520 0.931 . S
H3537 C3525 0.929 . S
H3538 C3526 0.960 . S
H3539 C3526 0.962 . S
H3540 C3526 0.960 . S
H3541 C3527 0.961 . S
H3542 C3527 0.961 . S
H3543 C3527 0.961 . S
H3544 C3528 0.931 . S
H3545 C3533 0.930 . S
H3546 C3534 0.956 . S
H3547 C3534 0.961 . S
H3548 C3534 0.961 . S
H3549 C3535 0.958 . S
H3550 C3535 0.961 . S
H3551 C3535 0.960 . S
C3552 C3553 1.391 . S
C3552 C3554 1.394 . S
C3552 H3568 0.931 . S
C3553 C3552 1.391 . S
C3553 C3557 1.376 . S
C3554 C3552 1.394 . S
C3554 C3555 1.369 . S
C3554 C3558 1.531 . S
C3555 C3554 1.369 . S
C3555 C3556 1.410 . S
C3555 C3563 1.503 . S
C3556 C3555 1.410 . S
C3556 C3557 1.392 . S
C3556 C3559 1.511 . S
C3557 C3553 1.376 . S
C3557 C3556 1.392 . S
C3557 H3569 0.929 . S
C3558 C3554 1.531 . S
C3558 H3570 0.960 . S
C3558 H3571 0.962 . S
C3558 H3572 0.960 . S
C3559 C3556 1.511 . S
C3559 H3573 0.961 . S
C3559 H3574 0.961 . S
C3559 H3575 0.961 . S
C3560 C3561 1.370 . S
C3560 C3562 1.363 . S
C3560 H3576 0.931 . S
C3561 C3560 1.370 . S
C3561 C3565 1.408 . S
C3562 C3560 1.363 . S
C3562 C3563 1.370 . S
C3562 C3566 1.524 . S
C3563 C3555 1.503 . S
C3563 C3562 1.370 . S
C3563 C3564 1.403 . S
C3564 C3563 1.403 . S
C3564 C3565 1.404 . S
C3564 C3567 1.539 . S
C3565 C3561 1.408 . S
C3565 C3564 1.404 . S
C3565 H3577 0.930 . S
C3566 C3562 1.524 . S
C3566 H3578 0.956 . S
C3566 H3579 0.961 . S
C3566 H3580 0.961 . S
C3567 C3564 1.539 . S
C3567 H3581 0.958 . S
C3567 H3582 0.961 . S
C3567 H3583 0.960 . S
H3568 C3552 0.931 . S
H3569 C3557 0.929 . S
H3570 C3558 0.960 . S
H3571 C3558 0.962 . S
H3572 C3558 0.960 . S
H3573 C3559 0.961 . S
H3574 C3559 0.961 . S
H3575 C3559 0.961 . S
H3576 C3560 0.931 . S
H3577 C3565 0.930 . S
H3578 C3566 0.956 . S
H3579 C3566 0.961 . S
H3580 C3566 0.961 . S
H3581 C3567 0.958 . S
H3582 C3567 0.961 . S
H3583 C3567 0.960 . S
C3584 C3585 1.391 . S
C3584 C3586 1.394 . S
C3584 H3600 0.931 . S
C3585 C3584 1.391 . S
C3585 C3589 1.376 . S
C3586 C3584 1.394 . S
C3586 C3587 1.369 . S
C3586 C3590 1.531 . S
C3587 C3586 1.369 . S
C3587 C3588 1.410 . S
C3587 C3595 1.503 . S
C3588 C3587 1.410 . S
C3588 C3589 1.392 . S
C3588 C3591 1.511 . S
C3589 C3585 1.376 . S
C3589 C3588 1.392 . S
C3589 H3601 0.929 . S
C3590 C3586 1.531 . S
C3590 H3602 0.960 . S
C3590 H3603 0.962 . S
C3590 H3604 0.960 . S
C3591 C3588 1.511 . S
C3591 H3605 0.961 . S
C3591 H3606 0.961 . S
C3591 H3607 0.961 . S
C3592 C3593 1.370 . S
C3592 C3594 1.363 . S
C3592 H3608 0.931 . S
C3593 C3592 1.370 . S
C3593 C3597 1.408 . S
C3594 C3592 1.363 . S
C3594 C3595 1.370 . S
C3594 C3598 1.524 . S
C3595 C3587 1.503 . S
C3595 C3594 1.370 . S
C3595 C3596 1.403 . S
C3596 C3595 1.403 . S
C3596 C3597 1.404 . S
C3596 C3599 1.539 . S
C3597 C3593 1.408 . S
C3597 C3596 1.404 . S
C3597 H3609 0.930 . S
C3598 C3594 1.524 . S
C3598 H3610 0.956 . S
C3598 H3611 0.961 . S
C3598 H3612 0.961 . S
C3599 C3596 1.539 . S
C3599 H3613 0.958 . S
C3599 H3614 0.961 . S
C3599 H3615 0.960 . S
H3600 C3584 0.931 . S
H3601 C3589 0.929 . S
H3602 C3590 0.960 . S
H3603 C3590 0.962 . S
H3604 C3590 0.960 . S
H3605 C3591 0.961 . S
H3606 C3591 0.961 . S
H3607 C3591 0.961 . S
H3608 C3592 0.931 . S
H3609 C3597 0.930 . S
H3610 C3598 0.956 . S
H3611 C3598 0.961 . S
H3612 C3598 0.961 . S
H3613 C3599 0.958 . S
H3614 C3599 0.961 . S
H3615 C3599 0.960 . S
C3616 C3617 1.391 . S
C3616 C3618 1.394 . S
C3616 H3632 0.931 . S
C3617 C3616 1.391 . S
C3617 C3621 1.376 . S
C3618 C3616 1.394 . S
C3618 C3619 1.369 . S
C3618 C3622 1.531 . S
C3619 C3618 1.369 . S
C3619 C3620 1.410 . S
C3619 C3627 1.503 . S
C3620 C3619 1.410 . S
C3620 C3621 1.392 . S
C3620 C3623 1.511 . S
C3621 C3617 1.376 . S
C3621 C3620 1.392 . S
C3621 H3633 0.929 . S
C3622 C3618 1.531 . S
C3622 H3634 0.960 . S
C3622 H3635 0.962 . S
C3622 H3636 0.960 . S
C3623 C3620 1.511 . S
C3623 H3637 0.961 . S
C3623 H3638 0.961 . S
C3623 H3639 0.961 . S
C3624 C3625 1.370 . S
C3624 C3626 1.363 . S
C3624 H3640 0.931 . S
C3625 C3624 1.370 . S
C3625 C3629 1.408 . S
C3626 C3624 1.363 . S
C3626 C3627 1.370 . S
C3626 C3630 1.524 . S
C3627 C3619 1.503 . S
C3627 C3626 1.370 . S
C3627 C3628 1.403 . S
C3628 C3627 1.403 . S
C3628 C3629 1.404 . S
C3628 C3631 1.539 . S
C3629 C3625 1.408 . S
C3629 C3628 1.404 . S
C3629 H3641 0.930 . S
C3630 C3626 1.524 . S
C3630 H3642 0.956 . S
C3630 H3643 0.961 . S
C3630 H3644 0.961 . S
C3631 C3628 1.539 . S
C3631 H3645 0.958 . S
C3631 H3646 0.961 . S
C3631 H3647 0.960 . S
H3632 C3616 0.931 . S
H3633 C3621 0.929 . S
H3634 C3622 0.960 . S
H3635 C3622 0.962 . S
H3636 C3622 0.960 . S
H3637 C3623 0.961 . S
H3638 C3623 0.961 . S
H3639 C3623 0.961 . S
H3640 C3624 0.931 . S
H3641 C3629 0.930 . S
H3642 C3630 0.956 . S
H3643 C3630 0.961 . S
H3644 C3630 0.961 . S
H3645 C3631 0.958 . S
H3646 C3631 0.961 . S
H3647 C3631 0.960 . S
C3648 C3649 1.391 . S
C3648 C3650 1.394 . S
C3648 H3664 0.931 . S
C3649 C3648 1.391 . S
C3649 C3653 1.376 . S
C3650 C3648 1.394 . S
C3650 C3651 1.369 . S
C3650 C3654 1.531 . S
C3651 C3650 1.369 . S
C3651 C3652 1.410 . S
C3651 C3659 1.503 . S
C3652 C3651 1.410 . S
C3652 C3653 1.392 . S
C3652 C3655 1.511 . S
C3653 C3649 1.376 . S
C3653 C3652 1.392 . S
C3653 H3665 0.929 . S
C3654 C3650 1.531 . S
C3654 H3666 0.960 . S
C3654 H3667 0.962 . S
C3654 H3668 0.960 . S
C3655 C3652 1.511 . S
C3655 H3669 0.961 . S
C3655 H3670 0.961 . S
C3655 H3671 0.961 . S
C3656 C3657 1.370 . S
C3656 C3658 1.363 . S
C3656 H3672 0.931 . S
C3657 C3656 1.370 . S
C3657 C3661 1.408 . S
C3658 C3656 1.363 . S
C3658 C3659 1.370 . S
C3658 C3662 1.524 . S
C3659 C3651 1.503 . S
C3659 C3658 1.370 . S
C3659 C3660 1.403 . S
C3660 C3659 1.403 . S
C3660 C3661 1.404 . S
C3660 C3663 1.539 . S
C3661 C3657 1.408 . S
C3661 C3660 1.404 . S
C3661 H3673 0.930 . S
C3662 C3658 1.524 . S
C3662 H3674 0.956 . S
C3662 H3675 0.961 . S
C3662 H3676 0.961 . S
C3663 C3660 1.539 . S
C3663 H3677 0.958 . S
C3663 H3678 0.961 . S
C3663 H3679 0.960 . S
H3664 C3648 0.931 . S
H3665 C3653 0.929 . S
H3666 C3654 0.960 . S
H3667 C3654 0.962 . S
H3668 C3654 0.960 . S
H3669 C3655 0.961 . S
H3670 C3655 0.961 . S
H3671 C3655 0.961 . S
H3672 C3656 0.931 . S
H3673 C3661 0.930 . S
H3674 C3662 0.956 . S
H3675 C3662 0.961 . S
H3676 C3662 0.961 . S
H3677 C3663 0.958 . S
H3678 C3663 0.961 . S
H3679 C3663 0.960 . S
C3680 C3681 1.391 . S
C3680 C3682 1.394 . S
C3680 H3696 0.931 . S
C3681 C3680 1.391 . S
C3681 C3685 1.376 . S
C3682 C3680 1.394 . S
C3682 C3683 1.369 . S
C3682 C3686 1.531 . S
C3683 C3682 1.369 . S
C3683 C3684 1.410 . S
C3683 C3691 1.503 . S
C3684 C3683 1.410 . S
C3684 C3685 1.392 . S
C3684 C3687 1.511 . S
C3685 C3681 1.376 . S
C3685 C3684 1.392 . S
C3685 H3697 0.929 . S
C3686 C3682 1.531 . S
C3686 H3698 0.960 . S
C3686 H3699 0.962 . S
C3686 H3700 0.960 . S
C3687 C3684 1.511 . S
C3687 H3701 0.961 . S
C3687 H3702 0.961 . S
C3687 H3703 0.961 . S
C3688 C3689 1.370 . S
C3688 C3690 1.363 . S
C3688 H3704 0.931 . S
C3689 C3688 1.370 . S
C3689 C3693 1.408 . S
C3690 C3688 1.363 . S
C3690 C3691 1.370 . S
C3690 C3694 1.524 . S
C3691 C3683 1.503 . S
C3691 C3690 1.370 . S
C3691 C3692 1.403 . S
C3692 C3691 1.403 . S
C3692 C3693 1.404 . S
C3692 C3695 1.539 . S
C3693 C3689 1.408 . S
C3693 C3692 1.404 . S
C3693 H3705 0.930 . S
C3694 C3690 1.524 . S
C3694 H3706 0.956 . S
C3694 H3707 0.961 . S
C3694 H3708 0.961 . S
C3695 C3692 1.539 . S
C3695 H3709 0.958 . S
C3695 H3710 0.961 . S
C3695 H3711 0.960 . S
H3696 C3680 0.931 . S
H3697 C3685 0.929 . S
H3698 C3686 0.960 . S
H3699 C3686 0.962 . S
H3700 C3686 0.960 . S
H3701 C3687 0.961 . S
H3702 C3687 0.961 . S
H3703 C3687 0.961 . S
H3704 C3688 0.931 . S
H3705 C3693 0.930 . S
H3706 C3694 0.956 . S
H3707 C3694 0.961 . S
H3708 C3694 0.961 . S
H3709 C3695 0.958 . S
H3710 C3695 0.961 . S
H3711 C3695 0.960 . S
C3712 C3713 1.391 . S
C3712 C3714 1.394 . S
C3712 H3728 0.931 . S
C3713 C3712 1.391 . S
C3713 C3717 1.376 . S
C3714 C3712 1.394 . S
C3714 C3715 1.369 . S
C3714 C3718 1.531 . S
C3715 C3714 1.369 . S
C3715 C3716 1.410 . S
C3715 C3723 1.503 . S
C3716 C3715 1.410 . S
C3716 C3717 1.392 . S
C3716 C3719 1.511 . S
C3717 C3713 1.376 . S
C3717 C3716 1.392 . S
C3717 H3729 0.929 . S
C3718 C3714 1.531 . S
C3718 H3730 0.960 . S
C3718 H3731 0.962 . S
C3718 H3732 0.960 . S
C3719 C3716 1.511 . S
C3719 H3733 0.961 . S
C3719 H3734 0.961 . S
C3719 H3735 0.961 . S
C3720 C3721 1.370 . S
C3720 C3722 1.363 . S
C3720 H3736 0.931 . S
C3721 C3720 1.370 . S
C3721 C3725 1.408 . S
C3722 C3720 1.363 . S
C3722 C3723 1.370 . S
C3722 C3726 1.524 . S
C3723 C3715 1.503 . S
C3723 C3722 1.370 . S
C3723 C3724 1.403 . S
C3724 C3723 1.403 . S
C3724 C3725 1.404 . S
C3724 C3727 1.539 . S
C3725 C3721 1.408 . S
C3725 C3724 1.404 . S
C3725 H3737 0.930 . S
C3726 C3722 1.524 . S
C3726 H3738 0.956 . S
C3726 H3739 0.961 . S
C3726 H3740 0.961 . S
C3727 C3724 1.539 . S
C3727 H3741 0.958 . S
C3727 H3742 0.961 . S
C3727 H3743 0.960 . S
H3728 C3712 0.931 . S
H3729 C3717 0.929 . S
H3730 C3718 0.960 . S
H3731 C3718 0.962 . S
H3732 C3718 0.960 . S
H3733 C3719 0.961 . S
H3734 C3719 0.961 . S
H3735 C3719 0.961 . S
H3736 C3720 0.931 . S
H3737 C3725 0.930 . S
H3738 C3726 0.956 . S
H3739 C3726 0.961 . S
H3740 C3726 0.961 . S
H3741 C3727 0.958 . S
H3742 C3727 0.961 . S
H3743 C3727 0.960 . S
C1697 C38 1.829 . S
C1705 C144 1.818 . S
C1729 C197 1.818 . S
C1737 C91 1.798 . S
C1761 C356 1.809 . S
C1769 C250 1.832 . S
C1793 C409 1.818 . S
C1801 C303 1.804 . S
C1825 C462 1.820 . S
C1833 C568 1.822 . S
C1857 C621 1.814 . S
C1865 C515 1.803 . S
C1889 C674 1.820 . S
C1897 C780 1.823 . S
C1921 C833 1.808 . S
C1929 C727 1.812 . S
C1953 C886 1.760 . S
C1961 C992 1.783 . S
C1985 C939 1.802 . S
C1993 C1045 1.811 . S
C2017 C1204 1.767 . S
C2025 C1098 1.793 . S
C2049 C1151 1.825 . S
C2057 C1257 1.816 . S
C2081 C1416 1.792 . S
C2089 C1310 1.779 . S
C2113 C1469 1.829 . S
C2121 C1363 1.809 . S
C2145 C1628 1.767 . S
C2153 C1522 1.794 . S
C2177 C1575 1.809 . S
C2185 C1681 1.822 . S
C2209 C1347 2.025 . S
C2217 C22 2.025 . S
C2241 C75 2.007 . S
C2249 C1294 2.010 . S
C2273 C128 2.016 . S
C2281 C1453 2.022 . S
C2305 C181 2.014 . S
C2313 C1400 2.010 . S
C2337 C1559 2.011 . S
C2345 C234 2.022 . S
C2369 C287 2.006 . S
C2377 C1506 2.012 . S
C2401 C340 2.022 . S
C2409 C1665 2.020 . S
C2433 C1612 2.016 . S
C2441 C393 2.011 . S
C2465 C446 2.018 . S
C2473 C923 2.022 . S
C2497 C499 2.016 . S
C2505 C870 2.014 . S
C2529 C552 2.017 . S
C2537 C1029 2.025 . S
C2561 C605 2.009 . S
C2569 C976 2.009 . S
C2593 C658 2.017 . S
C2601 C1135 2.025 . S
C2625 C1082 2.015 . S
C2633 C711 2.007 . S
C2657 C1241 2.015 . S
C2665 C764 2.020 . S
C2689 C817 2.017 . S
C2697 C1188 2.010 . S
C2721 C39 1.827 . S
C2729 C251 1.853 . S
C2753 C92 1.827 . S
C2761 C1576 1.838 . S
C2785 C145 1.829 . S
C2793 C781 1.852 . S
C2817 C198 1.847 . S
C2825 C1258 1.829 . S
C2849 C304 1.816 . S
C2857 C1364 1.847 . S
C2881 C569 1.872 . S
C2889 C357 1.836 . S
C2913 C1046 1.814 . S
C2921 C410 1.846 . S
C2945 C675 1.827 . S
C2953 C463 1.857 . S
C2977 C516 1.815 . S
C2985 C1152 1.845 . S
C3009 C1682 1.812 . S
C3017 C622 1.849 . S
C3041 C728 1.850 . S
C3049 C940 1.837 . S
C3073 C834 1.826 . S
C3081 C1470 1.847 . S
C3105 C1099 1.834 . S
C3113 C887 1.816 . S
C3137 C993 1.843 . S
C3145 C1629 1.807 . S
C3169 C1417 1.797 . S
C3177 C1205 1.825 . S
C3201 C1523 1.786 . S
C3209 C1311 1.833 . S
C3233 C29 1.056 . S
C3241 C82 1.058 . S
C3265 C135 1.032 . S
C3273 C188 1.054 . S
C3297 C241 1.068 . S
C3305 C294 1.051 . S
C3329 C347 1.041 . S
C3337 C400 1.061 . S
C3361 C506 1.040 . S
C3369 C453 1.049 . S
C3393 C559 1.046 . S
C3401 C612 1.047 . S
C3425 C665 1.064 . S
C3433 C718 1.055 . S
C3457 C771 1.050 . S
C3465 C824 1.048 . S
C3489 C877 1.048 . S
C3497 C930 1.080 . S
C3521 C1036 1.073 . S
C3529 C983 1.065 . S
C3553 C1089 1.051 . S
C3561 C1142 1.076 . S
C3585 C1195 1.059 . S
C3593 C1248 1.071 . S
C3617 C1354 1.046 . S
C3625 C1301 1.078 . S
C3649 C1407 1.047 . S
C3657 C1460 1.074 . S
C3681 C1566 1.076 . S
C3689 C1513 1.068 . S
C3713 C1619 1.051 . S
C3721 C1672 1.081 . S
