# Generated by pormake.
# Topology upd, (4)-cn, num edge types: 1
# Building blocks:
#     Node 0, Type 0, BuildingBlock: NAWXER_clean_sbu_0, # of connection points: 4
#     Node 1, Type 0, BuildingBlock: NAWXER_clean_sbu_0, # of connection points: 4
#     Node 2, Type 0, BuildingBlock: NAWXER_clean_sbu_0, # of connection points: 4
#     Node 3, Type 0, BuildingBlock: NAWXER_clean_sbu_0, # of connection points: 4
#     Node 4, Type 0, BuildingBlock: NAWXER_clean_sbu_0, # of connection points: 4
#     Node 5, Type 0, BuildingBlock: NAWXER_clean_sbu_0, # of connection points: 4
#     Node 6, Type 0, BuildingBlock: NAWXER_clean_sbu_0, # of connection points: 4
#     Node 7, Type 0, BuildingBlock: NAWXER_clean_sbu_0, # of connection points: 4
#     Node 8, Type 0, BuildingBlock: NAWXER_clean_sbu_0, # of connection points: 4
#     Node 9, Type 0, BuildingBlock: NAWXER_clean_sbu_0, # of connection points: 4
#     Node 10, Type 0, BuildingBlock: NAWXER_clean_sbu_0, # of connection points: 4
#     Node 11, Type 0, BuildingBlock: NAWXER_clean_sbu_0, # of connection points: 4
#     Node 12, Type 0, BuildingBlock: NAWXER_clean_sbu_0, # of connection points: 4
#     Node 13, Type 0, BuildingBlock: NAWXER_clean_sbu_0, # of connection points: 4
#     Node 14, Type 0, BuildingBlock: NAWXER_clean_sbu_0, # of connection points: 4
#     Node 15, Type 0, BuildingBlock: NAWXER_clean_sbu_0, # of connection points: 4
#     Node 16, Type 0, BuildingBlock: NAWXER_clean_sbu_0, # of connection points: 4
#     Node 17, Type 0, BuildingBlock: NAWXER_clean_sbu_0, # of connection points: 4
#     Node 18, Type 0, BuildingBlock: NAWXER_clean_sbu_0, # of connection points: 4
#     Node 19, Type 0, BuildingBlock: NAWXER_clean_sbu_0, # of connection points: 4
#     Node 20, Type 0, BuildingBlock: NAWXER_clean_sbu_0, # of connection points: 4
#     Node 21, Type 0, BuildingBlock: NAWXER_clean_sbu_0, # of connection points: 4
#     Node 22, Type 0, BuildingBlock: NAWXER_clean_sbu_0, # of connection points: 4
#     Node 23, Type 0, BuildingBlock: NAWXER_clean_sbu_0, # of connection points: 4
#     Node 24, Type 0, BuildingBlock: NAWXER_clean_sbu_0, # of connection points: 4
#     Node 25, Type 0, BuildingBlock: NAWXER_clean_sbu_0, # of connection points: 4
#     Node 26, Type 0, BuildingBlock: NAWXER_clean_sbu_0, # of connection points: 4
#     Node 27, Type 0, BuildingBlock: NAWXER_clean_sbu_0, # of connection points: 4
#     Node 28, Type 0, BuildingBlock: NAWXER_clean_sbu_0, # of connection points: 4
#     Node 29, Type 0, BuildingBlock: NAWXER_clean_sbu_0, # of connection points: 4
#     Node 30, Type 0, BuildingBlock: NAWXER_clean_sbu_0, # of connection points: 4
#     Node 31, Type 0, BuildingBlock: NAWXER_clean_sbu_0, # of connection points: 4
#     Edge 32, Type (0, 0), BuildingBlock: XIVTED_clean_linker_0, # of connection points: 2
#     Edge 33, Type (0, 0), BuildingBlock: XIVTED_clean_linker_0, # of connection points: 2
#     Edge 34, Type (0, 0), BuildingBlock: XIVTED_clean_linker_0, # of connection points: 2
#     Edge 35, Type (0, 0), BuildingBlock: XIVTED_clean_linker_0, # of connection points: 2
#     Edge 36, Type (0, 0), BuildingBlock: XIVTED_clean_linker_0, # of connection points: 2
#     Edge 37, Type (0, 0), BuildingBlock: XIVTED_clean_linker_0, # of connection points: 2
#     Edge 38, Type (0, 0), BuildingBlock: XIVTED_clean_linker_0, # of connection points: 2
#     Edge 39, Type (0, 0), BuildingBlock: XIVTED_clean_linker_0, # of connection points: 2
#     Edge 40, Type (0, 0), BuildingBlock: XIVTED_clean_linker_0, # of connection points: 2
#     Edge 41, Type (0, 0), BuildingBlock: XIVTED_clean_linker_0, # of connection points: 2
#     Edge 42, Type (0, 0), BuildingBlock: XIVTED_clean_linker_0, # of connection points: 2
#     Edge 43, Type (0, 0), BuildingBlock: XIVTED_clean_linker_0, # of connection points: 2
#     Edge 44, Type (0, 0), BuildingBlock: XIVTED_clean_linker_0, # of connection points: 2
#     Edge 45, Type (0, 0), BuildingBlock: XIVTED_clean_linker_0, # of connection points: 2
#     Edge 46, Type (0, 0), BuildingBlock: XIVTED_clean_linker_0, # of connection points: 2
#     Edge 47, Type (0, 0), BuildingBlock: XIVTED_clean_linker_0, # of connection points: 2
#     Edge 48, Type (0, 0), BuildingBlock: XIVTED_clean_linker_0, # of connection points: 2
#     Edge 49, Type (0, 0), BuildingBlock: XIVTED_clean_linker_0, # of connection points: 2
#     Edge 50, Type (0, 0), BuildingBlock: XIVTED_clean_linker_0, # of connection points: 2
#     Edge 51, Type (0, 0), BuildingBlock: XIVTED_clean_linker_0, # of connection points: 2
#     Edge 52, Type (0, 0), BuildingBlock: XIVTED_clean_linker_0, # of connection points: 2
#     Edge 53, Type (0, 0), BuildingBlock: XIVTED_clean_linker_0, # of connection points: 2
#     Edge 54, Type (0, 0), BuildingBlock: XIVTED_clean_linker_0, # of connection points: 2
#     Edge 55, Type (0, 0), BuildingBlock: XIVTED_clean_linker_0, # of connection points: 2
#     Edge 56, Type (0, 0), BuildingBlock: XIVTED_clean_linker_0, # of connection points: 2
#     Edge 57, Type (0, 0), BuildingBlock: XIVTED_clean_linker_0, # of connection points: 2
#     Edge 58, Type (0, 0), BuildingBlock: XIVTED_clean_linker_0, # of connection points: 2
#     Edge 59, Type (0, 0), BuildingBlock: XIVTED_clean_linker_0, # of connection points: 2
#     Edge 60, Type (0, 0), BuildingBlock: XIVTED_clean_linker_0, # of connection points: 2
#     Edge 61, Type (0, 0), BuildingBlock: XIVTED_clean_linker_0, # of connection points: 2
#     Edge 62, Type (0, 0), BuildingBlock: XIVTED_clean_linker_0, # of connection points: 2
#     Edge 63, Type (0, 0), BuildingBlock: XIVTED_clean_linker_0, # of connection points: 2
#     Edge 64, Type (0, 0), BuildingBlock: XIVTED_clean_linker_0, # of connection points: 2
#     Edge 65, Type (0, 0), BuildingBlock: XIVTED_clean_linker_0, # of connection points: 2
#     Edge 66, Type (0, 0), BuildingBlock: XIVTED_clean_linker_0, # of connection points: 2
#     Edge 67, Type (0, 0), BuildingBlock: XIVTED_clean_linker_0, # of connection points: 2
#     Edge 68, Type (0, 0), BuildingBlock: XIVTED_clean_linker_0, # of connection points: 2
#     Edge 69, Type (0, 0), BuildingBlock: XIVTED_clean_linker_0, # of connection points: 2
#     Edge 70, Type (0, 0), BuildingBlock: XIVTED_clean_linker_0, # of connection points: 2
#     Edge 71, Type (0, 0), BuildingBlock: XIVTED_clean_linker_0, # of connection points: 2
#     Edge 72, Type (0, 0), BuildingBlock: XIVTED_clean_linker_0, # of connection points: 2
#     Edge 73, Type (0, 0), BuildingBlock: XIVTED_clean_linker_0, # of connection points: 2
#     Edge 74, Type (0, 0), BuildingBlock: XIVTED_clean_linker_0, # of connection points: 2
#     Edge 75, Type (0, 0), BuildingBlock: XIVTED_clean_linker_0, # of connection points: 2
#     Edge 76, Type (0, 0), BuildingBlock: XIVTED_clean_linker_0, # of connection points: 2
#     Edge 77, Type (0, 0), BuildingBlock: XIVTED_clean_linker_0, # of connection points: 2
#     Edge 78, Type (0, 0), BuildingBlock: XIVTED_clean_linker_0, # of connection points: 2
#     Edge 79, Type (0, 0), BuildingBlock: XIVTED_clean_linker_0, # of connection points: 2
#     Edge 80, Type (0, 0), BuildingBlock: XIVTED_clean_linker_0, # of connection points: 2
#     Edge 81, Type (0, 0), BuildingBlock: XIVTED_clean_linker_0, # of connection points: 2
#     Edge 82, Type (0, 0), BuildingBlock: XIVTED_clean_linker_0, # of connection points: 2
#     Edge 83, Type (0, 0), BuildingBlock: XIVTED_clean_linker_0, # of connection points: 2
#     Edge 84, Type (0, 0), BuildingBlock: XIVTED_clean_linker_0, # of connection points: 2
#     Edge 85, Type (0, 0), BuildingBlock: XIVTED_clean_linker_0, # of connection points: 2
#     Edge 86, Type (0, 0), BuildingBlock: XIVTED_clean_linker_0, # of connection points: 2
#     Edge 87, Type (0, 0), BuildingBlock: XIVTED_clean_linker_0, # of connection points: 2
#     Edge 88, Type (0, 0), BuildingBlock: XIVTED_clean_linker_0, # of connection points: 2
#     Edge 89, Type (0, 0), BuildingBlock: XIVTED_clean_linker_0, # of connection points: 2
#     Edge 90, Type (0, 0), BuildingBlock: XIVTED_clean_linker_0, # of connection points: 2
#     Edge 91, Type (0, 0), BuildingBlock: XIVTED_clean_linker_0, # of connection points: 2
#     Edge 92, Type (0, 0), BuildingBlock: XIVTED_clean_linker_0, # of connection points: 2
#     Edge 93, Type (0, 0), BuildingBlock: XIVTED_clean_linker_0, # of connection points: 2
#     Edge 94, Type (0, 0), BuildingBlock: XIVTED_clean_linker_0, # of connection points: 2
#     Edge 95, Type (0, 0), BuildingBlock: XIVTED_clean_linker_0, # of connection points: 2
# Relax obj value: 0.044
# Max RMSD: 0.097
# Mean RMSD: 0.097
data_MOF--net-upd--node1-NAWXER_clean_sbu_0--edge1-XIVTED_clean_linker_0
_symmetry_space_group_name_H-M    P1
_symmetry_Int_Tables_number       1
_symmetry_cell_setting            triclinic
loop_
_symmetry_equiv_pos_as_xyz
'x, y, z'
_cell_length_a     40.456257
_cell_length_b     40.296687
_cell_length_c     77.121392
_cell_angle_alpha  90.076126
_cell_angle_beta   89.983079
_cell_angle_gamma 90.014769
loop_
_atom_site_label
_atom_site_type_symbol
_atom_site_fract_x
_atom_site_fract_y
_atom_site_fract_z
_atom_type_partial_charge
C0 C 0.16335 0.11936 0.30269 0.0
C1 C 0.18602 0.22002 0.33651 0.0
O2 O 0.14262 0.14279 0.29998 0.0
Zn3 Zn 0.1334 0.1921 0.30867 0.0
O4 O 0.18578 0.12305 0.31408 0.0
Zn5 Zn 0.1744 0.16824 0.32109 0.0
O6 O 0.12857 0.16489 0.33496 0.0
O7 O 0.09024 0.18976 0.3193 0.0
O8 O 0.2015 0.19259 0.3377 0.0
O9 O 0.16089 0.22226 0.32646 0.0
O10 O 0.13953 0.21712 0.28748 0.0
O11 O 0.1853 0.19467 0.29781 0.0
C12 C 0.09853 0.17431 0.33297 0.0
C13 C 0.1705 0.21202 0.28627 0.0
C14 C 0.06141 0.89743 0.52829 0.0
C15 C 0.11632 0.81626 0.56568 0.0
O16 O 0.07995 0.91081 0.53985 0.0
Zn17 Zn 0.11216 0.89543 0.56032 0.0
O18 O 0.05965 0.86599 0.52736 0.0
Zn19 Zn 0.08883 0.85576 0.54667 0.0
O20 O 0.06209 0.87452 0.56878 0.0
O21 O 0.0921 0.91396 0.58099 0.0
O22 O 0.09605 0.80979 0.55351 0.0
O23 O 0.12355 0.8465 0.56914 0.0
O24 O 0.15524 0.91098 0.55316 0.0
O25 O 0.13757 0.8685 0.53763 0.0
C26 C 0.06614 0.89618 0.5808 0.0
C27 C 0.16027 0.88959 0.54132 0.0
C28 C 0.3419 0.82226 0.83757 0.0
C29 C 0.33299 0.90714 0.79253 0.0
O30 O 0.3618 0.81776 0.82484 0.0
Zn31 Zn 0.37582 0.84198 0.80125 0.0
O32 O 0.32282 0.84733 0.83768 0.0
Zn33 Zn 0.33689 0.86563 0.81553 0.0
O34 O 0.3214 0.82894 0.79689 0.0
O35 O 0.36572 0.80825 0.78409 0.0
O36 O 0.31687 0.90593 0.80667 0.0
O37 O 0.35501 0.88512 0.78926 0.0
O38 O 0.42161 0.85497 0.80594 0.0
O39 O 0.38522 0.88208 0.82179 0.0
C40 C 0.33442 0.80913 0.78577 0.0
C41 C 0.41529 0.87651 0.81755 0.0
C42 C 0.41062 0.08809 0.09237 0.0
C43 C 0.32805 0.09287 0.04723 0.0
O44 O 0.4174 0.11021 0.08096 0.0
Zn45 Zn 0.39735 0.12712 0.05663 0.0
O46 O 0.38603 0.06893 0.09028 0.0
Zn47 Zn 0.37057 0.08901 0.06923 0.0
O48 O 0.40535 0.07139 0.05049 0.0
O49 O 0.4305 0.11488 0.03943 0.0
O50 O 0.32945 0.0733 0.06009 0.0
O51 O 0.35135 0.11386 0.04463 0.0
O52 O 0.39015 0.17356 0.06188 0.0
O53 O 0.35957 0.13947 0.07755 0.0
C54 C 0.42664 0.08361 0.03999 0.0
C55 C 0.36884 0.16913 0.0738 0.0
C56 C 0.15348 0.86009 0.16407 0.0
C57 C 0.15308 0.94557 0.2098 0.0
O58 O 0.13332 0.85451 0.17654 0.0
Zn59 Zn 0.11629 0.87764 0.19984 0.0
O60 O 0.17034 0.88679 0.16393 0.0
Zn61 Zn 0.15384 0.90444 0.18604 0.0
O62 O 0.17119 0.86812 0.20411 0.0
O63 O 0.12803 0.84469 0.21673 0.0
O64 O 0.17118 0.94544 0.1963 0.0
O65 O 0.13216 0.92215 0.21212 0.0
O66 O 0.07029 0.88608 0.19505 0.0
O67 O 0.10411 0.91659 0.17924 0.0
C68 C 0.15919 0.84718 0.21492 0.0
C69 C 0.07466 0.90796 0.18341 0.0
C70 C 0.37111 0.86977 0.47496 0.0
C71 C 0.46067 0.85952 0.43215 0.0
O72 O 0.39194 0.84608 0.47431 0.0
Zn73 Zn 0.41667 0.86224 0.45424 0.0
O74 O 0.37233 0.8931 0.46372 0.0
Zn75 Zn 0.40017 0.90785 0.44168 0.0
O76 O 0.36768 0.90416 0.42289 0.0
O77 O 0.38115 0.8558 0.43436 0.0
O78 O 0.44165 0.88458 0.43012 0.0
O79 O 0.45581 0.8397 0.44476 0.0
O80 O 0.43795 0.90656 0.46379 0.0
O81 O 0.41899 0.95016 0.44964 0.0
C82 C 0.3643 0.87273 0.42347 0.0
C83 C 0.43759 0.93796 0.46135 0.0
C84 C 0.29596 0.18683 0.71341 0.0
C85 C 0.38269 0.14429 0.67603 0.0
O86 O 0.28478 0.1648 0.70287 0.0
Zn87 Zn 0.30533 0.13228 0.68316 0.0
O88 O 0.32658 0.1938 0.7134 0.0
Zn89 Zn 0.33988 0.16345 0.69585 0.0
O90 O 0.31709 0.18366 0.67311 0.0
O91 O 0.28324 0.14611 0.66202 0.0
O92 O 0.38568 0.16418 0.68872 0.0
O93 O 0.35477 0.13029 0.67317 0.0
O94 O 0.29744 0.08811 0.69206 0.0
O95 O 0.33236 0.11658 0.70823 0.0
C96 C 0.29687 0.17453 0.66124 0.0
C97 C 0.31548 0.09017 0.70549 0.0
C98 C 0.09732 0.16052 0.93469 0.0
C99 C 0.04453 0.07113 0.96676 0.0
O100 O 0.11045 0.13228 0.93117 0.0
Zn101 Zn 0.10292 0.08097 0.9388 0.0
O102 O 0.07391 0.16212 0.94562 0.0
Zn103 Zn 0.07167 0.11571 0.95088 0.0
O104 O 0.11759 0.10671 0.96403 0.0
O105 O 0.14424 0.06852 0.94895 0.0
O106 O 0.03894 0.1021 0.96734 0.0
O107 O 0.06732 0.06004 0.95671 0.0
O108 O 0.09193 0.06093 0.91689 0.0
O109 O 0.0539 0.09547 0.92682 0.0
C110 C 0.14282 0.08787 0.96191 0.0
C111 C 0.06419 0.07525 0.91515 0.0
C112 C 0.8953 0.87341 0.67327 0.0
C113 C 0.81236 0.82006 0.71011 0.0
O114 O 0.90037 0.85262 0.68537 0.0
Zn115 Zn 0.85465 0.84808 0.69261 0.0
O116 O 0.86589 0.88412 0.67055 0.0
Zn117 Zn 0.81677 0.87647 0.68061 0.0
O118 O 0.80452 0.91906 0.69044 0.0
O119 O 0.84503 0.89477 0.70472 0.0
O120 O 0.79966 0.84139 0.69971 0.0
O121 O 0.84353 0.81619 0.71037 0.0
O122 O 0.83273 0.82661 0.66976 0.0
O123 O 0.79528 0.86152 0.65955 0.0
C124 C 0.82534 0.91939 0.70276 0.0
C125 C 0.81101 0.83429 0.65834 0.0
C126 C 0.8429 0.12074 0.42427 0.0
C127 C 0.91724 0.04981 0.4581 0.0
O128 O 0.86139 0.13652 0.43494 0.0
Zn129 Zn 0.89907 0.12697 0.45368 0.0
O130 O 0.84509 0.08928 0.42309 0.0
Zn131 Zn 0.87924 0.08414 0.44072 0.0
O132 O 0.85361 0.09923 0.46373 0.0
O133 O 0.87789 0.14394 0.47445 0.0
O134 O 0.89658 0.04046 0.44667 0.0
O135 O 0.91988 0.08079 0.46164 0.0
O136 O 0.93681 0.14995 0.44363 0.0
O137 O 0.91955 0.10772 0.42777 0.0
C138 C 0.85507 0.12226 0.47521 0.0
C139 C 0.93914 0.13235 0.42998 0.0
C140 C 0.64951 0.15042 0.16723 0.0
C141 C 0.64668 0.05888 0.20932 0.0
O142 O 0.66494 0.12298 0.16611 0.0
Zn143 Zn 0.64968 0.10472 0.18822 0.0
O144 O 0.63115 0.15615 0.18045 0.0
Zn145 Zn 0.61549 0.13124 0.20371 0.0
O146 O 0.63034 0.16082 0.22142 0.0
O147 O 0.67155 0.13813 0.2069 0.0
O148 O 0.6275 0.08295 0.21342 0.0
O149 O 0.66476 0.06125 0.19589 0.0
O150 O 0.59817 0.09676 0.18226 0.0
O151 O 0.56885 0.12822 0.20002 0.0
C152 C 0.66116 0.15803 0.21871 0.0
C153 C 0.5701 0.10752 0.1876 0.0
C154 C 0.55423 0.93167 0.96063 0.0
C155 C 0.61142 0.84653 0.92625 0.0
O156 O 0.54911 0.90053 0.96071 0.0
Zn157 Zn 0.58252 0.88796 0.94386 0.0
O158 O 0.57683 0.94359 0.95076 0.0
Zn159 Zn 0.6131 0.92565 0.93273 0.0
O160 O 0.60095 0.94635 0.91093 0.0
O161 O 0.56458 0.90941 0.92025 0.0
O162 O 0.62236 0.87604 0.92387 0.0
O163 O 0.58813 0.84169 0.93706 0.0
O164 O 0.62762 0.89727 0.95733 0.0
O165 O 0.65419 0.93778 0.94399 0.0
C166 C 0.5739 0.93073 0.90894 0.0
C167 C 0.65259 0.9167 0.95622 0.0
C168 C 0.85505 0.19826 0.82889 0.0
C169 C 0.8503 0.10945 0.78574 0.0
O170 O 0.83291 0.17611 0.82726 0.0
Zn171 Zn 0.85159 0.15387 0.80717 0.0
O172 O 0.87936 0.19908 0.81823 0.0
Zn173 Zn 0.89711 0.17111 0.79646 0.0
O174 O 0.89731 0.20364 0.77798 0.0
O175 O 0.84723 0.18872 0.78636 0.0
O176 O 0.87604 0.12785 0.78423 0.0
O177 O 0.82909 0.11579 0.79746 0.0
O178 O 0.8952 0.13227 0.81792 0.0
O179 O 0.93874 0.15402 0.80495 0.0
C180 C 0.86613 0.20559 0.77633 0.0
C181 C 0.92663 0.13424 0.81611 0.0
C182 C 0.54611 0.13747 0.57968 0.0
C183 C 0.65099 0.13008 0.54826 0.0
O184 O 0.56069 0.10942 0.581 0.0
Zn185 Zn 0.60474 0.08556 0.57279 0.0
O186 O 0.55872 0.16035 0.57043 0.0
Zn187 Zn 0.59727 0.13485 0.56295 0.0
O188 O 0.57609 0.09601 0.54731 0.0
O189 O 0.58805 0.04836 0.55993 0.0
O190 O 0.63101 0.15446 0.54817 0.0
O191 O 0.64362 0.10384 0.55681 0.0
O192 O 0.62573 0.07875 0.59524 0.0
O193 O 0.62224 0.13136 0.58724 0.0
C194 C 0.57439 0.06421 0.54763 0.0
C195 C 0.63107 0.10932 0.59823 0.0
C196 C 0.65125 0.86596 0.29141 0.0
C197 C 0.66629 0.75902 0.32059 0.0
O198 O 0.67154 0.86747 0.3042 0.0
Zn199 Zn 0.68966 0.8351 0.32437 0.0
O200 O 0.63523 0.83932 0.28862 0.0
Zn201 Zn 0.65543 0.81256 0.3066 0.0
O202 O 0.63348 0.83037 0.32979 0.0
O203 O 0.67232 0.85221 0.34628 0.0
O204 O 0.64669 0.76487 0.30806 0.0
O205 O 0.68266 0.78296 0.32736 0.0
O206 O 0.73695 0.83548 0.31967 0.0
O207 O 0.70632 0.81301 0.29891 0.0
C208 C 0.64219 0.84443 0.34397 0.0
C209 C 0.7346 0.82201 0.30477 0.0
C210 C 0.91572 0.91913 0.04482 0.0
C211 C 0.86901 0.83372 0.08215 0.0
O212 O 0.92183 0.8882 0.04493 0.0
Zn213 Zn 0.89051 0.8764 0.06256 0.0
O214 O 0.89356 0.93087 0.05507 0.0
Zn215 Zn 0.85972 0.91161 0.07457 0.0
O216 O 0.87273 0.93566 0.09506 0.0
O217 O 0.91092 0.90153 0.08484 0.0
O218 O 0.85542 0.86199 0.08495 0.0
O219 O 0.88997 0.83088 0.06999 0.0
O220 O 0.84419 0.88447 0.04959 0.0
O221 O 0.81735 0.92209 0.0649 0.0
C222 C 0.90149 0.92318 0.096 0.0
C223 C 0.81883 0.90312 0.05178 0.0
C224 C 0.66147 0.58278 0.79609 0.0
C225 C 0.66104 0.6716 0.8393 0.0
O226 O 0.64083 0.606 0.7927 0.0
Zn227 Zn 0.62429 0.65171 0.80381 0.0
O228 O 0.6795 0.58469 0.80956 0.0
Zn229 Zn 0.66291 0.62707 0.81776 0.0
O230 O 0.61397 0.61394 0.8251 0.0
O231 O 0.57815 0.64204 0.80938 0.0
O232 O 0.67902 0.64572 0.83947 0.0
O233 O 0.64071 0.6764 0.82682 0.0
O234 O 0.63516 0.68351 0.78599 0.0
O235 O 0.6794 0.66187 0.79835 0.0
C236 C 0.58401 0.6209 0.82123 0.0
C237 C 0.66647 0.68164 0.7872 0.0
C238 C 0.57134 0.41597 0.043 0.0
C239 C 0.62304 0.3293 0.07851 0.0
O240 O 0.59337 0.42758 0.05338 0.0
Zn241 Zn 0.62795 0.40803 0.07252 0.0
O242 O 0.56598 0.38485 0.0426 0.0
Zn243 Zn 0.59822 0.3724 0.0598 0.0
O244 O 0.5772 0.395 0.08266 0.0
O245 O 0.61409 0.42994 0.0935 0.0
O246 O 0.60247 0.3257 0.06621 0.0
O247 O 0.63419 0.35836 0.08188 0.0
O248 O 0.67052 0.41964 0.06321 0.0
O249 O 0.64326 0.38447 0.04657 0.0
C250 C 0.58586 0.41619 0.09423 0.0
C251 C 0.66858 0.40287 0.0493 0.0
C252 C 0.81001 0.29232 0.33957 0.0
C253 C 0.83163 0.38928 0.30322 0.0
O254 O 0.83338 0.28803 0.32858 0.0
Zn255 Zn 0.85972 0.31559 0.30931 0.0
O256 O 0.79622 0.3206 0.34088 0.0
Zn257 Zn 0.82154 0.34199 0.32253 0.0
O258 O 0.80642 0.31327 0.30026 0.0
O259 O 0.85052 0.28864 0.28922 0.0
O260 O 0.81168 0.38729 0.3159 0.0
O261 O 0.85046 0.36462 0.29958 0.0
O262 O 0.90422 0.31643 0.3188 0.0
O263 O 0.86901 0.3458 0.33433 0.0
C264 C 0.81952 0.29399 0.28891 0.0
C265 C 0.8983 0.33469 0.33187 0.0
C266 C 0.92413 0.60422 0.5836 0.0
C267 C 0.84017 0.59538 0.53828 0.0
O268 O 0.92638 0.62724 0.57218 0.0
Zn269 Zn 0.90244 0.64131 0.54829 0.0
O270 O 0.90259 0.5815 0.58181 0.0
Zn271 Zn 0.88249 0.59868 0.56083 0.0
O272 O 0.91949 0.58865 0.54166 0.0
O273 O 0.93712 0.63622 0.531 0.0
O274 O 0.84345 0.57724 0.55163 0.0
O275 O 0.86039 0.61936 0.53562 0.0
O276 O 0.88636 0.68537 0.55418 0.0
O277 O 0.86308 0.64536 0.5694 0.0
C278 C 0.9384 0.6047 0.53128 0.0
C279 C 0.86633 0.67632 0.56599 0.0
C280 C 0.73139 0.33694 0.69579 0.0
C281 C 0.63708 0.37842 0.66275 0.0
O282 O 0.73318 0.35587 0.68263 0.0
Zn283 Zn 0.68543 0.36006 0.67954 0.0
O284 O 0.70323 0.32916 0.70218 0.0
Zn285 Zn 0.65185 0.33776 0.69768 0.0
O286 O 0.63684 0.29219 0.6944 0.0
O287 O 0.67255 0.30928 0.67463 0.0
O288 O 0.62851 0.36289 0.67654 0.0
O289 O 0.66759 0.38235 0.65935 0.0
O290 O 0.67186 0.39103 0.70085 0.0
O291 O 0.63899 0.36251 0.71816 0.0
C292 C 0.65455 0.28622 0.68111 0.0
C293 C 0.65459 0.38909 0.71474 0.0
C294 C 0.84085 0.42958 0.95736 0.0
C295 C 0.91817 0.45331 0.91072 0.0
O296 O 0.86705 0.41184 0.95827 0.0
Zn297 Zn 0.91116 0.40452 0.94363 0.0
O298 O 0.83711 0.44969 0.94485 0.0
Zn299 Zn 0.87915 0.44187 0.93367 0.0
O300 O 0.87332 0.39398 0.92213 0.0
O301 O 0.90722 0.35908 0.93503 0.0
O302 O 0.89025 0.46705 0.91315 0.0
O303 O 0.92838 0.43063 0.92107 0.0
O304 O 0.94485 0.41536 0.9604 0.0
O305 O 0.9153 0.45882 0.95243 0.0
C306 C 0.88537 0.36473 0.92356 0.0
C307 C 0.93872 0.44625 0.96156 0.0
C308 C 0.87194 0.68381 0.2305 0.0
C309 C 0.93163 0.60835 0.19274 0.0
O310 O 0.85257 0.66705 0.22065 0.0
Zn311 Zn 0.85649 0.62804 0.20171 0.0
O312 O 0.90274 0.67782 0.23045 0.0
Zn313 Zn 0.90152 0.64371 0.21287 0.0
O314 O 0.88539 0.67053 0.18981 0.0
O315 O 0.83722 0.64956 0.18179 0.0
O316 O 0.94307 0.62584 0.20507 0.0
O317 O 0.90028 0.60692 0.19035 0.0
O318 O 0.83349 0.59045 0.21152 0.0
O319 O 0.87873 0.60275 0.22607 0.0
C320 C 0.86063 0.67012 0.17936 0.0
C321 C 0.8529 0.58471 0.22408 0.0
C322 C 0.65539 0.57927 0.45256 0.0
C323 C 0.56058 0.59408 0.41444 0.0
O324 O 0.6334 0.60171 0.45307 0.0
Zn325 Zn 0.60691 0.58631 0.43405 0.0
O326 O 0.65336 0.55595 0.44124 0.0
Zn327 Zn 0.61916 0.54128 0.42108 0.0
O328 O 0.64565 0.54196 0.40001 0.0
O329 O 0.6381 0.59144 0.41182 0.0
O330 O 0.5762 0.56696 0.41149 0.0
O331 O 0.56987 0.61306 0.42669 0.0
O332 O 0.58386 0.54305 0.44432 0.0
O333 O 0.60084 0.49949 0.42947 0.0
C334 C 0.65031 0.57317 0.39982 0.0
C335 C 0.58342 0.51166 0.44164 0.0
C336 C 0.40834 0.40062 0.17968 0.0
C337 C 0.32053 0.33946 0.20849 0.0
O338 O 0.41133 0.37912 0.19161 0.0
Zn339 Zn 0.36469 0.37025 0.19484 0.0
O340 O 0.37943 0.40899 0.17453 0.0
Zn341 Zn 0.32921 0.39711 0.17985 0.0
O342 O 0.31165 0.43867 0.18912 0.0
O343 O 0.34598 0.41379 0.20713 0.0
O344 O 0.30945 0.36066 0.19753 0.0
O345 O 0.35151 0.3368 0.21096 0.0
O346 O 0.35041 0.34722 0.17098 0.0
O347 O 0.3151 0.37975 0.15728 0.0
C348 C 0.32609 0.43764 0.20377 0.0
C349 C 0.33177 0.35299 0.15791 0.0
C350 C 0.4265 0.57067 0.91415 0.0
C351 C 0.34557 0.5866 0.96006 0.0
O352 O 0.3994 0.5551 0.91599 0.0
Zn353 Zn 0.38642 0.5769 0.93731 0.0
O354 O 0.43533 0.59255 0.92532 0.0
Zn355 Zn 0.41621 0.61508 0.94849 0.0
O356 O 0.44906 0.60336 0.96582 0.0
O357 O 0.42212 0.55977 0.95586 0.0
O358 O 0.37037 0.60622 0.96143 0.0
O359 O 0.34486 0.56512 0.948 0.0
O360 O 0.37784 0.62605 0.92759 0.0
O361 O 0.41108 0.66103 0.94105 0.0
C362 C 0.44429 0.57216 0.96585 0.0
C363 C 0.3887 0.65565 0.92979 0.0
C364 C 0.1672 0.57966 0.70511 0.0
C365 C 0.17464 0.65848 0.6577 0.0
O366 O 0.18262 0.57645 0.69087 0.0
Zn367 Zn 0.17028 0.61854 0.68096 0.0
O368 O 0.14936 0.60545 0.70775 0.0
Zn369 Zn 0.13684 0.64993 0.69408 0.0
O370 O 0.09004 0.64696 0.68939 0.0
O371 O 0.11927 0.61191 0.67371 0.0
O372 O 0.15561 0.66839 0.66994 0.0
O373 O 0.18875 0.63037 0.65866 0.0
O374 O 0.19251 0.65453 0.69869 0.0
O375 O 0.15128 0.68327 0.70997 0.0
C376 C 0.09129 0.62475 0.67771 0.0
C377 C 0.1821 0.67752 0.70891 0.0
C378 C 0.14851 0.39523 0.46979 0.0
C379 C 0.06153 0.38219 0.42629 0.0
O380 O 0.14821 0.4185 0.45845 0.0
Zn381 Zn 0.12049 0.43251 0.43591 0.0
O382 O 0.12733 0.37195 0.46891 0.0
Zn383 Zn 0.10437 0.38772 0.44856 0.0
O384 O 0.14079 0.38095 0.4292 0.0
O385 O 0.15311 0.42904 0.41717 0.0
O386 O 0.06781 0.36256 0.43877 0.0
O387 O 0.07889 0.40851 0.42429 0.0
O388 O 0.10188 0.4751 0.44304 0.0
O389 O 0.08174 0.43244 0.45755 0.0
C390 C 0.15728 0.39778 0.41814 0.0
C391 C 0.08262 0.46377 0.45467 0.0
C392 C 0.31233 0.70662 0.33637 0.0
C393 C 0.32199 0.61501 0.29459 0.0
O394 O 0.29637 0.67939 0.33704 0.0
Zn395 Zn 0.31776 0.65845 0.31698 0.0
O396 O 0.33472 0.71058 0.32484 0.0
Zn397 Zn 0.35674 0.68456 0.3038 0.0
O398 O 0.34725 0.71509 0.28521 0.0
O399 O 0.30295 0.69121 0.29652 0.0
O400 O 0.34247 0.63877 0.29201 0.0
O401 O 0.3036 0.61543 0.30798 0.0
O402 O 0.36584 0.64892 0.3268 0.0
O403 O 0.4018 0.67844 0.31182 0.0
C404 C 0.31601 0.71119 0.28555 0.0
C405 C 0.39564 0.65819 0.32402 0.0
C406 C 0.08119 0.59404 0.09275 0.0
C407 C 0.16629 0.60427 0.04888 0.0
O408 O 0.10842 0.57852 0.09171 0.0
Zn409 Zn 0.12386 0.60012 0.0711 0.0
O410 O 0.07391 0.61617 0.0814 0.0
Zn411 Zn 0.09667 0.63764 0.05861 0.0
O412 O 0.06478 0.62717 0.0408 0.0
O413 O 0.08926 0.58292 0.05162 0.0
O414 O 0.14273 0.62497 0.04628 0.0
O415 O 0.1654 0.58531 0.06198 0.0
O416 O 0.13309 0.64983 0.08058 0.0
O417 O 0.10241 0.68377 0.06504 0.0
C418 C 0.06841 0.59584 0.04105 0.0
C419 C 0.12315 0.67938 0.07719 0.0
C420 C 0.14188 0.33254 0.84597 0.0
C421 C 0.15999 0.40899 0.79791 0.0
O422 O 0.16528 0.3534 0.84447 0.0
Zn423 Zn 0.15192 0.37128 0.82218 0.0
O424 O 0.12053 0.32944 0.83379 0.0
Zn425 Zn 0.11045 0.35026 0.80883 0.0
O426 O 0.11682 0.31322 0.79311 0.0
O427 O 0.16315 0.33144 0.80487 0.0
O428 O 0.1357 0.38914 0.79543 0.0
O429 O 0.17612 0.40798 0.81205 0.0
O430 O 0.10517 0.39376 0.82768 0.0
O431 O 0.0667 0.36875 0.81212 0.0
C432 C 0.14809 0.31152 0.79458 0.0
C433 C 0.07485 0.39089 0.82309 0.0
C434 C 0.45165 0.39454 0.57854 0.0
C435 C 0.35148 0.39354 0.54313 0.0
O436 O 0.42786 0.41511 0.579 0.0
Zn437 Zn 0.40135 0.39522 0.56081 0.0
O438 O 0.45055 0.36994 0.56798 0.0
Zn439 Zn 0.41766 0.35021 0.54871 0.0
O440 O 0.44458 0.35233 0.52774 0.0
O441 O 0.43086 0.40149 0.53812 0.0
O442 O 0.37067 0.36885 0.54014 0.0
O443 O 0.3601 0.41574 0.55397 0.0
O444 O 0.38409 0.3506 0.57257 0.0
O445 O 0.40437 0.30757 0.55841 0.0
C446 C 0.44573 0.38381 0.5267 0.0
C447 C 0.3864 0.31913 0.57055 0.0
H448 H 0.16661 0.41054 0.38354 0.0
H449 H 0.22016 0.2222 0.36738 0.0
H450 H 0.19246 0.34171 0.42408 0.0
H451 H 0.17266 0.28469 0.32946 0.0
H452 H 0.22619 0.27066 0.38647 0.0
H453 H 0.18568 0.37 0.36196 0.0
C454 C 0.1774 0.38741 0.38791 0.0
C455 C 0.17757 0.37919 0.40555 0.0
C456 C 0.21499 0.27382 0.37383 0.0
C457 C 0.19878 0.33263 0.38108 0.0
C458 C 0.21163 0.2462 0.36293 0.0
C459 C 0.19529 0.24933 0.34699 0.0
C460 C 0.20211 0.30471 0.36863 0.0
C461 C 0.1848 0.28104 0.34182 0.0
C462 C 0.18796 0.36413 0.37561 0.0
C463 C 0.19151 0.34875 0.41054 0.0
N464 N 0.18805 0.30738 0.35267 0.0
N465 N 0.20108 0.32636 0.39837 0.0
H466 H -0.00016 0.88752 0.57778 0.0
H467 H 0.96271 0.86603 0.67713 0.0
H468 H 0.07564 0.90999 0.61531 0.0
H469 H 0.88865 0.90125 0.64132 0.0
H470 H 0.00532 0.87669 0.65503 0.0
H471 H 0.95887 0.88675 0.60111 0.0
C472 C 0.00777 0.89256 0.59094 0.0
C473 C 0.04108 0.89894 0.59465 0.0
C474 C 0.97974 0.88244 0.65218 0.0
C475 C 0.99453 0.89731 0.62143 0.0
C476 C 0.95545 0.8763 0.66473 0.0
C477 C 0.92205 0.88268 0.66106 0.0
C478 C 0.97036 0.89424 0.63577 0.0
C479 C 0.91405 0.89599 0.64476 0.0
C480 C 0.98441 0.89219 0.60423 0.0
C481 C 0.0501 0.90526 0.61193 0.0
N482 N 0.93792 0.90084 0.63266 0.0
N483 N 0.027 0.90377 0.62477 0.0
H484 H 0.39846 0.7235 0.93213 0.0
H485 H 0.34779 0.75559 0.83521 0.0
H486 H 0.35216 0.64828 0.90044 0.0
H487 H 0.33849 0.83467 0.87259 0.0
H488 H 0.355 0.71606 0.8589 0.0
H489 H 0.38198 0.76553 0.91061 0.0
C490 C 0.38464 0.71586 0.92078 0.0
C491 C 0.37685 0.68227 0.91806 0.0
C492 C 0.35101 0.742 0.86196 0.0
C493 C 0.35849 0.7299 0.89345 0.0
C494 C 0.34693 0.76452 0.84846 0.0
C495 C 0.34235 0.7983 0.852 0.0
C496 C 0.35149 0.75341 0.87916 0.0
C497 C 0.3416 0.80869 0.86939 0.0
C498 C 0.37516 0.73982 0.90858 0.0
C499 C 0.35881 0.67379 0.90313 0.0
N500 N 0.34668 0.78635 0.88239 0.0
N501 N 0.35069 0.69732 0.89132 0.0
H502 H 0.42987 0.03378 0.11124 0.0
H503 H 0.51303 0.14321 0.18542 0.0
H504 H 0.43407 0.14072 0.1102 0.0
H505 H 0.55933 0.05327 0.16706 0.0
H506 H 0.46864 0.13507 0.16427 0.0
H507 H 0.46384 0.0343 0.13783 0.0
C508 C 0.43771 0.05726 0.11672 0.0
C509 C 0.42977 0.08724 0.10851 0.0
C510 C 0.48822 0.11681 0.16518 0.0
C511 C 0.46704 0.08801 0.13884 0.0
C512 C 0.51339 0.12129 0.17728 0.0
C513 C 0.54006 0.09911 0.17777 0.0
C514 C 0.48952 0.08971 0.15378 0.0
C515 C 0.53937 0.07116 0.16688 0.0
C516 C 0.45691 0.05753 0.13179 0.0
C517 C 0.44024 0.11709 0.11604 0.0
N518 N 0.51456 0.06734 0.15518 0.0
N519 N 0.45827 0.11674 0.13084 0.0
H520 H 0.15583 0.79377 0.16865 0.0
H521 H 0.11406 0.74639 0.07183 0.0
H522 H 0.15734 0.86825 0.1286 0.0
H523 H 0.15637 0.67667 0.108 0.0
H524 H 0.12749 0.79171 0.09199 0.0
H525 H 0.15389 0.7506 0.14645 0.0
C526 C 0.15615 0.80097 0.15511 0.0
C527 C 0.15682 0.83455 0.15041 0.0
C528 C 0.13419 0.76651 0.09536 0.0
C529 C 0.15376 0.78523 0.12487 0.0
C530 C 0.12644 0.74062 0.08391 0.0
C531 C 0.13389 0.70758 0.08826 0.0
C532 C 0.14893 0.75924 0.1114 0.0
C533 C 0.15005 0.70165 0.10407 0.0
C534 C 0.15508 0.77633 0.14244 0.0
C535 C 0.15713 0.84258 0.13271 0.0
N536 N 0.15659 0.72711 0.11513 0.0
N537 N 0.15503 0.81805 0.12052 0.0
H538 H 0.45939 0.8762 0.39831 0.0
H539 H 0.65088 0.84757 0.37942 0.0
H540 H 0.52303 0.83271 0.43696 0.0
H541 H 0.57601 0.85099 0.33964 0.0
H542 H 0.60696 0.84938 0.40159 0.0
H543 H 0.50435 0.87368 0.37742 0.0
C544 C 0.48289 0.8659 0.40237 0.0
C545 C 0.48749 0.85456 0.41938 0.0
C546 C 0.60032 0.84982 0.38799 0.0
C547 C 0.53947 0.85209 0.39549 0.0
C548 C 0.6253 0.84917 0.37536 0.0
C549 C 0.61703 0.84923 0.35767 0.0
C550 C 0.56705 0.85113 0.3828 0.0
C551 C 0.58352 0.85086 0.35311 0.0
C552 C 0.50856 0.86447 0.39042 0.0
C553 C 0.51844 0.84142 0.42391 0.0
N554 N 0.55986 0.85186 0.36556 0.0
N555 N 0.5435 0.84081 0.41204 0.0
H556 H 0.30237 0.15381 0.6277 0.0
H557 H 0.34574 0.33793 0.59688 0.0
H558 H 0.29152 0.24138 0.65931 0.0
H559 H 0.38227 0.25058 0.57062 0.0
H560 H 0.31447 0.30276 0.61644 0.0
H561 H 0.31904 0.18903 0.6032 0.0
C562 C 0.30214 0.18054 0.62924 0.0
C563 C 0.29546 0.19487 0.64546 0.0
C564 C 0.3292 0.2912 0.60637 0.0
C565 C 0.31513 0.23497 0.61782 0.0
C566 C 0.34723 0.31128 0.59518 0.0
C567 C 0.36713 0.29721 0.58219 0.0
C568 C 0.33092 0.25661 0.60467 0.0
C569 C 0.36758 0.26248 0.58058 0.0
C570 C 0.31216 0.20054 0.61537 0.0
C571 C 0.29636 0.22948 0.64697 0.0
N572 N 0.34989 0.2433 0.59179 0.0
N573 N 0.30633 0.24832 0.63338 0.0
H574 H 0.08739 0.06939 0.88202 0.0
H575 H 0.90728 0.09201 0.84172 0.0
H576 H 0.99749 0.0744 0.91196 0.0
H577 H 0.99468 0.13323 0.81781 0.0
H578 H 0.94175 0.0675 0.86417 0.0
H579 H 0.05459 0.07519 0.85533 0.0
C580 C 0.0607 0.07075 0.88291 0.0
C581 C 0.04497 0.07166 0.89912 0.0
C582 C 0.9534 0.08153 0.85386 0.0
C583 C 0.00771 0.07805 0.86893 0.0
C584 C 0.93379 0.09557 0.84102 0.0
C585 C 0.94807 0.11533 0.82804 0.0
C586 C 0.98757 0.08708 0.85372 0.0
C587 C 0.98262 0.11859 0.82772 0.0
C588 C 0.04213 0.0743 0.86775 0.0
C589 C 0.01046 0.07385 0.89968 0.0
N590 N 0.00126 0.10489 0.84053 0.0
N591 N 0.99296 0.07711 0.88479 0.0
H592 H 0.82393 0.66367 0.59263 0.0
H593 H 0.8077 0.85187 0.62415 0.0
H594 H 0.86882 0.74479 0.56464 0.0
H595 H 0.80785 0.76721 0.65824 0.0
H596 H 0.81397 0.81414 0.59918 0.0
H597 H 0.80146 0.70316 0.61342 0.0
C598 C 0.82875 0.68985 0.59068 0.0
C599 C 0.84883 0.70085 0.57699 0.0
C600 C 0.81191 0.80392 0.61212 0.0
C601 C 0.8229 0.74623 0.60084 0.0
C602 C 0.80801 0.82531 0.62629 0.0
C603 C 0.80724 0.81245 0.64318 0.0
C604 C 0.81434 0.76958 0.61496 0.0
C605 C 0.80838 0.77799 0.64539 0.0
C606 C 0.81589 0.71235 0.6026 0.0
C607 C 0.85379 0.73518 0.5751 0.0
N608 N 0.81194 0.75774 0.63144 0.0
N609 N 0.84116 0.75671 0.58702 0.0
H610 H 0.03093 0.17167 0.33074 0.0
H611 H -0.00093 0.16436 0.43263 0.0
H612 H 0.11131 0.16514 0.36736 0.0
H613 H 0.93281 0.11929 0.39562 0.0
H614 H 0.03815 0.17577 0.40886 0.0
H615 H 0.99172 0.16315 0.35464 0.0
C616 C 0.04029 0.16848 0.34379 0.0
C617 C 0.07438 0.1688 0.34707 0.0
C618 C 0.01498 0.16343 0.40603 0.0
C619 C 0.02983 0.1598 0.37439 0.0
C620 C 0.99271 0.15706 0.41953 0.0
C621 C 0.96287 0.14064 0.41608 0.0
C622 C 0.00684 0.15403 0.389 0.0
C623 C 0.95575 0.13167 0.39887 0.0
C624 C 0.01797 0.16359 0.35738 0.0
C625 C 0.08522 0.16465 0.36424 0.0
N626 N 0.97747 0.13865 0.38596 0.0
N627 N 0.063 0.16054 0.37729 0.0
H628 H 0.61175 0.26225 0.07367 0.0
H629 H 0.64811 0.21716 0.17142 0.0
H630 H 0.65452 0.3321 0.10974 0.0
H631 H 0.65462 0.14176 0.13185 0.0
H632 H 0.64588 0.25963 0.14889 0.0
H633 H 0.62294 0.21734 0.09447 0.0
C634 C 0.62373 0.26812 0.08585 0.0
C635 C 0.63208 0.30108 0.08996 0.0
C636 C 0.64814 0.23385 0.14509 0.0
C637 C 0.64442 0.25001 0.11382 0.0
C638 C 0.64935 0.20959 0.15794 0.0
C639 C 0.65166 0.17593 0.15348 0.0
C640 C 0.64836 0.22446 0.12756 0.0
C641 C 0.65314 0.1675 0.13581 0.0
C642 C 0.63018 0.24249 0.09767 0.0
C643 C 0.6476 0.30717 0.10595 0.0
N644 N 0.65096 0.19161 0.12344 0.0
N645 N 0.65284 0.28203 0.11734 0.0
H646 H 0.59399 0.92467 0.87527 0.0
H647 H 0.40809 0.92718 0.84056 0.0
H648 H 0.50829 0.9427 0.90709 0.0
H649 H 0.48271 0.86465 0.81735 0.0
H650 H 0.4493 0.94894 0.8605 0.0
H651 H 0.55751 0.91808 0.84986 0.0
C652 C 0.56761 0.92833 0.87675 0.0
C653 C 0.55393 0.93442 0.89316 0.0
C654 C 0.45676 0.93078 0.8509 0.0
C655 C 0.51252 0.92695 0.86447 0.0
C656 C 0.43327 0.91828 0.83947 0.0
C657 C 0.44177 0.89348 0.82745 0.0
C658 C 0.48917 0.9186 0.85036 0.0
C659 C 0.47499 0.88346 0.82653 0.0
C660 C 0.5469 0.92423 0.86235 0.0
C661 C 0.51966 0.93816 0.89459 0.0
N662 N 0.49751 0.89579 0.83802 0.0
N663 N 0.50012 0.93434 0.88044 0.0
H664 H 0.85957 0.37525 0.89155 0.0
H665 H 0.83638 0.18781 0.86264 0.0
H666 H 0.89057 0.29643 0.92574 0.0
H667 H 0.87266 0.26319 0.82787 0.0
H668 H 0.84099 0.22764 0.88687 0.0
H669 H 0.84845 0.33426 0.86898 0.0
C670 C 0.8636 0.34925 0.89442 0.0
C671 C 0.87613 0.33924 0.91057 0.0
C672 C 0.84763 0.23535 0.87388 0.0
C673 C 0.86305 0.29226 0.88474 0.0
C674 C 0.84475 0.21287 0.86009 0.0
C675 C 0.85411 0.22239 0.84328 0.0
C676 C 0.85898 0.26767 0.87065 0.0
C677 C 0.86525 0.25493 0.84065 0.0
C678 C 0.85739 0.32595 0.88148 0.0
C679 C 0.88109 0.30518 0.91344 0.0
N680 N 0.86714 0.27649 0.85416 0.0
N681 N 0.87442 0.28278 0.90063 0.0
H682 H 0.38867 0.09692 0.65103 0.0
H683 H 0.53038 0.1929 0.59864 0.0
H684 H 0.43477 0.18648 0.67002 0.0
H685 H 0.49762 0.09358 0.58687 0.0
H686 H 0.49036 0.19501 0.62266 0.0
H687 H 0.42527 0.09798 0.62596 0.0
C688 C 0.40689 0.11655 0.65006 0.0
C689 C 0.40879 0.14153 0.6627 0.0
C690 C 0.49165 0.17298 0.61463 0.0
C691 C 0.45033 0.14339 0.63372 0.0
C692 C 0.51404 0.172 0.60079 0.0
C693 C 0.51709 0.14307 0.5908 0.0
C694 C 0.47221 0.14489 0.61831 0.0
C695 C 0.49594 0.11636 0.5943 0.0
C696 C 0.42763 0.11729 0.63566 0.0
C697 C 0.43272 0.1665 0.66068 0.0
N698 N 0.47455 0.11784 0.60781 0.0
N699 N 0.45244 0.16695 0.64637 0.0
H700 H 0.62733 0.70332 0.31576 0.0
H701 H 0.69919 0.61898 0.39972 0.0
H702 H 0.71429 0.73812 0.34264 0.0
H703 H 0.63091 0.56797 0.36616 0.0
H704 H 0.70951 0.6594 0.37683 0.0
H705 H 0.63121 0.6508 0.33184 0.0
C706 C 0.64747 0.69975 0.32481 0.0
C707 C 0.6701 0.72541 0.32811 0.0
C708 C 0.6929 0.63893 0.3742 0.0
C709 C 0.67468 0.66566 0.34649 0.0
C710 C 0.6873 0.61571 0.38724 0.0
C711 C 0.6645 0.59006 0.38469 0.0
C712 C 0.67465 0.63718 0.35871 0.0
C713 C 0.64909 0.5872 0.36846 0.0
C714 C 0.64972 0.66978 0.33396 0.0
C715 C 0.69583 0.71936 0.33991 0.0
N716 N 0.65384 0.61099 0.35617 0.0
N717 N 0.69715 0.69039 0.34879 0.0
H718 H 0.07705 0.95022 0.15588 0.0
H719 H 0.88696 0.93068 0.13041 0.0
H720 H 0.00824 0.8953 0.18767 0.0
H721 H 0.96715 0.93464 0.09363 0.0
H722 H 0.92734 0.93585 0.1542 0.0
H723 H 0.03217 0.96358 0.13603 0.0
C724 C 0.0524 0.94143 0.15888 0.0
C725 C 0.04653 0.92098 0.17328 0.0
C726 C 0.93585 0.93625 0.14089 0.0
C727 C 0.99513 0.93644 0.1506 0.0
C728 C 0.91296 0.93352 0.12738 0.0
C729 C 0.92401 0.93206 0.11016 0.0
C730 C 0.96968 0.93833 0.13697 0.0
C731 C 0.95783 0.93544 0.10679 0.0
C732 C 0.02685 0.94907 0.14751 0.0
C733 C 0.01395 0.91071 0.17658 0.0
N734 N 0.97952 0.93837 0.1201 0.0
N735 N 0.98943 0.91823 0.16517 0.0
H736 H 0.66171 0.65985 0.87434 0.0
H737 H 0.65227 0.85215 0.89838 0.0
H738 H 0.66054 0.73843 0.83648 0.0
H739 H 0.60075 0.77889 0.92903 0.0
H740 H 0.6702 0.80853 0.87867 0.0
H741 H 0.65366 0.70158 0.89745 0.0
C742 C 0.66057 0.68592 0.87097 0.0
C743 C 0.66186 0.69592 0.85356 0.0
C744 C 0.65522 0.80196 0.8898 0.0
C745 C 0.65291 0.74324 0.87965 0.0
C746 C 0.64499 0.82682 0.90112 0.0
C747 C 0.62462 0.81927 0.91533 0.0
C748 C 0.64545 0.76909 0.89272 0.0
C749 C 0.61616 0.78587 0.91815 0.0
C750 C 0.65567 0.70955 0.88408 0.0
C751 C 0.65967 0.72982 0.84977 0.0
N752 N 0.62655 0.76192 0.90688 0.0
N753 N 0.6554 0.75226 0.8627 0.0
H754 H 0.59921 0.42133 0.12892 0.0
H755 H 0.40888 0.4445 0.15286 0.0
H756 H 0.52024 0.42712 0.09152 0.0
H757 H 0.47412 0.38546 0.18466 0.0
H758 H 0.45502 0.45694 0.13366 0.0
H759 H 0.55804 0.42569 0.15244 0.0
C760 C 0.57331 0.4243 0.12571 0.0
C761 C 0.56283 0.42372 0.10839 0.0
C762 C 0.4593 0.44172 0.14501 0.0
C763 C 0.51632 0.4292 0.13487 0.0
C764 C 0.43303 0.4346 0.15601 0.0
C765 C 0.43748 0.41327 0.1702 0.0
C766 C 0.49035 0.42767 0.14825 0.0
C767 C 0.46951 0.40162 0.17372 0.0
C768 C 0.54998 0.42659 0.13906 0.0
C769 C 0.52913 0.42726 0.10477 0.0
N770 N 0.49477 0.40864 0.16265 0.0
N771 N 0.50704 0.42987 0.11791 0.0
H772 H 0.81264 0.17936 0.43108 0.0
H773 H 0.81618 0.22662 0.33251 0.0
H774 H 0.82752 0.10761 0.39032 0.0
H775 H 0.78355 0.29418 0.37241 0.0
H776 H 0.81099 0.18068 0.35283 0.0
H777 H 0.7919 0.21886 0.40977 0.0
C778 C 0.81073 0.17167 0.41765 0.0
C779 C 0.82222 0.14039 0.41237 0.0
C780 C 0.80436 0.2054 0.35712 0.0
C781 C 0.79934 0.18578 0.38782 0.0
C782 C 0.80743 0.23169 0.34553 0.0
C783 C 0.80087 0.26431 0.35091 0.0
C784 C 0.79529 0.21179 0.37436 0.0
C785 C 0.78911 0.26942 0.3678 0.0
C786 C 0.79893 0.19426 0.40547 0.0
C787 C 0.81899 0.13153 0.39489 0.0
N788 N 0.78735 0.24348 0.37906 0.0
N789 N 0.80855 0.15443 0.38315 0.0
H790 H 0.07981 0.56969 0.65767 0.0
H791 H 0.94916 0.65911 0.59925 0.0
H792 H 0.03648 0.66319 0.67278 0.0
H793 H 0.94797 0.55234 0.60313 0.0
H794 H 0.98576 0.66161 0.62445 0.0
H795 H 0.03548 0.5624 0.63625 0.0
C796 C 0.06068 0.5884 0.65669 0.0
C797 C 0.06187 0.61713 0.667 0.0
C798 C 0.97731 0.63764 0.61986 0.0
C799 C 0.01183 0.60933 0.64228 0.0
C800 C 0.95666 0.63617 0.60542 0.0
C801 C 0.94567 0.60545 0.59907 0.0
C802 C 0.9878 0.60816 0.62779 0.0
C803 C 0.9559 0.57651 0.60765 0.0
C804 C 0.03544 0.58419 0.64448 0.0
C805 C 0.03648 0.64061 0.66516 0.0
N806 N 0.97685 0.57851 0.62146 0.0
N807 N 0.01287 0.6365 0.6528 0.0
H808 H 0.6007 0.10468 0.62952 0.0
H809 H 0.70431 0.261 0.6617 0.0
H810 H 0.68706 0.14393 0.60416 0.0
H811 H 0.60863 0.23543 0.68251 0.0
H812 H 0.70521 0.20893 0.6458 0.0
H813 H 0.61065 0.14228 0.6541 0.0
C814 C 0.62265 0.12009 0.62956 0.0
C815 C 0.64338 0.12113 0.61499 0.0
C816 C 0.68407 0.21445 0.65393 0.0
C817 C 0.65429 0.16464 0.64258 0.0
C818 C 0.68344 0.24431 0.66296 0.0
C819 C 0.65596 0.25291 0.67311 0.0
C820 C 0.65681 0.193 0.6548 0.0
C821 C 0.63009 0.22989 0.67463 0.0
C822 C 0.62803 0.14187 0.64343 0.0
C823 C 0.67081 0.14223 0.61529 0.0
N824 N 0.63087 0.20113 0.66531 0.0
N825 N 0.67528 0.16341 0.62877 0.0
H826 H 0.08547 0.44262 0.84518 0.0
H827 H 0.89811 0.44986 0.87708 0.0
H828 H 0.00694 0.38643 0.82113 0.0
H829 H 0.98306 0.46895 0.90926 0.0
H830 H 0.93491 0.4443 0.85182 0.0
H831 H 0.04487 0.46999 0.86361 0.0
C832 C 0.05962 0.43635 0.84357 0.0
C833 C 0.04967 0.41156 0.83187 0.0
C834 C 0.9453 0.4507 0.86433 0.0
C835 C 0.0031 0.44298 0.85297 0.0
C836 C 0.92437 0.45423 0.87865 0.0
C837 C 0.9378 0.45993 0.89514 0.0
C838 C 0.97964 0.45337 0.86664 0.0
C839 C 0.97192 0.46461 0.89669 0.0
C840 C 0.03647 0.45206 0.8541 0.0
C841 C 0.01574 0.40502 0.83016 0.0
N842 N 0.99174 0.46099 0.88263 0.0
N843 N 0.99363 0.42028 0.84083 0.0
H844 H 0.81745 0.82466 0.10484 0.0
H845 H 0.91373 0.69565 0.16234 0.0
H846 H 0.90896 0.78025 0.08783 0.0
H847 H 0.80709 0.69543 0.16187 0.0
H848 H 0.91351 0.73258 0.13719 0.0
H849 H 0.81344 0.78244 0.12772 0.0
C850 C 0.83644 0.80581 0.10577 0.0
C851 C 0.86359 0.80598 0.09441 0.0
C852 C 0.89017 0.72435 0.14256 0.0
C853 C 0.85955 0.7584 0.12074 0.0
C854 C 0.89025 0.7035 0.15697 0.0
C855 C 0.86037 0.69256 0.16421 0.0
C856 C 0.86 0.73502 0.13554 0.0
C857 C 0.83066 0.70327 0.15663 0.0
C858 C 0.83411 0.78178 0.1188 0.0
C859 C 0.88753 0.781 0.09623 0.0
N860 N 0.83119 0.72429 0.1428 0.0
N861 N 0.88523 0.75857 0.10932 0.0
H862 H 0.54108 0.65704 0.40582 0.0
H863 H 0.39803 0.60018 0.34189 0.0
H864 H 0.52084 0.55386 0.3952 0.0
H865 H 0.45154 0.69154 0.33402 0.0
H866 H 0.43752 0.58468 0.36448 0.0
H867 H 0.50182 0.6726 0.38292 0.0
C868 C 0.52797 0.63772 0.39888 0.0
C869 C 0.53408 0.60413 0.40241 0.0
C870 C 0.44076 0.60799 0.35771 0.0
C871 C 0.48953 0.62168 0.37631 0.0
C872 C 0.41833 0.61682 0.34482 0.0
C873 C 0.42171 0.64708 0.33604 0.0
C874 C 0.46631 0.62994 0.36215 0.0
C875 C 0.44833 0.66782 0.34037 0.0
C876 C 0.50594 0.64659 0.38571 0.0
C877 C 0.51683 0.58005 0.39287 0.0
N878 N 0.46947 0.65904 0.35331 0.0
N879 N 0.49522 0.58929 0.3803 0.0
H880 H 0.33251 0.16643 0.10358 0.0
H881 H 0.32971 0.36176 0.12244 0.0
H882 H 0.37779 0.2363 0.06844 0.0
H883 H 0.33066 0.28651 0.16212 0.0
H884 H 0.33408 0.31768 0.10023 0.0
H885 H 0.31779 0.21225 0.12275 0.0
C886 C 0.33903 0.19145 0.09975 0.0
C887 C 0.35674 0.19742 0.08441 0.0
C888 C 0.33293 0.31098 0.11381 0.0
C889 C 0.33976 0.25014 0.10641 0.0
C890 C 0.3302 0.336 0.12642 0.0
C891 C 0.32993 0.32764 0.14408 0.0
C892 C 0.33458 0.27756 0.11899 0.0
C893 C 0.33099 0.29398 0.14863 0.0
C894 C 0.33068 0.21759 0.11076 0.0
C895 C 0.36439 0.23051 0.0802 0.0
N896 N 0.33319 0.27023 0.1362 0.0
N897 N 0.35596 0.25567 0.09118 0.0
H898 H 0.49188 0.55746 0.91308 0.0
H899 H 0.51701 0.63472 0.82099 0.0
H900 H 0.40783 0.57681 0.88034 0.0
H901 H 0.59016 0.57218 0.84534 0.0
H902 H 0.47569 0.61397 0.84174 0.0
H903 H 0.52815 0.56245 0.88789 0.0
C904 C 0.4811 0.56194 0.90044 0.0
C905 C 0.447 0.56636 0.89863 0.0
C906 C 0.5007 0.60444 0.84227 0.0
C907 C 0.48822 0.57352 0.86991 0.0
C908 C 0.52427 0.61631 0.83048 0.0
C909 C 0.55723 0.60565 0.83162 0.0
C910 C 0.51042 0.58216 0.85532 0.0
C911 C 0.56522 0.58162 0.84412 0.0
C912 C 0.50172 0.5649 0.88607 0.0
C913 C 0.43408 0.57274 0.88209 0.0
N914 N 0.54216 0.57112 0.85561 0.0
N915 N 0.45482 0.57683 0.86834 0.0
H916 H 0.18771 0.72405 0.65645 0.0
H917 H 0.10355 0.74878 0.56559 0.0
H918 H 0.1651 0.63992 0.62401 0.0
H919 H 0.16388 0.82371 0.59021 0.0
H920 H 0.12583 0.70758 0.586 0.0
H921 H 0.1799 0.76067 0.63163 0.0
C922 C 0.18187 0.71332 0.64392 0.0
C923 C 0.17728 0.67911 0.64212 0.0
C924 C 0.13446 0.73299 0.58668 0.0
C925 C 0.16696 0.72075 0.61383 0.0
C926 C 0.12167 0.75649 0.57511 0.0
C927 C 0.13138 0.78986 0.57639 0.0
C928 C 0.15677 0.74315 0.59962 0.0
C929 C 0.15514 0.79843 0.58889 0.0
C930 C 0.17729 0.73415 0.62977 0.0
C931 C 0.16926 0.66626 0.62575 0.0
N932 N 0.16665 0.77537 0.60012 0.0
N933 N 0.16366 0.68721 0.61222 0.0
H934 H 0.02426 0.42638 0.40841 0.0
H935 H 0.95251 0.2971 0.34044 0.0
H936 H 0.04058 0.32129 0.41456 0.0
H937 H 0.90193 0.38806 0.35339 0.0
H938 H 0.99162 0.30761 0.36428 0.0
H939 H 0.98501 0.41467 0.3851 0.0
C940 C 0.01936 0.4008 0.40491 0.0
C941 C 0.03549 0.37473 0.41346 0.0
C942 C 0.97196 0.32522 0.36181 0.0
C943 C 0.99128 0.36123 0.38653 0.0
C944 C 0.94992 0.31945 0.34814 0.0
C945 C 0.92404 0.34182 0.34494 0.0
C946 C 0.96842 0.35387 0.37203 0.0
C947 C 0.9215 0.37017 0.35544 0.0
C948 C 0.99701 0.39416 0.39162 0.0
C949 C 0.02834 0.34204 0.40839 0.0
N950 N 0.94352 0.3755 0.36843 0.0
N951 N 0.00698 0.33617 0.39508 0.0
H952 H 0.28924 0.70313 0.36996 0.0
H953 H 0.34817 0.88902 0.38987 0.0
H954 H 0.32344 0.77224 0.33124 0.0
H955 H 0.33339 0.81395 0.42892 0.0
H956 H 0.3242 0.85128 0.36821 0.0
H957 H 0.29065 0.74807 0.39153 0.0
C958 C 0.29633 0.72787 0.36593 0.0
C959 C 0.30682 0.73387 0.3489 0.0
C960 C 0.32562 0.84335 0.3816 0.0
C961 C 0.30859 0.7852 0.37337 0.0
C962 C 0.33907 0.86499 0.39396 0.0
C963 C 0.34323 0.85434 0.4111 0.0
C964 C 0.31621 0.81104 0.38652 0.0
C965 C 0.33114 0.82288 0.41573 0.0
C966 C 0.29729 0.75347 0.37823 0.0
C967 C 0.31578 0.7664 0.34434 0.0
N968 N 0.31858 0.8022 0.40349 0.0
N969 N 0.3168 0.79071 0.35651 0.0
H970 H 0.01461 0.60309 0.09308 0.0
H971 H 0.91458 0.57486 0.16325 0.0
H972 H 0.09575 0.57122 0.1253 0.0
H973 H -0.00043 0.61004 0.19176 0.0
H974 H 0.95034 0.56295 0.13855 0.0
H975 H 0.97738 0.59724 0.11779 0.0
C976 C 0.02447 0.59443 0.10533 0.0
C977 C 0.05824 0.58763 0.1072 0.0
C978 C 0.96114 0.57307 0.15026 0.0
C979 C 0.01582 0.58069 0.13549 0.0
C980 C 0.94084 0.57961 0.16445 0.0
C981 C 0.95399 0.59423 0.17948 0.0
C982 C 0.9948 0.58121 0.15111 0.0
C983 C 0.9883 0.5993 0.18033 0.0
C984 C 0.00317 0.59073 0.11937 0.0
C985 C 0.06979 0.57652 0.12334 0.0
N986 N 0.00755 0.59314 0.16622 0.0
N987 N 0.04868 0.57401 0.13702 0.0
H988 H 0.19068 0.3043 0.86585 0.0
H989 H 0.06312 0.21847 0.93089 0.0
H990 H 0.08484 0.3138 0.86145 0.0
H991 H 0.1541 0.17037 0.91592 0.0
H992 H 0.07652 0.26457 0.91151 0.0
H993 H 0.18267 0.26537 0.89016 0.0
C994 C 0.16586 0.29859 0.87019 0.0
C995 C 0.13834 0.31194 0.86163 0.0
C996 C 0.09371 0.24408 0.91267 0.0
C997 C 0.12913 0.26836 0.88934 0.0
C998 C 0.08618 0.21785 0.92377 0.0
C999 C 0.10737 0.19038 0.92487 0.0
C1000 C 0.12285 0.24311 0.90282 0.0
C1001 C 0.13692 0.19093 0.9153 0.0
C1002 C 0.16133 0.27636 0.88394 0.0
C1003 C 0.10667 0.30372 0.86763 0.0
N1004 N 0.14378 0.21687 0.9046 0.0
N1005 N 0.10292 0.28252 0.88114 0.0
H1006 H 0.51421 0.37179 0.57321 0.0
H1007 H 0.57261 0.39324 0.66971 0.0
H1008 H 0.45475 0.42539 0.61029 0.0
H1009 H 0.64254 0.38667 0.6276 0.0
H1010 H 0.52836 0.40308 0.64867 0.0
H1011 H 0.56095 0.37435 0.59327 0.0
C1012 C 0.51106 0.38425 0.58556 0.0
C1013 C 0.48052 0.39824 0.59015 0.0
C1014 C 0.55346 0.39999 0.64406 0.0
C1015 C 0.5338 0.40089 0.61323 0.0
C1016 C 0.5787 0.39429 0.65604 0.0
C1017 C 0.61126 0.389 0.65037 0.0
C1018 C 0.56069 0.39956 0.62627 0.0
C1019 C 0.6178 0.39071 0.63252 0.0
C1020 C 0.5378 0.38587 0.59694 0.0
C1021 C 0.47788 0.41431 0.60625 0.0
N1022 N 0.59262 0.39527 0.62107 0.0
N1023 N 0.50406 0.41476 0.61735 0.0
H1024 H 0.25299 0.3433 0.2088 0.0
H1025 H 0.23382 0.19692 0.2777 0.0
H1026 H 0.33459 0.28795 0.23036 0.0
H1027 H 0.153 0.26112 0.26318 0.0
H1028 H 0.26928 0.22544 0.25716 0.0
H1029 H 0.21467 0.30943 0.22572 0.0
C1030 C 0.26287 0.32395 0.21703 0.0
C1031 C 0.2971 0.31857 0.21826 0.0
C1032 C 0.24377 0.23326 0.25836 0.0
C1033 C 0.25335 0.27973 0.23755 0.0
C1034 C 0.22343 0.21695 0.27009 0.0
C1035 C 0.19047 0.22697 0.27232 0.0
C1036 C 0.23121 0.25994 0.24877 0.0
C1037 C 0.17831 0.25274 0.26192 0.0
C1038 C 0.24095 0.30466 0.22668 0.0
C1039 C 0.30845 0.29312 0.2291 0.0
N1040 N 0.19882 0.26861 0.25066 0.0
N1041 N 0.28662 0.2747 0.23835 0.0
H1042 H 0.06286 0.96491 0.52625 0.0
H1043 H 0.91769 0.98123 0.45599 0.0
H1044 H 0.01443 0.87938 0.50402 0.0
H1045 H 0.96566 0.06358 0.48154 0.0
H1046 H 0.9536 0.94294 0.47215 0.0
H1047 H 0.02856 1.00078 0.50853 0.0
C1048 C 0.04505 0.95359 0.51758 0.0
C1049 C 0.04152 0.91899 0.51671 0.0
C1050 C 0.9562 0.96941 0.47416 0.0
C1051 C 0.00169 0.9603 0.49625 0.0
C1052 C 0.93573 0.99127 0.46494 0.0
C1053 C 0.93855 0.02572 0.46742 0.0
C1054 C 0.97966 0.98216 0.48586 0.0
C1055 C 0.9624 0.03729 0.47919 0.0
C1056 C 0.02536 0.97418 0.50744 0.0
C1057 C 0.018 0.90592 0.50513 0.0
N1058 N 0.9819 0.01564 0.48792 0.0
N1059 N 0.99887 0.9266 0.49539 0.0
H1060 H 0.25 0.67337 0.70966 0.0
H1061 H 0.26705 0.8072 0.78601 0.0
H1062 H 0.16788 0.72522 0.73303 0.0
H1063 H 0.35161 0.76429 0.7602 0.0
H1064 H 0.23077 0.77517 0.76728 0.0
H1065 H 0.2879 0.70458 0.72838 0.0
C1066 C 0.23992 0.69133 0.71868 0.0
C1067 C 0.20565 0.69666 0.71975 0.0
C1068 C 0.25724 0.77266 0.76567 0.0
C1069 C 0.24888 0.73229 0.74125 0.0
C1070 C 0.27808 0.79094 0.77642 0.0
C1071 C 0.31254 0.78853 0.77469 0.0
C1072 C 0.27079 0.75159 0.75302 0.0
C1073 C 0.32521 0.76696 0.76199 0.0
C1074 C 0.26159 0.70912 0.72937 0.0
C1075 C 0.19405 0.72025 0.7317 0.0
N1076 N 0.30433 0.74932 0.75162 0.0
N1077 N 0.21558 0.73707 0.74197 0.0
H1078 H 0.42303 0.01591 0.03804 0.0
H1079 H 0.55878 0.99933 0.96289 0.0
H1080 H 0.47376 0.09978 0.01561 0.0
H1081 H 0.50602 0.91588 0.98444 0.0
H1082 H 0.52816 0.03636 0.98212 0.0
H1083 H 0.45357 0.97903 0.01873 0.0
C1084 C 0.44065 0.02664 0.02907 0.0
C1085 C 0.44578 0.06112 0.02848 0.0
C1086 C 0.52322 0.00997 0.98265 0.0
C1087 C 0.48094 0.01875 0.00621 0.0
C1088 C 0.5407 0.98873 0.97164 0.0
C1089 C 0.53501 0.95432 0.97202 0.0
C1090 C 0.49981 0.99683 0.99419 0.0
C1091 C 0.51124 0.94218 0.98367 0.0
C1092 C 0.45808 0.00548 0.01802 0.0
C1093 C 0.46897 0.07342 0.01655 0.0
N1094 N 0.49457 0.96339 0.99429 0.0
N1095 N 0.48566 0.05227 0.0059 0.0
H1096 H 0.3326 0.7593 0.26178 0.0
H1097 H 0.14371 0.79797 0.23808 0.0
H1098 H 0.24915 0.70603 0.28291 0.0
H1099 H 0.22662 0.8484 0.21461 0.0
H1100 H 0.18235 0.76362 0.25448 0.0
H1101 H 0.29442 0.79178 0.24393 0.0
C1102 C 0.30633 0.75433 0.26261 0.0
C1103 C 0.29405 0.73006 0.27391 0.0
C1104 C 0.19208 0.78218 0.24572 0.0
C1105 C 0.25035 0.76706 0.25366 0.0
C1106 C 0.17001 0.80183 0.23638 0.0
C1107 C 0.18194 0.82612 0.225 0.0
C1108 C 0.22629 0.78695 0.24368 0.0
C1109 C 0.2163 0.82998 0.22326 0.0
C1110 C 0.28456 0.77287 0.25244 0.0
C1111 C 0.25977 0.7246 0.27446 0.0
N1112 N 0.23727 0.81065 0.23253 0.0
N1113 N 0.23916 0.74303 0.26454 0.0
H1114 H 0.44047 0.00662 0.46417 0.0
H1115 H 0.57001 0.9972 0.54273 0.0
H1116 H 0.48374 0.9165 0.4842 0.0
H1117 H 0.53635 0.09029 0.52144 0.0
H1118 H 0.53806 0.96786 0.52083 0.0
H1119 H 0.47515 0.03867 0.48444 0.0
C1120 C 0.45728 0.99362 0.47271 0.0
C1121 C 0.45896 0.95881 0.47254 0.0
C1122 C 0.53767 0.99472 0.52086 0.0
C1123 C 0.49843 0.99507 0.49567 0.0
C1124 C 0.55595 0.0115 0.53341 0.0
C1125 C 0.55586 0.04626 0.53397 0.0
C1126 C 0.51889 0.01272 0.50875 0.0
C1127 C 0.53716 0.06344 0.52149 0.0
C1128 C 0.47702 0.01187 0.48427 0.0
C1129 C 0.48124 0.94324 0.4839 0.0
N1130 N 0.51928 0.04649 0.50942 0.0
N1131 N 0.49987 0.96141 0.49497 0.0
H1132 H 0.12739 0.27099 0.76783 0.0
H1133 H 0.31282 0.22828 0.73995 0.0
H1134 H 0.21429 0.30046 0.79649 0.0
H1135 H 0.22817 0.18331 0.7152 0.0
H1136 H 0.27606 0.2555 0.76046 0.0
H1137 H 0.16277 0.23834 0.74835 0.0
C1138 C 0.15378 0.27032 0.77015 0.0
C1139 C 0.16791 0.28871 0.78373 0.0
C1140 C 0.26543 0.23962 0.75059 0.0
C1141 C 0.20837 0.25183 0.76148 0.0
C1142 C 0.28645 0.22415 0.7388 0.0
C1143 C 0.27357 0.20355 0.7258 0.0
C1144 C 0.23113 0.23472 0.74935 0.0
C1145 C 0.23915 0.19903 0.72503 0.0
C1146 C 0.17394 0.25178 0.75901 0.0
C1147 C 0.20226 0.28696 0.78612 0.0
N1148 N 0.21906 0.21463 0.73661 0.0
N1149 N 0.22125 0.2691 0.77505 0.0
H1150 H 0.0504 0.00347 0.96921 0.0
H1151 H 0.90887 0.98638 0.04137 0.0
H1152 H 0.99469 0.08626 0.98949 0.0
H1153 H 0.96452 0.90319 0.02151 0.0
H1154 H 0.93968 0.02315 0.02214 0.0
H1155 H 0.0188 0.96617 0.98792 0.0
C1156 C 0.03149 0.01382 0.97756 0.0
C1157 C 0.02523 0.04809 0.97777 0.0
C1158 C 0.94516 0.99685 0.02196 0.0
C1159 C 0.98897 0.00549 0.99925 0.0
C1160 C 0.92755 0.97581 0.03296 0.0
C1161 C 0.93411 0.9416 0.03308 0.0
C1162 C 0.96957 0.98368 0.01098 0.0
C1163 C 0.95863 0.92938 0.02187 0.0
C1164 C 0.01347 0.99249 0.98825 0.0
C1165 C 0.00042 0.06005 0.98888 0.0
N1166 N 0.97547 0.9504 0.01128 0.0
N1167 N 0.98326 0.0388 0.99917 0.0
H1168 H 0.74475 0.82122 0.71205 0.0
H1169 H 0.73412 0.68227 0.78607 0.0
H1170 H 0.83021 0.77314 0.73419 0.0
H1171 H 0.64844 0.7275 0.76256 0.0
H1172 H 0.76961 0.7159 0.76749 0.0
H1173 H 0.70918 0.7878 0.73073 0.0
C1174 C 0.75609 0.80366 0.72085 0.0
C1175 C 0.79061 0.80003 0.72153 0.0
C1176 C 0.74306 0.71849 0.76637 0.0
C1177 C 0.74984 0.76157 0.74301 0.0
C1178 C 0.72271 0.69928 0.777 0.0
C1179 C 0.68815 0.70201 0.7759 0.0
C1180 C 0.72885 0.74074 0.75452 0.0
C1181 C 0.67491 0.72452 0.76387 0.0
C1182 C 0.73571 0.78455 0.73152 0.0
C1183 C 0.80377 0.77682 0.73321 0.0
N1184 N 0.69526 0.743 0.75367 0.0
N1185 N 0.78339 0.7585 0.74347 0.0
H1186 H 0.64725 0.20631 0.24252 0.0
H1187 H 0.83621 0.2458 0.2651 0.0
H1188 H 0.72897 0.15678 0.21743 0.0
H1189 H 0.75304 0.30139 0.28486 0.0
H1190 H 0.7981 0.21316 0.24718 0.0
H1191 H 0.68636 0.24098 0.25826 0.0
C1192 C 0.67345 0.20264 0.24035 0.0
C1193 C 0.68483 0.17852 0.22866 0.0
C1194 C 0.7883 0.23268 0.25536 0.0
C1195 C 0.72991 0.21835 0.24665 0.0
C1196 C 0.81003 0.25138 0.26554 0.0
C1197 C 0.7978 0.27624 0.27658 0.0
C1198 C 0.75415 0.23885 0.25631 0.0
C1199 C 0.76364 0.28236 0.27664 0.0
C1200 C 0.69581 0.22257 0.2493 0.0
C1201 C 0.7191 0.17504 0.22634 0.0
N1202 N 0.74306 0.26368 0.26677 0.0
N1203 N 0.74047 0.19469 0.2353 0.0
H1204 H 0.80848 0.19267 0.76015 0.0
H1205 H 0.78668 0.36221 0.71204 0.0
H1206 H 0.88944 0.26239 0.76042 0.0
H1207 H 0.73997 0.27133 0.69566 0.0
H1208 H 0.82556 0.32937 0.72983 0.0
H1209 H 0.78206 0.22443 0.73732 0.0
C1210 C 0.82069 0.21479 0.75538 0.0
C1211 C 0.85106 0.22506 0.76223 0.0
C1212 C 0.80737 0.31671 0.72193 0.0
C1213 C 0.82082 0.26178 0.736 0.0
C1214 C 0.78544 0.33536 0.71175 0.0
C1215 C 0.7603 0.31923 0.7025 0.0
C1216 C 0.80342 0.28207 0.72289 0.0
C1217 C 0.75907 0.28454 0.7027 0.0
C1218 C 0.80574 0.23278 0.74222 0.0
C1219 C 0.86597 0.25373 0.75542 0.0
N1220 N 0.77998 0.26716 0.71293 0.0
N1221 N 0.85043 0.27151 0.74278 0.0
H1222 H 0.74008 0.82983 0.27025 0.0
H1223 H 0.89566 0.70908 0.2613 0.0
H1224 H 0.79412 0.79554 0.31493 0.0
H1225 H 0.81691 0.71982 0.22401 0.0
H1226 H 0.8691 0.75185 0.27948 0.0
H1227 H 0.78041 0.80301 0.25142 0.0
C1228 C 0.76103 0.8173 0.27606 0.0
C1229 C 0.76371 0.81446 0.2941 0.0
C1230 C 0.85798 0.74498 0.26722 0.0
C1231 C 0.80933 0.78281 0.27269 0.0
C1232 C 0.87303 0.72068 0.25688 0.0
C1233 C 0.85812 0.71066 0.24128 0.0
C1234 C 0.82836 0.75966 0.26163 0.0
C1235 C 0.82893 0.72642 0.23607 0.0
C1236 C 0.78389 0.8018 0.26534 0.0
C1237 C 0.79133 0.79819 0.30104 0.0
N1238 N 0.81504 0.75006 0.24622 0.0
N1239 N 0.81287 0.78225 0.29028 0.0
H1240 H 0.5229 0.4004 0.01941 0.0
H1241 H 0.49313 0.5887 0.98924 0.0
H1242 H 0.57673 0.48371 0.04047 0.0
H1243 H 0.43978 0.50465 0.96865 0.0
H1244 H 0.52423 0.55095 0.00805 0.0
H1245 H 0.49236 0.43847 1.0007 0.0
C1246 C 0.52832 0.42669 0.02012 0.0
C1247 C 0.55247 0.4388 0.03157 0.0
C1248 C 0.50572 0.5408 0.9994 0.0
C1249 C 0.51749 0.48269 0.01009 0.0
C1250 C 0.48795 0.56236 0.98865 0.0
C1251 C 0.46375 0.54991 0.97732 0.0
C1252 C 0.49927 0.50651 0.99884 0.0
C1253 C 0.45815 0.51547 0.97715 0.0
C1254 C 0.51085 0.44846 0.00941 0.0
C1255 C 0.55836 0.47319 0.03187 0.0
N1256 N 0.47572 0.49507 0.98772 0.0
N1257 N 0.54102 0.49389 0.02131 0.0
H1258 H 0.03775 0.44521 0.479 0.0
H1259 H 0.98158 0.62856 0.50637 0.0
H1260 H 0.07883 0.53251 0.45474 0.0
H1261 H 0.94625 0.53776 0.52957 0.0
H1262 H 0.01719 0.59546 0.48708 0.0
H1263 H 0.00368 0.48024 0.49714 0.0
C1264 C 0.03964 0.47185 0.47744 0.0
C1265 C 0.06135 0.48586 0.46529 0.0
C1266 C 0.00162 0.58293 0.49643 0.0
C1267 C 0.02195 0.52659 0.48631 0.0
C1268 C 0.98133 0.60176 0.50744 0.0
C1269 C 0.96083 0.58595 0.51963 0.0
C1270 C 0.00129 0.54812 0.49764 0.0
C1271 C 0.96151 0.55117 0.52042 0.0
C1272 C 0.02006 0.49195 0.48788 0.0
C1273 C 0.06244 0.52064 0.46394 0.0
N1274 N 0.98129 0.53358 0.50962 0.0
N1275 N 0.04302 0.53989 0.47436 0.0
H1276 H 0.02055 0.61402 0.01765 0.0
H1277 H 0.98866 0.42835 0.98383 0.0
H1278 H 0.07197 0.52826 0.03751 0.0
H1279 H 0.93336 0.51345 0.96617 0.0
H1280 H 0.02022 0.46464 0.00316 0.0
H1281 H 0.9891 0.5777 0.9983 0.0
C1282 C 0.02525 0.58757 0.01795 0.0
C1283 C 0.04897 0.57423 0.02925 0.0
C1284 C 0.00117 0.47537 0.99506 0.0
C1285 C 0.01302 0.53242 0.00707 0.0
C1286 C 0.98314 0.45465 0.984 0.0
C1287 C 0.95827 0.46781 0.97334 0.0
C1288 C 0.99437 0.50958 0.99547 0.0
C1289 C 0.95226 0.50213 0.97415 0.0
C1290 C 0.00726 0.56682 0.0069 0.0
C1291 C 0.05394 0.53971 0.02905 0.0
N1292 N 0.97016 0.52178 0.98499 0.0
N1293 N 0.03617 0.52005 0.01815 0.0
H1294 H 0.5802 0.44306 0.44341 0.0
H1295 H 0.44477 0.44953 0.51914 0.0
H1296 H 0.53848 0.53226 0.46547 0.0
H1297 H 0.48891 0.35731 0.50244 0.0
H1298 H 0.47683 0.47886 0.49757 0.0
H1299 H 0.54536 0.40997 0.46309 0.0
C1300 C 0.56371 0.45567 0.45231 0.0
C1301 C 0.5624 0.49051 0.45283 0.0
C1302 C 0.47964 0.4522 0.49852 0.0
C1303 C 0.52262 0.45299 0.47521 0.0
C1304 C 0.46124 0.43534 0.5109 0.0
C1305 C 0.46429 0.40085 0.51274 0.0
C1306 C 0.50159 0.43469 0.48779 0.0
C1307 C 0.48587 0.38393 0.5015 0.0
C1308 C 0.5439 0.43679 0.46353 0.0
C1309 C 0.54059 0.50553 0.46461 0.0
N1310 N 0.5039 0.40106 0.48952 0.0
N1311 N 0.52171 0.48673 0.47527 0.0
H1312 H 0.10903 0.09042 0.28869 0.0
H1313 H 0.20624 0.98611 0.21744 0.0
H1314 H 0.21531 0.08292 0.28982 0.0
H1315 H 0.10625 0.96393 0.2331 0.0
H1316 H 0.21007 0.02636 0.24148 0.0
H1317 H 0.10738 0.04773 0.26621 0.0
C1318 C 0.13201 0.07938 0.28436 0.0
C1319 C 0.16232 0.08998 0.29121 0.0
C1320 C 0.18738 0.01258 0.23959 0.0
C1321 C 0.16073 0.04179 0.26506 0.0
C1322 C 0.18507 0.98991 0.22581 0.0
C1323 C 0.15587 0.97171 0.22326 0.0
C1324 C 0.16008 0.0174 0.25061 0.0
C1325 C 0.12928 0.97733 0.23459 0.0
C1326 C 0.13108 0.0551 0.27148 0.0
C1327 C 0.19141 0.07506 0.28502 0.0
N1328 N 0.13196 0.99975 0.24766 0.0
N1329 N 0.18996 0.05197 0.2721 0.0
H1330 H 0.21023 0.93574 0.54041 0.0
H1331 H 0.33696 0.81773 0.48951 0.0
H1332 H 0.18495 0.83707 0.52303 0.0
H1333 H 0.3438 0.92454 0.48944 0.0
H1334 H 0.28657 0.82192 0.50729 0.0
H1335 H 0.26454 0.9297 0.52662 0.0
C1336 C 0.21607 0.91285 0.53369 0.0
C1337 C 0.19289 0.88703 0.5327 0.0
C1338 C 0.29941 0.84437 0.50352 0.0
C1339 C 0.25509 0.87971 0.51725 0.0
C1340 C 0.32825 0.84195 0.49354 0.0
C1341 C 0.34435 0.87083 0.48796 0.0
C1342 C 0.28709 0.87583 0.50811 0.0
C1343 C 0.33191 0.90167 0.49338 0.0
C1344 C 0.24705 0.9094 0.52586 0.0
C1345 C 0.20189 0.8578 0.52392 0.0
N1346 N 0.30402 0.90338 0.50311 0.0
N1347 N 0.2323 0.8549 0.51658 0.0
H1348 H 0.32965 0.09504 0.73993 0.0
H1349 H 0.34025 0.90286 0.75757 0.0
H1350 H 0.30241 0.02401 0.70053 0.0
H1351 H 0.31205 0.97108 0.79811 0.0
H1352 H 0.33331 0.94722 0.73623 0.0
H1353 H 0.33053 0.05027 0.76137 0.0
C1354 C 0.32397 0.06998 0.73578 0.0
C1355 C 0.31609 0.06314 0.71841 0.0
C1356 C 0.32841 0.95239 0.74978 0.0
C1357 C 0.31732 0.01196 0.74282 0.0
C1358 C 0.3325 0.9272 0.76196 0.0
C1359 C 0.32678 0.93342 0.77962 0.0
C1360 C 0.31935 0.98424 0.75534 0.0
C1361 C 0.31658 0.96529 0.78461 0.0
C1362 C 0.32423 0.04457 0.74804 0.0
C1363 C 0.3086 0.03031 0.71378 0.0
N1364 N 0.31364 0.98973 0.77253 0.0
N1365 N 0.30978 0.00581 0.72589 0.0
H1366 H 0.28907 0.03951 0.03944 0.0
H1367 H 0.16109 0.13969 0.98243 0.0
H1368 H 0.30348 0.14317 0.02762 0.0
H1369 H 0.18582 0.03813 0.97022 0.0
H1370 H 0.20616 0.14079 0.00365 0.0
H1371 H 0.24343 0.03784 0.01845 0.0
C1372 C 0.28245 0.06191 0.03251 0.0
C1373 C 0.29997 0.09151 0.03517 0.0
C1374 C 0.20164 0.11833 0.99629 0.0
C1375 C 0.24797 0.08984 0.01154 0.0
C1376 C 0.17596 0.11762 0.98427 0.0
C1377 C 0.16993 0.0888 0.97458 0.0
C1378 C 0.22079 0.08977 0.99888 0.0
C1379 C 0.18992 0.06089 0.97738 0.0
C1380 C 0.25666 0.06088 0.02052 0.0
C1381 C 0.29065 0.11983 0.02584 0.0
N1382 N 0.21438 0.06195 0.98943 0.0
N1383 N 0.26504 0.11839 0.0145 0.0
H1384 H 0.89811 0.07678 0.76779 0.0
H1385 H 0.778 0.96633 0.71024 0.0
H1386 H 0.7927 0.07779 0.77637 0.0
H1387 H 0.87778 0.9371 0.72278 0.0
H1388 H 0.7829 0.01266 0.73092 0.0
H1389 H 0.89116 0.03071 0.74755 0.0
C1390 C 0.87346 0.06731 0.7654 0.0
C1391 C 0.84593 0.08107 0.7738 0.0
C1392 C 0.8036 0.99597 0.72911 0.0
C1393 C 0.83781 0.02857 0.75047 0.0
C1394 C 0.80092 0.96974 0.71727 0.0
C1395 C 0.82753 0.94786 0.71481 0.0
C1396 C 0.83333 1.00066 0.73819 0.0
C1397 C 0.85661 0.95326 0.72432 0.0
C1398 C 0.86955 0.04095 0.75389 0.0
C1399 C 0.81458 0.06772 0.77024 0.0
N1400 N 0.85881 0.97923 0.73548 0.0
N1401 N 0.81129 0.0423 0.7587 0.0
H1402 H 0.681 0.18341 0.53214 0.0
H1403 H 0.81943 0.07114 0.48827 0.0
H1404 H 0.69328 0.07883 0.54246 0.0
H1405 H 0.83004 0.17746 0.49163 0.0
H1406 H 0.77129 0.07426 0.50715 0.0
H1407 H 0.73353 0.18282 0.51603 0.0
C1408 C 0.69468 0.1604 0.53104 0.0
C1409 C 0.68262 0.1311 0.5386 0.0
C1410 C 0.78427 0.09694 0.50395 0.0
C1411 C 0.74238 0.13029 0.52026 0.0
C1412 C 0.81177 0.09515 0.49316 0.0
C1413 C 0.82872 0.12408 0.48841 0.0
C1414 C 0.7731 0.12797 0.50982 0.0
C1415 C 0.81774 0.15456 0.49512 0.0
C1416 C 0.72469 0.16014 0.52195 0.0
C1417 C 0.70147 0.10204 0.53685 0.0
N1418 N 0.79027 0.1558 0.50534 0.0
N1419 N 0.73019 0.10235 0.5278 0.0
H1420 H 0.69862 0.01669 0.21541 0.0
H1421 H 0.5985 0.88517 0.27131 0.0
H1422 H 0.59615 0.03291 0.22834 0.0
H1423 H 0.69957 0.91032 0.28334 0.0
H1424 H 0.59696 0.9315 0.25052 0.0
H1425 H 0.69937 0.96892 0.23527 0.0
C1426 C 0.67624 0.00999 0.22228 0.0
C1427 C 0.64734 0.02882 0.22032 0.0
C1428 C 0.61939 0.92677 0.25776 0.0
C1429 C 0.64788 0.97418 0.2427 0.0
C1430 C 0.6203 0.90042 0.26958 0.0
C1431 C 0.64909 0.89416 0.27917 0.0
C1432 C 0.64779 0.94622 0.25517 0.0
C1433 C 0.67673 0.91458 0.27638 0.0
C1434 C 0.67673 0.98293 0.23364 0.0
C1435 C 0.61902 0.01917 0.2296 0.0
N1436 N 0.67552 0.93949 0.26452 0.0
N1437 N 0.61991 0.99237 0.2403 0.0
H1438 H 0.67249 0.86134 0.97324 0.0
H1439 H 0.77778 0.9549 0.04429 0.0
H1440 H 0.69168 0.96637 0.96929 0.0
H1441 H 0.80208 0.85519 0.02828 0.0
H1442 H 0.73845 0.95864 0.02017 0.0
H1443 H 0.71327 0.85764 0.99661 0.0
C1444 C 0.68543 0.8836 0.97728 0.0
C1445 C 0.67885 0.91422 0.96937 0.0
C1446 C 0.75239 0.93597 0.02201 0.0
C1447 C 0.72478 0.91023 0.99624 0.0
C1448 C 0.77453 0.93367 0.03583 0.0
C1449 C 0.79308 0.90462 0.03828 0.0
C1450 C 0.7483 0.90879 0.01085 0.0
C1451 C 0.78824 0.878 0.02682 0.0
C1452 C 0.70867 0.88143 0.99055 0.0
C1453 C 0.69628 0.9423 0.97501 0.0
N1454 N 0.76609 0.88062 0.01365 0.0
N1455 N 0.71824 0.93973 0.98831 0.0
H1456 H 0.66408 0.45404 0.70681 0.0
H1457 H 0.67875 0.51853 0.80391 0.0
H1458 H 0.6451 0.38886 0.75003 0.0
H1459 H 0.64688 0.58112 0.76176 0.0
H1460 H 0.6763 0.47031 0.78428 0.0
H1461 H 0.66706 0.50094 0.72685 0.0
C1462 C 0.66043 0.44964 0.72054 0.0
C1463 C 0.65418 0.41758 0.72679 0.0
C1464 C 0.66995 0.49468 0.7794 0.0
C1465 C 0.65823 0.47103 0.74979 0.0
C1466 C 0.67163 0.52214 0.79051 0.0
C1467 C 0.663 0.55377 0.78441 0.0
C1468 C 0.6603 0.49918 0.76207 0.0
C1469 C 0.65361 0.55713 0.76699 0.0
C1470 C 0.66212 0.4764 0.73194 0.0
C1471 C 0.64965 0.41327 0.7447 0.0
N1472 N 0.65269 0.53022 0.75642 0.0
N1473 N 0.65208 0.43972 0.75564 0.0
H1474 H 0.85047 0.41139 0.99091 0.0
H1475 H 0.66147 0.39297 0.01457 0.0
H1476 H 0.77422 0.44104 0.95502 0.0
H1477 H 0.73347 0.42069 0.05325 0.0
H1478 H 0.7034 0.40077 0.99202 0.0
H1479 H 0.80854 0.40532 0.01359 0.0
C1480 C 0.82487 0.41657 0.98781 0.0
C1481 C 0.81569 0.4267 0.9711 0.0
C1482 C 0.70993 0.40511 0.00545 0.0
C1483 C 0.76781 0.41933 0.99683 0.0
C1484 C 0.68619 0.40043 0.01832 0.0
C1485 C 0.69413 0.40613 0.03578 0.0
C1486 C 0.74198 0.41482 0.01013 0.0
C1487 C 0.72639 0.4161 0.03992 0.0
C1488 C 0.80107 0.41325 1.00076 0.0
C1489 C 0.78226 0.43331 0.96778 0.0
N1490 N 0.7493 0.41985 0.02718 0.0
N1491 N 0.75937 0.42914 0.98052 0.0
H1492 H 0.8221 0.4543 0.31266 0.0
H1493 H 0.82193 0.52599 0.21701 0.0
H1494 H 0.84297 0.39188 0.26852 0.0
H1495 H 0.86953 0.58009 0.25834 0.0
H1496 H 0.81479 0.47862 0.23669 0.0
H1497 H 0.8253 0.50331 0.29362 0.0
C1498 C 0.82712 0.45094 0.29897 0.0
C1499 C 0.8325 0.41913 0.29213 0.0
C1500 C 0.82657 0.50101 0.24142 0.0
C1501 C 0.83531 0.47454 0.27041 0.0
C1502 C 0.83051 0.52801 0.23027 0.0
C1503 C 0.84649 0.55686 0.23606 0.0
C1504 C 0.83785 0.50326 0.25859 0.0
C1505 C 0.85731 0.55816 0.25336 0.0
C1506 C 0.82904 0.4788 0.28819 0.0
C1507 C 0.83898 0.41604 0.27432 0.0
N1508 N 0.8526 0.53178 0.26408 0.0
N1509 N 0.83992 0.44338 0.26403 0.0
H1510 H 0.71892 0.55845 0.44752 0.0
H1511 H 0.77708 0.57467 0.54512 0.0
H1512 H 0.65429 0.60087 0.48612 0.0
H1513 H 0.8417 0.60337 0.50326 0.0
H1514 H 0.73142 0.56928 0.52418 0.0
H1515 H 0.76455 0.56023 0.46858 0.0
C1516 C 0.71434 0.56793 0.46045 0.0
C1517 C 0.68295 0.57973 0.4651 0.0
C1518 C 0.75571 0.57654 0.51965 0.0
C1519 C 0.73447 0.58098 0.4892 0.0
C1520 C 0.7817 0.5794 0.53151 0.0
C1521 C 0.81305 0.58957 0.52586 0.0
C1522 C 0.7615 0.58291 0.50202 0.0
C1523 C 0.81779 0.59567 0.50811 0.0
C1524 C 0.7403 0.569 0.47238 0.0
C1525 C 0.67825 0.59183 0.482 0.0
N1526 N 0.79233 0.59199 0.49677 0.0
N1527 N 0.70369 0.59187 0.49353 0.0
H1528 H 0.33468 0.62074 0.26017 0.0
H1529 H 0.3295 0.42994 0.23873 0.0
H1530 H 0.30192 0.55 0.29844 0.0
H1531 H 0.30989 0.50341 0.19944 0.0
H1532 H 0.32426 0.47289 0.26103 0.0
H1533 H 0.33097 0.57771 0.23791 0.0
C1534 C 0.32674 0.59608 0.2639 0.0
C1535 C 0.31882 0.58883 0.28122 0.0
C1536 C 0.32078 0.47954 0.24755 0.0
C1537 C 0.31478 0.53943 0.25576 0.0
C1538 C 0.32393 0.45514 0.23481 0.0
C1539 C 0.32029 0.46322 0.2172 0.0
C1540 C 0.31477 0.51247 0.24265 0.0
C1541 C 0.31283 0.49616 0.21286 0.0
C1542 C 0.32439 0.57164 0.25114 0.0
C1543 C 0.30828 0.55658 0.28525 0.0
N1544 N 0.31083 0.51973 0.2255 0.0
N1545 N 0.30701 0.53287 0.27264 0.0
H1546 H 0.32604 0.64184 0.9775 0.0
H1547 H 0.20506 0.55025 0.04214 0.0
H1548 H 0.30337 0.53787 0.97126 0.0
H1549 H 0.18866 0.65174 0.02656 0.0
H1550 H 0.24814 0.54542 0.01987 0.0
H1551 H 0.28207 0.64621 0.99918 0.0
C1552 C 0.31176 0.61994 0.9807 0.0
C1553 C 0.31823 0.58944 0.9726 0.0
C1554 C 0.23505 0.56869 0.02138 0.0
C1555 C 0.26849 0.5942 0.99753 0.0
C1556 C 0.21074 0.57157 0.03414 0.0
C1557 C 0.19339 0.60147 0.03618 0.0
C1558 C 0.2425 0.59613 0.01092 0.0
C1559 C 0.20144 0.62824 0.02537 0.0
C1560 C 0.28668 0.6225 0.993 0.0
C1561 C 0.29896 0.56185 0.97716 0.0
N1562 N 0.22565 0.62504 0.01328 0.0
N1563 N 0.27511 0.56479 0.9895 0.0
H1564 H 0.15555 0.39936 0.76324 0.0
H1565 H 0.15824 0.58852 0.7398 0.0
H1566 H 0.1823 0.47291 0.80142 0.0
H1567 H 0.18417 0.51409 0.70187 0.0
H1568 H 0.16277 0.54669 0.76264 0.0
H1569 H 0.16243 0.44088 0.74042 0.0
C1570 C 0.16322 0.42424 0.76677 0.0
C1571 C 0.16825 0.4329 0.78418 0.0
C1572 C 0.16773 0.53962 0.74934 0.0
C1573 C 0.17548 0.4805 0.75826 0.0
C1574 C 0.16486 0.56334 0.73629 0.0
C1575 C 0.17055 0.55461 0.71892 0.0
C1576 C 0.17562 0.5068 0.74493 0.0
C1577 C 0.17948 0.52178 0.7151 0.0
C1578 C 0.16724 0.44782 0.75376 0.0
C1579 C 0.1783 0.46533 0.78811 0.0
N1580 N 0.18129 0.49889 0.72801 0.0
N1581 N 0.18102 0.48823 0.77523 0.0
H1582 H 0.17099 0.34284 0.48916 0.0
H1583 H 0.31138 0.44772 0.53779 0.0
H1584 H 0.18553 0.44773 0.48083 0.0
H1585 H 0.31781 0.34227 0.52849 0.0
H1586 H 0.25864 0.44866 0.52197 0.0
H1587 H 0.21825 0.3429 0.50906 0.0
C1588 C 0.18383 0.36593 0.49169 0.0
C1589 C 0.17456 0.39525 0.48321 0.0
C1590 C 0.27163 0.42535 0.52349 0.0
C1591 C 0.22838 0.39551 0.50593 0.0
C1592 C 0.30162 0.4248 0.53252 0.0
C1593 C 0.31913 0.39496 0.53427 0.0
C1594 C 0.25892 0.39575 0.51649 0.0
C1595 C 0.30534 0.36591 0.52724 0.0
C1596 C 0.21087 0.36592 0.50296 0.0
C1597 C 0.19211 0.42449 0.48695 0.0
N1598 N 0.27606 0.36703 0.51869 0.0
N1599 N 0.21823 0.42388 0.49801 0.0
loop_
_geom_bond_atom_site_label_1
_geom_bond_atom_site_label_2
_geom_bond_distance
_geom_bond_site_symmetry_2
_ccdc_geom_bond_type
C0 O2 1.247 . S
C0 O4 1.258 . S
C1 O8 1.247 . S
C1 O9 1.258 . S
O2 C0 1.247 . S
O2 Zn3 2.028 . S
Zn3 O2 2.028 . S
Zn3 O7 2.035 . S
Zn3 O9 2.035 . S
Zn3 O10 2.028 . S
O4 C0 1.258 . S
O4 Zn5 2.035 . S
Zn5 O4 2.035 . S
Zn5 O6 2.028 . S
Zn5 O8 2.028 . S
Zn5 O11 2.035 . S
O6 Zn5 2.028 . S
O6 C12 1.247 . S
O7 Zn3 2.035 . S
O7 C12 1.258 . S
O8 C1 1.247 . S
O8 Zn5 2.028 . S
O9 C1 1.258 . S
O9 Zn3 2.035 . S
O10 Zn3 2.028 . S
O10 C13 1.247 . S
O11 Zn5 2.035 . S
O11 C13 1.258 . S
C12 O6 1.247 . S
C12 O7 1.258 . S
C13 O10 1.247 . S
C13 O11 1.258 . S
C14 O16 1.247 . S
C14 O18 1.258 . S
C15 O22 1.247 . S
C15 O23 1.258 . S
O16 C14 1.247 . S
O16 Zn17 2.028 . S
Zn17 O16 2.028 . S
Zn17 O21 2.035 . S
Zn17 O23 2.035 . S
Zn17 O24 2.028 . S
O18 C14 1.258 . S
O18 Zn19 2.035 . S
Zn19 O18 2.035 . S
Zn19 O20 2.028 . S
Zn19 O22 2.028 . S
Zn19 O25 2.035 . S
O20 Zn19 2.028 . S
O20 C26 1.247 . S
O21 Zn17 2.035 . S
O21 C26 1.258 . S
O22 C15 1.247 . S
O22 Zn19 2.028 . S
O23 C15 1.258 . S
O23 Zn17 2.035 . S
O24 Zn17 2.028 . S
O24 C27 1.247 . S
O25 Zn19 2.035 . S
O25 C27 1.258 . S
C26 O20 1.247 . S
C26 O21 1.258 . S
C27 O24 1.247 . S
C27 O25 1.258 . S
C28 O30 1.247 . S
C28 O32 1.258 . S
C29 O36 1.247 . S
C29 O37 1.258 . S
O30 C28 1.247 . S
O30 Zn31 2.028 . S
Zn31 O30 2.028 . S
Zn31 O35 2.035 . S
Zn31 O37 2.035 . S
Zn31 O38 2.028 . S
O32 C28 1.258 . S
O32 Zn33 2.035 . S
Zn33 O32 2.035 . S
Zn33 O34 2.028 . S
Zn33 O36 2.028 . S
Zn33 O39 2.035 . S
O34 Zn33 2.028 . S
O34 C40 1.247 . S
O35 Zn31 2.035 . S
O35 C40 1.258 . S
O36 C29 1.247 . S
O36 Zn33 2.028 . S
O37 C29 1.258 . S
O37 Zn31 2.035 . S
O38 Zn31 2.028 . S
O38 C41 1.247 . S
O39 Zn33 2.035 . S
O39 C41 1.258 . S
C40 O34 1.247 . S
C40 O35 1.258 . S
C41 O38 1.247 . S
C41 O39 1.258 . S
C42 O44 1.247 . S
C42 O46 1.258 . S
C43 O50 1.247 . S
C43 O51 1.258 . S
O44 C42 1.247 . S
O44 Zn45 2.028 . S
Zn45 O44 2.028 . S
Zn45 O49 2.035 . S
Zn45 O51 2.035 . S
Zn45 O52 2.028 . S
O46 C42 1.258 . S
O46 Zn47 2.035 . S
Zn47 O46 2.035 . S
Zn47 O48 2.028 . S
Zn47 O50 2.028 . S
Zn47 O53 2.035 . S
O48 Zn47 2.028 . S
O48 C54 1.247 . S
O49 Zn45 2.035 . S
O49 C54 1.258 . S
O50 C43 1.247 . S
O50 Zn47 2.028 . S
O51 C43 1.258 . S
O51 Zn45 2.035 . S
O52 Zn45 2.028 . S
O52 C55 1.247 . S
O53 Zn47 2.035 . S
O53 C55 1.258 . S
C54 O48 1.247 . S
C54 O49 1.258 . S
C55 O52 1.247 . S
C55 O53 1.258 . S
C56 O58 1.247 . S
C56 O60 1.258 . S
C57 O64 1.247 . S
C57 O65 1.258 . S
O58 C56 1.247 . S
O58 Zn59 2.028 . S
Zn59 O58 2.028 . S
Zn59 O63 2.035 . S
Zn59 O65 2.035 . S
Zn59 O66 2.028 . S
O60 C56 1.258 . S
O60 Zn61 2.035 . S
Zn61 O60 2.035 . S
Zn61 O62 2.028 . S
Zn61 O64 2.028 . S
Zn61 O67 2.035 . S
O62 Zn61 2.028 . S
O62 C68 1.247 . S
O63 Zn59 2.035 . S
O63 C68 1.258 . S
O64 C57 1.247 . S
O64 Zn61 2.028 . S
O65 C57 1.258 . S
O65 Zn59 2.035 . S
O66 Zn59 2.028 . S
O66 C69 1.247 . S
O67 Zn61 2.035 . S
O67 C69 1.258 . S
C68 O62 1.247 . S
C68 O63 1.258 . S
C69 O66 1.247 . S
C69 O67 1.258 . S
C70 O72 1.247 . S
C70 O74 1.258 . S
C71 O78 1.247 . S
C71 O79 1.258 . S
O72 C70 1.247 . S
O72 Zn73 2.028 . S
Zn73 O72 2.028 . S
Zn73 O77 2.035 . S
Zn73 O79 2.035 . S
Zn73 O80 2.028 . S
O74 C70 1.258 . S
O74 Zn75 2.035 . S
Zn75 O74 2.035 . S
Zn75 O76 2.028 . S
Zn75 O78 2.028 . S
Zn75 O81 2.035 . S
O76 Zn75 2.028 . S
O76 C82 1.247 . S
O77 Zn73 2.035 . S
O77 C82 1.258 . S
O78 C71 1.247 . S
O78 Zn75 2.028 . S
O79 C71 1.258 . S
O79 Zn73 2.035 . S
O80 Zn73 2.028 . S
O80 C83 1.247 . S
O81 Zn75 2.035 . S
O81 C83 1.258 . S
C82 O76 1.247 . S
C82 O77 1.258 . S
C83 O80 1.247 . S
C83 O81 1.258 . S
C84 O86 1.247 . S
C84 O88 1.258 . S
C85 O92 1.247 . S
C85 O93 1.258 . S
O86 C84 1.247 . S
O86 Zn87 2.028 . S
Zn87 O86 2.028 . S
Zn87 O91 2.035 . S
Zn87 O93 2.035 . S
Zn87 O94 2.028 . S
O88 C84 1.258 . S
O88 Zn89 2.035 . S
Zn89 O88 2.035 . S
Zn89 O90 2.028 . S
Zn89 O92 2.028 . S
Zn89 O95 2.035 . S
O90 Zn89 2.028 . S
O90 C96 1.247 . S
O91 Zn87 2.035 . S
O91 C96 1.258 . S
O92 C85 1.247 . S
O92 Zn89 2.028 . S
O93 C85 1.258 . S
O93 Zn87 2.035 . S
O94 Zn87 2.028 . S
O94 C97 1.247 . S
O95 Zn89 2.035 . S
O95 C97 1.258 . S
C96 O90 1.247 . S
C96 O91 1.258 . S
C97 O94 1.247 . S
C97 O95 1.258 . S
C98 O100 1.247 . S
C98 O102 1.258 . S
C99 O106 1.247 . S
C99 O107 1.258 . S
O100 C98 1.247 . S
O100 Zn101 2.028 . S
Zn101 O100 2.028 . S
Zn101 O105 2.035 . S
Zn101 O107 2.035 . S
Zn101 O108 2.028 . S
O102 C98 1.258 . S
O102 Zn103 2.035 . S
Zn103 O102 2.035 . S
Zn103 O104 2.028 . S
Zn103 O106 2.028 . S
Zn103 O109 2.035 . S
O104 Zn103 2.028 . S
O104 C110 1.247 . S
O105 Zn101 2.035 . S
O105 C110 1.258 . S
O106 C99 1.247 . S
O106 Zn103 2.028 . S
O107 C99 1.258 . S
O107 Zn101 2.035 . S
O108 Zn101 2.028 . S
O108 C111 1.247 . S
O109 Zn103 2.035 . S
O109 C111 1.258 . S
C110 O104 1.247 . S
C110 O105 1.258 . S
C111 O108 1.247 . S
C111 O109 1.258 . S
C112 O114 1.247 . S
C112 O116 1.258 . S
C113 O120 1.247 . S
C113 O121 1.258 . S
O114 C112 1.247 . S
O114 Zn115 2.028 . S
Zn115 O114 2.028 . S
Zn115 O119 2.035 . S
Zn115 O121 2.035 . S
Zn115 O122 2.028 . S
O116 C112 1.258 . S
O116 Zn117 2.035 . S
Zn117 O116 2.035 . S
Zn117 O118 2.028 . S
Zn117 O120 2.028 . S
Zn117 O123 2.035 . S
O118 Zn117 2.028 . S
O118 C124 1.247 . S
O119 Zn115 2.035 . S
O119 C124 1.258 . S
O120 C113 1.247 . S
O120 Zn117 2.028 . S
O121 C113 1.258 . S
O121 Zn115 2.035 . S
O122 Zn115 2.028 . S
O122 C125 1.247 . S
O123 Zn117 2.035 . S
O123 C125 1.258 . S
C124 O118 1.247 . S
C124 O119 1.258 . S
C125 O122 1.247 . S
C125 O123 1.258 . S
C126 O128 1.247 . S
C126 O130 1.258 . S
C127 O134 1.247 . S
C127 O135 1.258 . S
O128 C126 1.247 . S
O128 Zn129 2.028 . S
Zn129 O128 2.028 . S
Zn129 O133 2.035 . S
Zn129 O135 2.035 . S
Zn129 O136 2.028 . S
O130 C126 1.258 . S
O130 Zn131 2.035 . S
Zn131 O130 2.035 . S
Zn131 O132 2.028 . S
Zn131 O134 2.028 . S
Zn131 O137 2.035 . S
O132 Zn131 2.028 . S
O132 C138 1.247 . S
O133 Zn129 2.035 . S
O133 C138 1.258 . S
O134 C127 1.247 . S
O134 Zn131 2.028 . S
O135 C127 1.258 . S
O135 Zn129 2.035 . S
O136 Zn129 2.028 . S
O136 C139 1.247 . S
O137 Zn131 2.035 . S
O137 C139 1.258 . S
C138 O132 1.247 . S
C138 O133 1.258 . S
C139 O136 1.247 . S
C139 O137 1.258 . S
C140 O142 1.247 . S
C140 O144 1.258 . S
C141 O148 1.247 . S
C141 O149 1.258 . S
O142 C140 1.247 . S
O142 Zn143 2.028 . S
Zn143 O142 2.028 . S
Zn143 O147 2.035 . S
Zn143 O149 2.035 . S
Zn143 O150 2.028 . S
O144 C140 1.258 . S
O144 Zn145 2.035 . S
Zn145 O144 2.035 . S
Zn145 O146 2.028 . S
Zn145 O148 2.028 . S
Zn145 O151 2.035 . S
O146 Zn145 2.028 . S
O146 C152 1.247 . S
O147 Zn143 2.035 . S
O147 C152 1.258 . S
O148 C141 1.247 . S
O148 Zn145 2.028 . S
O149 C141 1.258 . S
O149 Zn143 2.035 . S
O150 Zn143 2.028 . S
O150 C153 1.247 . S
O151 Zn145 2.035 . S
O151 C153 1.258 . S
C152 O146 1.247 . S
C152 O147 1.258 . S
C153 O150 1.247 . S
C153 O151 1.258 . S
C154 O156 1.247 . S
C154 O158 1.258 . S
C155 O162 1.247 . S
C155 O163 1.258 . S
O156 C154 1.247 . S
O156 Zn157 2.028 . S
Zn157 O156 2.028 . S
Zn157 O161 2.035 . S
Zn157 O163 2.035 . S
Zn157 O164 2.028 . S
O158 C154 1.258 . S
O158 Zn159 2.035 . S
Zn159 O158 2.035 . S
Zn159 O160 2.028 . S
Zn159 O162 2.028 . S
Zn159 O165 2.035 . S
O160 Zn159 2.028 . S
O160 C166 1.247 . S
O161 Zn157 2.035 . S
O161 C166 1.258 . S
O162 C155 1.247 . S
O162 Zn159 2.028 . S
O163 C155 1.258 . S
O163 Zn157 2.035 . S
O164 Zn157 2.028 . S
O164 C167 1.247 . S
O165 Zn159 2.035 . S
O165 C167 1.258 . S
C166 O160 1.247 . S
C166 O161 1.258 . S
C167 O164 1.247 . S
C167 O165 1.258 . S
C168 O170 1.247 . S
C168 O172 1.258 . S
C169 O176 1.247 . S
C169 O177 1.258 . S
O170 C168 1.247 . S
O170 Zn171 2.028 . S
Zn171 O170 2.028 . S
Zn171 O175 2.035 . S
Zn171 O177 2.035 . S
Zn171 O178 2.028 . S
O172 C168 1.258 . S
O172 Zn173 2.035 . S
Zn173 O172 2.035 . S
Zn173 O174 2.028 . S
Zn173 O176 2.028 . S
Zn173 O179 2.035 . S
O174 Zn173 2.028 . S
O174 C180 1.247 . S
O175 Zn171 2.035 . S
O175 C180 1.258 . S
O176 C169 1.247 . S
O176 Zn173 2.028 . S
O177 C169 1.258 . S
O177 Zn171 2.035 . S
O178 Zn171 2.028 . S
O178 C181 1.247 . S
O179 Zn173 2.035 . S
O179 C181 1.258 . S
C180 O174 1.247 . S
C180 O175 1.258 . S
C181 O178 1.247 . S
C181 O179 1.258 . S
C182 O184 1.247 . S
C182 O186 1.258 . S
C183 O190 1.247 . S
C183 O191 1.258 . S
O184 C182 1.247 . S
O184 Zn185 2.028 . S
Zn185 O184 2.028 . S
Zn185 O189 2.035 . S
Zn185 O191 2.035 . S
Zn185 O192 2.028 . S
O186 C182 1.258 . S
O186 Zn187 2.035 . S
Zn187 O186 2.035 . S
Zn187 O188 2.028 . S
Zn187 O190 2.028 . S
Zn187 O193 2.035 . S
O188 Zn187 2.028 . S
O188 C194 1.247 . S
O189 Zn185 2.035 . S
O189 C194 1.258 . S
O190 C183 1.247 . S
O190 Zn187 2.028 . S
O191 C183 1.258 . S
O191 Zn185 2.035 . S
O192 Zn185 2.028 . S
O192 C195 1.247 . S
O193 Zn187 2.035 . S
O193 C195 1.258 . S
C194 O188 1.247 . S
C194 O189 1.258 . S
C195 O192 1.247 . S
C195 O193 1.258 . S
C196 O198 1.247 . S
C196 O200 1.258 . S
C197 O204 1.247 . S
C197 O205 1.258 . S
O198 C196 1.247 . S
O198 Zn199 2.028 . S
Zn199 O198 2.028 . S
Zn199 O203 2.035 . S
Zn199 O205 2.035 . S
Zn199 O206 2.028 . S
O200 C196 1.258 . S
O200 Zn201 2.035 . S
Zn201 O200 2.035 . S
Zn201 O202 2.028 . S
Zn201 O204 2.028 . S
Zn201 O207 2.035 . S
O202 Zn201 2.028 . S
O202 C208 1.247 . S
O203 Zn199 2.035 . S
O203 C208 1.258 . S
O204 C197 1.247 . S
O204 Zn201 2.028 . S
O205 C197 1.258 . S
O205 Zn199 2.035 . S
O206 Zn199 2.028 . S
O206 C209 1.247 . S
O207 Zn201 2.035 . S
O207 C209 1.258 . S
C208 O202 1.247 . S
C208 O203 1.258 . S
C209 O206 1.247 . S
C209 O207 1.258 . S
C210 O212 1.247 . S
C210 O214 1.258 . S
C211 O218 1.247 . S
C211 O219 1.258 . S
O212 C210 1.247 . S
O212 Zn213 2.028 . S
Zn213 O212 2.028 . S
Zn213 O217 2.035 . S
Zn213 O219 2.035 . S
Zn213 O220 2.028 . S
O214 C210 1.258 . S
O214 Zn215 2.035 . S
Zn215 O214 2.035 . S
Zn215 O216 2.028 . S
Zn215 O218 2.028 . S
Zn215 O221 2.035 . S
O216 Zn215 2.028 . S
O216 C222 1.247 . S
O217 Zn213 2.035 . S
O217 C222 1.258 . S
O218 C211 1.247 . S
O218 Zn215 2.028 . S
O219 C211 1.258 . S
O219 Zn213 2.035 . S
O220 Zn213 2.028 . S
O220 C223 1.247 . S
O221 Zn215 2.035 . S
O221 C223 1.258 . S
C222 O216 1.247 . S
C222 O217 1.258 . S
C223 O220 1.247 . S
C223 O221 1.258 . S
C224 O226 1.247 . S
C224 O228 1.258 . S
C225 O232 1.247 . S
C225 O233 1.258 . S
O226 C224 1.247 . S
O226 Zn227 2.028 . S
Zn227 O226 2.028 . S
Zn227 O231 2.035 . S
Zn227 O233 2.035 . S
Zn227 O234 2.028 . S
O228 C224 1.258 . S
O228 Zn229 2.035 . S
Zn229 O228 2.035 . S
Zn229 O230 2.028 . S
Zn229 O232 2.028 . S
Zn229 O235 2.035 . S
O230 Zn229 2.028 . S
O230 C236 1.247 . S
O231 Zn227 2.035 . S
O231 C236 1.258 . S
O232 C225 1.247 . S
O232 Zn229 2.028 . S
O233 C225 1.258 . S
O233 Zn227 2.035 . S
O234 Zn227 2.028 . S
O234 C237 1.247 . S
O235 Zn229 2.035 . S
O235 C237 1.258 . S
C236 O230 1.247 . S
C236 O231 1.258 . S
C237 O234 1.247 . S
C237 O235 1.258 . S
C238 O240 1.247 . S
C238 O242 1.258 . S
C239 O246 1.247 . S
C239 O247 1.258 . S
O240 C238 1.247 . S
O240 Zn241 2.028 . S
Zn241 O240 2.028 . S
Zn241 O245 2.035 . S
Zn241 O247 2.035 . S
Zn241 O248 2.028 . S
O242 C238 1.258 . S
O242 Zn243 2.035 . S
Zn243 O242 2.035 . S
Zn243 O244 2.028 . S
Zn243 O246 2.028 . S
Zn243 O249 2.035 . S
O244 Zn243 2.028 . S
O244 C250 1.247 . S
O245 Zn241 2.035 . S
O245 C250 1.258 . S
O246 C239 1.247 . S
O246 Zn243 2.028 . S
O247 C239 1.258 . S
O247 Zn241 2.035 . S
O248 Zn241 2.028 . S
O248 C251 1.247 . S
O249 Zn243 2.035 . S
O249 C251 1.258 . S
C250 O244 1.247 . S
C250 O245 1.258 . S
C251 O248 1.247 . S
C251 O249 1.258 . S
C252 O254 1.247 . S
C252 O256 1.258 . S
C253 O260 1.247 . S
C253 O261 1.258 . S
O254 C252 1.247 . S
O254 Zn255 2.028 . S
Zn255 O254 2.028 . S
Zn255 O259 2.035 . S
Zn255 O261 2.035 . S
Zn255 O262 2.028 . S
O256 C252 1.258 . S
O256 Zn257 2.035 . S
Zn257 O256 2.035 . S
Zn257 O258 2.028 . S
Zn257 O260 2.028 . S
Zn257 O263 2.035 . S
O258 Zn257 2.028 . S
O258 C264 1.247 . S
O259 Zn255 2.035 . S
O259 C264 1.258 . S
O260 C253 1.247 . S
O260 Zn257 2.028 . S
O261 C253 1.258 . S
O261 Zn255 2.035 . S
O262 Zn255 2.028 . S
O262 C265 1.247 . S
O263 Zn257 2.035 . S
O263 C265 1.258 . S
C264 O258 1.247 . S
C264 O259 1.258 . S
C265 O262 1.247 . S
C265 O263 1.258 . S
C266 O268 1.247 . S
C266 O270 1.258 . S
C267 O274 1.247 . S
C267 O275 1.258 . S
O268 C266 1.247 . S
O268 Zn269 2.028 . S
Zn269 O268 2.028 . S
Zn269 O273 2.035 . S
Zn269 O275 2.035 . S
Zn269 O276 2.028 . S
O270 C266 1.258 . S
O270 Zn271 2.035 . S
Zn271 O270 2.035 . S
Zn271 O272 2.028 . S
Zn271 O274 2.028 . S
Zn271 O277 2.035 . S
O272 Zn271 2.028 . S
O272 C278 1.247 . S
O273 Zn269 2.035 . S
O273 C278 1.258 . S
O274 C267 1.247 . S
O274 Zn271 2.028 . S
O275 C267 1.258 . S
O275 Zn269 2.035 . S
O276 Zn269 2.028 . S
O276 C279 1.247 . S
O277 Zn271 2.035 . S
O277 C279 1.258 . S
C278 O272 1.247 . S
C278 O273 1.258 . S
C279 O276 1.247 . S
C279 O277 1.258 . S
C280 O282 1.247 . S
C280 O284 1.258 . S
C281 O288 1.247 . S
C281 O289 1.258 . S
O282 C280 1.247 . S
O282 Zn283 2.028 . S
Zn283 O282 2.028 . S
Zn283 O287 2.035 . S
Zn283 O289 2.035 . S
Zn283 O290 2.028 . S
O284 C280 1.258 . S
O284 Zn285 2.035 . S
Zn285 O284 2.035 . S
Zn285 O286 2.028 . S
Zn285 O288 2.028 . S
Zn285 O291 2.035 . S
O286 Zn285 2.028 . S
O286 C292 1.247 . S
O287 Zn283 2.035 . S
O287 C292 1.258 . S
O288 C281 1.247 . S
O288 Zn285 2.028 . S
O289 C281 1.258 . S
O289 Zn283 2.035 . S
O290 Zn283 2.028 . S
O290 C293 1.247 . S
O291 Zn285 2.035 . S
O291 C293 1.258 . S
C292 O286 1.247 . S
C292 O287 1.258 . S
C293 O290 1.247 . S
C293 O291 1.258 . S
C294 O296 1.247 . S
C294 O298 1.258 . S
C295 O302 1.247 . S
C295 O303 1.258 . S
O296 C294 1.247 . S
O296 Zn297 2.028 . S
Zn297 O296 2.028 . S
Zn297 O301 2.035 . S
Zn297 O303 2.035 . S
Zn297 O304 2.028 . S
O298 C294 1.258 . S
O298 Zn299 2.035 . S
Zn299 O298 2.035 . S
Zn299 O300 2.028 . S
Zn299 O302 2.028 . S
Zn299 O305 2.035 . S
O300 Zn299 2.028 . S
O300 C306 1.247 . S
O301 Zn297 2.035 . S
O301 C306 1.258 . S
O302 C295 1.247 . S
O302 Zn299 2.028 . S
O303 C295 1.258 . S
O303 Zn297 2.035 . S
O304 Zn297 2.028 . S
O304 C307 1.247 . S
O305 Zn299 2.035 . S
O305 C307 1.258 . S
C306 O300 1.247 . S
C306 O301 1.258 . S
C307 O304 1.247 . S
C307 O305 1.258 . S
C308 O310 1.247 . S
C308 O312 1.258 . S
C309 O316 1.247 . S
C309 O317 1.258 . S
O310 C308 1.247 . S
O310 Zn311 2.028 . S
Zn311 O310 2.028 . S
Zn311 O315 2.035 . S
Zn311 O317 2.035 . S
Zn311 O318 2.028 . S
O312 C308 1.258 . S
O312 Zn313 2.035 . S
Zn313 O312 2.035 . S
Zn313 O314 2.028 . S
Zn313 O316 2.028 . S
Zn313 O319 2.035 . S
O314 Zn313 2.028 . S
O314 C320 1.247 . S
O315 Zn311 2.035 . S
O315 C320 1.258 . S
O316 C309 1.247 . S
O316 Zn313 2.028 . S
O317 C309 1.258 . S
O317 Zn311 2.035 . S
O318 Zn311 2.028 . S
O318 C321 1.247 . S
O319 Zn313 2.035 . S
O319 C321 1.258 . S
C320 O314 1.247 . S
C320 O315 1.258 . S
C321 O318 1.247 . S
C321 O319 1.258 . S
C322 O324 1.247 . S
C322 O326 1.258 . S
C323 O330 1.247 . S
C323 O331 1.258 . S
O324 C322 1.247 . S
O324 Zn325 2.028 . S
Zn325 O324 2.028 . S
Zn325 O329 2.035 . S
Zn325 O331 2.035 . S
Zn325 O332 2.028 . S
O326 C322 1.258 . S
O326 Zn327 2.035 . S
Zn327 O326 2.035 . S
Zn327 O328 2.028 . S
Zn327 O330 2.028 . S
Zn327 O333 2.035 . S
O328 Zn327 2.028 . S
O328 C334 1.247 . S
O329 Zn325 2.035 . S
O329 C334 1.258 . S
O330 C323 1.247 . S
O330 Zn327 2.028 . S
O331 C323 1.258 . S
O331 Zn325 2.035 . S
O332 Zn325 2.028 . S
O332 C335 1.247 . S
O333 Zn327 2.035 . S
O333 C335 1.258 . S
C334 O328 1.247 . S
C334 O329 1.258 . S
C335 O332 1.247 . S
C335 O333 1.258 . S
C336 O338 1.247 . S
C336 O340 1.258 . S
C337 O344 1.247 . S
C337 O345 1.258 . S
O338 C336 1.247 . S
O338 Zn339 2.028 . S
Zn339 O338 2.028 . S
Zn339 O343 2.035 . S
Zn339 O345 2.035 . S
Zn339 O346 2.028 . S
O340 C336 1.258 . S
O340 Zn341 2.035 . S
Zn341 O340 2.035 . S
Zn341 O342 2.028 . S
Zn341 O344 2.028 . S
Zn341 O347 2.035 . S
O342 Zn341 2.028 . S
O342 C348 1.247 . S
O343 Zn339 2.035 . S
O343 C348 1.258 . S
O344 C337 1.247 . S
O344 Zn341 2.028 . S
O345 C337 1.258 . S
O345 Zn339 2.035 . S
O346 Zn339 2.028 . S
O346 C349 1.247 . S
O347 Zn341 2.035 . S
O347 C349 1.258 . S
C348 O342 1.247 . S
C348 O343 1.258 . S
C349 O346 1.247 . S
C349 O347 1.258 . S
C350 O352 1.247 . S
C350 O354 1.258 . S
C351 O358 1.247 . S
C351 O359 1.258 . S
O352 C350 1.247 . S
O352 Zn353 2.028 . S
Zn353 O352 2.028 . S
Zn353 O357 2.035 . S
Zn353 O359 2.035 . S
Zn353 O360 2.028 . S
O354 C350 1.258 . S
O354 Zn355 2.035 . S
Zn355 O354 2.035 . S
Zn355 O356 2.028 . S
Zn355 O358 2.028 . S
Zn355 O361 2.035 . S
O356 Zn355 2.028 . S
O356 C362 1.247 . S
O357 Zn353 2.035 . S
O357 C362 1.258 . S
O358 C351 1.247 . S
O358 Zn355 2.028 . S
O359 C351 1.258 . S
O359 Zn353 2.035 . S
O360 Zn353 2.028 . S
O360 C363 1.247 . S
O361 Zn355 2.035 . S
O361 C363 1.258 . S
C362 O356 1.247 . S
C362 O357 1.258 . S
C363 O360 1.247 . S
C363 O361 1.258 . S
C364 O366 1.247 . S
C364 O368 1.258 . S
C365 O372 1.247 . S
C365 O373 1.258 . S
O366 C364 1.247 . S
O366 Zn367 2.028 . S
Zn367 O366 2.028 . S
Zn367 O371 2.035 . S
Zn367 O373 2.035 . S
Zn367 O374 2.028 . S
O368 C364 1.258 . S
O368 Zn369 2.035 . S
Zn369 O368 2.035 . S
Zn369 O370 2.028 . S
Zn369 O372 2.028 . S
Zn369 O375 2.035 . S
O370 Zn369 2.028 . S
O370 C376 1.247 . S
O371 Zn367 2.035 . S
O371 C376 1.258 . S
O372 C365 1.247 . S
O372 Zn369 2.028 . S
O373 C365 1.258 . S
O373 Zn367 2.035 . S
O374 Zn367 2.028 . S
O374 C377 1.247 . S
O375 Zn369 2.035 . S
O375 C377 1.258 . S
C376 O370 1.247 . S
C376 O371 1.258 . S
C377 O374 1.247 . S
C377 O375 1.258 . S
C378 O380 1.247 . S
C378 O382 1.258 . S
C379 O386 1.247 . S
C379 O387 1.258 . S
O380 C378 1.247 . S
O380 Zn381 2.028 . S
Zn381 O380 2.028 . S
Zn381 O385 2.035 . S
Zn381 O387 2.035 . S
Zn381 O388 2.028 . S
O382 C378 1.258 . S
O382 Zn383 2.035 . S
Zn383 O382 2.035 . S
Zn383 O384 2.028 . S
Zn383 O386 2.028 . S
Zn383 O389 2.035 . S
O384 Zn383 2.028 . S
O384 C390 1.247 . S
O385 Zn381 2.035 . S
O385 C390 1.258 . S
O386 C379 1.247 . S
O386 Zn383 2.028 . S
O387 C379 1.258 . S
O387 Zn381 2.035 . S
O388 Zn381 2.028 . S
O388 C391 1.247 . S
O389 Zn383 2.035 . S
O389 C391 1.258 . S
C390 O384 1.247 . S
C390 O385 1.258 . S
C391 O388 1.247 . S
C391 O389 1.258 . S
C392 O394 1.247 . S
C392 O396 1.258 . S
C393 O400 1.247 . S
C393 O401 1.258 . S
O394 C392 1.247 . S
O394 Zn395 2.028 . S
Zn395 O394 2.028 . S
Zn395 O399 2.035 . S
Zn395 O401 2.035 . S
Zn395 O402 2.028 . S
O396 C392 1.258 . S
O396 Zn397 2.035 . S
Zn397 O396 2.035 . S
Zn397 O398 2.028 . S
Zn397 O400 2.028 . S
Zn397 O403 2.035 . S
O398 Zn397 2.028 . S
O398 C404 1.247 . S
O399 Zn395 2.035 . S
O399 C404 1.258 . S
O400 C393 1.247 . S
O400 Zn397 2.028 . S
O401 C393 1.258 . S
O401 Zn395 2.035 . S
O402 Zn395 2.028 . S
O402 C405 1.247 . S
O403 Zn397 2.035 . S
O403 C405 1.258 . S
C404 O398 1.247 . S
C404 O399 1.258 . S
C405 O402 1.247 . S
C405 O403 1.258 . S
C406 O408 1.247 . S
C406 O410 1.258 . S
C407 O414 1.247 . S
C407 O415 1.258 . S
O408 C406 1.247 . S
O408 Zn409 2.028 . S
Zn409 O408 2.028 . S
Zn409 O413 2.035 . S
Zn409 O415 2.035 . S
Zn409 O416 2.028 . S
O410 C406 1.258 . S
O410 Zn411 2.035 . S
Zn411 O410 2.035 . S
Zn411 O412 2.028 . S
Zn411 O414 2.028 . S
Zn411 O417 2.035 . S
O412 Zn411 2.028 . S
O412 C418 1.247 . S
O413 Zn409 2.035 . S
O413 C418 1.258 . S
O414 C407 1.247 . S
O414 Zn411 2.028 . S
O415 C407 1.258 . S
O415 Zn409 2.035 . S
O416 Zn409 2.028 . S
O416 C419 1.247 . S
O417 Zn411 2.035 . S
O417 C419 1.258 . S
C418 O412 1.247 . S
C418 O413 1.258 . S
C419 O416 1.247 . S
C419 O417 1.258 . S
C420 O422 1.247 . S
C420 O424 1.258 . S
C421 O428 1.247 . S
C421 O429 1.258 . S
O422 C420 1.247 . S
O422 Zn423 2.028 . S
Zn423 O422 2.028 . S
Zn423 O427 2.035 . S
Zn423 O429 2.035 . S
Zn423 O430 2.028 . S
O424 C420 1.258 . S
O424 Zn425 2.035 . S
Zn425 O424 2.035 . S
Zn425 O426 2.028 . S
Zn425 O428 2.028 . S
Zn425 O431 2.035 . S
O426 Zn425 2.028 . S
O426 C432 1.247 . S
O427 Zn423 2.035 . S
O427 C432 1.258 . S
O428 C421 1.247 . S
O428 Zn425 2.028 . S
O429 C421 1.258 . S
O429 Zn423 2.035 . S
O430 Zn423 2.028 . S
O430 C433 1.247 . S
O431 Zn425 2.035 . S
O431 C433 1.258 . S
C432 O426 1.247 . S
C432 O427 1.258 . S
C433 O430 1.247 . S
C433 O431 1.258 . S
C434 O436 1.247 . S
C434 O438 1.258 . S
C435 O442 1.247 . S
C435 O443 1.258 . S
O436 C434 1.247 . S
O436 Zn437 2.028 . S
Zn437 O436 2.028 . S
Zn437 O441 2.035 . S
Zn437 O443 2.035 . S
Zn437 O444 2.028 . S
O438 C434 1.258 . S
O438 Zn439 2.035 . S
Zn439 O438 2.035 . S
Zn439 O440 2.028 . S
Zn439 O442 2.028 . S
Zn439 O445 2.035 . S
O440 Zn439 2.028 . S
O440 C446 1.247 . S
O441 Zn437 2.035 . S
O441 C446 1.258 . S
O442 C435 1.247 . S
O442 Zn439 2.028 . S
O443 C435 1.258 . S
O443 Zn437 2.035 . S
O444 Zn437 2.028 . S
O444 C447 1.247 . S
O445 Zn439 2.035 . S
O445 C447 1.258 . S
C446 O440 1.247 . S
C446 O441 1.258 . S
C447 O444 1.247 . S
C447 O445 1.258 . S
H448 C454 0.930 . S
H449 C458 0.930 . S
H450 C463 0.929 . S
H451 C461 0.929 . S
H452 C456 0.929 . S
H453 C462 0.929 . S
C454 H448 0.930 . S
C454 C455 1.367 . S
C454 C462 1.378 . S
C455 C454 1.367 . S
C455 C463 1.433 . S
C456 H452 0.929 . S
C456 C458 1.378 . S
C456 C460 1.350 . S
C457 C460 1.463 . S
C457 C462 1.350 . S
C457 N465 1.427 . S
C458 H449 0.930 . S
C458 C456 1.378 . S
C458 C459 1.367 . S
C459 C458 1.367 . S
C459 C461 1.433 . S
C460 C456 1.350 . S
C460 C457 1.463 . S
C460 N464 1.427 . S
C461 H451 0.929 . S
C461 C459 1.433 . S
C461 N464 1.384 . S
C462 H453 0.929 . S
C462 C454 1.378 . S
C462 C457 1.350 . S
C463 H450 0.929 . S
C463 C455 1.433 . S
C463 N465 1.384 . S
N464 C460 1.427 . S
N464 C461 1.384 . S
N465 C457 1.427 . S
N465 C463 1.384 . S
H466 C472 0.930 . S
H467 C476 0.930 . S
H468 C481 0.929 . S
H469 C479 0.929 . S
H470 C474 0.929 . S
H471 C480 0.929 . S
C472 H466 0.930 . S
C472 C473 1.367 . S
C472 C480 1.378 1_455 S
C473 C472 1.367 . S
C473 C481 1.433 . S
C474 H470 0.929 . S
C474 C476 1.378 . S
C474 C478 1.350 . S
C475 C478 1.463 . S
C475 C480 1.350 . S
C475 N483 1.427 . S
C476 H467 0.930 . S
C476 C474 1.378 . S
C476 C477 1.367 . S
C477 C476 1.367 . S
C477 C479 1.433 . S
C478 C474 1.350 . S
C478 C475 1.463 . S
C478 N482 1.427 . S
C479 H469 0.929 . S
C479 C477 1.433 . S
C479 N482 1.384 . S
C480 H471 0.929 . S
C480 C472 1.378 1_655 S
C480 C475 1.350 . S
C481 H468 0.929 . S
C481 C473 1.433 . S
C481 N483 1.384 1_455 S
N482 C478 1.427 . S
N482 C479 1.384 . S
N483 C475 1.427 . S
N483 C481 1.384 1_655 S
H484 C490 0.930 . S
H485 C494 0.930 . S
H486 C499 0.929 . S
H487 C497 0.929 . S
H488 C492 0.929 . S
H489 C498 0.929 . S
C490 H484 0.930 . S
C490 C491 1.367 . S
C490 C498 1.378 . S
C491 C490 1.367 . S
C491 C499 1.433 . S
C492 H488 0.929 . S
C492 C494 1.378 . S
C492 C496 1.350 . S
C493 C496 1.463 . S
C493 C498 1.350 . S
C493 N501 1.427 . S
C494 H485 0.930 . S
C494 C492 1.378 . S
C494 C495 1.367 . S
C495 C494 1.367 . S
C495 C497 1.433 . S
C496 C492 1.350 . S
C496 C493 1.463 . S
C496 N500 1.427 . S
C497 H487 0.929 . S
C497 C495 1.433 . S
C497 N500 1.384 . S
C498 H489 0.929 . S
C498 C490 1.378 . S
C498 C493 1.350 . S
C499 H486 0.929 . S
C499 C491 1.433 . S
C499 N501 1.384 . S
N500 C496 1.427 . S
N500 C497 1.384 . S
N501 C493 1.427 . S
N501 C499 1.384 . S
H502 C508 0.930 . S
H503 C512 0.930 . S
H504 C517 0.929 . S
H505 C515 0.929 . S
H506 C510 0.929 . S
H507 C516 0.929 . S
C508 H502 0.930 . S
C508 C509 1.367 . S
C508 C516 1.378 . S
C509 C508 1.367 . S
C509 C517 1.433 . S
C510 H506 0.929 . S
C510 C512 1.378 . S
C510 C514 1.350 . S
C511 C514 1.463 . S
C511 C516 1.350 . S
C511 N519 1.427 . S
C512 H503 0.930 . S
C512 C510 1.378 . S
C512 C513 1.367 . S
C513 C512 1.367 . S
C513 C515 1.433 . S
C514 C510 1.350 . S
C514 C511 1.463 . S
C514 N518 1.427 . S
C515 H505 0.929 . S
C515 C513 1.433 . S
C515 N518 1.384 . S
C516 H507 0.929 . S
C516 C508 1.378 . S
C516 C511 1.350 . S
C517 H504 0.929 . S
C517 C509 1.433 . S
C517 N519 1.384 . S
N518 C514 1.427 . S
N518 C515 1.384 . S
N519 C511 1.427 . S
N519 C517 1.384 . S
H520 C526 0.930 . S
H521 C530 0.930 . S
H522 C535 0.929 . S
H523 C533 0.929 . S
H524 C528 0.929 . S
H525 C534 0.929 . S
C526 H520 0.930 . S
C526 C527 1.367 . S
C526 C534 1.378 . S
C527 C526 1.367 . S
C527 C535 1.433 . S
C528 H524 0.929 . S
C528 C530 1.378 . S
C528 C532 1.350 . S
C529 C532 1.463 . S
C529 C534 1.350 . S
C529 N537 1.427 . S
C530 H521 0.930 . S
C530 C528 1.378 . S
C530 C531 1.367 . S
C531 C530 1.367 . S
C531 C533 1.433 . S
C532 C528 1.350 . S
C532 C529 1.463 . S
C532 N536 1.427 . S
C533 H523 0.929 . S
C533 C531 1.433 . S
C533 N536 1.384 . S
C534 H525 0.929 . S
C534 C526 1.378 . S
C534 C529 1.350 . S
C535 H522 0.929 . S
C535 C527 1.433 . S
C535 N537 1.384 . S
N536 C532 1.427 . S
N536 C533 1.384 . S
N537 C529 1.427 . S
N537 C535 1.384 . S
H538 C544 0.930 . S
H539 C548 0.930 . S
H540 C553 0.929 . S
H541 C551 0.929 . S
H542 C546 0.929 . S
H543 C552 0.929 . S
C544 H538 0.930 . S
C544 C545 1.367 . S
C544 C552 1.378 . S
C545 C544 1.367 . S
C545 C553 1.433 . S
C546 H542 0.929 . S
C546 C548 1.378 . S
C546 C550 1.350 . S
C547 C550 1.463 . S
C547 C552 1.350 . S
C547 N555 1.427 . S
C548 H539 0.930 . S
C548 C546 1.378 . S
C548 C549 1.367 . S
C549 C548 1.367 . S
C549 C551 1.433 . S
C550 C546 1.350 . S
C550 C547 1.463 . S
C550 N554 1.427 . S
C551 H541 0.929 . S
C551 C549 1.433 . S
C551 N554 1.384 . S
C552 H543 0.929 . S
C552 C544 1.378 . S
C552 C547 1.350 . S
C553 H540 0.929 . S
C553 C545 1.433 . S
C553 N555 1.384 . S
N554 C550 1.427 . S
N554 C551 1.384 . S
N555 C547 1.427 . S
N555 C553 1.384 . S
H556 C562 0.930 . S
H557 C566 0.930 . S
H558 C571 0.929 . S
H559 C569 0.929 . S
H560 C564 0.929 . S
H561 C570 0.929 . S
C562 H556 0.930 . S
C562 C563 1.367 . S
C562 C570 1.378 . S
C563 C562 1.367 . S
C563 C571 1.433 . S
C564 H560 0.929 . S
C564 C566 1.378 . S
C564 C568 1.350 . S
C565 C568 1.463 . S
C565 C570 1.350 . S
C565 N573 1.427 . S
C566 H557 0.930 . S
C566 C564 1.378 . S
C566 C567 1.367 . S
C567 C566 1.367 . S
C567 C569 1.433 . S
C568 C564 1.350 . S
C568 C565 1.463 . S
C568 N572 1.427 . S
C569 H559 0.929 . S
C569 C567 1.433 . S
C569 N572 1.384 . S
C570 H561 0.929 . S
C570 C562 1.378 . S
C570 C565 1.350 . S
C571 H558 0.929 . S
C571 C563 1.433 . S
C571 N573 1.384 . S
N572 C568 1.427 . S
N572 C569 1.384 . S
N573 C565 1.427 . S
N573 C571 1.384 . S
H574 C580 0.930 . S
H575 C584 0.930 . S
H576 C589 0.929 . S
H577 C587 0.929 . S
H578 C582 0.929 . S
H579 C588 0.929 . S
C580 H574 0.930 . S
C580 C581 1.367 . S
C580 C588 1.378 1_455 S
C581 C580 1.367 . S
C581 C589 1.433 . S
C582 H578 0.929 . S
C582 C584 1.378 . S
C582 C586 1.350 . S
C583 C586 1.463 . S
C583 C588 1.350 . S
C583 N591 1.427 . S
C584 H575 0.930 . S
C584 C582 1.378 . S
C584 C585 1.367 . S
C585 C584 1.367 . S
C585 C587 1.433 . S
C586 C582 1.350 . S
C586 C583 1.463 . S
C586 N590 1.427 . S
C587 H577 0.929 . S
C587 C585 1.433 . S
C587 N590 1.384 . S
C588 H579 0.929 . S
C588 C580 1.378 1_655 S
C588 C583 1.350 . S
C589 H576 0.929 . S
C589 C581 1.433 . S
C589 N591 1.384 1_455 S
N590 C586 1.427 . S
N590 C587 1.384 . S
N591 C583 1.427 . S
N591 C589 1.384 1_655 S
H592 C598 0.930 . S
H593 C602 0.930 . S
H594 C607 0.929 . S
H595 C605 0.929 . S
H596 C600 0.929 . S
H597 C606 0.929 . S
C598 H592 0.930 . S
C598 C599 1.367 . S
C598 C606 1.378 . S
C599 C598 1.367 . S
C599 C607 1.433 . S
C600 H596 0.929 . S
C600 C602 1.378 . S
C600 C604 1.350 . S
C601 C604 1.463 . S
C601 C606 1.350 . S
C601 N609 1.427 . S
C602 H593 0.930 . S
C602 C600 1.378 . S
C602 C603 1.367 . S
C603 C602 1.367 . S
C603 C605 1.433 . S
C604 C600 1.350 . S
C604 C601 1.463 . S
C604 N608 1.427 . S
C605 H595 0.929 . S
C605 C603 1.433 . S
C605 N608 1.384 . S
C606 H597 0.929 . S
C606 C598 1.378 . S
C606 C601 1.350 . S
C607 H594 0.929 . S
C607 C599 1.433 . S
C607 N609 1.384 . S
N608 C604 1.427 . S
N608 C605 1.384 . S
N609 C601 1.427 . S
N609 C607 1.384 . S
H610 C616 0.930 . S
H611 C620 0.932 . S
H612 C625 0.929 . S
H613 C623 0.929 . S
H614 C618 0.929 . S
H615 C624 0.929 . S
C616 H610 0.930 . S
C616 C617 1.367 . S
C616 C624 1.378 . S
C617 C616 1.367 . S
C617 C625 1.433 . S
C618 H614 0.929 . S
C618 C620 1.352 1_455 S
C618 C622 1.350 . S
C619 C622 1.463 . S
C619 C624 1.350 . S
C619 N627 1.427 . S
C620 H611 0.932 . S
C620 C618 1.352 1_655 S
C620 C621 1.391 . S
C621 C620 1.391 . S
C621 C623 1.433 . S
C622 C618 1.350 . S
C622 C619 1.463 . S
C622 N626 1.427 . S
C623 H613 0.929 . S
C623 C621 1.433 . S
C623 N626 1.384 1_655 S
C624 H615 0.929 . S
C624 C616 1.378 . S
C624 C619 1.350 . S
C625 H612 0.929 . S
C625 C617 1.433 . S
C625 N627 1.384 . S
N626 C622 1.427 . S
N626 C623 1.384 1_455 S
N627 C619 1.427 . S
N627 C625 1.384 . S
H628 C634 0.930 . S
H629 C638 0.930 . S
H630 C643 0.929 . S
H631 C641 0.929 . S
H632 C636 0.929 . S
H633 C642 0.929 . S
C634 H628 0.930 . S
C634 C635 1.367 . S
C634 C642 1.378 . S
C635 C634 1.367 . S
C635 C643 1.433 . S
C636 H632 0.929 . S
C636 C638 1.378 . S
C636 C640 1.350 . S
C637 C640 1.463 . S
C637 C642 1.350 . S
C637 N645 1.427 . S
C638 H629 0.930 . S
C638 C636 1.378 . S
C638 C639 1.367 . S
C639 C638 1.367 . S
C639 C641 1.433 . S
C640 C636 1.350 . S
C640 C637 1.463 . S
C640 N644 1.427 . S
C641 H631 0.929 . S
C641 C639 1.433 . S
C641 N644 1.384 . S
C642 H633 0.929 . S
C642 C634 1.378 . S
C642 C637 1.350 . S
C643 H630 0.929 . S
C643 C635 1.433 . S
C643 N645 1.384 . S
N644 C640 1.427 . S
N644 C641 1.384 . S
N645 C637 1.427 . S
N645 C643 1.384 . S
H646 C652 0.930 . S
H647 C656 0.930 . S
H648 C661 0.929 . S
H649 C659 0.929 . S
H650 C654 0.929 . S
H651 C660 0.929 . S
C652 H646 0.930 . S
C652 C653 1.367 . S
C652 C660 1.378 . S
C653 C652 1.367 . S
C653 C661 1.433 . S
C654 H650 0.929 . S
C654 C656 1.378 . S
C654 C658 1.350 . S
C655 C658 1.463 . S
C655 C660 1.350 . S
C655 N663 1.427 . S
C656 H647 0.930 . S
C656 C654 1.378 . S
C656 C657 1.367 . S
C657 C656 1.367 . S
C657 C659 1.433 . S
C658 C654 1.350 . S
C658 C655 1.463 . S
C658 N662 1.427 . S
C659 H649 0.929 . S
C659 C657 1.433 . S
C659 N662 1.384 . S
C660 H651 0.929 . S
C660 C652 1.378 . S
C660 C655 1.350 . S
C661 H648 0.929 . S
C661 C653 1.433 . S
C661 N663 1.384 . S
N662 C658 1.427 . S
N662 C659 1.384 . S
N663 C655 1.427 . S
N663 C661 1.384 . S
H664 C670 0.930 . S
H665 C674 0.930 . S
H666 C679 0.929 . S
H667 C677 0.929 . S
H668 C672 0.929 . S
H669 C678 0.929 . S
C670 H664 0.930 . S
C670 C671 1.367 . S
C670 C678 1.378 . S
C671 C670 1.367 . S
C671 C679 1.433 . S
C672 H668 0.929 . S
C672 C674 1.378 . S
C672 C676 1.350 . S
C673 C676 1.463 . S
C673 C678 1.350 . S
C673 N681 1.427 . S
C674 H665 0.930 . S
C674 C672 1.378 . S
C674 C675 1.367 . S
C675 C674 1.367 . S
C675 C677 1.433 . S
C676 C672 1.350 . S
C676 C673 1.463 . S
C676 N680 1.427 . S
C677 H667 0.929 . S
C677 C675 1.433 . S
C677 N680 1.384 . S
C678 H669 0.929 . S
C678 C670 1.378 . S
C678 C673 1.350 . S
C679 H666 0.929 . S
C679 C671 1.433 . S
C679 N681 1.384 . S
N680 C676 1.427 . S
N680 C677 1.384 . S
N681 C673 1.427 . S
N681 C679 1.384 . S
H682 C688 0.930 . S
H683 C692 0.930 . S
H684 C697 0.929 . S
H685 C695 0.929 . S
H686 C690 0.929 . S
H687 C696 0.929 . S
C688 H682 0.930 . S
C688 C689 1.367 . S
C688 C696 1.378 . S
C689 C688 1.367 . S
C689 C697 1.433 . S
C690 H686 0.929 . S
C690 C692 1.378 . S
C690 C694 1.350 . S
C691 C694 1.463 . S
C691 C696 1.350 . S
C691 N699 1.427 . S
C692 H683 0.930 . S
C692 C690 1.378 . S
C692 C693 1.367 . S
C693 C692 1.367 . S
C693 C695 1.433 . S
C694 C690 1.350 . S
C694 C691 1.463 . S
C694 N698 1.427 . S
C695 H685 0.929 . S
C695 C693 1.433 . S
C695 N698 1.384 . S
C696 H687 0.929 . S
C696 C688 1.378 . S
C696 C691 1.350 . S
C697 H684 0.929 . S
C697 C689 1.433 . S
C697 N699 1.384 . S
N698 C694 1.427 . S
N698 C695 1.384 . S
N699 C691 1.427 . S
N699 C697 1.384 . S
H700 C706 0.930 . S
H701 C710 0.930 . S
H702 C715 0.929 . S
H703 C713 0.929 . S
H704 C708 0.929 . S
H705 C714 0.929 . S
C706 H700 0.930 . S
C706 C707 1.367 . S
C706 C714 1.378 . S
C707 C706 1.367 . S
C707 C715 1.433 . S
C708 H704 0.929 . S
C708 C710 1.378 . S
C708 C712 1.350 . S
C709 C712 1.463 . S
C709 C714 1.350 . S
C709 N717 1.427 . S
C710 H701 0.930 . S
C710 C708 1.378 . S
C710 C711 1.367 . S
C711 C710 1.367 . S
C711 C713 1.433 . S
C712 C708 1.350 . S
C712 C709 1.463 . S
C712 N716 1.427 . S
C713 H703 0.929 . S
C713 C711 1.433 . S
C713 N716 1.384 . S
C714 H705 0.929 . S
C714 C706 1.378 . S
C714 C709 1.350 . S
C715 H702 0.929 . S
C715 C707 1.433 . S
C715 N717 1.384 . S
N716 C712 1.427 . S
N716 C713 1.384 . S
N717 C709 1.427 . S
N717 C715 1.384 . S
H718 C724 0.930 . S
H719 C728 0.930 . S
H720 C733 0.929 . S
H721 C731 0.929 . S
H722 C726 0.929 . S
H723 C732 0.929 . S
C724 H718 0.930 . S
C724 C725 1.367 . S
C724 C732 1.378 . S
C725 C724 1.367 . S
C725 C733 1.433 . S
C726 H722 0.929 . S
C726 C728 1.378 1_455 S
C726 C730 1.350 . S
C727 C730 1.463 . S
C727 C732 1.350 . S
C727 N735 1.427 . S
C728 H719 0.930 . S
C728 C726 1.378 1_655 S
C728 C729 1.367 . S
C729 C728 1.367 . S
C729 C731 1.433 . S
C730 C726 1.350 . S
C730 C727 1.463 . S
C730 N734 1.427 . S
C731 H721 0.929 . S
C731 C729 1.433 . S
C731 N734 1.384 1_655 S
C732 H723 0.929 . S
C732 C724 1.378 . S
C732 C727 1.350 . S
C733 H720 0.929 . S
C733 C725 1.433 . S
C733 N735 1.384 . S
N734 C730 1.427 . S
N734 C731 1.384 1_455 S
N735 C727 1.427 . S
N735 C733 1.384 . S
H736 C742 0.930 . S
H737 C746 0.930 . S
H738 C751 0.929 . S
H739 C749 0.929 . S
H740 C744 0.929 . S
H741 C750 0.929 . S
C742 H736 0.930 . S
C742 C743 1.367 . S
C742 C750 1.378 . S
C743 C742 1.367 . S
C743 C751 1.433 . S
C744 H740 0.929 . S
C744 C746 1.378 . S
C744 C748 1.350 . S
C745 C748 1.463 . S
C745 C750 1.350 . S
C745 N753 1.427 . S
C746 H737 0.930 . S
C746 C744 1.378 . S
C746 C747 1.367 . S
C747 C746 1.367 . S
C747 C749 1.433 . S
C748 C744 1.350 . S
C748 C745 1.463 . S
C748 N752 1.427 . S
C749 H739 0.929 . S
C749 C747 1.433 . S
C749 N752 1.384 . S
C750 H741 0.929 . S
C750 C742 1.378 . S
C750 C745 1.350 . S
C751 H738 0.929 . S
C751 C743 1.433 . S
C751 N753 1.384 . S
N752 C748 1.427 . S
N752 C749 1.384 . S
N753 C745 1.427 . S
N753 C751 1.384 . S
H754 C760 0.930 . S
H755 C764 0.930 . S
H756 C769 0.929 . S
H757 C767 0.929 . S
H758 C762 0.929 . S
H759 C768 0.929 . S
C760 H754 0.930 . S
C760 C761 1.367 . S
C760 C768 1.378 . S
C761 C760 1.367 . S
C761 C769 1.433 . S
C762 H758 0.929 . S
C762 C764 1.378 . S
C762 C766 1.350 . S
C763 C766 1.463 . S
C763 C768 1.350 . S
C763 N771 1.427 . S
C764 H755 0.930 . S
C764 C762 1.378 . S
C764 C765 1.367 . S
C765 C764 1.367 . S
C765 C767 1.433 . S
C766 C762 1.350 . S
C766 C763 1.463 . S
C766 N770 1.427 . S
C767 H757 0.929 . S
C767 C765 1.433 . S
C767 N770 1.384 . S
C768 H759 0.929 . S
C768 C760 1.378 . S
C768 C763 1.350 . S
C769 H756 0.929 . S
C769 C761 1.433 . S
C769 N771 1.384 . S
N770 C766 1.427 . S
N770 C767 1.384 . S
N771 C763 1.427 . S
N771 C769 1.384 . S
H772 C778 0.930 . S
H773 C782 0.930 . S
H774 C787 0.929 . S
H775 C785 0.929 . S
H776 C780 0.929 . S
H777 C786 0.929 . S
C778 H772 0.930 . S
C778 C779 1.367 . S
C778 C786 1.378 . S
C779 C778 1.367 . S
C779 C787 1.433 . S
C780 H776 0.929 . S
C780 C782 1.378 . S
C780 C784 1.350 . S
C781 C784 1.463 . S
C781 C786 1.350 . S
C781 N789 1.427 . S
C782 H773 0.930 . S
C782 C780 1.378 . S
C782 C783 1.367 . S
C783 C782 1.367 . S
C783 C785 1.433 . S
C784 C780 1.350 . S
C784 C781 1.463 . S
C784 N788 1.427 . S
C785 H775 0.929 . S
C785 C783 1.433 . S
C785 N788 1.384 . S
C786 H777 0.929 . S
C786 C778 1.378 . S
C786 C781 1.350 . S
C787 H774 0.929 . S
C787 C779 1.433 . S
C787 N789 1.384 . S
N788 C784 1.427 . S
N788 C785 1.384 . S
N789 C781 1.427 . S
N789 C787 1.384 . S
H790 C796 0.930 . S
H791 C800 0.930 . S
H792 C805 0.929 . S
H793 C803 0.929 . S
H794 C798 0.929 . S
H795 C804 0.929 . S
C796 H790 0.930 . S
C796 C797 1.367 . S
C796 C804 1.378 . S
C797 C796 1.367 . S
C797 C805 1.433 . S
C798 H794 0.929 . S
C798 C800 1.378 1_455 S
C798 C802 1.350 . S
C799 C802 1.463 . S
C799 C804 1.350 . S
C799 N807 1.427 . S
C800 H791 0.930 . S
C800 C798 1.378 1_655 S
C800 C801 1.367 . S
C801 C800 1.367 . S
C801 C803 1.433 . S
C802 C798 1.350 . S
C802 C799 1.463 . S
C802 N806 1.427 . S
C803 H793 0.929 . S
C803 C801 1.433 . S
C803 N806 1.384 1_655 S
C804 H795 0.929 . S
C804 C796 1.378 . S
C804 C799 1.350 . S
C805 H792 0.929 . S
C805 C797 1.433 . S
C805 N807 1.384 . S
N806 C802 1.427 . S
N806 C803 1.384 1_455 S
N807 C799 1.427 . S
N807 C805 1.384 . S
H808 C814 0.930 . S
H809 C818 0.930 . S
H810 C823 0.929 . S
H811 C821 0.929 . S
H812 C816 0.929 . S
H813 C822 0.929 . S
C814 H808 0.930 . S
C814 C815 1.367 . S
C814 C822 1.378 . S
C815 C814 1.367 . S
C815 C823 1.433 . S
C816 H812 0.929 . S
C816 C818 1.378 . S
C816 C820 1.350 . S
C817 C820 1.463 . S
C817 C822 1.350 . S
C817 N825 1.427 . S
C818 H809 0.930 . S
C818 C816 1.378 . S
C818 C819 1.367 . S
C819 C818 1.367 . S
C819 C821 1.433 . S
C820 C816 1.350 . S
C820 C817 1.463 . S
C820 N824 1.427 . S
C821 H811 0.929 . S
C821 C819 1.433 . S
C821 N824 1.384 . S
C822 H813 0.929 . S
C822 C814 1.378 . S
C822 C817 1.350 . S
C823 H810 0.929 . S
C823 C815 1.433 . S
C823 N825 1.384 . S
N824 C820 1.427 . S
N824 C821 1.384 . S
N825 C817 1.427 . S
N825 C823 1.384 . S
H826 C832 0.930 . S
H827 C836 0.930 . S
H828 C841 0.929 . S
H829 C839 0.929 . S
H830 C834 0.929 . S
H831 C840 0.929 . S
C832 H826 0.930 . S
C832 C833 1.367 . S
C832 C840 1.378 . S
C833 C832 1.367 . S
C833 C841 1.433 . S
C834 H830 0.929 . S
C834 C836 1.378 1_455 S
C834 C838 1.350 . S
C835 C838 1.463 . S
C835 C840 1.350 . S
C835 N843 1.427 . S
C836 H827 0.930 . S
C836 C834 1.378 1_655 S
C836 C837 1.367 . S
C837 C836 1.367 . S
C837 C839 1.433 . S
C838 C834 1.350 . S
C838 C835 1.463 . S
C838 N842 1.427 . S
C839 H829 0.929 . S
C839 C837 1.433 . S
C839 N842 1.384 1_655 S
C840 H831 0.929 . S
C840 C832 1.378 . S
C840 C835 1.350 . S
C841 H828 0.929 . S
C841 C833 1.433 . S
C841 N843 1.384 . S
N842 C838 1.427 . S
N842 C839 1.384 1_455 S
N843 C835 1.427 . S
N843 C841 1.384 . S
H844 C850 0.930 . S
H845 C854 0.930 . S
H846 C859 0.929 . S
H847 C857 0.929 . S
H848 C852 0.929 . S
H849 C858 0.929 . S
C850 H844 0.930 . S
C850 C851 1.367 . S
C850 C858 1.378 . S
C851 C850 1.367 . S
C851 C859 1.433 . S
C852 H848 0.929 . S
C852 C854 1.378 . S
C852 C856 1.350 . S
C853 C856 1.463 . S
C853 C858 1.350 . S
C853 N861 1.427 . S
C854 H845 0.930 . S
C854 C852 1.378 . S
C854 C855 1.367 . S
C855 C854 1.367 . S
C855 C857 1.433 . S
C856 C852 1.350 . S
C856 C853 1.463 . S
C856 N860 1.427 . S
C857 H847 0.929 . S
C857 C855 1.433 . S
C857 N860 1.384 . S
C858 H849 0.929 . S
C858 C850 1.378 . S
C858 C853 1.350 . S
C859 H846 0.929 . S
C859 C851 1.433 . S
C859 N861 1.384 . S
N860 C856 1.427 . S
N860 C857 1.384 . S
N861 C853 1.427 . S
N861 C859 1.384 . S
H862 C868 0.930 . S
H863 C872 0.930 . S
H864 C877 0.929 . S
H865 C875 0.929 . S
H866 C870 0.929 . S
H867 C876 0.929 . S
C868 H862 0.930 . S
C868 C869 1.367 . S
C868 C876 1.378 . S
C869 C868 1.367 . S
C869 C877 1.433 . S
C870 H866 0.929 . S
C870 C872 1.378 . S
C870 C874 1.350 . S
C871 C874 1.463 . S
C871 C876 1.350 . S
C871 N879 1.427 . S
C872 H863 0.930 . S
C872 C870 1.378 . S
C872 C873 1.367 . S
C873 C872 1.367 . S
C873 C875 1.433 . S
C874 C870 1.350 . S
C874 C871 1.463 . S
C874 N878 1.427 . S
C875 H865 0.929 . S
C875 C873 1.433 . S
C875 N878 1.384 . S
C876 H867 0.929 . S
C876 C868 1.378 . S
C876 C871 1.350 . S
C877 H864 0.929 . S
C877 C869 1.433 . S
C877 N879 1.384 . S
N878 C874 1.427 . S
N878 C875 1.384 . S
N879 C871 1.427 . S
N879 C877 1.384 . S
H880 C886 0.930 . S
H881 C890 0.930 . S
H882 C895 0.929 . S
H883 C893 0.929 . S
H884 C888 0.929 . S
H885 C894 0.929 . S
C886 H880 0.930 . S
C886 C887 1.367 . S
C886 C894 1.378 . S
C887 C886 1.367 . S
C887 C895 1.433 . S
C888 H884 0.929 . S
C888 C890 1.378 . S
C888 C892 1.350 . S
C889 C892 1.463 . S
C889 C894 1.350 . S
C889 N897 1.427 . S
C890 H881 0.930 . S
C890 C888 1.378 . S
C890 C891 1.367 . S
C891 C890 1.367 . S
C891 C893 1.433 . S
C892 C888 1.350 . S
C892 C889 1.463 . S
C892 N896 1.427 . S
C893 H883 0.929 . S
C893 C891 1.433 . S
C893 N896 1.384 . S
C894 H885 0.929 . S
C894 C886 1.378 . S
C894 C889 1.350 . S
C895 H882 0.929 . S
C895 C887 1.433 . S
C895 N897 1.384 . S
N896 C892 1.427 . S
N896 C893 1.384 . S
N897 C889 1.427 . S
N897 C895 1.384 . S
H898 C904 0.930 . S
H899 C908 0.930 . S
H900 C913 0.929 . S
H901 C911 0.929 . S
H902 C906 0.929 . S
H903 C912 0.929 . S
C904 H898 0.930 . S
C904 C905 1.367 . S
C904 C912 1.378 . S
C905 C904 1.367 . S
C905 C913 1.433 . S
C906 H902 0.929 . S
C906 C908 1.378 . S
C906 C910 1.350 . S
C907 C910 1.463 . S
C907 C912 1.350 . S
C907 N915 1.427 . S
C908 H899 0.930 . S
C908 C906 1.378 . S
C908 C909 1.367 . S
C909 C908 1.367 . S
C909 C911 1.433 . S
C910 C906 1.350 . S
C910 C907 1.463 . S
C910 N914 1.427 . S
C911 H901 0.929 . S
C911 C909 1.433 . S
C911 N914 1.384 . S
C912 H903 0.929 . S
C912 C904 1.378 . S
C912 C907 1.350 . S
C913 H900 0.929 . S
C913 C905 1.433 . S
C913 N915 1.384 . S
N914 C910 1.427 . S
N914 C911 1.384 . S
N915 C907 1.427 . S
N915 C913 1.384 . S
H916 C922 0.930 . S
H917 C926 0.930 . S
H918 C931 0.929 . S
H919 C929 0.929 . S
H920 C924 0.929 . S
H921 C930 0.929 . S
C922 H916 0.930 . S
C922 C923 1.367 . S
C922 C930 1.378 . S
C923 C922 1.367 . S
C923 C931 1.433 . S
C924 H920 0.929 . S
C924 C926 1.378 . S
C924 C928 1.350 . S
C925 C928 1.463 . S
C925 C930 1.350 . S
C925 N933 1.427 . S
C926 H917 0.930 . S
C926 C924 1.378 . S
C926 C927 1.367 . S
C927 C926 1.367 . S
C927 C929 1.433 . S
C928 C924 1.350 . S
C928 C925 1.463 . S
C928 N932 1.427 . S
C929 H919 0.929 . S
C929 C927 1.433 . S
C929 N932 1.384 . S
C930 H921 0.929 . S
C930 C922 1.378 . S
C930 C925 1.350 . S
C931 H918 0.929 . S
C931 C923 1.433 . S
C931 N933 1.384 . S
N932 C928 1.427 . S
N932 C929 1.384 . S
N933 C925 1.427 . S
N933 C931 1.384 . S
H934 C940 0.930 . S
H935 C944 0.930 . S
H936 C949 0.929 . S
H937 C947 0.929 . S
H938 C942 0.929 . S
H939 C948 0.929 . S
C940 H934 0.930 . S
C940 C941 1.367 . S
C940 C948 1.378 1_455 S
C941 C940 1.367 . S
C941 C949 1.433 . S
C942 H938 0.929 . S
C942 C944 1.378 . S
C942 C946 1.350 . S
C943 C946 1.463 . S
C943 C948 1.350 . S
C943 N951 1.427 . S
C944 H935 0.930 . S
C944 C942 1.378 . S
C944 C945 1.367 . S
C945 C944 1.367 . S
C945 C947 1.433 . S
C946 C942 1.350 . S
C946 C943 1.463 . S
C946 N950 1.427 . S
C947 H937 0.929 . S
C947 C945 1.433 . S
C947 N950 1.384 . S
C948 H939 0.929 . S
C948 C940 1.378 1_655 S
C948 C943 1.350 . S
C949 H936 0.929 . S
C949 C941 1.433 . S
C949 N951 1.384 1_455 S
N950 C946 1.427 . S
N950 C947 1.384 . S
N951 C943 1.427 . S
N951 C949 1.384 1_655 S
H952 C958 0.930 . S
H953 C962 0.930 . S
H954 C967 0.929 . S
H955 C965 0.929 . S
H956 C960 0.929 . S
H957 C966 0.929 . S
C958 H952 0.930 . S
C958 C959 1.367 . S
C958 C966 1.378 . S
C959 C958 1.367 . S
C959 C967 1.433 . S
C960 H956 0.929 . S
C960 C962 1.378 . S
C960 C964 1.350 . S
C961 C964 1.463 . S
C961 C966 1.350 . S
C961 N969 1.427 . S
C962 H953 0.930 . S
C962 C960 1.378 . S
C962 C963 1.367 . S
C963 C962 1.367 . S
C963 C965 1.433 . S
C964 C960 1.350 . S
C964 C961 1.463 . S
C964 N968 1.427 . S
C965 H955 0.929 . S
C965 C963 1.433 . S
C965 N968 1.384 . S
C966 H957 0.929 . S
C966 C958 1.378 . S
C966 C961 1.350 . S
C967 H954 0.929 . S
C967 C959 1.433 . S
C967 N969 1.384 . S
N968 C964 1.427 . S
N968 C965 1.384 . S
N969 C961 1.427 . S
N969 C967 1.384 . S
H970 C976 0.930 . S
H971 C980 0.930 . S
H972 C985 0.929 . S
H973 C983 0.929 . S
H974 C978 0.929 . S
H975 C984 0.929 . S
C976 H970 0.930 . S
C976 C977 1.367 . S
C976 C984 1.378 1_455 S
C977 C976 1.367 . S
C977 C985 1.433 . S
C978 H974 0.929 . S
C978 C980 1.378 . S
C978 C982 1.350 . S
C979 C982 1.463 . S
C979 C984 1.350 . S
C979 N987 1.427 . S
C980 H971 0.930 . S
C980 C978 1.378 . S
C980 C981 1.367 . S
C981 C980 1.367 . S
C981 C983 1.433 . S
C982 C978 1.350 . S
C982 C979 1.463 . S
C982 N986 1.427 . S
C983 H973 0.929 . S
C983 C981 1.433 . S
C983 N986 1.384 . S
C984 H975 0.929 . S
C984 C976 1.378 1_655 S
C984 C979 1.350 . S
C985 H972 0.929 . S
C985 C977 1.433 . S
C985 N987 1.384 1_455 S
N986 C982 1.427 . S
N986 C983 1.384 . S
N987 C979 1.427 . S
N987 C985 1.384 1_655 S
H988 C994 0.930 . S
H989 C998 0.930 . S
H990 C1003 0.929 . S
H991 C1001 0.929 . S
H992 C996 0.929 . S
H993 C1002 0.929 . S
C994 H988 0.930 . S
C994 C995 1.367 . S
C994 C1002 1.378 . S
C995 C994 1.367 . S
C995 C1003 1.433 . S
C996 H992 0.929 . S
C996 C998 1.378 . S
C996 C1000 1.350 . S
C997 C1000 1.463 . S
C997 C1002 1.350 . S
C997 N1005 1.427 . S
C998 H989 0.930 . S
C998 C996 1.378 . S
C998 C999 1.367 . S
C999 C998 1.367 . S
C999 C1001 1.433 . S
C1000 C996 1.350 . S
C1000 C997 1.463 . S
C1000 N1004 1.427 . S
C1001 H991 0.929 . S
C1001 C999 1.433 . S
C1001 N1004 1.384 . S
C1002 H993 0.929 . S
C1002 C994 1.378 . S
C1002 C997 1.350 . S
C1003 H990 0.929 . S
C1003 C995 1.433 . S
C1003 N1005 1.384 . S
N1004 C1000 1.427 . S
N1004 C1001 1.384 . S
N1005 C997 1.427 . S
N1005 C1003 1.384 . S
H1006 C1012 0.930 . S
H1007 C1016 0.930 . S
H1008 C1021 0.929 . S
H1009 C1019 0.929 . S
H1010 C1014 0.929 . S
H1011 C1020 0.929 . S
C1012 H1006 0.930 . S
C1012 C1013 1.367 . S
C1012 C1020 1.378 . S
C1013 C1012 1.367 . S
C1013 C1021 1.433 . S
C1014 H1010 0.929 . S
C1014 C1016 1.378 . S
C1014 C1018 1.350 . S
C1015 C1018 1.463 . S
C1015 C1020 1.350 . S
C1015 N1023 1.427 . S
C1016 H1007 0.930 . S
C1016 C1014 1.378 . S
C1016 C1017 1.367 . S
C1017 C1016 1.367 . S
C1017 C1019 1.433 . S
C1018 C1014 1.350 . S
C1018 C1015 1.463 . S
C1018 N1022 1.427 . S
C1019 H1009 0.929 . S
C1019 C1017 1.433 . S
C1019 N1022 1.384 . S
C1020 H1011 0.929 . S
C1020 C1012 1.378 . S
C1020 C1015 1.350 . S
C1021 H1008 0.929 . S
C1021 C1013 1.433 . S
C1021 N1023 1.384 . S
N1022 C1018 1.427 . S
N1022 C1019 1.384 . S
N1023 C1015 1.427 . S
N1023 C1021 1.384 . S
H1024 C1030 0.930 . S
H1025 C1034 0.930 . S
H1026 C1039 0.929 . S
H1027 C1037 0.929 . S
H1028 C1032 0.929 . S
H1029 C1038 0.929 . S
C1030 H1024 0.930 . S
C1030 C1031 1.367 . S
C1030 C1038 1.378 . S
C1031 C1030 1.367 . S
C1031 C1039 1.433 . S
C1032 H1028 0.929 . S
C1032 C1034 1.378 . S
C1032 C1036 1.350 . S
C1033 C1036 1.463 . S
C1033 C1038 1.350 . S
C1033 N1041 1.427 . S
C1034 H1025 0.930 . S
C1034 C1032 1.378 . S
C1034 C1035 1.367 . S
C1035 C1034 1.367 . S
C1035 C1037 1.433 . S
C1036 C1032 1.350 . S
C1036 C1033 1.463 . S
C1036 N1040 1.427 . S
C1037 H1027 0.929 . S
C1037 C1035 1.433 . S
C1037 N1040 1.384 . S
C1038 H1029 0.929 . S
C1038 C1030 1.378 . S
C1038 C1033 1.350 . S
C1039 H1026 0.929 . S
C1039 C1031 1.433 . S
C1039 N1041 1.384 . S
N1040 C1036 1.427 . S
N1040 C1037 1.384 . S
N1041 C1033 1.427 . S
N1041 C1039 1.384 . S
H1042 C1048 0.930 . S
H1043 C1052 0.930 . S
H1044 C1057 0.929 . S
H1045 C1055 0.929 . S
H1046 C1050 0.929 1_455 S
H1047 C1056 0.929 1_655 S
C1048 H1042 0.930 . S
C1048 C1049 1.367 1_545 S
C1048 C1056 1.378 . S
C1049 C1048 1.367 1_565 S
C1049 C1057 1.433 . S
C1050 H1046 0.929 1_655 S
C1050 C1052 1.378 . S
C1050 C1054 1.350 1_565 S
C1051 C1054 1.463 1_465 S
C1051 C1056 1.350 1_565 S
C1051 N1059 1.427 . S
C1052 H1043 0.930 . S
C1052 C1050 1.378 . S
C1052 C1053 1.367 1_565 S
C1053 C1052 1.367 1_545 S
C1053 C1055 1.433 . S
C1054 C1050 1.350 1_545 S
C1054 C1051 1.463 1_645 S
C1054 N1058 1.427 . S
C1055 H1045 0.929 . S
C1055 C1053 1.433 . S
C1055 N1058 1.384 . S
C1056 H1047 0.929 1_455 S
C1056 C1048 1.378 . S
C1056 C1051 1.350 1_545 S
C1057 H1044 0.929 . S
C1057 C1049 1.433 . S
C1057 N1059 1.384 . S
N1058 C1054 1.427 . S
N1058 C1055 1.384 . S
N1059 C1051 1.427 . S
N1059 C1057 1.384 . S
H1060 C1066 0.930 . S
H1061 C1070 0.930 . S
H1062 C1075 0.929 . S
H1063 C1073 0.929 . S
H1064 C1068 0.929 . S
H1065 C1074 0.929 . S
C1066 H1060 0.930 . S
C1066 C1067 1.367 . S
C1066 C1074 1.378 . S
C1067 C1066 1.367 . S
C1067 C1075 1.433 . S
C1068 H1064 0.929 . S
C1068 C1070 1.378 . S
C1068 C1072 1.350 . S
C1069 C1072 1.463 . S
C1069 C1074 1.350 . S
C1069 N1077 1.427 . S
C1070 H1061 0.930 . S
C1070 C1068 1.378 . S
C1070 C1071 1.367 . S
C1071 C1070 1.367 . S
C1071 C1073 1.433 . S
C1072 C1068 1.350 . S
C1072 C1069 1.463 . S
C1072 N1076 1.427 . S
C1073 H1063 0.929 . S
C1073 C1071 1.433 . S
C1073 N1076 1.384 . S
C1074 H1065 0.929 . S
C1074 C1066 1.378 . S
C1074 C1069 1.350 . S
C1075 H1062 0.929 . S
C1075 C1067 1.433 . S
C1075 N1077 1.384 . S
N1076 C1072 1.427 . S
N1076 C1073 1.384 . S
N1077 C1069 1.427 . S
N1077 C1075 1.384 . S
H1078 C1084 0.930 . S
H1079 C1088 0.930 . S
H1080 C1093 0.929 . S
H1081 C1091 0.929 . S
H1082 C1086 0.929 . S
H1083 C1092 0.929 . S
C1084 H1078 0.930 . S
C1084 C1085 1.367 1_565 S
C1084 C1092 1.378 . S
C1085 C1084 1.367 1_545 S
C1085 C1093 1.433 . S
C1086 H1082 0.929 . S
C1086 C1088 1.378 . S
C1086 C1090 1.350 1_545 S
C1087 C1090 1.463 1_544 S
C1087 C1092 1.350 1_545 S
C1087 N1095 1.427 . S
C1088 H1079 0.930 . S
C1088 C1086 1.378 . S
C1088 C1089 1.367 1_545 S
C1089 C1088 1.367 1_565 S
C1089 C1091 1.433 . S
C1090 C1086 1.350 1_565 S
C1090 C1087 1.463 1_566 S
C1090 N1094 1.427 . S
C1091 H1081 0.929 . S
C1091 C1089 1.433 . S
C1091 N1094 1.384 . S
C1092 H1083 0.929 . S
C1092 C1084 1.378 . S
C1092 C1087 1.350 1_565 S
C1093 H1080 0.929 . S
C1093 C1085 1.433 . S
C1093 N1095 1.384 . S
N1094 C1090 1.427 . S
N1094 C1091 1.384 . S
N1095 C1087 1.427 . S
N1095 C1093 1.384 . S
H1096 C1102 0.930 . S
H1097 C1106 0.930 . S
H1098 C1111 0.929 . S
H1099 C1109 0.929 . S
H1100 C1104 0.929 . S
H1101 C1110 0.929 . S
C1102 H1096 0.930 . S
C1102 C1103 1.367 . S
C1102 C1110 1.378 . S
C1103 C1102 1.367 . S
C1103 C1111 1.433 . S
C1104 H1100 0.929 . S
C1104 C1106 1.378 . S
C1104 C1108 1.350 . S
C1105 C1108 1.463 . S
C1105 C1110 1.350 . S
C1105 N1113 1.427 . S
C1106 H1097 0.930 . S
C1106 C1104 1.378 . S
C1106 C1107 1.367 . S
C1107 C1106 1.367 . S
C1107 C1109 1.433 . S
C1108 C1104 1.350 . S
C1108 C1105 1.463 . S
C1108 N1112 1.427 . S
C1109 H1099 0.929 . S
C1109 C1107 1.433 . S
C1109 N1112 1.384 . S
C1110 H1101 0.929 . S
C1110 C1102 1.378 . S
C1110 C1105 1.350 . S
C1111 H1098 0.929 . S
C1111 C1103 1.433 . S
C1111 N1113 1.384 . S
N1112 C1108 1.427 . S
N1112 C1109 1.384 . S
N1113 C1105 1.427 . S
N1113 C1111 1.384 . S
H1114 C1120 0.930 . S
H1115 C1124 0.930 . S
H1116 C1129 0.929 . S
H1117 C1127 0.929 . S
H1118 C1122 0.929 . S
H1119 C1128 0.929 . S
C1120 H1114 0.930 . S
C1120 C1121 1.367 1_545 S
C1120 C1128 1.378 . S
C1121 C1120 1.367 1_565 S
C1121 C1129 1.433 . S
C1122 H1118 0.929 . S
C1122 C1124 1.378 . S
C1122 C1126 1.350 1_565 S
C1123 C1126 1.463 1_565 S
C1123 C1128 1.350 1_565 S
C1123 N1131 1.427 . S
C1124 H1115 0.930 . S
C1124 C1122 1.378 . S
C1124 C1125 1.367 1_565 S
C1125 C1124 1.367 1_545 S
C1125 C1127 1.433 . S
C1126 C1122 1.350 1_545 S
C1126 C1123 1.463 1_545 S
C1126 N1130 1.427 . S
C1127 H1117 0.929 . S
C1127 C1125 1.433 . S
C1127 N1130 1.384 . S
C1128 H1119 0.929 . S
C1128 C1120 1.378 . S
C1128 C1123 1.350 1_545 S
C1129 H1116 0.929 . S
C1129 C1121 1.433 . S
C1129 N1131 1.384 . S
N1130 C1126 1.427 . S
N1130 C1127 1.384 . S
N1131 C1123 1.427 . S
N1131 C1129 1.384 . S
H1132 C1138 0.930 . S
H1133 C1142 0.930 . S
H1134 C1147 0.929 . S
H1135 C1145 0.929 . S
H1136 C1140 0.929 . S
H1137 C1146 0.929 . S
C1138 H1132 0.930 . S
C1138 C1139 1.367 . S
C1138 C1146 1.378 . S
C1139 C1138 1.367 . S
C1139 C1147 1.433 . S
C1140 H1136 0.929 . S
C1140 C1142 1.378 . S
C1140 C1144 1.350 . S
C1141 C1144 1.463 . S
C1141 C1146 1.350 . S
C1141 N1149 1.427 . S
C1142 H1133 0.930 . S
C1142 C1140 1.378 . S
C1142 C1143 1.367 . S
C1143 C1142 1.367 . S
C1143 C1145 1.433 . S
C1144 C1140 1.350 . S
C1144 C1141 1.463 . S
C1144 N1148 1.427 . S
C1145 H1135 0.929 . S
C1145 C1143 1.433 . S
C1145 N1148 1.384 . S
C1146 H1137 0.929 . S
C1146 C1138 1.378 . S
C1146 C1141 1.350 . S
C1147 H1134 0.929 . S
C1147 C1139 1.433 . S
C1147 N1149 1.384 . S
N1148 C1144 1.427 . S
N1148 C1145 1.384 . S
N1149 C1141 1.427 . S
N1149 C1147 1.384 . S
H1150 C1156 0.930 . S
H1151 C1160 0.930 . S
H1152 C1165 0.929 . S
H1153 C1163 0.929 . S
H1154 C1158 0.929 . S
H1155 C1164 0.929 . S
C1156 H1150 0.930 . S
C1156 C1157 1.367 1_565 S
C1156 C1164 1.378 . S
C1157 C1156 1.367 1_545 S
C1157 C1165 1.433 . S
C1158 H1154 0.929 . S
C1158 C1160 1.378 . S
C1158 C1162 1.350 1_545 S
C1159 C1162 1.463 1_446 S
C1159 C1164 1.350 1_545 S
C1159 N1167 1.427 . S
C1160 H1151 0.930 . S
C1160 C1158 1.378 . S
C1160 C1161 1.367 1_545 S
C1161 C1160 1.367 1_565 S
C1161 C1163 1.433 . S
C1162 C1158 1.350 1_565 S
C1162 C1159 1.463 1_664 S
C1162 N1166 1.427 . S
C1163 H1153 0.929 . S
C1163 C1161 1.433 . S
C1163 N1166 1.384 . S
C1164 H1155 0.929 . S
C1164 C1156 1.378 . S
C1164 C1159 1.350 1_565 S
C1165 H1152 0.929 . S
C1165 C1157 1.433 . S
C1165 N1167 1.384 . S
N1166 C1162 1.427 . S
N1166 C1163 1.384 . S
N1167 C1159 1.427 . S
N1167 C1165 1.384 . S
H1168 C1174 0.930 . S
H1169 C1178 0.930 . S
H1170 C1183 0.929 . S
H1171 C1181 0.929 . S
H1172 C1176 0.929 . S
H1173 C1182 0.929 . S
C1174 H1168 0.930 . S
C1174 C1175 1.367 . S
C1174 C1182 1.378 . S
C1175 C1174 1.367 . S
C1175 C1183 1.433 . S
C1176 H1172 0.929 . S
C1176 C1178 1.378 . S
C1176 C1180 1.350 . S
C1177 C1180 1.463 . S
C1177 C1182 1.350 . S
C1177 N1185 1.427 . S
C1178 H1169 0.930 . S
C1178 C1176 1.378 . S
C1178 C1179 1.367 . S
C1179 C1178 1.367 . S
C1179 C1181 1.433 . S
C1180 C1176 1.350 . S
C1180 C1177 1.463 . S
C1180 N1184 1.427 . S
C1181 H1171 0.929 . S
C1181 C1179 1.433 . S
C1181 N1184 1.384 . S
C1182 H1173 0.929 . S
C1182 C1174 1.378 . S
C1182 C1177 1.350 . S
C1183 H1170 0.929 . S
C1183 C1175 1.433 . S
C1183 N1185 1.384 . S
N1184 C1180 1.427 . S
N1184 C1181 1.384 . S
N1185 C1177 1.427 . S
N1185 C1183 1.384 . S
H1186 C1192 0.930 . S
H1187 C1196 0.930 . S
H1188 C1201 0.929 . S
H1189 C1199 0.929 . S
H1190 C1194 0.929 . S
H1191 C1200 0.929 . S
C1192 H1186 0.930 . S
C1192 C1193 1.367 . S
C1192 C1200 1.378 . S
C1193 C1192 1.367 . S
C1193 C1201 1.433 . S
C1194 H1190 0.929 . S
C1194 C1196 1.378 . S
C1194 C1198 1.350 . S
C1195 C1198 1.463 . S
C1195 C1200 1.350 . S
C1195 N1203 1.427 . S
C1196 H1187 0.930 . S
C1196 C1194 1.378 . S
C1196 C1197 1.367 . S
C1197 C1196 1.367 . S
C1197 C1199 1.433 . S
C1198 C1194 1.350 . S
C1198 C1195 1.463 . S
C1198 N1202 1.427 . S
C1199 H1189 0.929 . S
C1199 C1197 1.433 . S
C1199 N1202 1.384 . S
C1200 H1191 0.929 . S
C1200 C1192 1.378 . S
C1200 C1195 1.350 . S
C1201 H1188 0.929 . S
C1201 C1193 1.433 . S
C1201 N1203 1.384 . S
N1202 C1198 1.427 . S
N1202 C1199 1.384 . S
N1203 C1195 1.427 . S
N1203 C1201 1.384 . S
H1204 C1210 0.930 . S
H1205 C1214 0.930 . S
H1206 C1219 0.929 . S
H1207 C1217 0.929 . S
H1208 C1212 0.929 . S
H1209 C1218 0.929 . S
C1210 H1204 0.930 . S
C1210 C1211 1.367 . S
C1210 C1218 1.378 . S
C1211 C1210 1.367 . S
C1211 C1219 1.433 . S
C1212 H1208 0.929 . S
C1212 C1214 1.378 . S
C1212 C1216 1.350 . S
C1213 C1216 1.463 . S
C1213 C1218 1.350 . S
C1213 N1221 1.427 . S
C1214 H1205 0.930 . S
C1214 C1212 1.378 . S
C1214 C1215 1.367 . S
C1215 C1214 1.367 . S
C1215 C1217 1.433 . S
C1216 C1212 1.350 . S
C1216 C1213 1.463 . S
C1216 N1220 1.427 . S
C1217 H1207 0.929 . S
C1217 C1215 1.433 . S
C1217 N1220 1.384 . S
C1218 H1209 0.929 . S
C1218 C1210 1.378 . S
C1218 C1213 1.350 . S
C1219 H1206 0.929 . S
C1219 C1211 1.433 . S
C1219 N1221 1.384 . S
N1220 C1216 1.427 . S
N1220 C1217 1.384 . S
N1221 C1213 1.427 . S
N1221 C1219 1.384 . S
H1222 C1228 0.930 . S
H1223 C1232 0.930 . S
H1224 C1237 0.929 . S
H1225 C1235 0.929 . S
H1226 C1230 0.929 . S
H1227 C1236 0.929 . S
C1228 H1222 0.930 . S
C1228 C1229 1.367 . S
C1228 C1236 1.378 . S
C1229 C1228 1.367 . S
C1229 C1237 1.433 . S
C1230 H1226 0.929 . S
C1230 C1232 1.378 . S
C1230 C1234 1.350 . S
C1231 C1234 1.463 . S
C1231 C1236 1.350 . S
C1231 N1239 1.427 . S
C1232 H1223 0.930 . S
C1232 C1230 1.378 . S
C1232 C1233 1.367 . S
C1233 C1232 1.367 . S
C1233 C1235 1.433 . S
C1234 C1230 1.350 . S
C1234 C1231 1.463 . S
C1234 N1238 1.427 . S
C1235 H1225 0.929 . S
C1235 C1233 1.433 . S
C1235 N1238 1.384 . S
C1236 H1227 0.929 . S
C1236 C1228 1.378 . S
C1236 C1231 1.350 . S
C1237 H1224 0.929 . S
C1237 C1229 1.433 . S
C1237 N1239 1.384 . S
N1238 C1234 1.427 . S
N1238 C1235 1.384 . S
N1239 C1231 1.427 . S
N1239 C1237 1.384 . S
H1240 C1246 0.930 . S
H1241 C1250 0.930 . S
H1242 C1255 0.929 . S
H1243 C1253 0.929 . S
H1244 C1248 0.929 . S
H1245 C1254 0.929 . S
C1246 H1240 0.930 . S
C1246 C1247 1.367 . S
C1246 C1254 1.378 . S
C1247 C1246 1.367 . S
C1247 C1255 1.433 . S
C1248 H1244 0.929 . S
C1248 C1250 1.378 . S
C1248 C1252 1.350 . S
C1249 C1252 1.463 1_554 S
C1249 C1254 1.350 . S
C1249 N1257 1.427 . S
C1250 H1241 0.930 . S
C1250 C1248 1.378 . S
C1250 C1251 1.367 . S
C1251 C1250 1.367 . S
C1251 C1253 1.433 . S
C1252 C1248 1.350 . S
C1252 C1249 1.463 1_556 S
C1252 N1256 1.427 . S
C1253 H1243 0.929 . S
C1253 C1251 1.433 . S
C1253 N1256 1.384 . S
C1254 H1245 0.929 . S
C1254 C1246 1.378 . S
C1254 C1249 1.350 . S
C1255 H1242 0.929 . S
C1255 C1247 1.433 . S
C1255 N1257 1.384 . S
N1256 C1252 1.427 . S
N1256 C1253 1.384 . S
N1257 C1249 1.427 . S
N1257 C1255 1.384 . S
H1258 C1264 0.930 . S
H1259 C1268 0.930 . S
H1260 C1273 0.929 . S
H1261 C1271 0.929 . S
H1262 C1266 0.929 . S
H1263 C1272 0.929 . S
C1264 H1258 0.930 . S
C1264 C1265 1.367 . S
C1264 C1272 1.378 . S
C1265 C1264 1.367 . S
C1265 C1273 1.433 . S
C1266 H1262 0.929 . S
C1266 C1268 1.378 . S
C1266 C1270 1.350 . S
C1267 C1270 1.463 1_455 S
C1267 C1272 1.350 . S
C1267 N1275 1.427 . S
C1268 H1259 0.930 . S
C1268 C1266 1.378 . S
C1268 C1269 1.367 . S
C1269 C1268 1.367 . S
C1269 C1271 1.433 . S
C1270 C1266 1.350 . S
C1270 C1267 1.463 1_655 S
C1270 N1274 1.427 . S
C1271 H1261 0.929 . S
C1271 C1269 1.433 . S
C1271 N1274 1.384 . S
C1272 H1263 0.929 . S
C1272 C1264 1.378 . S
C1272 C1267 1.350 . S
C1273 H1260 0.929 . S
C1273 C1265 1.433 . S
C1273 N1275 1.384 . S
N1274 C1270 1.427 . S
N1274 C1271 1.384 . S
N1275 C1267 1.427 . S
N1275 C1273 1.384 . S
H1276 C1282 0.930 . S
H1277 C1286 0.930 . S
H1278 C1291 0.929 . S
H1279 C1289 0.929 . S
H1280 C1284 0.929 . S
H1281 C1290 0.929 . S
C1282 H1276 0.930 . S
C1282 C1283 1.367 . S
C1282 C1290 1.378 . S
C1283 C1282 1.367 . S
C1283 C1291 1.433 . S
C1284 H1280 0.929 . S
C1284 C1286 1.378 . S
C1284 C1288 1.350 . S
C1285 C1288 1.463 1_454 S
C1285 C1290 1.350 . S
C1285 N1293 1.427 . S
C1286 H1277 0.930 . S
C1286 C1284 1.378 . S
C1286 C1287 1.367 . S
C1287 C1286 1.367 . S
C1287 C1289 1.433 . S
C1288 C1284 1.350 . S
C1288 C1285 1.463 1_656 S
C1288 N1292 1.427 . S
C1289 H1279 0.929 . S
C1289 C1287 1.433 . S
C1289 N1292 1.384 . S
C1290 H1281 0.929 . S
C1290 C1282 1.378 . S
C1290 C1285 1.350 . S
C1291 H1278 0.929 . S
C1291 C1283 1.433 . S
C1291 N1293 1.384 . S
N1292 C1288 1.427 . S
N1292 C1289 1.384 . S
N1293 C1285 1.427 . S
N1293 C1291 1.384 . S
H1294 C1300 0.930 . S
H1295 C1304 0.930 . S
H1296 C1309 0.929 . S
H1297 C1307 0.929 . S
H1298 C1302 0.929 . S
H1299 C1308 0.929 . S
C1300 H1294 0.930 . S
C1300 C1301 1.367 . S
C1300 C1308 1.378 . S
C1301 C1300 1.367 . S
C1301 C1309 1.433 . S
C1302 H1298 0.929 . S
C1302 C1304 1.378 . S
C1302 C1306 1.350 . S
C1303 C1306 1.463 . S
C1303 C1308 1.350 . S
C1303 N1311 1.427 . S
C1304 H1295 0.930 . S
C1304 C1302 1.378 . S
C1304 C1305 1.367 . S
C1305 C1304 1.367 . S
C1305 C1307 1.433 . S
C1306 C1302 1.350 . S
C1306 C1303 1.463 . S
C1306 N1310 1.427 . S
C1307 H1297 0.929 . S
C1307 C1305 1.433 . S
C1307 N1310 1.384 . S
C1308 H1299 0.929 . S
C1308 C1300 1.378 . S
C1308 C1303 1.350 . S
C1309 H1296 0.929 . S
C1309 C1301 1.433 . S
C1309 N1311 1.384 . S
N1310 C1306 1.427 . S
N1310 C1307 1.384 . S
N1311 C1303 1.427 . S
N1311 C1309 1.384 . S
H1312 C1318 0.930 . S
H1313 C1322 0.930 . S
H1314 C1327 0.929 . S
H1315 C1325 0.929 . S
H1316 C1320 0.929 1_545 S
H1317 C1326 0.929 1_565 S
C1318 H1312 0.930 . S
C1318 C1319 1.367 . S
C1318 C1326 1.378 . S
C1319 C1318 1.367 . S
C1319 C1327 1.433 . S
C1320 H1316 0.929 1_565 S
C1320 C1322 1.378 . S
C1320 C1324 1.350 . S
C1321 C1324 1.463 1_545 S
C1321 C1326 1.350 . S
C1321 N1329 1.427 . S
C1322 H1313 0.930 . S
C1322 C1320 1.378 . S
C1322 C1323 1.367 . S
C1323 C1322 1.367 . S
C1323 C1325 1.433 . S
C1324 C1320 1.350 . S
C1324 C1321 1.463 1_565 S
C1324 N1328 1.427 . S
C1325 H1315 0.929 . S
C1325 C1323 1.433 . S
C1325 N1328 1.384 . S
C1326 H1317 0.929 1_545 S
C1326 C1318 1.378 . S
C1326 C1321 1.350 . S
C1327 H1314 0.929 . S
C1327 C1319 1.433 . S
C1327 N1329 1.384 . S
N1328 C1324 1.427 . S
N1328 C1325 1.384 . S
N1329 C1321 1.427 . S
N1329 C1327 1.384 . S
H1330 C1336 0.930 . S
H1331 C1340 0.930 . S
H1332 C1345 0.929 . S
H1333 C1343 0.929 . S
H1334 C1338 0.929 . S
H1335 C1344 0.929 . S
C1336 H1330 0.930 . S
C1336 C1337 1.367 . S
C1336 C1344 1.378 . S
C1337 C1336 1.367 . S
C1337 C1345 1.433 . S
C1338 H1334 0.929 . S
C1338 C1340 1.378 . S
C1338 C1342 1.350 . S
C1339 C1342 1.463 . S
C1339 C1344 1.350 . S
C1339 N1347 1.427 . S
C1340 H1331 0.930 . S
C1340 C1338 1.378 . S
C1340 C1341 1.367 . S
C1341 C1340 1.367 . S
C1341 C1343 1.433 . S
C1342 C1338 1.350 . S
C1342 C1339 1.463 . S
C1342 N1346 1.427 . S
C1343 H1333 0.929 . S
C1343 C1341 1.433 . S
C1343 N1346 1.384 . S
C1344 H1335 0.929 . S
C1344 C1336 1.378 . S
C1344 C1339 1.350 . S
C1345 H1332 0.929 . S
C1345 C1337 1.433 . S
C1345 N1347 1.384 . S
N1346 C1342 1.427 . S
N1346 C1343 1.384 . S
N1347 C1339 1.427 . S
N1347 C1345 1.384 . S
H1348 C1354 0.930 . S
H1349 C1358 0.930 . S
H1350 C1363 0.929 . S
H1351 C1361 0.929 . S
H1352 C1356 0.929 . S
H1353 C1362 0.929 . S
C1354 H1348 0.930 . S
C1354 C1355 1.367 . S
C1354 C1362 1.378 . S
C1355 C1354 1.367 . S
C1355 C1363 1.433 . S
C1356 H1352 0.929 . S
C1356 C1358 1.378 . S
C1356 C1360 1.350 . S
C1357 C1360 1.463 1_545 S
C1357 C1362 1.350 . S
C1357 N1365 1.427 . S
C1358 H1349 0.930 . S
C1358 C1356 1.378 . S
C1358 C1359 1.367 . S
C1359 C1358 1.367 . S
C1359 C1361 1.433 . S
C1360 C1356 1.350 . S
C1360 C1357 1.463 1_565 S
C1360 N1364 1.427 . S
C1361 H1351 0.929 . S
C1361 C1359 1.433 . S
C1361 N1364 1.384 . S
C1362 H1353 0.929 . S
C1362 C1354 1.378 . S
C1362 C1357 1.350 . S
C1363 H1350 0.929 . S
C1363 C1355 1.433 . S
C1363 N1365 1.384 . S
N1364 C1360 1.427 . S
N1364 C1361 1.384 . S
N1365 C1357 1.427 . S
N1365 C1363 1.384 . S
H1366 C1372 0.930 . S
H1367 C1376 0.930 . S
H1368 C1381 0.929 . S
H1369 C1379 0.929 . S
H1370 C1374 0.929 . S
H1371 C1380 0.929 . S
C1372 H1366 0.930 . S
C1372 C1373 1.367 . S
C1372 C1380 1.378 . S
C1373 C1372 1.367 . S
C1373 C1381 1.433 . S
C1374 H1370 0.929 . S
C1374 C1376 1.378 . S
C1374 C1378 1.350 . S
C1375 C1378 1.463 1_554 S
C1375 C1380 1.350 . S
C1375 N1383 1.427 . S
C1376 H1367 0.930 . S
C1376 C1374 1.378 . S
C1376 C1377 1.367 . S
C1377 C1376 1.367 . S
C1377 C1379 1.433 . S
C1378 C1374 1.350 . S
C1378 C1375 1.463 1_556 S
C1378 N1382 1.427 . S
C1379 H1369 0.929 . S
C1379 C1377 1.433 . S
C1379 N1382 1.384 . S
C1380 H1371 0.929 . S
C1380 C1372 1.378 . S
C1380 C1375 1.350 . S
C1381 H1368 0.929 . S
C1381 C1373 1.433 . S
C1381 N1383 1.384 . S
N1382 C1378 1.427 . S
N1382 C1379 1.384 . S
N1383 C1375 1.427 . S
N1383 C1381 1.384 . S
H1384 C1390 0.930 . S
H1385 C1394 0.930 . S
H1386 C1399 0.929 . S
H1387 C1397 0.929 . S
H1388 C1392 0.929 1_545 S
H1389 C1398 0.929 1_565 S
C1390 H1384 0.930 . S
C1390 C1391 1.367 . S
C1390 C1398 1.378 . S
C1391 C1390 1.367 . S
C1391 C1399 1.433 . S
C1392 H1388 0.929 1_565 S
C1392 C1394 1.378 . S
C1392 C1396 1.350 . S
C1393 C1396 1.463 1_545 S
C1393 C1398 1.350 . S
C1393 N1401 1.427 . S
C1394 H1385 0.930 . S
C1394 C1392 1.378 . S
C1394 C1395 1.367 . S
C1395 C1394 1.367 . S
C1395 C1397 1.433 . S
C1396 C1392 1.350 . S
C1396 C1393 1.463 1_565 S
C1396 N1400 1.427 . S
C1397 H1387 0.929 . S
C1397 C1395 1.433 . S
C1397 N1400 1.384 . S
C1398 H1389 0.929 1_545 S
C1398 C1390 1.378 . S
C1398 C1393 1.350 . S
C1399 H1386 0.929 . S
C1399 C1391 1.433 . S
C1399 N1401 1.384 . S
N1400 C1396 1.427 . S
N1400 C1397 1.384 . S
N1401 C1393 1.427 . S
N1401 C1399 1.384 . S
H1402 C1408 0.930 . S
H1403 C1412 0.930 . S
H1404 C1417 0.929 . S
H1405 C1415 0.929 . S
H1406 C1410 0.929 . S
H1407 C1416 0.929 . S
C1408 H1402 0.930 . S
C1408 C1409 1.367 . S
C1408 C1416 1.378 . S
C1409 C1408 1.367 . S
C1409 C1417 1.433 . S
C1410 H1406 0.929 . S
C1410 C1412 1.378 . S
C1410 C1414 1.350 . S
C1411 C1414 1.463 . S
C1411 C1416 1.350 . S
C1411 N1419 1.427 . S
C1412 H1403 0.930 . S
C1412 C1410 1.378 . S
C1412 C1413 1.367 . S
C1413 C1412 1.367 . S
C1413 C1415 1.433 . S
C1414 C1410 1.350 . S
C1414 C1411 1.463 . S
C1414 N1418 1.427 . S
C1415 H1405 0.929 . S
C1415 C1413 1.433 . S
C1415 N1418 1.384 . S
C1416 H1407 0.929 . S
C1416 C1408 1.378 . S
C1416 C1411 1.350 . S
C1417 H1404 0.929 . S
C1417 C1409 1.433 . S
C1417 N1419 1.384 . S
N1418 C1414 1.427 . S
N1418 C1415 1.384 . S
N1419 C1411 1.427 . S
N1419 C1417 1.384 . S
H1420 C1426 0.930 . S
H1421 C1430 0.930 . S
H1422 C1435 0.929 . S
H1423 C1433 0.929 . S
H1424 C1428 0.929 1_545 S
H1425 C1434 0.929 1_565 S
C1426 H1420 0.930 . S
C1426 C1427 1.367 . S
C1426 C1434 1.378 . S
C1427 C1426 1.367 . S
C1427 C1435 1.433 . S
C1428 H1424 0.929 1_565 S
C1428 C1430 1.378 . S
C1428 C1432 1.350 . S
C1429 C1432 1.463 1_545 S
C1429 C1434 1.350 . S
C1429 N1437 1.427 . S
C1430 H1421 0.930 . S
C1430 C1428 1.378 . S
C1430 C1431 1.367 . S
C1431 C1430 1.367 . S
C1431 C1433 1.433 . S
C1432 C1428 1.350 . S
C1432 C1429 1.463 1_565 S
C1432 N1436 1.427 . S
C1433 H1423 0.929 . S
C1433 C1431 1.433 . S
C1433 N1436 1.384 . S
C1434 H1425 0.929 1_545 S
C1434 C1426 1.378 . S
C1434 C1429 1.350 . S
C1435 H1422 0.929 . S
C1435 C1427 1.433 . S
C1435 N1437 1.384 . S
N1436 C1432 1.427 . S
N1436 C1433 1.384 . S
N1437 C1429 1.427 . S
N1437 C1435 1.384 . S
H1438 C1444 0.930 . S
H1439 C1448 0.930 . S
H1440 C1453 0.929 . S
H1441 C1451 0.929 . S
H1442 C1446 0.929 . S
H1443 C1452 0.929 . S
C1444 H1438 0.930 . S
C1444 C1445 1.367 . S
C1444 C1452 1.378 . S
C1445 C1444 1.367 . S
C1445 C1453 1.433 . S
C1446 H1442 0.929 . S
C1446 C1448 1.378 . S
C1446 C1450 1.350 . S
C1447 C1450 1.463 1_556 S
C1447 C1452 1.350 . S
C1447 N1455 1.427 . S
C1448 H1439 0.930 . S
C1448 C1446 1.378 . S
C1448 C1449 1.367 . S
C1449 C1448 1.367 . S
C1449 C1451 1.433 . S
C1450 C1446 1.350 . S
C1450 C1447 1.463 1_554 S
C1450 N1454 1.427 . S
C1451 H1441 0.929 . S
C1451 C1449 1.433 . S
C1451 N1454 1.384 . S
C1452 H1443 0.929 . S
C1452 C1444 1.378 . S
C1452 C1447 1.350 . S
C1453 H1440 0.929 . S
C1453 C1445 1.433 . S
C1453 N1455 1.384 . S
N1454 C1450 1.427 . S
N1454 C1451 1.384 . S
N1455 C1447 1.427 . S
N1455 C1453 1.384 . S
H1456 C1462 0.930 . S
H1457 C1466 0.930 . S
H1458 C1471 0.929 . S
H1459 C1469 0.929 . S
H1460 C1464 0.929 . S
H1461 C1470 0.929 . S
C1462 H1456 0.930 . S
C1462 C1463 1.367 . S
C1462 C1470 1.378 . S
C1463 C1462 1.367 . S
C1463 C1471 1.433 . S
C1464 H1460 0.929 . S
C1464 C1466 1.378 . S
C1464 C1468 1.350 . S
C1465 C1468 1.463 . S
C1465 C1470 1.350 . S
C1465 N1473 1.427 . S
C1466 H1457 0.930 . S
C1466 C1464 1.378 . S
C1466 C1467 1.367 . S
C1467 C1466 1.367 . S
C1467 C1469 1.433 . S
C1468 C1464 1.350 . S
C1468 C1465 1.463 . S
C1468 N1472 1.427 . S
C1469 H1459 0.929 . S
C1469 C1467 1.433 . S
C1469 N1472 1.384 . S
C1470 H1461 0.929 . S
C1470 C1462 1.378 . S
C1470 C1465 1.350 . S
C1471 H1458 0.929 . S
C1471 C1463 1.433 . S
C1471 N1473 1.384 . S
N1472 C1468 1.427 . S
N1472 C1469 1.384 . S
N1473 C1465 1.427 . S
N1473 C1471 1.384 . S
H1474 C1480 0.930 . S
H1475 C1484 0.930 . S
H1476 C1489 0.929 . S
H1477 C1487 0.929 . S
H1478 C1482 0.929 1_556 S
H1479 C1488 0.929 1_554 S
C1480 H1474 0.930 . S
C1480 C1481 1.367 . S
C1480 C1488 1.378 . S
C1481 C1480 1.367 . S
C1481 C1489 1.433 . S
C1482 H1478 0.929 1_554 S
C1482 C1484 1.378 . S
C1482 C1486 1.350 . S
C1483 C1486 1.463 1_556 S
C1483 C1488 1.350 . S
C1483 N1491 1.427 . S
C1484 H1475 0.930 . S
C1484 C1482 1.378 . S
C1484 C1485 1.367 . S
C1485 C1484 1.367 . S
C1485 C1487 1.433 . S
C1486 C1482 1.350 . S
C1486 C1483 1.463 1_554 S
C1486 N1490 1.427 . S
C1487 H1477 0.929 . S
C1487 C1485 1.433 . S
C1487 N1490 1.384 . S
C1488 H1479 0.929 1_556 S
C1488 C1480 1.378 . S
C1488 C1483 1.350 . S
C1489 H1476 0.929 . S
C1489 C1481 1.433 . S
C1489 N1491 1.384 . S
N1490 C1486 1.427 . S
N1490 C1487 1.384 . S
N1491 C1483 1.427 . S
N1491 C1489 1.384 . S
H1492 C1498 0.930 . S
H1493 C1502 0.930 . S
H1494 C1507 0.929 . S
H1495 C1505 0.929 . S
H1496 C1500 0.929 . S
H1497 C1506 0.929 . S
C1498 H1492 0.930 . S
C1498 C1499 1.367 . S
C1498 C1506 1.378 . S
C1499 C1498 1.367 . S
C1499 C1507 1.433 . S
C1500 H1496 0.929 . S
C1500 C1502 1.378 . S
C1500 C1504 1.350 . S
C1501 C1504 1.463 . S
C1501 C1506 1.350 . S
C1501 N1509 1.427 . S
C1502 H1493 0.930 . S
C1502 C1500 1.378 . S
C1502 C1503 1.367 . S
C1503 C1502 1.367 . S
C1503 C1505 1.433 . S
C1504 C1500 1.350 . S
C1504 C1501 1.463 . S
C1504 N1508 1.427 . S
C1505 H1495 0.929 . S
C1505 C1503 1.433 . S
C1505 N1508 1.384 . S
C1506 H1497 0.929 . S
C1506 C1498 1.378 . S
C1506 C1501 1.350 . S
C1507 H1494 0.929 . S
C1507 C1499 1.433 . S
C1507 N1509 1.384 . S
N1508 C1504 1.427 . S
N1508 C1505 1.384 . S
N1509 C1501 1.427 . S
N1509 C1507 1.384 . S
H1510 C1516 0.930 . S
H1511 C1520 0.930 . S
H1512 C1525 0.929 . S
H1513 C1523 0.929 . S
H1514 C1518 0.929 . S
H1515 C1524 0.929 . S
C1516 H1510 0.930 . S
C1516 C1517 1.367 . S
C1516 C1524 1.378 . S
C1517 C1516 1.367 . S
C1517 C1525 1.433 . S
C1518 H1514 0.929 . S
C1518 C1520 1.378 . S
C1518 C1522 1.350 . S
C1519 C1522 1.463 . S
C1519 C1524 1.350 . S
C1519 N1527 1.427 . S
C1520 H1511 0.930 . S
C1520 C1518 1.378 . S
C1520 C1521 1.367 . S
C1521 C1520 1.367 . S
C1521 C1523 1.433 . S
C1522 C1518 1.350 . S
C1522 C1519 1.463 . S
C1522 N1526 1.427 . S
C1523 H1513 0.929 . S
C1523 C1521 1.433 . S
C1523 N1526 1.384 . S
C1524 H1515 0.929 . S
C1524 C1516 1.378 . S
C1524 C1519 1.350 . S
C1525 H1512 0.929 . S
C1525 C1517 1.433 . S
C1525 N1527 1.384 . S
N1526 C1522 1.427 . S
N1526 C1523 1.384 . S
N1527 C1519 1.427 . S
N1527 C1525 1.384 . S
H1528 C1534 0.930 . S
H1529 C1538 0.930 . S
H1530 C1543 0.929 . S
H1531 C1541 0.929 . S
H1532 C1536 0.929 . S
H1533 C1542 0.929 . S
C1534 H1528 0.930 . S
C1534 C1535 1.367 . S
C1534 C1542 1.378 . S
C1535 C1534 1.367 . S
C1535 C1543 1.433 . S
C1536 H1532 0.929 . S
C1536 C1538 1.378 . S
C1536 C1540 1.350 . S
C1537 C1540 1.463 . S
C1537 C1542 1.350 . S
C1537 N1545 1.427 . S
C1538 H1529 0.930 . S
C1538 C1536 1.378 . S
C1538 C1539 1.367 . S
C1539 C1538 1.367 . S
C1539 C1541 1.433 . S
C1540 C1536 1.350 . S
C1540 C1537 1.463 . S
C1540 N1544 1.427 . S
C1541 H1531 0.929 . S
C1541 C1539 1.433 . S
C1541 N1544 1.384 . S
C1542 H1533 0.929 . S
C1542 C1534 1.378 . S
C1542 C1537 1.350 . S
C1543 H1530 0.929 . S
C1543 C1535 1.433 . S
C1543 N1545 1.384 . S
N1544 C1540 1.427 . S
N1544 C1541 1.384 . S
N1545 C1537 1.427 . S
N1545 C1543 1.384 . S
H1546 C1552 0.930 . S
H1547 C1556 0.930 . S
H1548 C1561 0.929 . S
H1549 C1559 0.929 . S
H1550 C1554 0.929 . S
H1551 C1560 0.929 . S
C1552 H1546 0.930 . S
C1552 C1553 1.367 . S
C1552 C1560 1.378 . S
C1553 C1552 1.367 . S
C1553 C1561 1.433 . S
C1554 H1550 0.929 . S
C1554 C1556 1.378 . S
C1554 C1558 1.350 . S
C1555 C1558 1.463 1_556 S
C1555 C1560 1.350 . S
C1555 N1563 1.427 . S
C1556 H1547 0.930 . S
C1556 C1554 1.378 . S
C1556 C1557 1.367 . S
C1557 C1556 1.367 . S
C1557 C1559 1.433 . S
C1558 C1554 1.350 . S
C1558 C1555 1.463 1_554 S
C1558 N1562 1.427 . S
C1559 H1549 0.929 . S
C1559 C1557 1.433 . S
C1559 N1562 1.384 . S
C1560 H1551 0.929 . S
C1560 C1552 1.378 . S
C1560 C1555 1.350 . S
C1561 H1548 0.929 . S
C1561 C1553 1.433 . S
C1561 N1563 1.384 . S
N1562 C1558 1.427 . S
N1562 C1559 1.384 . S
N1563 C1555 1.427 . S
N1563 C1561 1.384 . S
H1564 C1570 0.930 . S
H1565 C1574 0.930 . S
H1566 C1579 0.929 . S
H1567 C1577 0.929 . S
H1568 C1572 0.929 . S
H1569 C1578 0.929 . S
C1570 H1564 0.930 . S
C1570 C1571 1.367 . S
C1570 C1578 1.378 . S
C1571 C1570 1.367 . S
C1571 C1579 1.433 . S
C1572 H1568 0.929 . S
C1572 C1574 1.378 . S
C1572 C1576 1.350 . S
C1573 C1576 1.463 . S
C1573 C1578 1.350 . S
C1573 N1581 1.427 . S
C1574 H1565 0.930 . S
C1574 C1572 1.378 . S
C1574 C1575 1.367 . S
C1575 C1574 1.367 . S
C1575 C1577 1.433 . S
C1576 C1572 1.350 . S
C1576 C1573 1.463 . S
C1576 N1580 1.427 . S
C1577 H1567 0.929 . S
C1577 C1575 1.433 . S
C1577 N1580 1.384 . S
C1578 H1569 0.929 . S
C1578 C1570 1.378 . S
C1578 C1573 1.350 . S
C1579 H1566 0.929 . S
C1579 C1571 1.433 . S
C1579 N1581 1.384 . S
N1580 C1576 1.427 . S
N1580 C1577 1.384 . S
N1581 C1573 1.427 . S
N1581 C1579 1.384 . S
H1582 C1588 0.930 . S
H1583 C1592 0.930 . S
H1584 C1597 0.929 . S
H1585 C1595 0.929 . S
H1586 C1590 0.929 . S
H1587 C1596 0.929 . S
C1588 H1582 0.930 . S
C1588 C1589 1.367 . S
C1588 C1596 1.378 . S
C1589 C1588 1.367 . S
C1589 C1597 1.433 . S
C1590 H1586 0.929 . S
C1590 C1592 1.378 . S
C1590 C1594 1.350 . S
C1591 C1594 1.463 . S
C1591 C1596 1.350 . S
C1591 N1599 1.427 . S
C1592 H1583 0.930 . S
C1592 C1590 1.378 . S
C1592 C1593 1.367 . S
C1593 C1592 1.367 . S
C1593 C1595 1.433 . S
C1594 C1590 1.350 . S
C1594 C1591 1.463 . S
C1594 N1598 1.427 . S
C1595 H1585 0.929 . S
C1595 C1593 1.433 . S
C1595 N1598 1.384 . S
C1596 H1587 0.929 . S
C1596 C1588 1.378 . S
C1596 C1591 1.350 . S
C1597 H1584 0.929 . S
C1597 C1589 1.433 . S
C1597 N1599 1.384 . S
N1598 C1594 1.427 . S
N1598 C1595 1.384 . S
N1599 C1591 1.427 . S
N1599 C1597 1.384 . S
C455 C390 1.496 . S
C459 C1 1.514 . S
C473 C26 1.509 . S
C477 C112 1.485 . S
C491 C363 1.492 . S
C495 C28 1.508 . S
C509 C42 1.511 . S
C513 C153 1.489 . S
C527 C56 1.508 . S
C531 C419 1.491 . S
C545 C71 1.514 . S
C549 C208 1.496 . S
C563 C96 1.513 . S
C567 C447 1.493 . S
C581 C111 1.514 . S
C585 C181 1.495 . S
C599 C279 1.492 . S
C603 C125 1.513 . S
C617 C12 1.488 . S
C621 C139 1.507 . S
C635 C239 1.487 . S
C639 C140 1.508 . S
C653 C166 1.514 . S
C657 C41 1.491 . S
C671 C306 1.493 . S
C675 C168 1.514 . S
C689 C85 1.495 . S
C693 C182 1.513 . S
C707 C197 1.512 . S
C711 C334 1.497 . S
C725 C69 1.494 . S
C729 C222 1.512 . S
C743 C225 1.513 . S
C747 C155 1.497 . S
C761 C250 1.512 . S
C765 C336 1.488 . S
C779 C126 1.485 . S
C783 C252 1.508 . S
C797 C376 1.494 . S
C801 C266 1.511 . S
C815 C195 1.487 . S
C819 C292 1.509 . S
C833 C433 1.495 . S
C837 C295 1.511 . S
C851 C211 1.494 . S
C855 C320 1.510 . S
C869 C323 1.511 . S
C873 C405 1.495 . S
C887 C55 1.493 . S
C891 C349 1.514 . S
C905 C350 1.508 . S
C909 C236 1.487 . S
C923 C365 1.509 . S
C927 C15 1.485 . S
C941 C379 1.510 . S
C945 C265 1.486 . S
C959 C392 1.514 . S
C963 C82 1.498 . S
C977 C406 1.511 . S
C981 C309 1.493 . S
C995 C420 1.512 . S
C999 C98 1.489 . S
C1013 C434 1.508 . S
C1017 C281 1.486 . S
C1031 C337 1.692 . S
C1035 C13 1.689 . S
C1049 C14 1.698 . S
C1053 C127 1.698 . S
C1067 C377 1.698 . S
C1071 C40 1.698 . S
C1085 C54 1.701 . S
C1089 C154 1.699 . S
C1103 C404 1.687 . S
C1107 C68 1.690 . S
C1121 C83 1.698 . S
C1125 C194 1.698 . S
C1139 C432 1.692 . S
C1143 C84 1.694 . S
C1157 C99 1.698 . S
C1161 C210 1.698 . S
C1175 C113 1.695 . S
C1179 C237 1.693 . S
C1193 C152 1.686 . S
C1197 C264 1.689 . S
C1211 C180 1.699 . S
C1215 C280 1.701 . S
C1229 C209 1.691 . S
C1233 C308 1.691 . S
C1247 C238 1.688 . S
C1251 C362 1.685 . S
C1265 C391 1.693 . S
C1269 C278 1.693 . S
C1283 C418 1.687 . S
C1287 C307 1.687 . S
C1301 C335 1.698 . S
C1305 C446 1.698 . S
C1319 C0 1.936 . S
C1323 C57 1.939 . S
C1337 C27 1.939 . S
C1341 C70 1.935 . S
C1355 C97 1.936 . S
C1359 C29 1.937 . S
C1373 C43 1.939 . S
C1377 C110 1.935 . S
C1391 C169 1.935 . S
C1395 C124 1.939 . S
C1409 C183 1.936 . S
C1413 C138 1.939 . S
C1427 C141 1.938 . S
C1431 C196 1.936 . S
C1445 C167 1.935 . S
C1449 C223 1.938 . S
C1463 C293 1.937 . S
C1467 C224 1.938 . S
C1481 C294 1.935 . S
C1485 C251 1.937 . S
C1499 C253 1.937 . S
C1503 C321 1.939 . S
C1517 C322 1.937 . S
C1521 C267 1.938 . S
C1535 C393 1.935 . S
C1539 C348 1.937 . S
C1553 C351 1.935 . S
C1557 C407 1.938 . S
C1571 C421 1.935 . S
C1575 C364 1.937 . S
C1589 C378 1.936 . S
C1593 C435 1.938 . S
