# Generated by pormake.
# Topology smm, (6)-cn, num edge types: 1
# Building blocks:
#     Node 0, Type 0, BuildingBlock: BETDIP_clean_sbu_0, # of connection points: 6
#     Node 1, Type 0, BuildingBlock: BETDIP_clean_sbu_0, # of connection points: 6
#     Node 2, Type 0, BuildingBlock: BETDIP_clean_sbu_0, # of connection points: 6
#     Node 3, Type 0, BuildingBlock: BETDIP_clean_sbu_0, # of connection points: 6
#     Node 4, Type 0, BuildingBlock: BETDIP_clean_sbu_0, # of connection points: 6
#     Node 5, Type 0, BuildingBlock: BETDIP_clean_sbu_0, # of connection points: 6
#     Node 6, Type 0, BuildingBlock: BETDIP_clean_sbu_0, # of connection points: 6
#     Node 7, Type 0, BuildingBlock: BETDIP_clean_sbu_0, # of connection points: 6
#     Node 8, Type 0, BuildingBlock: BETDIP_clean_sbu_0, # of connection points: 6
#     Edge 9, Type (0, 0), BuildingBlock: XIVTED_clean_linker_0, # of connection points: 2
#     Edge 10, Type (0, 0), BuildingBlock: XIVTED_clean_linker_0, # of connection points: 2
#     Edge 11, Type (0, 0), BuildingBlock: XIVTED_clean_linker_0, # of connection points: 2
#     Edge 12, Type (0, 0), BuildingBlock: XIVTED_clean_linker_0, # of connection points: 2
#     Edge 13, Type (0, 0), BuildingBlock: XIVTED_clean_linker_0, # of connection points: 2
#     Edge 14, Type (0, 0), BuildingBlock: XIVTED_clean_linker_0, # of connection points: 2
#     Edge 15, Type (0, 0), BuildingBlock: XIVTED_clean_linker_0, # of connection points: 2
#     Edge 16, Type (0, 0), BuildingBlock: XIVTED_clean_linker_0, # of connection points: 2
#     Edge 17, Type (0, 0), BuildingBlock: XIVTED_clean_linker_0, # of connection points: 2
#     Edge 18, Type (0, 0), BuildingBlock: XIVTED_clean_linker_0, # of connection points: 2
#     Edge 19, Type (0, 0), BuildingBlock: XIVTED_clean_linker_0, # of connection points: 2
#     Edge 20, Type (0, 0), BuildingBlock: XIVTED_clean_linker_0, # of connection points: 2
#     Edge 21, Type (0, 0), BuildingBlock: XIVTED_clean_linker_0, # of connection points: 2
#     Edge 22, Type (0, 0), BuildingBlock: XIVTED_clean_linker_0, # of connection points: 2
#     Edge 23, Type (0, 0), BuildingBlock: XIVTED_clean_linker_0, # of connection points: 2
#     Edge 24, Type (0, 0), BuildingBlock: XIVTED_clean_linker_0, # of connection points: 2
#     Edge 25, Type (0, 0), BuildingBlock: XIVTED_clean_linker_0, # of connection points: 2
#     Edge 26, Type (0, 0), BuildingBlock: XIVTED_clean_linker_0, # of connection points: 2
#     Edge 27, Type (0, 0), BuildingBlock: XIVTED_clean_linker_0, # of connection points: 2
#     Edge 28, Type (0, 0), BuildingBlock: XIVTED_clean_linker_0, # of connection points: 2
#     Edge 29, Type (0, 0), BuildingBlock: XIVTED_clean_linker_0, # of connection points: 2
#     Edge 30, Type (0, 0), BuildingBlock: XIVTED_clean_linker_0, # of connection points: 2
#     Edge 31, Type (0, 0), BuildingBlock: XIVTED_clean_linker_0, # of connection points: 2
#     Edge 32, Type (0, 0), BuildingBlock: XIVTED_clean_linker_0, # of connection points: 2
#     Edge 33, Type (0, 0), BuildingBlock: XIVTED_clean_linker_0, # of connection points: 2
#     Edge 34, Type (0, 0), BuildingBlock: XIVTED_clean_linker_0, # of connection points: 2
#     Edge 35, Type (0, 0), BuildingBlock: XIVTED_clean_linker_0, # of connection points: 2
# Relax obj value: 0.037
# Max RMSD: 0.111
# Mean RMSD: 0.111
data_MOF--net-smm--node1-BETDIP_clean_sbu_0--edge1-XIVTED_clean_linker_0
_symmetry_space_group_name_H-M    P1
_symmetry_Int_Tables_number       1
_symmetry_cell_setting            triclinic
loop_
_symmetry_equiv_pos_as_xyz
'x, y, z'
_cell_length_a     70.81078
_cell_length_b     70.711758
_cell_length_c     14.350493
_cell_angle_alpha  89.997415
_cell_angle_beta   90.033999
_cell_angle_gamma 119.94465
loop_
_atom_site_label
_atom_site_type_symbol
_atom_site_fract_x
_atom_site_fract_y
_atom_site_fract_z
_atom_type_partial_charge
Tb0 Tb 1.03003 0.20808 -0.00879 0.0
Tb1 Tb 0.07045 0.20526 0.94803 0.0
C2 C 1.00291 0.21608 0.07004 0.0
C3 C 0.99679 0.23319 0.08387 0.0
C4 C 1.00091 0.24412 0.16984 0.0
C5 C 0.99244 0.25788 0.18926 0.0
C6 C 0.97944 0.26092 0.12348 0.0
C7 C 0.97594 0.25054 0.03629 0.0
C8 C 0.98444 0.23683 0.0168 0.0
C9 C 0.03566 0.20274 0.81368 0.0
C10 C 0.07499 0.25173 0.94342 0.0
C11 C 0.099 0.19746 0.88336 0.0
C12 C 0.10771 0.18259 0.89936 0.0
C13 C 0.12982 0.19021 0.88155 0.0
C14 C 0.1388 0.17678 0.89642 0.0
C15 C 0.12585 0.15531 0.92944 0.0
C16 C 0.1036 0.14766 0.94714 0.0
C17 C 0.09463 0.16121 0.93262 0.0
C18 C 0.0637 0.20927 0.12632 0.0
C19 C 1.02448 0.16134 0.97552 0.0
O20 O 1.02082 0.21897 0.1099 0.0
O21 O 0.99998 0.20718 -0.01264 0.0
O22 O 0.05029 0.21403 0.87174 0.0
O23 O 1.01675 0.19583 0.85208 0.0
O24 O 0.05566 0.24299 -0.01493 0.0
O25 O 0.08239 0.23921 0.90965 0.0
O26 O 0.07924 0.18904 0.84944 0.0
O27 O 0.10276 0.21169 0.94918 0.0
O28 O 0.04961 0.19831 0.06614 0.0
O29 O 0.08274 0.21688 0.08916 0.0
O30 O 0.04464 0.17078 0.9422 0.0
O31 O 1.01625 0.17298 0.01129 0.0
H32 H 1.01003 0.24141 0.22366 0.0
H33 H 0.99531 0.26537 0.25747 0.0
H34 H 0.96629 0.25273 0.98336 0.0
H35 H 0.98075 0.22857 0.9501 0.0
H36 H 0.1402 0.20665 0.85585 0.0
H37 H 0.15588 0.18314 0.88064 0.0
H38 H 0.09319 0.13131 0.97347 0.0
H39 H 0.07755 0.15503 0.94763 0.0
Tb40 Tb 0.87651 0.8492 -0.00761 0.0
Tb41 Tb 0.87901 0.89232 0.94872 0.0
C42 C 0.86864 0.81408 0.07125 0.0
C43 C 0.85155 0.79085 0.08496 0.0
C44 C 0.84112 0.78393 0.17182 0.0
C45 C 0.82735 0.7617 0.19075 0.0
C46 C 0.82379 0.74575 0.12356 0.0
C47 C 0.83369 0.75274 0.03559 0.0
C48 C 0.84741 0.77497 0.01659 0.0
C49 C 0.88152 0.85997 0.81467 0.0
C50 C 0.8327 0.85043 0.94593 0.0
C51 C 0.88675 0.92868 0.88373 0.0
C52 C 0.90178 0.95226 0.89888 0.0
C53 C 0.89424 0.96688 0.88176 0.0
C54 C 0.90783 0.98929 0.89589 0.0
C55 C 0.92938 0.99769 0.92746 0.0
C56 C 0.93695 0.98296 0.9444 0.0
C57 C 0.92325 0.96044 0.93063 0.0
C58 C 0.87527 0.88174 0.12716 0.0
C59 C 0.92301 0.89035 0.9754 0.0
O60 O 0.86574 0.82911 0.11116 0.0
O61 O 0.87751 0.82006 -0.01142 0.0
O62 O 0.87025 0.86332 0.87283 0.0
O63 O 0.88861 0.8481 0.85314 0.0
O64 O 0.84163 0.83992 -0.01292 0.0
O65 O 0.84502 0.87033 0.91172 0.0
O66 O 0.89491 0.91714 0.84913 0.0
O67 O 0.87276 0.91839 0.95042 0.0
O68 O 0.88621 0.87859 0.06693 0.0
O69 O 0.86752 0.89307 0.08992 0.0
O70 O 0.91343 0.90095 0.94194 0.0
O71 O 0.91155 0.87056 0.01198 0.0
H72 H 0.84423 0.79569 0.22656 0.0
H73 H 0.82024 0.75698 0.25956 0.0
H74 H 0.83109 0.74098 0.98161 0.0
H75 H 0.85527 0.77962 0.94912 0.0
H76 H 0.87774 0.96093 0.85719 0.0
H77 H 0.9015 1.00009 0.88071 0.0
H78 H 0.95337 0.9888 0.96961 0.0
H79 H 0.92939 0.94945 0.94508 0.0
Tb80 Tb 0.23578 0.05478 -0.00597 0.0
Tb81 Tb 0.19247 1.01444 0.95092 0.0
C82 C 0.27093 0.08173 0.07305 0.0
C83 C 0.29416 0.0879 0.08622 0.0
C84 C 0.30126 0.08479 0.17346 0.0
C85 C 0.32351 0.09339 0.192 0.0
C86 C 0.33928 0.10553 0.12397 0.0
C87 C 0.3321 0.10797 0.03559 0.0
C88 C 0.30985 0.09932 0.01698 0.0
C89 C 0.22475 0.04921 0.81654 0.0
C90 C 0.23412 1.00956 0.94544 0.0
C91 C 0.15572 0.98656 0.88753 0.0
C92 C 0.1323 0.97887 0.90488 0.0
C93 C 0.11929 0.97951 0.83245 0.0
C94 C 0.09682 0.97081 0.8448 0.0
C95 C 0.08675 0.96107 0.92986 0.0
C96 C 0.09988 0.96077 0.0029 0.0
C97 C 0.12236 0.96958 -0.00932 0.0
C98 C 0.20333 1.02114 0.1291 0.0
C99 C 0.19486 0.06063 0.97905 0.0
O100 O 0.25601 0.06367 0.1123 0.0
O101 O 0.26488 0.08486 -0.00908 0.0
O102 O 0.22135 0.03453 0.87452 0.0
O103 O 0.23687 0.06812 0.85497 0.0
O104 O 0.24483 0.02895 -0.01315 0.0
O105 O 0.21416 1.00215 0.91227 0.0
O106 O 0.16753 1.0061 0.85195 0.0
O107 O 0.16626 0.98239 0.95181 0.0
O108 O 0.2065 0.03528 0.06905 0.0
O109 O 0.19183 1.00208 0.09187 0.0
O110 O 0.18409 0.04046 0.94566 0.0
O111 O 0.2147 0.0688 0.01467 0.0
H112 H 0.28964 0.07638 0.22879 0.0
H113 H 0.32838 0.09135 0.26111 0.0
H114 H 0.34373 0.11692 0.98099 0.0
H115 H 0.30505 0.10219 0.94915 0.0
H116 H 0.12645 0.98639 0.76539 0.0
H117 H 0.08723 0.97114 0.78666 0.0
H118 H 0.09277 0.9537 0.06974 0.0
H119 H 0.13188 0.96882 0.04816 0.0
Tb120 Tb 0.69619 0.54124 0.32492 0.0
Tb121 Tb 0.73652 0.5383 0.28131 0.0
C122 C 0.6691 0.54929 0.40368 0.0
C123 C 0.66296 0.56641 0.41715 0.0
C124 C 0.66679 0.57715 0.50345 0.0
C125 C 0.65832 0.59092 0.52242 0.0
C126 C 0.6456 0.59416 0.45583 0.0
C127 C 0.64238 0.58396 0.36835 0.0
C128 C 0.6509 0.57023 0.34932 0.0
C129 C 0.70184 0.53606 0.14719 0.0
C130 C 0.74125 0.58487 0.27842 0.0
C131 C 0.765 0.53045 0.21601 0.0
C132 C 0.77375 0.5156 0.23152 0.0
C133 C 0.79595 0.52342 0.21522 0.0
C134 C 0.80499 0.51001 0.2296 0.0
C135 C 0.79201 0.48837 0.26063 0.0
C136 C 0.76966 0.48052 0.2768 0.0
C137 C 0.76063 0.49404 0.26273 0.0
C138 C 0.72982 0.54221 0.45978 0.0
C139 C 0.69047 0.49446 0.30896 0.0
O140 O 0.68705 0.55226 0.44342 0.0
O141 O 0.66612 0.54029 0.3212 0.0
O142 O 0.71647 0.54728 0.20537 0.0
O143 O 0.68293 0.52913 0.18562 0.0
O144 O 0.7219 0.57609 0.31976 0.0
O145 O 0.74866 0.57239 0.24413 0.0
O146 O 0.74521 0.52206 0.18237 0.0
O147 O 0.76882 0.54468 0.28194 0.0
O148 O 0.7157 0.53134 0.39953 0.0
O149 O 0.74884 0.54974 0.42259 0.0
O150 O 0.71059 0.50382 0.27515 0.0
O151 O 0.68239 0.50617 0.34526 0.0
H152 H 0.6757 0.57429 0.55781 0.0
H153 H 0.66096 0.59827 0.59086 0.0
H154 H 0.63296 0.5863 0.31482 0.0
H155 H 0.64744 0.56212 0.28232 0.0
H156 H 0.80637 0.53999 0.19105 0.0
H157 H 0.82215 0.51655 0.215 0.0
H158 H 0.75921 0.46403 0.30157 0.0
H159 H 0.74347 0.48768 0.27651 0.0
Tb160 Tb 0.54376 0.1823 0.32909 0.0
Tb161 Tb 0.54577 0.22535 0.28551 0.0
C162 C 0.53702 0.14769 0.40904 0.0
C163 C 0.52146 0.12403 0.41932 0.0
C164 C 0.49905 0.11556 0.43488 0.0
C165 C 0.48529 0.09312 0.45133 0.0
C166 C 0.49368 0.07874 0.45239 0.0
C167 C 0.51611 0.08741 0.43592 0.0
C168 C 0.52975 0.1097 0.41959 0.0
C169 C 0.54791 0.19277 0.15113 0.0
C170 C 0.49958 0.18303 0.28491 0.0
C171 C 0.55317 0.26157 0.22025 0.0
C172 C 0.56845 0.28516 0.2339 0.0
C173 C 0.59013 0.29324 0.26242 0.0
C174 C 0.60411 0.31577 0.27469 0.0
C175 C 0.59661 0.33062 0.25945 0.0
C176 C 0.57484 0.32233 0.23116 0.0
C177 C 0.56098 0.29989 0.21852 0.0
C178 C 0.54271 0.2149 0.46386 0.0
C179 C 0.59001 0.22382 0.31033 0.0
O180 O 0.53176 0.16149 0.44501 0.0
O181 O 0.54704 0.15435 0.32892 0.0
O182 O 0.53699 0.19625 0.21054 0.0
O183 O 0.55493 0.18072 0.18829 0.0
O184 O 0.50878 0.17261 0.32464 0.0
O185 O 0.51163 0.20304 0.25111 0.0
O186 O 0.56095 0.24984 0.18407 0.0
O187 O 0.53965 0.25149 0.28869 0.0
O188 O 0.55346 0.21177 0.40272 0.0
O189 O 0.53479 0.2262 0.42771 0.0
O190 O 0.58023 0.23417 0.27627 0.0
O191 O 0.57873 0.2042 0.34861 0.0
H192 H 0.49221 0.12626 0.43531 0.0
H193 H 0.4681 0.08705 0.46282 0.0
H194 H 0.52332 0.07705 0.4379 0.0
H195 H 0.547 0.11586 0.40892 0.0
H196 H 0.59624 0.28217 0.2755 0.0
H197 H 0.62068 0.32151 0.29743 0.0
H198 H 0.56855 0.33321 0.21737 0.0
H199 H 0.54432 0.29403 0.19644 0.0
Tb200 Tb 0.90269 0.38858 0.32733 0.0
Tb201 Tb 0.85934 0.34797 0.28479 0.0
C202 C 0.93778 0.41569 0.40623 0.0
C203 C 0.96103 0.42192 0.41948 0.0
C204 C 0.96813 0.4188 0.50669 0.0
C205 C 0.99038 0.42741 0.52521 0.0
C206 C 1.00615 0.43956 0.4572 0.0
C207 C 0.99897 0.44203 0.36887 0.0
C208 C 0.97672 0.43337 0.35028 0.0
C209 C 0.89175 0.38243 0.14997 0.0
C210 C 0.90107 0.34318 0.28231 0.0
C211 C 0.82267 0.31999 0.22107 0.0
C212 C 0.79925 0.31238 0.23793 0.0
C213 C 0.78618 0.31243 0.1644 0.0
C214 C 0.76372 0.30379 0.17659 0.0
C215 C 0.75372 0.29472 0.26258 0.0
C216 C 0.76692 0.29503 0.33667 0.0
C217 C 0.7894 0.30378 0.32461 0.0
C218 C 0.87006 0.35521 0.4628 0.0
C219 C 0.86166 0.39424 0.31029 0.0
O220 O 0.92289 0.39764 0.44571 0.0
O221 O 0.93171 0.41873 0.32396 0.0
O222 O 0.88831 0.36795 0.20901 0.0
O223 O 0.90392 0.40148 0.18716 0.0
O224 O 0.91174 0.36275 0.32229 0.0
O225 O 0.8811 0.33556 0.24888 0.0
O226 O 0.83453 0.33947 0.18493 0.0
O227 O 0.83313 0.31592 0.28607 0.0
O228 O 0.87331 0.36916 0.40171 0.0
O229 O 0.85847 0.33603 0.42681 0.0
O230 O 0.85094 0.37399 0.27761 0.0
O231 O 0.8815 0.40253 0.34626 0.0
H232 H 0.95651 0.41037 0.562 0.0
H233 H 0.99525 0.42535 0.59429 0.0
H234 H 1.0106 0.45099 0.31428 0.0
H235 H 0.97191 0.43625 0.28248 0.0
H236 H 0.7933 0.31879 0.09671 0.0
H237 H 0.75408 0.30364 0.11768 0.0
H238 H 0.75986 0.28849 0.40421 0.0
H239 H 0.79897 0.30351 0.38296 0.0
Tb240 Tb 0.36262 0.87428 0.65994 0.0
Tb241 Tb 0.40335 0.87213 0.61559 0.0
C242 C 0.33481 0.88089 0.74078 0.0
C243 C 0.32654 0.89626 0.75254 0.0
C244 C 0.30406 0.88756 0.7641 0.0
C245 C 0.29541 0.90117 0.78148 0.0
C246 C 0.30904 0.92395 0.78762 0.0
C247 C 0.33167 0.93271 0.77534 0.0
C248 C 0.34035 0.91899 0.75787 0.0
C249 C 0.36833 0.86947 0.48174 0.0
C250 C 0.40719 0.91837 0.61232 0.0
C251 C 0.43209 0.86467 0.55028 0.0
C252 C 0.44049 0.84949 0.56475 0.0
C253 C 0.427 0.82785 0.59418 0.0
C254 C 0.43562 0.81395 0.60706 0.0
C255 C 0.45793 0.82149 0.59155 0.0
C256 C 0.4713 0.84323 0.56249 0.0
C257 C 0.46266 0.85702 0.54922 0.0
C258 C 0.39655 0.87583 0.79422 0.0
C259 C 0.35784 0.82788 0.64332 0.0
O260 O 0.35393 0.8863 0.77614 0.0
O261 O 0.33145 0.87104 0.6602 0.0
O262 O 0.3829 0.88066 0.54013 0.0
O263 O 0.34942 0.86249 0.52014 0.0
O264 O 0.38781 0.90935 0.65365 0.0
O265 O 0.41493 0.90612 0.57857 0.0
O266 O 0.4125 0.85667 0.51483 0.0
O267 O 0.43563 0.87845 0.61789 0.0
O268 O 0.3825 0.86478 0.73403 0.0
O269 O 0.4156 0.88375 0.75682 0.0
O270 O 0.37785 0.83755 0.60846 0.0
O271 O 0.34963 0.83933 0.68106 0.0
H272 H 0.29313 0.87007 0.76132 0.0
H273 H 0.27801 0.8937 0.79231 0.0
H274 H 0.34265 0.95017 0.77874 0.0
H275 H 0.35779 0.9261 0.74939 0.0
H276 H 0.40986 0.82171 0.60743 0.0
H277 H 0.42488 0.79739 0.6304 0.0
H278 H 0.48845 0.84954 0.54853 0.0
H279 H 0.47336 0.87366 0.52648 0.0
Tb280 Tb 0.2105 0.51576 0.66292 0.0
Tb281 Tb 0.21275 0.55892 0.61932 0.0
C282 C 0.20388 0.48125 0.74333 0.0
C283 C 0.18845 0.45762 0.75466 0.0
C284 C 0.19704 0.44367 0.76467 0.0
C285 C 0.18339 0.42141 0.78164 0.0
C286 C 0.16067 0.41242 0.7889 0.0
C287 C 0.15202 0.42646 0.77817 0.0
C288 C 0.16578 0.44886 0.76113 0.0
C289 C 0.21481 0.5263 0.48498 0.0
C290 C 0.16646 0.51665 0.61832 0.0
C291 C 0.22017 0.59513 0.55404 0.0
C292 C 0.23525 0.61873 0.56865 0.0
C293 C 0.25715 0.62705 0.59427 0.0
C294 C 0.27091 0.64958 0.60745 0.0
C295 C 0.26298 0.66419 0.59605 0.0
C296 C 0.241 0.65566 0.57064 0.0
C297 C 0.22735 0.63323 0.55707 0.0
C298 C 0.20957 0.54844 0.7977 0.0
C299 C 0.25687 0.55723 0.6451 0.0
O300 O 0.19853 0.49501 0.77897 0.0
O301 O 0.21373 0.48778 0.66284 0.0
O302 O 0.20391 0.52982 0.54429 0.0
O303 O 0.22172 0.51415 0.52218 0.0
O304 O 0.17556 0.50616 0.65832 0.0
O305 O 0.17861 0.53664 0.5845 0.0
O306 O 0.2282 0.58355 0.51865 0.0
O307 O 0.20638 0.58489 0.62145 0.0
O308 O 0.22028 0.54524 0.73658 0.0
O309 O 0.20181 0.55988 0.76154 0.0
O310 O 0.24724 0.56771 0.61078 0.0
O311 O 0.24543 0.53758 0.683 0.0
H312 H 0.21448 0.45009 0.76101 0.0
H313 H 0.19078 0.41134 0.79127 0.0
H314 H 0.13461 0.42012 0.78245 0.0
H315 H 0.15875 0.45932 0.75388 0.0
H316 H 0.2636 0.61617 0.60438 0.0
H317 H 0.28767 0.65551 0.62787 0.0
H318 H 0.23437 0.66637 0.55984 0.0
H319 H 0.21052 0.62719 0.53724 0.0
Tb320 Tb 0.56884 0.72183 0.65847 0.0
Tb321 Tb 0.5256 0.68151 0.61457 0.0
C322 C 0.60396 0.74883 0.73753 0.0
C323 C 0.62714 0.75485 0.75098 0.0
C324 C 0.63403 0.751 0.83731 0.0
C325 C 0.65623 0.75937 0.85623 0.0
C326 C 0.67216 0.77201 0.78957 0.0
C327 C 0.66519 0.77523 0.70205 0.0
C328 C 0.643 0.76681 0.68305 0.0
C329 C 0.55808 0.71619 0.48066 0.0
C330 C 0.56726 0.6766 0.61212 0.0
C331 C 0.48924 0.6532 0.54911 0.0
C332 C 0.46572 0.64494 0.56372 0.0
C333 C 0.45763 0.65863 0.59113 0.0
C334 C 0.43515 0.65009 0.60418 0.0
C335 C 0.42038 0.62767 0.59086 0.0
C336 C 0.42868 0.6141 0.56371 0.0
C337 C 0.45105 0.62265 0.55026 0.0
C338 C 0.53619 0.68821 0.79307 0.0
C339 C 0.52795 0.72771 0.64228 0.0
O340 O 0.58894 0.73087 0.7771 0.0
O341 O 0.59797 0.75188 0.6551 0.0
O342 O 0.55461 0.70152 0.53884 0.0
O343 O 0.57005 0.73511 0.51918 0.0
O344 O 0.57786 0.69601 0.65324 0.0
O345 O 0.54738 0.66917 0.57793 0.0
O346 O 0.50096 0.67285 0.51434 0.0
O347 O 0.49936 0.64935 0.61619 0.0
O348 O 0.53945 0.70236 0.73289 0.0
O349 O 0.52473 0.66916 0.75575 0.0
O350 O 0.51718 0.70756 0.60846 0.0
O351 O 0.54771 0.73577 0.67871 0.0
H352 H 0.62228 0.74217 0.89171 0.0
H353 H 0.66093 0.75674 0.9247 0.0
H354 H 0.67695 0.78459 0.64848 0.0
H355 H 0.63836 0.77027 0.61602 0.0
H356 H 0.46864 0.67587 0.60272 0.0
H357 H 0.42939 0.66099 0.62598 0.0
H358 H 0.41784 0.59685 0.55141 0.0
H359 H 0.45693 0.61179 0.52905 0.0
H360 H 0.11285 0.2741 0.8447 0.0
H361 H 0.12422 0.39212 0.90189 0.0
H362 H 0.06554 0.28386 -0.00548 0.0
H363 H 0.1645 0.37812 0.72165 0.0
H364 H 0.10274 0.35314 0.94013 0.0
H365 H 0.13256 0.3127 0.8056 0.0
C366 C 0.10659 0.28435 0.86982 0.0
C367 C 0.08741 0.27556 0.92313 0.0
C368 C 0.11625 0.35864 0.89206 0.0
C369 C 0.11013 0.32022 0.87787 0.0
C370 C 0.12846 0.3809 0.86963 0.0
C371 C 0.14641 0.3886 0.8089 0.0
C372 C 0.12202 0.34393 0.85371 0.0
C373 C 0.15117 0.37318 0.77028 0.0
C374 C 0.11787 0.30648 0.84704 0.0
C375 C 0.08022 0.28985 0.95329 0.0
N376 N 0.13917 0.35173 0.7936 0.0
N377 N 0.09159 0.31146 0.93033 0.0
H378 H 0.80939 0.86632 0.85648 0.0
H379 H 0.69405 0.7556 0.89043 0.0
H380 H 0.80143 0.80822 -0.00859 0.0
H381 H 0.7045 0.8133 0.74354 0.0
H382 H 0.73283 0.77442 0.93186 0.0
H383 H 0.77067 0.84711 0.81922 0.0
C384 C 0.79951 0.84952 0.8787 0.0
C385 C 0.80883 0.83892 0.92719 0.0
C386 C 0.72663 0.78292 0.89036 0.0
C387 C 0.76411 0.81664 0.88406 0.0
C388 C 0.70445 0.77222 0.86691 0.0
C389 C 0.69589 0.7828 0.81296 0.0
C390 C 0.74042 0.80447 0.86023 0.0
C391 C 0.71031 0.80428 0.78385 0.0
C392 C 0.77732 0.83851 0.8571 0.0
C393 C 0.79503 0.8171 0.95395 0.0
N394 N 0.73174 0.81436 0.80797 0.0
N395 N 0.7734 0.80668 0.93195 0.0
H396 H 0.21842 0.97148 0.84747 0.0
H397 H 0.32538 0.96067 0.89941 0.0
H398 H 0.27574 1.01912 -0.00506 0.0
H399 H 0.27064 0.91973 0.72262 0.0
H400 H 0.30786 0.98209 0.93853 0.0
H401 H 0.23726 0.95175 0.80757 0.0
C402 C 0.23498 0.97781 0.87192 0.0
C403 C 0.24546 0.99708 0.92479 0.0
C404 C 0.29974 0.96844 0.89102 0.0
C405 C 0.26733 0.97435 0.87859 0.0
C406 C 0.3098 0.95627 0.86809 0.0
C407 C 0.29944 0.93817 0.80806 0.0
C408 C 0.27913 0.96248 0.85388 0.0
C409 C 0.27912 0.93319 0.77066 0.0
C410 C 0.24579 0.96651 0.84868 0.0
C411 C 0.26698 1.00435 0.95408 0.0
N412 N 0.26966 0.94517 0.79443 0.0
N413 N 0.27719 0.99298 0.93066 0.0
H414 H 0.46876 0.1409 0.33323 0.0
H415 H 0.37131 0.14652 0.07258 0.0
H416 H 0.47574 0.19815 0.19383 0.0
H417 H 0.36161 0.0902 0.22872 0.0
H418 H 0.40988 0.16502 0.11327 0.0
H419 H 0.42979 0.12166 0.29483 0.0
C420 C 0.46214 0.14948 0.29498 0.0
C421 C 0.47567 0.17123 0.26677 0.0
C422 C 0.39937 0.14859 0.13865 0.0
C423 C 0.43102 0.1492 0.22201 0.0
C424 C 0.3773 0.13791 0.11468 0.0
C425 C 0.36307 0.11665 0.14671 0.0
C426 C 0.40751 0.13804 0.19515 0.0
C427 C 0.37186 0.10662 0.20293 0.0
C428 C 0.43986 0.13845 0.27295 0.0
C429 C 0.46607 0.18143 0.21719 0.0
N430 N 0.39347 0.11736 0.22516 0.0
N431 N 0.44445 0.17034 0.1963 0.0
H432 H 0.88496 0.30369 0.1948 0.0
H433 H 0.99598 0.29943 0.22289 0.0
H434 H 0.94335 0.35417 0.32593 0.0
H435 H 0.93792 0.25167 0.08028 0.0
H436 H 0.97713 0.31936 0.26519 0.0
H437 H 0.90412 0.2841 0.15714 0.0
C438 C 0.90181 0.31067 0.21614 0.0
C439 C 0.91251 0.33071 0.26365 0.0
C440 C 0.96855 0.30455 0.22445 0.0
C441 C 0.93474 0.30818 0.22002 0.0
C442 C 0.97928 0.29309 0.2005 0.0
C443 C 0.9686 0.27382 0.14747 0.0
C444 C 0.9469 0.29664 0.19574 0.0
C445 C 0.94701 0.2666 0.11982 0.0
C446 C 0.91279 0.29944 0.1943 0.0
C447 C 0.9344 0.3388 0.28926 0.0
N448 N 0.93692 0.27795 0.14438 0.0
N449 N 0.94479 0.32754 0.26702 0.0
H450 H 0.78588 0.72396 0.22646 0.0
H451 H 0.78017 0.60798 0.1869 0.0
H452 H 0.83227 0.71316 0.07486 0.0
H453 H 0.73082 0.61643 0.32587 0.0
H454 H 0.79979 0.64678 0.14991 0.0
H455 H 0.76586 0.68511 0.26734 0.0
C456 C 0.7919 0.71347 0.20179 0.0
C457 C 0.81082 0.72196 0.1467 0.0
C458 C 0.78469 0.64021 0.18861 0.0
C459 C 0.78788 0.67734 0.19334 0.0
C460 C 0.77344 0.61798 0.21007 0.0
C461 C 0.75371 0.60878 0.25963 0.0
C462 C 0.77629 0.65358 0.21683 0.0
C463 C 0.74594 0.62273 0.28754 0.0
C464 C 0.78039 0.69125 0.22493 0.0
C465 C 0.81763 0.70742 0.11612 0.0
N466 N 0.75722 0.64439 0.2657 0.0
N467 N 0.80624 0.68594 0.13997 0.0
H468 H 0.1355 0.47459 0.66684 0.0
H469 H 0.03826 0.48052 0.40574 0.0
H470 H 0.14278 0.53186 0.52651 0.0
H471 H 1.02843 0.42415 0.56184 0.0
H472 H 0.07684 0.49893 0.44633 0.0
H473 H 0.09654 0.45547 0.6283 0.0
C474 C 0.12895 0.4832 0.62835 0.0
C475 C 0.14256 0.50492 0.59994 0.0
C476 C 0.06629 0.48252 0.47172 0.0
C477 C 0.09791 0.48302 0.55502 0.0
C478 C 0.04422 0.47188 0.44782 0.0
C479 C 1.02995 0.45063 0.47988 0.0
C480 C 0.0744 0.47192 0.52818 0.0
C481 C 0.03871 0.44056 0.53604 0.0
C482 C 0.10668 0.47224 0.60624 0.0
C483 C 0.13304 0.51515 0.55004 0.0
N484 N 0.06032 0.45126 0.55821 0.0
N485 N 0.11142 0.50413 0.52909 0.0
H486 H 0.55132 0.63742 0.52203 0.0
H487 H 0.6619 0.63245 0.55664 0.0
H488 H 0.6093 0.68723 0.65821 0.0
H489 H 0.6043 0.58522 0.4098 0.0
H490 H 0.64305 0.65242 0.59804 0.0
H491 H 0.57048 0.61779 0.48475 0.0
C492 C 0.56808 0.64424 0.54453 0.0
C493 C 0.57867 0.6641 0.59338 0.0
C494 C 0.63457 0.63771 0.55656 0.0
C495 C 0.60088 0.64154 0.55022 0.0
C496 C 0.6453 0.62623 0.53313 0.0
C497 C 0.63476 0.60709 0.47921 0.0
C498 C 0.61305 0.62997 0.52643 0.0
C499 C 0.61329 0.60003 0.45009 0.0
C500 C 0.57906 0.63299 0.52292 0.0
C501 C 0.60044 0.67201 0.62047 0.0
N502 N 0.60319 0.6114 0.47418 0.0
N503 N 0.61082 0.66073 0.59845 0.0
H504 H 0.49527 0.04435 0.37172 0.0
H505 H 0.39819 0.95029 0.67143 0.0
H506 H 0.45949 0.0584 0.57724 0.0
H507 H 0.44379 0.94099 0.50581 0.0
H508 H 0.41815 0.98928 0.6311 0.0
H509 H 0.47405 1.00581 0.41174 0.0
C510 C 0.483 0.03939 0.4256 0.0
C511 C 0.47945 0.05487 0.47183 0.0
C512 C 0.42376 0.97866 0.60387 0.0
C513 C 0.45468 1.01029 0.51755 0.0
C514 C 0.41238 0.95639 0.62688 0.0
C515 C 0.41928 0.94223 0.5922 0.0
C516 C 0.44206 0.98681 0.54505 0.0
C517 C 0.43781 0.95116 0.53463 0.0
C518 C 0.47079 1.01728 0.44825 0.0
C519 C 0.4628 0.04715 0.53926 0.0
N520 N 0.44843 0.97274 0.5128 0.0
N521 N 0.4511 0.02545 0.56032 0.0
H522 H 0.15368 0.04875 0.91795 0.0
H523 H 0.16593 0.16645 0.00339 0.0
H524 H 0.2112 0.10319 0.03646 0.0
H525 H 0.10815 0.11159 0.88918 0.0
H526 H 0.18239 0.14337 0.01971 0.0
H527 H 0.13647 0.07123 0.91107 0.0
C528 C 0.16272 0.06542 0.94289 0.0
C529 C 0.18401 0.07404 0.97777 0.0
C530 C 0.16609 0.13635 -0.00869 0.0
C531 C 0.16425 0.10002 0.96972 0.0
C532 C 0.15669 0.14956 0.98149 0.0
C533 C 0.13562 0.14105 0.94424 0.0
C534 C 0.15442 0.11438 0.96351 0.0
C535 C 0.12434 0.11888 0.91891 0.0
C536 C 0.15283 0.07827 0.93888 0.0
C537 C 0.19479 0.09579 0.009 0.0
N538 N 0.13391 0.10639 0.92857 0.0
N539 N 0.18483 0.10801 0.00398 0.0
H540 H 0.9187 0.02689 0.00287 0.0
H541 H 0.03602 0.13193 0.91116 0.0
H542 H 0.97293 0.02345 0.88468 0.0
H543 H 0.98225 0.13522 0.03567 0.0
H544 H 1.01351 0.09224 0.90457 0.0
H545 H 0.94192 0.06639 0.01855 0.0
C546 C 0.93548 0.03442 0.97994 0.0
C547 C 0.94377 1.02171 0.94176 0.0
C548 C 1.00663 0.10161 0.93365 0.0
C549 C 0.97063 0.06717 0.96029 0.0
C550 C 1.01951 0.12435 0.93755 0.0
C551 C 1.01109 0.13708 0.97407 0.0
C552 C 0.98505 0.09136 0.9662 0.0
C553 C 0.98951 0.12617 0.00691 0.0
C554 C 0.94879 0.05701 -0.0106 0.0
C555 C 0.96582 0.03246 0.91513 0.0
N556 N 0.97726 0.10401 0.00195 0.0
N557 N 0.9784 0.05452 0.92444 0.0
H558 H 0.95182 0.93053 0.90311 0.0
H559 H 0.05854 0.9226 0.01821 0.0
H560 H 0.94966 0.87524 0.04123 0.0
H561 H 0.05976 0.97601 0.86758 0.0
H562 H 1.01898 0.90573 0.03349 0.0
H563 H 0.99143 0.94796 0.8954 0.0
C564 C 0.95963 0.92203 0.93225 0.0
C565 C 0.94724 0.90131 0.97299 0.0
C566 C 1.02789 0.92116 -0.00276 0.0
C567 C 0.99291 0.92131 0.96389 0.0
C568 C 0.05055 0.9309 -0.01103 0.0
C569 C 0.06262 0.95082 0.94147 0.0
C570 C 1.01709 0.93138 0.95804 0.0
C571 C 0.05119 0.96055 0.90377 0.0
C572 C 0.98233 0.93203 0.92759 0.0
C573 C 0.95845 0.8912 0.00916 0.0
N574 N 1.02915 0.95077 0.91292 0.0
N575 N 0.9806 0.90127 0.00367 0.0
H576 H 0.83187 0.49945 0.33688 0.0
H577 H 0.82063 0.3823 0.2469 0.0
H578 H 0.77473 0.44485 0.21726 0.0
H579 H 0.87769 0.4367 0.36842 0.0
H580 H 0.80326 0.40464 0.23965 0.0
H581 H 0.8485 0.47652 0.35269 0.0
C582 C 0.8228 0.48265 0.31366 0.0
C583 C 0.80186 0.47417 0.27506 0.0
C584 C 0.81955 0.4117 0.26816 0.0
C585 C 0.82086 0.44765 0.29377 0.0
C586 C 0.82953 0.39893 0.27239 0.0
C587 C 0.85074 0.40759 0.30828 0.0
C588 C 0.8308 0.43339 0.29984 0.0
C589 C 0.86135 0.42928 0.34016 0.0
C590 C 0.8323 0.46951 0.32319 0.0
C591 C 0.7908 0.45211 0.24808 0.0
N592 N 0.85131 0.44141 0.33498 0.0
N593 N 0.80046 0.43969 0.25752 0.0
H594 H 0.64863 0.46871 0.37346 0.0
H595 H 0.63988 0.35588 0.21109 0.0
H596 H 0.70122 0.46469 0.24086 0.0
H597 H 0.58692 0.36036 0.3369 0.0
H598 H 0.66312 0.39545 0.22766 0.0
H599 H 0.62632 0.42895 0.36603 0.0
C600 C 0.65555 0.45951 0.34305 0.0
C601 C 0.6769 0.4702 0.3077 0.0
C602 C 0.64642 0.38777 0.25183 0.0
C603 C 0.65129 0.42444 0.29876 0.0
C604 C 0.63316 0.36512 0.24292 0.0
C605 C 0.61131 0.35466 0.27221 0.0
C606 C 0.63787 0.40018 0.29067 0.0
C607 C 0.60351 0.36765 0.31186 0.0
C608 C 0.64276 0.43675 0.33876 0.0
C609 C 0.68489 0.45727 0.2691 0.0
N610 N 0.61673 0.38964 0.31976 0.0
N611 N 0.6721 0.43514 0.26554 0.0
H612 H 0.61856 0.2635 0.233 0.0
H613 H 0.72569 0.2569 0.35543 0.0
H614 H 0.6169 0.20937 0.37949 0.0
H615 H 0.72657 0.30904 0.19575 0.0
H616 H 0.68614 0.24004 0.37095 0.0
H617 H 0.65819 0.28103 0.22447 0.0
C618 C 0.62649 0.2553 0.26382 0.0
C619 C 0.61424 0.23487 0.30718 0.0
C620 C 0.69497 0.25519 0.33265 0.0
C621 C 0.6599 0.25496 0.29713 0.0
C622 C 0.71762 0.26493 0.32424 0.0
C623 C 0.7296 0.28449 0.27418 0.0
C624 C 0.68408 0.26505 0.29103 0.0
C625 C 0.71808 0.29386 0.23402 0.0
C626 C 0.64919 0.26534 0.25867 0.0
C627 C 0.62558 0.22509 0.34537 0.0
N628 N 0.69604 0.28409 0.24338 0.0
N629 N 0.64772 0.2352 0.33939 0.0
H630 H 0.54393 0.76954 0.70784 0.0
H631 H 0.44001 0.77815 0.54381 0.0
H632 H 0.48766 0.71706 0.57274 0.0
H633 H 0.49735 0.83137 0.66909 0.0
H634 H 0.45639 0.75496 0.56079 0.0
H635 H 0.52648 0.79188 0.70025 0.0
C636 C 0.52788 0.76264 0.67686 0.0
C637 C 0.5173 0.74131 0.64091 0.0
C638 C 0.46538 0.7717 0.58476 0.0
C639 C 0.49717 0.76694 0.63182 0.0
C640 C 0.45596 0.78494 0.57562 0.0
C641 C 0.46731 0.80684 0.60466 0.0
C642 C 0.48632 0.78034 0.62359 0.0
C643 C 0.48809 0.81472 0.64429 0.0
C644 C 0.51792 0.77545 0.67249 0.0
C645 C 0.49649 0.73336 0.60158 0.0
N646 N 0.49689 0.80153 0.65244 0.0
N647 N 0.48716 0.74615 0.59798 0.0
H648 H 0.25317 0.69312 0.68065 0.0
H649 H 0.36892 0.79876 0.57087 0.0
H650 H 0.30582 0.69023 0.54289 0.0
H651 H 0.31637 0.80145 0.71086 0.0
H652 H 0.34653 0.75904 0.56412 0.0
H653 H 0.2764 0.73262 0.6959 0.0
C654 C 0.2696 0.70077 0.6533 0.0
C655 C 0.27743 0.68822 0.60981 0.0
C656 C 0.33991 0.76829 0.59663 0.0
C657 C 0.30432 0.73368 0.62781 0.0
C658 C 0.35272 0.79104 0.60069 0.0
C659 C 0.34459 0.80361 0.64161 0.0
C660 C 0.3187 0.75787 0.63353 0.0
C661 C 0.32339 0.79254 0.6786 0.0
C662 C 0.28292 0.72337 0.6625 0.0
C663 C 0.29907 0.69912 0.57756 0.0
N664 N 0.3112 0.77037 0.67348 0.0
N665 N 0.31168 0.72118 0.5868 0.0
H666 H 0.39483 0.64526 0.54018 0.0
H667 H 0.28302 0.54184 0.7126 0.0
H668 H 0.39111 0.58869 0.67244 0.0
H669 H 0.28615 0.59733 0.57223 0.0
H670 H 0.32272 0.55946 0.70412 0.0
H671 H 0.35533 0.62886 0.55785 0.0
C672 C 0.38577 0.62948 0.57365 0.0
C673 C 0.39641 0.61834 0.60442 0.0
C674 C 0.31474 0.56783 0.67538 0.0
C675 C 0.35099 0.59931 0.62418 0.0
C676 C 0.29201 0.55776 0.68026 0.0
C677 C 0.2811 0.56806 0.6431 0.0
C678 C 0.32678 0.58841 0.63295 0.0
C679 C 0.29376 0.58872 0.60203 0.0
C680 C 0.36316 0.62005 0.5832 0.0
C681 C 0.38366 0.59778 0.64622 0.0
N682 N 0.31586 0.59816 0.59794 0.0
N683 N 0.36171 0.58896 0.65471 0.0
H684 H 1.00525 0.1831 0.67629 0.0
H685 H 0.09346 0.22974 0.26438 0.0
H686 H 0.07456 0.22209 0.72164 0.0
H687 H 1.02464 0.18735 0.21762 0.0
H688 H 0.08668 0.22767 0.43217 0.0
H689 H 1.0118 0.18461 0.50808 0.0
C690 C 1.02184 0.1919 0.65073 0.0
C691 C 0.03939 0.20255 0.71267 0.0
C692 C 0.07303 0.21883 0.38535 0.0
C693 C 0.04703 0.20446 0.52071 0.0
C694 C 0.0769 0.22005 0.28959 0.0
C695 C 0.05958 0.20873 0.22729 0.0
C696 C 0.05165 0.2062 0.41912 0.0
C697 C 0.03844 0.19641 0.26344 0.0
C698 C 1.02558 0.19279 0.5548 0.0
C699 C 0.06057 0.2137 0.67615 0.0
N700 N 0.03506 0.19546 0.35705 0.0
N701 N 0.06379 0.21443 0.58256 0.0
H702 H 0.90139 0.84942 0.6776 0.0
H703 H 0.85465 0.89091 0.2649 0.0
H704 H 0.86194 0.87935 0.7223 0.0
H705 H 0.8973 0.86467 0.21882 0.0
H706 H 0.85663 0.88613 0.43271 0.0
H707 H 0.89996 0.85453 0.50938 0.0
C708 C 0.8925 0.85714 0.65189 0.0
C709 C 0.88171 0.86391 0.71365 0.0
C710 C 0.86555 0.88137 0.38604 0.0
C711 C 0.8799 0.86972 0.52166 0.0
C712 C 0.86438 0.88407 0.29026 0.0
C713 C 0.8758 0.87814 0.22815 0.0
C714 C 0.87822 0.87266 0.42003 0.0
C715 C 0.88817 0.86936 0.2645 0.0
C716 C 0.89166 0.86003 0.55595 0.0
C717 C 0.87044 0.87385 0.67694 0.0
N718 N 0.88907 0.86689 0.35813 0.0
N719 N 0.86978 0.87639 0.58334 0.0
H720 H 0.23576 0.07969 0.67919 0.0
H721 H 0.19374 0.99128 0.26715 0.0
H722 H 0.20495 1.01025 0.72445 0.0
H723 H 0.22075 0.06028 0.22043 0.0
H724 H 0.19842 0.99808 0.43497 0.0
H725 H 0.23074 0.07313 0.51094 0.0
C726 C 0.22786 0.06306 0.6536 0.0
C727 C 0.22082 0.04548 0.71552 0.0
C728 C 0.20337 1.01176 0.38815 0.0
C729 C 0.21512 0.03783 0.52354 0.0
C730 C 0.20074 1.00788 0.29237 0.0
C731 C 0.20691 0.02525 0.23009 0.0
C732 C 0.21226 0.03319 0.42194 0.0
C733 C 0.21587 0.04644 0.26625 0.0
C734 C 0.22503 0.05932 0.55766 0.0
C735 C 0.21066 0.02426 0.67897 0.0
N736 N 0.21828 0.04983 0.35987 0.0
N737 N 0.20818 1.02103 0.58537 0.0
H738 H 0.75963 0.56255 0.5978 0.0
H739 H 0.67141 0.51648 0.00983 0.0
H740 H 0.69074 0.52051 0.55116 0.0
H741 H 0.74074 0.55531 0.0551 0.0
H742 H 0.67795 0.51789 0.84163 0.0
H743 H 0.75286 0.5606 0.76558 0.0
C744 C 0.74306 0.55297 0.62303 0.0
C745 C 0.72571 0.54171 0.56076 0.0
C746 C 0.69174 0.52607 0.88833 0.0
C747 C 0.7178 0.53931 0.7526 0.0
C748 C 0.68801 0.52523 -0.01575 0.0
C749 C 0.70556 0.53585 0.04617 0.0
C750 C 0.71319 0.53765 0.85421 0.0
C751 C 0.72674 0.54694 0.00962 0.0
C752 C 0.7392 0.55181 0.71879 0.0
C753 C 0.70456 0.52952 0.59695 0.0
N754 N 0.72996 0.54761 0.91604 0.0
N755 N 0.70119 0.52863 0.69056 0.0
H756 H 0.56433 0.19697 0.5517 0.0
H757 H 0.52869 0.21294 0.06267 0.0
H758 H 0.52292 0.22438 0.60432 0.0
H759 H 0.56694 0.18197 0.01123 0.0
H760 H 0.52738 0.21828 0.89501 0.0
H761 H 0.56612 0.19187 0.71963 0.0
C762 C 0.55553 0.20181 0.59871 0.0
C763 C 0.54342 0.21106 0.56441 0.0
C764 C 0.53609 0.21033 0.92022 0.0
C765 C 0.54553 0.20549 0.75629 0.0
C766 C 0.53688 0.20733 0.01594 0.0
C767 C 0.54788 0.19694 0.05054 0.0
C768 C 0.54642 0.20291 0.85862 0.0
C769 C 0.55824 0.19002 -0.01286 0.0
C770 C 0.5566 0.19896 0.6945 0.0
C771 C 0.53244 0.21718 0.6281 0.0
N772 N 0.55723 0.19309 0.89412 0.0
N773 N 0.53378 0.21432 0.72099 0.0
H774 H 0.8879 0.39475 0.55057 0.0
H775 H 0.87117 0.34307 0.06162 0.0
H776 H 0.86041 0.32591 0.60334 0.0
H777 H 0.90281 0.41234 0.01008 0.0
H778 H 0.86589 0.33645 0.89398 0.0
H779 H 0.89282 0.40163 0.7185 0.0
C780 C 0.88302 0.38111 0.59761 0.0
C781 C 0.87381 0.35974 0.56335 0.0
C782 C 0.87397 0.35311 0.91916 0.0
C783 C 0.87914 0.36742 0.75524 0.0
C784 C 0.87693 0.35688 0.01487 0.0
C785 C 0.88751 0.37828 0.04942 0.0
C786 C 0.88162 0.37088 0.85754 0.0
C787 C 0.89462 0.39559 -0.01399 0.0
C788 C 0.88576 0.38503 0.6934 0.0
C789 C 0.8676 0.34263 0.62709 0.0
N790 N 0.89158 0.39152 0.89299 0.0
N791 N 0.87034 0.34683 0.72 0.0
H792 H 0.33799 0.84978 0.34413 0.0
H793 H 0.42631 0.89629 0.93241 0.0
H794 H 0.40726 0.88907 0.38974 0.0
H795 H 0.35747 0.85403 0.88549 0.0
H796 H 0.41949 0.89434 0.10017 0.0
H797 H 0.34459 0.85127 0.17596 0.0
C798 C 0.35459 0.85865 0.31864 0.0
C799 C 0.37211 0.86937 0.38067 0.0
C800 C 0.40585 0.8855 0.05333 0.0
C801 C 0.37981 0.87125 0.18869 0.0
C802 C 0.40974 0.88665 0.95757 0.0
C803 C 0.39242 0.87532 0.89522 0.0
C804 C 0.38446 0.87293 0.08707 0.0
C805 C 0.37127 0.86307 0.93134 0.0
C806 C 0.35836 0.85953 0.22272 0.0
C807 C 0.39329 0.88062 0.3442 0.0
N808 N 0.36787 0.86218 0.02494 0.0
N809 N 0.39654 0.88132 0.25062 0.0
H810 H 0.23105 0.53035 0.88544 0.0
H811 H 0.19583 0.54671 0.3966 0.0
H812 H 0.18994 0.55809 0.93829 0.0
H813 H 0.23365 0.51529 0.34495 0.0
H814 H 0.19452 0.55206 0.22897 0.0
H815 H 0.23286 0.52525 0.05334 0.0
C816 C 0.22233 0.53527 0.93249 0.0
C817 C 0.21029 0.54461 0.89825 0.0
C818 C 0.20313 0.54401 0.25412 0.0
C819 C 0.21243 0.53904 0.09013 0.0
C820 C 0.20392 0.54101 0.34983 0.0
C821 C 0.21481 0.53048 0.38437 0.0
C822 C 0.21333 0.53646 0.19246 0.0
C823 C 0.22505 0.52344 0.32091 0.0
C824 C 0.22341 0.53241 0.02827 0.0
C825 C 0.1994 0.55082 0.96201 0.0
N826 N 0.22403 0.52652 0.2279 0.0
N827 N 0.20076 0.54796 0.0549 0.0
H828 H 0.56889 0.74666 0.34344 0.0
H829 H 0.52676 0.65835 0.93093 0.0
H830 H 0.53847 0.67723 0.38836 0.0
H831 H 0.55358 0.72733 0.88467 0.0
H832 H 0.5316 0.66511 0.09875 0.0
H833 H 0.56376 0.74012 0.17521 0.0
C834 C 0.56106 0.73004 0.31778 0.0
C835 C 0.55415 0.71246 0.37961 0.0
C836 C 0.53647 0.6788 0.05203 0.0
C837 C 0.54832 0.70483 0.1876 0.0
C838 C 0.53374 0.67494 0.95625 0.0
C839 C 0.53982 0.69231 0.89408 0.0
C840 C 0.54536 0.70022 0.08596 0.0
C841 C 0.54877 0.71349 0.93038 0.0
C842 C 0.55816 0.72631 0.22183 0.0
C843 C 0.54408 0.69125 0.34295 0.0
N844 N 0.55127 0.71686 0.02401 0.0
N845 N 0.54153 0.68803 0.24935 0.0
loop_
_geom_bond_atom_site_label_1
_geom_bond_atom_site_label_2
_geom_bond_distance
_geom_bond_site_symmetry_2
_ccdc_geom_bond_type
Tb0 C2 2.808 1_556 S
Tb0 O20 2.481 1_556 S
Tb0 O21 2.442 . S
Tb0 O22 2.661 1_655 S
Tb0 O23 2.415 . S
Tb0 O24 2.379 1_655 S
Tb0 O28 2.321 1_656 S
Tb0 O31 2.341 1_556 S
Tb1 C11 2.809 1_554 S
Tb1 O22 2.325 1_554 S
Tb1 O25 2.341 1_554 S
Tb1 O26 2.484 1_554 S
Tb1 O27 2.440 . S
Tb1 O28 2.658 . S
Tb1 O29 2.409 . S
Tb1 O30 2.378 . S
C2 Tb0 2.808 1_554 S
C2 C3 1.514 . S
C2 O20 1.248 . S
C2 O21 1.266 1_554 S
C3 C2 1.514 . S
C3 C4 1.359 . S
C3 C8 1.348 1_554 S
C4 C3 1.359 . S
C4 C5 1.380 . S
C4 H32 0.929 . S
C5 C4 1.380 . S
C5 C6 1.347 . S
C5 H33 0.931 . S
C6 C5 1.347 . S
C6 C7 1.369 1_554 S
C7 C6 1.369 1_556 S
C7 C8 1.408 . S
C7 H34 0.930 . S
C8 C3 1.348 1_556 S
C8 C7 1.408 . S
C8 H35 0.930 . S
C9 O22 1.281 . S
C9 O23 1.254 1_455 S
C10 O24 1.236 . S
C10 O25 1.266 . S
C11 Tb1 2.809 1_556 S
C11 C12 1.514 . S
C11 O26 1.248 . S
C11 O27 1.266 1_556 S
C12 C11 1.514 . S
C12 C13 1.359 . S
C12 C17 1.348 1_556 S
C13 C12 1.359 . S
C13 C14 1.380 . S
C13 H36 0.929 . S
C14 C13 1.380 . S
C14 C15 1.347 . S
C14 H37 0.931 . S
C15 C14 1.347 . S
C15 C16 1.369 1_556 S
C16 C15 1.369 1_554 S
C16 C17 1.408 . S
C16 H38 0.930 . S
C17 C12 1.348 1_554 S
C17 C16 1.408 . S
C17 H39 0.930 . S
C18 O28 1.281 . S
C18 O29 1.254 . S
C19 O30 1.236 1_655 S
C19 O31 1.266 . S
O20 Tb0 2.481 1_554 S
O20 C2 1.248 . S
O21 Tb0 2.442 . S
O21 C2 1.266 1_556 S
O22 Tb0 2.661 1_455 S
O22 Tb1 2.325 1_556 S
O22 C9 1.281 . S
O23 Tb0 2.415 . S
O23 C9 1.254 1_655 S
O24 Tb0 2.379 1_455 S
O24 C10 1.236 . S
O25 Tb1 2.341 1_556 S
O25 C10 1.266 . S
O26 Tb1 2.484 1_556 S
O26 C11 1.248 . S
O27 Tb1 2.440 . S
O27 C11 1.266 1_554 S
O28 Tb0 2.321 1_454 S
O28 Tb1 2.658 . S
O28 C18 1.281 . S
O29 Tb1 2.409 . S
O29 C18 1.254 . S
O30 Tb1 2.378 . S
O30 C19 1.236 1_455 S
O31 Tb0 2.341 1_554 S
O31 C19 1.266 . S
H32 C4 0.929 . S
H33 C5 0.931 . S
H34 C7 0.930 . S
H35 C8 0.930 . S
H36 C13 0.929 . S
H37 C14 0.931 . S
H38 C16 0.930 . S
H39 C17 0.930 . S
Tb40 C42 2.808 1_556 S
Tb40 O60 2.482 1_556 S
Tb40 O61 2.442 . S
Tb40 O62 2.661 . S
Tb40 O63 2.414 . S
Tb40 O64 2.379 . S
Tb40 O68 2.321 1_556 S
Tb40 O71 2.341 1_556 S
Tb41 C51 2.809 1_554 S
Tb41 O62 2.325 1_554 S
Tb41 O65 2.341 1_554 S
Tb41 O66 2.484 1_554 S
Tb41 O67 2.440 . S
Tb41 O68 2.658 . S
Tb41 O69 2.409 . S
Tb41 O70 2.378 . S
C42 Tb40 2.808 1_554 S
C42 C43 1.514 . S
C42 O60 1.248 . S
C42 O61 1.266 1_554 S
C43 C42 1.514 . S
C43 C44 1.359 . S
C43 C48 1.348 1_554 S
C44 C43 1.359 . S
C44 C45 1.380 . S
C44 H72 0.929 . S
C45 C44 1.380 . S
C45 C46 1.347 . S
C45 H73 0.931 . S
C46 C45 1.347 . S
C46 C47 1.369 1_554 S
C47 C46 1.369 1_556 S
C47 C48 1.408 . S
C47 H74 0.930 . S
C48 C43 1.348 1_556 S
C48 C47 1.408 . S
C48 H75 0.930 . S
C49 O62 1.281 . S
C49 O63 1.254 . S
C50 O64 1.236 . S
C50 O65 1.266 . S
C51 Tb41 2.809 1_556 S
C51 C52 1.514 . S
C51 O66 1.248 . S
C51 O67 1.266 1_556 S
C52 C51 1.514 . S
C52 C53 1.359 . S
C52 C57 1.348 1_556 S
C53 C52 1.359 . S
C53 C54 1.380 . S
C53 H76 0.929 . S
C54 C53 1.380 . S
C54 C55 1.347 . S
C54 H77 0.931 . S
C55 C54 1.347 . S
C55 C56 1.369 1_556 S
C56 C55 1.369 1_554 S
C56 C57 1.408 . S
C56 H78 0.930 . S
C57 C52 1.348 1_554 S
C57 C56 1.408 . S
C57 H79 0.930 . S
C58 O68 1.281 . S
C58 O69 1.254 . S
C59 O70 1.236 . S
C59 O71 1.266 . S
O60 Tb40 2.482 1_554 S
O60 C42 1.248 . S
O61 Tb40 2.442 . S
O61 C42 1.266 1_556 S
O62 Tb40 2.661 . S
O62 Tb41 2.325 1_556 S
O62 C49 1.281 . S
O63 Tb40 2.414 . S
O63 C49 1.254 . S
O64 Tb40 2.379 . S
O64 C50 1.236 . S
O65 Tb41 2.341 1_556 S
O65 C50 1.266 . S
O66 Tb41 2.484 1_556 S
O66 C51 1.248 . S
O67 Tb41 2.440 . S
O67 C51 1.266 1_554 S
O68 Tb40 2.321 1_554 S
O68 Tb41 2.658 . S
O68 C58 1.281 . S
O69 Tb41 2.409 . S
O69 C58 1.254 . S
O70 Tb41 2.378 . S
O70 C59 1.236 . S
O71 Tb40 2.341 1_554 S
O71 C59 1.266 . S
H72 C44 0.929 . S
H73 C45 0.931 . S
H74 C47 0.930 . S
H75 C48 0.930 . S
H76 C53 0.929 . S
H77 C54 0.931 . S
H78 C56 0.930 . S
H79 C57 0.930 . S
Tb80 C82 2.808 1_556 S
Tb80 O100 2.482 1_556 S
Tb80 O101 2.442 . S
Tb80 O102 2.661 . S
Tb80 O103 2.414 . S
Tb80 O104 2.379 . S
Tb80 O108 2.321 1_556 S
Tb80 O111 2.341 1_556 S
Tb81 C91 2.809 1_554 S
Tb81 O102 2.325 1_564 S
Tb81 O105 2.341 1_554 S
Tb81 O106 2.484 1_554 S
Tb81 O107 2.440 . S
Tb81 O108 2.658 1_565 S
Tb81 O109 2.409 . S
Tb81 O110 2.378 1_565 S
C82 Tb80 2.808 1_554 S
C82 C83 1.514 . S
C82 O100 1.248 . S
C82 O101 1.266 1_554 S
C83 C82 1.514 . S
C83 C84 1.359 . S
C83 C88 1.348 1_554 S
C84 C83 1.359 . S
C84 C85 1.380 . S
C84 H112 0.929 . S
C85 C84 1.380 . S
C85 C86 1.347 . S
C85 H113 0.931 . S
C86 C85 1.347 . S
C86 C87 1.369 1_554 S
C87 C86 1.369 1_556 S
C87 C88 1.408 . S
C87 H114 0.930 . S
C88 C83 1.348 1_556 S
C88 C87 1.408 . S
C88 H115 0.930 . S
C89 O102 1.281 . S
C89 O103 1.254 . S
C90 O104 1.236 1_565 S
C90 O105 1.266 . S
C91 Tb81 2.809 1_556 S
C91 C92 1.514 . S
C91 O106 1.248 . S
C91 O107 1.266 1_556 S
C92 C91 1.514 . S
C92 C93 1.359 . S
C92 C97 1.348 1_556 S
C93 C92 1.359 . S
C93 C94 1.380 . S
C93 H116 0.929 . S
C94 C93 1.380 . S
C94 C95 1.347 . S
C94 H117 0.931 . S
C95 C94 1.347 . S
C95 C96 1.369 1_556 S
C96 C95 1.369 1_554 S
C96 C97 1.408 . S
C96 H118 0.930 . S
C97 C92 1.348 1_554 S
C97 C96 1.408 . S
C97 H119 0.930 . S
C98 O108 1.281 . S
C98 O109 1.254 1_545 S
C99 O110 1.236 . S
C99 O111 1.266 . S
O100 Tb80 2.482 1_554 S
O100 C82 1.248 . S
O101 Tb80 2.442 . S
O101 C82 1.266 1_556 S
O102 Tb80 2.661 . S
O102 Tb81 2.325 1_546 S
O102 C89 1.281 . S
O103 Tb80 2.414 . S
O103 C89 1.254 . S
O104 Tb80 2.379 . S
O104 C90 1.236 1_545 S
O105 Tb81 2.341 1_556 S
O105 C90 1.266 . S
O106 Tb81 2.484 1_556 S
O106 C91 1.248 . S
O107 Tb81 2.440 . S
O107 C91 1.266 1_554 S
O108 Tb80 2.321 1_554 S
O108 Tb81 2.658 1_545 S
O108 C98 1.281 . S
O109 Tb81 2.409 . S
O109 C98 1.254 1_565 S
O110 Tb81 2.378 1_545 S
O110 C99 1.236 . S
O111 Tb80 2.341 1_554 S
O111 C99 1.266 . S
H112 C84 0.929 . S
H113 C85 0.931 . S
H114 C87 0.930 . S
H115 C88 0.930 . S
H116 C93 0.929 . S
H117 C94 0.931 . S
H118 C96 0.930 . S
H119 C97 0.930 . S
Tb120 C122 2.809 . S
Tb120 O140 2.484 . S
Tb120 O141 2.440 . S
Tb120 O142 2.658 . S
Tb120 O143 2.409 . S
Tb120 O144 2.378 . S
Tb120 O148 2.325 . S
Tb120 O151 2.341 . S
Tb121 C131 2.809 . S
Tb121 O142 2.325 . S
Tb121 O145 2.341 . S
Tb121 O146 2.484 . S
Tb121 O147 2.440 . S
Tb121 O148 2.658 . S
Tb121 O149 2.409 . S
Tb121 O150 2.378 . S
C122 Tb120 2.809 . S
C122 C123 1.514 . S
C122 O140 1.248 . S
C122 O141 1.266 . S
C123 C122 1.514 . S
C123 C124 1.359 . S
C123 C128 1.348 . S
C124 C123 1.359 . S
C124 C125 1.380 . S
C124 H152 0.929 . S
C125 C124 1.380 . S
C125 C126 1.347 . S
C125 H153 0.931 . S
C126 C125 1.347 . S
C126 C127 1.369 . S
C127 C126 1.369 . S
C127 C128 1.408 . S
C127 H154 0.930 . S
C128 C123 1.348 . S
C128 C127 1.408 . S
C128 H155 0.930 . S
C129 O142 1.281 . S
C129 O143 1.254 . S
C130 O144 1.236 . S
C130 O145 1.266 . S
C131 Tb121 2.809 . S
C131 C132 1.514 . S
C131 O146 1.248 . S
C131 O147 1.266 . S
C132 C131 1.514 . S
C132 C133 1.359 . S
C132 C137 1.348 . S
C133 C132 1.359 . S
C133 C134 1.380 . S
C133 H156 0.929 . S
C134 C133 1.380 . S
C134 C135 1.347 . S
C134 H157 0.931 . S
C135 C134 1.347 . S
C135 C136 1.369 . S
C136 C135 1.369 . S
C136 C137 1.408 . S
C136 H158 0.930 . S
C137 C132 1.348 . S
C137 C136 1.408 . S
C137 H159 0.930 . S
C138 O148 1.281 . S
C138 O149 1.254 . S
C139 O150 1.236 . S
C139 O151 1.266 . S
O140 Tb120 2.484 . S
O140 C122 1.248 . S
O141 Tb120 2.440 . S
O141 C122 1.266 . S
O142 Tb120 2.658 . S
O142 Tb121 2.325 . S
O142 C129 1.281 . S
O143 Tb120 2.409 . S
O143 C129 1.254 . S
O144 Tb120 2.378 . S
O144 C130 1.236 . S
O145 Tb121 2.341 . S
O145 C130 1.266 . S
O146 Tb121 2.484 . S
O146 C131 1.248 . S
O147 Tb121 2.440 . S
O147 C131 1.266 . S
O148 Tb120 2.325 . S
O148 Tb121 2.658 . S
O148 C138 1.281 . S
O149 Tb121 2.409 . S
O149 C138 1.254 . S
O150 Tb121 2.378 . S
O150 C139 1.236 . S
O151 Tb120 2.341 . S
O151 C139 1.266 . S
H152 C124 0.929 . S
H153 C125 0.931 . S
H154 C127 0.930 . S
H155 C128 0.930 . S
H156 C133 0.929 . S
H157 C134 0.931 . S
H158 C136 0.930 . S
H159 C137 0.930 . S
Tb160 C162 2.809 . S
Tb160 O180 2.484 . S
Tb160 O181 2.440 . S
Tb160 O182 2.658 . S
Tb160 O183 2.409 . S
Tb160 O184 2.378 . S
Tb160 O188 2.325 . S
Tb160 O191 2.341 . S
Tb161 C171 2.809 . S
Tb161 O182 2.325 . S
Tb161 O185 2.341 . S
Tb161 O186 2.484 . S
Tb161 O187 2.440 . S
Tb161 O188 2.658 . S
Tb161 O189 2.409 . S
Tb161 O190 2.378 . S
C162 Tb160 2.809 . S
C162 C163 1.514 . S
C162 O180 1.248 . S
C162 O181 1.266 . S
C163 C162 1.514 . S
C163 C164 1.359 . S
C163 C168 1.348 . S
C164 C163 1.359 . S
C164 C165 1.380 . S
C164 H192 0.929 . S
C165 C164 1.380 . S
C165 C166 1.347 . S
C165 H193 0.931 . S
C166 C165 1.347 . S
C166 C167 1.369 . S
C167 C166 1.369 . S
C167 C168 1.408 . S
C167 H194 0.930 . S
C168 C163 1.348 . S
C168 C167 1.408 . S
C168 H195 0.930 . S
C169 O182 1.281 . S
C169 O183 1.254 . S
C170 O184 1.236 . S
C170 O185 1.266 . S
C171 Tb161 2.809 . S
C171 C172 1.514 . S
C171 O186 1.248 . S
C171 O187 1.266 . S
C172 C171 1.514 . S
C172 C173 1.359 . S
C172 C177 1.348 . S
C173 C172 1.359 . S
C173 C174 1.380 . S
C173 H196 0.929 . S
C174 C173 1.380 . S
C174 C175 1.347 . S
C174 H197 0.931 . S
C175 C174 1.347 . S
C175 C176 1.369 . S
C176 C175 1.369 . S
C176 C177 1.408 . S
C176 H198 0.930 . S
C177 C172 1.348 . S
C177 C176 1.408 . S
C177 H199 0.930 . S
C178 O188 1.281 . S
C178 O189 1.254 . S
C179 O190 1.236 . S
C179 O191 1.266 . S
O180 Tb160 2.484 . S
O180 C162 1.248 . S
O181 Tb160 2.440 . S
O181 C162 1.266 . S
O182 Tb160 2.658 . S
O182 Tb161 2.325 . S
O182 C169 1.281 . S
O183 Tb160 2.409 . S
O183 C169 1.254 . S
O184 Tb160 2.378 . S
O184 C170 1.236 . S
O185 Tb161 2.341 . S
O185 C170 1.266 . S
O186 Tb161 2.484 . S
O186 C171 1.248 . S
O187 Tb161 2.440 . S
O187 C171 1.266 . S
O188 Tb160 2.325 . S
O188 Tb161 2.658 . S
O188 C178 1.281 . S
O189 Tb161 2.409 . S
O189 C178 1.254 . S
O190 Tb161 2.378 . S
O190 C179 1.236 . S
O191 Tb160 2.341 . S
O191 C179 1.266 . S
H192 C164 0.929 . S
H193 C165 0.931 . S
H194 C167 0.930 . S
H195 C168 0.930 . S
H196 C173 0.929 . S
H197 C174 0.931 . S
H198 C176 0.930 . S
H199 C177 0.930 . S
Tb200 C202 2.809 . S
Tb200 O220 2.484 . S
Tb200 O221 2.440 . S
Tb200 O222 2.658 . S
Tb200 O223 2.409 . S
Tb200 O224 2.378 . S
Tb200 O228 2.325 . S
Tb200 O231 2.341 . S
Tb201 C211 2.809 . S
Tb201 O222 2.325 . S
Tb201 O225 2.341 . S
Tb201 O226 2.484 . S
Tb201 O227 2.440 . S
Tb201 O228 2.658 . S
Tb201 O229 2.409 . S
Tb201 O230 2.378 . S
C202 Tb200 2.809 . S
C202 C203 1.514 . S
C202 O220 1.248 . S
C202 O221 1.266 . S
C203 C202 1.514 . S
C203 C204 1.359 . S
C203 C208 1.348 . S
C204 C203 1.359 . S
C204 C205 1.380 . S
C204 H232 0.929 . S
C205 C204 1.380 . S
C205 C206 1.347 . S
C205 H233 0.931 . S
C206 C205 1.347 . S
C206 C207 1.369 . S
C207 C206 1.369 . S
C207 C208 1.408 . S
C207 H234 0.930 . S
C208 C203 1.348 . S
C208 C207 1.408 . S
C208 H235 0.930 . S
C209 O222 1.281 . S
C209 O223 1.254 . S
C210 O224 1.236 . S
C210 O225 1.266 . S
C211 Tb201 2.809 . S
C211 C212 1.514 . S
C211 O226 1.248 . S
C211 O227 1.266 . S
C212 C211 1.514 . S
C212 C213 1.359 . S
C212 C217 1.348 . S
C213 C212 1.359 . S
C213 C214 1.380 . S
C213 H236 0.929 . S
C214 C213 1.380 . S
C214 C215 1.347 . S
C214 H237 0.931 . S
C215 C214 1.347 . S
C215 C216 1.369 . S
C216 C215 1.369 . S
C216 C217 1.408 . S
C216 H238 0.930 . S
C217 C212 1.348 . S
C217 C216 1.408 . S
C217 H239 0.930 . S
C218 O228 1.281 . S
C218 O229 1.254 . S
C219 O230 1.236 . S
C219 O231 1.266 . S
O220 Tb200 2.484 . S
O220 C202 1.248 . S
O221 Tb200 2.440 . S
O221 C202 1.266 . S
O222 Tb200 2.658 . S
O222 Tb201 2.325 . S
O222 C209 1.281 . S
O223 Tb200 2.409 . S
O223 C209 1.254 . S
O224 Tb200 2.378 . S
O224 C210 1.236 . S
O225 Tb201 2.341 . S
O225 C210 1.266 . S
O226 Tb201 2.484 . S
O226 C211 1.248 . S
O227 Tb201 2.440 . S
O227 C211 1.266 . S
O228 Tb200 2.325 . S
O228 Tb201 2.658 . S
O228 C218 1.281 . S
O229 Tb201 2.409 . S
O229 C218 1.254 . S
O230 Tb201 2.378 . S
O230 C219 1.236 . S
O231 Tb200 2.341 . S
O231 C219 1.266 . S
H232 C204 0.929 . S
H233 C205 0.931 . S
H234 C207 0.930 . S
H235 C208 0.930 . S
H236 C213 0.929 . S
H237 C214 0.931 . S
H238 C216 0.930 . S
H239 C217 0.930 . S
Tb240 C242 2.809 . S
Tb240 O260 2.484 . S
Tb240 O261 2.440 . S
Tb240 O262 2.658 . S
Tb240 O263 2.409 . S
Tb240 O264 2.378 . S
Tb240 O268 2.325 . S
Tb240 O271 2.341 . S
Tb241 C251 2.809 . S
Tb241 O262 2.325 . S
Tb241 O265 2.341 . S
Tb241 O266 2.484 . S
Tb241 O267 2.440 . S
Tb241 O268 2.658 . S
Tb241 O269 2.409 . S
Tb241 O270 2.378 . S
C242 Tb240 2.809 . S
C242 C243 1.514 . S
C242 O260 1.248 . S
C242 O261 1.266 . S
C243 C242 1.514 . S
C243 C244 1.359 . S
C243 C248 1.348 . S
C244 C243 1.359 . S
C244 C245 1.380 . S
C244 H272 0.929 . S
C245 C244 1.380 . S
C245 C246 1.347 . S
C245 H273 0.931 . S
C246 C245 1.347 . S
C246 C247 1.369 . S
C247 C246 1.369 . S
C247 C248 1.408 . S
C247 H274 0.930 . S
C248 C243 1.348 . S
C248 C247 1.408 . S
C248 H275 0.930 . S
C249 O262 1.281 . S
C249 O263 1.254 . S
C250 O264 1.236 . S
C250 O265 1.266 . S
C251 Tb241 2.809 . S
C251 C252 1.514 . S
C251 O266 1.248 . S
C251 O267 1.266 . S
C252 C251 1.514 . S
C252 C253 1.359 . S
C252 C257 1.348 . S
C253 C252 1.359 . S
C253 C254 1.380 . S
C253 H276 0.929 . S
C254 C253 1.380 . S
C254 C255 1.347 . S
C254 H277 0.931 . S
C255 C254 1.347 . S
C255 C256 1.369 . S
C256 C255 1.369 . S
C256 C257 1.408 . S
C256 H278 0.930 . S
C257 C252 1.348 . S
C257 C256 1.408 . S
C257 H279 0.930 . S
C258 O268 1.281 . S
C258 O269 1.254 . S
C259 O270 1.236 . S
C259 O271 1.266 . S
O260 Tb240 2.484 . S
O260 C242 1.248 . S
O261 Tb240 2.440 . S
O261 C242 1.266 . S
O262 Tb240 2.658 . S
O262 Tb241 2.325 . S
O262 C249 1.281 . S
O263 Tb240 2.409 . S
O263 C249 1.254 . S
O264 Tb240 2.378 . S
O264 C250 1.236 . S
O265 Tb241 2.341 . S
O265 C250 1.266 . S
O266 Tb241 2.484 . S
O266 C251 1.248 . S
O267 Tb241 2.440 . S
O267 C251 1.266 . S
O268 Tb240 2.325 . S
O268 Tb241 2.658 . S
O268 C258 1.281 . S
O269 Tb241 2.409 . S
O269 C258 1.254 . S
O270 Tb241 2.378 . S
O270 C259 1.236 . S
O271 Tb240 2.341 . S
O271 C259 1.266 . S
H272 C244 0.929 . S
H273 C245 0.931 . S
H274 C247 0.930 . S
H275 C248 0.930 . S
H276 C253 0.929 . S
H277 C254 0.931 . S
H278 C256 0.930 . S
H279 C257 0.930 . S
Tb280 C282 2.809 . S
Tb280 O300 2.484 . S
Tb280 O301 2.440 . S
Tb280 O302 2.658 . S
Tb280 O303 2.409 . S
Tb280 O304 2.378 . S
Tb280 O308 2.325 . S
Tb280 O311 2.341 . S
Tb281 C291 2.809 . S
Tb281 O302 2.325 . S
Tb281 O305 2.341 . S
Tb281 O306 2.484 . S
Tb281 O307 2.440 . S
Tb281 O308 2.658 . S
Tb281 O309 2.409 . S
Tb281 O310 2.378 . S
C282 Tb280 2.809 . S
C282 C283 1.514 . S
C282 O300 1.248 . S
C282 O301 1.266 . S
C283 C282 1.514 . S
C283 C284 1.359 . S
C283 C288 1.348 . S
C284 C283 1.359 . S
C284 C285 1.380 . S
C284 H312 0.929 . S
C285 C284 1.380 . S
C285 C286 1.347 . S
C285 H313 0.931 . S
C286 C285 1.347 . S
C286 C287 1.369 . S
C287 C286 1.369 . S
C287 C288 1.408 . S
C287 H314 0.930 . S
C288 C283 1.348 . S
C288 C287 1.408 . S
C288 H315 0.930 . S
C289 O302 1.281 . S
C289 O303 1.254 . S
C290 O304 1.236 . S
C290 O305 1.266 . S
C291 Tb281 2.809 . S
C291 C292 1.514 . S
C291 O306 1.248 . S
C291 O307 1.266 . S
C292 C291 1.514 . S
C292 C293 1.359 . S
C292 C297 1.348 . S
C293 C292 1.359 . S
C293 C294 1.380 . S
C293 H316 0.929 . S
C294 C293 1.380 . S
C294 C295 1.347 . S
C294 H317 0.931 . S
C295 C294 1.347 . S
C295 C296 1.369 . S
C296 C295 1.369 . S
C296 C297 1.408 . S
C296 H318 0.930 . S
C297 C292 1.348 . S
C297 C296 1.408 . S
C297 H319 0.930 . S
C298 O308 1.281 . S
C298 O309 1.254 . S
C299 O310 1.236 . S
C299 O311 1.266 . S
O300 Tb280 2.484 . S
O300 C282 1.248 . S
O301 Tb280 2.440 . S
O301 C282 1.266 . S
O302 Tb280 2.658 . S
O302 Tb281 2.325 . S
O302 C289 1.281 . S
O303 Tb280 2.409 . S
O303 C289 1.254 . S
O304 Tb280 2.378 . S
O304 C290 1.236 . S
O305 Tb281 2.341 . S
O305 C290 1.266 . S
O306 Tb281 2.484 . S
O306 C291 1.248 . S
O307 Tb281 2.440 . S
O307 C291 1.266 . S
O308 Tb280 2.325 . S
O308 Tb281 2.658 . S
O308 C298 1.281 . S
O309 Tb281 2.409 . S
O309 C298 1.254 . S
O310 Tb281 2.378 . S
O310 C299 1.236 . S
O311 Tb280 2.341 . S
O311 C299 1.266 . S
H312 C284 0.929 . S
H313 C285 0.931 . S
H314 C287 0.930 . S
H315 C288 0.930 . S
H316 C293 0.929 . S
H317 C294 0.931 . S
H318 C296 0.930 . S
H319 C297 0.930 . S
Tb320 C322 2.809 . S
Tb320 O340 2.484 . S
Tb320 O341 2.440 . S
Tb320 O342 2.658 . S
Tb320 O343 2.409 . S
Tb320 O344 2.378 . S
Tb320 O348 2.325 . S
Tb320 O351 2.341 . S
Tb321 C331 2.809 . S
Tb321 O342 2.325 . S
Tb321 O345 2.341 . S
Tb321 O346 2.484 . S
Tb321 O347 2.440 . S
Tb321 O348 2.658 . S
Tb321 O349 2.409 . S
Tb321 O350 2.378 . S
C322 Tb320 2.809 . S
C322 C323 1.514 . S
C322 O340 1.248 . S
C322 O341 1.266 . S
C323 C322 1.514 . S
C323 C324 1.359 . S
C323 C328 1.348 . S
C324 C323 1.359 . S
C324 C325 1.380 . S
C324 H352 0.929 . S
C325 C324 1.380 . S
C325 C326 1.347 . S
C325 H353 0.931 . S
C326 C325 1.347 . S
C326 C327 1.369 . S
C327 C326 1.369 . S
C327 C328 1.408 . S
C327 H354 0.930 . S
C328 C323 1.348 . S
C328 C327 1.408 . S
C328 H355 0.930 . S
C329 O342 1.281 . S
C329 O343 1.254 . S
C330 O344 1.236 . S
C330 O345 1.266 . S
C331 Tb321 2.809 . S
C331 C332 1.514 . S
C331 O346 1.248 . S
C331 O347 1.266 . S
C332 C331 1.514 . S
C332 C333 1.359 . S
C332 C337 1.348 . S
C333 C332 1.359 . S
C333 C334 1.380 . S
C333 H356 0.929 . S
C334 C333 1.380 . S
C334 C335 1.347 . S
C334 H357 0.931 . S
C335 C334 1.347 . S
C335 C336 1.369 . S
C336 C335 1.369 . S
C336 C337 1.408 . S
C336 H358 0.930 . S
C337 C332 1.348 . S
C337 C336 1.408 . S
C337 H359 0.930 . S
C338 O348 1.281 . S
C338 O349 1.254 . S
C339 O350 1.236 . S
C339 O351 1.266 . S
O340 Tb320 2.484 . S
O340 C322 1.248 . S
O341 Tb320 2.440 . S
O341 C322 1.266 . S
O342 Tb320 2.658 . S
O342 Tb321 2.325 . S
O342 C329 1.281 . S
O343 Tb320 2.409 . S
O343 C329 1.254 . S
O344 Tb320 2.378 . S
O344 C330 1.236 . S
O345 Tb321 2.341 . S
O345 C330 1.266 . S
O346 Tb321 2.484 . S
O346 C331 1.248 . S
O347 Tb321 2.440 . S
O347 C331 1.266 . S
O348 Tb320 2.325 . S
O348 Tb321 2.658 . S
O348 C338 1.281 . S
O349 Tb321 2.409 . S
O349 C338 1.254 . S
O350 Tb321 2.378 . S
O350 C339 1.236 . S
O351 Tb320 2.341 . S
O351 C339 1.266 . S
H352 C324 0.929 . S
H353 C325 0.931 . S
H354 C327 0.930 . S
H355 C328 0.930 . S
H356 C333 0.929 . S
H357 C334 0.931 . S
H358 C336 0.930 . S
H359 C337 0.930 . S
H360 C366 0.930 . S
H361 C370 0.930 . S
H362 C375 0.929 . S
H363 C373 0.929 . S
H364 C368 0.929 . S
H365 C374 0.929 . S
C366 H360 0.930 . S
C366 C367 1.367 1_554 S
C366 C374 1.378 1_554 S
C367 C366 1.367 1_556 S
C367 C375 1.433 . S
C368 H364 0.929 . S
C368 C370 1.378 . S
C368 C372 1.350 . S
C369 C372 1.463 . S
C369 C374 1.350 . S
C369 N377 1.427 . S
C370 H361 0.930 . S
C370 C368 1.378 . S
C370 C371 1.367 . S
C371 C370 1.367 . S
C371 C373 1.433 . S
C372 C368 1.350 . S
C372 C369 1.463 . S
C372 N376 1.427 . S
C373 H363 0.929 . S
C373 C371 1.433 . S
C373 N376 1.384 . S
C374 H365 0.929 . S
C374 C366 1.378 1_556 S
C374 C369 1.350 . S
C375 H362 0.929 . S
C375 C367 1.433 . S
C375 N377 1.384 . S
N376 C372 1.427 . S
N376 C373 1.384 . S
N377 C369 1.427 . S
N377 C375 1.384 . S
H378 C384 0.930 . S
H379 C388 0.930 . S
H380 C393 0.929 . S
H381 C391 0.929 . S
H382 C386 0.929 . S
H383 C392 0.929 . S
C384 H378 0.930 . S
C384 C385 1.367 . S
C384 C392 1.378 . S
C385 C384 1.367 . S
C385 C393 1.433 1_556 S
C386 H382 0.929 . S
C386 C388 1.378 . S
C386 C390 1.350 . S
C387 C390 1.463 . S
C387 C392 1.350 . S
C387 N395 1.427 . S
C388 H379 0.930 . S
C388 C386 1.378 . S
C388 C389 1.367 . S
C389 C388 1.367 . S
C389 C391 1.433 . S
C390 C386 1.350 . S
C390 C387 1.463 . S
C390 N394 1.427 . S
C391 H381 0.929 . S
C391 C389 1.433 . S
C391 N394 1.384 . S
C392 H383 0.929 . S
C392 C384 1.378 . S
C392 C387 1.350 . S
C393 H380 0.929 . S
C393 C385 1.433 1_554 S
C393 N395 1.384 1_554 S
N394 C390 1.427 . S
N394 C391 1.384 . S
N395 C387 1.427 . S
N395 C393 1.384 1_556 S
H396 C402 0.930 . S
H397 C406 0.930 . S
H398 C411 0.929 1_545 S
H399 C409 0.929 . S
H400 C404 0.929 . S
H401 C410 0.929 . S
C402 H396 0.930 . S
C402 C403 1.367 1_554 S
C402 C410 1.378 1_554 S
C403 C402 1.367 1_556 S
C403 C411 1.433 . S
C404 H400 0.929 . S
C404 C406 1.378 . S
C404 C408 1.350 . S
C405 C408 1.463 . S
C405 C410 1.350 . S
C405 N413 1.427 . S
C406 H397 0.930 . S
C406 C404 1.378 . S
C406 C407 1.367 . S
C407 C406 1.367 . S
C407 C409 1.433 . S
C408 C404 1.350 . S
C408 C405 1.463 . S
C408 N412 1.427 . S
C409 H399 0.929 . S
C409 C407 1.433 . S
C409 N412 1.384 . S
C410 H401 0.929 . S
C410 C402 1.378 1_556 S
C410 C405 1.350 . S
C411 H398 0.929 1_565 S
C411 C403 1.433 . S
C411 N413 1.384 . S
N412 C408 1.427 . S
N412 C409 1.384 . S
N413 C405 1.427 . S
N413 C411 1.384 . S
H414 C420 0.930 . S
H415 C424 0.930 . S
H416 C429 0.929 . S
H417 C427 0.929 . S
H418 C422 0.929 . S
H419 C428 0.929 . S
C420 H414 0.930 . S
C420 C421 1.367 . S
C420 C428 1.378 . S
C421 C420 1.367 . S
C421 C429 1.433 . S
C422 H418 0.929 . S
C422 C424 1.378 . S
C422 C426 1.350 . S
C423 C426 1.463 . S
C423 C428 1.350 . S
C423 N431 1.427 . S
C424 H415 0.930 . S
C424 C422 1.378 . S
C424 C425 1.367 . S
C425 C424 1.367 . S
C425 C427 1.433 . S
C426 C422 1.350 . S
C426 C423 1.463 . S
C426 N430 1.427 . S
C427 H417 0.929 . S
C427 C425 1.433 . S
C427 N430 1.384 . S
C428 H419 0.929 . S
C428 C420 1.378 . S
C428 C423 1.350 . S
C429 H416 0.929 . S
C429 C421 1.433 . S
C429 N431 1.384 . S
N430 C426 1.427 . S
N430 C427 1.384 . S
N431 C423 1.427 . S
N431 C429 1.384 . S
H432 C438 0.930 . S
H433 C442 0.930 . S
H434 C447 0.929 . S
H435 C445 0.929 . S
H436 C440 0.929 . S
H437 C446 0.929 . S
C438 H432 0.930 . S
C438 C439 1.367 . S
C438 C446 1.378 . S
C439 C438 1.367 . S
C439 C447 1.433 . S
C440 H436 0.929 . S
C440 C442 1.378 . S
C440 C444 1.350 . S
C441 C444 1.463 . S
C441 C446 1.350 . S
C441 N449 1.427 . S
C442 H433 0.930 . S
C442 C440 1.378 . S
C442 C443 1.367 . S
C443 C442 1.367 . S
C443 C445 1.433 . S
C444 C440 1.350 . S
C444 C441 1.463 . S
C444 N448 1.427 . S
C445 H435 0.929 . S
C445 C443 1.433 . S
C445 N448 1.384 . S
C446 H437 0.929 . S
C446 C438 1.378 . S
C446 C441 1.350 . S
C447 H434 0.929 . S
C447 C439 1.433 . S
C447 N449 1.384 . S
N448 C444 1.427 . S
N448 C445 1.384 . S
N449 C441 1.427 . S
N449 C447 1.384 . S
H450 C456 0.930 . S
H451 C460 0.930 . S
H452 C465 0.929 . S
H453 C463 0.929 . S
H454 C458 0.929 . S
H455 C464 0.929 . S
C456 H450 0.930 . S
C456 C457 1.367 . S
C456 C464 1.378 . S
C457 C456 1.367 . S
C457 C465 1.433 . S
C458 H454 0.929 . S
C458 C460 1.378 . S
C458 C462 1.350 . S
C459 C462 1.463 . S
C459 C464 1.350 . S
C459 N467 1.427 . S
C460 H451 0.930 . S
C460 C458 1.378 . S
C460 C461 1.367 . S
C461 C460 1.367 . S
C461 C463 1.433 . S
C462 C458 1.350 . S
C462 C459 1.463 . S
C462 N466 1.427 . S
C463 H453 0.929 . S
C463 C461 1.433 . S
C463 N466 1.384 . S
C464 H455 0.929 . S
C464 C456 1.378 . S
C464 C459 1.350 . S
C465 H452 0.929 . S
C465 C457 1.433 . S
C465 N467 1.384 . S
N466 C462 1.427 . S
N466 C463 1.384 . S
N467 C459 1.427 . S
N467 C465 1.384 . S
H468 C474 0.930 . S
H469 C478 0.930 . S
H470 C483 0.929 . S
H471 C481 0.929 . S
H472 C476 0.929 . S
H473 C482 0.929 . S
C474 H468 0.930 . S
C474 C475 1.367 . S
C474 C482 1.378 . S
C475 C474 1.367 . S
C475 C483 1.433 . S
C476 H472 0.929 . S
C476 C478 1.378 . S
C476 C480 1.350 . S
C477 C480 1.463 . S
C477 C482 1.350 . S
C477 N485 1.427 . S
C478 H469 0.930 . S
C478 C476 1.378 . S
C478 C479 1.367 . S
C479 C478 1.367 . S
C479 C481 1.433 . S
C480 C476 1.350 . S
C480 C477 1.463 . S
C480 N484 1.427 . S
C481 H471 0.929 . S
C481 C479 1.433 . S
C481 N484 1.384 . S
C482 H473 0.929 . S
C482 C474 1.378 . S
C482 C477 1.350 . S
C483 H470 0.929 . S
C483 C475 1.433 . S
C483 N485 1.384 . S
N484 C480 1.427 . S
N484 C481 1.384 . S
N485 C477 1.427 . S
N485 C483 1.384 . S
H486 C492 0.930 . S
H487 C496 0.930 . S
H488 C501 0.929 . S
H489 C499 0.929 . S
H490 C494 0.929 . S
H491 C500 0.929 . S
C492 H486 0.930 . S
C492 C493 1.367 . S
C492 C500 1.378 . S
C493 C492 1.367 . S
C493 C501 1.433 . S
C494 H490 0.929 . S
C494 C496 1.378 . S
C494 C498 1.350 . S
C495 C498 1.463 . S
C495 C500 1.350 . S
C495 N503 1.427 . S
C496 H487 0.930 . S
C496 C494 1.378 . S
C496 C497 1.367 . S
C497 C496 1.367 . S
C497 C499 1.433 . S
C498 C494 1.350 . S
C498 C495 1.463 . S
C498 N502 1.427 . S
C499 H489 0.929 . S
C499 C497 1.433 . S
C499 N502 1.384 . S
C500 H491 0.929 . S
C500 C492 1.378 . S
C500 C495 1.350 . S
C501 H488 0.929 . S
C501 C493 1.433 . S
C501 N503 1.384 . S
N502 C498 1.427 . S
N502 C499 1.384 . S
N503 C495 1.427 . S
N503 C501 1.384 . S
H504 C510 0.930 . S
H505 C514 0.930 . S
H506 C519 0.929 . S
H507 C517 0.929 . S
H508 C512 0.929 . S
H509 C518 0.929 . S
C510 H504 0.930 . S
C510 C511 1.367 . S
C510 C518 1.378 1_545 S
C511 C510 1.367 . S
C511 C519 1.433 . S
C512 H508 0.929 . S
C512 C514 1.378 . S
C512 C516 1.350 . S
C513 C516 1.463 . S
C513 C518 1.350 . S
C513 N521 1.427 . S
C514 H505 0.930 . S
C514 C512 1.378 . S
C514 C515 1.367 . S
C515 C514 1.367 . S
C515 C517 1.433 . S
C516 C512 1.350 . S
C516 C513 1.463 . S
C516 N520 1.427 . S
C517 H507 0.929 . S
C517 C515 1.433 . S
C517 N520 1.384 . S
C518 H509 0.929 . S
C518 C510 1.378 1_565 S
C518 C513 1.350 . S
C519 H506 0.929 . S
C519 C511 1.433 . S
C519 N521 1.384 1_545 S
N520 C516 1.427 . S
N520 C517 1.384 . S
N521 C513 1.427 . S
N521 C519 1.384 1_565 S
H522 C528 0.930 . S
H523 C532 0.930 . S
H524 C537 0.929 . S
H525 C535 0.929 . S
H526 C530 0.929 . S
H527 C536 0.929 . S
C528 H522 0.930 . S
C528 C529 1.367 . S
C528 C536 1.378 . S
C529 C528 1.367 . S
C529 C537 1.433 1_554 S
C530 H526 0.929 . S
C530 C532 1.378 . S
C530 C534 1.350 . S
C531 C534 1.463 . S
C531 C536 1.350 1_556 S
C531 N539 1.427 . S
C532 H523 0.930 . S
C532 C530 1.378 . S
C532 C533 1.367 . S
C533 C532 1.367 . S
C533 C535 1.433 1_556 S
C534 C530 1.350 . S
C534 C531 1.463 . S
C534 N538 1.427 1_556 S
C535 H525 0.929 . S
C535 C533 1.433 1_554 S
C535 N538 1.384 . S
C536 H527 0.929 . S
C536 C528 1.378 . S
C536 C531 1.350 1_554 S
C537 H524 0.929 . S
C537 C529 1.433 1_556 S
C537 N539 1.384 . S
N538 C534 1.427 1_554 S
N538 C535 1.384 . S
N539 C531 1.427 . S
N539 C537 1.384 . S
H540 C546 0.930 . S
H541 C550 0.930 . S
H542 C555 0.929 . S
H543 C553 0.929 . S
H544 C548 0.929 . S
H545 C554 0.929 . S
C546 H540 0.930 . S
C546 C547 1.367 . S
C546 C554 1.378 . S
C547 C546 1.367 . S
C547 C555 1.433 1_556 S
C548 H544 0.929 . S
C548 C550 1.378 . S
C548 C552 1.350 1_554 S
C549 C552 1.463 . S
C549 C554 1.350 . S
C549 N557 1.427 1_556 S
C550 H541 0.930 . S
C550 C548 1.378 . S
C550 C551 1.367 . S
C551 C550 1.367 . S
C551 C553 1.433 1_554 S
C552 C548 1.350 1_556 S
C552 C549 1.463 . S
C552 N556 1.427 . S
C553 H543 0.929 . S
C553 C551 1.433 1_556 S
C553 N556 1.384 . S
C554 H545 0.929 . S
C554 C546 1.378 . S
C554 C549 1.350 . S
C555 H542 0.929 . S
C555 C547 1.433 1_554 S
C555 N557 1.384 . S
N556 C552 1.427 . S
N556 C553 1.384 . S
N557 C549 1.427 1_554 S
N557 C555 1.384 . S
H558 C564 0.930 . S
H559 C568 0.930 . S
H560 C573 0.929 . S
H561 C571 0.929 . S
H562 C566 0.929 . S
H563 C572 0.929 . S
C564 H558 0.930 . S
C564 C565 1.367 . S
C564 C572 1.378 . S
C565 C564 1.367 . S
C565 C573 1.433 1_554 S
C566 H562 0.929 . S
C566 C568 1.378 1_655 S
C566 C570 1.350 . S
C567 C570 1.463 . S
C567 C572 1.350 1_556 S
C567 N575 1.427 . S
C568 H559 0.930 . S
C568 C566 1.378 1_455 S
C568 C569 1.367 . S
C569 C568 1.367 . S
C569 C571 1.433 . S
C570 C566 1.350 . S
C570 C567 1.463 . S
C570 N574 1.427 . S
C571 H561 0.929 . S
C571 C569 1.433 . S
C571 N574 1.384 1_455 S
C572 H563 0.929 . S
C572 C564 1.378 . S
C572 C567 1.350 1_554 S
C573 H560 0.929 . S
C573 C565 1.433 1_556 S
C573 N575 1.384 . S
N574 C570 1.427 . S
N574 C571 1.384 1_655 S
N575 C567 1.427 . S
N575 C573 1.384 . S
H576 C582 0.930 . S
H577 C586 0.930 . S
H578 C591 0.929 . S
H579 C589 0.929 . S
H580 C584 0.929 . S
H581 C590 0.929 . S
C582 H576 0.930 . S
C582 C583 1.367 . S
C582 C590 1.378 . S
C583 C582 1.367 . S
C583 C591 1.433 . S
C584 H580 0.929 . S
C584 C586 1.378 . S
C584 C588 1.350 . S
C585 C588 1.463 . S
C585 C590 1.350 . S
C585 N593 1.427 . S
C586 H577 0.930 . S
C586 C584 1.378 . S
C586 C587 1.367 . S
C587 C586 1.367 . S
C587 C589 1.433 . S
C588 C584 1.350 . S
C588 C585 1.463 . S
C588 N592 1.427 . S
C589 H579 0.929 . S
C589 C587 1.433 . S
C589 N592 1.384 . S
C590 H581 0.929 . S
C590 C582 1.378 . S
C590 C585 1.350 . S
C591 H578 0.929 . S
C591 C583 1.433 . S
C591 N593 1.384 . S
N592 C588 1.427 . S
N592 C589 1.384 . S
N593 C585 1.427 . S
N593 C591 1.384 . S
H594 C600 0.930 . S
H595 C604 0.930 . S
H596 C609 0.929 . S
H597 C607 0.929 . S
H598 C602 0.929 . S
H599 C608 0.929 . S
C600 H594 0.930 . S
C600 C601 1.367 . S
C600 C608 1.378 . S
C601 C600 1.367 . S
C601 C609 1.433 . S
C602 H598 0.929 . S
C602 C604 1.378 . S
C602 C606 1.350 . S
C603 C606 1.463 . S
C603 C608 1.350 . S
C603 N611 1.427 . S
C604 H595 0.930 . S
C604 C602 1.378 . S
C604 C605 1.367 . S
C605 C604 1.367 . S
C605 C607 1.433 . S
C606 C602 1.350 . S
C606 C603 1.463 . S
C606 N610 1.427 . S
C607 H597 0.929 . S
C607 C605 1.433 . S
C607 N610 1.384 . S
C608 H599 0.929 . S
C608 C600 1.378 . S
C608 C603 1.350 . S
C609 H596 0.929 . S
C609 C601 1.433 . S
C609 N611 1.384 . S
N610 C606 1.427 . S
N610 C607 1.384 . S
N611 C603 1.427 . S
N611 C609 1.384 . S
H612 C618 0.930 . S
H613 C622 0.930 . S
H614 C627 0.929 . S
H615 C625 0.929 . S
H616 C620 0.929 . S
H617 C626 0.929 . S
C618 H612 0.930 . S
C618 C619 1.367 . S
C618 C626 1.378 . S
C619 C618 1.367 . S
C619 C627 1.433 . S
C620 H616 0.929 . S
C620 C622 1.378 . S
C620 C624 1.350 . S
C621 C624 1.463 . S
C621 C626 1.350 . S
C621 N629 1.427 . S
C622 H613 0.930 . S
C622 C620 1.378 . S
C622 C623 1.367 . S
C623 C622 1.367 . S
C623 C625 1.433 . S
C624 C620 1.350 . S
C624 C621 1.463 . S
C624 N628 1.427 . S
C625 H615 0.929 . S
C625 C623 1.433 . S
C625 N628 1.384 . S
C626 H617 0.929 . S
C626 C618 1.378 . S
C626 C621 1.350 . S
C627 H614 0.929 . S
C627 C619 1.433 . S
C627 N629 1.384 . S
N628 C624 1.427 . S
N628 C625 1.384 . S
N629 C621 1.427 . S
N629 C627 1.384 . S
H630 C636 0.930 . S
H631 C640 0.930 . S
H632 C645 0.929 . S
H633 C643 0.929 . S
H634 C638 0.929 . S
H635 C644 0.929 . S
C636 H630 0.930 . S
C636 C637 1.367 . S
C636 C644 1.378 . S
C637 C636 1.367 . S
C637 C645 1.433 . S
C638 H634 0.929 . S
C638 C640 1.378 . S
C638 C642 1.350 . S
C639 C642 1.463 . S
C639 C644 1.350 . S
C639 N647 1.427 . S
C640 H631 0.930 . S
C640 C638 1.378 . S
C640 C641 1.367 . S
C641 C640 1.367 . S
C641 C643 1.433 . S
C642 C638 1.350 . S
C642 C639 1.463 . S
C642 N646 1.427 . S
C643 H633 0.929 . S
C643 C641 1.433 . S
C643 N646 1.384 . S
C644 H635 0.929 . S
C644 C636 1.378 . S
C644 C639 1.350 . S
C645 H632 0.929 . S
C645 C637 1.433 . S
C645 N647 1.384 . S
N646 C642 1.427 . S
N646 C643 1.384 . S
N647 C639 1.427 . S
N647 C645 1.384 . S
H648 C654 0.930 . S
H649 C658 0.930 . S
H650 C663 0.929 . S
H651 C661 0.929 . S
H652 C656 0.929 . S
H653 C662 0.929 . S
C654 H648 0.930 . S
C654 C655 1.367 . S
C654 C662 1.378 . S
C655 C654 1.367 . S
C655 C663 1.433 . S
C656 H652 0.929 . S
C656 C658 1.378 . S
C656 C660 1.350 . S
C657 C660 1.463 . S
C657 C662 1.350 . S
C657 N665 1.427 . S
C658 H649 0.930 . S
C658 C656 1.378 . S
C658 C659 1.367 . S
C659 C658 1.367 . S
C659 C661 1.433 . S
C660 C656 1.350 . S
C660 C657 1.463 . S
C660 N664 1.427 . S
C661 H651 0.929 . S
C661 C659 1.433 . S
C661 N664 1.384 . S
C662 H653 0.929 . S
C662 C654 1.378 . S
C662 C657 1.350 . S
C663 H650 0.929 . S
C663 C655 1.433 . S
C663 N665 1.384 . S
N664 C660 1.427 . S
N664 C661 1.384 . S
N665 C657 1.427 . S
N665 C663 1.384 . S
H666 C672 0.930 . S
H667 C676 0.930 . S
H668 C681 0.929 . S
H669 C679 0.929 . S
H670 C674 0.929 . S
H671 C680 0.929 . S
C672 H666 0.930 . S
C672 C673 1.367 . S
C672 C680 1.378 . S
C673 C672 1.367 . S
C673 C681 1.433 . S
C674 H670 0.929 . S
C674 C676 1.378 . S
C674 C678 1.350 . S
C675 C678 1.463 . S
C675 C680 1.350 . S
C675 N683 1.427 . S
C676 H667 0.930 . S
C676 C674 1.378 . S
C676 C677 1.367 . S
C677 C676 1.367 . S
C677 C679 1.433 . S
C678 C674 1.350 . S
C678 C675 1.463 . S
C678 N682 1.427 . S
C679 H669 0.929 . S
C679 C677 1.433 . S
C679 N682 1.384 . S
C680 H671 0.929 . S
C680 C672 1.378 . S
C680 C675 1.350 . S
C681 H668 0.929 . S
C681 C673 1.433 . S
C681 N683 1.384 . S
N682 C678 1.427 . S
N682 C679 1.384 . S
N683 C675 1.427 . S
N683 C681 1.384 . S
H684 C690 0.930 . S
H685 C694 0.930 . S
H686 C699 0.929 . S
H687 C697 0.929 . S
H688 C692 0.929 . S
H689 C698 0.929 . S
C690 H684 0.930 . S
C690 C691 1.367 1_655 S
C690 C698 1.378 . S
C691 C690 1.367 1_455 S
C691 C699 1.433 . S
C692 H688 0.929 . S
C692 C694 1.378 . S
C692 C696 1.350 . S
C693 C696 1.463 . S
C693 C698 1.350 1_455 S
C693 N701 1.427 . S
C694 H685 0.930 . S
C694 C692 1.378 . S
C694 C695 1.367 . S
C695 C694 1.367 . S
C695 C697 1.433 1_455 S
C696 C692 1.350 . S
C696 C693 1.463 . S
C696 N700 1.427 1_455 S
C697 H687 0.929 . S
C697 C695 1.433 1_655 S
C697 N700 1.384 . S
C698 H689 0.929 . S
C698 C690 1.378 . S
C698 C693 1.350 1_655 S
C699 H686 0.929 . S
C699 C691 1.433 . S
C699 N701 1.384 . S
N700 C696 1.427 1_655 S
N700 C697 1.384 . S
N701 C693 1.427 . S
N701 C699 1.384 . S
H702 C708 0.930 . S
H703 C712 0.930 . S
H704 C717 0.929 . S
H705 C715 0.929 . S
H706 C710 0.929 . S
H707 C716 0.929 . S
C708 H702 0.930 . S
C708 C709 1.367 . S
C708 C716 1.378 . S
C709 C708 1.367 . S
C709 C717 1.433 . S
C710 H706 0.929 . S
C710 C712 1.378 . S
C710 C714 1.350 . S
C711 C714 1.463 . S
C711 C716 1.350 . S
C711 N719 1.427 . S
C712 H703 0.930 . S
C712 C710 1.378 . S
C712 C713 1.367 . S
C713 C712 1.367 . S
C713 C715 1.433 . S
C714 C710 1.350 . S
C714 C711 1.463 . S
C714 N718 1.427 . S
C715 H705 0.929 . S
C715 C713 1.433 . S
C715 N718 1.384 . S
C716 H707 0.929 . S
C716 C708 1.378 . S
C716 C711 1.350 . S
C717 H704 0.929 . S
C717 C709 1.433 . S
C717 N719 1.384 . S
N718 C714 1.427 . S
N718 C715 1.384 . S
N719 C711 1.427 . S
N719 C717 1.384 . S
H720 C726 0.930 . S
H721 C730 0.929 . S
H722 C735 0.929 . S
H723 C733 0.929 . S
H724 C728 0.929 . S
H725 C734 0.929 . S
C726 H720 0.930 . S
C726 C727 1.367 . S
C726 C734 1.378 . S
C727 C726 1.367 . S
C727 C735 1.433 . S
C728 H724 0.929 . S
C728 C730 1.378 . S
C728 C732 1.350 . S
C729 C732 1.463 . S
C729 C734 1.350 . S
C729 N737 1.427 . S
C730 H721 0.929 . S
C730 C728 1.378 . S
C730 C731 1.367 . S
C731 C730 1.367 . S
C731 C733 1.433 . S
C732 C728 1.350 . S
C732 C729 1.463 . S
C732 N736 1.427 . S
C733 H723 0.929 . S
C733 C731 1.433 . S
C733 N736 1.384 . S
C734 H725 0.929 . S
C734 C726 1.378 . S
C734 C729 1.350 . S
C735 H722 0.929 . S
C735 C727 1.433 . S
C735 N737 1.384 . S
N736 C732 1.427 . S
N736 C733 1.384 . S
N737 C729 1.427 . S
N737 C735 1.384 . S
H738 C744 0.930 . S
H739 C748 0.930 . S
H740 C753 0.929 . S
H741 C751 0.929 . S
H742 C746 0.929 . S
H743 C752 0.929 . S
C744 H738 0.930 . S
C744 C745 1.367 . S
C744 C752 1.378 . S
C745 C744 1.367 . S
C745 C753 1.433 . S
C746 H742 0.929 . S
C746 C748 1.378 1_556 S
C746 C750 1.350 . S
C747 C750 1.463 . S
C747 C752 1.350 . S
C747 N755 1.427 . S
C748 H739 0.930 . S
C748 C746 1.378 1_554 S
C748 C749 1.367 . S
C749 C748 1.367 . S
C749 C751 1.433 . S
C750 C746 1.350 . S
C750 C747 1.463 . S
C750 N754 1.427 . S
C751 H741 0.929 . S
C751 C749 1.433 . S
C751 N754 1.384 1_554 S
C752 H743 0.929 . S
C752 C744 1.378 . S
C752 C747 1.350 . S
C753 H740 0.929 . S
C753 C745 1.433 . S
C753 N755 1.384 . S
N754 C750 1.427 . S
N754 C751 1.384 1_556 S
N755 C747 1.427 . S
N755 C753 1.384 . S
H756 C762 0.930 . S
H757 C766 0.930 . S
H758 C771 0.929 . S
H759 C769 0.929 . S
H760 C764 0.929 . S
H761 C770 0.929 . S
C762 H756 0.930 . S
C762 C763 1.367 . S
C762 C770 1.378 . S
C763 C762 1.367 . S
C763 C771 1.433 . S
C764 H760 0.929 . S
C764 C766 1.378 1_556 S
C764 C768 1.350 . S
C765 C768 1.463 . S
C765 C770 1.350 . S
C765 N773 1.427 . S
C766 H757 0.930 . S
C766 C764 1.378 1_554 S
C766 C767 1.367 . S
C767 C766 1.367 . S
C767 C769 1.433 . S
C768 C764 1.350 . S
C768 C765 1.463 . S
C768 N772 1.427 . S
C769 H759 0.929 . S
C769 C767 1.433 . S
C769 N772 1.384 1_554 S
C770 H761 0.929 . S
C770 C762 1.378 . S
C770 C765 1.350 . S
C771 H758 0.929 . S
C771 C763 1.433 . S
C771 N773 1.384 . S
N772 C768 1.427 . S
N772 C769 1.384 1_556 S
N773 C765 1.427 . S
N773 C771 1.384 . S
H774 C780 0.930 . S
H775 C784 0.930 . S
H776 C789 0.929 . S
H777 C787 0.929 . S
H778 C782 0.929 . S
H779 C788 0.929 . S
C780 H774 0.930 . S
C780 C781 1.367 . S
C780 C788 1.378 . S
C781 C780 1.367 . S
C781 C789 1.433 . S
C782 H778 0.929 . S
C782 C784 1.378 1_556 S
C782 C786 1.350 . S
C783 C786 1.463 . S
C783 C788 1.350 . S
C783 N791 1.427 . S
C784 H775 0.930 . S
C784 C782 1.378 1_554 S
C784 C785 1.367 . S
C785 C784 1.367 . S
C785 C787 1.433 . S
C786 C782 1.350 . S
C786 C783 1.463 . S
C786 N790 1.427 . S
C787 H777 0.929 . S
C787 C785 1.433 . S
C787 N790 1.384 1_554 S
C788 H779 0.929 . S
C788 C780 1.378 . S
C788 C783 1.350 . S
C789 H776 0.929 . S
C789 C781 1.433 . S
C789 N791 1.384 . S
N790 C786 1.427 . S
N790 C787 1.384 1_556 S
N791 C783 1.427 . S
N791 C789 1.384 . S
H792 C798 0.930 . S
H793 C802 0.930 . S
H794 C807 0.929 . S
H795 C805 0.929 . S
H796 C800 0.929 . S
H797 C806 0.929 . S
C798 H792 0.930 . S
C798 C799 1.367 . S
C798 C806 1.378 . S
C799 C798 1.367 . S
C799 C807 1.433 . S
C800 H796 0.929 . S
C800 C802 1.378 1_554 S
C800 C804 1.350 . S
C801 C804 1.463 . S
C801 C806 1.350 . S
C801 N809 1.427 . S
C802 H793 0.930 . S
C802 C800 1.378 1_556 S
C802 C803 1.367 . S
C803 C802 1.367 . S
C803 C805 1.433 . S
C804 C800 1.350 . S
C804 C801 1.463 . S
C804 N808 1.427 . S
C805 H795 0.929 . S
C805 C803 1.433 . S
C805 N808 1.384 1_556 S
C806 H797 0.929 . S
C806 C798 1.378 . S
C806 C801 1.350 . S
C807 H794 0.929 . S
C807 C799 1.433 . S
C807 N809 1.384 . S
N808 C804 1.427 . S
N808 C805 1.384 1_554 S
N809 C801 1.427 . S
N809 C807 1.384 . S
H810 C816 0.930 . S
H811 C820 0.930 . S
H812 C825 0.929 . S
H813 C823 0.929 . S
H814 C818 0.929 . S
H815 C824 0.929 . S
C816 H810 0.930 . S
C816 C817 1.367 . S
C816 C824 1.378 1_556 S
C817 C816 1.367 . S
C817 C825 1.433 . S
C818 H814 0.929 . S
C818 C820 1.378 . S
C818 C822 1.350 . S
C819 C822 1.463 . S
C819 C824 1.350 . S
C819 N827 1.427 . S
C820 H811 0.930 . S
C820 C818 1.378 . S
C820 C821 1.367 . S
C821 C820 1.367 . S
C821 C823 1.433 . S
C822 C818 1.350 . S
C822 C819 1.463 . S
C822 N826 1.427 . S
C823 H813 0.929 . S
C823 C821 1.433 . S
C823 N826 1.384 . S
C824 H815 0.929 . S
C824 C816 1.378 1_554 S
C824 C819 1.350 . S
C825 H812 0.929 . S
C825 C817 1.433 . S
C825 N827 1.384 1_556 S
N826 C822 1.427 . S
N826 C823 1.384 . S
N827 C819 1.427 . S
N827 C825 1.384 1_554 S
H828 C834 0.930 . S
H829 C838 0.930 . S
H830 C843 0.929 . S
H831 C841 0.929 . S
H832 C836 0.929 . S
H833 C842 0.929 . S
C834 H828 0.930 . S
C834 C835 1.367 . S
C834 C842 1.378 . S
C835 C834 1.367 . S
C835 C843 1.433 . S
C836 H832 0.929 . S
C836 C838 1.378 1_554 S
C836 C840 1.350 . S
C837 C840 1.463 . S
C837 C842 1.350 . S
C837 N845 1.427 . S
C838 H829 0.930 . S
C838 C836 1.378 1_556 S
C838 C839 1.367 . S
C839 C838 1.367 . S
C839 C841 1.433 . S
C840 C836 1.350 . S
C840 C837 1.463 . S
C840 N844 1.427 . S
C841 H831 0.929 . S
C841 C839 1.433 . S
C841 N844 1.384 1_556 S
C842 H833 0.929 . S
C842 C834 1.378 . S
C842 C837 1.350 . S
C843 H830 0.929 . S
C843 C835 1.433 . S
C843 N845 1.384 . S
N844 C840 1.427 . S
N844 C841 1.384 1_554 S
N845 C837 1.427 . S
N845 C843 1.384 . S
C367 C10 1.843 . S
C371 C286 1.894 . S
C385 C50 1.833 . S
C389 C326 1.888 . S
C403 C90 1.843 . S
C407 C246 1.894 . S
C421 C170 1.842 . S
C425 C86 1.890 . S
C439 C210 1.838 . S
C443 C6 1.892 . S
C457 C46 1.889 . S
C461 C130 1.834 . S
C475 C290 1.844 . S
C479 C206 1.891 1_455 S
C493 C330 1.839 . S
C497 C126 1.892 . S
C511 C166 1.894 . S
C515 C250 1.845 . S
C529 C99 1.733 . S
C533 C15 1.719 . S
C547 C55 1.721 1_545 S
C551 C19 1.732 . S
C565 C59 1.734 . S
C569 C95 1.718 . S
C583 C135 1.720 . S
C587 C219 1.733 . S
C601 C139 1.732 . S
C605 C175 1.723 . S
C619 C179 1.733 . S
C623 C215 1.718 . S
C637 C339 1.732 . S
C641 C255 1.722 . S
C655 C295 1.718 . S
C659 C259 1.733 . S
C673 C335 1.722 . S
C677 C299 1.732 . S
C691 C9 1.038 . S
C695 C18 1.038 . S
C709 C49 1.041 . S
C713 C58 1.041 . S
C727 C89 1.035 . S
C731 C98 1.035 . S
C745 C138 1.034 . S
C749 C129 1.034 . S
C763 C178 1.052 . S
C767 C169 1.052 . S
C781 C218 1.047 . S
C785 C209 1.047 . S
C799 C249 1.038 . S
C803 C258 1.038 . S
C817 C298 1.052 . S
C821 C289 1.052 . S
C835 C329 1.034 . S
C839 C338 1.034 . S
