# Generated by pormake.
# Topology wgb, (5)-cn, num edge types: 1
# Building blocks:
#     Node 0, Type 0, BuildingBlock: XOMCOT_clean_sbu_1, # of connection points: 5
#     Node 1, Type 0, BuildingBlock: XOMCOT_clean_sbu_1, # of connection points: 5
#     Node 2, Type 0, BuildingBlock: XOMCOT_clean_sbu_1, # of connection points: 5
#     Node 3, Type 0, BuildingBlock: XOMCOT_clean_sbu_1, # of connection points: 5
#     Node 4, Type 0, BuildingBlock: XOMCOT_clean_sbu_1, # of connection points: 5
#     Node 5, Type 0, BuildingBlock: XOMCOT_clean_sbu_1, # of connection points: 5
#     Node 6, Type 0, BuildingBlock: XOMCOT_clean_sbu_1, # of connection points: 5
#     Node 7, Type 0, BuildingBlock: XOMCOT_clean_sbu_1, # of connection points: 5
#     Node 8, Type 0, BuildingBlock: XOMCOT_clean_sbu_1, # of connection points: 5
#     Node 9, Type 0, BuildingBlock: XOMCOT_clean_sbu_1, # of connection points: 5
#     Node 10, Type 0, BuildingBlock: XOMCOT_clean_sbu_1, # of connection points: 5
#     Node 11, Type 0, BuildingBlock: XOMCOT_clean_sbu_1, # of connection points: 5
#     Node 12, Type 0, BuildingBlock: XOMCOT_clean_sbu_1, # of connection points: 5
#     Node 13, Type 0, BuildingBlock: XOMCOT_clean_sbu_1, # of connection points: 5
#     Node 14, Type 0, BuildingBlock: XOMCOT_clean_sbu_1, # of connection points: 5
#     Node 15, Type 0, BuildingBlock: XOMCOT_clean_sbu_1, # of connection points: 5
#     Edge 16, Type (0, 0), BuildingBlock: ZUJKAS_clean_linker_0, # of connection points: 2
#     Edge 17, Type (0, 0), BuildingBlock: ZUJKAS_clean_linker_0, # of connection points: 2
#     Edge 18, Type (0, 0), BuildingBlock: ZUJKAS_clean_linker_0, # of connection points: 2
#     Edge 19, Type (0, 0), BuildingBlock: ZUJKAS_clean_linker_0, # of connection points: 2
#     Edge 20, Type (0, 0), BuildingBlock: ZUJKAS_clean_linker_0, # of connection points: 2
#     Edge 21, Type (0, 0), BuildingBlock: ZUJKAS_clean_linker_0, # of connection points: 2
#     Edge 22, Type (0, 0), BuildingBlock: ZUJKAS_clean_linker_0, # of connection points: 2
#     Edge 23, Type (0, 0), BuildingBlock: ZUJKAS_clean_linker_0, # of connection points: 2
#     Edge 24, Type (0, 0), BuildingBlock: ZUJKAS_clean_linker_0, # of connection points: 2
#     Edge 25, Type (0, 0), BuildingBlock: ZUJKAS_clean_linker_0, # of connection points: 2
#     Edge 26, Type (0, 0), BuildingBlock: ZUJKAS_clean_linker_0, # of connection points: 2
#     Edge 27, Type (0, 0), BuildingBlock: ZUJKAS_clean_linker_0, # of connection points: 2
#     Edge 28, Type (0, 0), BuildingBlock: ZUJKAS_clean_linker_0, # of connection points: 2
#     Edge 29, Type (0, 0), BuildingBlock: ZUJKAS_clean_linker_0, # of connection points: 2
#     Edge 30, Type (0, 0), BuildingBlock: ZUJKAS_clean_linker_0, # of connection points: 2
#     Edge 31, Type (0, 0), BuildingBlock: ZUJKAS_clean_linker_0, # of connection points: 2
#     Edge 32, Type (0, 0), BuildingBlock: ZUJKAS_clean_linker_0, # of connection points: 2
#     Edge 33, Type (0, 0), BuildingBlock: ZUJKAS_clean_linker_0, # of connection points: 2
#     Edge 34, Type (0, 0), BuildingBlock: ZUJKAS_clean_linker_0, # of connection points: 2
#     Edge 35, Type (0, 0), BuildingBlock: ZUJKAS_clean_linker_0, # of connection points: 2
#     Edge 36, Type (0, 0), BuildingBlock: ZUJKAS_clean_linker_0, # of connection points: 2
#     Edge 37, Type (0, 0), BuildingBlock: ZUJKAS_clean_linker_0, # of connection points: 2
#     Edge 38, Type (0, 0), BuildingBlock: ZUJKAS_clean_linker_0, # of connection points: 2
#     Edge 39, Type (0, 0), BuildingBlock: ZUJKAS_clean_linker_0, # of connection points: 2
#     Edge 40, Type (0, 0), BuildingBlock: ZUJKAS_clean_linker_0, # of connection points: 2
#     Edge 41, Type (0, 0), BuildingBlock: ZUJKAS_clean_linker_0, # of connection points: 2
#     Edge 42, Type (0, 0), BuildingBlock: ZUJKAS_clean_linker_0, # of connection points: 2
#     Edge 43, Type (0, 0), BuildingBlock: ZUJKAS_clean_linker_0, # of connection points: 2
#     Edge 44, Type (0, 0), BuildingBlock: ZUJKAS_clean_linker_0, # of connection points: 2
#     Edge 45, Type (0, 0), BuildingBlock: ZUJKAS_clean_linker_0, # of connection points: 2
#     Edge 46, Type (0, 0), BuildingBlock: ZUJKAS_clean_linker_0, # of connection points: 2
#     Edge 47, Type (0, 0), BuildingBlock: ZUJKAS_clean_linker_0, # of connection points: 2
#     Edge 48, Type (0, 0), BuildingBlock: ZUJKAS_clean_linker_0, # of connection points: 2
#     Edge 49, Type (0, 0), BuildingBlock: ZUJKAS_clean_linker_0, # of connection points: 2
#     Edge 50, Type (0, 0), BuildingBlock: ZUJKAS_clean_linker_0, # of connection points: 2
#     Edge 51, Type (0, 0), BuildingBlock: ZUJKAS_clean_linker_0, # of connection points: 2
#     Edge 52, Type (0, 0), BuildingBlock: ZUJKAS_clean_linker_0, # of connection points: 2
#     Edge 53, Type (0, 0), BuildingBlock: ZUJKAS_clean_linker_0, # of connection points: 2
#     Edge 54, Type (0, 0), BuildingBlock: ZUJKAS_clean_linker_0, # of connection points: 2
#     Edge 55, Type (0, 0), BuildingBlock: ZUJKAS_clean_linker_0, # of connection points: 2
# Relax obj value: 0.110
# Max RMSD: 0.130
# Mean RMSD: 0.130
data_MOF--net-wgb--node1-XOMCOT_clean_sbu_1--edge1-ZUJKAS_clean_linker_0
_symmetry_space_group_name_H-M    P1
_symmetry_Int_Tables_number       1
_symmetry_cell_setting            triclinic
loop_
_symmetry_equiv_pos_as_xyz
'x, y, z'
_cell_length_a     74.194713
_cell_length_b     74.194295
_cell_length_c     33.418294
_cell_angle_alpha  90.015057
_cell_angle_beta   89.965295
_cell_angle_gamma 90.025395
loop_
_atom_site_label
_atom_site_type_symbol
_atom_site_fract_x
_atom_site_fract_y
_atom_site_fract_z
_atom_type_partial_charge
C0 C 0.36292 0.07981 0.11845 0.0
C1 C 0.3673 0.06183 0.11829 0.0
N2 N 0.36031 0.05413 0.1514 0.0
N3 N 0.35315 0.0835 0.15137 0.0
C4 C 0.35182 0.06765 0.17105 0.0
H5 H 0.36677 0.08968 0.09622 0.0
Co6 Co 0.34514 0.10647 0.16363 0.0
C7 C 0.31133 0.10126 0.20854 0.0
O8 O 0.30394 0.11306 0.18423 0.0
N9 N 0.33783 0.13032 0.17646 0.0
C10 C 0.33108 0.15437 0.21371 0.0
C11 C 0.33355 0.13604 0.21375 0.0
C12 C 0.33882 0.14575 0.15484 0.0
N13 N 0.33449 0.16044 0.17664 0.0
O14 O 0.36367 0.10846 0.20295 0.0
H15 H 0.33308 0.12756 0.24003 0.0
H16 H 0.34345 0.14653 0.12434 0.0
O17 O 0.32796 0.09693 0.20404 0.0
C18 C 0.3771 0.11672 0.1878 0.0
O19 O 0.37581 0.12249 0.15072 0.0
N20 N 0.32823 0.1044 0.12166 0.0
C21 C 0.30745 0.10065 0.05247 0.0
C22 C 0.30446 0.08949 0.08566 0.0
C23 C 0.31539 0.09119 0.11949 0.0
C24 C 0.33217 0.11432 0.0885 0.0
C25 C 0.32172 0.11301 0.05397 0.0
H26 H 0.31379 0.08155 0.14341 0.0
H27 H 0.34409 0.12263 0.08793 0.0
H28 H 0.34477 0.06609 0.19916 0.0
H29 H 0.37543 0.0551 0.09593 0.0
H30 H 0.32807 0.16272 0.23943 0.0
H31 H 0.2942 0.0791 0.08496 0.0
H32 H 0.32495 0.12145 0.02853 0.0
C33 C 0.07673 0.64961 0.88169 0.0
C34 C 0.05861 0.64598 0.8814 0.0
N35 N 0.05241 0.64831 0.84385 0.0
N36 N 0.082 0.65447 0.84465 0.0
C37 C 0.06692 0.65352 0.82211 0.0
H38 H 0.08561 0.6484 0.90718 0.0
Co39 Co 0.10587 0.65871 0.83091 0.0
C40 C 0.10631 0.69122 0.7811 0.0
O41 O 0.12005 0.69638 0.80316 0.0
N42 N 0.13036 0.66201 0.81671 0.0
C43 C 0.1546 0.66296 0.77735 0.0
C44 C 0.13616 0.66184 0.77835 0.0
C45 C 0.14575 0.66271 0.83847 0.0
N46 N 0.16068 0.66347 0.81526 0.0
O47 O 0.10499 0.639 0.79421 0.0
H48 H 0.12748 0.66072 0.75248 0.0
H49 H 0.14625 0.66185 0.87058 0.0
O50 O 0.09863 0.67605 0.78846 0.0
C51 C 0.109 0.62453 0.81266 0.0
O52 O 0.11215 0.62548 0.85131 0.0
N53 N 0.10654 0.67698 0.87027 0.0
C54 C 0.10457 0.69938 0.93742 0.0
C55 C 0.09474 0.70338 0.90271 0.0
C56 C 0.09548 0.69173 0.86997 0.0
C57 C 0.1154 0.67243 0.9045 0.0
C58 C 0.11494 0.68359 0.93807 0.0
H59 H 0.08649 0.69424 0.84523 0.0
H60 H 0.12189 0.65944 0.90677 0.0
H61 H 0.06677 0.65588 0.79016 0.0
H62 H 0.05068 0.64181 0.90695 0.0
H63 H 0.16283 0.6633 0.75063 0.0
H64 H 0.08617 0.71517 0.90111 0.0
H65 H 0.12191 0.67938 0.96495 0.0
C66 C 0.64002 0.92713 0.11912 0.0
C67 C 0.63433 0.94466 0.12339 0.0
N68 N 0.6416 0.95135 0.15716 0.0
N69 N 0.65072 0.92273 0.15022 0.0
C70 C 0.65141 0.93779 0.17301 0.0
H71 H 0.63677 0.91819 0.09461 0.0
Co72 Co 0.66145 0.90015 0.15664 0.0
C73 C 0.69345 0.9155 0.20334 0.0
O74 O 0.70422 0.91662 0.17237 0.0
N75 N 0.67176 0.87716 0.16349 0.0
C76 C 0.69114 0.85454 0.17069 0.0
C77 C 0.68913 0.87293 0.17107 0.0
C78 C 0.66348 0.86103 0.15876 0.0
N79 N 0.67501 0.84705 0.16276 0.0
O80 O 0.64355 0.89431 0.1961 0.0
H81 H 0.69993 0.88245 0.17502 0.0
H82 H 0.64945 0.85959 0.15063 0.0
O83 O 0.6774 0.90934 0.1997 0.0
C84 C 0.62875 0.88987 0.1794 0.0
O85 O 0.62816 0.88914 0.14013 0.0
N86 N 0.67772 0.90551 0.11408 0.0
C87 C 0.69757 0.91196 0.04422 0.0
C88 C 0.69484 0.92572 0.07231 0.0
C89 C 0.6845 0.92234 0.10651 0.0
C90 C 0.6795 0.89234 0.08578 0.0
C91 C 0.68964 0.89513 0.05124 0.0
H92 H 0.68215 0.93331 0.12713 0.0
H93 H 0.67267 0.87958 0.08916 0.0
H94 H 0.65895 0.93885 0.20062 0.0
H95 H 0.62587 0.95207 0.10277 0.0
H96 H 0.70361 0.84728 0.1753 0.0
H97 H 0.70027 0.93909 0.06746 0.0
H98 H 0.69115 0.88416 0.03013 0.0
C99 C 0.92773 0.36053 0.88295 0.0
C100 C 0.94579 0.36458 0.88275 0.0
N101 N 0.9528 0.35911 0.84757 0.0
N102 N 0.92336 0.35239 0.84827 0.0
C103 C 0.93886 0.35183 0.82707 0.0
H104 H 0.91829 0.3634 0.90679 0.0
Co105 Co 0.90017 0.34495 0.83624 0.0
C106 C 0.9043 0.311 0.79176 0.0
O107 O 0.89226 0.30412 0.81626 0.0
N108 N 0.87614 0.33823 0.82369 0.0
C109 C 0.85184 0.33238 0.78656 0.0
C110 C 0.87022 0.33449 0.78629 0.0
C111 C 0.86083 0.33917 0.8457 0.0
N112 N 0.84595 0.33541 0.82398 0.0
O113 O 0.89851 0.36353 0.79696 0.0
H114 H 0.87863 0.3341 0.75988 0.0
H115 H 0.86025 0.34331 0.87655 0.0
O116 O 0.90921 0.3275 0.79577 0.0
C117 C 0.89074 0.37709 0.81274 0.0
O118 O 0.88555 0.37589 0.85026 0.0
N119 N 0.90191 0.32798 0.87819 0.0
C120 C 0.90502 0.30693 0.9471 0.0
C121 C 0.91629 0.30387 0.91408 0.0
C122 C 0.91485 0.31488 0.88032 0.0
C123 C 0.89207 0.3321 0.91137 0.0
C124 C 0.89302 0.32148 0.94569 0.0
H125 H 0.92445 0.31308 0.85635 0.0
H126 H 0.88422 0.3443 0.91219 0.0
H127 H 0.93991 0.34613 0.79735 0.0
H128 H 0.9531 0.37138 0.90634 0.0
H129 H 0.84336 0.32982 0.76083 0.0
H130 H 0.92623 0.29318 0.91441 0.0
H131 H 0.88493 0.32509 0.97147 0.0
C132 C 0.35502 0.43087 0.13714 0.0
C133 C 0.35921 0.44888 0.13633 0.0
N134 N 0.35739 0.45487 0.09845 0.0
N135 N 0.35037 0.42546 0.10007 0.0
C136 C 0.35198 0.44034 0.07705 0.0
H137 H 0.35564 0.42217 0.16304 0.0
Co138 Co 0.3452 0.40171 0.08616 0.0
C139 C 0.31215 0.40365 0.03778 0.0
O140 O 0.30577 0.39057 0.06026 0.0
N141 N 0.34077 0.37742 0.07157 0.0
C142 C 0.33705 0.3535 0.03188 0.0
C143 C 0.33882 0.3719 0.03319 0.0
C144 C 0.34105 0.36184 0.09277 0.0
N145 N 0.33851 0.34721 0.06939 0.0
O146 O 0.36462 0.40195 0.04854 0.0
H147 H 0.33909 0.3807 0.00741 0.0
H148 H 0.34351 0.36091 0.12446 0.0
O149 O 0.328 0.40989 0.04449 0.0
C150 C 0.37974 0.40031 0.06615 0.0
O151 O 0.37999 0.39922 0.1054 0.0
N152 N 0.32722 0.40154 0.12628 0.0
C153 C 0.30515 0.40325 0.19401 0.0
C154 C 0.3016 0.41407 0.16054 0.0
C155 C 0.31308 0.41337 0.12743 0.0
C156 C 0.33149 0.39188 0.1596 0.0
C157 C 0.32044 0.39216 0.19336 0.0
H158 H 0.31093 0.42288 0.10347 0.0
H159 H 0.34419 0.38486 0.16114 0.0
H160 H 0.34985 0.44032 0.04502 0.0
H161 H 0.36334 0.4569 0.16178 0.0
H162 H 0.33553 0.3453 0.00529 0.0
H163 H 0.29027 0.42326 0.16015 0.0
H164 H 0.32435 0.38443 0.21943 0.0
C165 C 0.42606 0.64564 0.86942 0.0
C166 C 0.44385 0.64045 0.86949 0.0
N167 N 0.4514 0.64592 0.90414 0.0
N168 N 0.4224 0.65442 0.90372 0.0
C169 C 0.43802 0.6543 0.92444 0.0
H170 H 0.41634 0.64311 0.84599 0.0
Co171 Co 0.39982 0.66335 0.91669 0.0
C172 C 0.4078 0.69698 0.9605 0.0
O173 O 0.39697 0.70526 0.9354 0.0
N174 N 0.37633 0.67147 0.93038 0.0
C175 C 0.35259 0.67995 0.96676 0.0
C176 C 0.37098 0.67817 0.96613 0.0
C177 C 0.36063 0.66823 0.91099 0.0
N178 N 0.34602 0.67365 0.93197 0.0
O179 O 0.39719 0.64467 0.95554 0.0
H180 H 0.37965 0.68063 0.99148 0.0
H181 H 0.35971 0.66058 0.88362 0.0
O182 O 0.41036 0.67993 0.95713 0.0
C183 C 0.38946 0.63127 0.93896 0.0
O184 O 0.38482 0.63271 0.90114 0.0
N185 N 0.40244 0.68058 0.87505 0.0
C186 C 0.40726 0.70206 0.80697 0.0
C187 C 0.41987 0.70238 0.83821 0.0
C188 C 0.41741 0.69127 0.87156 0.0
C189 C 0.3907 0.67938 0.84382 0.0
C190 C 0.39254 0.6903 0.81016 0.0
H191 H 0.42779 0.69099 0.89421 0.0
H192 H 0.38037 0.66927 0.84363 0.0
H193 H 0.43954 0.66034 0.9537 0.0
H194 H 0.45055 0.63292 0.8461 0.0
H195 H 0.34471 0.685 0.99159 0.0
H196 H 0.43187 0.71066 0.83638 0.0
H197 H 0.3826 0.68925 0.78655 0.0
C198 C 0.64591 0.57737 0.13608 0.0
C199 C 0.64172 0.55935 0.13567 0.0
N200 N 0.6457 0.55265 0.09919 0.0
N201 N 0.65268 0.58209 0.10021 0.0
C202 C 0.65233 0.56681 0.0782 0.0
H203 H 0.64419 0.58652 0.161 0.0
Co204 Co 0.65959 0.60551 0.08757 0.0
C205 C 0.69369 0.60044 0.04336 0.0
O206 O 0.70104 0.61208 0.06814 0.0
N207 N 0.66553 0.62971 0.07447 0.0
C208 C 0.67199 0.65438 0.03914 0.0
C209 C 0.67198 0.6359 0.03919 0.0
C210 C 0.66057 0.64492 0.0941 0.0
N211 N 0.66478 0.66012 0.07382 0.0
O212 O 0.64079 0.60671 0.04881 0.0
H213 H 0.67555 0.62765 0.01377 0.0
H214 H 0.65269 0.64492 0.12124 0.0
O215 O 0.67692 0.59647 0.0469 0.0
C216 C 0.62632 0.61173 0.06604 0.0
O217 O 0.6268 0.61478 0.10478 0.0
N218 N 0.67714 0.60426 0.12892 0.0
C219 C 0.69902 0.60072 0.19671 0.0
C220 C 0.7002 0.58831 0.16518 0.0
C221 C 0.68891 0.59012 0.13196 0.0
C222 C 0.67528 0.61587 0.16026 0.0
C223 C 0.68635 0.61466 0.19381 0.0
H224 H 0.6893 0.5798 0.10915 0.0
H225 H 0.66456 0.62556 0.16068 0.0
H226 H 0.65654 0.5662 0.04723 0.0
H227 H 0.63635 0.55177 0.16063 0.0
H228 H 0.67659 0.66285 0.01485 0.0
H229 H 0.70926 0.57689 0.16675 0.0
H230 H 0.68467 0.62441 0.21765 0.0
C231 C 0.58156 0.36799 0.87546 0.0
C232 C 0.5644 0.37479 0.87904 0.0
N233 N 0.55676 0.36747 0.91177 0.0
N234 N 0.58474 0.3565 0.90589 0.0
C235 C 0.56939 0.35651 0.92768 0.0
H236 H 0.59112 0.3711 0.85202 0.0
Co237 Co 0.60654 0.34456 0.91328 0.0
C238 C 0.5896 0.31234 0.95587 0.0
O239 O 0.58905 0.30234 0.92358 0.0
N240 N 0.62897 0.33308 0.9212 0.0
C241 C 0.65087 0.31293 0.92889 0.0
C242 C 0.63256 0.31551 0.92812 0.0
C243 C 0.64541 0.34084 0.91796 0.0
N244 N 0.65903 0.32889 0.92239 0.0
O245 O 0.61245 0.36173 0.95417 0.0
H246 H 0.6227 0.30493 0.93052 0.0
H247 H 0.64733 0.35494 0.91142 0.0
O248 O 0.59594 0.32842 0.95457 0.0
C249 C 0.61895 0.37608 0.93883 0.0
O250 O 0.62117 0.3767 0.89983 0.0
N251 N 0.60105 0.32904 0.86943 0.0
C252 C 0.59472 0.30867 0.80039 0.0
C253 C 0.58056 0.31294 0.82645 0.0
C254 C 0.58393 0.32345 0.86033 0.0
C255 C 0.6146 0.32619 0.84246 0.0
C256 C 0.61184 0.31574 0.80837 0.0
H257 H 0.5728 0.32646 0.88006 0.0
H258 H 0.62768 0.33225 0.84672 0.0
H259 H 0.56749 0.34872 0.95473 0.0
H260 H 0.55791 0.38412 0.85874 0.0
H261 H 0.65755 0.30005 0.93211 0.0
H262 H 0.56704 0.30798 0.82114 0.0
H263 H 0.62298 0.31353 0.78798 0.0
C264 C 0.85957 0.57845 0.61746 0.0
C265 C 0.86501 0.56075 0.6183 0.0
N266 N 0.86119 0.55392 0.65474 0.0
N267 N 0.8522 0.58275 0.65301 0.0
C268 C 0.85344 0.56762 0.67524 0.0
H269 H 0.86093 0.58765 0.59255 0.0
Co270 Co 0.8437 0.60549 0.66592 0.0
C271 C 0.80994 0.599 0.7098 0.0
O272 O 0.80237 0.6106 0.68528 0.0
N273 N 0.83589 0.62907 0.67965 0.0
C274 C 0.82823 0.65262 0.71763 0.0
C275 C 0.83103 0.63434 0.71693 0.0
C276 C 0.83699 0.64474 0.65897 0.0
N277 N 0.83206 0.65912 0.68113 0.0
O278 O 0.86228 0.60779 0.70497 0.0
H279 H 0.83036 0.62561 0.74277 0.0
H280 H 0.84214 0.64595 0.62897 0.0
O281 O 0.82676 0.59527 0.70616 0.0
C282 C 0.87562 0.61567 0.68847 0.0
O283 O 0.87412 0.62043 0.65073 0.0
N284 N 0.82667 0.60325 0.62407 0.0
C285 C 0.80524 0.59969 0.55591 0.0
C286 C 0.80358 0.58746 0.58764 0.0
C287 C 0.81473 0.58923 0.62111 0.0
C288 C 0.82953 0.6141 0.59181 0.0
C289 C 0.81862 0.61296 0.55799 0.0
H290 H 0.81398 0.57911 0.64428 0.0
H291 H 0.841 0.62296 0.59112 0.0
H292 H 0.84914 0.56684 0.70612 0.0
H293 H 0.87117 0.55351 0.59376 0.0
H294 H 0.82462 0.66064 0.74349 0.0
H295 H 0.79386 0.57658 0.58653 0.0
H296 H 0.82113 0.62191 0.533 0.0
C297 C 0.57927 0.14256 0.38153 0.0
C298 C 0.56195 0.13618 0.37868 0.0
N299 N 0.55539 0.14059 0.34234 0.0
N300 N 0.58366 0.1511 0.3473 0.0
C301 C 0.56893 0.14956 0.32382 0.0
H302 H 0.58807 0.14137 0.40718 0.0
Co303 Co 0.60593 0.162 0.33804 0.0
C304 C 0.59012 0.1938 0.29216 0.0
O305 O 0.5906 0.20464 0.3231 0.0
N306 N 0.6287 0.17231 0.32847 0.0
C307 C 0.65141 0.19122 0.31779 0.0
C308 C 0.63303 0.18946 0.31911 0.0
C309 C 0.64477 0.16391 0.33259 0.0
N310 N 0.6589 0.17512 0.32634 0.0
O311 O 0.61111 0.14364 0.29914 0.0
H312 H 0.62366 0.20038 0.31532 0.0
H313 H 0.646 0.14991 0.34103 0.0
O314 O 0.5957 0.17749 0.29502 0.0
C315 C 0.61508 0.12882 0.3163 0.0
O316 O 0.61606 0.12847 0.35556 0.0
N317 N 0.60112 0.17883 0.37991 0.0
C318 C 0.59514 0.20043 0.44729 0.0
C319 C 0.58099 0.19625 0.42116 0.0
C320 C 0.58418 0.18517 0.38815 0.0
C321 C 0.61472 0.18187 0.40664 0.0
C322 C 0.61213 0.1929 0.43993 0.0
H323 H 0.57302 0.18213 0.3685 0.0
H324 H 0.62765 0.17542 0.40297 0.0
H325 H 0.56819 0.15486 0.29372 0.0
H326 H 0.55463 0.12922 0.40205 0.0
H327 H 0.65861 0.2037 0.31281 0.0
H328 H 0.56759 0.20162 0.42591 0.0
H329 H 0.62326 0.19511 0.46034 0.0
C330 C 0.143 0.42345 0.61856 0.0
C331 C 0.13758 0.44116 0.61887 0.0
N332 N 0.14314 0.44876 0.6534 0.0
N333 N 0.15203 0.41988 0.65257 0.0
C334 C 0.15181 0.43548 0.67339 0.0
H335 H 0.14042 0.4137 0.5952 0.0
Co336 Co 0.16123 0.39739 0.66513 0.0
C337 C 0.19549 0.4055 0.70627 0.0
O338 O 0.20339 0.39445 0.68101 0.0
N339 N 0.1697 0.37397 0.67843 0.0
C340 C 0.17903 0.35043 0.71449 0.0
C341 C 0.17676 0.36878 0.71397 0.0
C342 C 0.16669 0.35819 0.6591 0.0
N343 N 0.17263 0.34379 0.67995 0.0
O344 O 0.14326 0.39485 0.70557 0.0
H345 H 0.17913 0.37753 0.73926 0.0
H346 H 0.15933 0.357 0.63143 0.0
O347 O 0.17841 0.40813 0.70409 0.0
C348 C 0.12977 0.38654 0.69087 0.0
O349 O 0.13058 0.38134 0.6533 0.0
N350 N 0.17772 0.3999 0.6221 0.0
C351 C 0.199 0.40359 0.55352 0.0
C352 C 0.19988 0.4164 0.58431 0.0
C353 C 0.1888 0.41455 0.61789 0.0
C354 C 0.17562 0.38831 0.59083 0.0
C355 C 0.18639 0.3896 0.55679 0.0
H356 H 0.18906 0.42499 0.64043 0.0
H357 H 0.16492 0.37856 0.59107 0.0
H358 H 0.15795 0.43706 0.70254 0.0
H359 H 0.12979 0.44778 0.5958 0.0
H360 H 0.18396 0.34247 0.73933 0.0
H361 H 0.20903 0.42774 0.58255 0.0
H362 H 0.18442 0.38008 0.53262 0.0
C363 C 0.42806 0.86754 0.37568 0.0
C364 C 0.44606 0.87186 0.37367 0.0
N365 N 0.45353 0.86223 0.34381 0.0
N366 N 0.42417 0.85536 0.34708 0.0
C367 C 0.43999 0.8523 0.32813 0.0
H368 H 0.41833 0.87308 0.3964 0.0
Co369 Co 0.40093 0.84704 0.33825 0.0
C370 C 0.40523 0.81247 0.29609 0.0
O371 O 0.39394 0.80563 0.32236 0.0
N372 N 0.37683 0.83946 0.32876 0.0
C373 C 0.35217 0.83213 0.29413 0.0
C374 C 0.37045 0.8348 0.29224 0.0
C375 C 0.3618 0.84044 0.35181 0.0
N376 N 0.34675 0.83575 0.33162 0.0
O377 O 0.39784 0.86493 0.2977 0.0
H378 H 0.37844 0.83416 0.26522 0.0
H379 H 0.36154 0.84524 0.38221 0.0
O380 O 0.40962 0.82918 0.2983 0.0
C381 C 0.39049 0.87872 0.31359 0.0
O382 O 0.38645 0.87802 0.35187 0.0
N383 N 0.40407 0.83086 0.38127 0.0
C384 C 0.40835 0.81026 0.45047 0.0
C385 C 0.41953 0.80744 0.41724 0.0
C386 C 0.41745 0.81819 0.3832 0.0
C387 C 0.39447 0.83493 0.41482 0.0
C388 C 0.39595 0.82447 0.4493 0.0
H389 H 0.42675 0.81641 0.35864 0.0
H390 H 0.38619 0.84685 0.41555 0.0
H391 H 0.4415 0.84336 0.30275 0.0
H392 H 0.45313 0.88131 0.39271 0.0
H393 H 0.34341 0.82877 0.26934 0.0
H394 H 0.42976 0.79703 0.41749 0.0
H395 H 0.38786 0.82783 0.47525 0.0
C396 C 0.86163 0.92622 0.63011 0.0
C397 C 0.86696 0.94394 0.62901 0.0
N398 N 0.86295 0.95069 0.59262 0.0
N399 N 0.85413 0.9218 0.59477 0.0
C400 C 0.85519 0.93691 0.57239 0.0
H401 H 0.86312 0.91706 0.65507 0.0
Co402 Co 0.84565 0.899 0.5827 0.0
C403 C 0.81261 0.90491 0.53567 0.0
O404 O 0.80442 0.89363 0.55993 0.0
N405 N 0.83785 0.87534 0.57009 0.0
C406 C 0.83079 0.8513 0.5331 0.0
C407 C 0.834 0.86951 0.53266 0.0
C408 C 0.83784 0.86006 0.59229 0.0
N409 N 0.83329 0.84539 0.57065 0.0
O410 O 0.86465 0.8963 0.54455 0.0
H411 H 0.83433 0.87781 0.50611 0.0
H412 H 0.84186 0.85932 0.62319 0.0
O413 O 0.82932 0.90872 0.54085 0.0
C414 C 0.87787 0.88785 0.55999 0.0
O415 O 0.87632 0.8821 0.59704 0.0
N416 N 0.82815 0.90185 0.62345 0.0
C417 C 0.80649 0.90711 0.69097 0.0
C418 C 0.80468 0.91824 0.6573 0.0
C419 C 0.81597 0.9157 0.62431 0.0
C420 C 0.83101 0.89193 0.65716 0.0
C421 C 0.82006 0.89397 0.69079 0.0
H422 H 0.81522 0.92523 0.59996 0.0
H423 H 0.84256 0.8832 0.65909 0.0
H424 H 0.85072 0.93763 0.54163 0.0
H425 H 0.87316 0.95126 0.65336 0.0
H426 H 0.82785 0.84288 0.50745 0.0
H427 H 0.79479 0.92896 0.65658 0.0
H428 H 0.82273 0.88586 0.71707 0.0
C429 C 0.92768 0.14448 0.36686 0.0
C430 C 0.94568 0.14016 0.36744 0.0
N431 N 0.95273 0.14587 0.40241 0.0
N432 N 0.92336 0.15297 0.40114 0.0
C433 C 0.93883 0.15355 0.4224 0.0
H434 H 0.91823 0.14145 0.34317 0.0
Co435 Co 0.90016 0.1604 0.41306 0.0
C436 C 0.90447 0.194 0.45906 0.0
O437 O 0.89261 0.20127 0.4347 0.0
N438 N 0.87608 0.16704 0.42546 0.0
C439 C 0.85161 0.17292 0.46207 0.0
C440 C 0.87001 0.1711 0.4626 0.0
C441 C 0.86081 0.16551 0.40346 0.0
N442 N 0.84585 0.16932 0.42484 0.0
O443 O 0.89831 0.14157 0.45164 0.0
H444 H 0.87833 0.17183 0.48911 0.0
H445 H 0.86035 0.16082 0.37298 0.0
O446 O 0.90914 0.17748 0.45429 0.0
C447 C 0.89062 0.12803 0.43557 0.0
O448 O 0.8855 0.12934 0.39803 0.0
N449 N 0.90212 0.17771 0.37185 0.0
C450 C 0.90547 0.19968 0.30441 0.0
C451 C 0.91683 0.2021 0.33749 0.0
C452 C 0.91526 0.19065 0.37048 0.0
C453 C 0.89218 0.17421 0.33849 0.0
C454 C 0.89325 0.18529 0.30491 0.0
H455 H 0.92487 0.192 0.39455 0.0
H456 H 0.88412 0.16216 0.3369 0.0
H457 H 0.93984 0.15945 0.4519 0.0
H458 H 0.95286 0.13292 0.34428 0.0
H459 H 0.84303 0.17568 0.48757 0.0
H460 H 0.92692 0.21265 0.33783 0.0
H461 H 0.88506 0.18219 0.27899 0.0
C462 C 0.14774 0.07416 0.63499 0.0
C463 C 0.14345 0.05618 0.63367 0.0
N464 N 0.14681 0.05 0.59645 0.0
N465 N 0.15399 0.07936 0.59895 0.0
C466 C 0.15321 0.0644 0.57597 0.0
H467 H 0.14623 0.08298 0.66054 0.0
Co468 Co 0.16032 0.1029 0.58642 0.0
C469 C 0.19407 0.10015 0.54074 0.0
O470 O 0.20053 0.11268 0.56457 0.0
N471 N 0.16591 0.12711 0.57318 0.0
C472 C 0.1706 0.15126 0.53476 0.0
C473 C 0.16866 0.13287 0.53523 0.0
C474 C 0.16541 0.14253 0.59492 0.0
N475 N 0.16849 0.1573 0.57235 0.0
O476 O 0.14145 0.10373 0.54767 0.0
H477 H 0.16864 0.12428 0.50908 0.0
H478 H 0.16227 0.14322 0.62634 0.0
O479 O 0.17787 0.09444 0.54559 0.0
C480 C 0.12706 0.1088 0.56519 0.0
O481 O 0.12774 0.11191 0.60389 0.0
N482 N 0.17761 0.10207 0.62789 0.0
C483 C 0.19868 0.09969 0.69695 0.0
C484 C 0.20246 0.08888 0.66357 0.0
C485 C 0.19142 0.08987 0.62979 0.0
C486 C 0.17304 0.11165 0.66115 0.0
C487 C 0.18359 0.11102 0.69561 0.0
H488 H 0.19365 0.08038 0.6058 0.0
H489 H 0.16053 0.11904 0.66187 0.0
H490 H 0.15675 0.06426 0.54456 0.0
H491 H 0.13827 0.04831 0.65839 0.0
H492 H 0.17255 0.15961 0.50856 0.0
H493 H 0.21342 0.07925 0.66414 0.0
H494 H 0.17977 0.11914 0.72118 0.0
C495 C 0.08045 0.86177 0.36533 0.0
C496 C 0.063 0.86794 0.3671 0.0
N497 N 0.05582 0.86294 0.40251 0.0
N498 N 0.08428 0.85277 0.39926 0.0
C499 C 0.06911 0.85385 0.42152 0.0
H500 H 0.08973 0.86346 0.34063 0.0
Co501 Co 0.10635 0.84186 0.41034 0.0
C502 C 0.08951 0.80939 0.45207 0.0
O503 O 0.09124 0.79891 0.42072 0.0
N504 N 0.12902 0.83142 0.42201 0.0
C505 C 0.15143 0.81238 0.43474 0.0
C506 C 0.13309 0.81429 0.4322 0.0
C507 C 0.14526 0.83962 0.41869 0.0
N508 N 0.15919 0.82833 0.42614 0.0
O509 O 0.11049 0.85968 0.45074 0.0
H510 H 0.12361 0.80347 0.43588 0.0
H511 H 0.14683 0.8535 0.40974 0.0
O512 O 0.09499 0.82579 0.45091 0.0
C513 C 0.11677 0.87386 0.43426 0.0
O514 O 0.11932 0.87373 0.39532 0.0
N515 N 0.10277 0.82572 0.36679 0.0
C516 C 0.09942 0.80514 0.29701 0.0
C517 C 0.08443 0.80831 0.32163 0.0
C518 C 0.0863 0.81899 0.35584 0.0
C519 C 0.11709 0.82381 0.34145 0.0
C520 C 0.1158 0.81336 0.30698 0.0
H521 H 0.07454 0.82143 0.37418 0.0
H522 H 0.12959 0.83078 0.34714 0.0
H523 H 0.06793 0.84817 0.45121 0.0
H524 H 0.05608 0.87521 0.34365 0.0
H525 H 0.15843 0.79987 0.44059 0.0
H526 H 0.07141 0.80247 0.31482 0.0
H527 H 0.1275 0.81212 0.28777 0.0
H528 H 0.32281 0.08944 0.28214 0.0
H529 H 0.30373 0.08278 0.3406 0.0
H530 H 0.25616 0.09103 0.26889 0.0
H531 H 0.27499 0.09784 0.21092 0.0
H532 H 0.27749 0.11016 0.36779 0.0
H533 H 0.24525 0.04421 0.33514 0.0
H534 H 0.26643 0.05103 0.31301 0.0
H535 H 0.24562 0.0601 0.2945 0.0
C536 C 0.30829 0.08937 0.27871 0.0
C537 C 0.30038 0.09423 0.24208 0.0
C538 C 0.29742 0.08561 0.31206 0.0
C539 C 0.27854 0.08624 0.30892 0.0
C540 C 0.27068 0.09018 0.27183 0.0
H541 H 0.1849 0.09148 0.46354 0.0
H542 H 0.20595 0.08616 0.40778 0.0
C543 C 0.28148 0.09419 0.2388 0.0
C544 C 0.26697 0.08519 0.34505 0.0
H545 H 0.23227 0.06167 0.38763 0.0
C546 C 0.26779 0.09943 0.37253 0.0
C547 C 0.25407 0.07137 0.35055 0.0
C548 C 0.25279 0.05571 0.32194 0.0
C549 C 0.25574 0.10054 0.4048 0.0
C550 C 0.24286 0.08664 0.41064 0.0
C551 C 0.24217 0.07226 0.38332 0.0
C552 C 0.22993 0.08712 0.44467 0.0
C553 C 0.25644 0.11704 0.43123 0.0
C554 C 0.23632 0.08854 0.48405 0.0
C555 C 0.22442 0.09187 0.51552 0.0
C556 C 0.20581 0.09331 0.50849 0.0
C557 C 0.19919 0.09036 0.46969 0.0
C558 C 0.2112 0.08738 0.43789 0.0
H559 H 0.26316 0.12854 0.416 0.0
H560 H 0.24271 0.12136 0.44037 0.0
H561 H 0.26429 0.11391 0.4586 0.0
H562 H 0.25062 0.0878 0.49025 0.0
H563 H 0.22983 0.09387 0.5453 0.0
H564 H 0.10213 0.81675 0.5275 0.0
H565 H 0.09922 0.79714 0.58643 0.0
H566 H 0.06286 0.76261 0.52116 0.0
H567 H 0.06609 0.7818 0.46217 0.0
H568 H 0.07083 0.78304 0.63392 0.0
H569 H 0.10498 0.7292 0.54656 0.0
H570 H 0.1039 0.75223 0.52955 0.0
H571 H 0.08469 0.73765 0.52419 0.0
C572 C 0.09314 0.80525 0.52617 0.0
C573 C 0.08448 0.80067 0.49021 0.0
C574 C 0.09155 0.79401 0.55974 0.0
C575 C 0.08121 0.77815 0.55778 0.0
C576 C 0.07129 0.7745 0.523 0.0
H577 H 0.08129 0.68481 0.72152 0.0
H578 H 0.07208 0.70574 0.6681 0.0
C579 C 0.07305 0.78556 0.48943 0.0
C580 C 0.08196 0.76467 0.59061 0.0
H581 H 0.0957 0.72174 0.61183 0.0
C582 C 0.07618 0.76961 0.62906 0.0
C583 C 0.08892 0.7471 0.58423 0.0
C584 C 0.09614 0.74122 0.54403 0.0
C585 C 0.0773 0.75751 0.66135 0.0
C586 C 0.08462 0.74011 0.6551 0.0
C587 C 0.08994 0.73501 0.61646 0.0
C588 C 0.0888 0.72776 0.6888 0.0
C589 C 0.07075 0.7635 0.70197 0.0
C590 C 0.10133 0.73314 0.71777 0.0
C591 C 0.10666 0.72128 0.74782 0.0
C592 C 0.09966 0.70366 0.74968 0.0
C593 C 0.08689 0.69829 0.72096 0.0
C594 C 0.08162 0.71022 0.69051 0.0
H595 H 0.06056 0.7744 0.69944 0.0
H596 H 0.06478 0.75208 0.7189 0.0
H597 H 0.08231 0.76885 0.71936 0.0
H598 H 0.10739 0.74642 0.71654 0.0
H599 H 0.1165 0.72595 0.76939 0.0
H600 H 0.78304 0.92612 0.53809 0.0
H601 H 0.76212 0.93223 0.48302 0.0
H602 H 0.79702 0.90318 0.40218 0.0
H603 H 0.81853 0.89829 0.45677 0.0
H604 H 0.78249 0.92903 0.3635 0.0
H605 H 0.72757 0.89535 0.44694 0.0
H606 H 0.73554 0.91495 0.47274 0.0
H607 H 0.75037 0.89599 0.46525 0.0
C608 C 0.78643 0.92156 0.50821 0.0
C609 C 0.80237 0.91187 0.50139 0.0
C610 C 0.77434 0.92475 0.47691 0.0
C611 C 0.77758 0.91756 0.43864 0.0
C612 C 0.79407 0.90874 0.43143 0.0
H613 H 0.69606 0.89072 0.26273 0.0
H614 H 0.71602 0.89227 0.32104 0.0
C615 C 0.80642 0.90601 0.46253 0.0
C616 C 0.76361 0.91859 0.4066 0.0
H617 H 0.71933 0.90964 0.38622 0.0
C618 C 0.76869 0.92475 0.36849 0.0
C619 C 0.74563 0.91263 0.41266 0.0
C620 C 0.7395 0.90417 0.45146 0.0
C621 C 0.75644 0.92506 0.33642 0.0
C622 C 0.73823 0.91995 0.34302 0.0
C623 C 0.73315 0.91385 0.38117 0.0
C624 C 0.72455 0.91981 0.31027 0.0
C625 C 0.76347 0.93009 0.2955 0.0
C626 C 0.72196 0.93498 0.28572 0.0
C627 C 0.71091 0.93391 0.2519 0.0
C628 C 0.70158 0.91794 0.2431 0.0
C629 C 0.70292 0.90326 0.26936 0.0
C630 C 0.71442 0.90414 0.30252 0.0
H631 H 0.77826 0.92798 0.29324 0.0
H632 H 0.75684 0.92207 0.27163 0.0
H633 H 0.76082 0.94459 0.28995 0.0
H634 H 0.72898 0.94746 0.29184 0.0
H635 H 0.71007 0.94537 0.2319 0.0
H636 H 0.91238 0.32037 0.71432 0.0
H637 H 0.91794 0.29945 0.65845 0.0
H638 H 0.91778 0.25475 0.74098 0.0
H639 H 0.91152 0.2754 0.79618 0.0
H640 H 0.94307 0.27354 0.63796 0.0
H641 H 0.87686 0.24146 0.66756 0.0
H642 H 0.88372 0.26209 0.69162 0.0
H643 H 0.89167 0.24069 0.70989 0.0
C644 C 0.91388 0.30611 0.72046 0.0
C645 C 0.91129 0.29943 0.75935 0.0
C646 C 0.917 0.29417 0.68859 0.0
C647 C 0.91775 0.27546 0.69539 0.0
C648 C 0.91668 0.26904 0.73479 0.0
H649 H 0.9164 0.1826 0.53267 0.0
H650 H 0.92284 0.20171 0.59119 0.0
C651 C 0.91323 0.28086 0.76634 0.0
C652 C 0.91835 0.26254 0.66136 0.0
H653 H 0.89529 0.22751 0.61891 0.0
C654 C 0.93264 0.26347 0.63382 0.0
C655 C 0.90466 0.24942 0.65577 0.0
C656 C 0.88827 0.24843 0.68251 0.0
C657 C 0.93364 0.25157 0.60107 0.0
C658 C 0.92002 0.23845 0.59577 0.0
C659 C 0.90588 0.23739 0.62348 0.0
C660 C 0.91903 0.22689 0.55963 0.0
C661 C 0.94921 0.25311 0.57226 0.0
C662 C 0.91496 0.23472 0.52258 0.0
C663 C 0.91108 0.2239 0.48952 0.0
C664 C 0.91129 0.20501 0.49272 0.0
C665 C 0.91627 0.19712 0.52931 0.0
C666 C 0.9199 0.20801 0.56269 0.0
H667 H 0.96064 0.26076 0.58539 0.0
H668 H 0.95403 0.23955 0.5631 0.0
H669 H 0.94466 0.2603 0.54496 0.0
H670 H 0.91393 0.24923 0.51969 0.0
H671 H 0.90735 0.23037 0.46167 0.0
H672 H 0.32283 0.4195 0.96729 0.0
H673 H 0.30352 0.42677 0.90958 0.0
H674 H 0.25664 0.41041 0.97666 0.0
H675 H 0.2757 0.40298 0.03378 0.0
H676 H 0.28021 0.39848 0.8747 0.0
H677 H 0.24157 0.45897 0.92164 0.0
H678 H 0.2632 0.45315 0.94293 0.0
H679 H 0.24325 0.44134 0.95839 0.0
C680 C 0.30837 0.41785 0.96991 0.0
C681 C 0.30077 0.41058 0.00489 0.0
C682 C 0.29738 0.42198 0.937 0.0
C683 C 0.27863 0.4193 0.93906 0.0
C684 C 0.27101 0.41285 0.97464 0.0
H685 H 0.18593 0.41032 0.78483 0.0
H686 H 0.20663 0.4161 0.84084 0.0
C687 C 0.28196 0.40848 0.00715 0.0
C688 C 0.26717 0.42101 0.90293 0.0
H689 H 0.23019 0.44267 0.8655 0.0
C690 C 0.26947 0.40833 0.87228 0.0
C691 C 0.25296 0.43364 0.90038 0.0
C692 C 0.2501 0.44766 0.93242 0.0
C693 C 0.25755 0.4075 0.83974 0.0
C694 C 0.24326 0.42014 0.83703 0.0
C695 C 0.24116 0.43305 0.86744 0.0
C696 C 0.23018 0.41968 0.80332 0.0
C697 C 0.2599 0.39248 0.80965 0.0
C698 C 0.23632 0.42072 0.76368 0.0
C699 C 0.22464 0.41714 0.73195 0.0
C700 C 0.20645 0.41298 0.73914 0.0
C701 C 0.19988 0.41357 0.77853 0.0
C702 C 0.21171 0.41681 0.81048 0.0
H703 H 0.26804 0.38121 0.82198 0.0
H704 H 0.24667 0.38703 0.7999 0.0
H705 H 0.26707 0.39776 0.78296 0.0
H706 H 0.25038 0.42346 0.75733 0.0
H707 H 0.22999 0.41695 0.70177 0.0
H708 H 0.41492 0.82182 0.2194 0.0
H709 H 0.42068 0.80102 0.16344 0.0
H710 H 0.41642 0.75585 0.2441 0.0
H711 H 0.41012 0.77638 0.2994 0.0
H712 H 0.44553 0.77377 0.1463 0.0
H713 H 0.37687 0.74525 0.16413 0.0
H714 H 0.38399 0.76546 0.18956 0.0
H715 H 0.39021 0.74367 0.20872 0.0
C716 C 0.4155 0.80747 0.22516 0.0
C717 C 0.4118 0.80068 0.26354 0.0
C718 C 0.41876 0.7956 0.19323 0.0
C719 C 0.41849 0.77684 0.19941 0.0
C720 C 0.41616 0.77021 0.23837 0.0
H721 H 0.41618 0.68467 0.03575 0.0
H722 H 0.42205 0.70326 0.0953 0.0
C723 C 0.41265 0.78198 0.26998 0.0
C724 C 0.4195 0.76411 0.16511 0.0
H725 H 0.39609 0.73053 0.11816 0.0
C726 C 0.43473 0.76432 0.14013 0.0
C727 C 0.40536 0.75179 0.15695 0.0
C728 C 0.38811 0.7516 0.18098 0.0
C729 C 0.43624 0.75243 0.10745 0.0
C730 C 0.42214 0.74011 0.09954 0.0
C731 C 0.40702 0.73979 0.1247 0.0
C732 C 0.42182 0.7286 0.06322 0.0
C733 C 0.4529 0.7531 0.08163 0.0
C734 C 0.42005 0.73666 0.02551 0.0
C735 C 0.41654 0.72614 0.99177 0.0
C736 C 0.4148 0.70732 0.99499 0.0
C737 C 0.41761 0.69912 0.03236 0.0
C738 C 0.4209 0.70972 0.06635 0.0
H739 H 0.46431 0.75978 0.09727 0.0
H740 H 0.4571 0.73933 0.07254 0.0
H741 H 0.44991 0.7609 0.05409 0.0
H742 H 0.4204 0.75119 0.02248 0.0
H743 H 0.41446 0.73283 0.96334 0.0
H744 H 0.68243 0.58803 0.96995 0.0
H745 H 0.70162 0.58115 0.91184 0.0
H746 H 0.74903 0.59083 0.98323 0.0
H747 H 0.7301 0.59776 0.0409 0.0
H748 H 0.72675 0.60789 0.8819 0.0
H749 H 0.76141 0.544 0.92075 0.0
H750 H 0.74038 0.5508 0.94356 0.0
H751 H 0.76125 0.56069 0.95973 0.0
C752 C 0.69694 0.58825 0.97341 0.0
C753 C 0.70477 0.59352 0.00987 0.0
C754 C 0.70788 0.58436 0.94024 0.0
C755 C 0.72676 0.5853 0.94337 0.0
C756 C 0.73454 0.58971 0.98029 0.0
H757 H 0.81982 0.59263 0.78768 0.0
H758 H 0.79922 0.58711 0.84415 0.0
C759 C 0.72367 0.59381 0.01315 0.0
C760 C 0.73837 0.58396 0.90731 0.0
H761 H 0.77407 0.5611 0.8671 0.0
C762 C 0.73691 0.5975 0.87829 0.0
C763 C 0.75185 0.5706 0.90318 0.0
C764 C 0.75379 0.55559 0.93328 0.0
C765 C 0.74888 0.59841 0.84582 0.0
C766 C 0.76237 0.58501 0.84148 0.0
C767 C 0.76371 0.57131 0.87032 0.0
C768 C 0.77525 0.58534 0.80737 0.0
C769 C 0.7474 0.61419 0.81746 0.0
C770 C 0.76878 0.58524 0.76795 0.0
C771 C 0.78041 0.58863 0.73601 0.0
C772 C 0.79885 0.5917 0.74271 0.0
C773 C 0.80566 0.59021 0.78176 0.0
C774 C 0.7939 0.58713 0.81397 0.0
H775 H 0.74 0.62565 0.83117 0.0
H776 H 0.76092 0.61901 0.80804 0.0
H777 H 0.73987 0.60995 0.79036 0.0
H778 H 0.75455 0.58336 0.762 0.0
H779 H 0.77486 0.58952 0.70609 0.0
H780 H 0.60991 0.19085 0.22357 0.0
H781 H 0.60839 0.2112 0.1657 0.0
H782 H 0.56078 0.23608 0.21521 0.0
H783 H 0.56285 0.21642 0.27377 0.0
H784 H 0.58578 0.21968 0.10774 0.0
H785 H 0.59294 0.27903 0.20663 0.0
H786 H 0.59536 0.25628 0.22475 0.0
H787 H 0.5733 0.26609 0.21887 0.0
C788 C 0.59887 0.20036 0.22144 0.0
C789 C 0.58649 0.20213 0.25299 0.0
C790 C 0.59808 0.21209 0.1886 0.0
C791 C 0.58483 0.22563 0.18675 0.0
C792 C 0.57153 0.22624 0.21664 0.0
H793 H 0.5631 0.28845 0.97258 0.0
H794 H 0.56127 0.26829 0.03032 0.0
C795 C 0.57254 0.21482 0.24976 0.0
C796 C 0.58529 0.23955 0.15465 0.0
H797 H 0.58518 0.28509 0.13875 0.0
C798 C 0.58571 0.23398 0.11454 0.0
C799 C 0.58571 0.25826 0.16343 0.0
C800 C 0.58701 0.26528 0.20575 0.0
C801 C 0.58609 0.24653 0.08305 0.0
C802 C 0.58534 0.26523 0.09182 0.0
C803 C 0.58538 0.2708 0.13194 0.0
C804 C 0.58488 0.27917 0.05976 0.0
C805 C 0.58779 0.23954 0.04078 0.0
C806 C 0.59782 0.29304 0.05864 0.0
C807 C 0.59848 0.30503 0.02624 0.0
C808 C 0.5863 0.30319 0.99436 0.0
C809 C 0.57269 0.29008 0.99677 0.0
C810 C 0.5718 0.27838 0.02945 0.0
H811 H 0.59396 0.2259 0.04009 0.0
H812 H 0.57417 0.23848 0.02727 0.0
H813 H 0.5961 0.24869 0.02202 0.0
H814 H 0.60794 0.29408 0.08188 0.0
H815 H 0.60924 0.31489 0.02484 0.0
H816 H 0.36015 0.33127 0.12394 0.0
H817 H 0.36092 0.29915 0.14128 0.0
H818 H 0.31668 0.2893 0.06032 0.0
H819 H 0.31654 0.3212 0.04171 0.0
H820 H 0.33821 0.2776 0.175 0.0
H821 H 0.35035 0.25153 0.02252 0.0
H822 H 0.35162 0.27522 0.03418 0.0
H823 H 0.33016 0.26474 0.02418 0.0
C824 C 0.35063 0.32218 0.10995 0.0
C825 C 0.33839 0.32859 0.08127 0.0
C826 C 0.35109 0.30385 0.11973 0.0
C827 C 0.33916 0.29166 0.10135 0.0
C828 C 0.32648 0.29824 0.0738 0.0
H829 H 0.31142 0.18673 0.19798 0.0
H830 H 0.31296 0.2186 0.17938 0.0
C831 C 0.32629 0.31648 0.06341 0.0
C832 C 0.33967 0.27216 0.11174 0.0
H833 H 0.34039 0.22993 0.07105 0.0
C834 C 0.33886 0.26719 0.15225 0.0
C835 C 0.34092 0.25851 0.08221 0.0
C836 C 0.34352 0.26278 0.03842 0.0
C837 C 0.33878 0.24902 0.16396 0.0
C838 C 0.33877 0.23538 0.13427 0.0
C839 C 0.34008 0.24034 0.09383 0.0
C840 C 0.33743 0.21591 0.14445 0.0
C841 C 0.33911 0.24471 0.2081 0.0
C842 C 0.35009 0.20356 0.12937 0.0
C843 C 0.34891 0.18526 0.13911 0.0
C844 C 0.33514 0.17902 0.16444 0.0
C845 C 0.3223 0.1913 0.1789 0.0
C846 C 0.32328 0.20951 0.16855 0.0
H847 H 0.34523 0.25587 0.22563 0.0
H848 H 0.32509 0.24289 0.21896 0.0
H849 H 0.3468 0.23217 0.21423 0.0
H850 H 0.36107 0.20812 0.11052 0.0
H851 H 0.35904 0.17607 0.12783 0.0
H852 H 0.1903 0.65359 0.77254 0.0
H853 H 0.22169 0.65531 0.79378 0.0
H854 H 0.20504 0.67579 0.90864 0.0
H855 H 0.17352 0.67471 0.88737 0.0
H856 H 0.23961 0.68959 0.8272 0.0
H857 H 0.23937 0.62977 0.92795 0.0
H858 H 0.22345 0.63225 0.8874 0.0
H859 H 0.22099 0.64553 0.93188 0.0
C860 C 0.19321 0.65864 0.8022 0.0
C861 C 0.17925 0.66405 0.82816 0.0
C862 C 0.21119 0.65949 0.81433 0.0
C863 C 0.21559 0.66556 0.85277 0.0
C864 C 0.20182 0.67088 0.87895 0.0
H865 H 0.31664 0.67392 0.98094 0.0
H866 H 0.28511 0.67258 0.96109 0.0
C867 C 0.18381 0.67017 0.86676 0.0
C868 C 0.23468 0.66668 0.86508 0.0
H869 H 0.26632 0.64648 0.92389 0.0
C870 C 0.24551 0.68019 0.84831 0.0
C871 C 0.24217 0.65443 0.89276 0.0
C872 C 0.231 0.63957 0.91105 0.0
C873 C 0.26373 0.68192 0.85888 0.0
C874 C 0.27139 0.66945 0.88607 0.0
C875 C 0.26046 0.65598 0.90295 0.0
C876 C 0.29066 0.67026 0.89775 0.0
C877 C 0.27445 0.69737 0.84158 0.0
C878 C 0.30432 0.66914 0.86879 0.0
C879 C 0.32244 0.67022 0.87997 0.0
C880 C 0.32731 0.67214 0.92046 0.0
C881 C 0.31353 0.67279 0.94945 0.0
C882 C 0.29543 0.67187 0.93819 0.0
H883 H 0.26553 0.70845 0.83119 0.0
H884 H 0.28407 0.7029 0.86385 0.0
H885 H 0.28223 0.69249 0.81537 0.0
H886 H 0.30098 0.66745 0.83748 0.0
H887 H 0.33259 0.66978 0.85675 0.0
H888 H 0.64368 0.82923 0.17725 0.0
H889 H 0.6381 0.7968 0.16867 0.0
H890 H 0.6924 0.78988 0.12521 0.0
H891 H 0.69805 0.82198 0.13401 0.0
H892 H 0.63929 0.7752 0.10282 0.0
H893 H 0.69016 0.75212 0.21198 0.0
H894 H 0.68292 0.7753 0.20907 0.0
H895 H 0.69994 0.76687 0.17545 0.0
C896 C 0.65438 0.82075 0.16585 0.0
C897 C 0.67139 0.82813 0.15688 0.0
C898 C 0.65121 0.80224 0.16109 0.0
C899 C 0.66498 0.79082 0.14727 0.0
C900 C 0.68176 0.79829 0.13719 0.0
H901 H 0.66321 0.68986 0.02613 0.0
H902 H 0.66093 0.72109 0.04732 0.0
C903 C 0.68496 0.81668 0.14219 0.0
C904 C 0.6619 0.77117 0.14221 0.0
H905 H 0.68043 0.73018 0.16349 0.0
C906 C 0.64811 0.76532 0.11654 0.0
C907 C 0.67312 0.75821 0.16081 0.0
C908 C 0.68722 0.76343 0.19121 0.0
C909 C 0.64591 0.74698 0.10722 0.0
C910 C 0.65811 0.73419 0.12325 0.0
C911 C 0.67123 0.73996 0.15067 0.0
C912 C 0.65824 0.715 0.11038 0.0
C913 C 0.63056 0.74153 0.0802 0.0
C914 C 0.65794 0.70104 0.13877 0.0
C915 C 0.6597 0.68304 0.12678 0.0
C916 C 0.66184 0.6786 0.08608 0.0
C917 C 0.6618 0.69264 0.05773 0.0
C918 C 0.66018 0.71059 0.06977 0.0
H919 H 0.61917 0.75119 0.08247 0.0
H920 H 0.63529 0.74159 0.04869 0.0
H921 H 0.62553 0.72782 0.08752 0.0
H922 H 0.65664 0.7041 0.17035 0.0
H923 H 0.6599 0.6727 0.14957 0.0
H924 H 0.81875 0.31435 0.79805 0.0
H925 H 0.7871 0.31584 0.81826 0.0
H926 H 0.79952 0.35958 0.89877 0.0
H927 H 0.8313 0.35783 0.87921 0.0
H928 H 0.7773 0.33602 0.9334 0.0
H929 H 0.75087 0.35273 0.7833 0.0
H930 H 0.76364 0.33223 0.78258 0.0
H931 H 0.77462 0.35319 0.7947 0.0
C932 C 0.81469 0.32433 0.81991 0.0
C933 C 0.82745 0.33603 0.8369 0.0
C934 C 0.7966 0.32524 0.83131 0.0
C935 C 0.79084 0.33812 0.85931 0.0
C936 C 0.80363 0.34961 0.87692 0.0
H937 H 0.67542 0.35771 0.88682 0.0
H938 H 0.70757 0.36201 0.87586 0.0
C939 C 0.82179 0.34855 0.86587 0.0
C940 C 0.77153 0.33934 0.87066 0.0
H941 H 0.72919 0.3425 0.83143 0.0
C942 C 0.76678 0.33763 0.91116 0.0
C943 C 0.7578 0.34187 0.84179 0.0
C944 C 0.76199 0.34531 0.79825 0.0
C945 C 0.74866 0.33764 0.92337 0.0
C946 C 0.73491 0.33888 0.89414 0.0
C947 C 0.7397 0.34131 0.85384 0.0
C948 C 0.7155 0.33704 0.90427 0.0
C949 C 0.7445 0.33648 0.96749 0.0
C950 C 0.70919 0.32163 0.92414 0.0
C951 C 0.69078 0.31925 0.93115 0.0
C952 C 0.67816 0.33205 0.91768 0.0
C953 C 0.68458 0.3476 0.89812 0.0
C954 C 0.70304 0.35006 0.89152 0.0
H955 H 0.75576 0.34193 0.98577 0.0
H956 H 0.73201 0.34396 0.97514 0.0
H957 H 0.74265 0.32213 0.97593 0.0
H958 H 0.71846 0.31117 0.93343 0.0
H959 H 0.68651 0.30722 0.94675 0.0
H960 H 0.80967 0.81992 0.54742 0.0
H961 H 0.80911 0.78826 0.56807 0.0
H962 H 0.85584 0.79737 0.64229 0.0
H963 H 0.85594 0.82918 0.62275 0.0
H964 H 0.83272 0.76265 0.5567 0.0
H965 H 0.82413 0.77178 0.72006 0.0
H966 H 0.82167 0.79014 0.68514 0.0
H967 H 0.84373 0.78314 0.70138 0.0
C968 C 0.8197 0.81514 0.56839 0.0
C969 C 0.83274 0.82696 0.58379 0.0
C970 C 0.81939 0.79709 0.58018 0.0
C971 C 0.83225 0.79046 0.60728 0.0
C972 C 0.84543 0.80225 0.62235 0.0
H973 H 0.856 0.67578 0.63249 0.0
H974 H 0.85636 0.70773 0.61415 0.0
C975 C 0.84554 0.8204 0.61108 0.0
C976 C 0.8322 0.77108 0.61839 0.0
H977 H 0.83179 0.74224 0.69795 0.0
C978 C 0.83241 0.75819 0.5876 0.0
C979 C 0.83157 0.76524 0.65869 0.0
C980 C 0.83007 0.7783 0.69318 0.0
C981 C 0.83208 0.73966 0.59592 0.0
C982 C 0.83219 0.73382 0.63624 0.0
C983 C 0.83189 0.74671 0.66704 0.0
C984 C 0.83216 0.71444 0.64726 0.0
C985 C 0.83111 0.72659 0.56135 0.0
C986 C 0.81882 0.70767 0.67304 0.0
C987 C 0.81882 0.68953 0.68412 0.0
C988 C 0.83206 0.67776 0.66935 0.0
C989 C 0.84543 0.68451 0.64362 0.0
C990 C 0.8456 0.70274 0.63305 0.0
H991 H 0.82557 0.73309 0.53405 0.0
H992 H 0.84489 0.72177 0.55416 0.0
H993 H 0.8226 0.71475 0.5688 0.0
H994 H 0.80833 0.71643 0.68447 0.0
H995 H 0.80834 0.68461 0.70386 0.0
H996 H 0.83126 0.14524 0.37322 0.0
H997 H 0.79953 0.14305 0.35343 0.0
H998 H 0.78711 0.18925 0.42691 0.0
H999 H 0.81868 0.19105 0.44766 0.0
H1000 H 0.7631 0.16364 0.43817 0.0
H1001 H 0.77233 0.17319 0.27481 0.0
H1002 H 0.78463 0.15436 0.29446 0.0
H1003 H 0.7903 0.17687 0.31019 0.0
C1004 C 0.82176 0.15502 0.38471 0.0
C1005 C 0.8274 0.16838 0.4118 0.0
C1006 C 0.80365 0.1538 0.37332 0.0
C1007 C 0.79095 0.16618 0.38812 0.0
C1008 C 0.79664 0.17955 0.41506 0.0
H1009 H 0.68703 0.19508 0.29866 0.0
H1010 H 0.71877 0.19095 0.31359 0.0
C1011 C 0.81465 0.18059 0.42691 0.0
C1012 C 0.77163 0.16503 0.37665 0.0
H1013 H 0.74289 0.16595 0.29688 0.0
C1014 C 0.75868 0.16413 0.40726 0.0
C1015 C 0.76586 0.16578 0.33631 0.0
C1016 C 0.77898 0.16778 0.30206 0.0
C1017 C 0.74015 0.16436 0.39881 0.0
C1018 C 0.73437 0.16486 0.35844 0.0
C1019 C 0.74732 0.16539 0.32778 0.0
C1020 C 0.71501 0.1664 0.34752 0.0
C1021 C 0.72703 0.16491 0.43334 0.0
C1022 C 0.70226 0.15371 0.36068 0.0
C1023 C 0.68389 0.15628 0.35302 0.0
C1024 C 0.67791 0.17145 0.33143 0.0
C1025 C 0.69091 0.18352 0.31636 0.0
C1026 C 0.70919 0.18107 0.3245 0.0
H1027 H 0.73366 0.16917 0.46161 0.0
H1028 H 0.71573 0.17429 0.42711 0.0
H1029 H 0.72137 0.15123 0.43813 0.0
H1030 H 0.70648 0.14199 0.37751 0.0
H1031 H 0.67443 0.14661 0.36504 0.0
H1032 H 0.14547 0.32766 0.63923 0.0
H1033 H 0.14287 0.29556 0.6229 0.0
H1034 H 0.19426 0.28565 0.67914 0.0
H1035 H 0.1966 0.3176 0.69645 0.0
H1036 H 0.16265 0.27432 0.57776 0.0
H1037 H 0.16437 0.24779 0.73224 0.0
H1038 H 0.16175 0.27148 0.72158 0.0
H1039 H 0.18381 0.26133 0.72172 0.0
C1040 C 0.1562 0.31861 0.64802 0.0
C1041 C 0.1712 0.32506 0.6693 0.0
C1042 C 0.15467 0.30027 0.63885 0.0
C1043 C 0.16817 0.28809 0.65059 0.0
C1044 C 0.18338 0.29464 0.67095 0.0
H1045 H 0.18936 0.18414 0.54396 0.0
H1046 H 0.1885 0.21592 0.56338 0.0
C1047 C 0.18477 0.3129 0.68062 0.0
C1048 C 0.1667 0.26867 0.64034 0.0
H1049 H 0.16975 0.22634 0.67988 0.0
C1050 C 0.16403 0.26383 0.60016 0.0
C1051 C 0.16811 0.25495 0.66964 0.0
C1052 C 0.16946 0.25915 0.71374 0.0
C1053 C 0.16333 0.2457 0.5883 0.0
C1054 C 0.16597 0.232 0.61722 0.0
C1055 C 0.16803 0.23682 0.65759 0.0
C1056 C 0.16682 0.21263 0.6062 0.0
C1057 C 0.1595 0.24146 0.54495 0.0
C1058 C 0.15553 0.20003 0.62512 0.0
C1059 C 0.15629 0.18179 0.61461 0.0
C1060 C 0.16828 0.17587 0.58483 0.0
C1061 C 0.17979 0.18843 0.5665 0.0
C1062 C 0.17921 0.20659 0.57741 0.0
H1063 H 0.15201 0.2526 0.53023 0.0
H1064 H 0.17244 0.23973 0.52874 0.0
H1065 H 0.15152 0.22887 0.54184 0.0
H1066 H 0.14594 0.20434 0.64762 0.0
H1067 H 0.14718 0.17241 0.62899 0.0
H1068 H 0.33164 0.85937 0.38367 0.0
H1069 H 0.29988 0.86069 0.40377 0.0
H1070 H 0.28872 0.81376 0.3316 0.0
H1071 H 0.32029 0.81278 0.31066 0.0
H1072 H 0.26444 0.83902 0.3186 0.0
H1073 H 0.27248 0.83049 0.48251 0.0
H1074 H 0.28471 0.84935 0.46269 0.0
H1075 H 0.29077 0.82684 0.44786 0.0
C1076 C 0.32243 0.84921 0.37262 0.0
C1077 C 0.3284 0.83594 0.34569 0.0
C1078 C 0.3043 0.84994 0.38419 0.0
C1079 C 0.29192 0.83717 0.36967 0.0
C1080 C 0.29799 0.82377 0.3432 0.0
H1081 H 0.1869 0.80822 0.45536 0.0
H1082 H 0.21884 0.8121 0.44192 0.0
C1083 C 0.316 0.82321 0.33123 0.0
C1084 C 0.27249 0.83805 0.38046 0.0
H1085 H 0.2431 0.83723 0.45916 0.0
C1086 C 0.25978 0.83863 0.34936 0.0
C1087 C 0.2664 0.83743 0.42059 0.0
C1088 C 0.27928 0.83582 0.45533 0.0
C1089 C 0.24119 0.83828 0.35712 0.0
C1090 C 0.23508 0.83796 0.39727 0.0
C1091 C 0.24778 0.83766 0.42843 0.0
C1092 C 0.21561 0.83656 0.40743 0.0
C1093 C 0.22836 0.83746 0.32211 0.0
C1094 C 0.2031 0.84928 0.39348 0.0
C1095 C 0.18463 0.84687 0.40031 0.0
C1096 C 0.17831 0.83181 0.42185 0.0
C1097 C 0.19106 0.81969 0.4377 0.0
C1098 C 0.20944 0.822 0.43042 0.0
H1099 H 0.23523 0.83301 0.29426 0.0
H1100 H 0.217 0.82811 0.32823 0.0
H1101 H 0.22273 0.85109 0.31661 0.0
H1102 H 0.20757 0.86092 0.37664 0.0
H1103 H 0.1754 0.85658 0.38768 0.0
H1104 H 0.27085 0.0971 0.04791 0.0
H1105 H 0.25228 0.09519 0.98742 0.0
H1106 H 0.30005 0.09886 0.91429 0.0
H1107 H 0.31872 0.10042 0.9745 0.0
H1108 H 0.25105 0.12171 0.92518 0.0
H1109 H 0.27276 0.0547 0.86873 0.0
H1110 H 0.27634 0.0618 0.91983 0.0
H1111 H 0.29076 0.07 0.88067 0.0
C1112 C 0.2774 0.09725 0.01894 0.0
C1113 C 0.29623 0.09894 0.01594 0.0
C1114 C 0.26679 0.09624 0.98448 0.0
C1115 C 0.27484 0.09669 0.94649 0.0
C1116 C 0.29362 0.09823 0.94337 0.0
H1117 H 0.23544 0.09842 0.70226 0.0
H1118 H 0.25381 0.09752 0.76316 0.0
C1119 C 0.30423 0.09932 0.97778 0.0
C1120 C 0.26353 0.09643 0.91007 0.0
H1121 H 0.25468 0.07236 0.82526 0.0
C1122 C 0.25174 0.11088 0.90341 0.0
C1123 C 0.2646 0.08232 0.88172 0.0
C1124 C 0.27668 0.06623 0.88809 0.0
C1125 C 0.24117 0.11179 0.86869 0.0
C1126 C 0.24216 0.09764 0.84036 0.0
C1127 C 0.25396 0.08317 0.84706 0.0
C1128 C 0.23103 0.09764 0.80362 0.0
C1129 C 0.22938 0.1281 0.86219 0.0
C1130 C 0.21216 0.09762 0.80625 0.0
C1131 C 0.20167 0.09816 0.77162 0.0
C1132 C 0.20985 0.09856 0.73366 0.0
C1133 C 0.22876 0.09806 0.73108 0.0
C1134 C 0.23926 0.0976 0.76579 0.0
H1135 H 0.23377 0.1397 0.88083 0.0
H1136 H 0.22947 0.13229 0.83029 0.0
H1137 H 0.21531 0.12474 0.87064 0.0
H1138 H 0.20555 0.09718 0.83514 0.0
H1139 H 0.18713 0.09811 0.77457 0.0
H1140 H 0.12422 0.78107 0.26896 0.0
H1141 H 0.12306 0.76358 0.20723 0.0
H1142 H 0.07016 0.78483 0.18207 0.0
H1143 H 0.07157 0.80312 0.24294 0.0
H1144 H 0.0997 0.7375 0.18334 0.0
H1145 H 0.09698 0.7958 0.0791 0.0
H1146 H 0.10234 0.79829 0.13146 0.0
H1147 H 0.07933 0.7954 0.11587 0.0
C1148 C 0.11241 0.78223 0.25008 0.0
C1149 C 0.09808 0.79369 0.26066 0.0
C1150 C 0.11172 0.7721 0.21497 0.0
C1151 C 0.09667 0.77316 0.18972 0.0
C1152 C 0.08208 0.78413 0.20071 0.0
H1153 H 0.07444 0.71626 0.96687 0.0
H1154 H 0.07189 0.73435 0.02778 0.0
C1155 C 0.0828 0.79438 0.23579 0.0
C1156 C 0.09642 0.76266 0.15204 0.0
H1157 H 0.09468 0.76675 0.05029 0.0
C1158 C 0.09858 0.74389 0.15426 0.0
C1159 C 0.09497 0.77107 0.11414 0.0
C1160 C 0.09344 0.79126 0.1098 0.0
C1161 C 0.09943 0.7333 0.11958 0.0
C1162 C 0.09816 0.74172 0.08181 0.0
C1163 C 0.09563 0.76041 0.07946 0.0
C1164 C 0.09988 0.73133 0.04436 0.0
C1165 C 0.10167 0.71316 0.12344 0.0
C1166 C 0.11656 0.72397 0.03336 0.0
C1167 C 0.11815 0.71385 0.99831 0.0
C1168 C 0.10306 0.71087 0.97371 0.0
C1169 C 0.0864 0.71851 0.98471 0.0
C1170 C 0.08487 0.72874 0.01964 0.0
H1171 H 0.09902 0.70841 0.15441 0.0
H1172 H 0.09245 0.70601 0.10263 0.0
H1173 H 0.11569 0.70944 0.11532 0.0
H1174 H 0.12834 0.72606 0.05194 0.0
H1175 H 0.13122 0.70839 0.99044 0.0
H1176 H 0.72963 0.92999 0.03718 0.0
H1177 H 0.74826 0.93335 0.97703 0.0
H1178 H 0.70885 0.90372 0.90866 0.0
H1179 H 0.68997 0.90079 0.96812 0.0
H1180 H 0.76305 0.90554 0.93341 0.0
H1181 H 0.71878 0.94698 0.83696 0.0
H1182 H 0.71521 0.94473 0.8902 0.0
H1183 H 0.70757 0.92742 0.85648 0.0
C1184 C 0.72478 0.92452 0.00914 0.0
C1185 C 0.70836 0.91507 0.00743 0.0
C1186 C 0.73547 0.92637 0.97488 0.0
C1187 C 0.72983 0.91897 0.93829 0.0
C1188 C 0.71331 0.90983 0.93638 0.0
H1189 H 0.79122 0.88115 0.73796 0.0
H1190 H 0.77332 0.88532 0.79869 0.0
C1191 C 0.70264 0.90796 0.97054 0.0
C1192 C 0.74174 0.91959 0.90274 0.0
H1193 H 0.74283 0.93123 0.80393 0.0
C1194 C 0.75873 0.91135 0.90522 0.0
C1195 C 0.73616 0.92736 0.86614 0.0
C1196 C 0.71851 0.93729 0.8623 0.0
C1197 C 0.76999 0.91003 0.87162 0.0
C1198 C 0.76395 0.91687 0.83447 0.0
C1199 C 0.74731 0.92579 0.83236 0.0
C1200 C 0.77454 0.91446 0.79729 0.0
C1201 C 0.78823 0.90127 0.87619 0.0
C1202 C 0.78069 0.92947 0.77572 0.0
C1203 C 0.7909 0.92713 0.74092 0.0
C1204 C 0.79505 0.90972 0.72699 0.0
C1205 C 0.78852 0.89473 0.74828 0.0
C1206 C 0.77832 0.89708 0.783 0.0
H1207 H 0.79284 0.90145 0.90782 0.0
H1208 H 0.78734 0.887 0.8665 0.0
H1209 H 0.7985 0.90813 0.85739 0.0
H1210 H 0.77783 0.94299 0.7862 0.0
H1211 H 0.79587 0.93896 0.72547 0.0
H1212 H 0.87786 0.21372 0.26057 0.0
H1213 H 0.87987 0.23228 0.20026 0.0
H1214 H 0.93788 0.23134 0.20783 0.0
H1215 H 0.93602 0.21239 0.26772 0.0
H1216 H 0.89706 0.26657 0.19127 0.0
H1217 H 0.92678 0.21399 0.09247 0.0
H1218 H 0.916 0.20864 0.13946 0.0
H1219 H 0.9383 0.21803 0.13893 0.0
C1220 C 0.89105 0.21736 0.24924 0.0
C1221 C 0.90678 0.21152 0.26877 0.0
C1222 C 0.89217 0.22803 0.21495 0.0
C1223 C 0.90901 0.23296 0.19941 0.0
C1224 C 0.92476 0.22744 0.21911 0.0
H1225 H 0.93549 0.29438 0.98425 0.0
H1226 H 0.93728 0.27676 0.04612 0.0
C1227 C 0.92366 0.21678 0.25352 0.0
C1228 C 0.90997 0.24401 0.16267 0.0
H1229 H 0.92253 0.24286 0.06442 0.0
C1230 C 0.90266 0.26143 0.16353 0.0
C1231 C 0.91737 0.23723 0.12669 0.0
C1232 C 0.92496 0.21841 0.12399 0.0
C1233 C 0.90249 0.27229 0.12921 0.0
C1234 C 0.90948 0.26536 0.09295 0.0
C1235 C 0.91714 0.24808 0.09229 0.0
C1236 C 0.90842 0.27565 0.05512 0.0
C1237 C 0.89494 0.29113 0.13214 0.0
C1238 C 0.89159 0.28047 0.03931 0.0
C1239 C 0.89052 0.29044 0.00401 0.0
C1240 C 0.90627 0.29567 0.98365 0.0
C1241 C 0.92312 0.29042 0.99904 0.0
C1242 C 0.92417 0.28046 0.03446 0.0
H1243 H 0.89492 0.2961 0.16351 0.0
H1244 H 0.90277 0.30069 0.11338 0.0
H1245 H 0.88079 0.2911 0.12135 0.0
H1246 H 0.87927 0.27649 0.0543 0.0
H1247 H 0.87735 0.294 0.99252 0.0
H1248 H 0.20794 0.43399 0.51111 0.0
H1249 H 0.22648 0.43587 0.45056 0.0
H1250 H 0.23437 0.37831 0.4534 0.0
H1251 H 0.21633 0.37636 0.51446 0.0
H1252 H 0.26611 0.39826 0.43959 0.0
H1253 H 0.21046 0.4193 0.33838 0.0
H1254 H 0.21359 0.433 0.38219 0.0
H1255 H 0.20641 0.41 0.38749 0.0
C1256 C 0.21378 0.42176 0.49907 0.0
C1257 C 0.2106 0.405 0.51746 0.0
C1258 C 0.22419 0.42284 0.46425 0.0
C1259 C 0.23153 0.40719 0.44722 0.0
C1260 C 0.22869 0.39052 0.46594 0.0
H1261 H 0.29417 0.37552 0.24202 0.0
H1262 H 0.27662 0.37736 0.30384 0.0
C1263 C 0.2183 0.38942 0.50067 0.0
C1264 C 0.24229 0.40805 0.40998 0.0
H1265 H 0.23958 0.41738 0.31011 0.0
C1266 C 0.26034 0.40247 0.41128 0.0
C1267 C 0.23469 0.41361 0.37318 0.0
C1268 C 0.21519 0.41919 0.36992 0.0
C1269 C 0.27102 0.40223 0.37666 0.0
C1270 C 0.26333 0.40743 0.33972 0.0
C1271 C 0.24539 0.41337 0.33852 0.0
C1272 C 0.27359 0.40635 0.30185 0.0
C1273 C 0.29049 0.39654 0.37992 0.0
C1274 C 0.27724 0.42199 0.27974 0.0
C1275 C 0.28728 0.42099 0.2444 0.0
C1276 C 0.29373 0.40429 0.23046 0.0
C1277 C 0.28966 0.38861 0.2523 0.0
C1278 C 0.27965 0.38963 0.28761 0.0
H1279 H 0.2955 0.39754 0.41117 0.0
H1280 H 0.29179 0.3823 0.37022 0.0
H1281 H 0.29921 0.40493 0.36035 0.0
H1282 H 0.27261 0.43501 0.29023 0.0
H1283 H 0.29036 0.43335 0.22858 0.0
H1284 H 0.43901 0.79992 0.48985 0.0
H1285 H 0.44111 0.7819 0.55112 0.0
H1286 H 0.38318 0.77681 0.55369 0.0
H1287 H 0.38101 0.79511 0.49306 0.0
H1288 H 0.39622 0.78564 0.62572 0.0
H1289 H 0.43522 0.72819 0.56402 0.0
H1290 H 0.44605 0.74962 0.55755 0.0
H1291 H 0.42506 0.74512 0.53256 0.0
C1292 C 0.42676 0.79478 0.50331 0.0
C1293 C 0.40985 0.79886 0.4867 0.0
C1294 C 0.42797 0.78446 0.53823 0.0
C1295 C 0.41232 0.77779 0.55667 0.0
C1296 C 0.39544 0.78181 0.53996 0.0
H1297 H 0.4003 0.69289 0.72904 0.0
H1298 H 0.40238 0.71201 0.66995 0.0
C1299 C 0.39421 0.79227 0.50539 0.0
C1300 C 0.41333 0.76705 0.59402 0.0
H1301 H 0.43035 0.72831 0.6341 0.0
C1302 C 0.4037 0.77311 0.62759 0.0
C1303 C 0.42296 0.75062 0.59624 0.0
C1304 C 0.43277 0.74288 0.56059 0.0
C1305 C 0.40323 0.76311 0.6632 0.0
C1306 C 0.41314 0.74686 0.66569 0.0
C1307 C 0.42292 0.74087 0.63224 0.0
C1308 C 0.41258 0.73527 0.70182 0.0
C1309 C 0.39159 0.76975 0.69722 0.0
C1310 C 0.41792 0.74188 0.73935 0.0
C1311 C 0.41638 0.73108 0.77348 0.0
C1312 C 0.40969 0.71337 0.7706 0.0
C1313 C 0.40503 0.70661 0.73263 0.0
C1314 C 0.40641 0.71745 0.69868 0.0
H1315 H 0.38138 0.77966 0.68687 0.0
H1316 H 0.38448 0.75839 0.71204 0.0
H1317 H 0.40022 0.77652 0.71979 0.0
H1318 H 0.42312 0.75545 0.74233 0.0
H1319 H 0.42007 0.73674 0.8022 0.0
H1320 H 0.68896 0.60626 0.27459 0.0
H1321 H 0.70773 0.60447 0.33427 0.0
H1322 H 0.7529 0.58759 0.26215 0.0
H1323 H 0.73445 0.5903 0.20179 0.0
H1324 H 0.72544 0.57658 0.36796 0.0
H1325 H 0.77396 0.62983 0.3227 0.0
H1326 H 0.75309 0.62596 0.2964 0.0
H1327 H 0.77219 0.61155 0.28773 0.0
C1328 C 0.70297 0.60246 0.27122 0.0
C1329 C 0.71028 0.59874 0.23323 0.0
C1330 C 0.71363 0.60124 0.30547 0.0
C1331 C 0.73179 0.5962 0.30259 0.0
C1332 C 0.73902 0.59189 0.26495 0.0
H1333 H 0.79692 0.56938 0.51305 0.0
H1334 H 0.77918 0.56752 0.45137 0.0
C1335 C 0.72839 0.59325 0.23053 0.0
C1336 C 0.74307 0.59565 0.33914 0.0
H1337 H 0.78032 0.61419 0.38264 0.0
C1338 C 0.73747 0.58477 0.3712 0.0
C1339 C 0.75861 0.60653 0.34341 0.0
C1340 C 0.76476 0.61926 0.31092 0.0
C1341 C 0.74691 0.58457 0.40758 0.0
C1342 C 0.76263 0.59521 0.41158 0.0
C1343 C 0.76832 0.60596 0.37939 0.0
C1344 C 0.77302 0.59603 0.4494 0.0
C1345 C 0.7396 0.57344 0.44174 0.0
C1346 C 0.77573 0.61271 0.46831 0.0
C1347 C 0.78601 0.61382 0.50317 0.0
C1348 C 0.79372 0.59826 0.51987 0.0
C1349 C 0.79088 0.58153 0.50114 0.0
C1350 C 0.78073 0.58045 0.46598 0.0
H1351 H 0.72515 0.57005 0.43738 0.0
H1352 H 0.74724 0.56061 0.44362 0.0
H1353 H 0.74109 0.58065 0.47068 0.0
H1354 H 0.76991 0.62489 0.45601 0.0
H1355 H 0.7879 0.62686 0.51714 0.0
H1356 H 0.5664 0.30936 0.74769 0.0
H1357 H 0.56218 0.29049 0.68817 0.0
H1358 H 0.61239 0.26341 0.71279 0.0
H1359 H 0.61646 0.28181 0.7727 0.0
H1360 H 0.58521 0.28826 0.62205 0.0
H1361 H 0.5772 0.22164 0.69475 0.0
H1362 H 0.57494 0.2426 0.7218 0.0
H1363 H 0.59692 0.23353 0.71125 0.0
C1364 C 0.57638 0.29918 0.74075 0.0
C1365 C 0.59176 0.29705 0.76488 0.0
C1366 C 0.574 0.2885 0.70667 0.0
C1367 C 0.58685 0.27541 0.69647 0.0
C1368 C 0.60215 0.27321 0.72058 0.0
H1369 H 0.61731 0.22691 0.47549 0.0
H1370 H 0.61314 0.24555 0.53505 0.0
C1371 C 0.60456 0.28388 0.75452 0.0
C1372 C 0.58487 0.26463 0.6595 0.0
H1373 H 0.58438 0.22139 0.62477 0.0
C1374 C 0.58478 0.27364 0.6226 0.0
C1375 C 0.58406 0.2456 0.66037 0.0
C1376 C 0.5831 0.23526 0.69919 0.0
C1377 C 0.58477 0.26406 0.58641 0.0
C1378 C 0.58512 0.24501 0.58732 0.0
C1379 C 0.58432 0.23601 0.6242 0.0
C1380 C 0.58719 0.23416 0.55048 0.0
C1381 C 0.58456 0.27441 0.54756 0.0
C1382 C 0.57415 0.22132 0.53991 0.0
C1383 C 0.57658 0.21051 0.50609 0.0
C1384 C 0.5922 0.21224 0.48251 0.0
C1385 C 0.60521 0.22515 0.49322 0.0
C1386 C 0.60275 0.23596 0.52695 0.0
H1387 H 0.57895 0.28818 0.55165 0.0
H1388 H 0.59856 0.2758 0.53631 0.0
H1389 H 0.5765 0.26727 0.52447 0.0
H1390 H 0.56214 0.21962 0.55797 0.0
H1391 H 0.56644 0.20052 0.49894 0.0
H1392 H 0.35722 0.04033 0.22663 0.0
H1393 H 0.36136 0.00894 0.24682 0.0
H1394 H 0.37204 0.99412 0.12441 0.0
H1395 H 0.36752 0.02533 0.10365 0.0
H1396 H 0.34231 0.97661 0.21486 0.0
H1397 H 0.41662 0.97569 0.19093 0.0
H1398 H 0.40415 0.99642 0.19712 0.0
H1399 H 0.40285 0.98422 0.15086 0.0
C1400 C 0.36024 0.03043 0.20384 0.0
C1401 C 0.36216 0.03551 0.16347 0.0
C1402 C 0.3627 0.01249 0.21551 0.0
C1403 C 0.36724 0.9993 0.18716 0.0
C1404 C 0.36884 0.00418 0.14683 0.0
H1405 H 0.39678 0.88598 0.23373 0.0
H1406 H 0.39019 0.91424 0.19801 0.0
C1407 C 0.36631 0.02208 0.13508 0.0
C1408 C 0.37026 0.98043 0.19989 0.0
H1409 H 0.40317 0.94887 0.21382 0.0
C1410 C 0.35559 0.97049 0.21444 0.0
C1411 C 0.38756 0.97244 0.19878 0.0
C1412 C 0.40378 0.9827 0.18383 0.0
C1413 C 0.3578 0.95283 0.22863 0.0
C1414 C 0.37525 0.94509 0.22919 0.0
C1415 C 0.38982 0.95482 0.21333 0.0
C1416 C 0.37887 0.92773 0.2497 0.0
C1417 C 0.34143 0.94265 0.24304 0.0
C1418 C 0.37498 0.92607 0.29055 0.0
C1419 C 0.37866 0.91009 0.31079 0.0
C1420 C 0.38654 0.89538 0.29081 0.0
C1421 C 0.39064 0.89704 0.24988 0.0
C1422 C 0.38689 0.91316 0.2295 0.0
H1423 H 0.32894 0.94766 0.22845 0.0
H1424 H 0.3427 0.92798 0.23711 0.0
H1425 H 0.33991 0.94466 0.27578 0.0
H1426 H 0.36926 0.93727 0.30702 0.0
H1427 H 0.37544 0.90939 0.34236 0.0
H1428 H 0.90335 0.63645 0.66272 0.0
H1429 H 0.93227 0.64166 0.695 0.0
H1430 H 0.91576 0.60885 0.79501 0.0
H1431 H 0.88649 0.60339 0.7625 0.0
H1432 H 0.93972 0.65688 0.77183 0.0
H1433 H 0.96418 0.58627 0.75622 0.0
H1434 H 0.94525 0.59478 0.72807 0.0
H1435 H 0.94267 0.5894 0.7801 0.0
C1436 C 0.90577 0.63031 0.69163 0.0
C1437 C 0.89266 0.61938 0.70994 0.0
C1438 C 0.92233 0.63337 0.71007 0.0
C1439 C 0.92622 0.62549 0.74712 0.0
C1440 C 0.91306 0.61486 0.7661 0.0
H1441 H 0.02767 0.62596 0.87732 0.0
H1442 H 0.99672 0.62105 0.85573 0.0
C1443 C 0.89635 0.61183 0.74765 0.0
C1444 C 0.94424 0.62838 0.76505 0.0
H1445 H 0.98404 0.60721 0.78536 0.0
C1446 C 0.9494 0.64602 0.77508 0.0
C1447 C 0.9568 0.61418 0.76908 0.0
C1448 C 0.95209 0.59508 0.7576 0.0
C1449 C 0.96684 0.64986 0.78894 0.0
C1450 C 0.97956 0.63573 0.79199 0.0
C1451 C 0.97428 0.61803 0.78276 0.0
C1452 C 0.99841 0.63899 0.80489 0.0
C1453 C 0.97141 0.66898 0.80054 0.0
C1454 C 0.00979 0.65054 0.78313 0.0
C1455 C 0.02754 0.65355 0.79566 0.0
C1456 C 0.03427 0.64498 0.83008 0.0
C1457 C 0.02289 0.63313 0.85123 0.0
C1458 C 0.00519 0.63017 0.83875 0.0
H1459 H 0.9591 0.677 0.80701 0.0
H1460 H 0.9803 0.66931 0.82725 0.0
H1461 H 0.97862 0.67558 0.7754 0.0
H1462 H 0.00495 0.65719 0.75636 0.0
H1463 H 0.03589 0.66277 0.77872 0.0
H1464 H 0.66748 0.97195 0.19103 0.0
H1465 H 0.66453 0.00328 0.21342 0.0
H1466 H 0.60836 0.0028 0.17987 0.0
H1467 H 0.61158 0.9718 0.1558 0.0
H1468 H 0.62279 0.03324 0.1578 0.0
H1469 H 0.64295 0.02054 0.3149 0.0
H1470 H 0.66018 0.01437 0.27989 0.0
H1471 H 0.63899 1.00249 0.27993 0.0
C1472 C 0.6545 0.97855 0.18882 0.0
C1473 C 0.63972 0.96947 0.17201 0.0
C1474 C 0.65279 0.99642 0.20171 0.0
C1475 C 0.63612 0.00536 0.19914 0.0
C1476 C 0.62136 0.99625 0.18223 0.0
H1477 H 0.6039 0.09607 0.34026 0.0
H1478 H 0.60901 0.06707 0.3081 0.0
C1479 C 0.62318 0.97853 0.16859 0.0
C1480 C 0.63392 0.0242 0.21383 0.0
H1481 H 0.63923 0.05101 0.29599 0.0
C1482 C 0.62634 0.03713 0.18808 0.0
C1483 C 0.63841 0.02927 0.25344 0.0
C1484 C 0.64541 0.0159 0.28375 0.0
C1485 C 0.62283 0.05483 0.20097 0.0
C1486 C 0.62764 0.05998 0.24034 0.0
C1487 C 0.6356 0.04714 0.26574 0.0
C1488 C 0.62341 0.07808 0.25726 0.0
C1489 C 0.61336 0.06757 0.17277 0.0
C1490 C 0.62942 0.09412 0.23906 0.0
C1491 C 0.62606 0.1109 0.25709 0.0
C1492 C 0.61711 0.11176 0.29408 0.0
C1493 C 0.61095 0.09576 0.31185 0.0
C1494 C 0.61392 0.07916 0.29352 0.0
H1495 H 0.60625 0.06021 0.14849 0.0
H1496 H 0.60341 0.07605 0.18893 0.0
H1497 H 0.62346 0.07657 0.15862 0.0
H1498 H 0.63714 0.09367 0.21159 0.0
H1499 H 0.6311 0.12306 0.24308 0.0
H1500 H 0.10338 0.36268 0.67271 0.0
H1501 H 0.07459 0.35833 0.70639 0.0
H1502 H 0.0893 0.39802 0.7948 0.0
H1503 H 0.11846 0.40252 0.76096 0.0
H1504 H 0.06715 0.34865 0.78947 0.0
H1505 H 0.04032 0.41568 0.74371 0.0
H1506 H 0.05953 0.40548 0.71944 0.0
H1507 H 0.06189 0.41515 0.76835 0.0
C1508 C 0.1006 0.37045 0.69946 0.0
C1509 C 0.11314 0.38306 0.71404 0.0
C1510 C 0.08414 0.36789 0.71872 0.0
C1511 C 0.07977 0.37797 0.75278 0.0
C1512 C 0.09241 0.39023 0.76827 0.0
H1513 H 0.98247 0.3596 0.89463 0.0
H1514 H 0.01368 0.36433 0.87348 0.0
C1515 C 0.10906 0.39272 0.74909 0.0
C1516 C 0.06165 0.37585 0.77079 0.0
H1517 H 0.02064 0.39644 0.77875 0.0
C1518 C 0.05702 0.35915 0.78762 0.0
C1519 C 0.04844 0.3895 0.76763 0.0
C1520 C 0.05263 0.40746 0.74862 0.0
C1521 C 0.03943 0.35568 0.8011 0.0
C1522 C 0.0262 0.3693 0.79776 0.0
C1523 C 0.03086 0.38606 0.78128 0.0
C1524 C 0.00732 0.36627 0.8105 0.0
C1525 C 0.03495 0.3373 0.81767 0.0
C1526 C 0.9934 0.36594 0.78207 0.0
C1527 C 0.97553 0.36327 0.79407 0.0
C1528 C 0.97126 0.3611 0.83478 0.0
C1529 C 0.98528 0.36142 0.86311 0.0
C1530 C 0.00314 0.36397 0.85108 0.0
H1531 H 0.04571 0.32729 0.81124 0.0
H1532 H 0.03332 0.33826 0.85061 0.0
H1533 H 0.02205 0.33229 0.805 0.0
H1534 H 0.99639 0.36775 0.75059 0.0
H1535 H 0.96503 0.3633 0.77161 0.0
H1536 H 0.40282 0.61992 0.01177 0.0
H1537 H 0.39866 0.59007 0.04266 0.0
H1538 H 0.36425 0.57428 0.94479 0.0
H1539 H 0.36844 0.60364 0.91381 0.0
H1540 H 0.36673 0.57129 0.06603 0.0
H1541 H 0.40298 0.53498 0.94551 0.0
H1542 H 0.40448 0.5591 0.95191 0.0
H1543 H 0.38534 0.54927 0.92706 0.0
C1544 C 0.39431 0.61009 0.99705 0.0
C1545 C 0.38614 0.61406 0.96013 0.0
C1546 C 0.39197 0.59306 0.01464 0.0
C1547 C 0.38149 0.57984 0.99548 0.0
C1548 C 0.37278 0.58411 0.95954 0.0
H1549 H 0.34403 0.47102 0.03174 0.0
H1550 H 0.35042 0.50163 0.00822 0.0
C1551 C 0.37514 0.60096 0.94197 0.0
C1552 C 0.37952 0.56149 0.01247 0.0
H1553 H 0.38508 0.51697 0.98947 0.0
C1554 C 0.37093 0.5594 0.0496 0.0
C1555 C 0.38501 0.54601 0.99089 0.0
C1556 C 0.39513 0.54741 0.95181 0.0
C1557 C 0.36708 0.5422 0.06501 0.0
C1558 C 0.37214 0.52674 0.04286 0.0
C1559 C 0.38107 0.52884 0.00618 0.0
C1560 C 0.36829 0.50824 0.0572 0.0
C1561 C 0.35711 0.54067 0.10423 0.0
C1562 C 0.37648 0.50173 0.09208 0.0
C1563 C 0.37297 0.48424 0.10541 0.0
C1564 C 0.36121 0.47283 0.08409 0.0
C1565 C 0.35323 0.47934 0.04876 0.0
C1566 C 0.35679 0.49687 0.03539 0.0
H1567 H 0.35073 0.55362 0.11304 0.0
H1568 H 0.34652 0.53011 0.1025 0.0
H1569 H 0.36673 0.53675 0.1281 0.0
H1570 H 0.38573 0.51014 0.10883 0.0
H1571 H 0.37971 0.47961 0.13219 0.0
H1572 H 0.59367 0.6198 0.09777 0.0
H1573 H 0.56554 0.62569 0.06291 0.0
H1574 H 0.59184 0.61655 0.94959 0.0
H1575 H 0.62033 0.61036 0.98461 0.0
H1576 H 0.55922 0.65282 0.00678 0.0
H1577 H 0.54637 0.58461 0.94335 0.0
H1578 H 0.56248 0.58842 0.98293 0.0
H1579 H 0.56792 0.59456 0.93239 0.0
C1580 C 0.59355 0.61892 0.06542 0.0
C1581 C 0.60928 0.6146 0.04395 0.0
C1582 C 0.57742 0.62232 0.04554 0.0
C1583 C 0.57656 0.62146 0.00372 0.0
C1584 C 0.59217 0.61704 0.98196 0.0
H1585 H 0.48057 0.63994 0.8567 0.0
H1586 H 0.51157 0.63459 0.87818 0.0
C1587 C 0.60843 0.61357 0.00197 0.0
C1588 C 0.55928 0.62573 0.98359 0.0
H1589 H 0.52468 0.60705 0.93044 0.0
C1590 C 0.55172 0.64285 0.98982 0.0
C1591 C 0.54957 0.61272 0.96141 0.0
C1592 C 0.55686 0.59398 0.95472 0.0
C1593 C 0.53455 0.64721 0.9752 0.0
C1594 C 0.52458 0.63401 0.95425 0.0
C1595 C 0.53236 0.6171 0.94671 0.0
C1596 C 0.50577 0.6373 0.94128 0.0
C1597 C 0.52719 0.66588 0.98246 0.0
C1598 C 0.49219 0.64039 0.96971 0.0
C1599 C 0.4744 0.64331 0.9576 0.0
C1600 C 0.46981 0.64313 0.91676 0.0
C1601 C 0.4835 0.63996 0.88839 0.0
C1602 C 0.50128 0.63698 0.90057 0.0
H1603 H 0.5381 0.67568 0.98925 0.0
H1604 H 0.51952 0.67077 0.95609 0.0
H1605 H 0.5179 0.66552 0.00848 0.0
H1606 H 0.49533 0.64034 0.00137 0.0
H1607 H 0.46422 0.64538 0.98033 0.0
H1608 H 0.62288 0.52762 0.1303 0.0
H1609 H 0.61955 0.4963 0.10984 0.0
H1610 H 0.65869 0.50443 0.01615 0.0
H1611 H 0.66276 0.53566 0.03759 0.0
H1612 H 0.60822 0.48235 0.03983 0.0
H1613 H 0.67802 0.45953 0.06962 0.0
H1614 H 0.66947 0.48082 0.08759 0.0
H1615 H 0.67705 0.47859 0.03666 0.0
C1616 C 0.63105 0.52276 0.10575 0.0
C1617 C 0.64328 0.53424 0.08596 0.0
C1618 C 0.629 0.50482 0.0939 0.0
C1619 C 0.63912 0.49787 0.06199 0.0
C1620 C 0.65106 0.50934 0.04153 0.0
H1621 H 0.64058 0.40379 0.91707 0.0
H1622 H 0.64546 0.4322 0.95199 0.0
C1623 C 0.65319 0.52731 0.0535 0.0
C1624 C 0.6367 0.47881 0.04938 0.0
H1625 H 0.65946 0.4396 0.03133 0.0
C1626 C 0.61938 0.47294 0.03845 0.0
C1627 C 0.65125 0.46648 0.04785 0.0
C1628 C 0.66996 0.4716 0.06144 0.0
C1629 C 0.61636 0.45533 0.02448 0.0
C1630 C 0.63101 0.44321 0.02178 0.0
C1631 C 0.64825 0.44892 0.03358 0.0
C1632 C 0.62903 0.42519 0.00311 0.0
C1633 C 0.59767 0.45002 0.01113 0.0
C1634 C 0.61851 0.41158 0.02082 0.0
C1635 C 0.61574 0.39515 0.0009 0.0
C1636 C 0.62335 0.39223 0.96291 0.0
C1637 C 0.63439 0.40567 0.94614 0.0
C1638 C 0.63725 0.42192 0.9661 0.0
H1639 H 0.58842 0.46177 0.00955 0.0
H1640 H 0.59817 0.44347 0.98127 0.0
H1641 H 0.59197 0.44015 0.03264 0.0
H1642 H 0.61221 0.41379 0.04964 0.0
H1643 H 0.60716 0.38504 0.01451 0.0
H1644 H 0.41227 0.4123 0.09055 0.0
H1645 H 0.44149 0.40715 0.05914 0.0
H1646 H 0.41542 0.3789 0.96217 0.0
H1647 H 0.38591 0.38486 0.99285 0.0
H1648 H 0.45697 0.37624 0.04828 0.0
H1649 H 0.45005 0.40918 0.90019 0.0
H1650 H 0.43394 0.41255 0.93993 0.0
H1651 H 0.43303 0.39252 0.90957 0.0
C1652 C 0.41275 0.40531 0.06209 0.0
C1653 C 0.39688 0.39902 0.044 0.0
C1654 C 0.42946 0.40231 0.04422 0.0
C1655 C 0.43073 0.3927 0.00815 0.0
C1656 C 0.41481 0.38671 0.98949 0.0
H1657 H 0.53422 0.34291 0.9444 0.0
H1658 H 0.50308 0.34793 0.96624 0.0
C1659 C 0.39796 0.39007 0.00705 0.0
C1660 C 0.44885 0.38799 0.99215 0.0
H1661 H 0.47617 0.39126 0.91018 0.0
C1662 C 0.46116 0.37958 0.01808 0.0
C1663 C 0.4544 0.39243 0.95284 0.0
C1664 C 0.44223 0.40232 0.92413 0.0
C1665 C 0.4789 0.37579 0.00619 0.0
C1666 C 0.48434 0.37984 0.9666 0.0
C1667 C 0.47197 0.38803 0.94044 0.0
C1668 C 0.50302 0.37645 0.95227 0.0
C1669 C 0.49175 0.36814 0.03681 0.0
C1670 C 0.51318 0.3906 0.93581 0.0
C1671 C 0.5308 0.38764 0.92259 0.0
C1672 C 0.53869 0.37051 0.92594 0.0
C1673 C 0.52854 0.35631 0.94224 0.0
C1674 C 0.51078 0.3592 0.95479 0.0
H1675 H 0.48714 0.3709 0.06785 0.0
H1676 H 0.4925 0.3533 0.03309 0.0
H1677 H 0.50551 0.37381 0.03314 0.0
H1678 H 0.50752 0.40402 0.93351 0.0
H1679 H 0.53837 0.39881 0.91025 0.0
H1680 H 0.86841 0.40428 0.83417 0.0
H1681 H 0.86455 0.43342 0.80201 0.0
H1682 H 0.90246 0.41814 0.71018 0.0
H1683 H 0.90618 0.3885 0.7421 0.0
H1684 H 0.89107 0.45859 0.79101 0.0
H1685 H 0.8606 0.43895 0.64533 0.0
H1686 H 0.86179 0.42368 0.68731 0.0
H1687 H 0.8815 0.42802 0.65758 0.0
C1688 C 0.87584 0.40699 0.80691 0.0
C1689 C 0.88766 0.3941 0.79072 0.0
C1690 C 0.8736 0.42369 0.78857 0.0
C1691 C 0.88314 0.42795 0.75362 0.0
C1692 C 0.89474 0.41502 0.73679 0.0
H1693 H 0.88606 0.53045 0.62532 0.0
H1694 H 0.89201 0.49982 0.64835 0.0
C1695 C 0.8969 0.39813 0.75509 0.0
C1696 C 0.88145 0.44634 0.73661 0.0
H1697 H 0.8667 0.46992 0.65516 0.0
C1698 C 0.88579 0.46105 0.76125 0.0
C1699 C 0.8746 0.44952 0.69774 0.0
C1700 C 0.8692 0.43425 0.67046 0.0
C1701 C 0.88326 0.47885 0.74834 0.0
C1702 C 0.87604 0.48203 0.70988 0.0
C1703 C 0.87216 0.46738 0.68473 0.0
C1704 C 0.87214 0.50051 0.69562 0.0
C1705 C 0.88836 0.49414 0.77591 0.0
C1706 C 0.85884 0.51098 0.71437 0.0
C1707 C 0.85526 0.52849 0.70108 0.0
C1708 C 0.8649 0.53586 0.6687 0.0
C1709 C 0.87817 0.52522 0.64994 0.0
C1710 C 0.88168 0.5077 0.66315 0.0
H1711 H 0.89752 0.48961 0.80019 0.0
H1712 H 0.89502 0.50518 0.75903 0.0
H1713 H 0.87598 0.49968 0.78994 0.0
H1714 H 0.85114 0.50555 0.73914 0.0
H1715 H 0.84476 0.53611 0.71584 0.0
H1716 H 0.53236 0.11433 0.36698 0.0
H1717 H 0.50158 0.10914 0.34388 0.0
H1718 H 0.50673 0.15321 0.26066 0.0
H1719 H 0.53741 0.15881 0.28411 0.0
H1720 H 0.47197 0.13483 0.34373 0.0
H1721 H 0.48937 0.10961 0.19204 0.0
H1722 H 0.5055 0.11036 0.23246 0.0
H1723 H 0.49984 0.13058 0.20572 0.0
C1724 C 0.52698 0.12303 0.34394 0.0
C1725 C 0.53746 0.13702 0.32747 0.0
C1726 C 0.50938 0.11997 0.33068 0.0
C1727 C 0.50196 0.13069 0.30039 0.0
C1728 C 0.51233 0.14461 0.2837 0.0
H1729 H 0.40387 0.14005 0.1691 0.0
H1730 H 0.43342 0.14283 0.20008 0.0
C1731 C 0.52992 0.14774 0.29705 0.0
C1732 C 0.48325 0.12753 0.28663 0.0
H1733 H 0.45856 0.116 0.20449 0.0
C1734 C 0.46898 0.13058 0.3134 0.0
C1735 C 0.47948 0.12191 0.24714 0.0
C1736 C 0.49433 0.11775 0.21768 0.0
C1737 C 0.45093 0.12885 0.30116 0.0
C1738 C 0.44715 0.12358 0.26135 0.0
C1739 C 0.46148 0.12009 0.23497 0.0
C1740 C 0.42851 0.12261 0.24541 0.0
C1741 C 0.4361 0.13332 0.33041 0.0
C1742 C 0.41575 0.11047 0.26101 0.0
C1743 C 0.39864 0.10893 0.24344 0.0
C1744 C 0.39421 0.11935 0.20971 0.0
C1745 C 0.4069 0.13174 0.19488 0.0
C1746 C 0.42382 0.13335 0.21254 0.0
H1747 H 0.44123 0.14098 0.35661 0.0
H1748 H 0.42535 0.14135 0.31572 0.0
H1749 H 0.42998 0.12063 0.34155 0.0
H1750 H 0.41918 0.10182 0.28596 0.0
H1751 H 0.38917 0.09918 0.25529 0.0
H1752 H 0.14212 0.46136 0.72977 0.0
H1753 H 0.13625 0.49232 0.75119 0.0
H1754 H 0.13109 0.50879 0.62805 0.0
H1755 H 0.13717 0.47796 0.60629 0.0
H1756 H 0.15565 0.52417 0.73063 0.0
H1757 H 0.08421 0.52732 0.68063 0.0
H1758 H 0.09619 0.50629 0.68624 0.0
H1759 H 0.10027 0.52034 0.64344 0.0
C1760 C 0.13988 0.47155 0.70718 0.0
C1761 C 0.14002 0.46708 0.66627 0.0
C1762 C 0.13643 0.48923 0.7195 0.0
C1763 C 0.13295 0.50277 0.69121 0.0
C1764 C 0.13334 0.49846 0.65039 0.0
H1765 H 0.10829 0.61761 0.73158 0.0
H1766 H 0.11439 0.5886 0.69845 0.0
C1767 C 0.13681 0.4808 0.63803 0.0
C1768 C 0.12926 0.52146 0.70457 0.0
H1769 H 0.09662 0.55392 0.708 0.0
C1770 C 0.14277 0.5307 0.72558 0.0
C1771 C 0.11249 0.52999 0.69759 0.0
C1772 C 0.09737 0.52048 0.67601 0.0
C1773 C 0.13989 0.54818 0.74025 0.0
C1774 C 0.12294 0.5565 0.73436 0.0
C1775 C 0.1096 0.54749 0.71238 0.0
C1776 C 0.11845 0.57392 0.75365 0.0
C1777 C 0.15501 0.55758 0.76207 0.0
C1778 C 0.11822 0.57508 0.79547 0.0
C1779 C 0.11474 0.59146 0.81431 0.0
C1780 C 0.1113 0.60709 0.79174 0.0
C1781 C 0.11092 0.60582 0.74975 0.0
C1782 C 0.11443 0.5893 0.73082 0.0
H1783 H 0.16835 0.5518 0.7541 0.0
H1784 H 0.15514 0.57224 0.7553 0.0
H1785 H 0.15308 0.5559 0.79479 0.0
H1786 H 0.1209 0.56328 0.81363 0.0
H1787 H 0.11497 0.59188 0.8467 0.0
H1788 H 0.62524 0.87633 0.25587 0.0
H1789 H 0.59693 0.86798 0.28976 0.0
H1790 H 0.56671 0.88775 0.18861 0.0
H1791 H 0.59465 0.89528 0.1544 0.0
H1792 H 0.56822 0.88589 0.3146 0.0
H1793 H 0.54561 0.83867 0.19779 0.0
H1794 H 0.56815 0.84776 0.19854 0.0
H1795 H 0.54996 0.86026 0.17594 0.0
C1796 C 0.61251 0.87885 0.24106 0.0
C1797 C 0.61212 0.88618 0.2023 0.0
C1798 C 0.59637 0.87405 0.26032 0.0
C1799 C 0.57967 0.87666 0.24116 0.0
C1800 C 0.57938 0.88487 0.20336 0.0
H1801 H 0.47437 0.89189 0.33919 0.0
H1802 H 0.50576 0.89356 0.31753 0.0
C1803 C 0.59539 0.88933 0.18396 0.0
C1804 C 0.56239 0.87128 0.26042 0.0
H1805 H 0.52213 0.85095 0.2401 0.0
C1806 C 0.55824 0.878 0.29859 0.0
C1807 C 0.5495 0.86051 0.24022 0.0
C1808 C 0.55364 0.85122 0.20108 0.0
C1809 C 0.54121 0.87518 0.31596 0.0
C1810 C 0.5277 0.86599 0.29389 0.0
C1811 C 0.53225 0.85834 0.25681 0.0
C1812 C 0.50863 0.86483 0.30768 0.0
C1813 C 0.53796 0.88207 0.35783 0.0
C1814 C 0.49936 0.84828 0.3075 0.0
C1815 C 0.48118 0.84742 0.31875 0.0
C1816 C 0.47202 0.86306 0.33085 0.0
C1817 C 0.48123 0.87959 0.33072 0.0
C1818 C 0.49924 0.88051 0.31872 0.0
H1819 H 0.55067 0.88223 0.37542 0.0
H1820 H 0.53295 0.89615 0.35632 0.0
H1821 H 0.5279 0.87372 0.37401 0.0
H1822 H 0.50619 0.836 0.29876 0.0
H1823 H 0.47437 0.83451 0.31874 0.0
H1824 H 0.8685 0.10073 0.41365 0.0
H1825 H 0.86483 0.07146 0.4454 0.0
H1826 H 0.90258 0.08679 0.53746 0.0
H1827 H 0.90609 0.11654 0.50599 0.0
H1828 H 0.8914 0.04645 0.45606 0.0
H1829 H 0.86094 0.06553 0.60213 0.0
H1830 H 0.86209 0.08093 0.56039 0.0
H1831 H 0.88179 0.07662 0.59011 0.0
C1832 C 0.87593 0.098 0.44088 0.0
C1833 C 0.88764 0.11093 0.45728 0.0
C1834 C 0.8738 0.08123 0.45899 0.0
C1835 C 0.88334 0.07695 0.49389 0.0
C1836 C 0.89484 0.08992 0.5109 0.0
H1837 H 0.88778 0.97438 0.62128 0.0
H1838 H 0.89331 0.00508 0.59816 0.0
C1839 C 0.89689 0.10687 0.49285 0.0
C1840 C 0.88178 0.05851 0.51069 0.0
H1841 H 0.86747 0.03465 0.59217 0.0
C1842 C 0.8862 0.04388 0.48586 0.0
C1843 C 0.87504 0.05519 0.54961 0.0
C1844 C 0.86954 0.07036 0.5771 0.0
C1845 C 0.88388 0.02604 0.49868 0.0
C1846 C 0.87681 0.02273 0.53723 0.0
C1847 C 0.87282 0.0373 0.56253 0.0
C1848 C 0.87319 0.00419 0.55147 0.0
C1849 C 0.88906 0.01085 0.47094 0.0
C1850 C 0.85991 0.99359 0.53306 0.0
C1851 C 0.85656 0.97604 0.54641 0.0
C1852 C 0.86644 0.96876 0.5785 0.0
C1853 C 0.87972 0.97953 0.5969 0.0
C1854 C 0.88298 0.99709 0.58363 0.0
H1855 H 0.89804 0.01552 0.44642 0.0
H1856 H 0.89596 0.9999 0.48762 0.0
H1857 H 0.8767 0.00512 0.45724 0.0
H1858 H 0.85203 0.99895 0.50852 0.0
H1859 H 0.84606 0.96832 0.53194 0.0
H1860 H 0.09438 0.11602 0.59774 0.0
H1861 H 0.06626 0.12271 0.56354 0.0
H1862 H 0.09253 0.11586 0.44939 0.0
H1863 H 0.12101 0.10885 0.48373 0.0
H1864 H 0.05998 0.151 0.51075 0.0
H1865 H 0.04697 0.08449 0.43921 0.0
H1866 H 0.06315 0.08733 0.47904 0.0
H1867 H 0.06855 0.09457 0.4292 0.0
C1868 C 0.09425 0.1158 0.56534 0.0
C1869 C 0.10996 0.11189 0.54344 0.0
C1870 C 0.07812 0.11966 0.54584 0.0
C1871 C 0.07726 0.1197 0.50397 0.0
C1872 C 0.09285 0.11565 0.48178 0.0
H1873 H 0.98247 0.14141 0.35604 0.0
H1874 H 0.01329 0.13594 0.37855 0.0
C1875 C 0.1091 0.1117 0.5014 0.0
C1876 C 0.06001 0.12453 0.48427 0.0
H1877 H 0.0256 0.10743 0.42801 0.0
C1878 C 0.05251 0.14151 0.49244 0.0
C1879 C 0.05032 0.11215 0.46034 0.0
C1880 C 0.05753 0.09355 0.45154 0.0
C1881 C 0.03544 0.14635 0.47791 0.0
C1882 C 0.02551 0.13377 0.45504 0.0
C1883 C 0.03324 0.11701 0.44573 0.0
C1884 C 0.00687 0.13755 0.44154 0.0
C1885 C 0.02817 0.16488 0.48718 0.0
C1886 C 0.993 0.14019 0.46954 0.0
C1887 C 0.9753 0.14319 0.4568 0.0
C1888 C 0.97109 0.14352 0.41576 0.0
C1889 C 0.98511 0.14098 0.38785 0.0
C1890 C 0.00278 0.13794 0.40063 0.0
H1891 H 0.03911 0.1744 0.4955 0.0
H1892 H 0.02072 0.17047 0.4612 0.0
H1893 H 0.0187 0.16395 0.51281 0.0
H1894 H 0.99582 0.1396 0.50132 0.0
H1895 H 0.96487 0.14479 0.47915 0.0
H1896 H 0.13854 0.90108 0.41067 0.0
H1897 H 0.14351 0.92996 0.44332 0.0
H1898 H 0.10906 0.91371 0.5409 0.0
H1899 H 0.10428 0.88432 0.50843 0.0
H1900 H 0.11736 0.95469 0.4591 0.0
H1901 H 0.15245 0.93499 0.59935 0.0
H1902 H 0.15002 0.91981 0.55747 0.0
H1903 H 0.13133 0.92382 0.59049 0.0
C1904 C 0.13216 0.90351 0.43933 0.0
C1905 C 0.12095 0.89045 0.45694 0.0
C1906 C 0.13503 0.92006 0.45795 0.0
C1907 C 0.12673 0.92401 0.49459 0.0
C1908 C 0.11585 0.91084 0.51293 0.0
H1909 H 0.12384 0.025 0.62721 0.0
H1910 H 0.1188 0.9944 0.60314 0.0
C1911 C 0.11308 0.89409 0.49435 0.0
C1912 C 0.12873 0.94237 0.51172 0.0
H1913 H 0.14509 0.96585 0.59181 0.0
C1914 C 0.12343 0.95712 0.48813 0.0
C1915 C 0.13659 0.94551 0.54963 0.0
C1916 C 0.14308 0.93023 0.57567 0.0
C1917 C 0.12587 0.97491 0.50127 0.0
C1918 C 0.13399 0.97805 0.53885 0.0
C1919 C 0.13895 0.96335 0.56289 0.0
C1920 C 0.13742 0.99657 0.55364 0.0
C1921 C 0.11962 0.99021 0.47498 0.0
C1922 C 0.14972 0.00789 0.53394 0.0
C1923 C 0.15279 0.02543 0.54783 0.0
C1924 C 0.14364 0.03195 0.58177 0.0
C1925 C 0.13137 0.02045 0.60141 0.0
C1926 C 0.12837 0.00293 0.5876 0.0
H1927 H 0.11009 0.98555 0.45152 0.0
H1928 H 0.11295 1.00085 0.49307 0.0
H1929 H 0.13146 0.99634 0.4599 0.0
H1930 H 0.15703 0.00312 0.50795 0.0
H1931 H 0.16251 0.03374 0.53228 0.0
H1932 H 0.03742 0.84456 0.46008 0.0
H1933 H 0.00663 0.85009 0.48281 0.0
H1934 H 1.00173 0.89394 0.39902 0.0
H1935 H 0.03265 0.88889 0.37669 0.0
H1936 H 0.9924 0.88453 0.51402 0.0
H1937 H 0.95706 0.86034 0.37723 0.0
H1938 H 0.97996 0.85394 0.38888 0.0
H1939 H 0.97523 0.87611 0.37023 0.0
C1940 C 0.02994 0.8555 0.44665 0.0
C1941 C 0.03764 0.86623 0.41638 0.0
C1942 C 0.01226 0.85855 0.45953 0.0
C1943 C 1.00185 0.87225 0.44219 0.0
C1944 C 0.00945 0.88308 0.41225 0.0
H1945 H 0.88993 0.90458 0.4914 0.0
H1946 H 0.91998 0.90173 0.46083 0.0
C1947 C 0.02716 0.88012 0.39949 0.0
C1948 C 0.98321 0.87552 0.45635 0.0
H1949 H 0.93895 0.87207 0.42915 0.0
C1950 C 0.98071 0.88184 0.49548 0.0
C1951 C 0.96802 0.8722 0.43186 0.0
C1952 C 0.97006 0.86516 0.38975 0.0
C1953 C 0.96338 0.88482 0.51097 0.0
C1954 C 0.94813 0.88091 0.487 0.0
C1955 C 0.95064 0.875 0.44748 0.0
C1956 C 0.92957 0.88196 0.50341 0.0
C1957 C 0.96159 0.89226 0.55284 0.0
C1958 C 0.92483 0.87136 0.53649 0.0
C1959 C 0.90785 0.87301 0.55397 0.0
C1960 C 0.89509 0.88514 0.53844 0.0
C1961 C 0.89949 0.89515 0.50406 0.0
C1962 C 0.91664 0.89356 0.48665 0.0
H1963 H 0.97394 0.89963 0.56213 0.0
H1964 H 0.94988 0.90151 0.55529 0.0
H1965 H 0.95956 0.88095 0.57409 0.0
H1966 H 0.93441 0.86195 0.54923 0.0
H1967 H 0.90482 0.8649 0.58008 0.0
loop_
_geom_bond_atom_site_label_1
_geom_bond_atom_site_label_2
_geom_bond_distance
_geom_bond_site_symmetry_2
_ccdc_geom_bond_type
C0 C1 1.351 . S
C0 N3 1.368 . S
C0 H5 0.931 . S
C1 C0 1.351 . S
C1 N2 1.373 . S
C1 H29 0.930 . S
N2 C1 1.373 . S
N2 C4 1.340 . S
N3 C0 1.368 . S
N3 C4 1.321 . S
N3 Co6 2.135 . S
C4 N2 1.340 . S
C4 N3 1.321 . S
C4 H28 0.930 . S
H5 C0 0.931 . S
Co6 N3 2.135 . S
Co6 N9 2.121 . S
Co6 O14 2.055 . S
Co6 O17 2.039 . S
Co6 N20 2.140 . S
C7 O8 1.227 . S
C7 O17 1.265 . S
O8 C7 1.227 . S
N9 Co6 2.121 . S
N9 C11 1.375 . S
N9 C12 1.313 . S
C10 C11 1.338 . S
C10 N13 1.377 . S
C10 H30 0.930 . S
C11 N9 1.375 . S
C11 C10 1.338 . S
C11 H15 0.931 . S
C12 N9 1.313 . S
C12 N13 1.344 . S
C12 H16 0.930 . S
N13 C10 1.377 . S
N13 C12 1.344 . S
O14 Co6 2.055 . S
O14 C18 1.253 . S
H15 C11 0.931 . S
H16 C12 0.930 . S
O17 Co6 2.039 . S
O17 C7 1.265 . S
C18 O14 1.253 . S
C18 O19 1.227 . S
O19 C18 1.227 . S
N20 Co6 2.140 . S
N20 C23 1.346 . S
N20 C24 1.345 . S
C21 C22 1.387 . S
C21 C25 1.391 . S
C22 C21 1.387 . S
C22 C23 1.369 . S
C22 H31 0.929 . S
C23 N20 1.346 . S
C23 C22 1.369 . S
C23 H26 0.928 . S
C24 N20 1.345 . S
C24 C25 1.371 . S
C24 H27 0.931 . S
C25 C21 1.391 . S
C25 C24 1.371 . S
C25 H32 0.930 . S
H26 C23 0.928 . S
H27 C24 0.931 . S
H28 C4 0.930 . S
H29 C1 0.930 . S
H30 C10 0.930 . S
H31 C22 0.929 . S
H32 C25 0.930 . S
C33 C34 1.351 . S
C33 N36 1.368 . S
C33 H38 0.931 . S
C34 C33 1.351 . S
C34 N35 1.373 . S
C34 H62 0.930 . S
N35 C34 1.373 . S
N35 C37 1.340 . S
N36 C33 1.368 . S
N36 C37 1.321 . S
N36 Co39 2.135 . S
C37 N35 1.340 . S
C37 N36 1.321 . S
C37 H61 0.930 . S
H38 C33 0.931 . S
Co39 N36 2.135 . S
Co39 N42 2.121 . S
Co39 O47 2.055 . S
Co39 O50 2.039 . S
Co39 N53 2.140 . S
C40 O41 1.227 . S
C40 O50 1.265 . S
O41 C40 1.227 . S
N42 Co39 2.121 . S
N42 C44 1.375 . S
N42 C45 1.313 . S
C43 C44 1.338 . S
C43 N46 1.377 . S
C43 H63 0.930 . S
C44 N42 1.375 . S
C44 C43 1.338 . S
C44 H48 0.931 . S
C45 N42 1.313 . S
C45 N46 1.344 . S
C45 H49 0.930 . S
N46 C43 1.377 . S
N46 C45 1.344 . S
O47 Co39 2.055 . S
O47 C51 1.253 . S
H48 C44 0.931 . S
H49 C45 0.930 . S
O50 Co39 2.039 . S
O50 C40 1.265 . S
C51 O47 1.253 . S
C51 O52 1.227 . S
O52 C51 1.227 . S
N53 Co39 2.140 . S
N53 C56 1.346 . S
N53 C57 1.345 . S
C54 C55 1.387 . S
C54 C58 1.391 . S
C55 C54 1.387 . S
C55 C56 1.369 . S
C55 H64 0.929 . S
C56 N53 1.346 . S
C56 C55 1.369 . S
C56 H59 0.928 . S
C57 N53 1.345 . S
C57 C58 1.371 . S
C57 H60 0.931 . S
C58 C54 1.391 . S
C58 C57 1.371 . S
C58 H65 0.930 . S
H59 C56 0.928 . S
H60 C57 0.931 . S
H61 C37 0.930 . S
H62 C34 0.930 . S
H63 C43 0.930 . S
H64 C55 0.929 . S
H65 C58 0.930 . S
C66 C67 1.351 . S
C66 N69 1.368 . S
C66 H71 0.931 . S
C67 C66 1.351 . S
C67 N68 1.373 . S
C67 H95 0.930 . S
N68 C67 1.373 . S
N68 C70 1.340 . S
N69 C66 1.368 . S
N69 C70 1.321 . S
N69 Co72 2.135 . S
C70 N68 1.340 . S
C70 N69 1.321 . S
C70 H94 0.930 . S
H71 C66 0.931 . S
Co72 N69 2.135 . S
Co72 N75 2.121 . S
Co72 O80 2.055 . S
Co72 O83 2.039 . S
Co72 N86 2.140 . S
C73 O74 1.227 . S
C73 O83 1.265 . S
O74 C73 1.227 . S
N75 Co72 2.121 . S
N75 C77 1.375 . S
N75 C78 1.313 . S
C76 C77 1.338 . S
C76 N79 1.377 . S
C76 H96 0.930 . S
C77 N75 1.375 . S
C77 C76 1.338 . S
C77 H81 0.931 . S
C78 N75 1.313 . S
C78 N79 1.344 . S
C78 H82 0.930 . S
N79 C76 1.377 . S
N79 C78 1.344 . S
O80 Co72 2.055 . S
O80 C84 1.253 . S
H81 C77 0.931 . S
H82 C78 0.930 . S
O83 Co72 2.039 . S
O83 C73 1.265 . S
C84 O80 1.253 . S
C84 O85 1.227 . S
O85 C84 1.227 . S
N86 Co72 2.140 . S
N86 C89 1.346 . S
N86 C90 1.345 . S
C87 C88 1.387 . S
C87 C91 1.391 . S
C88 C87 1.387 . S
C88 C89 1.369 . S
C88 H97 0.929 . S
C89 N86 1.346 . S
C89 C88 1.369 . S
C89 H92 0.928 . S
C90 N86 1.345 . S
C90 C91 1.371 . S
C90 H93 0.931 . S
C91 C87 1.391 . S
C91 C90 1.371 . S
C91 H98 0.930 . S
H92 C89 0.928 . S
H93 C90 0.931 . S
H94 C70 0.930 . S
H95 C67 0.930 . S
H96 C76 0.930 . S
H97 C88 0.929 . S
H98 C91 0.930 . S
C99 C100 1.351 . S
C99 N102 1.368 . S
C99 H104 0.931 . S
C100 C99 1.351 . S
C100 N101 1.373 . S
C100 H128 0.930 . S
N101 C100 1.373 . S
N101 C103 1.340 . S
N102 C99 1.368 . S
N102 C103 1.321 . S
N102 Co105 2.135 . S
C103 N101 1.340 . S
C103 N102 1.321 . S
C103 H127 0.930 . S
H104 C99 0.931 . S
Co105 N102 2.135 . S
Co105 N108 2.121 . S
Co105 O113 2.055 . S
Co105 O116 2.039 . S
Co105 N119 2.140 . S
C106 O107 1.227 . S
C106 O116 1.265 . S
O107 C106 1.227 . S
N108 Co105 2.121 . S
N108 C110 1.375 . S
N108 C111 1.313 . S
C109 C110 1.338 . S
C109 N112 1.377 . S
C109 H129 0.930 . S
C110 N108 1.375 . S
C110 C109 1.338 . S
C110 H114 0.931 . S
C111 N108 1.313 . S
C111 N112 1.344 . S
C111 H115 0.930 . S
N112 C109 1.377 . S
N112 C111 1.344 . S
O113 Co105 2.055 . S
O113 C117 1.253 . S
H114 C110 0.931 . S
H115 C111 0.930 . S
O116 Co105 2.039 . S
O116 C106 1.265 . S
C117 O113 1.253 . S
C117 O118 1.227 . S
O118 C117 1.227 . S
N119 Co105 2.140 . S
N119 C122 1.346 . S
N119 C123 1.345 . S
C120 C121 1.387 . S
C120 C124 1.391 . S
C121 C120 1.387 . S
C121 C122 1.369 . S
C121 H130 0.929 . S
C122 N119 1.346 . S
C122 C121 1.369 . S
C122 H125 0.928 . S
C123 N119 1.345 . S
C123 C124 1.371 . S
C123 H126 0.931 . S
C124 C120 1.391 . S
C124 C123 1.371 . S
C124 H131 0.930 . S
H125 C122 0.928 . S
H126 C123 0.931 . S
H127 C103 0.930 . S
H128 C100 0.930 . S
H129 C109 0.930 . S
H130 C121 0.929 . S
H131 C124 0.930 . S
C132 C133 1.351 . S
C132 N135 1.368 . S
C132 H137 0.931 . S
C133 C132 1.351 . S
C133 N134 1.373 . S
C133 H161 0.930 . S
N134 C133 1.373 . S
N134 C136 1.340 . S
N135 C132 1.368 . S
N135 C136 1.321 . S
N135 Co138 2.135 . S
C136 N134 1.340 . S
C136 N135 1.321 . S
C136 H160 0.930 . S
H137 C132 0.931 . S
Co138 N135 2.135 . S
Co138 N141 2.121 . S
Co138 O146 2.055 . S
Co138 O149 2.039 . S
Co138 N152 2.140 . S
C139 O140 1.227 . S
C139 O149 1.265 . S
O140 C139 1.227 . S
N141 Co138 2.121 . S
N141 C143 1.375 . S
N141 C144 1.313 . S
C142 C143 1.338 . S
C142 N145 1.377 . S
C142 H162 0.930 . S
C143 N141 1.375 . S
C143 C142 1.338 . S
C143 H147 0.931 . S
C144 N141 1.313 . S
C144 N145 1.344 . S
C144 H148 0.930 . S
N145 C142 1.377 . S
N145 C144 1.344 . S
O146 Co138 2.055 . S
O146 C150 1.253 . S
H147 C143 0.931 . S
H148 C144 0.930 . S
O149 Co138 2.039 . S
O149 C139 1.265 . S
C150 O146 1.253 . S
C150 O151 1.227 . S
O151 C150 1.227 . S
N152 Co138 2.140 . S
N152 C155 1.346 . S
N152 C156 1.345 . S
C153 C154 1.387 . S
C153 C157 1.391 . S
C154 C153 1.387 . S
C154 C155 1.369 . S
C154 H163 0.929 . S
C155 N152 1.346 . S
C155 C154 1.369 . S
C155 H158 0.928 . S
C156 N152 1.345 . S
C156 C157 1.371 . S
C156 H159 0.931 . S
C157 C153 1.391 . S
C157 C156 1.371 . S
C157 H164 0.930 . S
H158 C155 0.928 . S
H159 C156 0.931 . S
H160 C136 0.930 . S
H161 C133 0.930 . S
H162 C142 0.930 . S
H163 C154 0.929 . S
H164 C157 0.930 . S
C165 C166 1.351 . S
C165 N168 1.368 . S
C165 H170 0.931 . S
C166 C165 1.351 . S
C166 N167 1.373 . S
C166 H194 0.930 . S
N167 C166 1.373 . S
N167 C169 1.340 . S
N168 C165 1.368 . S
N168 C169 1.321 . S
N168 Co171 2.135 . S
C169 N167 1.340 . S
C169 N168 1.321 . S
C169 H193 0.930 . S
H170 C165 0.931 . S
Co171 N168 2.135 . S
Co171 N174 2.121 . S
Co171 O179 2.055 . S
Co171 O182 2.039 . S
Co171 N185 2.140 . S
C172 O173 1.227 . S
C172 O182 1.265 . S
O173 C172 1.227 . S
N174 Co171 2.121 . S
N174 C176 1.375 . S
N174 C177 1.313 . S
C175 C176 1.338 . S
C175 N178 1.377 . S
C175 H195 0.930 . S
C176 N174 1.375 . S
C176 C175 1.338 . S
C176 H180 0.931 . S
C177 N174 1.313 . S
C177 N178 1.344 . S
C177 H181 0.930 . S
N178 C175 1.377 . S
N178 C177 1.344 . S
O179 Co171 2.055 . S
O179 C183 1.253 . S
H180 C176 0.931 . S
H181 C177 0.930 . S
O182 Co171 2.039 . S
O182 C172 1.265 . S
C183 O179 1.253 . S
C183 O184 1.227 . S
O184 C183 1.227 . S
N185 Co171 2.140 . S
N185 C188 1.346 . S
N185 C189 1.345 . S
C186 C187 1.387 . S
C186 C190 1.391 . S
C187 C186 1.387 . S
C187 C188 1.369 . S
C187 H196 0.929 . S
C188 N185 1.346 . S
C188 C187 1.369 . S
C188 H191 0.928 . S
C189 N185 1.345 . S
C189 C190 1.371 . S
C189 H192 0.931 . S
C190 C186 1.391 . S
C190 C189 1.371 . S
C190 H197 0.930 . S
H191 C188 0.928 . S
H192 C189 0.931 . S
H193 C169 0.930 . S
H194 C166 0.930 . S
H195 C175 0.930 . S
H196 C187 0.929 . S
H197 C190 0.930 . S
C198 C199 1.351 . S
C198 N201 1.368 . S
C198 H203 0.931 . S
C199 C198 1.351 . S
C199 N200 1.373 . S
C199 H227 0.930 . S
N200 C199 1.373 . S
N200 C202 1.340 . S
N201 C198 1.368 . S
N201 C202 1.321 . S
N201 Co204 2.135 . S
C202 N200 1.340 . S
C202 N201 1.321 . S
C202 H226 0.930 . S
H203 C198 0.931 . S
Co204 N201 2.135 . S
Co204 N207 2.121 . S
Co204 O212 2.055 . S
Co204 O215 2.039 . S
Co204 N218 2.140 . S
C205 O206 1.227 . S
C205 O215 1.265 . S
O206 C205 1.227 . S
N207 Co204 2.121 . S
N207 C209 1.375 . S
N207 C210 1.313 . S
C208 C209 1.338 . S
C208 N211 1.377 . S
C208 H228 0.930 . S
C209 N207 1.375 . S
C209 C208 1.338 . S
C209 H213 0.931 . S
C210 N207 1.313 . S
C210 N211 1.344 . S
C210 H214 0.930 . S
N211 C208 1.377 . S
N211 C210 1.344 . S
O212 Co204 2.055 . S
O212 C216 1.253 . S
H213 C209 0.931 . S
H214 C210 0.930 . S
O215 Co204 2.039 . S
O215 C205 1.265 . S
C216 O212 1.253 . S
C216 O217 1.227 . S
O217 C216 1.227 . S
N218 Co204 2.140 . S
N218 C221 1.346 . S
N218 C222 1.345 . S
C219 C220 1.387 . S
C219 C223 1.391 . S
C220 C219 1.387 . S
C220 C221 1.369 . S
C220 H229 0.929 . S
C221 N218 1.346 . S
C221 C220 1.369 . S
C221 H224 0.928 . S
C222 N218 1.345 . S
C222 C223 1.371 . S
C222 H225 0.931 . S
C223 C219 1.391 . S
C223 C222 1.371 . S
C223 H230 0.930 . S
H224 C221 0.928 . S
H225 C222 0.931 . S
H226 C202 0.930 . S
H227 C199 0.930 . S
H228 C208 0.930 . S
H229 C220 0.929 . S
H230 C223 0.930 . S
C231 C232 1.351 . S
C231 N234 1.368 . S
C231 H236 0.931 . S
C232 C231 1.351 . S
C232 N233 1.373 . S
C232 H260 0.930 . S
N233 C232 1.373 . S
N233 C235 1.340 . S
N234 C231 1.368 . S
N234 C235 1.321 . S
N234 Co237 2.135 . S
C235 N233 1.340 . S
C235 N234 1.321 . S
C235 H259 0.930 . S
H236 C231 0.931 . S
Co237 N234 2.135 . S
Co237 N240 2.121 . S
Co237 O245 2.055 . S
Co237 O248 2.039 . S
Co237 N251 2.140 . S
C238 O239 1.227 . S
C238 O248 1.265 . S
O239 C238 1.227 . S
N240 Co237 2.121 . S
N240 C242 1.375 . S
N240 C243 1.313 . S
C241 C242 1.338 . S
C241 N244 1.377 . S
C241 H261 0.930 . S
C242 N240 1.375 . S
C242 C241 1.338 . S
C242 H246 0.931 . S
C243 N240 1.313 . S
C243 N244 1.344 . S
C243 H247 0.930 . S
N244 C241 1.377 . S
N244 C243 1.344 . S
O245 Co237 2.055 . S
O245 C249 1.253 . S
H246 C242 0.931 . S
H247 C243 0.930 . S
O248 Co237 2.039 . S
O248 C238 1.265 . S
C249 O245 1.253 . S
C249 O250 1.227 . S
O250 C249 1.227 . S
N251 Co237 2.140 . S
N251 C254 1.346 . S
N251 C255 1.345 . S
C252 C253 1.387 . S
C252 C256 1.391 . S
C253 C252 1.387 . S
C253 C254 1.369 . S
C253 H262 0.929 . S
C254 N251 1.346 . S
C254 C253 1.369 . S
C254 H257 0.928 . S
C255 N251 1.345 . S
C255 C256 1.371 . S
C255 H258 0.931 . S
C256 C252 1.391 . S
C256 C255 1.371 . S
C256 H263 0.930 . S
H257 C254 0.928 . S
H258 C255 0.931 . S
H259 C235 0.930 . S
H260 C232 0.930 . S
H261 C241 0.930 . S
H262 C253 0.929 . S
H263 C256 0.930 . S
C264 C265 1.351 . S
C264 N267 1.368 . S
C264 H269 0.931 . S
C265 C264 1.351 . S
C265 N266 1.373 . S
C265 H293 0.930 . S
N266 C265 1.373 . S
N266 C268 1.340 . S
N267 C264 1.368 . S
N267 C268 1.321 . S
N267 Co270 2.135 . S
C268 N266 1.340 . S
C268 N267 1.321 . S
C268 H292 0.930 . S
H269 C264 0.931 . S
Co270 N267 2.135 . S
Co270 N273 2.121 . S
Co270 O278 2.055 . S
Co270 O281 2.039 . S
Co270 N284 2.140 . S
C271 O272 1.227 . S
C271 O281 1.265 . S
O272 C271 1.227 . S
N273 Co270 2.121 . S
N273 C275 1.375 . S
N273 C276 1.313 . S
C274 C275 1.338 . S
C274 N277 1.377 . S
C274 H294 0.930 . S
C275 N273 1.375 . S
C275 C274 1.338 . S
C275 H279 0.931 . S
C276 N273 1.313 . S
C276 N277 1.344 . S
C276 H280 0.930 . S
N277 C274 1.377 . S
N277 C276 1.344 . S
O278 Co270 2.055 . S
O278 C282 1.253 . S
H279 C275 0.931 . S
H280 C276 0.930 . S
O281 Co270 2.039 . S
O281 C271 1.265 . S
C282 O278 1.253 . S
C282 O283 1.227 . S
O283 C282 1.227 . S
N284 Co270 2.140 . S
N284 C287 1.346 . S
N284 C288 1.345 . S
C285 C286 1.387 . S
C285 C289 1.391 . S
C286 C285 1.387 . S
C286 C287 1.369 . S
C286 H295 0.929 . S
C287 N284 1.346 . S
C287 C286 1.369 . S
C287 H290 0.928 . S
C288 N284 1.345 . S
C288 C289 1.371 . S
C288 H291 0.931 . S
C289 C285 1.391 . S
C289 C288 1.371 . S
C289 H296 0.930 . S
H290 C287 0.928 . S
H291 C288 0.931 . S
H292 C268 0.930 . S
H293 C265 0.930 . S
H294 C274 0.930 . S
H295 C286 0.929 . S
H296 C289 0.930 . S
C297 C298 1.351 . S
C297 N300 1.368 . S
C297 H302 0.931 . S
C298 C297 1.351 . S
C298 N299 1.373 . S
C298 H326 0.930 . S
N299 C298 1.373 . S
N299 C301 1.340 . S
N300 C297 1.368 . S
N300 C301 1.321 . S
N300 Co303 2.135 . S
C301 N299 1.340 . S
C301 N300 1.321 . S
C301 H325 0.930 . S
H302 C297 0.931 . S
Co303 N300 2.135 . S
Co303 N306 2.121 . S
Co303 O311 2.055 . S
Co303 O314 2.039 . S
Co303 N317 2.140 . S
C304 O305 1.227 . S
C304 O314 1.265 . S
O305 C304 1.227 . S
N306 Co303 2.121 . S
N306 C308 1.375 . S
N306 C309 1.313 . S
C307 C308 1.338 . S
C307 N310 1.377 . S
C307 H327 0.930 . S
C308 N306 1.375 . S
C308 C307 1.338 . S
C308 H312 0.931 . S
C309 N306 1.313 . S
C309 N310 1.344 . S
C309 H313 0.930 . S
N310 C307 1.377 . S
N310 C309 1.344 . S
O311 Co303 2.055 . S
O311 C315 1.253 . S
H312 C308 0.931 . S
H313 C309 0.930 . S
O314 Co303 2.039 . S
O314 C304 1.265 . S
C315 O311 1.253 . S
C315 O316 1.227 . S
O316 C315 1.227 . S
N317 Co303 2.140 . S
N317 C320 1.346 . S
N317 C321 1.345 . S
C318 C319 1.387 . S
C318 C322 1.391 . S
C319 C318 1.387 . S
C319 C320 1.369 . S
C319 H328 0.929 . S
C320 N317 1.346 . S
C320 C319 1.369 . S
C320 H323 0.928 . S
C321 N317 1.345 . S
C321 C322 1.371 . S
C321 H324 0.931 . S
C322 C318 1.391 . S
C322 C321 1.371 . S
C322 H329 0.930 . S
H323 C320 0.928 . S
H324 C321 0.931 . S
H325 C301 0.930 . S
H326 C298 0.930 . S
H327 C307 0.930 . S
H328 C319 0.929 . S
H329 C322 0.930 . S
C330 C331 1.351 . S
C330 N333 1.368 . S
C330 H335 0.931 . S
C331 C330 1.351 . S
C331 N332 1.373 . S
C331 H359 0.930 . S
N332 C331 1.373 . S
N332 C334 1.340 . S
N333 C330 1.368 . S
N333 C334 1.321 . S
N333 Co336 2.135 . S
C334 N332 1.340 . S
C334 N333 1.321 . S
C334 H358 0.930 . S
H335 C330 0.931 . S
Co336 N333 2.135 . S
Co336 N339 2.121 . S
Co336 O344 2.055 . S
Co336 O347 2.039 . S
Co336 N350 2.140 . S
C337 O338 1.227 . S
C337 O347 1.265 . S
O338 C337 1.227 . S
N339 Co336 2.121 . S
N339 C341 1.375 . S
N339 C342 1.313 . S
C340 C341 1.338 . S
C340 N343 1.377 . S
C340 H360 0.930 . S
C341 N339 1.375 . S
C341 C340 1.338 . S
C341 H345 0.931 . S
C342 N339 1.313 . S
C342 N343 1.344 . S
C342 H346 0.930 . S
N343 C340 1.377 . S
N343 C342 1.344 . S
O344 Co336 2.055 . S
O344 C348 1.253 . S
H345 C341 0.931 . S
H346 C342 0.930 . S
O347 Co336 2.039 . S
O347 C337 1.265 . S
C348 O344 1.253 . S
C348 O349 1.227 . S
O349 C348 1.227 . S
N350 Co336 2.140 . S
N350 C353 1.346 . S
N350 C354 1.345 . S
C351 C352 1.387 . S
C351 C355 1.391 . S
C352 C351 1.387 . S
C352 C353 1.369 . S
C352 H361 0.929 . S
C353 N350 1.346 . S
C353 C352 1.369 . S
C353 H356 0.928 . S
C354 N350 1.345 . S
C354 C355 1.371 . S
C354 H357 0.931 . S
C355 C351 1.391 . S
C355 C354 1.371 . S
C355 H362 0.930 . S
H356 C353 0.928 . S
H357 C354 0.931 . S
H358 C334 0.930 . S
H359 C331 0.930 . S
H360 C340 0.930 . S
H361 C352 0.929 . S
H362 C355 0.930 . S
C363 C364 1.351 . S
C363 N366 1.368 . S
C363 H368 0.931 . S
C364 C363 1.351 . S
C364 N365 1.373 . S
C364 H392 0.930 . S
N365 C364 1.373 . S
N365 C367 1.340 . S
N366 C363 1.368 . S
N366 C367 1.321 . S
N366 Co369 2.135 . S
C367 N365 1.340 . S
C367 N366 1.321 . S
C367 H391 0.930 . S
H368 C363 0.931 . S
Co369 N366 2.135 . S
Co369 N372 2.121 . S
Co369 O377 2.055 . S
Co369 O380 2.039 . S
Co369 N383 2.140 . S
C370 O371 1.227 . S
C370 O380 1.265 . S
O371 C370 1.227 . S
N372 Co369 2.121 . S
N372 C374 1.375 . S
N372 C375 1.313 . S
C373 C374 1.338 . S
C373 N376 1.377 . S
C373 H393 0.930 . S
C374 N372 1.375 . S
C374 C373 1.338 . S
C374 H378 0.931 . S
C375 N372 1.313 . S
C375 N376 1.344 . S
C375 H379 0.930 . S
N376 C373 1.377 . S
N376 C375 1.344 . S
O377 Co369 2.055 . S
O377 C381 1.253 . S
H378 C374 0.931 . S
H379 C375 0.930 . S
O380 Co369 2.039 . S
O380 C370 1.265 . S
C381 O377 1.253 . S
C381 O382 1.227 . S
O382 C381 1.227 . S
N383 Co369 2.140 . S
N383 C386 1.346 . S
N383 C387 1.345 . S
C384 C385 1.387 . S
C384 C388 1.391 . S
C385 C384 1.387 . S
C385 C386 1.369 . S
C385 H394 0.929 . S
C386 N383 1.346 . S
C386 C385 1.369 . S
C386 H389 0.928 . S
C387 N383 1.345 . S
C387 C388 1.371 . S
C387 H390 0.931 . S
C388 C384 1.391 . S
C388 C387 1.371 . S
C388 H395 0.930 . S
H389 C386 0.928 . S
H390 C387 0.931 . S
H391 C367 0.930 . S
H392 C364 0.930 . S
H393 C373 0.930 . S
H394 C385 0.929 . S
H395 C388 0.930 . S
C396 C397 1.351 . S
C396 N399 1.368 . S
C396 H401 0.931 . S
C397 C396 1.351 . S
C397 N398 1.373 . S
C397 H425 0.930 . S
N398 C397 1.373 . S
N398 C400 1.340 . S
N399 C396 1.368 . S
N399 C400 1.321 . S
N399 Co402 2.135 . S
C400 N398 1.340 . S
C400 N399 1.321 . S
C400 H424 0.930 . S
H401 C396 0.931 . S
Co402 N399 2.135 . S
Co402 N405 2.121 . S
Co402 O410 2.055 . S
Co402 O413 2.039 . S
Co402 N416 2.140 . S
C403 O404 1.227 . S
C403 O413 1.265 . S
O404 C403 1.227 . S
N405 Co402 2.121 . S
N405 C407 1.375 . S
N405 C408 1.313 . S
C406 C407 1.338 . S
C406 N409 1.377 . S
C406 H426 0.930 . S
C407 N405 1.375 . S
C407 C406 1.338 . S
C407 H411 0.931 . S
C408 N405 1.313 . S
C408 N409 1.344 . S
C408 H412 0.930 . S
N409 C406 1.377 . S
N409 C408 1.344 . S
O410 Co402 2.055 . S
O410 C414 1.253 . S
H411 C407 0.931 . S
H412 C408 0.930 . S
O413 Co402 2.039 . S
O413 C403 1.265 . S
C414 O410 1.253 . S
C414 O415 1.227 . S
O415 C414 1.227 . S
N416 Co402 2.140 . S
N416 C419 1.346 . S
N416 C420 1.345 . S
C417 C418 1.387 . S
C417 C421 1.391 . S
C418 C417 1.387 . S
C418 C419 1.369 . S
C418 H427 0.929 . S
C419 N416 1.346 . S
C419 C418 1.369 . S
C419 H422 0.928 . S
C420 N416 1.345 . S
C420 C421 1.371 . S
C420 H423 0.931 . S
C421 C417 1.391 . S
C421 C420 1.371 . S
C421 H428 0.930 . S
H422 C419 0.928 . S
H423 C420 0.931 . S
H424 C400 0.930 . S
H425 C397 0.930 . S
H426 C406 0.930 . S
H427 C418 0.929 . S
H428 C421 0.930 . S
C429 C430 1.351 . S
C429 N432 1.368 . S
C429 H434 0.931 . S
C430 C429 1.351 . S
C430 N431 1.373 . S
C430 H458 0.930 . S
N431 C430 1.373 . S
N431 C433 1.340 . S
N432 C429 1.368 . S
N432 C433 1.321 . S
N432 Co435 2.135 . S
C433 N431 1.340 . S
C433 N432 1.321 . S
C433 H457 0.930 . S
H434 C429 0.931 . S
Co435 N432 2.135 . S
Co435 N438 2.121 . S
Co435 O443 2.055 . S
Co435 O446 2.039 . S
Co435 N449 2.140 . S
C436 O437 1.227 . S
C436 O446 1.265 . S
O437 C436 1.227 . S
N438 Co435 2.121 . S
N438 C440 1.375 . S
N438 C441 1.313 . S
C439 C440 1.338 . S
C439 N442 1.377 . S
C439 H459 0.930 . S
C440 N438 1.375 . S
C440 C439 1.338 . S
C440 H444 0.931 . S
C441 N438 1.313 . S
C441 N442 1.344 . S
C441 H445 0.930 . S
N442 C439 1.377 . S
N442 C441 1.344 . S
O443 Co435 2.055 . S
O443 C447 1.253 . S
H444 C440 0.931 . S
H445 C441 0.930 . S
O446 Co435 2.039 . S
O446 C436 1.265 . S
C447 O443 1.253 . S
C447 O448 1.227 . S
O448 C447 1.227 . S
N449 Co435 2.140 . S
N449 C452 1.346 . S
N449 C453 1.345 . S
C450 C451 1.387 . S
C450 C454 1.391 . S
C451 C450 1.387 . S
C451 C452 1.369 . S
C451 H460 0.929 . S
C452 N449 1.346 . S
C452 C451 1.369 . S
C452 H455 0.928 . S
C453 N449 1.345 . S
C453 C454 1.371 . S
C453 H456 0.931 . S
C454 C450 1.391 . S
C454 C453 1.371 . S
C454 H461 0.930 . S
H455 C452 0.928 . S
H456 C453 0.931 . S
H457 C433 0.930 . S
H458 C430 0.930 . S
H459 C439 0.930 . S
H460 C451 0.929 . S
H461 C454 0.930 . S
C462 C463 1.351 . S
C462 N465 1.368 . S
C462 H467 0.931 . S
C463 C462 1.351 . S
C463 N464 1.373 . S
C463 H491 0.930 . S
N464 C463 1.373 . S
N464 C466 1.340 . S
N465 C462 1.368 . S
N465 C466 1.321 . S
N465 Co468 2.135 . S
C466 N464 1.340 . S
C466 N465 1.321 . S
C466 H490 0.930 . S
H467 C462 0.931 . S
Co468 N465 2.135 . S
Co468 N471 2.121 . S
Co468 O476 2.055 . S
Co468 O479 2.039 . S
Co468 N482 2.140 . S
C469 O470 1.227 . S
C469 O479 1.265 . S
O470 C469 1.227 . S
N471 Co468 2.121 . S
N471 C473 1.375 . S
N471 C474 1.313 . S
C472 C473 1.338 . S
C472 N475 1.377 . S
C472 H492 0.930 . S
C473 N471 1.375 . S
C473 C472 1.338 . S
C473 H477 0.931 . S
C474 N471 1.313 . S
C474 N475 1.344 . S
C474 H478 0.930 . S
N475 C472 1.377 . S
N475 C474 1.344 . S
O476 Co468 2.055 . S
O476 C480 1.253 . S
H477 C473 0.931 . S
H478 C474 0.930 . S
O479 Co468 2.039 . S
O479 C469 1.265 . S
C480 O476 1.253 . S
C480 O481 1.227 . S
O481 C480 1.227 . S
N482 Co468 2.140 . S
N482 C485 1.346 . S
N482 C486 1.345 . S
C483 C484 1.387 . S
C483 C487 1.391 . S
C484 C483 1.387 . S
C484 C485 1.369 . S
C484 H493 0.929 . S
C485 N482 1.346 . S
C485 C484 1.369 . S
C485 H488 0.928 . S
C486 N482 1.345 . S
C486 C487 1.371 . S
C486 H489 0.931 . S
C487 C483 1.391 . S
C487 C486 1.371 . S
C487 H494 0.930 . S
H488 C485 0.928 . S
H489 C486 0.931 . S
H490 C466 0.930 . S
H491 C463 0.930 . S
H492 C472 0.930 . S
H493 C484 0.929 . S
H494 C487 0.930 . S
C495 C496 1.351 . S
C495 N498 1.368 . S
C495 H500 0.931 . S
C496 C495 1.351 . S
C496 N497 1.373 . S
C496 H524 0.930 . S
N497 C496 1.373 . S
N497 C499 1.340 . S
N498 C495 1.368 . S
N498 C499 1.321 . S
N498 Co501 2.135 . S
C499 N497 1.340 . S
C499 N498 1.321 . S
C499 H523 0.930 . S
H500 C495 0.931 . S
Co501 N498 2.135 . S
Co501 N504 2.121 . S
Co501 O509 2.055 . S
Co501 O512 2.039 . S
Co501 N515 2.140 . S
C502 O503 1.227 . S
C502 O512 1.265 . S
O503 C502 1.227 . S
N504 Co501 2.121 . S
N504 C506 1.375 . S
N504 C507 1.313 . S
C505 C506 1.338 . S
C505 N508 1.377 . S
C505 H525 0.930 . S
C506 N504 1.375 . S
C506 C505 1.338 . S
C506 H510 0.931 . S
C507 N504 1.313 . S
C507 N508 1.344 . S
C507 H511 0.930 . S
N508 C505 1.377 . S
N508 C507 1.344 . S
O509 Co501 2.055 . S
O509 C513 1.253 . S
H510 C506 0.931 . S
H511 C507 0.930 . S
O512 Co501 2.039 . S
O512 C502 1.265 . S
C513 O509 1.253 . S
C513 O514 1.227 . S
O514 C513 1.227 . S
N515 Co501 2.140 . S
N515 C518 1.346 . S
N515 C519 1.345 . S
C516 C517 1.387 . S
C516 C520 1.391 . S
C517 C516 1.387 . S
C517 C518 1.369 . S
C517 H526 0.929 . S
C518 N515 1.346 . S
C518 C517 1.369 . S
C518 H521 0.928 . S
C519 N515 1.345 . S
C519 C520 1.371 . S
C519 H522 0.931 . S
C520 C516 1.391 . S
C520 C519 1.371 . S
C520 H527 0.930 . S
H521 C518 0.928 . S
H522 C519 0.931 . S
H523 C499 0.930 . S
H524 C496 0.930 . S
H525 C505 0.930 . S
H526 C517 0.929 . S
H527 C520 0.930 . S
H528 C536 0.929 . S
H529 C538 0.930 . S
H530 C540 0.930 . S
H531 C543 0.929 . S
H532 C546 0.930 . S
H533 C548 0.960 . S
H534 C548 0.960 . S
H535 C548 0.960 . S
C536 H528 0.929 . S
C536 C537 1.377 . S
C536 C538 1.384 . S
C537 C536 1.377 . S
C537 C543 1.390 . S
C538 H529 0.930 . S
C538 C536 1.384 . S
C538 C539 1.372 . S
C539 C538 1.372 . S
C539 C540 1.400 . S
C539 C544 1.490 . S
C540 H530 0.930 . S
C540 C539 1.400 . S
C540 C543 1.386 . S
H541 C557 0.930 . S
H542 C558 0.931 . S
C543 H531 0.929 . S
C543 C537 1.390 . S
C543 C540 1.386 . S
C544 C539 1.490 . S
C544 C546 1.395 . S
C544 C547 1.403 . S
H545 C551 0.930 . S
C546 H532 0.930 . S
C546 C544 1.395 . S
C546 C549 1.403 . S
C547 C544 1.403 . S
C547 C548 1.524 . S
C547 C551 1.400 . S
C548 H533 0.960 . S
C548 H534 0.960 . S
C548 H535 0.960 . S
C548 C547 1.524 . S
C549 C546 1.403 . S
C549 C550 1.392 . S
C549 C553 1.495 . S
C550 C549 1.392 . S
C550 C551 1.385 . S
C550 C552 1.478 . S
C551 H545 0.930 . S
C551 C547 1.400 . S
C551 C550 1.385 . S
C552 C550 1.478 . S
C552 C554 1.381 . S
C552 C558 1.383 . S
C553 C549 1.495 . S
C553 H559 0.959 . S
C553 H560 0.961 . S
C553 H561 0.960 . S
C554 C552 1.381 . S
C554 C555 1.394 . S
C554 H562 0.930 . S
C555 C554 1.394 . S
C555 C556 1.383 . S
C555 H563 0.929 . S
C556 C555 1.383 . S
C556 C557 1.377 . S
C557 H541 0.930 . S
C557 C556 1.377 . S
C557 C558 1.379 . S
C558 H542 0.931 . S
C558 C552 1.383 . S
C558 C557 1.379 . S
H559 C553 0.959 . S
H560 C553 0.961 . S
H561 C553 0.960 . S
H562 C554 0.930 . S
H563 C555 0.929 . S
H564 C572 0.929 . S
H565 C574 0.930 . S
H566 C576 0.930 . S
H567 C579 0.929 . S
H568 C582 0.930 . S
H569 C584 0.960 . S
H570 C584 0.960 . S
H571 C584 0.960 . S
C572 H564 0.929 . S
C572 C573 1.377 . S
C572 C574 1.384 . S
C573 C572 1.377 . S
C573 C579 1.390 . S
C574 H565 0.930 . S
C574 C572 1.384 . S
C574 C575 1.372 . S
C575 C574 1.372 . S
C575 C576 1.400 . S
C575 C580 1.490 . S
C576 H566 0.930 . S
C576 C575 1.400 . S
C576 C579 1.386 . S
H577 C593 0.930 . S
H578 C594 0.931 . S
C579 H567 0.929 . S
C579 C573 1.390 . S
C579 C576 1.386 . S
C580 C575 1.490 . S
C580 C582 1.395 . S
C580 C583 1.403 . S
H581 C587 0.930 . S
C582 H568 0.930 . S
C582 C580 1.395 . S
C582 C585 1.403 . S
C583 C580 1.403 . S
C583 C584 1.524 . S
C583 C587 1.400 . S
C584 H569 0.960 . S
C584 H570 0.960 . S
C584 H571 0.960 . S
C584 C583 1.524 . S
C585 C582 1.403 . S
C585 C586 1.392 . S
C585 C589 1.495 . S
C586 C585 1.392 . S
C586 C587 1.385 . S
C586 C588 1.478 . S
C587 H581 0.930 . S
C587 C583 1.400 . S
C587 C586 1.385 . S
C588 C586 1.478 . S
C588 C590 1.381 . S
C588 C594 1.383 . S
C589 C585 1.495 . S
C589 H595 0.959 . S
C589 H596 0.961 . S
C589 H597 0.960 . S
C590 C588 1.381 . S
C590 C591 1.394 . S
C590 H598 0.930 . S
C591 C590 1.394 . S
C591 C592 1.383 . S
C591 H599 0.929 . S
C592 C591 1.383 . S
C592 C593 1.377 . S
C593 H577 0.930 . S
C593 C592 1.377 . S
C593 C594 1.379 . S
C594 H578 0.931 . S
C594 C588 1.383 . S
C594 C593 1.379 . S
H595 C589 0.959 . S
H596 C589 0.961 . S
H597 C589 0.960 . S
H598 C590 0.930 . S
H599 C591 0.929 . S
H600 C608 0.929 . S
H601 C610 0.930 . S
H602 C612 0.930 . S
H603 C615 0.929 . S
H604 C618 0.930 . S
H605 C620 0.960 . S
H606 C620 0.960 . S
H607 C620 0.960 . S
C608 H600 0.929 . S
C608 C609 1.377 . S
C608 C610 1.384 . S
C609 C608 1.377 . S
C609 C615 1.390 . S
C610 H601 0.930 . S
C610 C608 1.384 . S
C610 C611 1.372 . S
C611 C610 1.372 . S
C611 C612 1.400 . S
C611 C616 1.490 . S
C612 H602 0.930 . S
C612 C611 1.400 . S
C612 C615 1.386 . S
H613 C629 0.930 . S
H614 C630 0.931 . S
C615 H603 0.929 . S
C615 C609 1.390 . S
C615 C612 1.386 . S
C616 C611 1.490 . S
C616 C618 1.395 . S
C616 C619 1.403 . S
H617 C623 0.930 . S
C618 H604 0.930 . S
C618 C616 1.395 . S
C618 C621 1.403 . S
C619 C616 1.403 . S
C619 C620 1.524 . S
C619 C623 1.400 . S
C620 H605 0.960 . S
C620 H606 0.960 . S
C620 H607 0.960 . S
C620 C619 1.524 . S
C621 C618 1.403 . S
C621 C622 1.392 . S
C621 C625 1.495 . S
C622 C621 1.392 . S
C622 C623 1.385 . S
C622 C624 1.478 . S
C623 H617 0.930 . S
C623 C619 1.400 . S
C623 C622 1.385 . S
C624 C622 1.478 . S
C624 C626 1.381 . S
C624 C630 1.383 . S
C625 C621 1.495 . S
C625 H631 0.959 . S
C625 H632 0.961 . S
C625 H633 0.960 . S
C626 C624 1.381 . S
C626 C627 1.394 . S
C626 H634 0.930 . S
C627 C626 1.394 . S
C627 C628 1.383 . S
C627 H635 0.929 . S
C628 C627 1.383 . S
C628 C629 1.377 . S
C629 H613 0.930 . S
C629 C628 1.377 . S
C629 C630 1.379 . S
C630 H614 0.931 . S
C630 C624 1.383 . S
C630 C629 1.379 . S
H631 C625 0.959 . S
H632 C625 0.961 . S
H633 C625 0.960 . S
H634 C626 0.930 . S
H635 C627 0.929 . S
H636 C644 0.929 . S
H637 C646 0.930 . S
H638 C648 0.930 . S
H639 C651 0.929 . S
H640 C654 0.930 . S
H641 C656 0.960 . S
H642 C656 0.960 . S
H643 C656 0.960 . S
C644 H636 0.929 . S
C644 C645 1.377 . S
C644 C646 1.384 . S
C645 C644 1.377 . S
C645 C651 1.390 . S
C646 H637 0.930 . S
C646 C644 1.384 . S
C646 C647 1.372 . S
C647 C646 1.372 . S
C647 C648 1.400 . S
C647 C652 1.490 . S
C648 H638 0.930 . S
C648 C647 1.400 . S
C648 C651 1.386 . S
H649 C665 0.930 . S
H650 C666 0.931 . S
C651 H639 0.929 . S
C651 C645 1.390 . S
C651 C648 1.386 . S
C652 C647 1.490 . S
C652 C654 1.395 . S
C652 C655 1.403 . S
H653 C659 0.930 . S
C654 H640 0.930 . S
C654 C652 1.395 . S
C654 C657 1.403 . S
C655 C652 1.403 . S
C655 C656 1.524 . S
C655 C659 1.400 . S
C656 H641 0.960 . S
C656 H642 0.960 . S
C656 H643 0.960 . S
C656 C655 1.524 . S
C657 C654 1.403 . S
C657 C658 1.392 . S
C657 C661 1.495 . S
C658 C657 1.392 . S
C658 C659 1.385 . S
C658 C660 1.478 . S
C659 H653 0.930 . S
C659 C655 1.400 . S
C659 C658 1.385 . S
C660 C658 1.478 . S
C660 C662 1.381 . S
C660 C666 1.383 . S
C661 C657 1.495 . S
C661 H667 0.959 . S
C661 H668 0.961 . S
C661 H669 0.960 . S
C662 C660 1.381 . S
C662 C663 1.394 . S
C662 H670 0.930 . S
C663 C662 1.394 . S
C663 C664 1.383 . S
C663 H671 0.929 . S
C664 C663 1.383 . S
C664 C665 1.377 . S
C665 H649 0.930 . S
C665 C664 1.377 . S
C665 C666 1.379 . S
C666 H650 0.931 . S
C666 C660 1.383 . S
C666 C665 1.379 . S
H667 C661 0.959 . S
H668 C661 0.961 . S
H669 C661 0.960 . S
H670 C662 0.930 . S
H671 C663 0.929 . S
H672 C680 0.929 . S
H673 C682 0.930 . S
H674 C684 0.930 . S
H675 C687 0.929 . S
H676 C690 0.930 . S
H677 C692 0.960 . S
H678 C692 0.960 . S
H679 C692 0.960 . S
C680 H672 0.929 . S
C680 C681 1.377 1_556 S
C680 C682 1.384 . S
C681 C680 1.377 1_554 S
C681 C687 1.390 . S
C682 H673 0.930 . S
C682 C680 1.384 . S
C682 C683 1.372 . S
C683 C682 1.372 . S
C683 C684 1.400 . S
C683 C688 1.490 . S
C684 H674 0.930 . S
C684 C683 1.400 . S
C684 C687 1.386 1_556 S
H685 C701 0.930 . S
H686 C702 0.931 . S
C687 H675 0.929 . S
C687 C681 1.390 . S
C687 C684 1.386 1_554 S
C688 C683 1.490 . S
C688 C690 1.395 . S
C688 C691 1.403 . S
H689 C695 0.930 . S
C690 H676 0.930 . S
C690 C688 1.395 . S
C690 C693 1.403 . S
C691 C688 1.403 . S
C691 C692 1.524 . S
C691 C695 1.400 . S
C692 H677 0.960 . S
C692 H678 0.960 . S
C692 H679 0.960 . S
C692 C691 1.524 . S
C693 C690 1.403 . S
C693 C694 1.392 . S
C693 C697 1.495 . S
C694 C693 1.392 . S
C694 C695 1.385 . S
C694 C696 1.478 . S
C695 H689 0.930 . S
C695 C691 1.400 . S
C695 C694 1.385 . S
C696 C694 1.478 . S
C696 C698 1.381 . S
C696 C702 1.383 . S
C697 C693 1.495 . S
C697 H703 0.959 . S
C697 H704 0.961 . S
C697 H705 0.960 . S
C698 C696 1.381 . S
C698 C699 1.394 . S
C698 H706 0.930 . S
C699 C698 1.394 . S
C699 C700 1.383 . S
C699 H707 0.929 . S
C700 C699 1.383 . S
C700 C701 1.377 . S
C701 H685 0.930 . S
C701 C700 1.377 . S
C701 C702 1.379 . S
C702 H686 0.931 . S
C702 C696 1.383 . S
C702 C701 1.379 . S
H703 C697 0.959 . S
H704 C697 0.961 . S
H705 C697 0.960 . S
H706 C698 0.930 . S
H707 C699 0.929 . S
H708 C716 0.929 . S
H709 C718 0.930 . S
H710 C720 0.930 . S
H711 C723 0.929 . S
H712 C726 0.930 . S
H713 C728 0.960 . S
H714 C728 0.960 . S
H715 C728 0.960 . S
C716 H708 0.929 . S
C716 C717 1.377 . S
C716 C718 1.384 . S
C717 C716 1.377 . S
C717 C723 1.390 . S
C718 H709 0.930 . S
C718 C716 1.384 . S
C718 C719 1.372 . S
C719 C718 1.372 . S
C719 C720 1.400 . S
C719 C724 1.490 . S
C720 H710 0.930 . S
C720 C719 1.400 . S
C720 C723 1.386 . S
H721 C737 0.930 . S
H722 C738 0.931 . S
C723 H711 0.929 . S
C723 C717 1.390 . S
C723 C720 1.386 . S
C724 C719 1.490 . S
C724 C726 1.395 . S
C724 C727 1.403 . S
H725 C731 0.930 . S
C726 H712 0.930 . S
C726 C724 1.395 . S
C726 C729 1.403 . S
C727 C724 1.403 . S
C727 C728 1.524 . S
C727 C731 1.400 . S
C728 H713 0.960 . S
C728 H714 0.960 . S
C728 H715 0.960 . S
C728 C727 1.524 . S
C729 C726 1.403 . S
C729 C730 1.392 . S
C729 C733 1.495 . S
C730 C729 1.392 . S
C730 C731 1.385 . S
C730 C732 1.478 . S
C731 H725 0.930 . S
C731 C727 1.400 . S
C731 C730 1.385 . S
C732 C730 1.478 . S
C732 C734 1.381 . S
C732 C738 1.383 . S
C733 C729 1.495 . S
C733 H739 0.959 . S
C733 H740 0.961 . S
C733 H741 0.960 . S
C734 C732 1.381 . S
C734 C735 1.394 . S
C734 H742 0.930 . S
C735 C734 1.394 . S
C735 C736 1.383 1_554 S
C735 H743 0.929 1_554 S
C736 C735 1.383 1_556 S
C736 C737 1.377 1_556 S
C737 H721 0.930 . S
C737 C736 1.377 1_554 S
C737 C738 1.379 . S
C738 H722 0.931 . S
C738 C732 1.383 . S
C738 C737 1.379 . S
H739 C733 0.959 . S
H740 C733 0.961 . S
H741 C733 0.960 . S
H742 C734 0.930 . S
H743 C735 0.929 1_556 S
H744 C752 0.929 . S
H745 C754 0.930 . S
H746 C756 0.930 . S
H747 C759 0.937 . S
H748 C762 0.930 . S
H749 C764 0.960 . S
H750 C764 0.960 . S
H751 C764 0.960 . S
C752 H744 0.929 . S
C752 C753 1.377 1_556 S
C752 C754 1.384 . S
C753 C752 1.377 1_554 S
C753 C759 1.391 . S
C754 H745 0.930 . S
C754 C752 1.384 . S
C754 C755 1.372 . S
C755 C754 1.372 . S
C755 C756 1.400 . S
C755 C760 1.490 . S
C756 H746 0.930 . S
C756 C755 1.400 . S
C756 C759 1.376 1_556 S
H757 C773 0.930 . S
H758 C774 0.931 . S
C759 H747 0.937 . S
C759 C753 1.391 . S
C759 C756 1.376 1_554 S
C760 C755 1.490 . S
C760 C762 1.395 . S
C760 C763 1.403 . S
H761 C767 0.930 . S
C762 H748 0.930 . S
C762 C760 1.395 . S
C762 C765 1.403 . S
C763 C760 1.403 . S
C763 C764 1.524 . S
C763 C767 1.400 . S
C764 H749 0.960 . S
C764 H750 0.960 . S
C764 H751 0.960 . S
C764 C763 1.524 . S
C765 C762 1.403 . S
C765 C766 1.392 . S
C765 C769 1.495 . S
C766 C765 1.392 . S
C766 C767 1.385 . S
C766 C768 1.478 . S
C767 H761 0.930 . S
C767 C763 1.400 . S
C767 C766 1.385 . S
C768 C766 1.478 . S
C768 C770 1.381 . S
C768 C774 1.383 . S
C769 C765 1.495 . S
C769 H775 0.959 . S
C769 H776 0.961 . S
C769 H777 0.960 . S
C770 C768 1.381 . S
C770 C771 1.394 . S
C770 H778 0.930 . S
C771 C770 1.394 . S
C771 C772 1.383 . S
C771 H779 0.929 . S
C772 C771 1.383 . S
C772 C773 1.377 . S
C773 H757 0.930 . S
C773 C772 1.377 . S
C773 C774 1.379 . S
C774 H758 0.931 . S
C774 C768 1.383 . S
C774 C773 1.379 . S
H775 C769 0.959 . S
H776 C769 0.961 . S
H777 C769 0.960 . S
H778 C770 0.930 . S
H779 C771 0.929 . S
H780 C788 0.929 . S
H781 C790 0.930 . S
H782 C792 0.930 . S
H783 C795 0.929 . S
H784 C798 0.930 . S
H785 C800 0.960 . S
H786 C800 0.960 . S
H787 C800 0.960 . S
C788 H780 0.929 . S
C788 C789 1.377 . S
C788 C790 1.384 . S
C789 C788 1.377 . S
C789 C795 1.390 . S
C790 H781 0.930 . S
C790 C788 1.384 . S
C790 C791 1.372 . S
C791 C790 1.372 . S
C791 C792 1.400 . S
C791 C796 1.490 . S
C792 H782 0.930 . S
C792 C791 1.400 . S
C792 C795 1.386 . S
H793 C809 0.930 . S
H794 C810 0.931 . S
C795 H783 0.929 . S
C795 C789 1.390 . S
C795 C792 1.386 . S
C796 C791 1.490 . S
C796 C798 1.395 . S
C796 C799 1.403 . S
H797 C803 0.930 . S
C798 H784 0.930 . S
C798 C796 1.395 . S
C798 C801 1.403 . S
C799 C796 1.403 . S
C799 C800 1.524 . S
C799 C803 1.400 . S
C800 H785 0.960 . S
C800 H786 0.960 . S
C800 H787 0.960 . S
C800 C799 1.524 . S
C801 C798 1.403 . S
C801 C802 1.392 . S
C801 C805 1.495 . S
C802 C801 1.392 . S
C802 C803 1.385 . S
C802 C804 1.478 . S
C803 H797 0.930 . S
C803 C799 1.400 . S
C803 C802 1.385 . S
C804 C802 1.478 . S
C804 C806 1.381 . S
C804 C810 1.383 . S
C805 C801 1.495 . S
C805 H811 0.959 . S
C805 H812 0.961 . S
C805 H813 0.960 . S
C806 C804 1.381 . S
C806 C807 1.394 . S
C806 H814 0.930 . S
C807 C806 1.394 . S
C807 C808 1.383 1_554 S
C807 H815 0.929 1_554 S
C808 C807 1.383 1_556 S
C808 C809 1.377 1_556 S
C809 H793 0.930 . S
C809 C808 1.377 1_554 S
C809 C810 1.379 . S
C810 H794 0.931 . S
C810 C804 1.383 . S
C810 C809 1.379 . S
H811 C805 0.959 . S
H812 C805 0.961 . S
H813 C805 0.960 . S
H814 C806 0.930 . S
H815 C807 0.929 1_556 S
H816 C824 0.929 . S
H817 C826 0.930 . S
H818 C828 0.930 . S
H819 C831 0.929 . S
H820 C834 0.930 . S
H821 C836 0.960 . S
H822 C836 0.960 . S
H823 C836 0.960 . S
C824 H816 0.929 . S
C824 C825 1.377 . S
C824 C826 1.384 . S
C825 C824 1.377 . S
C825 C831 1.390 . S
C826 H817 0.930 . S
C826 C824 1.384 . S
C826 C827 1.372 . S
C827 C826 1.372 . S
C827 C828 1.400 . S
C827 C832 1.490 . S
C828 H818 0.930 . S
C828 C827 1.400 . S
C828 C831 1.386 . S
H829 C845 0.930 . S
H830 C846 0.931 . S
C831 H819 0.929 . S
C831 C825 1.390 . S
C831 C828 1.386 . S
C832 C827 1.490 . S
C832 C834 1.395 . S
C832 C835 1.403 . S
H833 C839 0.930 . S
C834 H820 0.930 . S
C834 C832 1.395 . S
C834 C837 1.403 . S
C835 C832 1.403 . S
C835 C836 1.524 . S
C835 C839 1.400 . S
C836 H821 0.960 . S
C836 H822 0.960 . S
C836 H823 0.960 . S
C836 C835 1.524 . S
C837 C834 1.403 . S
C837 C838 1.392 . S
C837 C841 1.495 . S
C838 C837 1.392 . S
C838 C839 1.385 . S
C838 C840 1.478 . S
C839 H833 0.930 . S
C839 C835 1.400 . S
C839 C838 1.385 . S
C840 C838 1.478 . S
C840 C842 1.381 . S
C840 C846 1.383 . S
C841 C837 1.495 . S
C841 H847 0.959 . S
C841 H848 0.961 . S
C841 H849 0.960 . S
C842 C840 1.381 . S
C842 C843 1.394 . S
C842 H850 0.930 . S
C843 C842 1.394 . S
C843 C844 1.383 . S
C843 H851 0.929 . S
C844 C843 1.383 . S
C844 C845 1.377 . S
C845 H829 0.930 . S
C845 C844 1.377 . S
C845 C846 1.379 . S
C846 H830 0.931 . S
C846 C840 1.383 . S
C846 C845 1.379 . S
H847 C841 0.959 . S
H848 C841 0.961 . S
H849 C841 0.960 . S
H850 C842 0.930 . S
H851 C843 0.929 . S
H852 C860 0.929 . S
H853 C862 0.930 . S
H854 C864 0.930 . S
H855 C867 0.929 . S
H856 C870 0.930 . S
H857 C872 0.960 . S
H858 C872 0.960 . S
H859 C872 0.960 . S
C860 H852 0.929 . S
C860 C861 1.377 . S
C860 C862 1.384 . S
C861 C860 1.377 . S
C861 C867 1.390 . S
C862 H853 0.930 . S
C862 C860 1.384 . S
C862 C863 1.372 . S
C863 C862 1.372 . S
C863 C864 1.400 . S
C863 C868 1.490 . S
C864 H854 0.930 . S
C864 C863 1.400 . S
C864 C867 1.386 . S
H865 C881 0.930 . S
H866 C882 0.931 . S
C867 H855 0.929 . S
C867 C861 1.390 . S
C867 C864 1.386 . S
C868 C863 1.490 . S
C868 C870 1.395 . S
C868 C871 1.403 . S
H869 C875 0.930 . S
C870 H856 0.930 . S
C870 C868 1.395 . S
C870 C873 1.403 . S
C871 C868 1.403 . S
C871 C872 1.524 . S
C871 C875 1.400 . S
C872 H857 0.960 . S
C872 H858 0.960 . S
C872 H859 0.960 . S
C872 C871 1.524 . S
C873 C870 1.403 . S
C873 C874 1.392 . S
C873 C877 1.495 . S
C874 C873 1.392 . S
C874 C875 1.385 . S
C874 C876 1.478 . S
C875 H869 0.930 . S
C875 C871 1.400 . S
C875 C874 1.385 . S
C876 C874 1.478 . S
C876 C878 1.381 . S
C876 C882 1.383 . S
C877 C873 1.495 . S
C877 H883 0.959 . S
C877 H884 0.961 . S
C877 H885 0.960 . S
C878 C876 1.381 . S
C878 C879 1.394 . S
C878 H886 0.930 . S
C879 C878 1.394 . S
C879 C880 1.383 . S
C879 H887 0.929 . S
C880 C879 1.383 . S
C880 C881 1.377 . S
C881 H865 0.930 . S
C881 C880 1.377 . S
C881 C882 1.379 . S
C882 H866 0.931 . S
C882 C876 1.383 . S
C882 C881 1.379 . S
H883 C877 0.959 . S
H884 C877 0.961 . S
H885 C877 0.960 . S
H886 C878 0.930 . S
H887 C879 0.929 . S
H888 C896 0.929 . S
H889 C898 0.930 . S
H890 C900 0.930 . S
H891 C903 0.929 . S
H892 C906 0.930 . S
H893 C908 0.960 . S
H894 C908 0.960 . S
H895 C908 0.960 . S
C896 H888 0.929 . S
C896 C897 1.377 . S
C896 C898 1.384 . S
C897 C896 1.377 . S
C897 C903 1.390 . S
C898 H889 0.930 . S
C898 C896 1.384 . S
C898 C899 1.372 . S
C899 C898 1.372 . S
C899 C900 1.400 . S
C899 C904 1.490 . S
C900 H890 0.930 . S
C900 C899 1.400 . S
C900 C903 1.386 . S
H901 C917 0.930 . S
H902 C918 0.931 . S
C903 H891 0.929 . S
C903 C897 1.390 . S
C903 C900 1.386 . S
C904 C899 1.490 . S
C904 C906 1.395 . S
C904 C907 1.403 . S
H905 C911 0.930 . S
C906 H892 0.930 . S
C906 C904 1.395 . S
C906 C909 1.403 . S
C907 C904 1.403 . S
C907 C908 1.524 . S
C907 C911 1.400 . S
C908 H893 0.960 . S
C908 H894 0.960 . S
C908 H895 0.960 . S
C908 C907 1.524 . S
C909 C906 1.403 . S
C909 C910 1.392 . S
C909 C913 1.495 . S
C910 C909 1.392 . S
C910 C911 1.385 . S
C910 C912 1.478 . S
C911 H905 0.930 . S
C911 C907 1.400 . S
C911 C910 1.385 . S
C912 C910 1.478 . S
C912 C914 1.381 . S
C912 C918 1.383 . S
C913 C909 1.495 . S
C913 H919 0.959 . S
C913 H920 0.961 . S
C913 H921 0.960 . S
C914 C912 1.381 . S
C914 C915 1.394 . S
C914 H922 0.930 . S
C915 C914 1.394 . S
C915 C916 1.383 . S
C915 H923 0.929 . S
C916 C915 1.383 . S
C916 C917 1.377 . S
C917 H901 0.930 . S
C917 C916 1.377 . S
C917 C918 1.379 . S
C918 H902 0.931 . S
C918 C912 1.383 . S
C918 C917 1.379 . S
H919 C913 0.959 . S
H920 C913 0.961 . S
H921 C913 0.960 . S
H922 C914 0.930 . S
H923 C915 0.929 . S
H924 C932 0.929 . S
H925 C934 0.930 . S
H926 C936 0.930 . S
H927 C939 0.929 . S
H928 C942 0.930 . S
H929 C944 0.960 . S
H930 C944 0.960 . S
H931 C944 0.960 . S
C932 H924 0.929 . S
C932 C933 1.377 . S
C932 C934 1.384 . S
C933 C932 1.377 . S
C933 C939 1.390 . S
C934 H925 0.930 . S
C934 C932 1.384 . S
C934 C935 1.372 . S
C935 C934 1.372 . S
C935 C936 1.400 . S
C935 C940 1.490 . S
C936 H926 0.930 . S
C936 C935 1.400 . S
C936 C939 1.386 . S
H937 C953 0.930 . S
H938 C954 0.931 . S
C939 H927 0.929 . S
C939 C933 1.390 . S
C939 C936 1.386 . S
C940 C935 1.490 . S
C940 C942 1.395 . S
C940 C943 1.403 . S
H941 C947 0.930 . S
C942 H928 0.930 . S
C942 C940 1.395 . S
C942 C945 1.403 . S
C943 C940 1.403 . S
C943 C944 1.524 . S
C943 C947 1.400 . S
C944 H929 0.960 . S
C944 H930 0.960 . S
C944 H931 0.960 . S
C944 C943 1.524 . S
C945 C942 1.403 . S
C945 C946 1.392 . S
C945 C949 1.495 . S
C946 C945 1.392 . S
C946 C947 1.385 . S
C946 C948 1.478 . S
C947 H941 0.930 . S
C947 C943 1.400 . S
C947 C946 1.385 . S
C948 C946 1.478 . S
C948 C950 1.381 . S
C948 C954 1.383 . S
C949 C945 1.495 . S
C949 H955 0.959 . S
C949 H956 0.961 . S
C949 H957 0.960 . S
C950 C948 1.381 . S
C950 C951 1.394 . S
C950 H958 0.930 . S
C951 C950 1.394 . S
C951 C952 1.383 . S
C951 H959 0.929 . S
C952 C951 1.383 . S
C952 C953 1.377 . S
C953 H937 0.930 . S
C953 C952 1.377 . S
C953 C954 1.379 . S
C954 H938 0.931 . S
C954 C948 1.383 . S
C954 C953 1.379 . S
H955 C949 0.959 . S
H956 C949 0.961 . S
H957 C949 0.960 . S
H958 C950 0.930 . S
H959 C951 0.929 . S
H960 C968 0.929 . S
H961 C970 0.930 . S
H962 C972 0.930 . S
H963 C975 0.929 . S
H964 C978 0.930 . S
H965 C980 0.960 . S
H966 C980 0.960 . S
H967 C980 0.960 . S
C968 H960 0.929 . S
C968 C969 1.377 . S
C968 C970 1.384 . S
C969 C968 1.377 . S
C969 C975 1.390 . S
C970 H961 0.930 . S
C970 C968 1.384 . S
C970 C971 1.372 . S
C971 C970 1.372 . S
C971 C972 1.400 . S
C971 C976 1.490 . S
C972 H962 0.930 . S
C972 C971 1.400 . S
C972 C975 1.386 . S
H973 C989 0.930 . S
H974 C990 0.931 . S
C975 H963 0.929 . S
C975 C969 1.390 . S
C975 C972 1.386 . S
C976 C971 1.490 . S
C976 C978 1.395 . S
C976 C979 1.403 . S
H977 C983 0.930 . S
C978 H964 0.930 . S
C978 C976 1.395 . S
C978 C981 1.403 . S
C979 C976 1.403 . S
C979 C980 1.524 . S
C979 C983 1.400 . S
C980 H965 0.960 . S
C980 H966 0.960 . S
C980 H967 0.960 . S
C980 C979 1.524 . S
C981 C978 1.403 . S
C981 C982 1.392 . S
C981 C985 1.495 . S
C982 C981 1.392 . S
C982 C983 1.385 . S
C982 C984 1.478 . S
C983 H977 0.930 . S
C983 C979 1.400 . S
C983 C982 1.385 . S
C984 C982 1.478 . S
C984 C986 1.381 . S
C984 C990 1.383 . S
C985 C981 1.495 . S
C985 H991 0.959 . S
C985 H992 0.961 . S
C985 H993 0.960 . S
C986 C984 1.381 . S
C986 C987 1.394 . S
C986 H994 0.930 . S
C987 C986 1.394 . S
C987 C988 1.383 . S
C987 H995 0.929 . S
C988 C987 1.383 . S
C988 C989 1.377 . S
C989 H973 0.930 . S
C989 C988 1.377 . S
C989 C990 1.379 . S
C990 H974 0.931 . S
C990 C984 1.383 . S
C990 C989 1.379 . S
H991 C985 0.959 . S
H992 C985 0.961 . S
H993 C985 0.960 . S
H994 C986 0.930 . S
H995 C987 0.929 . S
H996 C1004 0.929 . S
H997 C1006 0.930 . S
H998 C1008 0.930 . S
H999 C1011 0.929 . S
H1000 C1014 0.930 . S
H1001 C1016 0.960 . S
H1002 C1016 0.960 . S
H1003 C1016 0.960 . S
C1004 H996 0.929 . S
C1004 C1005 1.377 . S
C1004 C1006 1.384 . S
C1005 C1004 1.377 . S
C1005 C1011 1.390 . S
C1006 H997 0.930 . S
C1006 C1004 1.384 . S
C1006 C1007 1.372 . S
C1007 C1006 1.372 . S
C1007 C1008 1.400 . S
C1007 C1012 1.490 . S
C1008 H998 0.930 . S
C1008 C1007 1.400 . S
C1008 C1011 1.386 . S
H1009 C1025 0.930 . S
H1010 C1026 0.931 . S
C1011 H999 0.929 . S
C1011 C1005 1.390 . S
C1011 C1008 1.386 . S
C1012 C1007 1.490 . S
C1012 C1014 1.395 . S
C1012 C1015 1.403 . S
H1013 C1019 0.930 . S
C1014 H1000 0.930 . S
C1014 C1012 1.395 . S
C1014 C1017 1.403 . S
C1015 C1012 1.403 . S
C1015 C1016 1.524 . S
C1015 C1019 1.400 . S
C1016 H1001 0.960 . S
C1016 H1002 0.960 . S
C1016 H1003 0.960 . S
C1016 C1015 1.524 . S
C1017 C1014 1.403 . S
C1017 C1018 1.392 . S
C1017 C1021 1.495 . S
C1018 C1017 1.392 . S
C1018 C1019 1.385 . S
C1018 C1020 1.478 . S
C1019 H1013 0.930 . S
C1019 C1015 1.400 . S
C1019 C1018 1.385 . S
C1020 C1018 1.478 . S
C1020 C1022 1.381 . S
C1020 C1026 1.383 . S
C1021 C1017 1.495 . S
C1021 H1027 0.959 . S
C1021 H1028 0.961 . S
C1021 H1029 0.960 . S
C1022 C1020 1.381 . S
C1022 C1023 1.394 . S
C1022 H1030 0.930 . S
C1023 C1022 1.394 . S
C1023 C1024 1.383 . S
C1023 H1031 0.929 . S
C1024 C1023 1.383 . S
C1024 C1025 1.377 . S
C1025 H1009 0.930 . S
C1025 C1024 1.377 . S
C1025 C1026 1.379 . S
C1026 H1010 0.931 . S
C1026 C1020 1.383 . S
C1026 C1025 1.379 . S
H1027 C1021 0.959 . S
H1028 C1021 0.961 . S
H1029 C1021 0.960 . S
H1030 C1022 0.930 . S
H1031 C1023 0.929 . S
H1032 C1040 0.929 . S
H1033 C1042 0.930 . S
H1034 C1044 0.930 . S
H1035 C1047 0.929 . S
H1036 C1050 0.930 . S
H1037 C1052 0.960 . S
H1038 C1052 0.960 . S
H1039 C1052 0.960 . S
C1040 H1032 0.929 . S
C1040 C1041 1.377 . S
C1040 C1042 1.384 . S
C1041 C1040 1.377 . S
C1041 C1047 1.390 . S
C1042 H1033 0.930 . S
C1042 C1040 1.384 . S
C1042 C1043 1.372 . S
C1043 C1042 1.372 . S
C1043 C1044 1.400 . S
C1043 C1048 1.490 . S
C1044 H1034 0.930 . S
C1044 C1043 1.400 . S
C1044 C1047 1.386 . S
H1045 C1061 0.930 . S
H1046 C1062 0.931 . S
C1047 H1035 0.929 . S
C1047 C1041 1.390 . S
C1047 C1044 1.386 . S
C1048 C1043 1.490 . S
C1048 C1050 1.395 . S
C1048 C1051 1.403 . S
H1049 C1055 0.930 . S
C1050 H1036 0.930 . S
C1050 C1048 1.395 . S
C1050 C1053 1.403 . S
C1051 C1048 1.403 . S
C1051 C1052 1.524 . S
C1051 C1055 1.400 . S
C1052 H1037 0.960 . S
C1052 H1038 0.960 . S
C1052 H1039 0.960 . S
C1052 C1051 1.524 . S
C1053 C1050 1.403 . S
C1053 C1054 1.392 . S
C1053 C1057 1.495 . S
C1054 C1053 1.392 . S
C1054 C1055 1.385 . S
C1054 C1056 1.478 . S
C1055 H1049 0.930 . S
C1055 C1051 1.400 . S
C1055 C1054 1.385 . S
C1056 C1054 1.478 . S
C1056 C1058 1.381 . S
C1056 C1062 1.383 . S
C1057 C1053 1.495 . S
C1057 H1063 0.959 . S
C1057 H1064 0.961 . S
C1057 H1065 0.960 . S
C1058 C1056 1.381 . S
C1058 C1059 1.394 . S
C1058 H1066 0.930 . S
C1059 C1058 1.394 . S
C1059 C1060 1.383 . S
C1059 H1067 0.929 . S
C1060 C1059 1.383 . S
C1060 C1061 1.377 . S
C1061 H1045 0.930 . S
C1061 C1060 1.377 . S
C1061 C1062 1.379 . S
C1062 H1046 0.931 . S
C1062 C1056 1.383 . S
C1062 C1061 1.379 . S
H1063 C1057 0.959 . S
H1064 C1057 0.961 . S
H1065 C1057 0.960 . S
H1066 C1058 0.930 . S
H1067 C1059 0.929 . S
H1068 C1076 0.929 . S
H1069 C1078 0.930 . S
H1070 C1080 0.930 . S
H1071 C1083 0.929 . S
H1072 C1086 0.930 . S
H1073 C1088 0.960 . S
H1074 C1088 0.960 . S
H1075 C1088 0.960 . S
C1076 H1068 0.929 . S
C1076 C1077 1.377 . S
C1076 C1078 1.384 . S
C1077 C1076 1.377 . S
C1077 C1083 1.390 . S
C1078 H1069 0.930 . S
C1078 C1076 1.384 . S
C1078 C1079 1.372 . S
C1079 C1078 1.372 . S
C1079 C1080 1.400 . S
C1079 C1084 1.490 . S
C1080 H1070 0.930 . S
C1080 C1079 1.400 . S
C1080 C1083 1.386 . S
H1081 C1097 0.930 . S
H1082 C1098 0.931 . S
C1083 H1071 0.929 . S
C1083 C1077 1.390 . S
C1083 C1080 1.386 . S
C1084 C1079 1.490 . S
C1084 C1086 1.395 . S
C1084 C1087 1.403 . S
H1085 C1091 0.930 . S
C1086 H1072 0.930 . S
C1086 C1084 1.395 . S
C1086 C1089 1.403 . S
C1087 C1084 1.403 . S
C1087 C1088 1.524 . S
C1087 C1091 1.400 . S
C1088 H1073 0.960 . S
C1088 H1074 0.960 . S
C1088 H1075 0.960 . S
C1088 C1087 1.524 . S
C1089 C1086 1.403 . S
C1089 C1090 1.392 . S
C1089 C1093 1.495 . S
C1090 C1089 1.392 . S
C1090 C1091 1.385 . S
C1090 C1092 1.478 . S
C1091 H1085 0.930 . S
C1091 C1087 1.400 . S
C1091 C1090 1.385 . S
C1092 C1090 1.478 . S
C1092 C1094 1.381 . S
C1092 C1098 1.383 . S
C1093 C1089 1.495 . S
C1093 H1099 0.959 . S
C1093 H1100 0.961 . S
C1093 H1101 0.960 . S
C1094 C1092 1.381 . S
C1094 C1095 1.394 . S
C1094 H1102 0.930 . S
C1095 C1094 1.394 . S
C1095 C1096 1.383 . S
C1095 H1103 0.929 . S
C1096 C1095 1.383 . S
C1096 C1097 1.377 . S
C1097 H1081 0.930 . S
C1097 C1096 1.377 . S
C1097 C1098 1.379 . S
C1098 H1082 0.931 . S
C1098 C1092 1.383 . S
C1098 C1097 1.379 . S
H1099 C1093 0.959 . S
H1100 C1093 0.961 . S
H1101 C1093 0.960 . S
H1102 C1094 0.930 . S
H1103 C1095 0.929 . S
H1104 C1112 0.929 . S
H1105 C1114 0.930 . S
H1106 C1116 0.930 . S
H1107 C1119 0.929 . S
H1108 C1122 0.930 . S
H1109 C1124 0.960 . S
H1110 C1124 0.960 . S
H1111 C1124 0.960 . S
C1112 H1104 0.929 . S
C1112 C1113 1.377 . S
C1112 C1114 1.384 1_554 S
C1113 C1112 1.377 . S
C1113 C1119 1.390 1_554 S
C1114 H1105 0.930 . S
C1114 C1112 1.384 1_556 S
C1114 C1115 1.372 . S
C1115 C1114 1.372 . S
C1115 C1116 1.400 . S
C1115 C1120 1.490 . S
C1116 H1106 0.930 . S
C1116 C1115 1.400 . S
C1116 C1119 1.386 . S
H1117 C1133 0.930 . S
H1118 C1134 0.931 . S
C1119 H1107 0.929 . S
C1119 C1113 1.390 1_556 S
C1119 C1116 1.386 . S
C1120 C1115 1.490 . S
C1120 C1122 1.395 . S
C1120 C1123 1.403 . S
H1121 C1127 0.930 . S
C1122 H1108 0.930 . S
C1122 C1120 1.395 . S
C1122 C1125 1.403 . S
C1123 C1120 1.403 . S
C1123 C1124 1.524 . S
C1123 C1127 1.400 . S
C1124 H1109 0.960 . S
C1124 H1110 0.960 . S
C1124 H1111 0.960 . S
C1124 C1123 1.524 . S
C1125 C1122 1.403 . S
C1125 C1126 1.392 . S
C1125 C1129 1.495 . S
C1126 C1125 1.392 . S
C1126 C1127 1.385 . S
C1126 C1128 1.478 . S
C1127 H1121 0.930 . S
C1127 C1123 1.400 . S
C1127 C1126 1.385 . S
C1128 C1126 1.478 . S
C1128 C1130 1.381 . S
C1128 C1134 1.383 . S
C1129 C1125 1.495 . S
C1129 H1135 0.959 . S
C1129 H1136 0.961 . S
C1129 H1137 0.960 . S
C1130 C1128 1.381 . S
C1130 C1131 1.394 . S
C1130 H1138 0.930 . S
C1131 C1130 1.394 . S
C1131 C1132 1.383 . S
C1131 H1139 0.929 . S
C1132 C1131 1.383 . S
C1132 C1133 1.377 . S
C1133 H1117 0.930 . S
C1133 C1132 1.377 . S
C1133 C1134 1.379 . S
C1134 H1118 0.931 . S
C1134 C1128 1.383 . S
C1134 C1133 1.379 . S
H1135 C1129 0.959 . S
H1136 C1129 0.961 . S
H1137 C1129 0.960 . S
H1138 C1130 0.930 . S
H1139 C1131 0.929 . S
H1140 C1148 0.929 . S
H1141 C1150 0.930 . S
H1142 C1152 0.930 . S
H1143 C1155 0.929 . S
H1144 C1158 0.930 . S
H1145 C1160 0.960 . S
H1146 C1160 0.960 . S
H1147 C1160 0.960 . S
C1148 H1140 0.929 . S
C1148 C1149 1.377 . S
C1148 C1150 1.384 . S
C1149 C1148 1.377 . S
C1149 C1155 1.390 . S
C1150 H1141 0.930 . S
C1150 C1148 1.384 . S
C1150 C1151 1.372 . S
C1151 C1150 1.372 . S
C1151 C1152 1.400 . S
C1151 C1156 1.490 . S
C1152 H1142 0.930 . S
C1152 C1151 1.400 . S
C1152 C1155 1.386 . S
H1153 C1169 0.930 . S
H1154 C1170 0.931 . S
C1155 H1143 0.929 . S
C1155 C1149 1.390 . S
C1155 C1152 1.386 . S
C1156 C1151 1.490 . S
C1156 C1158 1.395 . S
C1156 C1159 1.403 . S
H1157 C1163 0.930 . S
C1158 H1144 0.930 . S
C1158 C1156 1.395 . S
C1158 C1161 1.403 . S
C1159 C1156 1.403 . S
C1159 C1160 1.524 . S
C1159 C1163 1.400 . S
C1160 H1145 0.960 . S
C1160 H1146 0.960 . S
C1160 H1147 0.960 . S
C1160 C1159 1.524 . S
C1161 C1158 1.403 . S
C1161 C1162 1.392 . S
C1161 C1165 1.495 . S
C1162 C1161 1.392 . S
C1162 C1163 1.385 . S
C1162 C1164 1.478 . S
C1163 H1157 0.930 . S
C1163 C1159 1.400 . S
C1163 C1162 1.385 . S
C1164 C1162 1.478 . S
C1164 C1166 1.381 . S
C1164 C1170 1.383 . S
C1165 C1161 1.495 . S
C1165 H1171 0.959 . S
C1165 H1172 0.961 . S
C1165 H1173 0.960 . S
C1166 C1164 1.381 . S
C1166 C1167 1.381 1_554 S
C1166 H1174 0.930 . S
C1167 C1166 1.381 1_556 S
C1167 C1168 1.386 . S
C1167 H1175 0.940 . S
C1168 C1167 1.386 . S
C1168 C1169 1.377 1_556 S
C1169 H1153 0.930 . S
C1169 C1168 1.377 1_554 S
C1169 C1170 1.379 . S
C1170 H1154 0.931 . S
C1170 C1164 1.383 . S
C1170 C1169 1.379 . S
H1171 C1165 0.959 . S
H1172 C1165 0.961 . S
H1173 C1165 0.960 . S
H1174 C1166 0.930 . S
H1175 C1167 0.940 . S
H1176 C1184 0.929 . S
H1177 C1186 0.930 . S
H1178 C1188 0.930 . S
H1179 C1191 0.929 . S
H1180 C1194 0.930 . S
H1181 C1196 0.960 . S
H1182 C1196 0.960 . S
H1183 C1196 0.960 . S
C1184 H1176 0.929 . S
C1184 C1185 1.377 . S
C1184 C1186 1.384 1_554 S
C1185 C1184 1.377 . S
C1185 C1191 1.390 1_554 S
C1186 H1177 0.930 . S
C1186 C1184 1.384 1_556 S
C1186 C1187 1.372 . S
C1187 C1186 1.372 . S
C1187 C1188 1.400 . S
C1187 C1192 1.490 . S
C1188 H1178 0.930 . S
C1188 C1187 1.400 . S
C1188 C1191 1.386 . S
H1189 C1205 0.930 . S
H1190 C1206 0.931 . S
C1191 H1179 0.929 . S
C1191 C1185 1.390 1_556 S
C1191 C1188 1.386 . S
C1192 C1187 1.490 . S
C1192 C1194 1.395 . S
C1192 C1195 1.403 . S
H1193 C1199 0.930 . S
C1194 H1180 0.930 . S
C1194 C1192 1.395 . S
C1194 C1197 1.403 . S
C1195 C1192 1.403 . S
C1195 C1196 1.524 . S
C1195 C1199 1.400 . S
C1196 H1181 0.960 . S
C1196 H1182 0.960 . S
C1196 H1183 0.960 . S
C1196 C1195 1.524 . S
C1197 C1194 1.403 . S
C1197 C1198 1.392 . S
C1197 C1201 1.495 . S
C1198 C1197 1.392 . S
C1198 C1199 1.385 . S
C1198 C1200 1.478 . S
C1199 H1193 0.930 . S
C1199 C1195 1.400 . S
C1199 C1198 1.385 . S
C1200 C1198 1.478 . S
C1200 C1202 1.381 . S
C1200 C1206 1.383 . S
C1201 C1197 1.495 . S
C1201 H1207 0.959 . S
C1201 H1208 0.961 . S
C1201 H1209 0.960 . S
C1202 C1200 1.381 . S
C1202 C1203 1.394 . S
C1202 H1210 0.930 . S
C1203 C1202 1.394 . S
C1203 C1204 1.383 . S
C1203 H1211 0.929 . S
C1204 C1203 1.383 . S
C1204 C1205 1.377 . S
C1205 H1189 0.930 . S
C1205 C1204 1.377 . S
C1205 C1206 1.379 . S
C1206 H1190 0.931 . S
C1206 C1200 1.383 . S
C1206 C1205 1.379 . S
H1207 C1201 0.959 . S
H1208 C1201 0.961 . S
H1209 C1201 0.960 . S
H1210 C1202 0.930 . S
H1211 C1203 0.929 . S
H1212 C1220 0.929 . S
H1213 C1222 0.930 . S
H1214 C1224 0.930 . S
H1215 C1227 0.929 . S
H1216 C1230 0.930 . S
H1217 C1232 0.960 . S
H1218 C1232 0.960 . S
H1219 C1232 0.960 . S
C1220 H1212 0.929 . S
C1220 C1221 1.377 . S
C1220 C1222 1.384 . S
C1221 C1220 1.377 . S
C1221 C1227 1.390 . S
C1222 H1213 0.930 . S
C1222 C1220 1.384 . S
C1222 C1223 1.372 . S
C1223 C1222 1.372 . S
C1223 C1224 1.400 . S
C1223 C1228 1.490 . S
C1224 H1214 0.930 . S
C1224 C1223 1.400 . S
C1224 C1227 1.386 . S
H1225 C1241 0.930 . S
H1226 C1242 0.931 . S
C1227 H1215 0.929 . S
C1227 C1221 1.390 . S
C1227 C1224 1.386 . S
C1228 C1223 1.490 . S
C1228 C1230 1.395 . S
C1228 C1231 1.403 . S
H1229 C1235 0.930 . S
C1230 H1216 0.930 . S
C1230 C1228 1.395 . S
C1230 C1233 1.403 . S
C1231 C1228 1.403 . S
C1231 C1232 1.524 . S
C1231 C1235 1.400 . S
C1232 H1217 0.960 . S
C1232 H1218 0.960 . S
C1232 H1219 0.960 . S
C1232 C1231 1.524 . S
C1233 C1230 1.403 . S
C1233 C1234 1.392 . S
C1233 C1237 1.495 . S
C1234 C1233 1.392 . S
C1234 C1235 1.385 . S
C1234 C1236 1.478 . S
C1235 H1229 0.930 . S
C1235 C1231 1.400 . S
C1235 C1234 1.385 . S
C1236 C1234 1.478 . S
C1236 C1238 1.381 . S
C1236 C1242 1.383 . S
C1237 C1233 1.495 . S
C1237 H1243 0.959 . S
C1237 H1244 0.961 . S
C1237 H1245 0.960 . S
C1238 C1236 1.381 . S
C1238 C1239 1.394 . S
C1238 H1246 0.930 . S
C1239 C1238 1.394 . S
C1239 C1240 1.383 1_554 S
C1239 H1247 0.929 1_554 S
C1240 C1239 1.383 1_556 S
C1240 C1241 1.377 1_556 S
C1241 H1225 0.930 . S
C1241 C1240 1.377 1_554 S
C1241 C1242 1.379 . S
C1242 H1226 0.931 . S
C1242 C1236 1.383 . S
C1242 C1241 1.379 . S
H1243 C1237 0.959 . S
H1244 C1237 0.961 . S
H1245 C1237 0.960 . S
H1246 C1238 0.930 . S
H1247 C1239 0.929 1_556 S
H1248 C1256 0.929 . S
H1249 C1258 0.930 . S
H1250 C1260 0.930 . S
H1251 C1263 0.929 . S
H1252 C1266 0.930 . S
H1253 C1268 0.960 . S
H1254 C1268 0.960 . S
H1255 C1268 0.960 . S
C1256 H1248 0.929 . S
C1256 C1257 1.377 . S
C1256 C1258 1.384 . S
C1257 C1256 1.377 . S
C1257 C1263 1.390 . S
C1258 H1249 0.930 . S
C1258 C1256 1.384 . S
C1258 C1259 1.372 . S
C1259 C1258 1.372 . S
C1259 C1260 1.400 . S
C1259 C1264 1.490 . S
C1260 H1250 0.930 . S
C1260 C1259 1.400 . S
C1260 C1263 1.386 . S
H1261 C1277 0.930 . S
H1262 C1278 0.931 . S
C1263 H1251 0.929 . S
C1263 C1257 1.390 . S
C1263 C1260 1.386 . S
C1264 C1259 1.490 . S
C1264 C1266 1.395 . S
C1264 C1267 1.403 . S
H1265 C1271 0.930 . S
C1266 H1252 0.930 . S
C1266 C1264 1.395 . S
C1266 C1269 1.403 . S
C1267 C1264 1.403 . S
C1267 C1268 1.524 . S
C1267 C1271 1.400 . S
C1268 H1253 0.960 . S
C1268 H1254 0.960 . S
C1268 H1255 0.960 . S
C1268 C1267 1.524 . S
C1269 C1266 1.403 . S
C1269 C1270 1.392 . S
C1269 C1273 1.495 . S
C1270 C1269 1.392 . S
C1270 C1271 1.385 . S
C1270 C1272 1.478 . S
C1271 H1265 0.930 . S
C1271 C1267 1.400 . S
C1271 C1270 1.385 . S
C1272 C1270 1.478 . S
C1272 C1274 1.381 . S
C1272 C1278 1.383 . S
C1273 C1269 1.495 . S
C1273 H1279 0.959 . S
C1273 H1280 0.961 . S
C1273 H1281 0.960 . S
C1274 C1272 1.381 . S
C1274 C1275 1.394 . S
C1274 H1282 0.930 . S
C1275 C1274 1.394 . S
C1275 C1276 1.383 . S
C1275 H1283 0.929 . S
C1276 C1275 1.383 . S
C1276 C1277 1.377 . S
C1277 H1261 0.930 . S
C1277 C1276 1.377 . S
C1277 C1278 1.379 . S
C1278 H1262 0.931 . S
C1278 C1272 1.383 . S
C1278 C1277 1.379 . S
H1279 C1273 0.959 . S
H1280 C1273 0.961 . S
H1281 C1273 0.960 . S
H1282 C1274 0.930 . S
H1283 C1275 0.929 . S
H1284 C1292 0.929 . S
H1285 C1294 0.930 . S
H1286 C1296 0.930 . S
H1287 C1299 0.929 . S
H1288 C1302 0.930 . S
H1289 C1304 0.960 . S
H1290 C1304 0.960 . S
H1291 C1304 0.960 . S
C1292 H1284 0.929 . S
C1292 C1293 1.377 . S
C1292 C1294 1.384 . S
C1293 C1292 1.377 . S
C1293 C1299 1.390 . S
C1294 H1285 0.930 . S
C1294 C1292 1.384 . S
C1294 C1295 1.372 . S
C1295 C1294 1.372 . S
C1295 C1296 1.400 . S
C1295 C1300 1.490 . S
C1296 H1286 0.930 . S
C1296 C1295 1.400 . S
C1296 C1299 1.386 . S
H1297 C1313 0.930 . S
H1298 C1314 0.931 . S
C1299 H1287 0.929 . S
C1299 C1293 1.390 . S
C1299 C1296 1.386 . S
C1300 C1295 1.490 . S
C1300 C1302 1.395 . S
C1300 C1303 1.403 . S
H1301 C1307 0.930 . S
C1302 H1288 0.930 . S
C1302 C1300 1.395 . S
C1302 C1305 1.403 . S
C1303 C1300 1.403 . S
C1303 C1304 1.524 . S
C1303 C1307 1.400 . S
C1304 H1289 0.960 . S
C1304 H1290 0.960 . S
C1304 H1291 0.960 . S
C1304 C1303 1.524 . S
C1305 C1302 1.403 . S
C1305 C1306 1.392 . S
C1305 C1309 1.495 . S
C1306 C1305 1.392 . S
C1306 C1307 1.385 . S
C1306 C1308 1.478 . S
C1307 H1301 0.930 . S
C1307 C1303 1.400 . S
C1307 C1306 1.385 . S
C1308 C1306 1.478 . S
C1308 C1310 1.381 . S
C1308 C1314 1.383 . S
C1309 C1305 1.495 . S
C1309 H1315 0.959 . S
C1309 H1316 0.961 . S
C1309 H1317 0.960 . S
C1310 C1308 1.381 . S
C1310 C1311 1.394 . S
C1310 H1318 0.930 . S
C1311 C1310 1.394 . S
C1311 C1312 1.383 . S
C1311 H1319 0.929 . S
C1312 C1311 1.383 . S
C1312 C1313 1.377 . S
C1313 H1297 0.930 . S
C1313 C1312 1.377 . S
C1313 C1314 1.379 . S
C1314 H1298 0.931 . S
C1314 C1308 1.383 . S
C1314 C1313 1.379 . S
H1315 C1309 0.959 . S
H1316 C1309 0.961 . S
H1317 C1309 0.960 . S
H1318 C1310 0.930 . S
H1319 C1311 0.929 . S
H1320 C1328 0.929 . S
H1321 C1330 0.930 . S
H1322 C1332 0.930 . S
H1323 C1335 0.929 . S
H1324 C1338 0.930 . S
H1325 C1340 0.960 . S
H1326 C1340 0.960 . S
H1327 C1340 0.960 . S
C1328 H1320 0.929 . S
C1328 C1329 1.377 . S
C1328 C1330 1.384 . S
C1329 C1328 1.377 . S
C1329 C1335 1.390 . S
C1330 H1321 0.930 . S
C1330 C1328 1.384 . S
C1330 C1331 1.372 . S
C1331 C1330 1.372 . S
C1331 C1332 1.400 . S
C1331 C1336 1.490 . S
C1332 H1322 0.930 . S
C1332 C1331 1.400 . S
C1332 C1335 1.386 . S
H1333 C1349 0.930 . S
H1334 C1350 0.931 . S
C1335 H1323 0.929 . S
C1335 C1329 1.390 . S
C1335 C1332 1.386 . S
C1336 C1331 1.490 . S
C1336 C1338 1.395 . S
C1336 C1339 1.403 . S
H1337 C1343 0.930 . S
C1338 H1324 0.930 . S
C1338 C1336 1.395 . S
C1338 C1341 1.403 . S
C1339 C1336 1.403 . S
C1339 C1340 1.524 . S
C1339 C1343 1.400 . S
C1340 H1325 0.960 . S
C1340 H1326 0.960 . S
C1340 H1327 0.960 . S
C1340 C1339 1.524 . S
C1341 C1338 1.403 . S
C1341 C1342 1.392 . S
C1341 C1345 1.495 . S
C1342 C1341 1.392 . S
C1342 C1343 1.385 . S
C1342 C1344 1.478 . S
C1343 H1337 0.930 . S
C1343 C1339 1.400 . S
C1343 C1342 1.385 . S
C1344 C1342 1.478 . S
C1344 C1346 1.381 . S
C1344 C1350 1.383 . S
C1345 C1341 1.495 . S
C1345 H1351 0.959 . S
C1345 H1352 0.961 . S
C1345 H1353 0.960 . S
C1346 C1344 1.381 . S
C1346 C1347 1.394 . S
C1346 H1354 0.930 . S
C1347 C1346 1.394 . S
C1347 C1348 1.383 . S
C1347 H1355 0.929 . S
C1348 C1347 1.383 . S
C1348 C1349 1.377 . S
C1349 H1333 0.930 . S
C1349 C1348 1.377 . S
C1349 C1350 1.379 . S
C1350 H1334 0.931 . S
C1350 C1344 1.383 . S
C1350 C1349 1.379 . S
H1351 C1345 0.959 . S
H1352 C1345 0.961 . S
H1353 C1345 0.960 . S
H1354 C1346 0.930 . S
H1355 C1347 0.929 . S
H1356 C1364 0.929 . S
H1357 C1366 0.930 . S
H1358 C1368 0.930 . S
H1359 C1371 0.929 . S
H1360 C1374 0.930 . S
H1361 C1376 0.960 . S
H1362 C1376 0.960 . S
H1363 C1376 0.960 . S
C1364 H1356 0.929 . S
C1364 C1365 1.377 . S
C1364 C1366 1.384 . S
C1365 C1364 1.377 . S
C1365 C1371 1.390 . S
C1366 H1357 0.930 . S
C1366 C1364 1.384 . S
C1366 C1367 1.372 . S
C1367 C1366 1.372 . S
C1367 C1368 1.400 . S
C1367 C1372 1.490 . S
C1368 H1358 0.930 . S
C1368 C1367 1.400 . S
C1368 C1371 1.386 . S
H1369 C1385 0.930 . S
H1370 C1386 0.931 . S
C1371 H1359 0.929 . S
C1371 C1365 1.390 . S
C1371 C1368 1.386 . S
C1372 C1367 1.490 . S
C1372 C1374 1.395 . S
C1372 C1375 1.403 . S
H1373 C1379 0.930 . S
C1374 H1360 0.930 . S
C1374 C1372 1.395 . S
C1374 C1377 1.403 . S
C1375 C1372 1.403 . S
C1375 C1376 1.524 . S
C1375 C1379 1.400 . S
C1376 H1361 0.960 . S
C1376 H1362 0.960 . S
C1376 H1363 0.960 . S
C1376 C1375 1.524 . S
C1377 C1374 1.403 . S
C1377 C1378 1.392 . S
C1377 C1381 1.495 . S
C1378 C1377 1.392 . S
C1378 C1379 1.385 . S
C1378 C1380 1.478 . S
C1379 H1373 0.930 . S
C1379 C1375 1.400 . S
C1379 C1378 1.385 . S
C1380 C1378 1.478 . S
C1380 C1382 1.381 . S
C1380 C1386 1.383 . S
C1381 C1377 1.495 . S
C1381 H1387 0.959 . S
C1381 H1388 0.961 . S
C1381 H1389 0.960 . S
C1382 C1380 1.381 . S
C1382 C1383 1.394 . S
C1382 H1390 0.930 . S
C1383 C1382 1.394 . S
C1383 C1384 1.383 . S
C1383 H1391 0.929 . S
C1384 C1383 1.383 . S
C1384 C1385 1.377 . S
C1385 H1369 0.930 . S
C1385 C1384 1.377 . S
C1385 C1386 1.379 . S
C1386 H1370 0.931 . S
C1386 C1380 1.383 . S
C1386 C1385 1.379 . S
H1387 C1381 0.959 . S
H1388 C1381 0.961 . S
H1389 C1381 0.960 . S
H1390 C1382 0.930 . S
H1391 C1383 0.929 . S
H1392 C1400 0.929 . S
H1393 C1402 0.930 1_565 S
H1394 C1404 0.930 . S
H1395 C1407 0.929 . S
H1396 C1410 0.930 . S
H1397 C1412 0.960 . S
H1398 C1412 0.960 . S
H1399 C1412 0.960 . S
C1400 H1392 0.929 . S
C1400 C1401 1.377 . S
C1400 C1402 1.384 . S
C1401 C1400 1.377 . S
C1401 C1407 1.390 . S
C1402 H1393 0.930 1_545 S
C1402 C1400 1.384 . S
C1402 C1403 1.372 1_545 S
C1403 C1402 1.372 1_565 S
C1403 C1404 1.400 . S
C1403 C1408 1.490 . S
C1404 H1394 0.930 . S
C1404 C1403 1.400 . S
C1404 C1407 1.386 1_565 S
H1405 C1421 0.930 . S
H1406 C1422 0.931 . S
C1407 H1395 0.929 . S
C1407 C1401 1.390 . S
C1407 C1404 1.386 1_545 S
C1408 C1403 1.490 . S
C1408 C1410 1.395 . S
C1408 C1411 1.403 . S
H1409 C1415 0.930 . S
C1410 H1396 0.930 . S
C1410 C1408 1.395 . S
C1410 C1413 1.403 . S
C1411 C1408 1.403 . S
C1411 C1412 1.524 . S
C1411 C1415 1.400 . S
C1412 H1397 0.960 . S
C1412 H1398 0.960 . S
C1412 H1399 0.960 . S
C1412 C1411 1.524 . S
C1413 C1410 1.403 . S
C1413 C1414 1.392 . S
C1413 C1417 1.495 . S
C1414 C1413 1.392 . S
C1414 C1415 1.385 . S
C1414 C1416 1.478 . S
C1415 H1409 0.930 . S
C1415 C1411 1.400 . S
C1415 C1414 1.385 . S
C1416 C1414 1.478 . S
C1416 C1418 1.381 . S
C1416 C1422 1.383 . S
C1417 C1413 1.495 . S
C1417 H1423 0.959 . S
C1417 H1424 0.961 . S
C1417 H1425 0.960 . S
C1418 C1416 1.381 . S
C1418 C1419 1.394 . S
C1418 H1426 0.930 . S
C1419 C1418 1.394 . S
C1419 C1420 1.383 . S
C1419 H1427 0.929 . S
C1420 C1419 1.383 . S
C1420 C1421 1.377 . S
C1421 H1405 0.930 . S
C1421 C1420 1.377 . S
C1421 C1422 1.379 . S
C1422 H1406 0.931 . S
C1422 C1416 1.383 . S
C1422 C1421 1.379 . S
H1423 C1417 0.959 . S
H1424 C1417 0.961 . S
H1425 C1417 0.960 . S
H1426 C1418 0.930 . S
H1427 C1419 0.929 . S
H1428 C1436 0.929 . S
H1429 C1438 0.930 . S
H1430 C1440 0.930 . S
H1431 C1443 0.929 . S
H1432 C1446 0.930 . S
H1433 C1448 0.960 . S
H1434 C1448 0.960 . S
H1435 C1448 0.960 . S
C1436 H1428 0.929 . S
C1436 C1437 1.377 . S
C1436 C1438 1.384 . S
C1437 C1436 1.377 . S
C1437 C1443 1.390 . S
C1438 H1429 0.930 . S
C1438 C1436 1.384 . S
C1438 C1439 1.372 . S
C1439 C1438 1.372 . S
C1439 C1440 1.400 . S
C1439 C1444 1.490 . S
C1440 H1430 0.930 . S
C1440 C1439 1.400 . S
C1440 C1443 1.386 . S
H1441 C1457 0.930 . S
H1442 C1458 0.914 1_655 S
C1443 H1431 0.929 . S
C1443 C1437 1.390 . S
C1443 C1440 1.386 . S
C1444 C1439 1.490 . S
C1444 C1446 1.395 . S
C1444 C1447 1.403 . S
H1445 C1451 0.930 . S
C1446 H1432 0.930 . S
C1446 C1444 1.395 . S
C1446 C1449 1.403 . S
C1447 C1444 1.403 . S
C1447 C1448 1.524 . S
C1447 C1451 1.400 . S
C1448 H1433 0.960 . S
C1448 H1434 0.960 . S
C1448 H1435 0.960 . S
C1448 C1447 1.524 . S
C1449 C1446 1.403 . S
C1449 C1450 1.392 . S
C1449 C1453 1.495 . S
C1450 C1449 1.392 . S
C1450 C1451 1.385 . S
C1450 C1452 1.478 . S
C1451 H1445 0.930 . S
C1451 C1447 1.400 . S
C1451 C1450 1.385 . S
C1452 C1450 1.478 . S
C1452 C1454 1.381 . S
C1452 C1458 1.349 1_655 S
C1453 C1449 1.495 . S
C1453 H1459 0.959 . S
C1453 H1460 0.961 . S
C1453 H1461 0.960 . S
C1454 C1452 1.381 . S
C1454 C1455 1.394 1_655 S
C1454 H1462 0.930 . S
C1455 C1454 1.394 1_455 S
C1455 C1456 1.383 . S
C1455 H1463 0.929 . S
C1456 C1455 1.383 . S
C1456 C1457 1.377 . S
C1457 H1441 0.930 . S
C1457 C1456 1.377 . S
C1457 C1458 1.433 . S
C1458 H1442 0.914 1_455 S
C1458 C1452 1.349 1_455 S
C1458 C1457 1.433 . S
H1459 C1453 0.959 . S
H1460 C1453 0.961 . S
H1461 C1453 0.960 . S
H1462 C1454 0.930 . S
H1463 C1455 0.929 . S
H1464 C1472 0.929 . S
H1465 C1474 0.930 . S
H1466 C1476 0.930 . S
H1467 C1479 0.929 . S
H1468 C1482 0.930 . S
H1469 C1484 0.960 . S
H1470 C1484 0.960 . S
H1471 C1484 0.960 . S
C1472 H1464 0.929 . S
C1472 C1473 1.377 . S
C1472 C1474 1.384 1_565 S
C1473 C1472 1.377 . S
C1473 C1479 1.390 . S
C1474 H1465 0.930 . S
C1474 C1472 1.384 1_545 S
C1474 C1475 1.372 . S
C1475 C1474 1.372 . S
C1475 C1476 1.400 1_545 S
C1475 C1480 1.490 . S
C1476 H1466 0.930 . S
C1476 C1475 1.400 1_565 S
C1476 C1479 1.386 . S
H1477 C1493 0.930 . S
H1478 C1494 0.931 . S
C1479 H1467 0.929 . S
C1479 C1473 1.390 . S
C1479 C1476 1.386 . S
C1480 C1475 1.490 . S
C1480 C1482 1.395 . S
C1480 C1483 1.403 . S
H1481 C1487 0.930 . S
C1482 H1468 0.930 . S
C1482 C1480 1.395 . S
C1482 C1485 1.403 . S
C1483 C1480 1.403 . S
C1483 C1484 1.524 . S
C1483 C1487 1.400 . S
C1484 H1469 0.960 . S
C1484 H1470 0.960 . S
C1484 H1471 0.960 . S
C1484 C1483 1.524 . S
C1485 C1482 1.403 . S
C1485 C1486 1.392 . S
C1485 C1489 1.495 . S
C1486 C1485 1.392 . S
C1486 C1487 1.385 . S
C1486 C1488 1.478 . S
C1487 H1481 0.930 . S
C1487 C1483 1.400 . S
C1487 C1486 1.385 . S
C1488 C1486 1.478 . S
C1488 C1490 1.381 . S
C1488 C1494 1.383 . S
C1489 C1485 1.495 . S
C1489 H1495 0.959 . S
C1489 H1496 0.961 . S
C1489 H1497 0.960 . S
C1490 C1488 1.381 . S
C1490 C1491 1.394 . S
C1490 H1498 0.930 . S
C1491 C1490 1.394 . S
C1491 C1492 1.383 . S
C1491 H1499 0.929 . S
C1492 C1491 1.383 . S
C1492 C1493 1.377 . S
C1493 H1477 0.930 . S
C1493 C1492 1.377 . S
C1493 C1494 1.379 . S
C1494 H1478 0.931 . S
C1494 C1488 1.383 . S
C1494 C1493 1.379 . S
H1495 C1489 0.959 . S
H1496 C1489 0.961 . S
H1497 C1489 0.960 . S
H1498 C1490 0.930 . S
H1499 C1491 0.929 . S
H1500 C1508 0.929 . S
H1501 C1510 0.930 . S
H1502 C1512 0.930 . S
H1503 C1515 0.929 . S
H1504 C1518 0.930 . S
H1505 C1520 0.960 . S
H1506 C1520 0.960 . S
H1507 C1520 0.960 . S
C1508 H1500 0.929 . S
C1508 C1509 1.377 . S
C1508 C1510 1.384 . S
C1509 C1508 1.377 . S
C1509 C1515 1.390 . S
C1510 H1501 0.930 . S
C1510 C1508 1.384 . S
C1510 C1511 1.372 . S
C1511 C1510 1.372 . S
C1511 C1512 1.400 . S
C1511 C1516 1.490 . S
C1512 H1502 0.930 . S
C1512 C1511 1.400 . S
C1512 C1515 1.386 . S
H1513 C1529 0.930 . S
H1514 C1530 0.931 . S
C1515 H1503 0.929 . S
C1515 C1509 1.390 . S
C1515 C1512 1.386 . S
C1516 C1511 1.490 . S
C1516 C1518 1.395 . S
C1516 C1519 1.403 . S
H1517 C1523 0.930 . S
C1518 H1504 0.930 . S
C1518 C1516 1.395 . S
C1518 C1521 1.403 . S
C1519 C1516 1.403 . S
C1519 C1520 1.524 . S
C1519 C1523 1.400 . S
C1520 H1505 0.960 . S
C1520 H1506 0.960 . S
C1520 H1507 0.960 . S
C1520 C1519 1.524 . S
C1521 C1518 1.403 . S
C1521 C1522 1.392 . S
C1521 C1525 1.495 . S
C1522 C1521 1.392 . S
C1522 C1523 1.385 . S
C1522 C1524 1.478 . S
C1523 H1517 0.930 . S
C1523 C1519 1.400 . S
C1523 C1522 1.385 . S
C1524 C1522 1.478 . S
C1524 C1526 1.381 . S
C1524 C1530 1.383 . S
C1525 C1521 1.495 . S
C1525 H1531 0.959 . S
C1525 H1532 0.961 . S
C1525 H1533 0.960 . S
C1526 C1524 1.381 . S
C1526 C1527 1.394 1_455 S
C1526 H1534 0.930 . S
C1527 C1526 1.394 1_655 S
C1527 C1528 1.383 . S
C1527 H1535 0.929 . S
C1528 C1527 1.383 . S
C1528 C1529 1.377 . S
C1529 H1513 0.930 . S
C1529 C1528 1.377 . S
C1529 C1530 1.379 1_655 S
C1530 H1514 0.931 . S
C1530 C1524 1.383 . S
C1530 C1529 1.379 1_455 S
H1531 C1525 0.959 . S
H1532 C1525 0.961 . S
H1533 C1525 0.960 . S
H1534 C1526 0.930 . S
H1535 C1527 0.929 . S
H1536 C1544 0.929 . S
H1537 C1546 0.930 . S
H1538 C1548 0.930 . S
H1539 C1551 0.929 . S
H1540 C1554 0.930 . S
H1541 C1556 0.960 . S
H1542 C1556 0.960 . S
H1543 C1556 0.960 . S
C1544 H1536 0.929 . S
C1544 C1545 1.377 . S
C1544 C1546 1.384 . S
C1545 C1544 1.377 . S
C1545 C1551 1.390 . S
C1546 H1537 0.930 . S
C1546 C1544 1.384 . S
C1546 C1547 1.372 . S
C1547 C1546 1.372 . S
C1547 C1548 1.400 . S
C1547 C1552 1.490 . S
C1548 H1538 0.930 . S
C1548 C1547 1.400 . S
C1548 C1551 1.386 . S
H1549 C1565 0.930 . S
H1550 C1566 0.931 1_556 S
C1551 H1539 0.929 . S
C1551 C1545 1.390 . S
C1551 C1548 1.386 . S
C1552 C1547 1.490 . S
C1552 C1554 1.395 1_556 S
C1552 C1555 1.403 . S
H1553 C1559 0.930 . S
C1554 H1540 0.930 . S
C1554 C1552 1.395 1_554 S
C1554 C1557 1.403 . S
C1555 C1552 1.403 . S
C1555 C1556 1.524 . S
C1555 C1559 1.400 . S
C1556 H1541 0.960 . S
C1556 H1542 0.960 . S
C1556 H1543 0.960 . S
C1556 C1555 1.524 . S
C1557 C1554 1.403 . S
C1557 C1558 1.392 . S
C1557 C1561 1.495 . S
C1558 C1557 1.392 . S
C1558 C1559 1.385 1_554 S
C1558 C1560 1.478 . S
C1559 H1553 0.930 . S
C1559 C1555 1.400 . S
C1559 C1558 1.385 1_556 S
C1560 C1558 1.478 . S
C1560 C1562 1.381 . S
C1560 C1566 1.383 . S
C1561 C1557 1.495 . S
C1561 H1567 0.959 . S
C1561 H1568 0.961 . S
C1561 H1569 0.960 . S
C1562 C1560 1.381 . S
C1562 C1563 1.394 . S
C1562 H1570 0.930 . S
C1563 C1562 1.394 . S
C1563 C1564 1.383 . S
C1563 H1571 0.929 . S
C1564 C1563 1.383 . S
C1564 C1565 1.377 . S
C1565 H1549 0.930 . S
C1565 C1564 1.377 . S
C1565 C1566 1.379 . S
C1566 H1550 0.931 1_554 S
C1566 C1560 1.383 . S
C1566 C1565 1.379 . S
H1567 C1561 0.959 . S
H1568 C1561 0.961 . S
H1569 C1561 0.960 . S
H1570 C1562 0.930 . S
H1571 C1563 0.929 . S
H1572 C1580 0.929 . S
H1573 C1582 0.930 . S
H1574 C1584 0.930 1_556 S
H1575 C1587 0.929 . S
H1576 C1590 0.930 . S
H1577 C1592 0.960 . S
H1578 C1592 0.960 . S
H1579 C1592 0.960 . S
C1580 H1572 0.929 . S
C1580 C1581 1.377 . S
C1580 C1582 1.384 . S
C1581 C1580 1.377 . S
C1581 C1587 1.390 . S
C1582 H1573 0.930 . S
C1582 C1580 1.384 . S
C1582 C1583 1.372 . S
C1583 C1582 1.372 . S
C1583 C1584 1.400 . S
C1583 C1588 1.490 . S
C1584 H1574 0.930 1_554 S
C1584 C1583 1.400 . S
C1584 C1587 1.386 . S
H1585 C1601 0.930 . S
H1586 C1602 0.931 . S
C1587 H1575 0.929 . S
C1587 C1581 1.390 . S
C1587 C1584 1.386 . S
C1588 C1583 1.490 . S
C1588 C1590 1.395 . S
C1588 C1591 1.403 1_554 S
H1589 C1595 0.930 . S
C1590 H1576 0.930 . S
C1590 C1588 1.395 . S
C1590 C1593 1.403 . S
C1591 C1588 1.403 1_556 S
C1591 C1592 1.524 . S
C1591 C1595 1.400 . S
C1592 H1577 0.960 . S
C1592 H1578 0.960 . S
C1592 H1579 0.960 . S
C1592 C1591 1.524 . S
C1593 C1590 1.403 . S
C1593 C1594 1.392 . S
C1593 C1597 1.495 . S
C1594 C1593 1.392 . S
C1594 C1595 1.385 1_554 S
C1594 C1596 1.478 1_554 S
C1595 H1589 0.930 . S
C1595 C1591 1.400 . S
C1595 C1594 1.385 1_556 S
C1596 C1594 1.478 1_556 S
C1596 C1598 1.381 1_556 S
C1596 C1602 1.383 . S
C1597 C1593 1.495 . S
C1597 H1603 0.959 . S
C1597 H1604 0.961 . S
C1597 H1605 0.960 . S
C1598 C1596 1.381 1_554 S
C1598 C1599 1.394 1_554 S
C1598 H1606 0.930 . S
C1599 C1598 1.394 1_556 S
C1599 C1600 1.383 . S
C1599 H1607 0.929 1_556 S
C1600 C1599 1.383 . S
C1600 C1601 1.377 . S
C1601 H1585 0.930 . S
C1601 C1600 1.377 . S
C1601 C1602 1.379 . S
C1602 H1586 0.931 . S
C1602 C1596 1.383 . S
C1602 C1601 1.379 . S
H1603 C1597 0.959 . S
H1604 C1597 0.961 . S
H1605 C1597 0.960 . S
H1606 C1598 0.930 . S
H1607 C1599 0.929 1_554 S
H1608 C1616 0.929 . S
H1609 C1618 0.930 . S
H1610 C1620 0.930 1_556 S
H1611 C1623 0.929 . S
H1612 C1626 0.930 . S
H1613 C1628 0.960 . S
H1614 C1628 0.960 . S
H1615 C1628 0.960 . S
C1616 H1608 0.929 . S
C1616 C1617 1.377 . S
C1616 C1618 1.384 . S
C1617 C1616 1.377 . S
C1617 C1623 1.390 . S
C1618 H1609 0.930 . S
C1618 C1616 1.384 . S
C1618 C1619 1.372 . S
C1619 C1618 1.372 . S
C1619 C1620 1.400 . S
C1619 C1624 1.490 . S
C1620 H1610 0.930 1_554 S
C1620 C1619 1.400 . S
C1620 C1623 1.386 . S
H1621 C1637 0.930 . S
H1622 C1638 0.931 . S
C1623 H1611 0.929 . S
C1623 C1617 1.390 . S
C1623 C1620 1.386 . S
C1624 C1619 1.490 . S
C1624 C1626 1.395 1_554 S
C1624 C1627 1.403 . S
H1625 C1631 0.930 1_554 S
C1626 H1612 0.930 . S
C1626 C1624 1.395 1_556 S
C1626 C1629 1.403 . S
C1627 C1624 1.403 . S
C1627 C1628 1.524 . S
C1627 C1631 1.400 1_554 S
C1628 H1613 0.960 . S
C1628 H1614 0.960 . S
C1628 H1615 0.960 . S
C1628 C1627 1.524 . S
C1629 C1626 1.403 . S
C1629 C1630 1.392 . S
C1629 C1633 1.495 . S
C1630 C1629 1.392 . S
C1630 C1631 1.385 . S
C1630 C1632 1.478 . S
C1631 H1625 0.930 1_556 S
C1631 C1627 1.400 1_556 S
C1631 C1630 1.385 . S
C1632 C1630 1.478 . S
C1632 C1634 1.381 . S
C1632 C1638 1.383 . S
C1633 C1629 1.495 . S
C1633 H1639 0.959 . S
C1633 H1640 0.961 . S
C1633 H1641 0.960 . S
C1634 C1632 1.381 . S
C1634 C1635 1.394 . S
C1634 H1642 0.930 . S
C1635 C1634 1.394 . S
C1635 C1636 1.383 . S
C1635 H1643 0.929 . S
C1636 C1635 1.383 . S
C1636 C1637 1.377 . S
C1637 H1621 0.930 . S
C1637 C1636 1.377 . S
C1637 C1638 1.379 . S
C1638 H1622 0.931 . S
C1638 C1632 1.383 . S
C1638 C1637 1.379 . S
H1639 C1633 0.959 . S
H1640 C1633 0.961 . S
H1641 C1633 0.960 . S
H1642 C1634 0.930 . S
H1643 C1635 0.929 . S
H1644 C1652 0.929 . S
H1645 C1654 0.930 . S
H1646 C1656 0.930 . S
H1647 C1659 0.929 . S
H1648 C1662 0.930 . S
H1649 C1664 0.960 . S
H1650 C1664 0.960 . S
H1651 C1664 0.960 . S
C1652 H1644 0.929 . S
C1652 C1653 1.377 . S
C1652 C1654 1.384 . S
C1653 C1652 1.377 . S
C1653 C1659 1.390 . S
C1654 H1645 0.930 . S
C1654 C1652 1.384 . S
C1654 C1655 1.372 . S
C1655 C1654 1.372 . S
C1655 C1656 1.400 . S
C1655 C1660 1.490 . S
C1656 H1646 0.930 . S
C1656 C1655 1.400 . S
C1656 C1659 1.386 . S
H1657 C1673 0.930 . S
H1658 C1674 0.931 . S
C1659 H1647 0.929 . S
C1659 C1653 1.390 . S
C1659 C1656 1.386 . S
C1660 C1655 1.490 . S
C1660 C1662 1.395 . S
C1660 C1663 1.403 1_554 S
H1661 C1667 0.930 . S
C1662 H1648 0.930 . S
C1662 C1660 1.395 . S
C1662 C1665 1.403 . S
C1663 C1660 1.403 1_556 S
C1663 C1664 1.524 . S
C1663 C1667 1.400 . S
C1664 H1649 0.960 . S
C1664 H1650 0.960 . S
C1664 H1651 0.960 . S
C1664 C1663 1.524 . S
C1665 C1662 1.403 . S
C1665 C1666 1.392 . S
C1665 C1669 1.495 . S
C1666 C1665 1.392 . S
C1666 C1667 1.385 1_554 S
C1666 C1668 1.478 1_554 S
C1667 H1661 0.930 . S
C1667 C1663 1.400 . S
C1667 C1666 1.385 1_556 S
C1668 C1666 1.478 1_556 S
C1668 C1670 1.381 . S
C1668 C1674 1.383 . S
C1669 C1665 1.495 . S
C1669 H1675 0.959 . S
C1669 H1676 0.961 . S
C1669 H1677 0.960 . S
C1670 C1668 1.381 . S
C1670 C1671 1.394 . S
C1670 H1678 0.930 . S
C1671 C1670 1.394 . S
C1671 C1672 1.383 . S
C1671 H1679 0.929 . S
C1672 C1671 1.383 . S
C1672 C1673 1.377 . S
C1673 H1657 0.930 . S
C1673 C1672 1.377 . S
C1673 C1674 1.379 . S
C1674 H1658 0.931 . S
C1674 C1668 1.383 . S
C1674 C1673 1.379 . S
H1675 C1669 0.959 . S
H1676 C1669 0.961 . S
H1677 C1669 0.960 . S
H1678 C1670 0.930 . S
H1679 C1671 0.929 . S
H1680 C1688 0.929 . S
H1681 C1690 0.930 . S
H1682 C1692 0.930 . S
H1683 C1695 0.929 . S
H1684 C1698 0.930 . S
H1685 C1700 0.960 . S
H1686 C1700 0.960 . S
H1687 C1700 0.960 . S
C1688 H1680 0.929 . S
C1688 C1689 1.377 . S
C1688 C1690 1.384 . S
C1689 C1688 1.377 . S
C1689 C1695 1.390 . S
C1690 H1681 0.930 . S
C1690 C1688 1.384 . S
C1690 C1691 1.372 . S
C1691 C1690 1.372 . S
C1691 C1692 1.400 . S
C1691 C1696 1.490 . S
C1692 H1682 0.930 . S
C1692 C1691 1.400 . S
C1692 C1695 1.386 . S
H1693 C1709 0.930 . S
H1694 C1710 0.931 . S
C1695 H1683 0.929 . S
C1695 C1689 1.390 . S
C1695 C1692 1.386 . S
C1696 C1691 1.490 . S
C1696 C1698 1.395 . S
C1696 C1699 1.403 . S
H1697 C1703 0.930 . S
C1698 H1684 0.930 . S
C1698 C1696 1.395 . S
C1698 C1701 1.403 . S
C1699 C1696 1.403 . S
C1699 C1700 1.524 . S
C1699 C1703 1.400 . S
C1700 H1685 0.960 . S
C1700 H1686 0.960 . S
C1700 H1687 0.960 . S
C1700 C1699 1.524 . S
C1701 C1698 1.403 . S
C1701 C1702 1.392 . S
C1701 C1705 1.495 . S
C1702 C1701 1.392 . S
C1702 C1703 1.385 . S
C1702 C1704 1.478 . S
C1703 H1697 0.930 . S
C1703 C1699 1.400 . S
C1703 C1702 1.385 . S
C1704 C1702 1.478 . S
C1704 C1706 1.381 . S
C1704 C1710 1.383 . S
C1705 C1701 1.495 . S
C1705 H1711 0.959 . S
C1705 H1712 0.961 . S
C1705 H1713 0.960 . S
C1706 C1704 1.381 . S
C1706 C1707 1.394 . S
C1706 H1714 0.930 . S
C1707 C1706 1.394 . S
C1707 C1708 1.383 . S
C1707 H1715 0.929 . S
C1708 C1707 1.383 . S
C1708 C1709 1.377 . S
C1709 H1693 0.930 . S
C1709 C1708 1.377 . S
C1709 C1710 1.379 . S
C1710 H1694 0.931 . S
C1710 C1704 1.383 . S
C1710 C1709 1.379 . S
H1711 C1705 0.959 . S
H1712 C1705 0.961 . S
H1713 C1705 0.960 . S
H1714 C1706 0.930 . S
H1715 C1707 0.929 . S
H1716 C1724 0.929 . S
H1717 C1726 0.930 . S
H1718 C1728 0.930 . S
H1719 C1731 0.929 . S
H1720 C1734 0.930 . S
H1721 C1736 0.960 . S
H1722 C1736 0.960 . S
H1723 C1736 0.960 . S
C1724 H1716 0.929 . S
C1724 C1725 1.377 . S
C1724 C1726 1.384 . S
C1725 C1724 1.377 . S
C1725 C1731 1.390 . S
C1726 H1717 0.930 . S
C1726 C1724 1.384 . S
C1726 C1727 1.372 . S
C1727 C1726 1.372 . S
C1727 C1728 1.400 . S
C1727 C1732 1.490 . S
C1728 H1718 0.930 . S
C1728 C1727 1.400 . S
C1728 C1731 1.386 . S
H1729 C1745 0.930 . S
H1730 C1746 0.931 . S
C1731 H1719 0.929 . S
C1731 C1725 1.390 . S
C1731 C1728 1.386 . S
C1732 C1727 1.490 . S
C1732 C1734 1.395 . S
C1732 C1735 1.403 . S
H1733 C1739 0.930 . S
C1734 H1720 0.930 . S
C1734 C1732 1.395 . S
C1734 C1737 1.403 . S
C1735 C1732 1.403 . S
C1735 C1736 1.524 . S
C1735 C1739 1.400 . S
C1736 H1721 0.960 . S
C1736 H1722 0.960 . S
C1736 H1723 0.960 . S
C1736 C1735 1.524 . S
C1737 C1734 1.403 . S
C1737 C1738 1.392 . S
C1737 C1741 1.495 . S
C1738 C1737 1.392 . S
C1738 C1739 1.385 . S
C1738 C1740 1.478 . S
C1739 H1733 0.930 . S
C1739 C1735 1.400 . S
C1739 C1738 1.385 . S
C1740 C1738 1.478 . S
C1740 C1742 1.381 . S
C1740 C1746 1.383 . S
C1741 C1737 1.495 . S
C1741 H1747 0.959 . S
C1741 H1748 0.961 . S
C1741 H1749 0.960 . S
C1742 C1740 1.381 . S
C1742 C1743 1.394 . S
C1742 H1750 0.930 . S
C1743 C1742 1.394 . S
C1743 C1744 1.383 . S
C1743 H1751 0.929 . S
C1744 C1743 1.383 . S
C1744 C1745 1.377 . S
C1745 H1729 0.930 . S
C1745 C1744 1.377 . S
C1745 C1746 1.379 . S
C1746 H1730 0.931 . S
C1746 C1740 1.383 . S
C1746 C1745 1.379 . S
H1747 C1741 0.959 . S
H1748 C1741 0.961 . S
H1749 C1741 0.960 . S
H1750 C1742 0.930 . S
H1751 C1743 0.929 . S
H1752 C1760 0.929 . S
H1753 C1762 0.930 . S
H1754 C1764 0.930 . S
H1755 C1767 0.929 . S
H1756 C1770 0.930 . S
H1757 C1772 0.960 . S
H1758 C1772 0.960 . S
H1759 C1772 0.960 . S
C1760 H1752 0.929 . S
C1760 C1761 1.377 . S
C1760 C1762 1.384 . S
C1761 C1760 1.377 . S
C1761 C1767 1.390 . S
C1762 H1753 0.930 . S
C1762 C1760 1.384 . S
C1762 C1763 1.372 . S
C1763 C1762 1.372 . S
C1763 C1764 1.400 . S
C1763 C1768 1.490 . S
C1764 H1754 0.930 . S
C1764 C1763 1.400 . S
C1764 C1767 1.386 . S
H1765 C1781 0.930 . S
H1766 C1782 0.931 . S
C1767 H1755 0.929 . S
C1767 C1761 1.390 . S
C1767 C1764 1.386 . S
C1768 C1763 1.490 . S
C1768 C1770 1.395 . S
C1768 C1771 1.403 . S
H1769 C1775 0.930 . S
C1770 H1756 0.930 . S
C1770 C1768 1.395 . S
C1770 C1773 1.403 . S
C1771 C1768 1.403 . S
C1771 C1772 1.524 . S
C1771 C1775 1.400 . S
C1772 H1757 0.960 . S
C1772 H1758 0.960 . S
C1772 H1759 0.960 . S
C1772 C1771 1.524 . S
C1773 C1770 1.403 . S
C1773 C1774 1.392 . S
C1773 C1777 1.495 . S
C1774 C1773 1.392 . S
C1774 C1775 1.385 . S
C1774 C1776 1.478 . S
C1775 H1769 0.930 . S
C1775 C1771 1.400 . S
C1775 C1774 1.385 . S
C1776 C1774 1.478 . S
C1776 C1778 1.381 . S
C1776 C1782 1.383 . S
C1777 C1773 1.495 . S
C1777 H1783 0.959 . S
C1777 H1784 0.961 . S
C1777 H1785 0.960 . S
C1778 C1776 1.381 . S
C1778 C1779 1.394 . S
C1778 H1786 0.930 . S
C1779 C1778 1.394 . S
C1779 C1780 1.383 . S
C1779 H1787 0.929 . S
C1780 C1779 1.383 . S
C1780 C1781 1.377 . S
C1781 H1765 0.930 . S
C1781 C1780 1.377 . S
C1781 C1782 1.379 . S
C1782 H1766 0.931 . S
C1782 C1776 1.383 . S
C1782 C1781 1.379 . S
H1783 C1777 0.959 . S
H1784 C1777 0.961 . S
H1785 C1777 0.960 . S
H1786 C1778 0.930 . S
H1787 C1779 0.929 . S
H1788 C1796 0.929 . S
H1789 C1798 0.930 . S
H1790 C1800 0.930 . S
H1791 C1803 0.929 . S
H1792 C1806 0.930 . S
H1793 C1808 0.960 . S
H1794 C1808 0.960 . S
H1795 C1808 0.960 . S
C1796 H1788 0.929 . S
C1796 C1797 1.377 . S
C1796 C1798 1.384 . S
C1797 C1796 1.377 . S
C1797 C1803 1.390 . S
C1798 H1789 0.930 . S
C1798 C1796 1.384 . S
C1798 C1799 1.372 . S
C1799 C1798 1.372 . S
C1799 C1800 1.400 . S
C1799 C1804 1.490 . S
C1800 H1790 0.930 . S
C1800 C1799 1.400 . S
C1800 C1803 1.386 . S
H1801 C1817 0.930 . S
H1802 C1818 0.931 . S
C1803 H1791 0.929 . S
C1803 C1797 1.390 . S
C1803 C1800 1.386 . S
C1804 C1799 1.490 . S
C1804 C1806 1.395 . S
C1804 C1807 1.403 . S
H1805 C1811 0.930 . S
C1806 H1792 0.930 . S
C1806 C1804 1.395 . S
C1806 C1809 1.403 . S
C1807 C1804 1.403 . S
C1807 C1808 1.524 . S
C1807 C1811 1.400 . S
C1808 H1793 0.960 . S
C1808 H1794 0.960 . S
C1808 H1795 0.960 . S
C1808 C1807 1.524 . S
C1809 C1806 1.403 . S
C1809 C1810 1.392 . S
C1809 C1813 1.495 . S
C1810 C1809 1.392 . S
C1810 C1811 1.385 . S
C1810 C1812 1.478 . S
C1811 H1805 0.930 . S
C1811 C1807 1.400 . S
C1811 C1810 1.385 . S
C1812 C1810 1.478 . S
C1812 C1814 1.381 . S
C1812 C1818 1.383 . S
C1813 C1809 1.495 . S
C1813 H1819 0.959 . S
C1813 H1820 0.961 . S
C1813 H1821 0.960 . S
C1814 C1812 1.381 . S
C1814 C1815 1.394 . S
C1814 H1822 0.930 . S
C1815 C1814 1.394 . S
C1815 C1816 1.383 . S
C1815 H1823 0.929 . S
C1816 C1815 1.383 . S
C1816 C1817 1.377 . S
C1817 H1801 0.930 . S
C1817 C1816 1.377 . S
C1817 C1818 1.379 . S
C1818 H1802 0.931 . S
C1818 C1812 1.383 . S
C1818 C1817 1.379 . S
H1819 C1813 0.959 . S
H1820 C1813 0.961 . S
H1821 C1813 0.960 . S
H1822 C1814 0.930 . S
H1823 C1815 0.929 . S
H1824 C1832 0.929 . S
H1825 C1834 0.930 . S
H1826 C1836 0.930 . S
H1827 C1839 0.929 . S
H1828 C1842 0.930 . S
H1829 C1844 0.960 . S
H1830 C1844 0.960 . S
H1831 C1844 0.960 . S
C1832 H1824 0.929 . S
C1832 C1833 1.377 . S
C1832 C1834 1.384 . S
C1833 C1832 1.377 . S
C1833 C1839 1.390 . S
C1834 H1825 0.930 . S
C1834 C1832 1.384 . S
C1834 C1835 1.372 . S
C1835 C1834 1.372 . S
C1835 C1836 1.400 . S
C1835 C1840 1.490 . S
C1836 H1826 0.930 . S
C1836 C1835 1.400 . S
C1836 C1839 1.386 . S
H1837 C1853 0.930 . S
H1838 C1854 0.931 . S
C1839 H1827 0.929 . S
C1839 C1833 1.390 . S
C1839 C1836 1.386 . S
C1840 C1835 1.490 . S
C1840 C1842 1.395 . S
C1840 C1843 1.403 . S
H1841 C1847 0.930 . S
C1842 H1828 0.930 . S
C1842 C1840 1.395 . S
C1842 C1845 1.403 . S
C1843 C1840 1.403 . S
C1843 C1844 1.524 . S
C1843 C1847 1.400 . S
C1844 H1829 0.960 . S
C1844 H1830 0.960 . S
C1844 H1831 0.960 . S
C1844 C1843 1.524 . S
C1845 C1842 1.403 . S
C1845 C1846 1.392 . S
C1845 C1849 1.495 . S
C1846 C1845 1.392 . S
C1846 C1847 1.385 . S
C1846 C1848 1.478 . S
C1847 H1841 0.930 . S
C1847 C1843 1.400 . S
C1847 C1846 1.385 . S
C1848 C1846 1.478 . S
C1848 C1850 1.381 . S
C1848 C1854 1.383 1_545 S
C1849 C1845 1.495 . S
C1849 H1855 0.959 . S
C1849 H1856 0.961 . S
C1849 H1857 0.960 . S
C1850 C1848 1.381 . S
C1850 C1851 1.394 1_545 S
C1850 H1858 0.930 . S
C1851 C1850 1.394 1_565 S
C1851 C1852 1.383 . S
C1851 H1859 0.929 . S
C1852 C1851 1.383 . S
C1852 C1853 1.377 . S
C1853 H1837 0.930 . S
C1853 C1852 1.377 . S
C1853 C1854 1.379 . S
C1854 H1838 0.931 . S
C1854 C1848 1.383 1_565 S
C1854 C1853 1.379 . S
H1855 C1849 0.959 . S
H1856 C1849 0.961 . S
H1857 C1849 0.960 . S
H1858 C1850 0.930 . S
H1859 C1851 0.929 . S
H1860 C1868 0.929 . S
H1861 C1870 0.930 . S
H1862 C1872 0.930 . S
H1863 C1875 0.929 . S
H1864 C1878 0.930 . S
H1865 C1880 0.960 . S
H1866 C1880 0.960 . S
H1867 C1880 0.960 . S
C1868 H1860 0.929 . S
C1868 C1869 1.377 . S
C1868 C1870 1.384 . S
C1869 C1868 1.377 . S
C1869 C1875 1.390 . S
C1870 H1861 0.930 . S
C1870 C1868 1.384 . S
C1870 C1871 1.372 . S
C1871 C1870 1.372 . S
C1871 C1872 1.400 . S
C1871 C1876 1.490 . S
C1872 H1862 0.930 . S
C1872 C1871 1.400 . S
C1872 C1875 1.386 . S
H1873 C1889 0.930 . S
H1874 C1890 0.931 . S
C1875 H1863 0.929 . S
C1875 C1869 1.390 . S
C1875 C1872 1.386 . S
C1876 C1871 1.490 . S
C1876 C1878 1.395 . S
C1876 C1879 1.403 . S
H1877 C1883 0.930 . S
C1878 H1864 0.930 . S
C1878 C1876 1.395 . S
C1878 C1881 1.403 . S
C1879 C1876 1.403 . S
C1879 C1880 1.524 . S
C1879 C1883 1.400 . S
C1880 H1865 0.960 . S
C1880 H1866 0.960 . S
C1880 H1867 0.960 . S
C1880 C1879 1.524 . S
C1881 C1878 1.403 . S
C1881 C1882 1.392 . S
C1881 C1885 1.495 . S
C1882 C1881 1.392 . S
C1882 C1883 1.385 . S
C1882 C1884 1.478 . S
C1883 H1877 0.930 . S
C1883 C1879 1.400 . S
C1883 C1882 1.385 . S
C1884 C1882 1.478 . S
C1884 C1886 1.381 1_455 S
C1884 C1890 1.383 . S
C1885 C1881 1.495 . S
C1885 H1891 0.959 . S
C1885 H1892 0.961 . S
C1885 H1893 0.960 . S
C1886 C1884 1.381 1_655 S
C1886 C1887 1.394 . S
C1886 H1894 0.930 . S
C1887 C1886 1.394 . S
C1887 C1888 1.383 . S
C1887 H1895 0.929 . S
C1888 C1887 1.383 . S
C1888 C1889 1.377 . S
C1889 H1873 0.930 . S
C1889 C1888 1.377 . S
C1889 C1890 1.379 1_655 S
C1890 H1874 0.931 . S
C1890 C1884 1.383 . S
C1890 C1889 1.379 1_455 S
H1891 C1885 0.959 . S
H1892 C1885 0.961 . S
H1893 C1885 0.960 . S
H1894 C1886 0.930 . S
H1895 C1887 0.929 . S
H1896 C1904 0.929 . S
H1897 C1906 0.930 . S
H1898 C1908 0.930 . S
H1899 C1911 0.929 . S
H1900 C1914 0.930 . S
H1901 C1916 0.960 . S
H1902 C1916 0.960 . S
H1903 C1916 0.960 . S
C1904 H1896 0.929 . S
C1904 C1905 1.377 . S
C1904 C1906 1.384 . S
C1905 C1904 1.377 . S
C1905 C1911 1.390 . S
C1906 H1897 0.930 . S
C1906 C1904 1.384 . S
C1906 C1907 1.372 . S
C1907 C1906 1.372 . S
C1907 C1908 1.400 . S
C1907 C1912 1.490 . S
C1908 H1898 0.930 . S
C1908 C1907 1.400 . S
C1908 C1911 1.386 . S
H1909 C1925 0.930 . S
H1910 C1926 0.931 . S
C1911 H1899 0.929 . S
C1911 C1905 1.390 . S
C1911 C1908 1.386 . S
C1912 C1907 1.490 . S
C1912 C1914 1.395 . S
C1912 C1915 1.403 . S
H1913 C1919 0.930 . S
C1914 H1900 0.930 . S
C1914 C1912 1.395 . S
C1914 C1917 1.403 . S
C1915 C1912 1.403 . S
C1915 C1916 1.524 . S
C1915 C1919 1.400 . S
C1916 H1901 0.960 . S
C1916 H1902 0.960 . S
C1916 H1903 0.960 . S
C1916 C1915 1.524 . S
C1917 C1914 1.403 . S
C1917 C1918 1.392 . S
C1917 C1921 1.495 . S
C1918 C1917 1.392 . S
C1918 C1919 1.385 . S
C1918 C1920 1.478 . S
C1919 H1913 0.930 . S
C1919 C1915 1.400 . S
C1919 C1918 1.385 . S
C1920 C1918 1.478 . S
C1920 C1922 1.381 . S
C1920 C1926 1.383 1_565 S
C1921 C1917 1.495 . S
C1921 H1927 0.959 . S
C1921 H1928 0.961 . S
C1921 H1929 0.960 . S
C1922 C1920 1.381 . S
C1922 C1923 1.394 1_565 S
C1922 H1930 0.930 . S
C1923 C1922 1.394 1_545 S
C1923 C1924 1.383 . S
C1923 H1931 0.929 . S
C1924 C1923 1.383 . S
C1924 C1925 1.377 . S
C1925 H1909 0.930 . S
C1925 C1924 1.377 . S
C1925 C1926 1.379 . S
C1926 H1910 0.931 . S
C1926 C1920 1.383 1_545 S
C1926 C1925 1.379 . S
H1927 C1921 0.959 . S
H1928 C1921 0.961 . S
H1929 C1921 0.960 . S
H1930 C1922 0.930 . S
H1931 C1923 0.929 . S
H1932 C1940 0.929 . S
H1933 C1942 0.952 . S
H1934 C1944 0.930 . S
H1935 C1947 0.929 . S
H1936 C1950 0.930 . S
H1937 C1952 0.960 . S
H1938 C1952 0.960 . S
H1939 C1952 0.960 . S
C1940 H1932 0.929 . S
C1940 C1941 1.377 . S
C1940 C1942 1.343 1_455 S
C1941 C1940 1.377 . S
C1941 C1947 1.390 . S
C1942 H1933 0.952 . S
C1942 C1940 1.343 1_655 S
C1942 C1943 1.393 . S
C1943 C1942 1.393 . S
C1943 C1944 1.399 . S
C1943 C1948 1.490 . S
C1944 H1934 0.930 . S
C1944 C1943 1.399 . S
C1944 C1947 1.386 1_655 S
H1945 C1961 0.930 . S
H1946 C1962 0.931 . S
C1947 H1935 0.929 . S
C1947 C1941 1.390 . S
C1947 C1944 1.386 1_455 S
C1948 C1943 1.490 . S
C1948 C1950 1.395 . S
C1948 C1951 1.403 . S
H1949 C1955 0.930 . S
C1950 H1936 0.930 . S
C1950 C1948 1.395 . S
C1950 C1953 1.403 . S
C1951 C1948 1.403 . S
C1951 C1952 1.524 . S
C1951 C1955 1.400 . S
C1952 H1937 0.960 . S
C1952 H1938 0.960 . S
C1952 H1939 0.960 . S
C1952 C1951 1.524 . S
C1953 C1950 1.403 . S
C1953 C1954 1.392 . S
C1953 C1957 1.495 . S
C1954 C1953 1.392 . S
C1954 C1955 1.385 . S
C1954 C1956 1.478 . S
C1955 H1949 0.930 . S
C1955 C1951 1.400 . S
C1955 C1954 1.385 . S
C1956 C1954 1.478 . S
C1956 C1958 1.381 . S
C1956 C1962 1.383 . S
C1957 C1953 1.495 . S
C1957 H1963 0.959 . S
C1957 H1964 0.961 . S
C1957 H1965 0.960 . S
C1958 C1956 1.381 . S
C1958 C1959 1.394 . S
C1958 H1966 0.930 . S
C1959 C1958 1.394 . S
C1959 C1960 1.383 . S
C1959 H1967 0.929 . S
C1960 C1959 1.383 . S
C1960 C1961 1.377 . S
C1961 H1945 0.930 . S
C1961 C1960 1.377 . S
C1961 C1962 1.379 . S
C1962 H1946 0.931 . S
C1962 C1956 1.383 . S
C1962 C1961 1.379 . S
H1963 C1957 0.959 . S
H1964 C1957 0.961 . S
H1965 C1957 0.960 . S
H1966 C1958 0.930 . S
H1967 C1959 0.929 . S
C537 C7 0.669 . S
C556 C469 0.667 . S
C573 C502 0.672 . S
C592 C40 0.671 . S
C609 C403 0.670 . S
C628 C73 0.662 . S
C645 C106 0.674 . S
C664 C436 0.664 . S
C681 C139 0.670 . S
C700 C337 0.673 . S
C717 C370 0.672 . S
C736 C172 0.669 . S
C753 C205 0.669 . S
C772 C271 0.668 . S
C789 C304 0.673 . S
C808 C238 0.668 . S
C825 N145 1.377 . S
C844 N13 1.369 . S
C861 N46 1.377 . S
C880 N178 1.356 . S
C897 N79 1.374 . S
C916 N211 1.386 . S
C933 N112 1.371 . S
C952 N244 1.364 . S
C969 N409 1.372 . S
C988 N277 1.364 . S
C1005 N442 1.378 . S
C1024 N310 1.371 . S
C1041 N343 1.377 . S
C1060 N475 1.372 . S
C1077 N376 1.378 . S
C1096 N508 1.366 . S
C1113 C21 1.507 . S
C1132 C483 1.504 . S
C1149 C516 1.508 . S
C1168 C54 1.507 . S
C1185 C87 1.508 . S
C1204 C417 1.511 . S
C1221 C450 1.508 . S
C1240 C120 1.510 . S
C1257 C351 1.510 . S
C1276 C153 1.519 . S
C1293 C384 1.509 . S
C1312 C186 1.488 . S
C1329 C219 1.504 . S
C1348 C285 1.492 . S
C1365 C252 1.506 . S
C1384 C318 1.493 . S
C1401 N2 1.493 . S
C1420 C381 1.563 . S
C1437 C282 1.575 . S
C1456 N35 1.515 . S
C1473 N68 1.500 . S
C1492 C315 1.559 . S
C1509 C348 1.576 . S
C1528 N101 1.522 . S
C1545 C183 1.575 . S
C1564 N134 1.504 . S
C1581 C216 1.575 . S
C1600 N167 1.507 . S
C1617 N200 1.495 . S
C1636 C249 1.581 . S
C1653 C150 1.573 . S
C1672 N233 1.486 . S
C1689 C117 1.571 . S
C1708 N266 1.506 . S
C1725 N299 1.491 . S
C1744 C18 1.564 . S
C1761 N332 1.491 . S
C1780 C51 1.568 . S
C1797 C84 1.574 . S
C1816 N365 1.497 . S
C1833 C447 1.572 . S
C1852 N398 1.490 . S
C1869 C480 1.574 . S
C1888 N431 1.495 . S
C1905 C513 1.572 . S
C1924 N464 1.497 . S
C1941 N497 1.502 . S
C1960 C414 1.581 . S
