# Generated by pormake.
# Topology wgw, (6)-cn, num edge types: 1
# Building blocks:
#     Node 0, Type 0, BuildingBlock: OJICUG_clean_sbu_0, # of connection points: 6
#     Node 1, Type 0, BuildingBlock: OJICUG_clean_sbu_0, # of connection points: 6
#     Node 2, Type 0, BuildingBlock: OJICUG_clean_sbu_0, # of connection points: 6
#     Node 3, Type 0, BuildingBlock: OJICUG_clean_sbu_0, # of connection points: 6
#     Node 4, Type 0, BuildingBlock: OJICUG_clean_sbu_0, # of connection points: 6
#     Node 5, Type 0, BuildingBlock: OJICUG_clean_sbu_0, # of connection points: 6
#     Node 6, Type 0, BuildingBlock: OJICUG_clean_sbu_0, # of connection points: 6
#     Node 7, Type 0, BuildingBlock: OJICUG_clean_sbu_0, # of connection points: 6
#     Edge 8, Type (0, 0), BuildingBlock: TEMPAE_clean_linker_10, # of connection points: 2
#     Edge 9, Type (0, 0), BuildingBlock: TEMPAE_clean_linker_10, # of connection points: 2
#     Edge 10, Type (0, 0), BuildingBlock: TEMPAE_clean_linker_10, # of connection points: 2
#     Edge 11, Type (0, 0), BuildingBlock: TEMPAE_clean_linker_10, # of connection points: 2
#     Edge 12, Type (0, 0), BuildingBlock: TEMPAE_clean_linker_10, # of connection points: 2
#     Edge 13, Type (0, 0), BuildingBlock: TEMPAE_clean_linker_10, # of connection points: 2
#     Edge 14, Type (0, 0), BuildingBlock: TEMPAE_clean_linker_10, # of connection points: 2
#     Edge 15, Type (0, 0), BuildingBlock: TEMPAE_clean_linker_10, # of connection points: 2
#     Edge 16, Type (0, 0), BuildingBlock: TEMPAE_clean_linker_10, # of connection points: 2
#     Edge 17, Type (0, 0), BuildingBlock: TEMPAE_clean_linker_10, # of connection points: 2
#     Edge 18, Type (0, 0), BuildingBlock: TEMPAE_clean_linker_10, # of connection points: 2
#     Edge 19, Type (0, 0), BuildingBlock: TEMPAE_clean_linker_10, # of connection points: 2
#     Edge 20, Type (0, 0), BuildingBlock: TEMPAE_clean_linker_10, # of connection points: 2
#     Edge 21, Type (0, 0), BuildingBlock: TEMPAE_clean_linker_10, # of connection points: 2
#     Edge 22, Type (0, 0), BuildingBlock: TEMPAE_clean_linker_10, # of connection points: 2
#     Edge 23, Type (0, 0), BuildingBlock: TEMPAE_clean_linker_10, # of connection points: 2
#     Edge 24, Type (0, 0), BuildingBlock: TEMPAE_clean_linker_10, # of connection points: 2
#     Edge 25, Type (0, 0), BuildingBlock: TEMPAE_clean_linker_10, # of connection points: 2
#     Edge 26, Type (0, 0), BuildingBlock: TEMPAE_clean_linker_10, # of connection points: 2
#     Edge 27, Type (0, 0), BuildingBlock: TEMPAE_clean_linker_10, # of connection points: 2
#     Edge 28, Type (0, 0), BuildingBlock: TEMPAE_clean_linker_10, # of connection points: 2
#     Edge 29, Type (0, 0), BuildingBlock: TEMPAE_clean_linker_10, # of connection points: 2
#     Edge 30, Type (0, 0), BuildingBlock: TEMPAE_clean_linker_10, # of connection points: 2
#     Edge 31, Type (0, 0), BuildingBlock: TEMPAE_clean_linker_10, # of connection points: 2
# Relax obj value: 0.221
# Max RMSD: 0.288
# Mean RMSD: 0.288
data_MOF--net-wgw--node1-OJICUG_clean_sbu_0--edge1-TEMPAE_clean_linker_10
_symmetry_space_group_name_H-M    P1
_symmetry_Int_Tables_number       1
_symmetry_cell_setting            triclinic
loop_
_symmetry_equiv_pos_as_xyz
'x, y, z'
_cell_length_a     29.492596
_cell_length_b     29.271789
_cell_length_c     43.966802
_cell_angle_alpha  89.96464
_cell_angle_beta   89.903198
_cell_angle_gamma 90.072433
loop_
_atom_site_label
_atom_site_type_symbol
_atom_site_fract_x
_atom_site_fract_y
_atom_site_fract_z
_atom_type_partial_charge
Sc0 Sc 0.10883 0.47648 0.15462 0.0
Sc1 Sc 0.03221 0.46582 0.21555 0.0
Sc2 Sc 0.02107 0.39484 0.15131 0.0
O3 O 0.05417 0.44556 0.17386 0.0
C4 C 0.0504 0.45691 0.09549 0.0
C5 C 0.05309 0.55979 0.18075 0.0
C6 C 0.9402 0.45384 0.17729 0.0
C7 C 0.13799 0.47694 0.2247 0.0
C8 C 0.12577 0.3696 0.14401 0.0
C9 C 0.01334 0.3601 0.22043 0.0
O10 O 0.08091 0.47825 0.10982 0.0
O11 O 0.03544 0.53602 0.20189 0.0
O12 O 0.9561 0.4279 0.15665 0.0
O13 O 0.14497 0.48105 0.1964 0.0
O14 O 0.08391 0.35863 0.14445 0.0
O15 O 0.02474 0.39737 0.23308 0.0
O16 O 0.14009 0.4105 0.14725 0.0
O17 O 0.09908 0.46839 0.23578 0.0
O18 O 0.00998 0.35582 0.1918 0.0
O19 O 0.08076 0.54392 0.16121 0.0
O20 O 0.02634 0.42587 0.1074 0.0
O21 O 0.96322 0.46718 0.20007 0.0
Sc22 Sc 0.10446 0.02699 0.64856 0.0
Sc23 Sc 0.04481 0.03766 0.71657 0.0
Sc24 Sc 0.0183 0.10871 0.655 0.0
O25 O 0.05601 0.0583 0.67334 0.0
C26 C 0.11964 0.13142 0.63349 0.0
C27 C 0.14915 0.03446 0.71512 0.0
C28 C 0.02553 0.14454 0.72242 0.0
C29 C 0.06399 0.94341 0.68264 0.0
C30 C 0.03017 0.04499 0.59775 0.0
C31 C 0.94679 0.04452 0.68869 0.0
O32 O 0.13537 0.09147 0.63792 0.0
O33 O 0.114 0.0486 0.72892 0.0
O34 O 0.02538 0.15175 0.69402 0.0
O35 O 0.07503 0.9608 0.65723 0.0
O36 O 0.00648 0.07207 0.61362 0.0
O37 O 0.97578 0.02466 0.70546 0.0
O38 O 0.06757 0.02855 0.60667 0.0
O39 O 0.05886 0.96692 0.70667 0.0
O40 O 0.95594 0.0787 0.67176 0.0
O41 O 0.1486 0.02139 0.68748 0.0
O42 O 0.07807 0.14203 0.63716 0.0
O43 O 0.02842 0.10483 0.73385 0.0
Sc44 Sc 0.45756 0.09359 0.1531 0.0
Sc45 Sc 0.45164 0.02154 0.21731 0.0
Sc46 Sc 0.37455 0.00702 0.1572 0.0
O47 O 0.42782 0.0409 0.17591 0.0
C48 C 0.35138 0.11235 0.14606 0.0
C49 C 0.46457 0.1288 0.22196 0.0
C50 C 0.347 0.00516 0.22775 0.0
C51 C 0.54206 0.03857 0.17815 0.0
C52 C 0.43146 0.02979 0.09765 0.0
C53 C 0.43403 0.92636 0.18304 0.0
O54 O 0.39263 0.1254 0.14571 0.0
O55 O 0.45783 0.09033 0.2346 0.0
O56 O 0.33997 -0.00032 0.19956 0.0
O57 O 0.52477 0.06546 0.15862 0.0
O58 O 0.40147 0.00755 0.11199 0.0
O59 O 0.4501 0.95093 0.2043 0.0
O60 O 0.4547 0.06139 0.10956 0.0
O61 O 0.52005 0.02211 0.20053 0.0
O62 O 0.40642 0.94124 0.16317 0.0
O63 O 0.46535 0.13383 0.19331 0.0
O64 O 0.33918 0.071 0.15038 0.0
O65 O 0.38526 0.01714 0.23839 0.0
Sc66 Sc 0.46877 0.3798 0.65845 0.0
Sc67 Sc 0.44684 0.45402 0.71963 0.0
Sc68 Sc 0.38763 0.46699 0.65138 0.0
O69 O 0.43425 0.43323 0.67647 0.0
C70 C 0.46091 0.44467 0.60075 0.0
C71 C 0.54386 0.44229 0.68968 0.0
C72 C 0.43022 0.54944 0.68625 0.0
C73 C 0.46238 0.34689 0.727 0.0
C74 C 0.3672 0.362 0.63735 0.0
C75 C 0.34169 0.4603 0.71782 0.0
O76 O 0.47863 0.41171 0.6151 0.0
O77 O 0.51653 0.46202 0.70783 0.0
O78 O 0.41646 0.5329 0.66129 0.0
O79 O 0.46378 0.33907 0.69872 0.0
O80 O 0.35527 0.40377 0.63858 0.0
O81 O 0.37699 0.4482 0.73229 0.0
O82 O 0.40688 0.348 0.64381 0.0
O83 O 0.45889 0.38676 0.73793 0.0
O84 O 0.34212 0.47087 0.68969 0.0
O85 O 0.53283 0.40935 0.6722 0.0
O86 O 0.42796 0.46778 0.61094 0.0
O87 O 0.43767 0.52527 0.70963 0.0
Sc88 Sc 0.52148 0.58992 0.33283 0.0
Sc89 Sc 0.53335 0.51917 0.26866 0.0
Sc90 Sc 0.60959 0.50927 0.32967 0.0
O91 O 0.55487 0.53969 0.3103 0.0
C92 C 0.62697 0.6149 0.34083 0.0
C93 C 0.51588 0.62603 0.26429 0.0
C94 C 0.63839 0.50793 0.2593 0.0
C95 C 0.44053 0.53118 0.30562 0.0
C96 C 0.54916 0.52769 0.3883 0.0
C97 C 0.55436 0.42568 0.30423 0.0
O98 O 0.58487 0.62472 0.3427 0.0
O99 O 0.52348 0.58776 0.25161 0.0
O100 O 0.64469 0.50146 0.28747 0.0
O101 O 0.45567 0.55956 0.32502 0.0
O102 O 0.58385 0.51125 0.37535 0.0
O103 O 0.53893 0.44877 0.282 0.0
O104 O 0.52189 0.55453 0.37521 0.0
O105 O 0.46453 0.51512 0.28413 0.0
O106 O 0.57975 0.44227 0.32485 0.0
O107 O 0.51505 0.63113 0.29296 0.0
O108 O 0.64168 0.57492 0.33496 0.0
O109 O 0.60021 0.51946 0.24845 0.0
Sc110 Sc 0.88463 0.52574 0.83389 0.0
Sc111 Sc 0.94516 0.53816 0.76637 0.0
Sc112 Sc 0.96841 0.61028 0.82793 0.0
O113 O 0.93254 0.5586 0.80944 0.0
C114 C 0.86603 0.62966 0.84872 0.0
C115 C 0.84101 0.53237 0.76697 0.0
C116 C 0.96234 0.64548 0.76036 0.0
C117 C 0.92719 0.44334 0.80002 0.0
C118 C 0.95753 0.54602 0.88517 0.0
C119 C 0.04222 0.54766 0.79535 0.0
O120 O 0.85176 0.58911 0.84447 0.0
O121 O 0.87602 0.54743 0.75336 0.0
O122 O 0.96111 0.65295 0.78872 0.0
O123 O 0.91572 0.46039 0.82541 0.0
O124 O 0.9804 0.5742 0.86954 0.0
O125 O 0.01409 0.52681 0.77843 0.0
O126 O 0.92091 0.52812 0.87598 0.0
O127 O 0.93218 0.46711 0.77607 0.0
O128 O 0.03195 0.58195 0.81187 0.0
O129 O 0.84146 0.51924 0.79461 0.0
O130 O 0.90723 0.64182 0.84508 0.0
O131 O 0.96082 0.60559 0.74913 0.0
Sc132 Sc 0.87472 0.97791 0.32918 0.0
Sc133 Sc 0.94827 0.96296 0.267 0.0
Sc134 Sc 0.95903 0.89288 0.33179 0.0
O135 O 0.92719 0.94441 0.30929 0.0
C136 C 0.93488 0.95745 0.38739 0.0
C137 C 0.93235 0.05857 0.30087 0.0
C138 C 0.04123 0.94857 0.30375 0.0
C139 C 0.84255 0.97727 0.25962 0.0
C140 C 0.85362 0.87214 0.34154 0.0
C141 C 0.96235 0.85626 0.26297 0.0
O142 O 0.90466 0.97969 0.3734 0.0
O143 O 0.94793 0.0336 0.27965 0.0
O144 O 0.02515 0.92337 0.3248 0.0
O145 O 0.83701 0.98248 0.28799 0.0
O146 O 0.89494 0.85939 0.34038 0.0
O147 O 0.95282 0.89394 0.25016 0.0
O148 O 0.84101 0.91352 0.33805 0.0
O149 O 0.88073 0.96731 0.24798 0.0
O150 O 0.96638 0.85235 0.29158 0.0
O151 O 0.90515 0.04405 0.3212 0.0
O152 O 0.95705 0.92517 0.37537 0.0
O153 O 0.01779 0.96237 0.2813 0.0
Sc154 Sc 0.51823 0.88337 0.82923 0.0
Sc155 Sc 0.54459 0.95643 0.76873 0.0
Sc156 Sc 0.60373 0.96572 0.83688 0.0
O157 O 0.55566 0.93467 0.81168 0.0
C158 C 0.52877 0.94592 0.88716 0.0
C159 C 0.44657 0.94828 0.79641 0.0
C160 C 0.56369 0.04986 0.80359 0.0
C161 C 0.52592 0.84973 0.76148 0.0
C162 C 0.61952 0.86111 0.85086 0.0
C163 C 0.64885 0.95937 0.77031 0.0
O164 O 0.50563 0.91883 0.87095 0.0
O165 O 0.47563 0.96916 0.78015 0.0
O166 O 0.57418 0.03187 0.82887 0.0
O167 O 0.52638 0.84157 0.78976 0.0
O168 O 0.63491 0.90135 0.847 0.0
O169 O 0.61373 0.94552 0.75639 0.0
O170 O 0.5781 0.8501 0.84686 0.0
O171 O 0.52784 0.88984 0.75061 0.0
O172 O 0.64816 0.97221 0.79801 0.0
O173 O 0.45575 0.9133 0.81259 0.0
O174 O 0.56619 0.96299 0.8786 0.0
O175 O 0.55901 0.02689 0.7793 0.0
C176 C 0.3794 0.47563 0.29359 0.0
C177 C 0.39243 0.51724 0.30674 0.0
C178 C 0.33369 0.46558 0.28838 0.0
C179 C 0.30033 0.49823 0.29622 0.0
C180 C 0.31288 0.53776 0.31278 0.0
C181 C 0.35903 0.54686 0.31791 0.0
C182 C 0.32176 0.42249 0.27129 0.0
C183 C 0.27814 0.57282 0.32215 0.0
C184 C 0.21408 0.51004 0.23372 0.0
C185 C 0.17724 0.48479 0.24494 0.0
C186 C 0.25327 0.51625 0.25092 0.0
C187 C 0.25603 0.49664 0.28028 0.0
C188 C 0.21827 0.47283 0.29248 0.0
C189 C 0.17906 0.46718 0.27459 0.0
C190 C 0.29248 0.54236 0.23701 0.0
C191 C 0.21984 0.45173 0.32376 0.0
H192 H 0.40513 0.45195 0.28574 0.0
H193 H 0.36894 0.57874 0.32855 0.0
H194 H 0.29111 0.4062 0.28115 0.0
H195 H 0.31413 0.43116 0.24726 0.0
H196 H 0.34997 0.39737 0.27154 0.0
H197 H 0.2912 0.59548 0.34041 0.0
H198 H 0.26943 0.59436 0.30222 0.0
H199 H 0.2465 0.55611 0.33014 0.0
H200 H 0.2126 0.52471 0.21109 0.0
H201 H 0.15055 0.44789 0.28344 0.0
H202 H 0.3219 0.51922 0.2339 0.0
H203 H 0.30327 0.57039 0.25235 0.0
H204 H 0.28382 0.55738 0.21455 0.0
H205 H 0.23849 0.41889 0.32261 0.0
H206 H 0.18527 0.44469 0.33269 0.0
H207 H 0.23799 0.47418 0.34003 0.0
C208 C 0.91823 0.36946 0.77363 0.0
C209 C 0.93699 0.39434 0.79765 0.0
C210 C 0.93329 0.32524 0.76707 0.0
C211 C 0.96895 0.3061 0.78444 0.0
C212 C 0.98642 0.33027 0.80976 0.0
C213 C 0.96983 0.3742 0.81627 0.0
C214 C 0.91299 0.30028 0.74027 0.0
C215 C 0.02489 0.31139 0.82851 0.0
C216 C 0.98857 0.18083 0.76737 0.0
C217 C 0.01826 0.18408 0.74254 0.0
C218 C 0.97425 0.22025 0.78284 0.0
C219 C 0.99087 0.26347 0.77354 0.0
C220 C 0.02405 0.26625 0.75028 0.0
C221 C 0.03685 0.22654 0.73475 0.0
C222 C 0.93866 0.21595 0.80737 0.0
C223 C 0.04367 0.31154 0.74028 0.0
H224 H 0.89281 0.38531 0.7593 0.0
H225 H 0.98469 0.39394 0.8346 0.0
H226 H 0.93828 0.29844 0.72159 0.0
H227 H 0.90402 0.26473 0.74669 0.0
H228 H 0.88213 0.31751 0.73148 0.0
H229 H 0.02862 0.32986 0.85044 0.0
H230 H 0.01985 0.27451 0.83325 0.0
H231 H 0.05703 0.31497 0.81557 0.0
H232 H 0.97409 0.14794 0.77331 0.0
H233 H 0.06026 0.22889 0.71575 0.0
H234 H 0.90561 0.22794 0.79838 0.0
H235 H 0.94725 0.2377 0.8272 0.0
H236 H 0.93459 0.18008 0.8152 0.0
H237 H 0.01745 0.33128 0.72787 0.0
H238 H 0.07346 0.3072 0.72505 0.0
H239 H 0.0541 0.33208 0.76029 0.0
C240 C 0.27579 0.96356 0.23862 0.0
C241 C 0.30862 0.99497 0.24832 0.0
C242 C 0.23598 0.95646 0.25513 0.0
C243 C 0.22857 0.98142 0.28223 0.0
C244 C 0.26298 0.01078 0.29345 0.0
C245 C 0.30287 0.01726 0.27627 0.0
C246 C 0.20053 0.92442 0.24235 0.0
C247 C 0.25671 0.0373 0.32254 0.0
C248 C 0.10331 0.00086 0.28778 0.0
C249 C 0.0895 0.96236 0.30442 0.0
C250 C 0.14926 0.01055 0.28325 0.0
C251 C 0.18231 0.98092 0.29564 0.0
C252 C 0.16872 0.94496 0.31524 0.0
C253 C 0.12224 0.93597 0.31939 0.0
C254 C 0.16212 0.04973 0.26256 0.0
C255 C 0.20305 0.91354 0.32961 0.0
H256 H 0.28063 0.94526 0.21742 0.0
H257 H 0.32842 0.04123 0.284 0.0
H258 H 0.18964 0.89946 0.25988 0.0
H259 H 0.17018 0.94423 0.23543 0.0
H260 H 0.21304 0.90523 0.22223 0.0
H261 H 0.28978 0.04818 0.33222 0.0
H262 H 0.23649 0.06842 0.31781 0.0
H263 H 0.23811 0.01686 0.33979 0.0
H264 H 0.07811 0.02232 0.27693 0.0
H265 H 0.11176 0.90666 0.33276 0.0
H266 H 0.17377 0.03601 0.24035 0.0
H267 H 0.19045 0.06973 0.27242 0.0
H268 H 0.13316 0.07313 0.25835 0.0
H269 H 0.21434 0.88797 0.3126 0.0
H270 H 0.1885 0.89494 0.34939 0.0
H271 H 0.23341 0.93287 0.33715 0.0
C272 C 0.49935 0.31182 0.77224 0.0
C273 C 0.46946 0.30794 0.74763 0.0
C274 C 0.51425 0.27276 0.78786 0.0
C275 C 0.49799 0.22927 0.77892 0.0
C276 C 0.46439 0.22589 0.75604 0.0
C277 C 0.45106 0.26525 0.74033 0.0
C278 C 0.55022 0.27773 0.81199 0.0
C279 C 0.44511 0.18028 0.74647 0.0
C280 C 0.57193 0.12433 0.77773 0.0
C281 C 0.55393 0.09893 0.80183 0.0
C282 C 0.55633 0.16848 0.77161 0.0
C283 C 0.5209 0.18704 0.78953 0.0
C284 C 0.50439 0.16247 0.81503 0.0
C285 C 0.52151 0.1186 0.82108 0.0
C286 C 0.57563 0.19392 0.74461 0.0
C287 C 0.46626 0.18075 0.83441 0.0
H288 H 0.51371 0.3449 0.77779 0.0
H289 H 0.42753 0.26242 0.72148 0.0
H290 H 0.54264 0.25557 0.83184 0.0
H291 H 0.58338 0.26673 0.80255 0.0
H292 H 0.55353 0.31362 0.81989 0.0
H293 H 0.41459 0.18417 0.73192 0.0
H294 H 0.4711 0.16107 0.73344 0.0
H295 H 0.43594 0.15948 0.76667 0.0
H296 H 0.59706 0.10887 0.76294 0.0
H297 H 0.50724 0.0985 0.83948 0.0
H298 H 0.5842 0.22957 0.75098 0.0
H299 H 0.54991 0.19544 0.72625 0.0
H300 H 0.60656 0.17722 0.73541 0.0
H301 H 0.4708 0.21774 0.83898 0.0
H302 H 0.46361 0.16231 0.85643 0.0
H303 H 0.43375 0.17653 0.82205 0.0
C304 C 0.71408 0.47416 0.24961 0.0
C305 C 0.67757 0.50019 0.23888 0.0
C306 C 0.75319 0.46815 0.23219 0.0
C307 C 0.75617 0.48872 0.20312 0.0
C308 C 0.7187 0.51331 0.19139 0.0
C309 C 0.67963 0.51879 0.20949 0.0
C310 C 0.79212 0.44125 0.2456 0.0
C311 C 0.72048 0.53543 0.16042 0.0
C312 C 0.87966 0.5095 0.18985 0.0
C313 C 0.89235 0.46828 0.17605 0.0
C314 C 0.83405 0.51963 0.1953 0.0
C315 C 0.80045 0.48742 0.18706 0.0
C316 C 0.81269 0.44841 0.16985 0.0
C317 C 0.85877 0.43925 0.16446 0.0
C318 C 0.82248 0.56219 0.21307 0.0
C319 C 0.77767 0.41388 0.16003 0.0
H320 H 0.71246 0.45878 0.27202 0.0
H321 H 0.65139 0.53871 0.201 0.0
H322 H 0.80264 0.4137 0.2298 0.0
H323 H 0.82177 0.46406 0.249 0.0
H324 H 0.7833 0.42551 0.26784 0.0
H325 H 0.68597 0.54298 0.15167 0.0
H326 H 0.73939 0.56812 0.16201 0.0
H327 H 0.73844 0.51342 0.14378 0.0
H328 H 0.90561 0.53267 0.19808 0.0
H329 H 0.86849 0.40766 0.15337 0.0
H330 H 0.81487 0.55274 0.237 0.0
H331 H 0.79192 0.57896 0.20358 0.0
H332 H 0.85088 0.58718 0.21309 0.0
H333 H 0.7688 0.39169 0.17964 0.0
H334 H 0.79055 0.3918 0.14137 0.0
H335 H 0.74616 0.43104 0.15238 0.0
C336 C 0.02117 0.87444 0.66619 0.0
C337 C 0.05413 0.89436 0.68486 0.0
C338 C 0.00408 0.83066 0.67273 0.0
C339 C 0.02118 0.80639 0.69812 0.0
C340 C 0.057 0.82524 0.71552 0.0
C341 C 0.07256 0.86932 0.70892 0.0
C342 C 0.96546 0.81211 0.65395 0.0
C343 C 0.0769 0.80014 0.74239 0.0
C344 C 0.95197 0.72761 0.74779 0.0
C345 C 0.97009 0.68494 0.74015 0.0
C346 C 0.96538 0.76716 0.73223 0.0
C347 C -0.00132 0.764 0.70907 0.0
C348 C 0.01479 0.7206 0.69988 0.0
C349 C -0.00011 0.68137 0.71539 0.0
C350 C 0.94631 0.81268 0.74212 0.0
C351 C 0.05042 0.71588 0.67543 0.0
H352 H 0.00652 0.89431 0.64785 0.0
H353 H 0.09804 0.88501 0.72331 0.0
H354 H 0.97005 0.77516 0.64931 0.0
H355 H 0.93331 0.81607 0.66683 0.0
H356 H 0.96204 0.83054 0.63198 0.0
H357 H 0.10795 0.81709 0.75119 0.0
H358 H 0.05154 0.79861 0.76103 0.0
H359 H 0.08545 0.76449 0.73605 0.0
H360 H 0.92847 0.73026 0.76671 0.0
H361 H 0.01403 0.64834 0.70954 0.0
H362 H 0.93653 0.83343 0.72207 0.0
H363 H 0.97264 0.83202 0.75474 0.0
H364 H 0.91622 0.80867 0.75714 0.0
H365 H 0.0422 0.73768 0.65555 0.0
H366 H 0.05407 0.67995 0.66766 0.0
H367 H 0.08359 0.72754 0.68446 0.0
C368 C 0.6233 0.05947 0.17012 0.0
C369 C 0.59027 0.02618 0.17585 0.0
C370 C 0.66929 0.0502 0.17569 0.0
C371 C 0.68197 0.0066 0.18685 0.0
C372 C 0.64923 0.97134 0.18865 0.0
C373 C 0.60361 0.98175 0.18351 0.0
C374 C 0.70322 0.08862 0.17318 0.0
C375 C 0.66118 0.92407 0.19977 0.0
C376 C 0.80339 0.97628 0.20855 0.0
C377 C 0.80256 0.98521 0.23992 0.0
C378 C 0.76477 0.98412 0.19046 0.0
C379 C 0.72481 0.00136 0.20417 0.0
C380 C 0.72425 0.01123 0.23566 0.0
C381 C 0.76289 0.00296 0.25303 0.0
C382 C 0.76635 0.97306 0.15697 0.0
C383 C 0.68239 0.02974 0.25133 0.0
H384 H 0.61293 0.09377 0.16393 0.0
H385 H 0.57802 0.95572 0.1873 0.0
H386 H 0.70864 0.10374 0.19604 0.0
H387 H 0.73642 0.07601 0.16484 0.0
H388 H 0.69103 0.11603 0.15774 0.0
H389 H 0.63621 0.89837 0.19175 0.0
H390 H 0.69545 0.91367 0.19206 0.0
H391 H 0.66093 0.92384 0.22502 0.0
H392 H 0.83393 0.96275 0.1982 0.0
H393 H 0.76179 0.01053 0.27715 0.0
H394 H 0.75455 0.00272 0.14342 0.0
H395 H 0.74304 0.94423 0.15206 0.0
H396 H 0.80098 0.96354 0.1493 0.0
H397 H 0.67079 0.06141 0.23989 0.0
H398 H 0.68839 0.03756 0.27572 0.0
H399 H 0.65446 0.0044 0.24988 0.0
C400 C 0.46922 0.62001 0.66828 0.0
C401 C 0.43952 0.59854 0.68865 0.0
C402 C 0.4852 0.66442 0.67409 0.0
C403 C 0.47021 0.68768 0.7005 0.0
C404 C 0.43754 0.6671 0.7198 0.0
C405 C 0.42313 0.62246 0.71387 0.0
C406 C 0.52047 0.68489 0.65324 0.0
C407 C 0.41984 0.69108 0.74783 0.0
C408 C 0.54026 0.7691 0.74717 0.0
C409 C 0.51895 0.81074 0.74093 0.0
C410 C 0.52767 0.72925 0.73174 0.0
C411 C 0.4919 0.731 0.71032 0.0
C412 C 0.47252 0.7736 0.70239 0.0
C413 C 0.48671 0.81326 0.71764 0.0
C414 C 0.55022 0.6847 0.74017 0.0
C415 C 0.43409 0.77679 0.67987 0.0
H416 H 0.48219 0.60105 0.64896 0.0
H417 H 0.40002 0.60562 0.7295 0.0
H418 H 0.51356 0.72158 0.64899 0.0
H419 H 0.55423 0.68251 0.66424 0.0
H420 H 0.52211 0.66672 0.63109 0.0
H421 H 0.39083 0.67261 0.75832 0.0
H422 H 0.4473 0.69377 0.76496 0.0
H423 H 0.40884 0.72629 0.74213 0.0
H424 H 0.56558 0.7674 0.76501 0.0
H425 H 0.47013 0.84555 0.71295 0.0
H426 H 0.55875 0.66481 0.71947 0.0
H427 H 0.52651 0.66377 0.75401 0.0
H428 H 0.58169 0.69015 0.75356 0.0
H429 H 0.44091 0.75534 0.6596 0.0
H430 H 0.42814 0.81254 0.67238 0.0
H431 H 0.40254 0.76381 0.69064 0.0
C432 C 0.79756 0.53158 0.718 0.0
C433 C 0.79856 0.52645 0.74975 0.0
C434 C 0.75817 0.52133 0.7015 0.0
C435 C 0.71942 0.50536 0.71721 0.0
C436 C 0.71983 0.50163 0.74929 0.0
C437 C 0.75929 0.51246 0.76514 0.0
C438 C 0.75845 0.52631 0.66733 0.0
C439 C 0.6789 0.48508 0.76695 0.0
C440 C 0.59818 0.50627 0.6931 0.0
C441 C 0.5905 0.45941 0.68918 0.0
C442 C 0.64178 0.5229 0.69857 0.0
C443 C 0.67805 0.49158 0.70076 0.0
C444 C 0.67114 0.44487 0.69366 0.0
C445 C 0.62712 0.42926 0.6877 0.0
C446 C 0.64798 0.57313 0.70525 0.0
C447 C 0.70917 0.41056 0.69573 0.0
H448 H 0.8278 0.54246 0.70595 0.0
H449 H 0.75954 0.50891 0.78968 0.0
H450 H 0.7581 0.49198 0.65667 0.0
H451 H 0.72764 0.54455 0.65949 0.0
H452 H 0.78887 0.54503 0.65907 0.0
H453 H 0.68506 0.4841 0.79187 0.0
H454 H 0.64952 0.50778 0.7626 0.0
H455 H 0.66936 0.45023 0.75936 0.0
H456 H 0.5697 0.52971 0.69339 0.0
H457 H 0.62098 0.39309 0.6843 0.0
H458 H 0.6802 0.58604 0.69542 0.0
H459 H 0.64947 0.57829 0.73023 0.0
H460 H 0.61946 0.59383 0.6962 0.0
H461 H 0.74062 0.42426 0.6853 0.0
H462 H 0.70029 0.37782 0.68443 0.0
H463 H 0.71648 0.40341 0.72003 0.0
C464 C -0.00717 0.618 0.18135 0.0
C465 C 0.03906 0.60775 0.17913 0.0
C466 C 0.9783 0.66248 0.18753 0.0
C467 C 0.01104 0.6971 0.1923 0.0
C468 C 0.05756 0.68778 0.18693 0.0
C469 C 0.0711 0.64292 0.18018 0.0
C470 C 0.92833 0.67097 0.19243 0.0
C471 C 0.09348 0.72378 0.19178 0.0
C472 C 0.97211 0.81742 0.21224 0.0
C473 C 0.97221 0.81544 0.24416 0.0
C474 C 0.98465 0.7792 0.19476 0.0
C475 C -0.00217 0.73846 0.20964 0.0
C476 C -0.0025 0.73621 0.24178 0.0
C477 C 0.9845 0.7745 0.25856 0.0
C478 C 0.98411 0.78244 0.16051 0.0
C479 C 0.01117 0.69331 0.25864 0.0
H480 H 0.96811 0.59059 0.18009 0.0
H481 H 0.10686 0.63473 0.17839 0.0
H482 H 0.92088 0.67049 0.21718 0.0
H483 H 0.91826 0.70491 0.1835 0.0
H484 H 0.90721 0.6443 0.18136 0.0
H485 H 0.12616 0.71413 0.18095 0.0
H486 H 0.08245 0.75724 0.18259 0.0
H487 H 0.09931 0.72809 0.21655 0.0
H488 H 0.96275 0.84891 0.2009 0.0
H489 H 0.98468 0.77238 0.28317 0.0
H490 H 0.9625 0.755 0.15086 0.0
H491 H 0.01885 0.77733 0.15144 0.0
H492 H 0.97131 0.81599 0.15242 0.0
H493 H 0.98812 0.6648 0.25251 0.0
H494 H 0.01019 0.69773 0.28372 0.0
H495 H 0.04602 0.68311 0.25199 0.0
C496 C 0.89283 0.98054 0.69541 0.0
C497 C 0.90022 0.02712 0.6899 0.0
C498 C 0.84948 0.9642 0.70221 0.0
C499 C 0.81316 0.99552 0.70405 0.0
C500 C 0.8197 0.04179 0.69562 0.0
C501 C 0.86341 0.05708 0.68837 0.0
C502 C 0.84364 0.91439 0.71031 0.0
C503 C 0.78162 0.07611 0.69732 0.0
C504 C 0.69331 0.95708 0.72173 0.0
C505 C 0.69174 0.96407 0.75331 0.0
C506 C 0.73308 0.96595 0.70522 0.0
C507 C 0.7717 0.9824 0.72074 0.0
C508 C 0.77079 0.98789 0.7527 0.0
C509 C 0.73089 0.97845 0.76858 0.0
C510 C 0.73337 0.95906 0.6712 0.0
C511 C 0.81158 0.00504 0.77012 0.0
H512 H 0.92134 0.95716 0.69577 0.0
H513 H 0.86924 0.09302 0.6838 0.0
H514 H 0.84328 0.91066 0.73543 0.0
H515 H 0.81103 0.90088 0.70155 0.0
H516 H 0.87179 0.89322 0.70117 0.0
H517 H 0.79032 0.10848 0.68545 0.0
H518 H 0.75014 0.06197 0.68726 0.0
H519 H 0.77439 0.08406 0.72153 0.0
H520 H 0.66322 0.94577 0.70976 0.0
H521 H 0.73018 0.98348 0.79301 0.0
H522 H 0.76378 0.93944 0.66412 0.0
H523 H 0.73504 0.99272 0.65965 0.0
H524 H 0.70259 0.94081 0.66316 0.0
H525 H 0.84099 0.98219 0.76619 0.0
H526 H 0.80521 0.00696 0.795 0.0
H527 H 0.82119 0.03958 0.76192 0.0
C528 C 0.41752 0.84311 0.17677 0.0
C529 C 0.4486 0.87833 0.18223 0.0
C530 C 0.42921 0.79751 0.18295 0.0
C531 C 0.47296 0.78746 0.19444 0.0
C532 C 0.50588 0.82249 0.19647 0.0
C533 C 0.49313 0.86761 0.1906 0.0
C534 C 0.39329 0.761 0.1803 0.0
C535 C 0.55312 0.8132 0.20812 0.0
C536 C 0.4836 0.704 0.25931 0.0
C537 C 0.50439 0.66629 0.24544 0.0
C538 C 0.4717 0.74265 0.24255 0.0
C539 C 0.48112 0.74409 0.21101 0.0
C540 C 0.50124 0.70592 0.19655 0.0
C541 C 0.51256 0.66723 0.21398 0.0
C542 C 0.44998 0.78248 0.25893 0.0
C543 C 0.51197 0.70645 0.16299 0.0
H544 H 0.38315 0.85146 0.17006 0.0
H545 H 0.51744 0.8949 0.1942 0.0
H546 H 0.40789 0.72871 0.17147 0.0
H547 H 0.37903 0.75381 0.20319 0.0
H548 H 0.36513 0.77186 0.1652 0.0
H549 H 0.57653 0.84206 0.20334 0.0
H550 H 0.55185 0.80792 0.23311 0.0
H551 H 0.56718 0.78173 0.19775 0.0
H552 H 0.47638 0.70343 0.28349 0.0
H553 H 0.5284 0.63812 0.20307 0.0
H554 H 0.41785 0.79222 0.24758 0.0
H555 H 0.47289 0.81256 0.25808 0.0
H556 H 0.44251 0.77471 0.28316 0.0
H557 H 0.48274 0.7196 0.14978 0.0
H558 H 0.52101 0.67196 0.15438 0.0
H559 H 0.54099 0.72975 0.15872 0.0
C560 C 0.25939 0.47825 0.71873 0.0
C561 C 0.29862 0.46563 0.73458 0.0
C562 C 0.21936 0.48862 0.73418 0.0
C563 C 0.21835 0.48581 0.76629 0.0
C564 C 0.25705 0.4711 0.78247 0.0
C565 C 0.29698 0.46131 0.76638 0.0
C566 C 0.17852 0.50388 0.71607 0.0
C567 C 0.25667 0.46704 0.81669 0.0
C568 C 0.12543 0.56159 0.79566 0.0
C569 C 0.08902 0.53099 0.79504 0.0
C570 C 0.16941 0.54641 0.78913 0.0
C571 C 0.17659 0.49963 0.78237 0.0
C572 C 0.14062 0.46797 0.78518 0.0
C573 C 0.09702 0.48417 0.7912 0.0
C574 C 0.20708 0.58112 0.78632 0.0
C575 C 0.14715 0.41769 0.77887 0.0
H576 H 0.26012 0.48123 0.69416 0.0
H577 H 0.32712 0.45141 0.7788 0.0
H578 H 0.14932 0.48097 0.72069 0.0
H579 H 0.16849 0.53887 0.72303 0.0
H580 H 0.18505 0.50398 0.69117 0.0
H581 H 0.28752 0.44975 0.82544 0.0
H582 H 0.25477 0.50159 0.82695 0.0
H583 H 0.22635 0.44778 0.82445 0.0
H584 H 0.11909 0.59774 0.79891 0.0
H585 H 0.06877 0.46039 0.79153 0.0
H586 H 0.21437 0.58729 0.76188 0.0
H587 H 0.23865 0.56826 0.79695 0.0
H588 H 0.1979 0.61423 0.79701 0.0
H589 H 0.14866 0.41209 0.75393 0.0
H590 H 0.1188 0.39685 0.78817 0.0
H591 H 0.17949 0.40528 0.7887 0.0
C592 C 0.97713 0.28393 0.226 0.0
C593 C 0.00123 0.32005 0.23933 0.0
C594 C 0.96567 0.24497 0.24264 0.0
C595 C 0.9788 0.24169 0.2735 0.0
C596 C 0.00183 0.27852 0.28754 0.0
C597 C 0.01278 0.31749 0.27024 0.0
C598 C 0.94075 0.20662 0.22675 0.0
C599 C 0.01628 0.27616 0.3204 0.0
C600 C 0.91753 0.14187 0.30896 0.0
C601 C 0.94735 0.10655 0.30124 0.0
C602 C 0.92925 0.18759 0.30307 0.0
C603 C 0.97172 0.19761 0.28946 0.0
C604 C 0.00374 0.16231 0.28499 0.0
C605 C 0.99101 0.11714 0.29076 0.0
C606 C 0.89451 0.22446 0.30857 0.0
C607 C 0.04967 0.17147 0.27098 0.0
H608 H 0.96724 0.28587 0.2023 0.0
H609 H 0.03115 0.34541 0.28074 0.0
H610 H 0.96268 0.17588 0.2257 0.0
H611 H 0.90976 0.19725 0.23967 0.0
H612 H 0.9307 0.21581 0.20319 0.0
H613 H 0.02624 0.31021 0.32934 0.0
H614 H 0.98866 0.2621 0.33481 0.0
H615 H 0.04575 0.25288 0.32253 0.0
H616 H 0.88393 0.13367 0.31741 0.0
H617 H 0.01455 0.08978 0.28556 0.0
H618 H 0.87766 0.23307 0.28676 0.0
H619 H 0.91079 0.25604 0.31726 0.0
H620 H 0.86806 0.21323 0.32498 0.0
H621 H 0.0456 0.17779 0.24624 0.0
H622 H 0.07312 0.14213 0.27398 0.0
H623 H 0.06541 0.20233 0.28108 0.0
C624 C 0.39237 0.01208 0.79031 0.0
C625 C 0.39988 0.96542 0.79541 0.0
C626 C 0.34903 0.02833 0.78359 0.0
C627 C 0.31279 -0.00311 0.78146 0.0
C628 C 0.3194 0.9505 0.78953 0.0
C629 C 0.36313 0.93527 0.79665 0.0
C630 C 0.34318 0.07824 0.77582 0.0
C631 C 0.28138 0.91605 0.78758 0.0
C632 C 0.19316 0.03583 0.76385 0.0
C633 C 0.19187 0.02948 0.7322 0.0
C634 C 0.23271 0.02644 0.78038 0.0
C635 C 0.27141 0.01015 0.76481 0.0
C636 C 0.27077 0.00528 0.73281 0.0
C637 C 0.2311 0.01521 0.71691 0.0
C638 C 0.2327 0.03268 0.81446 0.0
C639 C 0.31164 0.98833 0.71533 0.0
H640 H 0.42081 0.03563 0.79017 0.0
H641 H 0.369 0.89927 0.80091 0.0
H642 H 0.34309 0.08236 0.75073 0.0
H643 H 0.31045 0.09147 0.78458 0.0
H644 H 0.37118 0.0994 0.78518 0.0
H645 H 0.29002 0.88359 0.79932 0.0
H646 H 0.24978 0.92996 0.79763 0.0
H647 H 0.27443 0.90832 0.76332 0.0
H648 H 0.163 0.04699 0.77583 0.0
H649 H 0.23062 0.01065 0.69245 0.0
H650 H 0.26294 0.05242 0.82171 0.0
H651 H 0.23452 -0.00119 0.82572 0.0
H652 H 0.20176 0.0505 0.82262 0.0
H653 H 0.3411 0.01107 0.71946 0.0
H654 H 0.30547 0.98679 0.69043 0.0
H655 H 0.32105 0.95364 0.72332 0.0
C656 C 0.49404 0.36744 0.3024 0.0
C657 C 0.54009 0.37774 0.3059 0.0
C658 C 0.47982 0.3228 0.29629 0.0
C659 C 0.51272 0.28804 0.29287 0.0
C660 C 0.55886 0.2975 0.2995 0.0
C661 C 0.57206 0.34254 0.30615 0.0
C662 C 0.43022 0.31423 0.28999 0.0
C663 C 0.59496 0.26139 0.2961 0.0
C664 C 0.47353 0.16772 0.27278 0.0
C665 C 0.47516 0.16936 0.24086 0.0
C666 C 0.48592 0.20595 0.29032 0.0
C667 C 0.50058 0.24633 0.27552 0.0
C668 C 0.5023 0.24805 0.24338 0.0
C669 C 0.48937 0.20979 0.22654 0.0
C670 C 0.48316 0.2033 0.32454 0.0
C671 C 0.5178 0.29044 0.22659 0.0
H672 H 0.46936 0.39489 0.30262 0.0
H673 H 0.60768 0.35077 0.3089 0.0
H674 H 0.42453 0.31424 0.26505 0.0
H675 H 0.4194 0.28048 0.29891 0.0
H676 H 0.40844 0.34113 0.3002 0.0
H677 H 0.62674 0.27116 0.30798 0.0
H678 H 0.58306 0.22805 0.30509 0.0
H679 H 0.60279 0.25675 0.2716 0.0
H680 H 0.46268 0.13663 0.28405 0.0
H681 H 0.49107 0.21156 0.20194 0.0
H682 H 0.45902 0.22931 0.33315 0.0
H683 H 0.51672 0.21111 0.33466 0.0
H684 H 0.47199 0.1691 0.33259 0.0
H685 H 0.49464 0.31928 0.23169 0.0
H686 H 0.51871 0.28548 0.20155 0.0
H687 H 0.55222 0.30048 0.23426 0.0
C688 C 0.19933 0.33412 0.15859 0.0
C689 C 0.15937 0.3325 0.14145 0.0
C690 C 0.2298 0.29735 0.15853 0.0
C691 C 0.22073 0.25873 0.1401 0.0
C692 C 0.18107 0.25758 0.122 0.0
C693 C 0.15043 0.29419 0.12331 0.0
C694 C 0.27107 0.29934 0.17878 0.0
C695 C 0.17096 0.21765 0.10137 0.0
C696 C 0.32268 0.18419 0.12258 0.0
C697 C 0.3161 0.14763 0.14269 0.0
C698 C 0.29093 0.21973 0.12064 0.0
C699 C 0.2526 0.2194 0.14007 0.0
C700 C 0.24565 0.1823 0.16028 0.0
C701 C 0.27719 0.14642 0.16098 0.0
C702 C 0.29877 0.25793 0.09814 0.0
C703 C 0.20589 0.18133 0.18196 0.0
H704 H 0.20594 0.36349 0.17295 0.0
H705 H 0.11955 0.29304 0.10997 0.0
H706 H 0.27082 0.26995 0.19474 0.0
H707 H 0.30237 0.29666 0.1649 0.0
H708 H 0.27266 0.33144 0.19223 0.0
H709 H 0.13998 0.22319 0.08752 0.0
H710 H 0.20002 0.21159 0.08582 0.0
H711 H 0.16628 0.18617 0.11508 0.0
H712 H 0.35271 0.18494 0.10833 0.0
H713 H 0.27242 0.11836 0.17679 0.0
H714 H 0.30502 0.29038 0.11046 0.0
H715 H 0.26814 0.26296 0.08391 0.0
H716 H 0.32817 0.25116 0.08298 0.0
H717 H 0.20756 0.2113 0.19737 0.0
H718 H 0.20512 0.14976 0.196 0.0
H719 H 0.1736 0.18379 0.16919 0.0
C720 C 0.18905 0.16062 0.60766 0.0
C721 C 0.15208 0.16823 0.627 0.0
C722 C 0.22326 0.19359 0.60451 0.0
C723 C 0.2211 0.234 0.62212 0.0
C724 C 0.18296 0.24242 0.64089 0.0
C725 C 0.14845 0.20966 0.64269 0.0
C726 C 0.26263 0.18426 0.58344 0.0
C727 C 0.18005 0.28445 0.66074 0.0
C728 C 0.33147 0.28704 0.64778 0.0
C729 C 0.33218 0.32762 0.63094 0.0
C730 C 0.29572 0.25594 0.64477 0.0
C731 C 0.26073 0.26504 0.6236 0.0
C732 C 0.26249 0.30492 0.60541 0.0
C733 C 0.29787 0.33632 0.60974 0.0
C734 C 0.29438 0.21444 0.66523 0.0
C735 C 0.2266 0.3148 0.58188 0.0
H736 H 0.19155 0.12856 0.59542 0.0
H737 H 0.11999 0.21519 0.6579 0.0
H738 H 0.27043 0.21493 0.56952 0.0
H739 H 0.29329 0.17624 0.597 0.0
H740 H 0.25575 0.15505 0.56799 0.0
H741 H 0.14703 0.28695 0.67283 0.0
H742 H 0.20756 0.28361 0.67792 0.0
H743 H 0.18493 0.31577 0.64692 0.0
H744 H 0.35782 0.28065 0.66444 0.0
H745 H 0.29871 0.3677 0.59663 0.0
H746 H 0.29292 0.18282 0.6514 0.0
H747 H 0.26332 0.21532 0.67951 0.0
H748 H 0.32436 0.21245 0.68044 0.0
H749 H 0.22131 0.28449 0.56715 0.0
H750 H 0.23567 0.34448 0.56732 0.0
H751 H 0.19386 0.32216 0.5933 0.0
C752 C 0.77804 0.83952 0.32847 0.0
C753 C 0.81843 0.8366 0.34509 0.0
C754 C 0.74621 0.80383 0.32906 0.0
C755 C 0.75437 0.76501 0.34751 0.0
C756 C 0.79424 0.76286 0.36537 0.0
C757 C 0.82622 0.79834 0.36352 0.0
C758 C 0.70483 0.80683 0.30897 0.0
C759 C 0.8035 0.72271 0.38602 0.0
C760 C 0.65276 0.68859 0.36393 0.0
C761 C 0.66035 0.6523 0.34379 0.0
C762 C 0.68379 0.72493 0.36607 0.0
C763 C 0.72237 0.72565 0.34683 0.0
C764 C 0.72998 0.68912 0.32635 0.0
C765 C 0.69925 0.65253 0.32545 0.0
C766 C 0.67528 0.76254 0.38884 0.0
C767 C 0.76996 0.68919 0.30482 0.0
H768 H 0.77225 0.86886 0.31392 0.0
H769 H 0.85738 0.79621 0.3765 0.0
H770 H 0.70517 0.77842 0.29227 0.0
H771 H 0.67355 0.80312 0.32279 0.0
H772 H 0.70314 0.83968 0.29635 0.0
H773 H 0.83384 0.72825 0.40049 0.0
H774 H 0.7738 0.71621 0.40095 0.0
H775 H 0.80897 0.6915 0.3722 0.0
H776 H 0.62278 0.6883 0.37824 0.0
H777 H 0.70488 0.62474 0.30959 0.0
H778 H 0.66984 0.79539 0.37682 0.0
H779 H 0.70538 0.76695 0.40367 0.0
H780 H 0.64523 0.7555 0.40339 0.0
H781 H 0.7689 0.72015 0.29026 0.0
H782 H 0.77054 0.65856 0.28992 0.0
H783 H 0.80211 0.69043 0.31784 0.0
C784 C 0.65048 0.78421 0.8402 0.0
C785 C 0.65231 0.82464 0.85711 0.0
C786 C 0.68543 0.75201 0.84208 0.0
C787 C 0.72208 0.75988 0.86219 0.0
C788 C 0.72248 0.79933 0.88079 0.0
C789 C 0.68795 0.83185 0.87754 0.0
C790 C 0.68444 0.71104 0.8212 0.0
C791 C 0.76013 0.80795 0.9033 0.0
C792 C 0.79621 0.65616 0.87526 0.0
C793 C 0.83227 0.66511 0.85536 0.0
C794 C 0.76124 0.68805 0.87915 0.0
C795 C 0.76165 0.72873 0.86173 0.0
C796 C 0.79859 0.73825 0.84208 0.0
C797 C 0.83393 0.70657 0.83955 0.0
C798 C 0.72325 0.67762 0.90115 0.0
C799 C 0.79962 0.78063 0.82245 0.0
H800 H 0.62308 0.77908 0.82412 0.0
H801 H 0.68907 0.86319 0.89066 0.0
H802 H 0.71382 0.71247 0.80541 0.0
H803 H 0.6875 0.67903 0.83452 0.0
H804 H 0.65284 0.70936 0.80751 0.0
H805 H 0.75214 0.83671 0.91888 0.0
H806 H 0.76661 0.77684 0.91705 0.0
H807 H 0.7919 0.81623 0.89094 0.0
H808 H 0.79522 0.62404 0.88755 0.0
H809 H 0.86165 0.71309 0.82389 0.0
H810 H 0.69164 0.67044 0.88839 0.0
H811 H 0.71661 0.70758 0.91596 0.0
H812 H 0.73098 0.64762 0.91573 0.0
H813 H 0.77022 0.78039 0.80671 0.0
H814 H 0.83122 0.78322 0.80875 0.0
H815 H 0.79665 0.81165 0.83676 0.0
C816 C 0.02018 0.52738 0.92076 0.0
C817 C 0.97381 0.53371 0.91552 0.0
C818 C 0.03578 0.51414 0.94952 0.0
C819 C 0.00424 0.50868 0.97354 0.0
C820 C 0.95746 0.51604 0.96843 0.0
C821 C 0.94271 0.52779 0.93926 0.0
C822 C 0.08574 0.50525 0.95408 0.0
C823 C 0.92304 0.51169 -0.00624 0.0
C824 C 0.02909 0.43633 0.04264 0.0
C825 C 0.04159 0.46969 0.06382 0.0
C826 C 0.01888 0.44838 0.01263 0.0
C827 C 0.01984 0.49499 0.0041 0.0
C828 C 0.03296 0.52875 0.02536 0.0
C829 C 0.04438 0.51555 0.05496 0.0
C830 C 0.0062 0.41141 0.99024 0.0
C831 C 0.03314 0.5789 0.01721 0.0
H832 H 0.04404 0.53164 0.90218 0.0
H833 H 0.90687 0.53314 0.9351 0.0
H834 H 0.09938 0.52827 0.97188 0.0
H835 H 0.09087 0.46968 0.9621 0.0
H836 H 0.10564 0.51038 0.93287 0.0
H837 H 0.88824 0.52065 0.98622 0.0
H838 H 0.92265 0.47617 0.00255 0.0
H839 H 0.93251 0.53435 0.01297 0.0
H840 H 0.02747 0.40079 0.04956 0.0
H841 H 0.05379 0.54129 0.07152 0.0
H842 H 0.0267 0.4148 0.96917 0.0
H843 H 0.97007 0.41505 0.98371 0.0
H844 H 0.01128 0.37661 -0.00026 0.0
H845 H 0.0547 0.58498 -0.00308 0.0
H846 H 0.04569 0.60062 0.03613 0.0
H847 H -0.00176 0.58989 0.01132 0.0
C848 C 0.96772 0.02628 0.56193 0.0
C849 C 0.01407 0.03255 0.56734 0.0
C850 C 0.95226 0.01341 0.53307 0.0
C851 C 0.98393 0.00818 0.50912 0.0
C852 C 0.0307 0.01535 0.51441 0.0
C853 C 0.0453 0.02681 0.54366 0.0
C854 C 0.90228 0.00479 0.52831 0.0
C855 C 0.06526 0.01118 0.48916 0.0
C856 C 0.95783 0.93657 0.43989 0.0
C857 C 0.94522 0.97015 0.41888 0.0
C858 C 0.96881 0.94835 0.46982 0.0
C859 C 0.96842 0.9949 0.47846 0.0
C860 C 0.95544 0.02892 0.45734 0.0
C861 C 0.94333 0.016 0.42781 0.0
C862 C 0.9814 0.91112 0.49205 0.0
C863 C 0.95583 0.079 0.46562 0.0
H864 H 0.94372 0.03043 0.58044 0.0
H865 H 0.08113 0.03214 0.54792 0.0
H866 H 0.8889 0.0282 0.51064 0.0
H867 H 0.89697 0.9694 0.52 0.0
H868 H 0.88227 0.0096 0.5495 0.0
H869 H 0.1001 0.01977 0.49687 0.0
H870 H 0.06538 0.97582 0.48012 0.0
H871 H 0.05614 0.03423 0.47008 0.0
H872 H 0.95877 0.90104 0.43294 0.0
H873 H 0.93383 0.04193 0.41139 0.0
H874 H 0.96067 0.91413 0.51304 0.0
H875 H 0.01744 0.91486 0.49878 0.0
H876 H 0.97649 0.87643 0.48236 0.0
H877 H 0.93403 0.08512 0.48577 0.0
H878 H 0.94386 0.10102 0.44668 0.0
H879 H 0.99077 0.08958 0.4718 0.0
C880 C 0.46524 0.96316 0.92252 0.0
C881 C 0.51181 0.95778 0.91748 0.0
C882 C 0.44889 0.97548 0.95129 0.0
C883 C 0.47991 0.98107 0.97551 0.0
C884 C 0.52691 0.97481 0.97059 0.0
C885 C 0.54238 0.96387 0.94143 0.0
C886 C 0.39868 0.98316 0.95566 0.0
C887 C 0.56081 0.97944 -0.00386 0.0
C888 C 0.4525 0.05166 0.04495 0.0
C889 C 0.44058 0.01767 0.06589 0.0
C890 C 0.46332 0.04034 0.01489 0.0
C891 C 0.46353 0.99387 0.00608 0.0
C892 C 0.45086 0.95947 0.02707 0.0
C893 C 0.43886 0.97191 0.05673 0.0
C894 C 0.4755 0.07796 -0.0072 0.0
C895 C 0.45186 0.90948 0.01859 0.0
H896 H 0.44174 0.95877 0.9038 0.0
H897 H 0.57839 0.95925 0.93745 0.0
H898 H 0.38526 0.95948 0.9732 0.0
H899 H 0.39263 0.01844 0.96395 0.0
H900 H 0.37923 0.97804 0.93431 0.0
H901 H 0.59594 0.97147 0.9887 0.0
H902 H 0.56022 0.01477 0.00523 0.0
H903 H 0.55157 0.95616 0.0151 0.0
H904 H 0.45327 0.0871 0.05209 0.0
H905 H 0.42987 0.9457 0.07312 0.0
H906 H 0.4554 0.07444 0.97161 0.0
H907 H 0.5118 0.07526 0.98643 0.0
H908 H 0.46948 0.11247 0.00249 0.0
H909 H 0.43084 0.90331 -0.00189 0.0
H910 H 0.43937 0.88718 0.03728 0.0
H911 H 0.48709 0.8993 0.01286 0.0
C912 C 0.49438 0.50716 0.42875 0.0
C913 C 0.53935 0.51429 0.41973 0.0
C914 C 0.48408 0.49435 0.4586 0.0
C915 C 0.51959 0.49002 0.48 0.0
C916 C 0.56511 0.49745 0.47104 0.0
C917 C 0.57456 0.50885 0.44073 0.0
C918 C 0.43522 0.48551 0.46722 0.0
C919 C 0.60357 0.49429 0.49356 0.0
C920 C 0.48066 0.50208 0.56139 0.0
C921 C 0.47897 0.45637 0.57067 0.0
C922 C 0.49606 0.51371 0.5323 0.0
C923 C 0.50862 0.47857 0.51188 0.0
C924 C 0.50764 0.43236 0.52133 0.0
C925 C 0.49338 0.42184 0.5509 0.0
C926 C 0.49786 0.56344 0.52317 0.0
C927 C 0.5197 0.39401 0.49984 0.0
H928 H 0.46729 0.51094 0.41229 0.0
H929 H 0.6093 0.51471 0.43362 0.0
H930 H 0.43178 0.45098 0.47741 0.0
H931 H 0.42412 0.51057 0.4846 0.0
H932 H 0.41204 0.48794 0.44739 0.0
H933 H 0.63706 0.5011 0.48286 0.0
H934 H 0.59824 0.51929 0.51219 0.0
H935 H 0.60432 0.45985 0.50407 0.0
H936 H 0.47 0.52874 0.57695 0.0
H937 H 0.4918 0.38646 0.55818 0.0
H938 H 0.47217 0.57025 0.50535 0.0
H939 H 0.53156 0.57182 0.51337 0.0
H940 H 0.49128 0.58662 0.54268 0.0
H941 H 0.49531 0.39342 0.48065 0.0
H942 H 0.5191 0.3601 0.51121 0.0
H943 H 0.55391 0.39961 0.49001 0.0
loop_
_geom_bond_atom_site_label_1
_geom_bond_atom_site_label_2
_geom_bond_distance
_geom_bond_site_symmetry_2
_ccdc_geom_bond_type
Sc0 O3 2.025 . S
Sc0 O10 2.105 . S
Sc0 O13 2.105 . S
Sc0 O16 2.105 . S
Sc0 O19 2.105 . S
Sc1 O3 2.025 . S
Sc1 O11 2.105 . S
Sc1 O15 2.105 . S
Sc1 O17 2.105 . S
Sc1 O21 2.105 1_455 S
Sc2 O3 2.025 . S
Sc2 O12 2.105 1_455 S
Sc2 O14 2.105 . S
Sc2 O18 2.105 . S
Sc2 O20 2.105 . S
O3 Sc0 2.025 . S
O3 Sc1 2.025 . S
O3 Sc2 2.025 . S
C4 O10 1.268 . S
C4 O20 1.268 . S
C5 O11 1.268 . S
C5 O19 1.268 . S
C6 O12 1.268 . S
C6 O21 1.268 . S
C7 O13 1.268 . S
C7 O17 1.268 . S
C8 O14 1.268 . S
C8 O16 1.268 . S
C9 O15 1.268 . S
C9 O18 1.268 . S
O10 Sc0 2.105 . S
O10 C4 1.268 . S
O11 Sc1 2.105 . S
O11 C5 1.268 . S
O12 Sc2 2.105 1_655 S
O12 C6 1.268 . S
O13 Sc0 2.105 . S
O13 C7 1.268 . S
O14 Sc2 2.105 . S
O14 C8 1.268 . S
O15 Sc1 2.105 . S
O15 C9 1.268 . S
O16 Sc0 2.105 . S
O16 C8 1.268 . S
O17 Sc1 2.105 . S
O17 C7 1.268 . S
O18 Sc2 2.105 . S
O18 C9 1.268 . S
O19 Sc0 2.105 . S
O19 C5 1.268 . S
O20 Sc2 2.105 . S
O20 C4 1.268 . S
O21 Sc1 2.105 1_655 S
O21 C6 1.268 . S
Sc22 O25 2.025 . S
Sc22 O32 2.105 . S
Sc22 O35 2.105 1_545 S
Sc22 O38 2.105 . S
Sc22 O41 2.105 . S
Sc23 O25 2.025 . S
Sc23 O33 2.105 . S
Sc23 O37 2.105 1_455 S
Sc23 O39 2.105 1_545 S
Sc23 O43 2.105 . S
Sc24 O25 2.025 . S
Sc24 O34 2.105 . S
Sc24 O36 2.105 . S
Sc24 O40 2.105 1_455 S
Sc24 O42 2.105 . S
O25 Sc22 2.025 . S
O25 Sc23 2.025 . S
O25 Sc24 2.025 . S
C26 O32 1.268 . S
C26 O42 1.268 . S
C27 O33 1.268 . S
C27 O41 1.268 . S
C28 O34 1.268 . S
C28 O43 1.268 . S
C29 O35 1.268 . S
C29 O39 1.268 . S
C30 O36 1.268 . S
C30 O38 1.268 . S
C31 O37 1.268 . S
C31 O40 1.268 . S
O32 Sc22 2.105 . S
O32 C26 1.268 . S
O33 Sc23 2.105 . S
O33 C27 1.268 . S
O34 Sc24 2.105 . S
O34 C28 1.268 . S
O35 Sc22 2.105 1_565 S
O35 C29 1.268 . S
O36 Sc24 2.105 . S
O36 C30 1.268 . S
O37 Sc23 2.105 1_655 S
O37 C31 1.268 . S
O38 Sc22 2.105 . S
O38 C30 1.268 . S
O39 Sc23 2.105 1_565 S
O39 C29 1.268 . S
O40 Sc24 2.105 1_655 S
O40 C31 1.268 . S
O41 Sc22 2.105 . S
O41 C27 1.268 . S
O42 Sc24 2.105 . S
O42 C26 1.268 . S
O43 Sc23 2.105 . S
O43 C28 1.268 . S
Sc44 O47 2.025 . S
Sc44 O54 2.105 . S
Sc44 O57 2.105 . S
Sc44 O60 2.105 . S
Sc44 O63 2.105 . S
Sc45 O47 2.025 . S
Sc45 O55 2.105 . S
Sc45 O59 2.105 1_545 S
Sc45 O61 2.105 . S
Sc45 O65 2.105 . S
Sc46 O47 2.025 . S
Sc46 O56 2.105 . S
Sc46 O58 2.105 . S
Sc46 O62 2.105 1_545 S
Sc46 O64 2.105 . S
O47 Sc44 2.025 . S
O47 Sc45 2.025 . S
O47 Sc46 2.025 . S
C48 O54 1.268 . S
C48 O64 1.268 . S
C49 O55 1.268 . S
C49 O63 1.268 . S
C50 O56 1.268 . S
C50 O65 1.268 . S
C51 O57 1.268 . S
C51 O61 1.268 . S
C52 O58 1.268 . S
C52 O60 1.268 . S
C53 O59 1.268 . S
C53 O62 1.268 . S
O54 Sc44 2.105 . S
O54 C48 1.268 . S
O55 Sc45 2.105 . S
O55 C49 1.268 . S
O56 Sc46 2.105 . S
O56 C50 1.268 . S
O57 Sc44 2.105 . S
O57 C51 1.268 . S
O58 Sc46 2.105 . S
O58 C52 1.268 . S
O59 Sc45 2.105 1_565 S
O59 C53 1.268 . S
O60 Sc44 2.105 . S
O60 C52 1.268 . S
O61 Sc45 2.105 . S
O61 C51 1.268 . S
O62 Sc46 2.105 1_565 S
O62 C53 1.268 . S
O63 Sc44 2.105 . S
O63 C49 1.268 . S
O64 Sc46 2.105 . S
O64 C48 1.268 . S
O65 Sc45 2.105 . S
O65 C50 1.268 . S
Sc66 O69 2.025 . S
Sc66 O76 2.105 . S
Sc66 O79 2.105 . S
Sc66 O82 2.105 . S
Sc66 O85 2.105 . S
Sc67 O69 2.025 . S
Sc67 O77 2.105 . S
Sc67 O81 2.105 . S
Sc67 O83 2.105 . S
Sc67 O87 2.105 . S
Sc68 O69 2.025 . S
Sc68 O78 2.105 . S
Sc68 O80 2.105 . S
Sc68 O84 2.105 . S
Sc68 O86 2.105 . S
O69 Sc66 2.025 . S
O69 Sc67 2.025 . S
O69 Sc68 2.025 . S
C70 O76 1.268 . S
C70 O86 1.268 . S
C71 O77 1.268 . S
C71 O85 1.268 . S
C72 O78 1.268 . S
C72 O87 1.268 . S
C73 O79 1.268 . S
C73 O83 1.268 . S
C74 O80 1.268 . S
C74 O82 1.268 . S
C75 O81 1.268 . S
C75 O84 1.268 . S
O76 Sc66 2.105 . S
O76 C70 1.268 . S
O77 Sc67 2.105 . S
O77 C71 1.268 . S
O78 Sc68 2.105 . S
O78 C72 1.268 . S
O79 Sc66 2.105 . S
O79 C73 1.268 . S
O80 Sc68 2.105 . S
O80 C74 1.268 . S
O81 Sc67 2.105 . S
O81 C75 1.268 . S
O82 Sc66 2.105 . S
O82 C74 1.268 . S
O83 Sc67 2.105 . S
O83 C73 1.268 . S
O84 Sc68 2.105 . S
O84 C75 1.268 . S
O85 Sc66 2.105 . S
O85 C71 1.268 . S
O86 Sc68 2.105 . S
O86 C70 1.268 . S
O87 Sc67 2.105 . S
O87 C72 1.268 . S
Sc88 O91 2.025 . S
Sc88 O98 2.105 . S
Sc88 O101 2.105 . S
Sc88 O104 2.105 . S
Sc88 O107 2.105 . S
Sc89 O91 2.025 . S
Sc89 O99 2.105 . S
Sc89 O103 2.105 . S
Sc89 O105 2.105 . S
Sc89 O109 2.105 . S
Sc90 O91 2.025 . S
Sc90 O100 2.105 . S
Sc90 O102 2.105 . S
Sc90 O106 2.105 . S
Sc90 O108 2.105 . S
O91 Sc88 2.025 . S
O91 Sc89 2.025 . S
O91 Sc90 2.025 . S
C92 O98 1.268 . S
C92 O108 1.268 . S
C93 O99 1.268 . S
C93 O107 1.268 . S
C94 O100 1.268 . S
C94 O109 1.268 . S
C95 O101 1.268 . S
C95 O105 1.268 . S
C96 O102 1.268 . S
C96 O104 1.268 . S
C97 O103 1.268 . S
C97 O106 1.268 . S
O98 Sc88 2.105 . S
O98 C92 1.268 . S
O99 Sc89 2.105 . S
O99 C93 1.268 . S
O100 Sc90 2.105 . S
O100 C94 1.268 . S
O101 Sc88 2.105 . S
O101 C95 1.268 . S
O102 Sc90 2.105 . S
O102 C96 1.268 . S
O103 Sc89 2.105 . S
O103 C97 1.268 . S
O104 Sc88 2.105 . S
O104 C96 1.268 . S
O105 Sc89 2.105 . S
O105 C95 1.268 . S
O106 Sc90 2.105 . S
O106 C97 1.268 . S
O107 Sc88 2.105 . S
O107 C93 1.268 . S
O108 Sc90 2.105 . S
O108 C92 1.268 . S
O109 Sc89 2.105 . S
O109 C94 1.268 . S
Sc110 O113 2.025 . S
Sc110 O120 2.105 . S
Sc110 O123 2.105 . S
Sc110 O126 2.105 . S
Sc110 O129 2.105 . S
Sc111 O113 2.025 . S
Sc111 O121 2.105 . S
Sc111 O125 2.105 1_655 S
Sc111 O127 2.105 . S
Sc111 O131 2.105 . S
Sc112 O113 2.025 . S
Sc112 O122 2.105 . S
Sc112 O124 2.105 . S
Sc112 O128 2.105 1_655 S
Sc112 O130 2.105 . S
O113 Sc110 2.025 . S
O113 Sc111 2.025 . S
O113 Sc112 2.025 . S
C114 O120 1.268 . S
C114 O130 1.268 . S
C115 O121 1.268 . S
C115 O129 1.268 . S
C116 O122 1.268 . S
C116 O131 1.268 . S
C117 O123 1.268 . S
C117 O127 1.268 . S
C118 O124 1.268 . S
C118 O126 1.268 . S
C119 O125 1.268 . S
C119 O128 1.268 . S
O120 Sc110 2.105 . S
O120 C114 1.268 . S
O121 Sc111 2.105 . S
O121 C115 1.268 . S
O122 Sc112 2.105 . S
O122 C116 1.268 . S
O123 Sc110 2.105 . S
O123 C117 1.268 . S
O124 Sc112 2.105 . S
O124 C118 1.268 . S
O125 Sc111 2.105 1_455 S
O125 C119 1.268 . S
O126 Sc110 2.105 . S
O126 C118 1.268 . S
O127 Sc111 2.105 . S
O127 C117 1.268 . S
O128 Sc112 2.105 1_455 S
O128 C119 1.268 . S
O129 Sc110 2.105 . S
O129 C115 1.268 . S
O130 Sc112 2.105 . S
O130 C114 1.268 . S
O131 Sc111 2.105 . S
O131 C116 1.268 . S
Sc132 O135 2.025 . S
Sc132 O142 2.105 . S
Sc132 O145 2.105 . S
Sc132 O148 2.105 . S
Sc132 O151 2.105 1_565 S
Sc133 O135 2.025 . S
Sc133 O143 2.105 1_565 S
Sc133 O147 2.105 . S
Sc133 O149 2.105 . S
Sc133 O153 2.105 1_655 S
Sc134 O135 2.025 . S
Sc134 O144 2.105 1_655 S
Sc134 O146 2.105 . S
Sc134 O150 2.105 . S
Sc134 O152 2.105 . S
O135 Sc132 2.025 . S
O135 Sc133 2.025 . S
O135 Sc134 2.025 . S
C136 O142 1.268 . S
C136 O152 1.268 . S
C137 O143 1.268 . S
C137 O151 1.268 . S
C138 O144 1.268 . S
C138 O153 1.268 . S
C139 O145 1.268 . S
C139 O149 1.268 . S
C140 O146 1.268 . S
C140 O148 1.268 . S
C141 O147 1.268 . S
C141 O150 1.268 . S
O142 Sc132 2.105 . S
O142 C136 1.268 . S
O143 Sc133 2.105 1_545 S
O143 C137 1.268 . S
O144 Sc134 2.105 1_455 S
O144 C138 1.268 . S
O145 Sc132 2.105 . S
O145 C139 1.268 . S
O146 Sc134 2.105 . S
O146 C140 1.268 . S
O147 Sc133 2.105 . S
O147 C141 1.268 . S
O148 Sc132 2.105 . S
O148 C140 1.268 . S
O149 Sc133 2.105 . S
O149 C139 1.268 . S
O150 Sc134 2.105 . S
O150 C141 1.268 . S
O151 Sc132 2.105 1_545 S
O151 C137 1.268 . S
O152 Sc134 2.105 . S
O152 C136 1.268 . S
O153 Sc133 2.105 1_455 S
O153 C138 1.268 . S
Sc154 O157 2.025 . S
Sc154 O164 2.105 . S
Sc154 O167 2.105 . S
Sc154 O170 2.105 . S
Sc154 O173 2.105 . S
Sc155 O157 2.025 . S
Sc155 O165 2.105 . S
Sc155 O169 2.105 . S
Sc155 O171 2.105 . S
Sc155 O175 2.105 1_565 S
Sc156 O157 2.025 . S
Sc156 O166 2.105 1_565 S
Sc156 O168 2.105 . S
Sc156 O172 2.105 . S
Sc156 O174 2.105 . S
O157 Sc154 2.025 . S
O157 Sc155 2.025 . S
O157 Sc156 2.025 . S
C158 O164 1.268 . S
C158 O174 1.268 . S
C159 O165 1.268 . S
C159 O173 1.268 . S
C160 O166 1.268 . S
C160 O175 1.268 . S
C161 O167 1.268 . S
C161 O171 1.268 . S
C162 O168 1.268 . S
C162 O170 1.268 . S
C163 O169 1.268 . S
C163 O172 1.268 . S
O164 Sc154 2.105 . S
O164 C158 1.268 . S
O165 Sc155 2.105 . S
O165 C159 1.268 . S
O166 Sc156 2.105 1_545 S
O166 C160 1.268 . S
O167 Sc154 2.105 . S
O167 C161 1.268 . S
O168 Sc156 2.105 . S
O168 C162 1.268 . S
O169 Sc155 2.105 . S
O169 C163 1.268 . S
O170 Sc154 2.105 . S
O170 C162 1.268 . S
O171 Sc155 2.105 . S
O171 C161 1.268 . S
O172 Sc156 2.105 . S
O172 C163 1.268 . S
O173 Sc154 2.105 . S
O173 C159 1.268 . S
O174 Sc156 2.105 . S
O174 C158 1.268 . S
O175 Sc155 2.105 1_545 S
O175 C160 1.268 . S
C176 C177 1.391 . S
C176 C178 1.394 . S
C176 H192 0.931 . S
C177 C176 1.391 . S
C177 C181 1.376 . S
C178 C176 1.394 . S
C178 C179 1.369 . S
C178 C182 1.531 . S
C179 C178 1.369 . S
C179 C180 1.410 . S
C179 C187 1.503 . S
C180 C179 1.410 . S
C180 C181 1.392 . S
C180 C183 1.511 . S
C181 C177 1.376 . S
C181 C180 1.392 . S
C181 H193 0.929 . S
C182 C178 1.531 . S
C182 H194 0.960 . S
C182 H195 0.962 . S
C182 H196 0.960 . S
C183 C180 1.511 . S
C183 H197 0.961 . S
C183 H198 0.961 . S
C183 H199 0.961 . S
C184 C185 1.370 . S
C184 C186 1.363 . S
C184 H200 0.931 . S
C185 C184 1.370 . S
C185 C189 1.408 . S
C186 C184 1.363 . S
C186 C187 1.370 . S
C186 C190 1.524 . S
C187 C179 1.503 . S
C187 C186 1.370 . S
C187 C188 1.403 . S
C188 C187 1.403 . S
C188 C189 1.404 . S
C188 C191 1.539 . S
C189 C185 1.408 . S
C189 C188 1.404 . S
C189 H201 0.930 . S
C190 C186 1.524 . S
C190 H202 0.956 . S
C190 H203 0.961 . S
C190 H204 0.961 . S
C191 C188 1.539 . S
C191 H205 0.958 . S
C191 H206 0.961 . S
C191 H207 0.960 . S
H192 C176 0.931 . S
H193 C181 0.929 . S
H194 C182 0.960 . S
H195 C182 0.962 . S
H196 C182 0.960 . S
H197 C183 0.961 . S
H198 C183 0.961 . S
H199 C183 0.961 . S
H200 C184 0.931 . S
H201 C189 0.930 . S
H202 C190 0.956 . S
H203 C190 0.961 . S
H204 C190 0.961 . S
H205 C191 0.958 . S
H206 C191 0.961 . S
H207 C191 0.960 . S
C208 C209 1.391 . S
C208 C210 1.394 . S
C208 H224 0.931 . S
C209 C208 1.391 . S
C209 C213 1.357 1_655 S
C210 C208 1.394 . S
C210 C211 1.369 . S
C210 C214 1.531 . S
C211 C210 1.369 . S
C211 C212 1.410 1_655 S
C211 C219 1.503 1_655 S
C212 C211 1.410 1_455 S
C212 C213 1.401 . S
C212 C215 1.511 . S
C213 C209 1.357 1_455 S
C213 C212 1.401 . S
C213 H225 0.939 . S
C214 C210 1.531 . S
C214 H226 0.960 . S
C214 H227 0.962 . S
C214 H228 0.960 . S
C215 C212 1.511 . S
C215 H229 0.961 . S
C215 H230 0.961 . S
C215 H231 0.961 . S
C216 C217 1.370 . S
C216 C218 1.363 1_455 S
C216 H232 0.931 1_455 S
C217 C216 1.370 . S
C217 C221 1.408 . S
C218 C216 1.363 1_655 S
C218 C219 1.370 1_655 S
C218 C222 1.524 . S
C219 C211 1.503 1_455 S
C219 C218 1.370 1_455 S
C219 C220 1.403 . S
C220 C219 1.403 . S
C220 C221 1.404 . S
C220 C223 1.539 . S
C221 C217 1.408 . S
C221 C220 1.404 . S
C221 H233 0.930 . S
C222 C218 1.524 . S
C222 H234 0.956 . S
C222 H235 0.961 . S
C222 H236 0.961 . S
C223 C220 1.539 . S
C223 H237 0.958 . S
C223 H238 0.961 . S
C223 H239 0.960 . S
H224 C208 0.931 . S
H225 C213 0.939 . S
H226 C214 0.960 . S
H227 C214 0.962 . S
H228 C214 0.960 . S
H229 C215 0.961 . S
H230 C215 0.961 . S
H231 C215 0.961 . S
H232 C216 0.931 1_655 S
H233 C221 0.930 . S
H234 C222 0.956 . S
H235 C222 0.961 . S
H236 C222 0.961 . S
H237 C223 0.958 . S
H238 C223 0.961 . S
H239 C223 0.960 . S
C240 C241 1.391 1_565 S
C240 C242 1.394 . S
C240 H256 0.931 . S
C241 C240 1.391 1_545 S
C241 C245 1.376 . S
C242 C240 1.394 . S
C242 C243 1.375 . S
C242 C246 1.531 . S
C243 C242 1.375 . S
C243 C244 1.399 1_565 S
C243 C251 1.507 . S
C244 C243 1.399 1_545 S
C244 C245 1.392 . S
C244 C247 1.511 . S
C245 C241 1.376 . S
C245 C244 1.392 . S
C245 H257 0.929 . S
C246 C242 1.531 . S
C246 H258 0.960 . S
C246 H259 0.962 . S
C246 H260 0.960 . S
C247 C244 1.511 . S
C247 H261 0.961 . S
C247 H262 0.961 . S
C247 H263 0.961 . S
C248 C249 1.370 . S
C248 C250 1.363 . S
C248 H264 0.931 . S
C249 C248 1.370 . S
C249 C253 1.408 . S
C250 C248 1.363 . S
C250 C251 1.370 . S
C250 C254 1.525 1_565 S
C251 C243 1.507 . S
C251 C250 1.370 . S
C251 C252 1.403 . S
C252 C251 1.403 . S
C252 C253 1.404 . S
C252 C255 1.539 . S
C253 C249 1.408 . S
C253 C252 1.404 . S
C253 H265 0.930 . S
C254 C250 1.525 1_545 S
C254 H266 0.956 . S
C254 H267 0.961 . S
C254 H268 0.961 . S
C255 C252 1.539 . S
C255 H269 0.958 . S
C255 H270 0.961 . S
C255 H271 0.960 . S
H256 C240 0.931 . S
H257 C245 0.929 . S
H258 C246 0.960 . S
H259 C246 0.962 . S
H260 C246 0.960 . S
H261 C247 0.961 . S
H262 C247 0.961 . S
H263 C247 0.961 . S
H264 C248 0.931 . S
H265 C253 0.930 . S
H266 C254 0.956 . S
H267 C254 0.961 . S
H268 C254 0.961 . S
H269 C255 0.958 . S
H270 C255 0.961 . S
H271 C255 0.960 . S
C272 C273 1.391 . S
C272 C274 1.394 . S
C272 H288 0.931 . S
C273 C272 1.391 . S
C273 C277 1.376 . S
C274 C272 1.394 . S
C274 C275 1.369 . S
C274 C278 1.531 . S
C275 C274 1.369 . S
C275 C276 1.410 . S
C275 C283 1.503 . S
C276 C275 1.410 . S
C276 C277 1.392 . S
C276 C279 1.511 . S
C277 C273 1.376 . S
C277 C276 1.392 . S
C277 H289 0.929 . S
C278 C274 1.531 . S
C278 H290 0.960 . S
C278 H291 0.962 . S
C278 H292 0.960 . S
C279 C276 1.511 . S
C279 H293 0.961 . S
C279 H294 0.961 . S
C279 H295 0.961 . S
C280 C281 1.370 . S
C280 C282 1.363 . S
C280 H296 0.931 . S
C281 C280 1.370 . S
C281 C285 1.408 . S
C282 C280 1.363 . S
C282 C283 1.370 . S
C282 C286 1.524 . S
C283 C275 1.503 . S
C283 C282 1.370 . S
C283 C284 1.403 . S
C284 C283 1.403 . S
C284 C285 1.404 . S
C284 C287 1.539 . S
C285 C281 1.408 . S
C285 C284 1.404 . S
C285 H297 0.930 . S
C286 C282 1.524 . S
C286 H298 0.956 . S
C286 H299 0.961 . S
C286 H300 0.961 . S
C287 C284 1.539 . S
C287 H301 0.958 . S
C287 H302 0.961 . S
C287 H303 0.960 . S
H288 C272 0.931 . S
H289 C277 0.929 . S
H290 C278 0.960 . S
H291 C278 0.962 . S
H292 C278 0.960 . S
H293 C279 0.961 . S
H294 C279 0.961 . S
H295 C279 0.961 . S
H296 C280 0.931 . S
H297 C285 0.930 . S
H298 C286 0.956 . S
H299 C286 0.961 . S
H300 C286 0.961 . S
H301 C287 0.958 . S
H302 C287 0.961 . S
H303 C287 0.960 . S
C304 C305 1.391 . S
C304 C306 1.394 . S
C304 H320 0.931 . S
C305 C304 1.391 . S
C305 C309 1.376 . S
C306 C304 1.394 . S
C306 C307 1.369 . S
C306 C310 1.531 . S
C307 C306 1.369 . S
C307 C308 1.410 . S
C307 C315 1.503 . S
C308 C307 1.410 . S
C308 C309 1.392 . S
C308 C311 1.511 . S
C309 C305 1.376 . S
C309 C308 1.392 . S
C309 H321 0.929 . S
C310 C306 1.531 . S
C310 H322 0.960 . S
C310 H323 0.962 . S
C310 H324 0.960 . S
C311 C308 1.511 . S
C311 H325 0.961 . S
C311 H326 0.961 . S
C311 H327 0.961 . S
C312 C313 1.370 . S
C312 C314 1.363 . S
C312 H328 0.931 . S
C313 C312 1.370 . S
C313 C317 1.408 . S
C314 C312 1.363 . S
C314 C315 1.370 . S
C314 C318 1.524 . S
C315 C307 1.503 . S
C315 C314 1.370 . S
C315 C316 1.403 . S
C316 C315 1.403 . S
C316 C317 1.404 . S
C316 C319 1.539 . S
C317 C313 1.408 . S
C317 C316 1.404 . S
C317 H329 0.930 . S
C318 C314 1.524 . S
C318 H330 0.956 . S
C318 H331 0.961 . S
C318 H332 0.961 . S
C319 C316 1.539 . S
C319 H333 0.958 . S
C319 H334 0.961 . S
C319 H335 0.960 . S
H320 C304 0.931 . S
H321 C309 0.929 . S
H322 C310 0.960 . S
H323 C310 0.962 . S
H324 C310 0.960 . S
H325 C311 0.961 . S
H326 C311 0.961 . S
H327 C311 0.961 . S
H328 C312 0.931 . S
H329 C317 0.930 . S
H330 C318 0.956 . S
H331 C318 0.961 . S
H332 C318 0.961 . S
H333 C319 0.958 . S
H334 C319 0.961 . S
H335 C319 0.960 . S
C336 C337 1.391 . S
C336 C338 1.394 1_455 S
C336 H352 0.931 1_455 S
C337 C336 1.391 . S
C337 C341 1.376 . S
C338 C336 1.394 1_655 S
C338 C339 1.369 1_655 S
C338 C342 1.531 . S
C339 C338 1.369 1_455 S
C339 C340 1.410 . S
C339 C347 1.503 1_455 S
C340 C339 1.410 . S
C340 C341 1.392 . S
C340 C343 1.511 . S
C341 C337 1.376 . S
C341 C340 1.392 . S
C341 H353 0.929 . S
C342 C338 1.531 . S
C342 H354 0.960 . S
C342 H355 0.962 . S
C342 H356 0.960 . S
C343 C340 1.511 . S
C343 H357 0.961 . S
C343 H358 0.961 . S
C343 H359 0.961 . S
C344 C345 1.370 . S
C344 C346 1.363 . S
C344 H360 0.931 . S
C345 C344 1.370 . S
C345 C349 1.408 . S
C346 C344 1.363 . S
C346 C347 1.370 . S
C346 C350 1.524 . S
C347 C339 1.503 1_655 S
C347 C346 1.370 . S
C347 C348 1.403 1_655 S
C348 C347 1.403 1_455 S
C348 C349 1.404 1_455 S
C348 C351 1.539 . S
C349 C345 1.408 . S
C349 C348 1.404 1_655 S
C349 H361 0.930 1_655 S
C350 C346 1.524 . S
C350 H362 0.956 . S
C350 H363 0.961 . S
C350 H364 0.961 . S
C351 C348 1.539 . S
C351 H365 0.958 . S
C351 H366 0.961 . S
C351 H367 0.960 . S
H352 C336 0.931 1_655 S
H353 C341 0.929 . S
H354 C342 0.960 . S
H355 C342 0.962 . S
H356 C342 0.960 . S
H357 C343 0.961 . S
H358 C343 0.961 . S
H359 C343 0.961 . S
H360 C344 0.931 . S
H361 C349 0.930 1_455 S
H362 C350 0.956 . S
H363 C350 0.961 . S
H364 C350 0.961 . S
H365 C351 0.958 . S
H366 C351 0.961 . S
H367 C351 0.960 . S
C368 C369 1.391 . S
C368 C370 1.394 . S
C368 H384 0.931 . S
C369 C368 1.391 . S
C369 C373 1.376 1_545 S
C370 C368 1.394 . S
C370 C371 1.369 . S
C370 C374 1.531 . S
C371 C370 1.369 . S
C371 C372 1.410 1_545 S
C371 C379 1.503 1_545 S
C372 C371 1.410 1_565 S
C372 C373 1.392 . S
C372 C375 1.511 . S
C373 C369 1.376 1_565 S
C373 C372 1.392 . S
C373 H385 0.929 . S
C374 C370 1.531 . S
C374 H386 0.960 . S
C374 H387 0.962 . S
C374 H388 0.960 . S
C375 C372 1.511 . S
C375 H389 0.961 . S
C375 H390 0.961 . S
C375 H391 0.961 . S
C376 C377 1.370 . S
C376 C378 1.363 . S
C376 H392 0.931 . S
C377 C376 1.370 . S
C377 C381 1.408 . S
C378 C376 1.363 . S
C378 C379 1.370 . S
C378 C382 1.524 . S
C379 C371 1.503 1_565 S
C379 C378 1.370 . S
C379 C380 1.403 . S
C380 C379 1.403 . S
C380 C381 1.404 . S
C380 C383 1.539 . S
C381 C377 1.408 . S
C381 C380 1.404 . S
C381 H393 0.930 . S
C382 C378 1.524 . S
C382 H394 0.956 1_565 S
C382 H395 0.961 . S
C382 H396 0.961 . S
C383 C380 1.539 . S
C383 H397 0.958 1_565 S
C383 H398 0.961 . S
C383 H399 0.960 . S
H384 C368 0.931 . S
H385 C373 0.929 . S
H386 C374 0.960 . S
H387 C374 0.962 . S
H388 C374 0.960 . S
H389 C375 0.961 . S
H390 C375 0.961 . S
H391 C375 0.961 . S
H392 C376 0.931 . S
H393 C381 0.930 . S
H394 C382 0.956 1_545 S
H395 C382 0.961 . S
H396 C382 0.961 . S
H397 C383 0.958 1_545 S
H398 C383 0.961 . S
H399 C383 0.960 . S
C400 C401 1.391 . S
C400 C402 1.394 . S
C400 H416 0.931 . S
C401 C400 1.391 . S
C401 C405 1.376 . S
C402 C400 1.394 . S
C402 C403 1.369 . S
C402 C406 1.531 . S
C403 C402 1.369 . S
C403 C404 1.410 . S
C403 C411 1.503 . S
C404 C403 1.410 . S
C404 C405 1.392 . S
C404 C407 1.511 . S
C405 C401 1.376 . S
C405 C404 1.392 . S
C405 H417 0.929 . S
C406 C402 1.531 . S
C406 H418 0.960 . S
C406 H419 0.962 . S
C406 H420 0.960 . S
C407 C404 1.511 . S
C407 H421 0.961 . S
C407 H422 0.961 . S
C407 H423 0.961 . S
C408 C409 1.370 . S
C408 C410 1.363 . S
C408 H424 0.931 . S
C409 C408 1.370 . S
C409 C413 1.408 . S
C410 C408 1.363 . S
C410 C411 1.370 . S
C410 C414 1.524 . S
C411 C403 1.503 . S
C411 C410 1.370 . S
C411 C412 1.403 . S
C412 C411 1.403 . S
C412 C413 1.404 . S
C412 C415 1.539 . S
C413 C409 1.408 . S
C413 C412 1.404 . S
C413 H425 0.930 . S
C414 C410 1.524 . S
C414 H426 0.956 . S
C414 H427 0.961 . S
C414 H428 0.961 . S
C415 C412 1.539 . S
C415 H429 0.958 . S
C415 H430 0.961 . S
C415 H431 0.960 . S
H416 C400 0.931 . S
H417 C405 0.929 . S
H418 C406 0.960 . S
H419 C406 0.962 . S
H420 C406 0.960 . S
H421 C407 0.961 . S
H422 C407 0.961 . S
H423 C407 0.961 . S
H424 C408 0.931 . S
H425 C413 0.930 . S
H426 C414 0.956 . S
H427 C414 0.961 . S
H428 C414 0.961 . S
H429 C415 0.958 . S
H430 C415 0.961 . S
H431 C415 0.960 . S
C432 C433 1.391 . S
C432 C434 1.394 . S
C432 H448 0.931 . S
C433 C432 1.391 . S
C433 C437 1.376 . S
C434 C432 1.394 . S
C434 C435 1.369 . S
C434 C438 1.531 . S
C435 C434 1.369 . S
C435 C436 1.410 . S
C435 C443 1.503 . S
C436 C435 1.410 . S
C436 C437 1.392 . S
C436 C439 1.511 . S
C437 C433 1.376 . S
C437 C436 1.392 . S
C437 H449 0.929 . S
C438 C434 1.531 . S
C438 H450 0.960 . S
C438 H451 0.962 . S
C438 H452 0.960 . S
C439 C436 1.511 . S
C439 H453 0.961 . S
C439 H454 0.961 . S
C439 H455 0.961 . S
C440 C441 1.370 . S
C440 C442 1.363 . S
C440 H456 0.931 . S
C441 C440 1.370 . S
C441 C445 1.408 . S
C442 C440 1.363 . S
C442 C443 1.370 . S
C442 C446 1.524 . S
C443 C435 1.503 . S
C443 C442 1.370 . S
C443 C444 1.403 . S
C444 C443 1.403 . S
C444 C445 1.404 . S
C444 C447 1.539 . S
C445 C441 1.408 . S
C445 C444 1.404 . S
C445 H457 0.930 . S
C446 C442 1.524 . S
C446 H458 0.956 . S
C446 H459 0.961 . S
C446 H460 0.961 . S
C447 C444 1.539 . S
C447 H461 0.958 . S
C447 H462 0.961 . S
C447 H463 0.960 . S
H448 C432 0.931 . S
H449 C437 0.929 . S
H450 C438 0.960 . S
H451 C438 0.962 . S
H452 C438 0.960 . S
H453 C439 0.961 . S
H454 C439 0.961 . S
H455 C439 0.961 . S
H456 C440 0.931 . S
H457 C445 0.930 . S
H458 C446 0.956 . S
H459 C446 0.961 . S
H460 C446 0.961 . S
H461 C447 0.958 . S
H462 C447 0.961 . S
H463 C447 0.960 . S
C464 C465 1.391 1_655 S
C464 C466 1.394 . S
C464 H480 0.931 . S
C465 C464 1.391 1_455 S
C465 C469 1.376 . S
C466 C464 1.394 . S
C466 C467 1.369 1_655 S
C466 C470 1.531 . S
C467 C466 1.369 1_455 S
C467 C468 1.410 . S
C467 C475 1.503 1_455 S
C468 C467 1.410 . S
C468 C469 1.392 . S
C468 C471 1.511 . S
C469 C465 1.376 . S
C469 C468 1.392 . S
C469 H481 0.929 . S
C470 C466 1.531 . S
C470 H482 0.960 . S
C470 H483 0.962 . S
C470 H484 0.960 . S
C471 C468 1.511 . S
C471 H485 0.961 . S
C471 H486 0.961 . S
C471 H487 0.961 . S
C472 C473 1.370 . S
C472 C474 1.363 . S
C472 H488 0.931 . S
C473 C472 1.370 . S
C473 C477 1.408 . S
C474 C472 1.363 . S
C474 C475 1.370 . S
C474 C478 1.524 1_655 S
C475 C467 1.503 1_655 S
C475 C474 1.370 . S
C475 C476 1.403 . S
C476 C475 1.403 . S
C476 C477 1.404 . S
C476 C479 1.539 . S
C477 C473 1.408 . S
C477 C476 1.404 . S
C477 H489 0.930 . S
C478 C474 1.524 1_455 S
C478 H490 0.956 1_455 S
C478 H491 0.961 . S
C478 H492 0.961 . S
C479 C476 1.539 . S
C479 H493 0.958 . S
C479 H494 0.961 . S
C479 H495 0.960 . S
H480 C464 0.931 . S
H481 C469 0.929 . S
H482 C470 0.960 . S
H483 C470 0.962 . S
H484 C470 0.960 . S
H485 C471 0.961 . S
H486 C471 0.961 . S
H487 C471 0.961 . S
H488 C472 0.931 . S
H489 C477 0.930 . S
H490 C478 0.956 1_655 S
H491 C478 0.961 . S
H492 C478 0.961 . S
H493 C479 0.958 . S
H494 C479 0.961 . S
H495 C479 0.960 . S
C496 C497 1.391 1_565 S
C496 C498 1.394 . S
C496 H512 0.931 . S
C497 C496 1.391 1_545 S
C497 C501 1.376 . S
C498 C496 1.394 . S
C498 C499 1.369 1_565 S
C498 C502 1.531 . S
C499 C498 1.369 1_545 S
C499 C500 1.410 . S
C499 C507 1.503 1_545 S
C500 C499 1.410 . S
C500 C501 1.392 . S
C500 C503 1.511 . S
C501 C497 1.376 . S
C501 C500 1.392 . S
C501 H513 0.929 . S
C502 C498 1.531 . S
C502 H514 0.960 . S
C502 H515 0.962 . S
C502 H516 0.960 . S
C503 C500 1.511 . S
C503 H517 0.961 . S
C503 H518 0.961 . S
C503 H519 0.961 . S
C504 C505 1.370 . S
C504 C506 1.360 1_565 S
C504 H520 0.931 . S
C505 C504 1.370 . S
C505 C509 1.408 . S
C506 C504 1.360 1_545 S
C506 C507 1.369 1_545 S
C506 C510 1.529 . S
C507 C499 1.503 1_565 S
C507 C506 1.369 1_565 S
C507 C508 1.403 . S
C508 C507 1.403 . S
C508 C509 1.404 . S
C508 C511 1.539 . S
C509 C505 1.408 . S
C509 C508 1.404 . S
C509 H521 0.930 . S
C510 C506 1.529 . S
C510 H522 0.956 . S
C510 H523 0.961 . S
C510 H524 0.961 . S
C511 C508 1.539 . S
C511 H525 0.958 . S
C511 H526 0.961 . S
C511 H527 0.960 . S
H512 C496 0.931 . S
H513 C501 0.929 . S
H514 C502 0.960 . S
H515 C502 0.962 . S
H516 C502 0.960 . S
H517 C503 0.961 . S
H518 C503 0.961 . S
H519 C503 0.961 . S
H520 C504 0.931 . S
H521 C509 0.930 . S
H522 C510 0.956 . S
H523 C510 0.961 . S
H524 C510 0.961 . S
H525 C511 0.958 . S
H526 C511 0.961 . S
H527 C511 0.960 . S
C528 C529 1.391 . S
C528 C530 1.394 . S
C528 H544 0.931 . S
C529 C528 1.391 . S
C529 C533 1.376 . S
C530 C528 1.394 . S
C530 C531 1.369 . S
C530 C534 1.531 . S
C531 C530 1.369 . S
C531 C532 1.410 . S
C531 C539 1.503 . S
C532 C531 1.410 . S
C532 C533 1.392 . S
C532 C535 1.511 . S
C533 C529 1.376 . S
C533 C532 1.392 . S
C533 H545 0.929 . S
C534 C530 1.531 . S
C534 H546 0.960 . S
C534 H547 0.962 . S
C534 H548 0.960 . S
C535 C532 1.511 . S
C535 H549 0.961 . S
C535 H550 0.961 . S
C535 H551 0.961 . S
C536 C537 1.370 . S
C536 C538 1.363 . S
C536 H552 0.931 . S
C537 C536 1.370 . S
C537 C541 1.408 . S
C538 C536 1.363 . S
C538 C539 1.370 . S
C538 C542 1.524 . S
C539 C531 1.503 . S
C539 C538 1.370 . S
C539 C540 1.403 . S
C540 C539 1.403 . S
C540 C541 1.404 . S
C540 C543 1.539 . S
C541 C537 1.408 . S
C541 C540 1.404 . S
C541 H553 0.930 . S
C542 C538 1.524 . S
C542 H554 0.956 . S
C542 H555 0.961 . S
C542 H556 0.961 . S
C543 C540 1.539 . S
C543 H557 0.958 . S
C543 H558 0.961 . S
C543 H559 0.960 . S
H544 C528 0.931 . S
H545 C533 0.929 . S
H546 C534 0.960 . S
H547 C534 0.962 . S
H548 C534 0.960 . S
H549 C535 0.961 . S
H550 C535 0.961 . S
H551 C535 0.961 . S
H552 C536 0.931 . S
H553 C541 0.930 . S
H554 C542 0.956 . S
H555 C542 0.961 . S
H556 C542 0.961 . S
H557 C543 0.958 . S
H558 C543 0.961 . S
H559 C543 0.960 . S
C560 C561 1.391 . S
C560 C562 1.394 . S
C560 H576 0.931 . S
C561 C560 1.391 . S
C561 C565 1.376 . S
C562 C560 1.394 . S
C562 C563 1.369 . S
C562 C566 1.531 . S
C563 C562 1.369 . S
C563 C564 1.410 . S
C563 C571 1.503 . S
C564 C563 1.410 . S
C564 C565 1.392 . S
C564 C567 1.511 . S
C565 C561 1.376 . S
C565 C564 1.392 . S
C565 H577 0.929 . S
C566 C562 1.531 . S
C566 H578 0.960 . S
C566 H579 0.962 . S
C566 H580 0.960 . S
C567 C564 1.511 . S
C567 H581 0.961 . S
C567 H582 0.961 . S
C567 H583 0.961 . S
C568 C569 1.370 . S
C568 C570 1.363 . S
C568 H584 0.931 . S
C569 C568 1.370 . S
C569 C573 1.408 . S
C570 C568 1.363 . S
C570 C571 1.370 . S
C570 C574 1.524 . S
C571 C563 1.503 . S
C571 C570 1.370 . S
C571 C572 1.403 . S
C572 C571 1.403 . S
C572 C573 1.404 . S
C572 C575 1.539 . S
C573 C569 1.408 . S
C573 C572 1.404 . S
C573 H585 0.930 . S
C574 C570 1.524 . S
C574 H586 0.956 . S
C574 H587 0.961 . S
C574 H588 0.961 . S
C575 C572 1.539 . S
C575 H589 0.958 . S
C575 H590 0.961 . S
C575 H591 0.960 . S
H576 C560 0.931 . S
H577 C565 0.929 . S
H578 C566 0.960 . S
H579 C566 0.962 . S
H580 C566 0.960 . S
H581 C567 0.961 . S
H582 C567 0.961 . S
H583 C567 0.961 . S
H584 C568 0.931 . S
H585 C573 0.930 . S
H586 C574 0.956 . S
H587 C574 0.961 . S
H588 C574 0.961 . S
H589 C575 0.958 . S
H590 C575 0.961 . S
H591 C575 0.960 . S
C592 C593 1.391 . S
C592 C594 1.394 1_455 S
C592 H608 0.931 1_455 S
C593 C592 1.391 . S
C593 C597 1.376 . S
C594 C592 1.394 1_655 S
C594 C595 1.369 1_655 S
C594 C598 1.531 . S
C595 C594 1.369 1_455 S
C595 C596 1.410 . S
C595 C603 1.503 1_455 S
C596 C595 1.410 . S
C596 C597 1.392 . S
C596 C599 1.511 . S
C597 C593 1.376 . S
C597 C596 1.392 . S
C597 H609 0.929 . S
C598 C594 1.531 . S
C598 H610 0.960 . S
C598 H611 0.962 . S
C598 H612 0.960 . S
C599 C596 1.511 . S
C599 H613 0.961 . S
C599 H614 0.961 . S
C599 H615 0.961 . S
C600 C601 1.370 . S
C600 C602 1.363 . S
C600 H616 0.931 . S
C601 C600 1.370 . S
C601 C605 1.408 1_655 S
C602 C600 1.363 . S
C602 C603 1.370 . S
C602 C606 1.524 . S
C603 C595 1.503 1_655 S
C603 C602 1.370 . S
C603 C604 1.403 1_655 S
C604 C603 1.403 1_455 S
C604 C605 1.404 . S
C604 C607 1.539 . S
C605 C601 1.408 1_455 S
C605 C604 1.404 . S
C605 H617 0.930 . S
C606 C602 1.524 . S
C606 H618 0.956 . S
C606 H619 0.961 . S
C606 H620 0.961 . S
C607 C604 1.539 . S
C607 H621 0.958 . S
C607 H622 0.961 . S
C607 H623 0.960 . S
H608 C592 0.931 1_655 S
H609 C597 0.929 . S
H610 C598 0.960 . S
H611 C598 0.962 . S
H612 C598 0.960 . S
H613 C599 0.961 . S
H614 C599 0.961 . S
H615 C599 0.961 . S
H616 C600 0.931 . S
H617 C605 0.930 . S
H618 C606 0.956 . S
H619 C606 0.961 . S
H620 C606 0.961 . S
H621 C607 0.958 . S
H622 C607 0.961 . S
H623 C607 0.960 . S
C624 C625 1.391 . S
C624 C626 1.394 . S
C624 H640 0.931 . S
C625 C624 1.391 . S
C625 C629 1.376 . S
C626 C624 1.394 . S
C626 C627 1.369 . S
C626 C630 1.531 1_565 S
C627 C626 1.369 . S
C627 C628 1.410 . S
C627 C635 1.503 . S
C628 C627 1.410 . S
C628 C629 1.392 . S
C628 C631 1.511 . S
C629 C625 1.376 . S
C629 C628 1.392 . S
C629 H641 0.929 . S
C630 C626 1.531 1_545 S
C630 H642 0.960 1_545 S
C630 H643 0.962 . S
C630 H644 0.960 1_545 S
C631 C628 1.511 . S
C631 H645 0.961 . S
C631 H646 0.961 . S
C631 H647 0.961 . S
C632 C633 1.370 . S
C632 C634 1.363 . S
C632 H648 0.931 . S
C633 C632 1.370 . S
C633 C637 1.408 1_545 S
C634 C632 1.363 . S
C634 C635 1.370 1_545 S
C634 C638 1.524 . S
C635 C627 1.503 . S
C635 C634 1.370 1_565 S
C635 C636 1.403 . S
C636 C635 1.403 . S
C636 C637 1.404 . S
C636 C639 1.539 . S
C637 C633 1.408 1_565 S
C637 C636 1.404 . S
C637 H649 0.930 . S
C638 C634 1.524 . S
C638 H650 0.956 . S
C638 H651 0.961 . S
C638 H652 0.961 . S
C639 C636 1.539 . S
C639 H653 0.958 . S
C639 H654 0.961 . S
C639 H655 0.960 . S
H640 C624 0.931 . S
H641 C629 0.929 . S
H642 C630 0.960 1_565 S
H643 C630 0.962 . S
H644 C630 0.960 1_565 S
H645 C631 0.961 . S
H646 C631 0.961 . S
H647 C631 0.961 . S
H648 C632 0.931 . S
H649 C637 0.930 . S
H650 C638 0.956 . S
H651 C638 0.961 . S
H652 C638 0.961 . S
H653 C639 0.958 . S
H654 C639 0.961 . S
H655 C639 0.960 . S
C656 C657 1.391 . S
C656 C658 1.394 . S
C656 H672 0.931 . S
C657 C656 1.391 . S
C657 C661 1.376 . S
C658 C656 1.394 . S
C658 C659 1.369 . S
C658 C662 1.531 . S
C659 C658 1.369 . S
C659 C660 1.410 . S
C659 C667 1.503 . S
C660 C659 1.410 . S
C660 C661 1.392 . S
C660 C663 1.511 . S
C661 C657 1.376 . S
C661 C660 1.392 . S
C661 H673 0.929 . S
C662 C658 1.531 . S
C662 H674 0.960 . S
C662 H675 0.962 . S
C662 H676 0.960 . S
C663 C660 1.511 . S
C663 H677 0.961 . S
C663 H678 0.961 . S
C663 H679 0.961 . S
C664 C665 1.370 . S
C664 C666 1.363 . S
C664 H680 0.931 . S
C665 C664 1.370 . S
C665 C669 1.408 . S
C666 C664 1.363 . S
C666 C667 1.370 . S
C666 C670 1.524 . S
C667 C659 1.503 . S
C667 C666 1.370 . S
C667 C668 1.403 . S
C668 C667 1.403 . S
C668 C669 1.404 . S
C668 C671 1.539 . S
C669 C665 1.408 . S
C669 C668 1.404 . S
C669 H681 0.930 . S
C670 C666 1.524 . S
C670 H682 0.956 . S
C670 H683 0.961 . S
C670 H684 0.961 . S
C671 C668 1.539 . S
C671 H685 0.958 . S
C671 H686 0.961 . S
C671 H687 0.960 . S
H672 C656 0.931 . S
H673 C661 0.929 . S
H674 C662 0.960 . S
H675 C662 0.962 . S
H676 C662 0.960 . S
H677 C663 0.961 . S
H678 C663 0.961 . S
H679 C663 0.961 . S
H680 C664 0.931 . S
H681 C669 0.930 . S
H682 C670 0.956 . S
H683 C670 0.961 . S
H684 C670 0.961 . S
H685 C671 0.958 . S
H686 C671 0.961 . S
H687 C671 0.960 . S
C688 C689 1.391 . S
C688 C690 1.394 . S
C688 H704 0.931 . S
C689 C688 1.391 . S
C689 C693 1.376 . S
C690 C688 1.394 . S
C690 C691 1.369 . S
C690 C694 1.531 . S
C691 C690 1.369 . S
C691 C692 1.410 . S
C691 C699 1.503 . S
C692 C691 1.410 . S
C692 C693 1.392 . S
C692 C695 1.511 . S
C693 C689 1.376 . S
C693 C692 1.392 . S
C693 H705 0.929 . S
C694 C690 1.531 . S
C694 H706 0.960 . S
C694 H707 0.962 . S
C694 H708 0.960 . S
C695 C692 1.511 . S
C695 H709 0.961 . S
C695 H710 0.961 . S
C695 H711 0.961 . S
C696 C697 1.370 . S
C696 C698 1.363 . S
C696 H712 0.931 . S
C697 C696 1.370 . S
C697 C701 1.408 . S
C698 C696 1.363 . S
C698 C699 1.370 . S
C698 C702 1.524 . S
C699 C691 1.503 . S
C699 C698 1.370 . S
C699 C700 1.403 . S
C700 C699 1.403 . S
C700 C701 1.404 . S
C700 C703 1.539 . S
C701 C697 1.408 . S
C701 C700 1.404 . S
C701 H713 0.930 . S
C702 C698 1.524 . S
C702 H714 0.956 . S
C702 H715 0.961 . S
C702 H716 0.961 . S
C703 C700 1.539 . S
C703 H717 0.958 . S
C703 H718 0.961 . S
C703 H719 0.960 . S
H704 C688 0.931 . S
H705 C693 0.929 . S
H706 C694 0.960 . S
H707 C694 0.962 . S
H708 C694 0.960 . S
H709 C695 0.961 . S
H710 C695 0.961 . S
H711 C695 0.961 . S
H712 C696 0.931 . S
H713 C701 0.930 . S
H714 C702 0.956 . S
H715 C702 0.961 . S
H716 C702 0.961 . S
H717 C703 0.958 . S
H718 C703 0.961 . S
H719 C703 0.960 . S
C720 C721 1.391 . S
C720 C722 1.394 . S
C720 H736 0.931 . S
C721 C720 1.391 . S
C721 C725 1.376 . S
C722 C720 1.394 . S
C722 C723 1.369 . S
C722 C726 1.531 . S
C723 C722 1.369 . S
C723 C724 1.410 . S
C723 C731 1.503 . S
C724 C723 1.410 . S
C724 C725 1.392 . S
C724 C727 1.511 . S
C725 C721 1.376 . S
C725 C724 1.392 . S
C725 H737 0.929 . S
C726 C722 1.531 . S
C726 H738 0.960 . S
C726 H739 0.962 . S
C726 H740 0.960 . S
C727 C724 1.511 . S
C727 H741 0.961 . S
C727 H742 0.961 . S
C727 H743 0.961 . S
C728 C729 1.370 . S
C728 C730 1.363 . S
C728 H744 0.931 . S
C729 C728 1.370 . S
C729 C733 1.408 . S
C730 C728 1.363 . S
C730 C731 1.370 . S
C730 C734 1.524 . S
C731 C723 1.503 . S
C731 C730 1.370 . S
C731 C732 1.403 . S
C732 C731 1.403 . S
C732 C733 1.404 . S
C732 C735 1.539 . S
C733 C729 1.408 . S
C733 C732 1.404 . S
C733 H745 0.930 . S
C734 C730 1.524 . S
C734 H746 0.956 . S
C734 H747 0.961 . S
C734 H748 0.961 . S
C735 C732 1.539 . S
C735 H749 0.958 . S
C735 H750 0.961 . S
C735 H751 0.960 . S
H736 C720 0.931 . S
H737 C725 0.929 . S
H738 C726 0.960 . S
H739 C726 0.962 . S
H740 C726 0.960 . S
H741 C727 0.961 . S
H742 C727 0.961 . S
H743 C727 0.961 . S
H744 C728 0.931 . S
H745 C733 0.930 . S
H746 C734 0.956 . S
H747 C734 0.961 . S
H748 C734 0.961 . S
H749 C735 0.958 . S
H750 C735 0.961 . S
H751 C735 0.960 . S
C752 C753 1.391 . S
C752 C754 1.394 . S
C752 H768 0.931 . S
C753 C752 1.391 . S
C753 C757 1.376 . S
C754 C752 1.394 . S
C754 C755 1.369 . S
C754 C758 1.531 . S
C755 C754 1.369 . S
C755 C756 1.410 . S
C755 C763 1.503 . S
C756 C755 1.410 . S
C756 C757 1.392 . S
C756 C759 1.511 . S
C757 C753 1.376 . S
C757 C756 1.392 . S
C757 H769 0.929 . S
C758 C754 1.531 . S
C758 H770 0.960 . S
C758 H771 0.962 . S
C758 H772 0.960 . S
C759 C756 1.511 . S
C759 H773 0.961 . S
C759 H774 0.961 . S
C759 H775 0.961 . S
C760 C761 1.370 . S
C760 C762 1.363 . S
C760 H776 0.931 . S
C761 C760 1.370 . S
C761 C765 1.408 . S
C762 C760 1.363 . S
C762 C763 1.370 . S
C762 C766 1.524 . S
C763 C755 1.503 . S
C763 C762 1.370 . S
C763 C764 1.403 . S
C764 C763 1.403 . S
C764 C765 1.404 . S
C764 C767 1.539 . S
C765 C761 1.408 . S
C765 C764 1.404 . S
C765 H777 0.930 . S
C766 C762 1.524 . S
C766 H778 0.956 . S
C766 H779 0.961 . S
C766 H780 0.961 . S
C767 C764 1.539 . S
C767 H781 0.958 . S
C767 H782 0.961 . S
C767 H783 0.960 . S
H768 C752 0.931 . S
H769 C757 0.929 . S
H770 C758 0.960 . S
H771 C758 0.962 . S
H772 C758 0.960 . S
H773 C759 0.961 . S
H774 C759 0.961 . S
H775 C759 0.961 . S
H776 C760 0.931 . S
H777 C765 0.930 . S
H778 C766 0.956 . S
H779 C766 0.961 . S
H780 C766 0.961 . S
H781 C767 0.958 . S
H782 C767 0.961 . S
H783 C767 0.960 . S
C784 C785 1.391 . S
C784 C786 1.394 . S
C784 H800 0.931 . S
C785 C784 1.391 . S
C785 C789 1.376 . S
C786 C784 1.394 . S
C786 C787 1.369 . S
C786 C790 1.531 . S
C787 C786 1.369 . S
C787 C788 1.410 . S
C787 C795 1.503 . S
C788 C787 1.410 . S
C788 C789 1.392 . S
C788 C791 1.511 . S
C789 C785 1.376 . S
C789 C788 1.392 . S
C789 H801 0.929 . S
C790 C786 1.531 . S
C790 H802 0.960 . S
C790 H803 0.962 . S
C790 H804 0.960 . S
C791 C788 1.511 . S
C791 H805 0.961 . S
C791 H806 0.961 . S
C791 H807 0.961 . S
C792 C793 1.370 . S
C792 C794 1.363 . S
C792 H808 0.931 . S
C793 C792 1.370 . S
C793 C797 1.408 . S
C794 C792 1.363 . S
C794 C795 1.370 . S
C794 C798 1.524 . S
C795 C787 1.503 . S
C795 C794 1.370 . S
C795 C796 1.403 . S
C796 C795 1.403 . S
C796 C797 1.404 . S
C796 C799 1.539 . S
C797 C793 1.408 . S
C797 C796 1.404 . S
C797 H809 0.930 . S
C798 C794 1.524 . S
C798 H810 0.956 . S
C798 H811 0.961 . S
C798 H812 0.961 . S
C799 C796 1.539 . S
C799 H813 0.958 . S
C799 H814 0.961 . S
C799 H815 0.960 . S
H800 C784 0.931 . S
H801 C789 0.929 . S
H802 C790 0.960 . S
H803 C790 0.962 . S
H804 C790 0.960 . S
H805 C791 0.961 . S
H806 C791 0.961 . S
H807 C791 0.961 . S
H808 C792 0.931 . S
H809 C797 0.930 . S
H810 C798 0.956 . S
H811 C798 0.961 . S
H812 C798 0.961 . S
H813 C799 0.958 . S
H814 C799 0.961 . S
H815 C799 0.960 . S
C816 C817 1.391 1_455 S
C816 C818 1.394 . S
C816 H832 0.931 . S
C817 C816 1.391 1_655 S
C817 C821 1.376 . S
C818 C816 1.394 . S
C818 C819 1.369 1_455 S
C818 C822 1.531 . S
C819 C818 1.369 1_655 S
C819 C820 1.410 . S
C819 C827 1.503 1_656 S
C820 C819 1.410 . S
C820 C821 1.392 . S
C820 C823 1.511 . S
C821 C817 1.376 . S
C821 C820 1.392 . S
C821 H833 0.929 . S
C822 C818 1.531 . S
C822 H834 0.940 1_556 S
C822 H835 0.962 . S
C822 H836 0.960 . S
C823 C820 1.511 . S
C823 H837 0.961 . S
C823 H838 0.961 1_556 S
C823 H839 0.961 . S
C824 C825 1.370 . S
C824 C826 1.363 . S
C824 H840 0.931 . S
C825 C824 1.370 . S
C825 C829 1.408 . S
C826 C824 1.363 . S
C826 C827 1.370 . S
C826 C830 1.524 . S
C827 C819 1.503 1_454 S
C827 C826 1.370 . S
C827 C828 1.403 1_455 S
C828 C827 1.403 1_655 S
C828 C829 1.404 1_655 S
C828 C831 1.539 . S
C829 C825 1.408 . S
C829 C828 1.404 1_455 S
C829 H841 0.930 1_455 S
C830 C826 1.524 . S
C830 H842 0.956 1_554 S
C830 H843 0.961 1_454 S
C830 H844 0.961 . S
C831 C828 1.539 . S
C831 H845 0.958 1_655 S
C831 H846 0.961 . S
C831 H847 0.960 . S
H832 C816 0.931 . S
H833 C821 0.929 . S
H834 C822 0.940 1_554 S
H835 C822 0.962 . S
H836 C822 0.960 . S
H837 C823 0.961 . S
H838 C823 0.961 1_554 S
H839 C823 0.961 . S
H840 C824 0.931 . S
H841 C829 0.930 1_655 S
H842 C830 0.956 1_556 S
H843 C830 0.961 1_656 S
H844 C830 0.961 . S
H845 C831 0.958 1_455 S
H846 C831 0.961 . S
H847 C831 0.960 . S
C848 C849 1.391 1_665 S
C848 C850 1.394 . S
C848 H864 0.931 . S
C849 C848 1.391 1_445 S
C849 C853 1.376 . S
C850 C848 1.394 . S
C850 C851 1.369 1_565 S
C850 C854 1.531 . S
C851 C850 1.369 1_545 S
C851 C852 1.410 1_655 S
C851 C859 1.503 . S
C852 C851 1.410 1_455 S
C852 C853 1.392 . S
C852 C855 1.511 . S
C853 C849 1.376 . S
C853 C852 1.392 . S
C853 H865 0.929 . S
C854 C850 1.531 . S
C854 H866 0.960 . S
C854 H867 0.962 . S
C854 H868 0.960 . S
C855 C852 1.511 . S
C855 H869 0.961 . S
C855 H870 0.961 . S
C855 H871 0.961 . S
C856 C857 1.370 1_455 S
C856 C858 1.363 . S
C856 H872 0.931 . S
C857 C856 1.370 1_655 S
C857 C861 1.408 1_565 S
C858 C856 1.363 . S
C858 C859 1.370 1_465 S
C858 C862 1.524 . S
C859 C851 1.503 . S
C859 C858 1.370 1_645 S
C859 C860 1.403 . S
C860 C859 1.403 . S
C860 C861 1.404 . S
C860 C863 1.539 . S
C861 C857 1.408 1_545 S
C861 C860 1.404 . S
C861 H873 0.930 . S
C862 C858 1.524 . S
C862 H874 0.956 . S
C862 H875 0.961 . S
C862 H876 0.961 . S
C863 C860 1.539 . S
C863 H877 0.958 . S
C863 H878 0.961 . S
C863 H879 0.960 . S
H864 C848 0.931 . S
H865 C853 0.929 . S
H866 C854 0.960 . S
H867 C854 0.962 . S
H868 C854 0.960 . S
H869 C855 0.961 . S
H870 C855 0.961 . S
H871 C855 0.961 . S
H872 C856 0.931 . S
H873 C861 0.930 . S
H874 C862 0.956 . S
H875 C862 0.961 . S
H876 C862 0.961 . S
H877 C863 0.958 . S
H878 C863 0.961 . S
H879 C863 0.960 . S
C880 C881 1.391 . S
C880 C882 1.394 . S
C880 H896 0.931 . S
C881 C880 1.391 . S
C881 C885 1.376 1_565 S
C882 C880 1.394 . S
C882 C883 1.369 . S
C882 C886 1.531 . S
C883 C882 1.369 . S
C883 C884 1.410 1_565 S
C883 C891 1.503 1_556 S
C884 C883 1.410 1_545 S
C884 C885 1.392 . S
C884 C887 1.511 . S
C885 C881 1.376 1_545 S
C885 C884 1.392 . S
C885 H897 0.929 . S
C886 C882 1.531 . S
C886 H898 0.960 1_556 S
C886 H899 0.962 . S
C886 H900 0.960 . S
C887 C884 1.511 . S
C887 H901 0.961 . S
C887 H902 0.961 1_556 S
C887 H903 0.961 . S
C888 C889 1.370 . S
C888 C890 1.363 . S
C888 H904 0.931 . S
C889 C888 1.370 . S
C889 C893 1.408 1_545 S
C890 C888 1.363 . S
C890 C891 1.370 1_545 S
C890 C894 1.524 . S
C891 C883 1.503 1_554 S
C891 C890 1.370 1_565 S
C891 C892 1.403 . S
C892 C891 1.403 . S
C892 C893 1.404 . S
C892 C895 1.539 . S
C893 C889 1.408 1_565 S
C893 C892 1.404 . S
C893 H905 0.930 . S
C894 C890 1.524 . S
C894 H906 0.956 1_554 S
C894 H907 0.961 1_554 S
C894 H908 0.961 . S
C895 C892 1.539 . S
C895 H909 0.958 . S
C895 H910 0.961 . S
C895 H911 0.960 . S
H896 C880 0.931 . S
H897 C885 0.929 . S
H898 C886 0.960 1_554 S
H899 C886 0.962 . S
H900 C886 0.960 . S
H901 C887 0.961 . S
H902 C887 0.961 1_554 S
H903 C887 0.961 . S
H904 C888 0.931 . S
H905 C893 0.930 . S
H906 C894 0.956 1_556 S
H907 C894 0.961 1_556 S
H908 C894 0.961 . S
H909 C895 0.958 . S
H910 C895 0.961 . S
H911 C895 0.960 . S
C912 C913 1.391 . S
C912 C914 1.394 . S
C912 H928 0.931 . S
C913 C912 1.391 . S
C913 C917 1.376 . S
C914 C912 1.394 . S
C914 C915 1.369 . S
C914 C918 1.531 . S
C915 C914 1.369 . S
C915 C916 1.410 . S
C915 C923 1.503 . S
C916 C915 1.410 . S
C916 C917 1.392 . S
C916 C919 1.511 . S
C917 C913 1.376 . S
C917 C916 1.392 . S
C917 H929 0.929 . S
C918 C914 1.531 . S
C918 H930 0.960 . S
C918 H931 0.962 . S
C918 H932 0.960 . S
C919 C916 1.511 . S
C919 H933 0.961 . S
C919 H934 0.961 . S
C919 H935 0.961 . S
C920 C921 1.370 . S
C920 C922 1.363 . S
C920 H936 0.931 . S
C921 C920 1.370 . S
C921 C925 1.408 . S
C922 C920 1.363 . S
C922 C923 1.370 . S
C922 C926 1.524 . S
C923 C915 1.503 . S
C923 C922 1.370 . S
C923 C924 1.403 . S
C924 C923 1.403 . S
C924 C925 1.404 . S
C924 C927 1.539 . S
C925 C921 1.408 . S
C925 C924 1.404 . S
C925 H937 0.930 . S
C926 C922 1.524 . S
C926 H938 0.956 . S
C926 H939 0.961 . S
C926 H940 0.961 . S
C927 C924 1.539 . S
C927 H941 0.958 . S
C927 H942 0.961 . S
C927 H943 0.960 . S
H928 C912 0.931 . S
H929 C917 0.929 . S
H930 C918 0.960 . S
H931 C918 0.962 . S
H932 C918 0.960 . S
H933 C919 0.961 . S
H934 C919 0.961 . S
H935 C919 0.961 . S
H936 C920 0.931 . S
H937 C925 0.930 . S
H938 C926 0.956 . S
H939 C926 0.961 . S
H940 C926 0.961 . S
H941 C927 0.958 . S
H942 C927 0.961 . S
H943 C927 0.960 . S
C177 C95 1.378 . S
C185 C7 1.348 . S
C209 C117 1.337 . S
C217 C28 1.345 . S
C241 C50 1.327 . S
C249 C138 1.368 . S
C273 C73 1.364 . S
C281 C160 1.367 . S
C305 C94 1.306 . S
C313 C6 1.362 . S
C337 C29 1.375 . S
C345 C116 1.331 . S
C369 C51 1.327 . S
C377 C139 1.335 . S
C401 C72 1.353 . S
C409 C161 1.323 . S
C433 C115 1.299 . S
C441 C71 1.351 . S
C465 C5 1.329 . S
C473 C141 1.334 . S
C497 C31 1.331 . S
C505 C163 1.336 . S
C529 C53 1.381 . S
C537 C93 1.342 . S
C561 C75 1.369 . S
C569 C119 1.364 . S
C593 C9 1.354 . S
C601 C137 1.354 . S
C625 C159 1.344 . S
C633 C27 1.323 . S
C657 C97 1.327 . S
C665 C49 1.329 . S
C689 C8 1.642 . S
C697 C48 1.652 . S
C721 C26 1.659 . S
C729 C74 1.658 . S
C753 C140 1.649 . S
C761 C92 1.655 . S
C785 C162 1.647 . S
C793 C114 1.654 . S
C817 C118 1.401 . S
C825 C4 1.443 . S
C849 C30 1.426 . S
C857 C136 1.434 . S
C881 C158 1.398 . S
C889 C52 1.444 . S
C913 C96 1.433 . S
C921 C70 1.431 . S
