# Generated by pormake.
# Topology ilc, (8)-cn, num edge types: 1
# Building blocks:
#     Node 0, Type 0, BuildingBlock: HISSIN_clean_sbu_1, # of connection points: 8
#     Node 1, Type 0, BuildingBlock: HISSIN_clean_sbu_1, # of connection points: 8
#     Node 2, Type 0, BuildingBlock: HISSIN_clean_sbu_1, # of connection points: 8
#     Edge 3, Type (0, 0), BuildingBlock: CIFDUS_clean_linker_0, # of connection points: 2
#     Edge 4, Type (0, 0), BuildingBlock: CIFDUS_clean_linker_0, # of connection points: 2
#     Edge 5, Type (0, 0), BuildingBlock: CIFDUS_clean_linker_0, # of connection points: 2
#     Edge 6, Type (0, 0), BuildingBlock: CIFDUS_clean_linker_0, # of connection points: 2
#     Edge 7, Type (0, 0), BuildingBlock: CIFDUS_clean_linker_0, # of connection points: 2
#     Edge 8, Type (0, 0), BuildingBlock: CIFDUS_clean_linker_0, # of connection points: 2
#     Edge 9, Type (0, 0), BuildingBlock: CIFDUS_clean_linker_0, # of connection points: 2
#     Edge 10, Type (0, 0), BuildingBlock: CIFDUS_clean_linker_0, # of connection points: 2
#     Edge 11, Type (0, 0), BuildingBlock: CIFDUS_clean_linker_0, # of connection points: 2
#     Edge 12, Type (0, 0), BuildingBlock: CIFDUS_clean_linker_0, # of connection points: 2
#     Edge 13, Type (0, 0), BuildingBlock: CIFDUS_clean_linker_0, # of connection points: 2
#     Edge 14, Type (0, 0), BuildingBlock: CIFDUS_clean_linker_0, # of connection points: 2
# Relax obj value: 0.178
# Max RMSD: 0.204
# Mean RMSD: 0.204
data_MOF--net-ilc--node1-HISSIN_clean_sbu_1--edge1-CIFDUS_clean_linker_0
_symmetry_space_group_name_H-M    P1
_symmetry_Int_Tables_number       1
_symmetry_cell_setting            triclinic
loop_
_symmetry_equiv_pos_as_xyz
'x, y, z'
_cell_length_a     20.779744
_cell_length_b     27.906436
_cell_length_c     17.449914
_cell_angle_alpha  101.19859
_cell_angle_beta   75.359406
_cell_angle_gamma 145.37133
loop_
_atom_site_label
_atom_site_type_symbol
_atom_site_fract_x
_atom_site_fract_y
_atom_site_fract_z
_atom_type_partial_charge
Eu0 Eu 0.90853 0.95024 0.95406 0.0
C1 C 0.16412 0.09784 0.8754 0.0
O2 O 0.83624 0.8464 0.86827 0.0
C3 C 0.24248 0.10632 0.16734 0.0
C4 C 0.27411 0.11091 0.31643 0.0
C5 C 0.25366 0.15314 0.22791 0.0
C6 C 0.26707 0.1541 0.30287 0.0
C7 C 0.24442 0.05981 0.18243 0.0
C8 C 0.25955 0.06162 0.25782 0.0
Eu9 Eu 0.13174 0.12363 0.05362 0.0
O10 O 0.84094 0.90704 0.08185 0.0
O11 O 0.21119 0.23752 0.12102 0.0
O12 O 0.17946 0.14885 0.92191 0.0
O13 O 0.95775 1.0392 0.13144 0.0
C14 C 0.16752 0.25555 0.13358 0.0
O15 O 0.07887 0.20958 0.10077 0.0
O16 O 0.11087 1.03854 0.08395 0.0
C17 C 0.21964 0.1018 0.09128 0.0
C18 C 0.87443 0.8241 0.85855 0.0
O19 O 0.93986 0.85349 0.90737 0.0
O20 O 0.28119 0.17409 0.06548 0.0
O21 O 0.07908 1.01892 0.89729 0.0
C22 C 0.8912 1.02683 0.92294 0.0
O23 O 0.96331 0.05883 0.96636 0.0
C24 C 0.94282 0.08428 0.86018 0.0
C25 C 0.05566 0.20339 0.74752 0.0
C26 C 1.03055 0.11436 0.80055 0.0
C27 C 0.08486 0.17249 0.74334 0.0
C28 C 0.904 0.10816 0.8579 0.0
C29 C 0.95977 0.16727 0.79977 0.0
C30 C 0.86599 0.95603 0.14064 0.0
O31 O 0.82039 0.94842 0.90335 0.0
H32 H 0.27686 0.10735 0.37611 0.0
H33 H 0.24476 0.18467 0.21829 0.0
H34 H 0.23031 1.02037 0.13693 0.0
H35 H 0.09676 0.24584 0.70003 0.0
H36 H 1.05183 0.0891 0.7961 0.0
H37 H 0.82999 0.07975 0.89957 0.0
Eu38 Eu 0.65444 0.31519 0.28886 0.0
C39 C 0.91144 0.48571 0.20713 0.0
O40 O 0.58414 0.20646 0.21451 0.0
C41 C 0.85183 0.37222 0.4951 0.0
C42 C 0.75034 0.27516 0.62896 0.0
C43 C 0.78346 0.36148 0.55816 0.0
C44 C 0.73521 0.31479 0.62552 0.0
C45 C 0.87764 0.33981 0.50223 0.0
C46 C 0.82737 0.29167 0.57065 0.0
Eu47 Eu 0.86274 0.48468 0.39333 0.0
O48 O 0.59402 0.27501 0.41749 0.0
O49 O 0.92373 0.58415 0.48048 0.0
O50 O 0.92722 0.53036 0.26678 0.0
O51 O 0.68457 0.40103 0.45211 0.0
C52 C 0.87517 0.59854 0.49352 0.0
O53 O 0.80199 0.56228 0.44822 0.0
O54 O 0.826 0.38482 0.38127 0.0
C55 C 0.90069 0.42291 0.42614 0.0
C56 C 0.59049 0.16638 0.23114 0.0
O57 O 0.62951 0.18563 0.29574 0.0
O58 O 0.96676 0.5009 0.44149 0.0
O59 O 0.83192 0.40452 0.21706 0.0
C60 C 0.5931 0.36065 0.25894 0.0
O61 O 0.67706 0.40722 0.29807 0.0
C62 C 0.62715 0.40362 0.18934 0.0
C63 C 0.70542 0.49052 0.05549 0.0
C64 C 0.69345 0.41526 0.12257 0.0
C65 C 0.73024 0.45705 0.05536 0.0
C66 C 0.5924 0.4304 0.18682 0.0
C67 C 0.62913 0.47194 0.11783 0.0
C68 C 0.60837 0.32269 0.47074 0.0
O69 O 0.53304 0.28412 0.24698 0.0
H70 H 0.71771 0.24356 0.68415 0.0
H71 H 0.77512 0.39494 0.55737 0.0
H72 H 0.93905 0.35451 0.45702 0.0
H73 H 0.73429 0.52216 1.00191 0.0
H74 H 0.71139 0.38794 0.12135 0.0
H75 H 0.53436 0.41616 0.23622 0.0
Eu76 Eu 0.2948 0.66373 0.57699 0.0
C77 C 0.56422 0.82526 0.59487 0.0
O78 O 0.25129 0.58336 0.47195 0.0
C79 C 0.44596 0.64424 0.85754 0.0
C80 C 0.34267 0.54557 0.99089 0.0
C81 C 0.35282 0.61247 0.90881 0.0
C82 C 0.30593 0.56799 0.97816 0.0
C83 C 0.48549 0.62378 0.87145 0.0
C84 C 0.43302 0.57374 0.93857 0.0
Eu85 Eu 0.51182 0.79784 0.76978 0.0
O86 O 0.19755 0.59362 0.69543 0.0
O87 O 0.52688 0.86861 0.87385 0.0
O88 O 0.62286 0.87063 0.65352 0.0
O89 O 0.3403 0.72038 0.75015 0.0
C90 C 0.50786 0.90189 0.86451 0.0
O91 O 0.48273 0.89226 0.79615 0.0
O92 O 0.44183 0.68235 0.75219 0.0
C93 C 0.50743 0.7061 0.79601 0.0
C94 C 0.28594 0.5585 0.45972 0.0
O95 O 0.34483 0.58078 0.50984 0.0
O96 O 0.58343 0.7845 0.81905 0.0
O97 O 0.45998 0.74609 0.61414 0.0
C98 C 0.27208 0.74004 0.56276 0.0
O99 O 0.37113 0.77607 0.54421 0.0
C100 C 0.23985 0.74225 0.49946 0.0
C101 C 0.18959 0.74934 0.37196 0.0
C102 C 0.22579 0.70227 0.42894 0.0
C103 C 0.2047 0.70843 0.36447 0.0
C104 C 0.23116 0.78801 0.50569 0.0
C105 C 0.20499 0.79114 0.44131 0.0
C106 C 0.24453 0.63783 0.759 0.0
O107 O 0.18963 0.66599 0.59856 0.0
H108 H 0.30722 0.51173 0.04502 0.0
H109 H 0.32551 0.63089 0.89941 0.0
H110 H 0.55885 0.64917 0.83256 0.0
H111 H 0.17633 0.75507 0.32003 0.0
H112 H 0.2394 0.67146 0.42253 0.0
H113 H 0.24684 0.82198 0.55905 0.0
H114 H 0.99873 0.10849 0.61151 0.0
H115 H 0.30233 0.26386 0.70269 0.0
H116 H 0.39941 0.28811 0.567 0.0
H117 H 0.38683 0.25128 0.42496 0.0
H118 H 0.08425 0.10466 0.33778 0.0
H119 H 0.99921 0.09405 0.47025 0.0
C120 C 0.08597 0.1469 0.60154 0.0
C121 C 0.14267 0.18158 0.66603 0.0
C122 C 0.14146 0.16325 0.52469 0.0
C123 C 0.25624 0.23335 0.65345 0.0
C124 C 0.31165 0.24802 0.57632 0.0
C125 C 0.30415 0.21979 0.43488 0.0
C126 C 0.24118 0.17806 0.37236 0.0
C127 C 0.25412 0.21196 0.51168 0.0
C128 C 0.13457 0.13778 0.38497 0.0
C129 C 0.08475 0.13006 0.46087 0.0
H130 H 0.88712 0.45841 0.70019 0.0
H131 H 0.52732 0.20661 0.72125 0.0
H132 H 0.49765 0.22718 0.86225 0.0
H133 H 0.57769 0.31511 0.97911 0.0
H134 H 0.93794 0.56611 0.95867 0.0
H135 H 0.96725 0.54632 0.81711 0.0
C136 C 0.80177 0.40925 0.73554 0.0
C137 C 0.70839 0.33222 0.70132 0.0
C138 C 0.78754 0.42004 0.81638 0.0
C139 C 0.59887 0.26706 0.74702 0.0
C140 C 0.58279 0.27833 0.82736 0.0
C141 C 0.66295 0.36438 0.94362 0.0
C142 C 0.75658 0.4409 0.97811 0.0
C143 C 0.67715 0.35375 0.86275 0.0
C144 C 0.86618 0.50609 0.93256 0.0
C145 C 0.88204 0.49524 0.85194 0.0
H146 H 0.36805 0.69796 0.01974 0.0
H147 H 0.12226 0.44336 0.09203 0.0
H148 H 0.06602 0.46401 0.22086 0.0
H149 H 0.10393 0.56098 0.31542 0.0
H150 H 0.34911 0.81361 0.23741 0.0
H151 H 0.39032 0.78714 0.10653 0.0
C152 C 0.29907 0.64543 0.06211 0.0
C153 C 0.24872 0.56903 0.04637 0.0
C154 C 0.26999 0.65836 0.13526 0.0
C155 C 0.16199 0.5028 0.1032 0.0
C156 C 0.13091 0.51487 0.17678 0.0
C157 C 0.16459 0.60932 0.26939 0.0
C158 C 0.22202 0.68832 0.2852 0.0
C159 C 0.18718 0.59344 0.19407 0.0
C160 C 0.30246 0.75166 0.22568 0.0
C161 C 0.32655 0.73688 0.15123 0.0
H162 H 0.06063 0.75573 0.38283 0.0
H163 H 0.37071 0.9561 0.48491 0.0
H164 H 0.41895 0.05992 0.43297 0.0
H165 H 0.38362 0.09414 0.34524 0.0
H166 H 0.08379 0.89341 0.23153 0.0
H167 H 1.02578 0.78936 0.29576 0.0
C168 C 0.13794 0.82211 0.39481 0.0
C169 C 0.2126 0.84826 0.43686 0.0
C170 C 0.17017 0.88148 0.35879 0.0
C171 C 0.31126 0.93415 0.4533 0.0
C172 C 0.34032 0.99366 0.42186 0.0
C173 C 0.30648 1.02762 0.33369 0.0
C174 C 0.23885 1.0015 0.28281 0.0
C175 C 0.27286 0.96817 0.37171 0.0
C176 C 0.13876 0.91523 0.26874 0.0
C177 C 0.10431 0.85567 0.30678 0.0
H178 H 0.36482 0.51257 0.41099 0.0
H179 H 0.1461 0.48584 0.35382 0.0
H180 H 0.09504 0.39354 0.24491 0.0
H181 H 0.1058 0.31515 0.16967 0.0
H182 H 0.32472 0.34265 0.22863 0.0
H183 H 0.38291 0.44037 0.33226 0.0
C184 C 0.30613 0.48681 0.37469 0.0
C185 C 0.25857 0.50557 0.39125 0.0
C186 C 0.27715 0.43385 0.31222 0.0
C187 C 0.18366 0.47223 0.34281 0.0
C188 C 0.1544 0.41941 0.28043 0.0
C189 C 0.16684 0.34296 0.20482 0.0
C190 C 0.21014 0.32095 0.19141 0.0
C191 C 0.19963 0.39901 0.26511 0.0
C192 C 0.2896 0.35804 0.23746 0.0
C193 C 0.32277 0.41385 0.29712 0.0
H194 H 0.50679 0.74094 0.45591 0.0
H195 H 0.74532 0.99032 0.54942 0.0
H196 H 0.85502 1.05237 0.41647 0.0
H197 H 0.89446 1.03679 0.27615 0.0
H198 H 0.66138 0.78767 0.18231 0.0
H199 H 0.53954 0.72483 0.31251 0.0
C200 C 0.58134 0.80866 0.44686 0.0
C201 C 0.61737 0.86074 0.51263 0.0
C202 C 0.64675 0.8442 0.37028 0.0
C203 C 0.71548 0.94868 0.49998 0.0
C204 C 0.77883 0.98429 0.42395 0.0
C205 C 0.81658 0.96868 0.28368 0.0
C206 C 0.78808 0.91733 0.219 0.0
C207 C 0.74725 0.93283 0.35901 0.0
C208 C 0.68639 0.8291 0.23068 0.0
C209 C 0.61633 0.79296 0.30531 0.0
H210 H 0.70608 0.14456 0.62553 0.0
H211 H 1.04885 0.4073 0.57895 0.0
H212 H 0.11416 0.39611 0.66298 0.0
H213 H 0.07185 0.31382 0.75454 0.0
H214 H 0.73575 1.04751 0.78965 0.0
H215 H 0.66624 0.05949 0.71198 0.0
C216 C 0.7959 0.19854 0.63183 0.0
C217 C 0.87297 0.27643 0.59512 0.0
C218 C 0.83198 0.19216 0.68211 0.0
C219 C 0.98864 0.34627 0.60472 0.0
C220 C 1.02521 0.34039 0.6545 0.0
C221 C 0.98285 0.25841 0.74596 0.0
C222 C 0.90898 0.17966 0.7782 0.0
C223 C 0.94696 0.26425 0.69494 0.0
C224 C 0.79367 0.10904 0.76742 0.0
C225 C 0.75498 0.11548 0.72087 0.0
H226 H 0.7819 0.63429 0.53748 0.0
H227 H 1.00248 0.66893 0.60893 0.0
H228 H 1.01833 0.73885 0.72845 0.0
H229 H 0.96749 0.78839 0.81391 0.0
H230 H 0.74859 0.75531 0.74222 0.0
H231 H 0.73238 0.68512 0.6226 0.0
C232 C 0.83406 0.65749 0.57889 0.0
C233 C 0.89149 0.64653 0.56357 0.0
C234 C 0.84174 0.69692 0.64822 0.0
C235 C 0.95823 0.67698 0.6184 0.0
C236 C 0.9667 0.71657 0.6872 0.0
C237 C 0.91547 0.76541 0.77252 0.0
C238 C 0.85826 0.77657 0.78794 0.0
C239 C 0.90822 0.72638 0.70303 0.0
C240 C 0.79242 0.74691 0.73277 0.0
C241 C 0.78377 0.70718 0.66394 0.0
H242 H 0.40545 0.15945 0.52512 0.0
H243 H 0.66553 0.41781 0.59916 0.0
H244 H 0.55405 0.37148 0.73161 0.0
H245 H 0.37738 0.25846 0.82493 0.0
H246 H 0.1148 0.99996 0.75163 0.0
H247 H 0.2318 1.04534 0.62124 0.0
C248 C 0.43792 0.2053 0.57056 0.0
C249 C 0.54264 0.29172 0.552 0.0
C250 C 0.37245 0.1784 0.64685 0.0
C251 C 0.58403 0.35072 0.61149 0.0
C252 C 0.52052 0.32445 0.68746 0.0
C253 C 0.34605 0.21219 0.78042 0.0
C254 C 0.23751 0.12632 0.79764 0.0
C255 C 0.41363 0.23859 0.70545 0.0
C256 C 0.19831 0.06676 0.73975 0.0
C257 C 0.26504 0.09253 0.66505 0.0
H258 H 0.54999 0.43484 0.98598 0.0
H259 H 0.59835 0.54427 0.21553 0.0
H260 H 0.54338 0.58718 0.17918 0.0
H261 H 0.49303 0.60032 0.07847 0.0
H262 H 0.4637 0.50185 0.84541 0.0
H263 H 0.50758 0.45224 0.88515 0.0
C264 C 0.5497 0.46888 0.02807 0.0
C265 C 0.58028 0.4878 0.10298 0.0
C266 C 0.52477 0.49716 1.00516 0.0
C267 C 0.57547 0.52919 0.15762 0.0
C268 C 0.54555 0.55457 0.13637 0.0
C269 C 0.49697 0.56837 0.03636 0.0
C270 C 0.47505 0.55441 0.95905 0.0
C271 C 0.52237 0.54032 0.05971 0.0
C272 C 0.48136 0.51383 0.90474 0.0
C273 C 0.50503 0.48472 0.9278 0.0
H274 H 0.52985 0.92053 0.02105 0.0
H275 H 0.50868 0.9971 0.84773 0.0
H276 H 0.52576 0.08093 0.94561 0.0
H277 H 0.55166 0.13645 0.07957 0.0
H278 H 0.57341 0.06169 0.25453 0.0
H279 H 0.54916 0.97287 0.15808 0.0
C280 C 0.52879 0.95544 1.00486 0.0
C281 C 0.51807 0.95219 0.92673 0.0
C282 C 0.53817 1.0039 0.06209 0.0
C283 C 0.51654 0.99787 0.90714 0.0
C284 C 0.52633 1.04612 0.96324 0.0
C285 C 0.55017 0.10025 0.09695 0.0
C286 C 0.56508 0.10643 0.17431 0.0
C287 C 0.53756 1.04994 0.04083 0.0
C288 C 0.56293 0.05883 0.19536 0.0
C289 C 0.5493 1.008 0.14006 0.0
H290 H 0.25835 0.71142 0.89463 0.0
H291 H 0.07865 0.474 0.8027 0.0
H292 H 0.96123 0.40633 0.93345 0.0
H293 H 0.90722 0.41416 0.0731 0.0
H294 H 0.0792 0.65002 0.16233 0.0
H295 H 0.20078 0.71835 0.03314 0.0
C296 C 0.19426 0.64504 0.90335 0.0
C297 C 0.17817 0.59799 0.83919 0.0
C298 C 0.12472 0.60604 0.978 0.0
C299 C 0.0931 0.51165 0.85118 0.0
C300 C 1.02577 0.47293 0.92588 0.0
C301 C 0.97131 0.48055 0.0645 0.0
C302 C 0.9846 0.52695 0.12803 0.0
C303 C 1.04031 0.51938 0.98962 0.0
C304 C 0.06724 0.61268 0.11499 0.0
C305 C 0.13696 0.65192 0.04097 0.0
loop_
_geom_bond_atom_site_label_1
_geom_bond_atom_site_label_2
_geom_bond_distance
_geom_bond_site_symmetry_2
_ccdc_geom_bond_type
Eu0 O2 2.323 . S
Eu0 O10 2.328 1_556 S
Eu0 O21 2.316 1_655 S
Eu0 C22 2.837 . S
Eu0 O23 2.488 . S
Eu0 O31 2.461 . S
C1 O12 1.251 . S
C1 O21 1.237 1_545 S
O2 Eu0 2.323 . S
O2 C18 1.279 . S
C3 C5 1.383 . S
C3 C7 1.388 1_545 S
C3 C17 1.491 . S
C4 C6 1.403 . S
C4 C8 1.385 . S
C4 H32 0.931 . S
C5 C3 1.383 . S
C5 C6 1.393 1_545 S
C5 H33 0.930 . S
C6 C4 1.403 . S
C6 C5 1.393 1_565 S
C7 C3 1.388 1_565 S
C7 C8 1.394 . S
C7 H34 0.930 . S
C8 C4 1.385 . S
C8 C7 1.394 . S
Eu9 O11 2.323 . S
Eu9 O12 2.328 1_554 S
Eu9 O13 2.316 1_455 S
Eu9 O16 2.488 . S
Eu9 C17 2.837 . S
Eu9 O20 2.461 . S
O10 Eu0 2.328 1_554 S
O10 C30 1.251 . S
O11 Eu9 2.323 . S
O11 C14 1.279 . S
O12 C1 1.251 . S
O12 Eu9 2.328 1_556 S
O13 Eu9 2.316 1_655 S
O13 C30 1.237 1_545 S
C14 O11 1.279 . S
C14 O15 1.244 . S
O15 C14 1.244 . S
O16 Eu9 2.488 . S
O16 C17 1.271 . S
C17 C3 1.491 . S
C17 Eu9 2.837 . S
C17 O16 1.271 . S
C17 O20 1.261 . S
C18 O2 1.279 . S
C18 O19 1.244 . S
O19 C18 1.244 . S
O20 Eu9 2.461 . S
O20 C17 1.261 . S
O21 Eu0 2.316 1_455 S
O21 C1 1.237 1_565 S
C22 Eu0 2.837 . S
C22 O23 1.271 . S
C22 C24 1.491 . S
C22 O31 1.261 . S
O23 Eu0 2.488 . S
O23 C22 1.271 . S
C24 C22 1.491 . S
C24 C26 1.383 . S
C24 C28 1.388 1_565 S
C25 C27 1.403 . S
C25 C29 1.385 . S
C25 H35 0.931 . S
C26 C24 1.383 . S
C26 C27 1.393 1_565 S
C26 H36 0.930 . S
C27 C25 1.403 . S
C27 C26 1.393 1_545 S
C28 C24 1.388 1_545 S
C28 C29 1.394 . S
C28 H37 0.930 . S
C29 C25 1.385 . S
C29 C28 1.394 . S
C30 O10 1.251 . S
C30 O13 1.237 1_565 S
O31 Eu0 2.461 . S
O31 C22 1.261 . S
H32 C4 0.931 . S
H33 C5 0.930 . S
H34 C7 0.930 . S
H35 C25 0.931 . S
H36 C26 0.930 . S
H37 C28 0.930 . S
Eu38 O40 2.323 . S
Eu38 O48 2.328 . S
Eu38 O59 2.316 . S
Eu38 C60 2.837 . S
Eu38 O61 2.488 . S
Eu38 O69 2.461 . S
C39 O50 1.251 . S
C39 O59 1.237 . S
O40 Eu38 2.323 . S
O40 C56 1.279 . S
C41 C43 1.383 . S
C41 C45 1.388 . S
C41 C55 1.491 . S
C42 C44 1.403 . S
C42 C46 1.385 . S
C42 H70 0.931 . S
C43 C41 1.383 . S
C43 C44 1.393 . S
C43 H71 0.930 . S
C44 C42 1.403 . S
C44 C43 1.393 . S
C45 C41 1.388 . S
C45 C46 1.394 . S
C45 H72 0.930 . S
C46 C42 1.385 . S
C46 C45 1.394 . S
Eu47 O49 2.323 . S
Eu47 O50 2.328 . S
Eu47 O51 2.316 . S
Eu47 O54 2.488 . S
Eu47 C55 2.837 . S
Eu47 O58 2.461 . S
O48 Eu38 2.328 . S
O48 C68 1.251 . S
O49 Eu47 2.323 . S
O49 C52 1.279 . S
O50 C39 1.251 . S
O50 Eu47 2.328 . S
O51 Eu47 2.316 . S
O51 C68 1.237 . S
C52 O49 1.279 . S
C52 O53 1.244 . S
O53 C52 1.244 . S
O54 Eu47 2.488 . S
O54 C55 1.271 . S
C55 C41 1.491 . S
C55 Eu47 2.837 . S
C55 O54 1.271 . S
C55 O58 1.261 . S
C56 O40 1.279 . S
C56 O57 1.244 . S
O57 C56 1.244 . S
O58 Eu47 2.461 . S
O58 C55 1.261 . S
O59 Eu38 2.316 . S
O59 C39 1.237 . S
C60 Eu38 2.837 . S
C60 O61 1.271 . S
C60 C62 1.491 . S
C60 O69 1.261 . S
O61 Eu38 2.488 . S
O61 C60 1.271 . S
C62 C60 1.491 . S
C62 C64 1.383 . S
C62 C66 1.388 . S
C63 C65 1.403 . S
C63 C67 1.385 . S
C63 H73 0.931 . S
C64 C62 1.383 . S
C64 C65 1.393 . S
C64 H74 0.930 . S
C65 C63 1.403 . S
C65 C64 1.393 . S
C66 C62 1.388 . S
C66 C67 1.394 . S
C66 H75 0.930 . S
C67 C63 1.385 . S
C67 C66 1.394 . S
C68 O48 1.251 . S
C68 O51 1.237 . S
O69 Eu38 2.461 . S
O69 C60 1.261 . S
H70 C42 0.931 . S
H71 C43 0.930 . S
H72 C45 0.930 . S
H73 C63 0.931 . S
H74 C64 0.930 . S
H75 C66 0.930 . S
Eu76 O78 2.323 . S
Eu76 O86 2.328 . S
Eu76 O97 2.316 . S
Eu76 C98 2.837 . S
Eu76 O99 2.488 . S
Eu76 O107 2.461 . S
C77 O88 1.251 . S
C77 O97 1.237 . S
O78 Eu76 2.323 . S
O78 C94 1.279 . S
C79 C81 1.383 . S
C79 C83 1.388 . S
C79 C93 1.491 . S
C80 C82 1.403 . S
C80 C84 1.385 . S
C80 H108 0.931 . S
C81 C79 1.383 . S
C81 C82 1.393 . S
C81 H109 0.930 . S
C82 C80 1.403 . S
C82 C81 1.393 . S
C83 C79 1.388 . S
C83 C84 1.394 . S
C83 H110 0.930 . S
C84 C80 1.385 . S
C84 C83 1.394 . S
Eu85 O87 2.323 . S
Eu85 O88 2.328 . S
Eu85 O89 2.316 . S
Eu85 O92 2.488 . S
Eu85 C93 2.837 . S
Eu85 O96 2.461 . S
O86 Eu76 2.328 . S
O86 C106 1.251 . S
O87 Eu85 2.323 . S
O87 C90 1.279 . S
O88 C77 1.251 . S
O88 Eu85 2.328 . S
O89 Eu85 2.316 . S
O89 C106 1.237 . S
C90 O87 1.279 . S
C90 O91 1.244 . S
O91 C90 1.244 . S
O92 Eu85 2.488 . S
O92 C93 1.271 . S
C93 C79 1.491 . S
C93 Eu85 2.837 . S
C93 O92 1.271 . S
C93 O96 1.261 . S
C94 O78 1.279 . S
C94 O95 1.244 . S
O95 C94 1.244 . S
O96 Eu85 2.461 . S
O96 C93 1.261 . S
O97 Eu76 2.316 . S
O97 C77 1.237 . S
C98 Eu76 2.837 . S
C98 O99 1.271 . S
C98 C100 1.491 . S
C98 O107 1.261 . S
O99 Eu76 2.488 . S
O99 C98 1.271 . S
C100 C98 1.491 . S
C100 C102 1.383 . S
C100 C104 1.388 . S
C101 C103 1.403 . S
C101 C105 1.385 . S
C101 H111 0.931 . S
C102 C100 1.383 . S
C102 C103 1.393 . S
C102 H112 0.930 . S
C103 C101 1.403 . S
C103 C102 1.393 . S
C104 C100 1.388 . S
C104 C105 1.394 . S
C104 H113 0.930 . S
C105 C101 1.385 . S
C105 C104 1.394 . S
C106 O86 1.251 . S
C106 O89 1.237 . S
O107 Eu76 2.461 . S
O107 C98 1.261 . S
H108 C80 0.931 . S
H109 C81 0.930 . S
H110 C83 0.930 . S
H111 C101 0.931 . S
H112 C102 0.930 . S
H113 C104 0.930 . S
H114 C120 0.930 . S
H115 C123 0.930 1_455 S
H116 C124 0.930 . S
H117 C125 0.930 . S
H118 C128 0.930 1_655 S
H119 C129 0.930 . S
C120 H114 0.930 . S
C120 C121 1.355 1_565 S
C120 C122 1.415 . S
C121 C120 1.355 1_545 S
C121 C123 1.419 . S
C122 C120 1.415 . S
C122 C127 1.425 1_665 S
C122 C129 1.409 . S
C123 H115 0.930 1_655 S
C123 C121 1.419 . S
C123 C124 1.362 1_655 S
C124 H116 0.930 . S
C124 C123 1.362 1_455 S
C124 C127 1.409 . S
C125 H117 0.930 . S
C125 C126 1.355 1_545 S
C125 C127 1.415 . S
C126 C125 1.355 1_565 S
C126 C128 1.419 . S
C127 C122 1.425 1_445 S
C127 C124 1.409 . S
C127 C125 1.415 . S
C128 H118 0.930 1_455 S
C128 C126 1.419 . S
C128 C129 1.362 1_455 S
C129 H119 0.930 . S
C129 C122 1.409 . S
C129 C128 1.362 1_655 S
H130 C136 0.930 . S
H131 C139 0.930 . S
H132 C140 0.930 . S
H133 C141 0.930 . S
H134 C144 0.930 1_554 S
H135 C145 0.930 . S
C136 H130 0.930 . S
C136 C137 1.355 . S
C136 C138 1.415 . S
C137 C136 1.355 . S
C137 C139 1.419 . S
C138 C136 1.415 . S
C138 C143 1.425 . S
C138 C145 1.409 . S
C139 H131 0.930 . S
C139 C137 1.419 . S
C139 C140 1.362 . S
C140 H132 0.930 . S
C140 C139 1.362 . S
C140 C143 1.409 . S
C141 H133 0.930 . S
C141 C142 1.355 . S
C141 C143 1.415 . S
C142 C141 1.355 . S
C142 C144 1.419 . S
C143 C138 1.425 . S
C143 C140 1.409 . S
C143 C141 1.415 . S
C144 H134 0.930 1_556 S
C144 C142 1.419 . S
C144 C145 1.362 . S
C145 H135 0.930 . S
C145 C138 1.409 . S
C145 C144 1.362 . S
H146 C152 0.930 . S
H147 C155 0.930 . S
H148 C156 0.930 . S
H149 C157 0.930 . S
H150 C160 0.930 . S
H151 C161 0.930 . S
C152 H146 0.930 . S
C152 C153 1.355 . S
C152 C154 1.415 . S
C153 C152 1.355 . S
C153 C155 1.419 . S
C154 C152 1.415 . S
C154 C159 1.425 . S
C154 C161 1.409 . S
C155 H147 0.930 . S
C155 C153 1.419 . S
C155 C156 1.362 . S
C156 H148 0.930 . S
C156 C155 1.362 . S
C156 C159 1.409 . S
C157 H149 0.930 . S
C157 C158 1.355 . S
C157 C159 1.415 . S
C158 C157 1.355 . S
C158 C160 1.419 . S
C159 C154 1.425 . S
C159 C156 1.409 . S
C159 C157 1.415 . S
C160 H150 0.930 . S
C160 C158 1.419 . S
C160 C161 1.362 . S
C161 H151 0.930 . S
C161 C154 1.409 . S
C161 C160 1.362 . S
H162 C168 0.930 . S
H163 C171 0.930 . S
H164 C172 0.930 . S
H165 C173 0.930 . S
H166 C176 0.930 1_655 S
H167 C177 0.930 1_655 S
C168 H162 0.930 . S
C168 C169 1.355 . S
C168 C170 1.415 . S
C169 C168 1.355 . S
C169 C171 1.419 . S
C170 C168 1.415 . S
C170 C175 1.425 . S
C170 C177 1.409 . S
C171 H163 0.930 . S
C171 C169 1.419 . S
C171 C172 1.362 . S
C172 H164 0.930 . S
C172 C171 1.362 . S
C172 C175 1.409 . S
C173 H165 0.930 . S
C173 C174 1.355 . S
C173 C175 1.415 . S
C174 C173 1.355 . S
C174 C176 1.419 . S
C175 C170 1.425 . S
C175 C172 1.409 . S
C175 C173 1.415 . S
C176 H166 0.930 1_455 S
C176 C174 1.419 . S
C176 C177 1.362 . S
C177 H167 0.930 1_455 S
C177 C170 1.409 . S
C177 C176 1.362 . S
H178 C184 0.930 . S
H179 C187 0.930 . S
H180 C188 0.930 . S
H181 C189 0.930 . S
H182 C192 0.930 1_655 S
H183 C193 0.930 . S
C184 H178 0.930 . S
C184 C185 1.355 . S
C184 C186 1.415 . S
C185 C184 1.355 . S
C185 C187 1.419 . S
C186 C184 1.415 . S
C186 C191 1.425 . S
C186 C193 1.409 . S
C187 H179 0.930 . S
C187 C185 1.419 . S
C187 C188 1.362 . S
C188 H180 0.930 . S
C188 C187 1.362 . S
C188 C191 1.409 . S
C189 H181 0.930 . S
C189 C190 1.355 . S
C189 C191 1.415 . S
C190 C189 1.355 . S
C190 C192 1.419 . S
C191 C186 1.425 . S
C191 C188 1.409 . S
C191 C189 1.415 . S
C192 H182 0.930 1_455 S
C192 C190 1.419 . S
C192 C193 1.362 . S
C193 H183 0.930 . S
C193 C186 1.409 . S
C193 C192 1.362 . S
H194 C200 0.930 . S
H195 C203 0.930 . S
H196 C204 0.930 . S
H197 C205 0.930 . S
H198 C208 0.930 . S
H199 C209 0.930 . S
C200 H194 0.930 . S
C200 C201 1.355 . S
C200 C202 1.415 . S
C201 C200 1.355 . S
C201 C203 1.419 . S
C202 C200 1.415 . S
C202 C207 1.425 . S
C202 C209 1.409 . S
C203 H195 0.930 . S
C203 C201 1.419 . S
C203 C204 1.362 . S
C204 H196 0.930 . S
C204 C203 1.362 . S
C204 C207 1.409 . S
C205 H197 0.930 . S
C205 C206 1.355 . S
C205 C207 1.415 . S
C206 C205 1.355 . S
C206 C208 1.419 . S
C207 C202 1.425 . S
C207 C204 1.409 . S
C207 C205 1.415 . S
C208 H198 0.930 . S
C208 C206 1.419 . S
C208 C209 1.362 . S
C209 H199 0.930 . S
C209 C202 1.409 . S
C209 C208 1.362 . S
H210 C216 0.930 . S
H211 C219 0.930 . S
H212 C220 0.930 . S
H213 C221 0.930 . S
H214 C224 0.930 . S
H215 C225 0.930 . S
C216 H210 0.930 . S
C216 C217 1.355 . S
C216 C218 1.415 . S
C217 C216 1.355 . S
C217 C219 1.419 . S
C218 C216 1.415 . S
C218 C223 1.425 . S
C218 C225 1.409 . S
C219 H211 0.930 . S
C219 C217 1.419 . S
C219 C220 1.362 . S
C220 H212 0.930 . S
C220 C219 1.362 . S
C220 C223 1.409 . S
C221 H213 0.930 . S
C221 C222 1.355 . S
C221 C223 1.415 . S
C222 C221 1.355 . S
C222 C224 1.419 . S
C223 C218 1.425 . S
C223 C220 1.409 . S
C223 C221 1.415 . S
C224 H214 0.930 . S
C224 C222 1.419 . S
C224 C225 1.362 . S
C225 H215 0.930 . S
C225 C218 1.409 . S
C225 C224 1.362 . S
H226 C232 0.930 . S
H227 C235 0.930 . S
H228 C236 0.930 . S
H229 C237 0.930 . S
H230 C240 0.930 . S
H231 C241 0.930 . S
C232 H226 0.930 . S
C232 C233 1.355 . S
C232 C234 1.415 . S
C233 C232 1.355 . S
C233 C235 1.419 . S
C234 C232 1.415 . S
C234 C239 1.425 . S
C234 C241 1.409 . S
C235 H227 0.930 . S
C235 C233 1.419 . S
C235 C236 1.362 . S
C236 H228 0.930 . S
C236 C235 1.362 . S
C236 C239 1.409 . S
C237 H229 0.930 . S
C237 C238 1.355 . S
C237 C239 1.415 . S
C238 C237 1.355 . S
C238 C240 1.419 . S
C239 C234 1.425 . S
C239 C236 1.409 . S
C239 C237 1.415 . S
C240 H230 0.930 . S
C240 C238 1.419 . S
C240 C241 1.362 . S
C241 H231 0.930 . S
C241 C234 1.409 . S
C241 C240 1.362 . S
H242 C248 0.930 . S
H243 C251 0.930 . S
H244 C252 0.930 . S
H245 C253 0.930 . S
H246 C256 0.930 . S
H247 C257 0.930 . S
C248 H242 0.930 . S
C248 C249 1.355 . S
C248 C250 1.415 . S
C249 C248 1.355 . S
C249 C251 1.419 . S
C250 C248 1.415 . S
C250 C255 1.425 . S
C250 C257 1.409 . S
C251 H243 0.930 . S
C251 C249 1.419 . S
C251 C252 1.362 . S
C252 H244 0.930 . S
C252 C251 1.362 . S
C252 C255 1.409 . S
C253 H245 0.930 . S
C253 C254 1.355 . S
C253 C255 1.415 . S
C254 C253 1.355 . S
C254 C256 1.419 . S
C255 C250 1.425 . S
C255 C252 1.409 . S
C255 C253 1.415 . S
C256 H246 0.930 . S
C256 C254 1.419 . S
C256 C257 1.362 . S
C257 H247 0.930 . S
C257 C250 1.409 . S
C257 C256 1.362 . S
H258 C264 0.930 . S
H259 C267 0.930 . S
H260 C268 0.930 . S
H261 C269 0.930 . S
H262 C272 0.930 . S
H263 C273 0.930 . S
C264 H258 0.930 . S
C264 C265 1.355 . S
C264 C266 1.415 . S
C265 C264 1.355 . S
C265 C267 1.419 . S
C266 C264 1.415 . S
C266 C271 1.425 1_554 S
C266 C273 1.409 . S
C267 H259 0.930 . S
C267 C265 1.419 . S
C267 C268 1.362 1_554 S
C268 H260 0.930 . S
C268 C267 1.362 1_556 S
C268 C271 1.409 . S
C269 H261 0.930 . S
C269 C270 1.355 . S
C269 C271 1.415 . S
C270 C269 1.355 . S
C270 C272 1.419 . S
C271 C266 1.425 1_556 S
C271 C268 1.409 . S
C271 C269 1.415 . S
C272 H262 0.930 . S
C272 C270 1.419 . S
C272 C273 1.362 1_556 S
C273 H263 0.930 . S
C273 C266 1.409 . S
C273 C272 1.362 1_554 S
H274 C280 0.930 . S
H275 C283 0.930 . S
H276 C284 0.930 . S
H277 C285 0.930 . S
H278 C288 0.930 . S
H279 C289 0.930 . S
C280 H274 0.930 . S
C280 C281 1.355 . S
C280 C282 1.415 1_556 S
C281 C280 1.355 . S
C281 C283 1.419 . S
C282 C280 1.415 1_554 S
C282 C287 1.425 1_564 S
C282 C289 1.409 . S
C283 H275 0.930 . S
C283 C281 1.419 . S
C283 C284 1.362 1_565 S
C284 H276 0.930 . S
C284 C283 1.362 1_545 S
C284 C287 1.409 . S
C285 H277 0.930 . S
C285 C286 1.355 . S
C285 C287 1.415 1_554 S
C286 C285 1.355 . S
C286 C288 1.419 . S
C287 C282 1.425 1_546 S
C287 C284 1.409 . S
C287 C285 1.415 1_556 S
C288 H278 0.930 . S
C288 C286 1.419 . S
C288 C289 1.362 1_545 S
C289 H279 0.930 . S
C289 C282 1.409 . S
C289 C288 1.362 1_565 S
H290 C296 0.930 . S
H291 C299 0.930 . S
H292 C300 0.930 . S
H293 C301 0.930 . S
H294 C304 0.930 . S
H295 C305 0.930 . S
C296 H290 0.930 . S
C296 C297 1.355 . S
C296 C298 1.415 1_455 S
C297 C296 1.355 . S
C297 C299 1.419 . S
C298 C296 1.415 1_655 S
C298 C303 1.425 1_656 S
C298 C305 1.409 1_556 S
C299 H291 0.930 . S
C299 C297 1.419 . S
C299 C300 1.362 . S
C300 H292 0.930 . S
C300 C299 1.362 . S
C300 C303 1.409 1_556 S
C301 H293 0.930 . S
C301 C302 1.355 . S
C301 C303 1.415 1_655 S
C302 C301 1.355 . S
C302 C304 1.419 . S
C303 C298 1.425 1_454 S
C303 C300 1.409 1_554 S
C303 C301 1.415 1_455 S
C304 H294 0.930 . S
C304 C302 1.419 . S
C304 C305 1.362 . S
C305 H295 0.930 . S
C305 C298 1.409 1_554 S
C305 C304 1.362 . S
C121 C27 1.019 . S
C126 C6 1.019 . S
C137 C44 0.970 . S
C142 C65 0.970 1_556 S
C153 C82 1.033 1_554 S
C158 C103 1.033 . S
C169 C105 2.294 . S
C174 C8 2.294 . S
C185 C94 1.423 . S
C190 C14 1.421 . S
C201 C77 1.658 . S
C206 C30 1.658 . S
C217 C46 2.284 . S
C222 C29 2.285 . S
C233 C52 1.337 . S
C238 C18 1.339 . S
C249 C68 1.682 . S
C254 C1 1.683 . S
C265 C67 2.304 . S
C270 C84 2.304 . S
C281 C90 1.374 . S
C286 C56 1.374 . S
C297 C106 1.646 . S
C302 C39 1.646 . S
