# Generated by pormake.
# Topology pts-e, (5)-cn, num edge types: 1
# Building blocks:
#     Node 0, Type 0, BuildingBlock: XOMCOT_clean_sbu_1, # of connection points: 5
#     Node 1, Type 0, BuildingBlock: XOMCOT_clean_sbu_1, # of connection points: 5
#     Node 2, Type 0, BuildingBlock: XOMCOT_clean_sbu_1, # of connection points: 5
#     Node 3, Type 0, BuildingBlock: XOMCOT_clean_sbu_1, # of connection points: 5
#     Node 4, Type 0, BuildingBlock: XOMCOT_clean_sbu_1, # of connection points: 5
#     Node 5, Type 0, BuildingBlock: XOMCOT_clean_sbu_1, # of connection points: 5
#     Node 6, Type 0, BuildingBlock: XOMCOT_clean_sbu_1, # of connection points: 5
#     Node 7, Type 0, BuildingBlock: XOMCOT_clean_sbu_1, # of connection points: 5
#     Edge 8, Type (0, 0), BuildingBlock: ZUJKAS_clean_linker_0, # of connection points: 2
#     Edge 9, Type (0, 0), BuildingBlock: ZUJKAS_clean_linker_0, # of connection points: 2
#     Edge 10, Type (0, 0), BuildingBlock: ZUJKAS_clean_linker_0, # of connection points: 2
#     Edge 11, Type (0, 0), BuildingBlock: ZUJKAS_clean_linker_0, # of connection points: 2
#     Edge 12, Type (0, 0), BuildingBlock: ZUJKAS_clean_linker_0, # of connection points: 2
#     Edge 13, Type (0, 0), BuildingBlock: ZUJKAS_clean_linker_0, # of connection points: 2
#     Edge 14, Type (0, 0), BuildingBlock: ZUJKAS_clean_linker_0, # of connection points: 2
#     Edge 15, Type (0, 0), BuildingBlock: ZUJKAS_clean_linker_0, # of connection points: 2
#     Edge 16, Type (0, 0), BuildingBlock: ZUJKAS_clean_linker_0, # of connection points: 2
#     Edge 17, Type (0, 0), BuildingBlock: ZUJKAS_clean_linker_0, # of connection points: 2
#     Edge 18, Type (0, 0), BuildingBlock: ZUJKAS_clean_linker_0, # of connection points: 2
#     Edge 19, Type (0, 0), BuildingBlock: ZUJKAS_clean_linker_0, # of connection points: 2
#     Edge 20, Type (0, 0), BuildingBlock: ZUJKAS_clean_linker_0, # of connection points: 2
#     Edge 21, Type (0, 0), BuildingBlock: ZUJKAS_clean_linker_0, # of connection points: 2
#     Edge 22, Type (0, 0), BuildingBlock: ZUJKAS_clean_linker_0, # of connection points: 2
#     Edge 23, Type (0, 0), BuildingBlock: ZUJKAS_clean_linker_0, # of connection points: 2
#     Edge 24, Type (0, 0), BuildingBlock: ZUJKAS_clean_linker_0, # of connection points: 2
#     Edge 25, Type (0, 0), BuildingBlock: ZUJKAS_clean_linker_0, # of connection points: 2
#     Edge 26, Type (0, 0), BuildingBlock: ZUJKAS_clean_linker_0, # of connection points: 2
#     Edge 27, Type (0, 0), BuildingBlock: ZUJKAS_clean_linker_0, # of connection points: 2
# Relax obj value: 0.499
# Max RMSD: 0.255
# Mean RMSD: 0.255
data_MOF--net-pts-e--node1-XOMCOT_clean_sbu_1--edge1-ZUJKAS_clean_linker_0
_symmetry_space_group_name_H-M    P1
_symmetry_Int_Tables_number       1
_symmetry_cell_setting            triclinic
loop_
_symmetry_equiv_pos_as_xyz
'x, y, z'
_cell_length_a     42.463954
_cell_length_b     42.406032
_cell_length_c     62.258441
_cell_angle_alpha  89.926267
_cell_angle_beta   90.087029
_cell_angle_gamma 90.011581
loop_
_atom_site_label
_atom_site_type_symbol
_atom_site_fract_x
_atom_site_fract_y
_atom_site_fract_z
_atom_type_partial_charge
C0 C 0.22427 0.0312 0.13074 0.0
C1 C 0.19348 0.03796 0.12565 0.0
N2 N 0.17507 0.01532 0.13421 0.0
N3 N 0.22515 0.00456 0.14252 0.0
C4 C 0.19491 0.99531 0.14428 0.0
H5 H 0.2448 0.04455 0.12593 0.0
Co6 Co 0.26128 0.98463 0.15163 0.0
C7 C 0.2459 0.95253 0.19215 0.0
O8 O 0.27242 0.96411 0.19967 0.0
N9 N 0.29866 0.96367 0.16022 0.0
C10 C 0.33298 0.92491 0.16662 0.0
C11 C 0.30263 0.93202 0.16045 0.0
C12 C 0.32701 0.97511 0.16626 0.0
N13 N 0.34826 0.9522 0.17015 0.0
O14 O 0.25445 0.95421 0.12961 0.0
H15 H 0.28459 0.9151 0.15624 0.0
H16 H 0.33241 -0.00031 0.16805 0.0
O17 O 0.23748 0.95904 0.17284 0.0
C18 C 0.27212 0.96002 0.11356 0.0
O19 O 0.29631 0.97892 0.11637 0.0
N20 N 0.26761 0.01793 0.17099 0.0
C21 C 0.27059 0.07808 0.1894 0.0
C22 C 0.24787 0.05598 0.19608 0.0
C23 C 0.24656 0.02625 0.18654 0.0
C24 C 0.28897 0.03945 0.16378 0.0
C25 C 0.29186 0.06898 0.17335 0.0
H26 H 0.22682 0.01126 0.19037 0.0
H27 H 0.3029 0.03424 0.14969 0.0
H28 H 0.18769 0.97375 0.15216 0.0
H29 H 0.18533 0.058 0.11641 0.0
H30 H 0.34315 0.90158 0.16785 0.0
H31 H 0.22965 0.06216 0.20745 0.0
H32 H 0.30969 0.08494 0.16737 0.0
C33 C 0.97393 0.21382 0.64042 0.0
C34 C 0.96833 0.18222 0.64367 0.0
N35 N 0.9963 0.1674 0.64527 0.0
N36 N 0.00528 0.21887 0.64019 0.0
C37 C 0.01826 0.19015 0.64299 0.0
H38 H 0.95627 0.23192 0.63828 0.0
Co39 Co 0.02599 0.2571 0.63652 0.0
C40 C 0.07641 0.25457 0.66993 0.0
O41 O 0.07097 0.28432 0.67456 0.0
N42 N 0.04712 0.29558 0.63211 0.0
C43 C 0.08513 0.33063 0.62545 0.0
C44 C 0.07852 0.29935 0.62938 0.0
C45 C 0.03512 0.32464 0.62854 0.0
N46 N 0.05765 0.34624 0.62478 0.0
O47 O 0.04535 0.24142 0.61096 0.0
H48 H 0.09562 0.28048 0.63006 0.0
H49 H 0.01043 0.33035 0.62845 0.0
O50 O 0.06076 0.24135 0.65481 0.0
C51 C 0.02456 0.24323 0.5962 0.0
O52 O 0.99646 0.25391 0.60121 0.0
N53 N 0.0035 0.27299 0.66017 0.0
C54 C 0.95572 0.28806 0.68913 0.0
C55 C 0.98148 0.26968 0.69562 0.0
C56 C 0.00473 0.2617 0.68074 0.0
C57 C 0.97855 0.29092 0.65375 0.0
C58 C 0.95488 0.29942 0.66804 0.0
H59 H 0.0217 0.24408 0.68538 0.0
H60 H 0.97517 0.29593 0.63691 0.0
H61 H 0.04338 0.18606 0.64355 0.0
H62 H 0.94546 0.171 0.64443 0.0
H63 H 0.10812 0.341 0.6229 0.0
H64 H 0.98214 0.25902 0.71144 0.0
H65 H 0.93483 0.31269 0.66217 0.0
C66 C 0.79164 0.96877 0.12348 0.0
C67 C 0.82255 0.96363 0.11788 0.0
N68 N 0.84064 0.9843 0.12876 0.0
N69 N 0.79036 0.9925 0.1378 0.0
C70 C 0.82048 0.0016 0.14062 0.0
H71 H 0.77133 0.95603 0.11757 0.0
Co72 Co 0.75382 0.00802 0.14965 0.0
C73 C 0.77255 0.04443 0.18807 0.0
O74 O 0.74897 0.03112 0.19831 0.0
N75 N 0.716 0.02418 0.16111 0.0
C76 C 0.67852 0.05841 0.17023 0.0
C77 C 0.70842 0.05512 0.16207 0.0
C78 C 0.69016 0.00924 0.16865 0.0
N79 N 0.66721 0.02943 0.17442 0.0
O80 O 0.75259 0.03855 0.12717 0.0
H81 H 0.72363 0.07414 0.15693 0.0
H82 H 0.68726 0.98405 0.16916 0.0
O83 O 0.77779 0.03714 0.16841 0.0
C84 C 0.73251 0.0311 0.11281 0.0
O85 O 0.71255 0.00819 0.1169 0.0
N86 N 0.75518 0.97492 0.16959 0.0
C87 C 0.76133 0.91637 0.18981 0.0
C88 C 0.78136 0.94158 0.19512 0.0
C89 C 0.77832 0.97044 0.18454 0.0
C90 C 0.73637 0.95035 0.16369 0.0
C91 C 0.73832 0.92123 0.17401 0.0
H92 H 0.79614 0.98808 0.18731 0.0
H93 H 0.7206 0.95299 0.15015 0.0
H94 H 0.82755 0.02082 0.15095 0.0
H95 H 0.83103 0.94576 0.10692 0.0
H96 H 0.66599 0.08034 0.17266 0.0
H97 H 0.80067 0.93851 0.20631 0.0
H98 H 0.72271 0.90243 0.16902 0.0
C99 C 0.06714 0.78911 0.67276 0.0
C100 C 0.07488 0.82065 0.67234 0.0
N101 N 0.048 0.83751 0.67316 0.0
N102 N 0.03557 0.78627 0.67396 0.0
C103 C 0.02459 0.81607 0.67398 0.0
H104 H 0.08337 0.76948 0.67217 0.0
Co105 Co 0.01224 0.74926 0.6739 0.0
C106 C 0.96715 0.76366 0.7093 0.0
O107 O 0.97506 0.73726 0.719 0.0
N108 N 0.98884 0.71172 0.6725 0.0
C109 C 0.95274 0.67352 0.67206 0.0
C110 C 0.95921 0.70389 0.67848 0.0
C111 C -0.00112 0.68644 0.66126 0.0
N112 N 0.9778 0.66276 0.66116 0.0
O113 O 0.99304 0.76235 0.64758 0.0
H114 H 0.94247 0.71933 0.68611 0.0
H115 H 0.02143 0.68536 0.65323 0.0
O116 O 0.97923 0.77041 0.69102 0.0
C117 C 0.01221 0.75614 0.63242 0.0
O118 O 0.03877 0.74191 0.63735 0.0
N119 N 0.03434 0.73584 0.69888 0.0
C120 C 0.08541 0.72595 0.72649 0.0
C121 C 0.06536 0.75195 0.72926 0.0
C122 C 0.04009 0.75652 0.71527 0.0
C123 C 0.05197 0.70903 0.69723 0.0
C124 C 0.07716 0.70333 0.71111 0.0
H125 H 0.02756 0.77865 0.71616 0.0
H126 H 0.04907 0.69334 0.68386 0.0
H127 H -0.00021 0.82187 0.6739 0.0
H128 H 0.09843 0.83034 0.67155 0.0
H129 H 0.93103 0.66068 0.67461 0.0
H130 H 0.07092 0.77053 0.74055 0.0
H131 H 0.09172 0.68272 0.70849 0.0
C132 C 0.20261 0.95825 0.85091 0.0
C133 C 0.17047 0.95443 0.85052 0.0
N134 N 0.15704 0.98324 0.85013 0.0
N135 N 0.20938 0.9893 0.85055 0.0
C136 C 0.18121 0.00391 0.85022 0.0
H137 H 0.21988 0.93958 0.85189 0.0
Co138 Co 0.2487 0.00756 0.85271 0.0
C139 C 0.24769 0.05997 0.82086 0.0
O140 O 0.27679 0.05274 0.81564 0.0
N141 N 0.2887 0.02601 0.85594 0.0
C142 C 0.32605 0.06039 0.86524 0.0
C143 C 0.2947 0.05672 0.8602 0.0
C144 C 0.31654 0.01143 0.85935 0.0
N145 N 0.33952 0.03174 0.86488 0.0
O146 O 0.23621 0.02677 0.87913 0.0
H147 H 0.27708 0.07512 0.8606 0.0
H148 H 0.31999 0.98629 0.85883 0.0
O149 O 0.23376 0.04416 0.83562 0.0
C150 C 0.24642 0.00868 0.89395 0.0
O151 O 0.26235 0.98335 0.88855 0.0
N152 N 0.26111 0.98505 0.82806 0.0
C153 C 0.2693 0.93705 0.79778 0.0
C154 C 0.25409 0.96533 0.79222 0.0
C155 C 0.24922 0.98851 0.80778 0.0
C156 C 0.27684 0.95818 0.83346 0.0
C157 C 0.28155 0.93415 0.8186 0.0
H158 H 0.23351 0.00756 0.80378 0.0
H159 H 0.28262 0.95365 0.85006 0.0
H160 H 0.17854 0.02925 0.85097 0.0
H161 H 0.15804 0.93216 0.8507 0.0
H162 H 0.33765 0.08206 0.86991 0.0
H163 H 0.24388 0.96862 0.77643 0.0
H164 H 0.29205 0.91233 0.82413 0.0
C165 C 0.07886 0.23758 0.32858 0.0
C166 C 0.08418 0.20574 0.33105 0.0
N167 N 0.05618 0.19135 0.33395 0.0
N168 N 0.04764 0.24307 0.32965 0.0
C169 C 0.03454 0.2146 0.33313 0.0
H170 H 0.09654 0.25561 0.32617 0.0
Co171 Co 0.02704 0.28165 0.32792 0.0
C172 C 0.97307 0.26535 0.29855 0.0
O173 O 0.97925 0.28983 0.28645 0.0
N174 N 0.00634 0.32166 0.32679 0.0
C175 C 0.98993 0.36945 0.31672 0.0
C176 C 0.00158 0.34114 0.30983 0.0
C177 C -0.00245 0.33938 0.34389 0.0
N178 N 0.98763 0.36848 0.33822 0.0
O179 O 0.01168 0.27453 0.35648 0.0
H180 H 0.00853 0.33657 0.29346 0.0
H181 H -0.00025 0.33187 0.36038 0.0
O182 O 0.9898 0.26007 0.31532 0.0
C183 C 0.03414 0.28118 0.36936 0.0
O184 O 0.05998 0.29343 0.36126 0.0
N185 N 0.04585 0.28839 0.3011 0.0
C186 C 0.09023 0.29219 0.26809 0.0
C187 C 0.06796 0.26757 0.26873 0.0
C188 C 0.04597 0.26614 0.28531 0.0
C189 C 0.06664 0.31287 0.30052 0.0
C190 C 0.08816 0.31589 0.28376 0.0
H191 H 0.03124 0.24545 0.28657 0.0
H192 H 0.06753 0.32942 0.31371 0.0
H193 H 0.00949 0.21104 0.33496 0.0
H194 H 0.10692 0.19423 0.33103 0.0
H195 H 0.9862 0.39009 0.30679 0.0
H196 H 0.0689 0.24794 0.25768 0.0
H197 H 0.10418 0.33572 0.28395 0.0
C198 C 0.78345 0.0801 0.85856 0.0
C199 C 0.81499 0.08461 0.86264 0.0
N200 N 0.8298 0.05678 0.86009 0.0
N201 N 0.77862 0.04969 0.8532 0.0
C202 C 0.80718 0.03601 0.85453 0.0
H203 H 0.76524 0.09791 0.85909 0.0
Co204 Co 0.74042 0.03232 0.84523 0.0
C205 C 0.75772 0.9835 0.81264 0.0
O206 O 0.73498 0.99341 0.80009 0.0
N207 N 0.70037 0.01501 0.8375 0.0
C208 C 0.65409 0.0069 0.82142 0.0
C209 C 0.68323 0.02031 0.81947 0.0
C210 C 0.68061 0.99796 0.85008 0.0
N211 N 0.65226 0.99307 0.84081 0.0
O212 O 0.74044 0.00993 0.87184 0.0
H213 H 0.69071 0.03392 0.80573 0.0
H214 H 0.68623 0.99009 0.86611 0.0
O215 O 0.76235 0.99696 0.83078 0.0
C216 C 0.72719 0.02742 0.8858 0.0
O217 O 0.71325 0.05342 0.8793 0.0
N218 N 0.74096 0.05801 0.82094 0.0
C219 C 0.74863 0.11097 0.79505 0.0
C220 C 0.76851 0.08472 0.79274 0.0
C221 C 0.76462 0.0586 0.80612 0.0
C222 C 0.72076 0.08284 0.82283 0.0
C223 C 0.72385 0.10937 0.80981 0.0
H224 H 0.7824 0.04042 0.80591 0.0
H225 H 0.70333 0.0828 0.83548 0.0
H226 H 0.81153 0.01148 0.85093 0.0
H227 H 0.82614 0.10663 0.86704 0.0
H228 H 0.63499 0.00919 0.81 0.0
H229 H 0.78863 0.08547 0.78208 0.0
H230 H 0.70819 0.12921 0.8122 0.0
C231 C 0.95441 0.81906 0.35472 0.0
C232 C 0.95186 0.85099 0.35118 0.0
N233 N 0.98056 0.86408 0.35374 0.0
N234 N 0.98464 0.81203 0.3593 0.0
C235 C -0.0001 0.83989 0.35874 0.0
H236 H 0.93535 0.80218 0.35437 0.0
Co237 Co 0.00123 0.77292 0.36642 0.0
C238 C 0.06286 0.77104 0.34321 0.0
O239 O 0.05966 0.74056 0.34009 0.0
N240 N 0.0178 0.73362 0.37445 0.0
C241 C 0.04833 0.69801 0.39056 0.0
C242 C 0.04531 0.72924 0.38497 0.0
C243 C 0.00421 0.70481 0.37439 0.0
N244 N 0.02236 0.68267 0.38388 0.0
O245 O 0.01294 0.78877 0.394 0.0
H246 H 0.06196 0.74777 0.38868 0.0
H247 H 0.98086 0.70015 0.36846 0.0
O248 O 0.04189 0.7859 0.35395 0.0
C249 C 0.98902 0.78905 0.40633 0.0
O250 O 0.96167 0.78025 0.39843 0.0
N251 N 0.98647 0.75732 0.33992 0.0
C252 C 0.95052 0.74419 0.30337 0.0
C253 C 0.98008 0.75872 0.30161 0.0
C254 C 0.99714 0.76607 0.32008 0.0
C255 C 0.9582 0.74234 0.34182 0.0
C256 C 0.94005 0.73513 0.3238 0.0
H257 H 0.01722 0.78123 0.31819 0.0
H258 H 0.94829 0.73845 0.35759 0.0
H259 H 0.02474 0.84232 0.36211 0.0
H260 H 0.93033 0.8636 0.34758 0.0
H261 H 0.06809 0.68755 0.39893 0.0
H262 H 0.9889 0.76662 0.2862 0.0
H263 H 0.91684 0.72511 0.32609 0.0
H264 H 0.21121 0.96015 0.09895 0.0
H265 H 0.19482 0.97034 0.06172 0.0
H266 H 0.29135 0.96245 0.04107 0.0
H267 H 0.30783 0.95254 0.07807 0.0
H268 H 0.25705 0.02407 0.0339 0.0
H269 H 0.1947 0.9178 0.00266 0.0
H270 H 0.18731 0.93141 0.02964 0.0
H271 H 0.22471 0.91441 0.02315 0.0
C272 C 0.2287 0.95916 0.08632 0.0
C273 C 0.26082 0.95545 0.09135 0.0
C274 C 0.21933 0.96525 0.06509 0.0
C275 C 0.24194 0.96732 0.04872 0.0
C276 C 0.27358 0.96099 0.05351 0.0
H277 H 0.29114 0.01026 0.92431 0.0
H278 H 0.28359 0.00655 0.96307 0.0
C279 C 0.28294 0.95512 0.07462 0.0
C280 C 0.23387 0.97997 0.02722 0.0
H281 H 0.20511 0.95881 0.9781 0.0
C282 C 0.24517 0.01004 0.02178 0.0
C283 C 0.21799 0.96183 0.0116 0.0
C284 C 0.20541 0.9295 0.01686 0.0
C285 C 0.24266 0.02171 1.00077 0.0
C286 C 0.22889 0.00262 0.98472 0.0
C287 C 0.21562 0.97343 0.99046 0.0
C288 C 0.23278 0.0101 0.96161 0.0
C289 C 0.25589 0.05388 0.99572 0.0
C290 C 0.20672 0.01397 0.94789 0.0
C291 C 0.21111 0.01666 0.92561 0.0
C292 C 0.24155 0.01485 0.91691 0.0
C293 C 0.26751 0.01224 0.93074 0.0
C294 C 0.2632 0.01007 0.95286 0.0
H295 H 0.25607 0.06922 0.01017 0.0
H296 H 0.28056 0.05131 0.99013 0.0
H297 H 0.24213 0.06569 0.98283 0.0
H298 H 0.18304 0.01374 0.95434 0.0
H299 H 0.19074 0.0179 0.91514 0.0
H300 H 0.98589 0.25425 0.39283 0.0
H301 H 0.98577 0.24307 0.43167 0.0
H302 H 0.07956 0.28128 0.43697 0.0
H303 H 0.07972 0.29294 0.3988 0.0
H304 H 0.02787 0.20534 0.45629 0.0
H305 H 0.03153 0.33009 0.48266 0.0
H306 H 0.02149 0.31884 0.45555 0.0
H307 H 0.06205 0.32043 0.46389 0.0
C308 C 0.00631 0.26049 0.40236 0.0
C309 C 0.03265 0.27476 0.39274 0.0
C310 C 0.00629 0.25398 0.42448 0.0
C311 C 0.0325 0.26182 0.43724 0.0
C312 C 0.05884 0.27566 0.42756 0.0
H313 H 0.07916 0.2533 0.57366 0.0
H314 H 0.0844 0.25311 0.53427 0.0
C315 C 0.05886 0.28221 0.40564 0.0
C316 C 0.03292 0.25545 0.46068 0.0
H317 H 0.04259 0.29141 0.50929 0.0
C318 C 0.03089 0.22414 0.46791 0.0
C319 C 0.03705 0.28002 0.47579 0.0
C320 C 0.03786 0.31425 0.46913 0.0
C321 C 0.03335 0.21673 0.48987 0.0
C322 C 0.03775 0.2413 0.50493 0.0
C323 C 0.03978 0.27256 0.49767 0.0
C324 C 0.03721 0.23572 0.52843 0.0
C325 C 0.03156 0.18269 0.49681 0.0
C326 C 0.00932 0.22532 0.5381 0.0
C327 C 0.00629 0.22562 0.56039 0.0
C328 C 0.03113 0.23619 0.57347 0.0
C329 C 0.05985 0.24466 0.56393 0.0
C330 C 0.06275 0.24473 0.54148 0.0
H331 H 0.03702 0.16641 0.48334 0.0
H332 H 0.04806 0.17789 0.51027 0.0
H333 H 0.00732 0.17747 0.50242 0.0
H334 H 0.98915 0.21881 0.52839 0.0
H335 H 0.98386 0.21905 0.56737 0.0
H336 H 0.78716 0.04259 0.09109 0.0
H337 H 0.79303 0.04499 0.05182 0.0
H338 H 0.69207 0.04297 0.04462 0.0
H339 H 0.68609 0.03994 0.08366 0.0
H340 H 0.75807 0.99126 0.02484 0.0
H341 H 0.73184 0.11567 0.00274 0.0
H342 H 0.74925 0.10487 0.02825 0.0
H343 H 0.70816 0.098 0.02351 0.0
C344 C 0.76625 0.04386 0.08113 0.0
C345 C 0.73613 0.04135 0.09034 0.0
C346 C 0.76964 0.04489 0.05875 0.0
C347 C 0.74296 0.04411 0.04543 0.0
C348 C 0.7129 0.04376 0.05468 0.0
H349 H 0.68293 0.03956 0.91568 0.0
H350 H 0.68989 0.04072 0.95459 0.0
C351 C 0.70951 0.04219 0.07695 0.0
C352 C 0.746 0.04034 0.02192 0.0
H353 H 0.73138 0.07812 0.97463 0.0
C354 C 0.75277 0.01028 0.01374 0.0
C355 C 0.73879 0.06518 0.00769 0.0
C356 C 0.73175 0.09788 0.01586 0.0
C357 C 0.75097 0.00401 0.9916 0.0
C358 C 0.74285 0.02872 0.97732 0.0
C359 C 0.73741 0.05911 0.98556 0.0
C360 C 0.73788 0.02352 0.95395 0.0
C361 C 0.75614 0.97071 0.98386 0.0
C362 C 0.76214 0.01229 0.94063 0.0
C363 C 0.75789 0.01092 0.9183 0.0
C364 C 0.72956 0.02137 0.90905 0.0
C365 C 0.70496 0.0313 0.92245 0.0
C366 C 0.70901 0.03217 0.94467 0.0
H367 H 0.75446 0.95333 0.99717 0.0
H368 H 0.73871 0.9643 0.97128 0.0
H369 H 0.78003 0.96883 0.97679 0.0
H370 H 0.78482 0.00603 0.94735 0.0
H371 H 0.77741 0.00379 0.90823 0.0
H372 H 0.94164 0.80632 0.43294 0.0
H373 H 0.94312 0.81053 0.47198 0.0
H374 H 0.04272 0.79047 0.47141 0.0
H375 H 0.0415 0.78694 0.43209 0.0
H376 H 0.9574 0.76242 0.49802 0.0
H377 H 0.03861 0.86166 0.5145 0.0
H378 H 0.02164 0.8549 0.48829 0.0
H379 H 0.05548 0.8327 0.49696 0.0
C380 C 0.96403 0.80343 0.44108 0.0
C381 C 0.99147 0.7962 0.42948 0.0
C382 C 0.96481 0.80585 0.46341 0.0
C383 C 0.99302 0.80103 0.47466 0.0
C384 C 0.02079 0.79497 0.46306 0.0
H385 H 0.0529 0.75083 0.59915 0.0
H386 H 0.04483 0.76544 0.56182 0.0
C387 C 0.02008 0.79284 0.44061 0.0
C388 C 0.99257 0.79905 0.49846 0.0
H389 H 0.0282 0.82648 0.54395 0.0
C390 C 0.97249 0.77682 0.5081 0.0
C391 C 0.01219 0.81789 0.51159 0.0
C392 C 0.03296 0.84335 0.50233 0.0
C393 C 0.97257 0.77188 0.53039 0.0
C394 C 0.99307 0.78986 0.5434 0.0
C395 C 0.01243 0.8128 0.53389 0.0
C396 C -0.00258 0.78261 0.56648 0.0
C397 C 0.95191 0.74639 0.53976 0.0
C398 C 0.97337 0.78762 0.58159 0.0
C399 C 0.97789 0.77922 0.6032 0.0
C400 C 0.00648 0.76562 0.60986 0.0
C401 C 0.03049 0.76106 0.59462 0.0
C402 C 0.02603 0.76955 0.57323 0.0
H403 H 0.94051 0.7318 0.52715 0.0
H404 H 0.96592 0.7307 0.55041 0.0
H405 H 0.93317 0.75738 0.54964 0.0
H406 H 0.95116 0.79792 0.57667 0.0
H407 H 0.95904 0.78315 0.61459 0.0
H408 H 0.15049 0.31534 0.27452 0.0
H409 H 0.19752 0.30157 0.25492 0.0
H410 H 0.14151 0.24654 0.21078 0.0
H411 H 0.09406 0.26421 0.22817 0.0
H412 H 0.22085 0.2507 0.25622 0.0
H413 H 0.20629 0.26678 0.17029 0.0
H414 H 0.18031 0.28658 0.18878 0.0
H415 H 0.17046 0.24805 0.17815 0.0
C416 C 0.14769 0.30182 0.25993 0.0
C417 C 0.11803 0.29021 0.25343 0.0
C418 C 0.17501 0.29354 0.24882 0.0
C419 C 0.17354 0.27264 0.23139 0.0
C420 C 0.14377 0.26321 0.22383 0.0
H421 H 0.25103 0.09983 0.22879 0.0
H422 H 0.23783 0.15343 0.2382 0.0
C423 C 0.11637 0.27263 0.23432 0.0
C424 C 0.20229 0.25574 0.22397 0.0
H425 H 0.22737 0.21293 0.18115 0.0
C426 C 0.2229 0.24342 0.2396 0.0
C427 C 0.20676 0.24705 0.20226 0.0
C428 C 0.18992 0.26329 0.18399 0.0
C429 C 0.24455 0.21966 0.23454 0.0
C430 C 0.24415 0.20644 0.2137 0.0
C431 C 0.22686 0.2218 0.19747 0.0
C432 C 0.25703 0.17449 0.20924 0.0
C433 C 0.26672 0.20837 0.25188 0.0
C434 C 0.27179 0.1678 0.18961 0.0
C435 C 0.27752 0.13663 0.18352 0.0
C436 C 0.26934 0.11135 0.19717 0.0
C437 C 0.25692 0.11837 0.21753 0.0
C438 C 0.25014 0.1494 0.22325 0.0
H439 H 0.27559 0.22871 0.26136 0.0
H440 H 0.25381 0.1928 0.26318 0.0
H441 H 0.28719 0.19542 0.24519 0.0
H442 H 0.2774 0.18659 0.17845 0.0
H443 H 0.28669 0.13258 0.16757 0.0
H444 H 0.76752 0.1212 0.75363 0.0
H445 H 0.79276 0.16893 0.73965 0.0
H446 H 0.77511 0.21661 0.79951 0.0
H447 H 0.75014 0.16905 0.81374 0.0
H448 H 0.77187 0.24877 0.74642 0.0
H449 H 0.87797 0.19401 0.78404 0.0
H450 H 0.8481 0.16878 0.77268 0.0
H451 H 0.83958 0.19129 0.7963 0.0
C452 C 0.76827 0.14212 0.76359 0.0
C453 C 0.75708 0.14132 0.7848 0.0
C454 C 0.78243 0.16937 0.75555 0.0
C455 C 0.78563 0.19609 0.76861 0.0
C456 C 0.77243 0.19624 0.78919 0.0
H457 H 0.95157 0.30154 0.73213 0.0
H458 H 0.90606 0.29163 0.75539 0.0
C459 C 0.75817 0.16903 0.79723 0.0
C460 C 0.80763 0.22112 0.76214 0.0
H461 H 0.88633 0.23521 0.75962 0.0
C462 C 0.79688 0.24636 0.7496 0.0
C463 C 0.84001 0.21817 0.76683 0.0
C464 C 0.85234 0.19172 0.78076 0.0
C465 C 0.81823 0.26772 0.74036 0.0
C466 C 0.85098 0.26291 0.74331 0.0
C467 C 0.86131 0.23903 0.75729 0.0
C468 C 0.87496 0.27797 0.72939 0.0
C469 C 0.80548 0.29464 0.72711 0.0
C470 C 0.87227 0.27483 0.70703 0.0
C471 C 0.89801 0.28077 0.69381 0.0
C472 C 0.92717 0.28947 0.7027 0.0
C473 C 0.92936 0.29475 0.72492 0.0
C474 C 0.90337 0.28921 0.73816 0.0
H475 H 0.78305 0.30349 0.73402 0.0
H476 H 0.82246 0.31449 0.72609 0.0
H477 H 0.80024 0.28611 0.71064 0.0
H478 H 0.85113 0.26518 0.69985 0.0
H479 H 0.89571 0.27589 0.67681 0.0
H480 H 0.77933 0.90147 0.23079 0.0
H481 H 0.79897 0.85096 0.2436 0.0
H482 H 0.77367 0.8077 0.18331 0.0
H483 H 0.75622 0.85877 0.16969 0.0
H484 H 0.77819 0.79149 0.24948 0.0
H485 H 0.86684 0.79379 0.18336 0.0
H486 H 0.84139 0.82692 0.18837 0.0
H487 H 0.82599 0.79183 0.17603 0.0
C488 C 0.77789 0.88126 0.22021 0.0
C489 C 0.76699 0.88449 0.19901 0.0
C490 C 0.78874 0.85223 0.22766 0.0
C491 C 0.78853 0.82568 0.2142 0.0
C492 C 0.77483 0.82805 0.19376 0.0
H493 H 0.90705 0.69881 0.29175 0.0
H494 H 0.86419 0.70489 0.26548 0.0
C495 C 0.76447 0.85729 0.18612 0.0
C496 C 0.80629 0.7973 0.22103 0.0
H497 H 0.87778 0.76264 0.21304 0.0
C498 C 0.79955 0.78435 0.24127 0.0
C499 C 0.83389 0.78768 0.21007 0.0
C500 C 0.84269 0.80077 0.18831 0.0
C501 C 0.82162 0.7655 0.25209 0.0
C502 C 0.85075 0.75888 0.24206 0.0
C503 C 0.85547 0.76804 0.22066 0.0
C504 C 0.87899 0.75125 0.255 0.0
C505 C 0.81509 0.75593 0.27502 0.0
C506 C 0.90223 0.77455 0.257 0.0
C507 C 0.92653 0.77117 0.27178 0.0
C508 C 0.92829 0.74429 0.28494 0.0
C509 C 0.90611 0.71994 0.28199 0.0
C510 C 0.88163 0.72336 0.26704 0.0
H511 H 0.7918 0.7644 0.28072 0.0
H512 H 0.81552 0.72985 0.27636 0.0
H513 H 0.83359 0.7655 0.28582 0.0
H514 H 0.90054 0.79638 0.248 0.0
H515 H 0.94265 0.79073 0.27382 0.0
H516 H 0.31208 0.88845 0.793 0.0
H517 H 0.30181 0.8368 0.77675 0.0
H518 H 0.21122 0.86979 0.75491 0.0
H519 H 0.2204 0.92033 0.7716 0.0
H520 H 0.2512 0.79934 0.79032 0.0
H521 H 0.24273 0.81997 0.70327 0.0
H522 H 0.26418 0.84614 0.72094 0.0
H523 H 0.22226 0.85054 0.71736 0.0
C524 C 0.29019 0.88486 0.78441 0.0
C525 C 0.26703 0.9087 0.78376 0.0
C526 C 0.2845 0.8554 0.77503 0.0
C527 C 0.25593 0.84962 0.76444 0.0
C528 C 0.23378 0.87398 0.76254 0.0
H529 H 0.10318 0.74645 0.7666 0.0
H530 H 0.15552 0.76433 0.77654 0.0
C531 C 0.2392 0.90312 0.77209 0.0
C532 C 0.24642 0.81742 0.75808 0.0
H533 H 0.20444 0.78227 0.7183 0.0
C534 C 0.24194 0.79492 0.77436 0.0
C535 C 0.23522 0.81115 0.73718 0.0
C536 C 0.24171 0.83316 0.71866 0.0
C537 C 0.22278 0.76841 0.77093 0.0
C538 C 0.20738 0.76491 0.75091 0.0
C539 C 0.21557 0.7851 0.73387 0.0
C540 C 0.17863 0.74535 0.74832 0.0
C541 C 0.21783 0.74553 0.78916 0.0
C542 C 0.17406 0.72765 0.72956 0.0
C543 C 0.1438 0.71834 0.72346 0.0
C544 C 0.11752 0.72636 0.73614 0.0
C545 C 0.12275 0.74052 0.75623 0.0
C546 C 0.15293 0.75029 0.76213 0.0
H547 H 0.24004 0.74226 0.79835 0.0
H548 H 0.20011 0.7553 0.80042 0.0
H549 H 0.20957 0.72219 0.78335 0.0
H550 H 0.19348 0.72351 0.71865 0.0
H551 H 0.14091 0.70762 0.70782 0.0
H552 H 0.94669 0.82183 0.69537 0.0
H553 H 0.91254 0.85889 0.71455 0.0
H554 H 0.90575 0.79364 0.76752 0.0
H555 H 0.93919 0.75637 0.74841 0.0
H556 H 0.8489 0.81717 0.75669 0.0
H557 H 0.93483 0.91485 0.76533 0.0
H558 H 0.92897 0.90249 0.73804 0.0
H559 H 0.94627 0.87569 0.75711 0.0
C560 C 0.93789 0.81536 0.71108 0.0
C561 C 0.94573 0.78609 0.72033 0.0
C562 C 0.9186 0.83671 0.72213 0.0
C563 C 0.907 0.82931 0.74267 0.0
C564 C 0.91452 0.79997 0.75176 0.0
H565 H 0.81331 0.96185 0.83051 0.0
H566 H 0.85013 0.92347 0.81496 0.0
C567 C 0.93368 0.77865 0.74076 0.0
C568 C 0.88615 0.85149 0.7545 0.0
H569 H 0.88164 0.92626 0.77481 0.0
C570 C 0.85616 0.84096 0.76073 0.0
C571 C 0.89578 0.88238 0.76014 0.0
C572 C 0.92832 0.89449 0.75501 0.0
C573 C 0.83527 0.86066 0.77191 0.0
C574 C 0.84434 0.89199 0.77669 0.0
C575 C 0.87464 0.9023 0.77101 0.0
C576 C 0.82205 0.91479 0.78654 0.0
C577 C 0.80368 0.84765 0.77859 0.0
C578 C 0.79423 0.92277 0.77569 0.0
C579 C 0.77327 0.94454 0.78448 0.0
C580 C 0.77967 0.95911 0.80433 0.0
C581 C 0.80757 0.95105 0.81526 0.0
C582 C 0.82867 0.92919 0.80637 0.0
H583 H 0.80401 0.82148 0.77952 0.0
H584 H 0.79638 0.85715 0.79443 0.0
H585 H 0.7857 0.85454 0.76651 0.0
H586 H 0.78888 0.91244 0.7602 0.0
H587 H 0.75213 0.95018 0.77551 0.0
H588 H 0.25469 0.94268 0.23489 0.0
H589 H 0.22317 0.91113 0.25933 0.0
H590 H 0.1599 0.88731 0.20761 0.0
H591 H 0.19128 0.9198 0.18279 0.0
H592 H 0.12846 0.90202 0.24518 0.0
H593 H 0.22301 0.81589 0.26237 0.0
H594 H 0.23538 0.85565 0.26733 0.0
H595 H 0.22534 0.84365 0.24044 0.0
C596 C 0.23414 0.93074 0.22855 0.0
C597 C 0.22575 0.93354 0.20675 0.0
C598 C 0.2162 0.9125 0.24261 0.0
C599 C 0.1896 0.89618 0.23525 0.0
C600 C 0.18055 0.89945 0.21361 0.0
H601 H 0.10006 0.7484 0.3109 0.0
H602 H 0.12992 0.77865 0.28456 0.0
C603 C 0.1985 0.91798 0.19944 0.0
C604 C 0.17136 0.8761 0.25041 0.0
H605 H 0.17952 0.81614 0.28673 0.0
C606 C 0.13951 0.88305 0.25413 0.0
C607 C 0.18565 0.85103 0.26191 0.0
C608 C 0.21913 0.84087 0.25766 0.0
C609 C 0.12185 0.86625 0.26947 0.0
C610 C 0.13666 0.84233 0.2818 0.0
C611 C 0.16825 0.83481 0.2776 0.0
C612 C 0.11962 0.82411 0.29866 0.0
C613 C 0.08738 0.87401 0.27202 0.0
C614 C 0.10473 0.8394 0.3159 0.0
C615 C 0.08744 0.8221 0.33103 0.0
C616 C 0.085 0.78909 0.32937 0.0
C617 C 0.10135 0.77376 0.31274 0.0
C618 C 0.11839 0.79107 0.29756 0.0
H619 H 0.07776 0.88583 0.25749 0.0
H620 H 0.0733 0.85244 0.27521 0.0
H621 H 0.08442 0.89034 0.28578 0.0
H622 H 0.10616 0.86477 0.31754 0.0
H623 H 0.07543 0.83468 0.34372 0.0
H624 H 0.09669 0.19335 0.66498 0.0
H625 H 0.12551 0.16104 0.69109 0.0
H626 H 0.12696 0.23924 0.73533 0.0
H627 H 0.09948 0.27187 0.70911 0.0
H628 H 0.1814 0.21208 0.73574 0.0
H629 H 0.09121 0.11843 0.74315 0.0
H630 H 0.10508 0.12277 0.71612 0.0
H631 H 0.08399 0.15461 0.72871 0.0
C632 C 0.10333 0.20369 0.68022 0.0
C633 C 0.09571 0.23522 0.68491 0.0
C634 C 0.11951 0.18507 0.69527 0.0
C635 C 0.12781 0.19737 0.71548 0.0
C636 C 0.12075 0.22904 0.71995 0.0
H637 H 0.18649 0.08074 0.82533 0.0
H638 H 0.15709 0.11547 0.8009 0.0
C639 C 0.10502 0.24774 0.70486 0.0
C640 C 0.14441 0.17775 0.73192 0.0
H641 H 0.14083 0.10822 0.75975 0.0
C642 C 0.17237 0.18944 0.74103 0.0
C643 C 0.13244 0.14845 0.73927 0.0
C644 C 0.10136 0.13547 0.73148 0.0
C645 C 0.18889 0.17257 0.75689 0.0
C646 C 0.17784 0.14252 0.7634 0.0
C647 C 0.14955 0.13107 0.75464 0.0
C648 C 0.19579 0.12227 0.77875 0.0
C649 C 0.21772 0.18754 0.76677 0.0
C650 C 0.22723 0.11432 0.77446 0.0
C651 C 0.24414 0.09495 0.7885 0.0
C652 C 0.22989 0.08243 0.80705 0.0
C653 C 0.19828 0.09016 0.81131 0.0
C654 C 0.18141 0.10989 0.79729 0.0
H655 H 0.21669 0.21368 0.76572 0.0
H656 H 0.22045 0.18076 0.7839 0.0
H657 H 0.23895 0.17972 0.75788 0.0
H658 H 0.23866 0.12268 0.75999 0.0
H659 H 0.26828 0.08924 0.78449 0.0
H660 H 0.76878 0.06091 0.23027 0.0
H661 H 0.80283 0.09645 0.25037 0.0
H662 H 0.85845 0.11294 0.19359 0.0
H663 H 0.82456 0.0767 0.17322 0.0
H664 H 0.8948 0.10325 0.23106 0.0
H665 H 0.8014 0.19232 0.24492 0.0
H666 H 0.79087 0.15331 0.25352 0.0
H667 H 0.79732 0.16107 0.22546 0.0
C668 C 0.78819 0.07206 0.22194 0.0
C669 C 0.79373 0.06612 0.20002 0.0
C670 C 0.8076 0.09252 0.2335 0.0
C671 C 0.83285 0.1078 0.22343 0.0
C672 C 0.83895 0.10152 0.20165 0.0
H673 H 0.93162 0.27292 0.26568 0.0
H674 H 0.89818 0.23339 0.24898 0.0
C675 C 0.81951 0.08089 0.19002 0.0
C676 C 0.85261 0.13048 0.2357 0.0
H677 H 0.84912 0.19924 0.26413 0.0
C678 C 0.88488 0.12428 0.23828 0.0
C679 C 0.83964 0.158 0.24501 0.0
C680 C 0.80548 0.16681 0.24196 0.0
C681 C 0.9045 0.14481 0.24997 0.0
C682 C 0.89137 0.17202 0.25963 0.0
C683 C 0.8591 0.17818 0.25699 0.0
C684 C 0.91104 0.19591 0.27089 0.0
C685 C 0.93926 0.13767 0.25136 0.0
C686 C 0.92892 0.18831 0.28922 0.0
C687 C 0.94832 0.21107 0.29891 0.0
C688 C 0.95005 0.2418 0.29044 0.0
C689 C 0.93112 0.24948 0.27261 0.0
C690 C 0.91189 0.22686 0.26299 0.0
H691 H 0.94661 0.11992 0.23925 0.0
H692 H 0.95342 0.15941 0.24898 0.0
H693 H 0.94475 0.1281 0.26753 0.0
H694 H 0.92811 0.16474 0.29591 0.0
H695 H 0.96248 0.20435 0.31264 0.0
H696 H 0.13763 0.03782 0.10236 0.0
H697 H 0.08035 0.03297 0.09975 0.0
H698 H 0.07882 0.98136 0.15947 0.0
H699 H 0.13598 0.98635 0.16232 0.0
H700 H 0.04322 0.95353 0.12582 0.0
H701 H 0.01538 0.08062 0.13699 0.0
H702 H 0.04327 0.07191 0.11614 0.0
H703 H 0.05332 0.06405 0.14366 0.0
C704 C 0.12508 0.02576 0.11506 0.0
C705 C 0.14136 0.01256 0.13259 0.0
C706 C 0.09239 0.02296 0.11352 0.0
C707 C 0.07544 0.0071 0.12953 0.0
C708 C 0.09157 0.99369 0.14695 0.0
H709 H 0.87857 0.00673 0.16025 0.0
H710 H 0.93575 0.01206 0.15916 0.0
C711 C 0.12423 0.99645 0.1485 0.0
C712 C 0.04085 0.00413 0.12813 0.0
H713 H 0.9727 0.04667 0.12925 0.0
C714 C 0.02774 0.97386 0.1265 0.0
C715 C 0.02089 0.03074 0.12921 0.0
C716 C 0.0338 0.06368 0.13178 0.0
C717 C 0.99502 0.96945 0.12596 0.0
C718 C 0.97507 0.99609 0.12684 0.0
C719 C 0.98818 0.02636 0.12842 0.0
C720 C 0.94044 0.99296 0.12713 0.0
C721 C 0.98205 0.93635 0.12505 0.0
C722 C 0.92421 0.9807 0.10937 0.0
C723 C 0.89144 0.97776 0.1099 0.0
C724 C 0.87441 0.98721 0.12815 0.0
C725 C 0.89086 -0.00034 0.14584 0.0
C726 C 0.92356 0.00258 0.14529 0.0
H727 H 0.00025 0.91842 0.12898 0.0
H728 H 0.96203 0.93356 0.13635 0.0
H729 H 0.97322 0.93155 0.10859 0.0
H730 H 0.93685 0.97365 0.09507 0.0
H731 H 0.87945 0.96856 0.0959 0.0
H732 H 0.04703 0.13337 0.63269 0.0
H733 H 0.05627 0.0772 0.63882 0.0
H734 H 0.96745 0.07009 0.67197 0.0
H735 H 0.95808 0.12631 0.66599 0.0
H736 H 0.05966 0.04398 0.67779 0.0
H737 H 0.96176 0.00066 0.6264 0.0
H738 H 0.97585 0.04079 0.62528 0.0
H739 H 0.95009 0.02849 0.64659 0.0
C740 C 0.02954 0.11993 0.6414 0.0
C741 C 0.00173 0.13428 0.64877 0.0
C742 C 0.03481 0.08783 0.64481 0.0
C743 C 0.01234 0.06948 0.65557 0.0
C744 C 0.98476 0.08375 0.66321 0.0
H745 H 0.00017 0.872 0.68967 0.0
H746 H 0.99263 0.92892 0.68647 0.0
C747 C 0.97943 0.11584 0.65976 0.0
C748 C 0.01794 0.03544 0.65895 0.0
H749 H 0.98865 0.96251 0.64734 0.0
C750 C 0.04423 0.02612 0.67109 0.0
C751 C -0.00228 0.0123 0.65016 0.0
C752 C 0.96992 0.02095 0.63622 0.0
C753 C 0.05058 0.99415 0.67496 0.0
C754 C 0.03032 0.97105 0.6662 0.0
C755 C 0.00404 0.98037 0.65409 0.0
C756 C 0.03604 0.93696 0.66917 0.0
C757 C 0.07855 0.98535 0.68869 0.0
C758 C 0.06296 0.92271 0.66049 0.0
C759 C 0.06726 0.89014 0.66217 0.0
C760 C 0.04456 0.87127 0.67243 0.0
C761 C 0.01784 0.88578 0.68137 0.0
C762 C 0.01358 0.9183 0.67968 0.0
H763 H 0.08703 0.00562 0.6984 0.0
H764 H 0.07264 0.96558 0.69968 0.0
H765 H 0.09812 0.97758 0.67816 0.0
H766 H 0.08025 0.93667 0.65194 0.0
H767 H 0.08785 0.87966 0.65487 0.0
H768 H 0.85787 0.00215 0.87168 0.0
H769 H 0.91429 0.99061 0.87121 0.0
H770 H 0.93336 0.08572 0.85027 0.0
H771 H 0.87699 0.09743 0.85084 0.0
H772 H 0.95305 0.99305 0.83615 0.0
H773 H 0.99558 0.07492 0.89934 0.0
H774 H 0.95447 0.06518 0.89605 0.0
H775 H 0.97274 0.0938 0.87873 0.0
C776 C 0.87411 0.02062 0.86709 0.0
C777 C 0.86305 0.0507 0.86131 0.0
C778 C 0.9063 0.01405 0.8669 0.0
C779 C 0.92798 0.03742 0.86097 0.0
C780 C 0.91706 0.06757 0.85541 0.0
H781 H 0.1287 0.03686 0.83623 0.0
H782 H 0.07273 0.04988 0.83858 0.0
C783 C 0.88487 0.07423 0.85572 0.0
C784 C 0.96183 0.02964 0.85938 0.0
H785 H 0.03471 0.05021 0.87782 0.0
C786 C 0.9709 0.00541 0.84535 0.0
C787 C 0.985 0.04591 0.87137 0.0
C788 C 0.9765 0.07121 0.88737 0.0
C789 C 0.00264 0.99724 0.84278 0.0
C790 C 0.02576 0.01359 0.8547 0.0
C791 C 0.01679 0.03787 0.86868 0.0
C792 C 0.05945 0.00549 0.85309 0.0
C793 C 0.01129 0.97156 0.82711 0.0
C794 C 0.07035 0.97632 0.86063 0.0
C795 C 0.10231 0.96888 0.85948 0.0
C796 C 0.12394 0.99056 0.85082 0.0
C797 C 0.1128 0.01979 0.84324 0.0
C798 C 0.08083 0.02723 0.84447 0.0
H799 H 0.99164 0.96609 0.81591 0.0
H800 H 0.03229 0.9784 0.81757 0.0
H801 H 0.01716 0.94975 0.83614 0.0
H802 H 0.05418 0.95947 0.86765 0.0
H803 H 0.11009 0.94643 0.86581 0.0
H804 H 0.03114 0.89359 0.37155 0.0
H805 H 0.04531 0.94899 0.36811 0.0
H806 H 0.96273 0.9654 0.32931 0.0
H807 H 0.94904 0.9096 0.33179 0.0
H808 H 0.01557 0.99318 0.3126 0.0
H809 H 0.00348 0.02199 0.3991 0.0
H810 H 0.03002 0.98996 0.39394 0.0
H811 H 0.98886 0.9857 0.38772 0.0
C812 C 0.01606 0.90877 0.36209 0.0
C813 C 0.98882 0.89698 0.35199 0.0
C814 C 0.02404 0.9406 0.36039 0.0
C815 C 0.00477 0.96138 0.34879 0.0
C816 C 0.97778 0.94975 0.33849 0.0
H817 H 0.00569 0.16456 0.35344 0.0
H818 H 0.99398 0.10849 0.35642 0.0
C819 C 0.96985 0.91787 0.34008 0.0
C820 C 0.013 0.9952 0.34711 0.0
H821 H 0.02629 0.0614 0.37688 0.0
C822 C 0.01786 0.00815 0.32663 0.0
C823 C 0.01559 0.01468 0.36545 0.0
C824 C 0.00892 0.00251 0.38778 0.0
C825 C 0.02551 0.0401 0.32399 0.0
C826 C 0.02904 0.05935 0.34238 0.0
C827 C 0.02393 0.04645 0.36284 0.0
C828 C 0.03675 0.09329 0.3407 0.0
C829 C 0.02897 0.0531 0.30154 0.0
C830 C 0.06495 0.10332 0.33117 0.0
C831 C 0.07157 0.13548 0.32918 0.0
C832 C 0.05019 0.15815 0.33684 0.0
C833 C 0.02238 0.14787 0.34693 0.0
C834 C 0.01575 0.11578 0.34882 0.0
H835 H 0.01778 0.03751 0.28939 0.0
H836 H 0.01832 0.07695 0.30024 0.0
H837 H 0.05436 0.05506 0.29757 0.0
H838 H 0.08178 0.08629 0.32519 0.0
H839 H 0.09312 0.14252 0.32126 0.0
H840 H 0.38634 0.91155 0.19188 0.0
H841 H 0.44189 0.91999 0.2014 0.0
H842 H 0.43917 0.01129 0.17091 0.0
H843 H 0.38456 0.00289 0.16095 0.0
H844 H 0.49192 0.93315 0.17172 0.0
H845 H 0.47752 0.02953 0.2307 0.0
H846 H 0.44577 0.00321 0.22341 0.0
H847 H 0.4556 0.03614 0.20644 0.0
C848 C 0.39764 0.93337 0.18721 0.0
C849 C 0.38083 0.9567 0.17589 0.0
C850 C 0.42922 0.93824 0.1928 0.0
C851 C 0.44425 0.9666 0.18733 0.0
C852 C 0.42766 0.98967 0.17587 0.0
H853 H 0.61317 0.06126 0.1666 0.0
H854 H 0.55972 0.04331 0.1745 0.0
C855 C 0.39635 0.98479 0.1702 0.0
C856 C 0.47794 0.97174 0.19196 0.0
H857 H 0.52813 0.02629 0.21317 0.0
C858 C 0.50004 0.95298 0.18123 0.0
C859 C 0.48825 0.99765 0.20438 0.0
C860 C 0.46554 0.01761 0.21707 0.0
C861 C 0.53209 0.96096 0.18119 0.0
C862 C 0.54214 0.98807 0.19255 0.0
C863 C 0.52027 0.00564 0.2044 0.0
C864 C 0.57453 0.00036 0.19039 0.0
C865 C 0.55455 0.94162 0.16782 0.0
C866 C 0.60045 0.98264 0.19737 0.0
C867 C 0.63099 0.99283 0.19283 0.0
C868 C 0.63604 0.021 0.18137 0.0
C869 C 0.61003 0.03957 0.17552 0.0
C870 C 0.57951 0.02929 0.17998 0.0
H871 H 0.54202 0.92479 0.15714 0.0
H872 H 0.56957 0.95716 0.15777 0.0
H873 H 0.5702 0.92785 0.1786 0.0
H874 H 0.59704 0.96057 0.20583 0.0
H875 H 0.65065 0.9784 0.19794 0.0
H876 H 0.00579 0.64835 0.62357 0.0
H877 H 0.01712 0.5954 0.60983 0.0
H878 H 0.97334 0.55485 0.666 0.0
H879 H 0.96073 0.60766 0.67908 0.0
H880 H 0.05352 0.55299 0.62506 0.0
H881 H 0.93509 0.5004 0.62177 0.0
H882 H 0.94093 0.54211 0.62573 0.0
H883 H 0.94212 0.51527 0.64824 0.0
C884 C -0.00183 0.628 0.63271 0.0
C885 C 0.98222 0.63189 0.65227 0.0
C886 C 0.00463 0.59782 0.62489 0.0
C887 C 0.9956 0.57102 0.63666 0.0
C888 C 0.97956 0.57501 0.65621 0.0
H889 H 0.088 0.39309 0.64511 0.0
H890 H 0.07416 0.4491 0.64432 0.0
C891 C 0.97251 0.60516 0.66376 0.0
C892 C 0.0051 0.53903 0.62951 0.0
H893 H 0.97843 0.46349 0.62541 0.0
C894 C 0.03696 0.53352 0.62473 0.0
C895 C 0.9835 0.51367 0.62848 0.0
C896 C 0.94847 0.5183 0.63108 0.0
C897 C 0.04806 0.5031 0.62015 0.0
C898 C 0.02699 0.47729 0.62131 0.0
C899 C 0.99484 0.48309 0.62489 0.0
C900 C 0.03776 0.44401 0.62008 0.0
C901 C 0.08223 0.49915 0.6141 0.0
C902 C 0.02162 0.42226 0.60708 0.0
C903 C 0.02888 0.39019 0.60812 0.0
C904 C 0.05279 0.37939 0.62184 0.0
C905 C 0.06986 0.40114 0.63415 0.0
C906 C 0.06207 0.43313 0.63356 0.0
H907 H 0.09122 0.5205 0.60574 0.0
H908 H 0.09649 0.496 0.62889 0.0
H909 H 0.08584 0.47845 0.60349 0.0
H910 H 0.00276 0.42998 0.59659 0.0
H911 H 0.01548 0.37366 0.59851 0.0
H912 H 0.35892 0.98113 0.88769 0.0
H913 H 0.41345 0.96593 0.89538 0.0
H914 H 0.44619 0.04862 0.86158 0.0
H915 H 0.39172 0.06432 0.85467 0.0
H916 H 0.4567 0.94945 0.86909 0.0
H917 H 0.50208 0.05263 0.91244 0.0
H918 H 0.46047 0.04686 0.90799 0.0
H919 H 0.4845 0.06603 0.88794 0.0
C920 C 0.37787 0.99616 0.88216 0.0
C921 C 0.37132 0.02386 0.87057 0.0
C922 C 0.40894 0.98756 0.88663 0.0
C923 C 0.43398 0.00641 0.87944 0.0
C924 C 0.42734 0.03424 0.86799 0.0
H925 H 0.60115 0.96862 0.82106 0.0
H926 H 0.54889 0.96368 0.83636 0.0
C927 C 0.39627 0.04311 0.86387 0.0
C928 C 0.46701 0.99563 0.88186 0.0
H929 H 0.54089 0.024 0.89065 0.0
C930 C 0.47507 0.96547 0.87434 0.0
C931 C 0.49104 0.01585 0.88947 0.0
C932 C 0.48394 0.04696 0.90015 0.0
C933 C 0.50664 0.95634 0.87219 0.0
C934 C 0.53067 0.97838 0.8769 0.0
C935 C 0.52258 0.00722 0.88652 0.0
C936 C 0.56336 0.97448 0.86895 0.0
C937 C 0.51377 0.92353 0.86424 0.0
C938 C 0.58922 0.9819 0.88209 0.0
C939 C 0.61916 0.98576 0.87315 0.0
C940 C 0.62371 0.98223 0.85089 0.0
C941 C 0.59833 0.97208 0.83817 0.0
C942 C 0.56842 0.96866 0.84703 0.0
H943 H 0.4964 0.90639 0.87072 0.0
H944 H 0.51171 0.92301 0.84647 0.0
H945 H 0.5378 0.91575 0.86891 0.0
H946 H 0.5859 0.98658 0.89904 0.0
H947 H 0.63809 0.9937 0.88346 0.0
H948 H 0.95205 0.4197 0.32956 0.0
H949 H 0.95371 0.46999 0.34848 0.0
H950 H 0.0129 0.42871 0.39734 0.0
H951 H 0.01253 0.37863 0.37796 0.0
H952 H 0.94092 0.4932 0.38941 0.0
H953 H 0.06941 0.49612 0.37109 0.0
H954 H 0.04353 0.46691 0.35966 0.0
H955 H 0.0558 0.46373 0.38721 0.0
C956 C 0.96514 0.42121 0.34445 0.0
C957 C 0.98279 0.3954 0.35192 0.0
C958 C 0.96585 0.44989 0.35536 0.0
C959 C 0.98408 0.45325 0.37401 0.0
C960 C -0.00075 0.42674 0.3827 0.0
H961 H 0.04589 0.64227 0.41389 0.0
H962 H 0.03507 0.58575 0.41695 0.0
C963 C -0.00126 0.39802 0.37169 0.0
C964 C 0.98998 0.48528 0.38252 0.0
H965 H 0.04677 0.54219 0.38438 0.0
C966 C 0.96416 0.50379 0.38872 0.0
C967 C 0.02036 0.49902 0.38161 0.0
C968 C 0.0489 0.4806 0.37441 0.0
C969 C 0.96766 0.53608 0.393 0.0
C970 C -0.00233 0.55013 0.39079 0.0
C971 C 0.02381 0.53124 0.38603 0.0
C972 C 0.00193 0.58473 0.39055 0.0
C973 C 0.93908 0.55507 0.39921 0.0
C974 C 0.98716 0.60272 0.37454 0.0
C975 C 0.99361 0.63482 0.37253 0.0
C976 C 0.01505 0.64967 0.38649 0.0
C977 C 0.02955 0.6316 0.40271 0.0
C978 C 0.02317 0.59936 0.40464 0.0
H979 H 0.92093 0.54001 0.40695 0.0
H980 H 0.94542 0.57453 0.41033 0.0
H981 H 0.92848 0.56554 0.38453 0.0
H982 H 0.97143 0.59168 0.36308 0.0
H983 H 0.98248 0.64772 0.35959 0.0
loop_
_geom_bond_atom_site_label_1
_geom_bond_atom_site_label_2
_geom_bond_distance
_geom_bond_site_symmetry_2
_ccdc_geom_bond_type
C0 C1 1.351 . S
C0 N3 1.368 . S
C0 H5 0.931 . S
C1 C0 1.351 . S
C1 N2 1.373 . S
C1 H29 0.930 . S
N2 C1 1.373 . S
N2 C4 1.340 1_545 S
N3 C0 1.368 . S
N3 C4 1.321 1_545 S
N3 Co6 2.135 . S
C4 N2 1.340 1_565 S
C4 N3 1.321 1_565 S
C4 H28 0.930 . S
H5 C0 0.931 . S
Co6 N3 2.135 . S
Co6 N9 2.121 . S
Co6 O14 2.055 1_545 S
Co6 O17 2.039 1_545 S
Co6 N20 2.140 . S
C7 O8 1.227 . S
C7 O17 1.265 . S
O8 C7 1.227 . S
N9 Co6 2.121 . S
N9 C11 1.375 1_545 S
N9 C12 1.313 . S
C10 C11 1.340 . S
C10 N13 1.372 1_565 S
C10 H30 0.933 . S
C11 N9 1.375 1_565 S
C11 C10 1.340 . S
C11 H15 0.931 . S
C12 N9 1.313 . S
C12 N13 1.344 . S
C12 H16 0.930 . S
N13 C10 1.372 1_545 S
N13 C12 1.344 . S
O14 Co6 2.055 1_565 S
O14 C18 1.253 1_565 S
H15 C11 0.931 . S
H16 C12 0.930 . S
O17 Co6 2.039 1_565 S
O17 C7 1.265 . S
C18 O14 1.253 1_545 S
C18 O19 1.227 . S
O19 C18 1.227 . S
N20 Co6 2.140 . S
N20 C23 1.346 . S
N20 C24 1.345 . S
C21 C22 1.387 . S
C21 C25 1.391 . S
C22 C21 1.387 . S
C22 C23 1.369 . S
C22 H31 0.929 . S
C23 N20 1.346 . S
C23 C22 1.369 . S
C23 H26 0.928 . S
C24 N20 1.345 . S
C24 C25 1.371 . S
C24 H27 0.931 . S
C25 C21 1.391 . S
C25 C24 1.371 . S
C25 H32 0.930 . S
H26 C23 0.928 . S
H27 C24 0.931 . S
H28 C4 0.930 . S
H29 C1 0.930 . S
H30 C10 0.933 . S
H31 C22 0.929 . S
H32 C25 0.930 . S
C33 C34 1.351 . S
C33 N36 1.368 1_655 S
C33 H38 0.931 . S
C34 C33 1.351 . S
C34 N35 1.373 1_655 S
C34 H62 0.930 . S
N35 C34 1.373 1_455 S
N35 C37 1.340 . S
N36 C33 1.368 1_455 S
N36 C37 1.321 . S
N36 Co39 2.135 . S
C37 N35 1.340 . S
C37 N36 1.321 . S
C37 H61 0.930 . S
H38 C33 0.931 . S
Co39 N36 2.135 . S
Co39 N42 2.121 . S
Co39 O47 2.055 . S
Co39 O50 2.039 . S
Co39 N53 2.140 1_455 S
C40 O41 1.227 . S
C40 O50 1.265 . S
O41 C40 1.227 . S
N42 Co39 2.121 . S
N42 C44 1.375 . S
N42 C45 1.313 . S
C43 C44 1.338 . S
C43 N46 1.377 . S
C43 H63 0.930 . S
C44 N42 1.375 . S
C44 C43 1.338 . S
C44 H48 0.931 . S
C45 N42 1.313 . S
C45 N46 1.344 . S
C45 H49 0.930 . S
N46 C43 1.377 . S
N46 C45 1.344 . S
O47 Co39 2.055 . S
O47 C51 1.253 . S
H48 C44 0.931 . S
H49 C45 0.930 . S
O50 Co39 2.039 . S
O50 C40 1.265 . S
C51 O47 1.253 . S
C51 O52 1.227 1_455 S
O52 C51 1.227 1_655 S
N53 Co39 2.140 1_655 S
N53 C56 1.346 . S
N53 C57 1.345 . S
C54 C55 1.387 . S
C54 C58 1.391 . S
C55 C54 1.387 . S
C55 C56 1.369 . S
C55 H64 0.929 . S
C56 N53 1.346 . S
C56 C55 1.369 . S
C56 H59 0.928 . S
C57 N53 1.345 . S
C57 C58 1.371 . S
C57 H60 0.931 . S
C58 C54 1.391 . S
C58 C57 1.371 . S
C58 H65 0.930 . S
H59 C56 0.928 . S
H60 C57 0.931 . S
H61 C37 0.930 . S
H62 C34 0.930 . S
H63 C43 0.930 . S
H64 C55 0.929 . S
H65 C58 0.930 . S
C66 C67 1.351 . S
C66 N69 1.368 1_565 S
C66 H71 0.931 . S
C67 C66 1.351 . S
C67 N68 1.373 1_565 S
C67 H95 0.930 . S
N68 C67 1.373 1_545 S
N68 C70 1.340 . S
N69 C66 1.368 1_545 S
N69 C70 1.321 . S
N69 Co72 2.135 . S
C70 N68 1.340 . S
C70 N69 1.321 . S
C70 H94 0.930 . S
H71 C66 0.931 . S
Co72 N69 2.135 . S
Co72 N75 2.121 . S
Co72 O80 2.055 . S
Co72 O83 2.039 . S
Co72 N86 2.140 1_545 S
C73 O74 1.227 . S
C73 O83 1.265 . S
O74 C73 1.227 . S
N75 Co72 2.121 . S
N75 C77 1.375 . S
N75 C78 1.313 . S
C76 C77 1.338 . S
C76 N79 1.377 . S
C76 H96 0.930 . S
C77 N75 1.375 . S
C77 C76 1.338 . S
C77 H81 0.931 . S
C78 N75 1.313 . S
C78 N79 1.344 . S
C78 H82 0.930 . S
N79 C76 1.377 . S
N79 C78 1.344 . S
O80 Co72 2.055 . S
O80 C84 1.253 . S
H81 C77 0.931 . S
H82 C78 0.930 . S
O83 Co72 2.039 . S
O83 C73 1.265 . S
C84 O80 1.253 . S
C84 O85 1.227 1_545 S
O85 C84 1.227 1_565 S
N86 Co72 2.140 1_565 S
N86 C89 1.346 . S
N86 C90 1.345 . S
C87 C88 1.387 . S
C87 C91 1.391 . S
C88 C87 1.387 . S
C88 C89 1.369 . S
C88 H97 0.929 . S
C89 N86 1.346 . S
C89 C88 1.369 . S
C89 H92 0.928 . S
C90 N86 1.345 . S
C90 C91 1.371 . S
C90 H93 0.931 . S
C91 C87 1.391 . S
C91 C90 1.371 . S
C91 H98 0.930 . S
H92 C89 0.928 . S
H93 C90 0.931 . S
H94 C70 0.930 . S
H95 C67 0.930 . S
H96 C76 0.930 . S
H97 C88 0.929 . S
H98 C91 0.930 . S
C99 C100 1.351 . S
C99 N102 1.368 . S
C99 H104 0.931 . S
C100 C99 1.351 . S
C100 N101 1.373 . S
C100 H128 0.930 . S
N101 C100 1.373 . S
N101 C103 1.340 1_455 S
N102 C99 1.368 . S
N102 C103 1.321 1_455 S
N102 Co105 2.135 . S
C103 N101 1.340 1_655 S
C103 N102 1.321 1_655 S
C103 H127 0.930 . S
H104 C99 0.931 . S
Co105 N102 2.135 . S
Co105 N108 2.121 . S
Co105 O113 2.055 1_455 S
Co105 O116 2.039 1_455 S
Co105 N119 2.140 . S
C106 O107 1.227 . S
C106 O116 1.265 . S
O107 C106 1.227 . S
N108 Co105 2.121 . S
N108 C110 1.375 1_455 S
N108 C111 1.313 . S
C109 C110 1.340 . S
C109 N112 1.373 1_655 S
C109 H129 0.932 . S
C110 N108 1.375 1_655 S
C110 C109 1.340 . S
C110 H114 0.931 . S
C111 N108 1.313 . S
C111 N112 1.344 . S
C111 H115 0.930 . S
N112 C109 1.373 1_455 S
N112 C111 1.344 . S
O113 Co105 2.055 1_655 S
O113 C117 1.253 1_655 S
H114 C110 0.931 . S
H115 C111 0.930 . S
O116 Co105 2.039 1_655 S
O116 C106 1.265 . S
C117 O113 1.253 1_455 S
C117 O118 1.227 . S
O118 C117 1.227 . S
N119 Co105 2.140 . S
N119 C122 1.346 . S
N119 C123 1.345 . S
C120 C121 1.387 . S
C120 C124 1.391 . S
C121 C120 1.387 . S
C121 C122 1.369 . S
C121 H130 0.929 . S
C122 N119 1.346 . S
C122 C121 1.369 . S
C122 H125 0.928 . S
C123 N119 1.345 . S
C123 C124 1.371 . S
C123 H126 0.931 . S
C124 C120 1.391 . S
C124 C123 1.371 . S
C124 H131 0.930 . S
H125 C122 0.928 . S
H126 C123 0.931 . S
H127 C103 0.930 . S
H128 C100 0.930 . S
H129 C109 0.932 . S
H130 C121 0.929 . S
H131 C124 0.930 . S
C132 C133 1.351 . S
C132 N135 1.368 1_565 S
C132 H137 0.931 . S
C133 C132 1.351 . S
C133 N134 1.373 1_565 S
C133 H161 0.930 . S
N134 C133 1.373 1_545 S
N134 C136 1.340 . S
N135 C132 1.368 1_545 S
N135 C136 1.321 . S
N135 Co138 2.135 . S
C136 N134 1.340 . S
C136 N135 1.321 . S
C136 H160 0.930 . S
H137 C132 0.931 . S
Co138 N135 2.135 . S
Co138 N141 2.121 . S
Co138 O146 2.055 . S
Co138 O149 2.039 . S
Co138 N152 2.140 1_545 S
C139 O140 1.227 . S
C139 O149 1.265 . S
O140 C139 1.227 . S
N141 Co138 2.121 . S
N141 C143 1.375 . S
N141 C144 1.313 . S
C142 C143 1.338 . S
C142 N145 1.377 . S
C142 H162 0.930 . S
C143 N141 1.375 . S
C143 C142 1.338 . S
C143 H147 0.931 . S
C144 N141 1.313 . S
C144 N145 1.344 . S
C144 H148 0.930 . S
N145 C142 1.377 . S
N145 C144 1.344 . S
O146 Co138 2.055 . S
O146 C150 1.253 . S
H147 C143 0.931 . S
H148 C144 0.930 . S
O149 Co138 2.039 . S
O149 C139 1.265 . S
C150 O146 1.253 . S
C150 O151 1.227 1_545 S
O151 C150 1.227 1_565 S
N152 Co138 2.140 1_565 S
N152 C155 1.346 . S
N152 C156 1.345 . S
C153 C154 1.387 . S
C153 C157 1.391 . S
C154 C153 1.387 . S
C154 C155 1.369 . S
C154 H163 0.929 . S
C155 N152 1.346 . S
C155 C154 1.369 . S
C155 H158 0.928 . S
C156 N152 1.345 . S
C156 C157 1.371 . S
C156 H159 0.931 . S
C157 C153 1.391 . S
C157 C156 1.371 . S
C157 H164 0.930 . S
H158 C155 0.928 . S
H159 C156 0.931 . S
H160 C136 0.930 . S
H161 C133 0.930 . S
H162 C142 0.930 . S
H163 C154 0.929 . S
H164 C157 0.930 . S
C165 C166 1.351 . S
C165 N168 1.368 . S
C165 H170 0.931 . S
C166 C165 1.351 . S
C166 N167 1.373 . S
C166 H194 0.930 . S
N167 C166 1.373 . S
N167 C169 1.340 1_455 S
N168 C165 1.368 . S
N168 C169 1.321 1_455 S
N168 Co171 2.135 . S
C169 N167 1.340 1_655 S
C169 N168 1.321 1_655 S
C169 H193 0.930 . S
H170 C165 0.931 . S
Co171 N168 2.135 . S
Co171 N174 2.121 . S
Co171 O179 2.055 1_455 S
Co171 O182 2.039 1_455 S
Co171 N185 2.140 . S
C172 O173 1.227 . S
C172 O182 1.265 . S
O173 C172 1.227 . S
N174 Co171 2.121 . S
N174 C176 1.375 1_455 S
N174 C177 1.313 . S
C175 C176 1.340 . S
C175 N178 1.372 1_655 S
C175 H195 0.933 . S
C176 N174 1.375 1_655 S
C176 C175 1.340 . S
C176 H180 0.931 . S
C177 N174 1.313 . S
C177 N178 1.344 . S
C177 H181 0.930 . S
N178 C175 1.372 1_455 S
N178 C177 1.344 . S
O179 Co171 2.055 1_655 S
O179 C183 1.253 1_655 S
H180 C176 0.931 . S
H181 C177 0.930 . S
O182 Co171 2.039 1_655 S
O182 C172 1.265 . S
C183 O179 1.253 1_455 S
C183 O184 1.227 . S
O184 C183 1.227 . S
N185 Co171 2.140 . S
N185 C188 1.346 . S
N185 C189 1.345 . S
C186 C187 1.387 . S
C186 C190 1.391 . S
C187 C186 1.387 . S
C187 C188 1.369 . S
C187 H196 0.929 . S
C188 N185 1.346 . S
C188 C187 1.369 . S
C188 H191 0.928 . S
C189 N185 1.345 . S
C189 C190 1.371 . S
C189 H192 0.931 . S
C190 C186 1.391 . S
C190 C189 1.371 . S
C190 H197 0.930 . S
H191 C188 0.928 . S
H192 C189 0.931 . S
H193 C169 0.930 . S
H194 C166 0.930 . S
H195 C175 0.933 . S
H196 C187 0.929 . S
H197 C190 0.930 . S
C198 C199 1.351 . S
C198 N201 1.368 . S
C198 H203 0.931 . S
C199 C198 1.351 . S
C199 N200 1.373 . S
C199 H227 0.930 . S
N200 C199 1.373 . S
N200 C202 1.340 1_545 S
N201 C198 1.368 . S
N201 C202 1.321 1_545 S
N201 Co204 2.135 . S
C202 N200 1.340 1_565 S
C202 N201 1.321 1_565 S
C202 H226 0.930 . S
H203 C198 0.931 . S
Co204 N201 2.135 . S
Co204 N207 2.121 . S
Co204 O212 2.055 1_545 S
Co204 O215 2.039 1_545 S
Co204 N218 2.140 . S
C205 O206 1.227 . S
C205 O215 1.265 . S
O206 C205 1.227 . S
N207 Co204 2.121 . S
N207 C209 1.375 1_545 S
N207 C210 1.313 . S
C208 C209 1.340 . S
C208 N211 1.373 1_565 S
C208 H228 0.932 . S
C209 N207 1.375 1_565 S
C209 C208 1.340 . S
C209 H213 0.931 . S
C210 N207 1.313 . S
C210 N211 1.344 . S
C210 H214 0.930 . S
N211 C208 1.373 1_545 S
N211 C210 1.344 . S
O212 Co204 2.055 1_565 S
O212 C216 1.253 1_565 S
H213 C209 0.931 . S
H214 C210 0.930 . S
O215 Co204 2.039 1_565 S
O215 C205 1.265 . S
C216 O212 1.253 1_545 S
C216 O217 1.227 . S
O217 C216 1.227 . S
N218 Co204 2.140 . S
N218 C221 1.346 . S
N218 C222 1.345 . S
C219 C220 1.387 . S
C219 C223 1.391 . S
C220 C219 1.387 . S
C220 C221 1.369 . S
C220 H229 0.929 . S
C221 N218 1.346 . S
C221 C220 1.369 . S
C221 H224 0.928 . S
C222 N218 1.345 . S
C222 C223 1.371 . S
C222 H225 0.931 . S
C223 C219 1.391 . S
C223 C222 1.371 . S
C223 H230 0.930 . S
H224 C221 0.928 . S
H225 C222 0.931 . S
H226 C202 0.930 . S
H227 C199 0.930 . S
H228 C208 0.932 . S
H229 C220 0.929 . S
H230 C223 0.930 . S
C231 C232 1.351 . S
C231 N234 1.368 1_655 S
C231 H236 0.931 . S
C232 C231 1.351 . S
C232 N233 1.373 1_655 S
C232 H260 0.930 . S
N233 C232 1.373 1_455 S
N233 C235 1.340 . S
N234 C231 1.368 1_455 S
N234 C235 1.321 . S
N234 Co237 2.135 . S
C235 N233 1.340 . S
C235 N234 1.321 . S
C235 H259 0.930 . S
H236 C231 0.931 . S
Co237 N234 2.135 . S
Co237 N240 2.121 . S
Co237 O245 2.055 . S
Co237 O248 2.039 . S
Co237 N251 2.140 1_455 S
C238 O239 1.227 . S
C238 O248 1.265 . S
O239 C238 1.227 . S
N240 Co237 2.121 . S
N240 C242 1.375 . S
N240 C243 1.313 . S
C241 C242 1.338 . S
C241 N244 1.377 . S
C241 H261 0.930 . S
C242 N240 1.375 . S
C242 C241 1.338 . S
C242 H246 0.931 . S
C243 N240 1.313 . S
C243 N244 1.344 . S
C243 H247 0.930 . S
N244 C241 1.377 . S
N244 C243 1.344 . S
O245 Co237 2.055 . S
O245 C249 1.253 . S
H246 C242 0.931 . S
H247 C243 0.930 . S
O248 Co237 2.039 . S
O248 C238 1.265 . S
C249 O245 1.253 . S
C249 O250 1.227 1_455 S
O250 C249 1.227 1_655 S
N251 Co237 2.140 1_655 S
N251 C254 1.346 . S
N251 C255 1.345 . S
C252 C253 1.387 . S
C252 C256 1.391 . S
C253 C252 1.387 . S
C253 C254 1.369 . S
C253 H262 0.929 . S
C254 N251 1.346 . S
C254 C253 1.369 . S
C254 H257 0.928 . S
C255 N251 1.345 . S
C255 C256 1.371 . S
C255 H258 0.931 . S
C256 C252 1.391 . S
C256 C255 1.371 . S
C256 H263 0.930 . S
H257 C254 0.928 . S
H258 C255 0.931 . S
H259 C235 0.930 . S
H260 C232 0.930 . S
H261 C241 0.930 . S
H262 C253 0.929 . S
H263 C256 0.930 . S
H264 C272 0.929 . S
H265 C274 0.930 . S
H266 C276 0.930 . S
H267 C279 0.929 . S
H268 C282 0.930 . S
H269 C284 0.960 . S
H270 C284 0.960 . S
H271 C284 0.960 . S
C272 H264 0.929 . S
C272 C273 1.377 . S
C272 C274 1.384 . S
C273 C272 1.377 . S
C273 C279 1.390 1_545 S
C274 H265 0.930 . S
C274 C272 1.384 . S
C274 C275 1.372 . S
C275 C274 1.372 . S
C275 C276 1.400 1_545 S
C275 C280 1.490 . S
C276 H266 0.930 . S
C276 C275 1.400 1_565 S
C276 C279 1.386 . S
H277 C293 0.930 . S
H278 C294 0.931 . S
C279 H267 0.929 . S
C279 C273 1.390 1_565 S
C279 C276 1.386 . S
C280 C275 1.490 . S
C280 C282 1.395 . S
C280 C283 1.403 1_545 S
H281 C287 0.930 . S
C282 H268 0.930 . S
C282 C280 1.395 . S
C282 C285 1.403 1_554 S
C283 C280 1.403 1_565 S
C283 C284 1.524 . S
C283 C287 1.400 1_554 S
C284 H269 0.960 . S
C284 H270 0.960 . S
C284 H271 0.960 . S
C284 C283 1.524 . S
C285 C282 1.403 1_556 S
C285 C286 1.392 . S
C285 C289 1.495 . S
C286 C285 1.392 . S
C286 C287 1.385 1_545 S
C286 C288 1.478 . S
C287 H281 0.930 . S
C287 C283 1.400 1_556 S
C287 C286 1.385 1_565 S
C288 C286 1.478 . S
C288 C290 1.381 . S
C288 C294 1.383 1_545 S
C289 C285 1.495 . S
C289 H295 0.959 . S
C289 H296 0.961 . S
C289 H297 0.960 . S
C290 C288 1.381 . S
C290 C291 1.394 . S
C290 H298 0.930 . S
C291 C290 1.394 . S
C291 C292 1.383 . S
C291 H299 0.929 . S
C292 C291 1.383 . S
C292 C293 1.377 1_545 S
C293 H277 0.930 . S
C293 C292 1.377 1_565 S
C293 C294 1.379 . S
C294 H278 0.931 . S
C294 C288 1.383 1_565 S
C294 C293 1.379 . S
H295 C289 0.959 . S
H296 C289 0.961 . S
H297 C289 0.960 . S
H298 C290 0.930 . S
H299 C291 0.929 . S
H300 C308 0.929 . S
H301 C310 0.930 . S
H302 C312 0.930 . S
H303 C315 0.929 . S
H304 C318 0.939 . S
H305 C320 0.960 . S
H306 C320 0.960 . S
H307 C320 0.960 . S
C308 H300 0.929 . S
C308 C309 1.377 1_655 S
C308 C310 1.384 . S
C309 C308 1.377 1_455 S
C309 C315 1.390 . S
C310 H301 0.930 . S
C310 C308 1.384 . S
C310 C311 1.372 1_655 S
C311 C310 1.372 1_455 S
C311 C312 1.400 . S
C311 C316 1.490 . S
C312 H302 0.930 . S
C312 C311 1.400 . S
C312 C315 1.386 . S
H313 C329 0.930 . S
H314 C330 0.931 . S
C315 H303 0.929 . S
C315 C309 1.390 . S
C315 C312 1.386 . S
C316 C311 1.490 . S
C316 C318 1.385 1_455 S
C316 C319 1.403 . S
H317 C323 0.930 . S
C318 H304 0.939 . S
C318 C316 1.385 1_655 S
C318 C321 1.405 . S
C319 C316 1.403 . S
C319 C320 1.524 . S
C319 C323 1.400 . S
C320 H305 0.960 . S
C320 H306 0.960 . S
C320 H307 0.960 . S
C320 C319 1.524 . S
C321 C318 1.405 . S
C321 C322 1.392 1_655 S
C321 C325 1.495 . S
C322 C321 1.392 1_455 S
C322 C323 1.385 . S
C322 C324 1.478 . S
C323 H317 0.930 . S
C323 C319 1.400 . S
C323 C322 1.385 . S
C324 C322 1.478 . S
C324 C326 1.381 1_455 S
C324 C330 1.383 . S
C325 C321 1.495 . S
C325 H331 0.959 . S
C325 H332 0.981 . S
C325 H333 0.960 . S
C326 C324 1.381 1_655 S
C326 C327 1.394 . S
C326 H334 0.930 . S
C327 C326 1.394 . S
C327 C328 1.383 1_655 S
C327 H335 0.929 . S
C328 C327 1.383 1_455 S
C328 C329 1.377 . S
C329 H313 0.930 . S
C329 C328 1.377 . S
C329 C330 1.379 . S
C330 H314 0.931 . S
C330 C324 1.383 . S
C330 C329 1.379 . S
H331 C325 0.959 . S
H332 C325 0.981 . S
H333 C325 0.960 . S
H334 C326 0.930 . S
H335 C327 0.929 . S
H336 C344 0.929 . S
H337 C346 0.930 . S
H338 C348 0.930 . S
H339 C351 0.929 . S
H340 C354 0.930 . S
H341 C356 0.960 . S
H342 C356 0.960 . S
H343 C356 0.960 1_565 S
C344 H336 0.929 . S
C344 C345 1.377 . S
C344 C346 1.384 . S
C345 C344 1.377 . S
C345 C351 1.390 1_545 S
C346 H337 0.930 . S
C346 C344 1.384 . S
C346 C347 1.372 . S
C347 C346 1.372 . S
C347 C348 1.400 1_545 S
C347 C352 1.490 . S
C348 H338 0.930 . S
C348 C347 1.400 1_565 S
C348 C351 1.386 . S
H349 C365 0.930 . S
H350 C366 0.931 . S
C351 H339 0.929 . S
C351 C345 1.390 1_565 S
C351 C348 1.386 . S
C352 C347 1.490 . S
C352 C354 1.395 . S
C352 C355 1.403 . S
H353 C359 0.930 . S
C354 H340 0.930 . S
C354 C352 1.395 . S
C354 C357 1.403 1_554 S
C355 C352 1.403 . S
C355 C356 1.524 . S
C355 C359 1.400 1_554 S
C356 H341 0.960 . S
C356 H342 0.960 . S
C356 H343 0.960 1_545 S
C356 C355 1.524 . S
C357 C354 1.403 1_556 S
C357 C358 1.392 . S
C357 C361 1.495 . S
C358 C357 1.392 . S
C358 C359 1.385 . S
C358 C360 1.478 . S
C359 H353 0.930 . S
C359 C355 1.400 1_556 S
C359 C358 1.385 . S
C360 C358 1.478 . S
C360 C362 1.381 . S
C360 C366 1.383 1_545 S
C361 C357 1.495 . S
C361 H367 0.959 . S
C361 H368 0.961 . S
C361 H369 0.960 . S
C362 C360 1.381 . S
C362 C363 1.394 . S
C362 H370 0.930 . S
C363 C362 1.394 . S
C363 C364 1.383 . S
C363 H371 0.929 . S
C364 C363 1.383 . S
C364 C365 1.377 1_545 S
C365 H349 0.930 . S
C365 C364 1.377 1_565 S
C365 C366 1.379 . S
C366 H350 0.931 . S
C366 C360 1.383 1_565 S
C366 C365 1.379 . S
H367 C361 0.959 . S
H368 C361 0.961 . S
H369 C361 0.960 . S
H370 C362 0.930 . S
H371 C363 0.929 . S
H372 C380 0.929 . S
H373 C382 0.930 . S
H374 C384 0.930 . S
H375 C387 0.929 . S
H376 C390 0.930 1_655 S
H377 C392 0.960 . S
H378 C392 0.960 . S
H379 C392 0.960 . S
C380 H372 0.929 . S
C380 C381 1.377 1_655 S
C380 C382 1.384 . S
C381 C380 1.377 1_455 S
C381 C387 1.390 . S
C382 H373 0.930 . S
C382 C380 1.384 . S
C382 C383 1.372 1_655 S
C383 C382 1.372 1_455 S
C383 C384 1.400 . S
C383 C388 1.490 . S
C384 H374 0.930 . S
C384 C383 1.400 . S
C384 C387 1.386 . S
H385 C401 0.930 . S
H386 C402 0.931 . S
C387 H375 0.929 . S
C387 C381 1.390 . S
C387 C384 1.386 . S
C388 C383 1.490 . S
C388 C390 1.395 . S
C388 C391 1.403 . S
H389 C395 0.930 . S
C390 H376 0.930 1_455 S
C390 C388 1.395 . S
C390 C393 1.403 . S
C391 C388 1.403 . S
C391 C392 1.524 . S
C391 C395 1.400 . S
C392 H377 0.960 . S
C392 H378 0.960 . S
C392 H379 0.960 . S
C392 C391 1.524 . S
C393 C390 1.403 . S
C393 C394 1.392 . S
C393 C397 1.495 1_455 S
C394 C393 1.392 . S
C394 C395 1.385 . S
C394 C396 1.478 . S
C395 H389 0.930 . S
C395 C391 1.400 . S
C395 C394 1.385 . S
C396 C394 1.478 . S
C396 C398 1.381 1_455 S
C396 C402 1.383 . S
C397 C393 1.495 1_655 S
C397 H403 0.959 . S
C397 H404 0.961 1_655 S
C397 H405 0.960 . S
C398 C396 1.381 1_655 S
C398 C399 1.394 . S
C398 H406 0.930 . S
C399 C398 1.394 . S
C399 C400 1.383 1_655 S
C399 H407 0.929 . S
C400 C399 1.383 1_455 S
C400 C401 1.377 . S
C401 H385 0.930 . S
C401 C400 1.377 . S
C401 C402 1.379 . S
C402 H386 0.931 . S
C402 C396 1.383 . S
C402 C401 1.379 . S
H403 C397 0.959 . S
H404 C397 0.961 1_455 S
H405 C397 0.960 . S
H406 C398 0.930 . S
H407 C399 0.929 . S
H408 C416 0.929 . S
H409 C418 0.930 . S
H410 C420 0.930 . S
H411 C423 0.929 . S
H412 C426 0.930 . S
H413 C428 0.960 . S
H414 C428 0.960 . S
H415 C428 0.960 . S
C416 H408 0.929 . S
C416 C417 1.377 . S
C416 C418 1.384 . S
C417 C416 1.377 . S
C417 C423 1.390 . S
C418 H409 0.930 . S
C418 C416 1.384 . S
C418 C419 1.372 . S
C419 C418 1.372 . S
C419 C420 1.400 . S
C419 C424 1.490 . S
C420 H410 0.930 . S
C420 C419 1.400 . S
C420 C423 1.386 . S
H421 C437 0.930 . S
H422 C438 0.931 . S
C423 H411 0.929 . S
C423 C417 1.390 . S
C423 C420 1.386 . S
C424 C419 1.490 . S
C424 C426 1.395 . S
C424 C427 1.403 . S
H425 C431 0.930 . S
C426 H412 0.930 . S
C426 C424 1.395 . S
C426 C429 1.403 . S
C427 C424 1.403 . S
C427 C428 1.524 . S
C427 C431 1.400 . S
C428 H413 0.960 . S
C428 H414 0.960 . S
C428 H415 0.960 . S
C428 C427 1.524 . S
C429 C426 1.403 . S
C429 C430 1.392 . S
C429 C433 1.495 . S
C430 C429 1.392 . S
C430 C431 1.385 . S
C430 C432 1.478 . S
C431 H425 0.930 . S
C431 C427 1.400 . S
C431 C430 1.385 . S
C432 C430 1.478 . S
C432 C434 1.381 . S
C432 C438 1.383 . S
C433 C429 1.495 . S
C433 H439 0.959 . S
C433 H440 0.961 . S
C433 H441 0.960 . S
C434 C432 1.381 . S
C434 C435 1.394 . S
C434 H442 0.930 . S
C435 C434 1.394 . S
C435 C436 1.383 . S
C435 H443 0.929 . S
C436 C435 1.383 . S
C436 C437 1.377 . S
C437 H421 0.930 . S
C437 C436 1.377 . S
C437 C438 1.379 . S
C438 H422 0.931 . S
C438 C432 1.383 . S
C438 C437 1.379 . S
H439 C433 0.959 . S
H440 C433 0.961 . S
H441 C433 0.960 . S
H442 C434 0.930 . S
H443 C435 0.929 . S
H444 C452 0.929 . S
H445 C454 0.930 . S
H446 C456 0.930 . S
H447 C459 0.929 . S
H448 C462 0.930 . S
H449 C464 0.960 . S
H450 C464 0.960 . S
H451 C464 0.960 . S
C452 H444 0.929 . S
C452 C453 1.377 . S
C452 C454 1.384 . S
C453 C452 1.377 . S
C453 C459 1.390 . S
C454 H445 0.930 . S
C454 C452 1.384 . S
C454 C455 1.372 . S
C455 C454 1.372 . S
C455 C456 1.400 . S
C455 C460 1.490 . S
C456 H446 0.930 . S
C456 C455 1.400 . S
C456 C459 1.386 . S
H457 C473 0.930 . S
H458 C474 0.931 . S
C459 H447 0.929 . S
C459 C453 1.390 . S
C459 C456 1.386 . S
C460 C455 1.490 . S
C460 C462 1.395 . S
C460 C463 1.403 . S
H461 C467 0.930 . S
C462 H448 0.930 . S
C462 C460 1.395 . S
C462 C465 1.403 . S
C463 C460 1.403 . S
C463 C464 1.524 . S
C463 C467 1.400 . S
C464 H449 0.960 . S
C464 H450 0.960 . S
C464 H451 0.960 . S
C464 C463 1.524 . S
C465 C462 1.403 . S
C465 C466 1.392 . S
C465 C469 1.495 . S
C466 C465 1.392 . S
C466 C467 1.385 . S
C466 C468 1.478 . S
C467 H461 0.930 . S
C467 C463 1.400 . S
C467 C466 1.385 . S
C468 C466 1.478 . S
C468 C470 1.381 . S
C468 C474 1.383 . S
C469 C465 1.495 . S
C469 H475 0.959 . S
C469 H476 0.961 . S
C469 H477 0.960 . S
C470 C468 1.381 . S
C470 C471 1.394 . S
C470 H478 0.930 . S
C471 C470 1.394 . S
C471 C472 1.383 . S
C471 H479 0.929 . S
C472 C471 1.383 . S
C472 C473 1.377 . S
C473 H457 0.930 . S
C473 C472 1.377 . S
C473 C474 1.379 . S
C474 H458 0.931 . S
C474 C468 1.383 . S
C474 C473 1.379 . S
H475 C469 0.959 . S
H476 C469 0.961 . S
H477 C469 0.960 . S
H478 C470 0.930 . S
H479 C471 0.929 . S
H480 C488 0.929 . S
H481 C490 0.930 . S
H482 C492 0.930 . S
H483 C495 0.929 . S
H484 C498 0.930 . S
H485 C500 0.960 . S
H486 C500 0.960 . S
H487 C500 0.960 . S
C488 H480 0.929 . S
C488 C489 1.377 . S
C488 C490 1.384 . S
C489 C488 1.377 . S
C489 C495 1.390 . S
C490 H481 0.930 . S
C490 C488 1.384 . S
C490 C491 1.372 . S
C491 C490 1.372 . S
C491 C492 1.400 . S
C491 C496 1.490 . S
C492 H482 0.930 . S
C492 C491 1.400 . S
C492 C495 1.386 . S
H493 C509 0.930 . S
H494 C510 0.931 . S
C495 H483 0.929 . S
C495 C489 1.390 . S
C495 C492 1.386 . S
C496 C491 1.490 . S
C496 C498 1.395 . S
C496 C499 1.403 . S
H497 C503 0.930 . S
C498 H484 0.930 . S
C498 C496 1.395 . S
C498 C501 1.403 . S
C499 C496 1.403 . S
C499 C500 1.524 . S
C499 C503 1.400 . S
C500 H485 0.960 . S
C500 H486 0.960 . S
C500 H487 0.960 . S
C500 C499 1.524 . S
C501 C498 1.403 . S
C501 C502 1.392 . S
C501 C505 1.495 . S
C502 C501 1.392 . S
C502 C503 1.385 . S
C502 C504 1.478 . S
C503 H497 0.930 . S
C503 C499 1.400 . S
C503 C502 1.385 . S
C504 C502 1.478 . S
C504 C506 1.381 . S
C504 C510 1.383 . S
C505 C501 1.495 . S
C505 H511 0.959 . S
C505 H512 0.961 . S
C505 H513 0.960 . S
C506 C504 1.381 . S
C506 C507 1.394 . S
C506 H514 0.930 . S
C507 C506 1.394 . S
C507 C508 1.383 . S
C507 H515 0.929 . S
C508 C507 1.383 . S
C508 C509 1.377 . S
C509 H493 0.930 . S
C509 C508 1.377 . S
C509 C510 1.379 . S
C510 H494 0.931 . S
C510 C504 1.383 . S
C510 C509 1.379 . S
H511 C505 0.959 . S
H512 C505 0.961 . S
H513 C505 0.960 . S
H514 C506 0.930 . S
H515 C507 0.929 . S
H516 C524 0.929 . S
H517 C526 0.930 . S
H518 C528 0.930 . S
H519 C531 0.929 . S
H520 C534 0.930 . S
H521 C536 0.960 . S
H522 C536 0.960 . S
H523 C536 0.960 . S
C524 H516 0.929 . S
C524 C525 1.377 . S
C524 C526 1.384 . S
C525 C524 1.377 . S
C525 C531 1.390 . S
C526 H517 0.930 . S
C526 C524 1.384 . S
C526 C527 1.372 . S
C527 C526 1.372 . S
C527 C528 1.400 . S
C527 C532 1.490 . S
C528 H518 0.930 . S
C528 C527 1.400 . S
C528 C531 1.386 . S
H529 C545 0.930 . S
H530 C546 0.931 . S
C531 H519 0.929 . S
C531 C525 1.390 . S
C531 C528 1.386 . S
C532 C527 1.490 . S
C532 C534 1.395 . S
C532 C535 1.403 . S
H533 C539 0.930 . S
C534 H520 0.930 . S
C534 C532 1.395 . S
C534 C537 1.403 . S
C535 C532 1.403 . S
C535 C536 1.524 . S
C535 C539 1.400 . S
C536 H521 0.960 . S
C536 H522 0.960 . S
C536 H523 0.960 . S
C536 C535 1.524 . S
C537 C534 1.403 . S
C537 C538 1.392 . S
C537 C541 1.495 . S
C538 C537 1.392 . S
C538 C539 1.385 . S
C538 C540 1.478 . S
C539 H533 0.930 . S
C539 C535 1.400 . S
C539 C538 1.385 . S
C540 C538 1.478 . S
C540 C542 1.381 . S
C540 C546 1.383 . S
C541 C537 1.495 . S
C541 H547 0.959 . S
C541 H548 0.961 . S
C541 H549 0.960 . S
C542 C540 1.381 . S
C542 C543 1.394 . S
C542 H550 0.930 . S
C543 C542 1.394 . S
C543 C544 1.383 . S
C543 H551 0.929 . S
C544 C543 1.383 . S
C544 C545 1.377 . S
C545 H529 0.930 . S
C545 C544 1.377 . S
C545 C546 1.379 . S
C546 H530 0.931 . S
C546 C540 1.383 . S
C546 C545 1.379 . S
H547 C541 0.959 . S
H548 C541 0.961 . S
H549 C541 0.960 . S
H550 C542 0.930 . S
H551 C543 0.929 . S
H552 C560 0.929 . S
H553 C562 0.930 . S
H554 C564 0.930 . S
H555 C567 0.929 . S
H556 C570 0.930 . S
H557 C572 0.960 . S
H558 C572 0.960 . S
H559 C572 0.960 . S
C560 H552 0.929 . S
C560 C561 1.377 . S
C560 C562 1.384 . S
C561 C560 1.377 . S
C561 C567 1.390 . S
C562 H553 0.930 . S
C562 C560 1.384 . S
C562 C563 1.372 . S
C563 C562 1.372 . S
C563 C564 1.400 . S
C563 C568 1.490 . S
C564 H554 0.930 . S
C564 C563 1.400 . S
C564 C567 1.386 . S
H565 C581 0.930 . S
H566 C582 0.931 . S
C567 H555 0.929 . S
C567 C561 1.390 . S
C567 C564 1.386 . S
C568 C563 1.490 . S
C568 C570 1.395 . S
C568 C571 1.403 . S
H569 C575 0.930 . S
C570 H556 0.930 . S
C570 C568 1.395 . S
C570 C573 1.403 . S
C571 C568 1.403 . S
C571 C572 1.524 . S
C571 C575 1.400 . S
C572 H557 0.960 . S
C572 H558 0.960 . S
C572 H559 0.960 . S
C572 C571 1.524 . S
C573 C570 1.403 . S
C573 C574 1.392 . S
C573 C577 1.495 . S
C574 C573 1.392 . S
C574 C575 1.385 . S
C574 C576 1.478 . S
C575 H569 0.930 . S
C575 C571 1.400 . S
C575 C574 1.385 . S
C576 C574 1.478 . S
C576 C578 1.381 . S
C576 C582 1.383 . S
C577 C573 1.495 . S
C577 H583 0.959 . S
C577 H584 0.961 . S
C577 H585 0.960 . S
C578 C576 1.381 . S
C578 C579 1.394 . S
C578 H586 0.930 . S
C579 C578 1.394 . S
C579 C580 1.383 . S
C579 H587 0.929 . S
C580 C579 1.383 . S
C580 C581 1.377 . S
C581 H565 0.930 . S
C581 C580 1.377 . S
C581 C582 1.379 . S
C582 H566 0.931 . S
C582 C576 1.383 . S
C582 C581 1.379 . S
H583 C577 0.959 . S
H584 C577 0.961 . S
H585 C577 0.960 . S
H586 C578 0.930 . S
H587 C579 0.929 . S
H588 C596 0.929 . S
H589 C598 0.930 . S
H590 C600 0.930 . S
H591 C603 0.929 . S
H592 C606 0.930 . S
H593 C608 0.960 . S
H594 C608 0.960 . S
H595 C608 0.960 . S
C596 H588 0.929 . S
C596 C597 1.377 . S
C596 C598 1.384 . S
C597 C596 1.377 . S
C597 C603 1.390 . S
C598 H589 0.930 . S
C598 C596 1.384 . S
C598 C599 1.372 . S
C599 C598 1.372 . S
C599 C600 1.400 . S
C599 C604 1.490 . S
C600 H590 0.930 . S
C600 C599 1.400 . S
C600 C603 1.386 . S
H601 C617 0.930 . S
H602 C618 0.931 . S
C603 H591 0.929 . S
C603 C597 1.390 . S
C603 C600 1.386 . S
C604 C599 1.490 . S
C604 C606 1.395 . S
C604 C607 1.403 . S
H605 C611 0.930 . S
C606 H592 0.930 . S
C606 C604 1.395 . S
C606 C609 1.403 . S
C607 C604 1.403 . S
C607 C608 1.524 . S
C607 C611 1.400 . S
C608 H593 0.960 . S
C608 H594 0.960 . S
C608 H595 0.960 . S
C608 C607 1.524 . S
C609 C606 1.403 . S
C609 C610 1.392 . S
C609 C613 1.495 . S
C610 C609 1.392 . S
C610 C611 1.385 . S
C610 C612 1.478 . S
C611 H605 0.930 . S
C611 C607 1.400 . S
C611 C610 1.385 . S
C612 C610 1.478 . S
C612 C614 1.381 . S
C612 C618 1.383 . S
C613 C609 1.495 . S
C613 H619 0.959 . S
C613 H620 0.961 . S
C613 H621 0.960 . S
C614 C612 1.381 . S
C614 C615 1.394 . S
C614 H622 0.930 . S
C615 C614 1.394 . S
C615 C616 1.383 . S
C615 H623 0.929 . S
C616 C615 1.383 . S
C616 C617 1.377 . S
C617 H601 0.930 . S
C617 C616 1.377 . S
C617 C618 1.379 . S
C618 H602 0.931 . S
C618 C612 1.383 . S
C618 C617 1.379 . S
H619 C613 0.959 . S
H620 C613 0.961 . S
H621 C613 0.960 . S
H622 C614 0.930 . S
H623 C615 0.929 . S
H624 C632 0.929 . S
H625 C634 0.930 . S
H626 C636 0.930 . S
H627 C639 0.929 . S
H628 C642 0.930 . S
H629 C644 0.960 . S
H630 C644 0.960 . S
H631 C644 0.960 . S
C632 H624 0.929 . S
C632 C633 1.377 . S
C632 C634 1.384 . S
C633 C632 1.377 . S
C633 C639 1.390 . S
C634 H625 0.930 . S
C634 C632 1.384 . S
C634 C635 1.372 . S
C635 C634 1.372 . S
C635 C636 1.400 . S
C635 C640 1.490 . S
C636 H626 0.930 . S
C636 C635 1.400 . S
C636 C639 1.386 . S
H637 C653 0.930 . S
H638 C654 0.931 . S
C639 H627 0.929 . S
C639 C633 1.390 . S
C639 C636 1.386 . S
C640 C635 1.490 . S
C640 C642 1.395 . S
C640 C643 1.403 . S
H641 C647 0.930 . S
C642 H628 0.930 . S
C642 C640 1.395 . S
C642 C645 1.403 . S
C643 C640 1.403 . S
C643 C644 1.524 . S
C643 C647 1.400 . S
C644 H629 0.960 . S
C644 H630 0.960 . S
C644 H631 0.960 . S
C644 C643 1.524 . S
C645 C642 1.403 . S
C645 C646 1.392 . S
C645 C649 1.495 . S
C646 C645 1.392 . S
C646 C647 1.385 . S
C646 C648 1.478 . S
C647 H641 0.930 . S
C647 C643 1.400 . S
C647 C646 1.385 . S
C648 C646 1.478 . S
C648 C650 1.381 . S
C648 C654 1.383 . S
C649 C645 1.495 . S
C649 H655 0.959 . S
C649 H656 0.961 . S
C649 H657 0.960 . S
C650 C648 1.381 . S
C650 C651 1.394 . S
C650 H658 0.930 . S
C651 C650 1.394 . S
C651 C652 1.383 . S
C651 H659 0.929 . S
C652 C651 1.383 . S
C652 C653 1.377 . S
C653 H637 0.930 . S
C653 C652 1.377 . S
C653 C654 1.379 . S
C654 H638 0.931 . S
C654 C648 1.383 . S
C654 C653 1.379 . S
H655 C649 0.959 . S
H656 C649 0.961 . S
H657 C649 0.960 . S
H658 C650 0.930 . S
H659 C651 0.929 . S
H660 C668 0.929 . S
H661 C670 0.930 . S
H662 C672 0.930 . S
H663 C675 0.929 . S
H664 C678 0.930 . S
H665 C680 0.960 . S
H666 C680 0.960 . S
H667 C680 0.960 . S
C668 H660 0.929 . S
C668 C669 1.377 . S
C668 C670 1.384 . S
C669 C668 1.377 . S
C669 C675 1.390 . S
C670 H661 0.930 . S
C670 C668 1.384 . S
C670 C671 1.372 . S
C671 C670 1.372 . S
C671 C672 1.400 . S
C671 C676 1.490 . S
C672 H662 0.930 . S
C672 C671 1.400 . S
C672 C675 1.386 . S
H673 C689 0.930 . S
H674 C690 0.931 . S
C675 H663 0.929 . S
C675 C669 1.390 . S
C675 C672 1.386 . S
C676 C671 1.490 . S
C676 C678 1.395 . S
C676 C679 1.403 . S
H677 C683 0.930 . S
C678 H664 0.930 . S
C678 C676 1.395 . S
C678 C681 1.403 . S
C679 C676 1.403 . S
C679 C680 1.524 . S
C679 C683 1.400 . S
C680 H665 0.960 . S
C680 H666 0.960 . S
C680 H667 0.960 . S
C680 C679 1.524 . S
C681 C678 1.403 . S
C681 C682 1.392 . S
C681 C685 1.495 . S
C682 C681 1.392 . S
C682 C683 1.385 . S
C682 C684 1.478 . S
C683 H677 0.930 . S
C683 C679 1.400 . S
C683 C682 1.385 . S
C684 C682 1.478 . S
C684 C686 1.381 . S
C684 C690 1.383 . S
C685 C681 1.495 . S
C685 H691 0.959 . S
C685 H692 0.961 . S
C685 H693 0.960 . S
C686 C684 1.381 . S
C686 C687 1.394 . S
C686 H694 0.930 . S
C687 C686 1.394 . S
C687 C688 1.383 . S
C687 H695 0.929 . S
C688 C687 1.383 . S
C688 C689 1.377 . S
C689 H673 0.930 . S
C689 C688 1.377 . S
C689 C690 1.379 . S
C690 H674 0.931 . S
C690 C684 1.383 . S
C690 C689 1.379 . S
H691 C685 0.959 . S
H692 C685 0.961 . S
H693 C685 0.960 . S
H694 C686 0.930 . S
H695 C687 0.929 . S
H696 C704 0.929 . S
H697 C706 0.930 . S
H698 C708 0.930 . S
H699 C711 0.929 . S
H700 C714 0.930 . S
H701 C716 0.960 . S
H702 C716 0.960 . S
H703 C716 0.960 . S
C704 H696 0.929 . S
C704 C705 1.377 1_565 S
C704 C706 1.384 . S
C705 C704 1.377 1_545 S
C705 C711 1.390 . S
C706 H697 0.930 . S
C706 C704 1.384 . S
C706 C707 1.372 1_565 S
C707 C706 1.372 1_545 S
C707 C708 1.400 . S
C707 C712 1.490 . S
C708 H698 0.930 . S
C708 C707 1.400 . S
C708 C711 1.386 . S
H709 C725 0.930 . S
H710 C726 0.931 . S
C711 H699 0.929 . S
C711 C705 1.390 . S
C711 C708 1.386 . S
C712 C707 1.490 . S
C712 C714 1.395 1_545 S
C712 C715 1.403 . S
H713 C719 0.930 . S
C714 H700 0.930 . S
C714 C712 1.395 1_565 S
C714 C717 1.403 1_455 S
C715 C712 1.403 . S
C715 C716 1.524 . S
C715 C719 1.400 1_455 S
C716 H701 0.960 . S
C716 H702 0.960 . S
C716 H703 0.960 . S
C716 C715 1.524 . S
C717 C714 1.403 1_655 S
C717 C718 1.392 1_565 S
C717 C721 1.495 . S
C718 C717 1.392 1_545 S
C718 C719 1.385 . S
C718 C720 1.478 . S
C719 H713 0.930 . S
C719 C715 1.400 1_655 S
C719 C718 1.385 . S
C720 C718 1.478 . S
C720 C722 1.381 . S
C720 C726 1.383 . S
C721 C717 1.495 . S
C721 H727 0.959 . S
C721 H728 0.961 . S
C721 H729 0.960 . S
C722 C720 1.381 . S
C722 C723 1.394 . S
C722 H730 0.930 1_545 S
C723 C722 1.394 . S
C723 C724 1.383 . S
C723 H731 0.929 . S
C724 C723 1.383 . S
C724 C725 1.377 . S
C725 H709 0.930 . S
C725 C724 1.377 . S
C725 C726 1.379 . S
C726 H710 0.931 . S
C726 C720 1.383 . S
C726 C725 1.379 . S
H727 C721 0.959 . S
H728 C721 0.961 . S
H729 C721 0.960 . S
H730 C722 0.930 1_565 S
H731 C723 0.929 . S
H732 C740 0.929 . S
H733 C742 0.930 . S
H734 C744 0.930 . S
H735 C747 0.929 . S
H736 C750 0.930 . S
H737 C752 0.960 . S
H738 C752 0.960 . S
H739 C752 0.960 . S
C740 H732 0.929 . S
C740 C741 1.377 . S
C740 C742 1.384 . S
C741 C740 1.377 . S
C741 C747 1.390 1_455 S
C742 H733 0.930 . S
C742 C740 1.384 . S
C742 C743 1.372 . S
C743 C742 1.372 . S
C743 C744 1.400 1_455 S
C743 C748 1.490 . S
C744 H734 0.930 . S
C744 C743 1.400 1_655 S
C744 C747 1.386 . S
H745 C761 0.930 . S
H746 C762 0.931 . S
C747 H735 0.929 . S
C747 C741 1.390 1_655 S
C747 C744 1.386 . S
C748 C743 1.490 . S
C748 C750 1.395 . S
C748 C751 1.403 1_455 S
H749 C755 0.930 . S
C750 H736 0.930 . S
C750 C748 1.395 . S
C750 C753 1.403 1_545 S
C751 C748 1.403 1_655 S
C751 C752 1.524 . S
C751 C755 1.400 1_545 S
C752 H737 0.960 . S
C752 H738 0.960 . S
C752 H739 0.960 . S
C752 C751 1.524 . S
C753 C750 1.403 1_565 S
C753 C754 1.392 . S
C753 C757 1.495 . S
C754 C753 1.392 . S
C754 C755 1.385 1_455 S
C754 C756 1.478 . S
C755 H749 0.930 . S
C755 C751 1.400 1_565 S
C755 C754 1.385 1_655 S
C756 C754 1.478 . S
C756 C758 1.381 . S
C756 C762 1.383 1_455 S
C757 C753 1.495 . S
C757 H763 0.959 . S
C757 H764 0.961 . S
C757 H765 0.960 . S
C758 C756 1.381 . S
C758 C759 1.394 . S
C758 H766 0.930 . S
C759 C758 1.394 . S
C759 C760 1.383 . S
C759 H767 0.929 . S
C760 C759 1.383 . S
C760 C761 1.377 1_455 S
C761 H745 0.930 . S
C761 C760 1.377 1_655 S
C761 C762 1.379 . S
C762 H746 0.931 . S
C762 C756 1.383 1_655 S
C762 C761 1.379 . S
H763 C757 0.959 . S
H764 C757 0.961 . S
H765 C757 0.960 . S
H766 C758 0.930 . S
H767 C759 0.929 . S
H768 C776 0.929 . S
H769 C778 0.930 . S
H770 C780 0.930 . S
H771 C783 0.929 . S
H772 C786 0.930 . S
H773 C788 0.960 . S
H774 C788 0.960 . S
H775 C788 0.960 . S
C776 H768 0.929 . S
C776 C777 1.377 1_565 S
C776 C778 1.384 . S
C777 C776 1.377 1_545 S
C777 C783 1.390 . S
C778 H769 0.930 . S
C778 C776 1.384 . S
C778 C779 1.372 1_565 S
C779 C778 1.372 1_545 S
C779 C780 1.400 . S
C779 C784 1.490 . S
C780 H770 0.930 . S
C780 C779 1.400 . S
C780 C783 1.386 . S
H781 C797 0.930 . S
H782 C798 0.931 . S
C783 H771 0.929 . S
C783 C777 1.390 . S
C783 C780 1.386 . S
C784 C779 1.490 . S
C784 C786 1.395 1_545 S
C784 C787 1.403 . S
H785 C791 0.930 . S
C786 H772 0.930 . S
C786 C784 1.395 1_565 S
C786 C789 1.403 1_655 S
C787 C784 1.403 . S
C787 C788 1.524 . S
C787 C791 1.400 1_655 S
C788 H773 0.960 . S
C788 H774 0.960 . S
C788 H775 0.960 . S
C788 C787 1.524 . S
C789 C786 1.403 1_455 S
C789 C790 1.392 1_565 S
C789 C793 1.495 . S
C790 C789 1.392 1_545 S
C790 C791 1.385 . S
C790 C792 1.478 . S
C791 H785 0.930 . S
C791 C787 1.400 1_455 S
C791 C790 1.385 . S
C792 C790 1.478 . S
C792 C794 1.381 1_545 S
C792 C798 1.383 . S
C793 C789 1.495 . S
C793 H799 0.959 . S
C793 H800 0.961 . S
C793 H801 0.960 . S
C794 C792 1.381 1_565 S
C794 C795 1.394 1_565 S
C794 H802 0.930 . S
C795 C794 1.394 1_545 S
C795 C796 1.383 . S
C795 H803 0.929 1_545 S
C796 C795 1.383 . S
C796 C797 1.377 . S
C797 H781 0.930 . S
C797 C796 1.377 . S
C797 C798 1.379 . S
C798 H782 0.931 . S
C798 C792 1.383 . S
C798 C797 1.379 . S
H799 C793 0.959 . S
H800 C793 0.961 . S
H801 C793 0.960 . S
H802 C794 0.930 . S
H803 C795 0.929 1_565 S
H804 C812 0.929 . S
H805 C814 0.930 . S
H806 C816 0.930 . S
H807 C819 0.929 . S
H808 C822 0.930 . S
H809 C824 0.947 1_545 S
H810 C824 0.960 . S
H811 C824 0.960 1_655 S
C812 H804 0.929 . S
C812 C813 1.377 . S
C812 C814 1.384 . S
C813 C812 1.377 . S
C813 C819 1.390 1_455 S
C814 H805 0.930 . S
C814 C812 1.384 . S
C814 C815 1.372 . S
C815 C814 1.372 . S
C815 C816 1.400 1_455 S
C815 C820 1.490 . S
C816 H806 0.930 . S
C816 C815 1.400 1_655 S
C816 C819 1.386 . S
H817 C833 0.930 . S
H818 C834 0.931 . S
C819 H807 0.929 . S
C819 C813 1.390 1_655 S
C819 C816 1.386 . S
C820 C815 1.490 . S
C820 C822 1.395 . S
C820 C823 1.403 . S
H821 C827 0.930 . S
C822 H808 0.930 . S
C822 C820 1.395 . S
C822 C825 1.403 1_565 S
C823 C820 1.403 . S
C823 C824 1.524 . S
C823 C827 1.400 1_565 S
C824 H809 0.947 1_565 S
C824 H810 0.960 . S
C824 H811 0.960 1_455 S
C824 C823 1.524 . S
C825 C822 1.403 1_545 S
C825 C826 1.392 . S
C825 C829 1.495 . S
C826 C825 1.392 . S
C826 C827 1.385 . S
C826 C828 1.478 . S
C827 H821 0.930 . S
C827 C823 1.400 1_545 S
C827 C826 1.385 . S
C828 C826 1.478 . S
C828 C830 1.381 . S
C828 C834 1.383 1_455 S
C829 C825 1.495 . S
C829 H835 0.959 . S
C829 H836 0.961 . S
C829 H837 0.960 . S
C830 C828 1.381 . S
C830 C831 1.394 . S
C830 H838 0.930 . S
C831 C830 1.394 . S
C831 C832 1.383 . S
C831 H839 0.929 . S
C832 C831 1.383 . S
C832 C833 1.377 1_455 S
C833 H817 0.930 . S
C833 C832 1.377 1_655 S
C833 C834 1.379 . S
C834 H818 0.931 . S
C834 C828 1.383 1_655 S
C834 C833 1.379 . S
H835 C829 0.959 . S
H836 C829 0.961 . S
H837 C829 0.960 . S
H838 C830 0.930 . S
H839 C831 0.929 . S
H840 C848 0.929 . S
H841 C850 0.930 . S
H842 C852 0.930 . S
H843 C855 0.929 . S
H844 C858 0.930 . S
H845 C860 0.960 . S
H846 C860 0.960 . S
H847 C860 0.960 . S
C848 H840 0.929 . S
C848 C849 1.377 1_565 S
C848 C850 1.384 . S
C849 C848 1.377 1_545 S
C849 C855 1.390 . S
C850 H841 0.930 . S
C850 C848 1.384 . S
C850 C851 1.372 1_565 S
C851 C850 1.372 1_545 S
C851 C852 1.400 . S
C851 C856 1.490 . S
C852 H842 0.930 . S
C852 C851 1.400 . S
C852 C855 1.386 . S
H853 C869 0.930 . S
H854 C870 0.931 . S
C855 H843 0.929 . S
C855 C849 1.390 . S
C855 C852 1.386 . S
C856 C851 1.490 . S
C856 C858 1.395 1_545 S
C856 C859 1.403 . S
H857 C863 0.930 . S
C858 H844 0.930 . S
C858 C856 1.395 1_565 S
C858 C861 1.403 . S
C859 C856 1.403 . S
C859 C860 1.524 . S
C859 C863 1.400 . S
C860 H845 0.960 . S
C860 H846 0.960 . S
C860 H847 0.960 . S
C860 C859 1.524 . S
C861 C858 1.403 . S
C861 C862 1.392 1_565 S
C861 C865 1.495 . S
C862 C861 1.392 1_545 S
C862 C863 1.385 . S
C862 C864 1.478 . S
C863 H857 0.930 . S
C863 C859 1.400 . S
C863 C862 1.385 . S
C864 C862 1.478 . S
C864 C866 1.381 1_545 S
C864 C870 1.383 . S
C865 C861 1.495 . S
C865 H871 0.959 . S
C865 H872 0.961 . S
C865 H873 0.960 . S
C866 C864 1.381 1_565 S
C866 C867 1.394 . S
C866 H874 0.930 . S
C867 C866 1.394 . S
C867 C868 1.384 1_565 S
C867 H875 0.928 . S
C868 C867 1.384 1_545 S
C868 C869 1.377 . S
C869 H853 0.930 . S
C869 C868 1.377 . S
C869 C870 1.379 . S
C870 H854 0.931 . S
C870 C864 1.383 . S
C870 C869 1.379 . S
H871 C865 0.959 . S
H872 C865 0.961 . S
H873 C865 0.960 . S
H874 C866 0.930 . S
H875 C867 0.928 . S
H876 C884 0.929 . S
H877 C886 0.930 . S
H878 C888 0.930 . S
H879 C891 0.929 . S
H880 C894 0.930 . S
H881 C896 0.960 . S
H882 C896 0.960 . S
H883 C896 0.960 . S
C884 H876 0.929 . S
C884 C885 1.377 . S
C884 C886 1.384 . S
C885 C884 1.377 . S
C885 C891 1.390 1_455 S
C886 H877 0.930 . S
C886 C884 1.384 . S
C886 C887 1.372 . S
C887 C886 1.372 . S
C887 C888 1.400 1_455 S
C887 C892 1.490 . S
C888 H878 0.930 . S
C888 C887 1.400 1_655 S
C888 C891 1.386 . S
H889 C905 0.930 . S
H890 C906 0.954 . S
C891 H879 0.929 . S
C891 C885 1.390 1_655 S
C891 C888 1.386 . S
C892 C887 1.490 . S
C892 C894 1.395 . S
C892 C895 1.403 1_455 S
H893 C899 0.930 . S
C894 H880 0.930 . S
C894 C892 1.395 . S
C894 C897 1.403 . S
C895 C892 1.403 1_655 S
C895 C896 1.524 . S
C895 C899 1.400 . S
C896 H881 0.960 . S
C896 H882 0.960 . S
C896 H883 0.960 . S
C896 C895 1.524 . S
C897 C894 1.403 . S
C897 C898 1.392 . S
C897 C901 1.495 . S
C898 C897 1.392 . S
C898 C899 1.385 1_455 S
C898 C900 1.478 . S
C899 H893 0.930 . S
C899 C895 1.400 . S
C899 C898 1.385 1_655 S
C900 C898 1.478 . S
C900 C902 1.381 . S
C900 C906 1.360 1_455 S
C901 C897 1.495 . S
C901 H907 0.959 . S
C901 H908 0.961 . S
C901 H909 0.960 . S
C902 C900 1.381 . S
C902 C903 1.394 . S
C902 H910 0.930 . S
C903 C902 1.394 . S
C903 C904 1.383 . S
C903 H911 0.929 . S
C904 C903 1.383 . S
C904 C905 1.377 1_455 S
C905 H889 0.930 . S
C905 C904 1.377 1_655 S
C905 C906 1.381 . S
C906 H890 0.954 . S
C906 C900 1.360 1_655 S
C906 C905 1.381 . S
H907 C901 0.959 . S
H908 C901 0.961 . S
H909 C901 0.960 . S
H910 C902 0.930 . S
H911 C903 0.929 . S
H912 C920 0.929 . S
H913 C922 0.930 . S
H914 C924 0.930 . S
H915 C927 0.929 . S
H916 C930 0.930 . S
H917 C932 0.960 . S
H918 C932 0.960 . S
H919 C932 0.960 . S
C920 H912 0.929 . S
C920 C921 1.377 . S
C920 C922 1.384 . S
C921 C920 1.377 . S
C921 C927 1.390 . S
C922 H913 0.930 . S
C922 C920 1.384 . S
C922 C923 1.372 . S
C923 C922 1.372 . S
C923 C924 1.400 . S
C923 C928 1.490 . S
C924 H914 0.930 . S
C924 C923 1.400 . S
C924 C927 1.386 . S
H925 C941 0.930 . S
H926 C942 0.931 1_565 S
C927 H915 0.929 . S
C927 C921 1.390 . S
C927 C924 1.386 . S
C928 C923 1.490 . S
C928 C930 1.395 1_545 S
C928 C931 1.403 . S
H929 C935 0.930 . S
C930 H916 0.930 . S
C930 C928 1.395 1_565 S
C930 C933 1.403 . S
C931 C928 1.403 . S
C931 C932 1.524 . S
C931 C935 1.400 . S
C932 H917 0.960 . S
C932 H918 0.960 . S
C932 H919 0.960 . S
C932 C931 1.524 . S
C933 C930 1.403 . S
C933 C934 1.392 1_565 S
C933 C937 1.495 . S
C934 C933 1.392 1_545 S
C934 C935 1.385 . S
C934 C936 1.478 . S
C935 H929 0.930 . S
C935 C931 1.400 . S
C935 C934 1.385 . S
C936 C934 1.478 . S
C936 C938 1.381 . S
C936 C942 1.383 . S
C937 C933 1.495 . S
C937 H943 0.959 . S
C937 H944 0.961 . S
C937 H945 0.960 . S
C938 C936 1.381 . S
C938 C939 1.394 . S
C938 H946 0.930 . S
C939 C938 1.394 . S
C939 C940 1.383 . S
C939 H947 0.929 . S
C940 C939 1.383 . S
C940 C941 1.377 . S
C941 H925 0.930 . S
C941 C940 1.377 . S
C941 C942 1.379 . S
C942 H926 0.931 1_545 S
C942 C936 1.383 . S
C942 C941 1.379 . S
H943 C937 0.959 . S
H944 C937 0.961 . S
H945 C937 0.960 . S
H946 C938 0.930 . S
H947 C939 0.929 . S
H948 C956 0.929 . S
H949 C958 0.930 . S
H950 C960 0.930 . S
H951 C963 0.929 . S
H952 C966 0.930 . S
H953 C968 0.960 . S
H954 C968 0.960 . S
H955 C968 0.960 . S
C956 H948 0.929 . S
C956 C957 1.377 1_655 S
C956 C958 1.384 . S
C957 C956 1.377 1_455 S
C957 C963 1.390 . S
C958 H949 0.930 . S
C958 C956 1.384 . S
C958 C959 1.372 1_655 S
C959 C958 1.372 1_455 S
C959 C960 1.400 . S
C959 C964 1.490 . S
C960 H950 0.930 . S
C960 C959 1.400 . S
C960 C963 1.386 . S
H961 C977 0.930 . S
H962 C978 0.931 . S
C963 H951 0.929 . S
C963 C957 1.390 . S
C963 C960 1.386 . S
C964 C959 1.490 . S
C964 C966 1.395 1_455 S
C964 C967 1.403 . S
H965 C971 0.930 . S
C966 H952 0.930 . S
C966 C964 1.395 1_655 S
C966 C969 1.403 . S
C967 C964 1.403 . S
C967 C968 1.524 . S
C967 C971 1.400 . S
C968 H953 0.960 . S
C968 H954 0.960 . S
C968 H955 0.960 . S
C968 C967 1.524 . S
C969 C966 1.403 . S
C969 C970 1.392 1_655 S
C969 C973 1.495 . S
C970 C969 1.392 1_455 S
C970 C971 1.385 . S
C970 C972 1.478 . S
C971 H965 0.930 . S
C971 C967 1.400 . S
C971 C970 1.385 . S
C972 C970 1.478 . S
C972 C974 1.381 1_455 S
C972 C978 1.383 . S
C973 C969 1.495 . S
C973 H979 0.959 . S
C973 H980 0.961 . S
C973 H981 0.960 . S
C974 C972 1.381 1_655 S
C974 C975 1.394 . S
C974 H982 0.930 . S
C975 C974 1.394 . S
C975 C976 1.383 1_655 S
C975 H983 0.929 . S
C976 C975 1.383 1_455 S
C976 C977 1.377 . S
C977 H961 0.930 . S
C977 C976 1.377 . S
C977 C978 1.379 . S
C978 H962 0.931 . S
C978 C972 1.383 . S
C978 C977 1.379 . S
H979 C973 0.959 . S
H980 C973 0.961 . S
H981 C973 0.960 . S
H982 C974 0.930 . S
H983 C975 0.929 . S
C273 C18 1.708 . S
C292 C150 1.713 . S
C309 C183 1.711 . S
C328 C51 1.698 . S
C345 C84 1.711 . S
C364 C216 1.697 . S
C381 C249 1.709 . S
C400 C117 1.715 . S
C417 C186 0.583 . S
C436 C21 0.610 . S
C453 C219 0.558 . S
C472 C54 0.621 . S
C489 C87 0.557 . S
C508 C252 0.609 . S
C525 C153 0.570 . S
C544 C120 0.650 . S
C561 C106 0.901 . S
C580 C205 0.958 . S
C597 C7 0.902 . S
C616 C238 0.884 . S
C633 C40 0.903 . S
C652 C139 0.958 . S
C669 C73 0.908 . S
C688 C172 0.863 . S
C705 N2 0.440 . S
C724 N68 0.420 . S
C741 N35 0.445 . S
C760 N101 0.471 . S
C777 N200 0.440 . S
C796 N134 0.438 . S
C813 N233 0.454 . S
C832 N167 0.506 . S
C849 N13 0.978 . S
C868 N79 0.995 . S
C885 N112 0.987 . S
C904 N46 0.960 . S
C921 N145 0.983 . S
C940 N211 0.982 . S
C957 N178 0.977 . S
C976 N244 1.004 . S
