# Generated by pormake.
# Topology uot, (4)-cn, num edge types: 1
# Building blocks:
#     Node 0, Type 0, BuildingBlock: CEKHIL_clean_sbu_0, # of connection points: 4
#     Node 1, Type 0, BuildingBlock: CEKHIL_clean_sbu_0, # of connection points: 4
#     Node 2, Type 0, BuildingBlock: CEKHIL_clean_sbu_0, # of connection points: 4
#     Node 3, Type 0, BuildingBlock: CEKHIL_clean_sbu_0, # of connection points: 4
#     Node 4, Type 0, BuildingBlock: CEKHIL_clean_sbu_0, # of connection points: 4
#     Node 5, Type 0, BuildingBlock: CEKHIL_clean_sbu_0, # of connection points: 4
#     Node 6, Type 0, BuildingBlock: CEKHIL_clean_sbu_0, # of connection points: 4
#     Node 7, Type 0, BuildingBlock: CEKHIL_clean_sbu_0, # of connection points: 4
#     Node 8, Type 0, BuildingBlock: CEKHIL_clean_sbu_0, # of connection points: 4
#     Node 9, Type 0, BuildingBlock: CEKHIL_clean_sbu_0, # of connection points: 4
#     Node 10, Type 0, BuildingBlock: CEKHIL_clean_sbu_0, # of connection points: 4
#     Node 11, Type 0, BuildingBlock: CEKHIL_clean_sbu_0, # of connection points: 4
#     Node 12, Type 0, BuildingBlock: CEKHIL_clean_sbu_0, # of connection points: 4
#     Node 13, Type 0, BuildingBlock: CEKHIL_clean_sbu_0, # of connection points: 4
#     Node 14, Type 0, BuildingBlock: CEKHIL_clean_sbu_0, # of connection points: 4
#     Node 15, Type 0, BuildingBlock: CEKHIL_clean_sbu_0, # of connection points: 4
#     Edge 16, Type (0, 0), BuildingBlock: ZUJKAS_clean_linker_0, # of connection points: 2
#     Edge 17, Type (0, 0), BuildingBlock: ZUJKAS_clean_linker_0, # of connection points: 2
#     Edge 18, Type (0, 0), BuildingBlock: ZUJKAS_clean_linker_0, # of connection points: 2
#     Edge 19, Type (0, 0), BuildingBlock: ZUJKAS_clean_linker_0, # of connection points: 2
#     Edge 20, Type (0, 0), BuildingBlock: ZUJKAS_clean_linker_0, # of connection points: 2
#     Edge 21, Type (0, 0), BuildingBlock: ZUJKAS_clean_linker_0, # of connection points: 2
#     Edge 22, Type (0, 0), BuildingBlock: ZUJKAS_clean_linker_0, # of connection points: 2
#     Edge 23, Type (0, 0), BuildingBlock: ZUJKAS_clean_linker_0, # of connection points: 2
#     Edge 24, Type (0, 0), BuildingBlock: ZUJKAS_clean_linker_0, # of connection points: 2
#     Edge 25, Type (0, 0), BuildingBlock: ZUJKAS_clean_linker_0, # of connection points: 2
#     Edge 26, Type (0, 0), BuildingBlock: ZUJKAS_clean_linker_0, # of connection points: 2
#     Edge 27, Type (0, 0), BuildingBlock: ZUJKAS_clean_linker_0, # of connection points: 2
#     Edge 28, Type (0, 0), BuildingBlock: ZUJKAS_clean_linker_0, # of connection points: 2
#     Edge 29, Type (0, 0), BuildingBlock: ZUJKAS_clean_linker_0, # of connection points: 2
#     Edge 30, Type (0, 0), BuildingBlock: ZUJKAS_clean_linker_0, # of connection points: 2
#     Edge 31, Type (0, 0), BuildingBlock: ZUJKAS_clean_linker_0, # of connection points: 2
#     Edge 32, Type (0, 0), BuildingBlock: ZUJKAS_clean_linker_0, # of connection points: 2
#     Edge 33, Type (0, 0), BuildingBlock: ZUJKAS_clean_linker_0, # of connection points: 2
#     Edge 34, Type (0, 0), BuildingBlock: ZUJKAS_clean_linker_0, # of connection points: 2
#     Edge 35, Type (0, 0), BuildingBlock: ZUJKAS_clean_linker_0, # of connection points: 2
#     Edge 36, Type (0, 0), BuildingBlock: ZUJKAS_clean_linker_0, # of connection points: 2
#     Edge 37, Type (0, 0), BuildingBlock: ZUJKAS_clean_linker_0, # of connection points: 2
#     Edge 38, Type (0, 0), BuildingBlock: ZUJKAS_clean_linker_0, # of connection points: 2
#     Edge 39, Type (0, 0), BuildingBlock: ZUJKAS_clean_linker_0, # of connection points: 2
#     Edge 40, Type (0, 0), BuildingBlock: ZUJKAS_clean_linker_0, # of connection points: 2
#     Edge 41, Type (0, 0), BuildingBlock: ZUJKAS_clean_linker_0, # of connection points: 2
#     Edge 42, Type (0, 0), BuildingBlock: ZUJKAS_clean_linker_0, # of connection points: 2
#     Edge 43, Type (0, 0), BuildingBlock: ZUJKAS_clean_linker_0, # of connection points: 2
#     Edge 44, Type (0, 0), BuildingBlock: ZUJKAS_clean_linker_0, # of connection points: 2
#     Edge 45, Type (0, 0), BuildingBlock: ZUJKAS_clean_linker_0, # of connection points: 2
#     Edge 46, Type (0, 0), BuildingBlock: ZUJKAS_clean_linker_0, # of connection points: 2
#     Edge 47, Type (0, 0), BuildingBlock: ZUJKAS_clean_linker_0, # of connection points: 2
# Relax obj value: 0.066
# Max RMSD: 0.081
# Mean RMSD: 0.081
data_MOF--net-uot--node1-CEKHIL_clean_sbu_0--edge1-ZUJKAS_clean_linker_0
_symmetry_space_group_name_H-M    P1
_symmetry_Int_Tables_number       1
_symmetry_cell_setting            triclinic
loop_
_symmetry_equiv_pos_as_xyz
'x, y, z'
_cell_length_a     57.053638
_cell_length_b     57.057475
_cell_length_c     52.316442
_cell_angle_alpha  89.984712
_cell_angle_beta   90.011076
_cell_angle_gamma 90.0247
loop_
_atom_site_label
_atom_site_type_symbol
_atom_site_fract_x
_atom_site_fract_y
_atom_site_fract_z
_atom_type_partial_charge
Co0 Co 0.20476 0.42644 0.32902 0.0
O1 O 0.2247 0.40082 0.33848 0.0
O2 O 0.237 0.43347 0.31993 0.0
C3 C 0.17647 0.40466 0.31038 0.0
O4 O 0.18891 0.4562 0.31577 0.0
Co5 Co 0.15492 0.43006 0.35289 0.0
O6 O 0.15093 0.45548 0.32744 0.0
C7 C 0.19634 0.44169 0.38406 0.0
C8 C 0.24201 0.41295 0.32933 0.0
C9 C 0.16797 0.46471 0.31528 0.0
O10 O 0.20934 0.44085 0.36396 0.0
O11 O 0.17466 0.43588 0.38398 0.0
O12 O 0.19532 0.41012 0.29778 0.0
O13 O 0.17652 0.41041 0.33423 0.0
Co14 Co 0.42334 0.79702 0.67167 0.0
O15 O 0.39771 0.77678 0.6631 0.0
O16 O 0.43068 0.76497 0.68132 0.0
C17 C 0.40163 0.82552 0.69 0.0
O18 O 0.45314 0.81329 0.68401 0.0
Co19 Co 0.42615 0.84649 0.64669 0.0
O20 O 0.4523 0.85098 0.67126 0.0
C21 C 0.43657 0.80451 0.61613 0.0
C22 C 0.41003 0.7597 0.67239 0.0
C23 C 0.46169 0.83422 0.68374 0.0
O24 O 0.43734 0.79202 0.6366 0.0
O25 O 0.4299 0.82593 0.61584 0.0
O26 O 0.40745 0.80701 0.70302 0.0
O27 O 0.40703 0.82497 0.66607 0.0
Co28 Co 0.79766 0.57329 0.32869 0.0
O29 O 0.77698 0.59925 0.33488 0.0
O30 O 0.76596 0.56491 0.31897 0.0
C31 C 0.82612 0.59438 0.3093 0.0
O32 O 0.81411 0.54298 0.31839 0.0
Co33 Co 0.8473 0.5714 0.35309 0.0
O34 O 0.8525 0.5463 0.32745 0.0
C35 C 0.8056 0.56053 0.38459 0.0
C36 C 0.76041 0.58609 0.32586 0.0
C37 C 0.83542 0.53566 0.31684 0.0
O38 O 0.79241 0.56117 0.3646 0.0
O39 O 0.82741 0.56587 0.38413 0.0
O40 O 0.80783 0.58754 0.2965 0.0
O41 O 0.82555 0.59011 0.33352 0.0
Co42 Co 0.57563 0.20612 0.67044 0.0
O43 O 0.60147 0.22617 0.66202 0.0
O44 O 0.56857 0.23821 0.68019 0.0
C45 C 0.59694 0.17734 0.68885 0.0
O46 O 0.54567 0.18998 0.68261 0.0
Co47 Co 0.57266 0.15686 0.64492 0.0
O48 O 0.5463 0.15246 0.66921 0.0
C49 C 0.56289 0.19913 0.61468 0.0
C50 C 0.5893 0.24332 0.6714 0.0
C51 C 0.53698 0.1691 0.68194 0.0
O52 O 0.56176 0.21137 0.6353 0.0
O53 O 0.56962 0.17773 0.61422 0.0
O54 O 0.59138 0.19596 0.7018 0.0
O55 O 0.59167 0.17801 0.66489 0.0
Co56 Co 0.20442 0.57545 0.66716 0.0
O57 O 0.22497 0.60067 0.65786 0.0
O58 O 0.23627 0.56823 0.67755 0.0
C59 C 0.17594 0.59802 0.68426 0.0
O60 O 0.18796 0.54611 0.68055 0.0
Co61 Co 0.15502 0.57169 0.64235 0.0
O62 O 0.15013 0.54693 0.66842 0.0
C63 C 0.19702 0.55927 0.61236 0.0
C64 C 0.24182 0.58853 0.66793 0.0
C65 C 0.16694 0.53779 0.68102 0.0
O66 O 0.20972 0.56037 0.63268 0.0
O67 O 0.17537 0.56521 0.61191 0.0
O68 O 0.19426 0.59242 0.69772 0.0
O69 O 0.17657 0.59174 0.66059 0.0
Co70 Co 0.57516 0.79719 0.33061 0.0
O71 O 0.60047 0.77699 0.34027 0.0
O72 O 0.56795 0.76504 0.3211 0.0
C73 C 0.59746 0.82532 0.31235 0.0
O74 O 0.5457 0.81354 0.31739 0.0
Co75 Co 0.57247 0.84691 0.35499 0.0
O76 O 0.54655 0.85124 0.33013 0.0
C77 C 0.56088 0.8053 0.38573 0.0
C78 C 0.58831 0.75987 0.33082 0.0
C79 C 0.53721 0.8345 0.31756 0.0
O80 O 0.56043 0.79265 0.36538 0.0
O81 O 0.56778 0.82666 0.38595 0.0
O82 O 0.59173 0.8067 0.29949 0.0
O83 O 0.59163 0.82508 0.33617 0.0
Co84 Co 0.79691 0.42622 0.67024 0.0
O85 O 0.77629 0.40127 0.66021 0.0
O86 O 0.76494 0.43368 0.6799 0.0
C87 C 0.82474 0.40316 0.68791 0.0
O88 O 0.81331 0.45532 0.68428 0.0
Co89 Co 0.8471 0.42981 0.64741 0.0
O90 O 0.85179 0.45291 0.67529 0.0
C91 C 0.80614 0.44367 0.61615 0.0
C92 C 0.75938 0.41349 0.67005 0.0
C93 C 0.83459 0.46261 0.68668 0.0
O94 O 0.7926 0.44167 0.63573 0.0
O95 O 0.82786 0.43795 0.61655 0.0
O96 O 0.80623 0.40893 0.70093 0.0
O97 O 0.82474 0.40967 0.66429 0.0
Co98 Co 0.42576 0.20557 0.32777 0.0
O99 O 0.40034 0.22545 0.33799 0.0
O100 O 0.43275 0.23792 0.3191 0.0
C101 C 0.40353 0.17764 0.30905 0.0
O102 O 0.45524 0.18983 0.31377 0.0
Co103 Co 0.42951 0.15511 0.35023 0.0
O104 O 0.45315 0.15126 0.32271 0.0
C105 C 0.44152 0.19592 0.38226 0.0
C106 C 0.41232 0.24284 0.32879 0.0
C107 C 0.46275 0.16862 0.31144 0.0
O108 O 0.44081 0.2094 0.36253 0.0
O109 O 0.43538 0.17433 0.38171 0.0
O110 O 0.40885 0.19664 0.29665 0.0
O111 O 0.40973 0.17735 0.33276 0.0
Co112 Co 0.70212 0.92589 0.82937 0.0
O113 O 0.72119 0.89975 0.83935 0.0
O114 O 0.73462 0.93166 0.82025 0.0
C115 C 0.67332 0.90452 0.81105 0.0
O116 O 0.68736 0.95592 0.8154 0.0
Co117 Co 0.652 0.93171 0.85188 0.0
O118 O 0.64865 0.9546 0.82355 0.0
C119 C 0.69335 0.94309 0.88363 0.0
C120 C 0.73889 0.91103 0.82984 0.0
C121 C 0.66633 0.96375 0.81249 0.0
O122 O 0.70687 0.94075 0.86408 0.0
O123 O 0.67138 0.93842 0.88305 0.0
O124 O 0.69228 0.90938 0.79836 0.0
O125 O 0.6734 0.91078 0.83474 0.0
Co126 Co 0.92687 0.29566 0.17006 0.0
O127 O 0.90096 0.27627 0.16005 0.0
O128 O 0.93341 0.26314 0.17833 0.0
C129 C 0.90541 0.32372 0.1895 0.0
O130 O 0.95683 0.31077 0.18381 0.0
Co131 Co 0.93137 0.34626 0.1483 0.0
O132 O 0.95505 0.3495 0.17584 0.0
C133 C 0.94317 0.3057 0.11566 0.0
C134 C 0.91275 0.25863 0.16896 0.0
C135 C 0.96458 0.33185 0.18657 0.0
O136 O 0.94136 0.29185 0.13502 0.0
O137 O 0.93803 0.32753 0.11669 0.0
O138 O 0.9106 0.3045 0.20154 0.0
O139 O 0.91126 0.32423 0.16568 0.0
Co140 Co 0.29849 0.07625 0.83173 0.0
O141 O 0.27916 0.1024 0.84104 0.0
O142 O 0.26605 0.06994 0.82278 0.0
C143 C 0.32725 0.09723 0.8128 0.0
O144 O 0.31357 0.04607 0.81862 0.0
Co145 Co 0.3484 0.07159 0.85521 0.0
O146 O 0.3517 0.04614 0.82968 0.0
C147 C 0.30695 0.0606 0.88669 0.0
C148 C 0.26155 0.09065 0.83199 0.0
C149 C 0.33434 0.03718 0.81782 0.0
O150 O 0.29372 0.06207 0.8668 0.0
O151 O 0.32878 0.0658 0.88637 0.0
O152 O 0.30825 0.0921 0.8003 0.0
O153 O 0.3271 0.09169 0.83672 0.0
Co154 Co 0.07528 0.70462 0.16938 0.0
O155 O 0.10112 0.72469 0.16104 0.0
O156 O 0.06826 0.73667 0.17935 0.0
C157 C 0.09668 0.67576 0.1875 0.0
O158 O 0.04526 0.68848 0.1815 0.0
Co159 Co 0.07204 0.65547 0.14385 0.0
O160 O 0.04621 0.65082 0.16869 0.0
C161 C 0.06096 0.69774 0.11381 0.0
C162 C 0.08894 0.74182 0.17042 0.0
C163 C 0.03676 0.66751 0.18119 0.0
O164 O 0.06144 0.7102 0.13432 0.0
O165 O 0.06682 0.67608 0.11331 0.0
O166 O 0.09099 0.69422 0.20065 0.0
O167 O 0.09138 0.67656 0.16354 0.0
Co168 Co 0.70381 0.07414 0.16912 0.0
O169 O 0.72343 0.10003 0.15959 0.0
O170 O 0.73612 0.06763 0.17834 0.0
C171 C 0.67517 0.09552 0.18767 0.0
O172 O 0.68844 0.0442 0.18253 0.0
Co173 Co 0.65395 0.06956 0.14547 0.0
O174 O 0.65035 0.04437 0.17127 0.0
C175 C 0.69549 0.0587 0.11415 0.0
C176 C 0.74086 0.08821 0.16892 0.0
C177 C 0.6676 0.03544 0.18334 0.0
O178 O 0.70856 0.05966 0.13421 0.0
O179 O 0.67374 0.06423 0.11433 0.0
O180 O 0.69412 0.09043 0.2003 0.0
O181 O 0.67533 0.08968 0.16384 0.0
Co182 Co 0.07539 0.29855 0.82892 0.0
O183 O 0.10156 0.27944 0.83867 0.0
O184 O 0.06939 0.26601 0.82011 0.0
C185 C 0.09662 0.32724 0.81018 0.0
O186 O 0.04527 0.31338 0.81528 0.0
Co187 Co 0.07019 0.34867 0.85165 0.0
O188 O 0.04541 0.35174 0.8253 0.0
C189 C 0.05913 0.30742 0.88353 0.0
C190 C 0.09006 0.2617 0.82956 0.0
C191 C 0.03652 0.33419 0.81373 0.0
O192 O 0.0609 0.29395 0.86387 0.0
O193 O 0.06414 0.32929 0.88293 0.0
O194 O 0.09157 0.30825 0.79763 0.0
O195 O 0.09069 0.32721 0.83397 0.0
Co196 Co 0.29668 0.92592 0.17128 0.0
O197 O 0.27698 0.90004 0.1619 0.0
O198 O 0.26437 0.93263 0.18026 0.0
C199 C 0.32511 0.90435 0.19005 0.0
O200 O 0.31207 0.9559 0.18448 0.0
Co201 Co 0.34694 0.93033 0.14864 0.0
O202 O 0.35069 0.95418 0.17593 0.0
C203 C 0.30583 0.94226 0.11674 0.0
C204 C 0.25956 0.91198 0.17107 0.0
C205 C 0.33315 0.96375 0.18684 0.0
O206 O 0.29222 0.94029 0.13627 0.0
O207 O 0.3277 0.9372 0.11743 0.0
O208 O 0.30624 0.90977 0.20264 0.0
O209 O 0.32509 0.91016 0.16622 0.0
Co210 Co 0.92797 0.70353 0.82962 0.0
O211 O 0.90195 0.72241 0.8404 0.0
O212 O 0.93329 0.73608 0.82041 0.0
C213 C 0.90646 0.67461 0.81173 0.0
O214 O 0.95775 0.68897 0.81472 0.0
Co215 Co 0.93449 0.65346 0.85225 0.0
O216 O 0.95834 0.65064 0.82495 0.0
C217 C 0.94653 0.69489 0.88345 0.0
C218 C 0.91286 0.74019 0.83054 0.0
C219 C 0.96665 0.66824 0.81295 0.0
O220 O 0.94365 0.70836 0.86393 0.0
O221 O 0.94186 0.67294 0.88308 0.0
O222 O 0.91074 0.69374 0.7991 0.0
O223 O 0.91323 0.67465 0.83527 0.0
H224 H 0.2577 0.37617 0.35718 0.0
H225 H 0.29605 0.35763 0.35564 0.0
H226 H 0.31924 0.40851 0.30016 0.0
H227 H 0.28045 0.42747 0.3017 0.0
H228 H 0.32678 0.36022 0.28645 0.0
H229 H 0.36034 0.37869 0.38336 0.0
H230 H 0.33051 0.36872 0.38407 0.0
H231 H 0.33753 0.39601 0.36854 0.0
C232 C 0.27099 0.38367 0.34486 0.0
C233 C 0.26605 0.40327 0.32953 0.0
C234 C 0.293 0.37314 0.34416 0.0
C235 C 0.31061 0.38191 0.3281 0.0
C236 C 0.30593 0.40167 0.3129 0.0
H237 H 0.42822 0.28207 0.30337 0.0
H238 H 0.40909 0.32073 0.30146 0.0
C239 C 0.28383 0.41245 0.31381 0.0
C240 C 0.33292 0.36876 0.32595 0.0
H241 H 0.37395 0.34246 0.36371 0.0
C242 C 0.33768 0.35687 0.30304 0.0
C243 C 0.34718 0.36458 0.34758 0.0
C244 C 0.34379 0.37788 0.3722 0.0
C245 C 0.35474 0.33912 0.30201 0.0
C246 C 0.36739 0.33338 0.32441 0.0
C247 C 0.36412 0.34679 0.3466 0.0
C248 C 0.38054 0.31108 0.32658 0.0
C249 C 0.35769 0.32525 0.27768 0.0
C250 C 0.37111 0.29316 0.34174 0.0
C251 C 0.38186 0.27127 0.34282 0.0
C252 C 0.40242 0.2668 0.32886 0.0
C253 C 0.41238 0.28501 0.3143 0.0
C254 C 0.40145 0.30703 0.31311 0.0
H255 H 0.34547 0.33106 0.26241 0.0
H256 H 0.37591 0.32725 0.27057 0.0
H257 H 0.35468 0.30634 0.28146 0.0
H258 H 0.35499 0.29593 0.35227 0.0
H259 H 0.37379 0.2577 0.35433 0.0
H260 H 0.37205 0.74381 0.64668 0.0
H261 H 0.35388 0.70528 0.64908 0.0
H262 H 0.40749 0.68228 0.70148 0.0
H263 H 0.42608 0.72124 0.69911 0.0
H264 H 0.37547 0.65821 0.63941 0.0
H265 H 0.3416 0.67218 0.7383 0.0
H266 H 0.35021 0.69672 0.71863 0.0
H267 H 0.37209 0.67737 0.73121 0.0
C268 C 0.38015 0.73058 0.65863 0.0
C269 C 0.40042 0.73562 0.67285 0.0
C270 C 0.36977 0.70852 0.65989 0.0
C271 C 0.37927 0.69101 0.67554 0.0
C272 C 0.39986 0.69566 0.68938 0.0
H273 H 0.27866 0.57491 0.69848 0.0
H274 H 0.31735 0.59389 0.70173 0.0
C275 C 0.41045 0.71784 0.68795 0.0
C276 C 0.36651 0.66851 0.67776 0.0
H277 H 0.32394 0.64257 0.71384 0.0
C278 C 0.36471 0.65431 0.65596 0.0
C279 C 0.35263 0.66338 0.69945 0.0
C280 C 0.35405 0.67813 0.72332 0.0
C281 C 0.34802 0.63629 0.65454 0.0
C282 C 0.33251 0.63273 0.67525 0.0
C283 C 0.3358 0.64543 0.69794 0.0
C284 C 0.31042 0.61937 0.67203 0.0
C285 C 0.34623 0.62209 0.63031 0.0
C286 C 0.29379 0.62746 0.65439 0.0
C287 C 0.2718 0.61694 0.65272 0.0
C288 C 0.26593 0.598 0.66863 0.0
C289 C 0.28279 0.5894 0.68588 0.0
C290 C 0.30483 0.60021 0.68777 0.0
H291 H 0.36345 0.62102 0.62046 0.0
H292 H 0.33985 0.60406 0.63427 0.0
H293 H 0.3337 0.63073 0.6171 0.0
H294 H 0.29753 0.64252 0.64243 0.0
H295 H 0.25923 0.62396 0.63922 0.0
H296 H 0.61624 0.74057 0.36669 0.0
H297 H 0.63919 0.70462 0.36312 0.0
H298 H 0.6069 0.68985 0.29034 0.0
H299 H 0.58314 0.72573 0.29427 0.0
H300 H 0.61754 0.64835 0.3223 0.0
H301 H 0.69287 0.70885 0.31009 0.0
H302 H 0.67647 0.71398 0.33882 0.0
H303 H 0.66284 0.71863 0.30822 0.0
C304 C 0.61361 0.72937 0.35021 0.0
C305 C 0.59819 0.736 0.33059 0.0
C306 C 0.62672 0.70886 0.34819 0.0
C307 C 0.62511 0.69488 0.32622 0.0
C308 C 0.60844 0.70049 0.30741 0.0
H309 H 0.74719 0.61262 0.28597 0.0
H310 H 0.71123 0.63578 0.28213 0.0
C311 C 0.59491 0.72093 0.30966 0.0
C312 C 0.64285 0.67635 0.32184 0.0
H313 H 0.70194 0.66877 0.31683 0.0
C314 C 0.63599 0.65273 0.32085 0.0
C315 C 0.66686 0.68218 0.31947 0.0
C316 C 0.67523 0.70729 0.31894 0.0
C317 C 0.65274 0.6347 0.31856 0.0
C318 C 0.67684 0.64056 0.31759 0.0
C319 C 0.68349 0.66423 0.3177 0.0
C320 C 0.69582 0.62276 0.31719 0.0
C321 C 0.64454 0.60962 0.31713 0.0
C322 C 0.69885 0.60723 0.33781 0.0
C323 C 0.71937 0.59385 0.33987 0.0
C324 C 0.73704 0.59595 0.3214 0.0
C325 C 0.73356 0.61058 0.30023 0.0
C326 C 0.71308 0.6238 0.29807 0.0
H327 H 0.62605 0.60846 0.31054 0.0
H328 H 0.65575 0.59921 0.30401 0.0
H329 H 0.64557 0.60163 0.33643 0.0
H330 H 0.68608 0.60653 0.3531 0.0
H331 H 0.72199 0.58292 0.35657 0.0
H332 H 0.62705 0.25924 0.64529 0.0
H333 H 0.64594 0.29739 0.64848 0.0
H334 H 0.59358 0.31995 0.70255 0.0
H335 H 0.57426 0.2814 0.69936 0.0
H336 H 0.62491 0.34525 0.64081 0.0
H337 H 0.6605 0.32759 0.7383 0.0
H338 H 0.6512 0.30385 0.71787 0.0
H339 H 0.62981 0.323 0.73174 0.0
C340 C 0.61937 0.27231 0.65776 0.0
C341 C 0.59924 0.26726 0.67221 0.0
C342 C 0.63016 0.29415 0.65948 0.0
C343 C 0.62123 0.3114 0.67583 0.0
C344 C 0.60078 0.30677 0.6899 0.0
H345 H 0.72272 0.42642 0.70112 0.0
H346 H 0.68407 0.40733 0.70416 0.0
C347 C 0.58975 0.28482 0.688 0.0
C348 C 0.63445 0.3336 0.67855 0.0
H349 H 0.67792 0.35794 0.7147 0.0
C350 C 0.63603 0.34848 0.65727 0.0
C351 C 0.6488 0.33785 0.7001 0.0
C352 C 0.64768 0.32231 0.72339 0.0
C353 C 0.65286 0.36639 0.6562 0.0
C354 C 0.66874 0.36916 0.67672 0.0
C355 C 0.66576 0.3557 0.69895 0.0
C356 C 0.69078 0.38262 0.67366 0.0
C357 C 0.65436 0.38139 0.63252 0.0
C358 C 0.70727 0.37502 0.6556 0.0
C359 C 0.72924 0.38559 0.65406 0.0
C360 C 0.73522 0.40412 0.67048 0.0
C361 C 0.71849 0.41227 0.68812 0.0
C362 C 0.69648 0.40139 0.68989 0.0
H363 H 0.63706 0.38271 0.62287 0.0
H364 H 0.6607 0.3993 0.63713 0.0
H365 H 0.66684 0.37328 0.61887 0.0
H366 H 0.70343 0.36028 0.64322 0.0
H367 H 0.74173 0.37892 0.64027 0.0
H368 H 0.75257 0.87153 0.85447 0.0
H369 H 0.78966 0.85068 0.8505 0.0
H370 H 0.81557 0.90402 0.79948 0.0
H371 H 0.77817 0.92534 0.80342 0.0
H372 H 0.80971 0.84091 0.79156 0.0
H373 H 0.86586 0.88425 0.86476 0.0
H374 H 0.83471 0.88205 0.87037 0.0
H375 H 0.84538 0.90058 0.84528 0.0
C376 C 0.76618 0.87905 0.8426 0.0
C377 C 0.76238 0.90004 0.82914 0.0
C378 C 0.78738 0.86711 0.84041 0.0
C379 C 0.80525 0.87584 0.82473 0.0
C380 C 0.80194 0.89712 0.81177 0.0
H381 H 0.92584 0.77916 0.80286 0.0
H382 H 0.90367 0.81601 0.7985 0.0
C383 C 0.78062 0.90924 0.81406 0.0
C384 C 0.82645 0.86138 0.82088 0.0
H385 H 0.87803 0.84683 0.84992 0.0
C386 C 0.82503 0.84259 0.8037 0.0
C387 C 0.84625 0.86361 0.83688 0.0
C388 C 0.84839 0.88373 0.85539 0.0
C389 C 0.84228 0.82508 0.80328 0.0
C390 C 0.86126 0.8264 0.82057 0.0
C391 C 0.86348 0.84598 0.83661 0.0
C392 C 0.87641 0.80579 0.82497 0.0
C393 C 0.83932 0.80436 0.78568 0.0
C394 C 0.86854 0.78822 0.84157 0.0
C395 C 0.88096 0.7673 0.84398 0.0
C396 C 0.90158 0.76354 0.82987 0.0
C397 C 0.91003 0.78159 0.81401 0.0
C398 C 0.89744 0.8026 0.8115 0.0
H399 H 0.82556 0.80745 0.77104 0.0
H400 H 0.85612 0.80035 0.7759 0.0
H401 H 0.83433 0.78872 0.79709 0.0
H402 H 0.85232 0.7904 0.85207 0.0
H403 H 0.87403 0.75383 0.85647 0.0
H404 H 0.75671 0.12431 0.14009 0.0
H405 H 0.79476 0.14358 0.14217 0.0
H406 H 0.81711 0.09502 0.20044 0.0
H407 H 0.77873 0.07528 0.19828 0.0
H408 H 0.82294 0.14481 0.21203 0.0
H409 H 0.86056 0.12155 0.11803 0.0
H410 H 0.83052 0.13069 0.11583 0.0
H411 H 0.83778 0.10446 0.13322 0.0
C412 C 0.76978 0.11748 0.15314 0.0
C413 C 0.76474 0.09829 0.16904 0.0
C414 C 0.79159 0.12843 0.15418 0.0
C415 C 0.80885 0.12054 0.1712 0.0
C416 C 0.80407 0.1012 0.18698 0.0
H417 H 0.92703 0.21976 0.196 0.0
H418 H 0.90681 0.18168 0.19863 0.0
C419 C 0.78221 0.08995 0.1857 0.0
C420 C 0.83091 0.13409 0.17358 0.0
H421 H 0.87376 0.15826 0.1365 0.0
C422 C 0.8346 0.14725 0.19588 0.0
C423 C 0.84609 0.13713 0.15249 0.0
C424 C 0.84371 0.12252 0.12862 0.0
C425 C 0.85171 0.16497 0.19672 0.0
C426 C 0.8655 0.16939 0.17477 0.0
C427 C 0.8631 0.15489 0.15327 0.0
C428 C 0.87928 0.19126 0.17216 0.0
C429 C 0.85363 0.18016 0.22023 0.0
C430 C 0.87077 0.20892 0.15603 0.0
C431 C 0.88211 0.23051 0.15459 0.0
C432 C 0.90236 0.23488 0.16911 0.0
C433 C 0.91146 0.21687 0.18458 0.0
C434 C 0.8999 0.19519 0.18619 0.0
H435 H 0.84073 0.17518 0.23518 0.0
H436 H 0.87151 0.1786 0.2284 0.0
H437 H 0.85083 0.19882 0.21505 0.0
H438 H 0.85488 0.20622 0.14505 0.0
H439 H 0.87472 0.24395 0.14237 0.0
H440 H 0.12953 0.24819 0.85432 0.0
H441 H 0.14913 0.21036 0.85272 0.0
H442 H 0.09475 0.18347 0.80354 0.0
H443 H 0.07479 0.22174 0.805 0.0
H444 H 0.13093 0.16389 0.86589 0.0
H445 H 0.15811 0.17295 0.7639 0.0
H446 H 0.14887 0.19805 0.78234 0.0
H447 H 0.12772 0.17671 0.77233 0.0
C448 C 0.12158 0.23427 0.84324 0.0
C449 C 0.10067 0.23802 0.82964 0.0
C450 C 0.13279 0.2126 0.84242 0.0
C451 C 0.1235 0.19419 0.82789 0.0
C452 C 0.1023 0.19756 0.81471 0.0
H453 H 0.22254 0.07637 0.80513 0.0
H454 H 0.18416 0.09612 0.80343 0.0
C455 C 0.0909 0.21936 0.81564 0.0
C456 C 0.13693 0.17201 0.82623 0.0
H457 H 0.17708 0.14429 0.78845 0.0
C458 C 0.14057 0.15918 0.84877 0.0
C459 C 0.14933 0.16577 0.80383 0.0
C460 C 0.14599 0.17903 0.77915 0.0
C461 C 0.15754 0.14143 0.85 0.0
C462 C 0.17147 0.13669 0.82826 0.0
C463 C 0.16642 0.14806 0.80511 0.0
C464 C 0.19364 0.12327 0.83038 0.0
C465 C 0.16124 0.12871 0.87494 0.0
C466 C 0.21162 0.13209 0.84592 0.0
C467 C 0.2334 0.12109 0.84674 0.0
C468 C 0.23776 0.10096 0.83203 0.0
C469 C 0.21962 0.09179 0.81678 0.0
C470 C 0.19775 0.10303 0.81576 0.0
H471 H 0.14489 0.12832 0.88647 0.0
H472 H 0.16726 0.11044 0.8717 0.0
H473 H 0.17482 0.13803 0.88625 0.0
H474 H 0.209 0.14794 0.85695 0.0
H475 H 0.24697 0.12861 0.85868 0.0
H476 H 0.22064 0.92768 0.1971 0.0
H477 H 0.18208 0.90837 0.19966 0.0
H478 H 0.20638 0.85429 0.14861 0.0
H479 H 0.24456 0.87322 0.14598 0.0
H480 H 0.15916 0.87429 0.13806 0.0
H481 H 0.17275 0.84362 0.23827 0.0
H482 H 0.17717 0.87406 0.23042 0.0
H483 H 0.19722 0.85245 0.21861 0.0
C484 C 0.21762 0.91179 0.18627 0.0
C485 C 0.23567 0.90188 0.17147 0.0
C486 C 0.19566 0.90077 0.18782 0.0
C487 C 0.19149 0.87984 0.17444 0.0
C488 C 0.20926 0.87043 0.15907 0.0
H489 H 0.12524 0.75809 0.14233 0.0
H490 H 0.14395 0.79634 0.14454 0.0
C491 C 0.23111 0.88125 0.15766 0.0
C492 C 0.16919 0.86672 0.17686 0.0
H493 H 0.1431 0.82533 0.21445 0.0
C494 C 0.1552 0.86407 0.155 0.0
C495 C 0.16395 0.85356 0.19906 0.0
C496 C 0.17849 0.85589 0.22301 0.0
C497 C 0.13725 0.84727 0.15411 0.0
C498 C 0.13353 0.83251 0.17544 0.0
C499 C 0.14607 0.83663 0.19809 0.0
C500 C 0.12025 0.8103 0.173 0.0
C501 C 0.12327 0.84457 0.12983 0.0
C502 C 0.10074 0.80531 0.18847 0.0
C503 C 0.08983 0.78327 0.18716 0.0
C504 C 0.09867 0.76584 0.17077 0.0
C505 C 0.11802 0.7711 0.15519 0.0
C506 C 0.12864 0.79305 0.15627 0.0
H507 H 0.12232 0.86138 0.11915 0.0
H508 H 0.13198 0.8315 0.11732 0.0
H509 H 0.10518 0.83838 0.13389 0.0
H510 H 0.09418 0.81833 0.20173 0.0
H511 H 0.07501 0.77964 0.19947 0.0
H512 H 0.19732 0.48872 0.28252 0.0
H513 H 0.18849 0.52467 0.25863 0.0
H514 H 0.11921 0.52609 0.29154 0.0
H515 H 0.12756 0.49025 0.31488 0.0
H516 H 0.1183 0.53317 0.24035 0.0
H517 H 0.1842 0.59147 0.28599 0.0
H518 H 0.19586 0.5653 0.27176 0.0
H519 H 0.17667 0.56311 0.29888 0.0
C520 C 0.18023 0.49672 0.2847 0.0
C521 C 0.16318 0.48652 0.30066 0.0
C522 C 0.17526 0.51735 0.27115 0.0
C523 C 0.15328 0.52823 0.27355 0.0
C524 C 0.1363 0.51804 0.2894 0.0
H525 H 0.10403 0.66732 0.23832 0.0
H526 H 0.11911 0.63135 0.2579 0.0
C527 C 0.14115 0.49747 0.30276 0.0
C528 C 0.14737 0.5499 0.25922 0.0
H529 H 0.1613 0.60785 0.25285 0.0
C530 C 0.12778 0.54947 0.24297 0.0
C531 C 0.1596 0.57121 0.26292 0.0
C532 C 0.18013 0.57299 0.28099 0.0
C533 C 0.11985 0.5698 0.23061 0.0
C534 C 0.13222 0.59107 0.23407 0.0
C535 C 0.15197 0.59148 0.25009 0.0
C536 C 0.1243 0.61323 0.222 0.0
C537 C 0.09779 0.56846 0.21473 0.0
C538 C 0.12262 0.61514 0.19532 0.0
C539 C 0.11382 0.63556 0.18412 0.0
C540 C 0.10683 0.65457 0.1994 0.0
C541 C 0.10922 0.65293 0.22607 0.0
C542 C 0.11788 0.63242 0.23727 0.0
H543 H 0.08727 0.55262 0.21935 0.0
H544 H 0.08667 0.58419 0.21768 0.0
H545 H 0.10259 0.56757 0.1942 0.0
H546 H 0.12794 0.60074 0.18315 0.0
H547 H 0.11239 0.63639 0.1635 0.0
H548 H 0.48647 0.80492 0.71573 0.0
H549 H 0.52241 0.81405 0.73948 0.0
H550 H 0.52268 0.88365 0.7074 0.0
H551 H 0.48683 0.87498 0.68407 0.0
H552 H 0.56642 0.82794 0.72213 0.0
H553 H 0.52737 0.89649 0.78369 0.0
H554 H 0.50978 0.87641 0.76518 0.0
H555 H 0.52252 0.90186 0.75032 0.0
C556 C 0.49412 0.8222 0.71381 0.0
C557 C 0.48357 0.83927 0.69813 0.0
C558 C 0.51468 0.82737 0.72737 0.0
C559 C 0.52496 0.84967 0.72557 0.0
C560 C 0.51474 0.86652 0.70957 0.0
H561 H 0.66563 0.89659 0.76015 0.0
H562 H 0.62991 0.8814 0.74016 0.0
C563 C 0.49424 0.86145 0.69613 0.0
C564 C 0.54654 0.85547 0.74006 0.0
H565 H 0.5692 0.89532 0.78197 0.0
C566 C 0.56702 0.84252 0.73542 0.0
C567 C 0.5472 0.87427 0.75768 0.0
C568 C 0.52548 0.88791 0.76474 0.0
C569 C 0.58834 0.84839 0.74728 0.0
C570 C 0.58925 0.86801 0.76381 0.0
C571 C 0.56858 0.88045 0.76907 0.0
C572 C 0.61139 0.87614 0.77585 0.0
C573 C 0.6096 0.83339 0.74214 0.0
C574 C 0.61271 0.87876 0.80249 0.0
C575 C 0.63294 0.88777 0.81389 0.0
C576 C 0.65229 0.89431 0.79887 0.0
C577 C 0.65107 0.89151 0.77222 0.0
C578 C 0.63072 0.88267 0.76079 0.0
H579 H 0.60455 0.81551 0.73578 0.0
H580 H 0.62012 0.84152 0.72666 0.0
H581 H 0.62081 0.83186 0.75941 0.0
H582 H 0.59799 0.87397 0.81448 0.0
H583 H 0.63336 0.88971 0.83448 0.0
H584 H 0.90005 0.36783 0.1703 0.0
H585 H 0.88594 0.40264 0.19265 0.0
H586 H 0.8738 0.36129 0.26042 0.0
H587 H 0.88872 0.32648 0.23839 0.0
H588 H 0.84457 0.41338 0.21414 0.0
H589 H 0.9141 0.41327 0.28832 0.0
H590 H 0.91531 0.39465 0.26052 0.0
H591 H 0.89729 0.3867 0.28739 0.0
C592 C 0.89442 0.36613 0.18998 0.0
C593 C 0.89573 0.34447 0.20269 0.0
C594 C 0.88629 0.38604 0.20271 0.0
C595 C 0.87919 0.38468 0.22835 0.0
C596 C 0.87975 0.36289 0.24084 0.0
H597 H 0.80496 0.50016 0.30455 0.0
H598 H 0.81422 0.46304 0.28334 0.0
C599 C 0.88814 0.34299 0.22819 0.0
C600 C 0.87148 0.4062 0.24192 0.0
H601 H 0.88381 0.4412 0.29308 0.0
C602 C 0.85313 0.41949 0.23142 0.0
C603 C 0.88287 0.41428 0.26428 0.0
C604 C 0.90363 0.40163 0.27568 0.0
C605 C 0.84595 0.44071 0.24254 0.0
C606 C 0.85702 0.44855 0.2652 0.0
C607 C 0.87523 0.43512 0.27581 0.0
C608 C 0.85094 0.47116 0.27763 0.0
C609 C 0.82717 0.45489 0.22937 0.0
C610 C 0.86854 0.48787 0.28201 0.0
C611 C 0.8634 0.50884 0.29453 0.0
C612 C 0.84047 0.51367 0.30282 0.0
C613 C 0.82275 0.49706 0.29817 0.0
C614 C 0.828 0.47588 0.28592 0.0
H615 H 0.82524 0.44985 0.20897 0.0
H616 H 0.81012 0.4517 0.23896 0.0
H617 H 0.83106 0.47394 0.23037 0.0
H618 H 0.88637 0.48465 0.27578 0.0
H619 H 0.87745 0.52129 0.29767 0.0
H620 H 0.5106 0.12925 0.67952 0.0
H621 H 0.47478 0.12012 0.70264 0.0
H622 H 0.47765 0.18734 0.74016 0.0
H623 H 0.51353 0.19697 0.71656 0.0
H624 H 0.46838 0.11629 0.7537 0.0
H625 H 0.4104 0.18554 0.71405 0.0
H626 H 0.43845 0.17843 0.70012 0.0
H627 H 0.43694 0.19617 0.72845 0.0
C628 C 0.50367 0.14223 0.69259 0.0
C629 C 0.51503 0.16391 0.69612 0.0
C630 C 0.48313 0.13693 0.70582 0.0
C631 C 0.47337 0.15311 0.72293 0.0
C632 C 0.48461 0.17477 0.72666 0.0
H633 H 0.36827 0.11061 0.83526 0.0
H634 H 0.40361 0.12546 0.81433 0.0
C635 C 0.5052 0.18018 0.71326 0.0
C636 C 0.45185 0.1467 0.7373 0.0
H637 H 0.39454 0.1617 0.74683 0.0
C638 C 0.45225 0.12627 0.75226 0.0
C639 C 0.43074 0.15957 0.73513 0.0
C640 C 0.42892 0.18104 0.7184 0.0
C641 C 0.43214 0.11825 0.76498 0.0
C642 C 0.41115 0.13134 0.76321 0.0
C643 C 0.41072 0.15182 0.74832 0.0
C644 C 0.38929 0.1236 0.77607 0.0
C645 C 0.4334 0.09543 0.77954 0.0
C646 C 0.36923 0.11837 0.7616 0.0
C647 C 0.34891 0.11008 0.77355 0.0
C648 C 0.34832 0.10691 0.80018 0.0
C649 C 0.36825 0.11268 0.81468 0.0
C650 C 0.3885 0.12107 0.80274 0.0
H651 H 0.44869 0.08469 0.77356 0.0
H652 H 0.43527 0.09921 0.80024 0.0
H653 H 0.41721 0.08494 0.77677 0.0
H654 H 0.36945 0.12028 0.741 0.0
H655 H 0.33381 0.10584 0.76188 0.0
H656 H 0.12531 0.51434 0.68476 0.0
H657 H 0.11685 0.4788 0.70871 0.0
H658 H 0.18821 0.47665 0.73572 0.0
H659 H 0.19711 0.51228 0.71132 0.0
H660 H 0.17205 0.43332 0.71889 0.0
H661 H 0.1084 0.47341 0.78564 0.0
H662 H 0.10117 0.47891 0.75281 0.0
H663 H 0.12784 0.49068 0.76599 0.0
C664 C 0.13928 0.50648 0.69586 0.0
C665 C 0.16191 0.51635 0.69618 0.0
C666 C 0.13433 0.48617 0.70967 0.0
C667 C 0.15176 0.47531 0.72437 0.0
C668 C 0.17445 0.48487 0.72462 0.0
H669 H 0.11342 0.36641 0.83353 0.0
H670 H 0.1294 0.40161 0.8134 0.0
C671 C 0.17948 0.50526 0.71071 0.0
C672 C 0.14619 0.45371 0.73896 0.0
H673 H 0.10795 0.43157 0.78291 0.0
C674 C 0.15822 0.43294 0.73311 0.0
C675 C 0.12838 0.45333 0.75777 0.0
C676 C 0.11587 0.47533 0.76614 0.0
C677 C 0.15233 0.4116 0.74492 0.0
C678 C 0.13357 0.41098 0.76264 0.0
C679 C 0.12213 0.43194 0.76911 0.0
C680 C 0.12533 0.38888 0.77468 0.0
C681 C 0.16638 0.39002 0.73842 0.0
C682 C 0.11766 0.36996 0.75963 0.0
C683 C 0.10873 0.34968 0.77113 0.0
C684 C 0.10693 0.34815 0.79786 0.0
C685 C 0.11458 0.36709 0.81287 0.0
C686 C 0.12372 0.38722 0.8014 0.0
H687 H 0.18411 0.39466 0.73126 0.0
H688 H 0.16831 0.37834 0.75527 0.0
H689 H 0.15725 0.38014 0.72309 0.0
H690 H 0.1181 0.37105 0.73898 0.0
H691 H 0.10277 0.33544 0.75908 0.0
H692 H 0.33251 0.89678 0.24111 0.0
H693 H 0.36846 0.8825 0.26154 0.0
H694 H 0.40084 0.87479 0.18754 0.0
H695 H 0.36525 0.88948 0.16707 0.0
H696 H 0.39342 0.84089 0.25674 0.0
H697 H 0.44694 0.91681 0.22521 0.0
H698 H 0.4154 0.91649 0.22294 0.0
H699 H 0.43287 0.90147 0.19949 0.0
C700 C 0.34728 0.89198 0.22921 0.0
C701 C 0.34615 0.89446 0.20251 0.0
C702 C 0.36778 0.88379 0.2409 0.0
C703 C 0.38746 0.87797 0.22608 0.0
C704 C 0.38605 0.87968 0.19937 0.0
H705 H 0.51287 0.80581 0.28443 0.0
H706 H 0.47654 0.81497 0.26143 0.0
C707 C 0.36566 0.88798 0.18771 0.0
C708 C 0.40963 0.87062 0.23857 0.0
H709 H 0.46721 0.88567 0.24528 0.0
C710 C 0.40959 0.85065 0.25426 0.0
C711 C 0.43062 0.88355 0.23551 0.0
C712 C 0.43151 0.9059 0.22008 0.0
C713 C 0.43 0.84322 0.26696 0.0
C714 C 0.4511 0.85589 0.26346 0.0
C715 C 0.4511 0.87583 0.24773 0.0
C716 C 0.47305 0.84985 0.27725 0.0
C717 C 0.42862 0.82234 0.28459 0.0
C718 C 0.48347 0.86658 0.29325 0.0
C719 C 0.50429 0.86155 0.3061 0.0
C720 C 0.51526 0.8396 0.30331 0.0
C721 C 0.50486 0.82283 0.28714 0.0
C722 C 0.48399 0.82797 0.27412 0.0
H723 H 0.41023 0.81812 0.28987 0.0
H724 H 0.43617 0.80682 0.27483 0.0
H725 H 0.4388 0.82547 0.30236 0.0
H726 H 0.47539 0.88358 0.29594 0.0
H727 H 0.51166 0.87492 0.31839 0.0
H728 H 0.80359 0.49663 0.70203 0.0
H729 H 0.81284 0.53369 0.72353 0.0
H730 H 0.88555 0.51347 0.72798 0.0
H731 H 0.87663 0.47684 0.70604 0.0
H732 H 0.8321 0.54483 0.7697 0.0
H733 H 0.88986 0.57587 0.69174 0.0
H734 H 0.87097 0.5507 0.68828 0.0
H735 H 0.89891 0.54796 0.70403 0.0
C736 C 0.82152 0.50003 0.70774 0.0
C737 C 0.83943 0.48393 0.70198 0.0
C738 C 0.82678 0.52123 0.71998 0.0
C739 C 0.84999 0.52661 0.72674 0.0
C740 C 0.86764 0.51002 0.72221 0.0
H741 H 0.90257 0.63064 0.8318 0.0
H742 H 0.887 0.59561 0.81104 0.0
C743 C 0.86247 0.48901 0.70978 0.0
C744 C 0.85596 0.54963 0.73824 0.0
H745 H 0.89233 0.59672 0.73123 0.0
C746 C 0.84512 0.5563 0.7612 0.0
C747 C 0.87257 0.56484 0.72685 0.0
C748 C 0.88356 0.55962 0.70123 0.0
C749 C 0.85107 0.57735 0.77355 0.0
C750 C 0.86877 0.59181 0.76295 0.0
C751 C 0.87898 0.58552 0.73954 0.0
C752 C 0.87735 0.61331 0.77596 0.0
C753 C 0.83818 0.58394 0.79767 0.0
C754 C 0.87779 0.63483 0.76292 0.0
C755 C 0.88712 0.65482 0.77458 0.0
C756 C 0.89614 0.65365 0.79954 0.0
C757 C 0.89559 0.63214 0.81262 0.0
C758 C 0.88649 0.61212 0.80085 0.0
H759 H 0.82061 0.57555 0.79849 0.0
H760 H 0.84833 0.57777 0.81447 0.0
H761 H 0.83594 0.60322 0.79922 0.0
H762 H 0.87099 0.63615 0.74363 0.0
H763 H 0.88731 0.67115 0.76403 0.0
H764 H 0.6713 0.11253 0.23634 0.0
H765 H 0.63618 0.12828 0.25705 0.0
H766 H 0.59652 0.11639 0.18804 0.0
H767 H 0.63167 0.10137 0.16701 0.0
H768 H 0.58608 0.1584 0.20908 0.0
H769 H 0.58259 0.08894 0.28326 0.0
H770 H 0.60955 0.10514 0.2831 0.0
H771 H 0.6019 0.08724 0.25605 0.0
C772 C 0.65509 0.11333 0.22558 0.0
C773 C 0.65419 0.10555 0.20012 0.0
C774 C 0.63501 0.12221 0.23748 0.0
C775 C 0.6136 0.12311 0.22425 0.0
C776 C 0.61282 0.11579 0.19865 0.0
H777 H 0.4757 0.12725 0.28979 0.0
H778 H 0.51216 0.11815 0.26767 0.0
C779 C 0.63292 0.10714 0.18668 0.0
C780 C 0.59187 0.13132 0.23705 0.0
H781 H 0.55516 0.11976 0.287 0.0
C782 C 0.5793 0.14998 0.22614 0.0
C783 C 0.58291 0.12013 0.25913 0.0
C784 C 0.59479 0.09911 0.27096 0.0
C785 C 0.55794 0.15766 0.23659 0.0
C786 C 0.54921 0.14672 0.25892 0.0
C787 C 0.56192 0.12822 0.26995 0.0
C788 C 0.52637 0.15323 0.2706 0.0
C789 C 0.54461 0.17687 0.22311 0.0
C790 C 0.52199 0.17611 0.27933 0.0
C791 C 0.5009 0.18147 0.29175 0.0
C792 C 0.48405 0.16391 0.29608 0.0
C793 C 0.48837 0.14115 0.28693 0.0
C794 C 0.50924 0.13591 0.27428 0.0
H795 H 0.55037 0.17891 0.20295 0.0
H796 H 0.52547 0.17334 0.22331 0.0
H797 H 0.54778 0.19374 0.23307 0.0
H798 H 0.53513 0.18967 0.27721 0.0
H799 H 0.49817 0.19911 0.29878 0.0
H800 H 0.62593 0.97636 0.78863 0.0
H801 H 0.61756 0.01277 0.76603 0.0
H802 H 0.68847 0.03615 0.7792 0.0
H803 H 0.69722 0.99921 0.80119 0.0
H804 H 0.61791 0.05539 0.78574 0.0
H805 H 0.68068 0.05238 0.70484 0.0
H806 H 0.67461 0.02717 0.72459 0.0
H807 H 0.69433 0.04962 0.7356 0.0
C808 C 0.63986 0.98911 0.78643 0.0
C809 C 0.66223 0.98493 0.79675 0.0
C810 C 0.63504 0.00994 0.77351 0.0
C811 C 0.65239 0.02719 0.77075 0.0
C812 C 0.67493 0.02292 0.78058 0.0
H813 H 0.61237 0.17239 0.73802 0.0
H814 H 0.62759 0.13685 0.75836 0.0
C815 C 0.67988 0.00184 0.79325 0.0
C816 C 0.64617 0.05011 0.75906 0.0
H817 H 0.65981 0.08798 0.7107 0.0
C818 C 0.62709 0.06249 0.76931 0.0
C819 C 0.65803 0.05931 0.73751 0.0
C820 C 0.67791 0.04635 0.72481 0.0
C821 C 0.61934 0.08361 0.75851 0.0
C822 C 0.63148 0.09308 0.73731 0.0
C823 C 0.65068 0.08082 0.72711 0.0
C824 C 0.62379 0.11509 0.72471 0.0
C825 C 0.59771 0.09512 0.76942 0.0
C826 C 0.61746 0.11492 0.69878 0.0
C827 C 0.60909 0.13526 0.68704 0.0
C828 C 0.60682 0.15616 0.70104 0.0
C829 C 0.61369 0.15648 0.72683 0.0
C830 C 0.62228 0.13616 0.7385 0.0
H831 H 0.58704 0.08261 0.78081 0.0
H832 H 0.60305 0.10965 0.78225 0.0
H833 H 0.58652 0.10249 0.75402 0.0
H834 H 0.61855 0.0989 0.68774 0.0
H835 H 0.60403 0.13448 0.66711 0.0
H836 H 0.1328 0.39851 0.33054 0.0
H837 H 0.0983 0.38207 0.30951 0.0
H838 H 0.13902 0.36954 0.24138 0.0
H839 H 0.17346 0.38675 0.26208 0.0
H840 H 0.09884 0.38942 0.22975 0.0
H841 H 0.08055 0.31546 0.29502 0.0
H842 H 0.08183 0.34275 0.31193 0.0
H843 H 0.10764 0.33177 0.29614 0.0
C844 C 0.13446 0.3921 0.31114 0.0
C845 C 0.15584 0.39389 0.29796 0.0
C846 C 0.11476 0.38249 0.29921 0.0
C847 C 0.11615 0.37407 0.27404 0.0
C848 C 0.13756 0.37575 0.26089 0.0
H849 H 0.99907 0.30035 0.19958 0.0
H850 H 0.03668 0.30903 0.22038 0.0
C851 C 0.15721 0.3856 0.27272 0.0
C852 C 0.09491 0.36501 0.2609 0.0
H853 H 0.04893 0.32702 0.26724 0.0
C854 C 0.0881 0.37558 0.23783 0.0
C855 C 0.08106 0.34666 0.27113 0.0
C856 C 0.08828 0.33334 0.29477 0.0
C857 C 0.06742 0.36897 0.22527 0.0
C858 C 0.05273 0.35178 0.23645 0.0
C859 C 0.05999 0.34048 0.25893 0.0
C860 C 0.02947 0.34598 0.22545 0.0
C861 C 0.06156 0.38047 0.20008 0.0
C862 C 0.01265 0.36366 0.22227 0.0
C863 C 0.99136 0.35882 0.2103 0.0
C864 C 0.98621 0.33608 0.20158 0.0
C865 C 0.00253 0.31806 0.20603 0.0
C866 C 0.02403 0.323 0.21784 0.0
H867 H 0.07755 0.38718 0.19041 0.0
H868 H 0.05254 0.36807 0.187 0.0
H869 H 0.04978 0.3956 0.20356 0.0
H870 H 0.01616 0.38136 0.22872 0.0
H871 H 0.97902 0.37304 0.20759 0.0
H872 H 0.3746 0.01142 0.81578 0.0
H873 H 0.382 0.97568 0.79184 0.0
H874 H 0.31149 0.97724 0.76224 0.0
H875 H 0.30364 0.01314 0.78665 0.0
H876 H 0.32546 0.93274 0.77886 0.0
H877 H 0.3924 0.97156 0.71502 0.0
H878 H 0.39885 0.97634 0.74817 0.0
H879 H 0.373 0.98922 0.73429 0.0
C880 C 0.36059 0.00434 0.80414 0.0
C881 C 0.33854 0.01536 0.80302 0.0
C882 C 0.36493 0.98389 0.79035 0.0
C883 C 0.34747 0.97406 0.77486 0.0
C884 C 0.32528 0.98468 0.77395 0.0
H885 H 0.38559 0.86474 0.66605 0.0
H886 H 0.36959 0.90016 0.68565 0.0
C887 C 0.32084 0.0052 0.78787 0.0
C888 C 0.35258 0.95252 0.76002 0.0
H889 H 0.3914 0.92967 0.71715 0.0
C890 C 0.33969 0.93209 0.76513 0.0
C891 C 0.37091 0.95179 0.74183 0.0
C892 C 0.38443 0.97346 0.73428 0.0
C893 C 0.34529 0.9107 0.75328 0.0
C894 C 0.36456 0.9097 0.73626 0.0
C895 C 0.37682 0.93035 0.73043 0.0
C896 C 0.37264 0.88745 0.72449 0.0
C897 C 0.33047 0.88945 0.75902 0.0
C898 C 0.37973 0.86849 0.7398 0.0
C899 C 0.38877 0.84813 0.72861 0.0
C900 C 0.39116 0.84652 0.70194 0.0
C901 C 0.38398 0.86546 0.68666 0.0
C902 C 0.37481 0.88571 0.69783 0.0
H903 H 0.31269 0.8945 0.7657 0.0
H904 H 0.32866 0.87804 0.74194 0.0
H905 H 0.33891 0.87912 0.77446 0.0
H906 H 0.37881 0.86964 0.76043 0.0
H907 H 0.39431 0.83388 0.74087 0.0
H908 H 0.83398 0.60065 0.25814 0.0
H909 H 0.86966 0.61563 0.23774 0.0
H910 H 0.90101 0.62618 0.31186 0.0
H911 H 0.86566 0.61087 0.33234 0.0
H912 H 0.89306 0.65861 0.24221 0.0
H913 H 0.94882 0.58486 0.2753 0.0
H914 H 0.91725 0.58408 0.27708 0.0
H915 H 0.93385 0.60007 0.30051 0.0
C916 C 0.84847 0.6062 0.27008 0.0
C917 C 0.84711 0.6044 0.29683 0.0
C918 C 0.8688 0.6148 0.2584 0.0
C919 C 0.88811 0.62169 0.27328 0.0
C920 C 0.8865 0.62053 0.30001 0.0
H921 H 0.012 0.69613 0.21402 0.0
H922 H 0.97586 0.68657 0.23721 0.0
C923 C 0.86625 0.61186 0.31167 0.0
C924 C 0.91009 0.6296 0.26082 0.0
H925 H 0.96807 0.61611 0.25431 0.0
C926 C 0.90949 0.64937 0.24485 0.0
C927 C 0.93144 0.61735 0.26412 0.0
C928 C 0.93294 0.59529 0.27998 0.0
C929 C 0.9297 0.65722 0.23205 0.0
C930 C 0.95112 0.64517 0.23568 0.0
C931 C 0.95169 0.62547 0.25175 0.0
C932 C 0.97283 0.65154 0.22164 0.0
C933 C 0.92778 0.67787 0.21415 0.0
C934 C 0.98338 0.63492 0.20564 0.0
C935 C 0.00405 0.64019 0.19265 0.0
C936 C 0.01477 0.6623 0.19532 0.0
C937 C 0.00419 0.679 0.21141 0.0
C938 C 0.98345 0.67361 0.22456 0.0
H939 H 0.90927 0.68173 0.20906 0.0
H940 H 0.93522 0.69363 0.22358 0.0
H941 H 0.93779 0.67468 0.19629 0.0
H942 H 0.97553 0.61777 0.20311 0.0
H943 H 0.01156 0.62685 0.18042 0.0
H944 H 0.62662 0.01096 0.18714 0.0
H945 H 0.61896 0.97542 0.21133 0.0
H946 H 0.69043 0.97482 0.23807 0.0
H947 H 0.69854 0.01053 0.21341 0.0
H948 H 0.67452 0.93079 0.22169 0.0
H949 H 0.61121 0.97118 0.28861 0.0
H950 H 0.60376 0.97644 0.2558 0.0
H951 H 0.63048 0.98836 0.26867 0.0
C952 C 0.6408 0.00345 0.1982 0.0
C953 C 0.6632 0.01381 0.19842 0.0
C954 C 0.6363 0.98312 0.21214 0.0
C955 C 0.65398 0.97273 0.22688 0.0
C956 C 0.67649 0.9827 0.22695 0.0
H957 H 0.61506 0.86393 0.33617 0.0
H958 H 0.63183 0.89895 0.3164 0.0
C959 C 0.68107 0.00312 0.21289 0.0
C960 C 0.64875 0.95126 0.24182 0.0
H961 H 0.61069 0.9293 0.28606 0.0
C962 C 0.66077 0.93047 0.23601 0.0
C963 C 0.63106 0.95096 0.26076 0.0
C964 C 0.61855 0.97299 0.26904 0.0
C965 C 0.6549 0.90917 0.24792 0.0
C966 C 0.63619 0.90863 0.2657 0.0
C967 C 0.62484 0.92962 0.27221 0.0
C968 C 0.62771 0.88653 0.27756 0.0
C969 C 0.66884 0.88753 0.24139 0.0
C970 C 0.61979 0.86786 0.26233 0.0
C971 C 0.61038 0.84771 0.27361 0.0
C972 C 0.60837 0.84605 0.30032 0.0
C973 C 0.61636 0.86471 0.31553 0.0
C974 C 0.62596 0.88473 0.30426 0.0
H975 H 0.68662 0.89212 0.2343 0.0
H976 H 0.67067 0.87579 0.25819 0.0
H977 H 0.65972 0.87777 0.22598 0.0
H978 H 0.62034 0.86908 0.24168 0.0
H979 H 0.60419 0.83367 0.26141 0.0
H980 H 0.86186 0.38338 0.66347 0.0
H981 H 0.89699 0.36624 0.68256 0.0
H982 H 0.87005 0.38139 0.75783 0.0
H983 H 0.83444 0.39777 0.73879 0.0
H984 H 0.92899 0.38718 0.70988 0.0
H985 H 0.89188 0.31544 0.76829 0.0
H986 H 0.87487 0.33078 0.7445 0.0
H987 H 0.87873 0.34309 0.77593 0.0
C988 C 0.86329 0.38277 0.68411 0.0
C989 C 0.84539 0.39184 0.69966 0.0
C990 C 0.88338 0.37296 0.695 0.0
C991 C 0.88607 0.37215 0.72166 0.0
C992 C 0.86813 0.38115 0.73725 0.0
H993 H 0.01338 0.37554 0.80652 0.0
H994 H 0.97754 0.38247 0.78262 0.0
C995 C 0.84786 0.39069 0.72635 0.0
C996 C 0.9084 0.36362 0.73299 0.0
H997 H 0.93125 0.32738 0.77867 0.0
C998 C 0.92945 0.37388 0.72469 0.0
C999 C 0.90916 0.34597 0.75203 0.0
C1000 C 0.88746 0.33301 0.7605 0.0
C1001 C 0.95105 0.3677 0.73556 0.0
C1002 C 0.95161 0.35126 0.75579 0.0
C1003 C 0.93075 0.34021 0.76338 0.0
C1004 C 0.97345 0.34652 0.7703 0.0
C1005 C 0.97307 0.37895 0.72532 0.0
C1006 C 0.9828 0.32379 0.77194 0.0
C1007 C 0.0034 0.31965 0.78585 0.0
C1008 C 0.01488 0.33816 0.79851 0.0
C1009 C 0.00522 0.36083 0.79693 0.0
C1010 C 0.98472 0.3649 0.78312 0.0
H1011 H 0.97073 0.38488 0.70524 0.0
H1012 H 0.97737 0.39458 0.73704 0.0
H1013 H 0.98815 0.36668 0.72611 0.0
H1014 H 0.97424 0.30932 0.76232 0.0
H1015 H 0.01026 0.30197 0.78674 0.0
H1016 H 0.39754 0.13406 0.32932 0.0
H1017 H 0.38253 0.09909 0.30803 0.0
H1018 H 0.3703 0.13926 0.23945 0.0
H1019 H 0.38614 0.17425 0.26042 0.0
H1020 H 0.34076 0.08845 0.28723 0.0
H1021 H 0.40974 0.08626 0.21243 0.0
H1022 H 0.41141 0.10544 0.23975 0.0
H1023 H 0.39312 0.11294 0.21295 0.0
C1024 C 0.3917 0.13548 0.30969 0.0
C1025 C 0.39327 0.15685 0.29644 0.0
C1026 C 0.38304 0.11547 0.29757 0.0
C1027 C 0.37565 0.11643 0.272 0.0
C1028 C 0.37644 0.13795 0.25898 0.0
H1029 H 0.30184 0.99858 0.19888 0.0
H1030 H 0.3104 0.03612 0.21966 0.0
C1031 C 0.38537 0.15796 0.27102 0.0
C1032 C 0.36757 0.09471 0.25907 0.0
H1033 H 0.37963 0.05805 0.20925 0.0
C1034 C 0.34921 0.0818 0.27014 0.0
C1035 C 0.3788 0.08593 0.23694 0.0
C1036 C 0.3995 0.09821 0.22493 0.0
C1037 C 0.34196 0.06021 0.25988 0.0
C1038 C 0.353 0.0516 0.23756 0.0
C1039 C 0.37111 0.06471 0.22629 0.0
C1040 C 0.34709 0.02847 0.22622 0.0
C1041 C 0.32317 0.04648 0.27359 0.0
C1042 C 0.36485 0.01177 0.22276 0.0
C1043 C 0.36011 0.99055 0.21057 0.0
C1044 C 0.33742 0.98545 0.20167 0.0
C1045 C 0.31944 0.0019 0.20574 0.0
C1046 C 0.3243 0.02333 0.2177 0.0
H1047 H 0.32102 0.05239 0.29369 0.0
H1048 H 0.30618 0.04907 0.26365 0.0
H1049 H 0.32722 0.02745 0.27362 0.0
H1050 H 0.38255 0.01529 0.22923 0.0
H1051 H 0.37433 0.97822 0.20789 0.0
H1052 H 0.13768 0.61488 0.65915 0.0
H1053 H 0.10248 0.63241 0.67766 0.0
H1054 H 0.13138 0.62344 0.75325 0.0
H1055 H 0.16695 0.60651 0.73476 0.0
H1056 H 0.07167 0.61245 0.70825 0.0
H1057 H 0.10826 0.68989 0.75768 0.0
H1058 H 0.12487 0.67322 0.73462 0.0
H1059 H 0.12271 0.6634 0.76726 0.0
C1060 C 0.13665 0.6169 0.6797 0.0
C1061 C 0.15508 0.60937 0.69552 0.0
C1062 C 0.11653 0.62695 0.69025 0.0
C1063 C 0.11441 0.62964 0.71682 0.0
C1064 C 0.13286 0.62218 0.73266 0.0
H1065 H 0.9916 0.62774 0.8079 0.0
H1066 H 0.02653 0.62083 0.78255 0.0
C1067 C 0.1531 0.61231 0.72209 0.0
C1068 C 0.09218 0.63848 0.72803 0.0
H1069 H 0.06978 0.6775 0.77112 0.0
C1070 C 0.07126 0.6269 0.72172 0.0
C1071 C 0.09148 0.65762 0.74526 0.0
C1072 C 0.11301 0.67191 0.75139 0.0
C1073 C 0.04989 0.63316 0.73305 0.0
C1074 C 0.04949 0.65112 0.75168 0.0
C1075 C 0.07016 0.66352 0.75708 0.0
C1076 C 0.02821 0.65594 0.76707 0.0
C1077 C 0.02796 0.62028 0.72509 0.0
C1078 C 0.01786 0.67828 0.76747 0.0
C1079 C 0.99777 0.68245 0.78225 0.0
C1080 C 0.98782 0.66434 0.79697 0.0
C1081 C 0.99853 0.64211 0.79667 0.0
C1082 C 0.01851 0.63803 0.78204 0.0
H1083 H 0.02964 0.61305 0.70545 0.0
H1084 H 0.02497 0.60535 0.7383 0.0
H1085 H 0.01237 0.63191 0.72576 0.0
H1086 H 0.02522 0.69242 0.7562 0.0
H1087 H 0.99007 0.69979 0.78211 0.0
H1088 H 0.23841 0.53507 0.60631 0.0
H1089 H 0.25258 0.51574 0.56733 0.0
H1090 H 0.19257 0.54183 0.52606 0.0
H1091 H 0.17854 0.56125 0.56439 0.0
H1092 H 0.22942 0.48115 0.54178 0.0
H1093 H 0.24466 0.55464 0.47563 0.0
H1094 H 0.24254 0.55875 0.50981 0.0
H1095 H 0.21647 0.55764 0.49036 0.0
C1096 C 0.22851 0.53707 0.58878 0.0
C1097 C 0.20726 0.54963 0.58853 0.0
C1098 C 0.23663 0.52601 0.56655 0.0
C1099 C 0.22385 0.52767 0.54367 0.0
C1100 C 0.20307 0.54079 0.54328 0.0
H1101 H 0.17631 0.44106 0.43139 0.0
H1102 H 0.19045 0.45961 0.47021 0.0
C1103 C 0.19492 0.5517 0.56537 0.0
C1104 C 0.23029 0.51369 0.52084 0.0
H1105 H 0.23181 0.51781 0.45584 0.0
C1106 C 0.23064 0.48917 0.52303 0.0
C1107 C 0.23249 0.52406 0.4964 0.0
C1108 C 0.23429 0.55025 0.49297 0.0
C1109 C 0.23063 0.47483 0.50124 0.0
C1110 C 0.22978 0.48531 0.47675 0.0
C1111 C 0.23198 0.50974 0.47461 0.0
C1112 C 0.22304 0.4718 0.45368 0.0
C1113 C 0.23047 0.44859 0.5047 0.0
C1114 C 0.23651 0.47267 0.43124 0.0
C1115 C 0.22833 0.46215 0.40873 0.0
C1116 C 0.20637 0.45088 0.40824 0.0
C1117 C 0.19327 0.44959 0.43097 0.0
C1118 C 0.20147 0.46 0.45335 0.0
H1119 H 0.24007 0.44348 0.52233 0.0
H1120 H 0.2121 0.44247 0.50678 0.0
H1121 H 0.2385 0.4395 0.4881 0.0
H1122 H 0.2531 0.48192 0.43101 0.0
H1123 H 0.23886 0.46352 0.39157 0.0
H1124 H 0.52524 0.77358 0.39133 0.0
H1125 H 0.50366 0.76502 0.43084 0.0
H1126 H 0.55297 0.8068 0.47361 0.0
H1127 H 0.57406 0.81604 0.43424 0.0
H1128 H 0.51297 0.74743 0.4813 0.0
H1129 H 0.49069 0.84205 0.48065 0.0
H1130 H 0.50425 0.8277 0.45376 0.0
H1131 H 0.52165 0.8366 0.48077 0.0
C1132 C 0.53176 0.78046 0.40927 0.0
C1133 C 0.55103 0.79584 0.40971 0.0
C1134 C 0.51944 0.77555 0.4318 0.0
C1135 C 0.52644 0.78574 0.455 0.0
C1136 C 0.54701 0.79919 0.45579 0.0
H1137 H 0.47367 0.77486 0.60955 0.0
H1138 H 0.4936 0.76616 0.56919 0.0
C1139 C 0.55904 0.80443 0.4333 0.0
C1140 C 0.51085 0.78495 0.47762 0.0
H1141 H 0.4803 0.82073 0.51768 0.0
C1142 C 0.50565 0.76338 0.48925 0.0
C1143 C 0.50092 0.80576 0.48756 0.0
C1144 C 0.50444 0.82931 0.47491 0.0
C1145 C 0.49128 0.76219 0.5111 0.0
C1146 C 0.48228 0.78318 0.52169 0.0
C1147 C 0.48718 0.80461 0.50965 0.0
C1148 C 0.46805 0.78392 0.54546 0.0
C1149 C 0.48565 0.73853 0.52236 0.0
C1150 C 0.44688 0.79649 0.54562 0.0
C1151 C 0.43589 0.80202 0.56865 0.0
C1152 C 0.4456 0.79471 0.59197 0.0
C1153 C 0.46573 0.78053 0.59178 0.0
C1154 C 0.47706 0.77542 0.56869 0.0
H1155 H 0.48728 0.72441 0.50785 0.0
H1156 H 0.49824 0.73467 0.53797 0.0
H1157 H 0.46765 0.73812 0.53042 0.0
H1158 H 0.43954 0.80318 0.52796 0.0
H1159 H 0.4203 0.81284 0.56827 0.0
H1160 H 0.82657 0.5612 0.43142 0.0
H1161 H 0.81345 0.54234 0.47048 0.0
H1162 H 0.74934 0.52127 0.43334 0.0
H1163 H 0.76262 0.53986 0.39355 0.0
H1164 H 0.77437 0.54702 0.50179 0.0
H1165 H 0.77804 0.45885 0.45602 0.0
H1166 H 0.79016 0.48448 0.44078 0.0
H1167 H 0.75898 0.48037 0.44196 0.0
C1168 C 0.80957 0.55276 0.43144 0.0
C1169 C 0.79584 0.55175 0.40912 0.0
C1170 C 0.80203 0.54206 0.45393 0.0
C1171 C 0.78059 0.53008 0.45474 0.0
C1172 C 0.76614 0.53008 0.43299 0.0
H1173 H 0.76329 0.46481 0.60791 0.0
H1174 H 0.75004 0.48469 0.56884 0.0
C1175 C 0.77372 0.54083 0.41032 0.0
C1176 C 0.77477 0.5163 0.47796 0.0
H1177 H 0.77504 0.46013 0.50049 0.0
C1178 C 0.77391 0.52801 0.50155 0.0
C1179 C 0.77423 0.4915 0.47752 0.0
C1180 C 0.77552 0.47793 0.4528 0.0
C1181 C 0.77433 0.51562 0.52476 0.0
C1182 C 0.77528 0.49085 0.52429 0.0
C1183 C 0.77428 0.47913 0.50073 0.0
C1184 C 0.78156 0.47712 0.54738 0.0
C1185 C 0.77566 0.52915 0.54951 0.0
C1186 C 0.80327 0.46565 0.54797 0.0
C1187 C 0.81082 0.45428 0.57005 0.0
C1188 C 0.79681 0.45403 0.59217 0.0
C1189 C 0.77458 0.46475 0.59127 0.0
C1190 C 0.76702 0.47623 0.56902 0.0
H1191 H 0.77752 0.54831 0.54632 0.0
H1192 H 0.75943 0.5261 0.56072 0.0
H1193 H 0.79072 0.523 0.56116 0.0
H1194 H 0.81478 0.4661 0.53149 0.0
H1195 H 0.82794 0.44608 0.56985 0.0
H1196 H 0.47425 0.23068 0.38865 0.0
H1197 H 0.49603 0.23961 0.42798 0.0
H1198 H 0.45295 0.1906 0.46958 0.0
H1199 H 0.43164 0.18116 0.43046 0.0
H1200 H 0.48531 0.25384 0.47976 0.0
H1201 H 0.51952 0.16311 0.47367 0.0
H1202 H 0.50399 0.17689 0.44768 0.0
H1203 H 0.4881 0.16437 0.47407 0.0
C1204 C 0.46913 0.2222 0.40632 0.0
C1205 C 0.45155 0.20489 0.40642 0.0
C1206 C 0.48157 0.22732 0.42874 0.0
C1207 C 0.47641 0.21537 0.45151 0.0
C1208 C 0.45751 0.19965 0.45206 0.0
H1209 H 0.52369 0.22561 0.60732 0.0
H1210 H 0.50479 0.23404 0.56631 0.0
C1211 C 0.44535 0.19428 0.4297 0.0
C1212 C 0.49215 0.21712 0.47395 0.0
H1213 H 0.52642 0.18338 0.51251 0.0
C1214 C 0.49453 0.23855 0.48687 0.0
C1215 C 0.50459 0.19728 0.48278 0.0
C1216 C 0.50416 0.17418 0.46869 0.0
C1217 C 0.50837 0.24039 0.50909 0.0
C1218 C 0.51966 0.22013 0.51878 0.0
C1219 C 0.51777 0.19895 0.50525 0.0
C1220 C 0.53293 0.21976 0.54326 0.0
C1221 C 0.51087 0.26399 0.52175 0.0
C1222 C 0.55516 0.20918 0.54411 0.0
C1223 C 0.56555 0.20368 0.5675 0.0
C1224 C 0.5542 0.20916 0.59051 0.0
C1225 C 0.53289 0.22145 0.58979 0.0
C1226 C 0.52216 0.22642 0.56632 0.0
H1227 H 0.50849 0.27844 0.50776 0.0
H1228 H 0.4971 0.26587 0.5366 0.0
H1229 H 0.52827 0.26596 0.53101 0.0
H1230 H 0.56388 0.20392 0.52664 0.0
H1231 H 0.58205 0.19428 0.56759 0.0
H1232 H 0.7367 0.0345 0.10681 0.0
H1233 H 0.7502 0.01587 0.06717 0.0
H1234 H 0.68988 0.04326 0.02747 0.0
H1235 H 0.67649 0.06198 0.06651 0.0
H1236 H 0.72611 0.98195 0.04151 0.0
H1237 H 0.74141 0.05617 0.97628 0.0
H1238 H 0.73982 0.05981 0.01055 0.0
H1239 H 0.71346 0.05919 0.99155 0.0
C1240 C 0.72659 0.03696 0.08949 0.0
C1241 C 0.70543 0.04963 0.08989 0.0
C1242 C 0.73433 0.02629 0.06687 0.0
C1243 C 0.72125 0.02847 0.04425 0.0
C1244 C 0.7006 0.04179 0.04448 0.0
H1245 H 0.6725 0.94356 0.9305 0.0
H1246 H 0.68638 0.96222 0.96937 0.0
C1247 C 0.69281 0.0523 0.06698 0.0
C1248 C 0.7272 0.01474 0.02107 0.0
H1249 H 0.72838 0.01964 0.95608 0.0
C1250 C 0.7273 0.99019 0.02287 0.0
C1251 C 0.72929 0.0254 0.99675 0.0
C1252 C 0.73126 0.05161 0.99371 0.0
C1253 C 0.72702 0.97612 0.00088 0.0
C1254 C 0.72621 0.98691 0.97654 0.0
C1255 C 0.72856 0.01134 0.97475 0.0
C1256 C 0.71942 0.97366 0.95331 0.0
C1257 C 0.72652 0.94984 0.00394 0.0
C1258 C 0.73325 0.97411 0.93111 0.0
C1259 C 0.72526 0.96345 0.90858 0.0
C1260 C 0.70312 0.95253 0.90782 0.0
C1261 C 0.6896 0.95181 0.93029 0.0
C1262 C 0.69763 0.96229 0.95269 0.0
H1263 H 0.73579 0.94438 0.02164 0.0
H1264 H 0.70805 0.94391 0.00556 0.0
H1265 H 0.73469 0.9409 0.98733 0.0
H1266 H 0.75001 0.98303 0.93111 0.0
H1267 H 0.73608 0.96442 0.8916 0.0
H1268 H 0.03884 0.26423 0.89222 0.0
H1269 H 0.01979 0.25077 0.93168 0.0
H1270 H 0.03865 0.31557 0.96877 0.0
H1271 H 0.05787 0.32894 0.93001 0.0
H1272 H 0.04474 0.27585 -0.00013 0.0
H1273 H 0.95636 0.2784 0.95439 0.0
H1274 H 0.97846 0.26022 0.93997 0.0
H1275 H 0.98164 0.2915 0.93939 0.0
C1276 C 0.03917 0.27548 0.9089 0.0
C1277 C 0.04965 0.29782 0.9078 0.0
C1278 C 0.02818 0.26778 0.93137 0.0
C1279 C 0.02753 0.28231 0.95303 0.0
C1280 C 0.0389 0.30408 0.95228 0.0
H1281 H 0.94444 0.32792 0.06953 0.0
H1282 H 0.96375 0.31515 0.03056 0.0
C1283 C 0.04981 0.31176 0.92998 0.0
C1284 C 0.01391 0.27608 0.97619 0.0
H1285 H 0.95783 0.27552 0.99892 0.0
C1286 C 0.02574 0.27514 -0.00029 0.0
C1287 C 0.98913 0.27523 0.97582 0.0
C1288 C 0.97551 0.27649 0.95113 0.0
C1289 C 0.01344 0.2752 0.02295 0.0
C1290 C 0.98865 0.27586 0.02259 0.0
C1291 C 0.97683 0.27497 0.99907 0.0
C1292 C 0.975 0.28176 0.04582 0.0
C1293 C 0.02705 0.27646 0.04766 0.0
C1294 C 0.97442 0.26695 0.06726 0.0
C1295 C 0.96337 0.27428 0.08983 0.0
C1296 C 0.95278 0.29654 0.09126 0.0
C1297 C 0.95258 0.31078 0.0693 0.0
C1298 C 0.96354 0.30346 0.04689 0.0
H1299 H 0.04618 0.27855 0.0444 0.0
H1300 H 0.0208 0.29136 0.05947 0.0
H1301 H 0.02423 0.26011 0.05873 0.0
H1302 H 0.9829 0.24998 0.0667 0.0
H1303 H 0.96374 0.26281 0.10632 0.0
H1304 H 0.3278 0.05974 0.93358 0.0
H1305 H 0.31419 0.04017 0.97206 0.0
H1306 H 0.25017 0.0205 0.93384 0.0
H1307 H 0.26388 0.03988 0.89469 0.0
H1308 H 0.2741 0.04503 0.00277 0.0
H1309 H 0.27872 0.95739 0.95589 0.0
H1310 H 0.29142 0.98313 0.94143 0.0
H1311 H 0.2602 0.97929 0.94163 0.0
C1312 C 0.31073 0.05145 0.93326 0.0
C1313 C 0.29711 0.05111 0.91084 0.0
C1314 C 0.30291 0.04035 0.95539 0.0
C1315 C 0.28133 0.02861 0.95572 0.0
C1316 C 0.26706 0.02917 0.93386 0.0
H1317 H 0.26256 0.96228 0.10793 0.0
H1318 H 0.24929 0.98183 0.06868 0.0
C1319 C 0.27489 0.04035 0.91155 0.0
C1320 C 0.2751 0.01457 0.97859 0.0
H1321 H 0.27533 0.95817 0.00036 0.0
C1322 C 0.27373 0.02603 0.00229 0.0
C1323 C 0.27468 0.98978 0.9778 0.0
C1324 C 0.27643 0.97653 0.95291 0.0
C1325 C 0.27381 0.01339 0.02533 0.0
C1326 C 0.27496 0.98863 0.02456 0.0
C1327 C 0.27443 0.97715 0.00083 0.0
C1328 C 0.28111 0.97474 0.04756 0.0
C1329 C 0.27461 0.02666 0.05027 0.0
C1330 C 0.30298 0.96358 0.04834 0.0
C1331 C 0.31054 0.95238 0.07052 0.0
C1332 C 0.29639 0.95204 0.09253 0.0
C1333 C 0.27397 0.96233 0.09138 0.0
C1334 C 0.26639 0.9736 0.06903 0.0
H1335 H 0.27633 0.04588 0.04736 0.0
H1336 H 0.25824 0.02335 0.06113 0.0
H1337 H 0.28955 0.02055 0.06213 0.0
H1338 H 0.31462 0.96421 0.03199 0.0
H1339 H 0.3278 0.94449 0.07053 0.0
H1340 H 0.96101 0.74024 0.89326 0.0
H1341 H 0.97957 0.75499 0.93251 0.0
H1342 H 0.97363 0.68637 0.96645 0.0
H1343 H 0.95502 0.67165 0.928 0.0
H1344 H 0.96001 0.72411 0.99903 0.0
H1345 H 0.04765 0.73779 0.9542 0.0
H1346 H 0.0223 0.75147 0.94015 0.0
H1347 H 0.02543 0.72023 0.9388 0.0
C1348 C 0.96353 0.72836 0.90917 0.0
C1349 C 0.9566 0.7047 0.90735 0.0
C1350 C 0.97421 0.73681 0.93152 0.0
C1351 C 0.97811 0.72171 0.95228 0.0
C1352 C 0.97073 0.69834 0.95067 0.0
H1353 H 0.0639 0.67972 0.06567 0.0
H1354 H 0.04463 0.69382 0.02718 0.0
C1355 C 0.96012 0.68993 0.92854 0.0
C1356 C 0.99058 0.72934 0.97569 0.0
H1357 H 0.04604 0.73642 0.99889 0.0
C1358 C 0.97871 0.72753 0.9991 0.0
C1359 C 0.01495 0.73381 0.97557 0.0
C1360 C 0.0285 0.73591 0.95092 0.0
C1361 C 0.99089 0.72792 0.0224 0.0
C1362 C 0.01555 0.73054 0.02221 0.0
C1363 C 0.02713 0.73444 0.99891 0.0
C1364 C 0.02978 0.72463 0.04501 0.0
C1365 C 0.97755 0.72341 0.04683 0.0
C1366 C 0.02841 0.73767 0.06771 0.0
C1367 C 0.03941 0.72956 0.08999 0.0
C1368 C 0.05187 0.70824 0.08983 0.0
C1369 C 0.05422 0.69602 0.06663 0.0
C1370 C 0.04333 0.70415 0.04451 0.0
H1371 H 0.95878 0.71936 0.04329 0.0
H1372 H 0.9855 0.70854 0.05743 0.0
H1373 H 0.97849 0.73915 0.05924 0.0
H1374 H 0.01826 0.75369 0.0684 0.0
H1375 H 0.03738 0.73948 0.10749 0.0
loop_
_geom_bond_atom_site_label_1
_geom_bond_atom_site_label_2
_geom_bond_distance
_geom_bond_site_symmetry_2
_ccdc_geom_bond_type
Co0 O1 2.216 . S
Co0 O2 2.091 . S
Co0 O4 2.004 . S
Co0 O10 2.021 . S
Co0 O12 2.137 . S
Co0 O13 2.244 . S
O1 Co0 2.216 . S
O1 C8 1.247 . S
O2 Co0 2.091 . S
O2 C8 1.261 . S
C3 O12 1.247 . S
C3 O13 1.272 . S
O4 Co0 2.004 . S
O4 C9 1.259 . S
Co5 O6 2.061 . S
Co5 O11 2.052 . S
Co5 O13 2.135 . S
O6 Co5 2.061 . S
O6 C9 1.235 . S
C7 O10 1.238 . S
C7 O11 1.241 . S
C8 O1 1.247 . S
C8 O2 1.261 . S
C9 O4 1.259 . S
C9 O6 1.235 . S
O10 Co0 2.021 . S
O10 C7 1.238 . S
O11 Co5 2.052 . S
O11 C7 1.241 . S
O12 Co0 2.137 . S
O12 C3 1.247 . S
O13 Co0 2.244 . S
O13 C3 1.272 . S
O13 Co5 2.135 . S
Co14 O15 2.216 . S
Co14 O16 2.091 . S
Co14 O18 2.004 . S
Co14 O24 2.021 . S
Co14 O26 2.137 . S
Co14 O27 2.244 . S
O15 Co14 2.216 . S
O15 C22 1.247 . S
O16 Co14 2.091 . S
O16 C22 1.261 . S
C17 O26 1.247 . S
C17 O27 1.272 . S
O18 Co14 2.004 . S
O18 C23 1.259 . S
Co19 O20 2.061 . S
Co19 O25 2.052 . S
Co19 O27 2.135 . S
O20 Co19 2.061 . S
O20 C23 1.235 . S
C21 O24 1.238 . S
C21 O25 1.241 . S
C22 O15 1.247 . S
C22 O16 1.261 . S
C23 O18 1.259 . S
C23 O20 1.235 . S
O24 Co14 2.021 . S
O24 C21 1.238 . S
O25 Co19 2.052 . S
O25 C21 1.241 . S
O26 Co14 2.137 . S
O26 C17 1.247 . S
O27 Co14 2.244 . S
O27 C17 1.272 . S
O27 Co19 2.135 . S
Co28 O29 2.216 . S
Co28 O30 2.091 . S
Co28 O32 2.004 . S
Co28 O38 2.021 . S
Co28 O40 2.137 . S
Co28 O41 2.244 . S
O29 Co28 2.216 . S
O29 C36 1.247 . S
O30 Co28 2.091 . S
O30 C36 1.261 . S
C31 O40 1.247 . S
C31 O41 1.272 . S
O32 Co28 2.004 . S
O32 C37 1.259 . S
Co33 O34 2.061 . S
Co33 O39 2.052 . S
Co33 O41 2.135 . S
O34 Co33 2.061 . S
O34 C37 1.235 . S
C35 O38 1.238 . S
C35 O39 1.241 . S
C36 O29 1.247 . S
C36 O30 1.261 . S
C37 O32 1.259 . S
C37 O34 1.235 . S
O38 Co28 2.021 . S
O38 C35 1.238 . S
O39 Co33 2.052 . S
O39 C35 1.241 . S
O40 Co28 2.137 . S
O40 C31 1.247 . S
O41 Co28 2.244 . S
O41 C31 1.272 . S
O41 Co33 2.135 . S
Co42 O43 2.216 . S
Co42 O44 2.091 . S
Co42 O46 2.004 . S
Co42 O52 2.021 . S
Co42 O54 2.137 . S
Co42 O55 2.244 . S
O43 Co42 2.216 . S
O43 C50 1.247 . S
O44 Co42 2.091 . S
O44 C50 1.261 . S
C45 O54 1.247 . S
C45 O55 1.272 . S
O46 Co42 2.004 . S
O46 C51 1.259 . S
Co47 O48 2.061 . S
Co47 O53 2.052 . S
Co47 O55 2.135 . S
O48 Co47 2.061 . S
O48 C51 1.235 . S
C49 O52 1.238 . S
C49 O53 1.241 . S
C50 O43 1.247 . S
C50 O44 1.261 . S
C51 O46 1.259 . S
C51 O48 1.235 . S
O52 Co42 2.021 . S
O52 C49 1.238 . S
O53 Co47 2.052 . S
O53 C49 1.241 . S
O54 Co42 2.137 . S
O54 C45 1.247 . S
O55 Co42 2.244 . S
O55 C45 1.272 . S
O55 Co47 2.135 . S
Co56 O57 2.216 . S
Co56 O58 2.091 . S
Co56 O60 2.004 . S
Co56 O66 2.021 . S
Co56 O68 2.137 . S
Co56 O69 2.244 . S
O57 Co56 2.216 . S
O57 C64 1.247 . S
O58 Co56 2.091 . S
O58 C64 1.261 . S
C59 O68 1.247 . S
C59 O69 1.272 . S
O60 Co56 2.004 . S
O60 C65 1.259 . S
Co61 O62 2.061 . S
Co61 O67 2.052 . S
Co61 O69 2.135 . S
O62 Co61 2.061 . S
O62 C65 1.235 . S
C63 O66 1.238 . S
C63 O67 1.241 . S
C64 O57 1.247 . S
C64 O58 1.261 . S
C65 O60 1.259 . S
C65 O62 1.235 . S
O66 Co56 2.021 . S
O66 C63 1.238 . S
O67 Co61 2.052 . S
O67 C63 1.241 . S
O68 Co56 2.137 . S
O68 C59 1.247 . S
O69 Co56 2.244 . S
O69 C59 1.272 . S
O69 Co61 2.135 . S
Co70 O71 2.216 . S
Co70 O72 2.091 . S
Co70 O74 2.004 . S
Co70 O80 2.021 . S
Co70 O82 2.137 . S
Co70 O83 2.244 . S
O71 Co70 2.216 . S
O71 C78 1.247 . S
O72 Co70 2.091 . S
O72 C78 1.261 . S
C73 O82 1.247 . S
C73 O83 1.272 . S
O74 Co70 2.004 . S
O74 C79 1.259 . S
Co75 O76 2.061 . S
Co75 O81 2.052 . S
Co75 O83 2.135 . S
O76 Co75 2.061 . S
O76 C79 1.235 . S
C77 O80 1.238 . S
C77 O81 1.241 . S
C78 O71 1.247 . S
C78 O72 1.261 . S
C79 O74 1.259 . S
C79 O76 1.235 . S
O80 Co70 2.021 . S
O80 C77 1.238 . S
O81 Co75 2.052 . S
O81 C77 1.241 . S
O82 Co70 2.137 . S
O82 C73 1.247 . S
O83 Co70 2.244 . S
O83 C73 1.272 . S
O83 Co75 2.135 . S
Co84 O85 2.216 . S
Co84 O86 2.091 . S
Co84 O88 2.004 . S
Co84 O94 2.021 . S
Co84 O96 2.137 . S
Co84 O97 2.244 . S
O85 Co84 2.216 . S
O85 C92 1.247 . S
O86 Co84 2.091 . S
O86 C92 1.261 . S
C87 O96 1.247 . S
C87 O97 1.272 . S
O88 Co84 2.004 . S
O88 C93 1.259 . S
Co89 O90 2.061 . S
Co89 O95 2.052 . S
Co89 O97 2.135 . S
O90 Co89 2.061 . S
O90 C93 1.235 . S
C91 O94 1.238 . S
C91 O95 1.241 . S
C92 O85 1.247 . S
C92 O86 1.261 . S
C93 O88 1.259 . S
C93 O90 1.235 . S
O94 Co84 2.021 . S
O94 C91 1.238 . S
O95 Co89 2.052 . S
O95 C91 1.241 . S
O96 Co84 2.137 . S
O96 C87 1.247 . S
O97 Co84 2.244 . S
O97 C87 1.272 . S
O97 Co89 2.135 . S
Co98 O99 2.216 . S
Co98 O100 2.091 . S
Co98 O102 2.004 . S
Co98 O108 2.021 . S
Co98 O110 2.137 . S
Co98 O111 2.244 . S
O99 Co98 2.216 . S
O99 C106 1.247 . S
O100 Co98 2.091 . S
O100 C106 1.261 . S
C101 O110 1.247 . S
C101 O111 1.272 . S
O102 Co98 2.004 . S
O102 C107 1.259 . S
Co103 O104 2.061 . S
Co103 O109 2.052 . S
Co103 O111 2.135 . S
O104 Co103 2.061 . S
O104 C107 1.235 . S
C105 O108 1.238 . S
C105 O109 1.241 . S
C106 O99 1.247 . S
C106 O100 1.261 . S
C107 O102 1.259 . S
C107 O104 1.235 . S
O108 Co98 2.021 . S
O108 C105 1.238 . S
O109 Co103 2.052 . S
O109 C105 1.241 . S
O110 Co98 2.137 . S
O110 C101 1.247 . S
O111 Co98 2.244 . S
O111 C101 1.272 . S
O111 Co103 2.135 . S
Co112 O113 2.216 . S
Co112 O114 2.091 . S
Co112 O116 2.004 . S
Co112 O122 2.021 . S
Co112 O124 2.137 . S
Co112 O125 2.244 . S
O113 Co112 2.216 . S
O113 C120 1.247 . S
O114 Co112 2.091 . S
O114 C120 1.261 . S
C115 O124 1.247 . S
C115 O125 1.272 . S
O116 Co112 2.004 . S
O116 C121 1.259 . S
Co117 O118 2.061 . S
Co117 O123 2.052 . S
Co117 O125 2.135 . S
O118 Co117 2.061 . S
O118 C121 1.235 . S
C119 O122 1.238 . S
C119 O123 1.241 . S
C120 O113 1.247 . S
C120 O114 1.261 . S
C121 O116 1.259 . S
C121 O118 1.235 . S
O122 Co112 2.021 . S
O122 C119 1.238 . S
O123 Co117 2.052 . S
O123 C119 1.241 . S
O124 Co112 2.137 . S
O124 C115 1.247 . S
O125 Co112 2.244 . S
O125 C115 1.272 . S
O125 Co117 2.135 . S
Co126 O127 2.216 . S
Co126 O128 2.091 . S
Co126 O130 2.004 . S
Co126 O136 2.021 . S
Co126 O138 2.137 . S
Co126 O139 2.244 . S
O127 Co126 2.216 . S
O127 C134 1.247 . S
O128 Co126 2.091 . S
O128 C134 1.261 . S
C129 O138 1.247 . S
C129 O139 1.272 . S
O130 Co126 2.004 . S
O130 C135 1.259 . S
Co131 O132 2.061 . S
Co131 O137 2.052 . S
Co131 O139 2.135 . S
O132 Co131 2.061 . S
O132 C135 1.235 . S
C133 O136 1.238 . S
C133 O137 1.241 . S
C134 O127 1.247 . S
C134 O128 1.261 . S
C135 O130 1.259 . S
C135 O132 1.235 . S
O136 Co126 2.021 . S
O136 C133 1.238 . S
O137 Co131 2.052 . S
O137 C133 1.241 . S
O138 Co126 2.137 . S
O138 C129 1.247 . S
O139 Co126 2.244 . S
O139 C129 1.272 . S
O139 Co131 2.135 . S
Co140 O141 2.216 . S
Co140 O142 2.091 . S
Co140 O144 2.004 . S
Co140 O150 2.021 . S
Co140 O152 2.137 . S
Co140 O153 2.244 . S
O141 Co140 2.216 . S
O141 C148 1.247 . S
O142 Co140 2.091 . S
O142 C148 1.261 . S
C143 O152 1.247 . S
C143 O153 1.272 . S
O144 Co140 2.004 . S
O144 C149 1.259 . S
Co145 O146 2.061 . S
Co145 O151 2.052 . S
Co145 O153 2.135 . S
O146 Co145 2.061 . S
O146 C149 1.235 . S
C147 O150 1.238 . S
C147 O151 1.241 . S
C148 O141 1.247 . S
C148 O142 1.261 . S
C149 O144 1.259 . S
C149 O146 1.235 . S
O150 Co140 2.021 . S
O150 C147 1.238 . S
O151 Co145 2.052 . S
O151 C147 1.241 . S
O152 Co140 2.137 . S
O152 C143 1.247 . S
O153 Co140 2.244 . S
O153 C143 1.272 . S
O153 Co145 2.135 . S
Co154 O155 2.216 . S
Co154 O156 2.091 . S
Co154 O158 2.004 . S
Co154 O164 2.021 . S
Co154 O166 2.137 . S
Co154 O167 2.244 . S
O155 Co154 2.216 . S
O155 C162 1.247 . S
O156 Co154 2.091 . S
O156 C162 1.261 . S
C157 O166 1.247 . S
C157 O167 1.272 . S
O158 Co154 2.004 . S
O158 C163 1.259 . S
Co159 O160 2.061 . S
Co159 O165 2.052 . S
Co159 O167 2.135 . S
O160 Co159 2.061 . S
O160 C163 1.235 . S
C161 O164 1.238 . S
C161 O165 1.241 . S
C162 O155 1.247 . S
C162 O156 1.261 . S
C163 O158 1.259 . S
C163 O160 1.235 . S
O164 Co154 2.021 . S
O164 C161 1.238 . S
O165 Co159 2.052 . S
O165 C161 1.241 . S
O166 Co154 2.137 . S
O166 C157 1.247 . S
O167 Co154 2.244 . S
O167 C157 1.272 . S
O167 Co159 2.135 . S
Co168 O169 2.216 . S
Co168 O170 2.091 . S
Co168 O172 2.004 . S
Co168 O178 2.021 . S
Co168 O180 2.137 . S
Co168 O181 2.244 . S
O169 Co168 2.216 . S
O169 C176 1.247 . S
O170 Co168 2.091 . S
O170 C176 1.261 . S
C171 O180 1.247 . S
C171 O181 1.272 . S
O172 Co168 2.004 . S
O172 C177 1.259 . S
Co173 O174 2.061 . S
Co173 O179 2.052 . S
Co173 O181 2.135 . S
O174 Co173 2.061 . S
O174 C177 1.235 . S
C175 O178 1.238 . S
C175 O179 1.241 . S
C176 O169 1.247 . S
C176 O170 1.261 . S
C177 O172 1.259 . S
C177 O174 1.235 . S
O178 Co168 2.021 . S
O178 C175 1.238 . S
O179 Co173 2.052 . S
O179 C175 1.241 . S
O180 Co168 2.137 . S
O180 C171 1.247 . S
O181 Co168 2.244 . S
O181 C171 1.272 . S
O181 Co173 2.135 . S
Co182 O183 2.216 . S
Co182 O184 2.091 . S
Co182 O186 2.004 . S
Co182 O192 2.021 . S
Co182 O194 2.137 . S
Co182 O195 2.244 . S
O183 Co182 2.216 . S
O183 C190 1.247 . S
O184 Co182 2.091 . S
O184 C190 1.261 . S
C185 O194 1.247 . S
C185 O195 1.272 . S
O186 Co182 2.004 . S
O186 C191 1.259 . S
Co187 O188 2.061 . S
Co187 O193 2.052 . S
Co187 O195 2.135 . S
O188 Co187 2.061 . S
O188 C191 1.235 . S
C189 O192 1.238 . S
C189 O193 1.241 . S
C190 O183 1.247 . S
C190 O184 1.261 . S
C191 O186 1.259 . S
C191 O188 1.235 . S
O192 Co182 2.021 . S
O192 C189 1.238 . S
O193 Co187 2.052 . S
O193 C189 1.241 . S
O194 Co182 2.137 . S
O194 C185 1.247 . S
O195 Co182 2.244 . S
O195 C185 1.272 . S
O195 Co187 2.135 . S
Co196 O197 2.216 . S
Co196 O198 2.091 . S
Co196 O200 2.004 . S
Co196 O206 2.021 . S
Co196 O208 2.137 . S
Co196 O209 2.244 . S
O197 Co196 2.216 . S
O197 C204 1.247 . S
O198 Co196 2.091 . S
O198 C204 1.261 . S
C199 O208 1.247 . S
C199 O209 1.272 . S
O200 Co196 2.004 . S
O200 C205 1.259 . S
Co201 O202 2.061 . S
Co201 O207 2.052 . S
Co201 O209 2.135 . S
O202 Co201 2.061 . S
O202 C205 1.235 . S
C203 O206 1.238 . S
C203 O207 1.241 . S
C204 O197 1.247 . S
C204 O198 1.261 . S
C205 O200 1.259 . S
C205 O202 1.235 . S
O206 Co196 2.021 . S
O206 C203 1.238 . S
O207 Co201 2.052 . S
O207 C203 1.241 . S
O208 Co196 2.137 . S
O208 C199 1.247 . S
O209 Co196 2.244 . S
O209 C199 1.272 . S
O209 Co201 2.135 . S
Co210 O211 2.216 . S
Co210 O212 2.091 . S
Co210 O214 2.004 . S
Co210 O220 2.021 . S
Co210 O222 2.137 . S
Co210 O223 2.244 . S
O211 Co210 2.216 . S
O211 C218 1.247 . S
O212 Co210 2.091 . S
O212 C218 1.261 . S
C213 O222 1.247 . S
C213 O223 1.272 . S
O214 Co210 2.004 . S
O214 C219 1.259 . S
Co215 O216 2.061 . S
Co215 O221 2.052 . S
Co215 O223 2.135 . S
O216 Co215 2.061 . S
O216 C219 1.235 . S
C217 O220 1.238 . S
C217 O221 1.241 . S
C218 O211 1.247 . S
C218 O212 1.261 . S
C219 O214 1.259 . S
C219 O216 1.235 . S
O220 Co210 2.021 . S
O220 C217 1.238 . S
O221 Co215 2.052 . S
O221 C217 1.241 . S
O222 Co210 2.137 . S
O222 C213 1.247 . S
O223 Co210 2.244 . S
O223 C213 1.272 . S
O223 Co215 2.135 . S
H224 C232 0.929 . S
H225 C234 0.930 . S
H226 C236 0.930 . S
H227 C239 0.929 . S
H228 C242 0.930 . S
H229 C244 0.960 . S
H230 C244 0.960 . S
H231 C244 0.960 . S
C232 H224 0.929 . S
C232 C233 1.377 . S
C232 C234 1.384 . S
C233 C232 1.377 . S
C233 C239 1.390 . S
C234 H225 0.930 . S
C234 C232 1.384 . S
C234 C235 1.372 . S
C235 C234 1.372 . S
C235 C236 1.400 . S
C235 C240 1.490 . S
C236 H226 0.930 . S
C236 C235 1.400 . S
C236 C239 1.386 . S
H237 C253 0.930 . S
H238 C254 0.931 . S
C239 H227 0.929 . S
C239 C233 1.390 . S
C239 C236 1.386 . S
C240 C235 1.490 . S
C240 C242 1.395 . S
C240 C243 1.403 . S
H241 C247 0.930 . S
C242 H228 0.930 . S
C242 C240 1.395 . S
C242 C245 1.403 . S
C243 C240 1.403 . S
C243 C244 1.524 . S
C243 C247 1.400 . S
C244 H229 0.960 . S
C244 H230 0.960 . S
C244 H231 0.960 . S
C244 C243 1.524 . S
C245 C242 1.403 . S
C245 C246 1.392 . S
C245 C249 1.495 . S
C246 C245 1.392 . S
C246 C247 1.385 . S
C246 C248 1.478 . S
C247 H241 0.930 . S
C247 C243 1.400 . S
C247 C246 1.385 . S
C248 C246 1.478 . S
C248 C250 1.381 . S
C248 C254 1.383 . S
C249 C245 1.495 . S
C249 H255 0.959 . S
C249 H256 0.961 . S
C249 H257 0.960 . S
C250 C248 1.381 . S
C250 C251 1.394 . S
C250 H258 0.930 . S
C251 C250 1.394 . S
C251 C252 1.383 . S
C251 H259 0.929 . S
C252 C251 1.383 . S
C252 C253 1.377 . S
C253 H237 0.930 . S
C253 C252 1.377 . S
C253 C254 1.379 . S
C254 H238 0.931 . S
C254 C248 1.383 . S
C254 C253 1.379 . S
H255 C249 0.959 . S
H256 C249 0.961 . S
H257 C249 0.960 . S
H258 C250 0.930 . S
H259 C251 0.929 . S
H260 C268 0.929 . S
H261 C270 0.930 . S
H262 C272 0.930 . S
H263 C275 0.929 . S
H264 C278 0.930 . S
H265 C280 0.960 . S
H266 C280 0.960 . S
H267 C280 0.960 . S
C268 H260 0.929 . S
C268 C269 1.377 . S
C268 C270 1.384 . S
C269 C268 1.377 . S
C269 C275 1.390 . S
C270 H261 0.930 . S
C270 C268 1.384 . S
C270 C271 1.372 . S
C271 C270 1.372 . S
C271 C272 1.400 . S
C271 C276 1.490 . S
C272 H262 0.930 . S
C272 C271 1.400 . S
C272 C275 1.386 . S
H273 C289 0.930 . S
H274 C290 0.931 . S
C275 H263 0.929 . S
C275 C269 1.390 . S
C275 C272 1.386 . S
C276 C271 1.490 . S
C276 C278 1.395 . S
C276 C279 1.403 . S
H277 C283 0.930 . S
C278 H264 0.930 . S
C278 C276 1.395 . S
C278 C281 1.403 . S
C279 C276 1.403 . S
C279 C280 1.524 . S
C279 C283 1.400 . S
C280 H265 0.960 . S
C280 H266 0.960 . S
C280 H267 0.960 . S
C280 C279 1.524 . S
C281 C278 1.403 . S
C281 C282 1.392 . S
C281 C285 1.495 . S
C282 C281 1.392 . S
C282 C283 1.385 . S
C282 C284 1.478 . S
C283 H277 0.930 . S
C283 C279 1.400 . S
C283 C282 1.385 . S
C284 C282 1.478 . S
C284 C286 1.381 . S
C284 C290 1.383 . S
C285 C281 1.495 . S
C285 H291 0.959 . S
C285 H292 0.961 . S
C285 H293 0.960 . S
C286 C284 1.381 . S
C286 C287 1.394 . S
C286 H294 0.930 . S
C287 C286 1.394 . S
C287 C288 1.383 . S
C287 H295 0.929 . S
C288 C287 1.383 . S
C288 C289 1.377 . S
C289 H273 0.930 . S
C289 C288 1.377 . S
C289 C290 1.379 . S
C290 H274 0.931 . S
C290 C284 1.383 . S
C290 C289 1.379 . S
H291 C285 0.959 . S
H292 C285 0.961 . S
H293 C285 0.960 . S
H294 C286 0.930 . S
H295 C287 0.929 . S
H296 C304 0.929 . S
H297 C306 0.930 . S
H298 C308 0.930 . S
H299 C311 0.929 . S
H300 C314 0.930 . S
H301 C316 0.960 . S
H302 C316 0.960 . S
H303 C316 0.960 . S
C304 H296 0.929 . S
C304 C305 1.377 . S
C304 C306 1.384 . S
C305 C304 1.377 . S
C305 C311 1.390 . S
C306 H297 0.930 . S
C306 C304 1.384 . S
C306 C307 1.372 . S
C307 C306 1.372 . S
C307 C308 1.400 . S
C307 C312 1.490 . S
C308 H298 0.930 . S
C308 C307 1.400 . S
C308 C311 1.386 . S
H309 C325 0.930 . S
H310 C326 0.931 . S
C311 H299 0.929 . S
C311 C305 1.390 . S
C311 C308 1.386 . S
C312 C307 1.490 . S
C312 C314 1.395 . S
C312 C315 1.403 . S
H313 C319 0.930 . S
C314 H300 0.930 . S
C314 C312 1.395 . S
C314 C317 1.403 . S
C315 C312 1.403 . S
C315 C316 1.524 . S
C315 C319 1.400 . S
C316 H301 0.960 . S
C316 H302 0.960 . S
C316 H303 0.960 . S
C316 C315 1.524 . S
C317 C314 1.403 . S
C317 C318 1.392 . S
C317 C321 1.495 . S
C318 C317 1.392 . S
C318 C319 1.385 . S
C318 C320 1.478 . S
C319 H313 0.930 . S
C319 C315 1.400 . S
C319 C318 1.385 . S
C320 C318 1.478 . S
C320 C322 1.381 . S
C320 C326 1.383 . S
C321 C317 1.495 . S
C321 H327 0.959 . S
C321 H328 0.961 . S
C321 H329 0.960 . S
C322 C320 1.381 . S
C322 C323 1.394 . S
C322 H330 0.930 . S
C323 C322 1.394 . S
C323 C324 1.383 . S
C323 H331 0.929 . S
C324 C323 1.383 . S
C324 C325 1.377 . S
C325 H309 0.930 . S
C325 C324 1.377 . S
C325 C326 1.379 . S
C326 H310 0.931 . S
C326 C320 1.383 . S
C326 C325 1.379 . S
H327 C321 0.959 . S
H328 C321 0.961 . S
H329 C321 0.960 . S
H330 C322 0.930 . S
H331 C323 0.929 . S
H332 C340 0.929 . S
H333 C342 0.930 . S
H334 C344 0.930 . S
H335 C347 0.929 . S
H336 C350 0.930 . S
H337 C352 0.960 . S
H338 C352 0.960 . S
H339 C352 0.960 . S
C340 H332 0.929 . S
C340 C341 1.377 . S
C340 C342 1.384 . S
C341 C340 1.377 . S
C341 C347 1.390 . S
C342 H333 0.930 . S
C342 C340 1.384 . S
C342 C343 1.372 . S
C343 C342 1.372 . S
C343 C344 1.400 . S
C343 C348 1.490 . S
C344 H334 0.930 . S
C344 C343 1.400 . S
C344 C347 1.386 . S
H345 C361 0.930 . S
H346 C362 0.931 . S
C347 H335 0.929 . S
C347 C341 1.390 . S
C347 C344 1.386 . S
C348 C343 1.490 . S
C348 C350 1.395 . S
C348 C351 1.403 . S
H349 C355 0.930 . S
C350 H336 0.930 . S
C350 C348 1.395 . S
C350 C353 1.403 . S
C351 C348 1.403 . S
C351 C352 1.524 . S
C351 C355 1.400 . S
C352 H337 0.960 . S
C352 H338 0.960 . S
C352 H339 0.960 . S
C352 C351 1.524 . S
C353 C350 1.403 . S
C353 C354 1.392 . S
C353 C357 1.495 . S
C354 C353 1.392 . S
C354 C355 1.385 . S
C354 C356 1.478 . S
C355 H349 0.930 . S
C355 C351 1.400 . S
C355 C354 1.385 . S
C356 C354 1.478 . S
C356 C358 1.381 . S
C356 C362 1.383 . S
C357 C353 1.495 . S
C357 H363 0.959 . S
C357 H364 0.961 . S
C357 H365 0.960 . S
C358 C356 1.381 . S
C358 C359 1.394 . S
C358 H366 0.930 . S
C359 C358 1.394 . S
C359 C360 1.383 . S
C359 H367 0.929 . S
C360 C359 1.383 . S
C360 C361 1.377 . S
C361 H345 0.930 . S
C361 C360 1.377 . S
C361 C362 1.379 . S
C362 H346 0.931 . S
C362 C356 1.383 . S
C362 C361 1.379 . S
H363 C357 0.959 . S
H364 C357 0.961 . S
H365 C357 0.960 . S
H366 C358 0.930 . S
H367 C359 0.929 . S
H368 C376 0.929 . S
H369 C378 0.930 . S
H370 C380 0.930 . S
H371 C383 0.929 . S
H372 C386 0.930 . S
H373 C388 0.960 . S
H374 C388 0.960 . S
H375 C388 0.960 . S
C376 H368 0.929 . S
C376 C377 1.377 . S
C376 C378 1.384 . S
C377 C376 1.377 . S
C377 C383 1.390 . S
C378 H369 0.930 . S
C378 C376 1.384 . S
C378 C379 1.372 . S
C379 C378 1.372 . S
C379 C380 1.400 . S
C379 C384 1.490 . S
C380 H370 0.930 . S
C380 C379 1.400 . S
C380 C383 1.386 . S
H381 C397 0.930 . S
H382 C398 0.931 . S
C383 H371 0.929 . S
C383 C377 1.390 . S
C383 C380 1.386 . S
C384 C379 1.490 . S
C384 C386 1.395 . S
C384 C387 1.403 . S
H385 C391 0.930 . S
C386 H372 0.930 . S
C386 C384 1.395 . S
C386 C389 1.403 . S
C387 C384 1.403 . S
C387 C388 1.524 . S
C387 C391 1.400 . S
C388 H373 0.960 . S
C388 H374 0.960 . S
C388 H375 0.960 . S
C388 C387 1.524 . S
C389 C386 1.403 . S
C389 C390 1.392 . S
C389 C393 1.495 . S
C390 C389 1.392 . S
C390 C391 1.385 . S
C390 C392 1.478 . S
C391 H385 0.930 . S
C391 C387 1.400 . S
C391 C390 1.385 . S
C392 C390 1.478 . S
C392 C394 1.381 . S
C392 C398 1.383 . S
C393 C389 1.495 . S
C393 H399 0.959 . S
C393 H400 0.961 . S
C393 H401 0.960 . S
C394 C392 1.381 . S
C394 C395 1.394 . S
C394 H402 0.930 . S
C395 C394 1.394 . S
C395 C396 1.383 . S
C395 H403 0.929 . S
C396 C395 1.383 . S
C396 C397 1.377 . S
C397 H381 0.930 . S
C397 C396 1.377 . S
C397 C398 1.379 . S
C398 H382 0.931 . S
C398 C392 1.383 . S
C398 C397 1.379 . S
H399 C393 0.959 . S
H400 C393 0.961 . S
H401 C393 0.960 . S
H402 C394 0.930 . S
H403 C395 0.929 . S
H404 C412 0.929 . S
H405 C414 0.930 . S
H406 C416 0.930 . S
H407 C419 0.929 . S
H408 C422 0.930 . S
H409 C424 0.960 . S
H410 C424 0.960 . S
H411 C424 0.960 . S
C412 H404 0.929 . S
C412 C413 1.377 . S
C412 C414 1.384 . S
C413 C412 1.377 . S
C413 C419 1.390 . S
C414 H405 0.930 . S
C414 C412 1.384 . S
C414 C415 1.372 . S
C415 C414 1.372 . S
C415 C416 1.400 . S
C415 C420 1.490 . S
C416 H406 0.930 . S
C416 C415 1.400 . S
C416 C419 1.386 . S
H417 C433 0.930 . S
H418 C434 0.931 . S
C419 H407 0.929 . S
C419 C413 1.390 . S
C419 C416 1.386 . S
C420 C415 1.490 . S
C420 C422 1.395 . S
C420 C423 1.403 . S
H421 C427 0.930 . S
C422 H408 0.930 . S
C422 C420 1.395 . S
C422 C425 1.403 . S
C423 C420 1.403 . S
C423 C424 1.524 . S
C423 C427 1.400 . S
C424 H409 0.960 . S
C424 H410 0.960 . S
C424 H411 0.960 . S
C424 C423 1.524 . S
C425 C422 1.403 . S
C425 C426 1.392 . S
C425 C429 1.495 . S
C426 C425 1.392 . S
C426 C427 1.385 . S
C426 C428 1.478 . S
C427 H421 0.930 . S
C427 C423 1.400 . S
C427 C426 1.385 . S
C428 C426 1.478 . S
C428 C430 1.381 . S
C428 C434 1.383 . S
C429 C425 1.495 . S
C429 H435 0.959 . S
C429 H436 0.961 . S
C429 H437 0.960 . S
C430 C428 1.381 . S
C430 C431 1.394 . S
C430 H438 0.930 . S
C431 C430 1.394 . S
C431 C432 1.383 . S
C431 H439 0.929 . S
C432 C431 1.383 . S
C432 C433 1.377 . S
C433 H417 0.930 . S
C433 C432 1.377 . S
C433 C434 1.379 . S
C434 H418 0.931 . S
C434 C428 1.383 . S
C434 C433 1.379 . S
H435 C429 0.959 . S
H436 C429 0.961 . S
H437 C429 0.960 . S
H438 C430 0.930 . S
H439 C431 0.929 . S
H440 C448 0.929 . S
H441 C450 0.930 . S
H442 C452 0.930 . S
H443 C455 0.929 . S
H444 C458 0.930 . S
H445 C460 0.960 . S
H446 C460 0.960 . S
H447 C460 0.960 . S
C448 H440 0.929 . S
C448 C449 1.377 . S
C448 C450 1.384 . S
C449 C448 1.377 . S
C449 C455 1.390 . S
C450 H441 0.930 . S
C450 C448 1.384 . S
C450 C451 1.372 . S
C451 C450 1.372 . S
C451 C452 1.400 . S
C451 C456 1.490 . S
C452 H442 0.930 . S
C452 C451 1.400 . S
C452 C455 1.386 . S
H453 C469 0.930 . S
H454 C470 0.931 . S
C455 H443 0.929 . S
C455 C449 1.390 . S
C455 C452 1.386 . S
C456 C451 1.490 . S
C456 C458 1.395 . S
C456 C459 1.403 . S
H457 C463 0.930 . S
C458 H444 0.930 . S
C458 C456 1.395 . S
C458 C461 1.403 . S
C459 C456 1.403 . S
C459 C460 1.524 . S
C459 C463 1.400 . S
C460 H445 0.960 . S
C460 H446 0.960 . S
C460 H447 0.960 . S
C460 C459 1.524 . S
C461 C458 1.403 . S
C461 C462 1.392 . S
C461 C465 1.495 . S
C462 C461 1.392 . S
C462 C463 1.385 . S
C462 C464 1.478 . S
C463 H457 0.930 . S
C463 C459 1.400 . S
C463 C462 1.385 . S
C464 C462 1.478 . S
C464 C466 1.381 . S
C464 C470 1.383 . S
C465 C461 1.495 . S
C465 H471 0.959 . S
C465 H472 0.961 . S
C465 H473 0.960 . S
C466 C464 1.381 . S
C466 C467 1.394 . S
C466 H474 0.930 . S
C467 C466 1.394 . S
C467 C468 1.383 . S
C467 H475 0.929 . S
C468 C467 1.383 . S
C468 C469 1.377 . S
C469 H453 0.930 . S
C469 C468 1.377 . S
C469 C470 1.379 . S
C470 H454 0.931 . S
C470 C464 1.383 . S
C470 C469 1.379 . S
H471 C465 0.959 . S
H472 C465 0.961 . S
H473 C465 0.960 . S
H474 C466 0.930 . S
H475 C467 0.929 . S
H476 C484 0.929 . S
H477 C486 0.930 . S
H478 C488 0.930 . S
H479 C491 0.929 . S
H480 C494 0.930 . S
H481 C496 0.960 . S
H482 C496 0.960 . S
H483 C496 0.960 . S
C484 H476 0.929 . S
C484 C485 1.377 . S
C484 C486 1.384 . S
C485 C484 1.377 . S
C485 C491 1.390 . S
C486 H477 0.930 . S
C486 C484 1.384 . S
C486 C487 1.372 . S
C487 C486 1.372 . S
C487 C488 1.400 . S
C487 C492 1.490 . S
C488 H478 0.930 . S
C488 C487 1.400 . S
C488 C491 1.386 . S
H489 C505 0.930 . S
H490 C506 0.931 . S
C491 H479 0.929 . S
C491 C485 1.390 . S
C491 C488 1.386 . S
C492 C487 1.490 . S
C492 C494 1.395 . S
C492 C495 1.403 . S
H493 C499 0.930 . S
C494 H480 0.930 . S
C494 C492 1.395 . S
C494 C497 1.403 . S
C495 C492 1.403 . S
C495 C496 1.524 . S
C495 C499 1.400 . S
C496 H481 0.960 . S
C496 H482 0.960 . S
C496 H483 0.960 . S
C496 C495 1.524 . S
C497 C494 1.403 . S
C497 C498 1.392 . S
C497 C501 1.495 . S
C498 C497 1.392 . S
C498 C499 1.385 . S
C498 C500 1.478 . S
C499 H493 0.930 . S
C499 C495 1.400 . S
C499 C498 1.385 . S
C500 C498 1.478 . S
C500 C502 1.381 . S
C500 C506 1.383 . S
C501 C497 1.495 . S
C501 H507 0.959 . S
C501 H508 0.961 . S
C501 H509 0.960 . S
C502 C500 1.381 . S
C502 C503 1.394 . S
C502 H510 0.930 . S
C503 C502 1.394 . S
C503 C504 1.383 . S
C503 H511 0.929 . S
C504 C503 1.383 . S
C504 C505 1.377 . S
C505 H489 0.930 . S
C505 C504 1.377 . S
C505 C506 1.379 . S
C506 H490 0.931 . S
C506 C500 1.383 . S
C506 C505 1.379 . S
H507 C501 0.959 . S
H508 C501 0.961 . S
H509 C501 0.960 . S
H510 C502 0.930 . S
H511 C503 0.929 . S
H512 C520 0.929 . S
H513 C522 0.930 . S
H514 C524 0.930 . S
H515 C527 0.929 . S
H516 C530 0.930 . S
H517 C532 0.960 . S
H518 C532 0.960 . S
H519 C532 0.960 . S
C520 H512 0.929 . S
C520 C521 1.377 . S
C520 C522 1.384 . S
C521 C520 1.377 . S
C521 C527 1.390 . S
C522 H513 0.930 . S
C522 C520 1.384 . S
C522 C523 1.372 . S
C523 C522 1.372 . S
C523 C524 1.400 . S
C523 C528 1.490 . S
C524 H514 0.930 . S
C524 C523 1.400 . S
C524 C527 1.386 . S
H525 C541 0.930 . S
H526 C542 0.931 . S
C527 H515 0.929 . S
C527 C521 1.390 . S
C527 C524 1.386 . S
C528 C523 1.490 . S
C528 C530 1.395 . S
C528 C531 1.403 . S
H529 C535 0.930 . S
C530 H516 0.930 . S
C530 C528 1.395 . S
C530 C533 1.403 . S
C531 C528 1.403 . S
C531 C532 1.524 . S
C531 C535 1.400 . S
C532 H517 0.960 . S
C532 H518 0.960 . S
C532 H519 0.960 . S
C532 C531 1.524 . S
C533 C530 1.403 . S
C533 C534 1.392 . S
C533 C537 1.495 . S
C534 C533 1.392 . S
C534 C535 1.385 . S
C534 C536 1.478 . S
C535 H529 0.930 . S
C535 C531 1.400 . S
C535 C534 1.385 . S
C536 C534 1.478 . S
C536 C538 1.381 . S
C536 C542 1.383 . S
C537 C533 1.495 . S
C537 H543 0.959 . S
C537 H544 0.961 . S
C537 H545 0.960 . S
C538 C536 1.381 . S
C538 C539 1.394 . S
C538 H546 0.930 . S
C539 C538 1.394 . S
C539 C540 1.383 . S
C539 H547 0.929 . S
C540 C539 1.383 . S
C540 C541 1.377 . S
C541 H525 0.930 . S
C541 C540 1.377 . S
C541 C542 1.379 . S
C542 H526 0.931 . S
C542 C536 1.383 . S
C542 C541 1.379 . S
H543 C537 0.959 . S
H544 C537 0.961 . S
H545 C537 0.960 . S
H546 C538 0.930 . S
H547 C539 0.929 . S
H548 C556 0.929 . S
H549 C558 0.930 . S
H550 C560 0.930 . S
H551 C563 0.929 . S
H552 C566 0.930 . S
H553 C568 0.960 . S
H554 C568 0.960 . S
H555 C568 0.960 . S
C556 H548 0.929 . S
C556 C557 1.377 . S
C556 C558 1.384 . S
C557 C556 1.377 . S
C557 C563 1.390 . S
C558 H549 0.930 . S
C558 C556 1.384 . S
C558 C559 1.372 . S
C559 C558 1.372 . S
C559 C560 1.400 . S
C559 C564 1.490 . S
C560 H550 0.930 . S
C560 C559 1.400 . S
C560 C563 1.386 . S
H561 C577 0.930 . S
H562 C578 0.931 . S
C563 H551 0.929 . S
C563 C557 1.390 . S
C563 C560 1.386 . S
C564 C559 1.490 . S
C564 C566 1.395 . S
C564 C567 1.403 . S
H565 C571 0.930 . S
C566 H552 0.930 . S
C566 C564 1.395 . S
C566 C569 1.403 . S
C567 C564 1.403 . S
C567 C568 1.524 . S
C567 C571 1.400 . S
C568 H553 0.960 . S
C568 H554 0.960 . S
C568 H555 0.960 . S
C568 C567 1.524 . S
C569 C566 1.403 . S
C569 C570 1.392 . S
C569 C573 1.495 . S
C570 C569 1.392 . S
C570 C571 1.385 . S
C570 C572 1.478 . S
C571 H565 0.930 . S
C571 C567 1.400 . S
C571 C570 1.385 . S
C572 C570 1.478 . S
C572 C574 1.381 . S
C572 C578 1.383 . S
C573 C569 1.495 . S
C573 H579 0.959 . S
C573 H580 0.961 . S
C573 H581 0.960 . S
C574 C572 1.381 . S
C574 C575 1.394 . S
C574 H582 0.930 . S
C575 C574 1.394 . S
C575 C576 1.383 . S
C575 H583 0.929 . S
C576 C575 1.383 . S
C576 C577 1.377 . S
C577 H561 0.930 . S
C577 C576 1.377 . S
C577 C578 1.379 . S
C578 H562 0.931 . S
C578 C572 1.383 . S
C578 C577 1.379 . S
H579 C573 0.959 . S
H580 C573 0.961 . S
H581 C573 0.960 . S
H582 C574 0.930 . S
H583 C575 0.929 . S
H584 C592 0.929 . S
H585 C594 0.930 . S
H586 C596 0.930 . S
H587 C599 0.929 . S
H588 C602 0.930 . S
H589 C604 0.960 . S
H590 C604 0.960 . S
H591 C604 0.960 . S
C592 H584 0.929 . S
C592 C593 1.377 . S
C592 C594 1.384 . S
C593 C592 1.377 . S
C593 C599 1.390 . S
C594 H585 0.930 . S
C594 C592 1.384 . S
C594 C595 1.372 . S
C595 C594 1.372 . S
C595 C596 1.400 . S
C595 C600 1.490 . S
C596 H586 0.930 . S
C596 C595 1.400 . S
C596 C599 1.386 . S
H597 C613 0.930 . S
H598 C614 0.931 . S
C599 H587 0.929 . S
C599 C593 1.390 . S
C599 C596 1.386 . S
C600 C595 1.490 . S
C600 C602 1.395 . S
C600 C603 1.403 . S
H601 C607 0.930 . S
C602 H588 0.930 . S
C602 C600 1.395 . S
C602 C605 1.403 . S
C603 C600 1.403 . S
C603 C604 1.524 . S
C603 C607 1.400 . S
C604 H589 0.960 . S
C604 H590 0.960 . S
C604 H591 0.960 . S
C604 C603 1.524 . S
C605 C602 1.403 . S
C605 C606 1.392 . S
C605 C609 1.495 . S
C606 C605 1.392 . S
C606 C607 1.385 . S
C606 C608 1.478 . S
C607 H601 0.930 . S
C607 C603 1.400 . S
C607 C606 1.385 . S
C608 C606 1.478 . S
C608 C610 1.381 . S
C608 C614 1.383 . S
C609 C605 1.495 . S
C609 H615 0.959 . S
C609 H616 0.961 . S
C609 H617 0.960 . S
C610 C608 1.381 . S
C610 C611 1.394 . S
C610 H618 0.930 . S
C611 C610 1.394 . S
C611 C612 1.383 . S
C611 H619 0.929 . S
C612 C611 1.383 . S
C612 C613 1.377 . S
C613 H597 0.930 . S
C613 C612 1.377 . S
C613 C614 1.379 . S
C614 H598 0.931 . S
C614 C608 1.383 . S
C614 C613 1.379 . S
H615 C609 0.959 . S
H616 C609 0.961 . S
H617 C609 0.960 . S
H618 C610 0.930 . S
H619 C611 0.929 . S
H620 C628 0.929 . S
H621 C630 0.930 . S
H622 C632 0.930 . S
H623 C635 0.929 . S
H624 C638 0.930 . S
H625 C640 0.960 . S
H626 C640 0.960 . S
H627 C640 0.960 . S
C628 H620 0.929 . S
C628 C629 1.377 . S
C628 C630 1.384 . S
C629 C628 1.377 . S
C629 C635 1.390 . S
C630 H621 0.930 . S
C630 C628 1.384 . S
C630 C631 1.372 . S
C631 C630 1.372 . S
C631 C632 1.400 . S
C631 C636 1.490 . S
C632 H622 0.930 . S
C632 C631 1.400 . S
C632 C635 1.386 . S
H633 C649 0.930 . S
H634 C650 0.931 . S
C635 H623 0.929 . S
C635 C629 1.390 . S
C635 C632 1.386 . S
C636 C631 1.490 . S
C636 C638 1.395 . S
C636 C639 1.403 . S
H637 C643 0.930 . S
C638 H624 0.930 . S
C638 C636 1.395 . S
C638 C641 1.403 . S
C639 C636 1.403 . S
C639 C640 1.524 . S
C639 C643 1.400 . S
C640 H625 0.960 . S
C640 H626 0.960 . S
C640 H627 0.960 . S
C640 C639 1.524 . S
C641 C638 1.403 . S
C641 C642 1.392 . S
C641 C645 1.495 . S
C642 C641 1.392 . S
C642 C643 1.385 . S
C642 C644 1.478 . S
C643 H637 0.930 . S
C643 C639 1.400 . S
C643 C642 1.385 . S
C644 C642 1.478 . S
C644 C646 1.381 . S
C644 C650 1.383 . S
C645 C641 1.495 . S
C645 H651 0.959 . S
C645 H652 0.961 . S
C645 H653 0.960 . S
C646 C644 1.381 . S
C646 C647 1.394 . S
C646 H654 0.930 . S
C647 C646 1.394 . S
C647 C648 1.383 . S
C647 H655 0.929 . S
C648 C647 1.383 . S
C648 C649 1.377 . S
C649 H633 0.930 . S
C649 C648 1.377 . S
C649 C650 1.379 . S
C650 H634 0.931 . S
C650 C644 1.383 . S
C650 C649 1.379 . S
H651 C645 0.959 . S
H652 C645 0.961 . S
H653 C645 0.960 . S
H654 C646 0.930 . S
H655 C647 0.929 . S
H656 C664 0.929 . S
H657 C666 0.930 . S
H658 C668 0.930 . S
H659 C671 0.929 . S
H660 C674 0.930 . S
H661 C676 0.960 . S
H662 C676 0.960 . S
H663 C676 0.960 . S
C664 H656 0.929 . S
C664 C665 1.377 . S
C664 C666 1.384 . S
C665 C664 1.377 . S
C665 C671 1.390 . S
C666 H657 0.930 . S
C666 C664 1.384 . S
C666 C667 1.372 . S
C667 C666 1.372 . S
C667 C668 1.400 . S
C667 C672 1.490 . S
C668 H658 0.930 . S
C668 C667 1.400 . S
C668 C671 1.386 . S
H669 C685 0.930 . S
H670 C686 0.931 . S
C671 H659 0.929 . S
C671 C665 1.390 . S
C671 C668 1.386 . S
C672 C667 1.490 . S
C672 C674 1.395 . S
C672 C675 1.403 . S
H673 C679 0.930 . S
C674 H660 0.930 . S
C674 C672 1.395 . S
C674 C677 1.403 . S
C675 C672 1.403 . S
C675 C676 1.524 . S
C675 C679 1.400 . S
C676 H661 0.960 . S
C676 H662 0.960 . S
C676 H663 0.960 . S
C676 C675 1.524 . S
C677 C674 1.403 . S
C677 C678 1.392 . S
C677 C681 1.495 . S
C678 C677 1.392 . S
C678 C679 1.385 . S
C678 C680 1.478 . S
C679 H673 0.930 . S
C679 C675 1.400 . S
C679 C678 1.385 . S
C680 C678 1.478 . S
C680 C682 1.381 . S
C680 C686 1.383 . S
C681 C677 1.495 . S
C681 H687 0.959 . S
C681 H688 0.961 . S
C681 H689 0.960 . S
C682 C680 1.381 . S
C682 C683 1.394 . S
C682 H690 0.930 . S
C683 C682 1.394 . S
C683 C684 1.383 . S
C683 H691 0.929 . S
C684 C683 1.383 . S
C684 C685 1.377 . S
C685 H669 0.930 . S
C685 C684 1.377 . S
C685 C686 1.379 . S
C686 H670 0.931 . S
C686 C680 1.383 . S
C686 C685 1.379 . S
H687 C681 0.959 . S
H688 C681 0.961 . S
H689 C681 0.960 . S
H690 C682 0.930 . S
H691 C683 0.929 . S
H692 C700 0.929 . S
H693 C702 0.930 . S
H694 C704 0.930 . S
H695 C707 0.929 . S
H696 C710 0.930 . S
H697 C712 0.960 . S
H698 C712 0.960 . S
H699 C712 0.960 . S
C700 H692 0.929 . S
C700 C701 1.377 . S
C700 C702 1.384 . S
C701 C700 1.377 . S
C701 C707 1.390 . S
C702 H693 0.930 . S
C702 C700 1.384 . S
C702 C703 1.372 . S
C703 C702 1.372 . S
C703 C704 1.400 . S
C703 C708 1.490 . S
C704 H694 0.930 . S
C704 C703 1.400 . S
C704 C707 1.386 . S
H705 C721 0.930 . S
H706 C722 0.931 . S
C707 H695 0.929 . S
C707 C701 1.390 . S
C707 C704 1.386 . S
C708 C703 1.490 . S
C708 C710 1.395 . S
C708 C711 1.403 . S
H709 C715 0.930 . S
C710 H696 0.930 . S
C710 C708 1.395 . S
C710 C713 1.403 . S
C711 C708 1.403 . S
C711 C712 1.524 . S
C711 C715 1.400 . S
C712 H697 0.960 . S
C712 H698 0.960 . S
C712 H699 0.960 . S
C712 C711 1.524 . S
C713 C710 1.403 . S
C713 C714 1.392 . S
C713 C717 1.495 . S
C714 C713 1.392 . S
C714 C715 1.385 . S
C714 C716 1.478 . S
C715 H709 0.930 . S
C715 C711 1.400 . S
C715 C714 1.385 . S
C716 C714 1.478 . S
C716 C718 1.381 . S
C716 C722 1.383 . S
C717 C713 1.495 . S
C717 H723 0.959 . S
C717 H724 0.961 . S
C717 H725 0.960 . S
C718 C716 1.381 . S
C718 C719 1.394 . S
C718 H726 0.930 . S
C719 C718 1.394 . S
C719 C720 1.383 . S
C719 H727 0.929 . S
C720 C719 1.383 . S
C720 C721 1.377 . S
C721 H705 0.930 . S
C721 C720 1.377 . S
C721 C722 1.379 . S
C722 H706 0.931 . S
C722 C716 1.383 . S
C722 C721 1.379 . S
H723 C717 0.959 . S
H724 C717 0.961 . S
H725 C717 0.960 . S
H726 C718 0.930 . S
H727 C719 0.929 . S
H728 C736 0.929 . S
H729 C738 0.930 . S
H730 C740 0.930 . S
H731 C743 0.929 . S
H732 C746 0.930 . S
H733 C748 0.960 . S
H734 C748 0.960 . S
H735 C748 0.960 . S
C736 H728 0.929 . S
C736 C737 1.377 . S
C736 C738 1.384 . S
C737 C736 1.377 . S
C737 C743 1.390 . S
C738 H729 0.930 . S
C738 C736 1.384 . S
C738 C739 1.372 . S
C739 C738 1.372 . S
C739 C740 1.400 . S
C739 C744 1.490 . S
C740 H730 0.930 . S
C740 C739 1.400 . S
C740 C743 1.386 . S
H741 C757 0.930 . S
H742 C758 0.931 . S
C743 H731 0.929 . S
C743 C737 1.390 . S
C743 C740 1.386 . S
C744 C739 1.490 . S
C744 C746 1.395 . S
C744 C747 1.403 . S
H745 C751 0.930 . S
C746 H732 0.930 . S
C746 C744 1.395 . S
C746 C749 1.403 . S
C747 C744 1.403 . S
C747 C748 1.524 . S
C747 C751 1.400 . S
C748 H733 0.960 . S
C748 H734 0.960 . S
C748 H735 0.960 . S
C748 C747 1.524 . S
C749 C746 1.403 . S
C749 C750 1.392 . S
C749 C753 1.495 . S
C750 C749 1.392 . S
C750 C751 1.385 . S
C750 C752 1.478 . S
C751 H745 0.930 . S
C751 C747 1.400 . S
C751 C750 1.385 . S
C752 C750 1.478 . S
C752 C754 1.381 . S
C752 C758 1.383 . S
C753 C749 1.495 . S
C753 H759 0.959 . S
C753 H760 0.961 . S
C753 H761 0.960 . S
C754 C752 1.381 . S
C754 C755 1.394 . S
C754 H762 0.930 . S
C755 C754 1.394 . S
C755 C756 1.383 . S
C755 H763 0.929 . S
C756 C755 1.383 . S
C756 C757 1.377 . S
C757 H741 0.930 . S
C757 C756 1.377 . S
C757 C758 1.379 . S
C758 H742 0.931 . S
C758 C752 1.383 . S
C758 C757 1.379 . S
H759 C753 0.959 . S
H760 C753 0.961 . S
H761 C753 0.960 . S
H762 C754 0.930 . S
H763 C755 0.929 . S
H764 C772 0.929 . S
H765 C774 0.930 . S
H766 C776 0.930 . S
H767 C779 0.929 . S
H768 C782 0.930 . S
H769 C784 0.960 . S
H770 C784 0.960 . S
H771 C784 0.960 . S
C772 H764 0.929 . S
C772 C773 1.377 . S
C772 C774 1.384 . S
C773 C772 1.377 . S
C773 C779 1.390 . S
C774 H765 0.930 . S
C774 C772 1.384 . S
C774 C775 1.372 . S
C775 C774 1.372 . S
C775 C776 1.400 . S
C775 C780 1.490 . S
C776 H766 0.930 . S
C776 C775 1.400 . S
C776 C779 1.386 . S
H777 C793 0.930 . S
H778 C794 0.931 . S
C779 H767 0.929 . S
C779 C773 1.390 . S
C779 C776 1.386 . S
C780 C775 1.490 . S
C780 C782 1.395 . S
C780 C783 1.403 . S
H781 C787 0.930 . S
C782 H768 0.930 . S
C782 C780 1.395 . S
C782 C785 1.403 . S
C783 C780 1.403 . S
C783 C784 1.524 . S
C783 C787 1.400 . S
C784 H769 0.960 . S
C784 H770 0.960 . S
C784 H771 0.960 . S
C784 C783 1.524 . S
C785 C782 1.403 . S
C785 C786 1.392 . S
C785 C789 1.495 . S
C786 C785 1.392 . S
C786 C787 1.385 . S
C786 C788 1.478 . S
C787 H781 0.930 . S
C787 C783 1.400 . S
C787 C786 1.385 . S
C788 C786 1.478 . S
C788 C790 1.381 . S
C788 C794 1.383 . S
C789 C785 1.495 . S
C789 H795 0.959 . S
C789 H796 0.961 . S
C789 H797 0.960 . S
C790 C788 1.381 . S
C790 C791 1.394 . S
C790 H798 0.930 . S
C791 C790 1.394 . S
C791 C792 1.383 . S
C791 H799 0.929 . S
C792 C791 1.383 . S
C792 C793 1.377 . S
C793 H777 0.930 . S
C793 C792 1.377 . S
C793 C794 1.379 . S
C794 H778 0.931 . S
C794 C788 1.383 . S
C794 C793 1.379 . S
H795 C789 0.959 . S
H796 C789 0.961 . S
H797 C789 0.960 . S
H798 C790 0.930 . S
H799 C791 0.929 . S
H800 C808 0.929 1_565 S
H801 C810 0.930 . S
H802 C812 0.930 . S
H803 C815 0.929 . S
H804 C818 0.930 . S
H805 C820 0.960 . S
H806 C820 0.960 . S
H807 C820 0.960 . S
C808 H800 0.929 1_545 S
C808 C809 1.377 . S
C808 C810 1.384 . S
C809 C808 1.377 . S
C809 C815 1.390 . S
C810 H801 0.930 . S
C810 C808 1.384 . S
C810 C811 1.372 . S
C811 C810 1.372 . S
C811 C812 1.400 . S
C811 C816 1.490 . S
C812 H802 0.930 . S
C812 C811 1.400 . S
C812 C815 1.386 . S
H813 C829 0.930 . S
H814 C830 0.931 . S
C815 H803 0.929 . S
C815 C809 1.390 . S
C815 C812 1.386 . S
C816 C811 1.490 . S
C816 C818 1.395 . S
C816 C819 1.403 . S
H817 C823 0.930 . S
C818 H804 0.930 . S
C818 C816 1.395 . S
C818 C821 1.403 . S
C819 C816 1.403 . S
C819 C820 1.524 . S
C819 C823 1.400 . S
C820 H805 0.960 . S
C820 H806 0.960 . S
C820 H807 0.960 . S
C820 C819 1.524 . S
C821 C818 1.403 . S
C821 C822 1.392 . S
C821 C825 1.495 . S
C822 C821 1.392 . S
C822 C823 1.385 . S
C822 C824 1.478 . S
C823 H817 0.930 . S
C823 C819 1.400 . S
C823 C822 1.385 . S
C824 C822 1.478 . S
C824 C826 1.381 . S
C824 C830 1.383 . S
C825 C821 1.495 . S
C825 H831 0.959 . S
C825 H832 0.961 . S
C825 H833 0.960 . S
C826 C824 1.381 . S
C826 C827 1.394 . S
C826 H834 0.930 . S
C827 C826 1.394 . S
C827 C828 1.383 . S
C827 H835 0.929 . S
C828 C827 1.383 . S
C828 C829 1.377 . S
C829 H813 0.930 . S
C829 C828 1.377 . S
C829 C830 1.379 . S
C830 H814 0.931 . S
C830 C824 1.383 . S
C830 C829 1.379 . S
H831 C825 0.959 . S
H832 C825 0.961 . S
H833 C825 0.960 . S
H834 C826 0.930 . S
H835 C827 0.929 . S
H836 C844 0.929 . S
H837 C846 0.930 . S
H838 C848 0.930 . S
H839 C851 0.929 . S
H840 C854 0.930 . S
H841 C856 0.960 . S
H842 C856 0.960 . S
H843 C856 0.960 . S
C844 H836 0.929 . S
C844 C845 1.377 . S
C844 C846 1.384 . S
C845 C844 1.377 . S
C845 C851 1.390 . S
C846 H837 0.930 . S
C846 C844 1.384 . S
C846 C847 1.372 . S
C847 C846 1.372 . S
C847 C848 1.400 . S
C847 C852 1.490 . S
C848 H838 0.930 . S
C848 C847 1.400 . S
C848 C851 1.386 . S
H849 C865 0.930 . S
H850 C866 0.931 . S
C851 H839 0.929 . S
C851 C845 1.390 . S
C851 C848 1.386 . S
C852 C847 1.490 . S
C852 C854 1.395 . S
C852 C855 1.403 . S
H853 C859 0.930 . S
C854 H840 0.930 . S
C854 C852 1.395 . S
C854 C857 1.403 . S
C855 C852 1.403 . S
C855 C856 1.524 . S
C855 C859 1.400 . S
C856 H841 0.960 . S
C856 H842 0.960 . S
C856 H843 0.960 . S
C856 C855 1.524 . S
C857 C854 1.403 . S
C857 C858 1.392 . S
C857 C861 1.495 . S
C858 C857 1.392 . S
C858 C859 1.385 . S
C858 C860 1.478 . S
C859 H853 0.930 . S
C859 C855 1.400 . S
C859 C858 1.385 . S
C860 C858 1.478 . S
C860 C862 1.381 . S
C860 C866 1.383 . S
C861 C857 1.495 . S
C861 H867 0.959 . S
C861 H868 0.961 . S
C861 H869 0.960 . S
C862 C860 1.381 . S
C862 C863 1.394 . S
C862 H870 0.930 . S
C863 C862 1.394 . S
C863 C864 1.383 . S
C863 H871 0.929 1_455 S
C864 C863 1.383 . S
C864 C865 1.377 . S
C865 H849 0.930 . S
C865 C864 1.377 . S
C865 C866 1.379 . S
C866 H850 0.931 . S
C866 C860 1.383 . S
C866 C865 1.379 . S
H867 C861 0.959 . S
H868 C861 0.961 . S
H869 C861 0.960 . S
H870 C862 0.930 . S
H871 C863 0.929 1_655 S
H872 C880 0.929 . S
H873 C882 0.930 . S
H874 C884 0.930 . S
H875 C887 0.929 1_545 S
H876 C890 0.930 . S
H877 C892 0.960 . S
H878 C892 0.960 . S
H879 C892 0.960 . S
C880 H872 0.929 . S
C880 C881 1.377 . S
C880 C882 1.384 . S
C881 C880 1.377 . S
C881 C887 1.390 . S
C882 H873 0.930 . S
C882 C880 1.384 . S
C882 C883 1.372 . S
C883 C882 1.372 . S
C883 C884 1.400 . S
C883 C888 1.490 . S
C884 H874 0.930 . S
C884 C883 1.400 . S
C884 C887 1.386 . S
H885 C901 0.930 . S
H886 C902 0.931 . S
C887 H875 0.929 1_565 S
C887 C881 1.390 . S
C887 C884 1.386 . S
C888 C883 1.490 . S
C888 C890 1.395 . S
C888 C891 1.403 . S
H889 C895 0.930 . S
C890 H876 0.930 . S
C890 C888 1.395 . S
C890 C893 1.403 . S
C891 C888 1.403 . S
C891 C892 1.524 . S
C891 C895 1.400 . S
C892 H877 0.960 . S
C892 H878 0.960 . S
C892 H879 0.960 . S
C892 C891 1.524 . S
C893 C890 1.403 . S
C893 C894 1.392 . S
C893 C897 1.495 . S
C894 C893 1.392 . S
C894 C895 1.385 . S
C894 C896 1.478 . S
C895 H889 0.930 . S
C895 C891 1.400 . S
C895 C894 1.385 . S
C896 C894 1.478 . S
C896 C898 1.381 . S
C896 C902 1.383 . S
C897 C893 1.495 . S
C897 H903 0.959 . S
C897 H904 0.961 . S
C897 H905 0.960 . S
C898 C896 1.381 . S
C898 C899 1.394 . S
C898 H906 0.930 . S
C899 C898 1.394 . S
C899 C900 1.383 . S
C899 H907 0.929 . S
C900 C899 1.383 . S
C900 C901 1.377 . S
C901 H885 0.930 . S
C901 C900 1.377 . S
C901 C902 1.379 . S
C902 H886 0.931 . S
C902 C896 1.383 . S
C902 C901 1.379 . S
H903 C897 0.959 . S
H904 C897 0.961 . S
H905 C897 0.960 . S
H906 C898 0.930 . S
H907 C899 0.929 . S
H908 C916 0.929 . S
H909 C918 0.930 . S
H910 C920 0.930 . S
H911 C923 0.929 . S
H912 C926 0.930 . S
H913 C928 0.960 . S
H914 C928 0.960 . S
H915 C928 0.960 . S
C916 H908 0.929 . S
C916 C917 1.377 . S
C916 C918 1.384 . S
C917 C916 1.377 . S
C917 C923 1.390 . S
C918 H909 0.930 . S
C918 C916 1.384 . S
C918 C919 1.372 . S
C919 C918 1.372 . S
C919 C920 1.400 . S
C919 C924 1.490 . S
C920 H910 0.930 . S
C920 C919 1.400 . S
C920 C923 1.386 . S
H921 C937 0.930 . S
H922 C938 0.931 . S
C923 H911 0.929 . S
C923 C917 1.390 . S
C923 C920 1.386 . S
C924 C919 1.490 . S
C924 C926 1.395 . S
C924 C927 1.403 . S
H925 C931 0.930 . S
C926 H912 0.930 . S
C926 C924 1.395 . S
C926 C929 1.403 . S
C927 C924 1.403 . S
C927 C928 1.524 . S
C927 C931 1.400 . S
C928 H913 0.960 . S
C928 H914 0.960 . S
C928 H915 0.960 . S
C928 C927 1.524 . S
C929 C926 1.403 . S
C929 C930 1.392 . S
C929 C933 1.495 . S
C930 C929 1.392 . S
C930 C931 1.385 . S
C930 C932 1.478 . S
C931 H925 0.930 . S
C931 C927 1.400 . S
C931 C930 1.385 . S
C932 C930 1.478 . S
C932 C934 1.381 . S
C932 C938 1.383 . S
C933 C929 1.495 . S
C933 H939 0.959 . S
C933 H940 0.961 . S
C933 H941 0.960 . S
C934 C932 1.381 . S
C934 C935 1.394 . S
C934 H942 0.930 . S
C935 C934 1.394 . S
C935 C936 1.383 . S
C935 H943 0.929 . S
C936 C935 1.383 . S
C936 C937 1.377 . S
C937 H921 0.930 . S
C937 C936 1.377 . S
C937 C938 1.379 . S
C938 H922 0.931 . S
C938 C932 1.383 . S
C938 C937 1.379 . S
H939 C933 0.959 . S
H940 C933 0.961 . S
H941 C933 0.960 . S
H942 C934 0.930 . S
H943 C935 0.929 . S
H944 C952 0.929 . S
H945 C954 0.930 . S
H946 C956 0.930 . S
H947 C959 0.929 . S
H948 C962 0.930 . S
H949 C964 0.960 . S
H950 C964 0.960 . S
H951 C964 0.960 . S
C952 H944 0.929 . S
C952 C953 1.377 . S
C952 C954 1.384 . S
C953 C952 1.377 . S
C953 C959 1.390 . S
C954 H945 0.930 . S
C954 C952 1.384 . S
C954 C955 1.372 . S
C955 C954 1.372 . S
C955 C956 1.400 . S
C955 C960 1.490 . S
C956 H946 0.930 . S
C956 C955 1.400 . S
C956 C959 1.386 . S
H957 C973 0.930 . S
H958 C974 0.931 . S
C959 H947 0.929 . S
C959 C953 1.390 . S
C959 C956 1.386 . S
C960 C955 1.490 . S
C960 C962 1.395 . S
C960 C963 1.403 . S
H961 C967 0.930 . S
C962 H948 0.930 . S
C962 C960 1.395 . S
C962 C965 1.403 . S
C963 C960 1.403 . S
C963 C964 1.524 . S
C963 C967 1.400 . S
C964 H949 0.960 . S
C964 H950 0.960 . S
C964 H951 0.960 . S
C964 C963 1.524 . S
C965 C962 1.403 . S
C965 C966 1.392 . S
C965 C969 1.495 . S
C966 C965 1.392 . S
C966 C967 1.385 . S
C966 C968 1.478 . S
C967 H961 0.930 . S
C967 C963 1.400 . S
C967 C966 1.385 . S
C968 C966 1.478 . S
C968 C970 1.381 . S
C968 C974 1.383 . S
C969 C965 1.495 . S
C969 H975 0.959 . S
C969 H976 0.961 . S
C969 H977 0.960 . S
C970 C968 1.381 . S
C970 C971 1.394 . S
C970 H978 0.930 . S
C971 C970 1.394 . S
C971 C972 1.383 . S
C971 H979 0.929 . S
C972 C971 1.383 . S
C972 C973 1.377 . S
C973 H957 0.930 . S
C973 C972 1.377 . S
C973 C974 1.379 . S
C974 H958 0.931 . S
C974 C968 1.383 . S
C974 C973 1.379 . S
H975 C969 0.959 . S
H976 C969 0.961 . S
H977 C969 0.960 . S
H978 C970 0.930 . S
H979 C971 0.929 . S
H980 C988 0.929 . S
H981 C990 0.930 . S
H982 C992 0.930 . S
H983 C995 0.929 . S
H984 C998 0.930 . S
H985 C1000 0.960 . S
H986 C1000 0.960 . S
H987 C1000 0.960 . S
C988 H980 0.929 . S
C988 C989 1.377 . S
C988 C990 1.384 . S
C989 C988 1.377 . S
C989 C995 1.390 . S
C990 H981 0.930 . S
C990 C988 1.384 . S
C990 C991 1.372 . S
C991 C990 1.372 . S
C991 C992 1.400 . S
C991 C996 1.490 . S
C992 H982 0.930 . S
C992 C991 1.400 . S
C992 C995 1.386 . S
H993 C1009 0.959 . S
H994 C1010 0.931 . S
C995 H983 0.929 . S
C995 C989 1.390 . S
C995 C992 1.386 . S
C996 C991 1.490 . S
C996 C998 1.395 . S
C996 C999 1.403 . S
H997 C1003 0.930 . S
C998 H984 0.930 . S
C998 C996 1.395 . S
C998 C1001 1.403 . S
C999 C996 1.403 . S
C999 C1000 1.524 . S
C999 C1003 1.400 . S
C1000 H985 0.960 . S
C1000 H986 0.960 . S
C1000 H987 0.960 . S
C1000 C999 1.524 . S
C1001 C998 1.403 . S
C1001 C1002 1.392 . S
C1001 C1005 1.495 . S
C1002 C1001 1.392 . S
C1002 C1003 1.385 . S
C1002 C1004 1.478 . S
C1003 H997 0.930 . S
C1003 C999 1.400 . S
C1003 C1002 1.385 . S
C1004 C1002 1.478 . S
C1004 C1006 1.381 . S
C1004 C1010 1.383 . S
C1005 C1001 1.495 . S
C1005 H1011 0.959 . S
C1005 H1012 0.961 . S
C1005 H1013 0.960 . S
C1006 C1004 1.381 . S
C1006 C1007 1.394 . S
C1006 H1014 0.930 . S
C1007 C1006 1.394 . S
C1007 C1008 1.383 . S
C1007 H1015 0.929 . S
C1008 C1007 1.383 . S
C1008 C1009 1.377 . S
C1009 H993 0.959 . S
C1009 C1008 1.377 . S
C1009 C1010 1.379 . S
C1010 H994 0.931 . S
C1010 C1004 1.383 . S
C1010 C1009 1.379 . S
H1011 C1005 0.959 . S
H1012 C1005 0.961 . S
H1013 C1005 0.960 . S
H1014 C1006 0.930 . S
H1015 C1007 0.929 . S
H1016 C1024 0.929 . S
H1017 C1026 0.930 . S
H1018 C1028 0.930 . S
H1019 C1031 0.929 . S
H1020 C1034 0.930 . S
H1021 C1036 0.960 . S
H1022 C1036 0.960 . S
H1023 C1036 0.960 . S
C1024 H1016 0.929 . S
C1024 C1025 1.377 . S
C1024 C1026 1.384 . S
C1025 C1024 1.377 . S
C1025 C1031 1.390 . S
C1026 H1017 0.930 . S
C1026 C1024 1.384 . S
C1026 C1027 1.372 . S
C1027 C1026 1.372 . S
C1027 C1028 1.400 . S
C1027 C1032 1.490 . S
C1028 H1018 0.930 . S
C1028 C1027 1.400 . S
C1028 C1031 1.386 . S
H1029 C1045 0.930 . S
H1030 C1046 0.931 . S
C1031 H1019 0.929 . S
C1031 C1025 1.390 . S
C1031 C1028 1.386 . S
C1032 C1027 1.490 . S
C1032 C1034 1.395 . S
C1032 C1035 1.403 . S
H1033 C1039 0.930 . S
C1034 H1020 0.930 . S
C1034 C1032 1.395 . S
C1034 C1037 1.403 . S
C1035 C1032 1.403 . S
C1035 C1036 1.524 . S
C1035 C1039 1.400 . S
C1036 H1021 0.960 . S
C1036 H1022 0.960 . S
C1036 H1023 0.960 . S
C1036 C1035 1.524 . S
C1037 C1034 1.403 . S
C1037 C1038 1.392 . S
C1037 C1041 1.495 . S
C1038 C1037 1.392 . S
C1038 C1039 1.385 . S
C1038 C1040 1.478 . S
C1039 H1033 0.930 . S
C1039 C1035 1.400 . S
C1039 C1038 1.385 . S
C1040 C1038 1.478 . S
C1040 C1042 1.381 . S
C1040 C1046 1.383 . S
C1041 C1037 1.495 . S
C1041 H1047 0.959 . S
C1041 H1048 0.961 . S
C1041 H1049 0.960 . S
C1042 C1040 1.381 . S
C1042 C1043 1.394 . S
C1042 H1050 0.930 . S
C1043 C1042 1.394 . S
C1043 C1044 1.383 . S
C1043 H1051 0.929 1_545 S
C1044 C1043 1.383 . S
C1044 C1045 1.377 . S
C1045 H1029 0.930 . S
C1045 C1044 1.377 . S
C1045 C1046 1.379 . S
C1046 H1030 0.931 . S
C1046 C1040 1.383 . S
C1046 C1045 1.379 . S
H1047 C1041 0.959 . S
H1048 C1041 0.961 . S
H1049 C1041 0.960 . S
H1050 C1042 0.930 . S
H1051 C1043 0.929 1_565 S
H1052 C1060 0.929 . S
H1053 C1062 0.930 . S
H1054 C1064 0.930 . S
H1055 C1067 0.929 . S
H1056 C1070 0.930 . S
H1057 C1072 0.960 . S
H1058 C1072 0.960 . S
H1059 C1072 0.960 . S
C1060 H1052 0.929 . S
C1060 C1061 1.377 . S
C1060 C1062 1.384 . S
C1061 C1060 1.377 . S
C1061 C1067 1.390 . S
C1062 H1053 0.930 . S
C1062 C1060 1.384 . S
C1062 C1063 1.372 . S
C1063 C1062 1.372 . S
C1063 C1064 1.400 . S
C1063 C1068 1.490 . S
C1064 H1054 0.930 . S
C1064 C1063 1.400 . S
C1064 C1067 1.386 . S
H1065 C1081 0.930 . S
H1066 C1082 0.931 . S
C1067 H1055 0.929 . S
C1067 C1061 1.390 . S
C1067 C1064 1.386 . S
C1068 C1063 1.490 . S
C1068 C1070 1.395 . S
C1068 C1071 1.403 . S
H1069 C1075 0.930 . S
C1070 H1056 0.930 . S
C1070 C1068 1.395 . S
C1070 C1073 1.403 . S
C1071 C1068 1.403 . S
C1071 C1072 1.524 . S
C1071 C1075 1.400 . S
C1072 H1057 0.960 . S
C1072 H1058 0.960 . S
C1072 H1059 0.960 . S
C1072 C1071 1.524 . S
C1073 C1070 1.403 . S
C1073 C1074 1.392 . S
C1073 C1077 1.495 . S
C1074 C1073 1.392 . S
C1074 C1075 1.385 . S
C1074 C1076 1.478 . S
C1075 H1069 0.930 . S
C1075 C1071 1.400 . S
C1075 C1074 1.385 . S
C1076 C1074 1.478 . S
C1076 C1078 1.381 . S
C1076 C1082 1.383 . S
C1077 C1073 1.495 . S
C1077 H1083 0.959 . S
C1077 H1084 0.961 . S
C1077 H1085 0.960 . S
C1078 C1076 1.381 . S
C1078 C1079 1.394 . S
C1078 H1086 0.930 . S
C1079 C1078 1.394 . S
C1079 C1080 1.383 . S
C1079 H1087 0.929 1_455 S
C1080 C1079 1.383 . S
C1080 C1081 1.377 . S
C1081 H1065 0.930 . S
C1081 C1080 1.377 . S
C1081 C1082 1.379 . S
C1082 H1066 0.931 . S
C1082 C1076 1.383 . S
C1082 C1081 1.379 . S
H1083 C1077 0.959 . S
H1084 C1077 0.961 . S
H1085 C1077 0.960 . S
H1086 C1078 0.930 . S
H1087 C1079 0.929 1_655 S
H1088 C1096 0.929 . S
H1089 C1098 0.930 . S
H1090 C1100 0.930 . S
H1091 C1103 0.929 . S
H1092 C1106 0.930 . S
H1093 C1108 0.960 . S
H1094 C1108 0.960 . S
H1095 C1108 0.960 . S
C1096 H1088 0.929 . S
C1096 C1097 1.377 . S
C1096 C1098 1.384 . S
C1097 C1096 1.377 . S
C1097 C1103 1.390 . S
C1098 H1089 0.930 . S
C1098 C1096 1.384 . S
C1098 C1099 1.372 . S
C1099 C1098 1.372 . S
C1099 C1100 1.400 . S
C1099 C1104 1.490 . S
C1100 H1090 0.930 . S
C1100 C1099 1.400 . S
C1100 C1103 1.386 . S
H1101 C1117 0.930 . S
H1102 C1118 0.931 . S
C1103 H1091 0.929 . S
C1103 C1097 1.390 . S
C1103 C1100 1.386 . S
C1104 C1099 1.490 . S
C1104 C1106 1.395 . S
C1104 C1107 1.403 . S
H1105 C1111 0.930 . S
C1106 H1092 0.930 . S
C1106 C1104 1.395 . S
C1106 C1109 1.403 . S
C1107 C1104 1.403 . S
C1107 C1108 1.524 . S
C1107 C1111 1.400 . S
C1108 H1093 0.960 . S
C1108 H1094 0.960 . S
C1108 H1095 0.960 . S
C1108 C1107 1.524 . S
C1109 C1106 1.403 . S
C1109 C1110 1.392 . S
C1109 C1113 1.495 . S
C1110 C1109 1.392 . S
C1110 C1111 1.385 . S
C1110 C1112 1.478 . S
C1111 H1105 0.930 . S
C1111 C1107 1.400 . S
C1111 C1110 1.385 . S
C1112 C1110 1.478 . S
C1112 C1114 1.381 . S
C1112 C1118 1.383 . S
C1113 C1109 1.495 . S
C1113 H1119 0.959 . S
C1113 H1120 0.961 . S
C1113 H1121 0.960 . S
C1114 C1112 1.381 . S
C1114 C1115 1.394 . S
C1114 H1122 0.930 . S
C1115 C1114 1.394 . S
C1115 C1116 1.383 . S
C1115 H1123 0.929 . S
C1116 C1115 1.383 . S
C1116 C1117 1.377 . S
C1117 H1101 0.930 . S
C1117 C1116 1.377 . S
C1117 C1118 1.379 . S
C1118 H1102 0.931 . S
C1118 C1112 1.383 . S
C1118 C1117 1.379 . S
H1119 C1113 0.959 . S
H1120 C1113 0.961 . S
H1121 C1113 0.960 . S
H1122 C1114 0.930 . S
H1123 C1115 0.929 . S
H1124 C1132 0.929 . S
H1125 C1134 0.930 . S
H1126 C1136 0.930 . S
H1127 C1139 0.929 . S
H1128 C1142 0.930 . S
H1129 C1144 0.960 . S
H1130 C1144 0.960 . S
H1131 C1144 0.960 . S
C1132 H1124 0.929 . S
C1132 C1133 1.377 . S
C1132 C1134 1.384 . S
C1133 C1132 1.377 . S
C1133 C1139 1.390 . S
C1134 H1125 0.930 . S
C1134 C1132 1.384 . S
C1134 C1135 1.372 . S
C1135 C1134 1.372 . S
C1135 C1136 1.400 . S
C1135 C1140 1.490 . S
C1136 H1126 0.930 . S
C1136 C1135 1.400 . S
C1136 C1139 1.386 . S
H1137 C1153 0.930 . S
H1138 C1154 0.931 . S
C1139 H1127 0.929 . S
C1139 C1133 1.390 . S
C1139 C1136 1.386 . S
C1140 C1135 1.490 . S
C1140 C1142 1.395 . S
C1140 C1143 1.403 . S
H1141 C1147 0.930 . S
C1142 H1128 0.930 . S
C1142 C1140 1.395 . S
C1142 C1145 1.403 . S
C1143 C1140 1.403 . S
C1143 C1144 1.524 . S
C1143 C1147 1.400 . S
C1144 H1129 0.960 . S
C1144 H1130 0.960 . S
C1144 H1131 0.960 . S
C1144 C1143 1.524 . S
C1145 C1142 1.403 . S
C1145 C1146 1.392 . S
C1145 C1149 1.495 . S
C1146 C1145 1.392 . S
C1146 C1147 1.385 . S
C1146 C1148 1.478 . S
C1147 H1141 0.930 . S
C1147 C1143 1.400 . S
C1147 C1146 1.385 . S
C1148 C1146 1.478 . S
C1148 C1150 1.381 . S
C1148 C1154 1.383 . S
C1149 C1145 1.495 . S
C1149 H1155 0.959 . S
C1149 H1156 0.961 . S
C1149 H1157 0.960 . S
C1150 C1148 1.381 . S
C1150 C1151 1.394 . S
C1150 H1158 0.930 . S
C1151 C1150 1.394 . S
C1151 C1152 1.383 . S
C1151 H1159 0.929 . S
C1152 C1151 1.383 . S
C1152 C1153 1.377 . S
C1153 H1137 0.930 . S
C1153 C1152 1.377 . S
C1153 C1154 1.379 . S
C1154 H1138 0.931 . S
C1154 C1148 1.383 . S
C1154 C1153 1.379 . S
H1155 C1149 0.959 . S
H1156 C1149 0.961 . S
H1157 C1149 0.960 . S
H1158 C1150 0.930 . S
H1159 C1151 0.929 . S
H1160 C1168 0.929 . S
H1161 C1170 0.930 . S
H1162 C1172 0.930 . S
H1163 C1175 0.929 . S
H1164 C1178 0.930 . S
H1165 C1180 0.960 . S
H1166 C1180 0.960 . S
H1167 C1180 0.960 . S
C1168 H1160 0.929 . S
C1168 C1169 1.377 . S
C1168 C1170 1.384 . S
C1169 C1168 1.377 . S
C1169 C1175 1.390 . S
C1170 H1161 0.930 . S
C1170 C1168 1.384 . S
C1170 C1171 1.372 . S
C1171 C1170 1.372 . S
C1171 C1172 1.400 . S
C1171 C1176 1.490 . S
C1172 H1162 0.930 . S
C1172 C1171 1.400 . S
C1172 C1175 1.386 . S
H1173 C1189 0.930 . S
H1174 C1190 0.931 . S
C1175 H1163 0.929 . S
C1175 C1169 1.390 . S
C1175 C1172 1.386 . S
C1176 C1171 1.490 . S
C1176 C1178 1.395 . S
C1176 C1179 1.403 . S
H1177 C1183 0.930 . S
C1178 H1164 0.930 . S
C1178 C1176 1.395 . S
C1178 C1181 1.403 . S
C1179 C1176 1.403 . S
C1179 C1180 1.524 . S
C1179 C1183 1.400 . S
C1180 H1165 0.960 . S
C1180 H1166 0.960 . S
C1180 H1167 0.960 . S
C1180 C1179 1.524 . S
C1181 C1178 1.403 . S
C1181 C1182 1.392 . S
C1181 C1185 1.495 . S
C1182 C1181 1.392 . S
C1182 C1183 1.385 . S
C1182 C1184 1.478 . S
C1183 H1177 0.930 . S
C1183 C1179 1.400 . S
C1183 C1182 1.385 . S
C1184 C1182 1.478 . S
C1184 C1186 1.381 . S
C1184 C1190 1.383 . S
C1185 C1181 1.495 . S
C1185 H1191 0.959 . S
C1185 H1192 0.961 . S
C1185 H1193 0.960 . S
C1186 C1184 1.381 . S
C1186 C1187 1.394 . S
C1186 H1194 0.930 . S
C1187 C1186 1.394 . S
C1187 C1188 1.383 . S
C1187 H1195 0.929 . S
C1188 C1187 1.383 . S
C1188 C1189 1.377 . S
C1189 H1173 0.930 . S
C1189 C1188 1.377 . S
C1189 C1190 1.379 . S
C1190 H1174 0.931 . S
C1190 C1184 1.383 . S
C1190 C1189 1.379 . S
H1191 C1185 0.959 . S
H1192 C1185 0.961 . S
H1193 C1185 0.960 . S
H1194 C1186 0.930 . S
H1195 C1187 0.929 . S
H1196 C1204 0.929 . S
H1197 C1206 0.930 . S
H1198 C1208 0.930 . S
H1199 C1211 0.929 . S
H1200 C1214 0.930 . S
H1201 C1216 0.960 . S
H1202 C1216 0.960 . S
H1203 C1216 0.960 . S
C1204 H1196 0.929 . S
C1204 C1205 1.377 . S
C1204 C1206 1.384 . S
C1205 C1204 1.377 . S
C1205 C1211 1.390 . S
C1206 H1197 0.930 . S
C1206 C1204 1.384 . S
C1206 C1207 1.372 . S
C1207 C1206 1.372 . S
C1207 C1208 1.400 . S
C1207 C1212 1.490 . S
C1208 H1198 0.930 . S
C1208 C1207 1.400 . S
C1208 C1211 1.386 . S
H1209 C1225 0.930 . S
H1210 C1226 0.931 . S
C1211 H1199 0.929 . S
C1211 C1205 1.390 . S
C1211 C1208 1.386 . S
C1212 C1207 1.490 . S
C1212 C1214 1.395 . S
C1212 C1215 1.403 . S
H1213 C1219 0.930 . S
C1214 H1200 0.930 . S
C1214 C1212 1.395 . S
C1214 C1217 1.403 . S
C1215 C1212 1.403 . S
C1215 C1216 1.524 . S
C1215 C1219 1.400 . S
C1216 H1201 0.960 . S
C1216 H1202 0.960 . S
C1216 H1203 0.960 . S
C1216 C1215 1.524 . S
C1217 C1214 1.403 . S
C1217 C1218 1.392 . S
C1217 C1221 1.495 . S
C1218 C1217 1.392 . S
C1218 C1219 1.385 . S
C1218 C1220 1.478 . S
C1219 H1213 0.930 . S
C1219 C1215 1.400 . S
C1219 C1218 1.385 . S
C1220 C1218 1.478 . S
C1220 C1222 1.381 . S
C1220 C1226 1.383 . S
C1221 C1217 1.495 . S
C1221 H1227 0.959 . S
C1221 H1228 0.961 . S
C1221 H1229 0.960 . S
C1222 C1220 1.381 . S
C1222 C1223 1.394 . S
C1222 H1230 0.930 . S
C1223 C1222 1.394 . S
C1223 C1224 1.383 . S
C1223 H1231 0.929 . S
C1224 C1223 1.383 . S
C1224 C1225 1.377 . S
C1225 H1209 0.930 . S
C1225 C1224 1.377 . S
C1225 C1226 1.379 . S
C1226 H1210 0.931 . S
C1226 C1220 1.383 . S
C1226 C1225 1.379 . S
H1227 C1221 0.959 . S
H1228 C1221 0.961 . S
H1229 C1221 0.960 . S
H1230 C1222 0.930 . S
H1231 C1223 0.929 . S
H1232 C1240 0.929 . S
H1233 C1242 0.930 1_565 S
H1234 C1244 0.930 . S
H1235 C1247 0.929 . S
H1236 C1250 0.930 . S
H1237 C1252 0.960 1_556 S
H1238 C1252 0.960 . S
H1239 C1252 0.960 . S
C1240 H1232 0.929 . S
C1240 C1241 1.377 . S
C1240 C1242 1.384 . S
C1241 C1240 1.377 . S
C1241 C1247 1.390 . S
C1242 H1233 0.930 1_545 S
C1242 C1240 1.384 . S
C1242 C1243 1.372 . S
C1243 C1242 1.372 . S
C1243 C1244 1.400 . S
C1243 C1248 1.490 . S
C1244 H1234 0.930 . S
C1244 C1243 1.400 . S
C1244 C1247 1.386 . S
H1245 C1261 0.930 . S
H1246 C1262 0.931 1_545 S
C1247 H1235 0.929 . S
C1247 C1241 1.390 . S
C1247 C1244 1.386 . S
C1248 C1243 1.490 . S
C1248 C1250 1.395 1_545 S
C1248 C1251 1.403 . S
H1249 C1255 0.930 . S
C1250 H1236 0.930 . S
C1250 C1248 1.395 1_565 S
C1250 C1253 1.403 1_554 S
C1251 C1248 1.403 . S
C1251 C1252 1.524 . S
C1251 C1255 1.400 1_554 S
C1252 H1237 0.960 1_554 S
C1252 H1238 0.960 . S
C1252 H1239 0.960 . S
C1252 C1251 1.524 . S
C1253 C1250 1.403 1_556 S
C1253 C1254 1.392 . S
C1253 C1257 1.495 . S
C1254 C1253 1.392 . S
C1254 C1255 1.385 1_565 S
C1254 C1256 1.478 . S
C1255 H1249 0.930 . S
C1255 C1251 1.400 1_556 S
C1255 C1254 1.385 1_545 S
C1256 C1254 1.478 . S
C1256 C1258 1.381 . S
C1256 C1262 1.383 . S
C1257 C1253 1.495 . S
C1257 H1263 0.959 1_556 S
C1257 H1264 0.961 . S
C1257 H1265 0.960 . S
C1258 C1256 1.381 . S
C1258 C1259 1.394 . S
C1258 H1266 0.930 . S
C1259 C1258 1.394 . S
C1259 C1260 1.383 . S
C1259 H1267 0.929 . S
C1260 C1259 1.383 . S
C1260 C1261 1.377 . S
C1261 H1245 0.930 . S
C1261 C1260 1.377 . S
C1261 C1262 1.379 . S
C1262 H1246 0.931 1_565 S
C1262 C1256 1.383 . S
C1262 C1261 1.379 . S
H1263 C1257 0.959 1_554 S
H1264 C1257 0.961 . S
H1265 C1257 0.960 . S
H1266 C1258 0.930 . S
H1267 C1259 0.929 . S
H1268 C1276 0.929 . S
H1269 C1278 0.930 . S
H1270 C1280 0.930 1_655 S
H1271 C1283 0.929 . S
H1272 C1286 0.930 . S
H1273 C1288 0.960 . S
H1274 C1288 0.960 . S
H1275 C1288 0.960 . S
C1276 H1268 0.929 . S
C1276 C1277 1.377 . S
C1276 C1278 1.384 . S
C1277 C1276 1.377 . S
C1277 C1283 1.390 . S
C1278 H1269 0.930 . S
C1278 C1276 1.384 . S
C1278 C1279 1.372 . S
C1279 C1278 1.372 . S
C1279 C1280 1.400 . S
C1279 C1284 1.490 . S
C1280 H1270 0.930 1_455 S
C1280 C1279 1.400 . S
C1280 C1283 1.386 . S
H1281 C1297 0.930 . S
H1282 C1298 0.931 . S
C1283 H1271 0.929 . S
C1283 C1277 1.390 . S
C1283 C1280 1.386 . S
C1284 C1279 1.490 . S
C1284 C1286 1.395 . S
C1284 C1287 1.403 1_455 S
H1285 C1291 0.930 . S
C1286 H1272 0.930 . S
C1286 C1284 1.395 . S
C1286 C1289 1.403 1_556 S
C1287 C1284 1.403 1_655 S
C1287 C1288 1.524 . S
C1287 C1291 1.400 1_556 S
C1288 H1273 0.960 . S
C1288 H1274 0.960 . S
C1288 H1275 0.960 . S
C1288 C1287 1.524 . S
C1289 C1286 1.403 1_554 S
C1289 C1290 1.392 1_455 S
C1289 C1293 1.495 . S
C1290 C1289 1.392 1_655 S
C1290 C1291 1.385 . S
C1290 C1292 1.478 . S
C1291 H1285 0.930 . S
C1291 C1287 1.400 1_554 S
C1291 C1290 1.385 . S
C1292 C1290 1.478 . S
C1292 C1294 1.381 . S
C1292 C1298 1.383 . S
C1293 C1289 1.495 . S
C1293 H1299 0.959 . S
C1293 H1300 0.961 . S
C1293 H1301 0.960 . S
C1294 C1292 1.381 . S
C1294 C1295 1.394 . S
C1294 H1302 0.930 1_655 S
C1295 C1294 1.394 . S
C1295 C1296 1.383 . S
C1295 H1303 0.929 . S
C1296 C1295 1.383 . S
C1296 C1297 1.377 . S
C1297 H1281 0.930 . S
C1297 C1296 1.377 . S
C1297 C1298 1.379 . S
C1298 H1282 0.931 . S
C1298 C1292 1.383 . S
C1298 C1297 1.379 . S
H1299 C1293 0.959 . S
H1300 C1293 0.961 . S
H1301 C1293 0.960 . S
H1302 C1294 0.930 1_455 S
H1303 C1295 0.929 . S
H1304 C1312 0.929 . S
H1305 C1314 0.930 . S
H1306 C1316 0.930 1_565 S
H1307 C1319 0.929 . S
H1308 C1322 0.930 . S
H1309 C1324 0.960 . S
H1310 C1324 0.960 . S
H1311 C1324 0.960 . S
C1312 H1304 0.929 . S
C1312 C1313 1.377 . S
C1312 C1314 1.384 . S
C1313 C1312 1.377 . S
C1313 C1319 1.390 . S
C1314 H1305 0.930 . S
C1314 C1312 1.384 . S
C1314 C1315 1.372 . S
C1315 C1314 1.372 . S
C1315 C1316 1.400 . S
C1315 C1320 1.490 . S
C1316 H1306 0.930 1_545 S
C1316 C1315 1.400 . S
C1316 C1319 1.386 . S
H1317 C1333 0.930 . S
H1318 C1334 0.931 . S
C1319 H1307 0.929 . S
C1319 C1313 1.390 . S
C1319 C1316 1.386 . S
C1320 C1315 1.490 . S
C1320 C1322 1.395 . S
C1320 C1323 1.403 1_545 S
H1321 C1327 0.930 . S
C1322 H1308 0.930 . S
C1322 C1320 1.395 . S
C1322 C1325 1.403 1_556 S
C1323 C1320 1.403 1_565 S
C1323 C1324 1.524 . S
C1323 C1327 1.400 1_556 S
C1324 H1309 0.960 . S
C1324 H1310 0.960 . S
C1324 H1311 0.960 . S
C1324 C1323 1.524 . S
C1325 C1322 1.403 1_554 S
C1325 C1326 1.392 1_545 S
C1325 C1329 1.495 . S
C1326 C1325 1.392 1_565 S
C1326 C1327 1.385 . S
C1326 C1328 1.478 . S
C1327 H1321 0.930 . S
C1327 C1323 1.400 1_554 S
C1327 C1326 1.385 . S
C1328 C1326 1.478 . S
C1328 C1330 1.381 . S
C1328 C1334 1.383 . S
C1329 C1325 1.495 . S
C1329 H1335 0.959 . S
C1329 H1336 0.961 . S
C1329 H1337 0.960 . S
C1330 C1328 1.381 . S
C1330 C1331 1.394 . S
C1330 H1338 0.930 1_565 S
C1331 C1330 1.394 . S
C1331 C1332 1.383 . S
C1331 H1339 0.929 . S
C1332 C1331 1.383 . S
C1332 C1333 1.377 . S
C1333 H1317 0.930 . S
C1333 C1332 1.377 . S
C1333 C1334 1.379 . S
C1334 H1318 0.931 . S
C1334 C1328 1.383 . S
C1334 C1333 1.379 . S
H1335 C1329 0.959 . S
H1336 C1329 0.961 . S
H1337 C1329 0.960 . S
H1338 C1330 0.930 1_545 S
H1339 C1331 0.929 . S
H1340 C1348 0.929 . S
H1341 C1350 0.930 . S
H1342 C1352 0.930 . S
H1343 C1355 0.929 1_455 S
H1344 C1358 0.930 . S
H1345 C1360 0.960 . S
H1346 C1360 0.960 . S
H1347 C1360 0.960 . S
C1348 H1340 0.929 . S
C1348 C1349 1.377 . S
C1348 C1350 1.384 . S
C1349 C1348 1.377 . S
C1349 C1355 1.390 . S
C1350 H1341 0.930 . S
C1350 C1348 1.384 . S
C1350 C1351 1.372 . S
C1351 C1350 1.372 . S
C1351 C1352 1.400 1_655 S
C1351 C1356 1.490 . S
C1352 H1342 0.930 . S
C1352 C1351 1.400 1_455 S
C1352 C1355 1.386 1_455 S
H1353 C1369 0.930 . S
H1354 C1370 0.931 . S
C1355 H1343 0.929 1_655 S
C1355 C1349 1.390 . S
C1355 C1352 1.386 1_655 S
C1356 C1351 1.490 . S
C1356 C1358 1.395 . S
C1356 C1359 1.403 1_655 S
H1357 C1363 0.930 . S
C1358 H1344 0.930 . S
C1358 C1356 1.395 . S
C1358 C1361 1.403 1_556 S
C1359 C1356 1.403 1_455 S
C1359 C1360 1.524 . S
C1359 C1363 1.400 1_556 S
C1360 H1345 0.960 . S
C1360 H1346 0.960 . S
C1360 H1347 0.960 . S
C1360 C1359 1.524 . S
C1361 C1358 1.403 1_554 S
C1361 C1362 1.392 1_655 S
C1361 C1365 1.495 . S
C1362 C1361 1.392 1_455 S
C1362 C1363 1.385 . S
C1362 C1364 1.478 . S
C1363 H1357 0.930 . S
C1363 C1359 1.400 1_554 S
C1363 C1362 1.385 . S
C1364 C1362 1.478 . S
C1364 C1366 1.381 1_455 S
C1364 C1370 1.383 . S
C1365 C1361 1.495 . S
C1365 H1371 0.959 . S
C1365 H1372 0.961 . S
C1365 H1373 0.960 . S
C1366 C1364 1.381 1_655 S
C1366 C1367 1.394 1_655 S
C1366 H1374 0.930 . S
C1367 C1366 1.394 1_455 S
C1367 C1368 1.383 . S
C1367 H1375 0.929 1_455 S
C1368 C1367 1.383 . S
C1368 C1369 1.377 . S
C1369 H1353 0.930 . S
C1369 C1368 1.377 . S
C1369 C1370 1.379 . S
C1370 H1354 0.931 . S
C1370 C1364 1.383 . S
C1370 C1369 1.379 . S
H1371 C1365 0.959 . S
H1372 C1365 0.961 . S
H1373 C1365 0.960 . S
H1374 C1366 0.930 . S
H1375 C1367 0.929 1_655 S
C233 C8 1.172 . S
C252 C106 1.177 . S
C269 C22 1.173 . S
C288 C64 1.182 . S
C305 C78 1.174 . S
C324 C36 1.182 . S
C341 C50 1.173 . S
C360 C92 1.182 . S
C377 C120 1.176 . S
C396 C218 1.163 . S
C413 C176 1.175 . S
C432 C134 1.162 . S
C449 C190 1.174 . S
C468 C148 1.166 . S
C485 C204 1.175 . S
C504 C162 1.178 . S
C521 C9 1.316 . S
C540 C157 1.364 . S
C557 C23 1.312 . S
C576 C115 1.362 . S
C593 C129 1.365 . S
C612 C37 1.337 . S
C629 C51 1.308 . S
C648 C143 1.362 . S
C665 C65 1.305 . S
C684 C185 1.359 . S
C701 C199 1.365 . S
C720 C79 1.317 . S
C737 C93 1.310 . S
C756 C213 1.365 . S
C773 C171 1.365 . S
C792 C107 1.333 . S
C809 C121 1.313 1_545 S
C828 C45 1.360 . S
C845 C3 1.365 . S
C864 C135 1.287 1_455 S
C881 C149 1.304 1_565 S
C900 C17 1.363 . S
C917 C31 1.365 . S
C936 C163 1.326 1_655 S
C953 C177 1.303 1_565 S
C972 C73 1.361 . S
C989 C87 1.365 . S
C1008 C191 1.318 1_655 S
C1025 C101 1.364 . S
C1044 C205 1.308 1_545 S
C1061 C59 1.366 . S
C1080 C219 1.278 1_455 S
C1097 C63 1.623 . S
C1116 C7 1.624 . S
C1133 C77 1.615 . S
C1152 C21 1.637 . S
C1169 C35 1.616 . S
C1188 C91 1.605 . S
C1205 C105 1.616 . S
C1224 C49 1.637 . S
C1241 C175 1.624 . S
C1260 C119 1.612 . S
C1277 C189 1.623 . S
C1296 C133 1.607 . S
C1313 C147 1.615 . S
C1332 C203 1.619 . S
C1349 C217 1.623 . S
C1368 C161 1.595 . S
