# Generated by pormake.
# Topology uov, (4)-cn, num edge types: 1
# Building blocks:
#     Node 0, Type 0, BuildingBlock: KUFVIS_clean_sbu_0, # of connection points: 4
#     Node 1, Type 0, BuildingBlock: KUFVIS_clean_sbu_0, # of connection points: 4
#     Node 2, Type 0, BuildingBlock: KUFVIS_clean_sbu_0, # of connection points: 4
#     Node 3, Type 0, BuildingBlock: KUFVIS_clean_sbu_0, # of connection points: 4
#     Node 4, Type 0, BuildingBlock: KUFVIS_clean_sbu_0, # of connection points: 4
#     Node 5, Type 0, BuildingBlock: KUFVIS_clean_sbu_0, # of connection points: 4
#     Node 6, Type 0, BuildingBlock: KUFVIS_clean_sbu_0, # of connection points: 4
#     Node 7, Type 0, BuildingBlock: KUFVIS_clean_sbu_0, # of connection points: 4
#     Edge 8, Type (0, 0), BuildingBlock: MIFKUJ_clean_linker_0, # of connection points: 2
#     Edge 9, Type (0, 0), BuildingBlock: MIFKUJ_clean_linker_0, # of connection points: 2
#     Edge 10, Type (0, 0), BuildingBlock: MIFKUJ_clean_linker_0, # of connection points: 2
#     Edge 11, Type (0, 0), BuildingBlock: MIFKUJ_clean_linker_0, # of connection points: 2
#     Edge 12, Type (0, 0), BuildingBlock: MIFKUJ_clean_linker_0, # of connection points: 2
#     Edge 13, Type (0, 0), BuildingBlock: MIFKUJ_clean_linker_0, # of connection points: 2
#     Edge 14, Type (0, 0), BuildingBlock: MIFKUJ_clean_linker_0, # of connection points: 2
#     Edge 15, Type (0, 0), BuildingBlock: MIFKUJ_clean_linker_0, # of connection points: 2
#     Edge 16, Type (0, 0), BuildingBlock: MIFKUJ_clean_linker_0, # of connection points: 2
#     Edge 17, Type (0, 0), BuildingBlock: MIFKUJ_clean_linker_0, # of connection points: 2
#     Edge 18, Type (0, 0), BuildingBlock: MIFKUJ_clean_linker_0, # of connection points: 2
#     Edge 19, Type (0, 0), BuildingBlock: MIFKUJ_clean_linker_0, # of connection points: 2
#     Edge 20, Type (0, 0), BuildingBlock: MIFKUJ_clean_linker_0, # of connection points: 2
#     Edge 21, Type (0, 0), BuildingBlock: MIFKUJ_clean_linker_0, # of connection points: 2
#     Edge 22, Type (0, 0), BuildingBlock: MIFKUJ_clean_linker_0, # of connection points: 2
#     Edge 23, Type (0, 0), BuildingBlock: MIFKUJ_clean_linker_0, # of connection points: 2
# Relax obj value: 0.168
# Max RMSD: 0.184
# Mean RMSD: 0.180
data_MOF--net-uov--node1-KUFVIS_clean_sbu_0--edge1-MIFKUJ_clean_linker_0
_symmetry_space_group_name_H-M    P1
_symmetry_Int_Tables_number       1
_symmetry_cell_setting            triclinic
loop_
_symmetry_equiv_pos_as_xyz
'x, y, z'
_cell_length_a     37.835746
_cell_length_b     38.911313
_cell_length_c     55.244807
_cell_angle_alpha  90.015655
_cell_angle_beta   89.99605
_cell_angle_gamma 91.435971
loop_
_atom_site_label
_atom_site_type_symbol
_atom_site_fract_x
_atom_site_fract_y
_atom_site_fract_z
_atom_type_partial_charge
Mn0 Mn 0.08332 0.26855 0.58866 0.0
Mn1 Mn 0.00969 0.26156 0.62291 0.0
C2 C 0.02999 0.25606 0.57041 0.0
C3 C 0.13237 0.24162 0.57293 0.0
C4 C 0.04435 0.32974 0.60848 0.0
O5 O 0.10234 0.26583 0.62293 0.0
O6 O 0.052 0.25395 0.64332 0.0
C7 C 0.01248 0.18747 0.6346 0.0
N8 N 0.99477 0.2144 0.62516 0.0
C9 C 0.94476 0.17778 0.61501 0.0
C10 C 0.96234 0.14969 0.62481 0.0
C11 C 0.99638 0.15456 0.63459 0.0
C12 C 0.96208 0.20999 0.6156 0.0
H13 H 0.03872 0.19108 0.64201 0.0
C14 C 0.08569 0.25777 0.64226 0.0
O15 O 0.13201 0.27493 0.57482 0.0
O16 O 0.10494 0.2244 0.58068 0.0
N17 N 0.96654 0.26804 0.60556 0.0
C18 C 0.95373 0.29751 0.59598 0.0
C19 C 0.92024 0.29684 0.58498 0.0
C20 C 0.90004 0.26609 0.58431 0.0
C21 C 0.91351 0.23624 0.59464 0.0
C22 C 0.94697 0.23848 0.60546 0.0
H23 H 0.96903 0.32129 0.59652 0.0
O24 O 0.05664 0.26722 0.55767 0.0
O25 O 0.03574 0.25114 0.59334 0.0
O26 O 0.06807 0.31802 0.59446 0.0
O27 O 0.02284 0.31084 0.62079 0.0
C28 C 0.89533 0.2042 0.5942 0.0
C29 C 0.91099 0.17497 0.60431 0.0
H30 H 0.95008 0.12424 0.62473 0.0
H31 H 0.0102 0.13297 0.64205 0.0
H32 H 0.9101 0.3199 0.57689 0.0
H33 H 0.87433 0.26565 0.57568 0.0
H34 H 0.86952 0.20165 0.58581 0.0
H35 H 0.89696 0.15038 0.60358 0.0
Mn36 Mn 0.24782 0.92486 0.40101 0.0
Mn37 Mn 0.28689 0.84812 0.39618 0.0
C38 C 0.22176 0.87699 0.41826 0.0
C39 C 0.24291 0.97695 0.42133 0.0
C40 C 0.24502 0.88021 0.35559 0.0
O41 O 0.29725 0.93745 0.38985 0.0
O42 O 0.32252 0.88566 0.39003 0.0
C43 C 0.33409 0.85408 0.43878 0.0
N44 N 0.30767 0.83704 0.42664 0.0
C45 C 0.30163 0.79501 0.45842 0.0
C46 C 0.32896 0.81196 0.47117 0.0
C47 C 0.34523 0.84163 0.46131 0.0
C48 C 0.29184 0.80845 0.43596 0.0
H49 H 0.34645 0.87707 0.43137 0.0
C50 C 0.32384 0.91837 0.38722 0.0
O51 O 0.23371 0.97391 0.39875 0.0
O52 O 0.25539 0.95003 0.43179 0.0
N53 N 0.25558 0.80958 0.40196 0.0
C54 C 0.22892 0.79685 0.3877 0.0
C55 C 0.20954 0.76748 0.39518 0.0
C56 C 0.21786 0.75144 0.41716 0.0
C57 C 0.24576 0.76468 0.43133 0.0
C58 C 0.26444 0.79375 0.4228 0.0
H59 H 0.22228 0.80917 0.37085 0.0
O60 O 0.20331 0.90402 0.41406 0.0
O61 O 0.2552 0.87924 0.41292 0.0
O62 O 0.23548 0.90677 0.36724 0.0
O63 O 0.2651 0.85737 0.36438 0.0
C64 C 0.25539 0.75052 0.45378 0.0
C65 C 0.28328 0.76569 0.46733 0.0
H66 H 0.33746 0.80259 0.48864 0.0
H67 H 0.3662 0.85497 0.47111 0.0
H68 H 0.18808 0.75738 0.38412 0.0
H69 H 0.20257 0.72904 0.42301 0.0
H70 H 0.24128 0.72816 0.46092 0.0
H71 H 0.2902 0.75477 0.48468 0.0
Mn72 Mn 0.92611 0.74538 0.59914 0.0
Mn73 Mn 0.99463 0.74355 0.63826 0.0
C74 C 0.98315 0.74487 0.58466 0.0
C75 C 0.88526 0.77748 0.57782 0.0
C76 C 0.95134 0.68019 0.62389 0.0
O77 O 0.90329 0.75715 0.63116 0.0
O78 O 0.95111 0.75761 0.65529 0.0
C79 C -2e-05 0.81829 0.64816 0.0
N80 N 0.01523 0.78876 0.64072 0.0
C81 C 0.07106 0.81826 0.63421 0.0
C82 C 0.05603 0.84895 0.64197 0.0
C83 C 0.02031 0.84896 0.64891 0.0
C84 C 0.0495 0.78849 0.63386 0.0
H85 H 0.9725 0.81845 0.65344 0.0
C86 C 0.91806 0.76162 0.65167 0.0
O87 O 0.87918 0.74511 0.58245 0.0
O88 O 0.91456 0.79102 0.58594 0.0
N89 N 0.03889 0.73076 0.62465 0.0
C90 C 0.04916 0.69919 0.61707 0.0
C91 C 0.08422 0.69479 0.60963 0.0
C92 C 0.10831 0.72278 0.61011 0.0
C93 C 0.09722 0.75496 0.61801 0.0
C94 C 0.06214 0.75769 0.62564 0.0
H95 H 0.0308 0.67751 0.61677 0.0
O96 O 0.95671 0.73651 0.57075 0.0
O97 O 0.97538 0.755 0.60645 0.0
O98 O 0.93016 0.69504 0.60948 0.0
O99 O 0.97549 0.69616 0.63593 0.0
C100 C 0.11958 0.78446 0.61853 0.0
C101 C 0.10645 0.81613 0.62652 0.0
H102 H 0.0716 0.87268 0.64252 0.0
H103 H 0.00847 0.87257 0.65481 0.0
H104 H 0.09281 0.66985 0.60378 0.0
H105 H 0.13537 0.71921 0.60467 0.0
H106 H 0.14681 0.78313 0.61261 0.0
H107 H 0.12378 0.83872 0.6266 0.0
Mn108 Mn 0.73635 0.0744 0.40324 0.0
Mn109 Mn 0.69575 0.15056 0.40008 0.0
C110 C 0.75983 0.1211 0.42358 0.0
C111 C 0.7403 0.02053 0.42117 0.0
C112 C 0.74443 0.1249 0.36085 0.0
O113 O 0.68891 0.06141 0.3888 0.0
O114 O 0.66347 0.1129 0.38872 0.0
C115 C 0.64216 0.13587 0.43799 0.0
N116 N 0.6694 0.15585 0.42929 0.0
C117 C 0.66581 0.19439 0.46317 0.0
C118 C 0.63765 0.17433 0.47246 0.0
C119 C 0.62587 0.14486 0.45985 0.0
C120 C 0.6813 0.18392 0.44146 0.0
H121 H 0.6329 0.11325 0.42833 0.0
C122 C 0.66284 0.08052 0.38468 0.0
O123 O 0.75258 0.02621 0.39953 0.0
O124 O 0.72557 0.0459 0.43213 0.0
N125 N 0.72298 0.18981 0.41063 0.0
C126 C 0.74938 0.20719 0.39868 0.0
C127 C 0.76393 0.23749 0.40877 0.0
C128 C 0.75053 0.2501 0.43065 0.0
C129 C 0.72262 0.23233 0.44224 0.0
C130 C 0.70938 0.20214 0.43144 0.0
H131 H 0.7594 0.19789 0.38165 0.0
O132 O 0.77873 0.09442 0.41939 0.0
O133 O 0.72679 0.119 0.41697 0.0
O134 O 0.75193 0.09646 0.37106 0.0
O135 O 0.72342 0.14669 0.36998 0.0
C136 C 0.70695 0.24372 0.46384 0.0
C137 C 0.67886 0.22458 0.47446 0.0
H138 H 0.62485 0.18133 0.48923 0.0
H139 H 0.60419 0.12919 0.46692 0.0
H140 H 0.78522 0.25125 0.39959 0.0
H141 H 0.76156 0.27369 0.43817 0.0
H142 H 0.71589 0.2674 0.47228 0.0
H143 H 0.66718 0.23357 0.49113 0.0
Mn144 Mn 0.96778 0.24639 0.10556 0.0
Mn145 Mn 0.03431 0.25282 0.14611 0.0
C146 C 0.02519 0.24457 0.09221 0.0
C147 C 0.92564 0.21254 0.08566 0.0
C148 C 0.99384 0.31392 0.12795 0.0
O149 O 0.94316 0.23874 0.13766 0.0
O150 O 0.9897 0.23873 0.163 0.0
C151 C 0.03841 0.17956 0.15996 0.0
N152 N 0.05427 0.20881 0.15121 0.0
C153 C 0.11012 0.18104 0.14754 0.0
C154 C 0.09446 0.15069 0.1567 0.0
C155 C 0.05843 0.14995 0.16289 0.0
C156 C 0.08891 0.20984 0.14522 0.0
H157 H 0.0107 0.17885 0.16466 0.0
C158 C 0.95657 0.23498 0.15861 0.0
O159 O 0.92178 0.24545 0.08797 0.0
O160 O 0.95357 0.19935 0.09513 0.0
N161 N 0.07914 0.2658 0.1324 0.0
C162 C 0.08955 0.29627 0.12215 0.0
C163 C 0.12458 0.30079 0.11413 0.0
C164 C 0.14856 0.27411 0.11696 0.0
C165 C 0.13727 0.24304 0.12755 0.0
C166 C 0.10213 0.24008 0.13537 0.0
H167 H 0.07123 0.31688 0.11998 0.0
O168 O -0.00031 0.25138 0.07741 0.0
O169 O 0.01613 0.23742 0.11448 0.0
O170 O 0.97424 0.2977 0.11277 0.0
O171 O 0.01608 0.29948 0.14177 0.0
C172 C 0.1593 0.21462 0.13018 0.0
C173 C 0.14573 0.18363 0.14014 0.0
H174 H 0.10975 0.12772 0.15882 0.0
H175 H 0.04611 0.12657 0.16984 0.0
H176 H 0.1331 0.32476 0.10579 0.0
H177 H 0.17557 0.27764 0.11087 0.0
H178 H 0.18658 0.21616 0.12425 0.0
H179 H 0.16278 0.16179 0.14173 0.0
Mn180 Mn 0.25183 0.06318 0.88842 0.0
Mn181 Mn 0.23831 0.00054 0.84717 0.0
C182 C 0.23845 0.00762 0.90081 0.0
C183 C 0.23111 0.10742 0.91227 0.0
C184 C 0.31091 0.02855 0.86084 0.0
O185 O 0.24451 0.08996 0.85734 0.0
O186 O 0.23193 0.04614 0.83183 0.0
C187 C 0.16198 0.0097 0.83829 0.0
N188 N 0.18895 0.98942 0.84532 0.0
C189 C 0.1493 0.94074 0.8505 0.0
C190 C 0.12109 0.96101 0.84321 0.0
C191 C 0.12744 0.99571 0.83722 0.0
C192 C 0.18304 0.95621 0.85157 0.0
H193 H 0.16681 0.0363 0.83348 0.0
C194 C 0.2356 0.07829 0.83657 0.0
O195 O 0.26436 0.10582 0.9067 0.0
O196 O 0.20986 0.08401 0.9033 0.0
N197 N 0.24332 0.95515 0.85975 0.0
C198 C 0.27335 0.93921 0.86669 0.0
C199 C 0.27142 0.90457 0.8738 0.0
C200 C 0.23879 0.88656 0.87329 0.0
C201 C 0.20839 0.9034 0.86569 0.0
C202 C 0.21185 0.93802 0.85908 0.0
H203 H 0.29856 0.95281 0.86689 0.0
O204 O 0.25378 0.02934 0.91548 0.0
O205 O 0.23073 0.01933 0.87949 0.0
O206 O 0.30048 0.04941 0.87693 0.0
O207 O 0.2899 0.00958 0.84826 0.0
C208 C 0.17489 0.88704 0.8641 0.0
C209 C 0.14534 0.9057 0.85653 0.0
H210 H 0.09446 0.95022 0.84217 0.0
H211 H 0.1058 0.01156 0.83163 0.0
H212 H 0.29504 0.89175 0.87955 0.0
H213 H 0.23741 0.8598 0.87867 0.0
H214 H 0.17171 0.86004 0.86848 0.0
H215 H 0.11973 0.89284 0.85518 0.0
Mn216 Mn 0.04016 0.74752 0.09622 0.0
Mn217 Mn 0.97509 0.73717 0.13743 0.0
C218 C 0.98264 0.74048 0.08351 0.0
C219 C 0.07625 0.78435 0.07342 0.0
C220 C 0.02394 0.68024 0.12249 0.0
O221 O 0.06375 0.76201 0.12761 0.0
O222 O 0.01741 0.75891 0.15325 0.0
C223 C 0.96054 0.81029 0.14705 0.0
N224 N 0.94902 0.77846 0.13987 0.0
C225 C 0.89021 0.79854 0.13308 0.0
C226 C 0.90136 0.83146 0.14064 0.0
C227 C 0.9367 0.83736 0.14763 0.0
C228 C 0.91505 0.77246 0.13318 0.0
H229 H 0.98776 0.81504 0.1522 0.0
C230 C 0.0499 0.76621 0.14839 0.0
O231 O 0.0856 0.75312 0.0781 0.0
O232 O 0.04677 0.7943 0.0827 0.0
N233 N 0.93258 0.71692 0.12434 0.0
C234 C 0.92676 0.68442 0.11576 0.0
C235 C 0.89315 0.67483 0.10692 0.0
C236 C 0.86583 0.6986 0.10717 0.0
C237 C 0.87236 0.73179 0.11627 0.0
C238 C 0.90633 0.73985 0.12498 0.0
H239 H 0.94769 0.66608 0.11539 0.0
O240 O 0.00861 0.73495 0.0688 0.0
O241 O 0.9912 0.75107 0.10514 0.0
O242 O 0.0412 0.69708 0.10637 0.0
O243 O -0.00016 0.69312 0.13565 0.0
C244 C 0.84676 0.75747 0.11643 0.0
C245 C 0.85567 0.79081 0.12485 0.0
H246 H 0.88314 0.85249 0.14088 0.0
H247 H 0.94557 0.86275 0.15331 0.0
H248 H 0.88835 0.64926 0.09975 0.0
H249 H 0.84004 0.6912 0.1001 0.0
H250 H 0.82028 0.752 0.10977 0.0
H251 H 0.8359 0.81046 0.12454 0.0
Mn252 Mn 0.73785 0.92803 0.90229 0.0
Mn253 Mn 0.75409 0.00382 0.87437 0.0
C254 C 0.75099 0.97618 0.92502 0.0
C255 C 0.75857 0.87636 0.91655 0.0
C256 C 0.68063 0.97181 0.88056 0.0
O257 O 0.7459 0.91443 0.86744 0.0
O258 O 0.76257 0.96552 0.85122 0.0
C259 C 0.83122 0.99869 0.86682 0.0
N260 N 0.80332 0.01577 0.87612 0.0
C261 C 0.84187 0.06004 0.89254 0.0
C262 C 0.87099 0.0431 0.88294 0.0
C263 C 0.86564 0.01226 0.87006 0.0
C264 C 0.80815 0.04548 0.88851 0.0
H265 H 0.82724 0.97483 0.8571 0.0
C266 C 0.75726 0.93286 0.84987 0.0
O267 O 0.72523 0.8798 0.91174 0.0
O268 O 0.77967 0.90248 0.91252 0.0
N269 N 0.74734 0.0428 0.89487 0.0
C270 C 0.71676 0.05449 0.90453 0.0
C271 C 0.71771 0.08434 0.91884 0.0
C272 C 0.75002 0.10192 0.92298 0.0
C273 C 0.7811 0.08957 0.91267 0.0
C274 C 0.77848 0.05987 0.89838 0.0
H275 H 0.69188 0.04098 0.90154 0.0
O276 O 0.73507 0.94976 0.93481 0.0
O277 O 0.75937 0.97334 0.90227 0.0
O278 O 0.68967 0.94615 0.89326 0.0
O279 O 0.70263 0.99419 0.87209 0.0
C280 C 0.81469 0.10504 0.91656 0.0
C281 C 0.84505 0.09029 0.90649 0.0
H282 H 0.89761 0.0533 0.88559 0.0
H283 H 0.888 0.9989 0.86276 0.0
H284 H 0.69363 0.09365 0.92679 0.0
H285 H 0.75072 0.12467 0.9343 0.0
H286 H 0.81754 0.12794 0.92762 0.0
H287 H 0.87079 0.10209 0.90995 0.0
H288 H 0.99396 0.63961 0.65085 0.0
H289 H 0.0045 0.57888 0.64475 0.0
H290 H 0.92079 0.57301 0.5919 0.0
H291 H 0.9103 0.63447 0.59737 0.0
H292 H 0.92726 0.5136 0.62648 0.0
H293 H 0.98903 0.57853 0.56715 0.0
H294 H 0.02552 0.62666 0.55108 0.0
H295 H 0.11288 0.59587 0.59491 0.0
H296 H 0.07661 0.54792 0.61171 0.0
H297 H 0.05172 0.37578 0.57147 0.0
H298 H 0.03117 0.43505 0.57101 0.0
H299 H 0.0041 0.42668 0.64673 0.0
H300 H 0.02311 0.36723 0.64695 0.0
H301 H 0.0462 0.49299 0.59209 0.0
H302 H 0.93053 0.46609 0.65986 0.0
H303 H 0.89059 0.41783 0.67156 0.0
H304 H 0.90442 0.37155 0.60178 0.0
H305 H 0.94422 0.41958 0.58957 0.0
C306 C 0.97721 0.62548 0.63822 0.0
C307 C 0.95166 0.64217 0.62427 0.0
C308 C 0.98337 0.59074 0.63477 0.0
C309 C 0.96382 0.57187 0.61761 0.0
C310 C 0.93623 0.58744 0.60513 0.0
C311 C 0.93028 0.6225 0.60833 0.0
C312 C 0.97461 0.53679 0.61159 0.0
C313 C 0.9531 0.50891 0.61883 0.0
C314 C 0.00785 0.53101 0.60083 0.0
C315 C 0.02996 0.55977 0.59086 0.0
C316 C 0.01589 0.58221 0.57358 0.0
C317 C 0.03656 0.60942 0.5643 0.0
C318 C 0.0715 0.61426 0.57193 0.0
C319 C 0.08581 0.592 0.58897 0.0
C320 C 0.0652 0.56481 0.5984 0.0
C321 C 0.04196 0.3869 0.58808 0.0
C322 C 0.03873 0.367 0.60921 0.0
C323 C 0.03007 0.42064 0.58778 0.0
C324 C 0.01515 0.43494 0.60866 0.0
C325 C 0.01442 0.41581 0.6302 0.0
C326 C 0.0256 0.38199 0.63038 0.0
C327 C -0.00051 0.46947 0.60798 0.0
C328 C 0.02013 0.49739 0.59946 0.0
C329 C 0.9649 0.47515 0.61681 0.0
C330 C 0.94055 0.44636 0.62387 0.0
C331 C 0.92492 0.44569 0.64696 0.0
C332 C 0.90237 0.41832 0.6537 0.0
C333 C 0.8951 0.39155 0.63745 0.0
C334 C 0.91026 0.39216 0.61439 0.0
C335 C 0.93284 0.41944 0.60756 0.0
H336 H 0.87765 0.37038 0.6427 0.0
H337 H 0.08745 0.63529 0.56466 0.0
H338 H 0.60243 0.11227 0.37081 0.0
H339 H 0.54449 0.0853 0.36364 0.0
H340 H 0.58865 0.98517 0.37362 0.0
H341 H 0.64689 0.01175 0.38045 0.0
H342 H 0.53652 0.98505 0.33844 0.0
H343 H 0.55426 0.0247 0.42044 0.0
H344 H 0.56961 0.06824 0.45139 0.0
H345 H 0.48338 0.12975 0.42799 0.0
H346 H 0.46797 0.08688 0.39653 0.0
H347 H 0.38853 0.8886 0.38369 0.0
H348 H 0.44562 0.91735 0.37637 0.0
H349 H 0.39426 0.01466 0.36992 0.0
H350 H 0.33714 0.98637 0.37749 0.0
H351 H 0.44895 0.01848 0.40051 0.0
H352 H 0.42811 0.9758 0.32041 0.0
H353 H 0.4136 0.93211 0.2894 0.0
H354 H 0.50504 0.87551 0.30953 0.0
H355 H 0.51983 0.91863 0.34091 0.0
C356 C 0.60003 0.08447 0.37106 0.0
C357 C 0.62918 0.06419 0.37665 0.0
C358 C 0.5669 0.06914 0.36692 0.0
C359 C 0.56231 0.03335 0.36855 0.0
C360 C 0.59174 0.01287 0.37236 0.0
C361 C 0.62496 0.02816 0.37638 0.0
C362 C 0.52644 0.01759 0.36907 0.0
C363 C 0.51735 0.99214 0.35205 0.0
C364 C 0.50145 0.02734 0.38668 0.0
C365 C 0.51021 0.05277 0.40595 0.0
C366 C 0.53872 0.04762 0.42178 0.0
C367 C 0.54744 0.07218 0.43942 0.0
C368 C 0.52755 0.10179 0.44161 0.0
C369 C 0.49882 0.10684 0.42623 0.0
C370 C 0.49009 0.08243 0.40849 0.0
C371 C 0.38928 0.91606 0.38048 0.0
C372 C 0.35823 0.93517 0.38129 0.0
C373 C 0.42193 0.93241 0.37617 0.0
C374 C 0.42406 0.96806 0.37242 0.0
C375 C 0.39311 0.9871 0.37276 0.0
C376 C 0.36049 0.97084 0.3771 0.0
C377 C 0.45879 0.98587 0.36981 0.0
C378 C 0.46782 0.01162 0.38663 0.0
C379 C 0.48366 0.97625 0.35208 0.0
C380 C 0.47491 0.95032 0.33316 0.0
C381 C 0.44498 0.9539 0.31836 0.0
C382 C 0.43673 0.92926 0.30069 0.0
C383 C 0.45834 0.90101 0.29753 0.0
C384 C 0.4883 0.89739 0.31201 0.0
C385 C 0.49665 0.92195 0.32972 0.0
H386 H 0.45191 0.88196 0.28384 0.0
H387 H 0.53433 0.12078 0.45527 0.0
H388 H 0.98043 0.35713 0.09043 0.0
H389 H 0.98685 0.42002 0.09033 0.0
H390 H 0.01167 0.41874 0.16649 0.0
H391 H 0.00628 0.35584 0.16662 0.0
H392 H 0.95884 0.47163 0.14692 0.0
H393 H 0.0769 0.42588 0.13748 0.0
H394 H 0.11916 0.3879 0.1175 0.0
H395 H 0.10029 0.43749 0.04945 0.0
H396 H 0.05741 0.47542 0.069 0.0
H397 H 0.01932 0.6406 0.16301 0.0
H398 H 0.01772 0.57781 0.16491 0.0
H399 H 0.03517 0.57304 0.08776 0.0
H400 H 0.0388 0.63582 0.08607 0.0
H401 H 0.06604 0.522 0.10739 0.0
H402 H 0.95019 0.5676 0.11385 0.0
H403 H 0.90359 0.60394 0.13052 0.0
H404 H 0.91275 0.55423 0.19951 0.0
H405 H 0.95972 0.5178 0.18334 0.0
C406 C 0.98666 0.37032 0.10722 0.0
C407 C 0.99292 0.35172 0.12853 0.0
C408 C 0.99045 0.40611 0.10711 0.0
C409 C -0.00014 0.42373 0.12838 0.0
C410 C 0.00439 0.40541 0.14993 0.0
C411 C 0.00139 0.3696 0.14995 0.0
C412 C 0.00692 0.46113 0.12787 0.0
C413 C 0.98243 0.48277 0.13858 0.0
C414 C 0.03719 0.47533 0.11629 0.0
C415 C 0.06369 0.45323 0.10465 0.0
C416 C 0.08155 0.4285 0.11822 0.0
C417 C 0.10564 0.407 0.10698 0.0
C418 C 0.11232 0.41018 0.08219 0.0
C419 C 0.09505 0.43501 0.06864 0.0
C420 C 0.07087 0.45654 0.07979 0.0
C421 C 0.02359 0.62607 0.14658 0.0
C422 C 0.02897 0.64294 0.12438 0.0
C423 C 0.02239 0.59024 0.14762 0.0
C424 C 0.0252 0.57069 0.12635 0.0
C425 C 0.03271 0.58753 0.10439 0.0
C426 C 0.03483 0.6234 0.10345 0.0
C427 C 0.01806 0.533 0.12673 0.0
C428 C 0.04244 0.51113 0.11587 0.0
C429 C 0.9872 0.51859 0.13774 0.0
C430 C 0.9587 0.5402 0.14745 0.0
C431 C 0.94241 0.56455 0.13262 0.0
C432 C 0.91593 0.58516 0.14197 0.0
C433 C 0.90531 0.58149 0.16607 0.0
C434 C 0.92105 0.55709 0.18085 0.0
C435 C 0.94757 0.53642 0.1716 0.0
H436 H 0.88481 0.5975 0.17326 0.0
H437 H 0.13094 0.39346 0.07351 0.0
H438 H 0.34507 0.98383 0.83097 0.0
H439 H 0.40844 0.97287 0.82997 0.0
H440 H 0.4271 0.05308 0.88265 0.0
H441 H 0.3641 0.06428 0.88389 0.0
H442 H 0.47053 0.01337 0.82112 0.0
H443 H 0.48106 0.01974 0.92554 0.0
H444 H 0.44263 0.0108 0.9612 0.0
H445 H 0.37628 0.9407 0.92055 0.0
H446 H 0.41465 0.94873 0.88482 0.0
H447 H 0.64872 0.02744 0.86058 0.0
H448 H 0.58576 0.0345 0.85307 0.0
H449 H 0.56371 0.93262 0.88093 0.0
H450 H 0.62649 0.9255 0.88894 0.0
H451 H 0.52028 0.9767 0.89988 0.0
H452 H 0.55932 0.9494 0.82014 0.0
H453 H 0.59659 0.95473 0.78366 0.0
H454 H 0.56259 0.05812 0.77316 0.0
H455 H 0.52548 0.05358 0.80979 0.0
C456 C 0.36268 -0.00049 0.84208 0.0
C457 C 0.34941 0.02461 0.85778 0.0
C458 C 0.39886 0.99327 0.8414 0.0
C459 C 0.42216 0.01189 0.85647 0.0
C460 C 0.40933 0.03822 0.8711 0.0
C461 C 0.37328 0.04452 0.87178 0.0
C462 C 0.45943 0.00212 0.85854 0.0
C463 C 0.48154 0.0053 0.83828 0.0
C464 C 0.47331 0.99082 0.88084 0.0
C465 C 0.45057 0.98512 0.90244 0.0
C466 C 0.45839 0.00227 0.92426 0.0
C467 C 0.4366 0.99737 0.94448 0.0
C468 C 0.40698 0.97528 0.94312 0.0
C469 C 0.39917 0.95789 0.92156 0.0
C470 C 0.42092 0.96263 0.90132 0.0
C471 C 0.63053 0.00643 0.86499 0.0
C472 C 0.64265 0.97593 0.87542 0.0
C473 C 0.59457 0.01046 0.86056 0.0
C474 C 0.57016 0.98393 0.8662 0.0
C475 C 0.58217 0.95339 0.87644 0.0
C476 C 0.61806 0.9494 0.88102 0.0
C477 C 0.53189 0.98867 0.86257 0.0
C478 C 0.50945 0.98458 0.88263 0.0
C479 C 0.51769 0.99846 0.83996 0.0
C480 C 0.53983 0.00123 0.81783 0.0
C481 C 0.55998 0.97336 0.81016 0.0
C482 C 0.58105 0.97622 0.78943 0.0
C483 C 0.58201 0.00677 0.77613 0.0
C484 C 0.56184 0.03448 0.78349 0.0
C485 C 0.54075 0.03176 0.80422 0.0
H486 H 0.59834 0.00894 0.76009 0.0
H487 H 0.39011 0.97158 0.95877 0.0
H488 H 0.23238 0.042 0.40387 0.0
H489 H 0.22215 0.09428 0.42775 0.0
H490 H 0.23103 0.03579 0.49362 0.0
H491 H 0.24208 0.984 0.47015 0.0
H492 H 0.16511 0.07896 0.48465 0.0
H493 H 0.29451 0.0802 0.48572 0.0
H494 H 0.35277 0.08167 0.46567 0.0
H495 H 0.32761 0.17649 0.43067 0.0
H496 H 0.26893 0.17528 0.45025 0.0
H497 H 0.15832 0.17965 0.58406 0.0
H498 H 0.18806 0.14133 0.55612 0.0
H499 H 0.196 0.22286 0.50337 0.0
H500 H 0.16691 0.26177 0.53173 0.0
H501 H 0.25224 0.17401 0.50026 0.0
H502 H 0.12666 0.1777 0.50114 0.0
H503 H 0.06815 0.17874 0.52068 0.0
H504 H 0.08247 0.0768 0.54808 0.0
H505 H 0.14173 0.07565 0.5295 0.0
C506 C 0.23242 0.04045 0.42344 0.0
C507 C 0.23801 0.00897 0.43516 0.0
C508 C 0.2267 0.07025 0.437 0.0
C509 C 0.22595 0.06872 0.46237 0.0
C510 C 0.23165 0.03739 0.47404 0.0
C511 C 0.23801 0.00788 0.46059 0.0
C512 C 0.21741 0.09913 0.47704 0.0
C513 C 0.18414 0.0997 0.48814 0.0
C514 C 0.24191 0.12664 0.48082 0.0
C515 C 0.27718 0.1274 0.46917 0.0
C516 C 0.30124 0.10115 0.47353 0.0
C517 C 0.33438 0.10199 0.46231 0.0
C518 C 0.34384 0.12908 0.44683 0.0
C519 C 0.32022 0.15547 0.44261 0.0
C520 C 0.28703 0.15473 0.45377 0.0
C521 C 0.16777 0.1898 0.56691 0.0
C522 C 0.16007 0.22342 0.55985 0.0
C523 C 0.18468 0.16791 0.55095 0.0
C524 C 0.19335 0.17907 0.52749 0.0
C525 C 0.18935 0.21379 0.52137 0.0
C526 C 0.17282 0.23598 0.53758 0.0
C527 C 0.20037 0.15314 0.50858 0.0
C528 C 0.23305 0.1535 0.49657 0.0
C529 C 0.17503 0.12666 0.50352 0.0
C530 C 0.13886 0.12673 0.51409 0.0
C531 C 0.1175 0.1556 0.51151 0.0
C532 C 0.08421 0.15625 0.52245 0.0
C533 C 0.07159 0.12786 0.53561 0.0
C534 C 0.09229 0.09879 0.53789 0.0
C535 C 0.12579 0.09816 0.5272 0.0
H536 H 0.04574 0.12837 0.54398 0.0
H537 H 0.36951 0.12969 0.43817 0.0
H538 H 0.16273 0.83856 0.40933 0.0
H539 H 0.13049 0.80206 0.43846 0.0
H540 H 0.21268 0.82094 0.49134 0.0
H541 H 0.24527 0.8567 0.46198 0.0
H542 H 0.18047 0.75602 0.49708 0.0
H543 H 0.14775 0.87513 0.48836 0.0
H544 H 0.12944 0.9257 0.46502 0.0
H545 H 0.0355 0.87084 0.44186 0.0
H546 H 0.05358 0.81975 0.4648 0.0
H547 H 0.02612 0.80128 0.58615 0.0
H548 H 0.07884 0.81238 0.56156 0.0
H549 H 0.06812 0.71065 0.53086 0.0
H550 H 0.01697 0.69872 0.5569 0.0
H551 H 0.06723 0.81307 0.51402 0.0
H552 H 0.12419 0.6878 0.51244 0.0
H553 H 0.14789 0.64057 0.537 0.0
H554 H 0.19888 0.71412 0.58425 0.0
H555 H 0.17425 0.76168 0.56046 0.0
C556 C 0.17434 0.83382 0.42691 0.0
C557 C 0.20653 0.84973 0.43346 0.0
C558 C 0.15607 0.813 0.44346 0.0
C559 C 0.16909 0.80917 0.46709 0.0
C560 C 0.20235 0.8234 0.47315 0.0
C561 C 0.22085 0.84384 0.45645 0.0
C562 C 0.14545 0.7962 0.48647 0.0
C563 C 0.15561 0.76832 0.50075 0.0
C564 C 0.11338 0.81269 0.49152 0.0
C565 C 0.10217 0.84356 0.47808 0.0
C566 C 0.12329 0.87382 0.47818 0.0
C567 C 0.11296 0.90256 0.46503 0.0
C568 C 0.08136 0.90146 0.45192 0.0
C569 C 0.05999 0.87164 0.45199 0.0
C570 C 0.07026 0.84279 0.46507 0.0
C571 C 0.03637 0.78068 0.57522 0.0
C572 C 0.01841 0.74884 0.57391 0.0
C573 C 0.06628 0.78705 0.56104 0.0
C574 C 0.07782 0.76216 0.5446 0.0
C575 C 0.06062 0.7298 0.54396 0.0
C576 C 0.03109 0.72319 0.55856 0.0
C577 C 0.10208 0.77282 0.52484 0.0
C578 C 0.09193 0.80046 0.51035 0.0
C579 C 0.13418 0.75642 0.51989 0.0
C580 C 0.14696 0.72809 0.53501 0.0
C581 C 0.14001 0.69379 0.5283 0.0
C582 C 0.15356 0.66701 0.54208 0.0
C583 C 0.1747 0.67434 0.56227 0.0
C584 C 0.18233 0.70847 0.5687 0.0
C585 C 0.16825 0.73533 0.55526 0.0
H586 H 0.18529 0.65359 0.57286 0.0
H587 H 0.0734 0.92373 0.44174 0.0
H588 H 0.79177 0.97359 0.41421 0.0
H589 H 0.80436 0.92426 0.43995 0.0
H590 H 0.71035 0.94315 0.48176 0.0
H591 H 0.69892 0.99352 0.45687 0.0
H592 H 0.75978 0.93718 0.51079 0.0
H593 H 0.7213 0.86825 0.44503 0.0
H594 H 0.71685 0.84808 0.40281 0.0
H595 H 0.8268 0.82333 0.40339 0.0
H596 H 0.83207 0.84381 0.44551 0.0
H597 H 0.82565 0.75568 0.55322 0.0
H598 H 0.78841 0.79023 0.52668 0.0
H599 H 0.85384 0.87994 0.54223 0.0
H600 H 0.89053 0.846 0.56876 0.0
H601 H 0.80477 0.82391 0.48594 0.0
H602 H 0.80677 0.95126 0.54234 0.0
H603 H 0.80252 0.97 0.58484 0.0
H604 H 0.75283 0.8734 0.60396 0.0
H605 H 0.75618 0.85425 0.56148 0.0
C606 C 0.77346 0.96672 0.42859 0.0
C607 C 0.74457 0.98745 0.43372 0.0
C608 C 0.78052 0.93837 0.44324 0.0
C609 C 0.75823 0.92973 0.46283 0.0
C610 C 0.72812 0.94933 0.46692 0.0
C611 C 0.72155 0.97807 0.45266 0.0
C612 C 0.76853 0.90314 0.4807 0.0
C613 C 0.76927 0.9123 0.50529 0.0
C614 C 0.7801 0.87022 0.47376 0.0
C615 C 0.77711 0.85777 0.44842 0.0
C616 C 0.7446 0.85872 0.43611 0.0
C617 C 0.74192 0.8472 0.4122 0.0
C618 C 0.77154 0.83448 0.40041 0.0
C619 C 0.80388 0.83319 0.41254 0.0
C620 C 0.80671 0.8447 0.43645 0.0
C621 C 0.83175 0.78286 0.55117 0.0
C622 C 0.86099 0.79812 0.5631 0.0
C623 C 0.81056 0.80252 0.53596 0.0
C624 C 0.81812 0.83775 0.53265 0.0
C625 C 0.84707 0.85297 0.54481 0.0
C626 C 0.86817 0.83344 0.55991 0.0
C627 C 0.79715 0.8587 0.51571 0.0
C628 C 0.79459 0.84856 0.49135 0.0
C629 C 0.78297 0.8904 0.52291 0.0
C630 C 0.78187 0.90127 0.54869 0.0
C631 C 0.79485 0.93402 0.55558 0.0
C632 C 0.79258 0.94473 0.57967 0.0
C633 C 0.77731 0.92295 0.59705 0.0
C634 C 0.76462 0.89025 0.59045 0.0
C635 C 0.76676 0.87942 0.56637 0.0
H636 H 0.77521 0.9315 0.61561 0.0
H637 H 0.76941 0.82557 0.38189 0.0
H638 H 0.74265 0.14455 0.4684 0.0
H639 H 0.78271 0.17764 0.49509 0.0
H640 H 0.85482 0.19379 0.43539 0.0
H641 H 0.81568 0.1596 0.40923 0.0
H642 H 0.88492 0.1595 0.46969 0.0
H643 H 0.8241 0.27057 0.46883 0.0
H644 H 0.77554 0.31112 0.47442 0.0
H645 H 0.75227 0.26708 0.54405 0.0
H646 H 0.80153 0.22717 0.53921 0.0
H647 H 0.99065 0.29593 0.54175 0.0
H648 H 0.93852 0.27824 0.51808 0.0
H649 H 0.94534 0.17529 0.54658 0.0
H650 H 0.99804 0.19297 0.56985 0.0
H651 H 0.87397 0.25281 0.53011 0.0
H652 H 0.92163 0.11962 0.50233 0.0
H653 H 0.97732 0.08899 0.49629 0.0
H654 H 0.03109 0.1843 0.47894 0.0
H655 H 0.97572 0.21543 0.48478 0.0
C656 C 0.76635 0.15652 0.46087 0.0
C657 C 0.77618 0.14995 0.43684 0.0
C658 C 0.7892 0.17547 0.47607 0.0
C659 C 0.82194 0.18796 0.46728 0.0
C660 C 0.82983 0.18422 0.4426 0.0
C661 C 0.80747 0.16481 0.42764 0.0
C662 C 0.85079 0.19817 0.48416 0.0
C663 C 0.88241 0.18001 0.48285 0.0
C664 C 0.84761 0.2244 0.50163 0.0
C665 C 0.81598 0.24566 0.5035 0.0
C666 C 0.80832 0.26934 0.48519 0.0
C667 C 0.78103 0.29248 0.48837 0.0
C668 C 0.76079 0.2916 0.50954 0.0
C669 C 0.76791 0.26769 0.52764 0.0
C670 C 0.79565 0.24499 0.52477 0.0
C671 C 0.98061 0.26967 0.54308 0.0
C672 C 0.9972 0.24599 0.5581 0.0
C673 C 0.95091 0.25963 0.52969 0.0
C674 C 0.93803 0.22554 0.53068 0.0
C675 C 0.95492 0.20172 0.54557 0.0
C676 C 0.98465 0.21183 0.55899 0.0
C677 C 0.90805 0.21475 0.5151 0.0
C678 C 0.87622 0.23227 0.51696 0.0
C679 C 0.91121 0.18827 0.49781 0.0
C680 C 0.94463 0.16983 0.4942 0.0
C681 C 0.94534 0.134 0.49719 0.0
C682 C 0.97684 0.11657 0.49382 0.0
C683 C 0.00772 0.1347 0.48726 0.0
C684 C 0.00717 0.17031 0.48408 0.0
C685 C 0.97577 0.18786 0.48748 0.0
H686 H 0.03206 0.12115 0.48463 0.0
H687 H 0.73954 0.30942 0.51189 0.0
H688 H 0.819 0.99878 0.92767 0.0
H689 H 0.84421 0.04147 0.95565 0.0
H690 H 0.74146 0.05313 0.98832 0.0
H691 H 0.71594 0.01202 0.9591 0.0
H692 H 0.77163 0.11234 0.98651 0.0
H693 H 0.80749 0.00289 0.0142 0.0
H694 H 0.83335 0.94545 0.01149 0.0
H695 H 0.93426 0.99145 0.99342 0.0
H696 H 0.90888 0.04917 0.99571 0.0
H697 H 0.90395 0.14735 0.09598 0.0
H698 H 0.86718 0.10899 0.07094 0.0
H699 H 0.85771 0.18965 0.01774 0.0
H700 H 0.89211 0.22873 0.04382 0.0
H701 H 0.87976 0.08269 0.03189 0.0
H702 H 0.78893 0.17709 0.98028 0.0
H703 H 0.75664 0.23025 0.98811 0.0
H704 H 0.75415 0.20728 0.06412 0.0
H705 H 0.786 0.15377 0.05672 0.0
C706 C 0.80174 0.01132 0.94038 0.0
C707 C 0.76542 0.00342 0.94073 0.0
C708 C 0.8162 0.03519 0.95665 0.0
C709 C 0.79482 0.05028 0.97431 0.0
C710 C 0.75845 0.04205 0.97476 0.0
C711 C 0.74391 0.01857 0.95819 0.0
C712 C 0.81057 0.07387 0.99269 0.0
C713 C 0.7952 0.10587 0.99654 0.0
C714 C 0.84074 0.06503 0.00626 0.0
C715 C 0.8562 0.03036 0.00493 0.0
C716 C 0.83514 0.00075 0.0095 0.0
C717 C 0.84972 0.96814 0.00805 0.0
C718 C 0.8854 0.9648 0.00224 0.0
C719 C 0.90661 0.99408 0.9979 0.0
C720 C 0.89215 0.02675 -0.00071 0.0
C721 C 0.89323 0.15699 0.07918 0.0
C722 C 0.90055 0.19088 0.07179 0.0
C723 C 0.87241 0.13505 0.06479 0.0
C724 C 0.85941 0.14628 0.04238 0.0
C725 C 0.86647 0.18046 0.03518 0.0
C726 C 0.88631 0.20277 0.05 0.0
C727 C 0.8409 0.12147 0.02589 0.0
C728 C 0.85595 0.08923 0.02216 0.0
C729 C 0.80948 0.1295 0.01333 0.0
C730 C 0.79021 0.1616 0.01796 0.0
C731 C 0.78141 0.18333 0.99866 0.0
C732 C 0.76319 0.21353 0.00302 0.0
C733 C 0.75347 0.2222 0.02661 0.0
C734 C 0.76184 0.20061 0.04587 0.0
C735 C 0.78002 0.17037 0.04161 0.0
H736 H 0.73937 0.24559 0.02994 0.0
H737 H 0.89663 0.93953 0.00112 0.0
H738 H 0.26998 0.1442 0.9455 0.0
H739 H 0.24694 0.17501 0.98063 0.0
H740 H 0.14059 0.15746 0.95446 0.0
H741 H 0.16327 0.12595 0.91982 0.0
H742 H 0.20366 0.22938 0.99141 0.0
H743 H 0.09129 0.12529 0.99864 0.0
H744 H 0.08119 0.06447 0.98741 0.0
H745 H 0.19285 0.04781 0.99047 0.0
H746 H 0.20358 0.10836 0.00212 0.0
H747 H 0.05876 0.28383 0.05889 0.0
H748 H 0.10733 0.26679 0.03322 0.0
H749 H 0.12028 0.17585 0.07698 0.0
H750 H 0.06769 0.19039 0.09995 0.0
H751 H 0.11791 0.15559 0.03679 0.0
H752 H 0.18937 0.24912 0.06695 0.0
H753 H 0.20469 0.30876 0.0792 0.0
H754 H 0.18347 0.34415 0.00726 0.0
H755 H 0.16836 0.2849 0.99446 0.0
C756 C 0.24175 0.14765 0.94698 0.0
C757 C 0.21831 0.1322 0.93021 0.0
C758 C 0.22867 0.16529 0.96702 0.0
C759 C 0.19208 0.16777 0.97037 0.0
C760 C 0.16892 0.15517 0.95241 0.0
C761 C 0.18189 0.13722 0.93263 0.0
C762 C 0.17756 0.17976 0.99368 0.0
C763 C 0.1851 0.21337 0.0016 0.0
C764 C 0.1546 0.15823 0.0074 0.0
C765 C 0.14823 0.12145 0.00111 0.0
C766 C 0.11366 0.10859 0.9971 0.0
C767 C 0.10784 0.07417 0.99062 0.0
C768 C 0.13637 0.05231 0.98817 0.0
C769 C 0.17078 0.06478 0.99232 0.0
C770 C 0.17675 0.09915 0.99885 0.0
C771 C 0.07269 0.26066 0.06335 0.0
C772 C 0.06039 0.23901 0.08198 0.0
C773 C 0.10098 0.25112 0.04886 0.0
C774 C 0.11839 0.22022 0.05322 0.0
C775 C 0.10754 0.19984 0.07308 0.0
C776 C 0.07798 0.20851 0.08671 0.0
C777 C 0.14277 0.20618 0.03466 0.0
C778 C 0.1371 0.17184 0.02737 0.0
C779 C 0.16827 0.22684 0.02212 0.0
C780 C 0.17763 0.26252 0.02977 0.0
C781 C 0.18787 0.26963 0.05376 0.0
C782 C 0.19652 0.30335 0.0608 0.0
C783 C 0.1948 0.33018 0.04408 0.0
C784 C 0.18476 0.32334 0.02021 0.0
C785 C 0.17636 0.28968 0.01301 0.0
H786 H 0.20137 0.35625 0.04962 0.0
H787 H 0.1318 0.0257 0.98309 0.0
H788 H 0.14243 0.77499 0.05458 0.0
H789 H 0.1725 0.81027 0.02359 0.0
H790 H 0.08483 0.87899 0.02284 0.0
H791 H 0.05494 0.84437 0.05381 0.0
H792 H 0.10359 0.85366 0.97711 0.0
H793 H 0.15791 0.90658 0.04699 0.0
H794 H 0.1916 0.9074 0.08519 0.0
H795 H 0.28109 0.86573 0.04866 0.0
H796 H 0.24772 0.86419 0.01028 0.0
H797 H 0.16883 0.99207 0.90463 0.0
H798 H 0.14187 0.94914 0.93126 0.0
H799 H 0.24485 0.90807 0.9457 0.0
H800 H 0.27195 0.95409 0.92134 0.0
H801 H 0.21873 0.91613 0.98475 0.0
H802 H 0.15666 0.84411 0.92 0.0
H803 H 0.11739 0.83205 0.88509 0.0
H804 H 0.04382 0.90543 0.91151 0.0
H805 H 0.08169 0.91636 0.94724 0.0
C806 C 0.12986 0.79789 0.04803 0.0
C807 C 0.09636 0.8069 0.05659 0.0
C808 C 0.14706 0.81802 0.0304 0.0
C809 C 0.13081 0.84718 0.02099 0.0
C810 C 0.09776 0.85658 0.02991 0.0
C811 C 0.08081 0.8368 0.04767 0.0
C812 C 0.147 0.86678 0.00073 0.0
C813 C 0.12876 0.86751 0.97871 0.0
C814 C 0.18011 0.88401 0.00276 0.0
C815 C 0.20016 0.88489 0.02583 0.0
C816 C 0.18464 0.89726 0.04715 0.0
C817 C 0.20371 0.89793 0.06883 0.0
C818 C 0.23843 0.88652 0.06937 0.0
C819 C 0.25417 0.8745 0.04822 0.0
C820 C 0.2352 0.87374 0.0265 0.0
C821 C 0.18547 0.97315 0.91298 0.0
C822 C 0.22234 0.97597 0.91082 0.0
C823 C 0.16997 0.94813 0.92803 0.0
C824 C 0.19099 0.92458 0.94049 0.0
C825 C 0.22782 0.92591 0.9366 0.0
C826 C 0.24339 0.95197 0.92249 0.0
C827 C 0.17577 0.90269 0.96036 0.0
C828 C 0.19399 0.90178 0.98264 0.0
C829 C 0.14273 0.88487 0.95852 0.0
C830 C 0.12243 0.88178 0.93579 0.0
C831 C 0.13237 0.85802 0.91811 0.0
C832 C 0.11008 0.85096 0.89844 0.0
C833 C 0.07836 0.86825 0.89594 0.0
C834 C 0.06852 0.89224 0.91334 0.0
C835 C 0.09017 0.8986 0.93342 0.0
H836 H 0.06134 0.86295 0.88057 0.0
H837 H 0.25315 0.88708 0.08617 0.0
H838 H 0.82119 0.84614 0.90919 0.0
H839 H 0.8508 0.80816 0.93746 0.0
H840 H 0.75695 0.80357 0.98195 0.0
H841 H 0.72675 0.84021 0.95293 0.0
H842 H 0.86531 0.83201 0.97936 0.0
H843 H 0.76253 0.7374 0.02338 0.0
H844 H 0.71198 0.70008 0.01116 0.0
H845 H 0.75358 0.69423 0.93901 0.0
H846 H 0.80462 0.73109 0.95086 0.0
H847 H 0.93928 0.79433 0.08774 0.0
H848 H 0.8879 0.80574 0.06254 0.0
H849 H 0.89894 0.70744 0.02751 0.0
H850 H 0.94859 0.69486 0.05425 0.0
H851 H 0.83098 0.72693 0.02539 0.0
H852 H 0.94659 0.77646 0.00837 0.0
H853 H 0.00089 0.81012 0.01809 0.0
H854 H 0.93956 0.9001 0.02942 0.0
H855 H 0.88483 0.86681 0.0202 0.0
C856 C 0.80649 0.83578 0.92449 0.0
C857 C 0.77193 0.84614 0.9291 0.0
C858 C 0.8234 0.81423 0.94067 0.0
C859 C 0.80631 0.80342 0.96203 0.0
C860 C 0.77061 0.81127 0.96552 0.0
C861 C 0.75336 0.83223 0.94895 0.0
C862 C 0.82757 0.78968 0.98222 0.0
C863 C 0.85775 0.80888 0.98925 0.0
C864 C 0.81777 0.75963 0.99528 0.0
C865 C 0.78722 0.73734 0.98797 0.0
C866 C 0.76095 0.72808 0.00493 0.0
C867 C 0.7322 0.707 0.99806 0.0
C868 C 0.7295 0.69489 0.9743 0.0
C869 C 0.75561 0.70375 0.95738 0.0
C870 C 0.78442 0.7248 0.96415 0.0
C871 C 0.92925 0.77429 0.07579 0.0
C872 C 0.94712 0.74339 0.0733 0.0
C873 C 0.90023 0.78099 0.06115 0.0
C874 C 0.89016 0.75774 0.04279 0.0
C875 C 0.90625 0.7257 0.04156 0.0
C876 C 0.93471 0.71863 0.05669 0.0
C877 C 0.86835 0.76936 0.02228 0.0
C878 C 0.83822 0.74998 0.01533 0.0
C879 C 0.87861 0.79881 0.00871 0.0
C880 C 0.91159 0.81904 0.01385 0.0
C881 C 0.94468 0.80338 0.01306 0.0
C882 C 0.97553 0.82238 0.01849 0.0
C883 C 0.97366 0.8572 0.02442 0.0
C884 C 0.94096 0.87311 0.02487 0.0
C885 C 0.91001 0.85418 0.01956 0.0
H886 H 0.99758 0.87186 0.02861 0.0
H887 H 0.70723 0.67858 0.96902 0.0
H888 H 0.1572 0.26664 0.64946 0.0
H889 H 0.19147 0.24789 0.68438 0.0
H890 H 0.09539 0.21242 0.71942 0.0
H891 H 0.06097 0.23171 0.68509 0.0
H892 H 0.13994 0.23859 0.75203 0.0
H893 H 0.14497 0.15855 0.68456 0.0
H894 H 0.15831 0.14288 0.64232 0.0
H895 H 0.26736 0.1722 0.65307 0.0
H896 H 0.25451 0.18852 0.69531 0.0
H897 H 0.20562 0.06398 0.79274 0.0
H898 H 0.18961 0.10416 0.76122 0.0
H899 H 0.23246 0.1885 0.80365 0.0
H900 H 0.24792 0.14828 0.83585 0.0
H901 H 0.22434 0.14687 0.73288 0.0
H902 H 0.18161 0.2591 0.79244 0.0
H903 H 0.16169 0.27034 0.8342 0.0
H904 H 0.11784 0.16769 0.83892 0.0
H905 H 0.13713 0.15603 0.79711 0.0
C906 C 0.14331 0.25533 0.66476 0.0
C907 C 0.10635 0.25025 0.6643 0.0
C908 C 0.16295 0.24467 0.6847 0.0
C909 C 0.14601 0.22834 0.70434 0.0
C910 C 0.10902 0.22502 0.70449 0.0
C911 C 0.08937 0.2359 0.68472 0.0
C912 C 0.16649 0.21143 0.72361 0.0
C913 C 0.15882 0.21889 0.74788 0.0
C914 C 0.19084 0.18551 0.71818 0.0
C915 C 0.19871 0.17512 0.69296 0.0
C916 C 0.17175 0.16182 0.67786 0.0
C917 C 0.17922 0.15282 0.65393 0.0
C918 C 0.21364 0.15665 0.64499 0.0
C919 C 0.24069 0.16933 0.66 0.0
C920 C 0.23334 0.17846 0.68393 0.0
C921 C 0.21193 0.09102 0.79542 0.0
C922 C 0.22787 0.10289 0.81695 0.0
C923 C 0.20288 0.11398 0.77727 0.0
C924 C 0.20965 0.14935 0.78011 0.0
C925 C 0.22661 0.16133 0.80121 0.0
C926 C 0.23543 0.13831 0.81958 0.0
C927 C 0.19703 0.17331 0.76132 0.0
C928 C 0.20629 0.16726 0.73711 0.0
C929 C 0.17333 0.19981 0.76679 0.0
C930 C 0.16123 0.2066 0.79181 0.0
C931 C 0.16766 0.23898 0.8024 0.0
C932 C 0.15648 0.24542 0.82606 0.0
C933 C 0.13864 0.21969 0.83924 0.0
C934 C 0.13179 0.18754 0.82873 0.0
C935 C 0.14286 0.181 0.80507 0.0
H936 H 0.13005 0.22471 0.85756 0.0
H937 H 0.21936 0.14971 0.62645 0.0
H938 H 0.12193 0.7653 0.15153 0.0
H939 H 0.15927 0.78806 0.18431 0.0
H940 H 0.06675 0.82264 0.2218 0.0
H941 H 0.02907 0.79942 0.18937 0.0
H942 H 0.12796 0.8724 0.21765 0.0
H943 H 0.09678 0.75499 0.24157 0.0
H944 H 0.09307 0.69233 0.23493 0.0
H945 H 0.20571 0.69015 0.22583 0.0
H946 H 0.21 0.75294 0.23206 0.0
H947 H 0.18318 0.90379 0.3375 0.0
H948 H 0.15487 0.88791 0.29937 0.0
H949 H 0.24479 0.82732 0.28027 0.0
H950 H 0.2725 0.84186 0.31905 0.0
H951 H 0.18944 0.79165 0.27185 0.0
H952 H 0.22404 0.90586 0.25094 0.0
H953 H 0.23103 0.9687 0.25547 0.0
H954 H 0.11824 0.97841 0.25574 0.0
H955 H 0.11054 0.91556 0.25156 0.0
C956 C 0.10952 0.77786 0.16671 0.0
C957 C 0.07254 0.78046 0.16793 0.0
C958 C 0.13088 0.7908 0.18538 0.0
C959 C 0.11565 0.80697 0.20535 0.0
C960 C 0.07888 0.81029 0.20643 0.0
C961 C 0.05744 0.79683 0.18798 0.0
C962 C 0.13795 0.81942 0.2256 0.0
C963 C 0.14125 0.85489 0.2297 0.0
C964 C 0.15623 0.79644 0.24057 0.0
C965 C 0.15365 0.75869 0.23699 0.0
C966 C 0.12071 0.7412 0.23792 0.0
C967 C 0.11851 0.70565 0.23428 0.0
C968 C 0.14912 0.68729 0.22989 0.0
C969 C 0.18201 0.70442 0.2292 0.0
C970 C 0.18434 0.73998 0.23279 0.0
C971 C 0.1972 0.88755 0.32501 0.0
C972 C 0.23006 0.87407 0.33125 0.0
C973 C 0.18104 0.87859 0.30311 0.0
C974 C 0.19785 0.85674 0.28672 0.0
C975 C 0.23125 0.84417 0.29261 0.0
C976 C 0.24711 0.85257 0.31474 0.0
C977 C 0.17938 0.84499 0.26436 0.0
C978 C 0.17667 0.80949 0.25978 0.0
C979 C 0.16225 0.86807 0.24866 0.0
C980 C 0.16672 0.90593 0.25112 0.0
C981 C 0.20072 0.92136 0.25214 0.0
C982 C 0.20481 0.95699 0.25462 0.0
C983 C 0.1751 0.97752 0.25594 0.0
C984 C 0.14123 0.96247 0.25473 0.0
C985 C 0.13698 0.92684 0.25227 0.0
H986 H 0.17833 0.00511 0.25786 0.0
H987 H 0.14737 0.65977 0.22708 0.0
H988 H 0.84685 0.77368 0.65245 0.0
H989 H 0.81294 0.79849 0.68554 0.0
H990 H 0.90663 0.80261 0.73005 0.0
H991 H 0.94054 0.77737 0.69744 0.0
H992 H 0.85041 0.78404 0.75644 0.0
H993 H 0.88191 0.87336 0.69963 0.0
H994 H 0.88515 0.89904 0.65886 0.0
H995 H 0.77178 0.89675 0.65443 0.0
H996 H 0.76793 0.87077 0.69512 0.0
H997 H 0.80049 0.95656 0.81357 0.0
H998 H 0.82117 0.92448 0.77855 0.0
H999 H 0.7549 0.83755 0.79934 0.0
H1000 H 0.73497 0.86904 0.83485 0.0
H1001 H 0.7939 0.89534 0.73967 0.0
H1002 H 0.79809 0.76402 0.78829 0.0
H1003 H 0.80228 0.74115 0.82984 0.0
H1004 H 0.8571 0.83354 0.85266 0.0
H1005 H 0.85372 0.8567 0.81119 0.0
C1006 C 0.86017 0.77949 0.66937 0.0
C1007 C 0.89653 0.7738 0.67218 0.0
C1008 C 0.84075 0.7937 0.68824 0.0
C1009 C 0.8574 0.80273 0.71012 0.0
C1010 C 0.89326 0.79577 0.71332 0.0
C1011 C 0.91265 0.78147 0.69456 0.0
C1012 C 0.83831 0.82151 0.72918 0.0
C1013 C 0.83774 0.8082 0.75276 0.0
C1014 C 0.82251 0.85338 0.72444 0.0
C1015 C 0.82464 0.86987 0.70029 0.0
C1016 C 0.85769 0.87825 0.68991 0.0
C1017 C 0.85964 0.89286 0.66683 0.0
C1018 C 0.82871 0.89946 0.65403 0.0
C1019 C 0.79574 0.89163 0.66435 0.0
C1020 C 0.79365 0.87701 0.68744 0.0
C1021 C 0.79002 0.93075 0.81056 0.0
C1022 C 0.76651 0.91515 0.82718 0.0
C1023 C 0.80178 0.91248 0.79048 0.0
C1024 C 0.79003 0.87843 0.78658 0.0
C1025 C 0.76488 0.86355 0.80231 0.0
C1026 C 0.7535 0.8816 0.82257 0.0
C1027 C 0.80593 0.85787 0.76701 0.0
C1028 C 0.80598 0.87087 0.74332 0.0
C1029 C 0.82229 0.82623 0.77183 0.0
C1030 C 0.82526 0.81222 0.79671 0.0
C1031 C 0.81117 0.77936 0.80216 0.0
C1032 C 0.8134 0.76637 0.8257 0.0
C1033 C 0.82982 0.78594 0.8439 0.0
C1034 C 0.84427 0.81846 0.83857 0.0
C1035 C 0.8422 0.83153 0.81505 0.0
H1036 H 0.83143 0.77588 0.86212 0.0
H1037 H 0.83037 0.91068 0.63614 0.0
H1038 H 0.73317 0.18112 0.33244 0.0
H1039 H 0.76553 0.19905 0.2963 0.0
H1040 H 0.82927 0.10894 0.30114 0.0
H1041 H 0.79667 0.09038 0.33723 0.0
H1042 H 0.83331 0.21612 0.2921 0.0
H1043 H 0.85473 0.08569 0.24417 0.0
H1044 H 0.82416 0.02935 0.23936 0.0
H1045 H 0.72419 0.07599 0.25208 0.0
H1046 H 0.7541 0.13266 0.25663 0.0
H1047 H 0.97289 0.22854 0.20672 0.0
H1048 H 0.93361 0.20991 0.23953 0.0
H1049 H 0.84712 0.19907 0.18904 0.0
H1050 H 0.8861 0.21747 0.15604 0.0
H1051 H 0.85056 0.14398 0.21918 0.0
H1052 H 0.85025 0.26648 0.22573 0.0
H1053 H 0.87653 0.32493 0.22894 0.0
H1054 H 0.92585 0.29807 0.2961 0.0
H1055 H 0.90026 0.23927 0.2931 0.0
C1056 C 0.75382 0.16483 0.32575 0.0
C1057 C 0.76231 0.13426 0.33783 0.0
C1058 C 0.77237 0.17524 0.3051 0.0
C1059 C 0.79973 0.15532 0.296 0.0
C1060 C 0.80793 0.12449 0.30769 0.0
C1061 C 0.7893 0.11397 0.32836 0.0
C1062 C 0.82061 0.16764 0.27489 0.0
C1063 C 0.83705 0.20033 0.27615 0.0
C1064 C 0.82504 0.14726 0.25394 0.0
C1065 C 0.80673 0.11336 0.25098 0.0
C1066 C 0.82622 0.08394 0.24585 0.0
C1067 C 0.80901 0.05194 0.24318 0.0
C1068 C 0.77227 0.04908 0.24549 0.0
C1069 C 0.75266 0.07822 0.25039 0.0
C1070 C 0.76974 0.11028 0.25305 0.0
C1071 C 0.9455 0.22232 0.20255 0.0
C1072 C 0.93267 0.22466 0.17872 0.0
C1073 C 0.92308 0.21173 0.22135 0.0
C1074 C 0.88745 0.20331 0.2167 0.0
C1075 C 0.87456 0.20544 0.19297 0.0
C1076 C 0.89689 0.21615 0.17417 0.0
C1077 C 0.86363 0.19217 0.23661 0.0
C1078 C 0.84675 0.15971 0.23514 0.0
C1079 C 0.85821 0.21302 0.25718 0.0
C1080 C 0.87362 0.24837 0.25907 0.0
C1081 C 0.86695 0.27295 0.24108 0.0
C1082 C 0.88167 0.30616 0.24288 0.0
C1083 C 0.90292 0.31518 0.26268 0.0
C1084 C 0.90942 0.29103 0.28075 0.0
C1085 C 0.89479 0.25776 0.27902 0.0
H1086 H 0.91429 0.34091 0.26405 0.0
H1087 H 0.759 0.02428 0.24343 0.0
loop_
_geom_bond_atom_site_label_1
_geom_bond_atom_site_label_2
_geom_bond_distance
_geom_bond_site_symmetry_2
_ccdc_geom_bond_type
Mn0 O5 2.095 . S
Mn0 O15 2.162 . S
Mn0 O16 2.297 . S
Mn0 O24 2.385 . S
Mn0 O25 2.209 . S
Mn0 O26 2.094 . S
Mn1 O6 2.121 . S
Mn1 N8 2.257 1_455 S
Mn1 N17 2.282 1_455 S
Mn1 O25 2.215 . S
Mn1 O27 2.117 . S
C2 O24 1.234 . S
C2 O25 1.283 . S
C3 O15 1.281 . S
C3 O16 1.236 . S
C4 O26 1.240 . S
C4 O27 1.264 . S
O5 Mn0 2.095 . S
O5 C14 1.250 . S
O6 Mn1 2.121 . S
O6 C14 1.258 . S
C7 N8 1.326 . S
C7 C11 1.460 . S
C7 H13 0.929 1_655 S
N8 Mn1 2.257 1_655 S
N8 C7 1.326 . S
N8 C12 1.362 . S
C9 C10 1.258 . S
C9 C12 1.431 . S
C9 C29 1.449 . S
C10 C9 1.258 . S
C10 C11 1.477 . S
C10 H30 0.931 . S
C11 C7 1.460 . S
C11 C10 1.477 . S
C11 H31 0.930 . S
C12 N8 1.362 . S
C12 C9 1.431 . S
C12 C22 1.476 . S
H13 C7 0.929 1_455 S
C14 O5 1.250 . S
C14 O6 1.258 . S
O15 Mn0 2.162 . S
O15 C3 1.281 . S
O16 Mn0 2.297 . S
O16 C3 1.236 . S
N17 Mn1 2.282 1_655 S
N17 C18 1.328 . S
N17 C22 1.318 . S
C18 N17 1.328 . S
C18 C19 1.457 . S
C18 H23 0.929 . S
C19 C18 1.457 . S
C19 C20 1.291 . S
C19 H32 0.931 . S
C20 C19 1.291 . S
C20 C21 1.373 . S
C20 H33 0.929 . S
C21 C20 1.373 . S
C21 C22 1.396 . S
C21 C28 1.403 . S
C22 C12 1.476 . S
C22 N17 1.318 . S
C22 C21 1.396 . S
H23 C18 0.929 . S
O24 Mn0 2.385 . S
O24 C2 1.234 . S
O25 Mn0 2.209 . S
O25 Mn1 2.215 . S
O25 C2 1.283 . S
O26 Mn0 2.094 . S
O26 C4 1.240 . S
O27 Mn1 2.117 . S
O27 C4 1.264 . S
C28 C21 1.403 . S
C28 C29 1.399 . S
C28 H34 0.929 . S
C29 C9 1.449 . S
C29 C28 1.399 . S
C29 H35 0.930 . S
H30 C10 0.931 . S
H31 C11 0.930 . S
H32 C19 0.931 . S
H33 C20 0.929 . S
H34 C28 0.929 . S
H35 C29 0.930 . S
Mn36 O41 2.095 . S
Mn36 O51 2.162 . S
Mn36 O52 2.297 . S
Mn36 O60 2.385 . S
Mn36 O61 2.209 . S
Mn36 O62 2.094 . S
Mn37 O42 2.121 . S
Mn37 N44 2.257 . S
Mn37 N53 2.282 . S
Mn37 O61 2.215 . S
Mn37 O63 2.117 . S
C38 O60 1.234 . S
C38 O61 1.283 . S
C39 O51 1.281 . S
C39 O52 1.236 . S
C40 O62 1.240 . S
C40 O63 1.264 . S
O41 Mn36 2.095 . S
O41 C50 1.250 . S
O42 Mn37 2.121 . S
O42 C50 1.258 . S
C43 N44 1.326 . S
C43 C47 1.460 . S
C43 H49 0.929 . S
N44 Mn37 2.257 . S
N44 C43 1.326 . S
N44 C48 1.362 . S
C45 C46 1.258 . S
C45 C48 1.431 . S
C45 C65 1.449 . S
C46 C45 1.258 . S
C46 C47 1.477 . S
C46 H66 0.931 . S
C47 C43 1.460 . S
C47 C46 1.477 . S
C47 H67 0.930 . S
C48 N44 1.362 . S
C48 C45 1.431 . S
C48 C58 1.476 . S
H49 C43 0.929 . S
C50 O41 1.250 . S
C50 O42 1.258 . S
O51 Mn36 2.162 . S
O51 C39 1.281 . S
O52 Mn36 2.297 . S
O52 C39 1.236 . S
N53 Mn37 2.282 . S
N53 C54 1.328 . S
N53 C58 1.318 . S
C54 N53 1.328 . S
C54 C55 1.457 . S
C54 H59 0.929 . S
C55 C54 1.457 . S
C55 C56 1.291 . S
C55 H68 0.931 . S
C56 C55 1.291 . S
C56 C57 1.373 . S
C56 H69 0.929 . S
C57 C56 1.373 . S
C57 C58 1.396 . S
C57 C64 1.403 . S
C58 C48 1.476 . S
C58 N53 1.318 . S
C58 C57 1.396 . S
H59 C54 0.929 . S
O60 Mn36 2.385 . S
O60 C38 1.234 . S
O61 Mn36 2.209 . S
O61 Mn37 2.215 . S
O61 C38 1.283 . S
O62 Mn36 2.094 . S
O62 C40 1.240 . S
O63 Mn37 2.117 . S
O63 C40 1.264 . S
C64 C57 1.403 . S
C64 C65 1.399 . S
C64 H70 0.929 . S
C65 C45 1.449 . S
C65 C64 1.399 . S
C65 H71 0.930 . S
H66 C46 0.931 . S
H67 C47 0.930 . S
H68 C55 0.931 . S
H69 C56 0.929 . S
H70 C64 0.929 . S
H71 C65 0.930 . S
Mn72 O77 2.095 . S
Mn72 O87 2.162 . S
Mn72 O88 2.297 . S
Mn72 O96 2.385 . S
Mn72 O97 2.209 . S
Mn72 O98 2.094 . S
Mn73 O78 2.121 . S
Mn73 N80 2.257 1_655 S
Mn73 N89 2.282 1_655 S
Mn73 O97 2.215 . S
Mn73 O99 2.117 . S
C74 O96 1.234 . S
C74 O97 1.283 . S
C75 O87 1.281 . S
C75 O88 1.236 . S
C76 O98 1.240 . S
C76 O99 1.264 . S
O77 Mn72 2.095 . S
O77 C86 1.250 . S
O78 Mn73 2.121 . S
O78 C86 1.258 . S
C79 N80 1.326 . S
C79 C83 1.460 . S
C79 H85 0.929 1_455 S
N80 Mn73 2.257 1_455 S
N80 C79 1.326 . S
N80 C84 1.362 . S
C81 C82 1.258 . S
C81 C84 1.431 . S
C81 C101 1.449 . S
C82 C81 1.258 . S
C82 C83 1.477 . S
C82 H102 0.931 . S
C83 C79 1.460 . S
C83 C82 1.477 . S
C83 H103 0.930 . S
C84 N80 1.362 . S
C84 C81 1.431 . S
C84 C94 1.476 . S
H85 C79 0.929 1_655 S
C86 O77 1.250 . S
C86 O78 1.258 . S
O87 Mn72 2.162 . S
O87 C75 1.281 . S
O88 Mn72 2.297 . S
O88 C75 1.236 . S
N89 Mn73 2.282 1_455 S
N89 C90 1.328 . S
N89 C94 1.318 . S
C90 N89 1.328 . S
C90 C91 1.457 . S
C90 H95 0.929 . S
C91 C90 1.457 . S
C91 C92 1.291 . S
C91 H104 0.931 . S
C92 C91 1.291 . S
C92 C93 1.373 . S
C92 H105 0.929 . S
C93 C92 1.373 . S
C93 C94 1.396 . S
C93 C100 1.403 . S
C94 C84 1.476 . S
C94 N89 1.318 . S
C94 C93 1.396 . S
H95 C90 0.929 . S
O96 Mn72 2.385 . S
O96 C74 1.234 . S
O97 Mn72 2.209 . S
O97 Mn73 2.215 . S
O97 C74 1.283 . S
O98 Mn72 2.094 . S
O98 C76 1.240 . S
O99 Mn73 2.117 . S
O99 C76 1.264 . S
C100 C93 1.403 . S
C100 C101 1.399 . S
C100 H106 0.929 . S
C101 C81 1.449 . S
C101 C100 1.399 . S
C101 H107 0.930 . S
H102 C82 0.931 . S
H103 C83 0.930 . S
H104 C91 0.931 . S
H105 C92 0.929 . S
H106 C100 0.929 . S
H107 C101 0.930 . S
Mn108 O113 2.095 . S
Mn108 O123 2.162 . S
Mn108 O124 2.297 . S
Mn108 O132 2.385 . S
Mn108 O133 2.209 . S
Mn108 O134 2.094 . S
Mn109 O114 2.121 . S
Mn109 N116 2.257 . S
Mn109 N125 2.282 . S
Mn109 O133 2.215 . S
Mn109 O135 2.117 . S
C110 O132 1.234 . S
C110 O133 1.283 . S
C111 O123 1.281 . S
C111 O124 1.236 . S
C112 O134 1.240 . S
C112 O135 1.264 . S
O113 Mn108 2.095 . S
O113 C122 1.250 . S
O114 Mn109 2.121 . S
O114 C122 1.258 . S
C115 N116 1.326 . S
C115 C119 1.460 . S
C115 H121 0.929 . S
N116 Mn109 2.257 . S
N116 C115 1.326 . S
N116 C120 1.362 . S
C117 C118 1.258 . S
C117 C120 1.431 . S
C117 C137 1.449 . S
C118 C117 1.258 . S
C118 C119 1.477 . S
C118 H138 0.931 . S
C119 C115 1.460 . S
C119 C118 1.477 . S
C119 H139 0.930 . S
C120 N116 1.362 . S
C120 C117 1.431 . S
C120 C130 1.476 . S
H121 C115 0.929 . S
C122 O113 1.250 . S
C122 O114 1.258 . S
O123 Mn108 2.162 . S
O123 C111 1.281 . S
O124 Mn108 2.297 . S
O124 C111 1.236 . S
N125 Mn109 2.282 . S
N125 C126 1.328 . S
N125 C130 1.318 . S
C126 N125 1.328 . S
C126 C127 1.457 . S
C126 H131 0.929 . S
C127 C126 1.457 . S
C127 C128 1.291 . S
C127 H140 0.931 . S
C128 C127 1.291 . S
C128 C129 1.373 . S
C128 H141 0.929 . S
C129 C128 1.373 . S
C129 C130 1.396 . S
C129 C136 1.403 . S
C130 C120 1.476 . S
C130 N125 1.318 . S
C130 C129 1.396 . S
H131 C126 0.929 . S
O132 Mn108 2.385 . S
O132 C110 1.234 . S
O133 Mn108 2.209 . S
O133 Mn109 2.215 . S
O133 C110 1.283 . S
O134 Mn108 2.094 . S
O134 C112 1.240 . S
O135 Mn109 2.117 . S
O135 C112 1.264 . S
C136 C129 1.403 . S
C136 C137 1.399 . S
C136 H142 0.929 . S
C137 C117 1.449 . S
C137 C136 1.399 . S
C137 H143 0.930 . S
H138 C118 0.931 . S
H139 C119 0.930 . S
H140 C127 0.931 . S
H141 C128 0.929 . S
H142 C136 0.929 . S
H143 C137 0.930 . S
Mn144 O149 2.095 . S
Mn144 O159 2.162 . S
Mn144 O160 2.297 . S
Mn144 O168 2.385 . S
Mn144 O169 2.209 . S
Mn144 O170 2.094 . S
Mn145 O150 2.121 . S
Mn145 N152 2.257 1_655 S
Mn145 N161 2.282 1_655 S
Mn145 O169 2.215 . S
Mn145 O171 2.117 . S
C146 O168 1.234 . S
C146 O169 1.283 . S
C147 O159 1.281 . S
C147 O160 1.236 . S
C148 O170 1.240 . S
C148 O171 1.264 . S
O149 Mn144 2.095 . S
O149 C158 1.250 . S
O150 Mn145 2.121 . S
O150 C158 1.258 . S
C151 N152 1.326 . S
C151 C155 1.460 . S
C151 H157 0.929 1_455 S
N152 Mn145 2.257 1_455 S
N152 C151 1.326 . S
N152 C156 1.362 . S
C153 C154 1.258 . S
C153 C156 1.431 . S
C153 C173 1.449 . S
C154 C153 1.258 . S
C154 C155 1.477 . S
C154 H174 0.931 . S
C155 C151 1.460 . S
C155 C154 1.477 . S
C155 H175 0.930 . S
C156 N152 1.362 . S
C156 C153 1.431 . S
C156 C166 1.476 . S
H157 C151 0.929 1_655 S
C158 O149 1.250 . S
C158 O150 1.258 . S
O159 Mn144 2.162 . S
O159 C147 1.281 . S
O160 Mn144 2.297 . S
O160 C147 1.236 . S
N161 Mn145 2.282 1_455 S
N161 C162 1.328 . S
N161 C166 1.318 . S
C162 N161 1.328 . S
C162 C163 1.457 . S
C162 H167 0.925 1_455 S
C163 C162 1.457 . S
C163 C164 1.291 . S
C163 H176 0.931 . S
C164 C163 1.291 . S
C164 C165 1.373 . S
C164 H177 0.929 . S
C165 C164 1.373 . S
C165 C166 1.396 . S
C165 C172 1.403 . S
C166 C156 1.476 . S
C166 N161 1.318 . S
C166 C165 1.396 . S
H167 C162 0.925 1_655 S
O168 Mn144 2.385 . S
O168 C146 1.234 . S
O169 Mn144 2.209 . S
O169 Mn145 2.215 . S
O169 C146 1.283 . S
O170 Mn144 2.094 . S
O170 C148 1.240 . S
O171 Mn145 2.117 . S
O171 C148 1.264 . S
C172 C165 1.403 . S
C172 C173 1.399 . S
C172 H178 0.929 . S
C173 C153 1.449 . S
C173 C172 1.399 . S
C173 H179 0.930 . S
H174 C154 0.931 . S
H175 C155 0.930 . S
H176 C163 0.931 . S
H177 C164 0.929 . S
H178 C172 0.929 . S
H179 C173 0.930 . S
Mn180 O185 2.095 . S
Mn180 O195 2.162 . S
Mn180 O196 2.297 . S
Mn180 O204 2.385 . S
Mn180 O205 2.209 . S
Mn180 O206 2.094 . S
Mn181 O186 2.121 . S
Mn181 N188 2.255 1_545 S
Mn181 N197 2.282 1_545 S
Mn181 O205 2.215 . S
Mn181 O207 2.117 . S
C182 O204 1.234 . S
C182 O205 1.283 . S
C183 O195 1.281 . S
C183 O196 1.236 . S
C184 O206 1.240 . S
C184 O207 1.264 . S
O185 Mn180 2.095 . S
O185 C194 1.250 . S
O186 Mn181 2.121 . S
O186 C194 1.258 . S
C187 N188 1.326 1_545 S
C187 C191 1.460 1_545 S
C187 H193 0.929 . S
N188 Mn181 2.255 1_565 S
N188 C187 1.326 1_565 S
N188 C192 1.366 . S
C189 C190 1.258 . S
C189 C192 1.431 . S
C189 C209 1.449 . S
C190 C189 1.258 . S
C190 C191 1.477 . S
C190 H210 0.931 . S
C191 C187 1.460 1_565 S
C191 C190 1.477 . S
C191 H211 0.930 . S
C192 N188 1.366 . S
C192 C189 1.431 . S
C192 C202 1.476 . S
H193 C187 0.929 . S
C194 O185 1.250 . S
C194 O186 1.258 . S
O195 Mn180 2.162 . S
O195 C183 1.281 . S
O196 Mn180 2.297 . S
O196 C183 1.236 . S
N197 Mn181 2.282 1_565 S
N197 C198 1.328 . S
N197 C202 1.318 . S
C198 N197 1.328 . S
C198 C199 1.457 . S
C198 H203 0.929 1_565 S
C199 C198 1.457 . S
C199 C200 1.291 . S
C199 H212 0.931 . S
C200 C199 1.291 . S
C200 C201 1.373 . S
C200 H213 0.929 . S
C201 C200 1.373 . S
C201 C202 1.396 . S
C201 C208 1.403 . S
C202 C192 1.476 . S
C202 N197 1.318 . S
C202 C201 1.396 . S
H203 C198 0.929 1_545 S
O204 Mn180 2.385 . S
O204 C182 1.234 . S
O205 Mn180 2.209 . S
O205 Mn181 2.215 . S
O205 C182 1.283 . S
O206 Mn180 2.094 . S
O206 C184 1.240 . S
O207 Mn181 2.117 . S
O207 C184 1.264 . S
C208 C201 1.403 . S
C208 C209 1.399 . S
C208 H214 0.929 . S
C209 C189 1.449 . S
C209 C208 1.399 . S
C209 H215 0.930 . S
H210 C190 0.931 . S
H211 C191 0.930 . S
H212 C199 0.931 . S
H213 C200 0.929 . S
H214 C208 0.929 . S
H215 C209 0.930 . S
Mn216 O221 2.095 . S
Mn216 O231 2.162 . S
Mn216 O232 2.297 . S
Mn216 O240 2.385 . S
Mn216 O241 2.209 . S
Mn216 O242 2.094 . S
Mn217 O222 2.121 . S
Mn217 N224 2.257 1_455 S
Mn217 N233 2.282 1_455 S
Mn217 O241 2.215 . S
Mn217 O243 2.117 . S
C218 O240 1.234 . S
C218 O241 1.283 . S
C219 O231 1.281 . S
C219 O232 1.236 . S
C220 O242 1.240 . S
C220 O243 1.264 . S
O221 Mn216 2.095 . S
O221 C230 1.250 . S
O222 Mn217 2.121 . S
O222 C230 1.258 . S
C223 N224 1.326 . S
C223 C227 1.460 . S
C223 H229 0.929 1_655 S
N224 Mn217 2.257 1_655 S
N224 C223 1.326 . S
N224 C228 1.362 . S
C225 C226 1.258 . S
C225 C228 1.431 . S
C225 C245 1.449 . S
C226 C225 1.258 . S
C226 C227 1.477 . S
C226 H246 0.931 . S
C227 C223 1.460 . S
C227 C226 1.477 . S
C227 H247 0.930 . S
C228 N224 1.362 . S
C228 C225 1.431 . S
C228 C238 1.476 . S
H229 C223 0.929 1_455 S
C230 O221 1.250 . S
C230 O222 1.258 . S
O231 Mn216 2.162 . S
O231 C219 1.281 . S
O232 Mn216 2.297 . S
O232 C219 1.236 . S
N233 Mn217 2.282 1_655 S
N233 C234 1.328 . S
N233 C238 1.318 . S
C234 N233 1.328 . S
C234 C235 1.457 . S
C234 H239 0.925 1_655 S
C235 C234 1.457 . S
C235 C236 1.291 . S
C235 H248 0.931 . S
C236 C235 1.291 . S
C236 C237 1.373 . S
C236 H249 0.929 . S
C237 C236 1.373 . S
C237 C238 1.396 . S
C237 C244 1.403 . S
C238 C228 1.476 . S
C238 N233 1.318 . S
C238 C237 1.396 . S
H239 C234 0.925 1_455 S
O240 Mn216 2.385 . S
O240 C218 1.234 . S
O241 Mn216 2.209 . S
O241 Mn217 2.215 . S
O241 C218 1.283 . S
O242 Mn216 2.094 . S
O242 C220 1.240 . S
O243 Mn217 2.117 . S
O243 C220 1.264 . S
C244 C237 1.403 . S
C244 C245 1.399 . S
C244 H250 0.929 . S
C245 C225 1.449 . S
C245 C244 1.399 . S
C245 H251 0.930 . S
H246 C226 0.931 . S
H247 C227 0.930 . S
H248 C235 0.931 . S
H249 C236 0.929 . S
H250 C244 0.929 . S
H251 C245 0.930 . S
Mn252 O257 2.095 . S
Mn252 O267 2.162 . S
Mn252 O268 2.297 . S
Mn252 O276 2.385 . S
Mn252 O277 2.209 . S
Mn252 O278 2.094 . S
Mn253 O258 2.121 . S
Mn253 N260 2.255 1_565 S
Mn253 N269 2.282 1_565 S
Mn253 O277 2.215 . S
Mn253 O279 2.117 . S
C254 O276 1.234 . S
C254 O277 1.283 . S
C255 O267 1.281 . S
C255 O268 1.236 . S
C256 O278 1.240 . S
C256 O279 1.264 . S
O257 Mn252 2.095 . S
O257 C266 1.250 . S
O258 Mn253 2.121 . S
O258 C266 1.258 . S
C259 N260 1.326 1_565 S
C259 C263 1.460 1_565 S
C259 H265 0.929 . S
N260 Mn253 2.255 1_545 S
N260 C259 1.326 1_545 S
N260 C264 1.366 . S
C261 C262 1.258 . S
C261 C264 1.431 . S
C261 C281 1.449 . S
C262 C261 1.258 . S
C262 C263 1.477 . S
C262 H282 0.931 . S
C263 C259 1.460 1_545 S
C263 C262 1.477 . S
C263 H283 0.930 . S
C264 N260 1.366 . S
C264 C261 1.431 . S
C264 C274 1.476 . S
H265 C259 0.929 . S
C266 O257 1.250 . S
C266 O258 1.258 . S
O267 Mn252 2.162 . S
O267 C255 1.281 . S
O268 Mn252 2.297 . S
O268 C255 1.236 . S
N269 Mn253 2.282 1_545 S
N269 C270 1.328 . S
N269 C274 1.318 . S
C270 N269 1.328 . S
C270 C271 1.457 . S
C270 H275 0.929 1_545 S
C271 C270 1.457 . S
C271 C272 1.291 . S
C271 H284 0.931 . S
C272 C271 1.291 . S
C272 C273 1.373 . S
C272 H285 0.929 . S
C273 C272 1.373 . S
C273 C274 1.396 . S
C273 C280 1.403 . S
C274 C264 1.476 . S
C274 N269 1.318 . S
C274 C273 1.396 . S
H275 C270 0.929 1_565 S
O276 Mn252 2.385 . S
O276 C254 1.234 . S
O277 Mn252 2.209 . S
O277 Mn253 2.215 . S
O277 C254 1.283 . S
O278 Mn252 2.094 . S
O278 C256 1.240 . S
O279 Mn253 2.117 . S
O279 C256 1.264 . S
C280 C273 1.403 . S
C280 C281 1.399 . S
C280 H286 0.929 . S
C281 C261 1.449 . S
C281 C280 1.399 . S
C281 H287 0.930 . S
H282 C262 0.931 . S
H283 C263 0.930 . S
H284 C271 0.931 . S
H285 C272 0.929 . S
H286 C280 0.929 . S
H287 C281 0.930 . S
H288 C306 0.951 . S
H289 C308 0.951 1_455 S
H290 C310 0.950 . S
H291 C311 0.950 . S
H292 C313 0.950 . S
H293 C316 0.950 . S
H294 C317 0.950 . S
H295 C319 0.950 . S
H296 C320 0.950 . S
H297 C321 0.951 . S
H298 C323 0.951 1_655 S
H299 C325 0.950 . S
H300 C326 0.950 . S
H301 C328 0.950 . S
H302 C331 0.950 . S
H303 C332 0.950 . S
H304 C334 0.950 . S
H305 C335 0.950 . S
C306 H288 0.951 . S
C306 C307 1.366 . S
C306 C308 1.388 . S
C307 C306 1.366 . S
C307 C311 1.385 . S
C308 H289 0.951 1_655 S
C308 C306 1.388 . S
C308 C309 1.366 . S
C309 C308 1.366 . S
C309 C310 1.414 . S
C309 C312 1.499 . S
C310 H290 0.950 . S
C310 C309 1.414 . S
C310 C311 1.374 . S
C311 H291 0.950 . S
C311 C307 1.385 . S
C311 C310 1.374 . S
C312 C309 1.499 . S
C312 C313 1.373 . S
C312 C314 1.389 1_655 S
C313 H292 0.950 . S
C313 C312 1.373 . S
C313 C329 1.377 . S
C314 C312 1.389 1_455 S
C314 C315 1.524 . S
C314 C328 1.377 . S
C315 C314 1.524 . S
C315 C316 1.397 . S
C315 C320 1.363 . S
C316 H293 0.950 . S
C316 C315 1.397 . S
C316 C317 1.334 . S
C317 H294 0.950 . S
C317 C316 1.334 . S
C317 C318 1.287 . S
C318 C317 1.287 . S
C318 C319 1.524 . S
C318 H337 0.913 . S
C319 H295 0.950 . S
C319 C318 1.524 . S
C319 C320 1.415 . S
C320 H296 0.950 . S
C320 C315 1.363 . S
C320 C319 1.415 . S
C321 H297 0.951 . S
C321 C322 1.366 . S
C321 C323 1.388 . S
C322 C321 1.366 . S
C322 C326 1.385 . S
C323 H298 0.951 1_455 S
C323 C321 1.388 . S
C323 C324 1.366 . S
C324 C323 1.366 . S
C324 C325 1.414 . S
C324 C327 1.499 . S
C325 H299 0.950 . S
C325 C324 1.414 . S
C325 C326 1.374 . S
C326 H300 0.950 . S
C326 C322 1.385 . S
C326 C325 1.374 . S
C327 C324 1.499 . S
C327 C328 1.373 . S
C327 C329 1.389 1_455 S
C328 H301 0.950 . S
C328 C314 1.377 . S
C328 C327 1.373 . S
C329 C313 1.377 . S
C329 C327 1.389 1_655 S
C329 C330 1.524 . S
C330 C329 1.524 . S
C330 C331 1.397 . S
C330 C335 1.363 . S
C331 H302 0.950 . S
C331 C330 1.397 . S
C331 C332 1.334 . S
C332 H303 0.950 . S
C332 C331 1.334 . S
C332 C333 1.287 . S
C333 C332 1.287 . S
C333 C334 1.524 . S
C333 H336 0.999 . S
C334 H304 0.950 . S
C334 C333 1.524 . S
C334 C335 1.415 . S
C335 H305 0.950 . S
C335 C330 1.363 . S
C335 C334 1.415 . S
H336 C333 0.999 . S
H337 C318 0.913 . S
H338 C356 0.951 . S
H339 C358 0.951 . S
H340 C360 0.950 1_565 S
H341 C361 0.950 . S
H342 C363 0.950 . S
H343 C366 0.950 . S
H344 C367 0.950 . S
H345 C369 0.950 . S
H346 C370 0.950 . S
H347 C371 0.951 . S
H348 C373 0.951 . S
H349 C375 0.950 1_545 S
H350 C376 0.950 . S
H351 C378 0.950 . S
H352 C381 0.950 . S
H353 C382 0.950 . S
H354 C384 0.950 . S
H355 C385 0.950 . S
C356 H338 0.951 . S
C356 C357 1.366 . S
C356 C358 1.388 . S
C357 C356 1.366 . S
C357 C361 1.385 . S
C358 H339 0.951 . S
C358 C356 1.388 . S
C358 C359 1.366 . S
C359 C358 1.366 . S
C359 C360 1.414 . S
C359 C362 1.499 . S
C360 H340 0.950 1_545 S
C360 C359 1.414 . S
C360 C361 1.374 . S
C361 H341 0.950 . S
C361 C357 1.385 . S
C361 C360 1.374 . S
C362 C359 1.499 . S
C362 C363 1.373 1_545 S
C362 C364 1.389 . S
C363 H342 0.950 . S
C363 C362 1.373 1_565 S
C363 C379 1.377 . S
C364 C362 1.389 . S
C364 C365 1.524 . S
C364 C378 1.377 . S
C365 C364 1.524 . S
C365 C366 1.397 . S
C365 C370 1.363 . S
C366 H343 0.950 . S
C366 C365 1.397 . S
C366 C367 1.334 . S
C367 H344 0.950 . S
C367 C366 1.334 . S
C367 C368 1.287 . S
C368 C367 1.287 . S
C368 C369 1.524 . S
C368 H387 0.913 . S
C369 H345 0.950 . S
C369 C368 1.524 . S
C369 C370 1.415 . S
C370 H346 0.950 . S
C370 C365 1.363 . S
C370 C369 1.415 . S
C371 H347 0.951 . S
C371 C372 1.366 . S
C371 C373 1.388 . S
C372 C371 1.366 . S
C372 C376 1.385 . S
C373 H348 0.951 . S
C373 C371 1.388 . S
C373 C374 1.366 . S
C374 C373 1.366 . S
C374 C375 1.414 . S
C374 C377 1.499 . S
C375 H349 0.950 1_565 S
C375 C374 1.414 . S
C375 C376 1.374 . S
C376 H350 0.950 . S
C376 C372 1.385 . S
C376 C375 1.374 . S
C377 C374 1.499 . S
C377 C378 1.373 1_565 S
C377 C379 1.389 . S
C378 H351 0.950 . S
C378 C364 1.377 . S
C378 C377 1.373 1_545 S
C379 C363 1.377 . S
C379 C377 1.389 . S
C379 C380 1.524 . S
C380 C379 1.524 . S
C380 C381 1.397 . S
C380 C385 1.363 . S
C381 H352 0.950 . S
C381 C380 1.397 . S
C381 C382 1.334 . S
C382 H353 0.950 . S
C382 C381 1.334 . S
C382 C383 1.287 . S
C383 C382 1.287 . S
C383 C384 1.524 . S
C383 H386 0.999 . S
C384 H354 0.950 . S
C384 C383 1.524 . S
C384 C385 1.415 . S
C385 H355 0.950 . S
C385 C380 1.363 . S
C385 C384 1.415 . S
H386 C383 0.999 . S
H387 C368 0.913 . S
H388 C406 0.951 . S
H389 C408 0.951 . S
H390 C410 0.950 . S
H391 C411 0.950 . S
H392 C413 0.950 . S
H393 C416 0.950 . S
H394 C417 0.950 . S
H395 C419 0.967 . S
H396 C420 0.950 . S
H397 C421 0.951 . S
H398 C423 0.951 . S
H399 C425 0.950 . S
H400 C426 0.950 . S
H401 C428 0.950 . S
H402 C431 0.950 . S
H403 C432 0.950 . S
H404 C434 0.950 . S
H405 C435 0.950 . S
C406 H388 0.951 . S
C406 C407 1.366 . S
C406 C408 1.388 . S
C407 C406 1.366 . S
C407 C411 1.385 . S
C408 H389 0.951 . S
C408 C406 1.388 . S
C408 C409 1.366 . S
C409 C408 1.366 . S
C409 C410 1.414 . S
C409 C412 1.499 . S
C410 H390 0.950 . S
C410 C409 1.414 . S
C410 C411 1.374 . S
C411 H391 0.950 . S
C411 C407 1.385 . S
C411 C410 1.374 . S
C412 C409 1.499 . S
C412 C413 1.373 . S
C412 C414 1.389 . S
C413 H392 0.950 . S
C413 C412 1.373 . S
C413 C429 1.377 1_655 S
C414 C412 1.389 . S
C414 C415 1.524 . S
C414 C428 1.377 1_655 S
C415 C414 1.524 . S
C415 C416 1.397 1_655 S
C415 C420 1.363 . S
C416 H393 0.950 . S
C416 C415 1.397 1_455 S
C416 C417 1.334 . S
C417 H394 0.950 . S
C417 C416 1.334 . S
C417 C418 1.287 1_454 S
C418 C417 1.287 1_656 S
C418 C419 1.525 . S
C418 H437 0.913 . S
C419 H395 0.967 . S
C419 C418 1.525 . S
C419 C420 1.395 1_556 S
C420 H396 0.950 . S
C420 C415 1.363 . S
C420 C419 1.395 1_554 S
C421 H397 0.951 . S
C421 C422 1.366 . S
C421 C423 1.388 . S
C422 C421 1.366 . S
C422 C426 1.385 . S
C423 H398 0.951 . S
C423 C421 1.388 . S
C423 C424 1.366 . S
C424 C423 1.366 . S
C424 C425 1.414 . S
C424 C427 1.499 . S
C425 H399 0.950 . S
C425 C424 1.414 . S
C425 C426 1.374 . S
C426 H400 0.950 . S
C426 C422 1.385 . S
C426 C425 1.374 . S
C427 C424 1.499 . S
C427 C428 1.373 . S
C427 C429 1.389 . S
C428 H401 0.950 . S
C428 C414 1.377 1_455 S
C428 C427 1.373 . S
C429 C413 1.377 1_455 S
C429 C427 1.389 . S
C429 C430 1.524 . S
C430 C429 1.524 . S
C430 C431 1.397 1_455 S
C430 C435 1.363 . S
C431 H402 0.950 . S
C431 C430 1.397 1_655 S
C431 C432 1.334 . S
C432 H403 0.950 . S
C432 C431 1.334 . S
C432 C433 1.287 1_655 S
C433 C432 1.287 1_455 S
C433 C434 1.524 . S
C433 H436 0.999 . S
C434 H404 0.950 . S
C434 C433 1.524 . S
C434 C435 1.415 . S
C435 H405 0.950 . S
C435 C430 1.363 . S
C435 C434 1.415 . S
H436 C433 0.999 . S
H437 C418 0.913 . S
H438 C456 0.951 . S
H439 C458 0.949 . S
H440 C460 0.950 . S
H441 C461 0.950 . S
H442 C463 0.950 . S
H443 C466 0.950 . S
H444 C467 0.968 . S
H445 C469 0.950 . S
H446 C470 0.950 . S
H447 C471 0.951 . S
H448 C473 0.949 . S
H449 C475 0.950 . S
H450 C476 0.950 . S
H451 C478 0.950 . S
H452 C481 0.950 . S
H453 C482 0.968 . S
H454 C484 0.950 . S
H455 C485 0.950 . S
C456 H438 0.951 . S
C456 C457 1.366 . S
C456 C458 1.388 . S
C457 C456 1.366 . S
C457 C461 1.385 . S
C458 H439 0.949 . S
C458 C456 1.388 . S
C458 C459 1.366 . S
C459 C458 1.366 . S
C459 C460 1.414 . S
C459 C462 1.499 . S
C460 H440 0.950 . S
C460 C459 1.414 . S
C460 C461 1.374 . S
C461 H441 0.950 . S
C461 C457 1.385 . S
C461 C460 1.374 . S
C462 C459 1.499 . S
C462 C463 1.373 . S
C462 C464 1.389 1_545 S
C463 H442 0.950 . S
C463 C462 1.373 . S
C463 C479 1.377 . S
C464 C462 1.389 1_565 S
C464 C465 1.524 . S
C464 C478 1.377 . S
C465 C464 1.524 . S
C465 C466 1.397 1_565 S
C465 C470 1.363 . S
C466 H443 0.950 . S
C466 C465 1.397 1_545 S
C466 C467 1.338 . S
C467 H444 0.968 . S
C467 C466 1.338 . S
C467 C468 1.264 1_545 S
C468 C467 1.264 1_565 S
C468 C469 1.524 . S
C468 H487 0.913 . S
C469 H445 0.950 . S
C469 C468 1.524 . S
C469 C470 1.415 . S
C470 H446 0.950 . S
C470 C465 1.363 . S
C470 C469 1.415 . S
C471 H447 0.951 . S
C471 C472 1.366 . S
C471 C473 1.388 . S
C472 C471 1.366 . S
C472 C476 1.385 . S
C473 H448 0.949 . S
C473 C471 1.388 . S
C473 C474 1.366 . S
C474 C473 1.366 . S
C474 C475 1.414 . S
C474 C477 1.499 . S
C475 H449 0.950 . S
C475 C474 1.414 . S
C475 C476 1.374 . S
C476 H450 0.950 . S
C476 C472 1.385 . S
C476 C475 1.374 . S
C477 C474 1.499 . S
C477 C478 1.373 . S
C477 C479 1.389 1_565 S
C478 H451 0.950 . S
C478 C464 1.377 . S
C478 C477 1.373 . S
C479 C463 1.377 . S
C479 C477 1.389 1_545 S
C479 C480 1.524 . S
C480 C479 1.524 . S
C480 C481 1.397 1_545 S
C480 C485 1.363 . S
C481 H452 0.950 . S
C481 C480 1.397 1_565 S
C481 C482 1.338 . S
C482 H453 0.968 . S
C482 C481 1.338 . S
C482 C483 1.264 1_565 S
C483 C482 1.264 1_545 S
C483 C484 1.524 . S
C483 H486 0.999 . S
C484 H454 0.950 . S
C484 C483 1.524 . S
C484 C485 1.415 . S
C485 H455 0.950 . S
C485 C480 1.363 . S
C485 C484 1.415 . S
H486 C483 0.999 . S
H487 C468 0.913 . S
H488 C506 0.951 . S
H489 C508 0.951 . S
H490 C510 0.950 . S
H491 C511 0.950 . S
H492 C513 0.950 . S
H493 C516 0.950 . S
H494 C517 0.950 . S
H495 C519 0.950 . S
H496 C520 0.950 . S
H497 C521 0.951 . S
H498 C523 0.951 . S
H499 C525 0.950 . S
H500 C526 0.950 . S
H501 C528 0.950 . S
H502 C531 0.950 . S
H503 C532 0.950 . S
H504 C534 0.950 . S
H505 C535 0.950 . S
C506 H488 0.951 . S
C506 C507 1.366 1_545 S
C506 C508 1.388 . S
C507 C506 1.366 1_565 S
C507 C511 1.385 . S
C508 H489 0.951 . S
C508 C506 1.388 . S
C508 C509 1.366 . S
C509 C508 1.366 . S
C509 C510 1.414 . S
C509 C512 1.499 . S
C510 H490 0.950 . S
C510 C509 1.414 . S
C510 C511 1.374 1_545 S
C511 H491 0.950 . S
C511 C507 1.385 . S
C511 C510 1.374 1_565 S
C512 C509 1.499 . S
C512 C513 1.373 . S
C512 C514 1.389 . S
C513 H492 0.950 . S
C513 C512 1.373 . S
C513 C529 1.377 . S
C514 C512 1.389 . S
C514 C515 1.524 . S
C514 C528 1.377 . S
C515 C514 1.524 . S
C515 C516 1.397 . S
C515 C520 1.363 . S
C516 H493 0.950 . S
C516 C515 1.397 . S
C516 C517 1.334 . S
C517 H494 0.950 . S
C517 C516 1.334 . S
C517 C518 1.287 . S
C518 C517 1.287 . S
C518 C519 1.524 . S
C518 H537 0.913 . S
C519 H495 0.950 . S
C519 C518 1.524 . S
C519 C520 1.415 . S
C520 H496 0.950 . S
C520 C515 1.363 . S
C520 C519 1.415 . S
C521 H497 0.951 . S
C521 C522 1.366 . S
C521 C523 1.388 . S
C522 C521 1.366 . S
C522 C526 1.385 . S
C523 H498 0.951 . S
C523 C521 1.388 . S
C523 C524 1.366 . S
C524 C523 1.366 . S
C524 C525 1.414 . S
C524 C527 1.499 . S
C525 H499 0.950 . S
C525 C524 1.414 . S
C525 C526 1.374 . S
C526 H500 0.950 . S
C526 C522 1.385 . S
C526 C525 1.374 . S
C527 C524 1.499 . S
C527 C528 1.373 . S
C527 C529 1.389 . S
C528 H501 0.950 . S
C528 C514 1.377 . S
C528 C527 1.373 . S
C529 C513 1.377 . S
C529 C527 1.389 . S
C529 C530 1.524 . S
C530 C529 1.524 . S
C530 C531 1.397 . S
C530 C535 1.363 . S
C531 H502 0.950 . S
C531 C530 1.397 . S
C531 C532 1.334 . S
C532 H503 0.950 . S
C532 C531 1.334 . S
C532 C533 1.287 . S
C533 C532 1.287 . S
C533 C534 1.524 . S
C533 H536 0.999 . S
C534 H504 0.950 . S
C534 C533 1.524 . S
C534 C535 1.415 . S
C535 H505 0.950 . S
C535 C530 1.363 . S
C535 C534 1.415 . S
H536 C533 0.999 . S
H537 C518 0.913 . S
H538 C556 0.951 . S
H539 C558 0.951 . S
H540 C560 0.950 . S
H541 C561 0.950 . S
H542 C563 0.950 . S
H543 C566 0.950 . S
H544 C567 0.950 . S
H545 C569 0.950 . S
H546 C570 0.950 . S
H547 C571 0.951 . S
H548 C573 0.951 . S
H549 C575 0.950 . S
H550 C576 0.950 . S
H551 C578 0.950 . S
H552 C581 0.950 . S
H553 C582 0.950 . S
H554 C584 0.950 . S
H555 C585 0.950 . S
C556 H538 0.951 . S
C556 C557 1.366 . S
C556 C558 1.388 . S
C557 C556 1.366 . S
C557 C561 1.385 . S
C558 H539 0.951 . S
C558 C556 1.388 . S
C558 C559 1.366 . S
C559 C558 1.366 . S
C559 C560 1.414 . S
C559 C562 1.499 . S
C560 H540 0.950 . S
C560 C559 1.414 . S
C560 C561 1.374 . S
C561 H541 0.950 . S
C561 C557 1.385 . S
C561 C560 1.374 . S
C562 C559 1.499 . S
C562 C563 1.373 . S
C562 C564 1.389 . S
C563 H542 0.950 . S
C563 C562 1.373 . S
C563 C579 1.377 . S
C564 C562 1.389 . S
C564 C565 1.524 . S
C564 C578 1.377 . S
C565 C564 1.524 . S
C565 C566 1.397 . S
C565 C570 1.363 . S
C566 H543 0.950 . S
C566 C565 1.397 . S
C566 C567 1.334 . S
C567 H544 0.950 . S
C567 C566 1.334 . S
C567 C568 1.287 . S
C568 C567 1.287 . S
C568 C569 1.524 . S
C568 H587 0.913 . S
C569 H545 0.950 . S
C569 C568 1.524 . S
C569 C570 1.415 . S
C570 H546 0.950 . S
C570 C565 1.363 . S
C570 C569 1.415 . S
C571 H547 0.951 . S
C571 C572 1.366 1_455 S
C571 C573 1.388 . S
C572 C571 1.366 1_655 S
C572 C576 1.385 . S
C573 H548 0.951 . S
C573 C571 1.388 . S
C573 C574 1.366 . S
C574 C573 1.366 . S
C574 C575 1.414 . S
C574 C577 1.499 . S
C575 H549 0.950 . S
C575 C574 1.414 . S
C575 C576 1.374 1_455 S
C576 H550 0.950 . S
C576 C572 1.385 . S
C576 C575 1.374 1_655 S
C577 C574 1.499 . S
C577 C578 1.373 . S
C577 C579 1.389 . S
C578 H551 0.950 . S
C578 C564 1.377 . S
C578 C577 1.373 . S
C579 C563 1.377 . S
C579 C577 1.389 . S
C579 C580 1.524 . S
C580 C579 1.524 . S
C580 C581 1.397 . S
C580 C585 1.363 . S
C581 H552 0.950 . S
C581 C580 1.397 . S
C581 C582 1.334 . S
C582 H553 0.950 . S
C582 C581 1.334 . S
C582 C583 1.287 . S
C583 C582 1.287 . S
C583 C584 1.524 . S
C583 H586 0.999 . S
C584 H554 0.950 . S
C584 C583 1.524 . S
C584 C585 1.415 . S
C585 H555 0.950 . S
C585 C580 1.363 . S
C585 C584 1.415 . S
H586 C583 0.999 . S
H587 C568 0.913 . S
H588 C606 0.951 . S
H589 C608 0.951 . S
H590 C610 0.950 . S
H591 C611 0.950 . S
H592 C613 0.950 . S
H593 C616 0.950 . S
H594 C617 0.950 . S
H595 C619 0.950 . S
H596 C620 0.950 . S
H597 C621 0.951 . S
H598 C623 0.951 . S
H599 C625 0.950 . S
H600 C626 0.950 . S
H601 C628 0.950 . S
H602 C631 0.950 . S
H603 C632 0.950 . S
H604 C634 0.950 . S
H605 C635 0.950 . S
C606 H588 0.951 . S
C606 C607 1.366 . S
C606 C608 1.388 1_545 S
C607 C606 1.366 . S
C607 C611 1.385 1_545 S
C608 H589 0.951 . S
C608 C606 1.388 1_565 S
C608 C609 1.366 . S
C609 C608 1.366 . S
C609 C610 1.414 . S
C609 C612 1.499 . S
C610 H590 0.950 . S
C610 C609 1.414 . S
C610 C611 1.374 . S
C611 H591 0.950 . S
C611 C607 1.385 1_565 S
C611 C610 1.374 . S
C612 C609 1.499 . S
C612 C613 1.373 . S
C612 C614 1.389 . S
C613 H592 0.950 . S
C613 C612 1.373 . S
C613 C629 1.377 . S
C614 C612 1.389 . S
C614 C615 1.524 . S
C614 C628 1.377 . S
C615 C614 1.524 . S
C615 C616 1.397 . S
C615 C620 1.363 . S
C616 H593 0.950 . S
C616 C615 1.397 . S
C616 C617 1.334 . S
C617 H594 0.950 . S
C617 C616 1.334 . S
C617 C618 1.287 . S
C618 C617 1.287 . S
C618 C619 1.524 . S
C618 H637 0.913 . S
C619 H595 0.950 . S
C619 C618 1.524 . S
C619 C620 1.415 . S
C620 H596 0.950 . S
C620 C615 1.363 . S
C620 C619 1.415 . S
C621 H597 0.951 . S
C621 C622 1.366 . S
C621 C623 1.388 . S
C622 C621 1.366 . S
C622 C626 1.385 . S
C623 H598 0.951 . S
C623 C621 1.388 . S
C623 C624 1.366 . S
C624 C623 1.366 . S
C624 C625 1.414 . S
C624 C627 1.499 . S
C625 H599 0.950 . S
C625 C624 1.414 . S
C625 C626 1.374 . S
C626 H600 0.950 . S
C626 C622 1.385 . S
C626 C625 1.374 . S
C627 C624 1.499 . S
C627 C628 1.373 . S
C627 C629 1.389 . S
C628 H601 0.950 . S
C628 C614 1.377 . S
C628 C627 1.373 . S
C629 C613 1.377 . S
C629 C627 1.389 . S
C629 C630 1.524 . S
C630 C629 1.524 . S
C630 C631 1.397 . S
C630 C635 1.363 . S
C631 H602 0.950 . S
C631 C630 1.397 . S
C631 C632 1.334 . S
C632 H603 0.950 . S
C632 C631 1.334 . S
C632 C633 1.287 . S
C633 C632 1.287 . S
C633 C634 1.524 . S
C633 H636 0.999 . S
C634 H604 0.950 . S
C634 C633 1.524 . S
C634 C635 1.415 . S
C635 H605 0.950 . S
C635 C630 1.363 . S
C635 C634 1.415 . S
H636 C633 0.999 . S
H637 C618 0.913 . S
H638 C656 0.951 . S
H639 C658 0.951 . S
H640 C660 0.950 . S
H641 C661 0.950 . S
H642 C663 0.950 . S
H643 C666 0.950 . S
H644 C667 0.950 . S
H645 C669 0.950 . S
H646 C670 0.950 . S
H647 C671 0.951 . S
H648 C673 0.951 . S
H649 C675 0.950 . S
H650 C676 0.950 . S
H651 C678 0.950 . S
H652 C681 0.950 . S
H653 C682 0.950 . S
H654 C684 0.950 . S
H655 C685 0.950 . S
C656 H638 0.951 . S
C656 C657 1.366 . S
C656 C658 1.388 . S
C657 C656 1.366 . S
C657 C661 1.385 . S
C658 H639 0.951 . S
C658 C656 1.388 . S
C658 C659 1.366 . S
C659 C658 1.366 . S
C659 C660 1.414 . S
C659 C662 1.499 . S
C660 H640 0.950 . S
C660 C659 1.414 . S
C660 C661 1.374 . S
C661 H641 0.950 . S
C661 C657 1.385 . S
C661 C660 1.374 . S
C662 C659 1.499 . S
C662 C663 1.373 . S
C662 C664 1.389 . S
C663 H642 0.950 . S
C663 C662 1.373 . S
C663 C679 1.377 . S
C664 C662 1.389 . S
C664 C665 1.524 . S
C664 C678 1.377 . S
C665 C664 1.524 . S
C665 C666 1.397 . S
C665 C670 1.363 . S
C666 H643 0.950 . S
C666 C665 1.397 . S
C666 C667 1.334 . S
C667 H644 0.950 . S
C667 C666 1.334 . S
C667 C668 1.287 . S
C668 C667 1.287 . S
C668 C669 1.524 . S
C668 H687 0.913 . S
C669 H645 0.950 . S
C669 C668 1.524 . S
C669 C670 1.415 . S
C670 H646 0.950 . S
C670 C665 1.363 . S
C670 C669 1.415 . S
C671 H647 0.951 . S
C671 C672 1.366 . S
C671 C673 1.388 1_455 S
C672 C671 1.366 . S
C672 C676 1.385 1_455 S
C673 H648 0.951 . S
C673 C671 1.388 1_655 S
C673 C674 1.366 . S
C674 C673 1.366 . S
C674 C675 1.414 . S
C674 C677 1.499 . S
C675 H649 0.950 . S
C675 C674 1.414 . S
C675 C676 1.374 . S
C676 H650 0.950 . S
C676 C672 1.385 1_655 S
C676 C675 1.374 . S
C677 C674 1.499 . S
C677 C678 1.373 . S
C677 C679 1.389 . S
C678 H651 0.950 . S
C678 C664 1.377 . S
C678 C677 1.373 . S
C679 C663 1.377 . S
C679 C677 1.389 . S
C679 C680 1.524 . S
C680 C679 1.524 . S
C680 C681 1.397 . S
C680 C685 1.363 . S
C681 H652 0.950 . S
C681 C680 1.397 . S
C681 C682 1.334 1_655 S
C682 H653 0.950 . S
C682 C681 1.334 1_455 S
C682 C683 1.287 . S
C683 C682 1.287 . S
C683 C684 1.524 . S
C683 H686 0.999 . S
C684 H654 0.950 . S
C684 C683 1.524 . S
C684 C685 1.415 1_455 S
C685 H655 0.950 . S
C685 C680 1.363 . S
C685 C684 1.415 1_655 S
H686 C683 0.999 . S
H687 C668 0.913 . S
H688 C706 0.951 . S
H689 C708 0.951 . S
H690 C710 0.950 . S
H691 C711 0.950 . S
H692 C713 0.950 . S
H693 C716 0.950 . S
H694 C717 0.950 . S
H695 C719 0.950 . S
H696 C720 0.950 . S
H697 C721 0.951 . S
H698 C723 0.951 . S
H699 C725 0.950 1_556 S
H700 C726 0.950 . S
H701 C728 0.950 . S
H702 C731 0.950 . S
H703 C732 0.950 1_556 S
H704 C734 0.950 . S
H705 C735 0.950 . S
C706 H688 0.951 . S
C706 C707 1.366 . S
C706 C708 1.388 1_565 S
C707 C706 1.366 . S
C707 C711 1.385 . S
C708 H689 0.951 . S
C708 C706 1.388 1_545 S
C708 C709 1.366 . S
C709 C708 1.366 . S
C709 C710 1.414 . S
C709 C712 1.499 . S
C710 H690 0.950 . S
C710 C709 1.414 . S
C710 C711 1.374 1_545 S
C711 H691 0.950 . S
C711 C707 1.385 . S
C711 C710 1.374 1_565 S
C712 C709 1.499 . S
C712 C713 1.373 . S
C712 C714 1.389 . S
C713 H692 0.950 . S
C713 C712 1.373 . S
C713 C729 1.377 . S
C714 C712 1.389 . S
C714 C715 1.524 . S
C714 C728 1.377 . S
C715 C714 1.524 . S
C715 C716 1.397 . S
C715 C720 1.363 . S
C716 H693 0.950 . S
C716 C715 1.397 . S
C716 C717 1.334 1_545 S
C717 H694 0.950 . S
C717 C716 1.334 1_565 S
C717 C718 1.287 1_565 S
C718 C717 1.287 1_545 S
C718 C719 1.524 . S
C718 H737 0.913 1_545 S
C719 H695 0.950 . S
C719 C718 1.524 . S
C719 C720 1.415 . S
C720 H696 0.950 . S
C720 C715 1.363 . S
C720 C719 1.415 . S
C721 H697 0.951 . S
C721 C722 1.366 . S
C721 C723 1.388 . S
C722 C721 1.366 . S
C722 C726 1.385 . S
C723 H698 0.951 . S
C723 C721 1.388 . S
C723 C724 1.366 . S
C724 C723 1.366 . S
C724 C725 1.414 . S
C724 C727 1.499 . S
C725 H699 0.950 1_554 S
C725 C724 1.414 . S
C725 C726 1.374 . S
C726 H700 0.950 . S
C726 C722 1.385 . S
C726 C725 1.374 . S
C727 C724 1.499 . S
C727 C728 1.373 1_554 S
C727 C729 1.389 1_554 S
C728 H701 0.950 . S
C728 C714 1.377 . S
C728 C727 1.373 1_556 S
C729 C713 1.377 . S
C729 C727 1.389 1_556 S
C729 C730 1.524 1_556 S
C730 C729 1.524 1_554 S
C730 C731 1.397 1_554 S
C730 C735 1.363 . S
C731 H702 0.950 . S
C731 C730 1.397 1_556 S
C731 C732 1.334 1_556 S
C732 H703 0.950 1_554 S
C732 C731 1.334 1_554 S
C732 C733 1.287 . S
C733 C732 1.287 . S
C733 C734 1.524 . S
C733 H736 0.999 . S
C734 H704 0.950 . S
C734 C733 1.524 . S
C734 C735 1.415 . S
C735 H705 0.950 . S
C735 C730 1.363 . S
C735 C734 1.415 . S
H736 C733 0.999 . S
H737 C718 0.913 1_565 S
H738 C756 0.951 . S
H739 C758 0.951 . S
H740 C760 0.950 . S
H741 C761 0.950 . S
H742 C763 0.950 . S
H743 C766 0.950 . S
H744 C767 0.950 . S
H745 C769 0.950 . S
H746 C770 0.950 . S
H747 C771 0.951 . S
H748 C773 0.951 1_655 S
H749 C775 0.950 . S
H750 C776 0.950 . S
H751 C778 0.950 . S
H752 C781 0.950 1_554 S
H753 C782 0.950 . S
H754 C784 0.950 1_655 S
H755 C785 0.950 . S
C756 H738 0.951 . S
C756 C757 1.366 . S
C756 C758 1.388 . S
C757 C756 1.366 . S
C757 C761 1.385 . S
C758 H739 0.951 . S
C758 C756 1.388 . S
C758 C759 1.366 . S
C759 C758 1.366 . S
C759 C760 1.414 . S
C759 C762 1.499 . S
C760 H740 0.950 . S
C760 C759 1.414 . S
C760 C761 1.374 . S
C761 H741 0.950 . S
C761 C757 1.385 . S
C761 C760 1.374 . S
C762 C759 1.499 . S
C762 C763 1.373 . S
C762 C764 1.389 1_556 S
C763 H742 0.950 . S
C763 C762 1.373 . S
C763 C779 1.377 . S
C764 C762 1.389 1_554 S
C764 C765 1.524 . S
C764 C778 1.377 . S
C765 C764 1.524 . S
C765 C766 1.397 . S
C765 C770 1.363 . S
C766 H743 0.950 . S
C766 C765 1.397 . S
C766 C767 1.334 . S
C767 H744 0.950 . S
C767 C766 1.334 . S
C767 C768 1.287 . S
C768 C767 1.287 . S
C768 C769 1.524 . S
C768 H787 0.913 . S
C769 H745 0.950 . S
C769 C768 1.524 . S
C769 C770 1.415 . S
C770 H746 0.950 . S
C770 C765 1.363 . S
C770 C769 1.415 . S
C771 H747 0.951 . S
C771 C772 1.366 . S
C771 C773 1.388 1_655 S
C772 C771 1.366 . S
C772 C776 1.385 1_655 S
C773 H748 0.951 1_455 S
C773 C771 1.388 1_455 S
C773 C774 1.366 . S
C774 C773 1.366 . S
C774 C775 1.414 . S
C774 C777 1.499 . S
C775 H749 0.950 . S
C775 C774 1.414 . S
C775 C776 1.374 . S
C776 H750 0.950 . S
C776 C772 1.385 1_455 S
C776 C775 1.374 . S
C777 C774 1.499 . S
C777 C778 1.373 . S
C777 C779 1.389 1_554 S
C778 H751 0.950 . S
C778 C764 1.377 . S
C778 C777 1.373 . S
C779 C763 1.377 . S
C779 C777 1.389 1_556 S
C779 C780 1.524 . S
C780 C779 1.524 . S
C780 C781 1.397 . S
C780 C785 1.363 . S
C781 H752 0.950 1_556 S
C781 C780 1.397 . S
C781 C782 1.334 . S
C782 H753 0.950 . S
C782 C781 1.334 . S
C782 C783 1.287 . S
C783 C782 1.287 . S
C783 C784 1.524 . S
C783 H786 0.999 1_455 S
C784 H754 0.950 1_455 S
C784 C783 1.524 . S
C784 C785 1.415 . S
C785 H755 0.950 . S
C785 C780 1.363 . S
C785 C784 1.415 . S
H786 C783 0.999 1_655 S
H787 C768 0.913 . S
H788 C806 0.951 . S
H789 C808 0.951 . S
H790 C810 0.950 . S
H791 C811 0.950 . S
H792 C813 0.950 . S
H793 C816 0.950 . S
H794 C817 0.950 . S
H795 C819 0.950 . S
H796 C820 0.950 . S
H797 C821 0.951 . S
H798 C823 0.951 . S
H799 C825 0.950 . S
H800 C826 0.950 . S
H801 C828 0.937 1_554 S
H802 C831 0.950 . S
H803 C832 0.950 . S
H804 C834 0.950 . S
H805 C835 0.950 . S
C806 H788 0.951 . S
C806 C807 1.366 . S
C806 C808 1.388 . S
C807 C806 1.366 . S
C807 C811 1.385 . S
C808 H789 0.951 . S
C808 C806 1.388 . S
C808 C809 1.366 . S
C809 C808 1.366 . S
C809 C810 1.414 . S
C809 C812 1.499 . S
C810 H790 0.950 . S
C810 C809 1.414 . S
C810 C811 1.374 . S
C811 H791 0.950 . S
C811 C807 1.385 . S
C811 C810 1.374 . S
C812 C809 1.499 . S
C812 C813 1.373 1_554 S
C812 C814 1.389 . S
C813 H792 0.950 . S
C813 C812 1.373 1_556 S
C813 C829 1.377 . S
C814 C812 1.389 . S
C814 C815 1.524 . S
C814 C828 1.351 1_554 S
C815 C814 1.524 . S
C815 C816 1.397 . S
C815 C820 1.363 . S
C816 H793 0.950 . S
C816 C815 1.397 . S
C816 C817 1.334 . S
C817 H794 0.950 . S
C817 C816 1.334 . S
C817 C818 1.287 . S
C818 C817 1.287 . S
C818 C819 1.524 . S
C818 H837 0.913 . S
C819 H795 0.950 . S
C819 C818 1.524 . S
C819 C820 1.415 . S
C820 H796 0.950 . S
C820 C815 1.363 . S
C820 C819 1.415 . S
C821 H797 0.951 . S
C821 C822 1.366 . S
C821 C823 1.388 1_545 S
C822 C821 1.366 . S
C822 C826 1.385 . S
C823 H798 0.951 . S
C823 C821 1.388 1_565 S
C823 C824 1.366 . S
C824 C823 1.366 . S
C824 C825 1.414 . S
C824 C827 1.499 . S
C825 H799 0.950 . S
C825 C824 1.414 . S
C825 C826 1.374 1_565 S
C826 H800 0.950 . S
C826 C822 1.385 . S
C826 C825 1.374 1_545 S
C827 C824 1.499 . S
C827 C828 1.413 . S
C827 C829 1.389 . S
C828 H801 0.937 1_556 S
C828 C814 1.351 1_556 S
C828 C827 1.413 . S
C829 C813 1.377 . S
C829 C827 1.389 . S
C829 C830 1.524 . S
C830 C829 1.524 . S
C830 C831 1.397 . S
C830 C835 1.363 . S
C831 H802 0.950 . S
C831 C830 1.397 . S
C831 C832 1.334 . S
C832 H803 0.950 . S
C832 C831 1.334 . S
C832 C833 1.287 . S
C833 C832 1.287 . S
C833 C834 1.524 . S
C833 H836 0.999 . S
C834 H804 0.950 . S
C834 C833 1.524 . S
C834 C835 1.415 . S
C835 H805 0.950 . S
C835 C830 1.363 . S
C835 C834 1.415 . S
H836 C833 0.999 . S
H837 C818 0.913 . S
H838 C856 0.951 . S
H839 C858 0.951 . S
H840 C860 0.950 1_554 S
H841 C861 0.950 . S
H842 C863 0.950 . S
H843 C866 0.950 . S
H844 C867 0.950 . S
H845 C869 0.950 . S
H846 C870 0.950 . S
H847 C871 0.951 . S
H848 C873 0.951 . S
H849 C875 0.949 1_455 S
H850 C876 0.950 . S
H851 C878 0.950 . S
H852 C881 0.950 . S
H853 C882 0.950 . S
H854 C884 0.950 . S
H855 C885 0.950 . S
C856 H838 0.951 . S
C856 C857 1.366 . S
C856 C858 1.388 . S
C857 C856 1.366 . S
C857 C861 1.385 . S
C858 H839 0.951 . S
C858 C856 1.388 . S
C858 C859 1.366 . S
C859 C858 1.366 . S
C859 C860 1.414 . S
C859 C862 1.499 . S
C860 H840 0.950 1_556 S
C860 C859 1.414 . S
C860 C861 1.374 . S
C861 H841 0.950 . S
C861 C857 1.385 . S
C861 C860 1.374 . S
C862 C859 1.499 . S
C862 C863 1.373 1_556 S
C862 C864 1.389 . S
C863 H842 0.950 . S
C863 C862 1.373 1_554 S
C863 C879 1.377 . S
C864 C862 1.389 . S
C864 C865 1.524 . S
C864 C878 1.377 . S
C865 C864 1.524 . S
C865 C866 1.397 . S
C865 C870 1.363 . S
C866 H843 0.950 . S
C866 C865 1.397 . S
C866 C867 1.334 . S
C867 H844 0.950 . S
C867 C866 1.334 . S
C867 C868 1.287 . S
C868 C867 1.287 . S
C868 C869 1.524 . S
C868 H887 0.913 . S
C869 H845 0.950 . S
C869 C868 1.524 . S
C869 C870 1.415 . S
C870 H846 0.950 . S
C870 C865 1.363 . S
C870 C869 1.415 . S
C871 H847 0.951 . S
C871 C872 1.366 1_655 S
C871 C873 1.388 . S
C872 C871 1.366 1_455 S
C872 C876 1.385 . S
C873 H848 0.951 . S
C873 C871 1.388 . S
C873 C874 1.366 . S
C874 C873 1.366 . S
C874 C875 1.414 . S
C874 C877 1.499 . S
C875 H849 0.949 1_655 S
C875 C874 1.414 . S
C875 C876 1.374 1_655 S
C876 H850 0.950 . S
C876 C872 1.385 . S
C876 C875 1.374 1_455 S
C877 C874 1.499 . S
C877 C878 1.373 1_554 S
C877 C879 1.389 . S
C878 H851 0.950 . S
C878 C864 1.377 . S
C878 C877 1.373 1_556 S
C879 C863 1.377 . S
C879 C877 1.389 . S
C879 C880 1.524 . S
C880 C879 1.524 . S
C880 C881 1.397 . S
C880 C885 1.363 . S
C881 H852 0.950 . S
C881 C880 1.397 . S
C881 C882 1.334 . S
C882 H853 0.950 . S
C882 C881 1.334 . S
C882 C883 1.287 . S
C883 C882 1.287 . S
C883 C884 1.524 . S
C883 H886 0.999 . S
C884 H854 0.950 . S
C884 C883 1.524 . S
C884 C885 1.415 . S
C885 H855 0.950 . S
C885 C880 1.363 . S
C885 C884 1.415 . S
H886 C883 0.999 . S
H887 C868 0.913 . S
H888 C906 0.951 . S
H889 C908 0.951 . S
H890 C910 0.950 . S
H891 C911 0.950 . S
H892 C913 0.950 . S
H893 C916 0.950 . S
H894 C917 0.950 . S
H895 C919 0.950 . S
H896 C920 0.950 . S
H897 C921 0.951 . S
H898 C923 0.951 . S
H899 C925 0.950 . S
H900 C926 0.950 . S
H901 C928 0.950 . S
H902 C931 0.950 . S
H903 C932 0.950 . S
H904 C934 0.950 . S
H905 C935 0.950 . S
C906 H888 0.951 . S
C906 C907 1.366 . S
C906 C908 1.388 . S
C907 C906 1.366 . S
C907 C911 1.385 . S
C908 H889 0.951 . S
C908 C906 1.388 . S
C908 C909 1.366 . S
C909 C908 1.366 . S
C909 C910 1.414 . S
C909 C912 1.499 . S
C910 H890 0.950 . S
C910 C909 1.414 . S
C910 C911 1.374 . S
C911 H891 0.950 . S
C911 C907 1.385 . S
C911 C910 1.374 . S
C912 C909 1.499 . S
C912 C913 1.373 . S
C912 C914 1.389 . S
C913 H892 0.950 . S
C913 C912 1.373 . S
C913 C929 1.377 . S
C914 C912 1.389 . S
C914 C915 1.524 . S
C914 C928 1.377 . S
C915 C914 1.524 . S
C915 C916 1.397 . S
C915 C920 1.363 . S
C916 H893 0.950 . S
C916 C915 1.397 . S
C916 C917 1.334 . S
C917 H894 0.950 . S
C917 C916 1.334 . S
C917 C918 1.287 . S
C918 C917 1.287 . S
C918 C919 1.524 . S
C918 H937 0.913 . S
C919 H895 0.950 . S
C919 C918 1.524 . S
C919 C920 1.415 . S
C920 H896 0.950 . S
C920 C915 1.363 . S
C920 C919 1.415 . S
C921 H897 0.951 . S
C921 C922 1.366 . S
C921 C923 1.388 . S
C922 C921 1.366 . S
C922 C926 1.385 . S
C923 H898 0.951 . S
C923 C921 1.388 . S
C923 C924 1.366 . S
C924 C923 1.366 . S
C924 C925 1.414 . S
C924 C927 1.499 . S
C925 H899 0.950 . S
C925 C924 1.414 . S
C925 C926 1.374 . S
C926 H900 0.950 . S
C926 C922 1.385 . S
C926 C925 1.374 . S
C927 C924 1.499 . S
C927 C928 1.373 . S
C927 C929 1.389 . S
C928 H901 0.950 . S
C928 C914 1.377 . S
C928 C927 1.373 . S
C929 C913 1.377 . S
C929 C927 1.389 . S
C929 C930 1.524 . S
C930 C929 1.524 . S
C930 C931 1.397 . S
C930 C935 1.363 . S
C931 H902 0.950 . S
C931 C930 1.397 . S
C931 C932 1.334 . S
C932 H903 0.950 . S
C932 C931 1.334 . S
C932 C933 1.287 . S
C933 C932 1.287 . S
C933 C934 1.524 . S
C933 H936 0.999 . S
C934 H904 0.950 . S
C934 C933 1.524 . S
C934 C935 1.415 . S
C935 H905 0.950 . S
C935 C930 1.363 . S
C935 C934 1.415 . S
H936 C933 0.999 . S
H937 C918 0.913 . S
H938 C956 0.951 . S
H939 C958 0.951 . S
H940 C960 0.950 . S
H941 C961 0.950 . S
H942 C963 0.950 . S
H943 C966 0.950 . S
H944 C967 0.950 . S
H945 C969 0.950 . S
H946 C970 0.950 . S
H947 C971 0.951 . S
H948 C973 0.951 . S
H949 C975 0.950 . S
H950 C976 0.950 . S
H951 C978 0.950 . S
H952 C981 0.950 . S
H953 C982 0.950 . S
H954 C984 0.950 . S
H955 C985 0.950 . S
C956 H938 0.951 . S
C956 C957 1.366 . S
C956 C958 1.388 . S
C957 C956 1.366 . S
C957 C961 1.385 . S
C958 H939 0.951 . S
C958 C956 1.388 . S
C958 C959 1.366 . S
C959 C958 1.366 . S
C959 C960 1.414 . S
C959 C962 1.499 . S
C960 H940 0.950 . S
C960 C959 1.414 . S
C960 C961 1.374 . S
C961 H941 0.950 . S
C961 C957 1.385 . S
C961 C960 1.374 . S
C962 C959 1.499 . S
C962 C963 1.373 . S
C962 C964 1.389 . S
C963 H942 0.950 . S
C963 C962 1.373 . S
C963 C979 1.377 . S
C964 C962 1.389 . S
C964 C965 1.524 . S
C964 C978 1.377 . S
C965 C964 1.524 . S
C965 C966 1.397 . S
C965 C970 1.363 . S
C966 H943 0.950 . S
C966 C965 1.397 . S
C966 C967 1.334 . S
C967 H944 0.950 . S
C967 C966 1.334 . S
C967 C968 1.287 . S
C968 C967 1.287 . S
C968 C969 1.524 . S
C968 H987 0.913 . S
C969 H945 0.950 . S
C969 C968 1.524 . S
C969 C970 1.415 . S
C970 H946 0.950 . S
C970 C965 1.363 . S
C970 C969 1.415 . S
C971 H947 0.951 . S
C971 C972 1.366 . S
C971 C973 1.388 . S
C972 C971 1.366 . S
C972 C976 1.385 . S
C973 H948 0.951 . S
C973 C971 1.388 . S
C973 C974 1.366 . S
C974 C973 1.366 . S
C974 C975 1.414 . S
C974 C977 1.499 . S
C975 H949 0.950 . S
C975 C974 1.414 . S
C975 C976 1.374 . S
C976 H950 0.950 . S
C976 C972 1.385 . S
C976 C975 1.374 . S
C977 C974 1.499 . S
C977 C978 1.373 . S
C977 C979 1.389 . S
C978 H951 0.950 . S
C978 C964 1.377 . S
C978 C977 1.373 . S
C979 C963 1.377 . S
C979 C977 1.389 . S
C979 C980 1.524 . S
C980 C979 1.524 . S
C980 C981 1.397 . S
C980 C985 1.363 . S
C981 H952 0.950 . S
C981 C980 1.397 . S
C981 C982 1.334 . S
C982 H953 0.950 . S
C982 C981 1.334 . S
C982 C983 1.287 . S
C983 C982 1.287 . S
C983 C984 1.524 . S
C983 H986 0.999 . S
C984 H954 0.950 . S
C984 C983 1.524 . S
C984 C985 1.415 . S
C985 H955 0.950 . S
C985 C980 1.363 . S
C985 C984 1.415 . S
H986 C983 0.999 . S
H987 C968 0.913 . S
H988 C1006 0.951 . S
H989 C1008 0.951 . S
H990 C1010 0.950 . S
H991 C1011 0.950 . S
H992 C1013 0.950 . S
H993 C1016 0.950 . S
H994 C1017 0.950 . S
H995 C1019 0.950 . S
H996 C1020 0.950 . S
H997 C1021 0.951 . S
H998 C1023 0.951 . S
H999 C1025 0.950 . S
H1000 C1026 0.950 . S
H1001 C1028 0.950 . S
H1002 C1031 0.950 . S
H1003 C1032 0.950 . S
H1004 C1034 0.950 . S
H1005 C1035 0.950 . S
C1006 H988 0.951 . S
C1006 C1007 1.366 . S
C1006 C1008 1.388 . S
C1007 C1006 1.366 . S
C1007 C1011 1.385 . S
C1008 H989 0.951 . S
C1008 C1006 1.388 . S
C1008 C1009 1.366 . S
C1009 C1008 1.366 . S
C1009 C1010 1.414 . S
C1009 C1012 1.499 . S
C1010 H990 0.950 . S
C1010 C1009 1.414 . S
C1010 C1011 1.374 . S
C1011 H991 0.950 . S
C1011 C1007 1.385 . S
C1011 C1010 1.374 . S
C1012 C1009 1.499 . S
C1012 C1013 1.373 . S
C1012 C1014 1.389 . S
C1013 H992 0.950 . S
C1013 C1012 1.373 . S
C1013 C1029 1.377 . S
C1014 C1012 1.389 . S
C1014 C1015 1.524 . S
C1014 C1028 1.377 . S
C1015 C1014 1.524 . S
C1015 C1016 1.397 . S
C1015 C1020 1.363 . S
C1016 H993 0.950 . S
C1016 C1015 1.397 . S
C1016 C1017 1.334 . S
C1017 H994 0.950 . S
C1017 C1016 1.334 . S
C1017 C1018 1.287 . S
C1018 C1017 1.287 . S
C1018 C1019 1.524 . S
C1018 H1037 0.913 . S
C1019 H995 0.950 . S
C1019 C1018 1.524 . S
C1019 C1020 1.415 . S
C1020 H996 0.950 . S
C1020 C1015 1.363 . S
C1020 C1019 1.415 . S
C1021 H997 0.951 . S
C1021 C1022 1.366 . S
C1021 C1023 1.388 . S
C1022 C1021 1.366 . S
C1022 C1026 1.385 . S
C1023 H998 0.951 . S
C1023 C1021 1.388 . S
C1023 C1024 1.366 . S
C1024 C1023 1.366 . S
C1024 C1025 1.414 . S
C1024 C1027 1.499 . S
C1025 H999 0.950 . S
C1025 C1024 1.414 . S
C1025 C1026 1.374 . S
C1026 H1000 0.950 . S
C1026 C1022 1.385 . S
C1026 C1025 1.374 . S
C1027 C1024 1.499 . S
C1027 C1028 1.373 . S
C1027 C1029 1.389 . S
C1028 H1001 0.950 . S
C1028 C1014 1.377 . S
C1028 C1027 1.373 . S
C1029 C1013 1.377 . S
C1029 C1027 1.389 . S
C1029 C1030 1.524 . S
C1030 C1029 1.524 . S
C1030 C1031 1.397 . S
C1030 C1035 1.363 . S
C1031 H1002 0.950 . S
C1031 C1030 1.397 . S
C1031 C1032 1.334 . S
C1032 H1003 0.950 . S
C1032 C1031 1.334 . S
C1032 C1033 1.287 . S
C1033 C1032 1.287 . S
C1033 C1034 1.524 . S
C1033 H1036 0.999 . S
C1034 H1004 0.950 . S
C1034 C1033 1.524 . S
C1034 C1035 1.415 . S
C1035 H1005 0.950 . S
C1035 C1030 1.363 . S
C1035 C1034 1.415 . S
H1036 C1033 0.999 . S
H1037 C1018 0.913 . S
H1038 C1056 0.951 . S
H1039 C1058 0.951 . S
H1040 C1060 0.950 . S
H1041 C1061 0.950 . S
H1042 C1063 0.950 . S
H1043 C1066 0.950 . S
H1044 C1067 0.950 . S
H1045 C1069 0.950 . S
H1046 C1070 0.950 . S
H1047 C1071 0.951 . S
H1048 C1073 0.951 . S
H1049 C1075 0.950 . S
H1050 C1076 0.950 . S
H1051 C1078 0.950 . S
H1052 C1081 0.950 . S
H1053 C1082 0.950 . S
H1054 C1084 0.950 . S
H1055 C1085 0.950 . S
C1056 H1038 0.951 . S
C1056 C1057 1.366 . S
C1056 C1058 1.388 . S
C1057 C1056 1.366 . S
C1057 C1061 1.385 . S
C1058 H1039 0.951 . S
C1058 C1056 1.388 . S
C1058 C1059 1.366 . S
C1059 C1058 1.366 . S
C1059 C1060 1.414 . S
C1059 C1062 1.499 . S
C1060 H1040 0.950 . S
C1060 C1059 1.414 . S
C1060 C1061 1.374 . S
C1061 H1041 0.950 . S
C1061 C1057 1.385 . S
C1061 C1060 1.374 . S
C1062 C1059 1.499 . S
C1062 C1063 1.373 . S
C1062 C1064 1.389 . S
C1063 H1042 0.950 . S
C1063 C1062 1.373 . S
C1063 C1079 1.377 . S
C1064 C1062 1.389 . S
C1064 C1065 1.524 . S
C1064 C1078 1.377 . S
C1065 C1064 1.524 . S
C1065 C1066 1.397 . S
C1065 C1070 1.363 . S
C1066 H1043 0.950 . S
C1066 C1065 1.397 . S
C1066 C1067 1.334 . S
C1067 H1044 0.950 . S
C1067 C1066 1.334 . S
C1067 C1068 1.287 . S
C1068 C1067 1.287 . S
C1068 C1069 1.524 . S
C1068 H1087 0.913 . S
C1069 H1045 0.950 . S
C1069 C1068 1.524 . S
C1069 C1070 1.415 . S
C1070 H1046 0.950 . S
C1070 C1065 1.363 . S
C1070 C1069 1.415 . S
C1071 H1047 0.951 . S
C1071 C1072 1.366 . S
C1071 C1073 1.388 . S
C1072 C1071 1.366 . S
C1072 C1076 1.385 . S
C1073 H1048 0.951 . S
C1073 C1071 1.388 . S
C1073 C1074 1.366 . S
C1074 C1073 1.366 . S
C1074 C1075 1.414 . S
C1074 C1077 1.499 . S
C1075 H1049 0.950 . S
C1075 C1074 1.414 . S
C1075 C1076 1.374 . S
C1076 H1050 0.950 . S
C1076 C1072 1.385 . S
C1076 C1075 1.374 . S
C1077 C1074 1.499 . S
C1077 C1078 1.373 . S
C1077 C1079 1.389 . S
C1078 H1051 0.950 . S
C1078 C1064 1.377 . S
C1078 C1077 1.373 . S
C1079 C1063 1.377 . S
C1079 C1077 1.389 . S
C1079 C1080 1.524 . S
C1080 C1079 1.524 . S
C1080 C1081 1.397 . S
C1080 C1085 1.363 . S
C1081 H1052 0.950 . S
C1081 C1080 1.397 . S
C1081 C1082 1.334 . S
C1082 H1053 0.950 . S
C1082 C1081 1.334 . S
C1082 C1083 1.287 . S
C1083 C1082 1.287 . S
C1083 C1084 1.524 . S
C1083 H1086 0.999 . S
C1084 H1054 0.950 . S
C1084 C1083 1.524 . S
C1084 C1085 1.415 . S
C1085 H1055 0.950 . S
C1085 C1080 1.363 . S
C1085 C1084 1.415 . S
H1086 C1083 0.999 . S
H1087 C1068 0.913 . S
C307 C76 1.332 . S
C322 C4 1.332 . S
C357 C122 1.412 . S
C372 C50 1.413 . S
C407 C148 1.328 . S
C422 C220 1.328 . S
C457 C184 1.346 . S
C472 C256 1.346 . S
C507 C39 0.798 . S
C522 C3 0.796 . S
C557 C38 0.944 . S
C572 C74 0.964 . S
C607 C111 0.798 . S
C622 C75 0.796 . S
C657 C110 0.942 . S
C672 C2 0.964 . S
C707 C254 0.907 . S
C722 C147 0.908 . S
C757 C183 0.854 . S
C772 C146 0.854 . S
C807 C219 0.908 . S
C822 C182 0.907 . S
C857 C255 0.853 . S
C872 C218 0.853 . S
C907 C14 1.703 . S
C922 C194 1.700 . S
C957 C230 1.696 . S
C972 C40 1.704 . S
C1007 C86 1.703 . S
C1022 C266 1.700 . S
C1057 C112 1.704 . S
C1072 C158 1.696 . S
