# Generated by pormake.
# Topology wmy, (6)-cn, num edge types: 1
# Building blocks:
#     Node 0, Type 0, BuildingBlock: OJICUG_clean_sbu_0, # of connection points: 6
#     Node 1, Type 0, BuildingBlock: OJICUG_clean_sbu_0, # of connection points: 6
#     Node 2, Type 0, BuildingBlock: OJICUG_clean_sbu_0, # of connection points: 6
#     Node 3, Type 0, BuildingBlock: OJICUG_clean_sbu_0, # of connection points: 6
#     Node 4, Type 0, BuildingBlock: OJICUG_clean_sbu_0, # of connection points: 6
#     Node 5, Type 0, BuildingBlock: OJICUG_clean_sbu_0, # of connection points: 6
#     Node 6, Type 0, BuildingBlock: OJICUG_clean_sbu_0, # of connection points: 6
#     Node 7, Type 0, BuildingBlock: OJICUG_clean_sbu_0, # of connection points: 6
#     Node 8, Type 0, BuildingBlock: OJICUG_clean_sbu_0, # of connection points: 6
#     Node 9, Type 0, BuildingBlock: OJICUG_clean_sbu_0, # of connection points: 6
#     Node 10, Type 0, BuildingBlock: OJICUG_clean_sbu_0, # of connection points: 6
#     Node 11, Type 0, BuildingBlock: OJICUG_clean_sbu_0, # of connection points: 6
#     Node 12, Type 0, BuildingBlock: OJICUG_clean_sbu_0, # of connection points: 6
#     Node 13, Type 0, BuildingBlock: OJICUG_clean_sbu_0, # of connection points: 6
#     Node 14, Type 0, BuildingBlock: OJICUG_clean_sbu_0, # of connection points: 6
#     Node 15, Type 0, BuildingBlock: OJICUG_clean_sbu_0, # of connection points: 6
#     Node 16, Type 0, BuildingBlock: OJICUG_clean_sbu_0, # of connection points: 6
#     Node 17, Type 0, BuildingBlock: OJICUG_clean_sbu_0, # of connection points: 6
#     Node 18, Type 0, BuildingBlock: OJICUG_clean_sbu_0, # of connection points: 6
#     Node 19, Type 0, BuildingBlock: OJICUG_clean_sbu_0, # of connection points: 6
#     Node 20, Type 0, BuildingBlock: OJICUG_clean_sbu_0, # of connection points: 6
#     Node 21, Type 0, BuildingBlock: OJICUG_clean_sbu_0, # of connection points: 6
#     Node 22, Type 0, BuildingBlock: OJICUG_clean_sbu_0, # of connection points: 6
#     Node 23, Type 0, BuildingBlock: OJICUG_clean_sbu_0, # of connection points: 6
#     Node 24, Type 0, BuildingBlock: OJICUG_clean_sbu_0, # of connection points: 6
#     Node 25, Type 0, BuildingBlock: OJICUG_clean_sbu_0, # of connection points: 6
#     Node 26, Type 0, BuildingBlock: OJICUG_clean_sbu_0, # of connection points: 6
#     Node 27, Type 0, BuildingBlock: OJICUG_clean_sbu_0, # of connection points: 6
#     Node 28, Type 0, BuildingBlock: OJICUG_clean_sbu_0, # of connection points: 6
#     Node 29, Type 0, BuildingBlock: OJICUG_clean_sbu_0, # of connection points: 6
#     Node 30, Type 0, BuildingBlock: OJICUG_clean_sbu_0, # of connection points: 6
#     Node 31, Type 0, BuildingBlock: OJICUG_clean_sbu_0, # of connection points: 6
#     Node 32, Type 0, BuildingBlock: OJICUG_clean_sbu_0, # of connection points: 6
#     Node 33, Type 0, BuildingBlock: OJICUG_clean_sbu_0, # of connection points: 6
#     Node 34, Type 0, BuildingBlock: OJICUG_clean_sbu_0, # of connection points: 6
#     Node 35, Type 0, BuildingBlock: OJICUG_clean_sbu_0, # of connection points: 6
#     Edge 36, Type (0, 0), BuildingBlock: OJICUG_clean_linker_0, # of connection points: 2
#     Edge 37, Type (0, 0), BuildingBlock: OJICUG_clean_linker_0, # of connection points: 2
#     Edge 38, Type (0, 0), BuildingBlock: OJICUG_clean_linker_0, # of connection points: 2
#     Edge 39, Type (0, 0), BuildingBlock: OJICUG_clean_linker_0, # of connection points: 2
#     Edge 40, Type (0, 0), BuildingBlock: OJICUG_clean_linker_0, # of connection points: 2
#     Edge 41, Type (0, 0), BuildingBlock: OJICUG_clean_linker_0, # of connection points: 2
#     Edge 42, Type (0, 0), BuildingBlock: OJICUG_clean_linker_0, # of connection points: 2
#     Edge 43, Type (0, 0), BuildingBlock: OJICUG_clean_linker_0, # of connection points: 2
#     Edge 44, Type (0, 0), BuildingBlock: OJICUG_clean_linker_0, # of connection points: 2
#     Edge 45, Type (0, 0), BuildingBlock: OJICUG_clean_linker_0, # of connection points: 2
#     Edge 46, Type (0, 0), BuildingBlock: OJICUG_clean_linker_0, # of connection points: 2
#     Edge 47, Type (0, 0), BuildingBlock: OJICUG_clean_linker_0, # of connection points: 2
#     Edge 48, Type (0, 0), BuildingBlock: OJICUG_clean_linker_0, # of connection points: 2
#     Edge 49, Type (0, 0), BuildingBlock: OJICUG_clean_linker_0, # of connection points: 2
#     Edge 50, Type (0, 0), BuildingBlock: OJICUG_clean_linker_0, # of connection points: 2
#     Edge 51, Type (0, 0), BuildingBlock: OJICUG_clean_linker_0, # of connection points: 2
#     Edge 52, Type (0, 0), BuildingBlock: OJICUG_clean_linker_0, # of connection points: 2
#     Edge 53, Type (0, 0), BuildingBlock: OJICUG_clean_linker_0, # of connection points: 2
#     Edge 54, Type (0, 0), BuildingBlock: OJICUG_clean_linker_0, # of connection points: 2
#     Edge 55, Type (0, 0), BuildingBlock: OJICUG_clean_linker_0, # of connection points: 2
#     Edge 56, Type (0, 0), BuildingBlock: OJICUG_clean_linker_0, # of connection points: 2
#     Edge 57, Type (0, 0), BuildingBlock: OJICUG_clean_linker_0, # of connection points: 2
#     Edge 58, Type (0, 0), BuildingBlock: OJICUG_clean_linker_0, # of connection points: 2
#     Edge 59, Type (0, 0), BuildingBlock: OJICUG_clean_linker_0, # of connection points: 2
#     Edge 60, Type (0, 0), BuildingBlock: OJICUG_clean_linker_0, # of connection points: 2
#     Edge 61, Type (0, 0), BuildingBlock: OJICUG_clean_linker_0, # of connection points: 2
#     Edge 62, Type (0, 0), BuildingBlock: OJICUG_clean_linker_0, # of connection points: 2
#     Edge 63, Type (0, 0), BuildingBlock: OJICUG_clean_linker_0, # of connection points: 2
#     Edge 64, Type (0, 0), BuildingBlock: OJICUG_clean_linker_0, # of connection points: 2
#     Edge 65, Type (0, 0), BuildingBlock: OJICUG_clean_linker_0, # of connection points: 2
#     Edge 66, Type (0, 0), BuildingBlock: OJICUG_clean_linker_0, # of connection points: 2
#     Edge 67, Type (0, 0), BuildingBlock: OJICUG_clean_linker_0, # of connection points: 2
#     Edge 68, Type (0, 0), BuildingBlock: OJICUG_clean_linker_0, # of connection points: 2
#     Edge 69, Type (0, 0), BuildingBlock: OJICUG_clean_linker_0, # of connection points: 2
#     Edge 70, Type (0, 0), BuildingBlock: OJICUG_clean_linker_0, # of connection points: 2
#     Edge 71, Type (0, 0), BuildingBlock: OJICUG_clean_linker_0, # of connection points: 2
#     Edge 72, Type (0, 0), BuildingBlock: OJICUG_clean_linker_0, # of connection points: 2
#     Edge 73, Type (0, 0), BuildingBlock: OJICUG_clean_linker_0, # of connection points: 2
#     Edge 74, Type (0, 0), BuildingBlock: OJICUG_clean_linker_0, # of connection points: 2
#     Edge 75, Type (0, 0), BuildingBlock: OJICUG_clean_linker_0, # of connection points: 2
#     Edge 76, Type (0, 0), BuildingBlock: OJICUG_clean_linker_0, # of connection points: 2
#     Edge 77, Type (0, 0), BuildingBlock: OJICUG_clean_linker_0, # of connection points: 2
#     Edge 78, Type (0, 0), BuildingBlock: OJICUG_clean_linker_0, # of connection points: 2
#     Edge 79, Type (0, 0), BuildingBlock: OJICUG_clean_linker_0, # of connection points: 2
#     Edge 80, Type (0, 0), BuildingBlock: OJICUG_clean_linker_0, # of connection points: 2
#     Edge 81, Type (0, 0), BuildingBlock: OJICUG_clean_linker_0, # of connection points: 2
#     Edge 82, Type (0, 0), BuildingBlock: OJICUG_clean_linker_0, # of connection points: 2
#     Edge 83, Type (0, 0), BuildingBlock: OJICUG_clean_linker_0, # of connection points: 2
#     Edge 84, Type (0, 0), BuildingBlock: OJICUG_clean_linker_0, # of connection points: 2
#     Edge 85, Type (0, 0), BuildingBlock: OJICUG_clean_linker_0, # of connection points: 2
#     Edge 86, Type (0, 0), BuildingBlock: OJICUG_clean_linker_0, # of connection points: 2
#     Edge 87, Type (0, 0), BuildingBlock: OJICUG_clean_linker_0, # of connection points: 2
#     Edge 88, Type (0, 0), BuildingBlock: OJICUG_clean_linker_0, # of connection points: 2
#     Edge 89, Type (0, 0), BuildingBlock: OJICUG_clean_linker_0, # of connection points: 2
#     Edge 90, Type (0, 0), BuildingBlock: OJICUG_clean_linker_0, # of connection points: 2
#     Edge 91, Type (0, 0), BuildingBlock: OJICUG_clean_linker_0, # of connection points: 2
#     Edge 92, Type (0, 0), BuildingBlock: OJICUG_clean_linker_0, # of connection points: 2
#     Edge 93, Type (0, 0), BuildingBlock: OJICUG_clean_linker_0, # of connection points: 2
#     Edge 94, Type (0, 0), BuildingBlock: OJICUG_clean_linker_0, # of connection points: 2
#     Edge 95, Type (0, 0), BuildingBlock: OJICUG_clean_linker_0, # of connection points: 2
#     Edge 96, Type (0, 0), BuildingBlock: OJICUG_clean_linker_0, # of connection points: 2
#     Edge 97, Type (0, 0), BuildingBlock: OJICUG_clean_linker_0, # of connection points: 2
#     Edge 98, Type (0, 0), BuildingBlock: OJICUG_clean_linker_0, # of connection points: 2
#     Edge 99, Type (0, 0), BuildingBlock: OJICUG_clean_linker_0, # of connection points: 2
#     Edge 100, Type (0, 0), BuildingBlock: OJICUG_clean_linker_0, # of connection points: 2
#     Edge 101, Type (0, 0), BuildingBlock: OJICUG_clean_linker_0, # of connection points: 2
#     Edge 102, Type (0, 0), BuildingBlock: OJICUG_clean_linker_0, # of connection points: 2
#     Edge 103, Type (0, 0), BuildingBlock: OJICUG_clean_linker_0, # of connection points: 2
#     Edge 104, Type (0, 0), BuildingBlock: OJICUG_clean_linker_0, # of connection points: 2
#     Edge 105, Type (0, 0), BuildingBlock: OJICUG_clean_linker_0, # of connection points: 2
#     Edge 106, Type (0, 0), BuildingBlock: OJICUG_clean_linker_0, # of connection points: 2
#     Edge 107, Type (0, 0), BuildingBlock: OJICUG_clean_linker_0, # of connection points: 2
#     Edge 108, Type (0, 0), BuildingBlock: OJICUG_clean_linker_0, # of connection points: 2
#     Edge 109, Type (0, 0), BuildingBlock: OJICUG_clean_linker_0, # of connection points: 2
#     Edge 110, Type (0, 0), BuildingBlock: OJICUG_clean_linker_0, # of connection points: 2
#     Edge 111, Type (0, 0), BuildingBlock: OJICUG_clean_linker_0, # of connection points: 2
#     Edge 112, Type (0, 0), BuildingBlock: OJICUG_clean_linker_0, # of connection points: 2
#     Edge 113, Type (0, 0), BuildingBlock: OJICUG_clean_linker_0, # of connection points: 2
#     Edge 114, Type (0, 0), BuildingBlock: OJICUG_clean_linker_0, # of connection points: 2
#     Edge 115, Type (0, 0), BuildingBlock: OJICUG_clean_linker_0, # of connection points: 2
#     Edge 116, Type (0, 0), BuildingBlock: OJICUG_clean_linker_0, # of connection points: 2
#     Edge 117, Type (0, 0), BuildingBlock: OJICUG_clean_linker_0, # of connection points: 2
#     Edge 118, Type (0, 0), BuildingBlock: OJICUG_clean_linker_0, # of connection points: 2
#     Edge 119, Type (0, 0), BuildingBlock: OJICUG_clean_linker_0, # of connection points: 2
#     Edge 120, Type (0, 0), BuildingBlock: OJICUG_clean_linker_0, # of connection points: 2
#     Edge 121, Type (0, 0), BuildingBlock: OJICUG_clean_linker_0, # of connection points: 2
#     Edge 122, Type (0, 0), BuildingBlock: OJICUG_clean_linker_0, # of connection points: 2
#     Edge 123, Type (0, 0), BuildingBlock: OJICUG_clean_linker_0, # of connection points: 2
#     Edge 124, Type (0, 0), BuildingBlock: OJICUG_clean_linker_0, # of connection points: 2
#     Edge 125, Type (0, 0), BuildingBlock: OJICUG_clean_linker_0, # of connection points: 2
#     Edge 126, Type (0, 0), BuildingBlock: OJICUG_clean_linker_0, # of connection points: 2
#     Edge 127, Type (0, 0), BuildingBlock: OJICUG_clean_linker_0, # of connection points: 2
#     Edge 128, Type (0, 0), BuildingBlock: OJICUG_clean_linker_0, # of connection points: 2
#     Edge 129, Type (0, 0), BuildingBlock: OJICUG_clean_linker_0, # of connection points: 2
#     Edge 130, Type (0, 0), BuildingBlock: OJICUG_clean_linker_0, # of connection points: 2
#     Edge 131, Type (0, 0), BuildingBlock: OJICUG_clean_linker_0, # of connection points: 2
#     Edge 132, Type (0, 0), BuildingBlock: OJICUG_clean_linker_0, # of connection points: 2
#     Edge 133, Type (0, 0), BuildingBlock: OJICUG_clean_linker_0, # of connection points: 2
#     Edge 134, Type (0, 0), BuildingBlock: OJICUG_clean_linker_0, # of connection points: 2
#     Edge 135, Type (0, 0), BuildingBlock: OJICUG_clean_linker_0, # of connection points: 2
#     Edge 136, Type (0, 0), BuildingBlock: OJICUG_clean_linker_0, # of connection points: 2
#     Edge 137, Type (0, 0), BuildingBlock: OJICUG_clean_linker_0, # of connection points: 2
#     Edge 138, Type (0, 0), BuildingBlock: OJICUG_clean_linker_0, # of connection points: 2
#     Edge 139, Type (0, 0), BuildingBlock: OJICUG_clean_linker_0, # of connection points: 2
#     Edge 140, Type (0, 0), BuildingBlock: OJICUG_clean_linker_0, # of connection points: 2
#     Edge 141, Type (0, 0), BuildingBlock: OJICUG_clean_linker_0, # of connection points: 2
#     Edge 142, Type (0, 0), BuildingBlock: OJICUG_clean_linker_0, # of connection points: 2
#     Edge 143, Type (0, 0), BuildingBlock: OJICUG_clean_linker_0, # of connection points: 2
# Relax obj value: 0.454
# Max RMSD: 0.185
# Mean RMSD: 0.185
data_MOF--net-wmy--node1-OJICUG_clean_sbu_0--edge1-OJICUG_clean_linker_0
_symmetry_space_group_name_H-M    P1
_symmetry_Int_Tables_number       1
_symmetry_cell_setting            triclinic
loop_
_symmetry_equiv_pos_as_xyz
'x, y, z'
_cell_length_a     40.47207
_cell_length_b     40.453642
_cell_length_c     43.537808
_cell_angle_alpha  89.953977
_cell_angle_beta   89.983927
_cell_angle_gamma 119.994
loop_
_atom_site_label
_atom_site_type_symbol
_atom_site_fract_x
_atom_site_fract_y
_atom_site_fract_z
_atom_type_partial_charge
Sc0 Sc 0.0098 0.13055 0.08012 0.0
Sc1 Sc 0.06139 0.21773 0.11707 0.0
Sc2 Sc 0.96033 0.17287 0.11129 0.0
O3 O 0.01038 0.17382 0.10291 0.0
C4 C 0.95017 0.14346 0.04222 0.0
C5 C 0.08391 0.20274 0.05213 0.0
C6 C 0.01584 0.26021 0.09773 0.0
C7 C 0.07368 0.14627 0.12771 0.0
C8 C 0.93514 0.08612 0.12175 0.0
C9 C 0.00749 0.20256 0.17436 0.0
O10 O 0.97697 0.13575 0.04381 0.0
O11 O 0.08602 0.22739 0.07137 0.0
O12 O 0.98338 0.23049 0.09471 0.0
O13 O 0.0427 0.12266 0.11468 0.0
O14 O 0.93136 0.11463 0.12845 0.0
O15 O 0.03988 0.21083 0.16323 0.0
O16 O 0.9604 0.0881 0.10346 0.0
O17 O 0.08604 0.18203 0.12798 0.0
O18 O 0.97763 0.19154 0.15802 0.0
O19 O 0.06009 0.16734 0.05442 0.0
O20 O 0.93833 0.15396 0.06527 0.0
O21 O 0.04506 0.25975 0.10772 0.0
Sc22 Sc 0.87107 0.88091 0.08037 0.0
Sc23 Sc 0.78355 0.84482 0.11686 0.0
Sc24 Sc 0.82868 0.78881 0.11106 0.0
O25 O 0.82764 0.83792 0.10281 0.0
C26 C 0.85858 0.80879 0.04206 0.0
C27 C 0.79908 0.88297 0.05219 0.0
C28 C 0.7413 0.75685 0.0974 0.0
C29 C 0.85475 0.9285 0.12803 0.0
C30 C 0.91538 0.85039 0.12173 0.0
C31 C 0.79881 0.80609 0.17416 0.0
O32 O 0.86634 0.84331 0.04388 0.0
O33 O 0.77422 0.86005 0.07117 0.0
O34 O 0.77106 0.75415 0.09449 0.0
O35 O 0.87853 0.92123 0.11519 0.0
O36 O 0.88691 0.81797 0.1282 0.0
O37 O 0.79027 0.83 0.16297 0.0
O38 O 0.9134 0.87388 0.10367 0.0
O39 O 0.819 0.90513 0.12796 0.0
O40 O 0.81002 0.78735 0.15785 0.0
O41 O 0.83446 0.89465 0.0547 0.0
O42 O 0.84773 0.78611 0.06494 0.0
O43 O 0.74166 0.78651 0.10733 0.0
Sc44 Sc 0.12113 0.99133 0.07991 0.0
Sc45 Sc 0.1568 0.93984 0.11703 0.0
Sc46 Sc 0.21285 0.04096 0.1111 0.0
O47 O 0.16383 0.99083 0.10274 0.0
C48 C 0.19362 0.05126 0.04203 0.0
C49 C 0.11959 0.91742 0.05201 0.0
C50 C 0.24484 0.9855 0.09777 0.0
C51 C 0.073 0.92729 0.12755 0.0
C52 C 0.15106 0.06591 0.12148 0.0
C53 C 0.19525 0.9938 0.17426 0.0
O54 O 0.15912 0.02443 0.04363 0.0
O55 O 0.14198 0.91524 0.07136 0.0
O56 O 0.24754 0.01796 0.09464 0.0
O57 O 0.08027 0.9582 0.1144 0.0
O58 O 0.18343 0.06987 0.12812 0.0
O59 O 0.17123 0.96138 0.16315 0.0
O60 O 0.12781 0.04055 0.10327 0.0
O61 O 0.09644 0.915 0.1279 0.0
O62 O 0.21413 0.02368 0.15788 0.0
O63 O 0.10796 0.9412 0.05419 0.0
O64 O 0.21599 0.06299 0.06505 0.0
O65 O 0.21517 0.95627 0.1078 0.0
Sc66 Sc 0.1329 0.0131 0.40175 0.0
Sc67 Sc 0.21914 0.06375 0.36314 0.0
Sc68 Sc 0.17378 0.96268 0.36981 0.0
O69 O 0.17538 0.01305 0.37818 0.0
C70 C 0.14513 0.9527 0.43922 0.0
C71 C 0.20633 0.08667 0.42866 0.0
C72 C 0.26162 0.01778 0.38159 0.0
C73 C 0.14804 0.07691 0.35401 0.0
C74 C 0.08708 0.93854 0.36044 0.0
C75 C 0.20238 0.0092 0.30623 0.0
O76 O 0.13788 0.97983 0.43779 0.0
O77 O 0.23026 0.08875 0.40868 0.0
O78 O 0.2318 0.98553 0.38553 0.0
O79 O 0.12472 0.04631 0.36766 0.0
O80 O 0.11517 0.93416 0.35346 0.0
O81 O 0.21079 0.04171 0.31717 0.0
O82 O 0.08972 0.96407 0.37873 0.0
O83 O 0.18371 0.08899 0.35294 0.0
O84 O 0.1917 0.9795 0.32279 0.0
O85 O 0.17083 0.06306 0.42714 0.0
O86 O 0.15541 0.94084 0.41605 0.0
O87 O 0.26103 0.0469 0.37142 0.0
Sc88 Sc 0.98946 0.12002 0.39977 0.0
Sc89 Sc 0.93794 0.15587 0.36327 0.0
Sc90 Sc 0.03875 0.21259 0.36986 0.0
O91 O 0.98891 0.16311 0.37761 0.0
C92 C 0.04856 0.19193 0.43871 0.0
C93 C 0.91551 0.11828 0.42792 0.0
C94 C 0.98259 0.24399 0.38216 0.0
C95 C 0.92534 0.07203 0.35269 0.0
C96 C 0.06492 0.15161 0.35903 0.0
C97 C 0.99217 0.19472 0.30634 0.0
O98 O 0.02214 0.15729 0.43652 0.0
O99 O 0.91379 0.14144 0.40907 0.0
O100 O 0.01495 0.24676 0.38625 0.0
O101 O 0.95694 0.07979 0.36473 0.0
O102 O 0.06875 0.18411 0.35298 0.0
O103 O 0.95979 0.17012 0.31724 0.0
O104 O 0.0391 0.12755 0.37656 0.0
O105 O 0.91285 0.0953 0.35306 0.0
O106 O 0.02178 0.21402 0.32291 0.0
O107 O 0.9389 0.10619 0.42525 0.0
O108 O 0.06008 0.21507 0.41612 0.0
O109 O 0.95391 0.21427 0.37165 0.0
Sc110 Sc 0.87842 0.87029 0.40187 0.0
Sc111 Sc 0.8457 0.7845 0.36338 0.0
Sc112 Sc 0.78698 0.82652 0.36973 0.0
O113 O 0.83676 0.82697 0.37832 0.0
C114 C 0.80462 0.85508 0.4392 0.0
C115 C 0.88124 0.79822 0.42899 0.0
C116 C 0.75687 0.73896 0.38066 0.0
C117 C 0.92885 0.85719 0.35462 0.0
C118 C 0.84748 0.91416 0.36049 0.0
C119 C 0.8071 0.79981 0.30621 0.0
O120 O 0.83945 0.86387 0.43775 0.0
O121 O 0.85985 0.77391 0.40906 0.0
O122 O 0.7529 0.76787 0.38486 0.0
O123 O 0.9205 0.87993 0.36792 0.0
O124 O 0.81547 0.88535 0.3536 0.0
O125 O 0.83191 0.79249 0.3173 0.0
O126 O 0.87097 0.91247 0.37871 0.0
O127 O 0.90608 0.82136 0.35363 0.0
O128 O 0.78714 0.80942 0.32265 0.0
O129 O 0.89203 0.83351 0.42738 0.0
O130 O 0.78239 0.84391 0.41607 0.0
O131 O 0.78756 0.7413 0.37103 0.0
Sc132 Sc 0.04083 0.82886 0.86939 0.0
Sc133 Sc 0.93986 0.78456 0.86346 0.0
Sc134 Sc 0.9917 0.87161 0.90046 0.0
O135 O 0.99095 0.82823 0.87771 0.0
C136 C 0.05107 0.85837 0.9385 0.0
C137 C 0.98491 0.74128 0.8821 0.0
C138 C 0.91761 0.79941 0.92842 0.0
C139 C 0.99367 0.7997 0.8062 0.0
C140 C 0.0666 0.91594 0.85915 0.0
C141 C 0.92771 0.8562 0.85322 0.0
O142 O 0.0627 0.84749 0.91554 0.0
O143 O 0.95592 0.74219 0.87211 0.0
O144 O 0.94133 0.83483 0.92606 0.0
O145 O 0.02351 0.81045 0.82255 0.0
O146 O 0.0412 0.91399 0.87725 0.0
O147 O 0.91518 0.82042 0.85306 0.0
O148 O 0.07028 0.88734 0.85249 0.0
O149 O 0.96137 0.79179 0.81732 0.0
O150 O 0.95898 0.87976 0.86588 0.0
O151 O 0.0174 0.7709 0.88563 0.0
O152 O 0.02445 0.86634 0.93681 0.0
O153 O 0.91553 0.77472 0.90924 0.0
Sc154 Sc 0.17459 0.21424 0.86979 0.0
Sc155 Sc 0.21907 0.15768 0.86363 0.0
Sc156 Sc 0.13189 0.1221 0.90057 0.0
O157 O 0.1753 0.16496 0.87797 0.0
C158 C 0.14478 0.19445 0.93889 0.0
C159 C 0.26225 0.24598 0.88235 0.0
C160 C 0.20409 0.1203 0.92853 0.0
C161 C 0.20349 0.19625 0.80643 0.0
C162 C 0.08756 0.1528 0.85945 0.0
C163 C 0.14767 0.07388 0.85318 0.0
O164 O 0.15605 0.21727 0.91608 0.0
O165 O 0.26136 0.21607 0.8724 0.0
O166 O 0.16869 0.10862 0.92619 0.0
O167 O 0.19269 0.21531 0.8228 0.0
O168 O 0.08955 0.12913 0.87729 0.0
O169 O 0.18342 0.09719 0.85306 0.0
O170 O 0.11606 0.18527 0.8531 0.0
O171 O 0.21177 0.17212 0.81757 0.0
O172 O 0.12404 0.08142 0.86593 0.0
O173 O 0.23262 0.24886 0.88584 0.0
O174 O 0.13667 0.15983 0.93698 0.0
O175 O 0.22881 0.14295 0.90935 0.0
Sc176 Sc 0.78921 0.96277 0.86984 0.0
Sc177 Sc 0.8458 0.06372 0.86328 0.0
Sc178 Sc 0.8811 0.01218 0.90076 0.0
O179 O 0.83844 0.01273 0.87792 0.0
C180 C 0.80861 0.95271 0.93898 0.0
C181 C 0.75751 0.01874 0.88198 0.0
C182 C 0.88254 0.08618 0.92834 0.0
C183 C 0.80737 0.00944 0.80631 0.0
C184 C 0.85069 0.93719 0.85969 0.0
C185 C 0.92966 0.07613 0.85333 0.0
O186 O 0.78602 0.94109 0.91608 0.0
O187 O 0.78733 0.0476 0.8717 0.0
O188 O 0.89432 0.0625 0.92621 0.0
O189 O 0.78812 0.97979 0.82288 0.0
O190 O 0.87419 0.96275 0.87764 0.0
O191 O 0.90635 0.08857 0.85299 0.0
O192 O 0.81831 0.9333 0.85316 0.0
O193 O 0.83175 0.04186 0.81724 0.0
O194 O 0.92202 0.04496 0.86619 0.0
O195 O 0.75472 0.98632 0.8859 0.0
O196 O 0.84318 0.97932 0.93716 0.0
O197 O 0.86009 0.08825 0.90897 0.0
Sc198 Sc 0.82903 0.04005 0.61095 0.0
Sc199 Sc 0.78292 0.93884 0.61742 0.0
Sc200 Sc 0.86958 0.98922 0.57921 0.0
O201 O 0.82707 0.98946 0.60261 0.0
C202 C 0.85754 0.04961 0.54161 0.0
C203 C 0.7414 0.98528 0.59784 0.0
C204 C 0.7964 0.91537 0.55217 0.0
C205 C 0.79935 0.99355 0.67436 0.0
C206 C 0.9155 0.06378 0.62064 0.0
C207 C 0.85387 0.92568 0.62753 0.0
O208 O 0.8476 0.06177 0.56479 0.0
O209 O 0.74144 0.95582 0.60786 0.0
O210 O 0.83185 0.93919 0.5537 0.0
O211 O 0.8108 0.02339 0.65786 0.0
O212 O 0.91282 0.03826 0.60231 0.0
O213 O 0.81824 0.91382 0.62861 0.0
O214 O 0.88746 0.06824 0.62757 0.0
O215 O 0.79038 0.96092 0.66338 0.0
O216 O 0.8773 0.95591 0.61346 0.0
O217 O 0.77134 0.01761 0.59483 0.0
O218 O 0.86467 0.02242 0.54307 0.0
O219 O 0.7724 0.91332 0.57206 0.0
Sc220 Sc 0.96028 0.78803 0.61125 0.0
Sc221 Sc 0.06146 0.84375 0.61667 0.0
Sc222 Sc 0.01006 0.88017 0.58051 0.0
O223 O 0.01047 0.83708 0.60288 0.0
C224 C 0.95 0.80803 0.54239 0.0
C225 C 0.01543 0.7559 0.59693 0.0
C226 C 0.08381 0.88192 0.55193 0.0
C227 C 0.00769 0.80498 0.67413 0.0
C228 C 0.93545 0.84981 0.62225 0.0
C229 C 0.07441 0.92764 0.62799 0.0
O230 O 0.93833 0.78535 0.56526 0.0
O231 O 0.04487 0.7855 0.60673 0.0
O232 O 0.06008 0.89358 0.55446 0.0
O233 O 0.97762 0.78645 0.65794 0.0
O234 O 0.96096 0.87335 0.60423 0.0
O235 O 0.08647 0.90401 0.62801 0.0
O236 O 0.93137 0.81729 0.62853 0.0
O237 O 0.04011 0.82874 0.66283 0.0
O238 O 0.04345 0.92064 0.61511 0.0
O239 O 0.98296 0.75326 0.59445 0.0
O240 O 0.97676 0.84255 0.54415 0.0
O241 O 0.08594 0.85919 0.57098 0.0
Sc242 Sc 0.21384 0.1722 0.61165 0.0
Sc243 Sc 0.15681 0.21638 0.61653 0.0
Sc244 Sc 0.12252 0.12922 0.57959 0.0
O245 O 0.16459 0.17272 0.60269 0.0
C246 C 0.19583 0.14299 0.54249 0.0
C247 C 0.24487 0.25938 0.59711 0.0
C248 C 0.11922 0.20059 0.55146 0.0
C249 C 0.19589 0.20227 0.67428 0.0
C250 C 0.15274 0.08525 0.62178 0.0
C251 C 0.07348 0.14413 0.62709 0.0
O252 O 0.21775 0.1534 0.56579 0.0
O253 O 0.21485 0.25873 0.60649 0.0
O254 O 0.10858 0.1654 0.55359 0.0
O255 O 0.21465 0.19088 0.65824 0.0
O256 O 0.12971 0.08704 0.60311 0.0
O257 O 0.09668 0.17994 0.62779 0.0
O258 O 0.18471 0.11394 0.62887 0.0
O259 O 0.17192 0.21053 0.66282 0.0
O260 O 0.0811 0.12087 0.61372 0.0
O261 O 0.24822 0.22989 0.59507 0.0
O262 O 0.16124 0.13505 0.54366 0.0
O263 O 0.14113 0.22538 0.57087 0.0
Sc264 Sc 0.67161 0.45603 0.42234 0.0
Sc265 Sc 0.7269 0.54885 0.45004 0.0
Sc266 Sc 0.62534 0.50481 0.44669 0.0
O267 O 0.67475 0.50354 0.43959 0.0
C268 C 0.60804 0.46345 0.38316 0.0
C269 C 0.74166 0.52214 0.38541 0.0
C270 C 0.68234 0.59086 0.4272 0.0
C271 C 0.74228 0.48117 0.46715 0.0
C272 C 0.60018 0.41863 0.46582 0.0
C273 C 0.67391 0.53935 0.5081 0.0
O274 O 0.62875 0.44891 0.38957 0.0
O275 O 0.74999 0.54871 0.40488 0.0
O276 O 0.64884 0.56314 0.43123 0.0
O277 O 0.71332 0.4564 0.45264 0.0
O278 O 0.59271 0.44553 0.46263 0.0
O279 O 0.70656 0.55096 0.49571 0.0
O280 O 0.62981 0.42017 0.45473 0.0
O281 O 0.75158 0.5161 0.46813 0.0
O282 O 0.64258 0.52261 0.49324 0.0
O283 O 0.71457 0.48806 0.38896 0.0
O284 O 0.60536 0.48734 0.40036 0.0
O285 O 0.71211 0.58909 0.43269 0.0
Sc286 Sc 0.53664 0.21815 0.41656 0.0
Sc287 Sc 0.44763 0.17744 0.4511 0.0
Sc288 Sc 0.49586 0.12457 0.44439 0.0
O289 O 0.49335 0.17313 0.43743 0.0
C290 C 0.5281 0.14849 0.37621 0.0
C291 C 0.46339 0.21532 0.38615 0.0
C292 C 0.40815 0.0901 0.43048 0.0
C293 C 0.5157 0.26215 0.46448 0.0
C294 C 0.58161 0.18816 0.45766 0.0
C295 C 0.4639 0.1389 0.50794 0.0
O296 O 0.53591 0.18288 0.37961 0.0
O297 O 0.43881 0.19195 0.40506 0.0
O298 O 0.43862 0.08876 0.42727 0.0
O299 O 0.54079 0.25677 0.45179 0.0
O300 O 0.55399 0.15446 0.4618 0.0
O301 O 0.45434 0.16223 0.49707 0.0
O302 O 0.57909 0.21262 0.44119 0.0
O303 O 0.48028 0.23778 0.46327 0.0
O304 O 0.47644 0.12142 0.49138 0.0
O305 O 0.49914 0.22965 0.38959 0.0
O306 O 0.51563 0.12408 0.39794 0.0
O307 O 0.4074 0.11892 0.44099 0.0
Sc308 Sc 0.78602 0.32883 0.41786 0.0
Sc309 Sc 0.82176 0.27506 0.45019 0.0
Sc310 Sc 0.87987 0.37604 0.44504 0.0
O311 O 0.82959 0.32686 0.43774 0.0
C312 C 0.85702 0.38617 0.37703 0.0
C313 C 0.78086 0.25475 0.38677 0.0
C314 C 0.90933 0.31886 0.42957 0.0
C315 C 0.73939 0.26444 0.4648 0.0
C316 C 0.82082 0.40392 0.45909 0.0
C317 C 0.86305 0.3278 0.50771 0.0
O318 O 0.82209 0.36093 0.38039 0.0
O319 O 0.80516 0.25252 0.40393 0.0
O320 O 0.91296 0.35179 0.42726 0.0
O321 O 0.74762 0.2968 0.45404 0.0
O322 O 0.85325 0.40703 0.46372 0.0
O323 O 0.83833 0.29564 0.49648 0.0
O324 O 0.79576 0.37861 0.44193 0.0
O325 O 0.76176 0.251 0.46233 0.0
O326 O 0.88187 0.35796 0.49154 0.0
O327 O 0.76922 0.27818 0.39155 0.0
O328 O 0.88129 0.39742 0.39883 0.0
O329 O 0.87934 0.28992 0.43945 0.0
Sc330 Sc 0.79548 0.34412 0.73082 0.0
Sc331 Sc 0.88476 0.39504 0.69723 0.0
Sc332 Sc 0.83866 0.29378 0.70288 0.0
O333 O 0.83975 0.34412 0.71026 0.0
C334 C 0.80642 0.28453 0.77109 0.0
C335 C 0.86654 0.41714 0.76102 0.0
C336 C 0.92581 0.34867 0.71806 0.0
C337 C 0.81486 0.40885 0.68333 0.0
C338 C 0.75238 0.26909 0.68968 0.0
C339 C 0.87071 0.34115 0.63992 0.0
O340 O 0.79812 0.31082 0.76804 0.0
O341 O 0.8922 0.41868 0.74317 0.0
O342 O 0.89586 0.31625 0.72031 0.0
O343 O 0.79012 0.37742 0.69511 0.0
O344 O 0.78079 0.2645 0.68487 0.0
O345 O 0.87957 0.37373 0.6511 0.0
O346 O 0.75397 0.29514 0.70675 0.0
O347 O 0.85048 0.42086 0.68491 0.0
O348 O 0.85842 0.31094 0.65619 0.0
O349 O 0.83119 0.39418 0.75712 0.0
O350 O 0.81866 0.27276 0.74909 0.0
O351 O 0.92593 0.3782 0.70813 0.0
Sc352 Sc 0.66039 0.45412 0.7306 0.0
Sc353 Sc 0.60925 0.49245 0.69745 0.0
Sc354 Sc 0.71047 0.54787 0.70285 0.0
O355 O 0.66023 0.49845 0.71021 0.0
C356 C 0.71983 0.52457 0.77084 0.0
C357 C 0.58717 0.45161 0.76099 0.0
C358 C 0.65533 0.5797 0.7187 0.0
C359 C 0.59566 0.40877 0.68325 0.0
C360 C 0.73544 0.48652 0.68931 0.0
C361 C 0.66299 0.53325 0.64022 0.0
O362 O 0.69354 0.48998 0.76784 0.0
O363 O 0.58558 0.47582 0.7433 0.0
O364 O 0.68785 0.58236 0.72068 0.0
O365 O 0.62715 0.41551 0.69488 0.0
O366 O 0.73983 0.51948 0.68449 0.0
O367 O 0.63054 0.50921 0.65142 0.0
O368 O 0.7095 0.46197 0.70643 0.0
O369 O 0.58365 0.43241 0.68487 0.0
O370 O 0.69326 0.55099 0.65635 0.0
O371 O 0.61026 0.43938 0.75699 0.0
O372 O 0.7316 0.54861 0.74887 0.0
O373 O 0.62586 0.55028 0.70879 0.0
Sc374 Sc 0.54969 0.20859 0.73094 0.0
Sc375 Sc 0.51194 0.11918 0.69766 0.0
Sc376 Sc 0.45629 0.16481 0.70277 0.0
O377 O 0.50567 0.16408 0.71039 0.0
C378 C 0.47884 0.19716 0.77091 0.0
C379 C 0.55239 0.13801 0.76143 0.0
C380 C 0.42457 0.07771 0.71867 0.0
C381 C 0.59532 0.18953 0.68352 0.0
C382 C 0.51755 0.2514 0.68957 0.0
C383 C 0.47174 0.1324 0.64013 0.0
O384 O 0.51349 0.20565 0.76803 0.0
O385 O 0.52848 0.11218 0.74362 0.0
O386 O 0.42171 0.1075 0.72036 0.0
O387 O 0.58853 0.21415 0.69536 0.0
O388 O 0.48469 0.22279 0.6846 0.0
O389 O 0.4955 0.1237 0.65144 0.0
O390 O 0.54197 0.24994 0.70677 0.0
O391 O 0.57187 0.15385 0.68509 0.0
O392 O 0.4539 0.14487 0.65624 0.0
O393 O 0.5644 0.17329 0.75745 0.0
O394 O 0.45497 0.18486 0.74884 0.0
O395 O 0.45417 0.07778 0.70902 0.0
Sc396 Sc 0.70758 0.16212 0.20308 0.0
Sc397 Sc 0.60645 0.11679 0.19744 0.0
Sc398 Sc 0.65805 0.20801 0.22709 0.0
O399 O 0.65761 0.16218 0.20923 0.0
C400 C 0.71669 0.1979 0.26982 0.0
C401 C 0.65198 0.07548 0.21965 0.0
C402 C 0.58544 0.13898 0.25997 0.0
C403 C 0.66026 0.12885 0.14031 0.0
C404 C 0.73383 0.24821 0.18652 0.0
C405 C 0.59251 0.18581 0.18012 0.0
O406 O 0.72759 0.18299 0.24926 0.0
O407 O 0.62259 0.07558 0.20982 0.0
O408 O 0.60814 0.17407 0.25436 0.0
O409 O 0.69052 0.14153 0.15656 0.0
O410 O 0.70699 0.24771 0.20179 0.0
O411 O 0.58049 0.15039 0.18365 0.0
O412 O 0.7385 0.21952 0.18428 0.0
O413 O 0.62763 0.12007 0.1514 0.0
O414 O 0.6245 0.2113 0.19046 0.0
O415 O 0.68458 0.1052 0.22134 0.0
O416 O 0.69167 0.20764 0.26508 0.0
O417 O 0.58375 0.11213 0.24352 0.0
Sc418 Sc 0.83695 0.54107 0.20295 0.0
Sc419 Sc 0.88485 0.48797 0.19608 0.0
Sc420 Sc 0.79476 0.44637 0.22765 0.0
O421 O 0.83896 0.49225 0.20889 0.0
C422 C 0.80277 0.51373 0.27029 0.0
C423 C 0.92417 0.57468 0.21819 0.0
C424 C 0.86609 0.44589 0.25869 0.0
C425 C 0.87065 0.52854 0.13965 0.0
C426 C 0.7512 0.47919 0.18818 0.0
C427 C 0.81665 0.40443 0.17976 0.0
O428 O 0.81534 0.53898 0.24914 0.0
O429 O 0.92509 0.54625 0.20701 0.0
O430 O 0.83069 0.43138 0.25324 0.0
O431 O 0.85814 0.54593 0.15637 0.0
O432 O 0.75311 0.45426 0.20439 0.0
O433 O 0.85206 0.4277 0.18349 0.0
O434 O 0.77938 0.51258 0.18413 0.0
O435 O 0.87937 0.50441 0.1502 0.0
O436 O 0.79123 0.41098 0.19008 0.0
O437 O 0.89364 0.57587 0.22152 0.0
O438 O 0.79551 0.47961 0.26612 0.0
O439 O 0.89188 0.47209 0.2422 0.0
Sc440 Sc 0.45224 0.28864 0.20075 0.0
Sc441 Sc 0.51069 0.39033 0.19958 0.0
Sc442 Sc 0.54482 0.33391 0.23092 0.0
O443 O 0.50236 0.33755 0.21031 0.0
C444 C 0.47112 0.27216 0.26779 0.0
C445 C 0.42247 0.34537 0.21845 0.0
C446 C 0.54555 0.40335 0.26627 0.0
C447 C 0.47118 0.34021 0.13998 0.0
C448 C 0.51333 0.26301 0.18565 0.0
C449 C 0.59388 0.40291 0.18638 0.0
O450 O 0.44732 0.26467 0.24616 0.0
O451 O 0.45342 0.37506 0.21124 0.0
O452 O 0.55592 0.37892 0.26174 0.0
O453 O 0.4531 0.309 0.15491 0.0
O454 O 0.53858 0.28872 0.20242 0.0
O455 O 0.57025 0.41488 0.18673 0.0
O456 O 0.47989 0.25812 0.1827 0.0
O457 O 0.49431 0.37213 0.15251 0.0
O458 O 0.58706 0.37185 0.199 0.0
O459 O 0.41788 0.31197 0.21775 0.0
O460 O 0.50654 0.29605 0.2653 0.0
O461 O 0.52695 0.4109 0.24655 0.0
Sc462 Sc 0.4972 0.37631 0.94457 0.0
Sc463 Sc 0.45166 0.27512 0.9506 0.0
Sc464 Sc 0.54067 0.32616 0.91669 0.0
O465 O 0.49639 0.32608 0.93732 0.0
C466 C 0.52923 0.38539 0.87635 0.0
C467 C 0.4098 0.32086 0.93014 0.0
C468 C 0.46952 0.25302 0.88672 0.0
C469 C 0.46597 0.32936 0.00769 0.0
C470 C 0.58376 0.40149 0.95746 0.0
C471 C 0.52181 0.26156 0.96414 0.0
O472 O 0.51673 0.39701 0.89825 0.0
O473 O 0.41009 0.29155 0.94009 0.0
O474 O 0.50489 0.27603 0.89049 0.0
O475 O 0.47799 0.35951 -0.0086 0.0
O476 O 0.58215 0.37524 0.94063 0.0
O477 O 0.48617 0.24944 0.96269 0.0
O478 O 0.55531 0.40607 0.96218 0.0
O479 O 0.45723 0.29678 -0.00341 0.0
O480 O 0.5464 0.29305 0.95236 0.0
O481 O 0.43963 0.35336 0.92752 0.0
O482 O 0.53785 0.35934 0.8795 0.0
O483 O 0.44393 0.25138 0.9047 0.0
Sc484 Sc 0.62756 0.1234 0.94517 0.0
Sc485 Sc 0.72865 0.17904 0.95102 0.0
Sc486 Sc 0.67746 0.21716 0.91759 0.0
O487 O 0.67767 0.17288 0.938 0.0
C488 C 0.61832 0.1468 0.8771 0.0
C489 C 0.68295 0.09161 0.93022 0.0
C490 C 0.75059 0.21946 0.88726 0.0
C491 C 0.67478 0.13849 0.00818 0.0
C492 C 0.60211 0.18451 0.9585 0.0
C493 C 0.74205 0.26266 0.96485 0.0
O494 O 0.60662 0.12263 0.89901 0.0
O495 O 0.7122 0.12103 0.94042 0.0
O496 O 0.72773 0.23194 0.89137 0.0
O497 O 0.64473 0.1205 -0.00821 0.0
O498 O 0.62818 0.20918 0.94153 0.0
O499 O 0.75427 0.23922 0.96309 0.0
O500 O 0.59781 0.15158 0.9633 0.0
O501 O 0.70729 0.16276 -0.00282 0.0
O502 O 0.71037 0.25565 0.95346 0.0
O503 O 0.65054 0.08907 0.92755 0.0
O504 O 0.64451 0.18141 0.88024 0.0
O505 O 0.75209 0.19517 0.90497 0.0
Sc506 Sc 0.88055 0.50656 0.94474 0.0
Sc507 Sc 0.82472 0.55177 0.95051 0.0
Sc508 Sc 0.78709 0.46271 0.91688 0.0
O509 O 0.83111 0.50711 0.93742 0.0
C510 C 0.85771 0.47419 0.87659 0.0
C511 C 0.91228 0.59374 0.93013 0.0
C512 C 0.78495 0.53376 0.88673 0.0
C513 C 0.86452 0.53796 0.00772 0.0
C514 C 0.81957 0.41996 0.95792 0.0
C515 C 0.74114 0.48141 0.96395 0.0
O516 O 0.88164 0.48642 0.89862 0.0
O517 O 0.88288 0.59347 0.94049 0.0
O518 O 0.77237 0.49837 0.89082 0.0
O519 O 0.88305 0.5265 -0.00867 0.0
O520 O 0.79507 0.42131 0.94073 0.0
O521 O 0.76441 0.5171 0.96208 0.0
O522 O 0.85235 0.44866 0.96294 0.0
O523 O 0.84017 0.54603 -0.00331 0.0
O524 O 0.74843 0.45683 0.95275 0.0
O525 O 0.91478 0.56387 0.92709 0.0
O526 O 0.8231 0.46586 0.87957 0.0
O527 O 0.80924 0.55948 0.90441 0.0
Sc528 Sc 0.34275 0.80119 0.74144 0.0
Sc529 Sc 0.39549 0.88475 0.78362 0.0
Sc530 Sc 0.29454 0.84211 0.77735 0.0
O531 O 0.34424 0.84279 0.76754 0.0
C532 C 0.2823 0.81619 0.70721 0.0
C533 C 0.4178 0.87477 0.7165 0.0
C534 C 0.35173 0.93007 0.76675 0.0
C535 C 0.40602 0.81167 0.78895 0.0
C536 C 0.26903 0.75459 0.78381 0.0
C537 C 0.34113 0.86779 0.84086 0.0
O538 O 0.30907 0.80845 0.70709 0.0
O539 O 0.42201 0.89708 0.73861 0.0
O540 O 0.31877 0.90102 0.7632 0.0
O541 O 0.37658 0.79044 0.77315 0.0
O542 O 0.26542 0.78276 0.79218 0.0
O543 O 0.37337 0.87591 0.82961 0.0
O544 O 0.29394 0.75751 0.76465 0.0
O545 O 0.41815 0.84703 0.79309 0.0
O546 O 0.31154 0.85796 0.82451 0.0
O547 O 0.39212 0.83987 0.71581 0.0
O548 O 0.27144 0.82579 0.73133 0.0
O549 O 0.3805 0.92814 0.77599 0.0
Sc550 Sc 0.20069 0.54481 0.74262 0.0
Sc551 Sc 0.11629 0.51172 0.78392 0.0
Sc552 Sc 0.16063 0.45503 0.77737 0.0
O553 O 0.15912 0.50371 0.76804 0.0
C554 C 0.18737 0.47051 0.70744 0.0
C555 C 0.12652 0.54488 0.71731 0.0
C556 C 0.07268 0.42288 0.76662 0.0
C557 C 0.18817 0.596 0.79012 0.0
C558 C 0.24764 0.51767 0.78454 0.0
C559 C 0.13382 0.47463 0.84092 0.0
O560 O 0.19445 0.50484 0.7077 0.0
O561 O 0.10382 0.52534 0.7388 0.0
O562 O 0.10218 0.41987 0.76268 0.0
O563 O 0.21035 0.58833 0.77508 0.0
O564 O 0.21968 0.48559 0.79259 0.0
O565 O 0.1255 0.4987 0.82984 0.0
O566 O 0.24455 0.53984 0.76565 0.0
O567 O 0.15275 0.57236 0.79333 0.0
O568 O 0.14395 0.45518 0.82447 0.0
O569 O 0.16178 0.55545 0.7172 0.0
O570 O 0.17786 0.4496 0.73132 0.0
O571 O 0.07382 0.45302 0.77637 0.0
Sc572 Sc 0.45796 0.65632 0.74109 0.0
Sc573 Sc 0.49022 0.6051 0.78386 0.0
Sc574 Sc 0.5467 0.70636 0.77732 0.0
O575 O 0.49841 0.65593 0.7675 0.0
C576 C 0.53302 0.71801 0.70708 0.0
C577 C 0.45854 0.58219 0.71653 0.0
C578 C 0.5793 0.65063 0.76704 0.0
C579 C 0.40603 0.59285 0.78907 0.0
C580 C 0.48309 0.72976 0.7833 0.0
C581 C 0.52671 0.65999 0.84093 0.0
O582 O 0.49873 0.69081 0.70693 0.0
O583 O 0.47628 0.57818 0.73902 0.0
O584 O 0.58251 0.68334 0.76365 0.0
O585 O 0.4135 0.62163 0.77258 0.0
O586 O 0.51526 0.73439 0.79166 0.0
O587 O 0.50336 0.62746 0.82974 0.0
O588 O 0.46152 0.70443 0.76425 0.0
O589 O 0.4298 0.5815 0.79367 0.0
O590 O 0.54571 0.68975 0.82455 0.0
O591 O 0.44889 0.60754 0.71545 0.0
O592 O 0.55336 0.7292 0.73122 0.0
O593 O 0.54886 0.62132 0.77602 0.0
Sc594 Sc 0.46559 0.67731 0.06915 0.0
Sc595 Sc 0.55149 0.72903 0.03014 0.0
Sc596 Sc 0.50694 0.62793 0.03615 0.0
O597 O 0.50812 0.678 0.04509 0.0
C598 C 0.47899 0.61717 0.10571 0.0
C599 C 0.53856 0.75166 0.09579 0.0
C600 C 0.59459 0.68365 0.04837 0.0
C601 C 0.47964 0.741 0.02147 0.0
C602 C 0.42001 0.60297 0.02744 0.0
C603 C 0.535 0.67495 0.97289 0.0
O604 O 0.47155 0.64418 0.10481 0.0
O605 O 0.56246 0.75424 0.07559 0.0
O606 O 0.56498 0.65112 0.05176 0.0
O607 O 0.4567 0.71047 0.03544 0.0
O608 O 0.4483 0.59918 0.01993 0.0
O609 O 0.54342 0.70731 0.98409 0.0
O610 O 0.4225 0.62809 0.04613 0.0
O611 O 0.51533 0.75334 0.01998 0.0
O612 O 0.52453 0.64515 0.98922 0.0
O613 O 0.50322 0.72739 0.09458 0.0
O614 O 0.48892 0.60553 0.0822 0.0
O615 O 0.5938 0.71281 0.03856 0.0
Sc616 Sc 0.32355 0.78825 0.06866 0.0
Sc617 Sc 0.27204 0.82303 0.0302 0.0
Sc618 Sc 0.37312 0.87938 0.03621 0.0
O619 O 0.323 0.83044 0.04497 0.0
C620 C 0.38342 0.86138 0.10569 0.0
C621 C 0.24912 0.78657 0.0956 0.0
C622 C 0.31747 0.91138 0.04874 0.0
C623 C 0.26002 0.73924 0.02089 0.0
C624 C 0.39815 0.8175 0.02712 0.0
C625 C 0.32628 0.86098 0.97293 0.0
O626 O 0.35649 0.82691 0.10455 0.0
O627 O 0.24674 0.80831 0.07568 0.0
O628 O 0.34998 0.91424 0.05195 0.0
O629 O 0.2906 0.74669 0.03466 0.0
O630 O 0.40201 0.84969 0.01986 0.0
O631 O 0.29385 0.83713 0.98414 0.0
O632 O 0.37287 0.79461 0.04561 0.0
O633 O 0.24769 0.76262 0.01973 0.0
O634 O 0.3561 0.88005 0.98926 0.0
O635 O 0.27333 0.77542 0.09413 0.0
O636 O 0.39516 0.88327 0.08234 0.0
O637 O 0.28827 0.88149 0.03899 0.0
Sc638 Sc 0.21214 0.53597 0.06899 0.0
Sc639 Sc 0.17817 0.45002 0.0302 0.0
Sc640 Sc 0.12146 0.49438 0.03595 0.0
O641 O 0.17039 0.49335 0.04498 0.0
C642 C 0.13847 0.52219 0.10548 0.0
C643 C 0.2138 0.46312 0.09582 0.0
C644 C 0.08971 0.40683 0.0484 0.0
C645 C 0.26194 0.52206 0.02149 0.0
C646 C 0.18314 0.58132 0.02711 0.0
C647 C 0.1405 0.46624 0.97284 0.0
O648 O 0.17293 0.5297 0.10465 0.0
O649 O 0.19239 0.43915 0.07572 0.0
O650 O 0.08675 0.43642 0.05173 0.0
O651 O 0.25423 0.54502 0.03526 0.0
O652 O 0.15119 0.55293 0.01956 0.0
O653 O 0.16455 0.45799 0.98408 0.0
O654 O 0.20578 0.57899 0.0459 0.0
O655 O 0.23864 0.48633 0.02011 0.0
O656 O 0.12112 0.47666 0.98913 0.0
O657 O 0.22485 0.49848 0.09448 0.0
O658 O 0.11702 0.51242 0.08193 0.0
O659 O 0.11966 0.40763 0.03862 0.0
Sc660 Sc 0.37478 0.49392 0.53591 0.0
Sc661 Sc 0.27372 0.45066 0.53019 0.0
Sc662 Sc 0.32647 0.53466 0.57181 0.0
O663 O 0.325 0.49298 0.54587 0.0
C664 C 0.38714 0.52007 0.60594 0.0
C665 C 0.31807 0.40617 0.54757 0.0
C666 C 0.25147 0.46132 0.59714 0.0
C667 C 0.32766 0.46711 0.47272 0.0
C668 C 0.39998 0.58118 0.52915 0.0
C669 C 0.26311 0.52364 0.52424 0.0
O670 O 0.39822 0.51088 0.58173 0.0
O671 O 0.28905 0.40761 0.53831 0.0
O672 O 0.27705 0.49626 0.59754 0.0
O673 O 0.35742 0.47736 0.48893 0.0
O674 O 0.37532 0.5783 0.54857 0.0
O675 O 0.25096 0.48821 0.52042 0.0
O676 O 0.40345 0.553 0.52059 0.0
O677 O 0.29546 0.45892 0.48409 0.0
O678 O 0.29263 0.54511 0.5399 0.0
O679 O 0.35098 0.4354 0.55066 0.0
O680 O 0.36009 0.5274 0.60621 0.0
O681 O 0.2474 0.43875 0.57527 0.0
Sc682 Sc 0.50754 0.88009 0.5362 0.0
Sc683 Sc 0.55247 0.82386 0.53004 0.0
Sc684 Sc 0.4679 0.79053 0.57124 0.0
O685 O 0.50939 0.83161 0.54574 0.0
C686 C 0.48086 0.86488 0.6061 0.0
C687 C 0.5954 0.91253 0.54777 0.0
C688 C 0.54206 0.79056 0.59672 0.0
C689 C 0.53488 0.86077 0.47285 0.0
C690 C 0.42075 0.81713 0.52895 0.0
C691 C 0.48073 0.73959 0.52356 0.0
O692 O 0.49015 0.88558 0.58212 0.0
O693 O 0.59468 0.88252 0.53819 0.0
O694 O 0.50684 0.78016 0.5969 0.0
O695 O 0.52435 0.87997 0.48918 0.0
O696 O 0.42394 0.79515 0.54799 0.0
O697 O 0.5161 0.76336 0.52019 0.0
O698 O 0.44861 0.84923 0.52084 0.0
O699 O 0.54366 0.8371 0.48408 0.0
O700 O 0.45858 0.74698 0.53893 0.0
O701 O 0.56577 0.91542 0.55111 0.0
O702 O 0.47396 0.83061 0.606 0.0
O703 O 0.56469 0.80985 0.57511 0.0
Sc704 Sc 0.12209 0.62818 0.53639 0.0
Sc705 Sc 0.17836 0.72943 0.52962 0.0
Sc706 Sc 0.2109 0.67845 0.57241 0.0
O707 O 0.17035 0.67869 0.54605 0.0
C708 C 0.13604 0.61681 0.6066 0.0
C709 C 0.08955 0.68381 0.5472 0.0
C710 C 0.21057 0.75275 0.59685 0.0
C711 C 0.14147 0.67428 0.47271 0.0
C712 C 0.1857 0.60498 0.53017 0.0
C713 C 0.26249 0.74162 0.52409 0.0
O714 O 0.11574 0.60539 0.58245 0.0
O715 O 0.11979 0.71317 0.53797 0.0
O716 O 0.22015 0.72735 0.59798 0.0
O717 O 0.12263 0.64461 0.48921 0.0
O718 O 0.20724 0.63023 0.5493 0.0
O719 O 0.23867 0.75291 0.51945 0.0
O720 O 0.15354 0.60035 0.5218 0.0
O721 O 0.16483 0.70688 0.48377 0.0
O722 O 0.25517 0.71302 0.54076 0.0
O723 O 0.08645 0.65114 0.55044 0.0
O724 O 0.17026 0.64414 0.60671 0.0
O725 O 0.19275 0.75666 0.57436 0.0
Sc726 Sc 0.15924 0.70432 0.27712 0.0
Sc727 Sc 0.11547 0.6034 0.2839 0.0
Sc728 Sc 0.20086 0.6551 0.24422 0.0
O729 O 0.1584 0.65438 0.26844 0.0
C730 C 0.18707 0.71496 0.20746 0.0
C731 C 0.0714 0.64806 0.26626 0.0
C732 C 0.12756 0.58071 0.21804 0.0
C733 C 0.13253 0.65797 0.34081 0.0
C734 C 0.2464 0.72971 0.28557 0.0
C735 C 0.18748 0.5915 0.29175 0.0
O736 O 0.17674 0.7264 0.23086 0.0
O737 O 0.07276 0.61929 0.2763 0.0
O738 O 0.16293 0.605 0.21898 0.0
O739 O 0.14227 0.68746 0.32424 0.0
O740 O 0.24394 0.70437 0.26713 0.0
O741 O 0.1518 0.5791 0.2935 0.0
O742 O 0.2181 0.73357 0.29291 0.0
O743 O 0.12444 0.62558 0.32984 0.0
O744 O 0.21021 0.62211 0.2778 0.0
O745 O 0.10083 0.68055 0.26202 0.0
O746 O 0.19482 0.68817 0.20853 0.0
O747 O 0.10389 0.57806 0.23849 0.0
Sc748 Sc 0.2952 0.45374 0.2772 0.0
Sc749 Sc 0.39618 0.51063 0.28341 0.0
Sc750 Sc 0.34446 0.54492 0.24472 0.0
O751 O 0.34516 0.50284 0.26846 0.0
C752 C 0.28476 0.47161 0.20767 0.0
C753 C 0.35127 0.42194 0.26569 0.0
C754 C 0.41879 0.54634 0.21788 0.0
C755 C 0.34194 0.47304 0.34064 0.0
C756 C 0.26968 0.51545 0.28601 0.0
C757 C 0.40813 0.59448 0.29212 0.0
O758 O 0.27329 0.44956 0.23095 0.0
O759 O 0.38017 0.4521 0.27545 0.0
O760 O 0.39467 0.55761 0.21932 0.0
O761 O 0.31221 0.45355 0.32429 0.0
O762 O 0.29512 0.53851 0.26771 0.0
O763 O 0.42061 0.57121 0.29328 0.0
O764 O 0.26585 0.48323 0.29317 0.0
O765 O 0.3743 0.49709 0.32944 0.0
O766 O 0.37733 0.5867 0.27862 0.0
O767 O 0.31871 0.41886 0.26193 0.0
O768 O 0.31147 0.50618 0.20889 0.0
O769 O 0.42122 0.5247 0.23788 0.0
Sc770 Sc 0.54576 0.83992 0.27756 0.0
Sc771 Sc 0.48826 0.88331 0.28383 0.0
Sc772 Sc 0.4549 0.79776 0.2447 0.0
O773 O 0.49654 0.84045 0.26873 0.0
C774 C 0.52869 0.81215 0.20796 0.0
C775 C 0.57704 0.92763 0.26655 0.0
C776 C 0.45325 0.8707 0.21812 0.0
C777 C 0.52596 0.86694 0.34096 0.0
C778 C 0.48448 0.7526 0.28611 0.0
C779 C 0.40459 0.81106 0.29196 0.0
O780 O 0.55039 0.8224 0.23138 0.0
O781 O 0.54676 0.9261 0.27637 0.0
O782 O 0.4421 0.83532 0.21941 0.0
O783 O 0.54574 0.85712 0.32454 0.0
O784 O 0.46155 0.75485 0.26759 0.0
O785 O 0.42768 0.84681 0.2933 0.0
O786 O 0.51644 0.7811 0.29353 0.0
O787 O 0.50147 0.87469 0.32988 0.0
O788 O 0.41269 0.78824 0.27846 0.0
O789 O 0.58029 0.89832 0.26236 0.0
O790 O 0.4941 0.80422 0.20898 0.0
O791 O 0.47462 0.89462 0.23827 0.0
C792 C 0.10599 0.23169 0.0003 0.0
C793 C 0.11053 0.2137 0.02624 0.0
H794 H 0.11409 0.24008 0.95148 0.0
C795 C 0.13266 0.196 0.02401 0.0
H796 H 0.08828 0.24474 0.00147 0.0
C797 C 0.14671 0.19277 -0.00432 0.0
C798 C 0.13902 0.20733 0.96906 0.0
H799 H 0.13609 0.18158 0.04371 0.0
H800 H 0.16129 0.17648 -0.00576 0.0
C801 C 0.12047 0.22875 0.97175 0.0
C802 C 0.77052 0.87646 0.0003 0.0
C803 C 0.78838 0.89885 0.02629 0.0
H804 H 0.76258 0.87641 0.95145 0.0
C805 C 0.8063 0.9387 0.02411 0.0
H806 H 0.75729 0.84567 0.00144 0.0
C807 C 0.80991 0.95614 -0.00422 0.0
C808 C 0.7955 0.934 0.96912 0.0
H809 H 0.82062 0.95644 0.04386 0.0
H810 H 0.82636 0.98701 -0.00562 0.0
C811 C 0.77384 0.89403 0.97175 0.0
C812 C 0.06448 0.8686 0.02371 0.0
C813 C 0.10426 0.89103 0.026 0.0
H814 H 0.01644 0.84033 -0.00619 0.0
C815 C 0.12689 0.89638 -3e-05 0.0
H816 H 0.04654 0.86459 0.04348 0.0
C817 C 0.1096 0.88245 0.97132 0.0
C818 C 0.06964 0.86366 0.96863 0.0
H819 H 0.15762 0.91436 0.00119 0.0
H820 H 0.12736 0.88945 0.95102 0.0
C821 C 0.04731 0.85512 -0.00473 0.0
C822 C 0.2024 0.13658 0.45724 0.0
C823 C 0.2183 0.11285 0.45479 0.0
H824 H 0.18297 0.16492 0.48746 0.0
C825 C 0.23383 0.10544 0.48096 0.0
H826 H 0.18971 0.14207 0.43737 0.0
C827 C 0.22999 0.11858 0.50981 0.0
C828 C 0.21 0.13855 0.51254 0.0
H829 H 0.24535 0.08639 0.47959 0.0
H830 H 0.23925 0.10998 0.53012 0.0
C831 C 0.19813 0.1492 0.4859 0.0
C832 C 0.85379 0.04589 0.48487 0.0
C833 C 0.86264 0.06822 0.51151 0.0
H834 H 0.86272 0.04517 0.43657 0.0
C835 C 0.88131 0.10819 0.5088 0.0
H836 H 0.839 0.01501 0.48634 0.0
C837 C 0.89489 0.12552 0.48009 0.0
C838 C 0.88931 0.10289 0.45404 0.0
H839 H 0.88849 0.12595 0.5291 0.0
H840 H 0.91282 0.15626 0.47881 0.0
C841 C 0.86693 0.06309 0.45637 0.0
C842 C 0.95369 0.80863 0.48561 0.0
C843 C 0.9314 0.79487 0.51228 0.0
H844 H 0.95433 0.81857 0.43735 0.0
C845 C 0.89145 0.77353 0.50964 0.0
H846 H 0.98456 0.82481 0.48704 0.0
C847 C 0.87409 0.76995 0.48099 0.0
C848 C 0.89666 0.78712 0.4549 0.0
H849 H 0.87373 0.76276 0.52996 0.0
H850 H 0.84336 0.75711 0.4798 0.0
C851 C 0.93645 0.80465 0.45716 0.0
C852 C 0.85569 0.80985 0.98531 0.0
C853 C 0.86399 0.79573 0.01188 0.0
H854 H 0.8653 0.82032 0.93713 0.0
C855 C 0.88245 0.77425 0.00908 0.0
H856 H 0.84111 0.82613 0.98685 0.0
C857 C 0.89633 0.77088 0.9804 0.0
C858 C 0.89124 0.78848 0.95445 0.0
H859 H 0.88921 0.76319 0.02932 0.0
H860 H 0.91406 0.75785 0.97909 0.0
C861 C 0.86912 0.80616 0.95684 0.0
C862 C 0.23208 0.12734 0.98063 0.0
C863 C 0.21495 0.1048 0.95455 0.0
H864 H 0.23906 0.1276 0.02961 0.0
C865 C 0.19744 0.06499 0.95682 0.0
H866 H 0.24495 0.15809 0.97942 0.0
C867 C 0.1934 0.04768 0.98527 0.0
C868 C 0.20703 0.06993 0.01194 0.0
H869 H 0.18363 0.04714 0.937 0.0
H870 H 0.17723 0.0168 0.9867 0.0
C871 C 0.22839 0.10991 0.00929 0.0
C872 C 0.9373 0.13492 0.95693 0.0
C873 C 0.89755 0.11238 0.95446 0.0
H874 H 0.98514 0.16268 0.98708 0.0
C875 C 0.87473 0.10638 0.98049 0.0
H876 H 0.95538 0.1394 0.93716 0.0
C877 C 0.89183 0.11975 0.00927 0.0
C878 C 0.93176 0.13857 0.01209 0.0
H879 H 0.84403 0.08829 0.97911 0.0
H880 H 0.87394 0.11226 0.02953 0.0
C881 C 0.95428 0.14781 0.98551 0.0
C882 C 0.77064 0.87991 0.4717 0.0
C883 C 0.79089 0.86017 0.46919 0.0
H884 H 0.75582 0.91309 0.50131 0.0
C885 C 0.80413 0.85119 0.49594 0.0
H886 H 0.76043 0.88735 0.45131 0.0
C887 C 0.8009 0.8652 0.5243 0.0
C888 C 0.78457 0.88858 0.52638 0.0
H889 H 0.81961 0.83578 0.49458 0.0
H890 H 0.81451 0.86087 0.54412 0.0
C891 C 0.76775 0.89437 0.50026 0.0
C892 C 0.1329 0.93766 0.52424 0.0
C893 C 0.11043 0.89783 0.52607 0.0
H894 H 0.16199 0.98628 0.49494 0.0
C895 C 0.10567 0.87567 0.49986 0.0
H896 H 0.13651 0.95523 0.54415 0.0
C897 C 0.1203 0.89352 0.47147 0.0
C898 C 0.13921 0.93355 0.46919 0.0
H899 H 0.08771 0.84491 0.50074 0.0
H900 H 0.11375 0.87612 0.45101 0.0
C901 C 0.14713 0.95538 0.49605 0.0
C902 C 0.06292 0.19228 0.52371 0.0
C903 C 0.1028 0.21101 0.52578 0.0
H904 H 0.01447 0.17197 0.49422 0.0
C905 C 0.12494 0.22979 0.49985 0.0
H906 H 0.04537 0.17726 0.5434 0.0
C907 C 0.10717 0.22675 0.47147 0.0
C908 C 0.06726 0.20443 0.4689 0.0
H909 H 0.15577 0.24367 0.50089 0.0
H910 H 0.12467 0.23884 0.45119 0.0
C911 C 0.04529 0.18895 0.49554 0.0
C912 C 0.78144 0.50468 0.35475 0.0
C913 C 0.76609 0.5287 0.35856 0.0
H914 H 0.80573 0.48177 0.32391 0.0
C915 C 0.76804 0.55247 0.33427 0.0
H916 H 0.78018 0.48613 0.37326 0.0
C917 C 0.78257 0.54982 0.30563 0.0
C918 C 0.79488 0.52319 0.3012 0.0
H919 H 0.75586 0.57084 0.33675 0.0
H920 H 0.78168 0.56654 0.28654 0.0
C921 C 0.79576 0.502 0.32643 0.0
C922 C 0.43899 0.20113 0.33268 0.0
C923 C 0.45152 0.22614 0.3579 0.0
H924 H 0.43523 0.1964 0.2834 0.0
C925 C 0.46362 0.26482 0.35328 0.0
H926 H 0.43049 0.17133 0.33576 0.0
C927 C 0.46643 0.27898 0.32365 0.0
C928 C 0.4576 0.2548 0.29818 0.0
H929 H 0.47397 0.28464 0.37238 0.0
H930 H 0.47791 0.30931 0.32047 0.0
C931 C 0.44196 0.21544 0.30282 0.0
C932 C 0.70945 0.20063 0.32607 0.0
C933 C 0.7329 0.20418 0.30108 0.0
H934 H 0.70662 0.21273 0.3734 0.0
C935 C 0.77187 0.2174 0.30624 0.0
H936 H 0.67919 0.18986 0.32288 0.0
C937 C 0.78769 0.23052 0.33552 0.0
C938 C 0.76449 0.23008 0.35972 0.0
H939 H 0.79048 0.22029 0.2873 0.0
H940 H 0.81828 0.24386 0.33853 0.0
C941 C 0.72505 0.21335 0.35505 0.0
C942 C 0.85329 0.47558 0.81995 0.0
C943 C 0.86955 0.46867 0.84586 0.0
H944 H 0.84121 0.46564 0.77201 0.0
C945 C 0.89263 0.45207 0.84198 0.0
H946 H 0.83584 0.48885 0.82225 0.0
C947 C 0.89579 0.43878 0.81293 0.0
C948 C 0.87626 0.4425 0.78769 0.0
H949 H 0.90543 0.44645 0.86168 0.0
H950 H 0.91044 0.42263 0.81082 0.0
C951 C 0.85668 0.4627 0.79116 0.0
C952 C 0.55105 0.44232 0.84164 0.0
C953 C 0.53487 0.40269 0.8456 0.0
H954 H 0.58042 0.48965 0.81049 0.0
C955 C 0.52866 0.37956 0.81978 0.0
H956 H 0.55611 0.46068 0.86127 0.0
C957 C 0.54189 0.39592 0.79105 0.0
C958 C 0.56168 0.43569 0.78757 0.0
H959 H 0.51572 0.34888 0.82214 0.0
H960 H 0.53948 0.37759 0.772 0.0
C961 C 0.56463 0.45884 0.81265 0.0
C962 C 0.608 0.14873 0.79169 0.0
C963 C 0.56825 0.12856 0.78814 0.0
H964 H 0.65491 0.1699 0.82285 0.0
C965 C 0.54507 0.10849 0.81327 0.0
H966 H 0.62636 0.16459 0.77262 0.0
C967 C 0.5615 0.11162 0.84233 0.0
C968 C 0.60109 0.1352 0.84632 0.0
H969 H 0.51428 0.09336 0.81108 0.0
H970 H 0.54309 0.09834 0.86196 0.0
C971 C 0.62426 0.15208 0.82048 0.0
C972 C 0.54906 0.11284 0.34104 0.0
C973 C 0.53439 0.13756 0.3453 0.0
H974 H 0.5768 0.09329 0.30963 0.0
C975 C 0.52972 0.15586 0.31963 0.0
H976 H 0.55289 0.09837 0.36049 0.0
C977 C 0.5428 0.15259 0.29089 0.0
C978 C 0.56087 0.13098 0.28709 0.0
H979 H 0.51784 0.17452 0.3221 0.0
H980 H 0.54129 0.16928 0.272 0.0
C981 C 0.56243 0.10967 0.31199 0.0
C982 C 0.85259 0.37736 0.32074 0.0
C983 C 0.86901 0.40195 0.34587 0.0
H984 H 0.84039 0.37255 0.27272 0.0
C985 C 0.89228 0.44133 0.34061 0.0
H986 H 0.83503 0.34682 0.32414 0.0
C987 C 0.89547 0.45616 0.31086 0.0
C988 C 0.87566 0.43157 0.28635 0.0
H989 H 0.90522 0.46079 0.35969 0.0
H990 H 0.91031 0.48682 0.30759 0.0
C991 C 0.85596 0.39202 0.29129 0.0
C992 C 0.56513 0.40988 0.35028 0.0
C993 C 0.58455 0.44926 0.35534 0.0
H994 H 0.53709 0.36494 0.31811 0.0
C995 C 0.58526 0.47384 0.3321 0.0
H996 H 0.56388 0.39038 0.36796 0.0
C997 C 0.56957 0.45905 0.30304 0.0
C998 C 0.55316 0.41973 0.29742 0.0
H999 H 0.60029 0.50443 0.33566 0.0
H1000 H 0.57282 0.4784 0.28457 0.0
C1001 C 0.54959 0.39533 0.32175 0.0
C1002 C 0.44383 0.21908 0.80559 0.0
C1003 C 0.46677 0.20235 0.80163 0.0
H1004 H 0.426 0.24831 0.83693 0.0
C1005 C 0.48267 0.19492 0.82752 0.0
H1006 H 0.43131 0.22508 0.7859 0.0
C1007 C 0.47908 0.20744 0.85641 0.0
C1008 C 0.45968 0.22779 0.85997 0.0
H1009 H 0.5 0.18154 0.82514 0.0
H1010 H 0.49432 0.20414 0.87556 0.0
C1011 C 0.44048 0.23201 0.83473 0.0
C1012 C 0.77185 0.21154 0.83526 0.0
C1013 C 0.77568 0.23498 0.86038 0.0
H1014 H 0.77909 0.20919 0.78647 0.0
C1015 C 0.79561 0.27472 0.85663 0.0
H1016 H 0.7559 0.18076 0.83759 0.0
C1017 C 0.80813 0.29077 0.8277 0.0
C1018 C 0.80111 0.26739 0.80191 0.0
H1019 H 0.79865 0.29328 0.87569 0.0
H1020 H 0.82122 0.32145 0.8252 0.0
C1021 C 0.78477 0.22776 0.80606 0.0
C1022 C 0.71364 0.52017 0.82744 0.0
C1023 C 0.73699 0.53639 0.8016 0.0
H1024 H 0.7112 0.50832 0.87545 0.0
C1025 C 0.77662 0.55961 0.80561 0.0
H1026 H 0.68297 0.50266 0.82502 0.0
C1027 C 0.79287 0.56295 0.83476 0.0
C1028 C 0.76946 0.54345 0.85994 0.0
H1029 H 0.79515 0.57241 0.78595 0.0
H1030 H 0.82364 0.57768 0.837 0.0
C1031 C 0.72972 0.52376 0.85633 0.0
C1032 C 0.47067 0.87326 0.69071 0.0
C1033 C 0.44534 0.88738 0.69129 0.0
H1034 H 0.50208 0.85515 0.66268 0.0
C1035 C 0.43803 0.90132 0.66413 0.0
H1036 H 0.47597 0.86162 0.71135 0.0
C1037 C 0.45318 0.89783 0.63618 0.0
C1038 C 0.47492 0.87954 0.63525 0.0
H1039 H 0.41771 0.91135 0.66407 0.0
H1040 H 0.44471 0.90581 0.6151 0.0
C1041 C 0.4852 0.86916 0.66286 0.0
C1042 C 0.10323 0.55626 0.63685 0.0
C1043 C 0.12103 0.59626 0.63574 0.0
H1044 H 0.09032 0.5076 0.66502 0.0
C1045 C 0.13099 0.61707 0.66325 0.0
H1046 H 0.0956 0.53972 0.61585 0.0
C1047 C 0.12715 0.5987 0.69119 0.0
C1048 C 0.11363 0.55935 0.69197 0.0
H1049 H 0.14462 0.64794 0.66291 0.0
H1050 H 0.13855 0.61581 0.71176 0.0
C1051 C 0.09991 0.53787 0.66492 0.0
C1052 C 0.40555 0.52823 0.69049 0.0
C1053 C 0.44468 0.55484 0.69119 0.0
H1054 H 0.3564 0.49604 0.66227 0.0
C1055 C 0.46608 0.56353 0.664 0.0
H1056 H 0.38845 0.52186 0.71116 0.0
C1057 C 0.44776 0.54851 0.63593 0.0
C1058 C 0.40787 0.52551 0.63495 0.0
H1059 H 0.49614 0.58483 0.66403 0.0
H1060 H 0.46418 0.55811 0.61487 0.0
C1061 C 0.3872 0.51384 0.66253 0.0
C1062 C 0.56644 0.77269 0.14782 0.0
C1063 C 0.55026 0.77864 0.12138 0.0
H1064 H 0.57276 0.77958 0.1968 0.0
C1065 C 0.53402 0.80213 0.12299 0.0
H1066 H 0.57825 0.75386 0.14711 0.0
C1067 C 0.53018 0.81606 0.15119 0.0
C1068 C 0.54277 0.80691 0.17821 0.0
H1069 H 0.52085 0.80653 0.10289 0.0
H1070 H 0.51475 0.83155 0.15216 0.0
C1071 C 0.563 0.78711 0.1762 0.0
C1072 C 0.18436 0.71302 0.15062 0.0
C1073 C 0.19279 0.73451 0.17771 0.0
H1074 H 0.19483 0.71367 0.10244 0.0
C1075 C 0.21238 0.77458 0.17584 0.0
H1076 H 0.16905 0.6821 0.15146 0.0
C1077 C 0.22724 0.79272 0.14759 0.0
C1078 C 0.22196 0.77084 0.12111 0.0
H1079 H 0.21937 0.7917 0.19649 0.0
H1080 H 0.24583 0.82341 0.14703 0.0
C1081 C 0.19874 0.73105 0.12255 0.0
C1082 C 0.22532 0.43768 0.17595 0.0
C1083 C 0.26536 0.45805 0.17789 0.0
H1084 H 0.17668 0.42267 0.14711 0.0
C1085 C 0.28699 0.47133 0.15085 0.0
H1086 H 0.20811 0.4274 0.19657 0.0
C1087 C 0.26912 0.46799 0.12278 0.0
C1088 C 0.22937 0.45151 0.1213 0.0
H1089 H 0.31789 0.48688 0.15174 0.0
H1090 H 0.2866 0.48161 0.10272 0.0
C1091 C 0.20735 0.4347 0.14771 0.0
C1092 C 0.23056 0.43439 0.64939 0.0
C1093 C 0.22385 0.44892 0.6223 0.0
H1094 H 0.2231 0.42913 0.69834 0.0
C1095 C 0.19879 0.46337 0.62284 0.0
H1096 H 0.25064 0.42407 0.64949 0.0
C1097 C 0.18388 0.46712 0.65062 0.0
C1098 C 0.19355 0.45611 0.67822 0.0
H1099 H 0.19391 0.47543 0.60225 0.0
H1100 H 0.16721 0.48134 0.6508 0.0
C1101 C 0.21506 0.43757 0.67728 0.0
C1102 C 0.54164 0.73667 0.62257 0.0
C1103 C 0.55494 0.77599 0.622 0.0
H1104 H 0.52454 0.68729 0.6506 0.0
C1105 C 0.56862 0.7973 0.64912 0.0
H1106 H 0.53027 0.71969 0.60194 0.0
C1107 C 0.56554 0.77876 0.67708 0.0
C1108 C 0.548 0.73878 0.67801 0.0
H1109 H 0.57806 0.82753 0.64918 0.0
H1110 H 0.57313 0.79516 0.69816 0.0
C1111 C 0.53803 0.71815 0.6504 0.0
C1112 C 0.20328 0.7721 0.64925 0.0
C1113 C 0.22465 0.78032 0.62207 0.0
H1114 H 0.20524 0.77829 0.69832 0.0
C1115 C 0.26381 0.80686 0.62267 0.0
H1116 H 0.1732 0.75087 0.64931 0.0
C1117 C 0.28219 0.82169 0.65055 0.0
C1118 C 0.26155 0.81053 0.67817 0.0
H1119 H 0.28088 0.81288 0.60203 0.0
H1120 H 0.313 0.83942 0.65077 0.0
C1121 C 0.22164 0.78755 0.67724 0.0
C1122 C 0.10413 0.5471 0.1373 0.0
C1123 C 0.12409 0.52704 0.1352 0.0
H1124 H 0.08875 0.57998 0.16668 0.0
C1125 C 0.13584 0.51692 0.16218 0.0
H1126 H 0.09497 0.55532 0.11673 0.0
C1127 C 0.13146 0.53014 0.19054 0.0
C1128 C 0.1156 0.55395 0.19232 0.0
H1129 H 0.151 0.50118 0.16111 0.0
H1130 H 0.14409 0.52506 0.21067 0.0
C1131 C 0.10021 0.56085 0.16583 0.0
C1132 C 0.48292 0.61935 0.16248 0.0
C1133 C 0.47367 0.59772 0.13542 0.0
H1134 H 0.47363 0.61895 0.21083 0.0
C1135 C 0.45393 0.55767 0.13736 0.0
H1136 H 0.49841 0.65027 0.16155 0.0
C1137 C 0.43967 0.53969 0.16574 0.0
C1138 C 0.44572 0.56172 0.19225 0.0
H1139 H 0.44637 0.54046 0.11672 0.0
H1140 H 0.42087 0.50903 0.16643 0.0
C1141 C 0.46916 0.60146 0.19068 0.0
C1142 C 0.44261 0.89544 0.13766 0.0
C1143 C 0.40259 0.87512 0.13552 0.0
H1144 H 0.49096 0.9107 0.1669 0.0
C1145 C 0.38072 0.86231 0.16247 0.0
H1146 H 0.46 0.9054 0.11711 0.0
C1147 C 0.39833 0.86605 0.19072 0.0
C1148 C 0.43805 0.88242 0.19246 0.0
H1149 H 0.34982 0.84685 0.1614 0.0
H1150 H 0.38067 0.85274 0.21075 0.0
C1151 C 0.46031 0.89879 0.16609 0.0
C1152 C 0.08166 0.09377 0.14874 0.0
C1153 C 0.09856 0.13134 0.13773 0.0
H1154 H 0.08633 0.04364 0.15299 0.0
C1155 C 0.13728 0.15023 0.12912 0.0
H1156 H 0.05193 0.07865 0.15561 0.0
C1157 C 0.15708 0.13002 0.12756 0.0
C1158 C 0.13827 0.091 0.13481 0.0
H1159 H 0.15085 0.17912 0.12027 0.0
H1160 H 0.18535 0.14368 0.11749 0.0
C1161 C 0.10138 0.07378 0.14731 0.0
C1162 C 0.90695 0.98886 0.14934 0.0
C1163 C 0.86951 0.96824 0.13811 0.0
H1164 H 0.95705 0.04363 0.15366 0.0
C1165 C 0.85074 0.98813 0.1293 0.0
H1166 H 0.92197 0.97421 0.15637 0.0
C1167 C 0.87099 0.02814 0.12769 0.0
C1168 C 0.90993 0.04829 0.13512 0.0
H1169 H 0.82196 0.97285 0.12029 0.0
H1170 H 0.85747 0.04279 0.11746 0.0
C1171 C 0.92698 0.02857 0.14785 0.0
C1172 C 0.97303 0.89972 0.14763 0.0
C1173 C 0.95321 0.86291 0.13501 0.0
H1174 H 0.02744 0.94904 0.15589 0.0
C1175 C 0.97329 0.84404 0.12752 0.0
H1176 H 0.95804 0.9148 0.15349 0.0
C1177 C 0.01329 0.86374 0.12897 0.0
C1178 C 0.03325 0.90242 0.13769 0.0
H1179 H 0.95857 0.81584 0.11735 0.0
H1180 H 0.0285 0.85016 0.11993 0.0
C1181 C 0.01273 0.91934 0.14895 0.0
C1182 C 0.07485 0.10314 0.33324 0.0
C1183 C 0.09101 0.13979 0.34609 0.0
H1184 H 0.08113 0.0545 0.32495 0.0
C1185 C 0.12981 0.1591 0.35407 0.0
H1186 H 0.04491 0.0877 0.32701 0.0
C1187 C 0.15074 0.13999 0.35281 0.0
C1188 C 0.13281 0.10146 0.34376 0.0
H1189 H 0.14265 0.18715 0.36445 0.0
H1190 H 0.17934 0.15385 0.36221 0.0
C1191 C 0.09554 0.08412 0.3321 0.0
C1192 C 0.9163 0.011 0.33193 0.0
C1193 C 0.9 0.032 0.34341 0.0
H1194 H 0.91107 0.95597 0.32755 0.0
C1195 C 0.8616 0.01243 0.35296 0.0
H1196 H 0.94576 0.02537 0.32435 0.0
C1197 C 0.84166 0.97243 0.35488 0.0
C1198 C 0.85993 0.95191 0.34699 0.0
H1199 H 0.8485 0.02799 0.36219 0.0
H1200 H 0.81377 0.95807 0.36563 0.0
C1201 C 0.8964 0.97129 0.33367 0.0
C1202 C 0.02902 0.87449 0.35372 0.0
C1203 C 0.04894 0.91377 0.34745 0.0
H1204 H 0.97392 0.82484 0.36034 0.0
C1205 C 0.02895 0.93127 0.33612 0.0
H1206 H 0.04388 0.86059 0.36285 0.0
C1207 C 0.98926 0.91113 0.33487 0.0
C1208 C 0.96889 0.8731 0.34487 0.0
H1209 H 0.04383 0.9616 0.33115 0.0
H1210 H 0.97445 0.92633 0.32884 0.0
C1211 C 0.98901 0.85412 0.35233 0.0
C1212 C 0.86421 0.85259 0.85243 0.0
C1213 C 0.90283 0.87128 0.84351 0.0
H1214 H 0.81635 0.85941 0.86428 0.0
C1215 C 0.91969 0.90877 0.83231 0.0
H1216 H 0.85066 0.82377 0.86143 0.0
C1217 C 0.90007 0.92886 0.83377 0.0
C1218 C 0.86328 0.91186 0.84648 0.0
H1219 H 0.94934 0.92376 0.82521 0.0
H1220 H 0.91511 0.95894 0.82788 0.0
C1221 C 0.84451 0.87291 0.85402 0.0
C1222 C 0.09533 0.01351 0.8319 0.0
C1223 C 0.13271 0.03401 0.84326 0.0
H1224 H 0.04518 0.95883 0.82723 0.0
C1225 C 0.15128 0.01396 0.85219 0.0
H1226 H 0.08044 0.02827 0.8248 0.0
C1227 C 0.13092 0.97393 0.85365 0.0
C1228 C 0.09205 0.95387 0.84596 0.0
H1229 H 0.18001 0.02914 0.86133 0.0
H1230 H 0.14429 0.95916 0.86394 0.0
C1231 C 0.0752 0.97378 0.83322 0.0
C1232 C 0.9896 0.1396 0.85241 0.0
C1233 C 0.96957 0.10098 0.84349 0.0
H1234 H 0.04436 0.18736 0.86418 0.0
C1235 C 0.99007 0.08406 0.8322 0.0
H1236 H 0.97442 0.15318 0.86149 0.0
C1237 C 0.02977 0.10361 0.83355 0.0
C1238 C 0.04966 0.14037 0.84628 0.0
H1239 H 0.97532 0.05441 0.8251 0.0
H1240 H 0.04471 0.08851 0.82759 0.0
C1241 C 0.02961 0.15922 0.85391 0.0
C1242 C 0.871 0.84294 0.62819 0.0
C1243 C 0.90999 0.86218 0.63549 0.0
H1244 H 0.82157 0.8485 0.6206 0.0
C1245 C 0.92672 0.89905 0.64797 0.0
H1246 H 0.8577 0.81467 0.61816 0.0
C1247 C 0.90632 0.91834 0.64927 0.0
C1248 C 0.86882 0.90105 0.63811 0.0
H1249 H 0.95681 0.9144 0.65371 0.0
H1250 H 0.9211 0.94811 0.65603 0.0
C1251 C 0.85038 0.86233 0.62959 0.0
C1252 C 0.08321 0.98826 0.64942 0.0
C1253 C 0.09967 0.96735 0.63807 0.0
H1254 H 0.08849 0.04329 0.65397 0.0
C1255 C 0.1383 0.98693 0.62918 0.0
H1256 H 0.05356 0.97385 0.65649 0.0
C1257 C 0.15839 0.02695 0.62766 0.0
C1258 C 0.14 0.04745 0.63529 0.0
H1259 H 0.15153 0.97143 0.62005 0.0
H1260 H 0.18652 0.04139 0.61733 0.0
C1261 C 0.10324 0.02798 0.64806 0.0
C1262 C 0.97324 0.07082 0.64557 0.0
C1263 C 0.95357 0.08843 0.63381 0.0
H1264 H 0.02751 0.0755 0.65353 0.0
C1265 C 0.97375 0.1277 0.62745 0.0
H1266 H 0.95815 0.04051 0.65062 0.0
C1267 C 0.01374 0.1479 0.62916 0.0
C1268 C 0.03359 0.12878 0.63705 0.0
H1269 H 0.95913 0.14168 0.618 0.0
H1270 H 0.02905 0.1771 0.62099 0.0
C1271 C 0.01291 0.09082 0.6472 0.0
C1272 C 0.82711 0.46814 0.46445 0.0
C1273 C 0.80991 0.42984 0.47372 0.0
H1274 H 0.81863 0.51567 0.45605 0.0
C1275 C 0.77464 0.41329 0.48903 0.0
H1276 H 0.85399 0.48123 0.45216 0.0
C1277 C 0.75433 0.43268 0.491 0.0
C1278 C 0.76912 0.46903 0.47788 0.0
H1279 H 0.76078 0.38367 0.49621 0.0
H1280 H 0.72533 0.4176 0.49965 0.0
C1281 C 0.8068 0.4878 0.46668 0.0
C1282 C 0.51296 0.32241 0.46529 0.0
C1283 C 0.52885 0.30082 0.47656 0.0
H1284 H 0.52367 0.37852 0.45362 0.0
C1285 C 0.56356 0.31943 0.49251 0.0
H1286 H 0.48634 0.30865 0.45267 0.0
C1287 C 0.58457 0.35918 0.49342 0.0
C1288 C 0.57148 0.38096 0.47796 0.0
H1289 H 0.5763 0.30337 0.50147 0.0
H1290 H 0.61312 0.37279 0.50295 0.0
C1291 C 0.53428 0.36244 0.46594 0.0
C1292 C 0.67889 0.25629 0.48606 0.0
C1293 C 0.69943 0.23948 0.47457 0.0
H1294 H 0.62431 0.25208 0.49028 0.0
C1295 C 0.67937 0.20099 0.46531 0.0
H1296 H 0.69362 0.28577 0.49358 0.0
C1297 C 0.63941 0.18157 0.46346 0.0
C1298 C 0.61942 0.20052 0.47099 0.0
H1299 H 0.69452 0.1874 0.45618 0.0
H1300 H 0.62471 0.15356 0.45295 0.0
C1301 C 0.63922 0.23699 0.48422 0.0
C1302 C 0.81973 0.47287 0.68302 0.0
C1303 C 0.80117 0.43467 0.67302 0.0
H1304 H 0.81283 0.52043 0.6957 0.0
C1305 C 0.7645 0.41884 0.66036 0.0
H1306 H 0.84792 0.48562 0.69313 0.0
C1307 C 0.74472 0.4388 0.66163 0.0
C1308 C 0.76124 0.47484 0.67564 0.0
H1309 H 0.74965 0.38955 0.65239 0.0
H1310 H 0.715 0.42433 0.65476 0.0
C1311 C 0.79972 0.49288 0.68444 0.0
C1312 C 0.56542 0.30842 0.66187 0.0
C1313 C 0.52937 0.28899 0.67591 0.0
H1314 H 0.61475 0.36251 0.65249 0.0
C1315 C 0.51148 0.30958 0.68475 0.0
H1316 H 0.5798 0.29307 0.65499 0.0
C1317 C 0.53159 0.34961 0.68324 0.0
C1318 C 0.56976 0.36916 0.67314 0.0
H1319 H 0.48394 0.29522 0.69605 0.0
H1320 H 0.5189 0.36514 0.69334 0.0
C1321 C 0.58547 0.34817 0.66052 0.0
C1322 C 0.65449 0.18476 0.68299 0.0
C1323 C 0.63485 0.20341 0.6732 0.0
H1324 H 0.70892 0.19158 0.69559 0.0
C1325 C 0.65568 0.24029 0.66082 0.0
H1326 H 0.63906 0.15641 0.69288 0.0
C1327 C 0.69539 0.26012 0.6622 0.0
C1328 C 0.71488 0.24344 0.67602 0.0
H1329 H 0.64123 0.2552 0.653 0.0
H1330 H 0.71062 0.28994 0.65553 0.0
C1331 C 0.69448 0.20482 0.68451 0.0
C1332 C 0.58092 0.23471 0.15591 0.0
C1333 C 0.56602 0.19858 0.16951 0.0
H1334 H 0.57412 0.28331 0.14919 0.0
C1335 C 0.52792 0.17964 0.17979 0.0
H1336 H 0.61007 0.24982 0.14761 0.0
C1337 C 0.50724 0.19898 0.18077 0.0
C1338 C 0.52447 0.23718 0.1712 0.0
H1339 H 0.51578 0.1518 0.19053 0.0
H1340 H 0.47996 0.1858 0.19247 0.0
C1341 C 0.56022 0.25378 0.15663 0.0
C1342 C 0.82026 0.3447 0.18129 0.0
C1343 C 0.80336 0.36507 0.16936 0.0
H1344 H 0.81076 0.28982 0.19576 0.0
C1345 C 0.7676 0.34489 0.15503 0.0
H1346 H 0.8477 0.35961 0.19267 0.0
C1347 C 0.74666 0.30521 0.15679 0.0
C1348 C 0.76122 0.28513 0.17277 0.0
H1349 H 0.75405 0.35993 0.14555 0.0
H1350 H 0.71743 0.29059 0.14868 0.0
C1351 C 0.79915 0.30474 0.18306 0.0
C1352 C 0.69358 0.48626 0.18463 0.0
C1353 C 0.71331 0.46762 0.17539 0.0
H1354 H 0.63877 0.47985 0.19484 0.0
C1355 C 0.69286 0.43117 0.16215 0.0
H1356 H 0.70875 0.51416 0.19529 0.0
C1357 C 0.65312 0.41145 0.16226 0.0
C1358 C 0.63318 0.42802 0.17535 0.0
H1359 H 0.70754 0.41625 0.15491 0.0
H1360 H 0.63807 0.38192 0.15487 0.0
C1361 C 0.65353 0.46652 0.18449 0.0
C1362 C 0.59235 0.23209 0.98597 0.0
C1363 C 0.57607 0.19606 0.97197 0.0
H1364 H 0.58707 0.28115 -0.00486 0.0
C1365 C 0.53763 0.17788 0.963 0.0
H1366 H 0.62203 0.24668 -0.00705 0.0
C1367 C 0.51743 0.19771 0.96432 0.0
C1368 C 0.53574 0.23588 0.97439 0.0
H1369 H 0.52471 0.15034 0.95173 0.0
H1370 H 0.48928 0.18484 0.95413 0.0
C1371 C 0.57239 0.25187 0.98713 0.0
C1372 C 0.80598 0.32196 0.96453 0.0
C1373 C 0.76787 0.30235 0.97478 0.0
H1374 H 0.85339 0.37636 0.95145 0.0
C1375 C 0.75207 0.32329 0.98735 0.0
H1376 H 0.81871 0.30647 0.95447 0.0
C1377 C 0.77196 0.36302 0.98583 0.0
C1378 C 0.80791 0.38247 0.97165 0.0
H1379 H 0.72284 0.30889 -0.0045 0.0
H1380 H 0.7575 0.37831 -0.00732 0.0
C1381 C 0.82591 0.36198 0.96285 0.0
C1382 C 0.68175 0.4859 0.96368 0.0
C1383 C 0.70141 0.46739 0.97382 0.0
H1384 H 0.62732 0.47893 0.95085 0.0
C1385 C 0.68055 0.43064 0.98642 0.0
H1386 H 0.6972 0.51416 0.95362 0.0
C1387 C 0.64084 0.41079 0.98503 0.0
C1388 C 0.62134 0.42731 0.97097 0.0
H1389 H 0.69499 0.41583 -0.00549 0.0
H1390 H 0.6256 0.38105 -0.00806 0.0
C1391 C 0.64176 0.46582 0.96214 0.0
C1392 C 0.48838 0.7935 0.79148 0.0
C1393 C 0.46842 0.75377 0.79573 0.0
H1394 H 0.48373 0.84388 0.78659 0.0
C1395 C 0.43011 0.73566 0.8051 0.0
H1396 H 0.51783 0.80793 0.78393 0.0
C1397 C 0.41071 0.75595 0.80654 0.0
C1398 C 0.42929 0.79477 0.79866 0.0
H1399 H 0.41419 0.70502 0.80857 0.0
H1400 H 0.3803 0.74052 0.8111 0.0
C1401 C 0.46884 0.814 0.79302 0.0
C1402 C 0.18491 0.65608 0.79262 0.0
C1403 C 0.20409 0.63608 0.79978 0.0
H1404 H 0.19101 0.71087 0.78216 0.0
C1405 C 0.24238 0.65663 0.80903 0.0
H1406 H 0.15547 0.64083 0.78508 0.0
C1407 C 0.26242 0.69633 0.8075 0.0
C1408 C 0.24458 0.71621 0.79665 0.0
H1409 H 0.25776 0.6419 0.81471 0.0
H1410 H 0.29284 0.71131 0.81198 0.0
C1411 C 0.20518 0.69612 0.79096 0.0
C1412 C 0.34642 0.58833 0.80825 0.0
C1413 C 0.36616 0.5696 0.79939 0.0
H1414 H 0.29237 0.58548 0.81122 0.0
C1415 C 0.34545 0.53023 0.79309 0.0
H1416 H 0.36175 0.61863 0.81325 0.0
C1417 C 0.30542 0.51113 0.79183 0.0
C1418 C 0.28611 0.53137 0.79701 0.0
H1419 H 0.36011 0.51531 0.78587 0.0
H1420 H 0.29006 0.48194 0.78369 0.0
C1421 C 0.30674 0.56936 0.80708 0.0
C1422 C 0.46236 0.8238 0.02075 0.0
C1423 C 0.42319 0.80447 0.01411 0.0
H1424 H 0.51194 0.81832 0.02767 0.0
C1425 C 0.406 0.76722 0.00235 0.0
H1426 H 0.476 0.85237 0.03022 0.0
C1427 C 0.42627 0.74779 0.00102 0.0
C1428 C 0.46411 0.76533 0.0114 0.0
H1429 H 0.37576 0.7518 -0.00288 0.0
H1430 H 0.41125 0.71787 -0.00529 0.0
C1431 C 0.48285 0.80427 0.0193 0.0
C1432 C 0.19667 0.67936 0.01893 0.0
C1433 C 0.23556 0.6994 0.01087 0.0
H1434 H 0.14853 0.62457 0.03017 0.0
C1435 C 0.25294 0.67892 0.0005 0.0
H1436 H 0.18275 0.69455 0.0273 0.0
C1437 C 0.23343 0.63922 0.00204 0.0
C1438 C 0.19624 0.61935 0.01396 0.0
H1439 H 0.28282 0.69369 -0.00593 0.0
H1440 H 0.24874 0.62428 -0.00316 0.0
C1441 C 0.17705 0.63935 0.02058 0.0
C1442 C 0.32237 0.57554 0.00139 0.0
C1443 C 0.30187 0.5376 0.0116 0.0
H1444 H 0.37701 0.62593 -0.00234 0.0
C1445 C 0.32187 0.51862 0.01941 0.0
H1446 H 0.30762 0.59075 -0.00486 0.0
C1447 C 0.36188 0.53893 0.02092 0.0
C1448 C 0.38192 0.57816 0.01441 0.0
H1449 H 0.30667 0.48943 0.02764 0.0
H1450 H 0.37664 0.52506 0.03031 0.0
C1451 C 0.36205 0.59563 0.00277 0.0
C1452 C 0.25813 0.57911 0.5065 0.0
C1453 C 0.2397 0.54033 0.51446 0.0
H1454 H 0.25445 0.62993 0.50456 0.0
C1455 C 0.20018 0.52098 0.52023 0.0
H1456 H 0.28851 0.59461 0.50183 0.0
C1457 C 0.18055 0.54137 0.52187 0.0
C1458 C 0.2004 0.58108 0.51761 0.0
H1459 H 0.18542 0.49111 0.52672 0.0
H1460 H 0.15114 0.52687 0.52955 0.0
C1461 C 0.23864 0.59929 0.50806 0.0
C1462 C 0.42657 0.6792 0.50432 0.0
C1463 C 0.46486 0.69966 0.51356 0.0
H1464 H 0.37608 0.62456 0.50126 0.0
C1465 C 0.48407 0.67961 0.52045 0.0
H1466 H 0.41118 0.69399 0.49884 0.0
C1467 C 0.46379 0.63957 0.52193 0.0
C1468 C 0.42437 0.61955 0.51632 0.0
H1469 H 0.51352 0.6948 0.52797 0.0
H1470 H 0.47796 0.62474 0.53056 0.0
C1471 C 0.40652 0.63949 0.50567 0.0
C1472 C 0.36293 0.82344 0.52118 0.0
C1473 C 0.38232 0.80322 0.51636 0.0
H1474 H 0.30819 0.81921 0.52678 0.0
C1475 C 0.36182 0.76516 0.50644 0.0
H1476 H 0.37822 0.8527 0.52917 0.0
C1477 C 0.32215 0.74613 0.50511 0.0
C1478 C 0.30231 0.76485 0.51368 0.0
H1479 H 0.37627 0.74906 0.50255 0.0
H1480 H 0.30689 0.71578 0.50026 0.0
C1481 C 0.32292 0.80428 0.51977 0.0
C1482 C 0.2053 0.50895 0.29218 0.0
C1483 C 0.24446 0.52836 0.29891 0.0
H1484 H 0.15559 0.51422 0.28523 0.0
C1485 C 0.26149 0.56561 0.31067 0.0
H1486 H 0.19177 0.4804 0.28268 0.0
C1487 C 0.24109 0.58492 0.31198 0.0
C1488 C 0.20325 0.56727 0.3016 0.0
H1489 H 0.29171 0.58112 0.31597 0.0
H1490 H 0.256 0.61482 0.31834 0.0
C1491 C 0.18468 0.52836 0.29362 0.0
C1492 C 0.49086 0.69465 0.29211 0.0
C1493 C 0.47164 0.71452 0.2991 0.0
H1494 H 0.48532 0.63956 0.28505 0.0
C1495 C 0.43455 0.69446 0.3112 0.0
H1496 H 0.51928 0.70956 0.28235 0.0
C1497 C 0.41515 0.65475 0.3126 0.0
C1498 C 0.43256 0.63442 0.30195 0.0
H1499 H 0.41919 0.70929 0.31667 0.0
H1500 H 0.38534 0.63987 0.31922 0.0
C1501 C 0.47137 0.65462 0.29364 0.0
C1502 C 0.30448 0.79383 0.29204 0.0
C1503 C 0.28449 0.75461 0.29859 0.0
H1504 H 0.35964 0.84341 0.28542 0.0
C1505 C 0.3044 0.73723 0.31032 0.0
H1506 H 0.28969 0.80763 0.28258 0.0
C1507 C 0.34408 0.75739 0.31178 0.0
C1508 C 0.36454 0.79533 0.30158 0.0
H1509 H 0.28948 0.70694 0.31548 0.0
H1510 H 0.35885 0.74225 0.31813 0.0
C1511 C 0.34448 0.81422 0.29364 0.0
C1512 C 0.96366 0.18422 0.25375 0.0
C1513 C 0.99613 0.19977 0.27264 0.0
H1514 H 0.94174 0.17325 0.208 0.0
C1515 C 0.03246 0.21846 0.25891 0.0
H1516 H 0.93526 0.16985 0.26357 0.0
C1517 C 0.03621 0.22024 0.22698 0.0
C1518 C 0.00372 0.20367 0.20809 0.0
H1519 H 0.05809 0.23076 0.27278 0.0
H1520 H 0.0646 0.23403 0.21714 0.0
C1521 C 0.96741 0.1863 0.22184 0.0
C1522 C 0.78281 0.81541 0.25864 0.0
C1523 C 0.80229 0.79866 0.27249 0.0
H1524 H 0.76638 0.83089 0.21677 0.0
C1525 C 0.81848 0.78224 0.2537 0.0
H1526 H 0.76999 0.82832 0.27242 0.0
C1527 C 0.81616 0.78349 0.22178 0.0
C1528 C 0.79793 0.80151 0.20791 0.0
H1529 H 0.83345 0.76888 0.26362 0.0
H1530 H 0.8297 0.77129 0.20801 0.0
C1531 C 0.78082 0.81698 0.2267 0.0
C1532 C 0.18568 0.96888 0.25886 0.0
C1533 C 0.20334 0.00523 0.27253 0.0
H1534 H 0.16926 0.93671 0.21716 0.0
C1535 C 0.22038 0.03771 0.25358 0.0
H1536 H 0.17226 0.94323 0.27277 0.0
C1537 C 0.21885 0.03394 0.22168 0.0
C1538 C 0.19994 0.99761 0.208 0.0
H1539 H 0.23443 0.06612 0.26335 0.0
H1540 H 0.23157 0.05961 0.2078 0.0
C1541 C 0.18385 0.96511 0.22694 0.0
C1542 C 0.03681 0.81628 0.72659 0.0
C1543 C 0.00415 0.80044 0.7079 0.0
H1544 H 0.05917 0.82821 0.77222 0.0
C1545 C 0.96797 0.78219 0.72188 0.0
H1546 H 0.06511 0.83036 0.71658 0.0
C1547 C 0.96454 0.78116 0.75381 0.0
C1548 C 0.99721 0.79806 0.77249 0.0
H1549 H 0.94218 0.76967 0.7082 0.0
H1550 H 0.93625 0.76766 0.76381 0.0
C1551 C 0.03338 0.81495 0.75853 0.0
C1552 C 0.18438 0.22026 0.72668 0.0
C1553 C 0.20073 0.20387 0.70805 0.0
H1554 H 0.17272 0.23108 0.77233 0.0
C1555 C 0.22014 0.18717 0.7221 0.0
H1556 H 0.1694 0.23354 0.71662 0.0
C1557 C 0.22187 0.18556 0.75403 0.0
C1558 C 0.20453 0.20091 0.77268 0.0
H1559 H 0.23312 0.17428 0.70848 0.0
H1560 H 0.23629 0.17169 0.76407 0.0
C1561 C 0.18641 0.21896 0.75865 0.0
C1562 C 0.78328 0.96907 0.75901 0.0
C1563 C 0.80247 0.00545 0.7726 0.0
H1564 H 0.76721 0.93673 0.7174 0.0
C1565 C 0.81854 0.03787 0.75357 0.0
H1566 H 0.77056 0.94346 0.77298 0.0
C1567 C 0.81641 0.03398 0.72167 0.0
C1568 C 0.79847 0.99758 0.70808 0.0
H1569 H 0.83332 0.06631 0.76327 0.0
H1570 H 0.82984 0.05959 0.70772 0.0
C1571 C 0.78144 0.96518 0.72711 0.0
C1572 C 0.70202 0.55728 0.59207 0.0
C1573 C 0.66614 0.53911 0.60656 0.0
H1574 H 0.73276 0.57177 0.54961 0.0
C1575 C 0.63312 0.52438 0.58838 0.0
H1576 H 0.72809 0.56905 0.6054 0.0
C1577 C 0.63585 0.52615 0.55644 0.0
C1578 C 0.67163 0.54244 0.54185 0.0
H1579 H 0.60506 0.51059 0.59876 0.0
H1580 H 0.60965 0.51344 0.54323 0.0
C1581 C 0.70476 0.55884 0.56004 0.0
C1582 C 0.48311 0.11446 0.58759 0.0
C1583 C 0.46634 0.13034 0.60636 0.0
H1584 H 0.49522 0.10434 0.54185 0.0
C1585 C 0.4463 0.14642 0.5924 0.0
H1586 H 0.49857 0.10165 0.59753 0.0
C1587 C 0.44451 0.14813 0.56047 0.0
C1588 C 0.46249 0.13355 0.54168 0.0
H1589 H 0.43292 0.15886 0.6061 0.0
H1590 H 0.42969 0.16164 0.55054 0.0
C1591 C 0.48107 0.11592 0.55561 0.0
C1592 C 0.88822 0.36708 0.55553 0.0
C1593 C 0.8685 0.331 0.54146 0.0
H1594 H 0.90447 0.39863 0.59754 0.0
C1595 C 0.85207 0.29823 0.56012 0.0
H1596 H 0.90128 0.39297 0.5419 0.0
C1597 C 0.85411 0.30151 0.59209 0.0
C1598 C 0.87234 0.33764 0.60616 0.0
H1599 H 0.83687 0.27 0.55007 0.0
H1600 H 0.84023 0.27566 0.60574 0.0
C1601 C 0.88998 0.37037 0.58749 0.0
C1602 C 0.63492 0.11291 0.05577 0.0
C1603 C 0.67114 0.13239 0.04187 0.0
H1604 H 0.60302 0.09633 0.09765 0.0
C1605 C 0.70372 0.1478 0.06065 0.0
H1606 H 0.60917 0.10059 0.04204 0.0
C1607 C 0.70016 0.14511 0.0926 0.0
C1608 C 0.66393 0.12724 0.10654 0.0
H1609 H 0.73205 0.16273 0.05074 0.0
H1610 H 0.72591 0.15833 0.10634 0.0
C1611 C 0.63136 0.11049 0.08773 0.0
C1612 C 0.85465 0.55304 0.09234 0.0
C1613 C 0.87282 0.53485 0.10604 0.0
H1614 H 0.83778 0.56836 0.05062 0.0
C1615 C 0.8909 0.52053 0.0871 0.0
H1616 H 0.84045 0.56445 0.10623 0.0
C1617 C 0.88952 0.52295 0.05519 0.0
C1618 C 0.86976 0.53948 0.04146 0.0
H1619 H 0.90541 0.50661 0.09687 0.0
H1620 H 0.90287 0.51063 0.04133 0.0
C1621 C 0.853 0.55519 0.06041 0.0
C1622 C 0.48364 0.36863 0.05586 0.0
C1623 C 0.46411 0.33276 0.0414 0.0
H1624 H 0.50132 0.39926 0.09834 0.0
C1625 C 0.44464 0.29988 0.05962 0.0
H1626 H 0.49897 0.39456 0.04247 0.0
C1627 C 0.44579 0.3026 0.09156 0.0
C1628 C 0.46674 0.33827 0.10613 0.0
H1629 H 0.42904 0.27185 0.04926 0.0
H1630 H 0.43113 0.27645 0.10477 0.0
C1631 C 0.48508 0.37134 0.08791 0.0
C1632 C 0.30115 0.85139 0.88843 0.0
C1633 C 0.3374 0.86843 0.87461 0.0
H1634 H 0.26916 0.83567 0.93026 0.0
C1635 C 0.36996 0.88485 0.89342 0.0
H1636 H 0.27545 0.83847 0.87463 0.0
C1637 C 0.36634 0.88347 0.92534 0.0
C1638 C 0.33006 0.86532 0.93917 0.0
H1639 H 0.39831 0.89841 0.88353 0.0
H1640 H 0.39203 0.89576 0.93914 0.0
C1641 C 0.29752 0.8497 0.92036 0.0
C1642 C 0.15243 0.44936 0.92027 0.0
C1643 C 0.13623 0.4657 0.93912 0.0
H1644 H 0.16413 0.43908 0.87451 0.0
C1645 C 0.11747 0.48325 0.92535 0.0
H1646 H 0.16692 0.43547 0.93014 0.0
C1647 C 0.11608 0.48554 0.89346 0.0
C1648 C 0.13311 0.47004 0.87462 0.0
H1649 H 0.1047 0.49617 0.93918 0.0
H1650 H 0.10205 0.4999 0.88361 0.0
C1651 C 0.15073 0.45135 0.88836 0.0
C1652 C 0.51796 0.63492 0.9254 0.0
C1653 C 0.53544 0.6712 0.93915 0.0
H1654 H 0.50138 0.60288 0.88367 0.0
C1655 C 0.55166 0.70377 0.92029 0.0
H1656 H 0.50512 0.6092 0.93925 0.0
C1657 C 0.54964 0.70011 0.88838 0.0
C1658 C 0.53108 0.66381 0.87465 0.0
H1659 H 0.56549 0.73214 0.93013 0.0
H1660 H 0.56187 0.72581 0.87453 0.0
C1661 C 0.51565 0.63125 0.8935 0.0
C1662 C 0.302 0.45086 0.38831 0.0
C1663 C 0.33822 0.4689 0.3744 0.0
H1664 H 0.27021 0.43622 0.43023 0.0
C1665 C 0.37084 0.48458 0.39312 0.0
H1666 H 0.27627 0.43853 0.37457 0.0
C1667 C 0.36735 0.48307 0.42504 0.0
C1668 C 0.33117 0.46617 0.43896 0.0
H1669 H 0.39916 0.49849 0.38315 0.0
H1670 H 0.39312 0.49605 0.43876 0.0
C1671 C 0.29852 0.44967 0.42025 0.0
C1672 C 0.51459 0.88433 0.39349 0.0
C1673 C 0.53063 0.86783 0.37465 0.0
H1674 H 0.50366 0.89538 0.43923 0.0
C1675 C 0.54991 0.85081 0.38838 0.0
H1676 H 0.49975 0.89787 0.38364 0.0
C1677 C 0.55199 0.84919 0.42028 0.0
C1678 C 0.53514 0.86487 0.43913 0.0
H1679 H 0.5626 0.83781 0.37454 0.0
H1680 H 0.56638 0.83519 0.43013 0.0
C1681 C 0.51697 0.88302 0.42538 0.0
C1682 C 0.14988 0.69853 0.38804 0.0
C1683 C 0.13239 0.6621 0.37453 0.0
H1684 H 0.16657 0.731 0.42958 0.0
C1685 C 0.11633 0.62974 0.39362 0.0
H1686 H 0.1626 0.72409 0.37401 0.0
C1687 C 0.11845 0.63373 0.42549 0.0
C1688 C 0.13698 0.67017 0.439 0.0
H1689 H 0.10249 0.60126 0.38397 0.0
H1690 H 0.10632 0.60817 0.4395 0.0
C1691 C 0.1523 0.70253 0.41992 0.0
C1692 C 0.05385 0.36515 0.09196 0.0
C1693 C 0.05957 0.37014 0.06014 0.0
H1694 H 0.03499 0.32505 0.12922 0.0
C1695 C 0.04352 0.33818 0.04076 0.0
H1696 H 0.06675 0.38953 0.10725 0.0
C1697 C 0.02444 0.30147 0.05325 0.0
C1698 C 0.02232 0.29652 0.08521 0.0
H1699 H 0.04826 0.3416 0.01618 0.0
H1700 H 0.01489 0.27714 0.03809 0.0
C1701 C 0.0358 0.32843 0.10449 0.0
C1702 C 0.67314 0.70833 0.10427 0.0
C1703 C 0.70501 0.72692 0.08493 0.0
H1704 H 0.61207 0.67795 0.10719 0.0
C1705 C 0.7 0.72412 0.05298 0.0
H1706 H 0.67655 0.71088 0.129 0.0
C1707 C 0.66327 0.70632 0.04058 0.0
C1708 C 0.63133 0.69024 0.06002 0.0
H1709 H 0.72428 0.73901 0.03776 0.0
H1710 H 0.65982 0.70767 0.01601 0.0
C1711 C 0.63641 0.68952 0.09183 0.0
C1712 C 0.29279 0.96515 0.10477 0.0
C1713 C 0.27474 0.97901 0.0854 0.0
H1714 H 0.32256 0.93384 0.10768 0.0
C1715 C 0.27793 0.97716 0.05346 0.0
H1716 H 0.28994 0.96573 0.12948 0.0
C1717 C 0.29553 0.95802 0.04105 0.0
C1718 C 0.31104 0.9416 0.06049 0.0
H1719 H 0.26344 0.98698 0.03822 0.0
H1720 H 0.29446 0.95351 0.01646 0.0
C1721 C 0.31141 0.94702 0.09233 0.0
C1722 C 0.30376 0.02123 0.42418 0.0
C1723 C 0.29857 0.02409 0.39264 0.0
H1724 H 0.34396 0.04066 0.46133 0.0
C1725 C 0.3305 0.04175 0.37324 0.0
H1726 H 0.27945 0.00835 0.43956 0.0
C1727 C 0.36726 0.05915 0.38555 0.0
C1728 C 0.37235 0.05994 0.41745 0.0
H1729 H 0.32699 0.04467 0.34889 0.0
H1730 H 0.39144 0.07541 0.37051 0.0
C1731 C 0.34054 0.03963 0.4366 0.0
C1732 C 0.95839 0.28863 0.37333 0.0
C1733 C 0.97559 0.27423 0.39311 0.0
H1734 H 0.92485 0.31602 0.36981 0.0
C1735 C 0.97726 0.28172 0.4247 0.0
H1736 H 0.95632 0.28257 0.34894 0.0
C1737 C 0.95845 0.29995 0.43667 0.0
C1738 C 0.93885 0.31182 0.41705 0.0
H1739 H 0.9897 0.27013 0.44037 0.0
H1740 H 0.95678 0.30221 0.46136 0.0
C1741 C 0.94051 0.30776 0.38522 0.0
C1742 C 0.7104 0.6936 0.41897 0.0
C1743 C 0.7263 0.70062 0.38936 0.0
H1744 H 0.68301 0.65173 0.45461 0.0
C1745 C 0.71943 0.6697 0.37049 0.0
H1746 H 0.71584 0.71712 0.43401 0.0
C1747 C 0.70046 0.63265 0.38207 0.0
C1748 C 0.6882 0.62602 0.41268 0.0
H1749 H 0.73154 0.67452 0.34761 0.0
H1750 H 0.69852 0.60964 0.36801 0.0
C1751 C 0.69165 0.65633 0.43072 0.0
C1752 C 0.96145 0.66171 0.937 0.0
C1753 C 0.94211 0.63009 0.91752 0.0
H1754 H 0.99218 0.72279 0.9404 0.0
C1755 C 0.94389 0.63559 0.88564 0.0
H1756 H 0.95967 0.65795 0.96171 0.0
C1757 C 0.96146 0.67253 0.87357 0.0
C1758 C 0.97828 0.70423 0.89322 0.0
H1759 H 0.92839 0.61155 0.87034 0.0
H1760 H 0.95938 0.67634 0.84914 0.0
C1761 C 0.98 0.69867 0.92485 0.0
C1762 C 0.34187 0.30226 0.93709 0.0
C1763 C 0.37349 0.31446 0.91757 0.0
H1764 H 0.28081 0.27194 0.9406 0.0
C1765 C 0.36795 0.31061 0.88571 0.0
H1766 H 0.34565 0.3043 0.96179 0.0
C1767 C 0.33101 0.29124 0.8737 0.0
C1768 C 0.29931 0.27644 0.89339 0.0
H1769 H 0.39197 0.31907 0.87037 0.0
H1770 H 0.32719 0.28527 0.84929 0.0
C1771 C 0.30491 0.28382 0.925 0.0
C1772 C 0.70095 0.04176 0.93677 0.0
C1773 C 0.68935 0.06181 0.9174 0.0
H1774 H 0.73069 0.01041 0.94008 0.0
C1775 C 0.69368 0.06073 0.88554 0.0
H1776 H 0.69852 0.043 0.96148 0.0
C1777 C 0.71293 0.04309 0.87342 0.0
C1778 C 0.72715 0.02553 0.893 0.0
H1779 H 0.68566 0.07677 0.87033 0.0
H1780 H 0.71926 0.04567 0.84906 0.0
C1781 C 0.71927 0.02316 0.92456 0.0
C1782 C 0.70074 0.97728 0.55313 0.0
C1783 C 0.70534 0.97922 0.58512 0.0
H1784 H 0.66102 0.95386 0.51584 0.0
C1785 C 0.67326 0.96594 0.60421 0.0
H1786 H 0.7252 0.98668 0.53811 0.0
C1787 C 0.6367 0.94824 0.59146 0.0
C1788 C 0.63202 0.94264 0.55961 0.0
H1789 H 0.67635 0.9666 0.62896 0.0
H1790 H 0.61217 0.93544 0.60662 0.0
C1791 C 0.66418 0.95853 0.54043 0.0
C1792 C 0.02575 0.72556 0.5518 0.0
C1793 C 0.02166 0.72624 0.58373 0.0
H1794 H 0.05113 0.71102 0.51485 0.0
C1795 C 0.03324 0.70587 0.60271 0.0
H1796 H 0.01769 0.74185 0.53691 0.0
C1797 C 0.05138 0.68738 0.59003 0.0
C1798 C 0.05911 0.69022 0.55842 0.0
H1799 H 0.03096 0.70681 0.62746 0.0
H1800 H 0.06286 0.67438 0.60524 0.0
C1801 C 0.04487 0.70807 0.53922 0.0
C1802 C 0.31369 0.36396 0.5904 0.0
C1803 C 0.31102 0.36906 0.5588 0.0
H1804 H 0.29397 0.32389 0.62774 0.0
C1805 C 0.29289 0.33708 0.53956 0.0
H1806 H 0.3269 0.38836 0.60564 0.0
C1807 C 0.27507 0.30038 0.55206 0.0
C1808 C 0.27439 0.29544 0.58397 0.0
H1809 H 0.29005 0.34056 0.51519 0.0
H1810 H 0.25867 0.27615 0.53713 0.0
C1811 C 0.2949 0.32725 0.60301 0.0
C1812 C 0.00363 0.37937 0.77536 0.0
C1813 C 0.03545 0.39239 0.75597 0.0
H1814 H 0.94279 0.35317 0.7781 0.0
C1815 C 0.03004 0.38324 0.72461 0.0
H1816 H 0.00733 0.38665 0.79955 0.0
C1817 C 0.99322 0.36498 0.71226 0.0
C1818 C 0.9616 0.3547 0.73135 0.0
H1819 H 0.05428 0.39372 0.70922 0.0
H1820 H 0.98966 0.36165 0.68758 0.0
C1821 C 0.96684 0.36018 0.76315 0.0
C1822 C 0.62213 0.62437 0.77616 0.0
C1823 C 0.61022 0.64424 0.75689 0.0
H1824 H 0.64793 0.58935 0.77878 0.0
C1825 C 0.62107 0.64957 0.72586 0.0
H1826 H 0.61357 0.61958 0.80008 0.0
C1827 C 0.63992 0.63154 0.71355 0.0
C1828 C 0.64905 0.60912 0.73241 0.0
H1829 H 0.61149 0.66419 0.71053 0.0
H1830 H 0.64454 0.63253 0.68897 0.0
C1831 C 0.64184 0.60726 0.76404 0.0
C1832 C 0.39738 0.03633 0.76393 0.0
C1833 C 0.39513 0.04199 0.73242 0.0
H1834 H 0.38474 0.99537 0.79978 0.0
C1835 C 0.37201 0.01068 0.71359 0.0
H1836 H 0.4158 0.06011 0.77864 0.0
C1837 C 0.35354 0.97371 0.72581 0.0
C1838 C 0.35908 0.96781 0.75671 0.0
H1839 H 0.37071 0.01453 0.68908 0.0
H1840 H 0.33828 0.94965 0.71048 0.0
C1841 C 0.37978 0.99941 0.77596 0.0
C1842 C 0.63725 0.00855 0.21382 0.0
C1843 C 0.64579 0.03966 0.23302 0.0
H1844 H 0.60956 0.94757 0.21014 0.0
C1845 C 0.63836 0.0337 0.26457 0.0
H1846 H 0.64211 0.01268 0.18929 0.0
C1847 C 0.61903 0.99665 0.27631 0.0
C1848 C 0.60764 0.96527 0.25669 0.0
H1849 H 0.64405 0.05735 0.27956 0.0
H1850 H 0.61033 0.99236 0.3002 0.0
C1851 C 0.61871 0.97145 0.22572 0.0
C1852 C 0.00227 0.62197 0.2753 0.0
C1853 C 0.03397 0.64103 0.2558 0.0
H1854 H 0.94146 0.58701 0.27828 0.0
C1855 C 0.02829 0.64492 0.22452 0.0
H1856 H 0.00616 0.61828 0.29944 0.0
C1857 C 0.99138 0.62627 0.21234 0.0
C1858 C 0.95989 0.60465 0.2315 0.0
H1859 H 0.05241 0.65891 0.20904 0.0
H1860 H 0.98766 0.62617 0.18768 0.0
C1861 C 0.96537 0.60426 0.26326 0.0
C1862 C 0.37781 0.37943 0.27518 0.0
C1863 C 0.35794 0.3911 0.25569 0.0
H1864 H 0.41287 0.35373 0.27829 0.0
C1865 C 0.35261 0.37981 0.22476 0.0
H1866 H 0.38256 0.38825 0.29903 0.0
C1867 C 0.37055 0.36067 0.21279 0.0
C1868 C 0.393 0.3518 0.23187 0.0
H1869 H 0.33797 0.38917 0.20926 0.0
H1870 H 0.36953 0.35567 0.18828 0.0
C1871 C 0.39496 0.3596 0.26338 0.0
loop_
_geom_bond_atom_site_label_1
_geom_bond_atom_site_label_2
_geom_bond_distance
_geom_bond_site_symmetry_2
_ccdc_geom_bond_type
Sc0 O3 2.025 . S
Sc0 O10 2.105 1_455 S
Sc0 O13 2.105 . S
Sc0 O16 2.105 1_455 S
Sc0 O19 2.105 . S
Sc1 O3 2.025 . S
Sc1 O11 2.105 . S
Sc1 O15 2.105 . S
Sc1 O17 2.105 . S
Sc1 O21 2.105 . S
Sc2 O3 2.025 1_655 S
Sc2 O12 2.105 1_655 S
Sc2 O14 2.105 . S
Sc2 O18 2.101 1_655 S
Sc2 O20 2.105 . S
O3 Sc0 2.025 . S
O3 Sc1 2.025 . S
O3 Sc2 2.025 1_455 S
C4 O10 1.268 . S
C4 O20 1.268 . S
C5 O11 1.268 . S
C5 O19 1.268 . S
C6 O12 1.268 . S
C6 O21 1.268 . S
C7 O13 1.268 . S
C7 O17 1.268 . S
C8 O14 1.268 . S
C8 O16 1.268 . S
C9 O15 1.268 . S
C9 O18 1.281 . S
O10 Sc0 2.105 1_655 S
O10 C4 1.268 . S
O11 Sc1 2.105 . S
O11 C5 1.268 . S
O12 Sc2 2.105 1_455 S
O12 C6 1.268 . S
O13 Sc0 2.105 . S
O13 C7 1.268 . S
O14 Sc2 2.105 . S
O14 C8 1.268 . S
O15 Sc1 2.105 . S
O15 C9 1.268 . S
O16 Sc0 2.105 1_655 S
O16 C8 1.268 . S
O17 Sc1 2.105 . S
O17 C7 1.268 . S
O18 Sc2 2.101 1_455 S
O18 C9 1.281 . S
O19 Sc0 2.105 . S
O19 C5 1.268 . S
O20 Sc2 2.105 . S
O20 C4 1.268 . S
O21 Sc1 2.105 . S
O21 C6 1.268 . S
Sc22 O25 2.025 . S
Sc22 O32 2.105 . S
Sc22 O35 2.105 . S
Sc22 O38 2.105 . S
Sc22 O41 2.105 . S
Sc23 O25 2.025 . S
Sc23 O33 2.105 . S
Sc23 O37 2.105 . S
Sc23 O39 2.105 . S
Sc23 O43 2.105 . S
Sc24 O25 2.025 . S
Sc24 O34 2.105 . S
Sc24 O36 2.105 . S
Sc24 O40 2.105 . S
Sc24 O42 2.105 . S
O25 Sc22 2.025 . S
O25 Sc23 2.025 . S
O25 Sc24 2.025 . S
C26 O32 1.268 . S
C26 O42 1.268 . S
C27 O33 1.268 . S
C27 O41 1.268 . S
C28 O34 1.268 . S
C28 O43 1.268 . S
C29 O35 1.268 . S
C29 O39 1.268 . S
C30 O36 1.268 . S
C30 O38 1.268 . S
C31 O37 1.268 . S
C31 O40 1.268 . S
O32 Sc22 2.105 . S
O32 C26 1.268 . S
O33 Sc23 2.105 . S
O33 C27 1.268 . S
O34 Sc24 2.105 . S
O34 C28 1.268 . S
O35 Sc22 2.105 . S
O35 C29 1.268 . S
O36 Sc24 2.105 . S
O36 C30 1.268 . S
O37 Sc23 2.105 . S
O37 C31 1.268 . S
O38 Sc22 2.105 . S
O38 C30 1.268 . S
O39 Sc23 2.105 . S
O39 C29 1.268 . S
O40 Sc24 2.105 . S
O40 C31 1.268 . S
O41 Sc22 2.105 . S
O41 C27 1.268 . S
O42 Sc24 2.105 . S
O42 C26 1.268 . S
O43 Sc23 2.105 . S
O43 C28 1.268 . S
Sc44 O47 2.025 . S
Sc44 O54 2.105 1_565 S
Sc44 O57 2.105 . S
Sc44 O60 2.105 1_565 S
Sc44 O63 2.105 . S
Sc45 O47 2.025 . S
Sc45 O55 2.105 . S
Sc45 O59 2.105 . S
Sc45 O61 2.105 . S
Sc45 O65 2.105 . S
Sc46 O47 2.025 1_545 S
Sc46 O56 2.105 1_545 S
Sc46 O58 2.105 . S
Sc46 O62 2.101 1_545 S
Sc46 O64 2.105 . S
O47 Sc44 2.025 . S
O47 Sc45 2.025 . S
O47 Sc46 2.025 1_565 S
C48 O54 1.268 . S
C48 O64 1.268 . S
C49 O55 1.268 . S
C49 O63 1.268 . S
C50 O56 1.268 . S
C50 O65 1.268 . S
C51 O57 1.268 . S
C51 O61 1.268 . S
C52 O58 1.268 . S
C52 O60 1.268 . S
C53 O59 1.268 . S
C53 O62 1.278 . S
O54 Sc44 2.105 1_545 S
O54 C48 1.268 . S
O55 Sc45 2.105 . S
O55 C49 1.268 . S
O56 Sc46 2.105 1_565 S
O56 C50 1.268 . S
O57 Sc44 2.105 . S
O57 C51 1.268 . S
O58 Sc46 2.105 . S
O58 C52 1.268 . S
O59 Sc45 2.105 . S
O59 C53 1.268 . S
O60 Sc44 2.105 1_545 S
O60 C52 1.268 . S
O61 Sc45 2.105 . S
O61 C51 1.268 . S
O62 Sc46 2.101 1_565 S
O62 C53 1.278 . S
O63 Sc44 2.105 . S
O63 C49 1.268 . S
O64 Sc46 2.105 . S
O64 C48 1.268 . S
O65 Sc45 2.105 . S
O65 C50 1.268 . S
Sc66 O69 2.025 . S
Sc66 O76 2.105 1_545 S
Sc66 O79 2.105 . S
Sc66 O82 2.105 1_545 S
Sc66 O85 2.105 . S
Sc67 O69 2.025 . S
Sc67 O77 2.105 . S
Sc67 O81 2.105 . S
Sc67 O83 2.105 . S
Sc67 O87 2.105 . S
Sc68 O69 2.025 1_565 S
Sc68 O78 2.105 1_565 S
Sc68 O80 2.105 . S
Sc68 O84 2.101 1_565 S
Sc68 O86 2.105 . S
O69 Sc66 2.025 . S
O69 Sc67 2.025 . S
O69 Sc68 2.025 1_545 S
C70 O76 1.268 . S
C70 O86 1.268 . S
C71 O77 1.268 . S
C71 O85 1.268 . S
C72 O78 1.268 . S
C72 O87 1.268 . S
C73 O79 1.268 . S
C73 O83 1.268 . S
C74 O80 1.268 . S
C74 O82 1.268 . S
C75 O81 1.268 . S
C75 O84 1.281 . S
O76 Sc66 2.105 1_565 S
O76 C70 1.268 . S
O77 Sc67 2.105 . S
O77 C71 1.268 . S
O78 Sc68 2.105 1_545 S
O78 C72 1.268 . S
O79 Sc66 2.105 . S
O79 C73 1.268 . S
O80 Sc68 2.105 . S
O80 C74 1.268 . S
O81 Sc67 2.105 . S
O81 C75 1.268 . S
O82 Sc66 2.105 1_565 S
O82 C74 1.268 . S
O83 Sc67 2.105 . S
O83 C73 1.268 . S
O84 Sc68 2.101 1_545 S
O84 C75 1.281 . S
O85 Sc66 2.105 . S
O85 C71 1.268 . S
O86 Sc68 2.105 . S
O86 C70 1.268 . S
O87 Sc67 2.105 . S
O87 C72 1.268 . S
Sc88 O91 2.025 . S
Sc88 O98 2.105 1_655 S
Sc88 O101 2.105 . S
Sc88 O104 2.105 1_655 S
Sc88 O107 2.105 . S
Sc89 O91 2.025 . S
Sc89 O99 2.105 . S
Sc89 O103 2.105 . S
Sc89 O105 2.105 . S
Sc89 O109 2.105 . S
Sc90 O91 2.025 1_455 S
Sc90 O100 2.105 1_455 S
Sc90 O102 2.105 . S
Sc90 O106 2.101 1_455 S
Sc90 O108 2.105 . S
O91 Sc88 2.025 . S
O91 Sc89 2.025 . S
O91 Sc90 2.025 1_655 S
C92 O98 1.268 . S
C92 O108 1.268 . S
C93 O99 1.268 . S
C93 O107 1.268 . S
C94 O100 1.268 . S
C94 O109 1.268 . S
C95 O101 1.268 . S
C95 O105 1.268 . S
C96 O102 1.268 . S
C96 O104 1.268 . S
C97 O103 1.268 . S
C97 O106 1.278 . S
O98 Sc88 2.105 1_455 S
O98 C92 1.268 . S
O99 Sc89 2.105 . S
O99 C93 1.268 . S
O100 Sc90 2.105 1_655 S
O100 C94 1.268 . S
O101 Sc88 2.105 . S
O101 C95 1.268 . S
O102 Sc90 2.105 . S
O102 C96 1.268 . S
O103 Sc89 2.105 . S
O103 C97 1.268 . S
O104 Sc88 2.105 1_455 S
O104 C96 1.268 . S
O105 Sc89 2.105 . S
O105 C95 1.268 . S
O106 Sc90 2.101 1_655 S
O106 C97 1.278 . S
O107 Sc88 2.105 . S
O107 C93 1.268 . S
O108 Sc90 2.105 . S
O108 C92 1.268 . S
O109 Sc89 2.105 . S
O109 C94 1.268 . S
Sc110 O113 2.025 . S
Sc110 O120 2.105 . S
Sc110 O123 2.105 . S
Sc110 O126 2.105 . S
Sc110 O129 2.105 . S
Sc111 O113 2.025 . S
Sc111 O121 2.105 . S
Sc111 O125 2.105 . S
Sc111 O127 2.105 . S
Sc111 O131 2.105 . S
Sc112 O113 2.025 . S
Sc112 O122 2.105 . S
Sc112 O124 2.105 . S
Sc112 O128 2.105 . S
Sc112 O130 2.105 . S
O113 Sc110 2.025 . S
O113 Sc111 2.025 . S
O113 Sc112 2.025 . S
C114 O120 1.268 . S
C114 O130 1.268 . S
C115 O121 1.268 . S
C115 O129 1.268 . S
C116 O122 1.268 . S
C116 O131 1.268 . S
C117 O123 1.268 . S
C117 O127 1.268 . S
C118 O124 1.268 . S
C118 O126 1.268 . S
C119 O125 1.268 . S
C119 O128 1.268 . S
O120 Sc110 2.105 . S
O120 C114 1.268 . S
O121 Sc111 2.105 . S
O121 C115 1.268 . S
O122 Sc112 2.105 . S
O122 C116 1.268 . S
O123 Sc110 2.105 . S
O123 C117 1.268 . S
O124 Sc112 2.105 . S
O124 C118 1.268 . S
O125 Sc111 2.105 . S
O125 C119 1.268 . S
O126 Sc110 2.105 . S
O126 C118 1.268 . S
O127 Sc111 2.105 . S
O127 C117 1.268 . S
O128 Sc112 2.105 . S
O128 C119 1.268 . S
O129 Sc110 2.105 . S
O129 C115 1.268 . S
O130 Sc112 2.105 . S
O130 C114 1.268 . S
O131 Sc111 2.105 . S
O131 C116 1.268 . S
Sc132 O135 2.025 1_455 S
Sc132 O142 2.105 . S
Sc132 O145 2.101 1_455 S
Sc132 O148 2.105 . S
Sc132 O151 2.105 1_455 S
Sc133 O135 2.025 . S
Sc133 O143 2.105 . S
Sc133 O147 2.105 . S
Sc133 O149 2.105 . S
Sc133 O153 2.105 . S
Sc134 O135 2.025 . S
Sc134 O144 2.105 . S
Sc134 O146 2.105 1_655 S
Sc134 O150 2.105 . S
Sc134 O152 2.105 1_655 S
O135 Sc132 2.025 1_655 S
O135 Sc133 2.025 . S
O135 Sc134 2.025 . S
C136 O142 1.268 . S
C136 O152 1.268 . S
C137 O143 1.268 . S
C137 O151 1.268 . S
C138 O144 1.268 . S
C138 O153 1.268 . S
C139 O145 1.281 . S
C139 O149 1.268 . S
C140 O146 1.268 . S
C140 O148 1.268 . S
C141 O147 1.268 . S
C141 O150 1.268 . S
O142 Sc132 2.105 . S
O142 C136 1.268 . S
O143 Sc133 2.105 . S
O143 C137 1.268 . S
O144 Sc134 2.105 . S
O144 C138 1.268 . S
O145 Sc132 2.101 1_655 S
O145 C139 1.281 . S
O146 Sc134 2.105 1_455 S
O146 C140 1.268 . S
O147 Sc133 2.105 . S
O147 C141 1.268 . S
O148 Sc132 2.105 . S
O148 C140 1.268 . S
O149 Sc133 2.105 . S
O149 C139 1.268 . S
O150 Sc134 2.105 . S
O150 C141 1.268 . S
O151 Sc132 2.105 1_655 S
O151 C137 1.268 . S
O152 Sc134 2.105 1_455 S
O152 C136 1.268 . S
O153 Sc133 2.105 . S
O153 C138 1.268 . S
Sc154 O157 2.025 . S
Sc154 O164 2.105 . S
Sc154 O167 2.105 . S
Sc154 O170 2.105 . S
Sc154 O173 2.105 . S
Sc155 O157 2.025 . S
Sc155 O165 2.105 . S
Sc155 O169 2.105 . S
Sc155 O171 2.105 . S
Sc155 O175 2.105 . S
Sc156 O157 2.025 . S
Sc156 O166 2.105 . S
Sc156 O168 2.105 . S
Sc156 O172 2.105 . S
Sc156 O174 2.105 . S
O157 Sc154 2.025 . S
O157 Sc155 2.025 . S
O157 Sc156 2.025 . S
C158 O164 1.268 . S
C158 O174 1.268 . S
C159 O165 1.268 . S
C159 O173 1.268 . S
C160 O166 1.268 . S
C160 O175 1.268 . S
C161 O167 1.268 . S
C161 O171 1.268 . S
C162 O168 1.268 . S
C162 O170 1.268 . S
C163 O169 1.268 . S
C163 O172 1.268 . S
O164 Sc154 2.105 . S
O164 C158 1.268 . S
O165 Sc155 2.105 . S
O165 C159 1.268 . S
O166 Sc156 2.105 . S
O166 C160 1.268 . S
O167 Sc154 2.105 . S
O167 C161 1.268 . S
O168 Sc156 2.105 . S
O168 C162 1.268 . S
O169 Sc155 2.105 . S
O169 C163 1.268 . S
O170 Sc154 2.105 . S
O170 C162 1.268 . S
O171 Sc155 2.105 . S
O171 C161 1.268 . S
O172 Sc156 2.105 . S
O172 C163 1.268 . S
O173 Sc154 2.105 . S
O173 C159 1.268 . S
O174 Sc156 2.105 . S
O174 C158 1.268 . S
O175 Sc155 2.105 . S
O175 C160 1.268 . S
Sc176 O179 2.025 1_565 S
Sc176 O186 2.105 . S
Sc176 O189 2.101 1_565 S
Sc176 O192 2.105 . S
Sc176 O195 2.105 1_565 S
Sc177 O179 2.025 . S
Sc177 O187 2.105 . S
Sc177 O191 2.105 . S
Sc177 O193 2.105 . S
Sc177 O197 2.105 . S
Sc178 O179 2.025 . S
Sc178 O188 2.105 . S
Sc178 O190 2.105 1_545 S
Sc178 O194 2.105 . S
Sc178 O196 2.105 1_545 S
O179 Sc176 2.025 1_545 S
O179 Sc177 2.025 . S
O179 Sc178 2.025 . S
C180 O186 1.268 . S
C180 O196 1.268 . S
C181 O187 1.268 . S
C181 O195 1.268 . S
C182 O188 1.268 . S
C182 O197 1.268 . S
C183 O189 1.278 . S
C183 O193 1.268 . S
C184 O190 1.268 . S
C184 O192 1.268 . S
C185 O191 1.268 . S
C185 O194 1.268 . S
O186 Sc176 2.105 . S
O186 C180 1.268 . S
O187 Sc177 2.105 . S
O187 C181 1.268 . S
O188 Sc178 2.105 . S
O188 C182 1.268 . S
O189 Sc176 2.101 1_545 S
O189 C183 1.278 . S
O190 Sc178 2.105 1_565 S
O190 C184 1.268 . S
O191 Sc177 2.105 . S
O191 C185 1.268 . S
O192 Sc176 2.105 . S
O192 C184 1.268 . S
O193 Sc177 2.105 . S
O193 C183 1.268 . S
O194 Sc178 2.105 . S
O194 C185 1.268 . S
O195 Sc176 2.105 1_545 S
O195 C181 1.268 . S
O196 Sc178 2.105 1_565 S
O196 C180 1.268 . S
O197 Sc177 2.105 . S
O197 C182 1.268 . S
Sc198 O201 2.025 1_545 S
Sc198 O208 2.105 . S
Sc198 O211 2.101 1_545 S
Sc198 O214 2.105 . S
Sc198 O217 2.105 1_545 S
Sc199 O201 2.025 . S
Sc199 O209 2.105 . S
Sc199 O213 2.105 . S
Sc199 O215 2.105 . S
Sc199 O219 2.105 . S
Sc200 O201 2.025 . S
Sc200 O210 2.105 . S
Sc200 O212 2.105 1_565 S
Sc200 O216 2.105 . S
Sc200 O218 2.105 1_565 S
O201 Sc198 2.025 1_565 S
O201 Sc199 2.025 . S
O201 Sc200 2.025 . S
C202 O208 1.268 . S
C202 O218 1.268 . S
C203 O209 1.268 . S
C203 O217 1.268 . S
C204 O210 1.268 . S
C204 O219 1.268 . S
C205 O211 1.281 . S
C205 O215 1.268 . S
C206 O212 1.268 . S
C206 O214 1.268 . S
C207 O213 1.268 . S
C207 O216 1.268 . S
O208 Sc198 2.105 . S
O208 C202 1.268 . S
O209 Sc199 2.105 . S
O209 C203 1.268 . S
O210 Sc200 2.105 . S
O210 C204 1.268 . S
O211 Sc198 2.101 1_565 S
O211 C205 1.281 . S
O212 Sc200 2.105 1_545 S
O212 C206 1.268 . S
O213 Sc199 2.105 . S
O213 C207 1.268 . S
O214 Sc198 2.105 . S
O214 C206 1.268 . S
O215 Sc199 2.105 . S
O215 C205 1.268 . S
O216 Sc200 2.105 . S
O216 C207 1.268 . S
O217 Sc198 2.105 1_565 S
O217 C203 1.268 . S
O218 Sc200 2.105 1_545 S
O218 C202 1.268 . S
O219 Sc199 2.105 . S
O219 C204 1.268 . S
Sc220 O223 2.025 1_655 S
Sc220 O230 2.105 . S
Sc220 O233 2.101 1_655 S
Sc220 O236 2.105 . S
Sc220 O239 2.105 1_655 S
Sc221 O223 2.025 . S
Sc221 O231 2.105 . S
Sc221 O235 2.105 . S
Sc221 O237 2.105 . S
Sc221 O241 2.105 . S
Sc222 O223 2.025 . S
Sc222 O232 2.105 . S
Sc222 O234 2.105 1_455 S
Sc222 O238 2.105 . S
Sc222 O240 2.105 1_455 S
O223 Sc220 2.025 1_455 S
O223 Sc221 2.025 . S
O223 Sc222 2.025 . S
C224 O230 1.268 . S
C224 O240 1.268 . S
C225 O231 1.268 . S
C225 O239 1.268 . S
C226 O232 1.268 . S
C226 O241 1.268 . S
C227 O233 1.278 . S
C227 O237 1.268 . S
C228 O234 1.268 . S
C228 O236 1.268 . S
C229 O235 1.268 . S
C229 O238 1.268 . S
O230 Sc220 2.105 . S
O230 C224 1.268 . S
O231 Sc221 2.105 . S
O231 C225 1.268 . S
O232 Sc222 2.105 . S
O232 C226 1.268 . S
O233 Sc220 2.101 1_455 S
O233 C227 1.278 . S
O234 Sc222 2.105 1_655 S
O234 C228 1.268 . S
O235 Sc221 2.105 . S
O235 C229 1.268 . S
O236 Sc220 2.105 . S
O236 C228 1.268 . S
O237 Sc221 2.105 . S
O237 C227 1.268 . S
O238 Sc222 2.105 . S
O238 C229 1.268 . S
O239 Sc220 2.105 1_455 S
O239 C225 1.268 . S
O240 Sc222 2.105 1_655 S
O240 C224 1.268 . S
O241 Sc221 2.105 . S
O241 C226 1.268 . S
Sc242 O245 2.025 . S
Sc242 O252 2.105 . S
Sc242 O255 2.105 . S
Sc242 O258 2.105 . S
Sc242 O261 2.105 . S
Sc243 O245 2.025 . S
Sc243 O253 2.105 . S
Sc243 O257 2.105 . S
Sc243 O259 2.105 . S
Sc243 O263 2.105 . S
Sc244 O245 2.025 . S
Sc244 O254 2.105 . S
Sc244 O256 2.105 . S
Sc244 O260 2.105 . S
Sc244 O262 2.105 . S
O245 Sc242 2.025 . S
O245 Sc243 2.025 . S
O245 Sc244 2.025 . S
C246 O252 1.268 . S
C246 O262 1.268 . S
C247 O253 1.268 . S
C247 O261 1.268 . S
C248 O254 1.268 . S
C248 O263 1.268 . S
C249 O255 1.268 . S
C249 O259 1.268 . S
C250 O256 1.268 . S
C250 O258 1.268 . S
C251 O257 1.268 . S
C251 O260 1.268 . S
O252 Sc242 2.105 . S
O252 C246 1.268 . S
O253 Sc243 2.105 . S
O253 C247 1.268 . S
O254 Sc244 2.105 . S
O254 C248 1.268 . S
O255 Sc242 2.105 . S
O255 C249 1.268 . S
O256 Sc244 2.105 . S
O256 C250 1.268 . S
O257 Sc243 2.105 . S
O257 C251 1.268 . S
O258 Sc242 2.105 . S
O258 C250 1.268 . S
O259 Sc243 2.105 . S
O259 C249 1.268 . S
O260 Sc244 2.105 . S
O260 C251 1.268 . S
O261 Sc242 2.105 . S
O261 C247 1.268 . S
O262 Sc244 2.105 . S
O262 C246 1.268 . S
O263 Sc243 2.105 . S
O263 C248 1.268 . S
Sc264 O267 2.025 . S
Sc264 O274 2.105 . S
Sc264 O277 2.105 . S
Sc264 O280 2.105 . S
Sc264 O283 2.105 . S
Sc265 O267 2.025 . S
Sc265 O275 2.105 . S
Sc265 O279 2.105 . S
Sc265 O281 2.105 . S
Sc265 O285 2.105 . S
Sc266 O267 2.025 . S
Sc266 O276 2.105 . S
Sc266 O278 2.105 . S
Sc266 O282 2.105 . S
Sc266 O284 2.105 . S
O267 Sc264 2.025 . S
O267 Sc265 2.025 . S
O267 Sc266 2.025 . S
C268 O274 1.268 . S
C268 O284 1.268 . S
C269 O275 1.268 . S
C269 O283 1.268 . S
C270 O276 1.268 . S
C270 O285 1.268 . S
C271 O277 1.268 . S
C271 O281 1.268 . S
C272 O278 1.268 . S
C272 O280 1.268 . S
C273 O279 1.268 . S
C273 O282 1.268 . S
O274 Sc264 2.105 . S
O274 C268 1.268 . S
O275 Sc265 2.105 . S
O275 C269 1.268 . S
O276 Sc266 2.105 . S
O276 C270 1.268 . S
O277 Sc264 2.105 . S
O277 C271 1.268 . S
O278 Sc266 2.105 . S
O278 C272 1.268 . S
O279 Sc265 2.105 . S
O279 C273 1.268 . S
O280 Sc264 2.105 . S
O280 C272 1.268 . S
O281 Sc265 2.105 . S
O281 C271 1.268 . S
O282 Sc266 2.105 . S
O282 C273 1.268 . S
O283 Sc264 2.105 . S
O283 C269 1.268 . S
O284 Sc266 2.105 . S
O284 C268 1.268 . S
O285 Sc265 2.105 . S
O285 C270 1.268 . S
Sc286 O289 2.025 . S
Sc286 O296 2.105 . S
Sc286 O299 2.105 . S
Sc286 O302 2.105 . S
Sc286 O305 2.105 . S
Sc287 O289 2.025 . S
Sc287 O297 2.105 . S
Sc287 O301 2.105 . S
Sc287 O303 2.105 . S
Sc287 O307 2.105 . S
Sc288 O289 2.025 . S
Sc288 O298 2.105 . S
Sc288 O300 2.105 . S
Sc288 O304 2.105 . S
Sc288 O306 2.105 . S
O289 Sc286 2.025 . S
O289 Sc287 2.025 . S
O289 Sc288 2.025 . S
C290 O296 1.268 . S
C290 O306 1.268 . S
C291 O297 1.268 . S
C291 O305 1.268 . S
C292 O298 1.268 . S
C292 O307 1.268 . S
C293 O299 1.268 . S
C293 O303 1.268 . S
C294 O300 1.268 . S
C294 O302 1.268 . S
C295 O301 1.268 . S
C295 O304 1.268 . S
O296 Sc286 2.105 . S
O296 C290 1.268 . S
O297 Sc287 2.105 . S
O297 C291 1.268 . S
O298 Sc288 2.105 . S
O298 C292 1.268 . S
O299 Sc286 2.105 . S
O299 C293 1.268 . S
O300 Sc288 2.105 . S
O300 C294 1.268 . S
O301 Sc287 2.105 . S
O301 C295 1.268 . S
O302 Sc286 2.105 . S
O302 C294 1.268 . S
O303 Sc287 2.105 . S
O303 C293 1.268 . S
O304 Sc288 2.105 . S
O304 C295 1.268 . S
O305 Sc286 2.105 . S
O305 C291 1.268 . S
O306 Sc288 2.105 . S
O306 C290 1.268 . S
O307 Sc287 2.105 . S
O307 C292 1.268 . S
Sc308 O311 2.025 . S
Sc308 O318 2.105 . S
Sc308 O321 2.105 . S
Sc308 O324 2.105 . S
Sc308 O327 2.105 . S
Sc309 O311 2.025 . S
Sc309 O319 2.105 . S
Sc309 O323 2.105 . S
Sc309 O325 2.105 . S
Sc309 O329 2.105 . S
Sc310 O311 2.025 . S
Sc310 O320 2.105 . S
Sc310 O322 2.105 . S
Sc310 O326 2.105 . S
Sc310 O328 2.105 . S
O311 Sc308 2.025 . S
O311 Sc309 2.025 . S
O311 Sc310 2.025 . S
C312 O318 1.268 . S
C312 O328 1.268 . S
C313 O319 1.268 . S
C313 O327 1.268 . S
C314 O320 1.268 . S
C314 O329 1.268 . S
C315 O321 1.268 . S
C315 O325 1.268 . S
C316 O322 1.268 . S
C316 O324 1.268 . S
C317 O323 1.268 . S
C317 O326 1.268 . S
O318 Sc308 2.105 . S
O318 C312 1.268 . S
O319 Sc309 2.105 . S
O319 C313 1.268 . S
O320 Sc310 2.105 . S
O320 C314 1.268 . S
O321 Sc308 2.105 . S
O321 C315 1.268 . S
O322 Sc310 2.105 . S
O322 C316 1.268 . S
O323 Sc309 2.105 . S
O323 C317 1.268 . S
O324 Sc308 2.105 . S
O324 C316 1.268 . S
O325 Sc309 2.105 . S
O325 C315 1.268 . S
O326 Sc310 2.105 . S
O326 C317 1.268 . S
O327 Sc308 2.105 . S
O327 C313 1.268 . S
O328 Sc310 2.105 . S
O328 C312 1.268 . S
O329 Sc309 2.105 . S
O329 C314 1.268 . S
Sc330 O333 2.025 . S
Sc330 O340 2.105 . S
Sc330 O343 2.105 . S
Sc330 O346 2.105 . S
Sc330 O349 2.105 . S
Sc331 O333 2.025 . S
Sc331 O341 2.105 . S
Sc331 O345 2.105 . S
Sc331 O347 2.105 . S
Sc331 O351 2.105 . S
Sc332 O333 2.025 . S
Sc332 O342 2.105 . S
Sc332 O344 2.105 . S
Sc332 O348 2.105 . S
Sc332 O350 2.105 . S
O333 Sc330 2.025 . S
O333 Sc331 2.025 . S
O333 Sc332 2.025 . S
C334 O340 1.268 . S
C334 O350 1.268 . S
C335 O341 1.268 . S
C335 O349 1.268 . S
C336 O342 1.268 . S
C336 O351 1.268 . S
C337 O343 1.268 . S
C337 O347 1.268 . S
C338 O344 1.268 . S
C338 O346 1.268 . S
C339 O345 1.268 . S
C339 O348 1.268 . S
O340 Sc330 2.105 . S
O340 C334 1.268 . S
O341 Sc331 2.105 . S
O341 C335 1.268 . S
O342 Sc332 2.105 . S
O342 C336 1.268 . S
O343 Sc330 2.105 . S
O343 C337 1.268 . S
O344 Sc332 2.105 . S
O344 C338 1.268 . S
O345 Sc331 2.105 . S
O345 C339 1.268 . S
O346 Sc330 2.105 . S
O346 C338 1.268 . S
O347 Sc331 2.105 . S
O347 C337 1.268 . S
O348 Sc332 2.105 . S
O348 C339 1.268 . S
O349 Sc330 2.105 . S
O349 C335 1.268 . S
O350 Sc332 2.105 . S
O350 C334 1.268 . S
O351 Sc331 2.105 . S
O351 C336 1.268 . S
Sc352 O355 2.025 . S
Sc352 O362 2.105 . S
Sc352 O365 2.105 . S
Sc352 O368 2.105 . S
Sc352 O371 2.105 . S
Sc353 O355 2.025 . S
Sc353 O363 2.105 . S
Sc353 O367 2.105 . S
Sc353 O369 2.105 . S
Sc353 O373 2.105 . S
Sc354 O355 2.025 . S
Sc354 O364 2.105 . S
Sc354 O366 2.105 . S
Sc354 O370 2.105 . S
Sc354 O372 2.105 . S
O355 Sc352 2.025 . S
O355 Sc353 2.025 . S
O355 Sc354 2.025 . S
C356 O362 1.268 . S
C356 O372 1.268 . S
C357 O363 1.268 . S
C357 O371 1.268 . S
C358 O364 1.268 . S
C358 O373 1.268 . S
C359 O365 1.268 . S
C359 O369 1.268 . S
C360 O366 1.268 . S
C360 O368 1.268 . S
C361 O367 1.268 . S
C361 O370 1.268 . S
O362 Sc352 2.105 . S
O362 C356 1.268 . S
O363 Sc353 2.105 . S
O363 C357 1.268 . S
O364 Sc354 2.105 . S
O364 C358 1.268 . S
O365 Sc352 2.105 . S
O365 C359 1.268 . S
O366 Sc354 2.105 . S
O366 C360 1.268 . S
O367 Sc353 2.105 . S
O367 C361 1.268 . S
O368 Sc352 2.105 . S
O368 C360 1.268 . S
O369 Sc353 2.105 . S
O369 C359 1.268 . S
O370 Sc354 2.105 . S
O370 C361 1.268 . S
O371 Sc352 2.105 . S
O371 C357 1.268 . S
O372 Sc354 2.105 . S
O372 C356 1.268 . S
O373 Sc353 2.105 . S
O373 C358 1.268 . S
Sc374 O377 2.025 . S
Sc374 O384 2.105 . S
Sc374 O387 2.105 . S
Sc374 O390 2.105 . S
Sc374 O393 2.105 . S
Sc375 O377 2.025 . S
Sc375 O385 2.105 . S
Sc375 O389 2.105 . S
Sc375 O391 2.105 . S
Sc375 O395 2.105 . S
Sc376 O377 2.025 . S
Sc376 O386 2.105 . S
Sc376 O388 2.105 . S
Sc376 O392 2.105 . S
Sc376 O394 2.105 . S
O377 Sc374 2.025 . S
O377 Sc375 2.025 . S
O377 Sc376 2.025 . S
C378 O384 1.268 . S
C378 O394 1.268 . S
C379 O385 1.268 . S
C379 O393 1.268 . S
C380 O386 1.268 . S
C380 O395 1.268 . S
C381 O387 1.268 . S
C381 O391 1.268 . S
C382 O388 1.268 . S
C382 O390 1.268 . S
C383 O389 1.268 . S
C383 O392 1.268 . S
O384 Sc374 2.105 . S
O384 C378 1.268 . S
O385 Sc375 2.105 . S
O385 C379 1.268 . S
O386 Sc376 2.105 . S
O386 C380 1.268 . S
O387 Sc374 2.105 . S
O387 C381 1.268 . S
O388 Sc376 2.105 . S
O388 C382 1.268 . S
O389 Sc375 2.105 . S
O389 C383 1.268 . S
O390 Sc374 2.105 . S
O390 C382 1.268 . S
O391 Sc375 2.105 . S
O391 C381 1.268 . S
O392 Sc376 2.105 . S
O392 C383 1.268 . S
O393 Sc374 2.105 . S
O393 C379 1.268 . S
O394 Sc376 2.105 . S
O394 C378 1.268 . S
O395 Sc375 2.105 . S
O395 C380 1.268 . S
Sc396 O399 2.025 . S
Sc396 O406 2.105 . S
Sc396 O409 2.105 . S
Sc396 O412 2.105 . S
Sc396 O415 2.105 . S
Sc397 O399 2.025 . S
Sc397 O407 2.105 . S
Sc397 O411 2.105 . S
Sc397 O413 2.105 . S
Sc397 O417 2.105 . S
Sc398 O399 2.025 . S
Sc398 O408 2.105 . S
Sc398 O410 2.105 . S
Sc398 O414 2.105 . S
Sc398 O416 2.105 . S
O399 Sc396 2.025 . S
O399 Sc397 2.025 . S
O399 Sc398 2.025 . S
C400 O406 1.268 . S
C400 O416 1.268 . S
C401 O407 1.268 . S
C401 O415 1.268 . S
C402 O408 1.268 . S
C402 O417 1.268 . S
C403 O409 1.268 . S
C403 O413 1.268 . S
C404 O410 1.268 . S
C404 O412 1.268 . S
C405 O411 1.268 . S
C405 O414 1.268 . S
O406 Sc396 2.105 . S
O406 C400 1.268 . S
O407 Sc397 2.105 . S
O407 C401 1.268 . S
O408 Sc398 2.105 . S
O408 C402 1.268 . S
O409 Sc396 2.105 . S
O409 C403 1.268 . S
O410 Sc398 2.105 . S
O410 C404 1.268 . S
O411 Sc397 2.105 . S
O411 C405 1.268 . S
O412 Sc396 2.105 . S
O412 C404 1.268 . S
O413 Sc397 2.105 . S
O413 C403 1.268 . S
O414 Sc398 2.105 . S
O414 C405 1.268 . S
O415 Sc396 2.105 . S
O415 C401 1.268 . S
O416 Sc398 2.105 . S
O416 C400 1.268 . S
O417 Sc397 2.105 . S
O417 C402 1.268 . S
Sc418 O421 2.025 . S
Sc418 O428 2.105 . S
Sc418 O431 2.105 . S
Sc418 O434 2.105 . S
Sc418 O437 2.105 . S
Sc419 O421 2.025 . S
Sc419 O429 2.105 . S
Sc419 O433 2.105 . S
Sc419 O435 2.105 . S
Sc419 O439 2.105 . S
Sc420 O421 2.025 . S
Sc420 O430 2.105 . S
Sc420 O432 2.105 . S
Sc420 O436 2.105 . S
Sc420 O438 2.105 . S
O421 Sc418 2.025 . S
O421 Sc419 2.025 . S
O421 Sc420 2.025 . S
C422 O428 1.268 . S
C422 O438 1.268 . S
C423 O429 1.268 . S
C423 O437 1.268 . S
C424 O430 1.268 . S
C424 O439 1.268 . S
C425 O431 1.268 . S
C425 O435 1.268 . S
C426 O432 1.268 . S
C426 O434 1.268 . S
C427 O433 1.268 . S
C427 O436 1.268 . S
O428 Sc418 2.105 . S
O428 C422 1.268 . S
O429 Sc419 2.105 . S
O429 C423 1.268 . S
O430 Sc420 2.105 . S
O430 C424 1.268 . S
O431 Sc418 2.105 . S
O431 C425 1.268 . S
O432 Sc420 2.105 . S
O432 C426 1.268 . S
O433 Sc419 2.105 . S
O433 C427 1.268 . S
O434 Sc418 2.105 . S
O434 C426 1.268 . S
O435 Sc419 2.105 . S
O435 C425 1.268 . S
O436 Sc420 2.105 . S
O436 C427 1.268 . S
O437 Sc418 2.105 . S
O437 C423 1.268 . S
O438 Sc420 2.105 . S
O438 C422 1.268 . S
O439 Sc419 2.105 . S
O439 C424 1.268 . S
Sc440 O443 2.025 . S
Sc440 O450 2.105 . S
Sc440 O453 2.105 . S
Sc440 O456 2.105 . S
Sc440 O459 2.105 . S
Sc441 O443 2.025 . S
Sc441 O451 2.105 . S
Sc441 O455 2.105 . S
Sc441 O457 2.105 . S
Sc441 O461 2.105 . S
Sc442 O443 2.025 . S
Sc442 O452 2.105 . S
Sc442 O454 2.105 . S
Sc442 O458 2.105 . S
Sc442 O460 2.105 . S
O443 Sc440 2.025 . S
O443 Sc441 2.025 . S
O443 Sc442 2.025 . S
C444 O450 1.268 . S
C444 O460 1.268 . S
C445 O451 1.268 . S
C445 O459 1.268 . S
C446 O452 1.268 . S
C446 O461 1.268 . S
C447 O453 1.268 . S
C447 O457 1.268 . S
C448 O454 1.268 . S
C448 O456 1.268 . S
C449 O455 1.268 . S
C449 O458 1.268 . S
O450 Sc440 2.105 . S
O450 C444 1.268 . S
O451 Sc441 2.105 . S
O451 C445 1.268 . S
O452 Sc442 2.105 . S
O452 C446 1.268 . S
O453 Sc440 2.105 . S
O453 C447 1.268 . S
O454 Sc442 2.105 . S
O454 C448 1.268 . S
O455 Sc441 2.105 . S
O455 C449 1.268 . S
O456 Sc440 2.105 . S
O456 C448 1.268 . S
O457 Sc441 2.105 . S
O457 C447 1.268 . S
O458 Sc442 2.105 . S
O458 C449 1.268 . S
O459 Sc440 2.105 . S
O459 C445 1.268 . S
O460 Sc442 2.105 . S
O460 C444 1.268 . S
O461 Sc441 2.105 . S
O461 C446 1.268 . S
Sc462 O465 2.025 . S
Sc462 O472 2.105 . S
Sc462 O475 2.105 1_556 S
Sc462 O478 2.105 . S
Sc462 O481 2.105 . S
Sc463 O465 2.025 . S
Sc463 O473 2.105 . S
Sc463 O477 2.105 . S
Sc463 O479 2.105 1_556 S
Sc463 O483 2.105 . S
Sc464 O465 2.025 . S
Sc464 O474 2.105 . S
Sc464 O476 2.105 . S
Sc464 O480 2.105 . S
Sc464 O482 2.105 . S
O465 Sc462 2.025 . S
O465 Sc463 2.025 . S
O465 Sc464 2.025 . S
C466 O472 1.268 . S
C466 O482 1.268 . S
C467 O473 1.268 . S
C467 O481 1.268 . S
C468 O474 1.268 . S
C468 O483 1.268 . S
C469 O475 1.268 . S
C469 O479 1.268 . S
C470 O476 1.268 . S
C470 O478 1.268 . S
C471 O477 1.268 . S
C471 O480 1.268 . S
O472 Sc462 2.105 . S
O472 C466 1.268 . S
O473 Sc463 2.105 . S
O473 C467 1.268 . S
O474 Sc464 2.105 . S
O474 C468 1.268 . S
O475 Sc462 2.105 1_554 S
O475 C469 1.268 . S
O476 Sc464 2.105 . S
O476 C470 1.268 . S
O477 Sc463 2.105 . S
O477 C471 1.268 . S
O478 Sc462 2.105 . S
O478 C470 1.268 . S
O479 Sc463 2.105 1_554 S
O479 C469 1.268 . S
O480 Sc464 2.105 . S
O480 C471 1.268 . S
O481 Sc462 2.105 . S
O481 C467 1.268 . S
O482 Sc464 2.105 . S
O482 C466 1.268 . S
O483 Sc463 2.105 . S
O483 C468 1.268 . S
Sc484 O487 2.025 . S
Sc484 O494 2.105 . S
Sc484 O497 2.105 1_556 S
Sc484 O500 2.105 . S
Sc484 O503 2.105 . S
Sc485 O487 2.025 . S
Sc485 O495 2.105 . S
Sc485 O499 2.105 . S
Sc485 O501 2.105 1_556 S
Sc485 O505 2.105 . S
Sc486 O487 2.025 . S
Sc486 O496 2.105 . S
Sc486 O498 2.105 . S
Sc486 O502 2.105 . S
Sc486 O504 2.105 . S
O487 Sc484 2.025 . S
O487 Sc485 2.025 . S
O487 Sc486 2.025 . S
C488 O494 1.268 . S
C488 O504 1.268 . S
C489 O495 1.268 . S
C489 O503 1.268 . S
C490 O496 1.268 . S
C490 O505 1.268 . S
C491 O497 1.268 . S
C491 O501 1.268 . S
C492 O498 1.268 . S
C492 O500 1.268 . S
C493 O499 1.268 . S
C493 O502 1.268 . S
O494 Sc484 2.105 . S
O494 C488 1.268 . S
O495 Sc485 2.105 . S
O495 C489 1.268 . S
O496 Sc486 2.105 . S
O496 C490 1.268 . S
O497 Sc484 2.105 1_554 S
O497 C491 1.268 . S
O498 Sc486 2.105 . S
O498 C492 1.268 . S
O499 Sc485 2.105 . S
O499 C493 1.268 . S
O500 Sc484 2.105 . S
O500 C492 1.268 . S
O501 Sc485 2.105 1_554 S
O501 C491 1.268 . S
O502 Sc486 2.105 . S
O502 C493 1.268 . S
O503 Sc484 2.105 . S
O503 C489 1.268 . S
O504 Sc486 2.105 . S
O504 C488 1.268 . S
O505 Sc485 2.105 . S
O505 C490 1.268 . S
Sc506 O509 2.025 . S
Sc506 O516 2.105 . S
Sc506 O519 2.105 1_556 S
Sc506 O522 2.105 . S
Sc506 O525 2.105 . S
Sc507 O509 2.025 . S
Sc507 O517 2.105 . S
Sc507 O521 2.105 . S
Sc507 O523 2.105 1_556 S
Sc507 O527 2.105 . S
Sc508 O509 2.025 . S
Sc508 O518 2.105 . S
Sc508 O520 2.105 . S
Sc508 O524 2.105 . S
Sc508 O526 2.105 . S
O509 Sc506 2.025 . S
O509 Sc507 2.025 . S
O509 Sc508 2.025 . S
C510 O516 1.268 . S
C510 O526 1.268 . S
C511 O517 1.268 . S
C511 O525 1.268 . S
C512 O518 1.268 . S
C512 O527 1.268 . S
C513 O519 1.268 . S
C513 O523 1.268 . S
C514 O520 1.268 . S
C514 O522 1.268 . S
C515 O521 1.268 . S
C515 O524 1.268 . S
O516 Sc506 2.105 . S
O516 C510 1.268 . S
O517 Sc507 2.105 . S
O517 C511 1.268 . S
O518 Sc508 2.105 . S
O518 C512 1.268 . S
O519 Sc506 2.105 1_554 S
O519 C513 1.268 . S
O520 Sc508 2.105 . S
O520 C514 1.268 . S
O521 Sc507 2.105 . S
O521 C515 1.268 . S
O522 Sc506 2.105 . S
O522 C514 1.268 . S
O523 Sc507 2.105 1_554 S
O523 C513 1.268 . S
O524 Sc508 2.105 . S
O524 C515 1.268 . S
O525 Sc506 2.105 . S
O525 C511 1.268 . S
O526 Sc508 2.105 . S
O526 C510 1.268 . S
O527 Sc507 2.105 . S
O527 C512 1.268 . S
Sc528 O531 2.025 . S
Sc528 O538 2.105 . S
Sc528 O541 2.105 . S
Sc528 O544 2.105 . S
Sc528 O547 2.105 . S
Sc529 O531 2.025 . S
Sc529 O539 2.105 . S
Sc529 O543 2.105 . S
Sc529 O545 2.105 . S
Sc529 O549 2.105 . S
Sc530 O531 2.025 . S
Sc530 O540 2.105 . S
Sc530 O542 2.105 . S
Sc530 O546 2.105 . S
Sc530 O548 2.105 . S
O531 Sc528 2.025 . S
O531 Sc529 2.025 . S
O531 Sc530 2.025 . S
C532 O538 1.268 . S
C532 O548 1.268 . S
C533 O539 1.268 . S
C533 O547 1.268 . S
C534 O540 1.268 . S
C534 O549 1.268 . S
C535 O541 1.268 . S
C535 O545 1.268 . S
C536 O542 1.268 . S
C536 O544 1.268 . S
C537 O543 1.268 . S
C537 O546 1.268 . S
O538 Sc528 2.105 . S
O538 C532 1.268 . S
O539 Sc529 2.105 . S
O539 C533 1.268 . S
O540 Sc530 2.105 . S
O540 C534 1.268 . S
O541 Sc528 2.105 . S
O541 C535 1.268 . S
O542 Sc530 2.105 . S
O542 C536 1.268 . S
O543 Sc529 2.105 . S
O543 C537 1.268 . S
O544 Sc528 2.105 . S
O544 C536 1.268 . S
O545 Sc529 2.105 . S
O545 C535 1.268 . S
O546 Sc530 2.105 . S
O546 C537 1.268 . S
O547 Sc528 2.105 . S
O547 C533 1.268 . S
O548 Sc530 2.105 . S
O548 C532 1.268 . S
O549 Sc529 2.105 . S
O549 C534 1.268 . S
Sc550 O553 2.025 . S
Sc550 O560 2.105 . S
Sc550 O563 2.105 . S
Sc550 O566 2.105 . S
Sc550 O569 2.105 . S
Sc551 O553 2.025 . S
Sc551 O561 2.105 . S
Sc551 O565 2.105 . S
Sc551 O567 2.105 . S
Sc551 O571 2.105 . S
Sc552 O553 2.025 . S
Sc552 O562 2.105 . S
Sc552 O564 2.105 . S
Sc552 O568 2.105 . S
Sc552 O570 2.105 . S
O553 Sc550 2.025 . S
O553 Sc551 2.025 . S
O553 Sc552 2.025 . S
C554 O560 1.268 . S
C554 O570 1.268 . S
C555 O561 1.268 . S
C555 O569 1.268 . S
C556 O562 1.268 . S
C556 O571 1.268 . S
C557 O563 1.268 . S
C557 O567 1.268 . S
C558 O564 1.268 . S
C558 O566 1.268 . S
C559 O565 1.268 . S
C559 O568 1.268 . S
O560 Sc550 2.105 . S
O560 C554 1.268 . S
O561 Sc551 2.105 . S
O561 C555 1.268 . S
O562 Sc552 2.105 . S
O562 C556 1.268 . S
O563 Sc550 2.105 . S
O563 C557 1.268 . S
O564 Sc552 2.105 . S
O564 C558 1.268 . S
O565 Sc551 2.105 . S
O565 C559 1.268 . S
O566 Sc550 2.105 . S
O566 C558 1.268 . S
O567 Sc551 2.105 . S
O567 C557 1.268 . S
O568 Sc552 2.105 . S
O568 C559 1.268 . S
O569 Sc550 2.105 . S
O569 C555 1.268 . S
O570 Sc552 2.105 . S
O570 C554 1.268 . S
O571 Sc551 2.105 . S
O571 C556 1.268 . S
Sc572 O575 2.025 . S
Sc572 O582 2.105 . S
Sc572 O585 2.105 . S
Sc572 O588 2.105 . S
Sc572 O591 2.105 . S
Sc573 O575 2.025 . S
Sc573 O583 2.105 . S
Sc573 O587 2.105 . S
Sc573 O589 2.105 . S
Sc573 O593 2.105 . S
Sc574 O575 2.025 . S
Sc574 O584 2.105 . S
Sc574 O586 2.105 . S
Sc574 O590 2.105 . S
Sc574 O592 2.105 . S
O575 Sc572 2.025 . S
O575 Sc573 2.025 . S
O575 Sc574 2.025 . S
C576 O582 1.268 . S
C576 O592 1.268 . S
C577 O583 1.268 . S
C577 O591 1.268 . S
C578 O584 1.268 . S
C578 O593 1.268 . S
C579 O585 1.268 . S
C579 O589 1.268 . S
C580 O586 1.268 . S
C580 O588 1.268 . S
C581 O587 1.268 . S
C581 O590 1.268 . S
O582 Sc572 2.105 . S
O582 C576 1.268 . S
O583 Sc573 2.105 . S
O583 C577 1.268 . S
O584 Sc574 2.105 . S
O584 C578 1.268 . S
O585 Sc572 2.105 . S
O585 C579 1.268 . S
O586 Sc574 2.105 . S
O586 C580 1.268 . S
O587 Sc573 2.105 . S
O587 C581 1.268 . S
O588 Sc572 2.105 . S
O588 C580 1.268 . S
O589 Sc573 2.105 . S
O589 C579 1.268 . S
O590 Sc574 2.105 . S
O590 C581 1.268 . S
O591 Sc572 2.105 . S
O591 C577 1.268 . S
O592 Sc574 2.105 . S
O592 C576 1.268 . S
O593 Sc573 2.105 . S
O593 C578 1.268 . S
Sc594 O597 2.025 . S
Sc594 O604 2.105 . S
Sc594 O607 2.105 . S
Sc594 O610 2.105 . S
Sc594 O613 2.105 . S
Sc595 O597 2.025 . S
Sc595 O605 2.105 . S
Sc595 O609 2.105 1_554 S
Sc595 O611 2.105 . S
Sc595 O615 2.105 . S
Sc596 O597 2.025 . S
Sc596 O606 2.105 . S
Sc596 O608 2.105 . S
Sc596 O612 2.105 1_554 S
Sc596 O614 2.105 . S
O597 Sc594 2.025 . S
O597 Sc595 2.025 . S
O597 Sc596 2.025 . S
C598 O604 1.268 . S
C598 O614 1.268 . S
C599 O605 1.268 . S
C599 O613 1.268 . S
C600 O606 1.268 . S
C600 O615 1.268 . S
C601 O607 1.268 . S
C601 O611 1.268 . S
C602 O608 1.268 . S
C602 O610 1.268 . S
C603 O609 1.268 . S
C603 O612 1.268 . S
O604 Sc594 2.105 . S
O604 C598 1.268 . S
O605 Sc595 2.105 . S
O605 C599 1.268 . S
O606 Sc596 2.105 . S
O606 C600 1.268 . S
O607 Sc594 2.105 . S
O607 C601 1.268 . S
O608 Sc596 2.105 . S
O608 C602 1.268 . S
O609 Sc595 2.105 1_556 S
O609 C603 1.268 . S
O610 Sc594 2.105 . S
O610 C602 1.268 . S
O611 Sc595 2.105 . S
O611 C601 1.268 . S
O612 Sc596 2.105 1_556 S
O612 C603 1.268 . S
O613 Sc594 2.105 . S
O613 C599 1.268 . S
O614 Sc596 2.105 . S
O614 C598 1.268 . S
O615 Sc595 2.105 . S
O615 C600 1.268 . S
Sc616 O619 2.025 . S
Sc616 O626 2.105 . S
Sc616 O629 2.105 . S
Sc616 O632 2.105 . S
Sc616 O635 2.105 . S
Sc617 O619 2.025 . S
Sc617 O627 2.105 . S
Sc617 O631 2.105 1_554 S
Sc617 O633 2.105 . S
Sc617 O637 2.105 . S
Sc618 O619 2.025 . S
Sc618 O628 2.105 . S
Sc618 O630 2.105 . S
Sc618 O634 2.105 1_554 S
Sc618 O636 2.105 . S
O619 Sc616 2.025 . S
O619 Sc617 2.025 . S
O619 Sc618 2.025 . S
C620 O626 1.268 . S
C620 O636 1.268 . S
C621 O627 1.268 . S
C621 O635 1.268 . S
C622 O628 1.268 . S
C622 O637 1.268 . S
C623 O629 1.268 . S
C623 O633 1.268 . S
C624 O630 1.268 . S
C624 O632 1.268 . S
C625 O631 1.268 . S
C625 O634 1.268 . S
O626 Sc616 2.105 . S
O626 C620 1.268 . S
O627 Sc617 2.105 . S
O627 C621 1.268 . S
O628 Sc618 2.105 . S
O628 C622 1.268 . S
O629 Sc616 2.105 . S
O629 C623 1.268 . S
O630 Sc618 2.105 . S
O630 C624 1.268 . S
O631 Sc617 2.105 1_556 S
O631 C625 1.268 . S
O632 Sc616 2.105 . S
O632 C624 1.268 . S
O633 Sc617 2.105 . S
O633 C623 1.268 . S
O634 Sc618 2.105 1_556 S
O634 C625 1.268 . S
O635 Sc616 2.105 . S
O635 C621 1.268 . S
O636 Sc618 2.105 . S
O636 C620 1.268 . S
O637 Sc617 2.105 . S
O637 C622 1.268 . S
Sc638 O641 2.025 . S
Sc638 O648 2.105 . S
Sc638 O651 2.105 . S
Sc638 O654 2.105 . S
Sc638 O657 2.105 . S
Sc639 O641 2.025 . S
Sc639 O649 2.105 . S
Sc639 O653 2.105 1_554 S
Sc639 O655 2.105 . S
Sc639 O659 2.105 . S
Sc640 O641 2.025 . S
Sc640 O650 2.105 . S
Sc640 O652 2.105 . S
Sc640 O656 2.105 1_554 S
Sc640 O658 2.105 . S
O641 Sc638 2.025 . S
O641 Sc639 2.025 . S
O641 Sc640 2.025 . S
C642 O648 1.268 . S
C642 O658 1.268 . S
C643 O649 1.268 . S
C643 O657 1.268 . S
C644 O650 1.268 . S
C644 O659 1.268 . S
C645 O651 1.268 . S
C645 O655 1.268 . S
C646 O652 1.268 . S
C646 O654 1.268 . S
C647 O653 1.268 . S
C647 O656 1.268 . S
O648 Sc638 2.105 . S
O648 C642 1.268 . S
O649 Sc639 2.105 . S
O649 C643 1.268 . S
O650 Sc640 2.105 . S
O650 C644 1.268 . S
O651 Sc638 2.105 . S
O651 C645 1.268 . S
O652 Sc640 2.105 . S
O652 C646 1.268 . S
O653 Sc639 2.105 1_556 S
O653 C647 1.268 . S
O654 Sc638 2.105 . S
O654 C646 1.268 . S
O655 Sc639 2.105 . S
O655 C645 1.268 . S
O656 Sc640 2.105 1_556 S
O656 C647 1.268 . S
O657 Sc638 2.105 . S
O657 C643 1.268 . S
O658 Sc640 2.105 . S
O658 C642 1.268 . S
O659 Sc639 2.105 . S
O659 C644 1.268 . S
Sc660 O663 2.025 . S
Sc660 O670 2.105 . S
Sc660 O673 2.105 . S
Sc660 O676 2.105 . S
Sc660 O679 2.105 . S
Sc661 O663 2.025 . S
Sc661 O671 2.105 . S
Sc661 O675 2.105 . S
Sc661 O677 2.105 . S
Sc661 O681 2.105 . S
Sc662 O663 2.025 . S
Sc662 O672 2.105 . S
Sc662 O674 2.105 . S
Sc662 O678 2.105 . S
Sc662 O680 2.105 . S
O663 Sc660 2.025 . S
O663 Sc661 2.025 . S
O663 Sc662 2.025 . S
C664 O670 1.268 . S
C664 O680 1.268 . S
C665 O671 1.268 . S
C665 O679 1.268 . S
C666 O672 1.268 . S
C666 O681 1.268 . S
C667 O673 1.268 . S
C667 O677 1.268 . S
C668 O674 1.268 . S
C668 O676 1.268 . S
C669 O675 1.268 . S
C669 O678 1.268 . S
O670 Sc660 2.105 . S
O670 C664 1.268 . S
O671 Sc661 2.105 . S
O671 C665 1.268 . S
O672 Sc662 2.105 . S
O672 C666 1.268 . S
O673 Sc660 2.105 . S
O673 C667 1.268 . S
O674 Sc662 2.105 . S
O674 C668 1.268 . S
O675 Sc661 2.105 . S
O675 C669 1.268 . S
O676 Sc660 2.105 . S
O676 C668 1.268 . S
O677 Sc661 2.105 . S
O677 C667 1.268 . S
O678 Sc662 2.105 . S
O678 C669 1.268 . S
O679 Sc660 2.105 . S
O679 C665 1.268 . S
O680 Sc662 2.105 . S
O680 C664 1.268 . S
O681 Sc661 2.105 . S
O681 C666 1.268 . S
Sc682 O685 2.025 . S
Sc682 O692 2.105 . S
Sc682 O695 2.105 . S
Sc682 O698 2.105 . S
Sc682 O701 2.105 . S
Sc683 O685 2.025 . S
Sc683 O693 2.105 . S
Sc683 O697 2.105 . S
Sc683 O699 2.105 . S
Sc683 O703 2.105 . S
Sc684 O685 2.025 . S
Sc684 O694 2.105 . S
Sc684 O696 2.105 . S
Sc684 O700 2.105 . S
Sc684 O702 2.105 . S
O685 Sc682 2.025 . S
O685 Sc683 2.025 . S
O685 Sc684 2.025 . S
C686 O692 1.268 . S
C686 O702 1.268 . S
C687 O693 1.268 . S
C687 O701 1.268 . S
C688 O694 1.268 . S
C688 O703 1.268 . S
C689 O695 1.268 . S
C689 O699 1.268 . S
C690 O696 1.268 . S
C690 O698 1.268 . S
C691 O697 1.268 . S
C691 O700 1.268 . S
O692 Sc682 2.105 . S
O692 C686 1.268 . S
O693 Sc683 2.105 . S
O693 C687 1.268 . S
O694 Sc684 2.105 . S
O694 C688 1.268 . S
O695 Sc682 2.105 . S
O695 C689 1.268 . S
O696 Sc684 2.105 . S
O696 C690 1.268 . S
O697 Sc683 2.105 . S
O697 C691 1.268 . S
O698 Sc682 2.105 . S
O698 C690 1.268 . S
O699 Sc683 2.105 . S
O699 C689 1.268 . S
O700 Sc684 2.105 . S
O700 C691 1.268 . S
O701 Sc682 2.105 . S
O701 C687 1.268 . S
O702 Sc684 2.105 . S
O702 C686 1.268 . S
O703 Sc683 2.105 . S
O703 C688 1.268 . S
Sc704 O707 2.025 . S
Sc704 O714 2.105 . S
Sc704 O717 2.105 . S
Sc704 O720 2.105 . S
Sc704 O723 2.105 . S
Sc705 O707 2.025 . S
Sc705 O715 2.105 . S
Sc705 O719 2.105 . S
Sc705 O721 2.105 . S
Sc705 O725 2.105 . S
Sc706 O707 2.025 . S
Sc706 O716 2.105 . S
Sc706 O718 2.105 . S
Sc706 O722 2.105 . S
Sc706 O724 2.105 . S
O707 Sc704 2.025 . S
O707 Sc705 2.025 . S
O707 Sc706 2.025 . S
C708 O714 1.268 . S
C708 O724 1.268 . S
C709 O715 1.268 . S
C709 O723 1.268 . S
C710 O716 1.268 . S
C710 O725 1.268 . S
C711 O717 1.268 . S
C711 O721 1.268 . S
C712 O718 1.268 . S
C712 O720 1.268 . S
C713 O719 1.268 . S
C713 O722 1.268 . S
O714 Sc704 2.105 . S
O714 C708 1.268 . S
O715 Sc705 2.105 . S
O715 C709 1.268 . S
O716 Sc706 2.105 . S
O716 C710 1.268 . S
O717 Sc704 2.105 . S
O717 C711 1.268 . S
O718 Sc706 2.105 . S
O718 C712 1.268 . S
O719 Sc705 2.105 . S
O719 C713 1.268 . S
O720 Sc704 2.105 . S
O720 C712 1.268 . S
O721 Sc705 2.105 . S
O721 C711 1.268 . S
O722 Sc706 2.105 . S
O722 C713 1.268 . S
O723 Sc704 2.105 . S
O723 C709 1.268 . S
O724 Sc706 2.105 . S
O724 C708 1.268 . S
O725 Sc705 2.105 . S
O725 C710 1.268 . S
Sc726 O729 2.025 . S
Sc726 O736 2.105 . S
Sc726 O739 2.105 . S
Sc726 O742 2.105 . S
Sc726 O745 2.105 . S
Sc727 O729 2.025 . S
Sc727 O737 2.105 . S
Sc727 O741 2.105 . S
Sc727 O743 2.105 . S
Sc727 O747 2.105 . S
Sc728 O729 2.025 . S
Sc728 O738 2.105 . S
Sc728 O740 2.105 . S
Sc728 O744 2.105 . S
Sc728 O746 2.105 . S
O729 Sc726 2.025 . S
O729 Sc727 2.025 . S
O729 Sc728 2.025 . S
C730 O736 1.268 . S
C730 O746 1.268 . S
C731 O737 1.268 . S
C731 O745 1.268 . S
C732 O738 1.268 . S
C732 O747 1.268 . S
C733 O739 1.268 . S
C733 O743 1.268 . S
C734 O740 1.268 . S
C734 O742 1.268 . S
C735 O741 1.268 . S
C735 O744 1.268 . S
O736 Sc726 2.105 . S
O736 C730 1.268 . S
O737 Sc727 2.105 . S
O737 C731 1.268 . S
O738 Sc728 2.105 . S
O738 C732 1.268 . S
O739 Sc726 2.105 . S
O739 C733 1.268 . S
O740 Sc728 2.105 . S
O740 C734 1.268 . S
O741 Sc727 2.105 . S
O741 C735 1.268 . S
O742 Sc726 2.105 . S
O742 C734 1.268 . S
O743 Sc727 2.105 . S
O743 C733 1.268 . S
O744 Sc728 2.105 . S
O744 C735 1.268 . S
O745 Sc726 2.105 . S
O745 C731 1.268 . S
O746 Sc728 2.105 . S
O746 C730 1.268 . S
O747 Sc727 2.105 . S
O747 C732 1.268 . S
Sc748 O751 2.025 . S
Sc748 O758 2.105 . S
Sc748 O761 2.105 . S
Sc748 O764 2.105 . S
Sc748 O767 2.105 . S
Sc749 O751 2.025 . S
Sc749 O759 2.105 . S
Sc749 O763 2.105 . S
Sc749 O765 2.105 . S
Sc749 O769 2.105 . S
Sc750 O751 2.025 . S
Sc750 O760 2.105 . S
Sc750 O762 2.105 . S
Sc750 O766 2.105 . S
Sc750 O768 2.105 . S
O751 Sc748 2.025 . S
O751 Sc749 2.025 . S
O751 Sc750 2.025 . S
C752 O758 1.268 . S
C752 O768 1.268 . S
C753 O759 1.268 . S
C753 O767 1.268 . S
C754 O760 1.268 . S
C754 O769 1.268 . S
C755 O761 1.268 . S
C755 O765 1.268 . S
C756 O762 1.268 . S
C756 O764 1.268 . S
C757 O763 1.268 . S
C757 O766 1.268 . S
O758 Sc748 2.105 . S
O758 C752 1.268 . S
O759 Sc749 2.105 . S
O759 C753 1.268 . S
O760 Sc750 2.105 . S
O760 C754 1.268 . S
O761 Sc748 2.105 . S
O761 C755 1.268 . S
O762 Sc750 2.105 . S
O762 C756 1.268 . S
O763 Sc749 2.105 . S
O763 C757 1.268 . S
O764 Sc748 2.105 . S
O764 C756 1.268 . S
O765 Sc749 2.105 . S
O765 C755 1.268 . S
O766 Sc750 2.105 . S
O766 C757 1.268 . S
O767 Sc748 2.105 . S
O767 C753 1.268 . S
O768 Sc750 2.105 . S
O768 C752 1.268 . S
O769 Sc749 2.105 . S
O769 C754 1.268 . S
Sc770 O773 2.025 . S
Sc770 O780 2.105 . S
Sc770 O783 2.105 . S
Sc770 O786 2.105 . S
Sc770 O789 2.105 . S
Sc771 O773 2.025 . S
Sc771 O781 2.105 . S
Sc771 O785 2.105 . S
Sc771 O787 2.105 . S
Sc771 O791 2.105 . S
Sc772 O773 2.025 . S
Sc772 O782 2.105 . S
Sc772 O784 2.105 . S
Sc772 O788 2.105 . S
Sc772 O790 2.105 . S
O773 Sc770 2.025 . S
O773 Sc771 2.025 . S
O773 Sc772 2.025 . S
C774 O780 1.268 . S
C774 O790 1.268 . S
C775 O781 1.268 . S
C775 O789 1.268 . S
C776 O782 1.268 . S
C776 O791 1.268 . S
C777 O783 1.268 . S
C777 O787 1.268 . S
C778 O784 1.268 . S
C778 O786 1.268 . S
C779 O785 1.268 . S
C779 O788 1.268 . S
O780 Sc770 2.105 . S
O780 C774 1.268 . S
O781 Sc771 2.105 . S
O781 C775 1.268 . S
O782 Sc772 2.105 . S
O782 C776 1.268 . S
O783 Sc770 2.105 . S
O783 C777 1.268 . S
O784 Sc772 2.105 . S
O784 C778 1.268 . S
O785 Sc771 2.105 . S
O785 C779 1.268 . S
O786 Sc770 2.105 . S
O786 C778 1.268 . S
O787 Sc771 2.105 . S
O787 C777 1.268 . S
O788 Sc772 2.105 . S
O788 C779 1.268 . S
O789 Sc770 2.105 . S
O789 C775 1.268 . S
O790 Sc772 2.105 . S
O790 C774 1.268 . S
O791 Sc771 2.105 . S
O791 C776 1.268 . S
C792 C793 1.387 . S
C792 H796 0.950 . S
C792 C801 1.390 1_554 S
C793 C792 1.387 . S
C793 C795 1.387 . S
H794 C801 0.950 . S
C795 C793 1.387 . S
C795 C797 1.390 1_554 S
C795 H799 0.950 . S
H796 C792 0.950 . S
C797 C795 1.390 1_556 S
C797 C798 1.387 . S
C797 H800 0.950 . S
C798 C797 1.387 . S
C798 C801 1.387 . S
H799 C795 0.950 . S
H800 C797 0.950 . S
C801 C792 1.390 1_556 S
C801 H794 0.950 . S
C801 C798 1.387 . S
C802 C803 1.387 . S
C802 H806 0.950 . S
C802 C811 1.390 1_554 S
C803 C802 1.387 . S
C803 C805 1.387 . S
H804 C811 0.950 . S
C805 C803 1.387 . S
C805 C807 1.390 1_554 S
C805 H809 0.950 . S
H806 C802 0.950 . S
C807 C805 1.390 1_556 S
C807 C808 1.387 . S
C807 H810 0.950 . S
C808 C807 1.387 . S
C808 C811 1.387 . S
H809 C805 0.950 . S
H810 C807 0.950 . S
C811 C802 1.390 1_556 S
C811 H804 0.950 . S
C811 C808 1.387 . S
C812 C813 1.387 . S
C812 H816 0.950 . S
C812 C821 1.390 . S
C813 C812 1.387 . S
C813 C815 1.419 . S
H814 C821 0.950 . S
C815 C813 1.419 . S
C815 C817 1.360 1_554 S
C815 H819 0.949 . S
H816 C812 0.950 . S
C817 C815 1.360 1_556 S
C817 C818 1.387 . S
C817 H820 0.950 . S
C818 C817 1.387 . S
C818 C821 1.387 1_556 S
H819 C815 0.949 . S
H820 C817 0.950 . S
C821 C812 1.390 . S
C821 H814 0.950 . S
C821 C818 1.387 1_554 S
C822 C823 1.387 . S
C822 H826 0.950 . S
C822 C831 1.390 . S
C823 C822 1.387 . S
C823 C825 1.387 . S
H824 C831 0.950 . S
C825 C823 1.387 . S
C825 C827 1.390 . S
C825 H829 0.950 . S
H826 C822 0.950 . S
C827 C825 1.390 . S
C827 C828 1.387 . S
C827 H830 0.950 . S
C828 C827 1.387 . S
C828 C831 1.387 . S
H829 C825 0.950 . S
H830 C827 0.950 . S
C831 C822 1.390 . S
C831 H824 0.950 . S
C831 C828 1.387 . S
C832 C833 1.387 . S
C832 H836 0.950 . S
C832 C841 1.390 . S
C833 C832 1.387 . S
C833 C835 1.387 . S
H834 C841 0.950 . S
C835 C833 1.387 . S
C835 C837 1.390 . S
C835 H839 0.950 . S
H836 C832 0.950 . S
C837 C835 1.390 . S
C837 C838 1.387 . S
C837 H840 0.950 . S
C838 C837 1.387 . S
C838 C841 1.387 . S
H839 C835 0.950 . S
H840 C837 0.950 . S
C841 C832 1.390 . S
C841 H834 0.950 . S
C841 C838 1.387 . S
C842 C843 1.387 . S
C842 H846 0.950 . S
C842 C851 1.390 . S
C843 C842 1.387 . S
C843 C845 1.387 . S
H844 C851 0.950 . S
C845 C843 1.387 . S
C845 C847 1.390 . S
C845 H849 0.950 . S
H846 C842 0.950 . S
C847 C845 1.390 . S
C847 C848 1.387 . S
C847 H850 0.950 . S
C848 C847 1.387 . S
C848 C851 1.387 . S
H849 C845 0.950 . S
H850 C847 0.950 . S
C851 C842 1.390 . S
C851 H844 0.950 . S
C851 C848 1.387 . S
C852 C853 1.387 . S
C852 H856 0.950 . S
C852 C861 1.390 1_554 S
C853 C852 1.387 . S
C853 C855 1.387 . S
H854 C861 0.950 . S
C855 C853 1.387 . S
C855 C857 1.390 1_554 S
C855 H859 0.950 . S
H856 C852 0.950 . S
C857 C855 1.390 1_556 S
C857 C858 1.387 . S
C857 H860 0.950 . S
C858 C857 1.387 . S
C858 C861 1.387 . S
H859 C855 0.950 . S
H860 C857 0.950 . S
C861 C852 1.390 1_556 S
C861 H854 0.950 . S
C861 C858 1.387 . S
C862 C863 1.387 . S
C862 H866 0.950 . S
C862 C871 1.390 1_556 S
C863 C862 1.387 . S
C863 C865 1.387 . S
H864 C871 0.950 . S
C865 C863 1.387 . S
C865 C867 1.389 1_556 S
C865 H869 0.950 . S
H866 C862 0.950 . S
C867 C865 1.389 1_554 S
C867 C868 1.388 . S
C867 H870 0.950 . S
C868 C867 1.388 . S
C868 C871 1.387 . S
H869 C865 0.950 . S
H870 C867 0.950 . S
C871 C862 1.390 1_554 S
C871 H864 0.950 . S
C871 C868 1.387 . S
C872 C873 1.387 . S
C872 H876 0.950 . S
C872 C881 1.390 . S
C873 C872 1.387 . S
C873 C875 1.391 . S
H874 C881 0.950 . S
C875 C873 1.391 . S
C875 C877 1.386 1_556 S
C875 H879 0.948 1_556 S
H876 C872 0.950 . S
C877 C875 1.386 1_554 S
C877 C878 1.387 . S
C877 H880 0.950 . S
C878 C877 1.387 . S
C878 C881 1.387 1_554 S
H879 C875 0.948 1_554 S
H880 C877 0.950 . S
C881 C872 1.390 . S
C881 H874 0.950 . S
C881 C878 1.387 1_556 S
C882 C883 1.387 . S
C882 H886 0.950 . S
C882 C891 1.390 . S
C883 C882 1.387 . S
C883 C885 1.387 . S
H884 C891 0.950 . S
C885 C883 1.387 . S
C885 C887 1.390 . S
C885 H889 0.950 . S
H886 C882 0.950 . S
C887 C885 1.390 . S
C887 C888 1.387 . S
C887 H890 0.950 . S
C888 C887 1.387 . S
C888 C891 1.387 . S
H889 C885 0.950 . S
H890 C887 0.950 . S
C891 C882 1.390 . S
C891 H884 0.950 . S
C891 C888 1.387 . S
C892 C893 1.387 . S
C892 H896 0.950 . S
C892 C901 1.390 . S
C893 C892 1.387 . S
C893 C895 1.387 . S
H894 C901 0.950 . S
C895 C893 1.387 . S
C895 C897 1.390 . S
C895 H899 0.950 . S
H896 C892 0.950 . S
C897 C895 1.390 . S
C897 C898 1.387 . S
C897 H900 0.950 . S
C898 C897 1.387 . S
C898 C901 1.387 . S
H899 C895 0.950 . S
H900 C897 0.950 . S
C901 C892 1.390 . S
C901 H894 0.950 . S
C901 C898 1.387 . S
C902 C903 1.387 . S
C902 H906 0.950 . S
C902 C911 1.390 . S
C903 C902 1.387 . S
C903 C905 1.387 . S
H904 C911 0.950 . S
C905 C903 1.387 . S
C905 C907 1.390 . S
C905 H909 0.950 . S
H906 C902 0.950 . S
C907 C905 1.390 . S
C907 C908 1.387 . S
C907 H910 0.950 . S
C908 C907 1.387 . S
C908 C911 1.387 . S
H909 C905 0.950 . S
H910 C907 0.950 . S
C911 C902 1.390 . S
C911 H904 0.950 . S
C911 C908 1.387 . S
C912 C913 1.387 . S
C912 H916 0.950 . S
C912 C921 1.390 . S
C913 C912 1.387 . S
C913 C915 1.387 . S
H914 C921 0.950 . S
C915 C913 1.387 . S
C915 C917 1.390 . S
C915 H919 0.950 . S
H916 C912 0.950 . S
C917 C915 1.390 . S
C917 C918 1.387 . S
C917 H920 0.950 . S
C918 C917 1.387 . S
C918 C921 1.387 . S
H919 C915 0.950 . S
H920 C917 0.950 . S
C921 C912 1.390 . S
C921 H914 0.950 . S
C921 C918 1.387 . S
C922 C923 1.387 . S
C922 H926 0.950 . S
C922 C931 1.390 . S
C923 C922 1.387 . S
C923 C925 1.387 . S
H924 C931 0.950 . S
C925 C923 1.387 . S
C925 C927 1.390 . S
C925 H929 0.950 . S
H926 C922 0.950 . S
C927 C925 1.390 . S
C927 C928 1.387 . S
C927 H930 0.950 . S
C928 C927 1.387 . S
C928 C931 1.387 . S
H929 C925 0.950 . S
H930 C927 0.950 . S
C931 C922 1.390 . S
C931 H924 0.950 . S
C931 C928 1.387 . S
C932 C933 1.387 . S
C932 H936 0.950 . S
C932 C941 1.390 . S
C933 C932 1.387 . S
C933 C935 1.387 . S
H934 C941 0.950 . S
C935 C933 1.387 . S
C935 C937 1.390 . S
C935 H939 0.950 . S
H936 C932 0.950 . S
C937 C935 1.390 . S
C937 C938 1.387 . S
C937 H940 0.950 . S
C938 C937 1.387 . S
C938 C941 1.387 . S
H939 C935 0.950 . S
H940 C937 0.950 . S
C941 C932 1.390 . S
C941 H934 0.950 . S
C941 C938 1.387 . S
C942 C943 1.387 . S
C942 H946 0.950 . S
C942 C951 1.390 . S
C943 C942 1.387 . S
C943 C945 1.387 . S
H944 C951 0.950 . S
C945 C943 1.387 . S
C945 C947 1.390 . S
C945 H949 0.950 . S
H946 C942 0.950 . S
C947 C945 1.390 . S
C947 C948 1.387 . S
C947 H950 0.950 . S
C948 C947 1.387 . S
C948 C951 1.387 . S
H949 C945 0.950 . S
H950 C947 0.950 . S
C951 C942 1.390 . S
C951 H944 0.950 . S
C951 C948 1.387 . S
C952 C953 1.387 . S
C952 H956 0.950 . S
C952 C961 1.390 . S
C953 C952 1.387 . S
C953 C955 1.387 . S
H954 C961 0.950 . S
C955 C953 1.387 . S
C955 C957 1.390 . S
C955 H959 0.950 . S
H956 C952 0.950 . S
C957 C955 1.390 . S
C957 C958 1.387 . S
C957 H960 0.950 . S
C958 C957 1.387 . S
C958 C961 1.387 . S
H959 C955 0.950 . S
H960 C957 0.950 . S
C961 C952 1.390 . S
C961 H954 0.950 . S
C961 C958 1.387 . S
C962 C963 1.387 . S
C962 H966 0.950 . S
C962 C971 1.390 . S
C963 C962 1.387 . S
C963 C965 1.387 . S
H964 C971 0.950 . S
C965 C963 1.387 . S
C965 C967 1.390 . S
C965 H969 0.950 . S
H966 C962 0.950 . S
C967 C965 1.390 . S
C967 C968 1.387 . S
C967 H970 0.950 . S
C968 C967 1.387 . S
C968 C971 1.387 . S
H969 C965 0.950 . S
H970 C967 0.950 . S
C971 C962 1.390 . S
C971 H964 0.950 . S
C971 C968 1.387 . S
C972 C973 1.387 . S
C972 H976 0.950 . S
C972 C981 1.390 . S
C973 C972 1.387 . S
C973 C975 1.387 . S
H974 C981 0.950 . S
C975 C973 1.387 . S
C975 C977 1.390 . S
C975 H979 0.950 . S
H976 C972 0.950 . S
C977 C975 1.390 . S
C977 C978 1.387 . S
C977 H980 0.950 . S
C978 C977 1.387 . S
C978 C981 1.387 . S
H979 C975 0.950 . S
H980 C977 0.950 . S
C981 C972 1.390 . S
C981 H974 0.950 . S
C981 C978 1.387 . S
C982 C983 1.387 . S
C982 H986 0.950 . S
C982 C991 1.390 . S
C983 C982 1.387 . S
C983 C985 1.387 . S
H984 C991 0.950 . S
C985 C983 1.387 . S
C985 C987 1.390 . S
C985 H989 0.950 . S
H986 C982 0.950 . S
C987 C985 1.390 . S
C987 C988 1.387 . S
C987 H990 0.950 . S
C988 C987 1.387 . S
C988 C991 1.387 . S
H989 C985 0.950 . S
H990 C987 0.950 . S
C991 C982 1.390 . S
C991 H984 0.950 . S
C991 C988 1.387 . S
C992 C993 1.387 . S
C992 H996 0.950 . S
C992 C1001 1.390 . S
C993 C992 1.387 . S
C993 C995 1.387 . S
H994 C1001 0.950 . S
C995 C993 1.387 . S
C995 C997 1.390 . S
C995 H999 0.950 . S
H996 C992 0.950 . S
C997 C995 1.390 . S
C997 C998 1.387 . S
C997 H1000 0.950 . S
C998 C997 1.387 . S
C998 C1001 1.387 . S
H999 C995 0.950 . S
H1000 C997 0.950 . S
C1001 C992 1.390 . S
C1001 H994 0.950 . S
C1001 C998 1.387 . S
C1002 C1003 1.387 . S
C1002 H1006 0.950 . S
C1002 C1011 1.390 . S
C1003 C1002 1.387 . S
C1003 C1005 1.387 . S
H1004 C1011 0.950 . S
C1005 C1003 1.387 . S
C1005 C1007 1.390 . S
C1005 H1009 0.950 . S
H1006 C1002 0.950 . S
C1007 C1005 1.390 . S
C1007 C1008 1.387 . S
C1007 H1010 0.950 . S
C1008 C1007 1.387 . S
C1008 C1011 1.387 . S
H1009 C1005 0.950 . S
H1010 C1007 0.950 . S
C1011 C1002 1.390 . S
C1011 H1004 0.950 . S
C1011 C1008 1.387 . S
C1012 C1013 1.387 . S
C1012 H1016 0.950 . S
C1012 C1021 1.390 . S
C1013 C1012 1.387 . S
C1013 C1015 1.387 . S
H1014 C1021 0.950 . S
C1015 C1013 1.387 . S
C1015 C1017 1.390 . S
C1015 H1019 0.950 . S
H1016 C1012 0.950 . S
C1017 C1015 1.390 . S
C1017 C1018 1.387 . S
C1017 H1020 0.950 . S
C1018 C1017 1.387 . S
C1018 C1021 1.387 . S
H1019 C1015 0.950 . S
H1020 C1017 0.950 . S
C1021 C1012 1.390 . S
C1021 H1014 0.950 . S
C1021 C1018 1.387 . S
C1022 C1023 1.387 . S
C1022 H1026 0.950 . S
C1022 C1031 1.390 . S
C1023 C1022 1.387 . S
C1023 C1025 1.387 . S
H1024 C1031 0.950 . S
C1025 C1023 1.387 . S
C1025 C1027 1.390 . S
C1025 H1029 0.950 . S
H1026 C1022 0.950 . S
C1027 C1025 1.390 . S
C1027 C1028 1.387 . S
C1027 H1030 0.950 . S
C1028 C1027 1.387 . S
C1028 C1031 1.387 . S
H1029 C1025 0.950 . S
H1030 C1027 0.950 . S
C1031 C1022 1.390 . S
C1031 H1024 0.950 . S
C1031 C1028 1.387 . S
C1032 C1033 1.387 . S
C1032 H1036 0.950 . S
C1032 C1041 1.390 . S
C1033 C1032 1.387 . S
C1033 C1035 1.387 . S
H1034 C1041 0.950 . S
C1035 C1033 1.387 . S
C1035 C1037 1.390 . S
C1035 H1039 0.950 . S
H1036 C1032 0.950 . S
C1037 C1035 1.390 . S
C1037 C1038 1.387 . S
C1037 H1040 0.950 . S
C1038 C1037 1.387 . S
C1038 C1041 1.387 . S
H1039 C1035 0.950 . S
H1040 C1037 0.950 . S
C1041 C1032 1.390 . S
C1041 H1034 0.950 . S
C1041 C1038 1.387 . S
C1042 C1043 1.387 . S
C1042 H1046 0.950 . S
C1042 C1051 1.390 . S
C1043 C1042 1.387 . S
C1043 C1045 1.387 . S
H1044 C1051 0.950 . S
C1045 C1043 1.387 . S
C1045 C1047 1.390 . S
C1045 H1049 0.950 . S
H1046 C1042 0.950 . S
C1047 C1045 1.390 . S
C1047 C1048 1.387 . S
C1047 H1050 0.950 . S
C1048 C1047 1.387 . S
C1048 C1051 1.387 . S
H1049 C1045 0.950 . S
H1050 C1047 0.950 . S
C1051 C1042 1.390 . S
C1051 H1044 0.950 . S
C1051 C1048 1.387 . S
C1052 C1053 1.387 . S
C1052 H1056 0.950 . S
C1052 C1061 1.390 . S
C1053 C1052 1.387 . S
C1053 C1055 1.387 . S
H1054 C1061 0.950 . S
C1055 C1053 1.387 . S
C1055 C1057 1.390 . S
C1055 H1059 0.950 . S
H1056 C1052 0.950 . S
C1057 C1055 1.390 . S
C1057 C1058 1.387 . S
C1057 H1060 0.950 . S
C1058 C1057 1.387 . S
C1058 C1061 1.387 . S
H1059 C1055 0.950 . S
H1060 C1057 0.950 . S
C1061 C1052 1.390 . S
C1061 H1054 0.950 . S
C1061 C1058 1.387 . S
C1062 C1063 1.387 . S
C1062 H1066 0.950 . S
C1062 C1071 1.390 . S
C1063 C1062 1.387 . S
C1063 C1065 1.387 . S
H1064 C1071 0.950 . S
C1065 C1063 1.387 . S
C1065 C1067 1.390 . S
C1065 H1069 0.950 . S
H1066 C1062 0.950 . S
C1067 C1065 1.390 . S
C1067 C1068 1.387 . S
C1067 H1070 0.950 . S
C1068 C1067 1.387 . S
C1068 C1071 1.387 . S
H1069 C1065 0.950 . S
H1070 C1067 0.950 . S
C1071 C1062 1.390 . S
C1071 H1064 0.950 . S
C1071 C1068 1.387 . S
C1072 C1073 1.387 . S
C1072 H1076 0.950 . S
C1072 C1081 1.390 . S
C1073 C1072 1.387 . S
C1073 C1075 1.387 . S
H1074 C1081 0.950 . S
C1075 C1073 1.387 . S
C1075 C1077 1.390 . S
C1075 H1079 0.950 . S
H1076 C1072 0.950 . S
C1077 C1075 1.390 . S
C1077 C1078 1.387 . S
C1077 H1080 0.950 . S
C1078 C1077 1.387 . S
C1078 C1081 1.387 . S
H1079 C1075 0.950 . S
H1080 C1077 0.950 . S
C1081 C1072 1.390 . S
C1081 H1074 0.950 . S
C1081 C1078 1.387 . S
C1082 C1083 1.387 . S
C1082 H1086 0.950 . S
C1082 C1091 1.390 . S
C1083 C1082 1.387 . S
C1083 C1085 1.387 . S
H1084 C1091 0.950 . S
C1085 C1083 1.387 . S
C1085 C1087 1.390 . S
C1085 H1089 0.950 . S
H1086 C1082 0.950 . S
C1087 C1085 1.390 . S
C1087 C1088 1.387 . S
C1087 H1090 0.950 . S
C1088 C1087 1.387 . S
C1088 C1091 1.387 . S
H1089 C1085 0.950 . S
H1090 C1087 0.950 . S
C1091 C1082 1.390 . S
C1091 H1084 0.950 . S
C1091 C1088 1.387 . S
C1092 C1093 1.387 . S
C1092 H1096 0.950 . S
C1092 C1101 1.390 . S
C1093 C1092 1.387 . S
C1093 C1095 1.387 . S
H1094 C1101 0.950 . S
C1095 C1093 1.387 . S
C1095 C1097 1.390 . S
C1095 H1099 0.950 . S
H1096 C1092 0.950 . S
C1097 C1095 1.390 . S
C1097 C1098 1.387 . S
C1097 H1100 0.950 . S
C1098 C1097 1.387 . S
C1098 C1101 1.387 . S
H1099 C1095 0.950 . S
H1100 C1097 0.950 . S
C1101 C1092 1.390 . S
C1101 H1094 0.950 . S
C1101 C1098 1.387 . S
C1102 C1103 1.387 . S
C1102 H1106 0.950 . S
C1102 C1111 1.390 . S
C1103 C1102 1.387 . S
C1103 C1105 1.387 . S
H1104 C1111 0.950 . S
C1105 C1103 1.387 . S
C1105 C1107 1.390 . S
C1105 H1109 0.950 . S
H1106 C1102 0.950 . S
C1107 C1105 1.390 . S
C1107 C1108 1.387 . S
C1107 H1110 0.950 . S
C1108 C1107 1.387 . S
C1108 C1111 1.387 . S
H1109 C1105 0.950 . S
H1110 C1107 0.950 . S
C1111 C1102 1.390 . S
C1111 H1104 0.950 . S
C1111 C1108 1.387 . S
C1112 C1113 1.387 . S
C1112 H1116 0.950 . S
C1112 C1121 1.390 . S
C1113 C1112 1.387 . S
C1113 C1115 1.387 . S
H1114 C1121 0.950 . S
C1115 C1113 1.387 . S
C1115 C1117 1.390 . S
C1115 H1119 0.950 . S
H1116 C1112 0.950 . S
C1117 C1115 1.390 . S
C1117 C1118 1.387 . S
C1117 H1120 0.950 . S
C1118 C1117 1.387 . S
C1118 C1121 1.387 . S
H1119 C1115 0.950 . S
H1120 C1117 0.950 . S
C1121 C1112 1.390 . S
C1121 H1114 0.950 . S
C1121 C1118 1.387 . S
C1122 C1123 1.387 . S
C1122 H1126 0.950 . S
C1122 C1131 1.390 . S
C1123 C1122 1.387 . S
C1123 C1125 1.387 . S
H1124 C1131 0.950 . S
C1125 C1123 1.387 . S
C1125 C1127 1.390 . S
C1125 H1129 0.950 . S
H1126 C1122 0.950 . S
C1127 C1125 1.390 . S
C1127 C1128 1.387 . S
C1127 H1130 0.950 . S
C1128 C1127 1.387 . S
C1128 C1131 1.387 . S
H1129 C1125 0.950 . S
H1130 C1127 0.950 . S
C1131 C1122 1.390 . S
C1131 H1124 0.950 . S
C1131 C1128 1.387 . S
C1132 C1133 1.387 . S
C1132 H1136 0.950 . S
C1132 C1141 1.390 . S
C1133 C1132 1.387 . S
C1133 C1135 1.387 . S
H1134 C1141 0.950 . S
C1135 C1133 1.387 . S
C1135 C1137 1.390 . S
C1135 H1139 0.950 . S
H1136 C1132 0.950 . S
C1137 C1135 1.390 . S
C1137 C1138 1.387 . S
C1137 H1140 0.950 . S
C1138 C1137 1.387 . S
C1138 C1141 1.387 . S
H1139 C1135 0.950 . S
H1140 C1137 0.950 . S
C1141 C1132 1.390 . S
C1141 H1134 0.950 . S
C1141 C1138 1.387 . S
C1142 C1143 1.387 . S
C1142 H1146 0.950 . S
C1142 C1151 1.390 . S
C1143 C1142 1.387 . S
C1143 C1145 1.387 . S
H1144 C1151 0.950 . S
C1145 C1143 1.387 . S
C1145 C1147 1.390 . S
C1145 H1149 0.950 . S
H1146 C1142 0.950 . S
C1147 C1145 1.390 . S
C1147 C1148 1.387 . S
C1147 H1150 0.950 . S
C1148 C1147 1.387 . S
C1148 C1151 1.387 . S
H1149 C1145 0.950 . S
H1150 C1147 0.950 . S
C1151 C1142 1.390 . S
C1151 H1144 0.950 . S
C1151 C1148 1.387 . S
C1152 C1153 1.387 . S
C1152 H1156 0.950 . S
C1152 C1161 1.390 . S
C1153 C1152 1.387 . S
C1153 C1155 1.387 . S
H1154 C1161 0.950 . S
C1155 C1153 1.387 . S
C1155 C1157 1.390 . S
C1155 H1159 0.950 . S
H1156 C1152 0.950 . S
C1157 C1155 1.390 . S
C1157 C1158 1.387 . S
C1157 H1160 0.950 . S
C1158 C1157 1.387 . S
C1158 C1161 1.387 . S
H1159 C1155 0.950 . S
H1160 C1157 0.950 . S
C1161 C1152 1.390 . S
C1161 H1154 0.950 . S
C1161 C1158 1.387 . S
C1162 C1163 1.379 1_545 S
C1162 H1166 0.928 1_545 S
C1162 C1171 1.422 . S
C1163 C1162 1.379 1_565 S
C1163 C1165 1.387 . S
H1164 C1171 0.950 . S
C1165 C1163 1.387 . S
C1165 C1167 1.390 1_565 S
C1165 H1169 0.950 . S
H1166 C1162 0.928 1_565 S
C1167 C1165 1.390 1_545 S
C1167 C1168 1.387 . S
C1167 H1170 0.950 . S
C1168 C1167 1.387 . S
C1168 C1171 1.387 . S
H1169 C1165 0.950 . S
H1170 C1167 0.950 . S
C1171 C1162 1.422 . S
C1171 H1164 0.950 . S
C1171 C1168 1.387 . S
C1172 C1173 1.387 . S
C1172 H1176 0.950 . S
C1172 C1181 1.400 . S
C1173 C1172 1.387 . S
C1173 C1175 1.387 . S
H1174 C1181 0.944 1_455 S
C1175 C1173 1.387 . S
C1175 C1177 1.390 1_655 S
C1175 H1179 0.950 . S
H1176 C1172 0.950 . S
C1177 C1175 1.390 1_455 S
C1177 C1178 1.387 . S
C1177 H1180 0.950 . S
C1178 C1177 1.387 . S
C1178 C1181 1.384 1_455 S
H1179 C1175 0.950 . S
H1180 C1177 0.950 . S
C1181 C1172 1.400 . S
C1181 H1174 0.944 1_655 S
C1181 C1178 1.384 1_655 S
C1182 C1183 1.387 . S
C1182 H1186 0.950 . S
C1182 C1191 1.390 . S
C1183 C1182 1.387 . S
C1183 C1185 1.387 . S
H1184 C1191 0.950 . S
C1185 C1183 1.387 . S
C1185 C1187 1.390 . S
C1185 H1189 0.950 . S
H1186 C1182 0.950 . S
C1187 C1185 1.390 . S
C1187 C1188 1.387 . S
C1187 H1190 0.950 . S
C1188 C1187 1.387 . S
C1188 C1191 1.387 . S
H1189 C1185 0.950 . S
H1190 C1187 0.950 . S
C1191 C1182 1.390 . S
C1191 H1184 0.950 . S
C1191 C1188 1.387 . S
C1192 C1193 1.383 1_565 S
C1192 H1196 0.950 1_565 S
C1192 C1201 1.395 . S
C1193 C1192 1.383 1_545 S
C1193 C1195 1.387 . S
H1194 C1201 0.950 . S
C1195 C1193 1.387 . S
C1195 C1197 1.390 1_545 S
C1195 H1199 0.950 . S
H1196 C1192 0.950 1_545 S
C1197 C1195 1.390 1_565 S
C1197 C1198 1.387 . S
C1197 H1200 0.950 . S
C1198 C1197 1.387 . S
C1198 C1201 1.387 . S
H1199 C1195 0.950 . S
H1200 C1197 0.950 . S
C1201 C1192 1.395 . S
C1201 H1194 0.950 . S
C1201 C1198 1.387 . S
C1202 C1203 1.387 . S
C1202 H1206 0.950 . S
C1202 C1211 1.390 1_455 S
C1203 C1202 1.387 . S
C1203 C1205 1.387 . S
H1204 C1211 0.950 . S
C1205 C1203 1.387 . S
C1205 C1207 1.416 . S
C1205 H1209 0.950 . S
H1206 C1202 0.950 . S
C1207 C1205 1.416 . S
C1207 C1208 1.376 1_455 S
C1207 H1210 0.936 1_455 S
C1208 C1207 1.376 1_655 S
C1208 C1211 1.387 . S
H1209 C1205 0.950 . S
H1210 C1207 0.936 1_655 S
C1211 C1202 1.390 1_655 S
C1211 H1204 0.950 . S
C1211 C1208 1.387 . S
C1212 C1213 1.387 . S
C1212 H1216 0.950 . S
C1212 C1221 1.390 . S
C1213 C1212 1.387 . S
C1213 C1215 1.387 . S
H1214 C1221 0.950 . S
C1215 C1213 1.387 . S
C1215 C1217 1.390 . S
C1215 H1219 0.950 . S
H1216 C1212 0.950 . S
C1217 C1215 1.390 . S
C1217 C1218 1.387 . S
C1217 H1220 0.950 . S
C1218 C1217 1.387 . S
C1218 C1221 1.387 . S
H1219 C1215 0.950 . S
H1220 C1217 0.950 . S
C1221 C1212 1.390 . S
C1221 H1214 0.950 . S
C1221 C1218 1.387 . S
C1222 C1223 1.376 1_565 S
C1222 H1226 0.933 1_565 S
C1222 C1231 1.419 . S
C1223 C1222 1.376 1_545 S
C1223 C1225 1.387 . S
H1224 C1231 0.950 . S
C1225 C1223 1.387 . S
C1225 C1227 1.390 1_545 S
C1225 H1229 0.950 . S
H1226 C1222 0.933 1_545 S
C1227 C1225 1.390 1_565 S
C1227 C1228 1.387 . S
C1227 H1230 0.950 . S
C1228 C1227 1.387 . S
C1228 C1231 1.387 . S
H1229 C1225 0.950 . S
H1230 C1227 0.950 . S
C1231 C1222 1.419 . S
C1231 H1224 0.950 . S
C1231 C1228 1.387 . S
C1232 C1233 1.387 . S
C1232 H1236 0.950 . S
C1232 C1241 1.390 1_655 S
C1233 C1232 1.387 . S
C1233 C1235 1.381 1_655 S
H1234 C1241 0.950 . S
C1235 C1233 1.381 1_455 S
C1235 C1237 1.404 . S
C1235 H1239 0.942 1_455 S
H1236 C1232 0.950 . S
C1237 C1235 1.404 . S
C1237 C1238 1.387 . S
C1237 H1240 0.950 . S
C1238 C1237 1.387 . S
C1238 C1241 1.387 . S
H1239 C1235 0.942 1_655 S
H1240 C1237 0.950 . S
C1241 C1232 1.390 1_455 S
C1241 H1234 0.950 . S
C1241 C1238 1.387 . S
C1242 C1243 1.387 . S
C1242 H1246 0.950 . S
C1242 C1251 1.390 . S
C1243 C1242 1.387 . S
C1243 C1245 1.387 . S
H1244 C1251 0.950 . S
C1245 C1243 1.387 . S
C1245 C1247 1.390 . S
C1245 H1249 0.950 . S
H1246 C1242 0.950 . S
C1247 C1245 1.390 . S
C1247 C1248 1.387 . S
C1247 H1250 0.950 . S
C1248 C1247 1.387 . S
C1248 C1251 1.387 . S
H1249 C1245 0.950 . S
H1250 C1247 0.950 . S
C1251 C1242 1.390 . S
C1251 H1244 0.950 . S
C1251 C1248 1.387 . S
C1252 C1253 1.387 . S
C1252 H1256 0.950 . S
C1252 C1261 1.390 1_565 S
C1253 C1252 1.387 . S
C1253 C1255 1.389 . S
H1254 C1261 0.950 . S
C1255 C1253 1.389 . S
C1255 C1257 1.380 1_565 S
C1255 H1259 0.958 . S
H1256 C1252 0.950 . S
C1257 C1255 1.380 1_545 S
C1257 C1258 1.387 . S
C1257 H1260 0.950 . S
C1258 C1257 1.387 . S
C1258 C1261 1.387 . S
H1259 C1255 0.958 . S
H1260 C1257 0.950 . S
C1261 C1252 1.390 1_545 S
C1261 H1254 0.950 . S
C1261 C1258 1.387 . S
C1262 C1263 1.387 . S
C1262 H1266 0.950 . S
C1262 C1271 1.414 . S
C1263 C1262 1.387 . S
C1263 C1265 1.387 . S
H1264 C1271 0.938 1_455 S
C1265 C1263 1.387 . S
C1265 C1267 1.390 1_655 S
C1265 H1269 0.950 . S
H1266 C1262 0.950 . S
C1267 C1265 1.390 1_455 S
C1267 C1268 1.387 . S
C1267 H1270 0.950 . S
C1268 C1267 1.387 . S
C1268 C1271 1.376 1_455 S
H1269 C1265 0.950 . S
H1270 C1267 0.950 . S
C1271 C1262 1.414 . S
C1271 H1264 0.938 1_655 S
C1271 C1268 1.376 1_655 S
C1272 C1273 1.387 . S
C1272 H1276 0.950 . S
C1272 C1281 1.390 . S
C1273 C1272 1.387 . S
C1273 C1275 1.387 . S
H1274 C1281 0.950 . S
C1275 C1273 1.387 . S
C1275 C1277 1.390 . S
C1275 H1279 0.950 . S
H1276 C1272 0.950 . S
C1277 C1275 1.390 . S
C1277 C1278 1.387 . S
C1277 H1280 0.950 . S
C1278 C1277 1.387 . S
C1278 C1281 1.387 . S
H1279 C1275 0.950 . S
H1280 C1277 0.950 . S
C1281 C1272 1.390 . S
C1281 H1274 0.950 . S
C1281 C1278 1.387 . S
C1282 C1283 1.387 . S
C1282 H1286 0.950 . S
C1282 C1291 1.390 . S
C1283 C1282 1.387 . S
C1283 C1285 1.387 . S
H1284 C1291 0.950 . S
C1285 C1283 1.387 . S
C1285 C1287 1.390 . S
C1285 H1289 0.950 . S
H1286 C1282 0.950 . S
C1287 C1285 1.390 . S
C1287 C1288 1.387 . S
C1287 H1290 0.950 . S
C1288 C1287 1.387 . S
C1288 C1291 1.387 . S
H1289 C1285 0.950 . S
H1290 C1287 0.950 . S
C1291 C1282 1.390 . S
C1291 H1284 0.950 . S
C1291 C1288 1.387 . S
C1292 C1293 1.387 . S
C1292 H1296 0.950 . S
C1292 C1301 1.390 . S
C1293 C1292 1.387 . S
C1293 C1295 1.387 . S
H1294 C1301 0.950 . S
C1295 C1293 1.387 . S
C1295 C1297 1.390 . S
C1295 H1299 0.950 . S
H1296 C1292 0.950 . S
C1297 C1295 1.390 . S
C1297 C1298 1.387 . S
C1297 H1300 0.950 . S
C1298 C1297 1.387 . S
C1298 C1301 1.387 . S
H1299 C1295 0.950 . S
H1300 C1297 0.950 . S
C1301 C1292 1.390 . S
C1301 H1294 0.950 . S
C1301 C1298 1.387 . S
C1302 C1303 1.387 . S
C1302 H1306 0.950 . S
C1302 C1311 1.390 . S
C1303 C1302 1.387 . S
C1303 C1305 1.387 . S
H1304 C1311 0.950 . S
C1305 C1303 1.387 . S
C1305 C1307 1.390 . S
C1305 H1309 0.950 . S
H1306 C1302 0.950 . S
C1307 C1305 1.390 . S
C1307 C1308 1.387 . S
C1307 H1310 0.950 . S
C1308 C1307 1.387 . S
C1308 C1311 1.387 . S
H1309 C1305 0.950 . S
H1310 C1307 0.950 . S
C1311 C1302 1.390 . S
C1311 H1304 0.950 . S
C1311 C1308 1.387 . S
C1312 C1313 1.387 . S
C1312 H1316 0.950 . S
C1312 C1321 1.390 . S
C1313 C1312 1.387 . S
C1313 C1315 1.387 . S
H1314 C1321 0.950 . S
C1315 C1313 1.387 . S
C1315 C1317 1.390 . S
C1315 H1319 0.950 . S
H1316 C1312 0.950 . S
C1317 C1315 1.390 . S
C1317 C1318 1.387 . S
C1317 H1320 0.950 . S
C1318 C1317 1.387 . S
C1318 C1321 1.387 . S
H1319 C1315 0.950 . S
H1320 C1317 0.950 . S
C1321 C1312 1.390 . S
C1321 H1314 0.950 . S
C1321 C1318 1.387 . S
C1322 C1323 1.387 . S
C1322 H1326 0.950 . S
C1322 C1331 1.390 . S
C1323 C1322 1.387 . S
C1323 C1325 1.387 . S
H1324 C1331 0.950 . S
C1325 C1323 1.387 . S
C1325 C1327 1.390 . S
C1325 H1329 0.950 . S
H1326 C1322 0.950 . S
C1327 C1325 1.390 . S
C1327 C1328 1.387 . S
C1327 H1330 0.950 . S
C1328 C1327 1.387 . S
C1328 C1331 1.387 . S
H1329 C1325 0.950 . S
H1330 C1327 0.950 . S
C1331 C1322 1.390 . S
C1331 H1324 0.950 . S
C1331 C1328 1.387 . S
C1332 C1333 1.387 . S
C1332 H1336 0.950 . S
C1332 C1341 1.390 . S
C1333 C1332 1.387 . S
C1333 C1335 1.387 . S
H1334 C1341 0.950 . S
C1335 C1333 1.387 . S
C1335 C1337 1.390 . S
C1335 H1339 0.950 . S
H1336 C1332 0.950 . S
C1337 C1335 1.390 . S
C1337 C1338 1.387 . S
C1337 H1340 0.950 . S
C1338 C1337 1.387 . S
C1338 C1341 1.387 . S
H1339 C1335 0.950 . S
H1340 C1337 0.950 . S
C1341 C1332 1.390 . S
C1341 H1334 0.950 . S
C1341 C1338 1.387 . S
C1342 C1343 1.387 . S
C1342 H1346 0.950 . S
C1342 C1351 1.390 . S
C1343 C1342 1.387 . S
C1343 C1345 1.387 . S
H1344 C1351 0.950 . S
C1345 C1343 1.387 . S
C1345 C1347 1.390 . S
C1345 H1349 0.950 . S
H1346 C1342 0.950 . S
C1347 C1345 1.390 . S
C1347 C1348 1.387 . S
C1347 H1350 0.950 . S
C1348 C1347 1.387 . S
C1348 C1351 1.387 . S
H1349 C1345 0.950 . S
H1350 C1347 0.950 . S
C1351 C1342 1.390 . S
C1351 H1344 0.950 . S
C1351 C1348 1.387 . S
C1352 C1353 1.387 . S
C1352 H1356 0.950 . S
C1352 C1361 1.390 . S
C1353 C1352 1.387 . S
C1353 C1355 1.387 . S
H1354 C1361 0.950 . S
C1355 C1353 1.387 . S
C1355 C1357 1.390 . S
C1355 H1359 0.950 . S
H1356 C1352 0.950 . S
C1357 C1355 1.390 . S
C1357 C1358 1.387 . S
C1357 H1360 0.950 . S
C1358 C1357 1.387 . S
C1358 C1361 1.387 . S
H1359 C1355 0.950 . S
H1360 C1357 0.950 . S
C1361 C1352 1.390 . S
C1361 H1354 0.950 . S
C1361 C1358 1.387 . S
C1362 C1363 1.358 1_554 S
C1362 H1366 0.978 . S
C1362 C1371 1.392 . S
C1363 C1362 1.358 1_556 S
C1363 C1365 1.387 . S
H1364 C1371 0.950 . S
C1365 C1363 1.387 . S
C1365 C1367 1.390 . S
C1365 H1369 0.950 . S
H1366 C1362 0.978 . S
C1367 C1365 1.390 . S
C1367 C1368 1.387 . S
C1367 H1370 0.950 . S
C1368 C1367 1.387 . S
C1368 C1371 1.387 1_556 S
H1369 C1365 0.950 . S
H1370 C1367 0.950 . S
C1371 C1362 1.392 . S
C1371 H1364 0.950 . S
C1371 C1368 1.387 1_554 S
C1372 C1373 1.387 . S
C1372 H1376 0.950 . S
C1372 C1381 1.390 . S
C1373 C1372 1.387 . S
C1373 C1375 1.402 . S
H1374 C1381 0.950 . S
C1375 C1373 1.402 . S
C1375 C1377 1.391 . S
C1375 H1379 0.934 1_556 S
H1376 C1372 0.950 . S
C1377 C1375 1.391 . S
C1377 C1378 1.387 . S
C1377 H1380 0.950 1_556 S
C1378 C1377 1.387 . S
C1378 C1381 1.387 . S
H1379 C1375 0.934 1_554 S
H1380 C1377 0.950 1_554 S
C1381 C1372 1.390 . S
C1381 H1374 0.950 . S
C1381 C1378 1.387 . S
C1382 C1383 1.387 . S
C1382 H1386 0.950 . S
C1382 C1391 1.390 . S
C1383 C1382 1.387 . S
C1383 C1385 1.387 1_556 S
H1384 C1391 0.950 . S
C1385 C1383 1.387 1_554 S
C1385 C1387 1.392 . S
C1385 H1389 0.950 . S
H1386 C1382 0.950 . S
C1387 C1385 1.392 . S
C1387 C1388 1.358 1_554 S
C1387 H1390 0.978 . S
C1388 C1387 1.358 1_556 S
C1388 C1391 1.387 . S
H1389 C1385 0.950 . S
H1390 C1387 0.978 . S
C1391 C1382 1.390 . S
C1391 H1384 0.950 . S
C1391 C1388 1.387 . S
C1392 C1393 1.387 . S
C1392 H1396 0.950 . S
C1392 C1401 1.390 . S
C1393 C1392 1.387 . S
C1393 C1395 1.387 . S
H1394 C1401 0.950 . S
C1395 C1393 1.387 . S
C1395 C1397 1.390 . S
C1395 H1399 0.950 . S
H1396 C1392 0.950 . S
C1397 C1395 1.390 . S
C1397 C1398 1.387 . S
C1397 H1400 0.950 . S
C1398 C1397 1.387 . S
C1398 C1401 1.387 . S
H1399 C1395 0.950 . S
H1400 C1397 0.950 . S
C1401 C1392 1.390 . S
C1401 H1394 0.950 . S
C1401 C1398 1.387 . S
C1402 C1403 1.387 . S
C1402 H1406 0.950 . S
C1402 C1411 1.390 . S
C1403 C1402 1.387 . S
C1403 C1405 1.387 . S
H1404 C1411 0.950 . S
C1405 C1403 1.387 . S
C1405 C1407 1.390 . S
C1405 H1409 0.950 . S
H1406 C1402 0.950 . S
C1407 C1405 1.390 . S
C1407 C1408 1.387 . S
C1407 H1410 0.950 . S
C1408 C1407 1.387 . S
C1408 C1411 1.387 . S
H1409 C1405 0.950 . S
H1410 C1407 0.950 . S
C1411 C1402 1.390 . S
C1411 H1404 0.950 . S
C1411 C1408 1.387 . S
C1412 C1413 1.387 . S
C1412 H1416 0.950 . S
C1412 C1421 1.390 . S
C1413 C1412 1.387 . S
C1413 C1415 1.387 . S
H1414 C1421 0.950 . S
C1415 C1413 1.387 . S
C1415 C1417 1.390 . S
C1415 H1419 0.950 . S
H1416 C1412 0.950 . S
C1417 C1415 1.390 . S
C1417 C1418 1.387 . S
C1417 H1420 0.950 . S
C1418 C1417 1.387 . S
C1418 C1421 1.387 . S
H1419 C1415 0.950 . S
H1420 C1417 0.950 . S
C1421 C1412 1.390 . S
C1421 H1414 0.950 . S
C1421 C1418 1.387 . S
C1422 C1423 1.387 . S
C1422 H1426 0.950 . S
C1422 C1431 1.390 . S
C1423 C1422 1.387 . S
C1423 C1425 1.359 1_554 S
H1424 C1431 0.950 . S
C1425 C1423 1.359 1_556 S
C1425 C1427 1.392 . S
C1425 H1429 0.977 . S
H1426 C1422 0.950 . S
C1427 C1425 1.392 . S
C1427 C1428 1.387 1_556 S
C1427 H1430 0.950 . S
C1428 C1427 1.387 1_554 S
C1428 C1431 1.387 . S
H1429 C1425 0.977 . S
H1430 C1427 0.950 . S
C1431 C1422 1.390 . S
C1431 H1424 0.950 . S
C1431 C1428 1.387 . S
C1432 C1433 1.387 . S
C1432 H1436 0.950 . S
C1432 C1441 1.390 . S
C1433 C1432 1.387 . S
C1433 C1435 1.387 1_554 S
H1434 C1441 0.950 . S
C1435 C1433 1.387 1_556 S
C1435 C1437 1.390 1_556 S
C1435 H1439 0.950 . S
H1436 C1432 0.950 . S
C1437 C1435 1.390 1_554 S
C1437 C1438 1.388 . S
C1437 H1440 0.949 1_554 S
C1438 C1437 1.388 . S
C1438 C1441 1.387 . S
H1439 C1435 0.950 . S
H1440 C1437 0.949 1_556 S
C1441 C1432 1.390 . S
C1441 H1434 0.950 . S
C1441 C1438 1.387 . S
C1442 C1443 1.396 . S
C1442 H1446 0.941 1_554 S
C1442 C1451 1.391 . S
C1443 C1442 1.396 . S
C1443 C1445 1.387 . S
H1444 C1451 0.950 1_556 S
C1445 C1443 1.387 . S
C1445 C1447 1.390 . S
C1445 H1449 0.950 . S
H1446 C1442 0.941 1_556 S
C1447 C1445 1.390 . S
C1447 C1448 1.387 . S
C1447 H1450 0.950 . S
C1448 C1447 1.387 . S
C1448 C1451 1.387 . S
H1449 C1445 0.950 . S
H1450 C1447 0.950 . S
C1451 C1442 1.391 . S
C1451 H1444 0.950 1_554 S
C1451 C1448 1.387 . S
C1452 C1453 1.387 . S
C1452 H1456 0.950 . S
C1452 C1461 1.390 . S
C1453 C1452 1.387 . S
C1453 C1455 1.387 . S
H1454 C1461 0.950 . S
C1455 C1453 1.387 . S
C1455 C1457 1.390 . S
C1455 H1459 0.950 . S
H1456 C1452 0.950 . S
C1457 C1455 1.390 . S
C1457 C1458 1.387 . S
C1457 H1460 0.950 . S
C1458 C1457 1.387 . S
C1458 C1461 1.387 . S
H1459 C1455 0.950 . S
H1460 C1457 0.950 . S
C1461 C1452 1.390 . S
C1461 H1454 0.950 . S
C1461 C1458 1.387 . S
C1462 C1463 1.387 . S
C1462 H1466 0.950 . S
C1462 C1471 1.390 . S
C1463 C1462 1.387 . S
C1463 C1465 1.387 . S
H1464 C1471 0.950 . S
C1465 C1463 1.387 . S
C1465 C1467 1.390 . S
C1465 H1469 0.950 . S
H1466 C1462 0.950 . S
C1467 C1465 1.390 . S
C1467 C1468 1.387 . S
C1467 H1470 0.950 . S
C1468 C1467 1.387 . S
C1468 C1471 1.387 . S
H1469 C1465 0.950 . S
H1470 C1467 0.950 . S
C1471 C1462 1.390 . S
C1471 H1464 0.950 . S
C1471 C1468 1.387 . S
C1472 C1473 1.387 . S
C1472 H1476 0.950 . S
C1472 C1481 1.390 . S
C1473 C1472 1.387 . S
C1473 C1475 1.387 . S
H1474 C1481 0.950 . S
C1475 C1473 1.387 . S
C1475 C1477 1.390 . S
C1475 H1479 0.950 . S
H1476 C1472 0.950 . S
C1477 C1475 1.390 . S
C1477 C1478 1.387 . S
C1477 H1480 0.950 . S
C1478 C1477 1.387 . S
C1478 C1481 1.387 . S
H1479 C1475 0.950 . S
H1480 C1477 0.950 . S
C1481 C1472 1.390 . S
C1481 H1474 0.950 . S
C1481 C1478 1.387 . S
C1482 C1483 1.387 . S
C1482 H1486 0.950 . S
C1482 C1491 1.390 . S
C1483 C1482 1.387 . S
C1483 C1485 1.387 . S
H1484 C1491 0.950 . S
C1485 C1483 1.387 . S
C1485 C1487 1.390 . S
C1485 H1489 0.950 . S
H1486 C1482 0.950 . S
C1487 C1485 1.390 . S
C1487 C1488 1.387 . S
C1487 H1490 0.950 . S
C1488 C1487 1.387 . S
C1488 C1491 1.387 . S
H1489 C1485 0.950 . S
H1490 C1487 0.950 . S
C1491 C1482 1.390 . S
C1491 H1484 0.950 . S
C1491 C1488 1.387 . S
C1492 C1493 1.387 . S
C1492 H1496 0.950 . S
C1492 C1501 1.390 . S
C1493 C1492 1.387 . S
C1493 C1495 1.387 . S
H1494 C1501 0.950 . S
C1495 C1493 1.387 . S
C1495 C1497 1.390 . S
C1495 H1499 0.950 . S
H1496 C1492 0.950 . S
C1497 C1495 1.390 . S
C1497 C1498 1.387 . S
C1497 H1500 0.950 . S
C1498 C1497 1.387 . S
C1498 C1501 1.387 . S
H1499 C1495 0.950 . S
H1500 C1497 0.950 . S
C1501 C1492 1.390 . S
C1501 H1494 0.950 . S
C1501 C1498 1.387 . S
C1502 C1503 1.387 . S
C1502 H1506 0.950 . S
C1502 C1511 1.390 . S
C1503 C1502 1.387 . S
C1503 C1505 1.387 . S
H1504 C1511 0.950 . S
C1505 C1503 1.387 . S
C1505 C1507 1.390 . S
C1505 H1509 0.950 . S
H1506 C1502 0.950 . S
C1507 C1505 1.390 . S
C1507 C1508 1.387 . S
C1507 H1510 0.950 . S
C1508 C1507 1.387 . S
C1508 C1511 1.387 . S
H1509 C1505 0.950 . S
H1510 C1507 0.950 . S
C1511 C1502 1.390 . S
C1511 H1504 0.950 . S
C1511 C1508 1.387 . S
C1512 C1513 1.387 . S
C1512 H1516 0.950 . S
C1512 C1521 1.404 . S
C1513 C1512 1.387 . S
C1513 C1515 1.361 1_655 S
H1514 C1521 0.964 . S
C1515 C1513 1.361 1_455 S
C1515 C1517 1.403 . S
C1515 H1519 0.964 . S
H1516 C1512 0.950 . S
C1517 C1515 1.403 . S
C1517 C1518 1.387 . S
C1517 H1520 0.950 . S
C1518 C1517 1.387 . S
C1518 C1521 1.360 1_455 S
H1519 C1515 0.964 . S
H1520 C1517 0.950 . S
C1521 C1512 1.404 . S
C1521 H1514 0.964 . S
C1521 C1518 1.360 1_655 S
C1522 C1523 1.387 . S
C1522 H1526 0.950 . S
C1522 C1531 1.390 . S
C1523 C1522 1.387 . S
C1523 C1525 1.387 . S
H1524 C1531 0.950 . S
C1525 C1523 1.387 . S
C1525 C1527 1.390 . S
C1525 H1529 0.950 . S
H1526 C1522 0.950 . S
C1527 C1525 1.390 . S
C1527 C1528 1.387 . S
C1527 H1530 0.950 . S
C1528 C1527 1.387 . S
C1528 C1531 1.387 . S
H1529 C1525 0.950 . S
H1530 C1527 0.950 . S
C1531 C1522 1.390 . S
C1531 H1524 0.950 . S
C1531 C1528 1.387 . S
C1532 C1533 1.387 . S
C1532 H1536 0.950 . S
C1532 C1541 1.390 1_545 S
C1533 C1532 1.387 . S
C1533 C1535 1.387 . S
H1534 C1541 0.950 . S
C1535 C1533 1.387 . S
C1535 C1537 1.390 1_545 S
C1535 H1539 0.950 . S
H1536 C1532 0.950 . S
C1537 C1535 1.390 1_565 S
C1537 C1538 1.387 . S
C1537 H1540 0.950 . S
C1538 C1537 1.387 . S
C1538 C1541 1.387 . S
H1539 C1535 0.950 . S
H1540 C1537 0.950 . S
C1541 C1532 1.390 1_565 S
C1541 H1534 0.950 . S
C1541 C1538 1.387 . S
C1542 C1543 1.387 . S
C1542 H1546 0.950 . S
C1542 C1551 1.390 . S
C1543 C1542 1.387 . S
C1543 C1545 1.387 1_455 S
H1544 C1551 0.950 . S
C1545 C1543 1.387 1_655 S
C1545 C1547 1.390 . S
C1545 H1549 0.950 . S
H1546 C1542 0.950 . S
C1547 C1545 1.390 . S
C1547 C1548 1.387 . S
C1547 H1550 0.950 . S
C1548 C1547 1.387 . S
C1548 C1551 1.387 1_655 S
H1549 C1545 0.950 . S
H1550 C1547 0.950 . S
C1551 C1542 1.390 . S
C1551 H1544 0.950 . S
C1551 C1548 1.387 1_455 S
C1552 C1553 1.387 . S
C1552 H1556 0.950 . S
C1552 C1561 1.390 . S
C1553 C1552 1.387 . S
C1553 C1555 1.387 . S
H1554 C1561 0.950 . S
C1555 C1553 1.387 . S
C1555 C1557 1.390 . S
C1555 H1559 0.950 . S
H1556 C1552 0.950 . S
C1557 C1555 1.390 . S
C1557 C1558 1.387 . S
C1557 H1560 0.950 . S
C1558 C1557 1.387 . S
C1558 C1561 1.387 . S
H1559 C1555 0.950 . S
H1560 C1557 0.950 . S
C1561 C1552 1.390 . S
C1561 H1554 0.950 . S
C1561 C1558 1.387 . S
C1562 C1563 1.387 . S
C1562 H1566 0.950 . S
C1562 C1571 1.390 1_545 S
C1563 C1562 1.387 . S
C1563 C1565 1.387 . S
H1564 C1571 0.950 . S
C1565 C1563 1.387 . S
C1565 C1567 1.390 1_545 S
C1565 H1569 0.950 . S
H1566 C1562 0.950 . S
C1567 C1565 1.390 1_565 S
C1567 C1568 1.387 . S
C1567 H1570 0.950 . S
C1568 C1567 1.387 . S
C1568 C1571 1.387 . S
H1569 C1565 0.950 . S
H1570 C1567 0.950 . S
C1571 C1562 1.390 1_565 S
C1571 H1564 0.950 . S
C1571 C1568 1.387 . S
C1572 C1573 1.387 . S
C1572 H1576 0.950 . S
C1572 C1581 1.390 . S
C1573 C1572 1.387 . S
C1573 C1575 1.387 . S
H1574 C1581 0.950 . S
C1575 C1573 1.387 . S
C1575 C1577 1.390 . S
C1575 H1579 0.950 . S
H1576 C1572 0.950 . S
C1577 C1575 1.390 . S
C1577 C1578 1.387 . S
C1577 H1580 0.950 . S
C1578 C1577 1.387 . S
C1578 C1581 1.387 . S
H1579 C1575 0.950 . S
H1580 C1577 0.950 . S
C1581 C1572 1.390 . S
C1581 H1574 0.950 . S
C1581 C1578 1.387 . S
C1582 C1583 1.387 . S
C1582 H1586 0.950 . S
C1582 C1591 1.390 . S
C1583 C1582 1.387 . S
C1583 C1585 1.387 . S
H1584 C1591 0.950 . S
C1585 C1583 1.387 . S
C1585 C1587 1.390 . S
C1585 H1589 0.950 . S
H1586 C1582 0.950 . S
C1587 C1585 1.390 . S
C1587 C1588 1.387 . S
C1587 H1590 0.950 . S
C1588 C1587 1.387 . S
C1588 C1591 1.387 . S
H1589 C1585 0.950 . S
H1590 C1587 0.950 . S
C1591 C1582 1.390 . S
C1591 H1584 0.950 . S
C1591 C1588 1.387 . S
C1592 C1593 1.387 . S
C1592 H1596 0.950 . S
C1592 C1601 1.390 . S
C1593 C1592 1.387 . S
C1593 C1595 1.387 . S
H1594 C1601 0.950 . S
C1595 C1593 1.387 . S
C1595 C1597 1.390 . S
C1595 H1599 0.950 . S
H1596 C1592 0.950 . S
C1597 C1595 1.390 . S
C1597 C1598 1.387 . S
C1597 H1600 0.950 . S
C1598 C1597 1.387 . S
C1598 C1601 1.387 . S
H1599 C1595 0.950 . S
H1600 C1597 0.950 . S
C1601 C1592 1.390 . S
C1601 H1594 0.950 . S
C1601 C1598 1.387 . S
C1602 C1603 1.387 . S
C1602 H1606 0.950 . S
C1602 C1611 1.390 . S
C1603 C1602 1.387 . S
C1603 C1605 1.387 . S
H1604 C1611 0.950 . S
C1605 C1603 1.387 . S
C1605 C1607 1.390 . S
C1605 H1609 0.950 . S
H1606 C1602 0.950 . S
C1607 C1605 1.390 . S
C1607 C1608 1.387 . S
C1607 H1610 0.950 . S
C1608 C1607 1.387 . S
C1608 C1611 1.387 . S
H1609 C1605 0.950 . S
H1610 C1607 0.950 . S
C1611 C1602 1.390 . S
C1611 H1604 0.950 . S
C1611 C1608 1.387 . S
C1612 C1613 1.387 . S
C1612 H1616 0.950 . S
C1612 C1621 1.390 . S
C1613 C1612 1.387 . S
C1613 C1615 1.387 . S
H1614 C1621 0.950 . S
C1615 C1613 1.387 . S
C1615 C1617 1.390 . S
C1615 H1619 0.950 . S
H1616 C1612 0.950 . S
C1617 C1615 1.390 . S
C1617 C1618 1.387 . S
C1617 H1620 0.950 . S
C1618 C1617 1.387 . S
C1618 C1621 1.387 . S
H1619 C1615 0.950 . S
H1620 C1617 0.950 . S
C1621 C1612 1.390 . S
C1621 H1614 0.950 . S
C1621 C1618 1.387 . S
C1622 C1623 1.387 . S
C1622 H1626 0.950 . S
C1622 C1631 1.390 . S
C1623 C1622 1.387 . S
C1623 C1625 1.387 . S
H1624 C1631 0.950 . S
C1625 C1623 1.387 . S
C1625 C1627 1.390 . S
C1625 H1629 0.950 . S
H1626 C1622 0.950 . S
C1627 C1625 1.390 . S
C1627 C1628 1.387 . S
C1627 H1630 0.950 . S
C1628 C1627 1.387 . S
C1628 C1631 1.387 . S
H1629 C1625 0.950 . S
H1630 C1627 0.950 . S
C1631 C1622 1.390 . S
C1631 H1624 0.950 . S
C1631 C1628 1.387 . S
C1632 C1633 1.387 . S
C1632 H1636 0.950 . S
C1632 C1641 1.390 . S
C1633 C1632 1.387 . S
C1633 C1635 1.387 . S
H1634 C1641 0.950 . S
C1635 C1633 1.387 . S
C1635 C1637 1.390 . S
C1635 H1639 0.950 . S
H1636 C1632 0.950 . S
C1637 C1635 1.390 . S
C1637 C1638 1.387 . S
C1637 H1640 0.950 . S
C1638 C1637 1.387 . S
C1638 C1641 1.387 . S
H1639 C1635 0.950 . S
H1640 C1637 0.950 . S
C1641 C1632 1.390 . S
C1641 H1634 0.950 . S
C1641 C1638 1.387 . S
C1642 C1643 1.387 . S
C1642 H1646 0.950 . S
C1642 C1651 1.390 . S
C1643 C1642 1.387 . S
C1643 C1645 1.387 . S
H1644 C1651 0.950 . S
C1645 C1643 1.387 . S
C1645 C1647 1.390 . S
C1645 H1649 0.950 . S
H1646 C1642 0.950 . S
C1647 C1645 1.390 . S
C1647 C1648 1.387 . S
C1647 H1650 0.950 . S
C1648 C1647 1.387 . S
C1648 C1651 1.387 . S
H1649 C1645 0.950 . S
H1650 C1647 0.950 . S
C1651 C1642 1.390 . S
C1651 H1644 0.950 . S
C1651 C1648 1.387 . S
C1652 C1653 1.387 . S
C1652 H1656 0.950 . S
C1652 C1661 1.390 . S
C1653 C1652 1.387 . S
C1653 C1655 1.387 . S
H1654 C1661 0.950 . S
C1655 C1653 1.387 . S
C1655 C1657 1.390 . S
C1655 H1659 0.950 . S
H1656 C1652 0.950 . S
C1657 C1655 1.390 . S
C1657 C1658 1.387 . S
C1657 H1660 0.950 . S
C1658 C1657 1.387 . S
C1658 C1661 1.387 . S
H1659 C1655 0.950 . S
H1660 C1657 0.950 . S
C1661 C1652 1.390 . S
C1661 H1654 0.950 . S
C1661 C1658 1.387 . S
C1662 C1663 1.387 . S
C1662 H1666 0.950 . S
C1662 C1671 1.390 . S
C1663 C1662 1.387 . S
C1663 C1665 1.387 . S
H1664 C1671 0.950 . S
C1665 C1663 1.387 . S
C1665 C1667 1.390 . S
C1665 H1669 0.950 . S
H1666 C1662 0.950 . S
C1667 C1665 1.390 . S
C1667 C1668 1.387 . S
C1667 H1670 0.950 . S
C1668 C1667 1.387 . S
C1668 C1671 1.387 . S
H1669 C1665 0.950 . S
H1670 C1667 0.950 . S
C1671 C1662 1.390 . S
C1671 H1664 0.950 . S
C1671 C1668 1.387 . S
C1672 C1673 1.387 . S
C1672 H1676 0.950 . S
C1672 C1681 1.390 . S
C1673 C1672 1.387 . S
C1673 C1675 1.387 . S
H1674 C1681 0.950 . S
C1675 C1673 1.387 . S
C1675 C1677 1.390 . S
C1675 H1679 0.950 . S
H1676 C1672 0.950 . S
C1677 C1675 1.390 . S
C1677 C1678 1.387 . S
C1677 H1680 0.950 . S
C1678 C1677 1.387 . S
C1678 C1681 1.387 . S
H1679 C1675 0.950 . S
H1680 C1677 0.950 . S
C1681 C1672 1.390 . S
C1681 H1674 0.950 . S
C1681 C1678 1.387 . S
C1682 C1683 1.387 . S
C1682 H1686 0.950 . S
C1682 C1691 1.390 . S
C1683 C1682 1.387 . S
C1683 C1685 1.387 . S
H1684 C1691 0.950 . S
C1685 C1683 1.387 . S
C1685 C1687 1.390 . S
C1685 H1689 0.950 . S
H1686 C1682 0.950 . S
C1687 C1685 1.390 . S
C1687 C1688 1.387 . S
C1687 H1690 0.950 . S
C1688 C1687 1.387 . S
C1688 C1691 1.387 . S
H1689 C1685 0.950 . S
H1690 C1687 0.950 . S
C1691 C1682 1.390 . S
C1691 H1684 0.950 . S
C1691 C1688 1.387 . S
C1692 C1693 1.387 . S
C1692 H1696 0.950 . S
C1692 C1701 1.390 . S
C1693 C1692 1.387 . S
C1693 C1695 1.387 . S
H1694 C1701 0.950 . S
C1695 C1693 1.387 . S
C1695 C1697 1.390 . S
C1695 H1699 0.950 . S
H1696 C1692 0.950 . S
C1697 C1695 1.390 . S
C1697 C1698 1.387 . S
C1697 H1700 0.950 . S
C1698 C1697 1.387 . S
C1698 C1701 1.387 . S
H1699 C1695 0.950 . S
H1700 C1697 0.950 . S
C1701 C1692 1.390 . S
C1701 H1694 0.950 . S
C1701 C1698 1.387 . S
C1702 C1703 1.387 . S
C1702 H1706 0.950 . S
C1702 C1711 1.390 . S
C1703 C1702 1.387 . S
C1703 C1705 1.387 . S
H1704 C1711 0.950 . S
C1705 C1703 1.387 . S
C1705 C1707 1.390 . S
C1705 H1709 0.950 . S
H1706 C1702 0.950 . S
C1707 C1705 1.390 . S
C1707 C1708 1.387 . S
C1707 H1710 0.950 . S
C1708 C1707 1.387 . S
C1708 C1711 1.387 . S
H1709 C1705 0.950 . S
H1710 C1707 0.950 . S
C1711 C1702 1.390 . S
C1711 H1704 0.950 . S
C1711 C1708 1.387 . S
C1712 C1713 1.387 . S
C1712 H1716 0.950 . S
C1712 C1721 1.390 . S
C1713 C1712 1.387 . S
C1713 C1715 1.387 . S
H1714 C1721 0.950 . S
C1715 C1713 1.387 . S
C1715 C1717 1.390 . S
C1715 H1719 0.950 . S
H1716 C1712 0.950 . S
C1717 C1715 1.390 . S
C1717 C1718 1.387 . S
C1717 H1720 0.950 . S
C1718 C1717 1.387 . S
C1718 C1721 1.387 . S
H1719 C1715 0.950 . S
H1720 C1717 0.950 . S
C1721 C1712 1.390 . S
C1721 H1714 0.950 . S
C1721 C1718 1.387 . S
C1722 C1723 1.387 . S
C1722 H1726 0.950 . S
C1722 C1731 1.390 . S
C1723 C1722 1.387 . S
C1723 C1725 1.387 . S
H1724 C1731 0.950 . S
C1725 C1723 1.387 . S
C1725 C1727 1.390 . S
C1725 H1729 0.950 . S
H1726 C1722 0.950 . S
C1727 C1725 1.390 . S
C1727 C1728 1.387 . S
C1727 H1730 0.950 . S
C1728 C1727 1.387 . S
C1728 C1731 1.387 . S
H1729 C1725 0.950 . S
H1730 C1727 0.950 . S
C1731 C1722 1.390 . S
C1731 H1724 0.950 . S
C1731 C1728 1.387 . S
C1732 C1733 1.387 . S
C1732 H1736 0.950 . S
C1732 C1741 1.390 . S
C1733 C1732 1.387 . S
C1733 C1735 1.387 . S
H1734 C1741 0.950 . S
C1735 C1733 1.387 . S
C1735 C1737 1.390 . S
C1735 H1739 0.950 . S
H1736 C1732 0.950 . S
C1737 C1735 1.390 . S
C1737 C1738 1.387 . S
C1737 H1740 0.950 . S
C1738 C1737 1.387 . S
C1738 C1741 1.387 . S
H1739 C1735 0.950 . S
H1740 C1737 0.950 . S
C1741 C1732 1.390 . S
C1741 H1734 0.950 . S
C1741 C1738 1.387 . S
C1742 C1743 1.387 . S
C1742 H1746 0.950 . S
C1742 C1751 1.390 . S
C1743 C1742 1.387 . S
C1743 C1745 1.387 . S
H1744 C1751 0.950 . S
C1745 C1743 1.387 . S
C1745 C1747 1.390 . S
C1745 H1749 0.950 . S
H1746 C1742 0.950 . S
C1747 C1745 1.390 . S
C1747 C1748 1.387 . S
C1747 H1750 0.950 . S
C1748 C1747 1.387 . S
C1748 C1751 1.387 . S
H1749 C1745 0.950 . S
H1750 C1747 0.950 . S
C1751 C1742 1.390 . S
C1751 H1744 0.950 . S
C1751 C1748 1.387 . S
C1752 C1753 1.387 . S
C1752 H1756 0.950 . S
C1752 C1761 1.390 . S
C1753 C1752 1.387 . S
C1753 C1755 1.387 . S
H1754 C1761 0.950 . S
C1755 C1753 1.387 . S
C1755 C1757 1.390 . S
C1755 H1759 0.950 . S
H1756 C1752 0.950 . S
C1757 C1755 1.390 . S
C1757 C1758 1.387 . S
C1757 H1760 0.950 . S
C1758 C1757 1.387 . S
C1758 C1761 1.387 . S
H1759 C1755 0.950 . S
H1760 C1757 0.950 . S
C1761 C1752 1.390 . S
C1761 H1754 0.950 . S
C1761 C1758 1.387 . S
C1762 C1763 1.387 . S
C1762 H1766 0.950 . S
C1762 C1771 1.390 . S
C1763 C1762 1.387 . S
C1763 C1765 1.387 . S
H1764 C1771 0.950 . S
C1765 C1763 1.387 . S
C1765 C1767 1.390 . S
C1765 H1769 0.950 . S
H1766 C1762 0.950 . S
C1767 C1765 1.390 . S
C1767 C1768 1.387 . S
C1767 H1770 0.950 . S
C1768 C1767 1.387 . S
C1768 C1771 1.387 . S
H1769 C1765 0.950 . S
H1770 C1767 0.950 . S
C1771 C1762 1.390 . S
C1771 H1764 0.950 . S
C1771 C1768 1.387 . S
C1772 C1773 1.387 . S
C1772 H1776 0.950 . S
C1772 C1781 1.390 . S
C1773 C1772 1.387 . S
C1773 C1775 1.387 . S
H1774 C1781 0.950 . S
C1775 C1773 1.387 . S
C1775 C1777 1.390 . S
C1775 H1779 0.950 . S
H1776 C1772 0.950 . S
C1777 C1775 1.390 . S
C1777 C1778 1.387 . S
C1777 H1780 0.950 . S
C1778 C1777 1.387 . S
C1778 C1781 1.387 . S
H1779 C1775 0.950 . S
H1780 C1777 0.950 . S
C1781 C1772 1.390 . S
C1781 H1774 0.950 . S
C1781 C1778 1.387 . S
C1782 C1783 1.387 . S
C1782 H1786 0.950 . S
C1782 C1791 1.390 . S
C1783 C1782 1.387 . S
C1783 C1785 1.387 . S
H1784 C1791 0.950 . S
C1785 C1783 1.387 . S
C1785 C1787 1.390 . S
C1785 H1789 0.950 . S
H1786 C1782 0.950 . S
C1787 C1785 1.390 . S
C1787 C1788 1.387 . S
C1787 H1790 0.950 . S
C1788 C1787 1.387 . S
C1788 C1791 1.387 . S
H1789 C1785 0.950 . S
H1790 C1787 0.950 . S
C1791 C1782 1.390 . S
C1791 H1784 0.950 . S
C1791 C1788 1.387 . S
C1792 C1793 1.387 . S
C1792 H1796 0.950 . S
C1792 C1801 1.390 . S
C1793 C1792 1.387 . S
C1793 C1795 1.387 . S
H1794 C1801 0.950 . S
C1795 C1793 1.387 . S
C1795 C1797 1.390 . S
C1795 H1799 0.950 . S
H1796 C1792 0.950 . S
C1797 C1795 1.390 . S
C1797 C1798 1.387 . S
C1797 H1800 0.950 . S
C1798 C1797 1.387 . S
C1798 C1801 1.387 . S
H1799 C1795 0.950 . S
H1800 C1797 0.950 . S
C1801 C1792 1.390 . S
C1801 H1794 0.950 . S
C1801 C1798 1.387 . S
C1802 C1803 1.387 . S
C1802 H1806 0.950 . S
C1802 C1811 1.390 . S
C1803 C1802 1.387 . S
C1803 C1805 1.387 . S
H1804 C1811 0.950 . S
C1805 C1803 1.387 . S
C1805 C1807 1.390 . S
C1805 H1809 0.950 . S
H1806 C1802 0.950 . S
C1807 C1805 1.390 . S
C1807 C1808 1.387 . S
C1807 H1810 0.950 . S
C1808 C1807 1.387 . S
C1808 C1811 1.387 . S
H1809 C1805 0.950 . S
H1810 C1807 0.950 . S
C1811 C1802 1.390 . S
C1811 H1804 0.950 . S
C1811 C1808 1.387 . S
C1812 C1813 1.387 . S
C1812 H1816 0.950 . S
C1812 C1821 1.390 1_455 S
C1813 C1812 1.387 . S
C1813 C1815 1.387 . S
H1814 C1821 0.950 . S
C1815 C1813 1.387 . S
C1815 C1817 1.390 1_455 S
C1815 H1819 0.950 . S
H1816 C1812 0.950 . S
C1817 C1815 1.390 1_655 S
C1817 C1818 1.387 . S
C1817 H1820 0.950 . S
C1818 C1817 1.387 . S
C1818 C1821 1.387 . S
H1819 C1815 0.950 . S
H1820 C1817 0.950 . S
C1821 C1812 1.390 1_655 S
C1821 H1814 0.950 . S
C1821 C1818 1.387 . S
C1822 C1823 1.387 . S
C1822 H1826 0.950 . S
C1822 C1831 1.390 . S
C1823 C1822 1.387 . S
C1823 C1825 1.387 . S
H1824 C1831 0.950 . S
C1825 C1823 1.387 . S
C1825 C1827 1.390 . S
C1825 H1829 0.950 . S
H1826 C1822 0.950 . S
C1827 C1825 1.390 . S
C1827 C1828 1.387 . S
C1827 H1830 0.950 . S
C1828 C1827 1.387 . S
C1828 C1831 1.387 . S
H1829 C1825 0.950 . S
H1830 C1827 0.950 . S
C1831 C1822 1.390 . S
C1831 H1824 0.950 . S
C1831 C1828 1.387 . S
C1832 C1833 1.387 . S
C1832 H1836 0.950 . S
C1832 C1841 1.390 1_545 S
C1833 C1832 1.387 . S
C1833 C1835 1.387 . S
H1834 C1841 0.950 . S
C1835 C1833 1.387 . S
C1835 C1837 1.390 1_545 S
C1835 H1839 0.950 . S
H1836 C1832 0.950 . S
C1837 C1835 1.390 1_565 S
C1837 C1838 1.387 . S
C1837 H1840 0.950 . S
C1838 C1837 1.387 . S
C1838 C1841 1.387 . S
H1839 C1835 0.950 . S
H1840 C1837 0.950 . S
C1841 C1832 1.390 1_565 S
C1841 H1834 0.950 . S
C1841 C1838 1.387 . S
C1842 C1843 1.387 . S
C1842 H1846 0.950 . S
C1842 C1851 1.390 1_545 S
C1843 C1842 1.387 . S
C1843 C1845 1.387 . S
H1844 C1851 0.950 . S
C1845 C1843 1.387 . S
C1845 C1847 1.390 1_545 S
C1845 H1849 0.950 . S
H1846 C1842 0.950 . S
C1847 C1845 1.390 1_565 S
C1847 C1848 1.387 . S
C1847 H1850 0.950 . S
C1848 C1847 1.387 . S
C1848 C1851 1.387 . S
H1849 C1845 0.950 . S
H1850 C1847 0.950 . S
C1851 C1842 1.390 1_565 S
C1851 H1844 0.950 . S
C1851 C1848 1.387 . S
C1852 C1853 1.387 . S
C1852 H1856 0.950 . S
C1852 C1861 1.390 1_455 S
C1853 C1852 1.387 . S
C1853 C1855 1.387 . S
H1854 C1861 0.950 . S
C1855 C1853 1.387 . S
C1855 C1857 1.390 1_455 S
C1855 H1859 0.950 . S
H1856 C1852 0.950 . S
C1857 C1855 1.390 1_655 S
C1857 C1858 1.387 . S
C1857 H1860 0.950 . S
C1858 C1857 1.387 . S
C1858 C1861 1.387 . S
H1859 C1855 0.950 . S
H1860 C1857 0.950 . S
C1861 C1852 1.390 1_655 S
C1861 H1854 0.950 . S
C1861 C1858 1.387 . S
C1862 C1863 1.387 . S
C1862 H1866 0.950 . S
C1862 C1871 1.390 . S
C1863 C1862 1.387 . S
C1863 C1865 1.387 . S
H1864 C1871 0.950 . S
C1865 C1863 1.387 . S
C1865 C1867 1.390 . S
C1865 H1869 0.950 . S
H1866 C1862 0.950 . S
C1867 C1865 1.390 . S
C1867 C1868 1.387 . S
C1867 H1870 0.950 . S
C1868 C1867 1.387 . S
C1868 C1871 1.387 . S
H1869 C1865 0.950 . S
H1870 C1867 0.950 . S
C1871 C1862 1.390 . S
C1871 H1864 0.950 . S
C1871 C1868 1.387 . S
C793 C5 1.404 . S
C798 C158 1.365 . S
C803 C27 1.403 . S
C808 C180 1.365 . S
C813 C49 1.405 . S
C818 C136 1.363 . S
C823 C71 1.404 . S
C828 C246 1.362 . S
C833 C202 1.362 . S
C838 C93 1.404 . S
C843 C224 1.363 . S
C848 C115 1.402 . S
C853 C26 1.365 . S
C858 C138 1.404 . S
C863 C160 1.404 . S
C868 C48 1.363 . S
C873 C182 1.402 . S
C878 C4 1.365 . S
C883 C114 1.362 . S
C888 C204 1.404 . S
C893 C226 1.403 . S
C898 C70 1.366 . S
C903 C248 1.403 . S
C908 C92 1.365 . S
C913 C269 1.402 . S
C918 C422 1.363 . S
C923 C291 1.403 . S
C928 C444 1.366 . S
C933 C400 1.364 . S
C938 C313 1.404 . S
C943 C510 1.364 . S
C948 C335 1.404 . S
C953 C466 1.366 . S
C958 C357 1.403 . S
C963 C379 1.402 . S
C968 C488 1.363 . S
C973 C290 1.363 . S
C978 C402 1.402 . S
C983 C312 1.366 . S
C988 C424 1.402 . S
C993 C268 1.364 . S
C998 C446 1.404 . S
C1003 C378 1.362 . S
C1008 C468 1.403 . S
C1013 C490 1.404 . S
C1018 C334 1.362 . S
C1023 C356 1.365 . S
C1028 C512 1.404 . S
C1033 C533 1.403 . S
C1038 C686 1.362 . S
C1043 C708 1.366 . S
C1048 C555 1.402 . S
C1053 C577 1.405 . S
C1058 C664 1.362 . S
C1063 C599 1.402 . S
C1068 C774 1.364 . S
C1073 C730 1.362 . S
C1078 C621 1.405 . S
C1083 C752 1.365 . S
C1088 C643 1.403 . S
C1093 C666 1.403 . S
C1098 C554 1.362 . S
C1103 C688 1.402 . S
C1108 C576 1.366 . S
C1113 C710 1.404 . S
C1118 C532 1.364 . S
C1123 C642 1.364 . S
C1128 C732 1.404 . S
C1133 C598 1.365 . S
C1138 C754 1.404 . S
C1143 C620 1.362 . S
C1148 C776 1.402 . S
C1153 C7 1.142 . S
C1158 C52 1.159 . S
C1163 C29 1.144 . S
C1168 C8 1.159 . S
C1173 C30 1.160 . S
C1178 C51 1.142 . S
C1183 C96 1.159 . S
C1188 C73 1.142 . S
C1193 C95 1.145 . S
C1198 C118 1.158 . S
C1203 C74 1.162 . S
C1208 C117 1.144 . S
C1213 C141 1.142 . S
C1218 C184 1.159 . S
C1223 C163 1.143 . S
C1228 C140 1.162 . S
C1233 C185 1.142 . S
C1238 C162 1.160 . S
C1243 C228 1.159 . S
C1248 C207 1.142 . S
C1253 C229 1.141 . S
C1258 C250 1.161 . S
C1263 C206 1.162 . S
C1268 C251 1.144 . S
C1273 C316 1.161 . S
C1278 C271 1.144 . S
C1283 C293 1.142 . S
C1288 C272 1.163 . S
C1293 C315 1.142 . S
C1298 C294 1.160 . S
C1303 C337 1.144 . S
C1308 C360 1.161 . S
C1313 C382 1.159 . S
C1318 C359 1.142 . S
C1323 C381 1.143 . S
C1328 C338 1.162 . S
C1333 C405 1.143 . S
C1338 C448 1.162 . S
C1343 C427 1.143 . S
C1348 C404 1.159 . S
C1353 C426 1.160 . S
C1358 C449 1.142 . S
C1363 C492 1.161 . S
C1368 C471 1.144 . S
C1373 C493 1.141 . S
C1378 C514 1.160 . S
C1383 C515 1.142 . S
C1388 C470 1.159 . S
C1393 C580 1.161 . S
C1398 C535 1.144 . S
C1403 C557 1.145 . S
C1408 C536 1.160 . S
C1413 C579 1.142 . S
C1418 C558 1.160 . S
C1423 C624 1.161 . S
C1428 C601 1.144 . S
C1433 C623 1.143 . S
C1438 C646 1.162 . S
C1443 C645 1.143 . S
C1448 C602 1.159 . S
C1453 C669 1.144 . S
C1458 C712 1.161 . S
C1463 C691 1.143 . S
C1468 C668 1.162 . S
C1473 C690 1.159 . S
C1478 C713 1.142 . S
C1483 C756 1.159 . S
C1488 C735 1.142 . S
C1493 C778 1.159 . S
C1498 C757 1.143 . S
C1503 C734 1.159 . S
C1508 C779 1.142 . S
C1513 C97 1.539 . S
C1518 C9 1.539 . S
C1523 C119 1.539 . S
C1528 C31 1.539 . S
C1533 C75 1.537 . S
C1538 C53 1.537 . S
C1543 C227 1.537 . S
C1548 C139 1.538 . S
C1553 C249 1.537 . S
C1558 C161 1.537 . S
C1563 C183 1.539 . S
C1568 C205 1.539 . S
C1573 C361 1.538 . S
C1578 C273 1.539 . S
C1583 C383 1.539 . S
C1588 C295 1.539 . S
C1593 C317 1.537 . S
C1598 C339 1.537 . S
C1603 C491 1.539 . S
C1608 C403 1.539 . S
C1613 C425 1.537 . S
C1618 C513 1.537 . S
C1623 C469 1.539 . S
C1628 C447 1.539 . S
C1633 C537 1.537 . S
C1638 C625 1.537 . S
C1643 C647 1.539 . S
C1648 C559 1.539 . S
C1653 C603 1.539 . S
C1658 C581 1.539 . S
C1663 C755 1.537 . S
C1668 C667 1.537 . S
C1673 C777 1.537 . S
C1678 C689 1.537 . S
C1683 C733 1.539 . S
C1688 C711 1.539 . S
C1693 C644 1.449 . S
C1698 C6 1.449 . S
C1703 C28 1.449 . S
C1708 C600 1.449 . S
C1713 C50 1.448 . S
C1718 C622 1.447 . S
C1723 C72 1.448 . S
C1728 C292 1.449 . S
C1733 C94 1.448 . S
C1738 C314 1.447 . S
C1743 C116 1.449 . S
C1748 C270 1.449 . S
C1753 C511 1.449 . S
C1758 C137 1.449 . S
C1763 C467 1.448 . S
C1768 C159 1.449 . S
C1773 C489 1.447 . S
C1778 C181 1.448 . S
C1783 C203 1.449 . S
C1788 C687 1.448 . S
C1793 C225 1.448 . S
C1798 C709 1.447 . S
C1803 C665 1.449 . S
C1808 C247 1.449 . S
C1813 C556 1.449 . S
C1818 C336 1.448 . S
C1823 C578 1.449 . S
C1828 C358 1.447 . S
C1833 C380 1.449 . S
C1838 C534 1.449 . S
C1843 C401 1.449 . S
C1848 C775 1.449 . S
C1853 C731 1.448 . S
C1858 C423 1.449 . S
C1863 C753 1.447 . S
C1868 C445 1.449 . S
