# Generated by pormake.
# Topology xfh, (7)-cn, num edge types: 1
# Building blocks:
#     Node 0, Type 0, BuildingBlock: HICVOG_clean_sbu_0, # of connection points: 7
#     Node 1, Type 0, BuildingBlock: HICVOG_clean_sbu_0, # of connection points: 7
#     Node 2, Type 0, BuildingBlock: HICVOG_clean_sbu_0, # of connection points: 7
#     Node 3, Type 0, BuildingBlock: HICVOG_clean_sbu_0, # of connection points: 7
#     Node 4, Type 0, BuildingBlock: HICVOG_clean_sbu_0, # of connection points: 7
#     Node 5, Type 0, BuildingBlock: HICVOG_clean_sbu_0, # of connection points: 7
#     Node 6, Type 0, BuildingBlock: HICVOG_clean_sbu_0, # of connection points: 7
#     Node 7, Type 0, BuildingBlock: HICVOG_clean_sbu_0, # of connection points: 7
#     Node 8, Type 0, BuildingBlock: HICVOG_clean_sbu_0, # of connection points: 7
#     Node 9, Type 0, BuildingBlock: HICVOG_clean_sbu_0, # of connection points: 7
#     Node 10, Type 0, BuildingBlock: HICVOG_clean_sbu_0, # of connection points: 7
#     Node 11, Type 0, BuildingBlock: HICVOG_clean_sbu_0, # of connection points: 7
#     Node 12, Type 0, BuildingBlock: HICVOG_clean_sbu_0, # of connection points: 7
#     Node 13, Type 0, BuildingBlock: HICVOG_clean_sbu_0, # of connection points: 7
#     Node 14, Type 0, BuildingBlock: HICVOG_clean_sbu_0, # of connection points: 7
#     Node 15, Type 0, BuildingBlock: HICVOG_clean_sbu_0, # of connection points: 7
#     Edge 16, Type (0, 0), BuildingBlock: EZIPEK_clean_linker_0, # of connection points: 2
#     Edge 17, Type (0, 0), BuildingBlock: EZIPEK_clean_linker_0, # of connection points: 2
#     Edge 18, Type (0, 0), BuildingBlock: EZIPEK_clean_linker_0, # of connection points: 2
#     Edge 19, Type (0, 0), BuildingBlock: EZIPEK_clean_linker_0, # of connection points: 2
#     Edge 20, Type (0, 0), BuildingBlock: EZIPEK_clean_linker_0, # of connection points: 2
#     Edge 21, Type (0, 0), BuildingBlock: EZIPEK_clean_linker_0, # of connection points: 2
#     Edge 22, Type (0, 0), BuildingBlock: EZIPEK_clean_linker_0, # of connection points: 2
#     Edge 23, Type (0, 0), BuildingBlock: EZIPEK_clean_linker_0, # of connection points: 2
#     Edge 24, Type (0, 0), BuildingBlock: EZIPEK_clean_linker_0, # of connection points: 2
#     Edge 25, Type (0, 0), BuildingBlock: EZIPEK_clean_linker_0, # of connection points: 2
#     Edge 26, Type (0, 0), BuildingBlock: EZIPEK_clean_linker_0, # of connection points: 2
#     Edge 27, Type (0, 0), BuildingBlock: EZIPEK_clean_linker_0, # of connection points: 2
#     Edge 28, Type (0, 0), BuildingBlock: EZIPEK_clean_linker_0, # of connection points: 2
#     Edge 29, Type (0, 0), BuildingBlock: EZIPEK_clean_linker_0, # of connection points: 2
#     Edge 30, Type (0, 0), BuildingBlock: EZIPEK_clean_linker_0, # of connection points: 2
#     Edge 31, Type (0, 0), BuildingBlock: EZIPEK_clean_linker_0, # of connection points: 2
#     Edge 32, Type (0, 0), BuildingBlock: EZIPEK_clean_linker_0, # of connection points: 2
#     Edge 33, Type (0, 0), BuildingBlock: EZIPEK_clean_linker_0, # of connection points: 2
#     Edge 34, Type (0, 0), BuildingBlock: EZIPEK_clean_linker_0, # of connection points: 2
#     Edge 35, Type (0, 0), BuildingBlock: EZIPEK_clean_linker_0, # of connection points: 2
#     Edge 36, Type (0, 0), BuildingBlock: EZIPEK_clean_linker_0, # of connection points: 2
#     Edge 37, Type (0, 0), BuildingBlock: EZIPEK_clean_linker_0, # of connection points: 2
#     Edge 38, Type (0, 0), BuildingBlock: EZIPEK_clean_linker_0, # of connection points: 2
#     Edge 39, Type (0, 0), BuildingBlock: EZIPEK_clean_linker_0, # of connection points: 2
#     Edge 40, Type (0, 0), BuildingBlock: EZIPEK_clean_linker_0, # of connection points: 2
#     Edge 41, Type (0, 0), BuildingBlock: EZIPEK_clean_linker_0, # of connection points: 2
#     Edge 42, Type (0, 0), BuildingBlock: EZIPEK_clean_linker_0, # of connection points: 2
#     Edge 43, Type (0, 0), BuildingBlock: EZIPEK_clean_linker_0, # of connection points: 2
#     Edge 44, Type (0, 0), BuildingBlock: EZIPEK_clean_linker_0, # of connection points: 2
#     Edge 45, Type (0, 0), BuildingBlock: EZIPEK_clean_linker_0, # of connection points: 2
#     Edge 46, Type (0, 0), BuildingBlock: EZIPEK_clean_linker_0, # of connection points: 2
#     Edge 47, Type (0, 0), BuildingBlock: EZIPEK_clean_linker_0, # of connection points: 2
#     Edge 48, Type (0, 0), BuildingBlock: EZIPEK_clean_linker_0, # of connection points: 2
#     Edge 49, Type (0, 0), BuildingBlock: EZIPEK_clean_linker_0, # of connection points: 2
#     Edge 50, Type (0, 0), BuildingBlock: EZIPEK_clean_linker_0, # of connection points: 2
#     Edge 51, Type (0, 0), BuildingBlock: EZIPEK_clean_linker_0, # of connection points: 2
#     Edge 52, Type (0, 0), BuildingBlock: EZIPEK_clean_linker_0, # of connection points: 2
#     Edge 53, Type (0, 0), BuildingBlock: EZIPEK_clean_linker_0, # of connection points: 2
#     Edge 54, Type (0, 0), BuildingBlock: EZIPEK_clean_linker_0, # of connection points: 2
#     Edge 55, Type (0, 0), BuildingBlock: EZIPEK_clean_linker_0, # of connection points: 2
#     Edge 56, Type (0, 0), BuildingBlock: EZIPEK_clean_linker_0, # of connection points: 2
#     Edge 57, Type (0, 0), BuildingBlock: EZIPEK_clean_linker_0, # of connection points: 2
#     Edge 58, Type (0, 0), BuildingBlock: EZIPEK_clean_linker_0, # of connection points: 2
#     Edge 59, Type (0, 0), BuildingBlock: EZIPEK_clean_linker_0, # of connection points: 2
#     Edge 60, Type (0, 0), BuildingBlock: EZIPEK_clean_linker_0, # of connection points: 2
#     Edge 61, Type (0, 0), BuildingBlock: EZIPEK_clean_linker_0, # of connection points: 2
#     Edge 62, Type (0, 0), BuildingBlock: EZIPEK_clean_linker_0, # of connection points: 2
#     Edge 63, Type (0, 0), BuildingBlock: EZIPEK_clean_linker_0, # of connection points: 2
#     Edge 64, Type (0, 0), BuildingBlock: EZIPEK_clean_linker_0, # of connection points: 2
#     Edge 65, Type (0, 0), BuildingBlock: EZIPEK_clean_linker_0, # of connection points: 2
#     Edge 66, Type (0, 0), BuildingBlock: EZIPEK_clean_linker_0, # of connection points: 2
#     Edge 67, Type (0, 0), BuildingBlock: EZIPEK_clean_linker_0, # of connection points: 2
#     Edge 68, Type (0, 0), BuildingBlock: EZIPEK_clean_linker_0, # of connection points: 2
#     Edge 69, Type (0, 0), BuildingBlock: EZIPEK_clean_linker_0, # of connection points: 2
#     Edge 70, Type (0, 0), BuildingBlock: EZIPEK_clean_linker_0, # of connection points: 2
#     Edge 71, Type (0, 0), BuildingBlock: EZIPEK_clean_linker_0, # of connection points: 2
# Relax obj value: 0.256
# Max RMSD: 0.230
# Mean RMSD: 0.230
data_MOF--net-xfh--node1-HICVOG_clean_sbu_0--edge1-EZIPEK_clean_linker_0
_symmetry_space_group_name_H-M    P1
_symmetry_Int_Tables_number       1
_symmetry_cell_setting            triclinic
loop_
_symmetry_equiv_pos_as_xyz
'x, y, z'
_cell_length_a     23.609135
_cell_length_b     23.597651
_cell_length_c     50.561993
_cell_angle_alpha  90.00533
_cell_angle_beta   90.112735
_cell_angle_gamma 90.206189
loop_
_atom_site_label
_atom_site_type_symbol
_atom_site_fract_x
_atom_site_fract_y
_atom_site_fract_z
_atom_type_partial_charge
Zn0 Zn 0.37421 0.06276 0.10175 0.0
C1 C 0.47883 0.07923 0.04075 0.0
N2 N 0.51475 0.05981 0.05925 0.0
C3 C 0.48623 0.06554 0.08171 0.0
N4 N 0.4345 0.08684 0.07799 0.0
N5 N 0.42837 0.0992 0.05258 0.0
C6 C 0.31578 0.12818 0.00221 0.0
O7 O 0.30232 0.07899 0.01249 0.0
O8 O 0.40763 0.04563 0.137 0.0
Zn9 Zn 0.35157 0.14574 0.05403 0.0
N10 N 0.34858 0.99105 0.08723 0.0
C11 C 0.31527 0.93667 0.0506 0.0
C12 C 0.33392 0.98796 0.06133 0.0
C13 C 0.34687 0.94427 0.10273 0.0
N14 N 0.31108 0.89048 0.06648 0.0
C15 C 0.32663 0.89325 0.09233 0.0
O16 O 0.27599 0.10274 0.06892 0.0
C17 C 0.26468 0.10031 0.09371 0.0
O18 O 0.30518 0.11245 0.10914 0.0
H19 H 0.33691 1.02515 0.04929 0.0
H20 H 0.35963 0.94699 0.12316 0.0
C21 C 0.32141 0.25822 0.08539 0.0
C22 C 0.33906 0.30937 0.09881 0.0
C23 C 0.43475 0.28297 0.09082 0.0
C24 C 0.41744 0.23389 0.07771 0.0
N25 N 0.36151 0.22119 0.07506 0.0
N26 N 0.3957 0.31893 0.10093 0.0
H27 H 0.27681 0.24846 0.08334 0.0
C28 C 0.39979 0.07303 0.15821 0.0
O29 O 0.36531 0.11657 0.15855 0.0
O30 O 0.33576 0.16697 0.01685 0.0
H31 H 0.44895 0.20593 0.06946 0.0
H32 H 0.30329 0.93389 0.02998 0.0
H33 H 0.47939 0.29256 0.09291 0.0
Zn34 Zn 0.68954 0.61134 0.31006 0.0
C35 C 0.7639 0.74372 0.32823 0.0
N36 N 0.74049 0.77305 0.30862 0.0
C37 C 0.73429 0.73523 0.28881 0.0
N38 N 0.74446 0.68068 0.29887 0.0
N39 N 0.76906 0.68891 0.32197 0.0
C40 C 0.80115 0.65682 0.39229 0.0
O41 O 0.75599 0.62719 0.38589 0.0
O42 O 0.65243 0.59048 0.27686 0.0
Zn43 Zn 0.82114 0.63832 0.33895 0.0
N44 N 0.62737 0.62594 0.33729 0.0
C45 C 0.60565 0.67561 0.37711 0.0
C46 C 0.64135 0.66531 0.35576 0.0
C47 C 0.57781 0.5948 0.3401 0.0
N48 N 0.55707 0.64539 0.37977 0.0
C49 C 0.54125 0.60455 0.36224 0.0
O50 O 0.80275 0.55672 0.34627 0.0
C51 C 0.76768 0.51907 0.33927 0.0
O52 O 0.72588 0.53242 0.32422 0.0
H53 H 0.68102 0.68747 0.35438 0.0
H54 H 0.56717 0.56265 0.32565 0.0
C55 C 0.9293 0.60674 0.33317 0.0
C56 C 0.98088 0.59323 0.32165 0.0
C57 C 0.94992 0.63264 0.28127 0.0
C58 C 0.89772 0.6455 0.29295 0.0
N59 N 0.88918 0.63292 0.31885 0.0
N60 N 0.99075 0.60667 0.29592 0.0
H61 H 0.92051 0.59572 0.35352 0.0
C62 C 0.69023 0.57121 0.26166 0.0
O63 O 0.74137 0.56218 0.27105 0.0
O64 O 0.83762 0.66867 0.37473 0.0
H65 H 0.86457 0.66488 0.28162 0.0
H66 H 0.61674 0.7073 0.39169 0.0
H67 H 0.95767 0.6428 0.26073 0.0
Zn68 Zn 0.19891 0.051 0.59144 0.0
C69 C 0.11871 0.9706 0.53453 0.0
N70 N 0.08017 0.95851 0.55329 0.0
C71 C 0.10372 0.97627 0.57597 0.0
N72 N 0.15715 0.99382 0.57208 0.0
N73 N 0.16976 0.98321 0.54717 0.0
C74 C 0.28658 0.93609 0.50532 0.0
O75 O 0.29941 0.98685 0.51417 0.0
O76 O 0.17752 0.05374 0.62946 0.0
Zn77 Zn 0.23887 0.92904 0.55542 0.0
N78 N 0.17912 0.12313 0.57704 0.0
C79 C 0.12224 0.1874 0.55231 0.0
C80 C 0.13651 0.13196 0.55944 0.0
C81 C 0.20763 0.16697 0.58784 0.0
N82 N 0.15007 0.23162 0.56377 0.0
C83 C 0.19228 0.2222 0.58157 0.0
O84 O 0.31334 0.96703 0.57217 0.0
C85 C 0.32433 1.01142 0.58595 0.0
O86 O 0.2847 0.04449 0.59273 0.0
H87 H 0.11331 0.0966 0.5515 0.0
H88 H 0.24065 0.15883 0.60214 0.0
C89 C 0.26556 0.82286 0.58834 0.0
C90 C 0.25052 0.77217 0.60242 0.0
C91 C 0.15362 0.79406 0.59479 0.0
C92 C 0.16859 0.84232 0.58043 0.0
N93 N 0.22387 0.85736 0.57767 0.0
N94 N 0.19447 0.76031 0.60514 0.0
H95 H 0.30969 0.83352 0.58534 0.0
C96 C 0.21227 0.07307 0.64642 0.0
O97 O 0.26229 0.09165 0.63918 0.0
O98 O 0.26115 0.90111 0.52015 0.0
H99 H 0.13596 0.86731 0.57127 0.0
H100 H 0.08824 0.19521 0.53844 0.0
H101 H 0.10948 0.78269 0.59716 0.0
Zn102 Zn 0.79445 0.46406 0.84912 0.0
C103 C 0.82961 0.3464 0.7945 0.0
N104 N 0.8057 0.31199 0.81252 0.0
C105 C 0.79815 0.34487 0.83358 0.0
N106 N 0.81619 0.39794 0.82936 0.0
N107 N 0.83955 0.40031 0.80566 0.0
C108 C 0.89732 0.46888 0.75255 0.0
O109 O 0.8468 0.44834 0.75743 0.0
O110 O 0.76458 0.44069 0.88386 0.0
Zn111 Zn 0.89537 0.47211 0.80785 0.0
N112 N 0.73494 0.50238 0.82956 0.0
C113 C 0.69495 0.54142 0.79024 0.0
C114 C 0.73914 0.51352 0.80324 0.0
C115 C 0.68848 0.51821 0.84333 0.0
N116 N 0.64842 0.55743 0.80413 0.0
C117 C 0.64443 0.54668 0.83048 0.0
O118 O 0.85585 0.55298 0.81928 0.0
C119 C 0.84969 0.56441 0.84395 0.0
O120 O 0.85511 0.52227 0.85914 0.0
H121 H 0.7764 0.50089 0.79241 0.0
H122 H 0.68574 0.5087 0.86422 0.0
C123 C 1.00722 0.49476 0.84143 0.0
C124 C 0.04566 0.47843 0.86233 0.0
C125 C 0.98993 0.39506 0.86845 0.0
C126 C 0.95405 0.4104 0.84784 0.0
N127 N 0.96135 0.46018 0.83481 0.0
N128 N 1.03419 0.4289 0.87505 0.0
H129 H 1.01418 0.53379 0.83067 0.0
C130 C 0.80292 0.42373 0.89942 0.0
O131 O 0.85358 0.41366 0.88988 0.0
O132 O 0.92887 0.48361 0.77171 0.0
H133 H 0.91997 0.38248 0.84233 0.0
H134 H 0.69771 0.55033 0.7693 0.0
H135 H 0.98304 0.35576 0.87901 0.0
Zn136 Zn 0.68096 1.04034 0.89443 0.0
C137 C 0.60422 0.96666 0.95421 0.0
N138 N 0.56438 0.9534 0.9361 0.0
C139 C 0.58698 0.96867 0.91295 0.0
N140 N 0.64094 0.98577 0.91594 0.0
N141 N 0.65473 0.97912 0.94105 0.0
C142 C 0.77017 0.94757 0.9845 0.0
O143 O 0.77494 0.99828 0.97405 0.0
O144 O 0.66876 1.03083 0.85586 0.0
Zn145 Zn 0.72845 0.92991 0.9346 0.0
N146 N 0.65374 0.11374 0.90472 0.0
C147 C 0.59363 0.17542 0.9292 0.0
C148 C 0.61045 0.12081 0.92208 0.0
C149 C 0.68077 0.1589 0.89418 0.0
N150 N 0.62077 0.22084 0.91855 0.0
C151 C 0.66389 0.21354 0.9011 0.0
O152 O 0.80202 0.97198 0.91837 0.0
C153 C 0.80978 1.01551 0.90353 0.0
O154 O 0.76693 1.04306 0.89549 0.0
H155 H 0.58981 0.0846 0.93061 0.0
H156 H 0.71538 0.15223 0.88056 0.0
C157 C 0.75776 0.82308 0.90155 0.0
C158 C 0.74249 0.77063 0.88898 0.0
C159 C 0.64691 0.78699 0.90164 0.0
C160 C 0.6623 0.83695 0.9145 0.0
N161 N 0.71672 0.85577 0.91384 0.0
N162 N 0.68697 0.75518 0.88956 0.0
H163 H 0.80164 0.83633 0.90226 0.0
C164 C 0.70451 1.00174 0.84289 0.0
O165 O 0.74286 0.97191 0.85548 0.0
O166 O 0.75148 0.90694 0.97063 0.0
H167 H 0.63066 0.86078 0.92502 0.0
H168 H 0.55946 0.18159 0.94312 0.0
H169 H 0.60333 0.77271 0.90187 0.0
Zn170 Zn 0.40102 0.4751 0.68447 0.0
C171 C 0.31378 0.34475 0.65867 0.0
N172 N 0.31879 0.3135 0.68045 0.0
C173 C 0.33671 0.35026 0.69908 0.0
N174 N 0.34541 0.40399 0.68768 0.0
N175 N 0.32776 0.39884 0.66305 0.0
C176 C 0.31241 0.42455 0.59212 0.0
O177 O 0.36252 0.41019 0.6012 0.0
O178 O 0.43098 0.48453 0.72048 0.0
Zn179 Zn 0.30481 0.46338 0.64343 0.0
N180 N 0.46829 0.4612 0.6598 0.0
C181 C 0.50993 0.39251 0.63122 0.0
C182 C 0.46853 0.4082 0.64935 0.0
C183 C 0.51044 0.49944 0.65285 0.0
N184 N 0.55128 0.42982 0.62448 0.0
C185 C 0.55378 0.48323 0.63454 0.0
O186 O 0.36464 0.52132 0.63232 0.0
C187 C 0.36027 0.56537 0.64616 0.0
O188 O 0.36575 0.55633 0.671 0.0
H189 H 0.43667 0.37795 0.6552 0.0
H190 H 0.51094 0.54128 0.6616 0.0
C191 C 0.19542 0.50364 0.64973 0.0
C192 C 0.15964 0.55001 0.65397 0.0
C193 C 0.2147 0.57424 0.69169 0.0
C194 C 0.25267 0.53104 0.68564 0.0
N195 N 0.24475 0.50044 0.66314 0.0
N196 N 0.17082 0.58453 0.67496 0.0
H197 H 0.18795 0.47411 0.63378 0.0
C198 C 0.42949 0.53255 0.73152 0.0
O199 O 0.41859 0.57798 0.71751 0.0
O200 O 0.27565 0.4427 0.60821 0.0
H201 H 0.28942 0.52434 0.69793 0.0
H202 H 0.50976 0.35032 0.62283 0.0
H203 H 0.22169 0.60119 0.7087 0.0
Zn204 Zn 0.86781 0.15578 0.43354 0.0
C205 C 1.00798 0.11084 0.41295 0.0
N206 N 1.03135 0.12414 0.4362 0.0
C207 C 0.99074 0.11307 0.45425 0.0
N208 N 0.93979 0.10261 0.44077 0.0
N209 N 0.95386 0.09464 0.41575 0.0
C210 C 0.9353 0.0861 0.34108 0.0
O211 O 0.92998 0.13586 0.35239 0.0
O212 O 0.83918 0.17613 0.4693 0.0
Zn213 Zn 0.91224 1.0429 0.39279 0.0
N214 N 0.88423 0.23228 0.41556 0.0
C215 C 0.9534 0.30591 0.41136 0.0
C216 C 0.9367 0.25302 0.42101 0.0
C217 C 0.84653 0.26492 0.40103 0.0
N218 N 0.9166 0.33763 0.39702 0.0
C219 C 0.86299 0.31989 0.3915 0.0
O220 O 0.8285 0.0548 0.38741 0.0
C221 C 0.78625 0.08259 0.39571 0.0
O222 O 0.79424 0.1203 0.41366 0.0
H223 H 0.96566 0.22848 0.43294 0.0
H224 H 0.80427 0.24914 0.39723 0.0
C225 C 0.8941 0.92557 0.39237 0.0
C226 C 0.896 0.86975 0.40152 0.0
C227 C 0.95198 0.89878 0.43776 0.0
C228 C 0.94861 0.95479 0.42895 0.0
N229 N 0.92019 0.967 0.40632 0.0
N230 N 0.9251 0.85728 0.42396 0.0
H231 H 0.8711 0.93631 0.37451 0.0
C232 C 0.80195 0.14436 0.47968 0.0
O233 O 0.78191 0.10093 0.46638 0.0
O234 O 0.93758 1.04217 0.35549 0.0
H235 H 0.96829 0.98815 0.43997 0.0
H236 H 0.9955 0.32195 0.41547 0.0
H237 H 0.97534 0.8884 0.45547 0.0
Zn238 Zn 0.29237 0.62497 0.14571 0.0
C239 C 0.24042 0.7065 0.21246 0.0
N240 N 0.25768 0.69147 0.18571 0.0
C241 C 0.3006 0.72906 0.17471 0.0
N242 N 0.27185 0.68261 0.1726 0.0
N243 N 0.23866 0.6727 0.19095 0.0
C244 C 0.15271 0.53614 0.22828 0.0
O245 O 0.16283 0.49349 0.21236 0.0
O246 O 0.31579 0.66104 0.1111 0.0
Zn247 Zn 0.18419 0.60335 0.18368 0.0
N248 N 0.35216 0.58459 0.16249 0.0
C249 C 0.39314 0.54158 0.20059 0.0
C250 C 0.34945 0.57216 0.18871 0.0
C251 C 0.39446 0.56469 0.14732 0.0
N252 N 0.4372 0.52369 0.18557 0.0
C253 C 0.43838 0.53418 0.15913 0.0
O254 O 0.22249 0.52527 0.1706 0.0
C255 C 0.23857 0.51561 0.14687 0.0
O256 O 0.24443 0.5585 0.13203 0.0
H257 H 0.31305 0.58462 0.2001 0.0
H258 H 0.39441 0.57368 0.12632 0.0
C259 C 0.07229 0.59012 0.15226 0.0
C260 C 1.03562 0.60677 0.13102 0.0
C261 C 0.09832 0.68363 0.12206 0.0
C262 C 0.1335 0.66734 0.14277 0.0
N263 N 0.12115 0.62083 0.15744 0.0
N264 N 0.05093 0.6532 0.11671 0.0
H265 H 0.06213 0.5535 0.16424 0.0
C266 C 0.27436 0.66792 0.09527 0.0
O267 O 0.22303 0.65586 0.10329 0.0
O268 O 0.15139 0.58627 0.21918 0.0
H269 H 0.17182 0.69074 0.14655 0.0
H270 H 0.39187 0.53192 0.22149 0.0
H271 H 0.10884 0.72026 0.11015 0.0
Zn272 Zn 0.88912 0.53701 0.59169 0.0
C273 C 0.97602 0.60648 0.53345 0.0
N274 N 1.01573 0.61768 0.55185 0.0
C275 C 0.99209 0.60253 0.57474 0.0
N276 N 0.93838 0.58546 0.57117 0.0
N277 N 0.92456 0.59552 0.54633 0.0
C278 C 0.85419 0.69271 0.50207 0.0
O279 O 0.90626 0.70441 0.5095 0.0
O280 O 0.92546 0.50396 0.62463 0.0
Zn281 Zn 0.8469 0.64252 0.5535 0.0
N282 N 0.86467 0.47552 0.56894 0.0
C283 C 0.77864 0.45269 0.54731 0.0
C284 C 0.82439 0.48891 0.55082 0.0
C285 C 0.86703 0.4229 0.5796 0.0
N286 N 0.77494 0.40582 0.56267 0.0
C287 C 0.81782 0.38919 0.57904 0.0
O288 O 0.77446 0.59579 0.56848 0.0
C289 C 0.76908 0.57704 0.59221 0.0
O290 O 0.81394 0.57066 0.60585 0.0
H291 H 0.82481 0.52969 0.54119 0.0
H292 H 0.90327 0.41191 0.59156 0.0
C293 C 0.82236 0.76006 0.58261 0.0
C294 C 0.81834 0.78891 0.60772 0.0
C295 C 0.86548 0.71137 0.6278 0.0
C296 C 0.86986 0.68425 0.60355 0.0
N297 N 0.84836 0.70735 0.58123 0.0
N298 N 0.84 0.76221 0.62924 0.0
H299 H 0.80406 0.77856 0.565 0.0
C300 C 0.92511 0.53693 0.64446 0.0
O301 O 0.91374 0.59043 0.64071 0.0
O302 O 0.82029 0.67033 0.51843 0.0
H303 H 0.88854 0.64336 0.60262 0.0
H304 H 0.7442 0.46393 0.5342 0.0
H305 H 0.88208 0.6922 0.64559 0.0
Zn306 Zn 0.17575 0.10877 0.80789 0.0
C307 C 0.26749 0.23728 0.82812 0.0
N308 N 0.24453 0.2693 0.80931 0.0
C309 C 0.22998 0.23225 0.79017 0.0
N310 N 0.23604 0.1767 0.79988 0.0
N311 N 0.26576 0.18215 0.82191 0.0
C312 C 0.29705 0.15139 0.88918 0.0
O313 O 0.24605 0.15779 0.87924 0.0
O314 O 0.14399 0.09277 0.77234 0.0
Zn315 Zn 0.31443 0.12492 0.83702 0.0
N316 N 0.11141 0.12565 0.83402 0.0
C317 C 0.09082 0.18357 0.87141 0.0
C318 C 0.12484 0.16985 0.84991 0.0
C319 C 0.06301 0.09385 0.83916 0.0
N320 N 0.04366 0.15251 0.87653 0.0
C321 C 1.02746 0.10764 0.86132 0.0
O322 O 0.28371 0.04815 0.84349 0.0
C323 C 0.24584 1.0123 0.83799 0.0
O324 O 0.20489 1.02684 0.82268 0.0
H325 H 0.16314 0.19306 0.84622 0.0
H326 H 0.05264 0.05812 0.82663 0.0
C327 C 0.42476 0.09561 0.83025 0.0
C328 C 0.45526 0.04633 0.8243 0.0
C329 C 0.40785 1.04151 0.78301 0.0
C330 C 0.37091 0.08385 0.79137 0.0
N331 N 0.37911 0.1086 0.81532 0.0
N332 N 0.44673 1.02118 0.80038 0.0
H333 H 0.42927 0.11549 0.84942 0.0
C334 C 0.18388 0.07295 0.7584 0.0
O335 O 0.23162 0.0588 0.76994 0.0
O336 O 0.33795 0.14303 0.87354 0.0
H337 H 0.33238 0.09087 0.78064 0.0
H338 H 0.10213 0.21864 0.88418 0.0
H339 H 0.40099 1.02018 0.76433 0.0
Zn340 Zn 0.68975 0.56159 0.09525 0.0
C341 C 0.60678 0.48154 0.03856 0.0
N342 N 0.57535 0.45758 0.0576 0.0
C343 C 0.59946 0.47637 0.08004 0.0
N344 N 0.64853 0.50325 0.07522 0.0
N345 N 0.65847 0.49744 0.04979 0.0
C346 C 0.77097 0.4432 0.01123 0.0
O347 O 0.77991 0.49533 0.01937 0.0
O348 O 0.66609 0.5791 0.13261 0.0
Zn349 Zn 0.73006 0.44533 0.05998 0.0
N350 N 0.68674 0.63277 0.07649 0.0
C351 C 0.66934 0.69657 0.04084 0.0
C352 C 0.66721 0.64188 0.05153 0.0
C353 C 0.70924 0.67564 0.09082 0.0
N354 N 0.69212 0.73961 0.05531 0.0
C355 C 0.71267 0.72994 0.08004 0.0
O356 O 0.80591 0.48839 0.07188 0.0
C357 C 0.81479 0.52389 0.09064 0.0
O358 O 0.77313 0.54878 0.10126 0.0
H359 H 0.65011 0.60744 0.0401 0.0
H360 H 0.72546 0.66707 0.11046 0.0
C361 C 0.74391 0.32896 0.0898 0.0
C362 C 0.74616 0.29871 0.11454 0.0
C363 C 0.70864 0.3801 0.13572 0.0
C364 C 0.70945 0.41005 0.11204 0.0
N365 N 0.72451 0.3845 0.08915 0.0
N366 N 0.72724 0.32611 0.1364 0.0
H367 H 0.75891 0.3092 0.07184 0.0
C368 C 0.65202 0.54467 0.15065 0.0
O369 O 0.64008 0.49212 0.14469 0.0
O370 O 0.75011 0.40706 0.02694 0.0
H371 H 0.70069 0.45457 0.1119 0.0
H372 H 0.65338 0.70464 0.02114 0.0
H373 H 0.69453 0.39976 0.15378 0.0
Zn374 Zn 0.31911 0.97288 0.34407 0.0
C375 C 0.35689 0.86442 0.28473 0.0
N376 N 0.34067 0.82637 0.30308 0.0
C377 C 0.33105 0.85698 0.32469 0.0
N378 N 0.3412 0.91207 0.3207 0.0
N379 N 0.35994 0.91881 0.2963 0.0
C380 C 0.48529 1.00311 0.25575 0.0
O381 O 0.52463 0.97259 0.26728 0.0
O382 O 0.2939 0.93861 0.37811 0.0
Zn383 Zn 0.41114 0.99257 0.30225 0.0
N384 N 0.25575 1.0087 0.32698 0.0
C385 C 0.20705 0.04579 0.28949 0.0
C386 C 0.25503 1.02087 0.30068 0.0
C387 C 0.21152 1.02209 0.34258 0.0
N388 N 0.16243 0.05904 0.30523 0.0
C389 C 0.16407 0.04838 0.33166 0.0
O390 O 0.36714 0.0687 0.31583 0.0
C391 C 0.36354 0.07851 0.34071 0.0
O392 O 0.37401 1.03629 0.35523 0.0
H393 H 0.29147 1.01179 0.28857 0.0
H394 H 0.21318 1.01209 0.36344 0.0
C395 C 0.52639 1.01497 0.33235 0.0
C396 C 0.56568 1.00128 0.35322 0.0
C397 C 0.50772 0.92194 0.36399 0.0
C398 C 0.4706 0.93486 0.34354 0.0
N399 N 0.4788 0.98123 0.3281 0.0
N400 N 0.55373 0.95498 0.36825 0.0
H401 H 0.53387 0.05141 0.31984 0.0
C402 C 0.33133 0.93091 0.39572 0.0
O403 O 0.38302 0.94847 0.39067 0.0
O404 O 0.43916 1.01398 0.26733 0.0
H405 H 0.4347 0.90806 0.34037 0.0
H406 H 0.20556 0.0551 0.26856 0.0
H407 H 0.50017 0.88534 0.3764 0.0
Zn408 Zn 0.23223 0.43969 0.4308 0.0
C409 C 0.09301 0.49418 0.40853 0.0
N410 N 0.06614 0.47864 0.43056 0.0
C411 C 0.10646 0.48023 0.44957 0.0
N412 N 0.15927 0.49068 0.43781 0.0
N413 N 0.14792 0.50444 0.41307 0.0
C414 C 0.18192 0.50913 0.34045 0.0
O415 O 0.21266 0.46911 0.35133 0.0
O416 O 0.25357 0.41348 0.46623 0.0
Zn417 Zn 0.19283 0.55465 0.39124 0.0
N418 N 0.22038 0.36794 0.40832 0.0
C419 C 0.15018 0.3072 0.38926 0.0
C420 C 0.16511 0.35489 0.40406 0.0
C421 C 0.26216 0.33232 0.39864 0.0
N422 N 0.19105 0.27234 0.37982 0.0
C423 C 0.24712 0.28249 0.38388 0.0
O424 O 0.27673 0.54347 0.38767 0.0
C425 C 0.31805 0.51706 0.39779 0.0
O426 O 0.30833 0.47951 0.41562 0.0
H427 H 0.13263 0.38104 0.41262 0.0
H428 H 0.30618 0.34148 0.40285 0.0
C429 C 0.20675 0.67332 0.3893 0.0
C430 C 0.20504 0.72902 0.39869 0.0
C431 C 0.15815 0.69793 0.43721 0.0
C432 C 0.16164 0.64211 0.42821 0.0
N433 N 0.18483 0.63103 0.40422 0.0
N434 N 0.18038 0.74031 0.42234 0.0
H435 H 0.22682 0.66335 0.37063 0.0
C436 C 0.27628 0.45176 0.48026 0.0
O437 O 0.28653 0.50188 0.47001 0.0
O438 O 0.16575 0.55086 0.35427 0.0
H439 H 0.14495 0.608 0.43984 0.0
H440 H 0.10603 0.29718 0.3858 0.0
H441 H 0.13869 0.70753 0.45596 0.0
Zn442 Zn 0.89885 0.98339 0.18202 0.0
C443 C 0.83141 0.85038 0.16 0.0
N444 N 0.8513 0.82032 0.18029 0.0
C445 C 0.85497 0.85773 0.20052 0.0
N446 N 0.84511 0.91237 0.19066 0.0
N447 N 0.82491 0.90477 0.16658 0.0
C448 C 0.7991 0.94986 0.09702 0.0
O449 O 0.83965 0.98173 0.10691 0.0
O450 O 0.92679 1.01085 0.21657 0.0
Zn451 Zn 0.769 0.95107 0.14991 0.0
N452 N 0.96953 0.96709 0.15994 0.0
C453 C 1.02649 0.89433 0.14093 0.0
C454 C 0.97958 0.91126 0.15565 0.0
C455 C 1.00718 1.00731 0.15033 0.0
N456 N 0.06345 0.9337 0.1316 0.0
C457 C 0.05614 0.99017 0.13568 0.0
O458 O 0.7805 1.03465 0.14681 0.0
C459 C 0.81711 0.07232 0.15198 0.0
O460 O 0.86221 0.05893 0.16477 0.0
H461 H 0.95151 0.87983 0.16395 0.0
H462 H 1.00017 0.05171 0.15449 0.0
C463 C 0.65284 0.95817 0.15317 0.0
C464 C 0.59957 0.95959 0.16489 0.0
C465 C 0.63835 0.92411 0.2046 0.0
C466 C 0.69213 0.92479 0.19304 0.0
N467 N 0.69797 0.94134 0.16746 0.0
N468 N 0.59312 0.94252 0.19038 0.0
H469 H 0.65907 0.97328 0.13318 0.0
C470 C 0.89089 1.03538 0.23121 0.0
O471 O 0.83891 1.04253 0.22251 0.0
O472 O 0.76251 0.92802 0.11235 0.0
H473 H 0.72874 0.9125 0.2042 0.0
H474 H 1.03417 0.8498 0.13741 0.0
H475 H 0.63283 0.91067 0.22487 0.0
Zn476 Zn 0.39099 0.5347 0.89745 0.0
C477 C 0.47729 0.6135 0.95363 0.0
N478 N 0.51585 0.62033 0.93419 0.0
C479 C 0.48956 0.60317 0.9123 0.0
N480 N 0.43623 0.58716 0.91739 0.0
N481 N 0.42484 0.60042 0.94211 0.0
C482 C 0.28874 0.69021 0.98203 0.0
O483 O 0.24288 0.68117 0.9679 0.0
O484 O 0.4184 0.53315 0.86037 0.0
Zn485 Zn 0.34922 0.64843 0.93604 0.0
N486 N 0.40167 0.46061 0.91235 0.0
C487 C 0.42783 0.39473 0.94592 0.0
C488 C 0.42238 0.45053 0.93701 0.0
C489 C 0.3845 0.41756 0.89665 0.0
N490 N 0.41016 0.35144 0.93017 0.0
C491 C 0.38824 0.36196 0.90577 0.0
O492 O 0.27235 0.60198 0.92575 0.0
C493 C 0.26355 0.5668 0.90668 0.0
O494 O 0.30587 0.54428 0.89546 0.0
H495 H 0.43571 0.48525 0.94935 0.0
H496 H 0.36641 0.42689 0.87745 0.0
C497 C 0.32682 0.76191 0.90374 0.0
C498 C 0.32104 0.78895 0.87823 0.0
C499 C 0.36082 0.7066 0.85858 0.0
C500 C 0.36619 0.68082 0.88314 0.0
N501 N 0.34963 0.70768 0.90558 0.0
N502 N 0.33857 0.75911 0.85678 0.0
H503 H 0.31222 0.78311 0.92141 0.0
C504 C 0.38621 0.55081 0.84211 0.0
O505 O 0.33541 0.56972 0.84756 0.0
O506 O 0.33701 0.68407 0.97149 0.0
H507 H 0.38095 0.63793 0.884 0.0
H508 H 0.4451 0.38601 0.96532 0.0
H509 H 0.37328 0.68451 0.84081 0.0
Zn510 Zn 0.7975 0.12504 0.64377 0.0
C511 C 0.73712 0.22465 0.70072 0.0
N512 N 0.74132 0.26324 0.68123 0.0
C513 C 0.75144 0.23269 0.65952 0.0
N514 N 0.75373 0.17728 0.66481 0.0
N515 N 0.74026 0.16985 0.68995 0.0
C516 C 0.70406 0.05014 0.73184 0.0
O517 O 0.7487 1.03773 0.71763 0.0
O518 O 0.80285 0.15242 0.60625 0.0
Zn519 Zn 0.68215 0.10161 0.68493 0.0
N520 N 0.86758 0.10762 0.66215 0.0
C521 C 0.90403 0.05428 0.69838 0.0
C522 C 0.86248 0.08892 0.68746 0.0
C523 C 0.91353 0.09394 0.64757 0.0
N524 N 0.94629 1.03503 0.6827 0.0
C525 C 0.95213 0.05324 0.65733 0.0
O526 O 0.70852 1.0225 0.66687 0.0
C527 C 0.74042 1.00934 0.64732 0.0
O528 O 0.77163 0.04663 0.63707 0.0
H529 H 0.82439 0.09711 0.69842 0.0
H530 H 0.91518 0.10809 0.62722 0.0
C531 C 0.57398 0.08526 0.65234 0.0
C532 C 0.52353 0.1053 0.63971 0.0
C533 C 0.54716 0.19843 0.6542 0.0
C534 C 0.59587 0.17851 0.66675 0.0
N535 N 0.60925 0.12263 0.66567 0.0
N536 N 0.51258 0.16177 0.64113 0.0
H537 H 0.58463 1.04074 0.65159 0.0
C538 C 0.76038 0.13919 0.59173 0.0
O539 O 0.71688 0.11338 0.60257 0.0
O540 O 0.66388 0.07821 0.72157 0.0
H541 H 0.62318 0.20769 0.67727 0.0
H542 H 0.89984 1.03862 0.71839 0.0
H543 H 0.53677 0.24303 0.6549 0.0
C544 C 0.24134 0.44096 0.10946 0.0
C545 C 0.25456 0.45613 0.13623 0.0
C546 C 0.30552 0.36366 0.13959 0.0
C547 C 0.30047 0.35376 0.11186 0.0
N548 N 0.2674 0.38827 0.06986 0.0
N549 N 0.30595 0.43064 0.17599 0.0
C550 C 0.26899 0.3937 0.09672 0.0
C551 C 0.28782 0.41669 0.15117 0.0
N552 N 0.20045 0.47054 0.09628 0.0
N553 N 0.32709 0.32156 0.15514 0.0
H554 H 0.2942 0.46737 0.1858 0.0
H555 H 0.33647 0.40765 0.18626 0.0
H556 H 0.33987 0.2826 0.14744 0.0
H557 H 0.32672 0.32282 0.17573 0.0
H558 H 0.18511 0.4588 0.07774 0.0
H559 H 0.17709 0.50277 0.10517 0.0
H560 H 0.2516 0.41959 0.05736 0.0
H561 H 0.28559 0.35412 0.05997 0.0
C562 C 0.38738 0.59441 0.38384 0.0
C563 C 0.37769 0.53582 0.38921 0.0
C564 C 0.47752 0.5188 0.37511 0.0
C565 C 0.48377 0.57648 0.36705 0.0
N566 N 0.43639 0.66389 0.35701 0.0
N567 N 0.41303 0.44041 0.38461 0.0
C568 C 0.43589 0.61225 0.36918 0.0
C569 C 0.42272 0.49736 0.38336 0.0
N570 N 0.35234 0.63432 0.39436 0.0
N571 N 0.52406 0.48474 0.37577 0.0
H572 H 0.37396 0.42323 0.38987 0.0
H573 H 0.44218 0.41046 0.37811 0.0
H574 H 0.56389 0.49854 0.36957 0.0
H575 H 0.52378 0.4444 0.38414 0.0
H576 H 0.36068 0.67746 0.3927 0.0
H577 H 0.32011 0.62464 0.40771 0.0
H578 H 0.40025 0.68891 0.35539 0.0
H579 H 0.47076 0.67826 0.34588 0.0
C580 C 0.30608 0.68171 0.59551 0.0
C581 C 0.29195 0.72729 0.61233 0.0
C582 C 0.33796 0.67392 0.64895 0.0
C583 C 0.34 0.62261 0.63368 0.0
N584 N 0.31295 0.58107 0.59075 0.0
N585 N 0.29087 0.76422 0.65659 0.0
C586 C 0.32125 0.62754 0.6064 0.0
C587 C 0.30667 0.72242 0.63952 0.0
N588 N 0.30346 0.68941 0.56876 0.0
N589 N 0.36872 0.67844 0.67172 0.0
H590 H 0.27094 0.80122 0.65021 0.0
H591 H 0.29458 0.76031 0.67706 0.0
H592 H 0.39833 0.64828 0.67744 0.0
H593 H 0.37152 0.71585 0.68261 0.0
H594 H 0.31959 0.66021 0.55528 0.0
H595 H 0.29118 0.72766 0.56019 0.0
H596 H 0.29439 0.58315 0.57206 0.0
H597 H 0.3152 0.53965 0.59695 0.0
C598 C 0.15786 0.5849 0.89225 0.0
C599 C 0.20442 0.54734 0.89699 0.0
C600 C 0.15112 0.47395 0.87182 0.0
C601 C 0.10145 0.50788 0.87042 0.0
N602 N 0.05641 0.59475 0.8837 0.0
N603 N 0.23387 0.44943 0.89749 0.0
C604 C 0.10455 0.56326 0.88184 0.0
C605 C 0.19757 0.49004 0.88848 0.0
N606 N 0.16468 0.64157 0.89659 0.0
N607 N 0.15463 0.426 0.85679 0.0
H608 H 0.26477 0.45753 0.91178 0.0
H609 H 0.22817 0.40651 0.89349 0.0
H610 H 0.12266 0.41369 0.84368 0.0
H611 H 0.19188 0.40271 0.85503 0.0
H612 H 0.13461 0.67151 0.89102 0.0
H613 H 0.20234 0.65916 0.90361 0.0
H614 H 0.05438 0.63259 0.89427 0.0
H615 H 1.01753 0.58075 0.87634 0.0
C616 C 0.83106 0.67484 0.84161 0.0
C617 C 0.82696 0.62159 0.85528 0.0
C618 C 0.79027 0.67638 0.89387 0.0
C619 C 0.78365 0.72605 0.87866 0.0
N620 N 0.79334 0.7706 0.83621 0.0
N621 N 0.78098 0.57569 0.89268 0.0
C622 C 0.80286 0.7247 0.85196 0.0
C623 C 0.8015 0.6236 0.88114 0.0
N624 N 0.86337 0.67914 0.81937 0.0
N625 N 0.78269 0.67872 0.92061 0.0
H626 H 0.77463 0.53913 0.88193 0.0
H627 H 0.75956 0.57534 0.91069 0.0
H628 H 0.77363 0.71651 0.93045 0.0
H629 H 0.79159 0.64459 0.93304 0.0
H630 H 0.87136 0.71762 0.80996 0.0
H631 H 0.88755 0.64586 0.81209 0.0
H632 H 0.8003 0.77027 0.81586 0.0
H633 H 0.77524 0.80778 0.84346 0.0
C634 C 0.60645 0.56199 0.60846 0.0
C635 C 0.60653 0.51781 0.6277 0.0
C636 C 0.70989 0.5099 0.62174 0.0
C637 C 0.71184 0.55738 0.60406 0.0
N638 N 0.65976 0.6367 0.58621 0.0
N639 N 0.66192 0.46237 0.6579 0.0
C640 C 0.65936 0.58578 0.599 0.0
C641 C 0.65953 0.49655 0.63612 0.0
N642 N 0.55593 0.58037 0.59861 0.0
N643 N 0.75453 0.47369 0.62333 0.0
H644 H 0.626 0.45181 0.66889 0.0
H645 H 0.69999 0.44998 0.66661 0.0
H646 H 0.78988 0.47745 0.61139 0.0
H647 H 0.75296 0.43561 0.63375 0.0
H648 H 0.55276 0.60767 0.58248 0.0
H649 H 0.51717 0.56534 0.60566 0.0
H650 H 0.62378 0.66171 0.58406 0.0
H651 H 0.69698 0.6568 0.58027 0.0
C652 C 0.78199 0.3928 0.38732 0.0
C653 C 0.82589 0.36034 0.3753 0.0
C654 C 0.82275 0.42606 0.33674 0.0
C655 C 0.77929 0.45877 0.34884 0.0
N656 N 0.70963 0.46621 0.38314 0.0
N657 N 0.87838 0.3391 0.33589 0.0
C658 C 0.75619 0.43942 0.37325 0.0
C659 C 0.84292 0.3749 0.3491 0.0
N660 N 0.76726 0.38139 0.41288 0.0
N661 N 0.84646 0.44525 0.31378 0.0
H662 H 0.89309 0.30144 0.34423 0.0
H663 H 0.88901 0.34371 0.31604 0.0
H664 H 0.83096 0.48043 0.3036 0.0
H665 H 0.88286 0.42818 0.30544 0.0
H666 H 0.74091 0.40715 0.42411 0.0
H667 H 0.78412 0.34752 0.42349 0.0
H668 H 0.68696 0.45183 0.39946 0.0
H669 H 0.69065 0.50034 0.37348 0.0
C670 C 0.88418 0.60011 0.10521 0.0
C671 C 0.87394 0.54176 0.09982 0.0
C672 C 0.97213 0.52268 0.11549 0.0
C673 C 0.97856 0.58006 0.12403 0.0
N674 N 0.93139 0.66834 0.13338 0.0
N675 N 0.90692 0.4456 0.10488 0.0
C676 C 0.93149 0.61692 0.12094 0.0
C677 C 0.91763 0.50237 0.10638 0.0
N678 N 0.85053 0.64044 0.09398 0.0
N679 N 1.01822 0.488 0.11488 0.0
H680 H 0.86797 0.42914 0.09884 0.0
H681 H 0.93502 0.41511 0.1119 0.0
H682 H 0.05836 0.50117 0.12095 0.0
H683 H 1.01743 0.44786 0.1063 0.0
H684 H 0.85924 0.68362 0.09553 0.0
H685 H 0.81902 0.63063 0.08022 0.0
H686 H 0.89607 0.69477 0.13359 0.0
H687 H 0.964 0.68135 0.14598 0.0
C688 C 0.80819 0.928 0.64462 0.0
C689 C 0.75325 0.94883 0.63902 0.0
C690 C 0.73859 0.86475 0.60999 0.0
C691 C 0.79645 0.84851 0.61321 0.0
N692 N 0.88935 0.87624 0.62845 0.0
N693 N 0.66821 0.94023 0.61308 0.0
C694 C 0.83203 0.8841 0.62885 0.0
C695 C 0.71901 0.91814 0.62065 0.0
N696 N 0.83748 0.94947 0.66565 0.0
N697 N 0.70167 0.82851 0.59787 0.0
H698 H 0.65235 0.9776 0.62121 0.0
H699 H 0.64379 0.92329 0.5978 0.0
H700 H 0.71432 0.7898 0.58996 0.0
H701 H 0.6581 0.8352 0.59731 0.0
H702 H 0.87592 0.93288 0.67216 0.0
H703 H 0.81968 0.9792 0.6784 0.0
H704 H 0.91784 0.90315 0.63804 0.0
H705 H 0.90859 0.84653 0.61611 0.0
C706 C 0.96612 1.0206 0.87603 0.0
C707 C 0.97116 0.07897 0.86885 0.0
C708 C 0.8776 0.09466 0.88971 0.0
C709 C 0.86844 1.03558 0.89382 0.0
N710 N 0.90278 0.94107 0.88457 0.0
N711 N 0.92112 0.16666 0.86233 0.0
C712 C 0.91244 0.99807 0.88524 0.0
C713 C 0.92351 0.1142 0.87365 0.0
N714 N 1.01275 0.98673 0.87508 0.0
N715 N 0.8443 0.1332 0.90238 0.0
H716 H 0.9526 0.18196 0.84972 0.0
H717 H 0.88468 0.19144 0.86285 0.0
H718 H 0.81374 0.12178 0.91628 0.0
H719 H 0.85267 0.17648 0.9018 0.0
H720 H 1.01323 0.94568 0.88268 0.0
H721 H 0.05217 1.00136 0.86879 0.0
H722 H 0.93107 0.91256 0.8761 0.0
H723 H 0.86433 0.92275 0.88993 0.0
C724 C 0.74846 0.15417 0.14787 0.0
C725 C 0.80351 0.13247 0.1428 0.0
C726 C 0.82253 0.21968 0.11633 0.0
C727 C 0.76514 0.23764 0.11916 0.0
N728 N 0.67063 0.2121 0.13246 0.0
N729 N 0.88991 0.14155 0.11776 0.0
C730 C 0.72745 0.20154 0.13327 0.0
C731 C 0.83978 0.16443 0.12575 0.0
N732 N 0.71673 0.13129 0.16777 0.0
N733 N 0.86135 0.25603 0.10571 0.0
H734 H 0.90391 0.10199 0.12415 0.0
H735 H 0.9153 0.15982 0.10322 0.0
H736 H 0.8505 0.29595 0.09852 0.0
H737 H 0.90474 0.24812 0.10577 0.0
H738 H 0.67976 0.15019 0.17462 0.0
H739 H 0.73099 0.09809 0.17965 0.0
H740 H 0.64067 0.1845 0.1404 0.0
H741 H 0.65335 0.24506 0.12132 0.0
C742 C 0.71768 1.00854 0.37705 0.0
C743 C 0.72743 0.06603 0.38466 0.0
C744 C 0.6286 0.08576 0.36931 0.0
C745 C 0.62281 1.02967 0.35901 0.0
N746 N 0.67161 0.94462 0.34627 0.0
N747 N 0.69268 0.16219 0.38222 0.0
C748 C 0.67085 0.99383 0.36049 0.0
C749 C 0.68297 0.10559 0.37913 0.0
N750 N 0.75038 0.96638 0.38733 0.0
N751 N 0.58205 0.11966 0.37066 0.0
H752 H 0.73151 0.17848 0.3884 0.0
H753 H 0.66397 0.19304 0.37617 0.0
H754 H 0.54257 0.10703 0.36345 0.0
H755 H 0.58196 0.15841 0.38054 0.0
H756 H 0.74208 0.92379 0.38364 0.0
H757 H 0.77975 0.97318 0.40243 0.0
H758 H 0.7075 0.91913 0.34487 0.0
H759 H 0.63867 0.93302 0.33354 0.0
C760 C 0.34437 0.18771 0.33992 0.0
C761 C 0.33853 0.13378 0.35277 0.0
C762 C 0.29111 0.18566 0.38982 0.0
C763 C 0.28814 0.23629 0.37491 0.0
N764 N 0.30779 0.28355 0.33388 0.0
N765 N 0.292 0.08394 0.38917 0.0
C766 C 0.31363 0.23665 0.34941 0.0
C767 C 0.30859 0.1336 0.37766 0.0
N768 N 0.38145 0.19351 0.31941 0.0
N769 N 0.27626 0.18688 0.41593 0.0
H770 H 0.29775 0.0445 0.38083 0.0
H771 H 0.26498 0.08206 0.40542 0.0
H772 H 0.2627 0.22378 0.42533 0.0
H773 H 0.28338 0.15312 0.42879 0.0
H774 H 0.39115 0.23247 0.31083 0.0
H775 H 0.40768 0.16085 0.31307 0.0
H776 H 0.3193 0.28447 0.314 0.0
H777 H 0.2881 0.32037 0.34059 0.0
C778 C 0.15578 1.02761 0.14143 0.0
C779 C 0.1044 1.02919 0.12699 0.0
C780 C 0.15483 0.0859 0.09263 0.0
C781 C 0.20856 0.07623 0.10507 0.0
N782 N 0.25738 1.02362 0.13967 0.0
N783 N 0.05637 0.05586 0.087 0.0
C784 C 0.20812 0.04378 0.12918 0.0
C785 C 0.10438 0.05732 0.10206 0.0
N786 N 0.15491 1.00983 0.16715 0.0
N787 N 0.151 0.12435 0.07255 0.0
H788 H 1.01869 1.03772 0.09375 0.0
H789 H 0.05505 0.06944 0.06741 0.0
H790 H 0.18541 0.14826 0.06602 0.0
H791 H 0.11259 0.13705 0.06434 0.0
H792 H 0.18971 1.01346 0.17976 0.0
H793 H 0.11771 0.99729 0.17665 0.0
H794 H 0.2585 0.99463 0.15519 0.0
H795 H 0.29662 1.02896 0.13097 0.0
C796 C 0.33498 0.88292 0.85524 0.0
C797 C 0.30047 0.84929 0.87222 0.0
C798 C 0.22522 0.92271 0.86661 0.0
C799 C 0.25787 0.95151 0.847 0.0
N800 N 0.3375 0.94629 0.81767 0.0
N801 N 0.20732 0.83448 0.89053 0.0
C802 C 0.31077 0.92755 0.8399 0.0
C803 C 0.24397 0.86855 0.87703 0.0
N804 N 0.39189 0.87299 0.85406 0.0
N805 N 0.17695 0.94743 0.87575 0.0
H806 H 0.21927 0.79536 0.89826 0.0
H807 H 0.1643 0.84327 0.89237 0.0
H808 H 0.16185 0.9856 0.86812 0.0
H809 H 0.15425 0.93195 0.89187 0.0
H810 H 0.41984 0.89922 0.84378 0.0
H811 H 0.41171 0.84256 0.86583 0.0
H812 H 0.37363 0.92695 0.81009 0.0
H813 H 0.31931 0.9764 0.80519 0.0
C814 C 0.42201 0.05915 0.58387 0.0
C815 C 0.38298 1.02339 0.59736 0.0
C816 C 0.44185 1.03282 0.638 0.0
C817 C 0.4811 0.06858 0.62451 0.0
N818 N 0.51474 0.10514 0.58302 0.0
N819 N 0.36286 0.96607 0.6355 0.0
C820 C 0.47299 0.07817 0.5969 0.0
C821 C 0.39552 1.00689 0.62384 0.0
N822 N 0.40923 0.07683 0.55885 0.0
N823 N 0.44669 1.02629 0.66476 0.0
H824 H 0.329 0.94658 0.62574 0.0
H825 H 0.37223 0.94788 0.65374 0.0
H826 H 0.48009 1.04348 0.67567 0.0
H827 H 0.41587 1.00701 0.67642 0.0
H828 H 0.4317 0.10825 0.54888 0.0
H829 H 0.3739 0.0619 0.54851 0.0
H830 H 0.5146 0.1094 0.56254 0.0
H831 H 0.55238 0.11879 0.59188 0.0
C832 C 0.26143 0.11608 0.93256 0.0
C833 C 0.30453 0.14439 0.91805 0.0
C834 C 0.35964 0.15425 0.95883 0.0
C835 C 0.31165 0.13622 0.97348 0.0
N836 N 0.21244 0.11077 0.97423 0.0
N837 N 0.39381 0.19605 0.91846 0.0
C838 C 0.26109 0.12059 0.96034 0.0
C839 C 0.35353 0.16514 0.93143 0.0
N840 N 0.22328 0.08128 0.92017 0.0
N841 N 0.41175 0.15791 0.9706 0.0
H842 H 0.39268 0.20435 0.89833 0.0
H843 H 0.42635 0.21751 0.92824 0.0
H844 H 0.41887 0.14832 0.99044 0.0
H845 H 0.44901 0.1645 0.95999 0.0
H846 H 0.194 0.05661 0.93048 0.0
H847 H 0.22607 0.07063 0.9002 0.0
H848 H 0.17345 0.10395 0.96501 0.0
H849 H 0.20985 0.1155 0.99471 0.0
C850 C 0.65596 0.61263 0.21882 0.0
C851 C 0.68013 0.56661 0.23312 0.0
C852 C 0.70217 0.51965 0.19182 0.0
C853 C 0.66663 0.55792 0.17823 0.0
N854 N 0.61166 0.64388 0.17822 0.0
N855 N 0.71861 0.47164 0.233 0.0
C856 C 0.64403 0.60551 0.19151 0.0
C857 C 0.70113 0.51871 0.21958 0.0
N858 N 0.64811 0.66413 0.23065 0.0
N859 N 0.73962 0.48677 0.17823 0.0
H860 H 0.71585 0.46782 0.25351 0.0
H861 H 0.73 0.43423 0.22343 0.0
H862 H 0.74522 0.49068 0.15784 0.0
H863 H 0.76965 0.46136 0.18758 0.0
H864 H 0.63622 0.70037 0.22029 0.0
H865 H 0.65936 0.67269 0.25016 0.0
H866 H 0.58773 0.67491 0.18763 0.0
H867 H 0.60744 0.64345 0.15776 0.0
C868 C 0.35107 0.90873 0.46863 0.0
C869 C 0.29586 0.92207 0.47742 0.0
C870 C 0.25941 0.91473 0.43225 0.0
C871 C 0.3162 0.91219 0.42302 0.0
N872 N 0.41005 0.87757 0.43233 0.0
N873 N 0.19672 0.93788 0.46843 0.0
C874 C 0.36043 0.90024 0.44123 0.0
C875 C 0.24958 0.92407 0.45953 0.0
N876 N 0.39478 0.9063 0.48639 0.0
N877 N 0.21501 0.90462 0.41552 0.0
H878 H 0.18717 0.94258 0.4884 0.0
H879 H 0.16316 0.94837 0.45598 0.0
H880 H 0.22017 0.89111 0.39615 0.0
H881 H 0.17315 0.90112 0.42174 0.0
H882 H 0.4372 0.90391 0.48094 0.0
H883 H 0.38884 0.90974 0.50677 0.0
H884 H 0.4425 0.8637 0.44466 0.0
H885 H 0.41579 0.86586 0.41264 0.0
C886 C 0.87036 0.52523 0.7137 0.0
C887 C 0.9096 0.48806 0.72554 0.0
C888 C 0.96211 0.48217 0.68382 0.0
C889 C 0.91886 0.51448 0.67153 0.0
N890 N 0.82307 0.55051 0.67345 0.0
N891 N 0.98943 0.42515 0.72178 0.0
C892 C 0.87042 0.53128 0.68609 0.0
C893 C 0.95484 0.46482 0.71063 0.0
N894 N 0.83367 0.55591 0.72891 0.0
N895 N 1.01031 0.46939 0.6702 0.0
H896 H 0.98553 0.41239 0.74145 0.0
H897 H 1.01945 0.4024 0.71113 0.0
H898 H 1.01604 0.48023 0.65038 0.0
H899 H 0.0459 0.45135 0.67896 0.0
H900 H 0.80779 0.58757 0.72117 0.0
H901 H 0.83366 0.55432 0.74954 0.0
H902 H 0.78487 0.558 0.68313 0.0
H903 H 0.81975 0.55198 0.65299 0.0
C904 C 0.7381 0.95737 0.05684 0.0
C905 C 0.7919 0.94569 0.06815 0.0
C906 C 0.83224 0.93383 0.02392 0.0
C907 C 0.7774 0.94062 0.0131 0.0
N908 N 0.67621 0.94456 0.01927 0.0
N909 N 0.88851 0.91384 0.06285 0.0
C910 C 0.72964 0.94736 0.0296 0.0
C911 C 0.83865 0.93131 0.05182 0.0
N912 N 0.69642 0.98233 0.0715 0.0
N913 N 0.87817 0.93085 0.00756 0.0
H914 H 0.89516 0.9116 0.08319 0.0
H915 H 0.92176 0.89696 0.05193 0.0
H916 H 0.87455 0.92995 0.98699 0.0
H917 H 0.91986 0.93269 0.01429 0.0
H918 H 0.65836 0.9964 0.06339 0.0
H919 H 0.70232 0.99569 0.09095 0.0
H920 H 0.6398 0.94407 0.0309 0.0
H921 H 0.66852 0.93673 -0.00069 0.0
C922 C 0.45799 0.56886 0.77589 0.0
C923 C 0.42199 0.53445 0.76022 0.0
C924 C 0.3717 0.50223 0.79953 0.0
C925 C 0.40214 0.54255 0.81455 0.0
N926 N 0.46871 0.62005 0.81704 0.0
N927 N 0.33608 0.4781 0.7564 0.0
C928 C 0.44421 0.57728 0.80284 0.0
C929 C 0.37668 0.50334 0.77179 0.0
N930 N 0.50556 0.5926 0.76516 0.0
N931 N 0.33834 0.46264 0.81175 0.0
H932 H 0.33562 0.48025 0.73584 0.0
H933 H 0.29924 0.46028 0.76415 0.0
H934 H 0.3336 0.46057 0.83225 0.0
H935 H 0.31996 0.42856 0.80176 0.0
H936 H 0.53633 0.61335 0.77639 0.0
H937 H 0.51669 0.58718 0.74536 0.0
H938 H 0.49539 0.65045 0.80875 0.0
H939 H 0.4585 0.62784 0.83673 0.0
C940 C 0.72314 0.15799 0.545 0.0
C941 C 0.76659 0.13939 0.56254 0.0
C942 C 0.83222 0.12881 0.52589 0.0
C943 C 0.79036 0.14811 0.50817 0.0
N944 N 0.69654 0.18315 0.49977 0.0
N945 N 0.84621 0.07707 0.56582 0.0
C946 C 0.73548 0.16264 0.51736 0.0
C947 C 0.81686 0.11685 0.55205 0.0
N948 N 0.6701 0.16891 0.55447 0.0
N949 N 0.88708 0.12157 0.51807 0.0
H950 H 0.83427 0.06343 0.58462 0.0
H951 H 0.87477 0.05072 0.55618 0.0
H952 H 0.90159 0.1304 0.4991 0.0
H953 H 0.91933 0.11178 0.53142 0.0
H954 H 0.63516 0.17797 0.54271 0.0
H955 H 0.65987 0.16738 0.57444 0.0
H956 H 0.65686 0.19851 0.50489 0.0
H957 H 0.70523 0.18763 0.47964 0.0
C958 C 0.12784 0.48727 0.27075 0.0
C959 C 0.1606 0.52806 0.25696 0.0
C960 C 0.2082 0.5555 0.29803 0.0
C961 C 0.17733 0.51281 0.31153 0.0
N962 N 0.12054 0.42783 0.30964 0.0
N963 N 0.2447 0.58721 0.25605 0.0
C964 C 0.14112 0.47533 0.29755 0.0
C965 C 0.20428 0.55864 0.27017 0.0
N966 N 0.08299 0.46137 0.25857 0.0
N967 N 0.24226 0.59236 0.31168 0.0
H968 H 0.24642 0.58706 0.23548 0.0
H969 H 0.28051 0.60554 0.26462 0.0
H970 H 0.25132 0.58822 0.33178 0.0
H971 H 0.25934 0.62889 0.30323 0.0
H972 H 0.05424 0.43551 0.26853 0.0
H973 H 0.0716 0.46971 0.23901 0.0
H974 H 0.09802 0.39635 0.29966 0.0
H975 H 0.1306 0.41736 0.32911 0.0
C976 C 0.86044 0.63768 0.43192 0.0
C977 C 0.81442 0.66691 0.42028 0.0
C978 C 0.79745 0.71744 0.4618 0.0
C979 C 0.84125 0.68571 0.47375 0.0
N980 N 0.89909 0.60184 0.47255 0.0
N981 N 0.73009 0.72326 0.42578 0.0
C982 C 0.86908 0.64236 0.45943 0.0
C983 C 0.78005 0.70344 0.4357 0.0
N984 N 0.8944 0.60325 0.4171 0.0
N985 N 0.77312 0.76128 0.47522 0.0
H986 H 0.71633 0.71448 0.40664 0.0
H987 H 0.7004 0.74476 0.43717 0.0
H988 H 0.78486 0.77217 0.49448 0.0
H989 H 0.7447 0.78942 0.46656 0.0
H990 H 0.9328 0.58739 0.42405 0.0
H991 H 0.88573 0.5923 0.39756 0.0
H992 H 0.91564 0.56594 0.46345 0.0
H993 H 0.90027 0.6001 0.49305 0.0
C994 C 0.21176 1.02219 0.68938 0.0
C995 C 0.19828 0.07118 0.67454 0.0
C996 C 0.1701 0.12122 0.71457 0.0
C997 C 0.18056 0.07099 0.72935 0.0
N998 N 0.19764 0.97035 0.73015 0.0
N999 N 0.15423 0.16287 0.67137 0.0
C1000 C 0.19724 1.02037 0.7165 0.0
C1001 C 0.17374 0.11919 0.68661 0.0
N1002 N 0.23874 0.97767 0.6776 0.0
N1003 N 0.16097 0.17174 0.72709 0.0
H1004 H 0.15758 0.16327 0.65079 0.0
H1005 H 0.13058 0.19636 0.67891 0.0
H1006 H 0.15875 0.17611 0.74753 0.0
H1007 H 0.16041 0.21053 0.71727 0.0
H1008 H 0.2554 0.94359 0.68809 0.0
H1009 H 0.24767 0.97643 0.65741 0.0
H1010 H 0.20438 0.93115 0.72125 0.0
H1011 H 0.18544 0.96741 0.74993 0.0
C1012 C 0.83726 0.44881 0.94459 0.0
C1013 C 0.79388 0.42573 0.92825 0.0
C1014 C 0.73345 0.41354 0.96714 0.0
C1015 C 0.77989 0.42964 0.98335 0.0
N1016 N 0.87964 0.44925 0.98803 0.0
N1017 N 0.70177 0.38028 0.92459 0.0
C1018 C 0.8331 0.44253 0.9722 0.0
C1019 C 0.74231 0.40616 0.93967 0.0
N1020 N 0.87974 0.48132 0.93411 0.0
N1021 N 0.68016 0.40873 0.97752 0.0
H1022 H 0.70418 0.3766 0.90419 0.0
H1023 H 0.66736 0.35852 0.9326 0.0
H1024 H 0.67113 0.41338 -0.00246 0.0
H1025 H 0.64381 0.40491 0.96593 0.0
H1026 H 0.90939 0.5027 0.94576 0.0
H1027 H 0.8809 0.49377 0.91435 0.0
H1028 H 0.92048 0.4538 0.98049 0.0
H1029 H 0.87807 0.44423 0.00853 0.0
C1030 C 0.42788 0.9965 0.18961 0.0
C1031 C 0.42974 0.05465 0.18234 0.0
C1032 C 0.48958 0.07523 0.22074 0.0
C1033 C 0.4873 1.01722 0.22761 0.0
N1034 N 0.47091 0.92068 0.2148 0.0
N1035 N 0.47258 0.14729 0.18756 0.0
C1036 C 0.46292 0.97715 0.21035 0.0
C1037 C 0.46374 0.0936 0.19686 0.0
N1038 N 0.38888 0.96091 0.17842 0.0
N1039 N 0.51442 0.11275 0.23779 0.0
H1040 H 0.45506 0.16217 0.16997 0.0
H1041 H 0.50129 0.1756 0.196 0.0
H1042 H 0.53637 0.09924 0.2546 0.0
H1043 H 0.51162 0.15657 0.23586 0.0
H1044 H 0.38264 0.91915 0.18446 0.0
H1045 H 0.35772 0.97527 0.16551 0.0
H1046 H 0.45764 0.88927 0.20166 0.0
H1047 H 0.49639 0.90603 0.23022 0.0
C1048 C 0.34015 0.45056 0.51929 0.0
C1049 C 0.28552 0.44227 0.50856 0.0
C1050 C 0.24893 0.41686 0.55209 0.0
C1051 C 0.30263 0.43046 0.56335 0.0
N1052 N 0.39261 0.47948 0.55778 0.0
N1053 N 0.18489 0.43025 0.51533 0.0
C1054 C 0.34664 0.45246 0.54704 0.0
C1055 C 0.23898 0.42883 0.52507 0.0
N1056 N 0.38605 0.45604 0.50304 0.0
N1057 N 0.20756 0.39163 0.56684 0.0
H1058 H 0.17541 0.43936 0.49567 0.0
H1059 H 0.14904 0.42773 0.52727 0.0
H1060 H 0.21146 0.38366 0.58691 0.0
H1061 H 0.17081 0.37436 0.55866 0.0
H1062 H 0.42757 0.45645 0.51009 0.0
H1063 H 0.383 0.45445 0.48246 0.0
H1064 H 0.4228 0.50048 0.54637 0.0
H1065 H 0.39698 0.488 0.57789 0.0
C1066 C 0.89057 0.11211 0.29693 0.0
C1067 C 0.92927 0.07876 0.31196 0.0
C1068 C 0.93779 1.01373 0.27456 0.0
C1069 C 0.90599 0.05133 0.25857 0.0
N1070 N 0.86644 0.14499 0.25312 0.0
N1071 N 1.00223 1.00697 0.31118 0.0
C1072 C 0.88712 0.10346 0.26924 0.0
C1073 C 0.95705 1.03262 0.29949 0.0
N1074 N 0.85353 0.14844 0.30882 0.0
N1075 N 0.94672 0.95884 0.26701 0.0
H1076 H 1.01912 1.02144 0.32887 0.0
H1077 H 1.02656 0.97625 0.30172 0.0
H1078 H 0.92916 0.94098 0.25001 0.0
H1079 H 0.96563 0.9291 0.27944 0.0
H1080 H 0.82197 0.16958 0.29831 0.0
H1081 H 0.84849 0.15185 0.32917 0.0
H1082 H 0.85657 0.18538 0.26007 0.0
H1083 H 0.86546 0.14129 0.23257 0.0
C1084 C 0.30111 0.62981 0.05115 0.0
C1085 C 0.28333 0.67651 0.06668 0.0
C1086 C 0.27161 0.734 0.02659 0.0
C1087 C 0.28543 0.6861 0.01111 0.0
N1088 N 0.29869 0.58496 0.00816 0.0
N1089 N 0.239 0.76833 0.06904 0.0
C1090 C 0.29637 0.63302 0.02324 0.0
C1091 C 0.26502 0.72742 0.05438 0.0
N1092 N 0.32134 0.58182 0.063 0.0
N1093 N 0.26513 0.78564 0.01477 0.0
H1094 H 0.23255 0.76432 0.08933 0.0
H1095 H 0.21959 0.80378 0.06083 0.0
H1096 H 0.26845 0.79135 0.99437 0.0
H1097 H 0.2604 0.82323 0.02531 0.0
H1098 H 0.34038 0.54899 0.05257 0.0
H1099 H 0.32279 0.57608 0.08342 0.0
H1100 H 0.29968 0.54426 0.01609 0.0
H1101 H 0.29418 0.58518 0.98763 0.0
C1102 C 0.70673 0.9794 0.76846 0.0
C1103 C 0.70445 1.0369 0.76019 0.0
C1104 C 0.71677 0.06895 0.8057 0.0
C1105 C 0.71066 1.01215 0.81434 0.0
N1106 N 0.7031 0.91222 0.8048 0.0
N1107 N 0.7058 0.13709 0.77046 0.0
C1108 C 0.70771 0.96683 0.79595 0.0
C1109 C 0.70869 0.08192 0.77868 0.0
N1110 N 0.7077 0.937 0.74999 0.0
N1111 N 0.73434 0.10977 0.82315 0.0
H1112 H 0.70467 0.14911 0.75065 0.0
H1113 H 0.70127 0.17119 0.78335 0.0
H1114 H 0.74517 0.10061 0.84269 0.0
H1115 H 0.74476 0.15105 0.81771 0.0
H1116 H 0.71623 0.89481 0.75436 0.0
H1117 H 0.70234 0.94422 0.72979 0.0
H1118 H 0.69384 0.87771 0.79274 0.0
H1119 H 0.7059 0.90122 0.82471 0.0
C1120 C 0.58931 0.05527 0.98654 0.0
C1121 C 0.57621 0.99842 0.9783 0.0
C1122 C 0.48431 1.0084 0.00322 0.0
C1123 C 0.4977 0.06371 0.01235 0.0
N1124 N 0.56041 0.14282 0.00941 0.0
N1125 N 0.51668 0.91732 0.98668 0.0
C1126 C 0.5496 0.08775 0.00277 0.0
C1127 C 0.52507 0.97444 0.98898 0.0
N1128 N 0.64129 0.07708 0.98051 0.0
N1129 N 0.43117 0.98835 0.00796 0.0
H1130 H 0.54654 0.89061 0.97803 0.0
H1131 H 0.4838 0.89563 -0.00402 0.0
H1132 H 0.40093 1.01397 0.01689 0.0
H1133 H 0.41539 0.95054 0.00025 0.0
H1134 H 0.65569 0.11685 0.98628 0.0
H1135 H 0.67273 0.05323 0.97155 0.0
H1136 H 0.59446 0.16653 0.00249 0.0
H1137 H 0.53177 0.16634 0.02065 0.0
C1138 C 0.80011 0.73683 0.24644 0.0
C1139 C 0.75869 0.76272 0.26278 0.0
C1140 C 0.78897 0.85632 0.24274 0.0
C1141 C 0.83027 0.83023 0.2264 0.0
N1142 N 0.88734 0.74639 0.22137 0.0
N1143 N 0.70215 0.84683 0.26826 0.0
C1144 C 0.8391 0.77064 0.23091 0.0
C1145 C 0.75 0.82248 0.25836 0.0
N1146 N 0.79903 0.67958 0.24356 0.0
N1147 N 0.78988 0.91374 0.24533 0.0
H1148 H 0.67092 0.82314 0.27786 0.0
H1149 H 0.69043 0.88848 0.2643 0.0
H1150 H 0.82089 0.93834 0.23629 0.0
H1151 H 0.76497 0.93572 0.25884 0.0
H1152 H 0.82375 0.65786 0.22988 0.0
H1153 H 0.76815 0.65513 0.25266 0.0
H1154 H 0.89934 0.70503 0.22585 0.0
H1155 H 0.91864 0.77001 0.21178 0.0
C1156 C 0.07303 0.09606 0.48741 0.0
C1157 C 1.01726 0.07979 0.47842 0.0
C1158 C 1.03374 0.98824 0.50255 0.0
C1159 C 0.09015 1.0041 0.51091 0.0
N1160 N 0.16716 0.06849 0.50255 0.0
N1161 N 0.93992 1.01574 0.48658 0.0
C1162 C 0.11067 0.05676 0.50085 0.0
C1163 C 0.9964 1.02733 0.48863 0.0
N1164 N 0.0893 0.15127 0.48425 0.0
N1165 N 1.01666 0.93358 0.50667 0.0
H1166 H 0.91157 1.04315 0.47745 0.0
H1167 H 0.92016 0.98213 0.49624 0.0
H1168 H 0.04392 0.90275 0.51416 0.0
H1169 H 0.97821 0.91709 0.50011 0.0
H1170 H 0.12649 0.1681 0.49214 0.0
H1171 H 0.06206 0.18192 0.47656 0.0
H1172 H 0.1861 0.10332 0.49348 0.0
H1173 H 0.1963 1.03944 0.50981 0.0
C1174 C 0.7292 0.29021 0.74094 0.0
C1175 C 0.76179 0.24862 0.72722 0.0
C1176 C 0.84551 0.2833 0.75398 0.0
C1177 C 0.81368 0.32741 0.76614 0.0
N1178 N 0.72564 0.37752 0.76685 0.0
N1179 N 0.85629 0.21591 0.71814 0.0
C1180 C 0.75574 0.33212 0.75805 0.0
C1181 C 0.82141 0.24817 0.73319 0.0
N1182 N 0.6717 0.289 0.73793 0.0
N1183 N 0.89928 0.27376 0.76285 0.0
H1184 H 0.84053 0.18987 0.70346 0.0
H1185 H 0.90033 0.21843 0.71882 0.0
H1186 H 0.91925 0.30069 0.77639 0.0
H1187 H 0.9227 0.23803 0.75783 0.0
H1188 H 0.64404 0.3137 0.74899 0.0
H1189 H 0.65131 0.25885 0.72612 0.0
H1190 H 0.68511 0.38764 0.76029 0.0
H1191 H 0.74404 0.40837 0.77883 0.0
C1192 C 0.30159 0.23962 0.7511 0.0
C1193 C 0.2504 0.25769 0.7632 0.0
C1194 C 0.2605 0.34712 0.73598 0.0
C1195 C 0.31564 0.33159 0.72678 0.0
N1196 N 0.39152 0.26467 0.7305 0.0
N1197 N 0.18246 0.33309 0.76698 0.0
C1198 C 0.33695 0.27867 0.73634 0.0
C1199 C 0.23053 0.31284 0.75542 0.0
N1200 N 0.31426 0.18356 0.75162 0.0
N1201 N 0.23508 0.3936 0.72527 0.0
H1202 H 0.15684 0.30797 0.77908 0.0
H1203 H 0.16937 0.37507 0.76546 0.0
H1204 H 0.2564 0.42141 0.71277 0.0
H1205 H 0.19245 0.40323 0.72787 0.0
H1206 H 0.34867 0.16603 0.74173 0.0
H1207 H 0.28446 0.1542 0.75814 0.0
H1208 H 0.41169 0.22933 0.73847 0.0
H1209 H 0.418 0.29189 0.71986 0.0
C1210 C 0.24922 0.80779 0.23346 0.0
C1211 C 0.27621 0.75585 0.22596 0.0
C1212 C 0.36523 0.79612 0.24621 0.0
C1213 C 0.3366 0.84401 0.25699 0.0
N1214 N 0.25019 0.89627 0.25875 0.0
N1215 N 0.36025 0.69911 0.22979 0.0
C1216 C 0.27849 0.8503 0.24942 0.0
C1217 C 0.33467 0.75023 0.23326 0.0
N1218 N 0.19472 0.81664 0.22538 0.0
N1219 N 0.42262 0.79392 0.24917 0.0
H1220 H 0.33871 0.66448 0.222 0.0
H1221 H 0.40046 0.68945 0.23692 0.0
H1222 H 0.445 0.82632 0.25871 0.0
H1223 H 0.44802 0.76376 0.24002 0.0
H1224 H 0.17386 0.85523 0.22698 0.0
H1225 H 0.17075 0.78575 0.2157 0.0
H1226 H 0.20649 0.90142 0.25793 0.0
H1227 H 0.27167 0.92935 0.26792 0.0
C1228 C 0.05756 0.59422 0.49983 0.0
C1229 C 1.00457 0.5728 0.5099 0.0
C1230 C 1.0281 0.48288 0.48523 0.0
C1231 C 0.0813 0.50485 0.47587 0.0
N1232 N 0.15386 0.57265 0.4858 0.0
N1233 N 0.94405 0.49056 0.51276 0.0
C1234 C 0.09807 0.55798 0.48655 0.0
C1235 C 0.99153 0.51523 0.5028 0.0
N1236 N 0.06937 0.65056 0.50269 0.0
N1237 N 1.01167 0.43036 0.4767 0.0
H1238 H 0.91119 0.51431 0.52032 0.0
H1239 H 0.93682 0.44703 0.51307 0.0
H1240 H 1.0392 0.40329 0.46669 0.0
H1241 H 0.97087 0.41415 0.47878 0.0
H1242 H 0.10548 0.66964 0.49493 0.0
H1243 H 1.04021 0.67912 0.51053 0.0
H1244 H 0.17027 0.60809 0.49548 0.0
H1245 H 0.18434 0.54561 0.47801 0.0
C1246 C 0.59747 0.55361 -0.00147 0.0
C1247 C 0.57128 0.51898 0.01817 0.0
C1248 C 0.47802 0.54771 -0.00339 0.0
C1249 C 0.50486 0.58662 0.9791 0.0
N1250 N 0.59079 0.64248 0.97487 0.0
N1251 N 0.47874 0.5099 0.04059 0.0
C1252 C 0.56473 0.59436 0.98367 0.0
C1253 C 0.50929 0.52282 0.01845 0.0
N1254 N 0.65382 0.54826 0.99351 0.0
N1255 N 0.42168 0.53642 0.994 0.0
H1256 H 0.49542 0.5095 0.05948 0.0
H1257 H 0.43483 0.51311 0.04161 0.0
H1258 H 0.39489 0.5597 0.98194 0.0
H1259 H 0.40232 0.5019 0.00323 0.0
H1260 H 0.67372 0.5696 0.978 0.0
H1261 H 0.67884 0.51825 0.00288 0.0
H1262 H 0.63324 0.65152 0.97885 0.0
H1263 H 0.5681 0.6764 0.96696 0.0
C1264 C 0.35339 0.76679 0.13609 0.0
C1265 C 0.30187 0.76441 0.15056 0.0
C1266 C 0.26533 0.84535 0.12537 0.0
C1267 C 0.31569 0.84542 0.11023 0.0
N1268 N 0.40214 0.80028 0.09686 0.0
N1269 N 0.20564 0.79773 0.15696 0.0
C1270 C 0.35797 0.8041 0.1142 0.0
C1271 C 0.25668 0.80223 0.14449 0.0
N1272 N 0.39842 0.73411 0.14361 0.0
N1273 N 0.22646 0.8877 0.12196 0.0
H1274 H 0.19771 0.77002 0.17235 0.0
H1275 H 0.16921 0.81866 0.15079 0.0
H1276 H 0.22917 0.91773 0.10687 0.0
H1277 H 0.19312 0.89538 0.1349 0.0
H1278 H 0.439 0.73892 0.13589 0.0
H1279 H 0.39615 0.70406 0.15871 0.0
H1280 H 0.43148 0.76744 0.09712 0.0
H1281 H 0.40653 0.82735 0.08068 0.0
C1282 C 0.05472 0.57603 0.38406 0.0
C1283 C 0.06264 0.51697 0.38551 0.0
C1284 C 1.02316 0.50655 0.34101 0.0
C1285 C 1.02327 0.56649 0.3387 0.0
N1286 N 0.05077 0.65779 0.35563 0.0
N1287 N 0.04884 0.4239 0.36718 0.0
C1288 C 0.0441 0.60088 0.35935 0.0
C1289 C 0.04559 0.48133 0.36437 0.0
N1290 N 0.05143 0.60754 0.4066 0.0
N1291 N 0.99904 0.47456 0.32144 0.0
H1292 H 0.05966 0.40496 0.38508 0.0
H1293 H 1.04079 0.39502 0.35209 0.0
H1294 H 0.98482 0.49231 0.30374 0.0
H1295 H 0.99204 0.43111 0.32277 0.0
H1296 H 1.04029 0.65026 0.40661 0.0
H1297 H 0.05301 0.58921 0.42536 0.0
H1298 H 0.06914 0.68408 0.36985 0.0
H1299 H 1.04289 0.67707 0.3374 0.0
C1300 C 0.19041 0.29314 0.61804 0.0
C1301 C 0.21937 0.26833 0.59642 0.0
C1302 C 0.31036 0.29723 0.61476 0.0
C1303 C 0.28163 0.32436 0.63575 0.0
N1304 N 0.19463 0.35814 0.65506 0.0
N1305 N 0.30374 0.26058 0.57015 0.0
C1306 C 0.22162 0.32597 0.63652 0.0
C1307 C 0.27843 0.2755 0.59338 0.0
N1308 N 0.134 0.2827 0.62177 0.0
N1309 N 0.36773 0.29 0.61575 0.0
H1310 H 0.28057 0.24482 0.55413 0.0
H1311 H 0.3461 0.26924 0.56597 0.0
H1312 H 0.39268 0.3055 0.63117 0.0
H1313 H 0.38986 0.2652 0.60224 0.0
H1314 H 0.11242 0.29354 0.63897 0.0
H1315 H 0.10927 0.26009 0.60829 0.0
H1316 H 0.15116 0.36552 0.65486 0.0
H1317 H 0.21628 0.38152 0.66937 0.0
C1318 C 0.56353 0.51992 0.85871 0.0
C1319 C 0.59415 0.5634 0.8459 0.0
C1320 C 0.54417 0.63404 0.87247 0.0
C1321 C 0.52163 0.58956 0.88816 0.0
N1322 N 0.52679 0.49117 0.90085 0.0
N1323 N 0.61739 0.66268 0.84159 0.0
C1324 C 0.53532 0.53255 0.88248 0.0
C1325 C 0.58511 0.62097 0.85278 0.0
N1326 N 0.56327 0.46625 0.84867 0.0
N1327 N 0.52622 0.68839 0.8763 0.0
H1328 H 0.64718 0.65472 0.82688 0.0
H1329 H 0.61697 0.70463 0.84798 0.0
H1330 H 0.49655 0.69914 0.89071 0.0
H1331 H 0.53698 0.72176 0.86377 0.0
H1332 H 0.53841 0.43378 0.85655 0.0
H1333 H 0.58308 0.45646 0.83081 0.0
H1334 H 0.53985 0.44939 0.89819 0.0
H1335 H 0.51428 0.50063 0.92007 0.0
C1336 C 0.66814 0.29148 0.86782 0.0
C1337 C 0.69343 0.262 0.88917 0.0
C1338 C 0.78684 0.2978 0.87729 0.0
C1339 C 0.76208 0.32628 0.85553 0.0
N1340 N 0.67921 0.36264 0.8336 0.0
N1341 N 0.77104 0.25209 0.91961 0.0
C1342 C 0.70249 0.32757 0.85211 0.0
C1343 C 0.75108 0.27038 0.89573 0.0
N1344 N 0.61235 0.28254 0.86178 0.0
N1345 N 0.84441 0.29499 0.87967 0.0
H1346 H 0.74492 0.23214 0.93343 0.0
H1347 H 0.81136 0.26175 0.92672 0.0
H1348 H 0.87186 0.31361 0.86609 0.0
H1349 H 0.8652 0.27255 0.89447 0.0
H1350 H 0.59301 0.29745 0.84463 0.0
H1351 H 0.58563 0.25764 0.87339 0.0
H1352 H 0.63585 0.36847 0.83126 0.0
H1353 H 0.70365 0.38973 0.82199 0.0
C1354 C 0.0655 0.59602 0.64145 0.0
C1355 C 0.11441 0.56426 0.63439 0.0
C1356 C 0.07196 0.54625 0.59144 0.0
C1357 C 1.02862 0.58552 0.59683 0.0
N1358 N 1.00171 0.66575 0.6236 0.0
N1359 N 0.17211 0.53996 0.59613 0.0
C1360 C 1.03016 0.61606 0.62087 0.0
C1361 C 0.12033 0.54752 0.60747 0.0
N1362 N 0.05114 0.60576 0.66715 0.0
N1363 N 0.06888 0.51024 0.57038 0.0
H1364 H 0.20948 0.55132 0.60577 0.0
H1365 H 0.17689 0.53065 0.57607 0.0
H1366 H 1.03263 0.50666 0.55866 0.0
H1367 H 0.10023 0.48016 0.56671 0.0
H1368 H 1.01406 0.62709 0.67222 0.0
H1369 H 0.07124 0.58608 0.68301 0.0
H1370 H 1.00485 0.69052 0.64064 0.0
H1371 H 0.98132 0.68481 0.60765 0.0
C1372 C 0.80544 0.82203 0.39086 0.0
C1373 C 0.86462 0.82598 0.38702 0.0
C1374 C 0.85752 0.77697 0.34488 0.0
C1375 C 0.79809 0.77227 0.3486 0.0
N1376 N 0.7135 0.8007 0.37157 0.0
N1377 N 0.94913 0.79674 0.36456 0.0
C1378 C 0.7713 0.79733 0.37075 0.0
C1379 C 0.89135 0.79968 0.3654 0.0
N1380 N 0.78253 0.84212 0.41384 0.0
N1381 N 0.88081 0.76498 0.32081 0.0
H1382 H 0.97481 0.8136 0.37945 0.0
H1383 H 0.97118 0.77297 0.35063 0.0
H1384 H 0.85653 0.75324 0.30448 0.0
H1385 H 0.92306 0.77264 0.31611 0.0
H1386 H 0.73989 0.8392 0.41874 0.0
H1387 H 0.80736 0.85913 0.42901 0.0
H1388 H 0.69099 0.82209 0.38611 0.0
H1389 H 0.68752 0.78541 0.35647 0.0
C1390 C 0.54709 0.54775 0.10655 0.0
C1391 C 0.56303 0.4904 0.10252 0.0
C1392 C 0.49802 0.46006 0.13733 0.0
C1393 C 0.4871 0.51793 0.14292 0.0
N1394 N 0.51021 0.61681 0.13713 0.0
N1395 N 0.55893 0.39211 0.11545 0.0
C1396 C 0.51533 0.5617 0.12908 0.0
C1397 C 0.54006 0.44644 0.11836 0.0
N1398 N 0.55821 0.58815 0.08788 0.0
N1399 N 0.46603 0.41849 0.14885 0.0
H1400 H 0.58893 0.38071 0.1013 0.0
H1401 H 0.54817 0.35933 0.1283 0.0
H1402 H 0.43486 0.42682 0.16287 0.0
H1403 H 0.46762 0.37609 0.14319 0.0
H1404 H 0.54265 0.62934 0.08876 0.0
H1405 H 0.57635 0.57894 0.0697 0.0
H1406 H 0.53167 0.65046 0.1283 0.0
H1407 H 0.48909 0.62824 0.15443 0.0
C1408 C 0.83591 0.33624 0.62282 0.0
C1409 C 0.80765 0.3409 0.59783 0.0
C1410 C 0.74075 0.26846 0.61313 0.0
C1411 C 0.7748 0.25921 0.63565 0.0
N1412 N 0.86698 0.26925 0.65548 0.0
N1413 N 0.74401 0.29387 0.56699 0.0
C1414 C 0.82724 0.28709 0.63787 0.0
C1415 C 0.76339 0.30132 0.59217 0.0
N1416 N 0.8633 0.38054 0.6346 0.0
N1417 N 0.68722 0.24684 0.61179 0.0
H1418 H 0.76638 0.30824 0.55052 0.0
H1419 H 0.70979 0.26792 0.5624 0.0
H1420 H 0.67076 0.22019 0.62634 0.0
H1421 H 0.65865 0.25856 0.59703 0.0
H1422 H 0.88167 0.37735 0.65333 0.0
H1423 H 0.85823 0.42214 0.62855 0.0
H1424 H 0.90675 0.28847 0.65702 0.0
H1425 H 0.86232 0.23106 0.66551 0.0
C1426 C 0.49867 1.01095 0.89344 0.0
C1427 C 0.55102 0.98239 0.88985 0.0
C1428 C 0.53832 0.98827 0.84184 0.0
C1429 C 0.4862 1.0165 0.84587 0.0
N1430 N 0.4055 1.01987 0.87523 0.0
N1431 N 0.60652 0.9235 0.86084 0.0
C1432 C 0.4626 1.0167 0.8716 0.0
C1433 C 0.56631 0.96414 0.86409 0.0
N1434 N 0.48326 1.03481 0.91698 0.0
N1435 N 0.56252 0.98629 0.8174 0.0
H1436 H 0.62948 0.90697 0.8766 0.0
H1437 H 0.61305 0.90307 0.84285 0.0
H1438 H 0.54703 1.00812 0.80106 0.0
H1439 H 0.60073 0.9662 0.81382 0.0
H1440 H 0.447 0.05968 0.91882 0.0
H1441 H 0.50853 1.03583 0.93378 0.0
H1442 H 0.38656 1.01619 0.89379 0.0
H1443 H 0.3775 1.01834 0.85936 0.0
C1444 C 0.74206 0.80993 0.14145 0.0
C1445 C 0.80024 0.82335 0.13804 0.0
C1446 C 0.79647 0.78868 0.09235 0.0
C1447 C 0.73864 0.77508 0.09615 0.0
N1448 N 0.65246 0.78721 0.12052 0.0
N1449 N 0.88563 0.81787 0.11227 0.0
C1450 C 0.71019 0.79086 0.1195 0.0
C1451 C 0.82823 0.81132 0.11388 0.0
N1452 N 0.71848 0.81047 0.1661 0.0
N1453 N 0.82052 0.77988 0.06814 0.0
H1454 H 0.90986 0.83349 0.12788 0.0
H1455 H 0.91001 0.80461 0.09634 0.0
H1456 H 0.79778 0.76341 0.05218 0.0
H1457 H 0.86139 0.79236 0.06313 0.0
H1458 H 0.67791 0.79537 0.17015 0.0
H1459 H 0.74133 0.82063 0.18309 0.0
H1460 H 0.62849 0.80327 0.13607 0.0
H1461 H 0.62839 0.7734 0.10439 0.0
C1462 C 0.10103 0.12205 0.35217 0.0
C1463 C 0.11715 0.06443 0.34925 0.0
C1464 C 0.06676 1.03974 0.38941 0.0
C1465 C 0.04386 0.09504 0.39044 0.0
N1466 N 1.03508 0.18847 0.37163 0.0
N1467 N 0.10122 0.96628 0.36078 0.0
C1468 C 0.05933 0.13606 0.37127 0.0
C1469 C 0.09521 1.02254 0.36647 0.0
N1470 N 0.12804 0.16366 0.33817 0.0
N1471 N 0.066 1.00516 0.41102 0.0
H1472 H 0.11968 0.9522 0.34325 0.0
H1473 H 0.08196 0.93441 0.37192 0.0
H1474 H 0.05265 1.01892 0.4295 0.0
H1475 H 0.08614 0.96592 0.41146 0.0
H1476 H 0.12203 0.20671 0.34164 0.0
H1477 H 0.16022 0.1556 0.32464 0.0
H1478 H 1.04052 0.21825 0.35664 0.0
H1479 H 1.00555 0.20021 0.38585 0.0
C1480 C 0.23754 0.83397 0.34457 0.0
C1481 C 0.29756 0.83414 0.34665 0.0
C1482 C 0.2921 0.78279 0.38836 0.0
C1483 C 0.23373 0.77393 0.38378 0.0
N1484 N 0.14879 0.79163 0.35887 0.0
N1485 N 0.38296 0.80345 0.3686 0.0
C1486 C 0.20562 0.80012 0.36234 0.0
C1487 C 0.32526 0.80746 0.36813 0.0
N1488 N 0.21143 0.86594 0.32562 0.0
N1489 N 0.31553 0.76737 0.41201 0.0
H1490 H 0.40864 0.81989 0.35372 0.0
H1491 H 0.4051 0.77981 0.38257 0.0
H1492 H 0.29183 0.74931 0.42724 0.0
H1493 H 0.35724 0.77635 0.41726 0.0
H1494 H 0.16777 0.87068 0.32412 0.0
H1495 H 0.23366 0.89129 0.31234 0.0
H1496 H 0.12654 0.80374 0.34202 0.0
H1497 H 0.12395 0.77051 0.37281 0.0
C1498 C 0.50143 0.97893 0.10886 0.0
C1499 C 0.50495 1.03878 0.10626 0.0
C1500 C 0.55394 0.04658 0.14861 0.0
C1501 C 0.55365 0.98671 0.15018 0.0
N1502 N 0.5144 0.89708 0.13737 0.0
N1503 N 0.52523 0.13102 0.12451 0.0
C1504 C 0.52269 0.95329 0.13213 0.0
C1505 C 0.52787 0.07325 0.12662 0.0
N1506 N 0.48006 0.94672 0.08867 0.0
N1507 N 0.581 0.0771 0.16787 0.0
H1508 H 0.50675 0.15154 0.10841 0.0
H1509 H 0.53896 0.15921 0.13895 0.0
H1510 H 0.59847 0.05807 0.18463 0.0
H1511 H 0.58511 0.12089 0.16792 0.0
H1512 H 0.48247 0.90272 0.08811 0.0
H1513 H 0.4621 0.96408 0.07165 0.0
H1514 H 0.48817 0.87078 0.1262 0.0
H1515 H 0.52993 0.87815 0.15458 0.0
C1516 C 0.30515 0.30427 0.89368 0.0
C1517 C 0.36297 0.31678 0.88964 0.0
C1518 C 0.36078 0.26699 0.84722 0.0
C1519 C 0.30105 0.26219 0.84971 0.0
N1520 N 0.21507 0.28859 0.8724 0.0
N1521 N 0.44736 0.31156 0.86319 0.0
C1522 C 0.27275 0.28401 0.87218 0.0
C1523 C 0.3915 0.29802 0.86664 0.0
N1524 N 0.28101 0.31315 0.91785 0.0
N1525 N 0.38769 0.24328 0.82604 0.0
H1526 H 0.47139 0.33141 0.87789 0.0
H1527 H 0.46937 0.30507 0.84564 0.0
H1528 H 0.36605 0.22421 0.81038 0.0
H1529 H 0.4315 0.23997 0.82452 0.0
H1530 H 0.24016 0.29967 0.92253 0.0
H1531 H 0.30376 0.32881 0.93398 0.0
H1532 H 0.1926 0.30774 0.88767 0.0
H1533 H 0.19008 0.27961 0.85595 0.0
C1534 C 1.01392 1.01587 0.59277 0.0
C1535 C 0.06764 0.99298 0.59848 0.0
C1536 C 0.04683 1.00441 0.64569 0.0
C1537 C 0.99169 1.0242 0.63882 0.0
N1538 N 0.91834 1.00554 0.60662 0.0
N1539 N 0.12687 0.94734 0.63107 0.0
C1540 C 0.97349 1.01626 0.61263 0.0
C1541 C 0.08154 0.98079 0.62525 0.0
N1542 N 1.00144 1.0407 0.56918 0.0
N1543 N 0.06688 1.0094 0.67087 0.0
H1544 H 0.15359 0.93149 0.61647 0.0
H1545 H 0.13547 0.93262 0.65007 0.0
H1546 H 0.04627 1.03188 0.68565 0.0
H1547 H 0.10626 0.99437 0.67661 0.0
H1548 H 0.96339 0.06189 0.56644 0.0
H1549 H 1.03113 0.04809 0.55444 0.0
H1550 H 0.90685 0.99158 0.58778 0.0
H1551 H 0.88698 1.00263 0.62104 0.0
loop_
_geom_bond_atom_site_label_1
_geom_bond_atom_site_label_2
_geom_bond_distance
_geom_bond_site_symmetry_2
_ccdc_geom_bond_type
Zn0 N4 2.020 1_565 S
Zn0 O8 2.019 . S
Zn0 N10 2.119 . S
Zn0 O18 1.975 1_565 S
C1 N2 1.334 . S
C1 N5 1.336 . S
N2 C1 1.334 . S
N2 C3 1.334 . S
C3 N2 1.334 . S
C3 N4 1.336 . S
N4 Zn0 2.020 1_545 S
N4 C3 1.336 . S
N4 N5 1.354 . S
N5 C1 1.336 . S
N5 N4 1.354 . S
N5 Zn9 2.020 . S
C6 O7 1.244 . S
C6 O30 1.257 . S
O7 C6 1.244 . S
O8 Zn0 2.019 . S
O8 C28 1.257 . S
Zn9 N5 2.020 . S
Zn9 O16 1.975 . S
Zn9 N25 2.119 . S
Zn9 O30 2.019 . S
N10 Zn0 2.119 . S
N10 C12 1.334 . S
N10 C13 1.328 . S
C11 C12 1.391 . S
C11 N14 1.329 . S
C11 H32 0.930 . S
C12 N10 1.334 . S
C12 C11 1.391 . S
C12 H19 0.930 . S
C13 N10 1.328 . S
C13 C15 1.392 . S
C13 H20 0.930 . S
N14 C11 1.329 . S
N14 C15 1.331 . S
C15 C13 1.392 . S
C15 N14 1.331 . S
O16 Zn9 1.975 . S
O16 C17 1.252 . S
C17 O16 1.252 . S
C17 O18 1.252 . S
O18 Zn0 1.975 1_545 S
O18 C17 1.252 . S
H19 C12 0.930 . S
H20 C13 0.930 . S
C21 C22 1.392 . S
C21 N25 1.328 . S
C21 H27 0.930 . S
C22 C21 1.392 . S
C22 N26 1.331 . S
C23 C24 1.391 . S
C23 N26 1.329 . S
C23 H33 0.930 . S
C24 C23 1.391 . S
C24 N25 1.334 . S
C24 H31 0.930 . S
N25 Zn9 2.119 . S
N25 C21 1.328 . S
N25 C24 1.334 . S
N26 C22 1.331 . S
N26 C23 1.329 . S
H27 C21 0.930 . S
C28 O8 1.257 . S
C28 O29 1.244 1_565 S
O29 C28 1.244 1_545 S
O30 C6 1.257 . S
O30 Zn9 2.019 . S
H31 C24 0.930 . S
H32 C11 0.930 . S
H33 C23 0.930 . S
Zn34 N38 2.020 . S
Zn34 O42 2.019 . S
Zn34 N44 2.119 . S
Zn34 O52 1.975 . S
C35 N36 1.334 . S
C35 N39 1.336 . S
N36 C35 1.334 . S
N36 C37 1.334 . S
C37 N36 1.334 . S
C37 N38 1.336 . S
N38 Zn34 2.020 . S
N38 C37 1.336 . S
N38 N39 1.354 . S
N39 C35 1.336 . S
N39 N38 1.354 . S
N39 Zn43 2.020 . S
C40 O41 1.244 . S
C40 O64 1.257 . S
O41 C40 1.244 . S
O42 Zn34 2.019 . S
O42 C62 1.257 . S
Zn43 N39 2.020 . S
Zn43 O50 1.975 . S
Zn43 N59 2.119 . S
Zn43 O64 2.019 . S
N44 Zn34 2.119 . S
N44 C46 1.334 . S
N44 C47 1.328 . S
C45 C46 1.391 . S
C45 N48 1.329 . S
C45 H66 0.930 . S
C46 N44 1.334 . S
C46 C45 1.391 . S
C46 H53 0.930 . S
C47 N44 1.328 . S
C47 C49 1.392 . S
C47 H54 0.930 . S
N48 C45 1.329 . S
N48 C49 1.331 . S
C49 C47 1.392 . S
C49 N48 1.331 . S
O50 Zn43 1.975 . S
O50 C51 1.252 . S
C51 O50 1.252 . S
C51 O52 1.252 . S
O52 Zn34 1.975 . S
O52 C51 1.252 . S
H53 C46 0.930 . S
H54 C47 0.930 . S
C55 C56 1.392 . S
C55 N59 1.328 . S
C55 H61 0.930 . S
C56 C55 1.392 . S
C56 N60 1.331 . S
C57 C58 1.391 . S
C57 N60 1.329 . S
C57 H67 0.930 . S
C58 C57 1.391 . S
C58 N59 1.334 . S
C58 H65 0.930 . S
N59 Zn43 2.119 . S
N59 C55 1.328 . S
N59 C58 1.334 . S
N60 C56 1.331 . S
N60 C57 1.329 . S
H61 C55 0.930 . S
C62 O42 1.257 . S
C62 O63 1.244 . S
O63 C62 1.244 . S
O64 C40 1.257 . S
O64 Zn43 2.019 . S
H65 C58 0.930 . S
H66 C45 0.930 . S
H67 C57 0.930 . S
Zn68 N72 2.020 1_545 S
Zn68 O76 2.019 . S
Zn68 N78 2.119 . S
Zn68 O86 1.975 1_545 S
C69 N70 1.334 . S
C69 N73 1.336 . S
N70 C69 1.334 . S
N70 C71 1.334 . S
C71 N70 1.334 . S
C71 N72 1.336 . S
N72 Zn68 2.020 1_565 S
N72 C71 1.336 . S
N72 N73 1.354 . S
N73 C69 1.336 . S
N73 N72 1.354 . S
N73 Zn77 2.020 . S
C74 O75 1.244 . S
C74 O98 1.257 . S
O75 C74 1.244 . S
O76 Zn68 2.019 . S
O76 C96 1.257 . S
Zn77 N73 2.020 . S
Zn77 O84 1.975 . S
Zn77 N93 2.119 . S
Zn77 O98 2.019 . S
N78 Zn68 2.119 . S
N78 C80 1.334 . S
N78 C81 1.328 . S
C79 C80 1.391 . S
C79 N82 1.329 . S
C79 H100 0.930 . S
C80 N78 1.334 . S
C80 C79 1.391 . S
C80 H87 0.930 . S
C81 N78 1.328 . S
C81 C83 1.392 . S
C81 H88 0.930 . S
N82 C79 1.329 . S
N82 C83 1.331 . S
C83 C81 1.392 . S
C83 N82 1.331 . S
O84 Zn77 1.975 . S
O84 C85 1.252 . S
C85 O84 1.252 . S
C85 O86 1.252 . S
O86 Zn68 1.975 1_565 S
O86 C85 1.252 . S
H87 C80 0.930 . S
H88 C81 0.930 . S
C89 C90 1.392 . S
C89 N93 1.328 . S
C89 H95 0.930 . S
C90 C89 1.392 . S
C90 N94 1.331 . S
C91 C92 1.391 . S
C91 N94 1.329 . S
C91 H101 0.930 . S
C92 C91 1.391 . S
C92 N93 1.334 . S
C92 H99 0.930 . S
N93 Zn77 2.119 . S
N93 C89 1.328 . S
N93 C92 1.334 . S
N94 C90 1.331 . S
N94 C91 1.329 . S
H95 C89 0.930 . S
C96 O76 1.257 . S
C96 O97 1.244 1_545 S
O97 C96 1.244 1_565 S
O98 C74 1.257 . S
O98 Zn77 2.019 . S
H99 C92 0.930 . S
H100 C79 0.930 . S
H101 C91 0.930 . S
Zn102 N106 2.020 . S
Zn102 O110 2.019 . S
Zn102 N112 2.119 . S
Zn102 O120 1.975 . S
C103 N104 1.334 . S
C103 N107 1.336 . S
N104 C103 1.334 . S
N104 C105 1.334 . S
C105 N104 1.334 . S
C105 N106 1.336 . S
N106 Zn102 2.020 . S
N106 C105 1.336 . S
N106 N107 1.354 . S
N107 C103 1.336 . S
N107 N106 1.354 . S
N107 Zn111 2.020 . S
C108 O109 1.244 . S
C108 O132 1.257 . S
O109 C108 1.244 . S
O110 Zn102 2.019 . S
O110 C130 1.257 . S
Zn111 N107 2.020 . S
Zn111 O118 1.975 . S
Zn111 N127 2.119 . S
Zn111 O132 2.019 . S
N112 Zn102 2.119 . S
N112 C114 1.334 . S
N112 C115 1.328 . S
C113 C114 1.391 . S
C113 N116 1.329 . S
C113 H134 0.930 . S
C114 N112 1.334 . S
C114 C113 1.391 . S
C114 H121 0.930 . S
C115 N112 1.328 . S
C115 C117 1.392 . S
C115 H122 0.930 . S
N116 C113 1.329 . S
N116 C117 1.331 . S
C117 C115 1.392 . S
C117 N116 1.331 . S
O118 Zn111 1.975 . S
O118 C119 1.252 . S
C119 O118 1.252 . S
C119 O120 1.252 . S
O120 Zn102 1.975 . S
O120 C119 1.252 . S
H121 C114 0.930 . S
H122 C115 0.930 . S
C123 C124 1.392 . S
C123 N127 1.328 . S
C123 H129 0.930 . S
C124 C123 1.392 . S
C124 N128 1.331 1_655 S
C125 C126 1.391 . S
C125 N128 1.329 1_655 S
C125 H135 0.930 . S
C126 C125 1.391 . S
C126 N127 1.334 . S
C126 H133 0.930 . S
N127 Zn111 2.119 . S
N127 C123 1.328 . S
N127 C126 1.334 . S
N128 C124 1.331 1_455 S
N128 C125 1.329 1_455 S
H129 C123 0.930 . S
C130 O110 1.257 . S
C130 O131 1.244 . S
O131 C130 1.244 . S
O132 C108 1.257 . S
O132 Zn111 2.019 . S
H133 C126 0.930 . S
H134 C113 0.930 . S
H135 C125 0.930 . S
Zn136 N140 2.020 1_545 S
Zn136 O144 2.019 . S
Zn136 N146 2.119 . S
Zn136 O154 1.975 1_545 S
C137 N138 1.334 . S
C137 N141 1.336 . S
N138 C137 1.334 . S
N138 C139 1.334 . S
C139 N138 1.334 . S
C139 N140 1.336 . S
N140 Zn136 2.020 1_565 S
N140 C139 1.336 . S
N140 N141 1.354 . S
N141 C137 1.336 . S
N141 N140 1.354 . S
N141 Zn145 2.020 . S
C142 O143 1.244 . S
C142 O166 1.257 . S
O143 C142 1.244 . S
O144 Zn136 2.019 . S
O144 C164 1.257 . S
Zn145 N141 2.020 . S
Zn145 O152 1.975 . S
Zn145 N161 2.119 . S
Zn145 O166 2.019 . S
N146 Zn136 2.119 . S
N146 C148 1.334 . S
N146 C149 1.328 . S
C147 C148 1.391 . S
C147 N150 1.329 . S
C147 H168 0.930 . S
C148 N146 1.334 . S
C148 C147 1.391 . S
C148 H155 0.930 . S
C149 N146 1.328 . S
C149 C151 1.392 . S
C149 H156 0.930 . S
N150 C147 1.329 . S
N150 C151 1.331 . S
C151 C149 1.392 . S
C151 N150 1.331 . S
O152 Zn145 1.975 . S
O152 C153 1.252 . S
C153 O152 1.252 . S
C153 O154 1.252 . S
O154 Zn136 1.975 1_565 S
O154 C153 1.252 . S
H155 C148 0.930 . S
H156 C149 0.930 . S
C157 C158 1.392 . S
C157 N161 1.328 . S
C157 H163 0.930 . S
C158 C157 1.392 . S
C158 N162 1.331 . S
C159 C160 1.391 . S
C159 N162 1.329 . S
C159 H169 0.930 . S
C160 C159 1.391 . S
C160 N161 1.334 . S
C160 H167 0.930 . S
N161 Zn145 2.119 . S
N161 C157 1.328 . S
N161 C160 1.334 . S
N162 C158 1.331 . S
N162 C159 1.329 . S
H163 C157 0.930 . S
C164 O144 1.257 . S
C164 O165 1.244 1_545 S
O165 C164 1.244 1_565 S
O166 C142 1.257 . S
O166 Zn145 2.019 . S
H167 C160 0.930 . S
H168 C147 0.930 . S
H169 C159 0.930 . S
Zn170 N174 2.020 . S
Zn170 O178 2.019 . S
Zn170 N180 2.119 . S
Zn170 O188 1.975 . S
C171 N172 1.334 . S
C171 N175 1.336 . S
N172 C171 1.334 . S
N172 C173 1.334 . S
C173 N172 1.334 . S
C173 N174 1.336 . S
N174 Zn170 2.020 . S
N174 C173 1.336 . S
N174 N175 1.354 . S
N175 C171 1.336 . S
N175 N174 1.354 . S
N175 Zn179 2.020 . S
C176 O177 1.244 . S
C176 O200 1.257 . S
O177 C176 1.244 . S
O178 Zn170 2.019 . S
O178 C198 1.257 . S
Zn179 N175 2.020 . S
Zn179 O186 1.975 . S
Zn179 N195 2.119 . S
Zn179 O200 2.019 . S
N180 Zn170 2.119 . S
N180 C182 1.334 . S
N180 C183 1.328 . S
C181 C182 1.391 . S
C181 N184 1.329 . S
C181 H202 0.930 . S
C182 N180 1.334 . S
C182 C181 1.391 . S
C182 H189 0.930 . S
C183 N180 1.328 . S
C183 C185 1.392 . S
C183 H190 0.930 . S
N184 C181 1.329 . S
N184 C185 1.331 . S
C185 C183 1.392 . S
C185 N184 1.331 . S
O186 Zn179 1.975 . S
O186 C187 1.252 . S
C187 O186 1.252 . S
C187 O188 1.252 . S
O188 Zn170 1.975 . S
O188 C187 1.252 . S
H189 C182 0.930 . S
H190 C183 0.930 . S
C191 C192 1.392 . S
C191 N195 1.328 . S
C191 H197 0.930 . S
C192 C191 1.392 . S
C192 N196 1.331 . S
C193 C194 1.391 . S
C193 N196 1.329 . S
C193 H203 0.930 . S
C194 C193 1.391 . S
C194 N195 1.334 . S
C194 H201 0.930 . S
N195 Zn179 2.119 . S
N195 C191 1.328 . S
N195 C194 1.334 . S
N196 C192 1.331 . S
N196 C193 1.329 . S
H197 C191 0.930 . S
C198 O178 1.257 . S
C198 O199 1.244 . S
O199 C198 1.244 . S
O200 C176 1.257 . S
O200 Zn179 2.019 . S
H201 C194 0.930 . S
H202 C181 0.930 . S
H203 C193 0.930 . S
Zn204 N208 2.020 . S
Zn204 O212 2.019 . S
Zn204 N214 2.119 . S
Zn204 O222 1.975 . S
C205 N206 1.334 . S
C205 N209 1.336 . S
N206 C205 1.334 . S
N206 C207 1.334 . S
C207 N206 1.334 . S
C207 N208 1.336 . S
N208 Zn204 2.020 . S
N208 C207 1.336 . S
N208 N209 1.354 . S
N209 C205 1.336 . S
N209 N208 1.354 . S
N209 Zn213 2.020 1_545 S
C210 O211 1.244 1_565 S
C210 O234 1.257 . S
O211 C210 1.244 1_545 S
O212 Zn204 2.019 . S
O212 C232 1.257 . S
Zn213 N209 2.020 1_565 S
Zn213 O220 1.975 1_565 S
Zn213 N229 2.119 . S
Zn213 O234 2.019 . S
N214 Zn204 2.119 . S
N214 C216 1.334 . S
N214 C217 1.328 . S
C215 C216 1.391 . S
C215 N218 1.329 . S
C215 H236 0.930 . S
C216 N214 1.334 . S
C216 C215 1.391 . S
C216 H223 0.930 . S
C217 N214 1.328 . S
C217 C219 1.392 . S
C217 H224 0.930 . S
N218 C215 1.329 . S
N218 C219 1.331 . S
C219 C217 1.392 . S
C219 N218 1.331 . S
O220 Zn213 1.975 1_545 S
O220 C221 1.252 . S
C221 O220 1.252 . S
C221 O222 1.252 . S
O222 Zn204 1.975 . S
O222 C221 1.252 . S
H223 C216 0.930 . S
H224 C217 0.930 . S
C225 C226 1.392 . S
C225 N229 1.328 . S
C225 H231 0.930 . S
C226 C225 1.392 . S
C226 N230 1.331 . S
C227 C228 1.391 . S
C227 N230 1.329 . S
C227 H237 0.930 . S
C228 C227 1.391 . S
C228 N229 1.334 . S
C228 H235 0.930 . S
N229 Zn213 2.119 . S
N229 C225 1.328 . S
N229 C228 1.334 . S
N230 C226 1.331 . S
N230 C227 1.329 . S
H231 C225 0.930 . S
C232 O212 1.257 . S
C232 O233 1.244 . S
O233 C232 1.244 . S
O234 C210 1.257 . S
O234 Zn213 2.019 . S
H235 C228 0.930 . S
H236 C215 0.930 . S
H237 C227 0.930 . S
Zn238 N242 2.020 . S
Zn238 O246 2.019 . S
Zn238 N248 2.119 . S
Zn238 O256 1.975 . S
C239 N240 1.334 . S
C239 N243 1.336 . S
N240 C239 1.334 . S
N240 C241 1.334 . S
C241 N240 1.334 . S
C241 N242 1.336 . S
N242 Zn238 2.020 . S
N242 C241 1.336 . S
N242 N243 1.354 . S
N243 C239 1.336 . S
N243 N242 1.354 . S
N243 Zn247 2.020 . S
C244 O245 1.244 . S
C244 O268 1.257 . S
O245 C244 1.244 . S
O246 Zn238 2.019 . S
O246 C266 1.257 . S
Zn247 N243 2.020 . S
Zn247 O254 1.975 . S
Zn247 N263 2.119 . S
Zn247 O268 2.019 . S
N248 Zn238 2.119 . S
N248 C250 1.334 . S
N248 C251 1.328 . S
C249 C250 1.391 . S
C249 N252 1.329 . S
C249 H270 0.930 . S
C250 N248 1.334 . S
C250 C249 1.391 . S
C250 H257 0.930 . S
C251 N248 1.328 . S
C251 C253 1.392 . S
C251 H258 0.930 . S
N252 C249 1.329 . S
N252 C253 1.331 . S
C253 C251 1.392 . S
C253 N252 1.331 . S
O254 Zn247 1.975 . S
O254 C255 1.252 . S
C255 O254 1.252 . S
C255 O256 1.252 . S
O256 Zn238 1.975 . S
O256 C255 1.252 . S
H257 C250 0.930 . S
H258 C251 0.930 . S
C259 C260 1.392 . S
C259 N263 1.328 . S
C259 H265 0.930 . S
C260 C259 1.392 . S
C260 N264 1.331 1_455 S
C261 C262 1.391 . S
C261 N264 1.329 1_455 S
C261 H271 0.930 . S
C262 C261 1.391 . S
C262 N263 1.334 . S
C262 H269 0.930 . S
N263 Zn247 2.119 . S
N263 C259 1.328 . S
N263 C262 1.334 . S
N264 C260 1.331 1_655 S
N264 C261 1.329 1_655 S
H265 C259 0.930 . S
C266 O246 1.257 . S
C266 O267 1.244 . S
O267 C266 1.244 . S
O268 C244 1.257 . S
O268 Zn247 2.019 . S
H269 C262 0.930 . S
H270 C249 0.930 . S
H271 C261 0.930 . S
Zn272 N276 2.020 . S
Zn272 O280 2.019 . S
Zn272 N282 2.119 . S
Zn272 O290 1.975 . S
C273 N274 1.334 . S
C273 N277 1.336 . S
N274 C273 1.334 . S
N274 C275 1.334 . S
C275 N274 1.334 . S
C275 N276 1.336 . S
N276 Zn272 2.020 . S
N276 C275 1.336 . S
N276 N277 1.354 . S
N277 C273 1.336 . S
N277 N276 1.354 . S
N277 Zn281 2.020 . S
C278 O279 1.244 . S
C278 O302 1.257 . S
O279 C278 1.244 . S
O280 Zn272 2.019 . S
O280 C300 1.257 . S
Zn281 N277 2.020 . S
Zn281 O288 1.975 . S
Zn281 N297 2.119 . S
Zn281 O302 2.019 . S
N282 Zn272 2.119 . S
N282 C284 1.334 . S
N282 C285 1.328 . S
C283 C284 1.391 . S
C283 N286 1.329 . S
C283 H304 0.930 . S
C284 N282 1.334 . S
C284 C283 1.391 . S
C284 H291 0.930 . S
C285 N282 1.328 . S
C285 C287 1.392 . S
C285 H292 0.930 . S
N286 C283 1.329 . S
N286 C287 1.331 . S
C287 C285 1.392 . S
C287 N286 1.331 . S
O288 Zn281 1.975 . S
O288 C289 1.252 . S
C289 O288 1.252 . S
C289 O290 1.252 . S
O290 Zn272 1.975 . S
O290 C289 1.252 . S
H291 C284 0.930 . S
H292 C285 0.930 . S
C293 C294 1.392 . S
C293 N297 1.328 . S
C293 H299 0.930 . S
C294 C293 1.392 . S
C294 N298 1.331 . S
C295 C296 1.391 . S
C295 N298 1.329 . S
C295 H305 0.930 . S
C296 C295 1.391 . S
C296 N297 1.334 . S
C296 H303 0.930 . S
N297 Zn281 2.119 . S
N297 C293 1.328 . S
N297 C296 1.334 . S
N298 C294 1.331 . S
N298 C295 1.329 . S
H299 C293 0.930 . S
C300 O280 1.257 . S
C300 O301 1.244 . S
O301 C300 1.244 . S
O302 C278 1.257 . S
O302 Zn281 2.019 . S
H303 C296 0.930 . S
H304 C283 0.930 . S
H305 C295 0.930 . S
Zn306 N310 2.020 . S
Zn306 O314 2.019 . S
Zn306 N316 2.119 . S
Zn306 O324 1.975 . S
C307 N308 1.334 . S
C307 N311 1.336 . S
N308 C307 1.334 . S
N308 C309 1.334 . S
C309 N308 1.334 . S
C309 N310 1.336 . S
N310 Zn306 2.020 . S
N310 C309 1.336 . S
N310 N311 1.354 . S
N311 C307 1.336 . S
N311 N310 1.354 . S
N311 Zn315 2.020 . S
C312 O313 1.244 . S
C312 O336 1.257 . S
O313 C312 1.244 . S
O314 Zn306 2.019 . S
O314 C334 1.257 . S
Zn315 N311 2.020 . S
Zn315 O322 1.975 . S
Zn315 N331 2.119 . S
Zn315 O336 2.019 . S
N316 Zn306 2.119 . S
N316 C318 1.334 . S
N316 C319 1.328 . S
C317 C318 1.391 . S
C317 N320 1.329 1_455 S
C317 H338 0.930 . S
C318 N316 1.334 . S
C318 C317 1.391 . S
C318 H325 0.930 . S
C319 N316 1.328 . S
C319 C321 1.392 . S
C319 H326 0.930 . S
N320 C317 1.329 1_655 S
N320 C321 1.331 1_655 S
C321 C319 1.392 . S
C321 N320 1.331 1_455 S
O322 Zn315 1.975 . S
O322 C323 1.252 1_545 S
C323 O322 1.252 1_565 S
C323 O324 1.252 1_565 S
O324 Zn306 1.975 . S
O324 C323 1.252 1_545 S
H325 C318 0.930 . S
H326 C319 0.930 . S
C327 C328 1.392 . S
C327 N331 1.328 . S
C327 H333 0.930 . S
C328 C327 1.392 . S
C328 N332 1.331 . S
C329 C330 1.391 . S
C329 N332 1.329 . S
C329 H339 0.930 . S
C330 C329 1.391 . S
C330 N331 1.334 . S
C330 H337 0.930 . S
N331 Zn315 2.119 . S
N331 C327 1.328 . S
N331 C330 1.334 . S
N332 C328 1.331 . S
N332 C329 1.329 . S
H333 C327 0.930 . S
C334 O314 1.257 . S
C334 O335 1.244 . S
O335 C334 1.244 . S
O336 C312 1.257 . S
O336 Zn315 2.019 . S
H337 C330 0.930 . S
H338 C317 0.930 . S
H339 C329 0.930 . S
Zn340 N344 2.020 . S
Zn340 O348 2.019 . S
Zn340 N350 2.119 . S
Zn340 O358 1.975 . S
C341 N342 1.334 . S
C341 N345 1.336 . S
N342 C341 1.334 . S
N342 C343 1.334 . S
C343 N342 1.334 . S
C343 N344 1.336 . S
N344 Zn340 2.020 . S
N344 C343 1.336 . S
N344 N345 1.354 . S
N345 C341 1.336 . S
N345 N344 1.354 . S
N345 Zn349 2.020 . S
C346 O347 1.244 . S
C346 O370 1.257 . S
O347 C346 1.244 . S
O348 Zn340 2.019 . S
O348 C368 1.257 . S
Zn349 N345 2.020 . S
Zn349 O356 1.975 . S
Zn349 N365 2.119 . S
Zn349 O370 2.019 . S
N350 Zn340 2.119 . S
N350 C352 1.334 . S
N350 C353 1.328 . S
C351 C352 1.391 . S
C351 N354 1.329 . S
C351 H372 0.930 . S
C352 N350 1.334 . S
C352 C351 1.391 . S
C352 H359 0.930 . S
C353 N350 1.328 . S
C353 C355 1.392 . S
C353 H360 0.930 . S
N354 C351 1.329 . S
N354 C355 1.331 . S
C355 C353 1.392 . S
C355 N354 1.331 . S
O356 Zn349 1.975 . S
O356 C357 1.252 . S
C357 O356 1.252 . S
C357 O358 1.252 . S
O358 Zn340 1.975 . S
O358 C357 1.252 . S
H359 C352 0.930 . S
H360 C353 0.930 . S
C361 C362 1.392 . S
C361 N365 1.328 . S
C361 H367 0.930 . S
C362 C361 1.392 . S
C362 N366 1.331 . S
C363 C364 1.391 . S
C363 N366 1.329 . S
C363 H373 0.930 . S
C364 C363 1.391 . S
C364 N365 1.334 . S
C364 H371 0.930 . S
N365 Zn349 2.119 . S
N365 C361 1.328 . S
N365 C364 1.334 . S
N366 C362 1.331 . S
N366 C363 1.329 . S
H367 C361 0.930 . S
C368 O348 1.257 . S
C368 O369 1.244 . S
O369 C368 1.244 . S
O370 C346 1.257 . S
O370 Zn349 2.019 . S
H371 C364 0.930 . S
H372 C351 0.930 . S
H373 C363 0.930 . S
Zn374 N378 2.020 . S
Zn374 O382 2.019 . S
Zn374 N384 2.119 . S
Zn374 O392 1.975 . S
C375 N376 1.334 . S
C375 N379 1.336 . S
N376 C375 1.334 . S
N376 C377 1.334 . S
C377 N376 1.334 . S
C377 N378 1.336 . S
N378 Zn374 2.020 . S
N378 C377 1.336 . S
N378 N379 1.354 . S
N379 C375 1.336 . S
N379 N378 1.354 . S
N379 Zn383 2.020 . S
C380 O381 1.244 . S
C380 O404 1.257 . S
O381 C380 1.244 . S
O382 Zn374 2.019 . S
O382 C402 1.257 . S
Zn383 N379 2.020 . S
Zn383 O390 1.975 . S
Zn383 N399 2.119 . S
Zn383 O404 2.019 . S
N384 Zn374 2.119 . S
N384 C386 1.334 . S
N384 C387 1.328 . S
C385 C386 1.391 . S
C385 N388 1.329 . S
C385 H406 0.930 . S
C386 N384 1.334 . S
C386 C385 1.391 . S
C386 H393 0.930 . S
C387 N384 1.328 . S
C387 C389 1.392 . S
C387 H394 0.930 . S
N388 C385 1.329 . S
N388 C389 1.331 . S
C389 C387 1.392 . S
C389 N388 1.331 . S
O390 Zn383 1.975 . S
O390 C391 1.252 1_565 S
C391 O390 1.252 1_545 S
C391 O392 1.252 1_545 S
O392 Zn374 1.975 . S
O392 C391 1.252 1_565 S
H393 C386 0.930 . S
H394 C387 0.930 . S
C395 C396 1.392 . S
C395 N399 1.328 . S
C395 H401 0.930 . S
C396 C395 1.392 . S
C396 N400 1.331 . S
C397 C398 1.391 . S
C397 N400 1.329 . S
C397 H407 0.930 . S
C398 C397 1.391 . S
C398 N399 1.334 . S
C398 H405 0.930 . S
N399 Zn383 2.119 . S
N399 C395 1.328 . S
N399 C398 1.334 . S
N400 C396 1.331 . S
N400 C397 1.329 . S
H401 C395 0.930 . S
C402 O382 1.257 . S
C402 O403 1.244 . S
O403 C402 1.244 . S
O404 C380 1.257 . S
O404 Zn383 2.019 . S
H405 C398 0.930 . S
H406 C385 0.930 . S
H407 C397 0.930 . S
Zn408 N412 2.020 . S
Zn408 O416 2.019 . S
Zn408 N418 2.119 . S
Zn408 O426 1.975 . S
C409 N410 1.334 . S
C409 N413 1.336 . S
N410 C409 1.334 . S
N410 C411 1.334 . S
C411 N410 1.334 . S
C411 N412 1.336 . S
N412 Zn408 2.020 . S
N412 C411 1.336 . S
N412 N413 1.354 . S
N413 C409 1.336 . S
N413 N412 1.354 . S
N413 Zn417 2.020 . S
C414 O415 1.244 . S
C414 O438 1.257 . S
O415 C414 1.244 . S
O416 Zn408 2.019 . S
O416 C436 1.257 . S
Zn417 N413 2.020 . S
Zn417 O424 1.975 . S
Zn417 N433 2.119 . S
Zn417 O438 2.019 . S
N418 Zn408 2.119 . S
N418 C420 1.334 . S
N418 C421 1.328 . S
C419 C420 1.391 . S
C419 N422 1.329 . S
C419 H440 0.930 . S
C420 N418 1.334 . S
C420 C419 1.391 . S
C420 H427 0.930 . S
C421 N418 1.328 . S
C421 C423 1.392 . S
C421 H428 0.930 . S
N422 C419 1.329 . S
N422 C423 1.331 . S
C423 C421 1.392 . S
C423 N422 1.331 . S
O424 Zn417 1.975 . S
O424 C425 1.252 . S
C425 O424 1.252 . S
C425 O426 1.252 . S
O426 Zn408 1.975 . S
O426 C425 1.252 . S
H427 C420 0.930 . S
H428 C421 0.930 . S
C429 C430 1.392 . S
C429 N433 1.328 . S
C429 H435 0.930 . S
C430 C429 1.392 . S
C430 N434 1.331 . S
C431 C432 1.391 . S
C431 N434 1.329 . S
C431 H441 0.930 . S
C432 C431 1.391 . S
C432 N433 1.334 . S
C432 H439 0.930 . S
N433 Zn417 2.119 . S
N433 C429 1.328 . S
N433 C432 1.334 . S
N434 C430 1.331 . S
N434 C431 1.329 . S
H435 C429 0.930 . S
C436 O416 1.257 . S
C436 O437 1.244 . S
O437 C436 1.244 . S
O438 C414 1.257 . S
O438 Zn417 2.019 . S
H439 C432 0.930 . S
H440 C419 0.930 . S
H441 C431 0.930 . S
Zn442 N446 2.020 . S
Zn442 O450 2.019 . S
Zn442 N452 2.119 . S
Zn442 O460 1.975 . S
C443 N444 1.334 . S
C443 N447 1.336 . S
N444 C443 1.334 . S
N444 C445 1.334 . S
C445 N444 1.334 . S
C445 N446 1.336 . S
N446 Zn442 2.020 . S
N446 C445 1.336 . S
N446 N447 1.354 . S
N447 C443 1.336 . S
N447 N446 1.354 . S
N447 Zn451 2.020 . S
C448 O449 1.244 . S
C448 O472 1.257 . S
O449 C448 1.244 . S
O450 Zn442 2.019 . S
O450 C470 1.257 . S
Zn451 N447 2.020 . S
Zn451 O458 1.975 . S
Zn451 N467 2.119 . S
Zn451 O472 2.019 . S
N452 Zn442 2.119 . S
N452 C454 1.334 . S
N452 C455 1.328 . S
C453 C454 1.391 . S
C453 N456 1.329 1_655 S
C453 H474 0.930 . S
C454 N452 1.334 . S
C454 C453 1.391 . S
C454 H461 0.930 . S
C455 N452 1.328 . S
C455 C457 1.392 . S
C455 H462 0.930 . S
N456 C453 1.329 1_455 S
N456 C457 1.331 1_455 S
C457 C455 1.392 . S
C457 N456 1.331 1_655 S
O458 Zn451 1.975 . S
O458 C459 1.252 1_565 S
C459 O458 1.252 1_545 S
C459 O460 1.252 1_545 S
O460 Zn442 1.975 . S
O460 C459 1.252 1_565 S
H461 C454 0.930 . S
H462 C455 0.930 . S
C463 C464 1.392 . S
C463 N467 1.328 . S
C463 H469 0.930 . S
C464 C463 1.392 . S
C464 N468 1.331 . S
C465 C466 1.391 . S
C465 N468 1.329 . S
C465 H475 0.930 . S
C466 C465 1.391 . S
C466 N467 1.334 . S
C466 H473 0.930 . S
N467 Zn451 2.119 . S
N467 C463 1.328 . S
N467 C466 1.334 . S
N468 C464 1.331 . S
N468 C465 1.329 . S
H469 C463 0.930 . S
C470 O450 1.257 . S
C470 O471 1.244 . S
O471 C470 1.244 . S
O472 C448 1.257 . S
O472 Zn451 2.019 . S
H473 C466 0.930 . S
H474 C453 0.930 . S
H475 C465 0.930 . S
Zn476 N480 2.020 . S
Zn476 O484 2.019 . S
Zn476 N486 2.119 . S
Zn476 O494 1.975 . S
C477 N478 1.334 . S
C477 N481 1.336 . S
N478 C477 1.334 . S
N478 C479 1.334 . S
C479 N478 1.334 . S
C479 N480 1.336 . S
N480 Zn476 2.020 . S
N480 C479 1.336 . S
N480 N481 1.354 . S
N481 C477 1.336 . S
N481 N480 1.354 . S
N481 Zn485 2.020 . S
C482 O483 1.244 . S
C482 O506 1.257 . S
O483 C482 1.244 . S
O484 Zn476 2.019 . S
O484 C504 1.257 . S
Zn485 N481 2.020 . S
Zn485 O492 1.975 . S
Zn485 N501 2.119 . S
Zn485 O506 2.019 . S
N486 Zn476 2.119 . S
N486 C488 1.334 . S
N486 C489 1.328 . S
C487 C488 1.391 . S
C487 N490 1.329 . S
C487 H508 0.930 . S
C488 N486 1.334 . S
C488 C487 1.391 . S
C488 H495 0.930 . S
C489 N486 1.328 . S
C489 C491 1.392 . S
C489 H496 0.930 . S
N490 C487 1.329 . S
N490 C491 1.331 . S
C491 C489 1.392 . S
C491 N490 1.331 . S
O492 Zn485 1.975 . S
O492 C493 1.252 . S
C493 O492 1.252 . S
C493 O494 1.252 . S
O494 Zn476 1.975 . S
O494 C493 1.252 . S
H495 C488 0.930 . S
H496 C489 0.930 . S
C497 C498 1.392 . S
C497 N501 1.328 . S
C497 H503 0.930 . S
C498 C497 1.392 . S
C498 N502 1.331 . S
C499 C500 1.391 . S
C499 N502 1.329 . S
C499 H509 0.930 . S
C500 C499 1.391 . S
C500 N501 1.334 . S
C500 H507 0.930 . S
N501 Zn485 2.119 . S
N501 C497 1.328 . S
N501 C500 1.334 . S
N502 C498 1.331 . S
N502 C499 1.329 . S
H503 C497 0.930 . S
C504 O484 1.257 . S
C504 O505 1.244 . S
O505 C504 1.244 . S
O506 C482 1.257 . S
O506 Zn485 2.019 . S
H507 C500 0.930 . S
H508 C487 0.930 . S
H509 C499 0.930 . S
Zn510 N514 2.020 . S
Zn510 O518 2.019 . S
Zn510 N520 2.119 . S
Zn510 O528 1.975 . S
C511 N512 1.334 . S
C511 N515 1.336 . S
N512 C511 1.334 . S
N512 C513 1.334 . S
C513 N512 1.334 . S
C513 N514 1.336 . S
N514 Zn510 2.020 . S
N514 C513 1.336 . S
N514 N515 1.354 . S
N515 C511 1.336 . S
N515 N514 1.354 . S
N515 Zn519 2.020 . S
C516 O517 1.244 . S
C516 O540 1.257 . S
O517 C516 1.244 . S
O518 Zn510 2.019 . S
O518 C538 1.257 . S
Zn519 N515 2.020 . S
Zn519 O526 1.975 . S
Zn519 N535 2.119 . S
Zn519 O540 2.019 . S
N520 Zn510 2.119 . S
N520 C522 1.334 . S
N520 C523 1.328 . S
C521 C522 1.391 . S
C521 N524 1.329 . S
C521 H542 0.930 . S
C522 N520 1.334 . S
C522 C521 1.391 . S
C522 H529 0.930 . S
C523 N520 1.328 . S
C523 C525 1.392 . S
C523 H530 0.930 . S
N524 C521 1.329 . S
N524 C525 1.331 . S
C525 C523 1.392 . S
C525 N524 1.331 . S
O526 Zn519 1.975 . S
O526 C527 1.252 1_545 S
C527 O526 1.252 1_565 S
C527 O528 1.252 1_565 S
O528 Zn510 1.975 . S
O528 C527 1.252 1_545 S
H529 C522 0.930 . S
H530 C523 0.930 . S
C531 C532 1.392 . S
C531 N535 1.328 . S
C531 H537 0.930 . S
C532 C531 1.392 . S
C532 N536 1.331 . S
C533 C534 1.391 . S
C533 N536 1.329 . S
C533 H543 0.930 . S
C534 C533 1.391 . S
C534 N535 1.334 . S
C534 H541 0.930 . S
N535 Zn519 2.119 . S
N535 C531 1.328 . S
N535 C534 1.334 . S
N536 C532 1.331 . S
N536 C533 1.329 . S
H537 C531 0.930 . S
C538 O518 1.257 . S
C538 O539 1.244 . S
O539 C538 1.244 . S
O540 C516 1.257 . S
O540 Zn519 2.019 . S
H541 C534 0.930 . S
H542 C521 0.930 . S
H543 C533 0.930 . S
C544 C545 1.363 . S
C544 C550 1.379 . S
C544 N552 1.356 . S
C545 C544 1.363 . S
C545 C551 1.363 . S
C546 C547 1.363 . S
C546 C551 1.379 . S
C546 N553 1.356 . S
C547 C546 1.363 . S
C547 C550 1.363 . S
N548 C550 1.356 . S
N548 H560 0.984 . S
N548 H561 0.985 . S
N549 C551 1.356 . S
N549 H554 0.984 . S
N549 H555 0.985 . S
C550 C544 1.379 . S
C550 C547 1.363 . S
C550 N548 1.356 . S
C551 C545 1.363 . S
C551 C546 1.379 . S
C551 N549 1.356 . S
N552 C544 1.356 . S
N552 H558 0.984 . S
N552 H559 0.984 . S
N553 C546 1.356 . S
N553 H556 0.984 . S
N553 H557 0.985 . S
H554 N549 0.984 . S
H555 N549 0.985 . S
H556 N553 0.984 . S
H557 N553 0.985 . S
H558 N552 0.984 . S
H559 N552 0.984 . S
H560 N548 0.984 . S
H561 N548 0.985 . S
C562 C563 1.363 . S
C562 C568 1.379 . S
C562 N570 1.356 . S
C563 C562 1.363 . S
C563 C569 1.363 . S
C564 C565 1.363 . S
C564 C569 1.379 . S
C564 N571 1.356 . S
C565 C564 1.363 . S
C565 C568 1.363 . S
N566 C568 1.356 . S
N566 H578 0.984 . S
N566 H579 0.985 . S
N567 C569 1.356 . S
N567 H572 0.984 . S
N567 H573 0.985 . S
C568 C562 1.379 . S
C568 C565 1.363 . S
C568 N566 1.356 . S
C569 C563 1.363 . S
C569 C564 1.379 . S
C569 N567 1.356 . S
N570 C562 1.356 . S
N570 H576 0.984 . S
N570 H577 0.984 . S
N571 C564 1.356 . S
N571 H574 0.984 . S
N571 H575 0.985 . S
H572 N567 0.984 . S
H573 N567 0.985 . S
H574 N571 0.984 . S
H575 N571 0.985 . S
H576 N570 0.984 . S
H577 N570 0.984 . S
H578 N566 0.984 . S
H579 N566 0.985 . S
C580 C581 1.363 . S
C580 C586 1.379 . S
C580 N588 1.356 . S
C581 C580 1.363 . S
C581 C587 1.363 . S
C582 C583 1.363 . S
C582 C587 1.379 . S
C582 N589 1.356 . S
C583 C582 1.363 . S
C583 C586 1.363 . S
N584 C586 1.356 . S
N584 H596 0.984 . S
N584 H597 0.985 . S
N585 C587 1.356 . S
N585 H590 0.984 . S
N585 H591 0.985 . S
C586 C580 1.379 . S
C586 C583 1.363 . S
C586 N584 1.356 . S
C587 C581 1.363 . S
C587 C582 1.379 . S
C587 N585 1.356 . S
N588 C580 1.356 . S
N588 H594 0.984 . S
N588 H595 0.984 . S
N589 C582 1.356 . S
N589 H592 0.984 . S
N589 H593 0.985 . S
H590 N585 0.984 . S
H591 N585 0.985 . S
H592 N589 0.984 . S
H593 N589 0.985 . S
H594 N588 0.984 . S
H595 N588 0.984 . S
H596 N584 0.984 . S
H597 N584 0.985 . S
C598 C599 1.363 . S
C598 C604 1.379 . S
C598 N606 1.356 . S
C599 C598 1.363 . S
C599 C605 1.363 . S
C600 C601 1.363 . S
C600 C605 1.379 . S
C600 N607 1.356 . S
C601 C600 1.363 . S
C601 C604 1.363 . S
N602 C604 1.356 . S
N602 H614 0.984 . S
N602 H615 0.985 . S
N603 C605 1.356 . S
N603 H608 0.984 . S
N603 H609 0.985 . S
C604 C598 1.379 . S
C604 C601 1.363 . S
C604 N602 1.356 . S
C605 C599 1.363 . S
C605 C600 1.379 . S
C605 N603 1.356 . S
N606 C598 1.356 . S
N606 H612 0.984 . S
N606 H613 0.984 . S
N607 C600 1.356 . S
N607 H610 0.984 . S
N607 H611 0.985 . S
H608 N603 0.984 . S
H609 N603 0.985 . S
H610 N607 0.984 . S
H611 N607 0.985 . S
H612 N606 0.984 . S
H613 N606 0.984 . S
H614 N602 0.984 . S
H615 N602 0.985 . S
C616 C617 1.363 . S
C616 C622 1.379 . S
C616 N624 1.356 . S
C617 C616 1.363 . S
C617 C623 1.363 . S
C618 C619 1.363 . S
C618 C623 1.379 . S
C618 N625 1.356 . S
C619 C618 1.363 . S
C619 C622 1.363 . S
N620 C622 1.356 . S
N620 H632 0.984 . S
N620 H633 0.985 . S
N621 C623 1.356 . S
N621 H626 0.984 . S
N621 H627 0.985 . S
C622 C616 1.379 . S
C622 C619 1.363 . S
C622 N620 1.356 . S
C623 C617 1.363 . S
C623 C618 1.379 . S
C623 N621 1.356 . S
N624 C616 1.356 . S
N624 H630 0.984 . S
N624 H631 0.984 . S
N625 C618 1.356 . S
N625 H628 0.984 . S
N625 H629 0.985 . S
H626 N621 0.984 . S
H627 N621 0.985 . S
H628 N625 0.984 . S
H629 N625 0.985 . S
H630 N624 0.984 . S
H631 N624 0.984 . S
H632 N620 0.984 . S
H633 N620 0.985 . S
C634 C635 1.363 . S
C634 C640 1.379 . S
C634 N642 1.356 . S
C635 C634 1.363 . S
C635 C641 1.363 . S
C636 C637 1.363 . S
C636 C641 1.379 . S
C636 N643 1.356 . S
C637 C636 1.363 . S
C637 C640 1.363 . S
N638 C640 1.356 . S
N638 H650 0.984 . S
N638 H651 0.985 . S
N639 C641 1.356 . S
N639 H644 0.984 . S
N639 H645 0.985 . S
C640 C634 1.379 . S
C640 C637 1.363 . S
C640 N638 1.356 . S
C641 C635 1.363 . S
C641 C636 1.379 . S
C641 N639 1.356 . S
N642 C634 1.356 . S
N642 H648 0.984 . S
N642 H649 0.984 . S
N643 C636 1.356 . S
N643 H646 0.984 . S
N643 H647 0.985 . S
H644 N639 0.984 . S
H645 N639 0.985 . S
H646 N643 0.984 . S
H647 N643 0.985 . S
H648 N642 0.984 . S
H649 N642 0.984 . S
H650 N638 0.984 . S
H651 N638 0.985 . S
C652 C653 1.363 . S
C652 C658 1.379 . S
C652 N660 1.356 . S
C653 C652 1.363 . S
C653 C659 1.363 . S
C654 C655 1.363 . S
C654 C659 1.379 . S
C654 N661 1.356 . S
C655 C654 1.363 . S
C655 C658 1.363 . S
N656 C658 1.356 . S
N656 H668 0.984 . S
N656 H669 0.985 . S
N657 C659 1.356 . S
N657 H662 0.984 . S
N657 H663 0.985 . S
C658 C652 1.379 . S
C658 C655 1.363 . S
C658 N656 1.356 . S
C659 C653 1.363 . S
C659 C654 1.379 . S
C659 N657 1.356 . S
N660 C652 1.356 . S
N660 H666 0.984 . S
N660 H667 0.984 . S
N661 C654 1.356 . S
N661 H664 0.984 . S
N661 H665 0.985 . S
H662 N657 0.984 . S
H663 N657 0.985 . S
H664 N661 0.984 . S
H665 N661 0.985 . S
H666 N660 0.984 . S
H667 N660 0.984 . S
H668 N656 0.984 . S
H669 N656 0.985 . S
C670 C671 1.363 . S
C670 C676 1.379 . S
C670 N678 1.356 . S
C671 C670 1.363 . S
C671 C677 1.363 . S
C672 C673 1.363 . S
C672 C677 1.379 . S
C672 N679 1.356 . S
C673 C672 1.363 . S
C673 C676 1.363 . S
N674 C676 1.356 . S
N674 H686 0.984 . S
N674 H687 0.985 . S
N675 C677 1.356 . S
N675 H680 0.984 . S
N675 H681 0.985 . S
C676 C670 1.379 . S
C676 C673 1.363 . S
C676 N674 1.356 . S
C677 C671 1.363 . S
C677 C672 1.379 . S
C677 N675 1.356 . S
N678 C670 1.356 . S
N678 H684 0.984 . S
N678 H685 0.984 . S
N679 C672 1.356 . S
N679 H682 0.984 . S
N679 H683 0.985 . S
H680 N675 0.984 . S
H681 N675 0.985 . S
H682 N679 0.984 . S
H683 N679 0.985 . S
H684 N678 0.984 . S
H685 N678 0.984 . S
H686 N674 0.984 . S
H687 N674 0.985 . S
C688 C689 1.363 . S
C688 C694 1.379 . S
C688 N696 1.356 . S
C689 C688 1.363 . S
C689 C695 1.363 . S
C690 C691 1.363 . S
C690 C695 1.379 . S
C690 N697 1.356 . S
C691 C690 1.363 . S
C691 C694 1.363 . S
N692 C694 1.356 . S
N692 H704 0.984 . S
N692 H705 0.985 . S
N693 C695 1.356 . S
N693 H698 0.984 . S
N693 H699 0.985 . S
C694 C688 1.379 . S
C694 C691 1.363 . S
C694 N692 1.356 . S
C695 C689 1.363 . S
C695 C690 1.379 . S
C695 N693 1.356 . S
N696 C688 1.356 . S
N696 H702 0.984 . S
N696 H703 0.984 . S
N697 C690 1.356 . S
N697 H700 0.984 . S
N697 H701 0.985 . S
H698 N693 0.984 . S
H699 N693 0.985 . S
H700 N697 0.984 . S
H701 N697 0.985 . S
H702 N696 0.984 . S
H703 N696 0.984 . S
H704 N692 0.984 . S
H705 N692 0.985 . S
C706 C707 1.363 . S
C706 C712 1.379 1_545 S
C706 N714 1.356 . S
C707 C706 1.363 . S
C707 C713 1.363 . S
C708 C709 1.363 1_545 S
C708 C713 1.379 . S
C708 N715 1.356 . S
C709 C708 1.363 1_565 S
C709 C712 1.363 . S
N710 C712 1.356 . S
N710 H722 0.984 . S
N710 H723 0.985 . S
N711 C713 1.356 . S
N711 H716 0.984 . S
N711 H717 0.985 . S
C712 C706 1.379 1_565 S
C712 C709 1.363 . S
C712 N710 1.356 . S
C713 C707 1.363 . S
C713 C708 1.379 . S
C713 N711 1.356 . S
N714 C706 1.356 . S
N714 H720 0.984 1_545 S
N714 H721 0.984 . S
N715 C708 1.356 . S
N715 H718 0.984 1_545 S
N715 H719 0.985 . S
H716 N711 0.984 . S
H717 N711 0.985 . S
H718 N715 0.984 1_565 S
H719 N715 0.985 . S
H720 N714 0.984 1_565 S
H721 N714 0.984 . S
H722 N710 0.984 . S
H723 N710 0.985 . S
C724 C725 1.363 . S
C724 C730 1.379 . S
C724 N732 1.356 . S
C725 C724 1.363 . S
C725 C731 1.363 . S
C726 C727 1.363 . S
C726 C731 1.379 . S
C726 N733 1.356 . S
C727 C726 1.363 . S
C727 C730 1.363 . S
N728 C730 1.356 . S
N728 H740 0.984 . S
N728 H741 0.985 . S
N729 C731 1.356 . S
N729 H734 0.984 . S
N729 H735 0.985 . S
C730 C724 1.379 . S
C730 C727 1.363 . S
C730 N728 1.356 . S
C731 C725 1.363 . S
C731 C726 1.379 . S
C731 N729 1.356 . S
N732 C724 1.356 . S
N732 H738 0.984 . S
N732 H739 0.984 . S
N733 C726 1.356 . S
N733 H736 0.984 . S
N733 H737 0.985 . S
H734 N729 0.984 . S
H735 N729 0.985 . S
H736 N733 0.984 . S
H737 N733 0.985 . S
H738 N732 0.984 . S
H739 N732 0.984 . S
H740 N728 0.984 . S
H741 N728 0.985 . S
C742 C743 1.363 1_565 S
C742 C748 1.379 . S
C742 N750 1.356 . S
C743 C742 1.363 1_545 S
C743 C749 1.363 . S
C744 C745 1.363 1_545 S
C744 C749 1.379 . S
C744 N751 1.356 . S
C745 C744 1.363 1_565 S
C745 C748 1.363 . S
N746 C748 1.356 . S
N746 H758 0.984 . S
N746 H759 0.985 . S
N747 C749 1.356 . S
N747 H752 0.984 . S
N747 H753 0.985 . S
C748 C742 1.379 . S
C748 C745 1.363 . S
C748 N746 1.356 . S
C749 C743 1.363 . S
C749 C744 1.379 . S
C749 N747 1.356 . S
N750 C742 1.356 . S
N750 H756 0.984 . S
N750 H757 0.984 . S
N751 C744 1.356 . S
N751 H754 0.984 . S
N751 H755 0.985 . S
H752 N747 0.984 . S
H753 N747 0.985 . S
H754 N751 0.984 . S
H755 N751 0.985 . S
H756 N750 0.984 . S
H757 N750 0.984 . S
H758 N746 0.984 . S
H759 N746 0.985 . S
C760 C761 1.363 . S
C760 C766 1.379 . S
C760 N768 1.356 . S
C761 C760 1.363 . S
C761 C767 1.363 . S
C762 C763 1.363 . S
C762 C767 1.379 . S
C762 N769 1.356 . S
C763 C762 1.363 . S
C763 C766 1.363 . S
N764 C766 1.356 . S
N764 H776 0.984 . S
N764 H777 0.985 . S
N765 C767 1.356 . S
N765 H770 0.984 . S
N765 H771 0.985 . S
C766 C760 1.379 . S
C766 C763 1.363 . S
C766 N764 1.356 . S
C767 C761 1.363 . S
C767 C762 1.379 . S
C767 N765 1.356 . S
N768 C760 1.356 . S
N768 H774 0.984 . S
N768 H775 0.984 . S
N769 C762 1.356 . S
N769 H772 0.984 . S
N769 H773 0.985 . S
H770 N765 0.984 . S
H771 N765 0.985 . S
H772 N769 0.984 . S
H773 N769 0.985 . S
H774 N768 0.984 . S
H775 N768 0.984 . S
H776 N764 0.984 . S
H777 N764 0.985 . S
C778 C779 1.363 . S
C778 C784 1.379 . S
C778 N786 1.356 . S
C779 C778 1.363 . S
C779 C785 1.363 1_565 S
C780 C781 1.363 . S
C780 C785 1.379 . S
C780 N787 1.356 . S
C781 C780 1.363 . S
C781 C784 1.363 1_545 S
N782 C784 1.356 . S
N782 H794 0.984 . S
N782 H795 0.985 . S
N783 C785 1.356 . S
N783 H788 0.984 1_455 S
N783 H789 0.985 . S
C784 C778 1.379 . S
C784 C781 1.363 1_565 S
C784 N782 1.356 . S
C785 C779 1.363 1_545 S
C785 C780 1.379 . S
C785 N783 1.356 . S
N786 C778 1.356 . S
N786 H792 0.984 . S
N786 H793 0.984 . S
N787 C780 1.356 . S
N787 H790 0.984 . S
N787 H791 0.985 . S
H788 N783 0.984 1_655 S
H789 N783 0.985 . S
H790 N787 0.984 . S
H791 N787 0.985 . S
H792 N786 0.984 . S
H793 N786 0.984 . S
H794 N782 0.984 . S
H795 N782 0.985 . S
C796 C797 1.363 . S
C796 C802 1.379 . S
C796 N804 1.356 . S
C797 C796 1.363 . S
C797 C803 1.363 . S
C798 C799 1.363 . S
C798 C803 1.379 . S
C798 N805 1.356 . S
C799 C798 1.363 . S
C799 C802 1.363 . S
N800 C802 1.356 . S
N800 H812 0.984 . S
N800 H813 0.985 . S
N801 C803 1.356 . S
N801 H806 0.984 . S
N801 H807 0.985 . S
C802 C796 1.379 . S
C802 C799 1.363 . S
C802 N800 1.356 . S
C803 C797 1.363 . S
C803 C798 1.379 . S
C803 N801 1.356 . S
N804 C796 1.356 . S
N804 H810 0.984 . S
N804 H811 0.984 . S
N805 C798 1.356 . S
N805 H808 0.984 . S
N805 H809 0.985 . S
H806 N801 0.984 . S
H807 N801 0.985 . S
H808 N805 0.984 . S
H809 N805 0.985 . S
H810 N804 0.984 . S
H811 N804 0.984 . S
H812 N800 0.984 . S
H813 N800 0.985 . S
C814 C815 1.363 1_545 S
C814 C820 1.379 . S
C814 N822 1.356 1_545 S
C815 C814 1.363 1_565 S
C815 C821 1.363 . S
C816 C817 1.363 . S
C816 C821 1.379 1_545 S
C816 N823 1.356 . S
C817 C816 1.363 . S
C817 C820 1.363 . S
N818 C820 1.356 . S
N818 H830 0.984 . S
N818 H831 0.985 . S
N819 C821 1.356 . S
N819 H824 0.984 . S
N819 H825 0.985 . S
C820 C814 1.379 . S
C820 C817 1.363 . S
C820 N818 1.356 . S
C821 C815 1.363 . S
C821 C816 1.379 1_565 S
C821 N819 1.356 . S
N822 C814 1.356 1_565 S
N822 H828 0.984 1_565 S
N822 H829 0.984 . S
N823 C816 1.356 . S
N823 H826 0.984 . S
N823 H827 0.985 . S
H824 N819 0.984 . S
H825 N819 0.985 . S
H826 N823 0.984 . S
H827 N823 0.985 . S
H828 N822 0.984 1_545 S
H829 N822 0.984 . S
H830 N818 0.984 . S
H831 N818 0.985 . S
C832 C833 1.363 . S
C832 C838 1.379 . S
C832 N840 1.356 . S
C833 C832 1.363 . S
C833 C839 1.363 . S
C834 C835 1.363 1_556 S
C834 C839 1.379 . S
C834 N841 1.356 1_556 S
C835 C834 1.363 1_554 S
C835 C838 1.363 1_554 S
N836 C838 1.356 1_554 S
N836 H848 0.984 1_545 S
N836 H849 0.985 . S
N837 C839 1.356 . S
N837 H842 0.984 . S
N837 H843 0.985 . S
C838 C832 1.379 . S
C838 C835 1.363 1_556 S
C838 N836 1.356 1_556 S
C839 C833 1.363 . S
C839 C834 1.379 . S
C839 N837 1.356 . S
N840 C832 1.356 . S
N840 H846 0.984 . S
N840 H847 0.984 . S
N841 C834 1.356 1_554 S
N841 H844 0.984 . S
N841 H845 0.985 . S
H842 N837 0.984 . S
H843 N837 0.985 . S
H844 N841 0.984 . S
H845 N841 0.985 . S
H846 N840 0.984 . S
H847 N840 0.984 . S
H848 N836 0.984 1_565 S
H849 N836 0.985 . S
C850 C851 1.363 . S
C850 C856 1.379 . S
C850 N858 1.356 . S
C851 C850 1.363 . S
C851 C857 1.363 . S
C852 C853 1.363 . S
C852 C857 1.379 . S
C852 N859 1.356 . S
C853 C852 1.363 . S
C853 C856 1.363 . S
N854 C856 1.356 . S
N854 H866 0.984 . S
N854 H867 0.985 . S
N855 C857 1.356 . S
N855 H860 0.984 . S
N855 H861 0.985 . S
C856 C850 1.379 . S
C856 C853 1.363 . S
C856 N854 1.356 . S
C857 C851 1.363 . S
C857 C852 1.379 . S
C857 N855 1.356 . S
N858 C850 1.356 . S
N858 H864 0.984 . S
N858 H865 0.984 . S
N859 C852 1.356 . S
N859 H862 0.984 . S
N859 H863 0.985 . S
H860 N855 0.984 . S
H861 N855 0.985 . S
H862 N859 0.984 . S
H863 N859 0.985 . S
H864 N858 0.984 . S
H865 N858 0.984 . S
H866 N854 0.984 . S
H867 N854 0.985 . S
C868 C869 1.363 . S
C868 C874 1.379 . S
C868 N876 1.356 . S
C869 C868 1.363 . S
C869 C875 1.363 . S
C870 C871 1.363 . S
C870 C875 1.379 . S
C870 N877 1.356 . S
C871 C870 1.363 . S
C871 C874 1.363 . S
N872 C874 1.356 . S
N872 H884 0.984 . S
N872 H885 0.985 . S
N873 C875 1.356 . S
N873 H878 0.984 . S
N873 H879 0.985 1_565 S
C874 C868 1.379 . S
C874 C871 1.363 . S
C874 N872 1.356 . S
C875 C869 1.363 . S
C875 C870 1.379 . S
C875 N873 1.356 . S
N876 C868 1.356 . S
N876 H882 0.984 . S
N876 H883 0.984 . S
N877 C870 1.356 . S
N877 H880 0.984 . S
N877 H881 0.985 . S
H878 N873 0.984 . S
H879 N873 0.985 1_545 S
H880 N877 0.984 . S
H881 N877 0.985 . S
H882 N876 0.984 . S
H883 N876 0.984 . S
H884 N872 0.984 . S
H885 N872 0.985 . S
C886 C887 1.363 . S
C886 C892 1.379 . S
C886 N894 1.356 . S
C887 C886 1.363 . S
C887 C893 1.363 . S
C888 C889 1.363 . S
C888 C893 1.379 . S
C888 N895 1.356 . S
C889 C888 1.363 . S
C889 C892 1.363 . S
N890 C892 1.356 . S
N890 H902 0.984 . S
N890 H903 0.985 . S
N891 C893 1.356 . S
N891 H896 0.984 . S
N891 H897 0.985 . S
C892 C886 1.379 . S
C892 C889 1.363 . S
C892 N890 1.356 . S
C893 C887 1.363 . S
C893 C888 1.379 . S
C893 N891 1.356 . S
N894 C886 1.356 . S
N894 H900 0.984 . S
N894 H901 0.984 . S
N895 C888 1.356 . S
N895 H898 0.984 . S
N895 H899 0.985 . S
H896 N891 0.984 . S
H897 N891 0.985 . S
H898 N895 0.984 . S
H899 N895 0.985 . S
H900 N894 0.984 . S
H901 N894 0.984 . S
H902 N890 0.984 . S
H903 N890 0.985 . S
C904 C905 1.363 . S
C904 C910 1.379 . S
C904 N912 1.356 . S
C905 C904 1.363 . S
C905 C911 1.363 . S
C906 C907 1.363 1_554 S
C906 C911 1.379 . S
C906 N913 1.356 1_554 S
C907 C906 1.363 1_556 S
C907 C910 1.363 1_556 S
N908 C910 1.356 . S
N908 H920 0.984 1_565 S
N908 H921 0.985 1_554 S
N909 C911 1.356 . S
N909 H914 0.984 . S
N909 H915 0.985 . S
C910 C904 1.379 . S
C910 C907 1.363 1_554 S
C910 N908 1.356 . S
C911 C905 1.363 . S
C911 C906 1.379 . S
C911 N909 1.356 . S
N912 C904 1.356 . S
N912 H918 0.984 1_565 S
N912 H919 0.984 . S
N913 C906 1.356 1_556 S
N913 H916 0.984 . S
N913 H917 0.985 . S
H914 N909 0.984 . S
H915 N909 0.985 . S
H916 N913 0.984 . S
H917 N913 0.985 . S
H918 N912 0.984 1_545 S
H919 N912 0.984 . S
H920 N908 0.984 1_545 S
H921 N908 0.985 1_556 S
C922 C923 1.363 . S
C922 C928 1.379 . S
C922 N930 1.356 . S
C923 C922 1.363 . S
C923 C929 1.363 . S
C924 C925 1.363 . S
C924 C929 1.379 . S
C924 N931 1.356 . S
C925 C924 1.363 . S
C925 C928 1.363 . S
N926 C928 1.356 . S
N926 H938 0.984 . S
N926 H939 0.985 . S
N927 C929 1.356 . S
N927 H932 0.984 . S
N927 H933 0.985 . S
C928 C922 1.379 . S
C928 C925 1.363 . S
C928 N926 1.356 . S
C929 C923 1.363 . S
C929 C924 1.379 . S
C929 N927 1.356 . S
N930 C922 1.356 . S
N930 H936 0.984 . S
N930 H937 0.984 . S
N931 C924 1.356 . S
N931 H934 0.984 . S
N931 H935 0.985 . S
H932 N927 0.984 . S
H933 N927 0.985 . S
H934 N931 0.984 . S
H935 N931 0.985 . S
H936 N930 0.984 . S
H937 N930 0.984 . S
H938 N926 0.984 . S
H939 N926 0.985 . S
C940 C941 1.363 . S
C940 C946 1.379 . S
C940 N948 1.356 . S
C941 C940 1.363 . S
C941 C947 1.363 . S
C942 C943 1.363 . S
C942 C947 1.379 . S
C942 N949 1.356 . S
C943 C942 1.363 . S
C943 C946 1.363 . S
N944 C946 1.356 . S
N944 H956 0.984 . S
N944 H957 0.985 . S
N945 C947 1.356 . S
N945 H950 0.984 . S
N945 H951 0.985 . S
C946 C940 1.379 . S
C946 C943 1.363 . S
C946 N944 1.356 . S
C947 C941 1.363 . S
C947 C942 1.379 . S
C947 N945 1.356 . S
N948 C940 1.356 . S
N948 H954 0.984 . S
N948 H955 0.984 . S
N949 C942 1.356 . S
N949 H952 0.984 . S
N949 H953 0.985 1_545 S
H950 N945 0.984 . S
H951 N945 0.985 . S
H952 N949 0.984 . S
H953 N949 0.985 1_565 S
H954 N948 0.984 . S
H955 N948 0.984 . S
H956 N944 0.984 . S
H957 N944 0.985 . S
C958 C959 1.363 . S
C958 C964 1.379 . S
C958 N966 1.356 . S
C959 C958 1.363 . S
C959 C965 1.363 . S
C960 C961 1.363 . S
C960 C965 1.379 . S
C960 N967 1.356 . S
C961 C960 1.363 . S
C961 C964 1.363 . S
N962 C964 1.356 . S
N962 H974 0.984 . S
N962 H975 0.985 . S
N963 C965 1.356 . S
N963 H968 0.984 . S
N963 H969 0.985 . S
C964 C958 1.379 . S
C964 C961 1.363 . S
C964 N962 1.356 . S
C965 C959 1.363 . S
C965 C960 1.379 . S
C965 N963 1.356 . S
N966 C958 1.356 . S
N966 H972 0.984 . S
N966 H973 0.984 . S
N967 C960 1.356 . S
N967 H970 0.984 . S
N967 H971 0.985 . S
H968 N963 0.984 . S
H969 N963 0.985 . S
H970 N967 0.984 . S
H971 N967 0.985 . S
H972 N966 0.984 . S
H973 N966 0.984 . S
H974 N962 0.984 . S
H975 N962 0.985 . S
C976 C977 1.363 . S
C976 C982 1.379 . S
C976 N984 1.356 . S
C977 C976 1.363 . S
C977 C983 1.363 . S
C978 C979 1.363 . S
C978 C983 1.379 . S
C978 N985 1.356 . S
C979 C978 1.363 . S
C979 C982 1.363 . S
N980 C982 1.356 . S
N980 H992 0.984 . S
N980 H993 0.985 . S
N981 C983 1.356 . S
N981 H986 0.984 . S
N981 H987 0.985 . S
C982 C976 1.379 . S
C982 C979 1.363 . S
C982 N980 1.356 . S
C983 C977 1.363 . S
C983 C978 1.379 . S
C983 N981 1.356 . S
N984 C976 1.356 . S
N984 H990 0.984 . S
N984 H991 0.984 . S
N985 C978 1.356 . S
N985 H988 0.984 . S
N985 H989 0.985 . S
H986 N981 0.984 . S
H987 N981 0.985 . S
H988 N985 0.984 . S
H989 N985 0.985 . S
H990 N984 0.984 . S
H991 N984 0.984 . S
H992 N980 0.984 . S
H993 N980 0.985 . S
C994 C995 1.363 1_565 S
C994 C1000 1.379 . S
C994 N1002 1.356 . S
C995 C994 1.363 1_545 S
C995 C1001 1.363 . S
C996 C997 1.363 . S
C996 C1001 1.379 . S
C996 N1003 1.356 . S
C997 C996 1.363 . S
C997 C1000 1.363 1_545 S
N998 C1000 1.356 . S
N998 H1010 0.984 . S
N998 H1011 0.985 . S
N999 C1001 1.356 . S
N999 H1004 0.984 . S
N999 H1005 0.985 . S
C1000 C994 1.379 . S
C1000 C997 1.363 1_565 S
C1000 N998 1.356 . S
C1001 C995 1.363 . S
C1001 C996 1.379 . S
C1001 N999 1.356 . S
N1002 C994 1.356 . S
N1002 H1008 0.984 . S
N1002 H1009 0.984 . S
N1003 C996 1.356 . S
N1003 H1006 0.984 . S
N1003 H1007 0.985 . S
H1004 N999 0.984 . S
H1005 N999 0.985 . S
H1006 N1003 0.984 . S
H1007 N1003 0.985 . S
H1008 N1002 0.984 . S
H1009 N1002 0.984 . S
H1010 N998 0.984 . S
H1011 N998 0.985 . S
C1012 C1013 1.363 . S
C1012 C1018 1.379 . S
C1012 N1020 1.356 . S
C1013 C1012 1.363 . S
C1013 C1019 1.363 . S
C1014 C1015 1.363 1_556 S
C1014 C1019 1.379 . S
C1014 N1021 1.356 1_556 S
C1015 C1014 1.363 1_554 S
C1015 C1018 1.363 1_554 S
N1016 C1018 1.356 1_554 S
N1016 H1028 0.984 . S
N1016 H1029 0.985 . S
N1017 C1019 1.356 . S
N1017 H1022 0.984 . S
N1017 H1023 0.985 . S
C1018 C1012 1.379 . S
C1018 C1015 1.363 1_556 S
C1018 N1016 1.356 1_556 S
C1019 C1013 1.363 . S
C1019 C1014 1.379 . S
C1019 N1017 1.356 . S
N1020 C1012 1.356 . S
N1020 H1026 0.984 . S
N1020 H1027 0.984 . S
N1021 C1014 1.356 1_554 S
N1021 H1024 0.984 . S
N1021 H1025 0.985 . S
H1022 N1017 0.984 . S
H1023 N1017 0.985 . S
H1024 N1021 0.984 . S
H1025 N1021 0.985 . S
H1026 N1020 0.984 . S
H1027 N1020 0.984 . S
H1028 N1016 0.984 . S
H1029 N1016 0.985 . S
C1030 C1031 1.363 1_545 S
C1030 C1036 1.379 1_545 S
C1030 N1038 1.356 . S
C1031 C1030 1.363 1_565 S
C1031 C1037 1.363 . S
C1032 C1033 1.363 . S
C1032 C1037 1.379 . S
C1032 N1039 1.356 . S
C1033 C1032 1.363 . S
C1033 C1036 1.363 . S
N1034 C1036 1.356 . S
N1034 H1046 0.984 1_565 S
N1034 H1047 0.985 . S
N1035 C1037 1.356 . S
N1035 H1040 0.984 . S
N1035 H1041 0.985 . S
C1036 C1030 1.379 1_565 S
C1036 C1033 1.363 . S
C1036 N1034 1.356 . S
C1037 C1031 1.363 . S
C1037 C1032 1.379 . S
C1037 N1035 1.356 . S
N1038 C1030 1.356 . S
N1038 H1044 0.984 . S
N1038 H1045 0.984 . S
N1039 C1032 1.356 . S
N1039 H1042 0.984 . S
N1039 H1043 0.985 . S
H1040 N1035 0.984 . S
H1041 N1035 0.985 . S
H1042 N1039 0.984 . S
H1043 N1039 0.985 . S
H1044 N1038 0.984 . S
H1045 N1038 0.984 . S
H1046 N1034 0.984 1_545 S
H1047 N1034 0.985 . S
C1048 C1049 1.363 . S
C1048 C1054 1.379 . S
C1048 N1056 1.356 . S
C1049 C1048 1.363 . S
C1049 C1055 1.363 . S
C1050 C1051 1.363 . S
C1050 C1055 1.379 . S
C1050 N1057 1.356 . S
C1051 C1050 1.363 . S
C1051 C1054 1.363 . S
N1052 C1054 1.356 . S
N1052 H1064 0.984 . S
N1052 H1065 0.985 . S
N1053 C1055 1.356 . S
N1053 H1058 0.984 . S
N1053 H1059 0.985 . S
C1054 C1048 1.379 . S
C1054 C1051 1.363 . S
C1054 N1052 1.356 . S
C1055 C1049 1.363 . S
C1055 C1050 1.379 . S
C1055 N1053 1.356 . S
N1056 C1048 1.356 . S
N1056 H1062 0.984 . S
N1056 H1063 0.984 . S
N1057 C1050 1.356 . S
N1057 H1060 0.984 . S
N1057 H1061 0.985 . S
H1058 N1053 0.984 . S
H1059 N1053 0.985 . S
H1060 N1057 0.984 . S
H1061 N1057 0.985 . S
H1062 N1056 0.984 . S
H1063 N1056 0.984 . S
H1064 N1052 0.984 . S
H1065 N1052 0.985 . S
C1066 C1067 1.363 1_545 S
C1066 C1072 1.379 . S
C1066 N1074 1.356 . S
C1067 C1066 1.363 1_565 S
C1067 C1073 1.363 . S
C1068 C1069 1.363 . S
C1068 C1073 1.379 . S
C1068 N1075 1.356 . S
C1069 C1068 1.363 . S
C1069 C1072 1.363 1_565 S
N1070 C1072 1.356 . S
N1070 H1082 0.984 . S
N1070 H1083 0.985 . S
N1071 C1073 1.356 . S
N1071 H1076 0.984 . S
N1071 H1077 0.985 . S
C1072 C1066 1.379 . S
C1072 C1069 1.363 1_545 S
C1072 N1070 1.356 . S
C1073 C1067 1.363 . S
C1073 C1068 1.379 . S
C1073 N1071 1.356 . S
N1074 C1066 1.356 . S
N1074 H1080 0.984 . S
N1074 H1081 0.984 . S
N1075 C1068 1.356 . S
N1075 H1078 0.984 . S
N1075 H1079 0.985 . S
H1076 N1071 0.984 . S
H1077 N1071 0.985 . S
H1078 N1075 0.984 . S
H1079 N1075 0.985 . S
H1080 N1074 0.984 . S
H1081 N1074 0.984 . S
H1082 N1070 0.984 . S
H1083 N1070 0.985 . S
C1084 C1085 1.363 . S
C1084 C1090 1.379 . S
C1084 N1092 1.356 . S
C1085 C1084 1.363 . S
C1085 C1091 1.363 . S
C1086 C1087 1.363 1_554 S
C1086 C1091 1.379 . S
C1086 N1093 1.356 1_554 S
C1087 C1086 1.363 1_556 S
C1087 C1090 1.363 1_556 S
N1088 C1090 1.356 . S
N1088 H1100 0.984 . S
N1088 H1101 0.985 1_554 S
N1089 C1091 1.356 . S
N1089 H1094 0.984 . S
N1089 H1095 0.985 . S
C1090 C1084 1.379 . S
C1090 C1087 1.363 1_554 S
C1090 N1088 1.356 . S
C1091 C1085 1.363 . S
C1091 C1086 1.379 . S
C1091 N1089 1.356 . S
N1092 C1084 1.356 . S
N1092 H1098 0.984 . S
N1092 H1099 0.984 . S
N1093 C1086 1.356 1_556 S
N1093 H1096 0.984 . S
N1093 H1097 0.985 . S
H1094 N1089 0.984 . S
H1095 N1089 0.985 . S
H1096 N1093 0.984 . S
H1097 N1093 0.985 . S
H1098 N1092 0.984 . S
H1099 N1092 0.984 . S
H1100 N1088 0.984 . S
H1101 N1088 0.985 1_556 S
C1102 C1103 1.363 1_565 S
C1102 C1108 1.379 . S
C1102 N1110 1.356 . S
C1103 C1102 1.363 1_545 S
C1103 C1109 1.363 . S
C1104 C1105 1.363 . S
C1104 C1109 1.379 . S
C1104 N1111 1.356 . S
C1105 C1104 1.363 . S
C1105 C1108 1.363 1_545 S
N1106 C1108 1.356 . S
N1106 H1118 0.984 . S
N1106 H1119 0.985 . S
N1107 C1109 1.356 . S
N1107 H1112 0.984 . S
N1107 H1113 0.985 . S
C1108 C1102 1.379 . S
C1108 C1105 1.363 1_565 S
C1108 N1106 1.356 . S
C1109 C1103 1.363 . S
C1109 C1104 1.379 . S
C1109 N1107 1.356 . S
N1110 C1102 1.356 . S
N1110 H1116 0.984 . S
N1110 H1117 0.984 . S
N1111 C1104 1.356 . S
N1111 H1114 0.984 . S
N1111 H1115 0.985 . S
H1112 N1107 0.984 . S
H1113 N1107 0.985 . S
H1114 N1111 0.984 . S
H1115 N1111 0.985 . S
H1116 N1110 0.984 . S
H1117 N1110 0.984 . S
H1118 N1106 0.984 . S
H1119 N1106 0.985 . S
C1120 C1121 1.363 1_545 S
C1120 C1126 1.379 1_556 S
C1120 N1128 1.356 . S
C1121 C1120 1.363 1_565 S
C1121 C1127 1.363 . S
C1122 C1123 1.363 1_565 S
C1122 C1127 1.379 1_554 S
C1122 N1129 1.356 . S
C1123 C1122 1.363 1_545 S
C1123 C1126 1.363 . S
N1124 C1126 1.356 . S
N1124 H1136 0.984 . S
N1124 H1137 0.985 . S
N1125 C1127 1.356 . S
N1125 H1130 0.984 . S
N1125 H1131 0.985 . S
C1126 C1120 1.379 1_554 S
C1126 C1123 1.363 . S
C1126 N1124 1.356 . S
C1127 C1121 1.363 . S
C1127 C1122 1.379 1_556 S
C1127 N1125 1.356 . S
N1128 C1120 1.356 . S
N1128 H1134 0.984 . S
N1128 H1135 0.984 . S
N1129 C1122 1.356 . S
N1129 H1132 0.984 . S
N1129 H1133 0.985 . S
H1130 N1125 0.984 . S
H1131 N1125 0.985 . S
H1132 N1129 0.984 . S
H1133 N1129 0.985 . S
H1134 N1128 0.984 . S
H1135 N1128 0.984 . S
H1136 N1124 0.984 . S
H1137 N1124 0.985 . S
C1138 C1139 1.363 . S
C1138 C1144 1.379 . S
C1138 N1146 1.356 . S
C1139 C1138 1.363 . S
C1139 C1145 1.363 . S
C1140 C1141 1.363 . S
C1140 C1145 1.379 . S
C1140 N1147 1.356 . S
C1141 C1140 1.363 . S
C1141 C1144 1.363 . S
N1142 C1144 1.356 . S
N1142 H1154 0.984 . S
N1142 H1155 0.985 . S
N1143 C1145 1.356 . S
N1143 H1148 0.984 . S
N1143 H1149 0.985 . S
C1144 C1138 1.379 . S
C1144 C1141 1.363 . S
C1144 N1142 1.356 . S
C1145 C1139 1.363 . S
C1145 C1140 1.379 . S
C1145 N1143 1.356 . S
N1146 C1138 1.356 . S
N1146 H1152 0.984 . S
N1146 H1153 0.984 . S
N1147 C1140 1.356 . S
N1147 H1150 0.984 . S
N1147 H1151 0.985 . S
H1148 N1143 0.984 . S
H1149 N1143 0.985 . S
H1150 N1147 0.984 . S
H1151 N1147 0.985 . S
H1152 N1146 0.984 . S
H1153 N1146 0.984 . S
H1154 N1142 0.984 . S
H1155 N1142 0.985 . S
C1156 C1157 1.363 1_455 S
C1156 C1162 1.379 . S
C1156 N1164 1.356 . S
C1157 C1156 1.363 1_655 S
C1157 C1163 1.363 1_545 S
C1158 C1159 1.363 1_655 S
C1158 C1163 1.379 . S
C1158 N1165 1.356 . S
C1159 C1158 1.363 1_455 S
C1159 C1162 1.363 1_565 S
N1160 C1162 1.356 . S
N1160 H1172 0.984 . S
N1160 H1173 0.985 1_545 S
N1161 C1163 1.356 . S
N1161 H1166 0.984 1_565 S
N1161 H1167 0.985 . S
C1162 C1156 1.379 . S
C1162 C1159 1.363 1_545 S
C1162 N1160 1.356 . S
C1163 C1157 1.363 1_565 S
C1163 C1158 1.379 . S
C1163 N1161 1.356 . S
N1164 C1156 1.356 . S
N1164 H1170 0.984 . S
N1164 H1171 0.984 . S
N1165 C1158 1.356 . S
N1165 H1168 0.984 . S
N1165 H1169 0.985 . S
H1166 N1161 0.984 1_545 S
H1167 N1161 0.985 . S
H1168 N1165 0.984 . S
H1169 N1165 0.985 . S
H1170 N1164 0.984 . S
H1171 N1164 0.984 . S
H1172 N1160 0.984 . S
H1173 N1160 0.985 1_565 S
C1174 C1175 1.363 . S
C1174 C1180 1.379 . S
C1174 N1182 1.356 . S
C1175 C1174 1.363 . S
C1175 C1181 1.363 . S
C1176 C1177 1.363 . S
C1176 C1181 1.379 . S
C1176 N1183 1.356 . S
C1177 C1176 1.363 . S
C1177 C1180 1.363 . S
N1178 C1180 1.356 . S
N1178 H1190 0.984 . S
N1178 H1191 0.985 . S
N1179 C1181 1.356 . S
N1179 H1184 0.984 . S
N1179 H1185 0.985 . S
C1180 C1174 1.379 . S
C1180 C1177 1.363 . S
C1180 N1178 1.356 . S
C1181 C1175 1.363 . S
C1181 C1176 1.379 . S
C1181 N1179 1.356 . S
N1182 C1174 1.356 . S
N1182 H1188 0.984 . S
N1182 H1189 0.984 . S
N1183 C1176 1.356 . S
N1183 H1186 0.984 . S
N1183 H1187 0.985 . S
H1184 N1179 0.984 . S
H1185 N1179 0.985 . S
H1186 N1183 0.984 . S
H1187 N1183 0.985 . S
H1188 N1182 0.984 . S
H1189 N1182 0.984 . S
H1190 N1178 0.984 . S
H1191 N1178 0.985 . S
C1192 C1193 1.363 . S
C1192 C1198 1.379 . S
C1192 N1200 1.356 . S
C1193 C1192 1.363 . S
C1193 C1199 1.363 . S
C1194 C1195 1.363 . S
C1194 C1199 1.379 . S
C1194 N1201 1.356 . S
C1195 C1194 1.363 . S
C1195 C1198 1.363 . S
N1196 C1198 1.356 . S
N1196 H1208 0.984 . S
N1196 H1209 0.985 . S
N1197 C1199 1.356 . S
N1197 H1202 0.984 . S
N1197 H1203 0.985 . S
C1198 C1192 1.379 . S
C1198 C1195 1.363 . S
C1198 N1196 1.356 . S
C1199 C1193 1.363 . S
C1199 C1194 1.379 . S
C1199 N1197 1.356 . S
N1200 C1192 1.356 . S
N1200 H1206 0.984 . S
N1200 H1207 0.984 . S
N1201 C1194 1.356 . S
N1201 H1204 0.984 . S
N1201 H1205 0.985 . S
H1202 N1197 0.984 . S
H1203 N1197 0.985 . S
H1204 N1201 0.984 . S
H1205 N1201 0.985 . S
H1206 N1200 0.984 . S
H1207 N1200 0.984 . S
H1208 N1196 0.984 . S
H1209 N1196 0.985 . S
C1210 C1211 1.363 . S
C1210 C1216 1.379 . S
C1210 N1218 1.356 . S
C1211 C1210 1.363 . S
C1211 C1217 1.363 . S
C1212 C1213 1.363 . S
C1212 C1217 1.379 . S
C1212 N1219 1.356 . S
C1213 C1212 1.363 . S
C1213 C1216 1.363 . S
N1214 C1216 1.356 . S
N1214 H1226 0.984 . S
N1214 H1227 0.985 . S
N1215 C1217 1.356 . S
N1215 H1220 0.984 . S
N1215 H1221 0.985 . S
C1216 C1210 1.379 . S
C1216 C1213 1.363 . S
C1216 N1214 1.356 . S
C1217 C1211 1.363 . S
C1217 C1212 1.379 . S
C1217 N1215 1.356 . S
N1218 C1210 1.356 . S
N1218 H1224 0.984 . S
N1218 H1225 0.984 . S
N1219 C1212 1.356 . S
N1219 H1222 0.984 . S
N1219 H1223 0.985 . S
H1220 N1215 0.984 . S
H1221 N1215 0.985 . S
H1222 N1219 0.984 . S
H1223 N1219 0.985 . S
H1224 N1218 0.984 . S
H1225 N1218 0.984 . S
H1226 N1214 0.984 . S
H1227 N1214 0.985 . S
C1228 C1229 1.363 1_455 S
C1228 C1234 1.379 . S
C1228 N1236 1.356 . S
C1229 C1228 1.363 1_655 S
C1229 C1235 1.363 . S
C1230 C1231 1.363 1_655 S
C1230 C1235 1.379 . S
C1230 N1237 1.356 . S
C1231 C1230 1.363 1_455 S
C1231 C1234 1.363 . S
N1232 C1234 1.356 . S
N1232 H1244 0.984 . S
N1232 H1245 0.985 . S
N1233 C1235 1.356 . S
N1233 H1238 0.984 . S
N1233 H1239 0.985 . S
C1234 C1228 1.379 . S
C1234 C1231 1.363 . S
C1234 N1232 1.356 . S
C1235 C1229 1.363 . S
C1235 C1230 1.379 . S
C1235 N1233 1.356 . S
N1236 C1228 1.356 . S
N1236 H1242 0.984 . S
N1236 H1243 0.984 . S
N1237 C1230 1.356 . S
N1237 H1240 0.984 . S
N1237 H1241 0.985 . S
H1238 N1233 0.984 . S
H1239 N1233 0.985 . S
H1240 N1237 0.984 . S
H1241 N1237 0.985 . S
H1242 N1236 0.984 . S
H1243 N1236 0.984 . S
H1244 N1232 0.984 . S
H1245 N1232 0.985 . S
C1246 C1247 1.363 1_556 S
C1246 C1252 1.379 . S
C1246 N1254 1.361 . S
C1247 C1246 1.363 1_554 S
C1247 C1253 1.363 . S
C1248 C1249 1.363 1_554 S
C1248 C1253 1.379 . S
C1248 N1255 1.361 . S
C1249 C1248 1.363 1_556 S
C1249 C1252 1.363 . S
N1250 C1252 1.356 . S
N1250 H1262 0.984 . S
N1250 H1263 0.985 . S
N1251 C1253 1.356 . S
N1251 H1256 0.984 . S
N1251 H1257 0.985 . S
C1252 C1246 1.379 . S
C1252 C1249 1.363 . S
C1252 N1250 1.356 . S
C1253 C1247 1.363 . S
C1253 C1248 1.379 . S
C1253 N1251 1.356 . S
N1254 C1246 1.361 . S
N1254 H1260 1.011 . S
N1254 H1261 0.954 1_556 S
N1255 C1248 1.361 . S
N1255 H1258 0.954 1_554 S
N1255 H1259 1.011 . S
H1256 N1251 0.984 . S
H1257 N1251 0.985 . S
H1258 N1255 0.954 1_556 S
H1259 N1255 1.011 . S
H1260 N1254 1.011 . S
H1261 N1254 0.954 1_554 S
H1262 N1250 0.984 . S
H1263 N1250 0.985 . S
C1264 C1265 1.363 . S
C1264 C1270 1.379 . S
C1264 N1272 1.356 . S
C1265 C1264 1.363 . S
C1265 C1271 1.363 . S
C1266 C1267 1.363 . S
C1266 C1271 1.379 . S
C1266 N1273 1.356 . S
C1267 C1266 1.363 . S
C1267 C1270 1.363 . S
N1268 C1270 1.356 . S
N1268 H1280 0.984 . S
N1268 H1281 0.985 . S
N1269 C1271 1.356 . S
N1269 H1274 0.984 . S
N1269 H1275 0.985 . S
C1270 C1264 1.379 . S
C1270 C1267 1.363 . S
C1270 N1268 1.356 . S
C1271 C1265 1.363 . S
C1271 C1266 1.379 . S
C1271 N1269 1.356 . S
N1272 C1264 1.356 . S
N1272 H1278 0.984 . S
N1272 H1279 0.984 . S
N1273 C1266 1.356 . S
N1273 H1276 0.984 . S
N1273 H1277 0.985 . S
H1274 N1269 0.984 . S
H1275 N1269 0.985 . S
H1276 N1273 0.984 . S
H1277 N1273 0.985 . S
H1278 N1272 0.984 . S
H1279 N1272 0.984 . S
H1280 N1268 0.984 . S
H1281 N1268 0.985 . S
C1282 C1283 1.363 . S
C1282 C1288 1.379 1_455 S
C1282 N1290 1.356 . S
C1283 C1282 1.363 . S
C1283 C1289 1.363 . S
C1284 C1285 1.363 . S
C1284 C1289 1.379 1_655 S
C1284 N1291 1.356 . S
C1285 C1284 1.363 . S
C1285 C1288 1.363 . S
N1286 C1288 1.356 . S
N1286 H1298 0.984 . S
N1286 H1299 0.985 . S
N1287 C1289 1.356 . S
N1287 H1292 0.984 . S
N1287 H1293 0.985 . S
C1288 C1282 1.379 1_655 S
C1288 C1285 1.363 . S
C1288 N1286 1.356 . S
C1289 C1283 1.363 . S
C1289 C1284 1.379 1_455 S
C1289 N1287 1.356 . S
N1290 C1282 1.356 . S
N1290 H1296 0.984 . S
N1290 H1297 0.984 . S
N1291 C1284 1.356 . S
N1291 H1294 0.984 . S
N1291 H1295 0.985 . S
H1292 N1287 0.984 . S
H1293 N1287 0.985 . S
H1294 N1291 0.984 . S
H1295 N1291 0.985 . S
H1296 N1290 0.984 . S
H1297 N1290 0.984 . S
H1298 N1286 0.984 . S
H1299 N1286 0.985 . S
C1300 C1301 1.363 . S
C1300 C1306 1.379 . S
C1300 N1308 1.356 . S
C1301 C1300 1.363 . S
C1301 C1307 1.363 . S
C1302 C1303 1.363 . S
C1302 C1307 1.379 . S
C1302 N1309 1.356 . S
C1303 C1302 1.363 . S
C1303 C1306 1.363 . S
N1304 C1306 1.356 . S
N1304 H1316 0.984 . S
N1304 H1317 0.985 . S
N1305 C1307 1.356 . S
N1305 H1310 0.984 . S
N1305 H1311 0.985 . S
C1306 C1300 1.379 . S
C1306 C1303 1.363 . S
C1306 N1304 1.356 . S
C1307 C1301 1.363 . S
C1307 C1302 1.379 . S
C1307 N1305 1.356 . S
N1308 C1300 1.356 . S
N1308 H1314 0.984 . S
N1308 H1315 0.984 . S
N1309 C1302 1.356 . S
N1309 H1312 0.984 . S
N1309 H1313 0.985 . S
H1310 N1305 0.984 . S
H1311 N1305 0.985 . S
H1312 N1309 0.984 . S
H1313 N1309 0.985 . S
H1314 N1308 0.984 . S
H1315 N1308 0.984 . S
H1316 N1304 0.984 . S
H1317 N1304 0.985 . S
C1318 C1319 1.363 . S
C1318 C1324 1.379 . S
C1318 N1326 1.356 . S
C1319 C1318 1.363 . S
C1319 C1325 1.363 . S
C1320 C1321 1.363 . S
C1320 C1325 1.379 . S
C1320 N1327 1.356 . S
C1321 C1320 1.363 . S
C1321 C1324 1.363 . S
N1322 C1324 1.356 . S
N1322 H1334 0.984 . S
N1322 H1335 0.985 . S
N1323 C1325 1.356 . S
N1323 H1328 0.984 . S
N1323 H1329 0.985 . S
C1324 C1318 1.379 . S
C1324 C1321 1.363 . S
C1324 N1322 1.356 . S
C1325 C1319 1.363 . S
C1325 C1320 1.379 . S
C1325 N1323 1.356 . S
N1326 C1318 1.356 . S
N1326 H1332 0.984 . S
N1326 H1333 0.984 . S
N1327 C1320 1.356 . S
N1327 H1330 0.984 . S
N1327 H1331 0.985 . S
H1328 N1323 0.984 . S
H1329 N1323 0.985 . S
H1330 N1327 0.984 . S
H1331 N1327 0.985 . S
H1332 N1326 0.984 . S
H1333 N1326 0.984 . S
H1334 N1322 0.984 . S
H1335 N1322 0.985 . S
C1336 C1337 1.363 . S
C1336 C1342 1.379 . S
C1336 N1344 1.356 . S
C1337 C1336 1.363 . S
C1337 C1343 1.363 . S
C1338 C1339 1.363 . S
C1338 C1343 1.379 . S
C1338 N1345 1.356 . S
C1339 C1338 1.363 . S
C1339 C1342 1.363 . S
N1340 C1342 1.356 . S
N1340 H1352 0.984 . S
N1340 H1353 0.985 . S
N1341 C1343 1.356 . S
N1341 H1346 0.984 . S
N1341 H1347 0.985 . S
C1342 C1336 1.379 . S
C1342 C1339 1.363 . S
C1342 N1340 1.356 . S
C1343 C1337 1.363 . S
C1343 C1338 1.379 . S
C1343 N1341 1.356 . S
N1344 C1336 1.356 . S
N1344 H1350 0.984 . S
N1344 H1351 0.984 . S
N1345 C1338 1.356 . S
N1345 H1348 0.984 . S
N1345 H1349 0.985 . S
H1346 N1341 0.984 . S
H1347 N1341 0.985 . S
H1348 N1345 0.984 . S
H1349 N1345 0.985 . S
H1350 N1344 0.984 . S
H1351 N1344 0.984 . S
H1352 N1340 0.984 . S
H1353 N1340 0.985 . S
C1354 C1355 1.363 . S
C1354 C1360 1.379 1_455 S
C1354 N1362 1.356 . S
C1355 C1354 1.363 . S
C1355 C1361 1.363 . S
C1356 C1357 1.363 . S
C1356 C1361 1.379 1_655 S
C1356 N1363 1.356 . S
C1357 C1356 1.363 . S
C1357 C1360 1.363 . S
N1358 C1360 1.356 . S
N1358 H1370 0.984 . S
N1358 H1371 0.985 . S
N1359 C1361 1.356 . S
N1359 H1364 0.984 . S
N1359 H1365 0.985 . S
C1360 C1354 1.379 1_655 S
C1360 C1357 1.363 . S
C1360 N1358 1.356 . S
C1361 C1355 1.363 . S
C1361 C1356 1.379 1_455 S
C1361 N1359 1.356 . S
N1362 C1354 1.356 . S
N1362 H1368 0.984 . S
N1362 H1369 0.984 . S
N1363 C1356 1.356 . S
N1363 H1366 0.984 . S
N1363 H1367 0.985 . S
H1364 N1359 0.984 . S
H1365 N1359 0.985 . S
H1366 N1363 0.984 . S
H1367 N1363 0.985 . S
H1368 N1362 0.984 . S
H1369 N1362 0.984 . S
H1370 N1358 0.984 . S
H1371 N1358 0.985 . S
C1372 C1373 1.363 . S
C1372 C1378 1.379 . S
C1372 N1380 1.356 . S
C1373 C1372 1.363 . S
C1373 C1379 1.363 . S
C1374 C1375 1.363 . S
C1374 C1379 1.379 . S
C1374 N1381 1.356 . S
C1375 C1374 1.363 . S
C1375 C1378 1.363 . S
N1376 C1378 1.356 . S
N1376 H1388 0.984 . S
N1376 H1389 0.985 . S
N1377 C1379 1.356 . S
N1377 H1382 0.984 . S
N1377 H1383 0.985 . S
C1378 C1372 1.379 . S
C1378 C1375 1.363 . S
C1378 N1376 1.356 . S
C1379 C1373 1.363 . S
C1379 C1374 1.379 . S
C1379 N1377 1.356 . S
N1380 C1372 1.356 . S
N1380 H1386 0.984 . S
N1380 H1387 0.984 . S
N1381 C1374 1.356 . S
N1381 H1384 0.984 . S
N1381 H1385 0.985 . S
H1382 N1377 0.984 . S
H1383 N1377 0.985 . S
H1384 N1381 0.984 . S
H1385 N1381 0.985 . S
H1386 N1380 0.984 . S
H1387 N1380 0.984 . S
H1388 N1376 0.984 . S
H1389 N1376 0.985 . S
C1390 C1391 1.363 . S
C1390 C1396 1.379 . S
C1390 N1398 1.356 . S
C1391 C1390 1.363 . S
C1391 C1397 1.363 . S
C1392 C1393 1.363 . S
C1392 C1397 1.379 . S
C1392 N1399 1.356 . S
C1393 C1392 1.363 . S
C1393 C1396 1.363 . S
N1394 C1396 1.356 . S
N1394 H1406 0.984 . S
N1394 H1407 0.985 . S
N1395 C1397 1.356 . S
N1395 H1400 0.984 . S
N1395 H1401 0.985 . S
C1396 C1390 1.379 . S
C1396 C1393 1.363 . S
C1396 N1394 1.356 . S
C1397 C1391 1.363 . S
C1397 C1392 1.379 . S
C1397 N1395 1.356 . S
N1398 C1390 1.356 . S
N1398 H1404 0.984 . S
N1398 H1405 0.984 . S
N1399 C1392 1.356 . S
N1399 H1402 0.984 . S
N1399 H1403 0.985 . S
H1400 N1395 0.984 . S
H1401 N1395 0.985 . S
H1402 N1399 0.984 . S
H1403 N1399 0.985 . S
H1404 N1398 0.984 . S
H1405 N1398 0.984 . S
H1406 N1394 0.984 . S
H1407 N1394 0.985 . S
C1408 C1409 1.363 . S
C1408 C1414 1.379 . S
C1408 N1416 1.356 . S
C1409 C1408 1.363 . S
C1409 C1415 1.363 . S
C1410 C1411 1.363 . S
C1410 C1415 1.379 . S
C1410 N1417 1.356 . S
C1411 C1410 1.363 . S
C1411 C1414 1.363 . S
N1412 C1414 1.356 . S
N1412 H1424 0.984 . S
N1412 H1425 0.985 . S
N1413 C1415 1.356 . S
N1413 H1418 0.984 . S
N1413 H1419 0.985 . S
C1414 C1408 1.379 . S
C1414 C1411 1.363 . S
C1414 N1412 1.356 . S
C1415 C1409 1.363 . S
C1415 C1410 1.379 . S
C1415 N1413 1.356 . S
N1416 C1408 1.356 . S
N1416 H1422 0.984 . S
N1416 H1423 0.984 . S
N1417 C1410 1.356 . S
N1417 H1420 0.984 . S
N1417 H1421 0.985 . S
H1418 N1413 0.984 . S
H1419 N1413 0.985 . S
H1420 N1417 0.984 . S
H1421 N1417 0.985 . S
H1422 N1416 0.984 . S
H1423 N1416 0.984 . S
H1424 N1412 0.984 . S
H1425 N1412 0.985 . S
C1426 C1427 1.363 . S
C1426 C1432 1.379 . S
C1426 N1434 1.356 1_545 S
C1427 C1426 1.363 . S
C1427 C1433 1.363 . S
C1428 C1429 1.363 . S
C1428 C1433 1.379 . S
C1428 N1435 1.356 . S
C1429 C1428 1.363 . S
C1429 C1432 1.363 . S
N1430 C1432 1.356 . S
N1430 H1442 0.984 . S
N1430 H1443 0.985 . S
N1431 C1433 1.356 . S
N1431 H1436 0.984 . S
N1431 H1437 0.985 . S
C1432 C1426 1.379 . S
C1432 C1429 1.363 . S
C1432 N1430 1.356 . S
C1433 C1427 1.363 . S
C1433 C1428 1.379 . S
C1433 N1431 1.356 . S
N1434 C1426 1.356 1_565 S
N1434 H1440 0.984 . S
N1434 H1441 0.984 . S
N1435 C1428 1.356 . S
N1435 H1438 0.984 . S
N1435 H1439 0.985 . S
H1436 N1431 0.984 . S
H1437 N1431 0.985 . S
H1438 N1435 0.984 . S
H1439 N1435 0.985 . S
H1440 N1434 0.984 . S
H1441 N1434 0.984 . S
H1442 N1430 0.984 . S
H1443 N1430 0.985 . S
C1444 C1445 1.363 . S
C1444 C1450 1.379 . S
C1444 N1452 1.356 . S
C1445 C1444 1.363 . S
C1445 C1451 1.363 . S
C1446 C1447 1.363 . S
C1446 C1451 1.379 . S
C1446 N1453 1.356 . S
C1447 C1446 1.363 . S
C1447 C1450 1.363 . S
N1448 C1450 1.356 . S
N1448 H1460 0.984 . S
N1448 H1461 0.985 . S
N1449 C1451 1.356 . S
N1449 H1454 0.984 . S
N1449 H1455 0.985 . S
C1450 C1444 1.379 . S
C1450 C1447 1.363 . S
C1450 N1448 1.356 . S
C1451 C1445 1.363 . S
C1451 C1446 1.379 . S
C1451 N1449 1.356 . S
N1452 C1444 1.356 . S
N1452 H1458 0.984 . S
N1452 H1459 0.984 . S
N1453 C1446 1.356 . S
N1453 H1456 0.984 . S
N1453 H1457 0.985 . S
H1454 N1449 0.984 . S
H1455 N1449 0.985 . S
H1456 N1453 0.984 . S
H1457 N1453 0.985 . S
H1458 N1452 0.984 . S
H1459 N1452 0.984 . S
H1460 N1448 0.984 . S
H1461 N1448 0.985 . S
C1462 C1463 1.363 . S
C1462 C1468 1.379 1_465 S
C1462 N1470 1.356 . S
C1463 C1462 1.363 . S
C1463 C1469 1.363 . S
C1464 C1465 1.363 . S
C1464 C1469 1.379 1_655 S
C1464 N1471 1.356 . S
C1465 C1464 1.363 . S
C1465 C1468 1.363 1_565 S
N1466 C1468 1.356 . S
N1466 H1478 0.984 . S
N1466 H1479 0.985 . S
N1467 C1469 1.356 . S
N1467 H1472 0.984 . S
N1467 H1473 0.985 . S
C1468 C1462 1.379 1_645 S
C1468 C1465 1.363 1_545 S
C1468 N1466 1.356 . S
C1469 C1463 1.363 . S
C1469 C1464 1.379 1_455 S
C1469 N1467 1.356 . S
N1470 C1462 1.356 . S
N1470 H1476 0.984 1_565 S
N1470 H1477 0.984 . S
N1471 C1464 1.356 . S
N1471 H1474 0.984 . S
N1471 H1475 0.985 . S
H1472 N1467 0.984 . S
H1473 N1467 0.985 . S
H1474 N1471 0.984 . S
H1475 N1471 0.985 . S
H1476 N1470 0.984 1_545 S
H1477 N1470 0.984 . S
H1478 N1466 0.984 . S
H1479 N1466 0.985 . S
C1480 C1481 1.363 . S
C1480 C1486 1.379 . S
C1480 N1488 1.356 . S
C1481 C1480 1.363 . S
C1481 C1487 1.363 . S
C1482 C1483 1.363 . S
C1482 C1487 1.379 . S
C1482 N1489 1.356 . S
C1483 C1482 1.363 . S
C1483 C1486 1.363 . S
N1484 C1486 1.356 . S
N1484 H1496 0.984 . S
N1484 H1497 0.985 . S
N1485 C1487 1.356 . S
N1485 H1490 0.984 . S
N1485 H1491 0.985 . S
C1486 C1480 1.379 . S
C1486 C1483 1.363 . S
C1486 N1484 1.356 . S
C1487 C1481 1.363 . S
C1487 C1482 1.379 . S
C1487 N1485 1.356 . S
N1488 C1480 1.356 . S
N1488 H1494 0.984 . S
N1488 H1495 0.984 . S
N1489 C1482 1.356 . S
N1489 H1492 0.984 . S
N1489 H1493 0.985 . S
H1490 N1485 0.984 . S
H1491 N1485 0.985 . S
H1492 N1489 0.984 . S
H1493 N1489 0.985 . S
H1494 N1488 0.984 . S
H1495 N1488 0.984 . S
H1496 N1484 0.984 . S
H1497 N1484 0.985 . S
C1498 C1499 1.363 . S
C1498 C1504 1.379 . S
C1498 N1506 1.356 . S
C1499 C1498 1.363 . S
C1499 C1505 1.363 1_565 S
C1500 C1501 1.363 . S
C1500 C1505 1.379 1_565 S
C1500 N1507 1.356 . S
C1501 C1500 1.363 . S
C1501 C1504 1.363 . S
N1502 C1504 1.356 . S
N1502 H1514 0.984 . S
N1502 H1515 0.985 . S
N1503 C1505 1.356 . S
N1503 H1508 0.984 . S
N1503 H1509 0.985 . S
C1504 C1498 1.379 . S
C1504 C1501 1.363 . S
C1504 N1502 1.356 . S
C1505 C1499 1.363 1_545 S
C1505 C1500 1.379 1_545 S
C1505 N1503 1.356 . S
N1506 C1498 1.356 . S
N1506 H1512 0.984 . S
N1506 H1513 0.984 . S
N1507 C1500 1.356 . S
N1507 H1510 0.984 . S
N1507 H1511 0.985 1_565 S
H1508 N1503 0.984 . S
H1509 N1503 0.985 . S
H1510 N1507 0.984 . S
H1511 N1507 0.985 1_545 S
H1512 N1506 0.984 . S
H1513 N1506 0.984 . S
H1514 N1502 0.984 . S
H1515 N1502 0.985 . S
C1516 C1517 1.363 . S
C1516 C1522 1.379 . S
C1516 N1524 1.356 . S
C1517 C1516 1.363 . S
C1517 C1523 1.363 . S
C1518 C1519 1.363 . S
C1518 C1523 1.379 . S
C1518 N1525 1.356 . S
C1519 C1518 1.363 . S
C1519 C1522 1.363 . S
N1520 C1522 1.356 . S
N1520 H1532 0.984 . S
N1520 H1533 0.985 . S
N1521 C1523 1.356 . S
N1521 H1526 0.984 . S
N1521 H1527 0.985 . S
C1522 C1516 1.379 . S
C1522 C1519 1.363 . S
C1522 N1520 1.356 . S
C1523 C1517 1.363 . S
C1523 C1518 1.379 . S
C1523 N1521 1.356 . S
N1524 C1516 1.356 . S
N1524 H1530 0.984 . S
N1524 H1531 0.984 . S
N1525 C1518 1.356 . S
N1525 H1528 0.984 . S
N1525 H1529 0.985 . S
H1526 N1521 0.984 . S
H1527 N1521 0.985 . S
H1528 N1525 0.984 . S
H1529 N1525 0.985 . S
H1530 N1524 0.984 . S
H1531 N1524 0.984 . S
H1532 N1520 0.984 . S
H1533 N1520 0.985 . S
C1534 C1535 1.363 . S
C1534 C1540 1.379 1_455 S
C1534 N1542 1.356 1_545 S
C1535 C1534 1.363 . S
C1535 C1541 1.363 . S
C1536 C1537 1.363 . S
C1536 C1541 1.379 1_655 S
C1536 N1543 1.356 . S
C1537 C1536 1.363 . S
C1537 C1540 1.363 . S
N1538 C1540 1.356 . S
N1538 H1550 0.984 . S
N1538 H1551 0.985 . S
N1539 C1541 1.356 . S
N1539 H1544 0.984 . S
N1539 H1545 0.985 . S
C1540 C1534 1.379 1_655 S
C1540 C1537 1.363 . S
C1540 N1538 1.356 . S
C1541 C1535 1.363 . S
C1541 C1536 1.379 1_455 S
C1541 N1539 1.356 . S
N1542 C1534 1.356 1_565 S
N1542 H1548 0.984 . S
N1542 H1549 0.984 . S
N1543 C1536 1.356 . S
N1543 H1546 0.984 . S
N1543 H1547 0.985 . S
H1544 N1539 0.984 . S
H1545 N1539 0.985 . S
H1546 N1543 0.984 . S
H1547 N1543 0.985 . S
H1548 N1542 0.984 . S
H1549 N1542 0.984 . S
H1550 N1538 0.984 . S
H1551 N1538 0.985 . S
C545 C255 2.481 . S
C547 C22 2.218 . S
C563 C425 2.480 . S
C565 C49 2.218 . S
C581 C90 2.218 . S
C583 C187 2.480 . S
C599 C493 2.480 . S
C601 C124 2.218 1_455 S
C617 C119 2.481 . S
C619 C158 2.218 . S
C635 C185 2.218 . S
C637 C289 2.480 . S
C653 C219 2.218 . S
C655 C51 2.480 . S
C671 C357 2.480 . S
C673 C260 2.218 1_655 S
C689 C527 2.480 . S
C691 C294 2.218 . S
C707 C321 2.218 1_655 S
C709 C153 2.480 . S
C725 C459 2.481 . S
C727 C362 2.218 . S
C743 C221 2.480 . S
C745 C396 2.218 . S
C761 C391 2.480 . S
C763 C423 2.218 . S
C779 C457 2.218 1_455 S
C781 C17 2.480 . S
C797 C498 2.218 . S
C799 C323 2.481 . S
C815 C85 2.480 . S
C817 C532 2.218 . S
C833 C312 0.876 . S
C835 C6 0.880 . S
C851 C62 0.880 . S
C853 C368 0.876 . S
C869 C74 0.880 . S
C871 C402 0.876 . S
C887 C108 0.880 . S
C889 C300 0.876 . S
C905 C448 0.876 . S
C907 C142 0.880 . S
C923 C198 0.880 . S
C925 C504 0.876 . S
C941 C538 0.876 . S
C943 C232 0.880 . S
C959 C244 0.880 . S
C961 C414 0.876 . S
C977 C40 0.876 . S
C979 C278 0.880 . S
C995 C96 0.876 . S
C997 C334 0.880 . S
C1013 C130 0.876 . S
C1015 C346 0.880 . S
C1031 C28 0.876 . S
C1033 C380 0.880 . S
C1049 C436 0.880 . S
C1051 C176 0.876 . S
C1067 C210 0.876 . S
C1069 C470 0.880 . S
C1085 C266 0.876 . S
C1087 C482 0.880 . S
C1103 C516 0.880 . S
C1105 C164 0.876 . S
C1121 C137 2.830 . S
C1123 C1 2.830 . S
C1139 C37 2.830 . S
C1141 C445 2.830 . S
C1157 C207 2.830 . S
C1159 C69 2.830 . S
C1175 C511 2.830 . S
C1177 C103 2.830 . S
C1193 C309 2.830 . S
C1195 C173 2.830 . S
C1211 C239 2.830 . S
C1213 C375 2.830 . S
C1229 C273 2.830 . S
C1231 C411 2.830 . S
C1247 C341 2.830 . S
C1249 C477 2.830 . S
C1265 C241 0.768 . S
C1267 C15 0.769 . S
C1283 C409 0.768 . S
C1285 C56 0.769 . S
C1301 C83 0.769 . S
C1303 C171 0.768 . S
C1319 C117 0.769 . S
C1321 C479 0.768 . S
C1337 C151 0.769 . S
C1339 C105 0.768 . S
C1355 C192 0.769 . S
C1357 C275 0.768 . S
C1373 C226 0.769 . S
C1375 C35 0.768 . S
C1391 C343 0.768 . S
C1393 C253 0.769 . S
C1409 C287 0.769 . S
C1411 C513 0.768 . S
C1427 C139 0.768 1_545 S
C1429 C328 0.769 . S
C1445 C443 0.768 . S
C1447 C355 0.769 . S
C1463 C389 0.769 . S
C1465 C205 0.768 1_565 S
C1481 C377 0.768 . S
C1483 C430 0.769 . S
C1499 C3 0.768 1_565 S
C1501 C464 0.769 . S
C1517 C491 0.769 . S
C1519 C307 0.768 . S
C1535 C71 0.768 1_545 S
C1537 C525 0.769 . S
