# Generated by pormake.
# Topology utp, (3)-cn, num edge types: 1
# Building blocks:
#     Node 0, Type 0, BuildingBlock: WUSLED_clean_sbu_0, # of connection points: 3
#     Node 1, Type 0, BuildingBlock: WUSLED_clean_sbu_0, # of connection points: 3
#     Node 2, Type 0, BuildingBlock: WUSLED_clean_sbu_0, # of connection points: 3
#     Node 3, Type 0, BuildingBlock: WUSLED_clean_sbu_0, # of connection points: 3
#     Node 4, Type 0, BuildingBlock: WUSLED_clean_sbu_0, # of connection points: 3
#     Node 5, Type 0, BuildingBlock: WUSLED_clean_sbu_0, # of connection points: 3
#     Node 6, Type 0, BuildingBlock: WUSLED_clean_sbu_0, # of connection points: 3
#     Node 7, Type 0, BuildingBlock: WUSLED_clean_sbu_0, # of connection points: 3
#     Edge 8, Type (0, 0), BuildingBlock: EZIPEK_clean_linker_0, # of connection points: 2
#     Edge 9, Type (0, 0), BuildingBlock: EZIPEK_clean_linker_0, # of connection points: 2
#     Edge 10, Type (0, 0), BuildingBlock: EZIPEK_clean_linker_0, # of connection points: 2
#     Edge 11, Type (0, 0), BuildingBlock: EZIPEK_clean_linker_0, # of connection points: 2
#     Edge 12, Type (0, 0), BuildingBlock: EZIPEK_clean_linker_0, # of connection points: 2
#     Edge 13, Type (0, 0), BuildingBlock: EZIPEK_clean_linker_0, # of connection points: 2
#     Edge 14, Type (0, 0), BuildingBlock: EZIPEK_clean_linker_0, # of connection points: 2
#     Edge 15, Type (0, 0), BuildingBlock: EZIPEK_clean_linker_0, # of connection points: 2
#     Edge 16, Type (0, 0), BuildingBlock: EZIPEK_clean_linker_0, # of connection points: 2
#     Edge 17, Type (0, 0), BuildingBlock: EZIPEK_clean_linker_0, # of connection points: 2
#     Edge 18, Type (0, 0), BuildingBlock: EZIPEK_clean_linker_0, # of connection points: 2
#     Edge 19, Type (0, 0), BuildingBlock: EZIPEK_clean_linker_0, # of connection points: 2
# Relax obj value: 0.000
# Max RMSD: 0.002
# Mean RMSD: 0.002
data_MOF--net-utp--node1-WUSLED_clean_sbu_0--edge1-EZIPEK_clean_linker_0
_symmetry_space_group_name_H-M    P1
_symmetry_Int_Tables_number       1
_symmetry_cell_setting            triclinic
loop_
_symmetry_equiv_pos_as_xyz
'x, y, z'
_cell_length_a     64.022324
_cell_length_b     56.250153
_cell_length_c     16.310224
_cell_angle_alpha  90.005722
_cell_angle_beta   90.067089
_cell_angle_gamma 89.925714
loop_
_atom_site_label
_atom_site_type_symbol
_atom_site_fract_x
_atom_site_fract_y
_atom_site_fract_z
_atom_type_partial_charge
C0 C 0.08819 0.0935 0.07971 0.0
C1 C 0.09351 0.07151 0.04445 0.0
C2 C 0.05671 0.06054 0.03778 0.0
C3 C 0.07785 0.05515 0.0235 0.0
C4 C 0.05147 0.08246 0.07344 0.0
C5 C 0.06709 0.09879 0.09417 0.0
U6 U 0.14504 0.11285 0.12152 0.0
O7 O 0.16116 0.14582 0.08626 0.0
O8 O 0.15715 0.13719 0.21648 0.0
C9 C 0.16332 0.15305 0.16249 0.0
C10 C 0.10426 0.11125 0.10139 0.0
C11 C 0.15832 0.17834 0.18054 0.0
C12 C 0.14752 0.218 0.13664 0.0
C13 C 0.14971 0.1936 0.12086 0.0
C14 C 0.16187 0.21229 0.27259 0.0
C15 C 0.15387 0.22756 0.2122 0.0
C16 C 0.16412 0.18794 0.25683 0.0
C17 C 0.18967 0.06633 0.10395 0.0
C18 C 0.22323 0.06296 0.17398 0.0
C19 C 0.21788 0.04293 0.04423 0.0
C20 C 0.19747 0.05184 0.04082 0.0
C21 C 0.23085 0.04826 0.1111 0.0
C22 C 0.20281 0.07198 0.17043 0.0
C23 C 0.16757 0.07416 0.10048 0.0
O24 O 0.11345 0.10831 0.17276 0.0
O25 O 0.11734 0.11715 0.04278 0.0
O26 O 0.16254 0.0886 0.04026 0.0
O27 O 0.15861 0.0798 0.17037 0.0
H28 H 0.10971 0.06706 0.03298 0.0
H29 H 0.08218 0.0383 -0.00383 0.0
H30 H 0.03528 0.08692 0.08498 0.0
H31 H 0.06268 0.11564 0.12136 0.0
H32 H 0.14135 0.22952 0.08921 0.0
H33 H 0.14518 0.18685 0.06128 0.0
H34 H 0.16692 0.21934 0.33115 0.0
H35 H 0.17097 0.17669 0.30361 0.0
H36 H 0.23306 0.06731 0.22596 0.0
H37 H 0.2235 0.03164 -0.00487 0.0
H38 H 0.18764 0.04715 0.98917 0.0
H39 H 0.19724 0.08311 0.22 0.0
C40 C 0.45745 0.9647 0.08256 0.0
C41 C 0.46128 0.97069 3e-05 0.0
C42 C 0.48994 0.99661 0.04055 0.0
C43 C 0.47732 0.98652 0.97933 0.0
C44 C 0.48612 0.99084 0.12288 0.0
C45 C 0.47011 0.97499 0.14365 0.0
U46 U 0.40098 0.94365 0.12886 0.0
O47 O 0.38511 0.91046 0.09402 0.0
O48 O 0.38983 0.91888 0.22409 0.0
C49 C 0.38351 0.90304 0.17025 0.0
C50 C 0.44157 0.94648 0.10491 0.0
C51 C 0.38884 0.87778 0.18743 0.0
C52 C 0.39932 0.83818 0.14179 0.0
C53 C 0.39686 0.86258 0.12642 0.0
C54 C 0.38639 0.84379 0.27983 0.0
C55 C 0.3938 0.82857 0.21823 0.0
C56 C 0.38388 0.86812 0.26451 0.0
C57 C 0.35582 0.9899 0.11827 0.0
C58 C 0.31893 0.98592 0.0836 0.0
C59 C 0.33089 1.02054 0.15831 0.0
C60 C 0.35132 1.01163 0.15686 0.0
C61 C 0.31458 1.0079 0.12087 0.0
C62 C 0.33939 0.97695 0.08238 0.0
C63 C 0.37789 0.98211 0.11213 0.0
O64 O 0.43281 0.94857 0.17748 0.0
O65 O 0.42825 0.94007 0.04756 0.0
O66 O 0.38272 0.96793 0.0509 0.0
O67 O 0.38721 0.9763 0.18113 0.0
H68 H 0.4521 0.96289 0.95116 0.0
H69 H 0.48007 0.99071 0.91542 0.0
H70 H 0.49574 0.99838 0.17098 0.0
H71 H 0.46785 0.97052 0.20761 0.0
H72 H 0.40502 0.82669 0.09341 0.0
H73 H 0.40073 0.86936 0.0662 0.0
H74 H 0.38197 0.8367 0.33908 0.0
H75 H 0.37747 0.87932 0.31234 0.0
H76 H 0.30654 0.9759 0.05443 0.0
H77 H 0.32785 0.03751 0.18739 0.0
H78 H 0.36371 1.02198 0.18463 0.0
H79 H 0.34239 0.96013 0.05222 0.0
C80 C 0.08934 0.46181 0.41339 0.0
C81 C 0.09436 0.48551 0.43213 0.0
C82 C 0.05748 0.49465 0.45253 0.0
C83 C 0.07851 0.50183 0.4516 0.0
C84 C 0.05254 0.47097 0.43361 0.0
C85 C 0.06834 0.4547 0.41422 0.0
U86 U 0.14649 0.44305 0.37491 0.0
O87 O 0.16289 0.41046 0.41434 0.0
O88 O 0.15921 0.41825 0.28326 0.0
C89 C 0.16553 0.40288 0.33882 0.0
C90 C 0.10565 0.44417 0.39337 0.0
C91 C 0.161 0.37743 0.32339 0.0
C92 C 0.14188 0.34578 0.2539 0.0
C93 C 0.14449 0.36998 0.27245 0.0
C94 C 0.17183 0.33611 0.3384 0.0
C95 C 0.15567 0.3287 0.28615 0.0
C96 C 0.17447 0.36023 0.35676 0.0
C97 C 0.19063 0.49001 0.3913 0.0
C98 C 0.22433 0.49319 0.32256 0.0
C99 C 0.21868 0.51353 0.45152 0.0
C100 C 0.19828 0.50465 0.45433 0.0
C101 C 0.23181 0.50802 0.38535 0.0
C102 C 0.20391 0.4842 0.32552 0.0
C103 C 0.16856 0.48211 0.39419 0.0
O104 O 0.11496 0.44685 0.32219 0.0
O105 O 0.11869 0.43885 0.4529 0.0
O106 O 0.16346 0.46803 0.45525 0.0
O107 O 0.15984 0.47595 0.32429 0.0
H108 H 0.11048 0.49134 0.43182 0.0
H109 H 0.08262 0.52003 0.46598 0.0
H110 H 0.03643 0.46509 0.43401 0.0
H111 H 0.06417 0.4365 0.39997 0.0
H112 H 0.12935 0.34041 0.21329 0.0
H113 H 0.13388 0.38286 0.24581 0.0
H114 H 0.18266 0.32324 0.36372 0.0
H115 H 0.18735 0.36552 0.39583 0.0
H116 H 0.23427 0.48871 0.27111 0.0
H117 H 0.22418 0.52492 0.50055 0.0
H118 H 0.18834 0.50946 0.50546 0.0
H119 H 0.19848 0.47295 0.27604 0.0
C120 C 0.45821 0.59023 0.39612 0.0
C121 C 0.45308 0.5689 0.43534 0.0
C122 C 0.48851 0.55307 0.41182 0.0
C123 C 0.46813 0.55098 0.4455 0.0
C124 C 0.49384 0.57587 0.38111 0.0
C125 C 0.47886 0.59382 0.37138 0.0
U126 U 0.40165 0.61192 0.36786 0.0
O127 O 0.3862 0.64444 0.4137 0.0
O128 O 0.38883 0.63812 0.2813 0.0
C129 C 0.38315 0.65294 0.33955 0.0
C130 C 0.44254 0.60915 0.38238 0.0
C131 C 0.38788 0.67847 0.32668 0.0
C132 C 0.40651 0.71041 0.25693 0.0
C133 C 0.40401 0.68613 0.2744 0.0
C134 C 0.37729 0.71973 0.34543 0.0
C135 C 0.39298 0.72735 0.29154 0.0
C136 C 0.37476 0.69554 0.36276 0.0
C137 C 0.35705 0.56522 0.37628 0.0
C138 C 0.32031 0.56966 0.41249 0.0
C139 C 0.33182 0.53477 0.3381 0.0
C140 C 0.3523 0.54346 0.33848 0.0
C141 C 0.3157 0.54767 0.37579 0.0
C142 C 0.34083 0.57842 0.41264 0.0
C143 C 0.37913 0.57296 0.38018 0.0
O144 O 0.43279 0.60843 0.31149 0.0
O145 O 0.43001 0.61393 0.44407 0.0
O146 O 0.38463 0.58601 0.44352 0.0
O147 O 0.3875 0.58017 0.311 0.0
H148 H 0.43747 0.56616 0.45907 0.0
H149 H 0.46343 0.53599 0.482 0.0
H150 H 0.5097 0.58042 0.36526 0.0
H151 H 0.48349 0.61067 0.34482 0.0
H152 H 0.41868 0.71595 0.21502 0.0
H153 H 0.41433 0.67337 0.24558 0.0
H154 H 0.36666 0.7325 0.37258 0.0
H155 H 0.36216 0.69008 0.40281 0.0
H156 H 0.30807 0.57988 0.44185 0.0
H157 H 0.32858 0.51779 0.30943 0.0
H158 H 0.36454 0.53296 0.31027 0.0
H159 H 0.34405 0.59528 0.44211 0.0
C160 C 0.9587 0.96139 0.91256 0.0
C161 C 0.9544 0.9859 0.91331 0.0
C162 C 0.99039 0.99425 0.95279 0.0
C163 C 0.97017 1.00223 0.93322 0.0
C164 C 0.99461 0.96976 0.95216 0.0
C165 C 0.97889 0.95348 0.93218 0.0
U166 U 0.90174 0.94303 0.86923 0.0
O167 O 0.88935 0.91801 0.77766 0.0
O168 O 0.88485 0.91082 0.90871 0.0
C169 C 0.8826 0.90296 0.83332 0.0
C170 C 0.94246 0.94376 0.8918 0.0
C171 C 0.88705 0.87741 0.81941 0.0
C172 C 0.90646 0.84536 0.7533 0.0
C173 C 0.90392 0.86962 0.77103 0.0
C174 C 0.8757 0.83629 0.83365 0.0
C175 C 0.89222 0.82855 0.78382 0.0
C176 C 0.87314 0.86047 0.85119 0.0
C177 C 0.85807 0.99084 0.87758 0.0
C178 C 0.82103 0.98694 0.90933 0.0
C179 C 0.83357 1.02216 0.83974 0.0
C180 C 0.85391 1.01302 0.84147 0.0
C181 C 0.817 1.00933 0.87445 0.0
C182 C 0.84141 0.97772 0.91076 0.0
C183 C 0.87999 0.98256 0.8834 0.0
O184 O 0.92905 0.93884 0.9503 0.0
O185 O 0.93359 0.94614 0.81953 0.0
O186 O 0.88886 0.97584 0.81454 0.0
O187 O 0.88469 0.96873 0.94576 0.0
H188 H 0.9389 0.99235 0.89854 0.0
H189 H 0.96662 1.02106 0.93353 0.0
H190 H 1.01009 0.96328 0.96714 0.0
H191 H 0.9825 0.93465 0.93204 0.0
H192 H 0.91928 0.83973 0.71457 0.0
H193 H 0.91488 0.88229 0.74566 0.0
H194 H 0.86454 0.82362 0.85762 0.0
H195 H 0.85998 0.86603 0.88826 0.0
H196 H 0.80845 0.97676 0.93634 0.0
H197 H 0.83078 0.03944 0.81247 0.0
H198 H 0.8665 1.02347 0.81568 0.0
H199 H 0.84416 0.96055 0.93885 0.0
C200 C 0.59001 0.09266 0.91053 0.0
C201 C 0.59301 0.07606 0.97406 0.0
C202 C 0.55795 0.06036 0.95269 0.0
C203 C 0.57707 0.0601 -0.00492 0.0
C204 C 0.5551 0.07665 0.88839 0.0
C205 C 0.57096 0.09266 0.86768 0.0
U206 U 0.64676 0.11328 0.87096 0.0
O207 O 0.65865 0.13798 0.77681 0.0
O208 O 0.66235 0.14649 0.90729 0.0
C209 C 0.66452 0.15388 0.83126 0.0
C210 C 0.606 0.11069 0.88965 0.0
C211 C 0.65925 0.17912 0.81349 0.0
C212 C 0.64907 0.21887 0.85877 0.0
C213 C 0.65139 0.19448 0.8744 0.0
C214 C 0.66182 0.213 0.72059 0.0
C215 C 0.65458 0.22835 0.78214 0.0
C216 C 0.66418 0.18866 0.73619 0.0
C217 C 0.69199 0.06746 0.88936 0.0
C218 C 0.72566 0.06455 0.8202 0.0
C219 C 0.72028 0.04418 0.94925 0.0
C220 C 0.69982 0.05292 0.95235 0.0
C221 C 0.73329 0.04974 0.88284 0.0
C222 C 0.70517 0.07338 0.82342 0.0
C223 C 0.6698 0.07498 0.89219 0.0
O224 O 0.61887 0.11706 0.94859 0.0
O225 O 0.6153 0.10812 0.8184 0.0
O226 O 0.6609 0.08056 0.82207 0.0
O227 O 0.66449 0.08927 0.95245 0.0
H228 H 0.60756 0.0756 0.008 0.0
H229 H 0.57958 0.04765 0.04481 0.0
H230 H 0.54048 0.07712 0.85489 0.0
H231 H 0.56827 0.10529 0.81862 0.0
H232 H 0.64351 0.23046 0.90711 0.0
H233 H 0.64756 0.18782 0.93482 0.0
H234 H 0.66622 0.21999 0.66119 0.0
H235 H 0.67049 0.17736 0.68841 0.0
H236 H 0.73551 0.06907 0.76857 0.0
H237 H 0.7259 0.03281 -0.00184 0.0
H238 H 0.68995 0.04802 0.00357 0.0
H239 H 0.69958 0.08456 0.77397 0.0
C240 C 0.95856 0.59321 0.5746 0.0
C241 C 0.95595 0.56882 0.5904 0.0
C242 C 0.9904 0.56052 0.5336 0.0
C243 C 0.9718 0.55259 0.57017 0.0
C244 C 0.99286 0.58483 0.51699 0.0
C245 C 0.97708 0.60103 0.53741 0.0
U246 U 0.90194 0.61245 0.62337 0.0
O247 O 0.89056 0.637 0.71899 0.0
O248 O 0.88536 0.64529 0.58908 0.0
C249 C 0.88381 0.65269 0.66535 0.0
C250 C 0.94251 0.6109 0.59776 0.0
C251 C 0.88881 0.67801 0.6822 0.0
C252 C 0.90015 0.71734 0.63742 0.0
C253 C 0.89782 0.69291 0.62253 0.0
C254 C 0.88511 0.71235 0.77241 0.0
C255 C 0.89353 0.72728 0.71205 0.0
C256 C 0.88274 0.68798 0.75755 0.0
C257 C 0.85741 0.56573 0.61408 0.0
C258 C 0.82044 0.5697 0.58052 0.0
C259 C 0.83264 0.53509 0.65492 0.0
C260 C 0.85304 0.544 0.65283 0.0
C261 C 0.81622 0.54771 0.61791 0.0
C262 C 0.84087 0.57868 0.57872 0.0
C263 C 0.87943 0.5736 0.60728 0.0
O264 O 0.92892 0.61657 0.54055 0.0
O265 O 0.93396 0.60826 0.67044 0.0
O266 O 0.88883 0.57953 0.67599 0.0
O267 O 0.88402 0.58781 0.54587 0.0
H268 H 0.94176 0.56237 0.61884 0.0
H269 H 0.96962 0.53388 0.58328 0.0
H270 H 1.00708 0.59127 0.48877 0.0
H271 H 0.9794 0.61974 0.52468 0.0
H272 H 0.90665 0.7286 0.59004 0.0
H273 H 0.9026 0.68585 0.56371 0.0
H274 H 0.87986 0.71968 0.83026 0.0
H275 H 0.8756 0.67699 0.80429 0.0
H276 H 0.80797 0.5797 0.55169 0.0
H277 H 0.8297 0.51813 0.6841 0.0
H278 H 0.86552 0.53367 0.68025 0.0
H279 H 0.84376 0.5955 0.5485 0.0
C280 C 0.58996 0.46062 0.55353 0.0
C281 C 0.58711 0.48326 0.58871 0.0
C282 C 0.55679 0.49025 0.50128 0.0
C283 C 0.5706 0.49795 0.5628 0.0
C284 C 0.5598 0.46778 0.46577 0.0
C285 C 0.57617 0.45312 0.49177 0.0
U286 U 0.64694 0.44341 0.61054 0.0
O287 O 0.65835 0.41938 0.70739 0.0
O288 O 0.6642 0.41078 0.57818 0.0
C289 C 0.66564 0.40371 0.65477 0.0
C290 C 0.60649 0.44398 0.58155 0.0
C291 C 0.66114 0.37825 0.67065 0.0
C292 C 0.64265 0.34666 0.74291 0.0
C293 C 0.64518 0.37086 0.72417 0.0
C294 C 0.67161 0.33687 0.65368 0.0
C295 C 0.65601 0.32952 0.70836 0.0
C296 C 0.67416 0.36098 0.63512 0.0
C297 C 0.6911 0.49037 0.5968 0.0
C298 C 0.72431 0.49353 0.66942 0.0
C299 C 0.71967 0.51356 0.53924 0.0
C300 C 0.69925 0.50481 0.53431 0.0
C301 C 0.73231 0.50812 0.60701 0.0
C302 C 0.70387 0.48467 0.66435 0.0
C303 C 0.66909 0.48238 0.59094 0.0
O304 O 0.62043 0.43779 0.52641 0.0
O305 O 0.61463 0.44763 0.65458 0.0
O306 O 0.6596 0.47687 0.65985 0.0
O307 O 0.66474 0.46768 0.5307 0.0
H308 H 0.59749 0.48954 0.63647 0.0
H309 H 0.56854 0.51526 0.5908 0.0
H310 H 0.54934 0.46153 0.41818 0.0
H311 H 0.57796 0.43573 0.46398 0.0
H312 H 0.63056 0.34133 0.78546 0.0
H313 H 0.63492 0.38375 0.75266 0.0
H314 H 0.6821 0.32395 0.62659 0.0
H315 H 0.68665 0.36621 0.59413 0.0
H316 H 0.73388 0.48909 0.72207 0.0
H317 H 0.72557 0.52475 0.49046 0.0
H318 H 0.68971 0.50951 0.48182 0.0
H319 H 0.69803 0.47355 0.71341 0.0
C320 C 0.16936 0.26837 0.19369 0.0
C321 C 0.15337 0.25377 0.22681 0.0
C322 C 0.13867 0.28832 0.29918 0.0
C323 C 0.15401 0.30311 0.26252 0.0
N324 N 0.18135 0.30826 0.16265 0.0
N325 N 0.12079 0.25023 0.29937 0.0
C326 C 0.16858 0.29341 0.20604 0.0
C327 C 0.13739 0.2639 0.27608 0.0
N328 N 0.18576 0.25818 0.15304 0.0
N329 N 0.12583 0.29742 0.35833 0.0
H330 H 0.11949 0.23228 0.28413 0.0
H331 H 0.10753 0.25704 0.32792 0.0
H332 H 0.12613 0.31524 0.37597 0.0
H333 H 0.11593 0.28706 0.39407 0.0
H334 H 0.19912 0.26748 0.13599 0.0
H335 H 0.18683 0.23997 0.14182 0.0
H336 H 0.19072 0.3026 0.11429 0.0
H337 H 0.18124 0.32668 0.17004 0.0
C338 C 0.37833 0.78769 0.20123 0.0
C339 C 0.39451 0.80235 0.23265 0.0
C340 C 0.40986 0.76784 0.30333 0.0
C341 C 0.39432 0.75299 0.2682 0.0
N342 N 0.36627 0.74775 0.17117 0.0
N343 N 0.4276 0.80602 0.30183 0.0
C344 C 0.3793 0.76264 0.21333 0.0
C345 C 0.41088 0.79229 0.28023 0.0
N346 N 0.36157 0.7978 0.1625 0.0
N347 N 0.42317 0.75877 0.36102 0.0
H348 H 0.42873 0.82398 0.28646 0.0
H349 H 0.44108 0.79927 0.329 0.0
H350 H 0.42307 0.74094 0.37853 0.0
H351 H 0.4333 0.76917 0.39577 0.0
H352 H 0.34812 0.78844 0.14688 0.0
H353 H 0.36033 0.81602 0.15162 0.0
H354 H 0.35654 0.75339 0.1238 0.0
H355 H 0.3665 0.72933 0.17845 0.0
C356 C 0.87961 0.79336 0.70254 0.0
C357 C 0.89382 0.80291 0.76074 0.0
C358 C 0.90996 0.76347 0.77684 0.0
C359 C 0.89426 0.75352 0.7258 0.0
N360 N 0.86246 0.75834 0.64802 0.0
N361 N 0.92121 0.7969 0.86011 0.0
C362 C 0.87867 0.76831 0.69048 0.0
C363 C 0.90874 0.78793 0.79948 0.0
N364 N 0.86733 0.80835 0.65729 0.0
N365 N 0.92627 0.74959 0.80227 0.0
H366 H 0.92093 0.81474 0.87754 0.0
H367 H 0.93073 0.78642 0.8972 0.0
H368 H 0.92753 0.73161 0.7873 0.0
H369 H 0.93937 0.75624 0.83233 0.0
H370 H 0.85828 0.80277 0.60783 0.0
H371 H 0.86758 0.82678 0.6644 0.0
H372 H 0.84933 0.76782 0.62918 0.0
H373 H 0.86129 0.74012 0.63699 0.0
C374 C 0.63871 0.28923 0.69781 0.0
C375 C 0.6545 0.30392 0.73207 0.0
C376 C 0.67046 0.26906 0.79811 0.0
C377 C 0.65405 0.25457 0.76755 0.0
N378 N 0.62068 0.25123 0.70026 0.0
N379 N 0.68294 0.30887 0.82749 0.0
C380 C 0.63759 0.2648 0.72094 0.0
C381 C 0.66964 0.29411 0.78608 0.0
N382 N 0.62527 0.29843 0.64084 0.0
N383 N 0.68726 0.25877 0.83596 0.0
H384 H 0.68281 0.3273 0.82027 0.0
H385 H 0.69281 0.30314 0.87426 0.0
H386 H 0.68839 0.24054 0.84682 0.0
H387 H 0.70084 0.26798 0.85089 0.0
H388 H 0.61494 0.28814 0.60665 0.0
H389 H 0.62544 0.31626 0.62329 0.0
H390 H 0.60715 0.25812 0.67391 0.0
H391 H 0.61948 0.23328 0.71556 0.0
C392 C 0.28858 0.03749 0.06524 0.0
C393 C 0.29306 1.01816 0.11856 0.0
C394 C 0.25642 1.01766 0.16353 0.0
C395 C 0.2524 0.03817 0.11521 0.0
N396 N 0.2652 0.06992 0.02989 0.0
N397 N 0.28225 0.99206 0.2277 0.0
C398 C 0.26867 0.04875 0.06885 0.0
C399 C 0.27723 1.00883 0.17028 0.0
N400 N 0.30315 0.04454 0.00904 0.0
N401 N 0.24022 1.00621 0.20111 0.0
H402 H 0.29727 0.98508 0.23411 0.0
H403 H 0.27201 0.98641 0.27323 0.0
H404 H 0.22485 1.01235 0.19872 0.0
H405 H 0.24168 0.9897 0.22937 0.0
H406 H 0.30008 0.05673 0.96253 0.0
H407 H 0.31788 0.03672 0.00432 0.0
H408 H 0.277 0.07992 0.00276 0.0
H409 H 0.25077 0.07854 0.03042 0.0
C410 C 0.28955 0.51848 0.43208 0.0
C411 C 0.29409 0.53772 0.37856 0.0
C412 C 0.25744 0.5385 0.33346 0.0
C413 C 0.25336 0.51804 0.38184 0.0
N414 N 0.26604 0.48629 0.46774 0.0
N415 N 0.28335 0.56387 0.26926 0.0
C416 C 0.26959 0.50738 0.4285 0.0
C417 C 0.27829 0.54716 0.32677 0.0
N418 N 0.30411 0.51135 0.48838 0.0
N419 N 0.24127 0.55005 0.2957 0.0
H420 H 0.29839 0.57073 0.26287 0.0
H421 H 0.27312 0.56957 0.22365 0.0
H422 H 0.22588 0.54402 0.29802 0.0
H423 H 0.24279 0.56654 0.26737 0.0
H424 H 0.30102 0.49922 0.535 0.0
H425 H 0.31888 0.51906 0.49305 0.0
H426 H 0.27779 0.47622 0.49509 0.0
H427 H 0.25156 0.4778 0.46733 0.0
C428 C 0.77101 0.05002 0.92676 0.0
C429 C 0.75487 0.03973 0.87885 0.0
C430 C 0.77985 1.01077 0.82272 0.0
C431 C 0.79552 1.01971 0.87609 0.0
N432 N 0.8053 0.04535 0.98824 0.0
N433 N 0.74291 1.0083 0.79002 0.0
C434 C 0.79091 0.0387 0.93064 0.0
C435 C 0.75901 1.01954 0.82916 0.0
N436 N 0.76747 0.07096 0.967 0.0
N437 N 0.78503 0.99443 0.76408 0.0
H438 H 0.72753 1.01438 0.79224 0.0
H439 H 0.74447 0.99197 0.76061 0.0
H440 H 0.80007 0.98754 0.75771 0.0
H441 H 0.77491 0.98912 0.71756 0.0
H442 H 0.7792 0.08077 -0.00455 0.0
H443 H 0.75305 0.07963 0.96619 0.0
H444 H 0.80209 0.05725 0.03548 0.0
H445 H 0.82 0.03746 0.99326 0.0
C446 C 0.75801 0.53839 0.66026 0.0
C447 C 0.75394 0.51785 0.61219 0.0
C448 C 0.79022 0.51804 0.56321 0.0
C449 C 0.79471 0.53746 0.61606 0.0
N450 N 0.78389 0.56383 0.72455 0.0
N451 N 0.76673 0.48573 0.52833 0.0
C452 C 0.77886 0.54702 0.66731 0.0
C453 C 0.77024 0.50697 0.56669 0.0
N454 N 0.74181 0.55007 0.69723 0.0
N455 N 0.80481 0.51073 0.50744 0.0
H456 H 0.75226 0.47724 0.52883 0.0
H457 H 0.77852 0.47554 0.50187 0.0
H458 H 0.81958 0.51841 0.50273 0.0
H459 H 0.80173 0.49845 0.46122 0.0
H460 H 0.74333 0.56662 0.72518 0.0
H461 H 0.72642 0.54407 0.69468 0.0
H462 H 0.77362 0.56965 0.76973 0.0
H463 H 0.79895 0.57062 0.73128 0.0
C464 C 1.01296 1.01475 0.05783 0.0
C465 C 1.00725 1.01147 0.97443 0.0
C466 C 0.03311 0.04142 0.93293 0.0
C467 C 0.03993 0.04329 0.01557 0.0
N468 N 0.03864 0.02936 0.15516 0.0
N469 N 1.01373 1.01891 0.83118 0.0
C470 C 0.03047 0.02928 0.07765 0.0
C471 C 1.01784 1.02407 0.91152 0.0
N472 N 1.00123 1.00451 0.11826 0.0
N473 N 0.04079 0.05674 0.87531 0.0
H474 H 1.00247 1.00657 0.81315 0.0
H475 H 1.02252 1.02544 0.78251 0.0
H476 H 0.05218 0.06943 0.88837 0.0
H477 H 0.03478 0.05816 0.81617 0.0
H478 H 1.0031 1.00827 0.18032 0.0
H479 H 0.98841 0.99363 0.10609 0.0
H480 H 0.03399 1.01763 0.20101 0.0
H481 H 0.05133 0.0399 0.17208 0.0
C482 C 0.52619 1.00352 0.98507 0.0
C483 C 0.50743 1.01293 0.01838 0.0
C484 C 0.52271 0.05298 0.01678 0.0
C485 C 0.54067 0.04389 0.97636 0.0
N486 N 0.55824 1.01115 0.91034 0.0
N487 N 0.48644 0.04695 0.05445 0.0
C488 C 0.54208 1.0193 0.95736 0.0
C489 C 0.50531 0.03778 0.03108 0.0
N490 N 0.52908 0.97944 0.98216 0.0
N491 N 0.52255 0.07597 0.04401 0.0
H492 H 0.47339 0.03638 0.06594 0.0
H493 H 0.48321 0.06509 0.05585 0.0
H494 H 0.53501 0.08761 0.03514 0.0
H495 H 0.5109 0.08292 0.08154 0.0
H496 H 0.54327 0.9715 0.96718 0.0
H497 H 0.51779 0.96732 0.00143 0.0
H498 H 0.55893 0.99396 0.88676 0.0
H499 H 0.57016 1.02213 0.88895 0.0
C500 C 1.02135 0.53551 0.57542 0.0
C501 C 1.00749 0.54344 0.51309 0.0
C502 C 0.02769 0.52131 0.41011 0.0
C503 C 0.0405 0.51184 0.47336 0.0
N504 N 0.04778 0.50702 0.61745 0.0
N505 N 0.99543 0.5414 0.37328 0.0
C506 C 0.03686 0.51817 0.55644 0.0
C507 C 1.0101 0.53564 0.43095 0.0
N508 N 1.02007 0.54509 0.65232 0.0
N509 N 0.03274 0.51718 0.32992 0.0
H510 H 0.98248 0.55204 0.3861 0.0
H511 H 0.99513 0.53415 0.31456 0.0
H512 H 0.04543 0.50671 0.31235 0.0
H513 H 0.02545 0.52563 0.28081 0.0
H514 H 0.03115 0.54214 0.69795 0.0
H515 H 1.00874 0.55754 0.66887 0.0
H516 H 0.04427 0.50881 0.67945 0.0
H517 H 0.05939 0.49443 0.60598 0.0
C518 C 0.50124 0.51155 0.45976 0.0
C519 C 0.50482 0.53307 0.41645 0.0
C520 C 0.54227 0.52315 0.41275 0.0
C521 C 0.539 0.50538 0.47313 0.0
N522 N 0.51486 0.48275 0.55577 0.0
N523 N 0.52619 0.54544 0.30294 0.0
C524 C 0.51833 0.49961 0.49716 0.0
C525 C 0.52475 0.53525 0.37862 0.0
N526 N 0.48266 0.50002 0.45115 0.0
N527 N 0.56205 0.52858 0.3878 0.0
H528 H 0.5129 0.5506 0.27025 0.0
H529 H 0.53988 0.5456 0.26844 0.0
H530 H 0.57525 0.51955 0.4089 0.0
H531 H 0.56536 0.54315 0.35054 0.0
H532 H 0.47982 0.48324 0.4759 0.0
H533 H 0.47166 0.50545 0.40769 0.0
H534 H 0.50005 0.47956 0.58 0.0
H535 H 0.52692 0.47346 0.58462 0.0
loop_
_geom_bond_atom_site_label_1
_geom_bond_atom_site_label_2
_geom_bond_distance
_geom_bond_site_symmetry_2
_ccdc_geom_bond_type
C0 C1 1.264 . S
C0 C5 1.479 . S
C0 C10 1.465 . S
C1 C0 1.264 . S
C1 C3 1.339 . S
C1 H28 0.931 . S
C2 C3 1.395 . S
C2 C4 1.320 . S
C3 C1 1.339 . S
C3 C2 1.395 . S
C3 H29 0.929 . S
C4 C2 1.320 . S
C4 C5 1.405 . S
C4 H30 0.930 . S
C5 C0 1.479 . S
C5 C4 1.405 . S
C5 H31 0.931 . S
U6 O7 2.454 . S
U6 O8 2.458 . S
U6 C9 2.984 . S
U6 C10 2.847 . S
U6 C23 2.882 . S
U6 O24 2.441 . S
U6 O25 2.420 . S
U6 O26 2.455 . S
U6 O27 2.449 . S
O7 U6 2.454 . S
O7 C9 1.353 . S
O8 U6 2.458 . S
O8 C9 1.286 . S
C9 U6 2.984 . S
C9 O7 1.353 . S
C9 O8 1.286 . S
C9 C11 1.363 . S
C10 C0 1.465 . S
C10 U6 2.847 . S
C10 O24 1.249 . S
C10 O25 1.202 . S
C11 C9 1.363 . S
C11 C13 1.408 . S
C11 C16 1.342 . S
C12 C13 1.310 . S
C12 C15 1.461 . S
C12 H32 0.932 . S
C13 C11 1.408 . S
C13 C12 1.310 . S
C13 H33 0.930 . S
C14 C15 1.474 . S
C14 C16 1.285 . S
C14 H34 0.929 . S
C15 C12 1.461 . S
C15 C14 1.474 . S
C16 C11 1.342 . S
C16 C14 1.285 . S
C16 H35 0.930 . S
C17 C20 1.424 . S
C17 C22 1.245 . S
C17 C23 1.428 . S
C18 C21 1.260 . S
C18 C22 1.477 . S
C18 H36 0.932 . S
C19 C20 1.384 . S
C19 C21 1.479 . S
C19 H37 0.896 1_545 S
C20 C17 1.424 . S
C20 C19 1.384 . S
C20 H38 0.928 . S
C21 C18 1.260 . S
C21 C19 1.479 . S
C22 C17 1.245 . S
C22 C18 1.477 . S
C22 H39 0.932 . S
C23 U6 2.882 . S
C23 C17 1.428 . S
C23 O26 1.301 . S
C23 O27 1.282 . S
O24 U6 2.441 . S
O24 C10 1.249 . S
O25 U6 2.420 . S
O25 C10 1.202 . S
O26 U6 2.455 . S
O26 C23 1.301 . S
O27 U6 2.449 . S
O27 C23 1.282 . S
H28 C1 0.931 . S
H29 C3 0.929 . S
H30 C4 0.930 . S
H31 C5 0.931 . S
H32 C12 0.932 . S
H33 C13 0.930 . S
H34 C14 0.929 . S
H35 C16 0.930 . S
H36 C18 0.932 . S
H37 C19 0.896 1_565 S
H38 C20 0.928 . S
H39 C22 0.932 . S
C40 C41 1.264 . S
C40 C45 1.479 . S
C40 C50 1.465 . S
C41 C40 1.264 . S
C41 C43 1.339 . S
C41 H68 0.931 . S
C42 C43 1.395 . S
C42 C44 1.320 . S
C43 C41 1.339 . S
C43 C42 1.395 . S
C43 H69 0.929 . S
C44 C42 1.320 . S
C44 C45 1.405 . S
C44 H70 0.930 . S
C45 C40 1.479 . S
C45 C44 1.405 . S
C45 H71 0.931 . S
U46 O47 2.454 . S
U46 O48 2.458 . S
U46 C49 2.984 . S
U46 C50 2.847 . S
U46 C63 2.882 . S
U46 O64 2.441 . S
U46 O65 2.420 . S
U46 O66 2.455 . S
U46 O67 2.449 . S
O47 U46 2.454 . S
O47 C49 1.353 . S
O48 U46 2.458 . S
O48 C49 1.286 . S
C49 U46 2.984 . S
C49 O47 1.353 . S
C49 O48 1.286 . S
C49 C51 1.363 . S
C50 C40 1.465 . S
C50 U46 2.847 . S
C50 O64 1.249 . S
C50 O65 1.202 . S
C51 C49 1.363 . S
C51 C53 1.408 . S
C51 C56 1.342 . S
C52 C53 1.310 . S
C52 C55 1.461 . S
C52 H72 0.932 . S
C53 C51 1.408 . S
C53 C52 1.310 . S
C53 H73 0.930 . S
C54 C55 1.474 . S
C54 C56 1.285 . S
C54 H74 0.929 . S
C55 C52 1.461 . S
C55 C54 1.474 . S
C56 C51 1.342 . S
C56 C54 1.285 . S
C56 H75 0.930 . S
C57 C60 1.424 . S
C57 C62 1.245 . S
C57 C63 1.428 . S
C58 C61 1.260 . S
C58 C62 1.477 . S
C58 H76 0.932 . S
C59 C60 1.384 . S
C59 C61 1.479 . S
C59 H77 0.896 1_565 S
C60 C57 1.424 . S
C60 C59 1.384 . S
C60 H78 0.928 . S
C61 C58 1.260 . S
C61 C59 1.479 . S
C62 C57 1.245 . S
C62 C58 1.477 . S
C62 H79 0.932 . S
C63 U46 2.882 . S
C63 C57 1.428 . S
C63 O66 1.301 . S
C63 O67 1.282 . S
O64 U46 2.441 . S
O64 C50 1.249 . S
O65 U46 2.420 . S
O65 C50 1.202 . S
O66 U46 2.455 . S
O66 C63 1.301 . S
O67 U46 2.449 . S
O67 C63 1.282 . S
H68 C41 0.931 . S
H69 C43 0.929 . S
H70 C44 0.930 . S
H71 C45 0.931 . S
H72 C52 0.932 . S
H73 C53 0.930 . S
H74 C54 0.929 . S
H75 C56 0.930 . S
H76 C58 0.932 . S
H77 C59 0.896 1_545 S
H78 C60 0.928 . S
H79 C62 0.932 . S
C80 C81 1.264 . S
C80 C85 1.479 . S
C80 C90 1.465 . S
C81 C80 1.264 . S
C81 C83 1.339 . S
C81 H108 0.931 . S
C82 C83 1.395 . S
C82 C84 1.320 . S
C83 C81 1.339 . S
C83 C82 1.395 . S
C83 H109 0.929 . S
C84 C82 1.320 . S
C84 C85 1.405 . S
C84 H110 0.930 . S
C85 C80 1.479 . S
C85 C84 1.405 . S
C85 H111 0.931 . S
U86 O87 2.454 . S
U86 O88 2.458 . S
U86 C89 2.984 . S
U86 C90 2.847 . S
U86 C103 2.882 . S
U86 O104 2.441 . S
U86 O105 2.420 . S
U86 O106 2.455 . S
U86 O107 2.449 . S
O87 U86 2.454 . S
O87 C89 1.353 . S
O88 U86 2.458 . S
O88 C89 1.286 . S
C89 U86 2.984 . S
C89 O87 1.353 . S
C89 O88 1.286 . S
C89 C91 1.363 . S
C90 C80 1.465 . S
C90 U86 2.847 . S
C90 O104 1.249 . S
C90 O105 1.202 . S
C91 C89 1.363 . S
C91 C93 1.408 . S
C91 C96 1.342 . S
C92 C93 1.310 . S
C92 C95 1.461 . S
C92 H112 0.932 . S
C93 C91 1.408 . S
C93 C92 1.310 . S
C93 H113 0.930 . S
C94 C95 1.474 . S
C94 C96 1.285 . S
C94 H114 0.929 . S
C95 C92 1.461 . S
C95 C94 1.474 . S
C96 C91 1.342 . S
C96 C94 1.285 . S
C96 H115 0.930 . S
C97 C100 1.424 . S
C97 C102 1.245 . S
C97 C103 1.428 . S
C98 C101 1.260 . S
C98 C102 1.477 . S
C98 H116 0.932 . S
C99 C100 1.384 . S
C99 C101 1.479 . S
C99 H117 0.929 . S
C100 C97 1.424 . S
C100 C99 1.384 . S
C100 H118 0.928 . S
C101 C98 1.260 . S
C101 C99 1.479 . S
C102 C97 1.245 . S
C102 C98 1.477 . S
C102 H119 0.932 . S
C103 U86 2.882 . S
C103 C97 1.428 . S
C103 O106 1.301 . S
C103 O107 1.282 . S
O104 U86 2.441 . S
O104 C90 1.249 . S
O105 U86 2.420 . S
O105 C90 1.202 . S
O106 U86 2.455 . S
O106 C103 1.301 . S
O107 U86 2.449 . S
O107 C103 1.282 . S
H108 C81 0.931 . S
H109 C83 0.929 . S
H110 C84 0.930 . S
H111 C85 0.931 . S
H112 C92 0.932 . S
H113 C93 0.930 . S
H114 C94 0.929 . S
H115 C96 0.930 . S
H116 C98 0.932 . S
H117 C99 0.929 . S
H118 C100 0.928 . S
H119 C102 0.932 . S
C120 C121 1.264 . S
C120 C125 1.479 . S
C120 C130 1.465 . S
C121 C120 1.264 . S
C121 C123 1.339 . S
C121 H148 0.931 . S
C122 C123 1.395 . S
C122 C124 1.320 . S
C123 C121 1.339 . S
C123 C122 1.395 . S
C123 H149 0.929 . S
C124 C122 1.320 . S
C124 C125 1.405 . S
C124 H150 0.930 . S
C125 C120 1.479 . S
C125 C124 1.405 . S
C125 H151 0.931 . S
U126 O127 2.454 . S
U126 O128 2.458 . S
U126 C129 2.984 . S
U126 C130 2.847 . S
U126 C143 2.882 . S
U126 O144 2.441 . S
U126 O145 2.420 . S
U126 O146 2.455 . S
U126 O147 2.449 . S
O127 U126 2.454 . S
O127 C129 1.353 . S
O128 U126 2.458 . S
O128 C129 1.286 . S
C129 U126 2.984 . S
C129 O127 1.353 . S
C129 O128 1.286 . S
C129 C131 1.363 . S
C130 C120 1.465 . S
C130 U126 2.847 . S
C130 O144 1.249 . S
C130 O145 1.202 . S
C131 C129 1.363 . S
C131 C133 1.408 . S
C131 C136 1.342 . S
C132 C133 1.310 . S
C132 C135 1.461 . S
C132 H152 0.932 . S
C133 C131 1.408 . S
C133 C132 1.310 . S
C133 H153 0.930 . S
C134 C135 1.474 . S
C134 C136 1.285 . S
C134 H154 0.929 . S
C135 C132 1.461 . S
C135 C134 1.474 . S
C136 C131 1.342 . S
C136 C134 1.285 . S
C136 H155 0.930 . S
C137 C140 1.424 . S
C137 C142 1.245 . S
C137 C143 1.428 . S
C138 C141 1.260 . S
C138 C142 1.477 . S
C138 H156 0.932 . S
C139 C140 1.384 . S
C139 C141 1.479 . S
C139 H157 0.929 . S
C140 C137 1.424 . S
C140 C139 1.384 . S
C140 H158 0.928 . S
C141 C138 1.260 . S
C141 C139 1.479 . S
C142 C137 1.245 . S
C142 C138 1.477 . S
C142 H159 0.932 . S
C143 U126 2.882 . S
C143 C137 1.428 . S
C143 O146 1.301 . S
C143 O147 1.282 . S
O144 U126 2.441 . S
O144 C130 1.249 . S
O145 U126 2.420 . S
O145 C130 1.202 . S
O146 U126 2.455 . S
O146 C143 1.301 . S
O147 U126 2.449 . S
O147 C143 1.282 . S
H148 C121 0.931 . S
H149 C123 0.929 . S
H150 C124 0.930 . S
H151 C125 0.931 . S
H152 C132 0.932 . S
H153 C133 0.930 . S
H154 C134 0.929 . S
H155 C136 0.930 . S
H156 C138 0.932 . S
H157 C139 0.929 . S
H158 C140 0.928 . S
H159 C142 0.932 . S
C160 C161 1.264 . S
C160 C165 1.479 . S
C160 C170 1.465 . S
C161 C160 1.264 . S
C161 C163 1.339 . S
C161 H188 0.931 . S
C162 C163 1.395 . S
C162 C164 1.320 . S
C163 C161 1.339 . S
C163 C162 1.395 . S
C163 H189 0.929 1_565 S
C164 C162 1.320 . S
C164 C165 1.405 . S
C164 H190 0.930 . S
C165 C160 1.479 . S
C165 C164 1.405 . S
C165 H191 0.931 . S
U166 O167 2.454 . S
U166 O168 2.458 . S
U166 C169 2.984 . S
U166 C170 2.847 . S
U166 C183 2.882 . S
U166 O184 2.441 . S
U166 O185 2.420 . S
U166 O186 2.455 . S
U166 O187 2.449 . S
O167 U166 2.454 . S
O167 C169 1.353 . S
O168 U166 2.458 . S
O168 C169 1.286 . S
C169 U166 2.984 . S
C169 O167 1.353 . S
C169 O168 1.286 . S
C169 C171 1.363 . S
C170 C160 1.465 . S
C170 U166 2.847 . S
C170 O184 1.249 . S
C170 O185 1.202 . S
C171 C169 1.363 . S
C171 C173 1.408 . S
C171 C176 1.342 . S
C172 C173 1.310 . S
C172 C175 1.461 . S
C172 H192 0.932 . S
C173 C171 1.408 . S
C173 C172 1.310 . S
C173 H193 0.930 . S
C174 C175 1.474 . S
C174 C176 1.285 . S
C174 H194 0.929 . S
C175 C172 1.461 . S
C175 C174 1.474 . S
C176 C171 1.342 . S
C176 C174 1.285 . S
C176 H195 0.930 . S
C177 C180 1.424 . S
C177 C182 1.245 . S
C177 C183 1.428 . S
C178 C181 1.260 . S
C178 C182 1.477 . S
C178 H196 0.932 . S
C179 C180 1.384 . S
C179 C181 1.479 . S
C179 H197 0.929 1_565 S
C180 C177 1.424 . S
C180 C179 1.384 . S
C180 H198 0.928 . S
C181 C178 1.260 . S
C181 C179 1.479 . S
C182 C177 1.245 . S
C182 C178 1.477 . S
C182 H199 0.932 . S
C183 U166 2.882 . S
C183 C177 1.428 . S
C183 O186 1.301 . S
C183 O187 1.282 . S
O184 U166 2.441 . S
O184 C170 1.249 . S
O185 U166 2.420 . S
O185 C170 1.202 . S
O186 U166 2.455 . S
O186 C183 1.301 . S
O187 U166 2.449 . S
O187 C183 1.282 . S
H188 C161 0.931 . S
H189 C163 0.929 1_545 S
H190 C164 0.930 . S
H191 C165 0.931 . S
H192 C172 0.932 . S
H193 C173 0.930 . S
H194 C174 0.929 . S
H195 C176 0.930 . S
H196 C178 0.932 . S
H197 C179 0.929 1_545 S
H198 C180 0.928 . S
H199 C182 0.932 . S
C200 C201 1.264 . S
C200 C205 1.479 . S
C200 C210 1.465 . S
C201 C200 1.264 . S
C201 C203 1.339 . S
C201 H228 0.931 . S
C202 C203 1.395 . S
C202 C204 1.320 . S
C203 C201 1.339 . S
C203 C202 1.395 . S
C203 H229 0.929 1_545 S
C204 C202 1.320 . S
C204 C205 1.405 . S
C204 H230 0.930 . S
C205 C200 1.479 . S
C205 C204 1.405 . S
C205 H231 0.931 . S
U206 O207 2.454 . S
U206 O208 2.458 . S
U206 C209 2.984 . S
U206 C210 2.847 . S
U206 C223 2.882 . S
U206 O224 2.441 . S
U206 O225 2.420 . S
U206 O226 2.455 . S
U206 O227 2.449 . S
O207 U206 2.454 . S
O207 C209 1.353 . S
O208 U206 2.458 . S
O208 C209 1.286 . S
C209 U206 2.984 . S
C209 O207 1.353 . S
C209 O208 1.286 . S
C209 C211 1.363 . S
C210 C200 1.465 . S
C210 U206 2.847 . S
C210 O224 1.249 . S
C210 O225 1.202 . S
C211 C209 1.363 . S
C211 C213 1.408 . S
C211 C216 1.342 . S
C212 C213 1.310 . S
C212 C215 1.461 . S
C212 H232 0.932 . S
C213 C211 1.408 . S
C213 C212 1.310 . S
C213 H233 0.930 . S
C214 C215 1.474 . S
C214 C216 1.285 . S
C214 H234 0.929 . S
C215 C212 1.461 . S
C215 C214 1.474 . S
C216 C211 1.342 . S
C216 C214 1.285 . S
C216 H235 0.930 . S
C217 C220 1.424 . S
C217 C222 1.245 . S
C217 C223 1.428 . S
C218 C221 1.260 . S
C218 C222 1.477 . S
C218 H236 0.932 . S
C219 C220 1.384 . S
C219 C221 1.479 . S
C219 H237 0.929 1_545 S
C220 C217 1.424 . S
C220 C219 1.384 . S
C220 H238 0.928 . S
C221 C218 1.260 . S
C221 C219 1.479 . S
C222 C217 1.245 . S
C222 C218 1.477 . S
C222 H239 0.932 . S
C223 U206 2.882 . S
C223 C217 1.428 . S
C223 O226 1.301 . S
C223 O227 1.282 . S
O224 U206 2.441 . S
O224 C210 1.249 . S
O225 U206 2.420 . S
O225 C210 1.202 . S
O226 U206 2.455 . S
O226 C223 1.301 . S
O227 U206 2.449 . S
O227 C223 1.282 . S
H228 C201 0.931 . S
H229 C203 0.929 1_565 S
H230 C204 0.930 . S
H231 C205 0.931 . S
H232 C212 0.932 . S
H233 C213 0.930 . S
H234 C214 0.929 . S
H235 C216 0.930 . S
H236 C218 0.932 . S
H237 C219 0.929 1_565 S
H238 C220 0.928 . S
H239 C222 0.932 . S
C240 C241 1.264 . S
C240 C245 1.479 . S
C240 C250 1.465 . S
C241 C240 1.264 . S
C241 C243 1.339 . S
C241 H268 0.931 . S
C242 C243 1.395 . S
C242 C244 1.320 . S
C243 C241 1.339 . S
C243 C242 1.395 . S
C243 H269 0.929 . S
C244 C242 1.320 . S
C244 C245 1.405 . S
C244 H270 0.930 . S
C245 C240 1.479 . S
C245 C244 1.405 . S
C245 H271 0.931 . S
U246 O247 2.454 . S
U246 O248 2.458 . S
U246 C249 2.984 . S
U246 C250 2.847 . S
U246 C263 2.882 . S
U246 O264 2.441 . S
U246 O265 2.420 . S
U246 O266 2.455 . S
U246 O267 2.449 . S
O247 U246 2.454 . S
O247 C249 1.353 . S
O248 U246 2.458 . S
O248 C249 1.286 . S
C249 U246 2.984 . S
C249 O247 1.353 . S
C249 O248 1.286 . S
C249 C251 1.363 . S
C250 C240 1.465 . S
C250 U246 2.847 . S
C250 O264 1.249 . S
C250 O265 1.202 . S
C251 C249 1.363 . S
C251 C253 1.408 . S
C251 C256 1.342 . S
C252 C253 1.310 . S
C252 C255 1.461 . S
C252 H272 0.932 . S
C253 C251 1.408 . S
C253 C252 1.310 . S
C253 H273 0.930 . S
C254 C255 1.474 . S
C254 C256 1.285 . S
C254 H274 0.929 . S
C255 C252 1.461 . S
C255 C254 1.474 . S
C256 C251 1.342 . S
C256 C254 1.285 . S
C256 H275 0.930 . S
C257 C260 1.424 . S
C257 C262 1.245 . S
C257 C263 1.428 . S
C258 C261 1.260 . S
C258 C262 1.477 . S
C258 H276 0.932 . S
C259 C260 1.384 . S
C259 C261 1.479 . S
C259 H277 0.929 . S
C260 C257 1.424 . S
C260 C259 1.384 . S
C260 H278 0.928 . S
C261 C258 1.260 . S
C261 C259 1.479 . S
C262 C257 1.245 . S
C262 C258 1.477 . S
C262 H279 0.932 . S
C263 U246 2.882 . S
C263 C257 1.428 . S
C263 O266 1.301 . S
C263 O267 1.282 . S
O264 U246 2.441 . S
O264 C250 1.249 . S
O265 U246 2.420 . S
O265 C250 1.202 . S
O266 U246 2.455 . S
O266 C263 1.301 . S
O267 U246 2.449 . S
O267 C263 1.282 . S
H268 C241 0.931 . S
H269 C243 0.929 . S
H270 C244 0.930 . S
H271 C245 0.931 . S
H272 C252 0.932 . S
H273 C253 0.930 . S
H274 C254 0.929 . S
H275 C256 0.930 . S
H276 C258 0.932 . S
H277 C259 0.929 . S
H278 C260 0.928 . S
H279 C262 0.932 . S
C280 C281 1.264 . S
C280 C285 1.479 . S
C280 C290 1.465 . S
C281 C280 1.264 . S
C281 C283 1.339 . S
C281 H308 0.931 . S
C282 C283 1.395 . S
C282 C284 1.320 . S
C283 C281 1.339 . S
C283 C282 1.395 . S
C283 H309 0.929 . S
C284 C282 1.320 . S
C284 C285 1.405 . S
C284 H310 0.930 . S
C285 C280 1.479 . S
C285 C284 1.405 . S
C285 H311 0.931 . S
U286 O287 2.454 . S
U286 O288 2.458 . S
U286 C289 2.984 . S
U286 C290 2.847 . S
U286 C303 2.882 . S
U286 O304 2.441 . S
U286 O305 2.420 . S
U286 O306 2.455 . S
U286 O307 2.449 . S
O287 U286 2.454 . S
O287 C289 1.353 . S
O288 U286 2.458 . S
O288 C289 1.286 . S
C289 U286 2.984 . S
C289 O287 1.353 . S
C289 O288 1.286 . S
C289 C291 1.363 . S
C290 C280 1.465 . S
C290 U286 2.847 . S
C290 O304 1.249 . S
C290 O305 1.202 . S
C291 C289 1.363 . S
C291 C293 1.408 . S
C291 C296 1.342 . S
C292 C293 1.310 . S
C292 C295 1.461 . S
C292 H312 0.932 . S
C293 C291 1.408 . S
C293 C292 1.310 . S
C293 H313 0.930 . S
C294 C295 1.474 . S
C294 C296 1.285 . S
C294 H314 0.929 . S
C295 C292 1.461 . S
C295 C294 1.474 . S
C296 C291 1.342 . S
C296 C294 1.285 . S
C296 H315 0.930 . S
C297 C300 1.424 . S
C297 C302 1.245 . S
C297 C303 1.428 . S
C298 C301 1.260 . S
C298 C302 1.477 . S
C298 H316 0.932 . S
C299 C300 1.384 . S
C299 C301 1.479 . S
C299 H317 0.929 . S
C300 C297 1.424 . S
C300 C299 1.384 . S
C300 H318 0.928 . S
C301 C298 1.260 . S
C301 C299 1.479 . S
C302 C297 1.245 . S
C302 C298 1.477 . S
C302 H319 0.932 . S
C303 U286 2.882 . S
C303 C297 1.428 . S
C303 O306 1.301 . S
C303 O307 1.282 . S
O304 U286 2.441 . S
O304 C290 1.249 . S
O305 U286 2.420 . S
O305 C290 1.202 . S
O306 U286 2.455 . S
O306 C303 1.301 . S
O307 U286 2.449 . S
O307 C303 1.282 . S
H308 C281 0.931 . S
H309 C283 0.929 . S
H310 C284 0.930 . S
H311 C285 0.931 . S
H312 C292 0.932 . S
H313 C293 0.930 . S
H314 C294 0.929 . S
H315 C296 0.930 . S
H316 C298 0.932 . S
H317 C299 0.929 . S
H318 C300 0.928 . S
H319 C302 0.932 . S
C320 C321 1.363 . S
C320 C326 1.379 . S
C320 N328 1.356 . S
C321 C320 1.363 . S
C321 C327 1.363 . S
C322 C323 1.363 . S
C322 C327 1.379 . S
C322 N329 1.356 . S
C323 C322 1.363 . S
C323 C326 1.363 . S
N324 C326 1.356 . S
N324 H336 0.984 . S
N324 H337 0.985 . S
N325 C327 1.356 . S
N325 H330 0.984 . S
N325 H331 0.985 . S
C326 C320 1.379 . S
C326 C323 1.363 . S
C326 N324 1.356 . S
C327 C321 1.363 . S
C327 C322 1.379 . S
C327 N325 1.356 . S
N328 C320 1.356 . S
N328 H334 0.984 . S
N328 H335 0.984 . S
N329 C322 1.356 . S
N329 H332 0.984 . S
N329 H333 0.985 . S
H330 N325 0.984 . S
H331 N325 0.985 . S
H332 N329 0.984 . S
H333 N329 0.985 . S
H334 N328 0.984 . S
H335 N328 0.984 . S
H336 N324 0.984 . S
H337 N324 0.985 . S
C338 C339 1.363 . S
C338 C344 1.379 . S
C338 N346 1.356 . S
C339 C338 1.363 . S
C339 C345 1.363 . S
C340 C341 1.363 . S
C340 C345 1.379 . S
C340 N347 1.356 . S
C341 C340 1.363 . S
C341 C344 1.363 . S
N342 C344 1.356 . S
N342 H354 0.984 . S
N342 H355 0.985 . S
N343 C345 1.356 . S
N343 H348 0.984 . S
N343 H349 0.985 . S
C344 C338 1.379 . S
C344 C341 1.363 . S
C344 N342 1.356 . S
C345 C339 1.363 . S
C345 C340 1.379 . S
C345 N343 1.356 . S
N346 C338 1.356 . S
N346 H352 0.984 . S
N346 H353 0.984 . S
N347 C340 1.356 . S
N347 H350 0.984 . S
N347 H351 0.985 . S
H348 N343 0.984 . S
H349 N343 0.985 . S
H350 N347 0.984 . S
H351 N347 0.985 . S
H352 N346 0.984 . S
H353 N346 0.984 . S
H354 N342 0.984 . S
H355 N342 0.985 . S
C356 C357 1.363 . S
C356 C362 1.379 . S
C356 N364 1.356 . S
C357 C356 1.363 . S
C357 C363 1.363 . S
C358 C359 1.363 . S
C358 C363 1.379 . S
C358 N365 1.356 . S
C359 C358 1.363 . S
C359 C362 1.363 . S
N360 C362 1.356 . S
N360 H372 0.984 . S
N360 H373 0.985 . S
N361 C363 1.356 . S
N361 H366 0.984 . S
N361 H367 0.985 . S
C362 C356 1.379 . S
C362 C359 1.363 . S
C362 N360 1.356 . S
C363 C357 1.363 . S
C363 C358 1.379 . S
C363 N361 1.356 . S
N364 C356 1.356 . S
N364 H370 0.984 . S
N364 H371 0.984 . S
N365 C358 1.356 . S
N365 H368 0.984 . S
N365 H369 0.985 . S
H366 N361 0.984 . S
H367 N361 0.985 . S
H368 N365 0.984 . S
H369 N365 0.985 . S
H370 N364 0.984 . S
H371 N364 0.984 . S
H372 N360 0.984 . S
H373 N360 0.985 . S
C374 C375 1.363 . S
C374 C380 1.379 . S
C374 N382 1.356 . S
C375 C374 1.363 . S
C375 C381 1.363 . S
C376 C377 1.363 . S
C376 C381 1.379 . S
C376 N383 1.356 . S
C377 C376 1.363 . S
C377 C380 1.363 . S
N378 C380 1.356 . S
N378 H390 0.984 . S
N378 H391 0.985 . S
N379 C381 1.356 . S
N379 H384 0.984 . S
N379 H385 0.985 . S
C380 C374 1.379 . S
C380 C377 1.363 . S
C380 N378 1.356 . S
C381 C375 1.363 . S
C381 C376 1.379 . S
C381 N379 1.356 . S
N382 C374 1.356 . S
N382 H388 0.984 . S
N382 H389 0.984 . S
N383 C376 1.356 . S
N383 H386 0.984 . S
N383 H387 0.985 . S
H384 N379 0.984 . S
H385 N379 0.985 . S
H386 N383 0.984 . S
H387 N383 0.985 . S
H388 N382 0.984 . S
H389 N382 0.984 . S
H390 N378 0.984 . S
H391 N378 0.985 . S
C392 C393 1.363 1_545 S
C392 C398 1.379 . S
C392 N400 1.356 . S
C393 C392 1.363 1_565 S
C393 C399 1.363 . S
C394 C395 1.363 1_565 S
C394 C399 1.379 . S
C394 N401 1.356 . S
C395 C394 1.363 1_545 S
C395 C398 1.363 . S
N396 C398 1.356 . S
N396 H408 0.984 1_554 S
N396 H409 0.985 . S
N397 C399 1.356 . S
N397 H402 0.984 . S
N397 H403 0.985 . S
C398 C392 1.379 . S
C398 C395 1.363 . S
C398 N396 1.356 . S
C399 C393 1.363 . S
C399 C394 1.379 . S
C399 N397 1.356 . S
N400 C392 1.356 . S
N400 H406 0.984 1_554 S
N400 H407 0.984 1_545 S
N401 C394 1.356 . S
N401 H404 0.984 1_565 S
N401 H405 0.985 . S
H402 N397 0.984 . S
H403 N397 0.985 . S
H404 N401 0.984 1_545 S
H405 N401 0.985 . S
H406 N400 0.984 1_556 S
H407 N400 0.984 1_565 S
H408 N396 0.984 1_556 S
H409 N396 0.985 . S
C410 C411 1.363 . S
C410 C416 1.379 . S
C410 N418 1.356 . S
C411 C410 1.363 . S
C411 C417 1.363 . S
C412 C413 1.363 . S
C412 C417 1.379 . S
C412 N419 1.356 . S
C413 C412 1.363 . S
C413 C416 1.363 . S
N414 C416 1.356 . S
N414 H426 0.984 . S
N414 H427 0.985 . S
N415 C417 1.356 . S
N415 H420 0.984 . S
N415 H421 0.985 . S
C416 C410 1.379 . S
C416 C413 1.363 . S
C416 N414 1.356 . S
C417 C411 1.363 . S
C417 C412 1.379 . S
C417 N415 1.356 . S
N418 C410 1.356 . S
N418 H424 0.984 . S
N418 H425 0.984 . S
N419 C412 1.356 . S
N419 H422 0.984 . S
N419 H423 0.985 . S
H420 N415 0.984 . S
H421 N415 0.985 . S
H422 N419 0.984 . S
H423 N419 0.985 . S
H424 N418 0.984 . S
H425 N418 0.984 . S
H426 N414 0.984 . S
H427 N414 0.985 . S
C428 C429 1.363 . S
C428 C434 1.379 . S
C428 N436 1.356 . S
C429 C428 1.363 . S
C429 C435 1.363 1_545 S
C430 C431 1.363 . S
C430 C435 1.379 . S
C430 N437 1.356 . S
C431 C430 1.363 . S
C431 C434 1.363 1_565 S
N432 C434 1.356 . S
N432 H444 0.984 1_556 S
N432 H445 0.985 1_545 S
N433 C435 1.356 . S
N433 H438 0.984 1_565 S
N433 H439 0.985 . S
C434 C428 1.379 . S
C434 C431 1.363 1_545 S
C434 N432 1.356 . S
C435 C429 1.363 1_565 S
C435 C430 1.379 . S
C435 N433 1.356 . S
N436 C428 1.356 . S
N436 H442 0.984 1_556 S
N436 H443 0.984 . S
N437 C430 1.356 . S
N437 H440 0.984 . S
N437 H441 0.985 . S
H438 N433 0.984 1_545 S
H439 N433 0.985 . S
H440 N437 0.984 . S
H441 N437 0.985 . S
H442 N436 0.984 1_554 S
H443 N436 0.984 . S
H444 N432 0.984 1_554 S
H445 N432 0.985 1_565 S
C446 C447 1.363 . S
C446 C452 1.379 . S
C446 N454 1.356 . S
C447 C446 1.363 . S
C447 C453 1.363 . S
C448 C449 1.363 . S
C448 C453 1.379 . S
C448 N455 1.356 . S
C449 C448 1.363 . S
C449 C452 1.363 . S
N450 C452 1.356 . S
N450 H462 0.984 . S
N450 H463 0.985 . S
N451 C453 1.356 . S
N451 H456 0.984 . S
N451 H457 0.985 . S
C452 C446 1.379 . S
C452 C449 1.363 . S
C452 N450 1.356 . S
C453 C447 1.363 . S
C453 C448 1.379 . S
C453 N451 1.356 . S
N454 C446 1.356 . S
N454 H460 0.984 . S
N454 H461 0.984 . S
N455 C448 1.356 . S
N455 H458 0.984 . S
N455 H459 0.985 . S
H456 N451 0.984 . S
H457 N451 0.985 . S
H458 N455 0.984 . S
H459 N455 0.985 . S
H460 N454 0.984 . S
H461 N454 0.984 . S
H462 N450 0.984 . S
H463 N450 0.985 . S
C464 C465 1.363 1_554 S
C464 C470 1.357 1_665 S
C464 N472 1.356 . S
C465 C464 1.363 1_556 S
C465 C471 1.385 . S
C466 C467 1.363 1_556 S
C466 C471 1.357 1_445 S
C466 N473 1.356 . S
C467 C466 1.363 1_554 S
C467 C470 1.385 . S
N468 C470 1.366 . S
N468 H480 0.978 1_545 S
N468 H481 0.985 . S
N469 C471 1.366 . S
N469 H474 0.984 . S
N469 H475 0.978 1_565 S
C470 C464 1.357 1_445 S
C470 C467 1.385 . S
C470 N468 1.366 . S
C471 C465 1.385 . S
C471 C466 1.357 1_665 S
C471 N469 1.366 . S
N472 C464 1.356 . S
N472 H478 0.984 . S
N472 H479 0.984 . S
N473 C466 1.356 . S
N473 H476 0.984 . S
N473 H477 0.985 . S
H474 N469 0.984 . S
H475 N469 0.978 1_545 S
H476 N473 0.984 . S
H477 N473 0.985 . S
H478 N472 0.984 . S
H479 N472 0.984 . S
H480 N468 0.978 1_565 S
H481 N468 0.985 . S
C482 C483 1.363 . S
C482 C488 1.379 1_554 S
C482 N490 1.356 . S
C483 C482 1.363 . S
C483 C489 1.363 1_565 S
C484 C485 1.363 . S
C484 C489 1.379 1_556 S
C484 N491 1.356 . S
C485 C484 1.363 . S
C485 C488 1.363 1_545 S
N486 C488 1.356 . S
N486 H498 0.984 . S
N486 H499 0.985 . S
N487 C489 1.356 . S
N487 H492 0.984 . S
N487 H493 0.985 . S
C488 C482 1.379 1_556 S
C488 C485 1.363 1_565 S
C488 N486 1.356 . S
C489 C483 1.363 1_545 S
C489 C484 1.379 1_554 S
C489 N487 1.356 . S
N490 C482 1.356 . S
N490 H496 0.984 1_554 S
N490 H497 0.984 . S
N491 C484 1.356 . S
N491 H494 0.984 . S
N491 H495 0.985 1_556 S
H492 N487 0.984 . S
H493 N487 0.985 . S
H494 N491 0.984 . S
H495 N491 0.985 1_554 S
H496 N490 0.984 1_556 S
H497 N490 0.984 . S
H498 N486 0.984 . S
H499 N486 0.985 . S
C500 C501 1.363 . S
C500 C506 1.379 1_655 S
C500 N508 1.356 . S
C501 C500 1.363 . S
C501 C507 1.363 . S
C502 C503 1.363 . S
C502 C507 1.379 1_455 S
C502 N509 1.356 . S
C503 C502 1.363 . S
C503 C506 1.363 . S
N504 C506 1.356 . S
N504 H516 0.984 . S
N504 H517 0.985 . S
N505 C507 1.356 . S
N505 H510 0.984 . S
N505 H511 0.985 . S
C506 C500 1.379 1_455 S
C506 C503 1.363 . S
C506 N504 1.356 . S
C507 C501 1.363 . S
C507 C502 1.379 1_655 S
C507 N505 1.356 . S
N508 C500 1.356 . S
N508 H514 0.984 . S
N508 H515 0.984 . S
N509 C502 1.356 . S
N509 H512 0.984 . S
N509 H513 0.985 . S
H510 N505 0.984 . S
H511 N505 0.985 . S
H512 N509 0.984 . S
H513 N509 0.985 . S
H514 N508 0.984 . S
H515 N508 0.984 . S
H516 N504 0.984 . S
H517 N504 0.985 . S
C518 C519 1.363 . S
C518 C524 1.379 . S
C518 N526 1.356 . S
C519 C518 1.363 . S
C519 C525 1.363 . S
C520 C521 1.363 . S
C520 C525 1.379 . S
C520 N527 1.356 . S
C521 C520 1.363 . S
C521 C524 1.363 . S
N522 C524 1.356 . S
N522 H534 0.984 . S
N522 H535 0.985 . S
N523 C525 1.356 . S
N523 H528 0.984 . S
N523 H529 0.985 . S
C524 C518 1.379 . S
C524 C521 1.363 . S
C524 N522 1.356 . S
C525 C519 1.363 . S
C525 C520 1.379 . S
C525 N523 1.356 . S
N526 C518 1.356 . S
N526 H532 0.984 . S
N526 H533 0.984 . S
N527 C520 1.356 . S
N527 H530 0.984 . S
N527 H531 0.985 . S
H528 N523 0.984 . S
H529 N523 0.985 . S
H530 N527 0.984 . S
H531 N527 0.985 . S
H532 N526 0.984 . S
H533 N526 0.984 . S
H534 N522 0.984 . S
H535 N522 0.985 . S
C321 C15 1.501 . S
C323 C95 1.501 . S
C339 C55 1.501 . S
C341 C135 1.501 . S
C357 C175 1.501 . S
C359 C255 1.501 . S
C375 C295 1.501 . S
C377 C215 1.501 . S
C393 C61 1.488 . S
C395 C21 1.488 . S
C411 C141 1.488 . S
C413 C101 1.488 . S
C429 C221 1.490 . S
C431 C181 1.490 . S
C447 C301 1.490 . S
C449 C261 1.490 . S
C465 C162 1.491 . S
C467 C2 1.485 . S
C483 C42 1.485 . S
C485 C202 1.491 . S
C501 C242 1.491 . S
C503 C82 1.485 . S
C519 C122 1.485 . S
C521 C282 1.491 . S
