# Generated by pormake.
# Topology bcg, (8)-cn, num edge types: 1
# Building blocks:
#     Node 0, Type 0, BuildingBlock: EBIMEJ_clean_sbu_0, # of connection points: 8
#     Node 1, Type 0, BuildingBlock: EBIMEJ_clean_sbu_0, # of connection points: 8
#     Node 2, Type 0, BuildingBlock: EBIMEJ_clean_sbu_0, # of connection points: 8
#     Node 3, Type 0, BuildingBlock: EBIMEJ_clean_sbu_0, # of connection points: 8
#     Edge 4, Type (0, 0), BuildingBlock: CIFDUS_clean_linker_0, # of connection points: 2
#     Edge 5, Type (0, 0), BuildingBlock: CIFDUS_clean_linker_0, # of connection points: 2
#     Edge 6, Type (0, 0), BuildingBlock: CIFDUS_clean_linker_0, # of connection points: 2
#     Edge 7, Type (0, 0), BuildingBlock: CIFDUS_clean_linker_0, # of connection points: 2
#     Edge 8, Type (0, 0), BuildingBlock: CIFDUS_clean_linker_0, # of connection points: 2
#     Edge 9, Type (0, 0), BuildingBlock: CIFDUS_clean_linker_0, # of connection points: 2
#     Edge 10, Type (0, 0), BuildingBlock: CIFDUS_clean_linker_0, # of connection points: 2
#     Edge 11, Type (0, 0), BuildingBlock: CIFDUS_clean_linker_0, # of connection points: 2
#     Edge 12, Type (0, 0), BuildingBlock: CIFDUS_clean_linker_0, # of connection points: 2
#     Edge 13, Type (0, 0), BuildingBlock: CIFDUS_clean_linker_0, # of connection points: 2
#     Edge 14, Type (0, 0), BuildingBlock: CIFDUS_clean_linker_0, # of connection points: 2
#     Edge 15, Type (0, 0), BuildingBlock: CIFDUS_clean_linker_0, # of connection points: 2
#     Edge 16, Type (0, 0), BuildingBlock: CIFDUS_clean_linker_0, # of connection points: 2
#     Edge 17, Type (0, 0), BuildingBlock: CIFDUS_clean_linker_0, # of connection points: 2
#     Edge 18, Type (0, 0), BuildingBlock: CIFDUS_clean_linker_0, # of connection points: 2
#     Edge 19, Type (0, 0), BuildingBlock: CIFDUS_clean_linker_0, # of connection points: 2
# Relax obj value: 0.041
# Max RMSD: 0.091
# Mean RMSD: 0.091
data_MOF--net-bcg--node1-EBIMEJ_clean_sbu_0--edge1-CIFDUS_clean_linker_0
_symmetry_space_group_name_H-M    P1
_symmetry_Int_Tables_number       1
_symmetry_cell_setting            triclinic
loop_
_symmetry_equiv_pos_as_xyz
'x, y, z'
_cell_length_a     15.2606
_cell_length_b     24.615156
_cell_length_c     30.896601
_cell_angle_alpha  81.957125
_cell_angle_beta   90.102942
_cell_angle_gamma 90.056344
loop_
_atom_site_label
_atom_site_type_symbol
_atom_site_fract_x
_atom_site_fract_y
_atom_site_fract_z
_atom_type_partial_charge
Co0 Co 0.14065 0.24648 0.93958 0.0
Co1 Co 0.32643 0.25067 0.99235 0.0
Co2 Co 0.15838 0.26533 0.03931 0.0
H3 H 0.17116 0.26511 0.98832 0.0
O4 O 0.21329 0.28651 0.97842 0.0
H5 H 0.31372 0.24868 0.04401 0.0
O6 O 0.27032 0.22768 0.05279 0.0
Co7 Co 0.34492 0.26174 0.09481 0.0
O8 O 0.46585 0.2544 0.06901 0.0
O9 O 0.44015 0.21612 1.00869 0.0
O10 O 0.24546 0.23671 0.13737 0.0
O11 O 0.11849 0.25365 0.10143 0.0
O12 O 0.02162 0.2501 0.90766 0.0
O13 O 0.13658 0.24904 0.87227 0.0
O14 O 0.36738 0.33946 0.06754 0.0
O15 O 0.37535 0.32593 0.99773 0.0
C16 C -0.00505 0.2896 0.99376 0.0
C17 C 0.32385 0.25023 0.89654 0.0
C18 C 0.40762 0.25921 0.17022 0.0
C19 C 0.10803 0.15613 1.00766 0.0
C20 C 0.49226 0.2313 0.0369 0.0
C21 C 0.16197 0.23992 0.13657 0.0
C22 C 0.05441 0.25032 0.87046 0.0
C23 C 0.38439 0.35656 0.02771 0.0
O24 O 0.02107 0.26469 0.96258 0.0
O25 O 0.04626 0.30206 0.02331 0.0
O26 O 0.36585 0.263 0.92963 0.0
O27 O 0.24189 0.2393 0.89787 0.0
O28 O 0.42708 0.29452 0.13828 0.0
O29 O 0.35261 0.22559 0.15929 0.0
O30 O 0.1382 0.16919 0.96944 0.0
O31 O 0.10426 0.19086 0.03484 0.0
Co32 Co 0.63985 0.74677 0.93952 0.0
Co33 Co 0.82339 0.75191 0.99485 0.0
Co34 Co 0.65443 0.76343 0.04106 0.0
H35 H 0.66802 0.76395 0.9895 0.0
O36 O 0.7096 0.78624 0.98041 0.0
H37 H 0.80988 0.75056 0.04589 0.0
O38 O 0.76814 0.72847 0.05521 0.0
Co39 Co 0.84021 0.76775 0.09504 0.0
O40 O 0.96215 0.75692 0.07119 0.0
O41 O 0.93719 0.71795 1.01122 0.0
O42 O 0.73723 0.77697 0.1347 0.0
O43 O 0.61458 0.75093 0.1036 0.0
O44 O 0.5202 0.74469 0.90855 0.0
O45 O 0.63402 0.74961 0.87194 0.0
O46 O 0.85762 0.84521 0.06781 0.0
O47 O 0.87176 0.82791 0.99942 0.0
C48 C 0.4915 0.7866 0.9943 0.0
C49 C 0.82475 0.76082 0.89777 0.0
C50 C 0.90412 0.75829 0.17024 0.0
C51 C 0.6074 0.65466 1.00774 0.0
C52 C 0.9888 0.73276 0.03971 0.0
C53 C 0.65609 0.76467 0.13641 0.0
C54 C 0.55178 0.74708 0.87089 0.0
C55 C 0.8777 0.86043 0.02823 0.0
O56 O 0.51887 0.7628 0.96269 0.0
O57 O 0.54133 0.79821 0.02471 0.0
O58 O 0.86399 0.76552 0.93352 0.0
O59 O 0.74221 0.7517 0.89572 0.0
O60 O 0.92871 0.79282 0.13881 0.0
O61 O 0.84364 0.72852 0.15886 0.0
O62 O 0.63518 0.66903 0.96912 0.0
O63 O 0.60463 0.68826 0.03583 0.0
Co64 Co 0.13722 0.76481 0.59456 0.0
Co65 Co 0.32002 0.76244 0.53801 0.0
Co66 Co 0.14983 0.74837 0.4934 0.0
H67 H 0.16512 0.74807 0.54464 0.0
O68 O 0.20779 0.72656 0.5535 0.0
H69 H 0.30468 0.76343 0.48697 0.0
O70 O 0.26177 0.78479 0.47824 0.0
Co71 Co 0.33318 0.7479 0.43696 0.0
O72 O 0.45605 0.75818 0.46053 0.0
O73 O 0.43259 0.7976 0.52042 0.0
O74 O 0.23408 0.77577 0.39526 0.0
O75 O 0.10725 0.76048 0.43157 0.0
O76 O 0.12867 0.77791 0.65936 0.0
O77 O 0.02701 0.74016 0.63045 0.0
O78 O 0.35387 0.67031 0.46427 0.0
O79 O 0.36922 0.68705 0.53288 0.0
C80 C 0.98689 0.72869 0.53923 0.0
C81 C 0.32398 0.75265 0.63537 0.0
C82 C 0.39312 0.74245 0.36256 0.0
C83 C 0.10209 0.85731 0.52654 0.0
C84 C 0.48351 0.78288 0.49167 0.0
C85 C 0.1505 0.77384 0.39631 0.0
C86 C 0.05345 0.75718 0.66457 0.0
C87 C 0.37489 0.65487 0.50382 0.0
O88 O 0.01469 0.75408 0.56997 0.0
O89 O 0.03766 0.71303 0.51088 0.0
O90 O 0.3629 0.74982 0.59921 0.0
O91 O 0.24095 0.75967 0.63793 0.0
O92 O 0.42813 0.76852 0.3902 0.0
O93 O 0.32342 0.71955 0.37705 0.0
O94 O 0.12849 0.84284 0.56546 0.0
O95 O 0.10027 0.82367 0.49845 0.0
Co96 Co 0.64878 0.26687 0.59482 0.0
Co97 Co 0.83134 0.26522 0.53703 0.0
Co98 Co 0.66052 0.25072 0.49294 0.0
H99 H 0.67586 0.25073 0.54438 0.0
O100 O 0.71887 0.22932 0.55292 0.0
H101 H 0.81583 0.26682 0.48595 0.0
O102 O 0.77226 0.28779 0.47747 0.0
Co103 Co 0.84619 0.2525 0.4358 0.0
O104 O 0.96916 0.25939 0.46061 0.0
O105 O 0.94375 0.30041 0.51931 0.0
O106 O 0.74418 0.2751 0.39404 0.0
O107 O 0.61755 0.26235 0.43105 0.0
O108 O 0.65053 0.29803 0.65377 0.0
O109 O 0.55988 0.23851 0.64356 0.0
O110 O 0.86832 0.17453 0.46243 0.0
O111 O 0.87928 0.18967 0.53161 0.0
C112 C 0.49891 0.22723 0.54062 0.0
C113 C 0.83677 0.25224 0.63414 0.0
C114 C 0.90833 0.25503 0.36067 0.0
C115 C 0.60276 0.35805 0.52665 0.0
C116 C -0.00398 0.28391 0.49196 0.0
C117 C 0.66053 0.27376 0.39544 0.0
C118 C 0.58738 0.26925 0.66987 0.0
C119 C 0.88667 0.15814 0.50221 0.0
O120 O 0.5265 0.25155 0.57203 0.0
O121 O 0.54912 0.21457 0.51077 0.0
O122 O 0.876 0.25191 0.59781 0.0
O123 O 0.75382 0.258 0.63689 0.0
O124 O 0.92944 0.22047 0.39283 0.0
O125 O 0.85203 0.288 0.37122 0.0
O126 O 0.62511 0.34347 0.56613 0.0
O127 O 0.60885 0.32559 0.4978 0.0
H128 H 0.61405 0.29641 0.06674 0.0
H129 H 0.57907 0.17186 0.98252 0.0
H130 H 0.73021 0.1847 0.95752 0.0
H131 H 0.87054 0.23029 0.96018 0.0
H132 H 0.90815 0.35309 0.04568 0.0
H133 H 0.75496 0.3432 0.06861 0.0
C134 C 0.63986 0.27135 0.04349 0.0
C135 C 0.58607 0.23277 0.02684 0.0
C136 C 0.72584 0.27963 0.02872 0.0
C137 C 0.61973 0.20147 0.99604 0.0
C138 C 0.70564 0.20913 0.98146 0.0
C139 C 0.84511 0.25579 0.98319 0.0
C140 C 0.90031 0.29252 1.00115 0.0
C141 C 0.75878 0.24838 0.99735 0.0
C142 C 0.86654 0.32466 0.03136 0.0
C143 C 0.77948 0.31861 0.04477 0.0
H144 H 0.11017 0.80145 0.0647 0.0
H145 H 0.0759 0.66594 0.99128 0.0
H146 H 0.22753 0.67565 0.96618 0.0
H147 H 0.3685 0.72205 0.9657 0.0
H148 H 0.40409 0.85651 0.04006 0.0
H149 H 0.25085 0.84902 0.06316 0.0
C150 C 0.13637 0.77333 0.04391 0.0
C151 C 0.08278 0.7325 0.03034 0.0
C152 C 0.22244 0.77995 0.0289 0.0
C153 C 0.11664 0.69727 1.00248 0.0
C154 C 0.20277 0.70314 0.98781 0.0
C155 C 0.34231 0.75052 0.9862 0.0
C156 C 0.39689 0.78995 1.00106 0.0
C157 C 0.25579 0.74464 1.00053 0.0
C158 C 0.36272 0.82596 0.02819 0.0
C159 C 0.27568 0.82132 0.04172 0.0
H160 H 0.60522 0.71433 0.4671 0.0
H161 H 0.57158 0.85227 0.53778 0.0
H162 H 0.72403 0.84416 0.56219 0.0
H163 H 0.86502 0.79702 0.56419 0.0
H164 H 0.89853 0.65907 0.49348 0.0
H165 H 0.746 0.66702 0.46929 0.0
C166 C 0.63173 0.74332 0.48712 0.0
C167 C 0.57794 0.78422 0.50026 0.0
C168 C 0.71818 0.73746 0.50194 0.0
C169 C 0.61234 0.82072 0.52703 0.0
C170 C 0.699 0.81579 0.5413 0.0
C171 C 0.83851 0.76803 0.54416 0.0
C172 C 0.89237 0.72725 0.53086 0.0
C173 C 0.75197 0.77381 0.52945 0.0
C174 C 0.85782 0.69062 0.50425 0.0
C175 C 0.77109 0.69545 0.49012 0.0
H176 H 0.12032 0.21906 0.46373 0.0
H177 H 0.08072 0.34451 0.54652 0.0
H178 H 0.23088 0.33262 0.57329 0.0
H179 H 0.37297 0.28743 0.57261 0.0
H180 H 0.41336 0.16276 0.48923 0.0
H181 H 0.26167 0.17247 0.4642 0.0
C182 C 0.14495 0.24451 0.48704 0.0
C183 C 0.08993 0.28306 0.5027 0.0
C184 C 0.23049 0.23669 0.50298 0.0
C185 C 0.12222 0.31491 0.53362 0.0
C186 C 0.20769 0.3078 0.54927 0.0
C187 C 0.34815 0.26149 0.54969 0.0
C188 C 0.40407 0.22432 0.5329 0.0
C189 C 0.26205 0.2685 0.53443 0.0
C190 C 0.37128 0.19156 0.50275 0.0
C191 C 0.28496 0.19747 0.48808 0.0
H192 H 0.56742 0.58093 0.95231 0.0
H193 H 0.55802 0.60308 0.08843 0.0
H194 H 0.48646 0.51396 0.10623 0.0
H195 H 0.42565 0.43004 0.08329 0.0
H196 H 0.43367 0.40837 0.947 0.0
H197 H 0.50599 0.49718 0.92931 0.0
C198 C 0.55054 0.56618 0.98599 0.0
C199 C 0.56893 0.59882 0.019 0.0
C200 C 0.50828 0.51511 0.99598 0.0
C201 C 0.54521 0.579 0.06232 0.0
C202 C 0.50395 0.52801 0.07254 0.0
C203 C 0.4426 0.44473 0.04961 0.0
C204 C 0.42357 0.41226 0.01655 0.0
C205 C 0.48475 0.49584 0.03961 0.0
C206 C 0.44686 0.43227 0.97318 0.0
C207 C 0.48864 0.48308 0.96301 0.0
H208 H 0.56116 0.43248 0.58116 0.0
H209 H 0.55004 0.40758 0.44562 0.0
H210 H 0.47653 0.49594 0.42707 0.0
H211 H 0.41521 0.5802 0.44917 0.0
H212 H 0.42651 0.60488 0.58477 0.0
H213 H 0.49955 0.51645 0.60327 0.0
C214 C 0.54327 0.44634 0.54744 0.0
C215 C 0.56186 0.41316 0.51483 0.0
C216 C 0.50032 0.49708 0.537 0.0
C217 C 0.53716 0.43205 0.47144 0.0
C218 C 0.49479 0.48261 0.4608 0.0
C219 C 0.43298 0.56622 0.48289 0.0
C220 C 0.41467 0.59943 0.51552 0.0
C221 C 0.47575 0.51539 0.49332 0.0
C222 C 0.43915 0.58041 0.55892 0.0
C223 C 0.4813 0.52981 0.56955 0.0
H224 H 0.06796 0.08213 0.95254 0.0
H225 H 0.05357 0.10655 0.08807 0.0
H226 H 0.97879 0.01844 0.10581 0.0
H227 H 0.91719 0.93486 0.083 0.0
H228 H 0.9307 0.91039 0.94742 0.0
H229 H 0.0054 0.99856 0.92961 0.0
C230 C 0.04925 0.0681 0.98609 0.0
C231 C 0.0672 0.10102 0.01899 0.0
C232 C 0.00524 0.01762 0.99599 0.0
C233 C 0.0411 0.08219 0.0621 0.0
C234 C -0.00198 0.03181 0.07225 0.0
C235 C 0.93575 0.9488 0.04941 0.0
C236 C 0.91766 0.91579 0.01658 0.0
C237 C 0.97941 0.99933 0.03944 0.0
C238 C 0.94316 0.93477 0.97338 0.0
C239 C 0.98629 0.98517 0.96318 0.0
H240 H 0.92621 0.08291 0.4478 0.0
H241 H 0.93581 0.10759 0.5834 0.0
H242 H 0.00559 0.01823 0.60245 0.0
H243 H 0.06416 0.9329 0.58086 0.0
H244 H 0.05351 0.90792 0.44536 0.0
H245 H 0.98459 0.99758 0.42624 0.0
C246 C 0.94298 0.06876 0.48162 0.0
C247 C 0.92504 0.10225 0.51408 0.0
C248 C 0.98367 0.01726 0.49241 0.0
C249 C 0.94816 0.08293 0.55764 0.0
C250 C 0.98846 0.03176 0.5686 0.0
C251 C 0.04747 0.9471 0.54705 0.0
C252 C 0.06471 0.91343 0.51462 0.0
C253 C 0.00684 0.99863 0.53625 0.0
C254 C 0.04148 0.93271 0.47108 0.0
C255 C 0.00174 0.98405 0.46009 0.0
H256 H 0.51295 0.22263 0.3709 0.0
H257 H 0.70565 0.34481 0.32371 0.0
H258 H 0.64327 0.35254 0.2503 0.0
H259 H 0.53886 0.32112 0.19819 0.0
H260 H 0.35125 0.19519 0.24411 0.0
H261 H 0.40613 0.1924 0.31877 0.0
C262 C 0.54007 0.25166 0.34468 0.0
C263 C 0.61362 0.2833 0.35287 0.0
C264 C 0.50529 0.25477 0.30201 0.0
C265 C 0.64912 0.31996 0.31831 0.0
C266 C 0.61361 0.32431 0.27623 0.0
C267 C 0.50984 0.29324 0.22459 0.0
C268 C 0.44117 0.25837 0.2155 0.0
C269 C 0.54266 0.29127 0.26747 0.0
C270 C 0.40441 0.22235 0.2501 0.0
C271 C 0.43567 0.2208 0.29291 0.0
H272 H 0.49443 0.72273 0.16588 0.0
H273 H 0.72054 0.81077 0.20444 0.0
H274 H 0.65973 0.81101 0.27644 0.0
H275 H 0.5451 0.78585 0.32982 0.0
H276 H 0.31745 0.69785 0.29479 0.0
H277 H 0.37565 0.69816 0.22069 0.0
C278 C 0.52988 0.74228 0.18995 0.0
C279 C 0.61232 0.76647 0.17928 0.0
C280 C 0.49451 0.74222 0.23228 0.0
C281 C 0.65732 0.79143 0.21125 0.0
C282 C 0.62265 0.79173 0.25277 0.0
C283 C 0.50811 0.76671 0.306 0.0
C284 C 0.42744 0.7417 0.31781 0.0
C285 C 0.54182 0.76704 0.26377 0.0
C286 C 0.38021 0.71712 0.28653 0.0
C287 C 0.41337 0.71742 0.24412 0.0
H288 H 0.2692 0.75078 0.7202 0.0
H289 H 0.50306 0.7474 0.64205 0.0
H290 H 0.5937 0.74542 0.70727 0.0
H291 H 0.60774 0.74601 0.78687 0.0
H292 H 0.374 0.74843 0.86488 0.0
H293 H 0.28301 0.74957 0.79964 0.0
C294 C 0.33993 0.7495 0.7173 0.0
C295 C 0.37859 0.74933 0.6759 0.0
C296 C 0.39222 0.74836 0.75511 0.0
C297 C 0.47077 0.74747 0.67324 0.0
C298 C 0.52305 0.74646 0.71063 0.0
C299 C 0.53691 0.74676 0.78954 0.0
C300 C 0.49786 0.74731 0.83074 0.0
C301 C 0.48463 0.74713 0.75176 0.0
C302 C 0.40589 0.74807 0.83362 0.0
C303 C 0.35367 0.7487 0.79627 0.0
H304 H 0.47736 0.30037 0.86351 0.0
H305 H 0.27188 0.19039 0.83394 0.0
H306 H 0.33528 0.18587 0.76266 0.0
H307 H 0.44574 0.21464 0.70693 0.0
H308 H 0.65082 0.32578 0.73365 0.0
H309 H 0.59169 0.32809 0.80709 0.0
C310 C 0.44701 0.27514 0.84157 0.0
C311 C 0.36928 0.24619 0.85432 0.0
C312 C 0.48357 0.27301 0.79971 0.0
C313 C 0.33092 0.2138 0.82516 0.0
C314 C 0.36725 0.21097 0.78418 0.0
C315 C 0.47763 0.2393 0.72884 0.0
C316 C 0.55232 0.27011 0.71468 0.0
C317 C 0.44289 0.24079 0.77084 0.0
C318 C 0.59286 0.30183 0.74359 0.0
C319 C 0.5591 0.30312 0.78569 0.0
H320 H 0.0014 0.72434 0.37178 0.0
H321 H 0.19937 0.84303 0.32436 0.0
H322 H 0.13943 0.84954 0.25058 0.0
H323 H 0.03686 0.8176 0.19847 0.0
H324 H 0.84227 0.696 0.24416 0.0
H325 H 0.89479 0.69421 0.31934 0.0
C326 C 0.03013 0.75242 0.34542 0.0
C327 C 0.10441 0.78346 0.35363 0.0
C328 C -0.00311 0.7547 0.30255 0.0
C329 C 0.14204 0.81884 0.31894 0.0
C330 C 0.10811 0.82238 0.27667 0.0
C331 C 0.00594 0.79071 0.22489 0.0
C332 C 0.9364 0.75661 0.21569 0.0
C333 C 0.03675 0.78972 0.2679 0.0
C334 C 0.89665 0.72221 0.25032 0.0
C335 C 0.92638 0.72138 0.29335 0.0
H336 H 0.04039 0.19365 0.33356 0.0
H337 H 0.8514 0.31824 0.28647 0.0
H338 H 0.90708 0.32085 0.21206 0.0
H339 H 0.01459 0.29078 0.16063 0.0
H340 H 0.20792 0.16945 0.20874 0.0
H341 H 0.14534 0.16213 0.28202 0.0
C342 C 0.01127 0.22121 0.30696 0.0
C343 C 0.94207 0.25579 0.31559 0.0
C344 C 0.04438 0.22299 0.26426 0.0
C345 C 0.90504 0.29136 0.28078 0.0
C346 C 0.93673 0.29279 0.23815 0.0
C347 C 0.04191 0.26206 0.18702 0.0
C348 C 0.11576 0.23063 0.1792 0.0
C349 C 0.00687 0.25909 0.22949 0.0
C350 C 0.15135 0.19427 0.21393 0.0
C351 C 0.11567 0.19012 0.25589 0.0
H352 H 0.11383 0.24434 0.78809 0.0
H353 H 0.87727 0.25705 0.8623 0.0
H354 H 0.78916 0.25716 0.79621 0.0
H355 H 0.77908 0.25425 0.71751 0.0
H356 H 0.01531 0.24203 0.64264 0.0
H357 H 0.10332 0.24055 0.70883 0.0
C358 C 0.043 0.24719 0.78971 0.0
C359 C 0.00215 0.25085 0.82999 0.0
C360 C -0.00746 0.24702 0.75152 0.0
C361 C 0.91032 0.25429 0.83167 0.0
C362 C 0.85984 0.25427 0.79391 0.0
C363 C 0.84975 0.25109 0.71551 0.0
C364 C 0.89008 0.24831 0.67488 0.0
C365 C 0.90022 0.25067 0.75366 0.0
C366 C 0.98204 0.24415 0.6733 0.0
C367 C 0.03266 0.24345 0.71119 0.0
H368 H 0.10364 0.78316 0.74412 0.0
H369 H 0.88315 0.72622 0.67527 0.0
H370 H 0.79235 0.72379 0.74049 0.0
H371 H 0.77533 0.73714 0.81723 0.0
H372 H -0.00357 0.79243 0.88691 0.0
H373 H 0.08662 0.79601 0.82151 0.0
C374 C 0.03575 0.7702 0.74348 0.0
C375 C 0.00027 0.75488 0.7049 0.0
C376 C 0.98374 0.76861 0.78131 0.0
C377 C 0.91222 0.73803 0.70459 0.0
C378 C 0.8601 0.73673 0.74187 0.0
C379 C 0.84299 0.75038 0.81816 0.0
C380 C 0.87838 0.76473 0.85715 0.0
C381 C 0.89508 0.75194 0.78043 0.0
C382 C 0.96686 0.78118 0.85752 0.0
C383 C 0.0188 0.78324 0.82005 0.0
loop_
_geom_bond_atom_site_label_1
_geom_bond_atom_site_label_2
_geom_bond_distance
_geom_bond_site_symmetry_2
_ccdc_geom_bond_type
Co0 H3 2.400 . S
Co0 O4 2.009 . S
Co0 O12 2.115 . S
Co0 O13 2.315 . S
Co0 O24 2.053 . S
Co0 O27 2.094 . S
Co0 O30 2.122 . S
Co1 O4 2.126 . S
Co1 H5 2.388 1_556 S
Co1 O6 2.053 1_556 S
Co1 O9 2.047 . S
Co1 O15 2.113 . S
Co1 O26 2.063 . S
Co2 H3 2.388 1_554 S
Co2 O4 2.053 1_554 S
Co2 O6 2.126 . S
Co2 O11 2.063 . S
Co2 O25 2.047 . S
Co2 O31 2.113 . S
H3 Co0 2.400 . S
H3 Co2 2.388 1_556 S
H3 O4 0.760 . S
O4 Co0 2.009 . S
O4 Co1 2.126 . S
O4 Co2 2.053 1_556 S
O4 H3 0.760 . S
H5 Co1 2.388 1_554 S
H5 O6 0.760 . S
H5 Co7 2.400 . S
O6 Co1 2.053 1_554 S
O6 Co2 2.126 . S
O6 H5 0.760 . S
O6 Co7 2.009 . S
Co7 H5 2.400 . S
Co7 O6 2.009 . S
Co7 O8 2.053 . S
Co7 O10 2.094 . S
Co7 O14 2.122 . S
Co7 O28 2.115 . S
Co7 O29 2.315 . S
O8 Co7 2.053 . S
O8 C20 1.259 . S
O9 Co1 2.047 . S
O9 C20 1.257 1_556 S
O10 Co7 2.094 . S
O10 C21 1.253 . S
O11 Co2 2.063 . S
O11 C21 1.268 . S
O12 Co0 2.115 . S
O12 C22 1.281 . S
O13 Co0 2.315 . S
O13 C22 1.252 . S
O14 Co7 2.122 . S
O14 C23 1.272 . S
O15 Co1 2.113 . S
O15 C23 1.245 1_556 S
C16 O24 1.259 1_655 S
C16 O25 1.257 1_656 S
C17 O26 1.268 . S
C17 O27 1.253 . S
C18 O28 1.281 . S
C18 O29 1.252 . S
C19 O30 1.272 . S
C19 O31 1.245 1_556 S
C20 O8 1.259 . S
C20 O9 1.257 1_554 S
C21 O10 1.253 . S
C21 O11 1.268 . S
C22 O12 1.281 . S
C22 O13 1.252 . S
C23 O14 1.272 . S
C23 O15 1.245 1_554 S
O24 Co0 2.053 . S
O24 C16 1.259 1_455 S
O25 Co2 2.047 . S
O25 C16 1.257 1_454 S
O26 Co1 2.063 . S
O26 C17 1.268 . S
O27 Co0 2.094 . S
O27 C17 1.253 . S
O28 Co7 2.115 . S
O28 C18 1.281 . S
O29 Co7 2.315 . S
O29 C18 1.252 . S
O30 Co0 2.122 . S
O30 C19 1.272 . S
O31 Co2 2.113 . S
O31 C19 1.245 1_554 S
Co32 H35 2.400 . S
Co32 O36 2.009 . S
Co32 O44 2.115 . S
Co32 O45 2.315 . S
Co32 O56 2.053 . S
Co32 O59 2.094 . S
Co32 O62 2.122 . S
Co33 O36 2.126 . S
Co33 H37 2.388 1_556 S
Co33 O38 2.053 1_556 S
Co33 O41 2.047 . S
Co33 O47 2.113 . S
Co33 O58 2.063 . S
Co34 H35 2.388 1_554 S
Co34 O36 2.053 1_554 S
Co34 O38 2.126 . S
Co34 O43 2.063 . S
Co34 O57 2.047 . S
Co34 O63 2.113 . S
H35 Co32 2.400 . S
H35 Co34 2.388 1_556 S
H35 O36 0.760 . S
O36 Co32 2.009 . S
O36 Co33 2.126 . S
O36 Co34 2.053 1_556 S
O36 H35 0.760 . S
H37 Co33 2.388 1_554 S
H37 O38 0.760 . S
H37 Co39 2.400 . S
O38 Co33 2.053 1_554 S
O38 Co34 2.126 . S
O38 H37 0.760 . S
O38 Co39 2.009 . S
Co39 H37 2.400 . S
Co39 O38 2.009 . S
Co39 O40 2.053 . S
Co39 O42 2.094 . S
Co39 O46 2.122 . S
Co39 O60 2.115 . S
Co39 O61 2.315 . S
O40 Co39 2.053 . S
O40 C52 1.259 1_655 S
O41 Co33 2.047 . S
O41 C52 1.257 1_656 S
O42 Co39 2.094 . S
O42 C53 1.253 . S
O43 Co34 2.063 . S
O43 C53 1.268 . S
O44 Co32 2.115 . S
O44 C54 1.281 . S
O45 Co32 2.315 . S
O45 C54 1.252 . S
O46 Co39 2.122 . S
O46 C55 1.272 . S
O47 Co33 2.113 . S
O47 C55 1.245 1_556 S
C48 O56 1.259 . S
C48 O57 1.257 1_556 S
C49 O58 1.268 . S
C49 O59 1.253 . S
C50 O60 1.281 . S
C50 O61 1.252 . S
C51 O62 1.272 . S
C51 O63 1.245 1_556 S
C52 O40 1.259 1_455 S
C52 O41 1.257 1_454 S
C53 O42 1.253 . S
C53 O43 1.268 . S
C54 O44 1.281 . S
C54 O45 1.252 . S
C55 O46 1.272 . S
C55 O47 1.245 1_554 S
O56 Co32 2.053 . S
O56 C48 1.259 . S
O57 Co34 2.047 . S
O57 C48 1.257 1_554 S
O58 Co33 2.063 . S
O58 C49 1.268 . S
O59 Co32 2.094 . S
O59 C49 1.253 . S
O60 Co39 2.115 . S
O60 C50 1.281 . S
O61 Co39 2.315 . S
O61 C50 1.252 . S
O62 Co32 2.122 . S
O62 C51 1.272 . S
O63 Co34 2.113 . S
O63 C51 1.245 1_554 S
Co64 H67 2.400 . S
Co64 O68 2.009 . S
Co64 O76 2.115 . S
Co64 O77 2.315 . S
Co64 O88 2.053 . S
Co64 O91 2.094 . S
Co64 O94 2.122 . S
Co65 O68 2.126 . S
Co65 H69 2.388 . S
Co65 O70 2.053 . S
Co65 O73 2.047 . S
Co65 O79 2.113 . S
Co65 O90 2.063 . S
Co66 H67 2.388 . S
Co66 O68 2.053 . S
Co66 O70 2.126 . S
Co66 O75 2.063 . S
Co66 O89 2.047 . S
Co66 O95 2.113 . S
H67 Co64 2.400 . S
H67 Co66 2.388 . S
H67 O68 0.760 . S
O68 Co64 2.009 . S
O68 Co65 2.126 . S
O68 Co66 2.053 . S
O68 H67 0.760 . S
H69 Co65 2.388 . S
H69 O70 0.760 . S
H69 Co71 2.400 . S
O70 Co65 2.053 . S
O70 Co66 2.126 . S
O70 H69 0.760 . S
O70 Co71 2.009 . S
Co71 H69 2.400 . S
Co71 O70 2.009 . S
Co71 O72 2.053 . S
Co71 O74 2.094 . S
Co71 O78 2.122 . S
Co71 O92 2.115 . S
Co71 O93 2.315 . S
O72 Co71 2.053 . S
O72 C84 1.259 . S
O73 Co65 2.047 . S
O73 C84 1.257 . S
O74 Co71 2.094 . S
O74 C85 1.253 . S
O75 Co66 2.063 . S
O75 C85 1.268 . S
O76 Co64 2.115 . S
O76 C86 1.281 . S
O77 Co64 2.315 . S
O77 C86 1.252 . S
O78 Co71 2.122 . S
O78 C87 1.272 . S
O79 Co65 2.113 . S
O79 C87 1.245 . S
C80 O88 1.259 1_655 S
C80 O89 1.257 1_655 S
C81 O90 1.268 . S
C81 O91 1.253 . S
C82 O92 1.281 . S
C82 O93 1.252 . S
C83 O94 1.272 . S
C83 O95 1.245 . S
C84 O72 1.259 . S
C84 O73 1.257 . S
C85 O74 1.253 . S
C85 O75 1.268 . S
C86 O76 1.281 . S
C86 O77 1.252 . S
C87 O78 1.272 . S
C87 O79 1.245 . S
O88 Co64 2.053 . S
O88 C80 1.259 1_455 S
O89 Co66 2.047 . S
O89 C80 1.257 1_455 S
O90 Co65 2.063 . S
O90 C81 1.268 . S
O91 Co64 2.094 . S
O91 C81 1.253 . S
O92 Co71 2.115 . S
O92 C82 1.281 . S
O93 Co71 2.315 . S
O93 C82 1.252 . S
O94 Co64 2.122 . S
O94 C83 1.272 . S
O95 Co66 2.113 . S
O95 C83 1.245 . S
Co96 H99 2.400 . S
Co96 O100 2.009 . S
Co96 O108 2.115 . S
Co96 O109 2.315 . S
Co96 O120 2.053 . S
Co96 O123 2.094 . S
Co96 O126 2.122 . S
Co97 O100 2.126 . S
Co97 H101 2.388 . S
Co97 O102 2.053 . S
Co97 O105 2.047 . S
Co97 O111 2.113 . S
Co97 O122 2.063 . S
Co98 H99 2.388 . S
Co98 O100 2.053 . S
Co98 O102 2.126 . S
Co98 O107 2.063 . S
Co98 O121 2.047 . S
Co98 O127 2.113 . S
H99 Co96 2.400 . S
H99 Co98 2.388 . S
H99 O100 0.760 . S
O100 Co96 2.009 . S
O100 Co97 2.126 . S
O100 Co98 2.053 . S
O100 H99 0.760 . S
H101 Co97 2.388 . S
H101 O102 0.760 . S
H101 Co103 2.400 . S
O102 Co97 2.053 . S
O102 Co98 2.126 . S
O102 H101 0.760 . S
O102 Co103 2.009 . S
Co103 H101 2.400 . S
Co103 O102 2.009 . S
Co103 O104 2.053 . S
Co103 O106 2.094 . S
Co103 O110 2.122 . S
Co103 O124 2.115 . S
Co103 O125 2.315 . S
O104 Co103 2.053 . S
O104 C116 1.259 1_655 S
O105 Co97 2.047 . S
O105 C116 1.257 1_655 S
O106 Co103 2.094 . S
O106 C117 1.253 . S
O107 Co98 2.063 . S
O107 C117 1.268 . S
O108 Co96 2.115 . S
O108 C118 1.281 . S
O109 Co96 2.315 . S
O109 C118 1.252 . S
O110 Co103 2.122 . S
O110 C119 1.272 . S
O111 Co97 2.113 . S
O111 C119 1.245 . S
C112 O120 1.259 . S
C112 O121 1.257 . S
C113 O122 1.268 . S
C113 O123 1.253 . S
C114 O124 1.281 . S
C114 O125 1.252 . S
C115 O126 1.272 . S
C115 O127 1.245 . S
C116 O104 1.259 1_455 S
C116 O105 1.257 1_455 S
C117 O106 1.253 . S
C117 O107 1.268 . S
C118 O108 1.281 . S
C118 O109 1.252 . S
C119 O110 1.272 . S
C119 O111 1.245 . S
O120 Co96 2.053 . S
O120 C112 1.259 . S
O121 Co98 2.047 . S
O121 C112 1.257 . S
O122 Co97 2.063 . S
O122 C113 1.268 . S
O123 Co96 2.094 . S
O123 C113 1.253 . S
O124 Co103 2.115 . S
O124 C114 1.281 . S
O125 Co103 2.315 . S
O125 C114 1.252 . S
O126 Co96 2.122 . S
O126 C115 1.272 . S
O127 Co98 2.113 . S
O127 C115 1.245 . S
H128 C134 0.930 . S
H129 C137 0.930 . S
H130 C138 0.930 . S
H131 C139 0.930 . S
H132 C142 0.930 . S
H133 C143 0.930 . S
C134 H128 0.930 . S
C134 C135 1.355 . S
C134 C136 1.415 . S
C135 C134 1.355 . S
C135 C137 1.419 1_554 S
C136 C134 1.415 . S
C136 C141 1.425 1_554 S
C136 C143 1.409 . S
C137 H129 0.930 . S
C137 C135 1.419 1_556 S
C137 C138 1.362 . S
C138 H130 0.930 . S
C138 C137 1.362 . S
C138 C141 1.409 . S
C139 H131 0.930 . S
C139 C140 1.355 . S
C139 C141 1.415 . S
C140 C139 1.355 . S
C140 C142 1.419 1_556 S
C141 C136 1.425 1_556 S
C141 C138 1.409 . S
C141 C139 1.415 . S
C142 H132 0.930 . S
C142 C140 1.419 1_554 S
C142 C143 1.362 . S
C143 H133 0.930 . S
C143 C136 1.409 . S
C143 C142 1.362 . S
H144 C150 0.930 . S
H145 C153 0.930 . S
H146 C154 0.930 . S
H147 C155 0.930 . S
H148 C158 0.930 . S
H149 C159 0.930 . S
C150 H144 0.930 . S
C150 C151 1.355 . S
C150 C152 1.415 . S
C151 C150 1.355 . S
C151 C153 1.419 . S
C152 C150 1.415 . S
C152 C157 1.425 1_554 S
C152 C159 1.409 . S
C153 H145 0.930 . S
C153 C151 1.419 . S
C153 C154 1.362 1_554 S
C154 H146 0.930 . S
C154 C153 1.362 1_556 S
C154 C157 1.409 . S
C155 H147 0.930 . S
C155 C156 1.355 . S
C155 C157 1.415 . S
C156 C155 1.355 . S
C156 C158 1.419 . S
C157 C152 1.425 1_556 S
C157 C154 1.409 . S
C157 C155 1.415 . S
C158 H148 0.930 . S
C158 C156 1.419 . S
C158 C159 1.362 1_556 S
C159 H149 0.930 . S
C159 C152 1.409 . S
C159 C158 1.362 1_554 S
H160 C166 0.930 . S
H161 C169 0.930 . S
H162 C170 0.930 . S
H163 C171 0.930 . S
H164 C174 0.930 . S
H165 C175 0.930 . S
C166 H160 0.930 . S
C166 C167 1.355 . S
C166 C168 1.415 . S
C167 C166 1.355 . S
C167 C169 1.419 . S
C168 C166 1.415 . S
C168 C173 1.425 . S
C168 C175 1.409 . S
C169 H161 0.930 . S
C169 C167 1.419 . S
C169 C170 1.362 . S
C170 H162 0.930 . S
C170 C169 1.362 . S
C170 C173 1.409 . S
C171 H163 0.930 . S
C171 C172 1.355 . S
C171 C173 1.415 . S
C172 C171 1.355 . S
C172 C174 1.419 . S
C173 C168 1.425 . S
C173 C170 1.409 . S
C173 C171 1.415 . S
C174 H164 0.930 . S
C174 C172 1.419 . S
C174 C175 1.362 . S
C175 H165 0.930 . S
C175 C168 1.409 . S
C175 C174 1.362 . S
H176 C182 0.930 . S
H177 C185 0.930 . S
H178 C186 0.930 . S
H179 C187 0.930 . S
H180 C190 0.930 . S
H181 C191 0.930 . S
C182 H176 0.930 . S
C182 C183 1.355 . S
C182 C184 1.415 . S
C183 C182 1.355 . S
C183 C185 1.419 . S
C184 C182 1.415 . S
C184 C189 1.425 . S
C184 C191 1.409 . S
C185 H177 0.930 . S
C185 C183 1.419 . S
C185 C186 1.362 . S
C186 H178 0.930 . S
C186 C185 1.362 . S
C186 C189 1.409 . S
C187 H179 0.930 . S
C187 C188 1.355 . S
C187 C189 1.415 . S
C188 C187 1.355 . S
C188 C190 1.419 . S
C189 C184 1.425 . S
C189 C186 1.409 . S
C189 C187 1.415 . S
C190 H180 0.930 . S
C190 C188 1.419 . S
C190 C191 1.362 . S
C191 H181 0.930 . S
C191 C184 1.409 . S
C191 C190 1.362 . S
H192 C198 0.930 . S
H193 C201 0.930 . S
H194 C202 0.930 . S
H195 C203 0.930 . S
H196 C206 0.930 . S
H197 C207 0.930 . S
C198 H192 0.930 . S
C198 C199 1.355 1_556 S
C198 C200 1.415 . S
C199 C198 1.355 1_554 S
C199 C201 1.419 . S
C200 C198 1.415 . S
C200 C205 1.425 1_556 S
C200 C207 1.409 . S
C201 H193 0.930 . S
C201 C199 1.419 . S
C201 C202 1.362 . S
C202 H194 0.930 . S
C202 C201 1.362 . S
C202 C205 1.409 . S
C203 H195 0.930 . S
C203 C204 1.355 1_554 S
C203 C205 1.415 . S
C204 C203 1.355 1_556 S
C204 C206 1.419 . S
C205 C200 1.425 1_554 S
C205 C202 1.409 . S
C205 C203 1.415 . S
C206 H196 0.930 . S
C206 C204 1.419 . S
C206 C207 1.362 . S
C207 H197 0.930 . S
C207 C200 1.409 . S
C207 C206 1.362 . S
H208 C214 0.930 . S
H209 C217 0.930 . S
H210 C218 0.930 . S
H211 C219 0.930 . S
H212 C222 0.930 . S
H213 C223 0.930 . S
C214 H208 0.930 . S
C214 C215 1.355 . S
C214 C216 1.415 . S
C215 C214 1.355 . S
C215 C217 1.419 . S
C216 C214 1.415 . S
C216 C221 1.425 . S
C216 C223 1.409 . S
C217 H209 0.930 . S
C217 C215 1.419 . S
C217 C218 1.362 . S
C218 H210 0.930 . S
C218 C217 1.362 . S
C218 C221 1.409 . S
C219 H211 0.930 . S
C219 C220 1.355 . S
C219 C221 1.415 . S
C220 C219 1.355 . S
C220 C222 1.419 . S
C221 C216 1.425 . S
C221 C218 1.409 . S
C221 C219 1.415 . S
C222 H212 0.930 . S
C222 C220 1.419 . S
C222 C223 1.362 . S
C223 H213 0.930 . S
C223 C216 1.409 . S
C223 C222 1.362 . S
H224 C230 0.930 1_655 S
H225 C233 0.930 . S
H226 C234 0.930 . S
H227 C235 0.930 1_455 S
H228 C238 0.930 . S
H229 C239 0.930 . S
C230 H224 0.930 1_455 S
C230 C231 1.355 1_556 S
C230 C232 1.415 1_455 S
C231 C230 1.355 1_554 S
C231 C233 1.419 . S
C232 C230 1.415 1_655 S
C232 C237 1.425 1_646 S
C232 C239 1.409 . S
C233 H225 0.930 . S
C233 C231 1.419 . S
C233 C234 1.362 1_545 S
C234 H226 0.930 . S
C234 C233 1.362 1_565 S
C234 C237 1.409 . S
C235 H227 0.930 1_655 S
C235 C236 1.355 1_554 S
C235 C237 1.415 1_655 S
C236 C235 1.355 1_556 S
C236 C238 1.419 . S
C237 C232 1.425 1_464 S
C237 C234 1.409 . S
C237 C235 1.415 1_455 S
C238 H228 0.930 . S
C238 C236 1.419 . S
C238 C239 1.362 1_565 S
C239 H229 0.930 . S
C239 C232 1.409 . S
C239 C238 1.362 1_545 S
H240 C246 0.930 1_455 S
H241 C249 0.930 . S
H242 C250 0.930 . S
H243 C251 0.930 1_655 S
H244 C254 0.930 . S
H245 C255 0.930 . S
C246 H240 0.930 1_655 S
C246 C247 1.355 . S
C246 C248 1.415 1_655 S
C247 C246 1.355 . S
C247 C249 1.419 . S
C248 C246 1.415 1_455 S
C248 C253 1.425 1_445 S
C248 C255 1.409 . S
C249 H241 0.930 . S
C249 C247 1.419 . S
C249 C250 1.362 1_545 S
C250 H242 0.930 . S
C250 C249 1.362 1_565 S
C250 C253 1.409 . S
C251 H243 0.930 1_455 S
C251 C252 1.355 . S
C251 C253 1.415 1_455 S
C252 C251 1.355 . S
C252 C254 1.419 . S
C253 C248 1.425 1_665 S
C253 C250 1.409 . S
C253 C251 1.415 1_655 S
C254 H244 0.930 . S
C254 C252 1.419 . S
C254 C255 1.362 1_565 S
C255 H245 0.930 . S
C255 C248 1.409 . S
C255 C254 1.362 1_545 S
H256 C262 0.930 . S
H257 C265 0.930 . S
H258 C266 0.930 . S
H259 C267 0.930 . S
H260 C270 0.930 . S
H261 C271 0.930 . S
C262 H256 0.930 . S
C262 C263 1.355 . S
C262 C264 1.415 . S
C263 C262 1.355 . S
C263 C265 1.419 . S
C264 C262 1.415 . S
C264 C269 1.425 . S
C264 C271 1.409 . S
C265 H257 0.930 . S
C265 C263 1.419 . S
C265 C266 1.362 . S
C266 H258 0.930 . S
C266 C265 1.362 . S
C266 C269 1.409 . S
C267 H259 0.930 . S
C267 C268 1.355 . S
C267 C269 1.415 . S
C268 C267 1.355 . S
C268 C270 1.419 . S
C269 C264 1.425 . S
C269 C266 1.409 . S
C269 C267 1.415 . S
C270 H260 0.930 . S
C270 C268 1.419 . S
C270 C271 1.362 . S
C271 H261 0.930 . S
C271 C264 1.409 . S
C271 C270 1.362 . S
H272 C278 0.930 . S
H273 C281 0.930 . S
H274 C282 0.930 . S
H275 C283 0.930 . S
H276 C286 0.930 . S
H277 C287 0.930 . S
C278 H272 0.930 . S
C278 C279 1.355 . S
C278 C280 1.415 . S
C279 C278 1.355 . S
C279 C281 1.419 . S
C280 C278 1.415 . S
C280 C285 1.425 . S
C280 C287 1.409 . S
C281 H273 0.930 . S
C281 C279 1.419 . S
C281 C282 1.362 . S
C282 H274 0.930 . S
C282 C281 1.362 . S
C282 C285 1.409 . S
C283 H275 0.930 . S
C283 C284 1.355 . S
C283 C285 1.415 . S
C284 C283 1.355 . S
C284 C286 1.419 . S
C285 C280 1.425 . S
C285 C282 1.409 . S
C285 C283 1.415 . S
C286 H276 0.930 . S
C286 C284 1.419 . S
C286 C287 1.362 . S
C287 H277 0.930 . S
C287 C280 1.409 . S
C287 C286 1.362 . S
H288 C294 0.930 . S
H289 C297 0.930 . S
H290 C298 0.930 . S
H291 C299 0.930 . S
H292 C302 0.930 . S
H293 C303 0.930 . S
C294 H288 0.930 . S
C294 C295 1.355 . S
C294 C296 1.415 . S
C295 C294 1.355 . S
C295 C297 1.419 . S
C296 C294 1.415 . S
C296 C301 1.425 . S
C296 C303 1.409 . S
C297 H289 0.930 . S
C297 C295 1.419 . S
C297 C298 1.362 . S
C298 H290 0.930 . S
C298 C297 1.362 . S
C298 C301 1.409 . S
C299 H291 0.930 . S
C299 C300 1.355 . S
C299 C301 1.415 . S
C300 C299 1.355 . S
C300 C302 1.419 . S
C301 C296 1.425 . S
C301 C298 1.409 . S
C301 C299 1.415 . S
C302 H292 0.930 . S
C302 C300 1.419 . S
C302 C303 1.362 . S
C303 H293 0.930 . S
C303 C296 1.409 . S
C303 C302 1.362 . S
H304 C310 0.930 . S
H305 C313 0.930 . S
H306 C314 0.930 . S
H307 C315 0.930 . S
H308 C318 0.930 . S
H309 C319 0.930 . S
C310 H304 0.930 . S
C310 C311 1.355 . S
C310 C312 1.415 . S
C311 C310 1.355 . S
C311 C313 1.419 . S
C312 C310 1.415 . S
C312 C317 1.425 . S
C312 C319 1.409 . S
C313 H305 0.930 . S
C313 C311 1.419 . S
C313 C314 1.362 . S
C314 H306 0.930 . S
C314 C313 1.362 . S
C314 C317 1.409 . S
C315 H307 0.930 . S
C315 C316 1.355 . S
C315 C317 1.415 . S
C316 C315 1.355 . S
C316 C318 1.419 . S
C317 C312 1.425 . S
C317 C314 1.409 . S
C317 C315 1.415 . S
C318 H308 0.930 . S
C318 C316 1.419 . S
C318 C319 1.362 . S
C319 H309 0.930 . S
C319 C312 1.409 . S
C319 C318 1.362 . S
H320 C326 0.930 . S
H321 C329 0.930 . S
H322 C330 0.930 . S
H323 C331 0.930 . S
H324 C334 0.930 . S
H325 C335 0.930 . S
C326 H320 0.930 . S
C326 C327 1.355 . S
C326 C328 1.415 . S
C327 C326 1.355 . S
C327 C329 1.419 . S
C328 C326 1.415 . S
C328 C333 1.425 . S
C328 C335 1.409 1_455 S
C329 H321 0.930 . S
C329 C327 1.419 . S
C329 C330 1.362 . S
C330 H322 0.930 . S
C330 C329 1.362 . S
C330 C333 1.409 . S
C331 H323 0.930 . S
C331 C332 1.355 1_455 S
C331 C333 1.415 . S
C332 C331 1.355 1_655 S
C332 C334 1.419 . S
C333 C328 1.425 . S
C333 C330 1.409 . S
C333 C331 1.415 . S
C334 H324 0.930 . S
C334 C332 1.419 . S
C334 C335 1.362 . S
C335 H325 0.930 . S
C335 C328 1.409 1_655 S
C335 C334 1.362 . S
H336 C342 0.930 . S
H337 C345 0.930 . S
H338 C346 0.930 . S
H339 C347 0.930 . S
H340 C350 0.930 . S
H341 C351 0.930 . S
C342 H336 0.930 . S
C342 C343 1.355 1_455 S
C342 C344 1.415 . S
C343 C342 1.355 1_655 S
C343 C345 1.419 . S
C344 C342 1.415 . S
C344 C349 1.425 . S
C344 C351 1.409 . S
C345 H337 0.930 . S
C345 C343 1.419 . S
C345 C346 1.362 . S
C346 H338 0.930 . S
C346 C345 1.362 . S
C346 C349 1.409 1_655 S
C347 H339 0.930 . S
C347 C348 1.355 . S
C347 C349 1.415 . S
C348 C347 1.355 . S
C348 C350 1.419 . S
C349 C344 1.425 . S
C349 C346 1.409 1_455 S
C349 C347 1.415 . S
C350 H340 0.930 . S
C350 C348 1.419 . S
C350 C351 1.362 . S
C351 H341 0.930 . S
C351 C344 1.409 . S
C351 C350 1.362 . S
H352 C358 0.930 . S
H353 C361 0.930 . S
H354 C362 0.930 . S
H355 C363 0.930 . S
H356 C366 0.930 . S
H357 C367 0.930 . S
C358 H352 0.930 . S
C358 C359 1.355 . S
C358 C360 1.415 . S
C359 C358 1.355 . S
C359 C361 1.419 1_455 S
C360 C358 1.415 . S
C360 C365 1.425 1_455 S
C360 C367 1.409 . S
C361 H353 0.930 . S
C361 C359 1.419 1_655 S
C361 C362 1.362 . S
C362 H354 0.930 . S
C362 C361 1.362 . S
C362 C365 1.409 . S
C363 H355 0.930 . S
C363 C364 1.355 . S
C363 C365 1.415 . S
C364 C363 1.355 . S
C364 C366 1.419 . S
C365 C360 1.425 1_655 S
C365 C362 1.409 . S
C365 C363 1.415 . S
C366 H356 0.930 . S
C366 C364 1.419 . S
C366 C367 1.362 1_655 S
C367 H357 0.930 . S
C367 C360 1.409 . S
C367 C366 1.362 1_455 S
H368 C374 0.930 . S
H369 C377 0.930 . S
H370 C378 0.930 . S
H371 C379 0.930 . S
H372 C382 0.930 . S
H373 C383 0.930 . S
C374 H368 0.930 . S
C374 C375 1.355 . S
C374 C376 1.415 . S
C375 C374 1.355 . S
C375 C377 1.419 1_455 S
C376 C374 1.415 . S
C376 C381 1.425 1_455 S
C376 C383 1.409 . S
C377 H369 0.930 . S
C377 C375 1.419 1_655 S
C377 C378 1.362 . S
C378 H370 0.930 . S
C378 C377 1.362 . S
C378 C381 1.409 . S
C379 H371 0.930 . S
C379 C380 1.355 . S
C379 C381 1.415 . S
C380 C379 1.355 . S
C380 C382 1.419 . S
C381 C376 1.425 1_655 S
C381 C378 1.409 . S
C381 C379 1.415 . S
C382 H372 0.930 . S
C382 C380 1.419 . S
C382 C383 1.362 1_655 S
C383 H373 0.930 . S
C383 C376 1.409 . S
C383 C382 1.362 1_455 S
C135 C20 0.974 . S
C140 C16 0.974 . S
C151 C52 0.978 . S
C156 C48 0.978 . S
C167 C84 0.973 . S
C172 C80 0.973 . S
C183 C116 0.974 . S
C188 C112 0.974 . S
C199 C51 1.456 1_554 S
C204 C23 1.456 1_556 S
C215 C115 1.460 . S
C220 C87 1.460 . S
C231 C19 1.484 1_554 S
C236 C55 1.484 1_556 S
C247 C119 1.475 . S
C252 C83 1.475 . S
C263 C117 1.684 . S
C268 C18 1.671 . S
C279 C53 1.682 . S
C284 C82 1.664 . S
C295 C81 1.674 . S
C300 C54 1.633 . S
C311 C17 1.682 . S
C316 C118 1.672 . S
C327 C85 1.685 . S
C332 C50 1.672 . S
C343 C114 1.667 . S
C348 C21 1.682 . S
C359 C22 1.634 . S
C364 C113 1.679 . S
C375 C86 1.648 . S
C380 C49 1.683 . S
