# Generated by pormake.
# Topology wje, (4)-cn, num edge types: 1
# Building blocks:
#     Node 0, Type 0, BuildingBlock: UXUYUI_clean_sbu_0, # of connection points: 4
#     Node 1, Type 0, BuildingBlock: UXUYUI_clean_sbu_0, # of connection points: 4
#     Node 2, Type 0, BuildingBlock: UXUYUI_clean_sbu_0, # of connection points: 4
#     Node 3, Type 0, BuildingBlock: UXUYUI_clean_sbu_0, # of connection points: 4
#     Node 4, Type 0, BuildingBlock: UXUYUI_clean_sbu_0, # of connection points: 4
#     Node 5, Type 0, BuildingBlock: UXUYUI_clean_sbu_0, # of connection points: 4
#     Node 6, Type 0, BuildingBlock: UXUYUI_clean_sbu_0, # of connection points: 4
#     Node 7, Type 0, BuildingBlock: UXUYUI_clean_sbu_0, # of connection points: 4
#     Node 8, Type 0, BuildingBlock: UXUYUI_clean_sbu_0, # of connection points: 4
#     Node 9, Type 0, BuildingBlock: UXUYUI_clean_sbu_0, # of connection points: 4
#     Node 10, Type 0, BuildingBlock: UXUYUI_clean_sbu_0, # of connection points: 4
#     Node 11, Type 0, BuildingBlock: UXUYUI_clean_sbu_0, # of connection points: 4
#     Edge 12, Type (0, 0), BuildingBlock: CIFDUS_clean_linker_0, # of connection points: 2
#     Edge 13, Type (0, 0), BuildingBlock: CIFDUS_clean_linker_0, # of connection points: 2
#     Edge 14, Type (0, 0), BuildingBlock: CIFDUS_clean_linker_0, # of connection points: 2
#     Edge 15, Type (0, 0), BuildingBlock: CIFDUS_clean_linker_0, # of connection points: 2
#     Edge 16, Type (0, 0), BuildingBlock: CIFDUS_clean_linker_0, # of connection points: 2
#     Edge 17, Type (0, 0), BuildingBlock: CIFDUS_clean_linker_0, # of connection points: 2
#     Edge 18, Type (0, 0), BuildingBlock: CIFDUS_clean_linker_0, # of connection points: 2
#     Edge 19, Type (0, 0), BuildingBlock: CIFDUS_clean_linker_0, # of connection points: 2
#     Edge 20, Type (0, 0), BuildingBlock: CIFDUS_clean_linker_0, # of connection points: 2
#     Edge 21, Type (0, 0), BuildingBlock: CIFDUS_clean_linker_0, # of connection points: 2
#     Edge 22, Type (0, 0), BuildingBlock: CIFDUS_clean_linker_0, # of connection points: 2
#     Edge 23, Type (0, 0), BuildingBlock: CIFDUS_clean_linker_0, # of connection points: 2
#     Edge 24, Type (0, 0), BuildingBlock: CIFDUS_clean_linker_0, # of connection points: 2
#     Edge 25, Type (0, 0), BuildingBlock: CIFDUS_clean_linker_0, # of connection points: 2
#     Edge 26, Type (0, 0), BuildingBlock: CIFDUS_clean_linker_0, # of connection points: 2
#     Edge 27, Type (0, 0), BuildingBlock: CIFDUS_clean_linker_0, # of connection points: 2
#     Edge 28, Type (0, 0), BuildingBlock: CIFDUS_clean_linker_0, # of connection points: 2
#     Edge 29, Type (0, 0), BuildingBlock: CIFDUS_clean_linker_0, # of connection points: 2
#     Edge 30, Type (0, 0), BuildingBlock: CIFDUS_clean_linker_0, # of connection points: 2
#     Edge 31, Type (0, 0), BuildingBlock: CIFDUS_clean_linker_0, # of connection points: 2
#     Edge 32, Type (0, 0), BuildingBlock: CIFDUS_clean_linker_0, # of connection points: 2
#     Edge 33, Type (0, 0), BuildingBlock: CIFDUS_clean_linker_0, # of connection points: 2
#     Edge 34, Type (0, 0), BuildingBlock: CIFDUS_clean_linker_0, # of connection points: 2
#     Edge 35, Type (0, 0), BuildingBlock: CIFDUS_clean_linker_0, # of connection points: 2
# Relax obj value: 0.245
# Max RMSD: 0.179
# Mean RMSD: 0.178
data_MOF--net-wje--node1-UXUYUI_clean_sbu_0--edge1-CIFDUS_clean_linker_0
_symmetry_space_group_name_H-M    P1
_symmetry_Int_Tables_number       1
_symmetry_cell_setting            triclinic
loop_
_symmetry_equiv_pos_as_xyz
'x, y, z'
_cell_length_a     56.974799
_cell_length_b     56.949302
_cell_length_c     44.644727
_cell_angle_alpha  89.948557
_cell_angle_beta   90.034341
_cell_angle_gamma 119.98368
loop_
_atom_site_label
_atom_site_type_symbol
_atom_site_fract_x
_atom_site_fract_y
_atom_site_fract_z
_atom_type_partial_charge
Li0 Li 0.35673 0.01323 0.26174 0.0
Li1 Li 0.33879 0.02195 0.30784 0.0
Li2 Li 0.30957 0.98683 0.27256 0.0
Li3 Li 0.32736 0.0335 0.25716 0.0
C4 C 0.35633 0.97937 0.30174 0.0
N5 N 0.3917 0.96028 0.31167 0.0
C6 C 0.37803 0.99292 0.32156 0.0
C7 C 0.35247 0.956 0.28715 0.0
C8 C 0.39571 0.98296 0.32625 0.0
C9 C 0.37062 0.94671 0.29242 0.0
C10 C 0.37287 0.07508 0.28678 0.0
C11 C 0.36434 0.10867 0.30908 0.0
N12 N 0.39036 0.12807 0.30322 0.0
C13 C 0.39949 0.09536 0.28089 0.0
C14 C 0.35511 0.08177 0.30094 0.0
C15 C 0.40796 0.12202 0.28943 0.0
C16 C 0.38719 0.99512 0.22719 0.0
N17 N 0.3884 0.01322 0.24785 0.0
C18 C 0.43517 0.02858 0.25712 0.0
C19 C 0.41185 0.03014 0.26233 0.0
C20 C 0.43445 0.00947 0.23666 0.0
C21 C 0.41012 0.99292 0.22119 0.0
H22 H 0.36819 0.98172 0.21622 0.0
H23 H 0.41207 0.04396 0.27908 0.0
C24 C 0.32832 1.0015 0.3632 0.0
N25 N 0.34236 0.02625 0.3501 0.0
C26 C 0.32742 0.99887 0.39413 0.0
C27 C 0.35561 0.04751 0.39814 0.0
C28 C 0.35623 0.04918 0.36676 0.0
C29 C 0.34081 0.02203 0.41218 0.0
H30 H 0.31768 0.9836 0.34946 0.0
H31 H 0.36765 0.06866 0.35594 0.0
C32 C 0.30718 0.98483 0.21435 0.0
N33 N 0.26808 0.94683 0.17689 0.0
C34 C 0.28966 0.991 0.19878 0.0
C35 C 0.30497 0.95943 0.21074 0.0
C36 C 0.26999 0.97149 0.17997 0.0
C37 C 0.28501 0.94045 0.19175 0.0
C38 C 0.2761 0.00231 0.29515 0.0
C39 C 0.25951 1.00171 0.27175 0.0
C40 C 0.26438 0.98893 0.32201 0.0
C41 C 0.23141 0.98759 0.27554 0.0
C42 C 0.23619 0.9749 0.32486 0.0
N43 N 0.22043 0.97453 0.30177 0.0
C44 C 0.2801 0.93819 0.30194 0.0
C45 C 0.25415 0.94139 0.26234 0.0
C46 C 0.25737 0.91566 0.31361 0.0
N47 N 0.27811 0.95112 0.27726 0.0
C48 C 0.23076 0.91853 0.27318 0.0
C49 C 0.23216 0.90606 0.29977 0.0
H50 H 0.29902 0.94627 0.31384 0.0
H51 H 0.25269 0.95227 0.24328 0.0
C52 C 0.3371 0.07058 0.21039 0.0
N53 N 0.32284 0.06028 0.23612 0.0
C54 C 0.33598 0.09146 0.19516 0.0
C55 C 0.30529 0.0906 0.23304 0.0
C56 C 0.30712 0.06983 0.24762 0.0
C57 C 0.31999 0.10186 0.20653 0.0
H58 H 0.34963 0.06275 0.2019 0.0
H59 H 0.29639 0.06168 0.26844 0.0
O60 O 0.33927 0.98926 0.29611 0.0
O61 O 0.36415 0.04905 0.2778 0.0
O62 O 0.32665 0.00372 0.2327 0.0
O63 O 0.30364 0.01556 0.29161 0.0
H64 H 0.38142 0.01117 0.33285 0.0
H65 H 0.33578 0.94533 0.27171 0.0
H66 H 0.41271 0.99334 0.34135 0.0
H67 H 0.368 0.92875 0.28113 0.0
H68 H 0.35081 0.11411 0.32007 0.0
H69 H 0.41342 0.09055 0.26972 0.0
H70 H 0.33444 0.06638 0.30572 0.0
H71 H 0.42852 0.13792 0.28502 0.0
H72 H 0.45321 0.0414 0.27004 0.0
H73 H 0.40867 0.97808 0.20504 0.0
H74 H 0.31643 0.97873 0.40374 0.0
H75 H 0.36626 0.06593 0.41118 0.0
H76 H 0.29121 0.01064 0.20122 0.0
H77 H 0.31835 0.95434 0.2227 0.0
H78 H 0.25623 0.97594 0.16783 0.0
H79 H 0.28295 0.92065 0.18887 0.0
H80 H 0.2682 0.0117 0.2507 0.0
H81 H 0.27686 0.98915 0.34035 0.0
H82 H 0.21833 0.98683 0.25755 0.0
H83 H 0.22684 0.96425 0.34542 0.0
H84 H 0.25934 0.90637 0.33393 0.0
H85 H 0.21157 0.91171 0.26196 0.0
H86 H 0.34745 0.09934 0.17466 0.0
H87 H 0.29303 0.09824 0.24285 0.0
Li88 Li 0.35284 0.35911 0.5952 0.0
Li89 Li 0.32441 0.33915 0.63849 0.0
Li90 Li 0.32785 0.31006 0.60342 0.0
Li91 Li 0.30151 0.33318 0.59063 0.0
C92 C 0.38091 0.35572 0.6419 0.0
N93 N 0.42887 0.39218 0.66975 0.0
C94 C 0.38297 0.37809 0.65712 0.0
C95 C 0.40336 0.35196 0.64079 0.0
C96 C 0.40733 0.39626 0.67109 0.0
C97 C 0.42739 0.3706 0.65501 0.0
C98 C 0.31767 0.3834 0.62811 0.0
C99 C 0.2824 0.39095 0.64729 0.0
N100 N 0.30153 0.41451 0.66 0.0
C101 C 0.337 0.40791 0.64099 0.0
C102 C 0.29016 0.37503 0.63096 0.0
C103 C 0.32843 0.42326 0.65717 0.0
C104 C 0.38873 0.41437 0.58097 0.0
N105 N 0.38592 0.38922 0.58162 0.0
C106 C 0.4334 0.40778 0.57362 0.0
C107 C 0.40741 0.38549 0.57697 0.0
C108 C 0.43719 0.4341 0.57461 0.0
C109 C 0.41436 0.43726 0.57729 0.0
H110 H 0.37129 0.41674 0.58477 0.0
H111 H 0.40458 0.36526 0.57761 0.0
C112 C 0.33107 0.3232 0.69306 0.0
N113 N 0.32253 0.33969 0.68138 0.0
C114 C 0.33094 0.31936 0.72377 0.0
C115 C 0.3134 0.34985 0.73055 0.0
C116 C 0.31376 0.35304 0.69935 0.0
C117 C 0.32189 0.3326 0.743 0.0
H118 H 0.33773 0.31263 0.67832 0.0
H119 H 0.3068 0.36585 0.68967 0.0
C120 C 0.32865 0.31221 0.54514 0.0
N121 N 0.32624 0.27427 0.5049 0.0
C122 C 0.30458 0.29547 0.52979 0.0
C123 C 0.35153 0.30977 0.53998 0.0
C124 C 0.30378 0.27641 0.50951 0.0
C125 C 0.34988 0.29041 0.51958 0.0
C126 C 0.27883 0.29233 0.64569 0.0
C127 C 0.28109 0.27142 0.6593 0.0
C128 C 0.26143 0.30042 0.65801 0.0
C129 C 0.26621 0.25923 0.68522 0.0
C130 C 0.2469 0.28774 0.68397 0.0
N131 N 0.2496 0.2676 0.69695 0.0
C132 C 0.34666 0.27631 0.62258 0.0
C133 C 0.30881 0.25382 0.59028 0.0
C134 C 0.34482 0.2518 0.63056 0.0
N135 N 0.32854 0.27689 0.60324 0.0
C136 C 0.30631 0.22872 0.59752 0.0
C137 C 0.32399 0.22742 0.61867 0.0
H138 H 0.36131 0.29463 0.63366 0.0
H139 H 0.294 0.25465 0.57585 0.0
C140 C 0.27795 0.34686 0.54342 0.0
N141 N 0.27191 0.33103 0.56823 0.0
C142 C 0.25724 0.34614 0.52592 0.0
C143 C 0.22445 0.31305 0.56003 0.0
C144 C 0.2458 0.31414 0.57666 0.0
C145 C 0.23006 0.32914 0.53423 0.0
H146 H 0.29891 0.36003 0.53721 0.0
H147 H 0.24153 0.30153 0.59629 0.0
O148 O 0.35749 0.33815 0.62713 0.0
O149 O 0.32565 0.36815 0.61197 0.0
O150 O 0.32975 0.33073 0.56536 0.0
O151 O 0.29383 0.30505 0.62072 0.0
H152 H 0.36599 0.38146 0.65808 0.0
H153 H 0.40248 0.33516 0.62856 0.0
H154 H 0.40912 0.41365 0.68293 0.0
H155 H 0.44493 0.36799 0.65417 0.0
H156 H 0.26116 0.3846 0.64979 0.0
H157 H 0.35842 0.41514 0.63848 0.0
H158 H 0.27494 0.35652 0.62062 0.0
H159 H 0.34317 0.44217 0.6674 0.0
H160 H 0.45049 0.40452 0.57136 0.0
H161 H 0.41649 0.45724 0.57835 0.0
H162 H 0.33808 0.30625 0.73236 0.0
H163 H 0.30617 0.36034 0.74469 0.0
H164 H 0.28668 0.29707 0.53363 0.0
H165 H 0.37025 0.3225 0.55184 0.0
H166 H 0.28528 0.26325 0.49752 0.0
H167 H 0.36737 0.28818 0.51546 0.0
H168 H 0.29443 0.26485 0.65025 0.0
H169 H 0.25937 0.31652 0.64791 0.0
H170 H 0.26796 0.24319 0.69609 0.0
H171 H 0.23355 0.29397 0.69385 0.0
H172 H 0.35852 0.25194 0.64747 0.0
H173 H 0.29003 0.21048 0.58762 0.0
H174 H 0.26245 0.35902 0.50632 0.0
H175 H 0.20376 0.29945 0.56701 0.0
Li176 Li 0.99966 0.3472 0.93161 0.0
Li177 Li 0.98266 0.31468 0.97486 0.0
Li178 Li 0.01711 0.31635 0.94271 0.0
Li179 Li 0.9717 0.29648 0.92505 0.0
C180 C 0.04381 0.35764 0.98021 0.0
N181 N 0.09489 0.37918 0.00502 0.0
C182 C 0.04752 0.34699 0.00686 0.0
C183 C 0.06604 0.37931 0.96624 0.0
C184 C 0.07352 0.35813 0.01901 0.0
C185 C 0.09171 0.38993 0.97916 0.0
C186 C 0.94395 0.32426 0.96329 0.0
C187 C 0.90563 0.30473 0.99683 0.0
N188 N 0.91019 0.33 0.00335 0.0
C189 C 0.9482 0.35003 0.97024 0.0
C190 C 0.92244 0.30141 0.97659 0.0
C191 C 0.93092 0.3525 0.99057 0.0
C192 C 0.9897 0.3813 0.89486 0.0
N193 N 0.00464 0.38118 0.91854 0.0
C194 C 0.01952 0.42776 0.92873 0.0
C195 C 0.01966 0.40382 0.93524 0.0
C196 C 0.00339 0.42821 0.90515 0.0
C197 C 0.98875 0.40472 0.88774 0.0
H198 H 0.97754 0.36282 0.88237 0.0
H199 H 0.03062 0.40293 0.95456 0.0
C200 C 0.96724 0.28951 0.03154 0.0
N201 N 0.97437 0.31271 0.01614 0.0
C202 C 0.96739 0.28963 0.06279 0.0
C203 C 0.98156 0.33736 0.06167 0.0
C204 C 0.98102 0.33628 0.03044 0.0
C205 C 0.97537 0.31398 0.07822 0.0
H206 H 0.96306 0.27132 0.01963 0.0
H207 H 0.98742 0.3546 0.01757 0.0
C208 C 0.02738 0.32976 0.88567 0.0
N209 N 0.07218 0.34277 0.85061 0.0
C210 C 0.03232 0.30939 0.87567 0.0
C211 C 0.04512 0.35674 0.87776 0.0
C212 C 0.05513 0.31639 0.858 0.0
C213 C 0.06768 0.3629 0.86001 0.0
C214 C 0.9715 0.25679 0.95349 0.0
C215 C 0.98395 0.2448 0.93762 0.0
C216 C 0.94476 0.2408 0.96323 0.0
C217 C 0.96937 0.217 0.93173 0.0
C218 C 0.93084 0.21309 0.9568 0.0
N219 N 0.94333 0.20186 0.94132 0.0
C220 C 0.04609 0.29452 0.96829 0.0
C221 C 0.07425 0.33106 0.93628 0.0
C222 C 0.0681 0.29225 0.97789 0.0
N223 N 0.04933 0.31356 0.94774 0.0
C224 C 0.09705 0.32973 0.94562 0.0
C225 C 0.09405 0.31014 0.96681 0.0
H226 H 0.02651 0.28173 0.97836 0.0
H227 H 0.07672 0.34684 0.92099 0.0
C228 C 0.91846 0.26509 0.90157 0.0
N229 N 0.94401 0.26902 0.90031 0.0
C230 C 0.89763 0.24451 0.88478 0.0
C231 C 0.92978 0.23244 0.86552 0.0
C232 C 0.95006 0.25356 0.88227 0.0
C233 C 0.90301 0.22754 0.86665 0.0
H234 H 0.91422 0.27795 0.91563 0.0
H235 H 0.97058 0.25727 0.8813 0.0
O236 O 0.01864 0.3465 0.96751 0.0
O237 O 0.961 0.32143 0.94396 0.0
O238 O 0.00509 0.32334 0.90279 0.0
O239 O 0.98531 0.28408 0.95913 0.0
H240 H 0.03058 0.33003 0.0178 0.0
H241 H 0.06358 0.38751 0.94536 0.0
H242 H 0.07673 0.34996 0.0395 0.0
H243 H 0.10913 0.40658 0.96849 0.0
H244 H 0.88899 0.28722 0.00739 0.0
H245 H 0.96475 0.36796 0.96027 0.0
H246 H 0.91888 0.28133 0.97153 0.0
H247 H 0.93404 0.37233 0.99623 0.0
H248 H 0.03071 0.44526 0.94303 0.0
H249 H 0.97615 0.40426 0.86932 0.0
H250 H 0.96287 0.27126 0.07469 0.0
H251 H 0.98762 0.35648 0.07272 0.0
H252 H 0.01885 0.28844 0.88171 0.0
H253 H 0.04157 0.37274 0.8853 0.0
H254 H 0.0593 0.30086 0.85022 0.0
H255 H 0.08163 0.38369 0.85376 0.0
H256 H 0.00449 0.25688 0.92949 0.0
H257 H 0.93475 0.24971 0.9754 0.0
H258 H 0.97871 0.2075 0.91934 0.0
H259 H 0.91008 0.20052 0.96407 0.0
H260 H 0.06498 0.27731 0.99481 0.0
H261 H 0.11681 0.34404 0.93672 0.0
H262 H 0.87757 0.24212 0.88591 0.0
H263 H 0.93505 0.21983 0.85228 0.0
Li264 Li 0.6471 0.99743 0.26797 0.0
Li265 Li 0.66382 0.98221 0.31171 0.0
Li266 Li 0.69582 0.01445 0.27658 0.0
Li267 Li 0.66854 0.96779 0.26271 0.0
C268 C 0.68326 0.04417 0.31224 0.0
N269 N 0.71371 0.09703 0.33202 0.0
C270 C 0.69637 0.04969 0.33997 0.0
C271 C 0.68552 0.06552 0.29463 0.0
C272 C 0.7117 0.07655 0.34955 0.0
C273 C 0.70103 0.09211 0.30503 0.0
C274 C 0.6148 0.9435 0.30356 0.0
C275 C 0.59749 0.9073 0.33987 0.0
N276 N 0.57703 0.91223 0.34641 0.0
C277 C 0.59356 0.94816 0.31054 0.0
C278 C 0.61676 0.92286 0.31823 0.0
C279 C 0.57468 0.93214 0.3323 0.0
C280 C 0.60271 0.99162 0.23242 0.0
N281 N 0.61919 0.00465 0.25606 0.0
C282 C 0.59388 0.02662 0.26747 0.0
C283 C 0.61509 0.02178 0.27358 0.0
C284 C 0.57632 0.01331 0.24342 0.0
C285 C 0.58091 0.99559 0.22572 0.0
H286 H 0.60619 0.97776 0.21915 0.0
H287 H 0.62788 0.03118 0.29283 0.0
C288 C 0.67661 0.97096 0.36878 0.0
N289 N 0.65927 0.97645 0.35354 0.0
C290 C 0.67886 0.974 0.39984 0.0
C291 C 0.6444 0.98695 0.39898 0.0
C292 C 0.64284 0.9837 0.36792 0.0
C293 C 0.66331 0.98302 0.41518 0.0
H294 H 0.68996 0.96597 0.35668 0.0
H295 H 0.62997 0.98888 0.35506 0.0
C296 C 0.68971 0.01964 0.21768 0.0
N297 N 0.71962 0.05877 0.17544 0.0
C298 C 0.71362 0.0219 0.20636 0.0
C299 C 0.68093 0.03717 0.20747 0.0
C300 C 0.72849 0.04186 0.18504 0.0
C301 C 0.69636 0.05684 0.1861 0.0
C302 C 0.71056 0.97047 0.29016 0.0
C303 C 0.735 0.98355 0.27437 0.0
C304 C 0.70084 0.94407 0.30063 0.0
C305 C 0.74924 0.96988 0.26914 0.0
C306 C 0.71564 0.93106 0.29487 0.0
N307 N 0.73933 0.94412 0.27937 0.0
C308 C 0.74519 0.04703 0.30347 0.0
C309 C 0.73897 0.06969 0.26242 0.0
C310 C 0.7679 0.07092 0.3129 0.0
N311 N 0.73086 0.04687 0.27902 0.0
C312 C 0.76188 0.09403 0.27082 0.0
C313 C 0.77625 0.0951 0.29695 0.0
H314 H 0.73786 0.02893 0.31697 0.0
H315 H 0.72684 0.06962 0.24385 0.0
C316 C 0.64365 0.9134 0.24214 0.0
N317 N 0.66653 0.93806 0.24012 0.0
C318 C 0.64163 0.8911 0.22671 0.0
C319 C 0.68678 0.91989 0.2074 0.0
C320 C 0.68775 0.94172 0.2228 0.0
C321 C 0.6635 0.89416 0.20926 0.0
H322 H 0.62694 0.91099 0.25581 0.0
H323 H 0.70556 0.96155 0.22111 0.0
O324 O 0.66882 0.01806 0.30204 0.0
O325 O 0.63379 0.9593 0.28276 0.0
O326 O 0.67465 1.00001 0.23821 0.0
O327 O 0.69615 0.98339 0.29523 0.0
H328 H 0.69511 0.03346 0.35375 0.0
H329 H 0.67581 0.06163 0.27293 0.0
H330 H 0.72213 0.08114 0.37085 0.0
H331 H 0.70313 0.10884 0.29154 0.0
H332 H 0.59883 0.89134 0.35151 0.0
H333 H 0.59176 0.96408 0.29943 0.0
H334 H 0.63313 0.91906 0.31313 0.0
H335 H 0.55819 0.93557 0.33802 0.0
H336 H 0.59071 0.03999 0.28204 0.0
H337 H 0.56778 0.98492 0.20701 0.0
H338 H 0.6935 0.9705 0.41155 0.0
H339 H 0.6323 0.99428 0.40986 0.0
H340 H 0.72075 0.00858 0.21414 0.0
H341 H 0.66244 0.03565 0.21597 0.0
H342 H 0.7471 0.04394 0.17617 0.0
H343 H 0.68986 0.0706 0.17802 0.0
H344 H 0.74273 0.00391 0.26589 0.0
H345 H 0.68194 0.93365 0.31285 0.0
H346 H 0.76811 0.97969 0.25682 0.0
H347 H 0.70828 0.91056 0.30268 0.0
H348 H 0.77776 0.07064 0.33352 0.0
H349 H 0.76764 0.11202 0.25753 0.0
H350 H 0.62335 0.87156 0.2288 0.0
H351 H 0.70394 0.92318 0.19387 0.0
Li352 Li 0.6901 0.66861 0.64383 0.0
Li353 Li 0.65931 0.65108 0.59892 0.0
Li354 Li 0.71085 0.67574 0.59463 0.0
Li355 Li 0.68794 0.69975 0.60897 0.0
C356 C 0.68628 0.62121 0.6326 0.0
N357 N 0.68704 0.58313 0.67034 0.0
C358 C 0.6633 0.59556 0.63545 0.0
C359 C 0.70972 0.62742 0.64871 0.0
C360 C 0.66407 0.57659 0.6547 0.0
C361 C 0.70968 0.60792 0.66774 0.0
C362 C 0.64289 0.68262 0.64143 0.0
C363 C 0.60942 0.69526 0.62951 0.0
N364 N 0.61366 0.70758 0.65665 0.0
C365 C 0.64675 0.69515 0.66932 0.0
C366 C 0.62395 0.68246 0.62142 0.0
C367 C 0.63184 0.70776 0.67656 0.0
C368 C 0.70853 0.68702 0.70119 0.0
N369 N 0.69144 0.66423 0.68572 0.0
C370 C 0.67123 0.64057 0.73119 0.0
C371 C 0.67301 0.64119 0.69995 0.0
C372 C 0.68793 0.66416 0.74755 0.0
C373 C 0.70701 0.68748 0.73233 0.0
H374 H 0.72239 0.70528 0.68922 0.0
H375 H 0.65886 0.62375 0.68708 0.0
C376 C 0.61877 0.61284 0.55826 0.0
N377 N 0.62523 0.62164 0.58701 0.0
C378 C 0.59361 0.59008 0.55172 0.0
C379 C 0.58269 0.58582 0.6045 0.0
C380 C 0.60773 0.60882 0.60992 0.0
C381 C 0.57543 0.5761 0.57513 0.0
H382 H 0.63323 0.62325 0.54051 0.0
H383 H 0.61354 0.61621 0.63257 0.0
C384 C 0.74719 0.71951 0.62428 0.0
N385 N 0.80203 0.75464 0.61683 0.0
C386 C 0.75624 0.74321 0.60746 0.0
C387 C 0.76599 0.7138 0.63755 0.0
C388 C 0.78407 0.76069 0.60392 0.0
C389 C 0.79364 0.73177 0.63343 0.0
C390 C 0.6793 0.69539 0.54934 0.0
C391 C 0.70115 0.71909 0.53787 0.0
C392 C 0.65307 0.68706 0.53919 0.0
C393 C 0.69638 0.73411 0.51642 0.0
C394 C 0.64914 0.70261 0.51768 0.0
N395 N 0.6707 0.72562 0.50685 0.0
C396 C 0.74395 0.65444 0.5762 0.0
C397 C 0.75833 0.69836 0.55713 0.0
C398 C 0.76608 0.6543 0.56295 0.0
N399 N 0.74065 0.6764 0.57348 0.0
C400 C 0.78079 0.6991 0.54347 0.0
C401 C 0.78507 0.67696 0.54656 0.0
H402 H 0.72947 0.637 0.58881 0.0
H403 H 0.75534 0.71555 0.55505 0.0
C404 C 0.70047 0.74612 0.63899 0.0
N405 N 0.68887 0.73386 0.6126 0.0
C406 C 0.70081 0.76973 0.64781 0.0
C407 C 0.67799 0.7685 0.60171 0.0
C408 C 0.67751 0.74441 0.59404 0.0
C409 C 0.68948 0.78111 0.62908 0.0
H410 H 0.70873 0.737 0.65375 0.0
H411 H 0.66742 0.73394 0.5738 0.0
O412 O 0.68588 0.64013 0.61404 0.0
O413 O 0.65796 0.67101 0.6335 0.0
O414 O 0.72005 0.702 0.62782 0.0
O415 O 0.68361 0.68008 0.56983 0.0
H416 H 0.64508 0.59032 0.62294 0.0
H417 H 0.72769 0.64716 0.64666 0.0
H418 H 0.64641 0.55668 0.65721 0.0
H419 H 0.72763 0.6125 0.68047 0.0
H420 H 0.59482 0.69548 0.61416 0.0
H421 H 0.66137 0.69545 0.68504 0.0
H422 H 0.62073 0.67279 0.59977 0.0
H423 H 0.63479 0.71777 0.69795 0.0
H424 H 0.65606 0.62236 0.74232 0.0
H425 H 0.72014 0.70602 0.74435 0.0
H426 H 0.58873 0.58303 0.52881 0.0
H427 H 0.56912 0.57568 0.62309 0.0
H428 H 0.74198 0.74792 0.59695 0.0
H429 H 0.7593 0.69565 0.65082 0.0
H430 H 0.79137 0.77903 0.59082 0.0
H431 H 0.80844 0.72755 0.64344 0.0
H432 H 0.72153 0.72593 0.54556 0.0
H433 H 0.63591 0.66885 0.54786 0.0
H434 H 0.7131 0.75253 0.50742 0.0
H435 H 0.62895 0.69641 0.50966 0.0
H436 H 0.76823 0.63655 0.56544 0.0
H437 H 0.79497 0.71708 0.53123 0.0
H438 H 0.70976 0.77897 0.66912 0.0
H439 H 0.66881 0.77673 0.58693 0.0
Li440 Li 0.00714 0.64929 0.93 0.0
Li441 Li 0.0214 0.67887 0.97591 0.0
Li442 Li 0.98806 0.67828 0.9425 0.0
Li443 Li 0.0346 0.70097 0.92728 0.0
C444 C 0.96042 0.63461 0.9765 0.0
N445 N 0.908 0.61066 0.99801 0.0
C446 C 0.9553 0.64143 0.00486 0.0
C447 C 0.93891 0.61552 0.95913 0.0
C448 C 0.92864 0.62913 0.01531 0.0
C449 C 0.91255 0.60364 0.97041 0.0
C450 C 0.06336 0.67316 0.96249 0.0
C451 C 0.10395 0.69402 0.99255 0.0
N452 N 0.10064 0.66912 0.99847 0.0
C453 C 0.06043 0.64777 0.96872 0.0
C454 C 0.08534 0.69649 0.97434 0.0
C455 C 0.07948 0.64615 0.98702 0.0
C456 C 0.02233 0.6179 0.89503 0.0
N457 N 0.00405 0.61646 0.91557 0.0
C458 C 0.98791 0.5693 0.92343 0.0
C459 C 0.98679 0.59277 0.92949 0.0
C460 C 0.00736 0.57037 0.90328 0.0
C461 C 0.02437 0.59496 0.88853 0.0
H462 H 0.03626 0.63719 0.88487 0.0
H463 H 0.97316 0.59239 0.94655 0.0
C464 C 0.03114 0.69903 0.03486 0.0
N465 N 0.02844 0.67842 0.01718 0.0
C466 C 0.02992 0.69621 0.06596 0.0
C467 C 0.02407 0.65138 0.06 0.0
C468 C 0.02523 0.655 0.02902 0.0
C469 C 0.02569 0.67188 0.07882 0.0
H470 H 0.03264 0.717 0.02485 0.0
H471 H 0.02188 0.63849 0.01438 0.0
C472 C 0.98335 0.6731 0.88341 0.0
N473 N 0.94434 0.66988 0.84424 0.0
C474 C 0.98156 0.69618 0.87702 0.0
C475 C 0.96548 0.64843 0.86978 0.0
C476 C 0.96162 0.69411 0.85721 0.0
C477 C 0.94587 0.64722 0.85002 0.0
C478 C 0.03126 0.73744 0.96213 0.0
C479 C 0.0184 0.75092 0.95051 0.0
C480 C 0.05732 0.75244 0.97413 0.0
C481 C 0.03194 0.77923 0.95092 0.0
C482 C 0.07021 0.78072 0.97406 0.0
N483 N 0.05736 0.79342 0.96255 0.0
C484 C 0.9556 0.69416 0.97121 0.0
C485 C 0.93164 0.6645 0.9312 0.0
C486 C 0.93229 0.69397 0.98088 0.0
N487 N 0.955 0.67958 0.94683 0.0
C488 C 0.90765 0.66363 0.94022 0.0
C489 C 0.90778 0.67832 0.9656 0.0
H490 H 0.97398 0.70496 0.98419 0.0
H491 H 0.93116 0.65207 0.91273 0.0
C492 C 0.0865 0.72857 0.90131 0.0
N493 N 0.06378 0.73021 0.90574 0.0
C494 C 0.10914 0.74969 0.88729 0.0
C495 C 0.08459 0.77387 0.88231 0.0
C496 C 0.06218 0.75192 0.89572 0.0
C497 C 0.10872 0.77314 0.87808 0.0
H498 H 0.08711 0.71081 0.90874 0.0
H499 H 0.04366 0.75248 0.8985 0.0
O500 O 0.98628 0.64705 0.9655 0.0
O501 O 0.04476 0.67516 0.94493 0.0
O502 O 1.00282 0.67472 0.90252 0.0
O503 O 0.01835 0.70972 0.96191 0.0
H504 H 0.97166 0.65633 0.0185 0.0
H505 H 0.94248 0.61035 0.93692 0.0
H506 H 0.92435 0.63435 0.03713 0.0
H507 H 0.89568 0.58899 0.95712 0.0
H508 H 0.12103 0.71192 0.00194 0.0
H509 H 0.04351 0.62949 0.9598 0.0
H510 H 0.08803 0.71629 0.96951 0.0
H511 H 0.07739 0.62663 0.99216 0.0
H512 H 0.97478 0.55092 0.93571 0.0
H513 H 0.0396 0.59662 0.87282 0.0
H514 H 0.03137 0.71252 0.07975 0.0
H515 H 0.02034 0.63215 0.06901 0.0
H516 H 0.99531 0.71541 0.88741 0.0
H517 H 0.96672 0.63042 0.87448 0.0
H518 H 0.95987 0.71175 0.85215 0.0
H519 H 0.93183 0.62826 0.83935 0.0
H520 H 0.99834 0.73968 0.94087 0.0
H521 H 0.06749 0.74235 0.98336 0.0
H522 H 0.0223 0.78992 0.94186 0.0
H523 H 0.09042 0.79258 0.98316 0.0
H524 H 0.93325 0.70504 0.00099 0.0
H525 H 0.88914 0.6512 0.92785 0.0
H526 H 0.12674 0.74751 0.88374 0.0
H527 H 0.08303 0.79137 0.87593 0.0
Li528 Li 0.02451 0.69323 0.38929 0.0
Li529 Li 0.97543 0.6741 0.40347 0.0
Li530 Li 0.99802 0.64586 0.40337 0.0
Li531 Li 0.98954 0.66156 0.35717 0.0
C532 C 0.02483 0.69895 0.44637 0.0
N533 N 0.0625 0.74245 0.47957 0.0
C534 C 0.018 0.71723 0.45885 0.0
C535 C 0.05078 0.70272 0.45082 0.0
C536 C 0.03734 0.7391 0.47557 0.0
C537 C 0.06955 0.72487 0.46764 0.0
C538 C 0.99154 0.70782 0.34425 0.0
C539 C 0.96141 0.71235 0.30984 0.0
N540 N 0.98248 0.72627 0.29068 0.0
C541 C 0.01295 0.72235 0.32434 0.0
C542 C 0.96558 0.70287 0.33707 0.0
C543 C 0.00793 0.73143 0.29731 0.0
C544 C 0.07672 0.72259 0.36661 0.0
N545 N 0.05886 0.72544 0.38422 0.0
C546 C 0.08522 0.77376 0.37987 0.0
C547 C 0.06283 0.75039 0.39141 0.0
C548 C 0.10319 0.77121 0.36034 0.0
C549 C 0.09915 0.74525 0.35455 0.0
H550 H 0.07263 0.70267 0.36011 0.0
H551 H 0.04777 0.75211 0.40445 0.0
C552 C 0.93141 0.65954 0.44169 0.0
N553 N 0.94914 0.67977 0.42346 0.0
C554 C 0.91066 0.66151 0.45594 0.0
C555 C 0.92713 0.70543 0.43293 0.0
C556 C 0.94757 0.70256 0.41903 0.0
C557 C 0.90816 0.68462 0.45155 0.0
H558 H 0.9331 0.64158 0.44463 0.0
H559 H 0.96205 0.7184 0.40451 0.0
C560 C 0.03142 0.64378 0.36478 0.0
N561 N 0.04791 0.606 0.3574 0.0
C562 C 0.01565 0.62028 0.34809 0.0
C563 C 0.05572 0.64817 0.3775 0.0
C564 C 0.02429 0.6014 0.34467 0.0
C565 C 0.06368 0.62881 0.37355 0.0
C566 C 0.93939 0.62208 0.36903 0.0
C567 C 0.93637 0.59957 0.35317 0.0
C568 C 0.91921 0.62918 0.36709 0.0
C569 C 0.91331 0.58463 0.33554 0.0
C570 C 0.89642 0.61369 0.34928 0.0
N571 N 0.89398 0.59194 0.33398 0.0
C572 C 0.02146 0.61971 0.43624 0.0
C573 C 0.97771 0.59051 0.4165 0.0
C574 C 0.02464 0.59756 0.44333 0.0
N575 N 0.99876 0.61585 0.42185 0.0
C576 C 0.9799 0.56777 0.42349 0.0
C577 C 0.00404 0.57123 0.436 0.0
H578 H 0.03786 0.64005 0.44036 0.0
H579 H 0.95977 0.58796 0.40537 0.0
C580 C 0.009 0.66457 0.30056 0.0
N581 N 0.985 0.65664 0.31457 0.0
C582 C 0.01061 0.66512 0.26951 0.0
C583 C 0.96272 0.64971 0.26724 0.0
C584 C 0.96202 0.64944 0.2986 0.0
C585 C 0.98733 0.65768 0.25235 0.0
H586 H 0.02731 0.67155 0.31349 0.0
H587 H 0.94341 0.64441 0.30999 0.0
O588 O 0.00634 0.67767 0.42954 0.0
O589 O 0.99587 0.69804 0.3704 0.0
O590 O 0.02282 0.6621 0.3692 0.0
O591 O 0.96172 0.63682 0.38668 0.0
H592 H 0.99801 0.71462 0.45556 0.0
H593 H 0.05647 0.68891 0.44102 0.0
H594 H 0.03236 0.75345 0.48533 0.0
H595 H 0.08976 0.72813 0.47113 0.0
H596 H 0.9414 0.70853 0.30389 0.0
H597 H 0.03313 0.72623 0.32949 0.0
H598 H 0.94879 0.69158 0.35219 0.0
H599 H 0.02425 0.7425 0.28157 0.0
H600 H 0.08749 0.79343 0.38466 0.0
H601 H 0.11263 0.74239 0.33984 0.0
H602 H 0.89632 0.64477 0.46966 0.0
H603 H 0.92624 0.72375 0.42919 0.0
H604 H 0.99689 0.6166 0.33796 0.0
H605 H 0.06803 0.66605 0.39086 0.0
H606 H 0.01219 0.58306 0.33194 0.0
H607 H 0.0823 0.63183 0.38353 0.0
H608 H 0.95165 0.59365 0.35436 0.0
H609 H 0.92112 0.64655 0.37897 0.0
H610 H 0.91079 0.56723 0.3231 0.0
H611 H 0.88072 0.61902 0.34754 0.0
H612 H 0.04348 0.60104 0.45323 0.0
H613 H 0.96358 0.54784 0.41736 0.0
H614 H 0.0302 0.67228 0.25908 0.0
H615 H 0.94432 0.64405 0.25481 0.0
Li616 Li 0.31834 0.01868 0.7221 0.0
Li617 Li 0.29675 0.97269 0.73833 0.0
Li618 Li 0.34759 0.99872 0.72971 0.0
Li619 Li 0.31347 0.98381 0.688 0.0
C620 C 0.33259 0.02639 0.77931 0.0
N621 N 0.3465 0.06961 0.81734 0.0
C622 C 0.31264 0.03157 0.7902 0.0
C623 C 0.35959 0.04305 0.78786 0.0
C624 C 0.3201 0.05359 0.80935 0.0
C625 C 0.36621 0.06482 0.80711 0.0
C626 C 0.2577 0.97682 0.71166 0.0
C627 C 0.21215 0.93896 0.70785 0.0
N628 N 0.20294 0.95306 0.72379 0.0
C629 C 0.24776 0.99099 0.7279 0.0
C630 C 0.23974 0.95066 0.70139 0.0
C631 C 0.22001 0.97862 0.73381 0.0
C632 C 0.30129 0.05194 0.69711 0.0
N633 N 0.31852 0.05248 0.71856 0.0
C634 C 0.34033 0.10088 0.72092 0.0
C635 C 0.33759 0.07632 0.73087 0.0
C636 C 0.32344 0.10088 0.6979 0.0
C637 C 0.30329 0.07589 0.68656 0.0
H638 H 0.28715 0.03299 0.68657 0.0
H639 H 0.35192 0.07656 0.74686 0.0
C640 C 0.26482 0.91931 0.76062 0.0
N641 N 0.26871 0.94486 0.76239 0.0
C642 C 0.24309 0.89788 0.77551 0.0
C643 C 0.22988 0.92944 0.79408 0.0
C644 C 0.25226 0.95037 0.77945 0.0
C645 C 0.22502 0.9028 0.79194 0.0
H646 H 0.27831 0.91545 0.74721 0.0
H647 H 0.25607 0.9709 0.78107 0.0
C648 C 0.35935 0.04413 0.68307 0.0
N649 N 0.38477 0.09596 0.6596 0.0
C650 C 0.34963 0.04962 0.65678 0.0
C651 C 0.38211 0.06493 0.69732 0.0
C652 C 0.36273 0.07598 0.64531 0.0
C653 C 0.39467 0.09101 0.68509 0.0
C654 C 0.32018 0.94258 0.69732 0.0
C655 C 0.3446 0.9438 0.68992 0.0
C656 C 0.29608 0.92291 0.68407 0.0
C657 C 0.34453 0.92548 0.66908 0.0
C658 C 0.29685 0.90497 0.66331 0.0
N659 N 0.32086 0.90663 0.65629 0.0
C660 C 0.38721 0.99309 0.76396 0.0
C661 C 0.40087 0.01403 0.71633 0.0
C662 C 0.41159 0.9929 0.76707 0.0
N663 N 0.38224 0.00319 0.73863 0.0
C664 C 0.42536 0.01424 0.71848 0.0
C665 C 0.4307 0.00291 0.74371 0.0
H666 H 0.3718 0.98417 0.78113 0.0
H667 H 0.39618 0.02137 0.69615 0.0
C668 C 0.28761 0.97332 0.63204 0.0
N669 N 0.30992 0.97637 0.64655 0.0
C670 C 0.28736 0.97458 0.60085 0.0
C671 C 0.3327 0.98111 0.60018 0.0
C672 C 0.33209 0.97982 0.63139 0.0
C673 C 0.31042 0.97926 0.58455 0.0
H674 H 0.27069 0.97165 0.64472 0.0
H675 H 0.34988 0.98312 0.64362 0.0
O676 O 0.3257 0.00484 0.76077 0.0
O677 O 0.28485 0.98846 0.70591 0.0
O678 O 0.34633 0.01865 0.69515 0.0
O679 O 0.31987 0.96065 0.71727 0.0
H680 H 0.29166 0.01886 0.78376 0.0
H681 H 0.37525 0.03926 0.77964 0.0
H682 H 0.3049 0.05794 0.81784 0.0
H683 H 0.38703 0.07794 0.81387 0.0
H684 H 0.19806 0.91866 0.7002 0.0
H685 H 0.26135 0.01116 0.73626 0.0
H686 H 0.24705 0.93944 0.68871 0.0
H687 H 0.21207 0.98928 0.7465 0.0
H688 H 0.35614 0.11969 0.73035 0.0
H689 H 0.29024 0.07486 0.66835 0.0
H690 H 0.23992 0.87755 0.77342 0.0
H691 H 0.21647 0.93397 0.80685 0.0
H692 H 0.33192 0.0338 0.6456 0.0
H693 H 0.38971 0.06106 0.71786 0.0
H694 H 0.3553 0.08059 0.62513 0.0
H695 H 0.41217 0.10735 0.69599 0.0
H696 H 0.36343 0.95876 0.70005 0.0
H697 H 0.27701 0.92162 0.68963 0.0
H698 H 0.36329 0.92627 0.66305 0.0
H699 H 0.27836 0.88974 0.65277 0.0
H700 H 0.41485 0.98379 0.78678 0.0
H701 H 0.43964 0.02244 0.70011 0.0
H702 H 0.26993 0.97348 0.58978 0.0
H703 H 0.35077 0.98445 0.58849 0.0
Li704 Li 0.31018 0.32653 0.06031 0.0
Li705 Li 0.33707 0.30674 0.07215 0.0
Li706 Li 0.35893 0.3577 0.0691 0.0
Li707 Li 0.34178 0.32736 0.02385 0.0
C708 C 0.31635 0.33773 0.11821 0.0
N709 N 0.28663 0.34916 0.1585 0.0
C710 C 0.29162 0.31693 0.12903 0.0
C711 C 0.32603 0.36433 0.12796 0.0
C712 C 0.27687 0.32313 0.14935 0.0
C713 C 0.3107 0.36969 0.14833 0.0
C714 C 0.29691 0.26835 0.04408 0.0
C715 C 0.29318 0.225 0.03421 0.0
N716 N 0.27236 0.2132 0.0541 0.0
C717 C 0.27537 0.25579 0.06426 0.0
C718 C 0.30582 0.25285 0.02877 0.0
C719 C 0.26325 0.22788 0.06906 0.0
C720 C 0.25895 0.3064 0.0369 0.0
N721 N 0.27494 0.32352 0.05879 0.0
C722 C 0.24451 0.34075 0.06468 0.0
C723 C 0.26796 0.34026 0.07307 0.0
C724 C 0.22825 0.324 0.04124 0.0
C725 C 0.23551 0.30626 0.0278 0.0
H726 H 0.26528 0.29402 0.02498 0.0
H727 H 0.28138 0.35451 0.08955 0.0
C728 C 0.35474 0.26871 0.08229 0.0
N729 N 0.33839 0.2778 0.09302 0.0
C730 C 0.35551 0.24712 0.09622 0.0
C731 C 0.32278 0.24468 0.13226 0.0
C732 C 0.32265 0.26634 0.11761 0.0
C733 C 0.33939 0.23474 0.1216 0.0
H734 H 0.36703 0.27806 0.06272 0.0
H735 H 0.30984 0.27392 0.12576 0.0
C736 C 0.32255 0.36975 0.02618 0.0
N737 N 0.29193 0.39241 0.0077 0.0
C738 C 0.30773 0.36119 -0.00047 0.0
C739 C 0.32188 0.38992 0.04337 0.0
C740 C 0.29232 0.37285 0.99061 0.0
C741 C 0.30629 0.40114 0.03362 0.0
C742 C 0.39159 0.33776 0.03186 0.0
C743 C 0.41477 0.36336 0.02972 0.0
C744 C 0.38873 0.3169 0.01299 0.0
C745 C 0.43462 0.36771 0.00858 0.0
C746 C 0.40901 0.32207 0.99212 0.0
N747 N 0.43135 0.34716 0.99037 0.0
C748 C 0.40409 0.39415 0.10479 0.0
C749 C 0.39235 0.41422 0.0653 0.0
C750 C 0.42701 0.41911 0.11152 0.0
N751 N 0.38749 0.39219 0.08184 0.0
C752 C 0.41469 0.43957 0.07157 0.0
C753 C 0.43259 0.44217 0.09463 0.0
H754 H 0.4 0.37618 0.1172 0.0
H755 H 0.37946 0.41196 0.0465 0.0
C756 C 0.32535 0.30765 0.96569 0.0
N757 N 0.34578 0.32774 0.98169 0.0
C758 C 0.32388 0.31022 0.93476 0.0
C759 C 0.36525 0.35356 0.9372 0.0
C760 C 0.36567 0.35033 0.96816 0.0
C761 C 0.34371 0.33369 0.92012 0.0
H762 H 0.30922 0.29042 0.97719 0.0
H763 H 0.38113 0.36644 0.98157 0.0
O764 O 0.33123 0.33207 0.09853 0.0
O765 O 0.30957 0.29578 0.0398 0.0
O766 O 0.33713 0.35801 0.03573 0.0
O767 O 0.37183 0.33315 0.05227 0.0
H768 H 0.28376 0.29626 0.12164 0.0
H769 H 0.34513 0.38067 0.11986 0.0
H770 H 0.25763 0.30726 0.15781 0.0
H771 H 0.31791 0.39019 0.15602 0.0
H772 H 0.29998 0.21277 0.02269 0.0
H773 H 0.26824 0.26751 0.07628 0.0
H774 H 0.32247 0.26228 0.01308 0.0
H775 H 0.24666 0.21791 0.08476 0.0
H776 H 0.23967 0.3547 0.07576 0.0
H777 H 0.22407 0.29344 0.0092 0.0
H778 H 0.36836 0.23997 0.0869 0.0
H779 H 0.31027 0.23605 0.15195 0.0
H780 H 0.30778 0.34544 0.98609 0.0
H781 H 0.33284 0.39646 0.06432 0.0
H782 H 0.28059 0.36627 0.97016 0.0
H783 H 0.30544 0.41662 0.04681 0.0
H784 H 0.41743 0.37975 0.04414 0.0
H785 H 0.37082 0.29704 0.01409 0.0
H786 H 0.45263 0.38744 0.00664 0.0
H787 H 0.40695 0.30616 0.97725 0.0
H788 H 0.44041 0.42033 0.12942 0.0
H789 H 0.4186 0.45672 0.05762 0.0
H790 H 0.30658 0.29461 0.92281 0.0
H791 H 0.38121 0.37181 0.92694 0.0
Li792 Li 0.0332 0.33052 0.4029 0.0
Li793 Li 0.98366 0.30597 0.38944 0.0
Li794 Li 0.01611 0.33757 0.35628 0.0
Li795 Li 0.00705 0.35497 0.40071 0.0
C796 C 0.02142 0.29555 0.34571 0.0
N797 N 0.03656 0.28058 0.29351 0.0
C798 C 1.00173 0.27803 0.32545 0.0
C799 C 0.04881 0.30532 0.33948 0.0
C800 C 0.00979 0.27077 0.29914 0.0
C801 C 0.05605 0.2975 0.313 0.0
C802 C 0.99557 0.3061 0.45075 0.0
C803 C 0.97941 0.28921 0.50048 0.0
N804 N 0.98551 0.26923 0.49614 0.0
C805 C 1.00161 0.28535 0.44674 0.0
C806 C 0.98438 0.30807 0.47781 0.0
C807 C 0.99642 0.26694 0.46998 0.0
C808 C 0.07329 0.34757 0.44726 0.0
N809 N 0.06137 0.3291 0.42494 0.0
C810 C 0.08948 0.30996 0.43574 0.0
C811 C 0.06887 0.31034 0.41906 0.0
C812 C 0.10215 0.3288 0.45898 0.0
C813 C 0.09374 0.34773 0.4647 0.0
H814 H 0.06681 0.36217 0.45152 0.0
H815 H 0.05868 0.29546 0.40165 0.0
C816 C 0.93756 0.26992 0.35966 0.0
N817 N 0.94999 0.27226 0.3864 0.0
C818 C 0.91462 0.24575 0.35152 0.0
C819 C 0.91704 0.22647 0.39882 0.0
C820 C 0.93996 0.25128 0.40622 0.0
C821 C 0.90429 0.22342 0.37094 0.0
H822 H 0.94617 0.28659 0.34396 0.0
H823 H 0.95 0.25338 0.42735 0.0
C824 C 0.06479 0.38131 0.36522 0.0
N825 N 0.1082 0.41301 0.3282 0.0
C826 C 0.06389 0.40029 0.34606 0.0
C827 C 0.08788 0.37865 0.36571 0.0
C828 C 0.086 0.41607 0.32747 0.0
C829 C 0.10958 0.39481 0.34679 0.0
C830 C 0.95827 0.33514 0.37472 0.0
C831 C 0.94737 0.34573 0.35429 0.0
C832 C 0.9452 0.32483 0.4021 0.0
C833 C 0.92344 0.34559 0.36145 0.0
C834 C 0.9213 0.32504 0.40842 0.0
N835 N 0.91099 0.33532 0.38814 0.0
C836 C 0.99548 0.33409 0.29997 0.0
C837 C 0.04252 0.34977 0.29688 0.0
C838 C 0.99335 0.33375 0.26896 0.0
N839 N 0.01971 0.342 0.31342 0.0
C840 C 0.04127 0.34962 0.26552 0.0
C841 C 0.0163 0.34118 0.25122 0.0
H842 H 0.97746 0.32733 0.31327 0.0
H843 H 0.06149 0.35534 0.30785 0.0
C844 C 0.99817 0.38736 0.44453 0.0
N845 N 0.00355 0.38438 0.41553 0.0
C846 C 0.99589 0.40986 0.45298 0.0
C847 C 0.0048 0.42548 0.40165 0.0
C848 C 0.00642 0.40262 0.39417 0.0
C849 C 0.99961 0.4294 0.43138 0.0
H850 H 0.99565 0.37235 0.46101 0.0
H851 H 0.00978 0.39923 0.37117 0.0
O852 O 0.01396 0.30336 0.37128 0.0
O853 O 1.00104 0.32481 0.42865 0.0
O854 O 0.04347 0.36587 0.38386 0.0
O855 O 0.98202 0.33567 0.36808 0.0
H856 H 0.98046 0.27023 0.32984 0.0
H857 H 0.06436 0.31915 0.35466 0.0
H858 H 0.99476 0.25737 0.28319 0.0
H859 H 0.07718 0.30506 0.30783 0.0
H860 H 0.97075 0.2905 0.52155 0.0
H861 H 0.00992 0.28324 0.42583 0.0
H862 H 0.97961 0.32404 0.48128 0.0
H863 H 1.00097 0.25077 0.46716 0.0
H864 H 0.09511 0.29479 0.43088 0.0
H865 H 0.1031 0.3627 0.48227 0.0
H866 H 0.90579 0.24422 0.3296 0.0
H867 H 0.90958 0.20976 0.41453 0.0
H868 H 0.04621 0.40259 0.34522 0.0
H869 H 0.08912 0.3643 0.38054 0.0
H870 H 0.08549 0.43068 0.3124 0.0
H871 H 0.12753 0.39288 0.34689 0.0
H872 H 0.95739 0.35414 0.33316 0.0
H873 H 0.95331 0.31672 0.41837 0.0
H874 H 0.91479 0.35371 0.34583 0.0
H875 H 0.91096 0.31706 0.42949 0.0
H876 H 0.97376 0.32751 0.25901 0.0
H877 H 0.05944 0.35524 0.25266 0.0
H878 H 0.99171 0.41221 0.47611 0.0
H879 H 0.00722 0.43982 0.38427 0.0
Li880 Li 0.70034 0.02962 0.74224 0.0
Li881 Li 0.6774 0.98232 0.72782 0.0
Li882 Li 0.67703 0.01503 0.69354 0.0
Li883 Li 0.6485 1.00159 0.74048 0.0
C884 C 0.73524 0.02226 0.70495 0.0
N885 N 0.79015 0.04168 0.69875 0.0
C886 C 0.74681 0.00754 0.71652 0.0
C887 C 0.75152 0.04671 0.69001 0.0
C888 C 0.77463 0.01774 0.71319 0.0
C889 C 0.77926 0.05623 0.6872 0.0
C890 C 0.67613 0.98175 0.78892 0.0
C891 C 0.65478 0.94633 0.82584 0.0
N892 N 0.67945 0.94974 0.83329 0.0
C893 C 0.70129 0.985 0.79698 0.0
C894 C 0.65267 0.96235 0.80346 0.0
C895 C 0.70254 0.96857 0.81945 0.0
C896 C 0.72538 0.07913 0.77333 0.0
N897 N 0.72964 0.05897 0.76344 0.0
C898 C 0.77436 0.08144 0.78426 0.0
C899 C 0.75344 0.05959 0.76896 0.0
C900 C 0.77051 0.10252 0.79464 0.0
C901 C 0.74558 0.10113 0.78918 0.0
H902 H 0.70619 0.07805 0.76898 0.0
H903 H 0.75622 0.04308 0.76183 0.0
C904 C 0.68516 0.94718 0.69443 0.0
N905 N 0.67971 0.94996 0.72341 0.0
C906 C 0.68505 0.92388 0.68487 0.0
C907 C 0.67556 0.90713 0.73567 0.0
C908 C 0.67502 0.93055 0.74409 0.0
C909 C 0.68023 0.90328 0.70551 0.0
H910 H 0.68858 0.9628 0.67835 0.0
H911 H 0.67037 0.93281 0.76692 0.0
C912 C 0.67545 0.06005 0.70829 0.0
N913 N 0.67854 0.10256 0.67536 0.0
C914 C 0.65201 0.06127 0.70231 0.0
C915 C 0.70048 0.0805 0.69775 0.0
C916 C 0.65399 0.08292 0.68556 0.0
C917 C 0.70161 0.10181 0.68107 0.0
C918 C 0.63183 0.95358 0.69608 0.0
C919 C 0.63109 0.94722 0.66574 0.0
C920 C 0.61887 0.93275 0.71709 0.0
C921 C 0.61758 0.92005 0.65693 0.0
C922 C 0.60562 0.90584 0.70739 0.0
N923 N 0.60526 0.9001 0.67777 0.0
C924 C 0.69374 0.01633 0.63508 0.0
C925 C 0.65665 0.02403 0.63913 0.0
C926 C 0.6906 0.01369 0.6041 0.0
N927 N 0.67663 0.02098 0.6519 0.0
C928 C 0.65294 0.02181 0.60809 0.0
C929 C 0.66958 0.01579 0.5902 0.0
H930 H 0.70869 0.01284 0.64588 0.0
H931 H 0.64262 0.02659 0.65311 0.0
C932 C 0.61595 0.01832 0.77137 0.0
N933 N 0.61549 0.99781 0.75532 0.0
C934 C 0.59184 0.01836 0.77729 0.0
C935 C 0.56728 0.97559 0.75124 0.0
C936 C 0.59178 0.97643 0.74576 0.0
C937 C 0.56716 0.99716 0.76636 0.0
H938 H 0.63517 0.03537 0.77814 0.0
H939 H 0.59194 0.96065 0.73257 0.0
O940 O 0.70804 0.01256 0.70781 0.0
O941 O 0.67451 0.99789 0.76737 0.0
O942 O 0.67391 0.03894 0.72444 0.0
O943 O 0.64567 0.98003 0.70524 0.0
H944 H 0.73453 0.98862 0.72823 0.0
H945 H 0.74281 0.05818 0.68066 0.0
H946 H 0.7839 0.00665 0.72216 0.0
H947 H 0.79213 0.07518 0.67578 0.0
H948 H 0.63681 0.93118 0.83727 0.0
H949 H 0.7196 0.99994 0.78589 0.0
H950 H 0.63308 0.95972 0.7975 0.0
H951 H 0.72185 0.97077 0.82587 0.0
H952 H 0.79316 0.08158 0.78847 0.0
H953 H 0.74186 0.11703 0.79683 0.0
H954 H 0.68797 0.9219 0.66127 0.0
H955 H 0.67218 0.89221 0.75266 0.0
H956 H 0.63248 0.04555 0.71032 0.0
H957 H 0.71881 0.0799 0.70241 0.0
H958 H 0.63601 0.08408 0.68062 0.0
H959 H 0.72083 0.11776 0.6727 0.0
H960 H 0.64105 0.96308 0.64919 0.0
H961 H 0.61949 0.93735 0.7407 0.0
H962 H 0.61697 0.91482 0.63355 0.0
H963 H 0.59572 0.88951 0.72342 0.0
H964 H 0.70353 0.00841 0.59148 0.0
H965 H 0.6366 0.0238 0.59838 0.0
H966 H 0.59272 0.03554 0.78874 0.0
H967 H 0.5487 0.95869 0.74273 0.0
Li968 Li 0.67748 0.70588 0.07329 0.0
Li969 Li 0.70305 0.6856 0.05673 0.0
Li970 Li 0.67243 0.68734 0.02259 0.0
Li971 Li 0.65545 0.65551 0.06595 0.0
C972 C 0.70687 0.7421 0.02952 0.0
N973 N 0.7119 0.78989 0.00779 0.0
C974 C 0.73251 0.76488 0.02555 0.0
C975 C 0.68377 0.74368 0.02244 0.0
C976 C 0.73464 0.78884 0.01455 0.0
C977 C 0.68675 0.768 0.01147 0.0
C978 C 0.70181 0.6792 0.11522 0.0
C979 C 0.71645 0.65611 0.14912 0.0
N980 N 0.7398 0.67986 0.15414 0.0
C981 C 0.7258 0.70343 0.12089 0.0
C982 C 0.69694 0.65536 0.12955 0.0
C983 C 0.74482 0.70332 0.14057 0.0
C984 C 0.6542 0.73074 0.10876 0.0
N985 N 0.67761 0.73397 0.09689 0.0
C986 C 0.70258 0.77871 0.11723 0.0
C987 C 0.70156 0.75726 0.10103 0.0
C988 C 0.67876 0.77614 0.12981 0.0
C989 C 0.65432 0.75161 0.12545 0.0
H990 H 0.63545 0.71192 0.1053 0.0
H991 H 0.71992 0.7593 0.09148 0.0
C992 C 0.75443 0.70776 0.03327 0.0
N993 N 0.73856 0.68925 0.0542 0.0
C994 C 0.77914 0.7103 0.02494 0.0
C995 C 0.77104 0.67449 0.05968 0.0
C996 C 0.74659 0.67302 0.06787 0.0
C997 C 0.78747 0.6932 0.03775 0.0
H998 H 0.7474 0.71985 0.02198 0.0
H999 H 0.73359 0.6581 0.08408 0.0
C1000 C 0.61764 0.66676 0.03907 0.0
N1001 N 0.56625 0.63692 0.01507 0.0
C1002 C 0.61146 0.64504 0.01989 0.0
C1003 C 0.5977 0.67333 0.04602 0.0
C1004 C 0.58536 0.63019 0.00801 0.0
C1005 C 0.57184 0.65801 0.03364 0.0
C1006 C 0.68824 0.6398 0.02766 0.0
C1007 C 0.70173 0.64087 0.00109 0.0
C1008 C 0.68707 0.6227 0.05082 0.0
C1009 C 0.71402 0.62503 0.99827 0.0
C1010 C 0.69947 0.60705 0.04708 0.0
N1011 N 0.71264 0.60858 0.02112 0.0
C1012 C 0.69241 0.69552 0.9666 0.0
C1013 C 0.64805 0.68932 0.96528 0.0
C1014 C 0.69344 0.69525 0.93551 0.0
N1015 N 0.66965 0.69156 0.9808 0.0
C1016 C 0.64836 0.68935 0.9339 0.0
C1017 C 0.671 0.69149 0.91883 0.0
H1018 H 0.70951 0.69803 0.97964 0.0
H1019 H 0.63039 0.68681 0.97709 0.0
C1020 C 0.6106 0.61915 0.10213 0.0
N1021 N 0.62617 0.62096 0.07817 0.0
C1022 C 0.58747 0.59444 0.10921 0.0
C1023 C 0.59728 0.57392 0.06729 0.0
C1024 C 0.61983 0.59901 0.06072 0.0
C1025 C 0.58063 0.57145 0.09161 0.0
H1026 H 0.61576 0.63705 0.11525 0.0
H1027 H 0.63176 0.60112 0.04106 0.0
O1028 O 0.70465 0.71863 0.04064 0.0
O1029 O 0.68297 0.67888 0.09603 0.0
O1030 O 0.64288 0.68131 0.05151 0.0
O1031 O 0.67644 0.65551 0.03114 0.0
H1032 H 0.75062 0.76414 0.03114 0.0
H1033 H 0.66373 0.72643 0.02535 0.0
H1034 H 0.75436 0.80662 0.01144 0.0
H1035 H 0.66905 0.76948 0.00591 0.0
H1036 H 0.71304 0.6378 0.1603 0.0
H1037 H 0.72979 0.72204 0.10997 0.0
H1038 H 0.67832 0.6365 0.12556 0.0
H1039 H 0.76359 0.72187 0.14502 0.0
H1040 H 0.72184 0.79727 0.11946 0.0
H1041 H 0.63551 0.7484 0.13506 0.0
H1042 H 0.79106 0.72471 0.00764 0.0
H1043 H 0.77686 0.66095 0.07003 0.0
H1044 H 0.62665 0.63975 0.01407 0.0
H1045 H 0.60216 0.69008 0.06086 0.0
H1046 H 0.5803 0.61332 0.99314 0.0
H1047 H 0.5562 0.66286 0.03884 0.0
H1048 H 0.70271 0.65371 0.98276 0.0
H1049 H 0.67705 0.62183 0.07169 0.0
H1050 H 0.72463 0.62578 0.97788 0.0
H1051 H 0.69882 0.59387 0.06491 0.0
H1052 H 0.71143 0.6975 0.92458 0.0
H1053 H 0.63079 0.68664 0.9216 0.0
H1054 H 0.575 0.59332 0.12806 0.0
H1055 H 0.59233 0.55682 0.05277 0.0
H1056 H 0.36206 0.14743 0.18231 0.0
H1057 H 0.27564 0.10743 0.19629 0.0
H1058 H 0.27398 0.1449 0.17161 0.0
H1059 H 0.29701 0.18885 0.14549 0.0
H1060 H 0.38359 0.22905 0.13229 0.0
H1061 H 0.3851 0.19146 0.1566 0.0
C1062 C 0.34281 0.14678 0.17971 0.0
C1063 C 0.31901 0.12458 0.19113 0.0
C1064 C 0.342 0.16841 0.1655 0.0
C1065 C 0.29432 0.12435 0.188 0.0
C1066 C 0.29333 0.14573 0.17376 0.0
C1067 C 0.31626 0.18954 0.14817 0.0
C1068 C 0.34013 0.21181 0.13691 0.0
C1069 C 0.31705 0.1679 0.16246 0.0
C1070 C 0.36482 0.21205 0.14026 0.0
C1071 C 0.36574 0.19061 0.15435 0.0
H1072 H 0.18578 0.33096 0.55395 0.0
H1073 H 0.22443 0.32531 0.47342 0.0
H1074 H 0.18814 0.32421 0.44309 0.0
H1075 H 0.14557 0.32531 0.43937 0.0
H1076 H 0.10749 0.33205 0.51982 0.0
H1077 H 0.14331 0.33226 0.55022 0.0
C1078 C 0.18612 0.32928 0.52977 0.0
C1079 C 0.20774 0.32818 0.51597 0.0
C1080 C 0.16531 0.32893 0.51244 0.0
C1081 C 0.20813 0.32642 0.48458 0.0
C1082 C 0.18733 0.32568 0.46723 0.0
C1083 C 0.14503 0.32662 0.46357 0.0
C1084 C 0.12388 0.32863 0.47731 0.0
C1085 C 0.16585 0.32699 0.4809 0.0
C1086 C 0.12367 0.33072 0.50868 0.0
C1087 C 0.14409 0.33073 0.52608 0.0
H1088 H 0.82338 0.13374 0.7789 0.0
H1089 H 0.76615 0.12294 0.84818 0.0
H1090 H 0.80201 0.16039 0.8767 0.0
H1091 H 0.84971 0.19544 0.88236 0.0
H1092 H 0.90634 0.20837 0.81123 0.0
H1093 H 0.87079 0.17049 0.78344 0.0
C1094 C 0.81885 0.1396 0.80028 0.0
C1095 C 0.79224 0.12559 0.81151 0.0
C1096 C 0.83948 0.16138 0.81634 0.0
C1097 C 0.78648 0.13355 0.83904 0.0
C1098 C 0.80698 0.15488 0.85537 0.0
C1099 C 0.85431 0.19037 0.86058 0.0
C1100 C 0.88092 0.20486 0.84918 0.0
C1101 C 0.83356 0.16893 0.84425 0.0
C1102 C 0.88632 0.19738 0.82106 0.0
C1103 C 0.8659 0.1758 0.80494 0.0
H1104 H 0.64066 0.79209 0.13152 0.0
H1105 H 0.71869 0.81166 0.16769 0.0
H1106 H 0.72113 0.85003 0.19453 0.0
H1107 H 0.70119 0.87821 0.20802 0.0
H1108 H 0.62225 0.85738 0.17413 0.0
H1109 H 0.61984 0.81903 0.14674 0.0
C1110 C 0.65805 0.80446 0.14558 0.0
C1111 C 0.67955 0.79893 0.14722 0.0
C1112 C 0.65916 0.82631 0.16149 0.0
C1113 C 0.70206 0.81561 0.16533 0.0
C1114 C 0.70342 0.83752 0.18094 0.0
C1115 C 0.68353 0.86531 0.19452 0.0
C1116 C 0.66199 0.87068 0.19299 0.0
C1117 C 0.68217 0.84315 0.17908 0.0
C1118 C 0.63903 0.85357 0.17579 0.0
C1119 C 0.63769 0.83171 0.16005 0.0
H1120 H 0.88749 0.66875 0.50782 0.0
H1121 H 0.87769 0.70482 0.42715 0.0
H1122 H 0.83949 0.70647 0.44963 0.0
H1123 H 0.8076 0.69598 0.49149 0.0
H1124 H 0.81717 0.65927 0.57175 0.0
H1125 H 0.8562 0.65895 0.54981 0.0
C1126 C 0.87691 0.67681 0.49503 0.0
C1127 C 0.88552 0.68659 0.46576 0.0
C1128 C 0.85469 0.67736 0.50792 0.0
C1129 C 0.87181 0.69745 0.44983 0.0
C1130 C 0.84978 0.69822 0.46259 0.0
C1131 C 0.81838 0.68816 0.5043 0.0
C1132 C 0.80929 0.67751 0.53318 0.0
C1133 C 0.84092 0.68807 0.49155 0.0
C1134 C 0.82338 0.66718 0.54929 0.0
C1135 C 0.84584 0.66713 0.53684 0.0
H1136 H 0.22331 0.86655 0.83257 0.0
H1137 H 0.17245 0.88838 0.78234 0.0
H1138 H 0.13189 0.84982 0.80376 0.0
H1139 H 0.11109 0.80946 0.83582 0.0
H1140 H 0.16233 0.79046 0.89006 0.0
H1141 H 0.20238 0.82784 0.86743 0.0
C1142 C 0.20329 0.86279 0.82643 0.0
C1143 C 0.20072 0.88008 0.80592 0.0
C1144 C 0.18014 0.84094 0.83928 0.0
C1145 C 0.1748 0.87531 0.79824 0.0
C1146 C 0.15166 0.85325 0.81038 0.0
C1147 C 0.13092 0.81362 0.84321 0.0
C1148 C 0.13331 0.79663 0.86455 0.0
C1149 C 0.15409 0.83588 0.83091 0.0
C1150 C 0.15949 0.80244 0.87315 0.0
C1151 C 0.18258 0.8241 0.86044 0.0
H1152 H 0.48782 0.04868 0.23515 0.0
H1153 H 0.43514 0.96194 0.23061 0.0
H1154 H 0.47445 0.95562 0.22938 0.0
H1155 H 0.52379 0.9745 0.23392 0.0
H1156 H 0.57614 0.06103 0.24125 0.0
H1157 H 0.53702 0.06761 0.23751 0.0
C1158 C 0.48489 0.02837 0.23393 0.0
C1159 C 0.45847 0.00585 0.2331 0.0
C1160 C 0.50758 0.02482 0.23399 0.0
C1161 C 0.45517 0.97971 0.2309 0.0
C1162 C 0.47768 0.97604 0.23047 0.0
C1163 C 0.52663 0.9948 0.23418 0.0
C1164 C 0.55279 0.01724 0.23795 0.0
C1165 C 0.50397 0.99841 0.23253 0.0
C1166 C 0.55616 0.04342 0.23864 0.0
C1167 C 0.53381 0.0472 0.23647 0.0
H1168 H 0.55598 0.52776 0.60294 0.0
H1169 H 0.5364 0.56854 0.53442 0.0
H1170 H 0.49187 0.52791 0.52748 0.0
H1171 H 0.4578 0.48121 0.54259 0.0
H1172 H 0.47851 0.44058 0.61033 0.0
H1173 H 0.5233 0.48061 0.61584 0.0
C1174 C 0.54193 0.52768 0.58647 0.0
C1175 C 0.54925 0.55109 0.5694 0.0
C1176 C 0.51659 0.50428 0.58249 0.0
C1177 C 0.53114 0.55068 0.54777 0.0
C1178 C 0.50568 0.52753 0.5439 0.0
C1179 C 0.47222 0.48118 0.55842 0.0
C1180 C 0.4649 0.45799 0.57599 0.0
C1181 C 0.49807 0.50428 0.56138 0.0
C1182 C 0.4838 0.45807 0.5963 0.0
C1183 C 0.50934 0.481 0.59961 0.0
H1184 H 0.96871 0.51739 0.89581 0.0
H1185 H 0.05511 0.57015 0.90376 0.0
H1186 H 0.06176 0.53097 0.9034 0.0
H1187 H 0.04277 0.48148 0.90405 0.0
H1188 H 0.95633 0.42877 0.89639 0.0
H1189 H 0.94998 0.46804 0.89324 0.0
C1190 C 0.98899 0.52028 0.8973 0.0
C1191 C 0.01135 0.54664 0.89989 0.0
C1192 C 0.99266 0.49764 0.89723 0.0
C1193 C 0.03756 0.5501 0.90144 0.0
C1194 C 0.04137 0.52769 0.90146 0.0
C1195 C 0.02257 0.47864 0.90156 0.0
C1196 C 1.00007 0.45224 0.90053 0.0
C1197 C 0.01904 0.50134 0.89986 0.0
C1198 C 0.97403 0.44886 0.89693 0.0
C1199 C 0.97035 0.47131 0.89534 0.0
H1200 H 0.97016 0.52045 0.45809 0.0
H1201 H 0.04854 0.56968 0.41723 0.0
H1202 H 0.0549 0.53046 0.41423 0.0
H1203 H 0.03672 0.4815 0.41941 0.0
H1204 H 0.95867 0.4318 0.46044 0.0
H1205 H 0.95364 0.4718 0.46743 0.0
C1206 C 0.98871 0.52257 0.44883 0.0
C1207 C 0.00884 0.54793 0.4379 0.0
C1208 C 0.99221 0.49984 0.44706 0.0
C1209 C 0.03289 0.55048 0.42614 0.0
C1210 C 0.03646 0.52801 0.42419 0.0
C1211 C 0.01874 0.47954 0.43014 0.0
C1212 C 0.99798 0.45383 0.43918 0.0
C1213 C 0.01606 0.50252 0.43403 0.0
C1214 C 0.97492 0.45147 0.4534 0.0
C1215 C 0.972 0.47428 0.45721 0.0
H1216 H 0.53033 0.98556 0.72233 0.0
H1217 H 0.54754 0.01285 0.81397 0.0
H1218 H 0.50659 0.01672 0.81546 0.0
H1219 H 0.46609 0.01293 0.79009 0.0
H1220 H 0.44976 0.98534 0.69841 0.0
H1221 H 0.49003 0.9808 0.69769 0.0
C1222 C 0.52494 0.99193 0.74283 0.0
C1223 C 0.54185 0.99865 0.76809 0.0
C1224 C 0.50155 0.9942 0.74346 0.0
C1225 C 0.53491 0.00762 0.79418 0.0
C1226 C 0.51146 0.00976 0.79506 0.0
C1227 C 0.4713 0.00577 0.77007 0.0
C1228 C 0.45508 0.99977 0.74425 0.0
C1229 C 0.49465 0.0032 0.76976 0.0
C1230 C 0.46216 0.99061 0.71841 0.0
C1231 C 0.48511 0.98784 0.71801 0.0
H1232 H 0.48386 0.451 0.09918 0.0
H1233 H 0.43783 0.49232 0.09973 0.0
H1234 H 0.47977 0.53617 0.10172 0.0
H1235 H 0.52961 0.5628 0.09916 0.0
H1236 H 0.57548 0.52138 0.09579 0.0
H1237 H 0.53366 0.47757 0.09932 0.0
C1238 C 0.48305 0.46961 0.10033 0.0
C1239 C 0.45783 0.46847 0.09935 0.0
C1240 C 0.50724 0.49473 0.10075 0.0
C1241 C 0.45704 0.49274 0.10031 0.0
C1242 C 0.481 0.51778 0.10144 0.0
C1243 C 0.53041 0.54417 0.09978 0.0
C1244 C 0.55553 0.54525 0.09724 0.0
C1245 C 0.50623 0.51905 0.10108 0.0
C1246 C 0.55633 0.52098 0.09756 0.0
C1247 C 0.53244 0.49597 0.09958 0.0
H1248 H 0.13918 0.82074 0.38342 0.0
H1249 H 0.11575 0.77517 0.30102 0.0
H1250 H 0.15248 0.8133 0.27445 0.0
H1251 H 0.19268 0.85912 0.27497 0.0
H1252 H 0.21674 0.90421 0.35761 0.0
H1253 H 0.17837 0.86709 0.38358 0.0
C1254 C 0.14201 0.81929 0.35961 0.0
C1255 C 0.12495 0.79507 0.34433 0.0
C1256 C 0.16335 0.84126 0.34447 0.0
C1257 C 0.12893 0.79344 0.31345 0.0
C1258 C 0.14984 0.81528 0.29818 0.0
C1259 C 0.18926 0.86084 0.29857 0.0
C1260 C 0.20754 0.88421 0.31441 0.0
C1261 C 0.16739 0.83921 0.3135 0.0
C1262 C 0.20306 0.88621 0.34505 0.0
C1263 C 0.18112 0.86504 0.3599 0.0
H1264 H 0.36193 0.2137 0.63468 0.0
H1265 H 0.27547 0.18178 0.6307 0.0
H1266 H 0.26775 0.14015 0.65494 0.0
H1267 H 0.28546 0.11356 0.67941 0.0
H1268 H 0.3719 0.14577 0.68423 0.0
H1269 H 0.37964 0.18701 0.65881 0.0
C1270 C 0.34137 0.19771 0.63919 0.0
C1271 C 0.31936 0.20101 0.63074 0.0
C1272 C 0.33704 0.17406 0.6539 0.0
C1273 C 0.29285 0.17975 0.63635 0.0
C1274 C 0.28839 0.15601 0.65061 0.0
C1275 C 0.306 0.12954 0.67479 0.0
C1276 C 0.32805 0.12659 0.68396 0.0
C1277 C 0.31033 0.15307 0.65977 0.0
C1278 C 0.35454 0.14768 0.67803 0.0
C1279 C 0.359 0.17116 0.66317 0.0
H1280 H 0.17959 0.28293 0.02196 0.0
H1281 H 0.22465 0.36984 0.03297 0.0
H1282 H 0.18755 0.37342 0.01019 0.0
H1283 H 0.14231 0.35179 0.98644 0.0
H1284 H 0.09838 0.26505 0.97418 0.0
H1285 H 0.13533 0.26159 0.99741 0.0
C1286 C 0.18144 0.30271 0.01922 0.0
C1287 C 0.20492 0.32605 0.02927 0.0
C1288 C 0.16031 0.30469 0.00553 0.0
C1289 C 0.20665 0.35145 0.02597 0.0
C1290 C 0.18555 0.35356 0.01261 0.0
C1291 C 0.14106 0.33221 0.9885 0.0
C1292 C 0.11768 0.30871 0.97856 0.0
C1293 C 0.16235 0.33033 0.00211 0.0
C1294 C 0.1161 0.28341 0.98182 0.0
C1295 C 0.1372 0.28141 0.99512 0.0
H1296 H 0.85798 0.21383 0.3427 0.0
H1297 H 0.89959 0.17345 0.37639 0.0
H1298 H 0.86413 0.13041 0.3559 0.0
H1299 H 0.8224 0.10472 0.32659 0.0
H1300 H 0.77983 0.14492 0.29485 0.0
H1301 H 0.81518 0.1877 0.31533 0.0
C1302 C 0.85927 0.19558 0.34558 0.0
C1303 C 0.88143 0.19687 0.36102 0.0
C1304 C 0.83892 0.17096 0.33357 0.0
C1305 C 0.88261 0.17298 0.36492 0.0
C1306 C 0.86246 0.14841 0.35295 0.0
C1307 C 0.82061 0.12272 0.32436 0.0
C1308 C 0.79844 0.12142 0.3088 0.0
C1309 C 0.84066 0.14722 0.33699 0.0
C1310 C 0.79689 0.14523 0.30592 0.0
C1311 C 0.81697 0.16974 0.318 0.0
H1312 H 0.66253 0.78644 0.67589 0.0
H1313 H 0.71692 0.83103 0.60378 0.0
H1314 H 0.72007 0.87313 0.62202 0.0
H1315 H 0.70844 0.89706 0.65926 0.0
H1316 H 0.64984 0.85155 0.72829 0.0
H1317 H 0.64808 0.81016 0.71113 0.0
C1318 C 0.67487 0.80543 0.66415 0.0
C1319 C 0.6895 0.8059 0.63862 0.0
C1320 C 0.67619 0.82935 0.67449 0.0
C1321 C 0.70541 0.83038 0.62338 0.0
C1322 C 0.70729 0.85437 0.6339 0.0
C1323 C 0.69479 0.87814 0.67035 0.0
C1324 C 0.67939 0.87783 0.69526 0.0
C1325 C 0.69286 0.8541 0.65953 0.0
C1326 C 0.66251 0.85288 0.70958 0.0
C1327 C 0.66118 0.82899 0.69953 0.0
H1328 H 0.79352 0.65154 0.01747 0.0
H1329 H 0.83743 0.7378 0.0329 0.0
H1330 H 0.87827 0.7409 0.01118 0.0
H1331 H 0.90119 0.71934 0.9869 0.0
H1332 H 0.8576 0.63309 0.97097 0.0
H1333 H 0.81678 0.62978 0.99314 0.0
C1334 C 0.81218 0.6709 0.01641 0.0
C1335 C 0.81262 0.69439 0.02695 0.0
C1336 C 0.83546 0.6726 0.00337 0.0
C1337 C 0.8367 0.71948 0.02494 0.0
C1338 C 0.85999 0.72126 0.01247 0.0
C1339 C 0.8828 0.69978 0.9884 0.0
C1340 C 0.88247 0.67651 0.97727 0.0
C1341 C 0.85955 0.698 0.00142 0.0
C1342 C 0.85832 0.65139 0.97897 0.0
C1343 C 0.83504 0.64944 0.99192 0.0
H1344 H 0.29707 0.98734 0.44536 0.0
H1345 H 0.38086 0.05005 0.45371 0.0
H1346 H 0.37866 0.04258 0.50782 0.0
H1347 H 0.35331 0.01719 0.5524 0.0
H1348 H 0.27051 0.95241 0.54299 0.0
H1349 H 0.27216 0.9615 0.48939 0.0
C1350 C 0.315 0.99922 0.45889 0.0
C1351 C 0.33918 0.01906 0.44534 0.0
C1352 C 0.31383 0.99431 0.48974 0.0
C1353 C 0.36191 0.03481 0.46348 0.0
C1354 C 0.36075 0.03036 0.4944 0.0
C1355 C 0.33575 0.00477 0.53857 0.0
C1356 C 0.31185 0.98404 0.55172 0.0
C1357 C 0.33691 0.00993 0.50769 0.0
C1358 C 0.28908 0.96862 0.53353 0.0
C1359 C 0.29002 0.97375 0.50287 0.0
H1360 H 0.32436 0.29591 0.87547 0.0
H1361 H 0.35659 0.38139 0.89159 0.0
H1362 H 0.35185 0.38851 0.83861 0.0
H1363 H 0.33912 0.37057 0.78731 0.0
H1364 H 0.30455 0.28472 0.77218 0.0
H1365 H 0.30894 0.27762 0.82528 0.0
C1366 C 0.33004 0.31607 0.86759 0.0
C1367 C 0.34105 0.33805 0.88766 0.0
C1368 C 0.32666 0.31998 0.8372 0.0
C1369 C 0.34867 0.3641 0.87668 0.0
C1370 C 0.34568 0.3682 0.84638 0.0
C1371 C 0.33215 0.35028 0.79576 0.0
C1372 C 0.32178 0.32827 0.77579 0.0
C1373 C 0.33474 0.3463 0.8264 0.0
C1374 C 0.31303 0.30209 0.78703 0.0
C1375 C 0.3155 0.29798 0.81739 0.0
H1376 H 0.97583 0.30136 0.21854 0.0
H1377 H 0.0508 0.3772 0.20942 0.0
H1378 H 0.04469 0.37547 0.15505 0.0
H1379 H 0.01743 0.35283 0.11032 0.0
H1380 H 0.94178 0.27775 0.12004 0.0
H1381 H 0.94861 0.27897 0.17417 0.0
C1382 C 0.99075 0.31767 0.20471 0.0
C1383 C 0.01362 0.33952 0.21808 0.0
C1384 C 0.98688 0.31675 0.17364 0.0
C1385 C 0.03311 0.36008 0.19972 0.0
C1386 C 0.0295 0.3592 0.16866 0.0
C1387 C 1.00226 0.33693 0.12434 0.0
C1388 C 0.97902 0.31532 0.1112 0.0
C1389 C 0.00633 0.33776 0.15543 0.0
C1390 C 0.95988 0.29453 0.12959 0.0
C1391 C 0.96375 0.29524 0.16052 0.0
H1392 H 0.62648 0.97288 0.45954 0.0
H1393 H 0.71242 0.01158 0.44251 0.0
H1394 H 0.72191 0.02627 0.49456 0.0
H1395 H 0.70597 0.02841 0.54477 0.0
H1396 H 0.62003 0.98826 0.5626 0.0
H1397 H 0.61047 0.97491 0.51017 0.0
C1398 C 0.64726 0.98458 0.46724 0.0
C1399 C 0.66867 0.99087 0.44722 0.0
C1400 C 0.65263 0.9931 0.49723 0.0
C1401 C 0.69553 0.00595 0.45758 0.0
C1402 C 0.701 0.01461 0.48728 0.0
C1403 C 0.68512 0.01659 0.5373 0.0
C1404 C 0.66381 0.00945 0.55775 0.0
C1405 C 0.67972 0.00827 0.5073 0.0
C1406 C 0.63692 0.99455 0.54738 0.0
C1407 C 0.63139 0.98659 0.51741 0.0
H1408 H 0.68018 0.65609 0.88833 0.0
H1409 H 0.66212 0.72047 0.87609 0.0
H1410 H 0.66587 0.71773 0.82159 0.0
H1411 H 0.67591 0.6979 0.77769 0.0
H1412 H 0.69175 0.63203 0.79005 0.0
H1413 H 0.68732 0.63437 0.84443 0.0
C1414 C 0.67701 0.66944 0.87362 0.0
C1415 C 0.67114 0.68862 0.88596 0.0
C1416 C 0.67894 0.66752 0.84253 0.0
C1417 C 0.66663 0.70557 0.86691 0.0
C1418 C 0.6689 0.70407 0.83586 0.0
C1419 C 0.67839 0.68413 0.79242 0.0
C1420 C 0.68444 0.66503 0.7802 0.0
C1421 C 0.67533 0.68532 0.82347 0.0
C1422 C 0.68716 0.6469 0.79918 0.0
C1423 C 0.68466 0.64828 0.83016 0.0
H1424 H 0.01589 0.64268 0.21625 0.0
H1425 H 0.96398 0.67769 0.21412 0.0
H1426 H 0.97117 0.68499 0.16014 0.0
H1427 H 0.99363 0.683 0.11398 0.0
H1428 H 0.04669 0.64934 0.11662 0.0
H1429 H 0.03792 0.64027 0.17019 0.0
C1430 C 0.00619 0.65198 0.20399 0.0
C1431 C 0.98951 0.65973 0.21922 0.0
C1432 C 0.01085 0.6566 0.17316 0.0
C1433 C 0.97666 0.67125 0.20291 0.0
C1434 C 0.98099 0.67568 0.1721 0.0
C1435 C 0.00351 0.67396 0.12638 0.0
C1436 C 0.02099 0.66708 0.11146 0.0
C1437 C 0.99833 0.66878 0.1571 0.0
C1438 C 0.03312 0.65477 0.12762 0.0
C1439 C 0.02813 0.64961 0.15821 0.0
loop_
_geom_bond_atom_site_label_1
_geom_bond_atom_site_label_2
_geom_bond_distance
_geom_bond_site_symmetry_2
_ccdc_geom_bond_type
Li0 N17 1.990 . S
Li0 O60 1.956 . S
Li0 O61 1.970 1_565 S
Li0 O62 1.961 . S
Li1 N25 1.990 . S
Li1 O60 1.970 1_545 S
Li1 O61 1.956 . S
Li1 O63 1.961 . S
Li2 N47 1.990 . S
Li2 O60 1.961 . S
Li2 O62 1.956 . S
Li2 O63 1.970 1_565 S
Li3 N53 1.990 . S
Li3 O61 1.961 . S
Li3 O62 1.970 1_545 S
Li3 O63 1.956 . S
C4 C6 1.348 . S
C4 C7 1.356 . S
C4 O60 1.325 . S
N5 C8 1.314 . S
N5 C9 1.279 . S
C6 C4 1.348 . S
C6 C8 1.353 . S
C6 H64 0.929 . S
C7 C4 1.356 . S
C7 C9 1.358 . S
C7 H65 0.930 . S
C8 N5 1.314 . S
C8 C6 1.353 . S
C8 H66 0.930 . S
C9 N5 1.279 . S
C9 C7 1.358 . S
C9 H67 0.930 . S
C10 C13 1.348 . S
C10 C14 1.356 . S
C10 O61 1.325 . S
C11 N12 1.279 . S
C11 C14 1.358 . S
C11 H68 0.930 . S
N12 C11 1.279 . S
N12 C15 1.314 . S
C13 C10 1.348 . S
C13 C15 1.353 . S
C13 H69 0.929 . S
C14 C10 1.356 . S
C14 C11 1.358 . S
C14 H70 0.930 . S
C15 N12 1.314 . S
C15 C13 1.353 . S
C15 H71 0.930 . S
C16 N17 1.314 1_545 S
C16 C21 1.353 . S
C16 H22 0.930 . S
N17 Li0 1.990 . S
N17 C16 1.314 1_565 S
N17 C19 1.279 . S
C18 C19 1.358 . S
C18 C20 1.356 . S
C18 H72 0.930 . S
C19 N17 1.279 . S
C19 C18 1.358 . S
C19 H23 0.930 . S
C20 C18 1.356 . S
C20 C21 1.348 1_565 S
C21 C16 1.353 . S
C21 C20 1.348 1_545 S
C21 H73 0.929 . S
H22 C16 0.930 . S
H23 C19 0.930 . S
C24 N25 1.314 . S
C24 C26 1.353 . S
C24 H30 0.930 1_545 S
N25 Li1 1.990 . S
N25 C24 1.314 . S
N25 C28 1.279 . S
C26 C24 1.353 . S
C26 C29 1.348 . S
C26 H74 0.929 . S
C27 C28 1.358 . S
C27 C29 1.356 . S
C27 H75 0.930 . S
C28 N25 1.279 . S
C28 C27 1.358 . S
C28 H31 0.930 . S
C29 C26 1.348 . S
C29 C27 1.356 . S
H30 C24 0.930 1_565 S
H31 C28 0.930 . S
C32 C34 1.348 . S
C32 C35 1.356 . S
C32 O62 1.325 . S
N33 C36 1.314 . S
N33 C37 1.279 . S
C34 C32 1.348 . S
C34 C36 1.353 . S
C34 H76 0.929 1_565 S
C35 C32 1.356 . S
C35 C37 1.358 . S
C35 H77 0.930 . S
C36 N33 1.314 . S
C36 C34 1.353 . S
C36 H78 0.930 . S
C37 N33 1.279 . S
C37 C35 1.358 . S
C37 H79 0.930 . S
C38 C39 1.348 1_545 S
C38 C40 1.356 . S
C38 O63 1.325 . S
C39 C38 1.348 1_565 S
C39 C41 1.353 . S
C39 H80 0.929 . S
C40 C38 1.356 . S
C40 C42 1.358 . S
C40 H81 0.930 . S
C41 C39 1.353 . S
C41 N43 1.314 1_565 S
C41 H82 0.930 . S
C42 C40 1.358 . S
C42 N43 1.279 . S
C42 H83 0.930 . S
N43 C41 1.314 1_545 S
N43 C42 1.279 . S
C44 C46 1.353 . S
C44 N47 1.314 . S
C44 H50 0.930 . S
C45 N47 1.279 . S
C45 C48 1.358 . S
C45 H51 0.930 . S
C46 C44 1.353 . S
C46 C49 1.348 . S
C46 H84 0.929 . S
N47 Li2 1.990 . S
N47 C44 1.314 . S
N47 C45 1.279 . S
C48 C45 1.358 . S
C48 C49 1.356 . S
C48 H85 0.930 . S
C49 C46 1.348 . S
C49 C48 1.356 . S
H50 C44 0.930 . S
H51 C45 0.930 . S
C52 N53 1.314 . S
C52 C54 1.353 . S
C52 H58 0.930 . S
N53 Li3 1.990 . S
N53 C52 1.314 . S
N53 C56 1.279 . S
C54 C52 1.353 . S
C54 C57 1.348 . S
C54 H86 0.929 . S
C55 C56 1.358 . S
C55 C57 1.356 . S
C55 H87 0.930 . S
C56 N53 1.279 . S
C56 C55 1.358 . S
C56 H59 0.930 . S
C57 C54 1.348 . S
C57 C55 1.356 . S
H58 C52 0.930 . S
H59 C56 0.930 . S
O60 Li0 1.956 . S
O60 Li1 1.970 1_565 S
O60 Li2 1.961 . S
O60 C4 1.325 . S
O61 Li0 1.970 1_545 S
O61 Li1 1.956 . S
O61 Li3 1.961 . S
O61 C10 1.325 . S
O62 Li0 1.961 . S
O62 Li2 1.956 . S
O62 Li3 1.970 1_565 S
O62 C32 1.325 . S
O63 Li1 1.961 . S
O63 Li2 1.970 1_545 S
O63 Li3 1.956 . S
O63 C38 1.325 . S
H64 C6 0.929 . S
H65 C7 0.930 . S
H66 C8 0.930 . S
H67 C9 0.930 . S
H68 C11 0.930 . S
H69 C13 0.929 . S
H70 C14 0.930 . S
H71 C15 0.930 . S
H72 C18 0.930 . S
H73 C21 0.929 . S
H74 C26 0.929 . S
H75 C27 0.930 . S
H76 C34 0.929 1_545 S
H77 C35 0.930 . S
H78 C36 0.930 . S
H79 C37 0.930 . S
H80 C39 0.929 . S
H81 C40 0.930 . S
H82 C41 0.930 . S
H83 C42 0.930 . S
H84 C46 0.929 . S
H85 C48 0.930 . S
H86 C54 0.929 . S
H87 C55 0.930 . S
Li88 N105 1.990 . S
Li88 O148 1.956 . S
Li88 O149 1.970 . S
Li88 O150 1.961 . S
Li89 N113 1.990 . S
Li89 O148 1.970 . S
Li89 O149 1.956 . S
Li89 O151 1.961 . S
Li90 N135 1.990 . S
Li90 O148 1.961 . S
Li90 O150 1.956 . S
Li90 O151 1.970 . S
Li91 N141 1.990 . S
Li91 O149 1.961 . S
Li91 O150 1.970 . S
Li91 O151 1.956 . S
C92 C94 1.348 . S
C92 C95 1.356 . S
C92 O148 1.325 . S
N93 C96 1.314 . S
N93 C97 1.279 . S
C94 C92 1.348 . S
C94 C96 1.353 . S
C94 H152 0.929 . S
C95 C92 1.356 . S
C95 C97 1.358 . S
C95 H153 0.930 . S
C96 N93 1.314 . S
C96 C94 1.353 . S
C96 H154 0.930 . S
C97 N93 1.279 . S
C97 C95 1.358 . S
C97 H155 0.930 . S
C98 C101 1.348 . S
C98 C102 1.356 . S
C98 O149 1.325 . S
C99 N100 1.279 . S
C99 C102 1.358 . S
C99 H156 0.930 . S
N100 C99 1.279 . S
N100 C103 1.314 . S
C101 C98 1.348 . S
C101 C103 1.353 . S
C101 H157 0.929 . S
C102 C98 1.356 . S
C102 C99 1.358 . S
C102 H158 0.930 . S
C103 N100 1.314 . S
C103 C101 1.353 . S
C103 H159 0.930 . S
C104 N105 1.314 . S
C104 C109 1.353 . S
C104 H110 0.930 . S
N105 Li88 1.990 . S
N105 C104 1.314 . S
N105 C107 1.279 . S
C106 C107 1.358 . S
C106 C108 1.356 . S
C106 H160 0.930 . S
C107 N105 1.279 . S
C107 C106 1.358 . S
C107 H111 0.930 . S
C108 C106 1.356 . S
C108 C109 1.348 . S
C109 C104 1.353 . S
C109 C108 1.348 . S
C109 H161 0.929 . S
H110 C104 0.930 . S
H111 C107 0.930 . S
C112 N113 1.314 . S
C112 C114 1.353 . S
C112 H118 0.930 . S
N113 Li89 1.990 . S
N113 C112 1.314 . S
N113 C116 1.279 . S
C114 C112 1.353 . S
C114 C117 1.348 . S
C114 H162 0.929 . S
C115 C116 1.358 . S
C115 C117 1.356 . S
C115 H163 0.930 . S
C116 N113 1.279 . S
C116 C115 1.358 . S
C116 H119 0.930 . S
C117 C114 1.348 . S
C117 C115 1.356 . S
H118 C112 0.930 . S
H119 C116 0.930 . S
C120 C122 1.348 . S
C120 C123 1.356 . S
C120 O150 1.325 . S
N121 C124 1.314 . S
N121 C125 1.279 . S
C122 C120 1.348 . S
C122 C124 1.353 . S
C122 H164 0.929 . S
C123 C120 1.356 . S
C123 C125 1.358 . S
C123 H165 0.930 . S
C124 N121 1.314 . S
C124 C122 1.353 . S
C124 H166 0.930 . S
C125 N121 1.279 . S
C125 C123 1.358 . S
C125 H167 0.930 . S
C126 C127 1.348 . S
C126 C128 1.356 . S
C126 O151 1.325 . S
C127 C126 1.348 . S
C127 C129 1.353 . S
C127 H168 0.929 . S
C128 C126 1.356 . S
C128 C130 1.358 . S
C128 H169 0.930 . S
C129 C127 1.353 . S
C129 N131 1.314 . S
C129 H170 0.930 . S
C130 C128 1.358 . S
C130 N131 1.279 . S
C130 H171 0.930 . S
N131 C129 1.314 . S
N131 C130 1.279 . S
C132 C134 1.353 . S
C132 N135 1.314 . S
C132 H138 0.930 . S
C133 N135 1.279 . S
C133 C136 1.358 . S
C133 H139 0.930 . S
C134 C132 1.353 . S
C134 C137 1.348 . S
C134 H172 0.929 . S
N135 Li90 1.990 . S
N135 C132 1.314 . S
N135 C133 1.279 . S
C136 C133 1.358 . S
C136 C137 1.356 . S
C136 H173 0.930 . S
C137 C134 1.348 . S
C137 C136 1.356 . S
H138 C132 0.930 . S
H139 C133 0.930 . S
C140 N141 1.314 . S
C140 C142 1.353 . S
C140 H146 0.930 . S
N141 Li91 1.990 . S
N141 C140 1.314 . S
N141 C144 1.279 . S
C142 C140 1.353 . S
C142 C145 1.348 . S
C142 H174 0.929 . S
C143 C144 1.358 . S
C143 C145 1.356 . S
C143 H175 0.930 . S
C144 N141 1.279 . S
C144 C143 1.358 . S
C144 H147 0.930 . S
C145 C142 1.348 . S
C145 C143 1.356 . S
H146 C140 0.930 . S
H147 C144 0.930 . S
O148 Li88 1.956 . S
O148 Li89 1.970 . S
O148 Li90 1.961 . S
O148 C92 1.325 . S
O149 Li88 1.970 . S
O149 Li89 1.956 . S
O149 Li91 1.961 . S
O149 C98 1.325 . S
O150 Li88 1.961 . S
O150 Li90 1.956 . S
O150 Li91 1.970 . S
O150 C120 1.325 . S
O151 Li89 1.961 . S
O151 Li90 1.970 . S
O151 Li91 1.956 . S
O151 C126 1.325 . S
H152 C94 0.929 . S
H153 C95 0.930 . S
H154 C96 0.930 . S
H155 C97 0.930 . S
H156 C99 0.930 . S
H157 C101 0.929 . S
H158 C102 0.930 . S
H159 C103 0.930 . S
H160 C106 0.930 . S
H161 C109 0.929 . S
H162 C114 0.929 . S
H163 C115 0.930 . S
H164 C122 0.929 . S
H165 C123 0.930 . S
H166 C124 0.930 . S
H167 C125 0.930 . S
H168 C127 0.929 . S
H169 C128 0.930 . S
H170 C129 0.930 . S
H171 C130 0.930 . S
H172 C134 0.929 . S
H173 C136 0.930 . S
H174 C142 0.929 . S
H175 C143 0.930 . S
Li176 N193 1.990 . S
Li176 O236 1.956 . S
Li176 O237 1.970 1_455 S
Li176 O238 1.961 . S
Li177 N201 1.990 1_556 S
Li177 O236 1.970 1_655 S
Li177 O237 1.956 . S
Li177 O239 1.961 . S
Li178 N223 1.990 . S
Li178 O236 1.961 . S
Li178 O238 1.956 . S
Li178 O239 1.970 1_455 S
Li179 N229 1.990 . S
Li179 O237 1.961 . S
Li179 O238 1.970 1_655 S
Li179 O239 1.956 . S
C180 C182 1.348 1_556 S
C180 C183 1.356 . S
C180 O236 1.325 . S
N181 C184 1.314 . S
N181 C185 1.279 . S
C182 C180 1.348 1_554 S
C182 C184 1.353 . S
C182 H240 0.929 . S
C183 C180 1.356 . S
C183 C185 1.358 1_556 S
C183 H241 0.930 . S
C184 N181 1.314 . S
C184 C182 1.353 . S
C184 H242 0.930 . S
C185 N181 1.279 . S
C185 C183 1.358 1_554 S
C185 H243 0.930 1_554 S
C186 C189 1.348 . S
C186 C190 1.356 . S
C186 O237 1.325 . S
C187 N188 1.279 . S
C187 C190 1.358 . S
C187 H244 0.930 . S
N188 C187 1.279 . S
N188 C191 1.314 . S
C189 C186 1.348 . S
C189 C191 1.353 . S
C189 H245 0.929 . S
C190 C186 1.356 . S
C190 C187 1.358 . S
C190 H246 0.930 . S
C191 N188 1.314 . S
C191 C189 1.353 . S
C191 H247 0.930 . S
C192 N193 1.314 1_655 S
C192 C197 1.353 . S
C192 H198 0.930 . S
N193 Li176 1.990 . S
N193 C192 1.314 1_455 S
N193 C195 1.279 . S
C194 C195 1.358 . S
C194 C196 1.356 . S
C194 H248 0.930 . S
C195 N193 1.279 . S
C195 C194 1.358 . S
C195 H199 0.930 . S
C196 C194 1.356 . S
C196 C197 1.348 1_455 S
C197 C192 1.353 . S
C197 C196 1.348 1_655 S
C197 H249 0.929 . S
H198 C192 0.930 . S
H199 C195 0.930 . S
C200 N201 1.314 . S
C200 C202 1.353 . S
C200 H206 0.930 1_655 S
N201 Li177 1.990 1_554 S
N201 C200 1.314 . S
N201 C204 1.279 . S
C202 C200 1.353 . S
C202 C205 1.348 . S
C202 H250 0.929 . S
C203 C204 1.358 . S
C203 C205 1.356 . S
C203 H251 0.930 . S
C204 N201 1.279 . S
C204 C203 1.358 . S
C204 H207 0.930 . S
C205 C202 1.348 . S
C205 C203 1.356 . S
H206 C200 0.930 1_455 S
H207 C204 0.930 . S
C208 C210 1.348 . S
C208 C211 1.356 . S
C208 O238 1.325 . S
N209 C212 1.314 . S
N209 C213 1.279 . S
C210 C208 1.348 . S
C210 C212 1.353 . S
C210 H252 0.929 1_455 S
C211 C208 1.356 . S
C211 C213 1.358 . S
C211 H253 0.930 . S
C212 N209 1.314 . S
C212 C210 1.353 . S
C212 H254 0.930 . S
C213 N209 1.279 . S
C213 C211 1.358 . S
C213 H255 0.930 . S
C214 C215 1.348 1_655 S
C214 C216 1.356 . S
C214 O239 1.325 . S
C215 C214 1.348 1_455 S
C215 C217 1.353 . S
C215 H256 0.929 . S
C216 C214 1.356 . S
C216 C218 1.358 . S
C216 H257 0.930 . S
C217 C215 1.353 . S
C217 N219 1.314 1_455 S
C217 H258 0.930 . S
C218 C216 1.358 . S
C218 N219 1.279 . S
C218 H259 0.930 1_556 S
N219 C217 1.314 1_655 S
N219 C218 1.279 . S
C220 C222 1.353 . S
C220 N223 1.314 . S
C220 H226 0.930 . S
C221 N223 1.279 . S
C221 C224 1.358 . S
C221 H227 0.930 . S
C222 C220 1.353 . S
C222 C225 1.348 . S
C222 H260 0.929 . S
N223 Li178 1.990 . S
N223 C220 1.314 . S
N223 C221 1.279 . S
C224 C221 1.358 . S
C224 C225 1.356 . S
C224 H261 0.930 . S
C225 C222 1.348 . S
C225 C224 1.356 . S
H226 C220 0.930 . S
H227 C221 0.930 . S
C228 N229 1.314 . S
C228 C230 1.353 . S
C228 H234 0.930 . S
N229 Li179 1.990 . S
N229 C228 1.314 . S
N229 C232 1.279 . S
C230 C228 1.353 . S
C230 C233 1.348 . S
C230 H262 0.929 . S
C231 C232 1.358 . S
C231 C233 1.356 . S
C231 H263 0.930 . S
C232 N229 1.279 . S
C232 C231 1.358 . S
C232 H235 0.930 . S
C233 C230 1.348 . S
C233 C231 1.356 . S
H234 C228 0.930 . S
H235 C232 0.930 . S
O236 Li176 1.956 . S
O236 Li177 1.970 1_455 S
O236 Li178 1.961 . S
O236 C180 1.325 . S
O237 Li176 1.970 1_655 S
O237 Li177 1.956 . S
O237 Li179 1.961 . S
O237 C186 1.325 . S
O238 Li176 1.961 . S
O238 Li178 1.956 . S
O238 Li179 1.970 1_455 S
O238 C208 1.325 . S
O239 Li177 1.961 . S
O239 Li178 1.970 1_655 S
O239 Li179 1.956 . S
O239 C214 1.325 . S
H240 C182 0.929 . S
H241 C183 0.930 . S
H242 C184 0.930 . S
H243 C185 0.930 1_556 S
H244 C187 0.930 . S
H245 C189 0.929 . S
H246 C190 0.930 . S
H247 C191 0.930 . S
H248 C194 0.930 . S
H249 C197 0.929 . S
H250 C202 0.929 . S
H251 C203 0.930 . S
H252 C210 0.929 1_655 S
H253 C211 0.930 . S
H254 C212 0.930 . S
H255 C213 0.930 . S
H256 C215 0.929 . S
H257 C216 0.930 . S
H258 C217 0.930 . S
H259 C218 0.930 1_554 S
H260 C222 0.929 . S
H261 C224 0.930 . S
H262 C230 0.929 . S
H263 C231 0.930 . S
Li264 N281 1.990 . S
Li264 O324 1.956 . S
Li264 O325 1.970 1_545 S
Li264 O326 1.961 . S
Li265 N289 1.990 . S
Li265 O324 1.970 1_565 S
Li265 O325 1.956 . S
Li265 O327 1.961 . S
Li266 N311 1.990 . S
Li266 O324 1.961 . S
Li266 O326 1.956 . S
Li266 O327 1.970 1_545 S
Li267 N317 1.990 . S
Li267 O325 1.961 . S
Li267 O326 1.970 1_565 S
Li267 O327 1.956 . S
C268 C270 1.348 . S
C268 C271 1.356 . S
C268 O324 1.325 . S
N269 C272 1.314 . S
N269 C273 1.279 . S
C270 C268 1.348 . S
C270 C272 1.353 . S
C270 H328 0.929 . S
C271 C268 1.356 . S
C271 C273 1.358 . S
C271 H329 0.930 . S
C272 N269 1.314 . S
C272 C270 1.353 . S
C272 H330 0.930 . S
C273 N269 1.279 . S
C273 C271 1.358 . S
C273 H331 0.930 . S
C274 C277 1.348 . S
C274 C278 1.356 . S
C274 O325 1.325 . S
C275 N276 1.279 . S
C275 C278 1.358 . S
C275 H332 0.930 . S
N276 C275 1.279 . S
N276 C279 1.314 . S
C277 C274 1.348 . S
C277 C279 1.353 . S
C277 H333 0.929 . S
C278 C274 1.356 . S
C278 C275 1.358 . S
C278 H334 0.930 . S
C279 N276 1.314 . S
C279 C277 1.353 . S
C279 H335 0.930 . S
C280 N281 1.314 1_565 S
C280 C285 1.353 . S
C280 H286 0.930 . S
N281 Li264 1.990 . S
N281 C280 1.314 1_545 S
N281 C283 1.279 . S
C282 C283 1.358 . S
C282 C284 1.356 . S
C282 H336 0.930 . S
C283 N281 1.279 . S
C283 C282 1.358 . S
C283 H287 0.930 . S
C284 C282 1.356 . S
C284 C285 1.348 1_545 S
C285 C280 1.353 . S
C285 C284 1.348 1_565 S
C285 H337 0.929 . S
H286 C280 0.930 . S
H287 C283 0.930 . S
C288 N289 1.314 . S
C288 C290 1.353 . S
C288 H294 0.930 1_565 S
N289 Li265 1.990 . S
N289 C288 1.314 . S
N289 C292 1.279 . S
C290 C288 1.353 . S
C290 C293 1.348 . S
C290 H338 0.929 . S
C291 C292 1.358 . S
C291 C293 1.356 . S
C291 H339 0.930 . S
C292 N289 1.279 . S
C292 C291 1.358 . S
C292 H295 0.930 . S
C293 C290 1.348 . S
C293 C291 1.356 . S
H294 C288 0.930 1_545 S
H295 C292 0.930 . S
C296 C298 1.348 . S
C296 C299 1.356 . S
C296 O326 1.325 . S
N297 C300 1.314 . S
N297 C301 1.279 . S
C298 C296 1.348 . S
C298 C300 1.353 . S
C298 H340 0.929 1_545 S
C299 C296 1.356 . S
C299 C301 1.358 . S
C299 H341 0.930 . S
C300 N297 1.314 . S
C300 C298 1.353 . S
C300 H342 0.930 . S
C301 N297 1.279 . S
C301 C299 1.358 . S
C301 H343 0.930 . S
C302 C303 1.348 1_565 S
C302 C304 1.356 . S
C302 O327 1.325 . S
C303 C302 1.348 1_545 S
C303 C305 1.353 . S
C303 H344 0.929 . S
C304 C302 1.356 . S
C304 C306 1.358 . S
C304 H345 0.930 . S
C305 C303 1.353 . S
C305 N307 1.314 1_545 S
C305 H346 0.930 . S
C306 C304 1.358 . S
C306 N307 1.279 . S
C306 H347 0.930 . S
N307 C305 1.314 1_565 S
N307 C306 1.279 . S
C308 C310 1.353 . S
C308 N311 1.314 . S
C308 H314 0.930 . S
C309 N311 1.279 . S
C309 C312 1.358 . S
C309 H315 0.930 . S
C310 C308 1.353 . S
C310 C313 1.348 . S
C310 H348 0.929 . S
N311 Li266 1.990 . S
N311 C308 1.314 . S
N311 C309 1.279 . S
C312 C309 1.358 . S
C312 C313 1.356 . S
C312 H349 0.930 . S
C313 C310 1.348 . S
C313 C312 1.356 . S
H314 C308 0.930 . S
H315 C309 0.930 . S
C316 N317 1.314 . S
C316 C318 1.353 . S
C316 H322 0.930 . S
N317 Li267 1.990 . S
N317 C316 1.314 . S
N317 C320 1.279 . S
C318 C316 1.353 . S
C318 C321 1.348 . S
C318 H350 0.929 . S
C319 C320 1.358 . S
C319 C321 1.356 . S
C319 H351 0.930 . S
C320 N317 1.279 . S
C320 C319 1.358 . S
C320 H323 0.930 . S
C321 C318 1.348 . S
C321 C319 1.356 . S
H322 C316 0.930 . S
H323 C320 0.930 . S
O324 Li264 1.956 . S
O324 Li265 1.970 1_545 S
O324 Li266 1.961 . S
O324 C268 1.325 . S
O325 Li264 1.970 1_565 S
O325 Li265 1.956 . S
O325 Li267 1.961 . S
O325 C274 1.325 . S
O326 Li264 1.961 . S
O326 Li266 1.956 . S
O326 Li267 1.970 1_545 S
O326 C296 1.325 . S
O327 Li265 1.961 . S
O327 Li266 1.970 1_565 S
O327 Li267 1.956 . S
O327 C302 1.325 . S
H328 C270 0.929 . S
H329 C271 0.930 . S
H330 C272 0.930 . S
H331 C273 0.930 . S
H332 C275 0.930 . S
H333 C277 0.929 . S
H334 C278 0.930 . S
H335 C279 0.930 . S
H336 C282 0.930 . S
H337 C285 0.929 . S
H338 C290 0.929 . S
H339 C291 0.930 . S
H340 C298 0.929 1_565 S
H341 C299 0.930 . S
H342 C300 0.930 . S
H343 C301 0.930 . S
H344 C303 0.929 . S
H345 C304 0.930 . S
H346 C305 0.930 . S
H347 C306 0.930 . S
H348 C310 0.929 . S
H349 C312 0.930 . S
H350 C318 0.929 . S
H351 C319 0.930 . S
Li352 N369 1.990 . S
Li352 O412 1.956 . S
Li352 O413 1.970 . S
Li352 O414 1.961 . S
Li353 N377 1.990 . S
Li353 O412 1.970 . S
Li353 O413 1.956 . S
Li353 O415 1.961 . S
Li354 N399 1.990 . S
Li354 O412 1.961 . S
Li354 O414 1.956 . S
Li354 O415 1.970 . S
Li355 N405 1.990 . S
Li355 O413 1.961 . S
Li355 O414 1.970 . S
Li355 O415 1.956 . S
C356 C358 1.348 . S
C356 C359 1.356 . S
C356 O412 1.325 . S
N357 C360 1.314 . S
N357 C361 1.279 . S
C358 C356 1.348 . S
C358 C360 1.353 . S
C358 H416 0.929 . S
C359 C356 1.356 . S
C359 C361 1.358 . S
C359 H417 0.930 . S
C360 N357 1.314 . S
C360 C358 1.353 . S
C360 H418 0.930 . S
C361 N357 1.279 . S
C361 C359 1.358 . S
C361 H419 0.930 . S
C362 C365 1.348 . S
C362 C366 1.356 . S
C362 O413 1.325 . S
C363 N364 1.279 . S
C363 C366 1.358 . S
C363 H420 0.930 . S
N364 C363 1.279 . S
N364 C367 1.314 . S
C365 C362 1.348 . S
C365 C367 1.353 . S
C365 H421 0.929 . S
C366 C362 1.356 . S
C366 C363 1.358 . S
C366 H422 0.930 . S
C367 N364 1.314 . S
C367 C365 1.353 . S
C367 H423 0.930 . S
C368 N369 1.314 . S
C368 C373 1.353 . S
C368 H374 0.930 . S
N369 Li352 1.990 . S
N369 C368 1.314 . S
N369 C371 1.279 . S
C370 C371 1.358 . S
C370 C372 1.356 . S
C370 H424 0.930 . S
C371 N369 1.279 . S
C371 C370 1.358 . S
C371 H375 0.930 . S
C372 C370 1.356 . S
C372 C373 1.348 . S
C373 C368 1.353 . S
C373 C372 1.348 . S
C373 H425 0.929 . S
H374 C368 0.930 . S
H375 C371 0.930 . S
C376 N377 1.314 . S
C376 C378 1.353 . S
C376 H382 0.930 . S
N377 Li353 1.990 . S
N377 C376 1.314 . S
N377 C380 1.279 . S
C378 C376 1.353 . S
C378 C381 1.348 . S
C378 H426 0.929 . S
C379 C380 1.358 . S
C379 C381 1.356 . S
C379 H427 0.930 . S
C380 N377 1.279 . S
C380 C379 1.358 . S
C380 H383 0.930 . S
C381 C378 1.348 . S
C381 C379 1.356 . S
H382 C376 0.930 . S
H383 C380 0.930 . S
C384 C386 1.348 . S
C384 C387 1.356 . S
C384 O414 1.325 . S
N385 C388 1.314 . S
N385 C389 1.279 . S
C386 C384 1.348 . S
C386 C388 1.353 . S
C386 H428 0.929 . S
C387 C384 1.356 . S
C387 C389 1.358 . S
C387 H429 0.930 . S
C388 N385 1.314 . S
C388 C386 1.353 . S
C388 H430 0.930 . S
C389 N385 1.279 . S
C389 C387 1.358 . S
C389 H431 0.930 . S
C390 C391 1.348 . S
C390 C392 1.356 . S
C390 O415 1.325 . S
C391 C390 1.348 . S
C391 C393 1.353 . S
C391 H432 0.929 . S
C392 C390 1.356 . S
C392 C394 1.358 . S
C392 H433 0.930 . S
C393 C391 1.353 . S
C393 N395 1.314 . S
C393 H434 0.930 . S
C394 C392 1.358 . S
C394 N395 1.279 . S
C394 H435 0.930 . S
N395 C393 1.314 . S
N395 C394 1.279 . S
C396 C398 1.353 . S
C396 N399 1.314 . S
C396 H402 0.930 . S
C397 N399 1.279 . S
C397 C400 1.358 . S
C397 H403 0.930 . S
C398 C396 1.353 . S
C398 C401 1.348 . S
C398 H436 0.929 . S
N399 Li354 1.990 . S
N399 C396 1.314 . S
N399 C397 1.279 . S
C400 C397 1.358 . S
C400 C401 1.356 . S
C400 H437 0.930 . S
C401 C398 1.348 . S
C401 C400 1.356 . S
H402 C396 0.930 . S
H403 C397 0.930 . S
C404 N405 1.314 . S
C404 C406 1.353 . S
C404 H410 0.930 . S
N405 Li355 1.990 . S
N405 C404 1.314 . S
N405 C408 1.279 . S
C406 C404 1.353 . S
C406 C409 1.348 . S
C406 H438 0.929 . S
C407 C408 1.358 . S
C407 C409 1.356 . S
C407 H439 0.930 . S
C408 N405 1.279 . S
C408 C407 1.358 . S
C408 H411 0.930 . S
C409 C406 1.348 . S
C409 C407 1.356 . S
H410 C404 0.930 . S
H411 C408 0.930 . S
O412 Li352 1.956 . S
O412 Li353 1.970 . S
O412 Li354 1.961 . S
O412 C356 1.325 . S
O413 Li352 1.970 . S
O413 Li353 1.956 . S
O413 Li355 1.961 . S
O413 C362 1.325 . S
O414 Li352 1.961 . S
O414 Li354 1.956 . S
O414 Li355 1.970 . S
O414 C384 1.325 . S
O415 Li353 1.961 . S
O415 Li354 1.970 . S
O415 Li355 1.956 . S
O415 C390 1.325 . S
H416 C358 0.929 . S
H417 C359 0.930 . S
H418 C360 0.930 . S
H419 C361 0.930 . S
H420 C363 0.930 . S
H421 C365 0.929 . S
H422 C366 0.930 . S
H423 C367 0.930 . S
H424 C370 0.930 . S
H425 C373 0.929 . S
H426 C378 0.929 . S
H427 C379 0.930 . S
H428 C386 0.929 . S
H429 C387 0.930 . S
H430 C388 0.930 . S
H431 C389 0.930 . S
H432 C391 0.929 . S
H433 C392 0.930 . S
H434 C393 0.930 . S
H435 C394 0.930 . S
H436 C398 0.929 . S
H437 C400 0.930 . S
H438 C406 0.929 . S
H439 C407 0.930 . S
Li440 N457 1.990 . S
Li440 O500 1.956 . S
Li440 O501 1.970 1_655 S
Li440 O502 1.961 . S
Li441 N465 1.990 1_556 S
Li441 O500 1.970 1_455 S
Li441 O501 1.956 . S
Li441 O503 1.961 . S
Li442 N487 1.990 . S
Li442 O500 1.961 . S
Li442 O502 1.956 . S
Li442 O503 1.970 1_655 S
Li443 N493 1.990 . S
Li443 O501 1.961 . S
Li443 O502 1.970 1_455 S
Li443 O503 1.956 . S
C444 C446 1.348 1_556 S
C444 C447 1.356 . S
C444 O500 1.325 . S
N445 C448 1.314 . S
N445 C449 1.279 . S
C446 C444 1.348 1_554 S
C446 C448 1.353 . S
C446 H504 0.929 . S
C447 C444 1.356 . S
C447 C449 1.358 1_556 S
C447 H505 0.930 . S
C448 N445 1.314 . S
C448 C446 1.353 . S
C448 H506 0.930 . S
C449 N445 1.279 . S
C449 C447 1.358 1_554 S
C449 H507 0.930 1_554 S
C450 C453 1.348 . S
C450 C454 1.356 . S
C450 O501 1.325 . S
C451 N452 1.279 . S
C451 C454 1.358 . S
C451 H508 0.930 . S
N452 C451 1.279 . S
N452 C455 1.314 . S
C453 C450 1.348 . S
C453 C455 1.353 . S
C453 H509 0.929 . S
C454 C450 1.356 . S
C454 C451 1.358 . S
C454 H510 0.930 . S
C455 N452 1.314 . S
C455 C453 1.353 . S
C455 H511 0.930 . S
C456 N457 1.314 1_455 S
C456 C461 1.353 . S
C456 H462 0.930 . S
N457 Li440 1.990 . S
N457 C456 1.314 1_655 S
N457 C459 1.279 . S
C458 C459 1.358 . S
C458 C460 1.356 . S
C458 H512 0.930 . S
C459 N457 1.279 . S
C459 C458 1.358 . S
C459 H463 0.930 . S
C460 C458 1.356 . S
C460 C461 1.348 1_655 S
C461 C456 1.353 . S
C461 C460 1.348 1_455 S
C461 H513 0.929 . S
H462 C456 0.930 . S
H463 C459 0.930 . S
C464 N465 1.314 . S
C464 C466 1.353 . S
C464 H470 0.930 1_455 S
N465 Li441 1.990 1_554 S
N465 C464 1.314 . S
N465 C468 1.279 . S
C466 C464 1.353 . S
C466 C469 1.348 . S
C466 H514 0.929 . S
C467 C468 1.358 . S
C467 C469 1.356 . S
C467 H515 0.930 . S
C468 N465 1.279 . S
C468 C467 1.358 . S
C468 H471 0.930 . S
C469 C466 1.348 . S
C469 C467 1.356 . S
H470 C464 0.930 1_655 S
H471 C468 0.930 . S
C472 C474 1.348 . S
C472 C475 1.356 . S
C472 O502 1.325 . S
N473 C476 1.314 . S
N473 C477 1.279 . S
C474 C472 1.348 . S
C474 C476 1.353 . S
C474 H516 0.929 1_655 S
C475 C472 1.356 . S
C475 C477 1.358 . S
C475 H517 0.930 . S
C476 N473 1.314 . S
C476 C474 1.353 . S
C476 H518 0.930 . S
C477 N473 1.279 . S
C477 C475 1.358 . S
C477 H519 0.930 . S
C478 C479 1.348 1_455 S
C478 C480 1.356 . S
C478 O503 1.325 . S
C479 C478 1.348 1_655 S
C479 C481 1.353 . S
C479 H520 0.929 . S
C480 C478 1.356 . S
C480 C482 1.358 . S
C480 H521 0.930 . S
C481 C479 1.353 . S
C481 N483 1.314 1_655 S
C481 H522 0.930 . S
C482 C480 1.358 . S
C482 N483 1.279 . S
C482 H523 0.930 1_556 S
N483 C481 1.314 1_455 S
N483 C482 1.279 . S
C484 C486 1.353 . S
C484 N487 1.314 . S
C484 H490 0.930 . S
C485 N487 1.279 . S
C485 C488 1.358 . S
C485 H491 0.930 . S
C486 C484 1.353 . S
C486 C489 1.348 . S
C486 H524 0.929 . S
N487 Li442 1.990 . S
N487 C484 1.314 . S
N487 C485 1.279 . S
C488 C485 1.358 . S
C488 C489 1.356 . S
C488 H525 0.930 . S
C489 C486 1.348 . S
C489 C488 1.356 . S
H490 C484 0.930 . S
H491 C485 0.930 . S
C492 N493 1.314 . S
C492 C494 1.353 . S
C492 H498 0.930 . S
N493 Li443 1.990 . S
N493 C492 1.314 . S
N493 C496 1.279 . S
C494 C492 1.353 . S
C494 C497 1.348 . S
C494 H526 0.929 . S
C495 C496 1.358 . S
C495 C497 1.356 . S
C495 H527 0.930 . S
C496 N493 1.279 . S
C496 C495 1.358 . S
C496 H499 0.930 . S
C497 C494 1.348 . S
C497 C495 1.356 . S
H498 C492 0.930 . S
H499 C496 0.930 . S
O500 Li440 1.956 . S
O500 Li441 1.970 1_655 S
O500 Li442 1.961 . S
O500 C444 1.325 . S
O501 Li440 1.970 1_455 S
O501 Li441 1.956 . S
O501 Li443 1.961 . S
O501 C450 1.325 . S
O502 Li440 1.961 . S
O502 Li442 1.956 . S
O502 Li443 1.970 1_655 S
O502 C472 1.325 . S
O503 Li441 1.961 . S
O503 Li442 1.970 1_455 S
O503 Li443 1.956 . S
O503 C478 1.325 . S
H504 C446 0.929 . S
H505 C447 0.930 . S
H506 C448 0.930 . S
H507 C449 0.930 1_556 S
H508 C451 0.930 . S
H509 C453 0.929 . S
H510 C454 0.930 . S
H511 C455 0.930 . S
H512 C458 0.930 . S
H513 C461 0.929 . S
H514 C466 0.929 . S
H515 C467 0.930 . S
H516 C474 0.929 1_455 S
H517 C475 0.930 . S
H518 C476 0.930 . S
H519 C477 0.930 . S
H520 C479 0.929 . S
H521 C480 0.930 . S
H522 C481 0.930 . S
H523 C482 0.930 1_554 S
H524 C486 0.929 . S
H525 C488 0.930 . S
H526 C494 0.929 . S
H527 C495 0.930 . S
Li528 N545 1.990 . S
Li528 O588 1.956 . S
Li528 O589 1.970 1_455 S
Li528 O590 1.961 . S
Li529 N553 1.990 . S
Li529 O588 1.970 1_655 S
Li529 O589 1.956 . S
Li529 O591 1.961 . S
Li530 N575 1.990 . S
Li530 O588 1.961 . S
Li530 O590 1.956 . S
Li530 O591 1.970 1_455 S
Li531 N581 1.990 . S
Li531 O589 1.961 . S
Li531 O590 1.970 1_655 S
Li531 O591 1.956 . S
C532 C534 1.348 . S
C532 C535 1.356 . S
C532 O588 1.325 . S
N533 C536 1.314 . S
N533 C537 1.279 . S
C534 C532 1.348 . S
C534 C536 1.353 . S
C534 H592 0.929 1_455 S
C535 C532 1.356 . S
C535 C537 1.358 . S
C535 H593 0.930 . S
C536 N533 1.314 . S
C536 C534 1.353 . S
C536 H594 0.930 . S
C537 N533 1.279 . S
C537 C535 1.358 . S
C537 H595 0.930 . S
C538 C541 1.348 1_655 S
C538 C542 1.356 . S
C538 O589 1.325 . S
C539 N540 1.279 . S
C539 C542 1.358 . S
C539 H596 0.930 . S
N540 C539 1.279 . S
N540 C543 1.314 1_655 S
C541 C538 1.348 1_455 S
C541 C543 1.353 . S
C541 H597 0.929 . S
C542 C538 1.356 . S
C542 C539 1.358 . S
C542 H598 0.930 . S
C543 N540 1.314 1_455 S
C543 C541 1.353 . S
C543 H599 0.930 . S
C544 N545 1.314 . S
C544 C549 1.353 . S
C544 H550 0.930 . S
N545 Li528 1.990 . S
N545 C544 1.314 . S
N545 C547 1.279 . S
C546 C547 1.358 . S
C546 C548 1.356 . S
C546 H600 0.930 . S
C547 N545 1.279 . S
C547 C546 1.358 . S
C547 H551 0.930 . S
C548 C546 1.356 . S
C548 C549 1.348 . S
C549 C544 1.353 . S
C549 C548 1.348 . S
C549 H601 0.929 . S
H550 C544 0.930 . S
H551 C547 0.930 . S
C552 N553 1.314 . S
C552 C554 1.353 . S
C552 H558 0.930 . S
N553 Li529 1.990 . S
N553 C552 1.314 . S
N553 C556 1.279 . S
C554 C552 1.353 . S
C554 C557 1.348 . S
C554 H602 0.929 . S
C555 C556 1.358 . S
C555 C557 1.356 . S
C555 H603 0.930 . S
C556 N553 1.279 . S
C556 C555 1.358 . S
C556 H559 0.930 . S
C557 C554 1.348 . S
C557 C555 1.356 . S
H558 C552 0.930 . S
H559 C556 0.930 . S
C560 C562 1.348 . S
C560 C563 1.356 . S
C560 O590 1.325 . S
N561 C564 1.314 . S
N561 C565 1.279 . S
C562 C560 1.348 . S
C562 C564 1.353 . S
C562 H604 0.929 . S
C563 C560 1.356 . S
C563 C565 1.358 . S
C563 H605 0.930 . S
C564 N561 1.314 . S
C564 C562 1.353 . S
C564 H606 0.930 . S
C565 N561 1.279 . S
C565 C563 1.358 . S
C565 H607 0.930 . S
C566 C567 1.348 . S
C566 C568 1.356 . S
C566 O591 1.325 . S
C567 C566 1.348 . S
C567 C569 1.353 . S
C567 H608 0.929 . S
C568 C566 1.356 . S
C568 C570 1.358 . S
C568 H609 0.930 . S
C569 C567 1.353 . S
C569 N571 1.314 . S
C569 H610 0.930 . S
C570 C568 1.358 . S
C570 N571 1.279 . S
C570 H611 0.930 . S
N571 C569 1.314 . S
N571 C570 1.279 . S
C572 C574 1.353 . S
C572 N575 1.314 1_655 S
C572 H578 0.930 . S
C573 N575 1.279 . S
C573 C576 1.358 . S
C573 H579 0.930 . S
C574 C572 1.353 . S
C574 C577 1.348 1_655 S
C574 H612 0.929 . S
N575 Li530 1.990 . S
N575 C572 1.314 1_455 S
N575 C573 1.279 . S
C576 C573 1.358 . S
C576 C577 1.356 . S
C576 H613 0.930 . S
C577 C574 1.348 1_455 S
C577 C576 1.356 . S
H578 C572 0.930 . S
H579 C573 0.930 . S
C580 N581 1.314 . S
C580 C582 1.353 . S
C580 H586 0.930 1_655 S
N581 Li531 1.990 . S
N581 C580 1.314 . S
N581 C584 1.279 . S
C582 C580 1.353 . S
C582 C585 1.348 . S
C582 H614 0.929 . S
C583 C584 1.358 . S
C583 C585 1.356 . S
C583 H615 0.930 . S
C584 N581 1.279 . S
C584 C583 1.358 . S
C584 H587 0.930 . S
C585 C582 1.348 . S
C585 C583 1.356 . S
H586 C580 0.930 1_455 S
H587 C584 0.930 . S
O588 Li528 1.956 . S
O588 Li529 1.970 1_455 S
O588 Li530 1.961 . S
O588 C532 1.325 . S
O589 Li528 1.970 1_655 S
O589 Li529 1.956 . S
O589 Li531 1.961 . S
O589 C538 1.325 . S
O590 Li528 1.961 . S
O590 Li530 1.956 . S
O590 Li531 1.970 1_455 S
O590 C560 1.325 . S
O591 Li529 1.961 . S
O591 Li530 1.970 1_655 S
O591 Li531 1.956 . S
O591 C566 1.325 . S
H592 C534 0.929 1_655 S
H593 C535 0.930 . S
H594 C536 0.930 . S
H595 C537 0.930 . S
H596 C539 0.930 . S
H597 C541 0.929 . S
H598 C542 0.930 . S
H599 C543 0.930 . S
H600 C546 0.930 . S
H601 C549 0.929 . S
H602 C554 0.929 . S
H603 C555 0.930 . S
H604 C562 0.929 . S
H605 C563 0.930 . S
H606 C564 0.930 . S
H607 C565 0.930 . S
H608 C567 0.929 . S
H609 C568 0.930 . S
H610 C569 0.930 . S
H611 C570 0.930 . S
H612 C574 0.929 . S
H613 C576 0.930 . S
H614 C582 0.929 . S
H615 C583 0.930 . S
Li616 N633 1.990 . S
Li616 O676 1.956 . S
Li616 O677 1.970 1_545 S
Li616 O678 1.961 . S
Li617 N641 1.990 . S
Li617 O676 1.970 1_565 S
Li617 O677 1.956 . S
Li617 O679 1.961 . S
Li618 N663 1.990 . S
Li618 O676 1.961 . S
Li618 O678 1.956 . S
Li618 O679 1.970 1_545 S
Li619 N669 1.990 . S
Li619 O677 1.961 . S
Li619 O678 1.970 1_565 S
Li619 O679 1.956 . S
C620 C622 1.348 . S
C620 C623 1.356 . S
C620 O676 1.325 . S
N621 C624 1.314 . S
N621 C625 1.279 . S
C622 C620 1.348 . S
C622 C624 1.353 . S
C622 H680 0.929 1_545 S
C623 C620 1.356 . S
C623 C625 1.358 . S
C623 H681 0.930 . S
C624 N621 1.314 . S
C624 C622 1.353 . S
C624 H682 0.930 . S
C625 N621 1.279 . S
C625 C623 1.358 . S
C625 H683 0.930 . S
C626 C629 1.348 1_565 S
C626 C630 1.356 . S
C626 O677 1.325 . S
C627 N628 1.279 . S
C627 C630 1.358 . S
C627 H684 0.930 . S
N628 C627 1.279 . S
N628 C631 1.314 1_565 S
C629 C626 1.348 1_545 S
C629 C631 1.353 . S
C629 H685 0.929 . S
C630 C626 1.356 . S
C630 C627 1.358 . S
C630 H686 0.930 . S
C631 N628 1.314 1_545 S
C631 C629 1.353 . S
C631 H687 0.930 . S
C632 N633 1.314 . S
C632 C637 1.353 . S
C632 H638 0.930 . S
N633 Li616 1.990 . S
N633 C632 1.314 . S
N633 C635 1.279 . S
C634 C635 1.358 . S
C634 C636 1.356 . S
C634 H688 0.930 . S
C635 N633 1.279 . S
C635 C634 1.358 . S
C635 H639 0.930 . S
C636 C634 1.356 . S
C636 C637 1.348 . S
C637 C632 1.353 . S
C637 C636 1.348 . S
C637 H689 0.929 . S
H638 C632 0.930 . S
H639 C635 0.930 . S
C640 N641 1.314 . S
C640 C642 1.353 . S
C640 H646 0.930 . S
N641 Li617 1.990 . S
N641 C640 1.314 . S
N641 C644 1.279 . S
C642 C640 1.353 . S
C642 C645 1.348 . S
C642 H690 0.929 . S
C643 C644 1.358 . S
C643 C645 1.356 . S
C643 H691 0.930 . S
C644 N641 1.279 . S
C644 C643 1.358 . S
C644 H647 0.930 . S
C645 C642 1.348 . S
C645 C643 1.356 . S
H646 C640 0.930 . S
H647 C644 0.930 . S
C648 C650 1.348 . S
C648 C651 1.356 . S
C648 O678 1.325 . S
N649 C652 1.314 . S
N649 C653 1.279 . S
C650 C648 1.348 . S
C650 C652 1.353 . S
C650 H692 0.929 . S
C651 C648 1.356 . S
C651 C653 1.358 . S
C651 H693 0.930 . S
C652 N649 1.314 . S
C652 C650 1.353 . S
C652 H694 0.930 . S
C653 N649 1.279 . S
C653 C651 1.358 . S
C653 H695 0.930 . S
C654 C655 1.348 . S
C654 C656 1.356 . S
C654 O679 1.325 . S
C655 C654 1.348 . S
C655 C657 1.353 . S
C655 H696 0.929 . S
C656 C654 1.356 . S
C656 C658 1.358 . S
C656 H697 0.930 . S
C657 C655 1.353 . S
C657 N659 1.314 . S
C657 H698 0.930 . S
C658 C656 1.358 . S
C658 N659 1.279 . S
C658 H699 0.930 . S
N659 C657 1.314 . S
N659 C658 1.279 . S
C660 C662 1.353 . S
C660 N663 1.314 1_565 S
C660 H666 0.930 . S
C661 N663 1.279 . S
C661 C664 1.358 . S
C661 H667 0.930 . S
C662 C660 1.353 . S
C662 C665 1.348 1_565 S
C662 H700 0.929 . S
N663 Li618 1.990 . S
N663 C660 1.314 1_545 S
N663 C661 1.279 . S
C664 C661 1.358 . S
C664 C665 1.356 . S
C664 H701 0.930 . S
C665 C662 1.348 1_545 S
C665 C664 1.356 . S
H666 C660 0.930 . S
H667 C661 0.930 . S
C668 N669 1.314 . S
C668 C670 1.353 . S
C668 H674 0.930 1_565 S
N669 Li619 1.990 . S
N669 C668 1.314 . S
N669 C672 1.279 . S
C670 C668 1.353 . S
C670 C673 1.348 . S
C670 H702 0.929 . S
C671 C672 1.358 . S
C671 C673 1.356 . S
C671 H703 0.930 . S
C672 N669 1.279 . S
C672 C671 1.358 . S
C672 H675 0.930 . S
C673 C670 1.348 . S
C673 C671 1.356 . S
H674 C668 0.930 1_545 S
H675 C672 0.930 . S
O676 Li616 1.956 . S
O676 Li617 1.970 1_545 S
O676 Li618 1.961 . S
O676 C620 1.325 . S
O677 Li616 1.970 1_565 S
O677 Li617 1.956 . S
O677 Li619 1.961 . S
O677 C626 1.325 . S
O678 Li616 1.961 . S
O678 Li618 1.956 . S
O678 Li619 1.970 1_545 S
O678 C648 1.325 . S
O679 Li617 1.961 . S
O679 Li618 1.970 1_565 S
O679 Li619 1.956 . S
O679 C654 1.325 . S
H680 C622 0.929 1_565 S
H681 C623 0.930 . S
H682 C624 0.930 . S
H683 C625 0.930 . S
H684 C627 0.930 . S
H685 C629 0.929 . S
H686 C630 0.930 . S
H687 C631 0.930 . S
H688 C634 0.930 . S
H689 C637 0.929 . S
H690 C642 0.929 . S
H691 C643 0.930 . S
H692 C650 0.929 . S
H693 C651 0.930 . S
H694 C652 0.930 . S
H695 C653 0.930 . S
H696 C655 0.929 . S
H697 C656 0.930 . S
H698 C657 0.930 . S
H699 C658 0.930 . S
H700 C662 0.929 . S
H701 C664 0.930 . S
H702 C670 0.929 . S
H703 C671 0.930 . S
Li704 N721 1.990 . S
Li704 O764 1.956 . S
Li704 O765 1.970 . S
Li704 O766 1.961 . S
Li705 N729 1.990 . S
Li705 O764 1.970 . S
Li705 O765 1.956 . S
Li705 O767 1.961 . S
Li706 N751 1.990 . S
Li706 O764 1.961 . S
Li706 O766 1.956 . S
Li706 O767 1.970 . S
Li707 N757 1.990 1_554 S
Li707 O765 1.961 . S
Li707 O766 1.970 . S
Li707 O767 1.956 . S
C708 C710 1.348 . S
C708 C711 1.356 . S
C708 O764 1.325 . S
N709 C712 1.314 . S
N709 C713 1.279 . S
C710 C708 1.348 . S
C710 C712 1.353 . S
C710 H768 0.929 . S
C711 C708 1.356 . S
C711 C713 1.358 . S
C711 H769 0.930 . S
C712 N709 1.314 . S
C712 C710 1.353 . S
C712 H770 0.930 . S
C713 N709 1.279 . S
C713 C711 1.358 . S
C713 H771 0.930 . S
C714 C717 1.348 . S
C714 C718 1.356 . S
C714 O765 1.325 . S
C715 N716 1.279 . S
C715 C718 1.358 . S
C715 H772 0.930 1_554 S
N716 C715 1.279 . S
N716 C719 1.314 . S
C717 C714 1.348 . S
C717 C719 1.353 . S
C717 H773 0.929 . S
C718 C714 1.356 . S
C718 C715 1.358 . S
C718 H774 0.930 . S
C719 N716 1.314 . S
C719 C717 1.353 . S
C719 H775 0.930 . S
C720 N721 1.314 . S
C720 C725 1.353 . S
C720 H726 0.930 . S
N721 Li704 1.990 . S
N721 C720 1.314 . S
N721 C723 1.279 . S
C722 C723 1.358 . S
C722 C724 1.356 . S
C722 H776 0.930 . S
C723 N721 1.279 . S
C723 C722 1.358 . S
C723 H727 0.930 . S
C724 C722 1.356 . S
C724 C725 1.348 . S
C725 C720 1.353 . S
C725 C724 1.348 . S
C725 H777 0.929 . S
H726 C720 0.930 . S
H727 C723 0.930 . S
C728 N729 1.314 . S
C728 C730 1.353 . S
C728 H734 0.930 . S
N729 Li705 1.990 . S
N729 C728 1.314 . S
N729 C732 1.279 . S
C730 C728 1.353 . S
C730 C733 1.348 . S
C730 H778 0.929 . S
C731 C732 1.358 . S
C731 C733 1.356 . S
C731 H779 0.930 . S
C732 N729 1.279 . S
C732 C731 1.358 . S
C732 H735 0.930 . S
C733 C730 1.348 . S
C733 C731 1.356 . S
H734 C728 0.930 . S
H735 C732 0.930 . S
C736 C738 1.348 1_554 S
C736 C739 1.356 . S
C736 O766 1.325 . S
N737 C740 1.314 . S
N737 C741 1.298 . S
C738 C736 1.348 1_556 S
C738 C740 1.353 . S
C738 H780 0.929 . S
C739 C736 1.356 . S
C739 C741 1.348 1_554 S
C739 H781 0.930 . S
C740 N737 1.314 . S
C740 C738 1.353 . S
C740 H782 0.930 . S
C741 N737 1.298 . S
C741 C739 1.348 1_556 S
C741 H783 0.922 1_556 S
C742 C743 1.348 . S
C742 C744 1.356 . S
C742 O767 1.325 . S
C743 C742 1.348 . S
C743 C745 1.353 . S
C743 H784 0.929 . S
C744 C742 1.356 . S
C744 C746 1.358 . S
C744 H785 0.930 . S
C745 C743 1.353 . S
C745 N747 1.314 . S
C745 H786 0.930 . S
C746 C744 1.358 . S
C746 N747 1.279 . S
C746 H787 0.930 . S
N747 C745 1.314 . S
N747 C746 1.279 . S
C748 C750 1.353 . S
C748 N751 1.314 . S
C748 H754 0.930 . S
C749 N751 1.279 . S
C749 C752 1.358 . S
C749 H755 0.930 . S
C750 C748 1.353 . S
C750 C753 1.348 . S
C750 H788 0.929 . S
N751 Li706 1.990 . S
N751 C748 1.314 . S
N751 C749 1.279 . S
C752 C749 1.358 . S
C752 C753 1.356 . S
C752 H789 0.930 . S
C753 C750 1.348 . S
C753 C752 1.356 . S
H754 C748 0.930 . S
H755 C749 0.930 . S
C756 N757 1.314 . S
C756 C758 1.353 . S
C756 H762 0.930 . S
N757 Li707 1.990 1_556 S
N757 C756 1.314 . S
N757 C760 1.279 . S
C758 C756 1.353 . S
C758 C761 1.348 . S
C758 H790 0.929 . S
C759 C760 1.358 . S
C759 C761 1.356 . S
C759 H791 0.930 . S
C760 N757 1.279 . S
C760 C759 1.358 . S
C760 H763 0.930 . S
C761 C758 1.348 . S
C761 C759 1.356 . S
H762 C756 0.930 . S
H763 C760 0.930 . S
O764 Li704 1.956 . S
O764 Li705 1.970 . S
O764 Li706 1.961 . S
O764 C708 1.325 . S
O765 Li704 1.970 . S
O765 Li705 1.956 . S
O765 Li707 1.961 . S
O765 C714 1.325 . S
O766 Li704 1.961 . S
O766 Li706 1.956 . S
O766 Li707 1.970 . S
O766 C736 1.325 . S
O767 Li705 1.961 . S
O767 Li706 1.970 . S
O767 Li707 1.956 . S
O767 C742 1.325 . S
H768 C710 0.929 . S
H769 C711 0.930 . S
H770 C712 0.930 . S
H771 C713 0.930 . S
H772 C715 0.930 1_556 S
H773 C717 0.929 . S
H774 C718 0.930 . S
H775 C719 0.930 . S
H776 C722 0.930 . S
H777 C725 0.929 . S
H778 C730 0.929 . S
H779 C731 0.930 . S
H780 C738 0.929 . S
H781 C739 0.930 . S
H782 C740 0.930 . S
H783 C741 0.922 1_554 S
H784 C743 0.929 . S
H785 C744 0.930 . S
H786 C745 0.930 . S
H787 C746 0.930 . S
H788 C750 0.929 . S
H789 C752 0.930 . S
H790 C758 0.929 . S
H791 C759 0.930 . S
Li792 N809 1.990 . S
Li792 O852 1.956 . S
Li792 O853 1.970 1_455 S
Li792 O854 1.961 . S
Li793 N817 1.990 . S
Li793 O852 1.970 1_655 S
Li793 O853 1.956 . S
Li793 O855 1.961 . S
Li794 N839 1.990 . S
Li794 O852 1.961 . S
Li794 O854 1.956 . S
Li794 O855 1.970 1_455 S
Li795 N845 1.990 . S
Li795 O853 1.961 . S
Li795 O854 1.970 1_655 S
Li795 O855 1.956 . S
C796 C798 1.348 1_455 S
C796 C799 1.356 . S
C796 O852 1.325 . S
N797 C800 1.314 1_455 S
N797 C801 1.279 . S
C798 C796 1.348 1_655 S
C798 C800 1.353 . S
C798 H856 0.929 . S
C799 C796 1.356 . S
C799 C801 1.358 . S
C799 H857 0.930 . S
C800 N797 1.314 1_655 S
C800 C798 1.353 . S
C800 H858 0.930 . S
C801 N797 1.279 . S
C801 C799 1.358 . S
C801 H859 0.930 . S
C802 C805 1.348 . S
C802 C806 1.356 . S
C802 O853 1.325 . S
C803 N804 1.279 . S
C803 C806 1.358 . S
C803 H860 0.930 . S
N804 C803 1.279 . S
N804 C807 1.314 . S
C805 C802 1.348 . S
C805 C807 1.353 . S
C805 H861 0.929 1_655 S
C806 C802 1.356 . S
C806 C803 1.358 . S
C806 H862 0.930 . S
C807 N804 1.314 . S
C807 C805 1.353 . S
C807 H863 0.930 . S
C808 N809 1.314 . S
C808 C813 1.353 . S
C808 H814 0.930 . S
N809 Li792 1.990 . S
N809 C808 1.314 . S
N809 C811 1.279 . S
C810 C811 1.358 . S
C810 C812 1.356 . S
C810 H864 0.930 . S
C811 N809 1.279 . S
C811 C810 1.358 . S
C811 H815 0.930 . S
C812 C810 1.356 . S
C812 C813 1.348 . S
C813 C808 1.353 . S
C813 C812 1.348 . S
C813 H865 0.929 . S
H814 C808 0.930 . S
H815 C811 0.930 . S
C816 N817 1.314 . S
C816 C818 1.353 . S
C816 H822 0.930 . S
N817 Li793 1.990 . S
N817 C816 1.314 . S
N817 C820 1.279 . S
C818 C816 1.353 . S
C818 C821 1.348 . S
C818 H866 0.929 . S
C819 C820 1.358 . S
C819 C821 1.356 . S
C819 H867 0.930 . S
C820 N817 1.279 . S
C820 C819 1.358 . S
C820 H823 0.930 . S
C821 C818 1.348 . S
C821 C819 1.356 . S
H822 C816 0.930 . S
H823 C820 0.930 . S
C824 C826 1.348 . S
C824 C827 1.356 . S
C824 O854 1.325 . S
N825 C828 1.314 . S
N825 C829 1.279 . S
C826 C824 1.348 . S
C826 C828 1.353 . S
C826 H868 0.929 . S
C827 C824 1.356 . S
C827 C829 1.358 . S
C827 H869 0.930 . S
C828 N825 1.314 . S
C828 C826 1.353 . S
C828 H870 0.930 . S
C829 N825 1.279 . S
C829 C827 1.358 . S
C829 H871 0.930 . S
C830 C831 1.348 . S
C830 C832 1.356 . S
C830 O855 1.325 . S
C831 C830 1.348 . S
C831 C833 1.353 . S
C831 H872 0.929 . S
C832 C830 1.356 . S
C832 C834 1.358 . S
C832 H873 0.930 . S
C833 C831 1.353 . S
C833 N835 1.314 . S
C833 H874 0.930 . S
C834 C832 1.358 . S
C834 N835 1.279 . S
C834 H875 0.930 . S
N835 C833 1.314 . S
N835 C834 1.279 . S
C836 C838 1.353 . S
C836 N839 1.314 . S
C836 H842 0.930 1_455 S
C837 N839 1.279 . S
C837 C840 1.358 . S
C837 H843 0.930 . S
C838 C836 1.353 . S
C838 C841 1.348 . S
C838 H876 0.929 . S
N839 Li794 1.990 . S
N839 C836 1.314 . S
N839 C837 1.279 . S
C840 C837 1.358 . S
C840 C841 1.356 . S
C840 H877 0.930 . S
C841 C838 1.348 . S
C841 C840 1.356 . S
H842 C836 0.930 1_655 S
H843 C837 0.930 . S
C844 N845 1.314 1_455 S
C844 C846 1.353 . S
C844 H850 0.930 . S
N845 Li795 1.990 . S
N845 C844 1.314 1_655 S
N845 C848 1.279 . S
C846 C844 1.353 . S
C846 C849 1.348 1_455 S
C846 H878 0.929 . S
C847 C848 1.358 . S
C847 C849 1.356 . S
C847 H879 0.930 . S
C848 N845 1.279 . S
C848 C847 1.358 . S
C848 H851 0.930 . S
C849 C846 1.348 1_655 S
C849 C847 1.356 . S
H850 C844 0.930 . S
H851 C848 0.930 . S
O852 Li792 1.956 . S
O852 Li793 1.970 1_455 S
O852 Li794 1.961 . S
O852 C796 1.325 . S
O853 Li792 1.970 1_655 S
O853 Li793 1.956 . S
O853 Li795 1.961 . S
O853 C802 1.325 . S
O854 Li792 1.961 . S
O854 Li794 1.956 . S
O854 Li795 1.970 1_455 S
O854 C824 1.325 . S
O855 Li793 1.961 . S
O855 Li794 1.970 1_655 S
O855 Li795 1.956 . S
O855 C830 1.325 . S
H856 C798 0.929 . S
H857 C799 0.930 . S
H858 C800 0.930 . S
H859 C801 0.930 . S
H860 C803 0.930 . S
H861 C805 0.929 1_455 S
H862 C806 0.930 . S
H863 C807 0.930 . S
H864 C810 0.930 . S
H865 C813 0.929 . S
H866 C818 0.929 . S
H867 C819 0.930 . S
H868 C826 0.929 . S
H869 C827 0.930 . S
H870 C828 0.930 . S
H871 C829 0.930 . S
H872 C831 0.929 . S
H873 C832 0.930 . S
H874 C833 0.930 . S
H875 C834 0.930 . S
H876 C838 0.929 . S
H877 C840 0.930 . S
H878 C846 0.929 . S
H879 C847 0.930 . S
Li880 N897 1.990 . S
Li880 O940 1.956 . S
Li880 O941 1.970 1_545 S
Li880 O942 1.961 . S
Li881 N905 1.990 . S
Li881 O940 1.970 1_565 S
Li881 O941 1.956 . S
Li881 O943 1.961 . S
Li882 N927 1.990 . S
Li882 O940 1.961 . S
Li882 O942 1.956 . S
Li882 O943 1.970 1_545 S
Li883 N933 1.990 . S
Li883 O941 1.961 . S
Li883 O942 1.970 1_565 S
Li883 O943 1.956 . S
C884 C886 1.348 1_545 S
C884 C887 1.356 . S
C884 O940 1.325 . S
N885 C888 1.314 1_545 S
N885 C889 1.279 . S
C886 C884 1.348 1_565 S
C886 C888 1.353 . S
C886 H944 0.929 . S
C887 C884 1.356 . S
C887 C889 1.358 . S
C887 H945 0.930 . S
C888 N885 1.314 1_565 S
C888 C886 1.353 . S
C888 H946 0.930 . S
C889 N885 1.279 . S
C889 C887 1.358 . S
C889 H947 0.930 . S
C890 C893 1.348 . S
C890 C894 1.356 . S
C890 O941 1.325 . S
C891 N892 1.279 . S
C891 C894 1.358 . S
C891 H948 0.930 . S
N892 C891 1.279 . S
N892 C895 1.314 . S
C893 C890 1.348 . S
C893 C895 1.353 . S
C893 H949 0.929 1_565 S
C894 C890 1.356 . S
C894 C891 1.358 . S
C894 H950 0.930 . S
C895 N892 1.314 . S
C895 C893 1.353 . S
C895 H951 0.930 . S
C896 N897 1.314 . S
C896 C901 1.353 . S
C896 H902 0.930 . S
N897 Li880 1.990 . S
N897 C896 1.314 . S
N897 C899 1.279 . S
C898 C899 1.358 . S
C898 C900 1.356 . S
C898 H952 0.930 . S
C899 N897 1.279 . S
C899 C898 1.358 . S
C899 H903 0.930 . S
C900 C898 1.356 . S
C900 C901 1.348 . S
C901 C896 1.353 . S
C901 C900 1.348 . S
C901 H953 0.929 . S
H902 C896 0.930 . S
H903 C899 0.930 . S
C904 N905 1.314 . S
C904 C906 1.353 . S
C904 H910 0.930 . S
N905 Li881 1.990 . S
N905 C904 1.314 . S
N905 C908 1.279 . S
C906 C904 1.353 . S
C906 C909 1.348 . S
C906 H954 0.929 . S
C907 C908 1.358 . S
C907 C909 1.356 . S
C907 H955 0.930 . S
C908 N905 1.279 . S
C908 C907 1.358 . S
C908 H911 0.930 . S
C909 C906 1.348 . S
C909 C907 1.356 . S
H910 C904 0.930 . S
H911 C908 0.930 . S
C912 C914 1.348 . S
C912 C915 1.356 . S
C912 O942 1.325 . S
N913 C916 1.314 . S
N913 C917 1.279 . S
C914 C912 1.348 . S
C914 C916 1.353 . S
C914 H956 0.929 . S
C915 C912 1.356 . S
C915 C917 1.358 . S
C915 H957 0.930 . S
C916 N913 1.314 . S
C916 C914 1.353 . S
C916 H958 0.930 . S
C917 N913 1.279 . S
C917 C915 1.358 . S
C917 H959 0.930 . S
C918 C919 1.348 . S
C918 C920 1.356 . S
C918 O943 1.325 . S
C919 C918 1.348 . S
C919 C921 1.353 . S
C919 H960 0.929 . S
C920 C918 1.356 . S
C920 C922 1.358 . S
C920 H961 0.930 . S
C921 C919 1.353 . S
C921 N923 1.314 . S
C921 H962 0.930 . S
C922 C920 1.358 . S
C922 N923 1.279 . S
C922 H963 0.930 . S
N923 C921 1.314 . S
N923 C922 1.279 . S
C924 C926 1.353 . S
C924 N927 1.314 . S
C924 H930 0.930 1_545 S
C925 N927 1.279 . S
C925 C928 1.358 . S
C925 H931 0.930 . S
C926 C924 1.353 . S
C926 C929 1.348 . S
C926 H964 0.929 . S
N927 Li882 1.990 . S
N927 C924 1.314 . S
N927 C925 1.279 . S
C928 C925 1.358 . S
C928 C929 1.356 . S
C928 H965 0.930 . S
C929 C926 1.348 . S
C929 C928 1.356 . S
H930 C924 0.930 1_565 S
H931 C925 0.930 . S
C932 N933 1.314 1_545 S
C932 C934 1.353 . S
C932 H938 0.930 . S
N933 Li883 1.990 . S
N933 C932 1.314 1_565 S
N933 C936 1.279 . S
C934 C932 1.353 . S
C934 C937 1.348 1_545 S
C934 H966 0.929 . S
C935 C936 1.358 . S
C935 C937 1.356 . S
C935 H967 0.930 . S
C936 N933 1.279 . S
C936 C935 1.358 . S
C936 H939 0.930 . S
C937 C934 1.348 1_565 S
C937 C935 1.356 . S
H938 C932 0.930 . S
H939 C936 0.930 . S
O940 Li880 1.956 . S
O940 Li881 1.970 1_545 S
O940 Li882 1.961 . S
O940 C884 1.325 . S
O941 Li880 1.970 1_565 S
O941 Li881 1.956 . S
O941 Li883 1.961 . S
O941 C890 1.325 . S
O942 Li880 1.961 . S
O942 Li882 1.956 . S
O942 Li883 1.970 1_545 S
O942 C912 1.325 . S
O943 Li881 1.961 . S
O943 Li882 1.970 1_565 S
O943 Li883 1.956 . S
O943 C918 1.325 . S
H944 C886 0.929 . S
H945 C887 0.930 . S
H946 C888 0.930 . S
H947 C889 0.930 . S
H948 C891 0.930 . S
H949 C893 0.929 1_545 S
H950 C894 0.930 . S
H951 C895 0.930 . S
H952 C898 0.930 . S
H953 C901 0.929 . S
H954 C906 0.929 . S
H955 C907 0.930 . S
H956 C914 0.929 . S
H957 C915 0.930 . S
H958 C916 0.930 . S
H959 C917 0.930 . S
H960 C919 0.929 . S
H961 C920 0.930 . S
H962 C921 0.930 . S
H963 C922 0.930 . S
H964 C926 0.929 . S
H965 C928 0.930 . S
H966 C934 0.929 . S
H967 C935 0.930 . S
Li968 N985 1.990 . S
Li968 O1028 1.956 . S
Li968 O1029 1.970 . S
Li968 O1030 1.961 . S
Li969 N993 1.990 . S
Li969 O1028 1.970 . S
Li969 O1029 1.956 . S
Li969 O1031 1.961 . S
Li970 N1015 1.990 1_554 S
Li970 O1028 1.961 . S
Li970 O1030 1.956 . S
Li970 O1031 1.970 . S
Li971 N1021 1.990 . S
Li971 O1029 1.961 . S
Li971 O1030 1.970 . S
Li971 O1031 1.956 . S
C972 C974 1.348 . S
C972 C975 1.356 . S
C972 O1028 1.325 . S
N973 C976 1.314 . S
N973 C977 1.279 . S
C974 C972 1.348 . S
C974 C976 1.353 . S
C974 H1032 0.929 . S
C975 C972 1.356 . S
C975 C977 1.358 . S
C975 H1033 0.930 . S
C976 N973 1.314 . S
C976 C974 1.353 . S
C976 H1034 0.930 . S
C977 N973 1.279 . S
C977 C975 1.358 . S
C977 H1035 0.930 1_554 S
C978 C981 1.348 . S
C978 C982 1.356 . S
C978 O1029 1.325 . S
C979 N980 1.279 . S
C979 C982 1.358 . S
C979 H1036 0.930 . S
N980 C979 1.279 . S
N980 C983 1.314 . S
C981 C978 1.348 . S
C981 C983 1.353 . S
C981 H1037 0.929 . S
C982 C978 1.356 . S
C982 C979 1.358 . S
C982 H1038 0.930 . S
C983 N980 1.314 . S
C983 C981 1.353 . S
C983 H1039 0.930 . S
C984 N985 1.314 . S
C984 C989 1.353 . S
C984 H990 0.930 . S
N985 Li968 1.990 . S
N985 C984 1.314 . S
N985 C987 1.279 . S
C986 C987 1.358 . S
C986 C988 1.356 . S
C986 H1040 0.930 . S
C987 N985 1.279 . S
C987 C986 1.358 . S
C987 H991 0.930 . S
C988 C986 1.356 . S
C988 C989 1.348 . S
C989 C984 1.353 . S
C989 C988 1.348 . S
C989 H1041 0.929 . S
H990 C984 0.930 . S
H991 C987 0.930 . S
C992 N993 1.314 . S
C992 C994 1.353 . S
C992 H998 0.930 . S
N993 Li969 1.990 . S
N993 C992 1.314 . S
N993 C996 1.279 . S
C994 C992 1.353 . S
C994 C997 1.348 . S
C994 H1042 0.929 . S
C995 C996 1.358 . S
C995 C997 1.356 . S
C995 H1043 0.930 . S
C996 N993 1.279 . S
C996 C995 1.358 . S
C996 H999 0.930 . S
C997 C994 1.348 . S
C997 C995 1.356 . S
H998 C992 0.930 . S
H999 C996 0.930 . S
C1000 C1002 1.348 . S
C1000 C1003 1.356 . S
C1000 O1030 1.325 . S
N1001 C1004 1.314 . S
N1001 C1005 1.279 . S
C1002 C1000 1.348 . S
C1002 C1004 1.353 . S
C1002 H1044 0.929 . S
C1003 C1000 1.356 . S
C1003 C1005 1.358 . S
C1003 H1045 0.930 . S
C1004 N1001 1.314 . S
C1004 C1002 1.353 . S
C1004 H1046 0.930 . S
C1005 N1001 1.279 . S
C1005 C1003 1.358 . S
C1005 H1047 0.930 . S
C1006 C1007 1.348 1_554 S
C1006 C1008 1.356 . S
C1006 O1031 1.325 . S
C1007 C1006 1.348 1_556 S
C1007 C1009 1.353 . S
C1007 H1048 0.929 . S
C1008 C1006 1.356 . S
C1008 C1010 1.348 1_554 S
C1008 H1049 0.930 . S
C1009 C1007 1.353 . S
C1009 N1011 1.314 . S
C1009 H1050 0.930 . S
C1010 C1008 1.348 1_556 S
C1010 N1011 1.298 . S
C1010 H1051 0.922 1_556 S
N1011 C1009 1.314 . S
N1011 C1010 1.298 . S
C1012 C1014 1.353 . S
C1012 N1015 1.314 . S
C1012 H1018 0.930 . S
C1013 N1015 1.279 . S
C1013 C1016 1.358 . S
C1013 H1019 0.930 . S
C1014 C1012 1.353 . S
C1014 C1017 1.348 . S
C1014 H1052 0.929 . S
N1015 Li970 1.990 1_556 S
N1015 C1012 1.314 . S
N1015 C1013 1.279 . S
C1016 C1013 1.358 . S
C1016 C1017 1.356 . S
C1016 H1053 0.930 . S
C1017 C1014 1.348 . S
C1017 C1016 1.356 . S
H1018 C1012 0.930 . S
H1019 C1013 0.930 . S
C1020 N1021 1.314 . S
C1020 C1022 1.353 . S
C1020 H1026 0.930 . S
N1021 Li971 1.990 . S
N1021 C1020 1.314 . S
N1021 C1024 1.279 . S
C1022 C1020 1.353 . S
C1022 C1025 1.348 . S
C1022 H1054 0.929 . S
C1023 C1024 1.358 . S
C1023 C1025 1.356 . S
C1023 H1055 0.930 . S
C1024 N1021 1.279 . S
C1024 C1023 1.358 . S
C1024 H1027 0.930 . S
C1025 C1022 1.348 . S
C1025 C1023 1.356 . S
H1026 C1020 0.930 . S
H1027 C1024 0.930 . S
O1028 Li968 1.956 . S
O1028 Li969 1.970 . S
O1028 Li970 1.961 . S
O1028 C972 1.325 . S
O1029 Li968 1.970 . S
O1029 Li969 1.956 . S
O1029 Li971 1.961 . S
O1029 C978 1.325 . S
O1030 Li968 1.961 . S
O1030 Li970 1.956 . S
O1030 Li971 1.970 . S
O1030 C1000 1.325 . S
O1031 Li969 1.961 . S
O1031 Li970 1.970 . S
O1031 Li971 1.956 . S
O1031 C1006 1.325 . S
H1032 C974 0.929 . S
H1033 C975 0.930 . S
H1034 C976 0.930 . S
H1035 C977 0.930 1_556 S
H1036 C979 0.930 . S
H1037 C981 0.929 . S
H1038 C982 0.930 . S
H1039 C983 0.930 . S
H1040 C986 0.930 . S
H1041 C989 0.929 . S
H1042 C994 0.929 . S
H1043 C995 0.930 . S
H1044 C1002 0.929 . S
H1045 C1003 0.930 . S
H1046 C1004 0.930 . S
H1047 C1005 0.930 . S
H1048 C1007 0.929 . S
H1049 C1008 0.930 . S
H1050 C1009 0.930 . S
H1051 C1010 0.922 1_554 S
H1052 C1014 0.929 . S
H1053 C1016 0.930 . S
H1054 C1022 0.929 . S
H1055 C1023 0.930 . S
H1056 C1062 0.930 . S
H1057 C1065 0.930 . S
H1058 C1066 0.930 . S
H1059 C1067 0.930 . S
H1060 C1070 0.930 . S
H1061 C1071 0.930 . S
C1062 H1056 0.930 . S
C1062 C1063 1.355 . S
C1062 C1064 1.415 . S
C1063 C1062 1.355 . S
C1063 C1065 1.419 . S
C1064 C1062 1.415 . S
C1064 C1069 1.425 . S
C1064 C1071 1.409 . S
C1065 H1057 0.930 . S
C1065 C1063 1.419 . S
C1065 C1066 1.362 . S
C1066 H1058 0.930 . S
C1066 C1065 1.362 . S
C1066 C1069 1.409 . S
C1067 H1059 0.930 . S
C1067 C1068 1.355 . S
C1067 C1069 1.415 . S
C1068 C1067 1.355 . S
C1068 C1070 1.419 . S
C1069 C1064 1.425 . S
C1069 C1066 1.409 . S
C1069 C1067 1.415 . S
C1070 H1060 0.930 . S
C1070 C1068 1.419 . S
C1070 C1071 1.362 . S
C1071 H1061 0.930 . S
C1071 C1064 1.409 . S
C1071 C1070 1.362 . S
H1072 C1078 0.930 . S
H1073 C1081 0.930 . S
H1074 C1082 0.930 . S
H1075 C1083 0.930 . S
H1076 C1086 0.930 . S
H1077 C1087 0.930 . S
C1078 H1072 0.930 . S
C1078 C1079 1.355 . S
C1078 C1080 1.415 . S
C1079 C1078 1.355 . S
C1079 C1081 1.419 . S
C1080 C1078 1.415 . S
C1080 C1085 1.425 . S
C1080 C1087 1.409 . S
C1081 H1073 0.930 . S
C1081 C1079 1.419 . S
C1081 C1082 1.362 . S
C1082 H1074 0.930 . S
C1082 C1081 1.362 . S
C1082 C1085 1.409 . S
C1083 H1075 0.930 . S
C1083 C1084 1.355 . S
C1083 C1085 1.415 . S
C1084 C1083 1.355 . S
C1084 C1086 1.419 . S
C1085 C1080 1.425 . S
C1085 C1082 1.409 . S
C1085 C1083 1.415 . S
C1086 H1076 0.930 . S
C1086 C1084 1.419 . S
C1086 C1087 1.362 . S
C1087 H1077 0.930 . S
C1087 C1080 1.409 . S
C1087 C1086 1.362 . S
H1088 C1094 0.930 . S
H1089 C1097 0.930 . S
H1090 C1098 0.930 . S
H1091 C1099 0.930 . S
H1092 C1102 0.930 . S
H1093 C1103 0.930 . S
C1094 H1088 0.930 . S
C1094 C1095 1.355 . S
C1094 C1096 1.415 . S
C1095 C1094 1.355 . S
C1095 C1097 1.419 . S
C1096 C1094 1.415 . S
C1096 C1101 1.425 . S
C1096 C1103 1.409 . S
C1097 H1089 0.930 . S
C1097 C1095 1.419 . S
C1097 C1098 1.362 . S
C1098 H1090 0.930 . S
C1098 C1097 1.362 . S
C1098 C1101 1.409 . S
C1099 H1091 0.930 . S
C1099 C1100 1.355 . S
C1099 C1101 1.415 . S
C1100 C1099 1.355 . S
C1100 C1102 1.419 . S
C1101 C1096 1.425 . S
C1101 C1098 1.409 . S
C1101 C1099 1.415 . S
C1102 H1092 0.930 . S
C1102 C1100 1.419 . S
C1102 C1103 1.362 . S
C1103 H1093 0.930 . S
C1103 C1096 1.409 . S
C1103 C1102 1.362 . S
H1104 C1110 0.930 . S
H1105 C1113 0.930 . S
H1106 C1114 0.930 . S
H1107 C1115 0.930 . S
H1108 C1118 0.930 . S
H1109 C1119 0.930 . S
C1110 H1104 0.930 . S
C1110 C1111 1.355 . S
C1110 C1112 1.415 . S
C1111 C1110 1.355 . S
C1111 C1113 1.419 . S
C1112 C1110 1.415 . S
C1112 C1117 1.425 . S
C1112 C1119 1.409 . S
C1113 H1105 0.930 . S
C1113 C1111 1.419 . S
C1113 C1114 1.362 . S
C1114 H1106 0.930 . S
C1114 C1113 1.362 . S
C1114 C1117 1.409 . S
C1115 H1107 0.930 . S
C1115 C1116 1.355 . S
C1115 C1117 1.415 . S
C1116 C1115 1.355 . S
C1116 C1118 1.419 . S
C1117 C1112 1.425 . S
C1117 C1114 1.409 . S
C1117 C1115 1.415 . S
C1118 H1108 0.930 . S
C1118 C1116 1.419 . S
C1118 C1119 1.362 . S
C1119 H1109 0.930 . S
C1119 C1112 1.409 . S
C1119 C1118 1.362 . S
H1120 C1126 0.930 . S
H1121 C1129 0.930 . S
H1122 C1130 0.930 . S
H1123 C1131 0.930 . S
H1124 C1134 0.930 . S
H1125 C1135 0.930 . S
C1126 H1120 0.930 . S
C1126 C1127 1.355 . S
C1126 C1128 1.415 . S
C1127 C1126 1.355 . S
C1127 C1129 1.419 . S
C1128 C1126 1.415 . S
C1128 C1133 1.425 . S
C1128 C1135 1.409 . S
C1129 H1121 0.930 . S
C1129 C1127 1.419 . S
C1129 C1130 1.362 . S
C1130 H1122 0.930 . S
C1130 C1129 1.362 . S
C1130 C1133 1.409 . S
C1131 H1123 0.930 . S
C1131 C1132 1.355 . S
C1131 C1133 1.415 . S
C1132 C1131 1.355 . S
C1132 C1134 1.419 . S
C1133 C1128 1.425 . S
C1133 C1130 1.409 . S
C1133 C1131 1.415 . S
C1134 H1124 0.930 . S
C1134 C1132 1.419 . S
C1134 C1135 1.362 . S
C1135 H1125 0.930 . S
C1135 C1128 1.409 . S
C1135 C1134 1.362 . S
H1136 C1142 0.930 . S
H1137 C1145 0.930 . S
H1138 C1146 0.930 . S
H1139 C1147 0.930 . S
H1140 C1150 0.930 . S
H1141 C1151 0.930 . S
C1142 H1136 0.930 . S
C1142 C1143 1.355 . S
C1142 C1144 1.415 . S
C1143 C1142 1.355 . S
C1143 C1145 1.419 . S
C1144 C1142 1.415 . S
C1144 C1149 1.425 . S
C1144 C1151 1.409 . S
C1145 H1137 0.930 . S
C1145 C1143 1.419 . S
C1145 C1146 1.362 . S
C1146 H1138 0.930 . S
C1146 C1145 1.362 . S
C1146 C1149 1.409 . S
C1147 H1139 0.930 . S
C1147 C1148 1.355 . S
C1147 C1149 1.415 . S
C1148 C1147 1.355 . S
C1148 C1150 1.419 . S
C1149 C1144 1.425 . S
C1149 C1146 1.409 . S
C1149 C1147 1.415 . S
C1150 H1140 0.930 . S
C1150 C1148 1.419 . S
C1150 C1151 1.362 . S
C1151 H1141 0.930 . S
C1151 C1144 1.409 . S
C1151 C1150 1.362 . S
H1152 C1158 0.930 . S
H1153 C1161 0.930 . S
H1154 C1162 0.930 . S
H1155 C1163 0.930 . S
H1156 C1166 0.930 . S
H1157 C1167 0.930 . S
C1158 H1152 0.930 . S
C1158 C1159 1.355 1_545 S
C1158 C1160 1.415 . S
C1159 C1158 1.355 1_565 S
C1159 C1161 1.419 . S
C1160 C1158 1.415 . S
C1160 C1165 1.425 1_545 S
C1160 C1167 1.409 . S
C1161 H1153 0.930 . S
C1161 C1159 1.419 . S
C1161 C1162 1.362 . S
C1162 H1154 0.930 . S
C1162 C1161 1.362 . S
C1162 C1165 1.409 . S
C1163 H1155 0.930 . S
C1163 C1164 1.355 1_565 S
C1163 C1165 1.415 . S
C1164 C1163 1.355 1_545 S
C1164 C1166 1.419 . S
C1165 C1160 1.425 1_565 S
C1165 C1162 1.409 . S
C1165 C1163 1.415 . S
C1166 H1156 0.930 . S
C1166 C1164 1.419 . S
C1166 C1167 1.362 . S
C1167 H1157 0.930 . S
C1167 C1160 1.409 . S
C1167 C1166 1.362 . S
H1168 C1174 0.930 . S
H1169 C1177 0.930 . S
H1170 C1178 0.930 . S
H1171 C1179 0.930 . S
H1172 C1182 0.930 . S
H1173 C1183 0.930 . S
C1174 H1168 0.930 . S
C1174 C1175 1.355 . S
C1174 C1176 1.415 . S
C1175 C1174 1.355 . S
C1175 C1177 1.419 . S
C1176 C1174 1.415 . S
C1176 C1181 1.425 . S
C1176 C1183 1.409 . S
C1177 H1169 0.930 . S
C1177 C1175 1.419 . S
C1177 C1178 1.362 . S
C1178 H1170 0.930 . S
C1178 C1177 1.362 . S
C1178 C1181 1.409 . S
C1179 H1171 0.930 . S
C1179 C1180 1.355 . S
C1179 C1181 1.415 . S
C1180 C1179 1.355 . S
C1180 C1182 1.419 . S
C1181 C1176 1.425 . S
C1181 C1178 1.409 . S
C1181 C1179 1.415 . S
C1182 H1172 0.930 . S
C1182 C1180 1.419 . S
C1182 C1183 1.362 . S
C1183 H1173 0.930 . S
C1183 C1176 1.409 . S
C1183 C1182 1.362 . S
H1184 C1190 0.930 . S
H1185 C1193 0.930 . S
H1186 C1194 0.930 . S
H1187 C1195 0.930 . S
H1188 C1198 0.930 . S
H1189 C1199 0.930 . S
C1190 H1184 0.930 . S
C1190 C1191 1.355 . S
C1190 C1192 1.415 . S
C1191 C1190 1.355 . S
C1191 C1193 1.419 1_655 S
C1192 C1190 1.415 . S
C1192 C1197 1.425 1_655 S
C1192 C1199 1.409 . S
C1193 H1185 0.930 . S
C1193 C1191 1.419 1_455 S
C1193 C1194 1.362 . S
C1194 H1186 0.930 . S
C1194 C1193 1.362 . S
C1194 C1197 1.409 . S
C1195 H1187 0.930 . S
C1195 C1196 1.355 . S
C1195 C1197 1.415 . S
C1196 C1195 1.355 . S
C1196 C1198 1.419 1_455 S
C1197 C1192 1.425 1_455 S
C1197 C1194 1.409 . S
C1197 C1195 1.415 . S
C1198 H1188 0.930 . S
C1198 C1196 1.419 1_655 S
C1198 C1199 1.362 . S
C1199 H1189 0.930 . S
C1199 C1192 1.409 . S
C1199 C1198 1.362 . S
H1200 C1206 0.930 . S
H1201 C1209 0.930 . S
H1202 C1210 0.930 . S
H1203 C1211 0.930 . S
H1204 C1214 0.930 . S
H1205 C1215 0.930 . S
C1206 H1200 0.930 . S
C1206 C1207 1.355 1_655 S
C1206 C1208 1.415 . S
C1207 C1206 1.355 1_455 S
C1207 C1209 1.419 . S
C1208 C1206 1.415 . S
C1208 C1213 1.425 1_655 S
C1208 C1215 1.409 . S
C1209 H1201 0.930 . S
C1209 C1207 1.419 . S
C1209 C1210 1.362 . S
C1210 H1202 0.930 . S
C1210 C1209 1.362 . S
C1210 C1213 1.409 . S
C1211 H1203 0.930 . S
C1211 C1212 1.355 1_455 S
C1211 C1213 1.415 . S
C1212 C1211 1.355 1_655 S
C1212 C1214 1.419 . S
C1213 C1208 1.425 1_455 S
C1213 C1210 1.409 . S
C1213 C1211 1.415 . S
C1214 H1204 0.930 . S
C1214 C1212 1.419 . S
C1214 C1215 1.362 . S
C1215 H1205 0.930 . S
C1215 C1208 1.409 . S
C1215 C1214 1.362 . S
H1216 C1222 0.930 . S
H1217 C1225 0.930 . S
H1218 C1226 0.930 . S
H1219 C1227 0.930 . S
H1220 C1230 0.930 . S
H1221 C1231 0.930 . S
C1222 H1216 0.930 . S
C1222 C1223 1.355 . S
C1222 C1224 1.415 . S
C1223 C1222 1.355 . S
C1223 C1225 1.419 1_565 S
C1224 C1222 1.415 . S
C1224 C1229 1.425 1_565 S
C1224 C1231 1.409 . S
C1225 H1217 0.930 . S
C1225 C1223 1.419 1_545 S
C1225 C1226 1.362 . S
C1226 H1218 0.930 . S
C1226 C1225 1.362 . S
C1226 C1229 1.409 . S
C1227 H1219 0.930 . S
C1227 C1228 1.355 . S
C1227 C1229 1.415 . S
C1228 C1227 1.355 . S
C1228 C1230 1.419 1_545 S
C1229 C1224 1.425 1_545 S
C1229 C1226 1.409 . S
C1229 C1227 1.415 . S
C1230 H1220 0.930 . S
C1230 C1228 1.419 1_565 S
C1230 C1231 1.362 . S
C1231 H1221 0.930 . S
C1231 C1224 1.409 . S
C1231 C1230 1.362 . S
H1232 C1238 0.930 . S
H1233 C1241 0.930 . S
H1234 C1242 0.930 . S
H1235 C1243 0.930 . S
H1236 C1246 0.930 . S
H1237 C1247 0.930 . S
C1238 H1232 0.930 . S
C1238 C1239 1.355 . S
C1238 C1240 1.415 . S
C1239 C1238 1.355 . S
C1239 C1241 1.419 . S
C1240 C1238 1.415 . S
C1240 C1245 1.425 . S
C1240 C1247 1.409 . S
C1241 H1233 0.930 . S
C1241 C1239 1.419 . S
C1241 C1242 1.362 . S
C1242 H1234 0.930 . S
C1242 C1241 1.362 . S
C1242 C1245 1.409 . S
C1243 H1235 0.930 . S
C1243 C1244 1.355 . S
C1243 C1245 1.415 . S
C1244 C1243 1.355 . S
C1244 C1246 1.419 . S
C1245 C1240 1.425 . S
C1245 C1242 1.409 . S
C1245 C1243 1.415 . S
C1246 H1236 0.930 . S
C1246 C1244 1.419 . S
C1246 C1247 1.362 . S
C1247 H1237 0.930 . S
C1247 C1240 1.409 . S
C1247 C1246 1.362 . S
H1248 C1254 0.930 . S
H1249 C1257 0.930 . S
H1250 C1258 0.930 . S
H1251 C1259 0.930 . S
H1252 C1262 0.930 . S
H1253 C1263 0.930 . S
C1254 H1248 0.930 . S
C1254 C1255 1.355 . S
C1254 C1256 1.415 . S
C1255 C1254 1.355 . S
C1255 C1257 1.419 . S
C1256 C1254 1.415 . S
C1256 C1261 1.425 . S
C1256 C1263 1.409 . S
C1257 H1249 0.930 . S
C1257 C1255 1.419 . S
C1257 C1258 1.362 . S
C1258 H1250 0.930 . S
C1258 C1257 1.362 . S
C1258 C1261 1.409 . S
C1259 H1251 0.930 . S
C1259 C1260 1.355 . S
C1259 C1261 1.415 . S
C1260 C1259 1.355 . S
C1260 C1262 1.419 . S
C1261 C1256 1.425 . S
C1261 C1258 1.409 . S
C1261 C1259 1.415 . S
C1262 H1252 0.930 . S
C1262 C1260 1.419 . S
C1262 C1263 1.362 . S
C1263 H1253 0.930 . S
C1263 C1256 1.409 . S
C1263 C1262 1.362 . S
H1264 C1270 0.930 . S
H1265 C1273 0.930 . S
H1266 C1274 0.930 . S
H1267 C1275 0.930 . S
H1268 C1278 0.930 . S
H1269 C1279 0.930 . S
C1270 H1264 0.930 . S
C1270 C1271 1.355 . S
C1270 C1272 1.415 . S
C1271 C1270 1.355 . S
C1271 C1273 1.419 . S
C1272 C1270 1.415 . S
C1272 C1277 1.425 . S
C1272 C1279 1.409 . S
C1273 H1265 0.930 . S
C1273 C1271 1.419 . S
C1273 C1274 1.362 . S
C1274 H1266 0.930 . S
C1274 C1273 1.362 . S
C1274 C1277 1.409 . S
C1275 H1267 0.930 . S
C1275 C1276 1.355 . S
C1275 C1277 1.415 . S
C1276 C1275 1.355 . S
C1276 C1278 1.419 . S
C1277 C1272 1.425 . S
C1277 C1274 1.409 . S
C1277 C1275 1.415 . S
C1278 H1268 0.930 . S
C1278 C1276 1.419 . S
C1278 C1279 1.362 . S
C1279 H1269 0.930 . S
C1279 C1272 1.409 . S
C1279 C1278 1.362 . S
H1280 C1286 0.930 . S
H1281 C1289 0.930 . S
H1282 C1290 0.921 1_556 S
H1283 C1291 0.930 . S
H1284 C1294 0.930 . S
H1285 C1295 0.928 . S
C1286 H1280 0.930 . S
C1286 C1287 1.355 . S
C1286 C1288 1.415 . S
C1287 C1286 1.355 . S
C1287 C1289 1.419 . S
C1288 C1286 1.415 . S
C1288 C1293 1.425 1_554 S
C1288 C1295 1.408 . S
C1289 H1281 0.930 . S
C1289 C1287 1.419 . S
C1289 C1290 1.376 . S
C1290 H1282 0.921 1_554 S
C1290 C1289 1.376 . S
C1290 C1293 1.404 1_554 S
C1291 H1283 0.930 . S
C1291 C1292 1.355 . S
C1291 C1293 1.415 . S
C1292 C1291 1.355 . S
C1292 C1294 1.419 . S
C1293 C1288 1.425 1_556 S
C1293 C1290 1.404 1_556 S
C1293 C1291 1.415 . S
C1294 H1284 0.930 . S
C1294 C1292 1.419 . S
C1294 C1295 1.365 1_556 S
C1295 H1285 0.928 . S
C1295 C1288 1.408 . S
C1295 C1294 1.365 1_554 S
H1296 C1302 0.930 . S
H1297 C1305 0.930 . S
H1298 C1306 0.930 . S
H1299 C1307 0.930 . S
H1300 C1310 0.930 . S
H1301 C1311 0.930 . S
C1302 H1296 0.930 . S
C1302 C1303 1.355 . S
C1302 C1304 1.415 . S
C1303 C1302 1.355 . S
C1303 C1305 1.419 . S
C1304 C1302 1.415 . S
C1304 C1309 1.425 . S
C1304 C1311 1.409 . S
C1305 H1297 0.930 . S
C1305 C1303 1.419 . S
C1305 C1306 1.362 . S
C1306 H1298 0.930 . S
C1306 C1305 1.362 . S
C1306 C1309 1.409 . S
C1307 H1299 0.930 . S
C1307 C1308 1.355 . S
C1307 C1309 1.415 . S
C1308 C1307 1.355 . S
C1308 C1310 1.419 . S
C1309 C1304 1.425 . S
C1309 C1306 1.409 . S
C1309 C1307 1.415 . S
C1310 H1300 0.930 . S
C1310 C1308 1.419 . S
C1310 C1311 1.362 . S
C1311 H1301 0.930 . S
C1311 C1304 1.409 . S
C1311 C1310 1.362 . S
H1312 C1318 0.930 . S
H1313 C1321 0.930 . S
H1314 C1322 0.930 . S
H1315 C1323 0.930 . S
H1316 C1326 0.930 . S
H1317 C1327 0.930 . S
C1318 H1312 0.930 . S
C1318 C1319 1.355 . S
C1318 C1320 1.415 . S
C1319 C1318 1.355 . S
C1319 C1321 1.419 . S
C1320 C1318 1.415 . S
C1320 C1325 1.425 . S
C1320 C1327 1.409 . S
C1321 H1313 0.930 . S
C1321 C1319 1.419 . S
C1321 C1322 1.362 . S
C1322 H1314 0.930 . S
C1322 C1321 1.362 . S
C1322 C1325 1.409 . S
C1323 H1315 0.930 . S
C1323 C1324 1.355 . S
C1323 C1325 1.415 . S
C1324 C1323 1.355 . S
C1324 C1326 1.419 . S
C1325 C1320 1.425 . S
C1325 C1322 1.409 . S
C1325 C1323 1.415 . S
C1326 H1316 0.930 . S
C1326 C1324 1.419 . S
C1326 C1327 1.362 . S
C1327 H1317 0.930 . S
C1327 C1320 1.409 . S
C1327 C1326 1.362 . S
H1328 C1334 0.930 . S
H1329 C1337 0.930 . S
H1330 C1338 0.945 . S
H1331 C1339 0.930 . S
H1332 C1342 0.930 . S
H1333 C1343 0.930 . S
C1334 H1328 0.930 . S
C1334 C1335 1.355 . S
C1334 C1336 1.415 . S
C1335 C1334 1.355 . S
C1335 C1337 1.419 . S
C1336 C1334 1.415 . S
C1336 C1341 1.425 1_554 S
C1336 C1343 1.409 . S
C1337 H1329 0.930 . S
C1337 C1335 1.419 . S
C1337 C1338 1.341 1_554 S
C1338 H1330 0.945 . S
C1338 C1337 1.341 1_556 S
C1338 C1341 1.416 . S
C1339 H1331 0.930 . S
C1339 C1340 1.355 . S
C1339 C1341 1.415 . S
C1340 C1339 1.355 . S
C1340 C1342 1.419 . S
C1341 C1336 1.425 1_556 S
C1341 C1338 1.416 . S
C1341 C1339 1.415 . S
C1342 H1332 0.930 . S
C1342 C1340 1.419 . S
C1342 C1343 1.362 1_556 S
C1343 H1333 0.930 . S
C1343 C1336 1.409 . S
C1343 C1342 1.362 1_554 S
H1344 C1350 0.930 . S
H1345 C1353 0.930 . S
H1346 C1354 0.930 1_565 S
H1347 C1355 0.930 . S
H1348 C1358 0.930 . S
H1349 C1359 0.930 1_545 S
C1350 H1344 0.930 . S
C1350 C1351 1.355 . S
C1350 C1352 1.415 . S
C1351 C1350 1.355 . S
C1351 C1353 1.419 . S
C1352 C1350 1.415 . S
C1352 C1357 1.425 1_545 S
C1352 C1359 1.409 1_545 S
C1353 H1345 0.930 . S
C1353 C1351 1.419 . S
C1353 C1354 1.362 . S
C1354 H1346 0.930 1_545 S
C1354 C1353 1.362 . S
C1354 C1357 1.409 1_545 S
C1355 H1347 0.930 . S
C1355 C1356 1.355 . S
C1355 C1357 1.415 . S
C1356 C1355 1.355 . S
C1356 C1358 1.419 . S
C1357 C1352 1.425 1_565 S
C1357 C1354 1.409 1_565 S
C1357 C1355 1.415 . S
C1358 H1348 0.930 . S
C1358 C1356 1.419 . S
C1358 C1359 1.362 . S
C1359 H1349 0.930 1_565 S
C1359 C1352 1.409 1_565 S
C1359 C1358 1.362 . S
H1360 C1366 0.930 . S
H1361 C1369 0.930 . S
H1362 C1370 0.930 . S
H1363 C1371 0.930 . S
H1364 C1374 0.930 . S
H1365 C1375 0.930 . S
C1366 H1360 0.930 . S
C1366 C1367 1.355 . S
C1366 C1368 1.415 . S
C1367 C1366 1.355 . S
C1367 C1369 1.419 . S
C1368 C1366 1.415 . S
C1368 C1373 1.425 . S
C1368 C1375 1.409 . S
C1369 H1361 0.930 . S
C1369 C1367 1.419 . S
C1369 C1370 1.362 . S
C1370 H1362 0.930 . S
C1370 C1369 1.362 . S
C1370 C1373 1.409 . S
C1371 H1363 0.930 . S
C1371 C1372 1.355 . S
C1371 C1373 1.415 . S
C1372 C1371 1.355 . S
C1372 C1374 1.419 . S
C1373 C1368 1.425 . S
C1373 C1370 1.409 . S
C1373 C1371 1.415 . S
C1374 H1364 0.930 . S
C1374 C1372 1.419 . S
C1374 C1375 1.362 . S
C1375 H1365 0.930 . S
C1375 C1368 1.409 . S
C1375 C1374 1.362 . S
H1376 C1382 0.930 . S
H1377 C1385 0.930 . S
H1378 C1386 0.930 . S
H1379 C1387 0.930 . S
H1380 C1390 0.930 . S
H1381 C1391 0.930 . S
C1382 H1376 0.930 . S
C1382 C1383 1.355 . S
C1382 C1384 1.415 1_455 S
C1383 C1382 1.355 . S
C1383 C1385 1.419 . S
C1384 C1382 1.415 1_655 S
C1384 C1389 1.425 1_655 S
C1384 C1391 1.409 . S
C1385 H1377 0.930 . S
C1385 C1383 1.419 . S
C1385 C1386 1.362 . S
C1386 H1378 0.930 . S
C1386 C1385 1.362 . S
C1386 C1389 1.409 . S
C1387 H1379 0.930 . S
C1387 C1388 1.355 . S
C1387 C1389 1.415 1_655 S
C1388 C1387 1.355 . S
C1388 C1390 1.419 . S
C1389 C1384 1.425 1_455 S
C1389 C1386 1.409 . S
C1389 C1387 1.415 1_455 S
C1390 H1380 0.930 . S
C1390 C1388 1.419 . S
C1390 C1391 1.362 . S
C1391 H1381 0.930 . S
C1391 C1384 1.409 . S
C1391 C1390 1.362 . S
H1392 C1398 0.930 . S
H1393 C1401 0.931 . S
H1394 C1402 0.930 . S
H1395 C1403 0.930 . S
H1396 C1406 0.929 . S
H1397 C1407 0.930 . S
C1398 H1392 0.930 . S
C1398 C1399 1.355 . S
C1398 C1400 1.415 . S
C1399 C1398 1.355 . S
C1399 C1401 1.415 1_565 S
C1400 C1398 1.415 . S
C1400 C1405 1.425 1_565 S
C1400 C1407 1.409 . S
C1401 H1393 0.931 . S
C1401 C1399 1.415 1_545 S
C1401 C1402 1.366 . S
C1402 H1394 0.930 . S
C1402 C1401 1.366 . S
C1402 C1405 1.409 . S
C1403 H1395 0.930 . S
C1403 C1404 1.355 . S
C1403 C1405 1.415 . S
C1404 C1403 1.355 . S
C1404 C1406 1.421 1_545 S
C1405 C1400 1.425 1_545 S
C1405 C1402 1.409 . S
C1405 C1403 1.415 . S
C1406 H1396 0.929 . S
C1406 C1404 1.421 1_565 S
C1406 C1407 1.360 . S
C1407 H1397 0.930 . S
C1407 C1400 1.409 . S
C1407 C1406 1.360 . S
H1408 C1414 0.930 . S
H1409 C1417 0.930 . S
H1410 C1418 0.930 . S
H1411 C1419 0.930 . S
H1412 C1422 0.930 . S
H1413 C1423 0.930 . S
C1414 H1408 0.930 . S
C1414 C1415 1.355 . S
C1414 C1416 1.415 . S
C1415 C1414 1.355 . S
C1415 C1417 1.419 . S
C1416 C1414 1.415 . S
C1416 C1421 1.425 . S
C1416 C1423 1.409 . S
C1417 H1409 0.930 . S
C1417 C1415 1.419 . S
C1417 C1418 1.362 . S
C1418 H1410 0.930 . S
C1418 C1417 1.362 . S
C1418 C1421 1.409 . S
C1419 H1411 0.930 . S
C1419 C1420 1.355 . S
C1419 C1421 1.415 . S
C1420 C1419 1.355 . S
C1420 C1422 1.419 . S
C1421 C1416 1.425 . S
C1421 C1418 1.409 . S
C1421 C1419 1.415 . S
C1422 H1412 0.930 . S
C1422 C1420 1.419 . S
C1422 C1423 1.362 . S
C1423 H1413 0.930 . S
C1423 C1416 1.409 . S
C1423 C1422 1.362 . S
H1424 C1430 0.930 1_455 S
H1425 C1433 0.930 . S
H1426 C1434 0.930 . S
H1427 C1435 0.930 1_655 S
H1428 C1438 0.930 . S
H1429 C1439 0.930 . S
C1430 H1424 0.930 1_655 S
C1430 C1431 1.355 . S
C1430 C1432 1.415 1_655 S
C1431 C1430 1.355 . S
C1431 C1433 1.419 . S
C1432 C1430 1.415 1_455 S
C1432 C1437 1.425 1_455 S
C1432 C1439 1.409 . S
C1433 H1425 0.930 . S
C1433 C1431 1.419 . S
C1433 C1434 1.362 . S
C1434 H1426 0.930 . S
C1434 C1433 1.362 . S
C1434 C1437 1.409 . S
C1435 H1427 0.930 1_455 S
C1435 C1436 1.355 . S
C1435 C1437 1.415 1_455 S
C1436 C1435 1.355 . S
C1436 C1438 1.419 . S
C1437 C1432 1.425 1_655 S
C1437 C1434 1.409 . S
C1437 C1435 1.415 1_655 S
C1438 H1428 0.930 . S
C1438 C1436 1.419 . S
C1438 C1439 1.362 . S
C1439 H1429 0.930 . S
C1439 C1432 1.409 . S
C1439 C1438 1.362 . S
C1063 C57 1.899 . S
C1068 C733 1.893 . S
C1079 C145 1.902 . S
C1084 C812 1.897 . S
C1095 C900 1.849 . S
C1100 C233 1.845 . S
C1111 C988 1.895 . S
C1116 C321 1.889 . S
C1127 C557 1.886 . S
C1132 C401 1.880 . S
C1143 C645 1.835 . S
C1148 C497 1.829 . S
C1159 C20 1.566 . S
C1164 C284 1.565 . S
C1175 C381 1.563 . S
C1180 C108 1.529 . S
C1191 C460 1.486 . S
C1196 C196 1.487 . S
C1207 C577 1.570 . S
C1212 C849 1.558 . S
C1223 C937 1.510 . S
C1228 C665 1.474 . S
C1239 C753 1.566 . S
C1244 C1025 1.554 . S
C1255 C548 1.611 . S
C1260 C49 1.616 . S
C1271 C137 1.616 . S
C1276 C636 1.622 . S
C1287 C724 1.591 . S
C1292 C225 1.593 . S
C1303 C821 1.709 . S
C1308 C313 1.715 . S
C1319 C409 1.639 . S
C1324 C909 1.645 . S
C1335 C997 1.611 . S
C1340 C489 1.617 . S
C1351 C29 0.980 . S
C1356 C673 0.995 . S
C1367 C761 0.957 . S
C1372 C117 0.971 . S
C1383 C841 1.037 . S
C1388 C205 1.043 . S
C1399 C293 0.900 . S
C1404 C929 0.905 . S
C1415 C1017 1.015 . S
C1420 C372 1.010 . S
C1431 C585 1.033 . S
C1436 C469 1.022 . S
