# Generated by pormake.
# Topology dmp, (4)-cn, num edge types: 1
# Building blocks:
#     Node 0, Type 0, BuildingBlock: ICAMEG_clean_sbu_1, # of connection points: 4
#     Node 1, Type 0, BuildingBlock: ICAMEG_clean_sbu_1, # of connection points: 4
#     Node 2, Type 0, BuildingBlock: ICAMEG_clean_sbu_1, # of connection points: 4
#     Node 3, Type 0, BuildingBlock: ICAMEG_clean_sbu_1, # of connection points: 4
#     Edge 4, Type (0, 0), BuildingBlock: ZUJKAS_clean_linker_0, # of connection points: 2
#     Edge 5, Type (0, 0), BuildingBlock: ZUJKAS_clean_linker_0, # of connection points: 2
#     Edge 6, Type (0, 0), BuildingBlock: ZUJKAS_clean_linker_0, # of connection points: 2
#     Edge 7, Type (0, 0), BuildingBlock: ZUJKAS_clean_linker_0, # of connection points: 2
#     Edge 8, Type (0, 0), BuildingBlock: ZUJKAS_clean_linker_0, # of connection points: 2
#     Edge 9, Type (0, 0), BuildingBlock: ZUJKAS_clean_linker_0, # of connection points: 2
#     Edge 10, Type (0, 0), BuildingBlock: ZUJKAS_clean_linker_0, # of connection points: 2
#     Edge 11, Type (0, 0), BuildingBlock: ZUJKAS_clean_linker_0, # of connection points: 2
# Relax obj value: 0.010
# Max RMSD: 0.076
# Mean RMSD: 0.076
data_MOF--net-dmp--node1-ICAMEG_clean_sbu_1--edge1-ZUJKAS_clean_linker_0
_symmetry_space_group_name_H-M    P1
_symmetry_Int_Tables_number       1
_symmetry_cell_setting            triclinic
loop_
_symmetry_equiv_pos_as_xyz
'x, y, z'
_cell_length_a     55.924638
_cell_length_b     24.640551
_cell_length_c     22.543542
_cell_angle_alpha  90.002073
_cell_angle_beta   90.210736
_cell_angle_gamma 90.011702
loop_
_atom_site_label
_atom_site_type_symbol
_atom_site_fract_x
_atom_site_fract_y
_atom_site_fract_z
_atom_type_partial_charge
Co0 Co 0.11685 0.24764 0.1737 0.0
Co1 Co 0.11696 0.25025 0.32571 0.0
O2 O 0.10029 0.24829 0.24963 0.0
C3 C 0.08389 0.15462 0.16513 0.0
O4 O 0.09225 0.13898 0.21687 0.0
C5 C 0.08275 0.34078 0.33396 0.0
O6 O 0.09086 0.35692 0.2823 0.0
O7 O 0.1354 0.31524 0.30087 0.0
O8 O 0.14244 0.29719 0.20473 0.0
H9 H 0.18843 0.2676 0.4602 0.0
H10 H 0.06522 0.27471 0.17711 0.0
O11 O 0.09176 0.19781 0.14108 0.0
H12 H 0.10457 0.43562 0.0915 0.0
H13 H 0.12074 0.25009 0.95066 0.0
H14 H 0.16746 0.23811 0.13613 0.0
H15 H 0.1282 0.35501 0.11949 0.0
H16 H 0.10057 0.25265 0.04778 0.0
O17 O 0.09118 0.29809 0.35809 0.0
H18 H 0.16745 0.26377 0.36386 0.0
H19 H 0.10092 0.2439 0.45143 0.0
H20 H 0.18838 0.23584 0.04004 0.0
H21 H 0.04088 0.35426 0.14922 0.0
H22 H 0.16497 0.24187 0.9464 0.0
H23 H 0.06058 0.43553 0.10627 0.0
O24 O 0.1363 0.18414 0.19873 0.0
H25 H 0.04269 0.13767 0.34954 0.0
H26 H 0.13003 0.14377 0.37984 0.0
H27 H 0.10769 0.06131 0.40756 0.0
H28 H 0.06369 0.05795 0.3925 0.0
H29 H 0.06576 0.21913 0.32193 0.0
H30 H 0.12114 0.24797 0.54877 0.0
H31 H 0.16523 0.25965 0.55355 0.0
O32 O 0.14328 0.20291 0.29487 0.0
C33 C 0.14654 0.32353 0.25248 0.0
C34 C 0.16922 0.26225 0.4587 0.0
C35 C 0.13145 0.25131 0.50841 0.0
N36 N 0.13303 0.25299 0.40202 0.0
C37 C 0.15726 0.25986 0.40426 0.0
C38 C 0.1201 0.24912 0.45317 0.0
C39 C 0.15619 0.25786 0.51106 0.0
C40 C 0.07388 0.3097 0.15785 0.0
N41 N 0.09807 0.31011 0.14966 0.0
C42 C 0.06002 0.35472 0.1424 0.0
C43 C 0.07109 0.40034 0.11839 0.0
C44 C 0.09578 0.40043 0.11013 0.0
C45 C 0.10907 0.35472 0.12619 0.0
C46 C 0.13114 0.24759 0.99115 0.0
C47 C 0.15718 0.24118 0.0956 0.0
C48 C 0.11982 0.24894 0.04625 0.0
N49 N 0.13286 0.24614 0.09756 0.0
C50 C 0.16911 0.23968 0.04131 0.0
C51 C 0.15596 0.243 0.98879 0.0
C52 C 0.14772 0.17696 0.24713 0.0
C53 C 0.06184 0.13871 0.35649 0.0
C54 C 0.11089 0.14256 0.37301 0.0
C55 C 0.09833 0.09581 0.38892 0.0
C56 C 0.07364 0.09396 0.3805 0.0
N57 N 0.09918 0.1863 0.34954 0.0
C58 C 0.07498 0.18481 0.34119 0.0
Co59 Co 0.38208 0.74788 0.32655 0.0
Co60 Co 0.3817 0.75053 0.17449 0.0
O61 O 0.39849 0.74843 0.2504 0.0
C62 C 0.41486 0.65452 0.33456 0.0
O63 O 0.40639 0.63903 0.28288 0.0
C64 C 0.41598 0.84092 0.16621 0.0
O65 O 0.40801 0.85683 0.21809 0.0
O66 O 0.36333 0.81553 0.19961 0.0
O67 O 0.35655 0.79775 0.29591 0.0
H68 H 0.31002 0.76828 0.04079 0.0
H69 H 0.43377 0.77435 0.32253 0.0
O70 O 0.40711 0.69775 0.35878 0.0
H71 H 0.39498 0.93566 0.40876 0.0
H72 H 0.37867 0.75023 0.54963 0.0
H73 H 0.33153 0.7388 0.36477 0.0
H74 H 0.37111 0.85535 0.381 0.0
H75 H 0.39864 0.75265 0.45226 0.0
O76 O 0.40744 0.7984 0.14194 0.0
H77 H 0.33115 0.76426 0.1369 0.0
H78 H 0.39752 0.74431 0.04859 0.0
H79 H 0.31082 0.73669 0.46114 0.0
H80 H 0.45836 0.8536 0.35018 0.0
H81 H 0.33444 0.74245 0.55447 0.0
H82 H 0.43895 0.93507 0.39344 0.0
O83 O 0.36243 0.68462 0.30169 0.0
H84 H 0.45587 0.63787 0.14972 0.0
H85 H 0.36848 0.64416 0.12029 0.0
H86 H 0.39074 0.56171 0.0922 0.0
H87 H 0.43476 0.55825 0.10682 0.0
H88 H 0.43288 0.71933 0.17771 0.0
H89 H 0.37713 0.74857 0.95146 0.0
H90 H 0.33305 0.76039 0.94717 0.0
O91 O 0.35541 0.70317 0.20552 0.0
C92 C 0.35235 0.82402 0.24817 0.0
C93 C 0.32922 0.76287 0.04207 0.0
C94 C 0.36689 0.75189 0.99194 0.0
N95 N 0.36549 0.75341 0.09835 0.0
C96 C 0.34127 0.76036 0.09638 0.0
C97 C 0.37834 0.74958 0.04706 0.0
C98 C 0.34215 0.75851 0.98957 0.0
C99 C 0.42524 0.80943 0.34193 0.0
N100 N 0.40106 0.81012 0.35042 0.0
C101 C 0.43923 0.85428 0.35725 0.0
C102 C 0.42832 0.90001 0.38143 0.0
C103 C 0.40365 0.90039 0.38999 0.0
C104 C 0.39022 0.85484 0.37406 0.0
C105 C 0.36818 0.74786 0.50928 0.0
C106 C 0.34191 0.74176 0.40517 0.0
C107 C 0.37939 0.74914 0.45403 0.0
N108 N 0.36623 0.74649 0.40289 0.0
C109 C 0.33009 0.74034 0.45961 0.0
C110 C 0.34336 0.74351 0.51196 0.0
C111 C 0.35099 0.67734 0.25334 0.0
C112 C 0.4367 0.63896 0.14296 0.0
C113 C 0.38763 0.64291 0.12693 0.0
C114 C 0.40014 0.59616 0.11081 0.0
C115 C 0.42484 0.59426 0.11898 0.0
N116 N 0.3994 0.6866 0.15036 0.0
C117 C 0.42361 0.68506 0.15847 0.0
Co118 Co 0.88158 0.7377 0.82651 0.0
Co119 Co 0.88142 0.7561 0.67455 0.0
O120 O 0.89768 0.74718 0.7506 0.0
C121 C 0.91186 0.83419 0.84371 0.0
O122 O 0.90321 0.85183 0.79304 0.0
C123 C 0.91226 0.66061 0.65745 0.0
O124 O 0.90385 0.64268 0.70808 0.0
O125 O 0.85997 0.69337 0.69063 0.0
O126 O 0.85783 0.68715 0.78999 0.0
H127 H 0.81028 0.76954 0.53855 0.0
H128 H 0.93397 0.72061 0.81841 0.0
O129 O 0.90506 0.78861 0.86434 0.0
H130 H 0.90094 0.54561 0.88563 0.0
H131 H 0.87919 0.71339 0.04809 0.0
H132 H 0.83104 0.73269 0.86559 0.0
H133 H 0.87441 0.624 0.86812 0.0
H134 H 0.89878 0.72408 0.9509 0.0
O135 O 0.90519 0.70606 0.63691 0.0
H136 H 0.8308 0.75917 0.63493 0.0
H137 H 0.89835 0.77047 0.55035 0.0
H138 H 0.81072 0.72167 0.96177 0.0
H139 H 0.96116 0.64338 0.83581 0.0
H140 H 0.83484 0.71193 0.0539 0.0
H141 H 0.94466 0.55506 0.86948 0.0
O142 O 0.85965 0.79961 0.81019 0.0
H143 H 0.96033 0.85331 0.66608 0.0
H144 H 0.8734 0.86957 0.63298 0.0
H145 H 0.89937 0.94893 0.6158 0.0
H146 H 0.94316 0.94106 0.63236 0.0
H147 H 0.93369 0.77509 0.68313 0.0
H148 H 0.87857 0.78053 0.45296 0.0
H149 H 0.83421 0.78031 0.44669 0.0
O150 O 0.85735 0.80569 0.71082 0.0
C151 C 0.85139 0.67276 0.73793 0.0
C152 C 0.82961 0.76988 0.54073 0.0
C153 C 0.86794 0.77598 0.49268 0.0
N154 N 0.86573 0.76468 0.59828 0.0
C155 C 0.84133 0.76419 0.59519 0.0
C156 C 0.87904 0.77016 0.54792 0.0
C157 C 0.84305 0.77587 0.4892 0.0
C158 C 0.92668 0.68246 0.83364 0.0
N159 N 0.90266 0.6769 0.84256 0.0
C160 C 0.94216 0.63881 0.84317 0.0
C161 C 0.93288 0.58924 0.86198 0.0
C162 C 0.90835 0.5839 0.87101 0.0
C163 C 0.89341 0.6284 0.86093 0.0
C164 C 0.86848 0.71749 0.00825 0.0
C165 C 0.84166 0.72813 0.90545 0.0
C166 C 0.87947 0.72366 0.95312 0.0
N167 N 0.86606 0.72857 0.90261 0.0
C168 C 0.83005 0.72206 0.9598 0.0
C169 C 0.8436 0.71665 0.01148 0.0
C170 C 0.85085 0.81982 0.76279 0.0
C171 C 0.94128 0.8572 0.65854 0.0
C172 C 0.89244 0.86585 0.64034 0.0
C173 C 0.90706 0.9109 0.63044 0.0
C174 C 0.93163 0.90644 0.6397 0.0
N175 N 0.90204 0.81768 0.65874 0.0
C176 C 0.92612 0.81298 0.66787 0.0
Co177 Co 0.61698 0.23743 0.67374 0.0
Co178 Co 0.61715 0.25698 0.82556 0.0
O179 O 0.6009 0.24734 0.7496 0.0
C180 C 0.58667 0.33373 0.65595 0.0
O181 O 0.59529 0.35161 0.70654 0.0
C182 C 0.58656 0.16117 0.84323 0.0
O183 O 0.59492 0.14324 0.79256 0.0
O184 O 0.63881 0.19454 0.8099 0.0
O185 O 0.64076 0.1872 0.7106 0.0
H186 H 0.6883 0.27251 0.96129 0.0
H187 H 0.5646 0.22031 0.68204 0.0
O188 O 0.59348 0.28807 0.63557 0.0
H189 H 0.59764 0.04492 0.61616 0.0
H190 H 0.61931 0.21166 0.45235 0.0
H191 H 0.66751 0.23225 0.6346 0.0
H192 H 0.62416 0.12347 0.63299 0.0
H193 H 0.59975 0.22301 0.54949 0.0
O194 O 0.59357 0.20673 0.86362 0.0
H195 H 0.66778 0.2612 0.86504 0.0
H196 H 0.60022 0.2718 0.94969 0.0
H197 H 0.68781 0.22058 0.53847 0.0
H198 H 0.53741 0.14292 0.66531 0.0
H199 H 0.66365 0.21019 0.44647 0.0
H200 H 0.55393 0.0544 0.63232 0.0
O201 O 0.6389 0.29949 0.68956 0.0
H202 H 0.53794 0.35285 0.83341 0.0
H203 H 0.62481 0.37084 0.8663 0.0
H204 H 0.59859 0.44985 0.8829 0.0
H205 H 0.55482 0.44111 0.86645 0.0
H206 H 0.56482 0.27499 0.81693 0.0
H207 H 0.62 0.28281 0.04696 0.0
H208 H 0.66436 0.28342 0.05313 0.0
O209 O 0.64105 0.30677 0.78886 0.0
C210 C 0.64732 0.17347 0.76277 0.0
C211 C 0.66896 0.2725 0.95916 0.0
C212 C 0.63063 0.27821 0.00724 0.0
N213 N 0.63284 0.26631 0.90172 0.0
C214 C 0.65724 0.26627 0.90477 0.0
C215 C 0.61952 0.27186 0.95208 0.0
C216 C 0.65552 0.27856 0.01067 0.0
C217 C 0.57189 0.18208 0.66709 0.0
N218 N 0.59591 0.1765 0.65818 0.0
C219 C 0.55642 0.13833 0.65794 0.0
C220 C 0.5657 0.08866 0.63952 0.0
C221 C 0.59023 0.0833 0.63048 0.0
C222 C 0.60516 0.12789 0.64018 0.0
C223 C 0.63003 0.21604 0.49214 0.0
C224 C 0.65688 0.22741 0.5948 0.0
C225 C 0.61906 0.22258 0.54723 0.0
N226 N 0.63249 0.22785 0.59768 0.0
C227 C 0.66847 0.22097 0.54048 0.0
C228 C 0.65491 0.2152 0.48887 0.0
C229 C 0.64759 0.32036 0.73676 0.0
C230 C 0.55697 0.35712 0.8409 0.0
C231 C 0.60578 0.36674 0.859 0.0
C232 C 0.59102 0.41159 0.86856 0.0
C233 C 0.56646 0.40665 0.85936 0.0
N234 N 0.59633 0.31828 0.84097 0.0
C235 C 0.57227 0.31311 0.83189 0.0
H236 H 0.34776 0.91671 0.18221 0.0
H237 H 0.31411 0.98061 0.18257 0.0
H238 H 0.27774 0.88037 0.31082 0.0
H239 H 0.31174 0.81871 0.3132 0.0
H240 H 0.26998 0.97165 0.15195 0.0
H241 H 0.27079 0.02163 0.3905 0.0
H242 H 0.29458 0.98368 0.35629 0.0
H243 H 0.26769 0.94991 0.38048 0.0
C244 C 0.33268 0.90894 0.21103 0.0
C245 C 0.33251 0.86339 0.24847 0.0
C246 C 0.31345 0.94528 0.21112 0.0
C247 C 0.29359 0.93613 0.24787 0.0
C248 C 0.2932 0.88966 0.28388 0.0
H249 H 0.15291 0.08057 0.18844 0.0
H250 H 0.18831 0.0218 0.1878 0.0
C251 C 0.31262 0.8542 0.28496 0.0
C252 C 0.2729 0.97394 0.24727 0.0
H253 H 0.23459 0.04228 0.33787 0.0
C254 C 0.26241 0.98767 0.19257 0.0
C255 C 0.26322 0.99576 0.30011 0.0
C256 C 0.27486 0.98745 0.35999 0.0
C257 C 0.24228 0.02164 0.18933 0.0
C258 C 0.23165 0.04037 0.24249 0.0
C259 C 0.24242 0.02735 0.29706 0.0
C260 C 0.20985 0.07496 0.24299 0.0
C261 C 0.23312 0.03804 0.12887 0.0
C262 C 0.20968 0.12304 0.27644 0.0
C263 C 0.18922 0.15526 0.27879 0.0
C264 C 0.16862 0.14068 0.24678 0.0
C265 C 0.16867 0.09275 0.21317 0.0
C266 C 0.18898 0.05957 0.21224 0.0
H267 H 0.24748 0.03588 0.09499 0.0
H268 H 0.21874 0.0097 0.11498 0.0
H269 H 0.22582 0.07993 0.1292 0.0
H270 H 0.22548 0.13595 0.30057 0.0
H271 H 0.18974 0.19241 0.30446 0.0
H272 H 0.15079 0.41727 0.31677 0.0
H273 H 0.18451 0.48104 0.31646 0.0
H274 H 0.22172 0.37815 0.19229 0.0
H275 H 0.18766 0.31659 0.18977 0.0
H276 H 0.22846 0.47287 0.34902 0.0
H277 H 0.22912 0.51763 0.10923 0.0
H278 H 0.20514 0.48039 0.1435 0.0
H279 H 0.23219 0.44617 0.12129 0.0
C280 C 0.16608 0.40887 0.28886 0.0
C281 C 0.16647 0.36266 0.25245 0.0
C282 C 0.18534 0.44514 0.28881 0.0
C283 C 0.20546 0.43522 0.25314 0.0
C284 C 0.20608 0.38802 0.2183 0.0
H285 H 0.34561 0.58203 0.31405 0.0
H286 H 0.31032 0.52293 0.31487 0.0
C287 C 0.18663 0.35264 0.21715 0.0
C288 C 0.22614 0.47309 0.25358 0.0
H289 H 0.26493 0.53977 0.16273 0.0
C290 C 0.23627 0.48806 0.3083 0.0
C291 C 0.23612 0.49383 0.20057 0.0
C292 C 0.22488 0.48414 0.14048 0.0
C293 C 0.25634 0.52225 0.31143 0.0
C294 C 0.26727 0.53993 0.25822 0.0
C295 C 0.25686 0.52564 0.20361 0.0
C296 C 0.289 0.57474 0.25767 0.0
C297 C 0.2651 0.54001 0.37179 0.0
C298 C 0.28928 0.62215 0.22309 0.0
C299 C 0.30969 0.65455 0.22071 0.0
C300 C 0.33013 0.64085 0.25378 0.0
C301 C 0.32997 0.59356 0.28849 0.0
C302 C 0.30972 0.5602 0.28951 0.0
H303 H 0.25056 0.53838 0.4052 0.0
H304 H 0.27947 0.51214 0.38689 0.0
H305 H 0.27233 0.58196 0.37068 0.0
H306 H 0.2736 0.63439 0.1981 0.0
H307 H 0.30924 0.69116 0.19415 0.0
H308 H 0.66862 0.13586 0.86478 0.0
H309 H 0.70267 0.07398 0.87285 0.0
H310 H 0.70442 0.05822 0.68243 0.0
H311 H 0.67025 0.11912 0.67369 0.0
H312 H 0.70939 0.95968 0.74213 0.0
H313 H 0.77164 0.11585 0.83169 0.0
H314 H 0.74445 0.10671 0.87272 0.0
H315 H 0.74322 0.13305 0.79847 0.0
C316 C 0.67611 0.11895 0.82458 0.0
C317 C 0.66672 0.13281 0.76854 0.0
C318 C 0.69569 0.08391 0.82932 0.0
C319 C 0.70632 0.06239 0.77818 0.0
C320 C 0.69655 0.07471 0.72242 0.0
H321 H 0.82656 0.87036 0.67284 0.0
H322 H 0.79161 0.92899 0.68084 0.0
C323 C 0.67699 0.10959 0.71757 0.0
C324 C 0.72774 0.02726 0.7822 0.0
H325 H 0.78683 0.02694 0.82133 0.0
C326 C 0.72629 0.9743 0.75963 0.0
C327 C 0.74976 0.04652 0.80515 0.0
C328 C 0.75255 0.10376 0.82798 0.0
C329 C 0.74634 0.94014 0.75896 0.0
C330 C 0.76844 0.95977 0.78073 0.0
C331 C 0.76981 0.0122 0.80465 0.0
C332 C 0.79051 0.92696 0.77669 0.0
C333 C 0.74375 0.88328 0.7349 0.0
C334 C 0.80191 0.90799 0.82814 0.0
C335 C 0.82199 0.87439 0.82387 0.0
C336 C 0.83108 0.85957 0.76797 0.0
C337 C 0.82005 0.88057 0.71663 0.0
C338 C 0.79998 0.91392 0.72102 0.0
H339 H 0.72475 0.87017 0.73334 0.0
H340 H 0.75092 0.88188 0.68908 0.0
H341 H 0.75405 0.85392 0.76229 0.0
H342 H 0.79491 0.91803 0.87152 0.0
H343 H 0.83003 0.85909 0.86433 0.0
H344 H 0.8282 0.61971 0.8275 0.0
H345 H 0.79446 0.5577 0.81916 0.0
H346 H 0.79683 0.57037 0.62849 0.0
H347 H 0.83049 0.63346 0.63619 0.0
H348 H 0.75135 0.58455 0.67425 0.0
H349 H 0.7931 0.39954 0.76808 0.0
H350 H 0.79632 0.45752 0.81557 0.0
H351 H 0.81043 0.45724 0.74396 0.0
C352 C 0.82181 0.60897 0.78364 0.0
C353 C 0.83218 0.63158 0.73248 0.0
C354 C 0.80255 0.5732 0.779 0.0
C355 C 0.79337 0.55881 0.7232 0.0
C356 C 0.80377 0.58074 0.67197 0.0
H357 H 0.66901 0.3573 0.63498 0.0
H358 H 0.70399 0.41655 0.62743 0.0
C359 C 0.82305 0.61667 0.67651 0.0
C360 C 0.77211 0.52316 0.71887 0.0
H361 H 0.75035 0.40009 0.76238 0.0
C362 C 0.75118 0.54393 0.69278 0.0
C363 C 0.77198 0.47019 0.74302 0.0
C364 C 0.79423 0.44456 0.7687 0.0
C365 C 0.72984 0.5139 0.69239 0.0
C366 C 0.72956 0.46169 0.71829 0.0
C367 C 0.75062 0.44037 0.74296 0.0
C368 C 0.70746 0.42895 0.72206 0.0
C369 C 0.70753 0.53887 0.66628 0.0
C370 C 0.69786 0.41646 0.77775 0.0
C371 C 0.67792 0.38272 0.78234 0.0
C372 C 0.66726 0.36037 0.73121 0.0
C373 C 0.67666 0.37395 0.67527 0.0
C374 C 0.69662 0.40789 0.67079 0.0
H375 H 0.70969 0.58303 0.65793 0.0
H376 H 0.70332 0.51875 0.62346 0.0
H377 H 0.69207 0.5327 0.6963 0.0
H378 H 0.70603 0.43233 0.81782 0.0
H379 H 0.67123 0.37325 0.82617 0.0
H380 H 0.06338 0.17503 0.05724 0.0
H381 H 0.03363 0.12036 0.00481 0.0
H382 H 0.0334 0.00512 0.14877 0.0
H383 H 0.06299 0.05995 0.20211 0.0
H384 H 0.03791 0.0126 0.96789 0.0
H385 H 0.96218 0.03803 0.12418 0.0
H386 H 0.98831 0.08103 0.12606 0.0
H387 H 0.9894 0.01413 0.15768 0.0
C388 C 0.05693 0.13823 0.07803 0.0
C389 C 0.06554 0.12189 0.13397 0.0
C390 C 0.03994 0.10702 0.04791 0.0
C391 C 0.03111 0.05907 0.0732 0.0
C392 C 0.03966 0.04254 0.12897 0.0
H393 H 0.93174 0.81205 0.95203 0.0
H394 H 0.96108 0.86627 0.0067 0.0
C395 C 0.05667 0.07376 0.15922 0.0
C396 C 0.01352 0.02564 0.04018 0.0
H397 H 0.95678 0.97477 0.046 0.0
C398 C 0.02014 0.00446 0.98482 0.0
C399 C 0.99038 0.01508 0.0625 0.0
C400 C 0.98199 0.03859 0.12061 0.0
C401 C 0.00433 0.97232 0.95145 0.0
C402 C 0.98117 0.96187 0.9737 0.0
C403 C 0.97457 0.98288 0.02914 0.0
C404 C 0.96351 0.92918 0.94008 0.0
C405 C 0.01269 0.94896 0.89323 0.0
C406 C 0.95499 0.94692 0.88475 0.0
C407 C 0.93822 0.91606 0.85332 0.0
C408 C 0.92959 0.867 0.87687 0.0
C409 C 0.93806 0.84957 0.93255 0.0
C410 C 0.95479 0.88051 0.96393 0.0
H411 H 0.0325 0.94942 0.88965 0.0
H412 H 0.00631 0.90658 0.88762 0.0
H413 H 0.0053 0.97359 0.85626 0.0
H414 H 0.96119 0.98487 0.86606 0.0
H415 H 0.93204 0.9307 0.81064 0.0
H416 H 0.56562 0.06536 0.81025 0.0
H417 H 0.5367 0.01156 0.86641 0.0
H418 H 0.53926 0.12855 0.00857 0.0
H419 H 0.56789 0.18297 0.9526 0.0
H420 H 0.5421 0.9649 0.97879 0.0
H421 H 0.46758 0.11376 0.97607 0.0
H422 H 0.49309 0.11933 0.92761 0.0
H423 H 0.49535 0.14037 0.00378 0.0
C424 C 0.55998 0.07977 0.85339 0.0
C425 C 0.569 0.12856 0.87687 0.0
C426 C 0.54346 0.04895 0.88539 0.0
C427 C 0.53559 0.06648 0.94124 0.0
C428 C 0.54472 0.11488 0.96501 0.0
H429 H 0.43805 0.93411 0.20368 0.0
H430 H 0.46794 0.98775 0.15039 0.0
C431 C 0.56119 0.14578 0.93305 0.0
C432 C 0.51826 0.03345 0.97526 0.0
H433 H 0.46274 0.0365 0.03768 0.0
C434 C 0.5247 0.98042 0.99149 0.0
C435 C 0.49562 0.05393 0.99186 0.0
C436 C 0.48734 0.10978 0.97354 0.0
C437 C 0.50922 0.94752 0.02465 0.0
C438 C 0.48658 0.96799 0.04118 0.0
C439 C 0.48016 0.02105 0.02511 0.0
C440 C 0.46904 0.9346 0.07406 0.0
C441 C 0.51739 0.8915 0.04261 0.0
C442 C 0.45967 0.88721 0.04855 0.0
C443 C 0.44262 0.85651 0.07878 0.0
C444 C 0.43449 0.87284 0.13502 0.0
C445 C 0.44393 0.92039 0.16048 0.0
C446 C 0.46099 0.9511 0.13012 0.0
H447 H 0.53714 0.88737 0.04016 0.0
H448 H 0.51156 0.88173 0.08843 0.0
H449 H 0.50935 0.86116 0.01211 0.0
H450 H 0.4653 0.87435 0.00483 0.0
H451 H 0.43565 0.82025 0.05774 0.0
H452 H 0.93245 0.5637 0.68941 0.0
H453 H 0.9614 0.50993 0.63332 0.0
H454 H 0.96053 0.62938 0.49354 0.0
H455 H 0.93184 0.68371 0.5494 0.0
H456 H 0.95625 0.46569 0.51904 0.0
H457 H 0.03198 0.61122 0.52929 0.0
H458 H 0.00623 0.61654 0.577 0.0
H459 H 0.00458 0.63959 0.50145 0.0
C460 C 0.93847 0.57866 0.64683 0.0
C461 C 0.92988 0.62808 0.62396 0.0
C462 C 0.955 0.54786 0.61486 0.0
C463 C 0.96334 0.56606 0.5597 0.0
C464 C 0.95468 0.61515 0.53657 0.0
H465 H 0.06152 0.4354 0.29785 0.0
H466 H 0.03169 0.48904 0.35131 0.0
C467 C 0.93818 0.64599 0.56846 0.0
C468 C 0.98065 0.53304 0.52565 0.0
H469 H 0.03666 0.53512 0.46591 0.0
C470 C 0.97387 0.48072 0.5076 0.0
C471 C 0.00358 0.5529 0.51071 0.0
C472 C 0.01218 0.60794 0.53101 0.0
C473 C 0.98932 0.44794 0.47421 0.0
C474 C 0.01226 0.4678 0.45933 0.0
C475 C 0.01901 0.52016 0.47723 0.0
C476 C 0.02975 0.43443 0.42628 0.0
C477 C 0.98083 0.39274 0.45424 0.0
C478 C 0.03862 0.38621 0.45098 0.0
C479 C 0.05565 0.35552 0.42067 0.0
C480 C 0.06423 0.37268 0.36515 0.0
C481 C 0.05527 0.42103 0.34047 0.0
C482 C 0.03825 0.45174 0.37093 0.0
H483 H 0.96103 0.38933 0.45588 0.0
H484 H 0.98684 0.38394 0.40834 0.0
H485 H 0.98846 0.36131 0.48404 0.0
H486 H 0.03262 0.37268 0.49415 0.0
H487 H 0.06222 0.31861 0.44108 0.0
H488 H 0.4355 0.6745 0.44239 0.0
H489 H 0.46518 0.61946 0.49452 0.0
H490 H 0.4651 0.50457 0.35022 0.0
H491 H 0.43557 0.55977 0.29717 0.0
H492 H 0.46064 0.51153 0.53103 0.0
H493 H 0.53643 0.53688 0.37482 0.0
H494 H 0.51039 0.58015 0.37318 0.0
H495 H 0.50913 0.51336 0.34134 0.0
C496 C 0.44187 0.6377 0.42146 0.0
C497 C 0.43318 0.62156 0.36551 0.0
C498 C 0.45882 0.60627 0.45141 0.0
C499 C 0.46753 0.55831 0.42594 0.0
C500 C 0.45892 0.54199 0.37016 0.0
H501 H 0.56689 0.31123 0.54757 0.0
H502 H 0.53756 0.36521 0.49261 0.0
C503 C 0.44194 0.57343 0.34008 0.0
C504 C 0.48507 0.52465 0.45883 0.0
H505 H 0.5418 0.47375 0.45308 0.0
C506 C 0.47842 0.50338 0.51413 0.0
C507 C 0.50821 0.51407 0.43653 0.0
C508 C 0.51662 0.53764 0.37846 0.0
C509 C 0.49421 0.4712 0.54748 0.0
C510 C 0.51738 0.4608 0.52531 0.0
C511 C 0.524 0.48183 0.46989 0.0
C512 C 0.53504 0.42826 0.55905 0.0
C513 C 0.48582 0.44779 0.60566 0.0
C514 C 0.54351 0.44618 0.61436 0.0
C515 C 0.56027 0.41546 0.64596 0.0
C516 C 0.56895 0.36637 0.62259 0.0
C517 C 0.56054 0.34877 0.56692 0.0
C518 C 0.54381 0.37957 0.53537 0.0
H519 H 0.466 0.44815 0.60912 0.0
H520 H 0.49222 0.40544 0.6113 0.0
H521 H 0.49315 0.47245 0.64267 0.0
H522 H 0.53727 0.48414 0.63293 0.0
H523 H 0.56641 0.43023 0.68863 0.0
loop_
_geom_bond_atom_site_label_1
_geom_bond_atom_site_label_2
_geom_bond_distance
_geom_bond_site_symmetry_2
_ccdc_geom_bond_type
Co0 O2 2.143 . S
Co0 O8 2.074 . S
Co0 O11 2.093 . S
Co0 O24 2.097 . S
Co0 N41 2.151 . S
Co0 N49 2.214 . S
Co1 O2 2.160 . S
Co1 O7 2.058 . S
Co1 O17 2.057 . S
Co1 O32 2.037 . S
Co1 N36 2.145 . S
Co1 N57 2.257 . S
O2 Co0 2.143 . S
O2 Co1 2.160 . S
C3 O4 1.278 . S
C3 O11 1.224 . S
O4 C3 1.278 . S
C5 O6 1.245 . S
C5 O17 1.232 . S
O6 C5 1.245 . S
O7 Co1 2.058 . S
O7 C33 1.269 . S
O8 Co0 2.074 . S
O8 C33 1.257 . S
H9 C34 0.930 . S
H10 C40 0.930 . S
O11 Co0 2.093 . S
O11 C3 1.224 . S
H12 C44 0.929 . S
H13 C46 0.930 . S
H14 C47 0.930 . S
H15 C45 0.929 . S
H16 C48 0.928 . S
O17 Co1 2.057 . S
O17 C5 1.232 . S
H18 C37 0.929 . S
H19 C38 0.929 . S
H20 C50 0.931 . S
H21 C42 0.929 . S
H22 C51 0.930 1_556 S
H23 C43 0.931 . S
O24 Co0 2.097 . S
O24 C52 1.214 . S
H25 C53 0.929 . S
H26 C54 0.929 . S
H27 C55 0.930 . S
H28 C56 0.929 . S
H29 C58 0.930 . S
H30 C35 0.930 . S
H31 C39 0.930 . S
O32 Co1 2.037 . S
O32 C52 1.234 . S
C33 O7 1.269 . S
C33 O8 1.257 . S
C34 H9 0.930 . S
C34 C37 1.388 . S
C34 C39 1.418 . S
C35 H30 0.930 . S
C35 C38 1.404 . S
C35 C39 1.353 . S
N36 Co1 2.145 . S
N36 C37 1.397 . S
N36 C38 1.334 . S
C37 H18 0.929 . S
C37 C34 1.388 . S
C37 N36 1.397 . S
C38 H19 0.929 . S
C38 C35 1.404 . S
C38 N36 1.334 . S
C39 H31 0.930 . S
C39 C34 1.418 . S
C39 C35 1.353 . S
C40 H10 0.930 . S
C40 N41 1.330 . S
C40 C42 1.446 . S
N41 Co0 2.151 . S
N41 C40 1.330 . S
N41 C45 1.418 . S
C42 H21 0.929 . S
C42 C40 1.446 . S
C42 C43 1.332 . S
C43 H23 0.931 . S
C43 C42 1.332 . S
C43 C44 1.267 . S
C44 H12 0.929 . S
C44 C43 1.267 . S
C44 C45 1.251 . S
C45 H15 0.929 . S
C45 N41 1.418 . S
C45 C44 1.251 . S
C46 H13 0.930 . S
C46 C48 1.406 1_556 S
C46 C51 1.261 1_556 S
C47 H14 0.930 . S
C47 N49 1.325 . S
C47 C50 1.357 . S
C48 H16 0.928 . S
C48 C46 1.406 1_554 S
C48 N49 1.261 . S
N49 Co0 2.214 . S
N49 C47 1.325 . S
N49 C48 1.261 . S
C50 H20 0.931 . S
C50 C47 1.357 . S
C50 C51 1.312 . S
C51 H22 0.930 1_554 S
C51 C46 1.261 1_554 S
C51 C50 1.312 . S
C52 O24 1.214 . S
C52 O32 1.234 . S
C53 H25 0.929 . S
C53 C56 1.391 . S
C53 C58 1.391 . S
C54 H26 0.929 . S
C54 C55 1.390 . S
C54 N57 1.391 . S
C55 H27 0.930 . S
C55 C54 1.390 . S
C55 C56 1.392 . S
C56 H28 0.929 . S
C56 C53 1.391 . S
C56 C55 1.392 . S
N57 Co1 2.257 . S
N57 C54 1.391 . S
N57 C58 1.388 . S
C58 H29 0.930 . S
C58 C53 1.391 . S
C58 N57 1.388 . S
Co59 O61 2.143 . S
Co59 O67 2.074 . S
Co59 O70 2.093 . S
Co59 O83 2.097 . S
Co59 N100 2.151 . S
Co59 N108 2.214 . S
Co60 O61 2.160 . S
Co60 O66 2.058 . S
Co60 O76 2.057 . S
Co60 O91 2.037 . S
Co60 N95 2.145 . S
Co60 N116 2.257 . S
O61 Co59 2.143 . S
O61 Co60 2.160 . S
C62 O63 1.278 . S
C62 O70 1.224 . S
O63 C62 1.278 . S
C64 O65 1.245 . S
C64 O76 1.232 . S
O65 C64 1.245 . S
O66 Co60 2.058 . S
O66 C92 1.269 . S
O67 Co59 2.074 . S
O67 C92 1.257 . S
H68 C93 0.930 . S
H69 C99 0.930 . S
O70 Co59 2.093 . S
O70 C62 1.224 . S
H71 C103 0.929 . S
H72 C105 0.930 . S
H73 C106 0.930 . S
H74 C104 0.929 . S
H75 C107 0.928 . S
O76 Co60 2.057 . S
O76 C64 1.232 . S
H77 C96 0.929 . S
H78 C97 0.929 . S
H79 C109 0.931 . S
H80 C101 0.929 . S
H81 C110 0.930 . S
H82 C102 0.931 . S
O83 Co59 2.097 . S
O83 C111 1.214 . S
H84 C112 0.929 . S
H85 C113 0.929 . S
H86 C114 0.930 . S
H87 C115 0.929 . S
H88 C117 0.930 . S
H89 C94 0.930 . S
H90 C98 0.930 . S
O91 Co60 2.037 . S
O91 C111 1.234 . S
C92 O66 1.269 . S
C92 O67 1.257 . S
C93 H68 0.930 . S
C93 C96 1.388 . S
C93 C98 1.418 1_554 S
C94 H89 0.930 . S
C94 C97 1.404 1_556 S
C94 C98 1.353 . S
N95 Co60 2.145 . S
N95 C96 1.397 . S
N95 C97 1.334 . S
C96 H77 0.929 . S
C96 C93 1.388 . S
C96 N95 1.397 . S
C97 H78 0.929 . S
C97 C94 1.404 1_554 S
C97 N95 1.334 . S
C98 H90 0.930 . S
C98 C93 1.418 1_556 S
C98 C94 1.353 . S
C99 H69 0.930 . S
C99 N100 1.330 . S
C99 C101 1.446 . S
N100 Co59 2.151 . S
N100 C99 1.330 . S
N100 C104 1.418 . S
C101 H80 0.929 . S
C101 C99 1.446 . S
C101 C102 1.332 . S
C102 H82 0.931 . S
C102 C101 1.332 . S
C102 C103 1.267 . S
C103 H71 0.929 . S
C103 C102 1.267 . S
C103 C104 1.251 . S
C104 H74 0.929 . S
C104 N100 1.418 . S
C104 C103 1.251 . S
C105 H72 0.930 . S
C105 C107 1.406 . S
C105 C110 1.261 . S
C106 H73 0.930 . S
C106 N108 1.325 . S
C106 C109 1.357 . S
C107 H75 0.928 . S
C107 C105 1.406 . S
C107 N108 1.261 . S
N108 Co59 2.214 . S
N108 C106 1.325 . S
N108 C107 1.261 . S
C109 H79 0.931 . S
C109 C106 1.357 . S
C109 C110 1.312 . S
C110 H81 0.930 . S
C110 C105 1.261 . S
C110 C109 1.312 . S
C111 O83 1.214 . S
C111 O91 1.234 . S
C112 H84 0.929 . S
C112 C115 1.391 . S
C112 C117 1.391 . S
C113 H85 0.929 . S
C113 C114 1.390 . S
C113 N116 1.391 . S
C114 H86 0.930 . S
C114 C113 1.390 . S
C114 C115 1.392 . S
C115 H87 0.929 . S
C115 C112 1.391 . S
C115 C114 1.392 . S
N116 Co60 2.257 . S
N116 C113 1.391 . S
N116 C117 1.388 . S
C117 H88 0.930 . S
C117 C112 1.391 . S
C117 N116 1.388 . S
Co118 O120 2.143 . S
Co118 O126 2.074 . S
Co118 O129 2.093 . S
Co118 O142 2.097 . S
Co118 N159 2.151 . S
Co118 N167 2.214 . S
Co119 O120 2.160 . S
Co119 O125 2.058 . S
Co119 O135 2.057 . S
Co119 O150 2.037 . S
Co119 N154 2.145 . S
Co119 N175 2.257 . S
O120 Co118 2.143 . S
O120 Co119 2.160 . S
C121 O122 1.278 . S
C121 O129 1.224 . S
O122 C121 1.278 . S
C123 O124 1.245 . S
C123 O135 1.232 . S
O124 C123 1.245 . S
O125 Co119 2.058 . S
O125 C151 1.269 . S
O126 Co118 2.074 . S
O126 C151 1.257 . S
H127 C152 0.930 . S
H128 C158 0.930 . S
O129 Co118 2.093 . S
O129 C121 1.224 . S
H130 C162 0.929 . S
H131 C164 0.930 . S
H132 C165 0.930 . S
H133 C163 0.929 . S
H134 C166 0.928 . S
O135 Co119 2.057 . S
O135 C123 1.232 . S
H136 C155 0.929 . S
H137 C156 0.929 . S
H138 C168 0.931 . S
H139 C160 0.929 . S
H140 C169 0.930 1_554 S
H141 C161 0.931 . S
O142 Co118 2.097 . S
O142 C170 1.214 . S
H143 C171 0.929 . S
H144 C172 0.929 . S
H145 C173 0.930 . S
H146 C174 0.929 . S
H147 C176 0.930 . S
H148 C153 0.930 . S
H149 C157 0.930 . S
O150 Co119 2.037 . S
O150 C170 1.234 . S
C151 O125 1.269 . S
C151 O126 1.257 . S
C152 H127 0.930 . S
C152 C155 1.388 . S
C152 C157 1.418 . S
C153 H148 0.930 . S
C153 C156 1.404 . S
C153 C157 1.353 . S
N154 Co119 2.145 . S
N154 C155 1.397 . S
N154 C156 1.334 . S
C155 H136 0.929 . S
C155 C152 1.388 . S
C155 N154 1.397 . S
C156 H137 0.929 . S
C156 C153 1.404 . S
C156 N154 1.334 . S
C157 H149 0.930 . S
C157 C152 1.418 . S
C157 C153 1.353 . S
C158 H128 0.930 . S
C158 N159 1.330 . S
C158 C160 1.446 . S
N159 Co118 2.151 . S
N159 C158 1.330 . S
N159 C163 1.418 . S
C160 H139 0.929 . S
C160 C158 1.446 . S
C160 C161 1.332 . S
C161 H141 0.931 . S
C161 C160 1.332 . S
C161 C162 1.267 . S
C162 H130 0.929 . S
C162 C161 1.267 . S
C162 C163 1.251 . S
C163 H133 0.929 . S
C163 N159 1.418 . S
C163 C162 1.251 . S
C164 H131 0.930 . S
C164 C166 1.406 1_554 S
C164 C169 1.261 1_554 S
C165 H132 0.930 . S
C165 N167 1.325 . S
C165 C168 1.357 . S
C166 H134 0.928 . S
C166 C164 1.406 1_556 S
C166 N167 1.261 . S
N167 Co118 2.214 . S
N167 C165 1.325 . S
N167 C166 1.261 . S
C168 H138 0.931 . S
C168 C165 1.357 . S
C168 C169 1.312 . S
C169 H140 0.930 1_556 S
C169 C164 1.261 1_556 S
C169 C168 1.312 . S
C170 O142 1.214 . S
C170 O150 1.234 . S
C171 H143 0.929 . S
C171 C174 1.391 . S
C171 C176 1.391 . S
C172 H144 0.929 . S
C172 C173 1.390 . S
C172 N175 1.391 . S
C173 H145 0.930 . S
C173 C172 1.390 . S
C173 C174 1.392 . S
C174 H146 0.929 . S
C174 C171 1.391 . S
C174 C173 1.392 . S
N175 Co119 2.257 . S
N175 C172 1.391 . S
N175 C176 1.388 . S
C176 H147 0.930 . S
C176 C171 1.391 . S
C176 N175 1.388 . S
Co177 O179 2.143 . S
Co177 O185 2.074 . S
Co177 O188 2.093 . S
Co177 O201 2.097 . S
Co177 N218 2.151 . S
Co177 N226 2.214 . S
Co178 O179 2.160 . S
Co178 O184 2.058 . S
Co178 O194 2.057 . S
Co178 O209 2.037 . S
Co178 N213 2.145 . S
Co178 N234 2.257 . S
O179 Co177 2.143 . S
O179 Co178 2.160 . S
C180 O181 1.278 . S
C180 O188 1.224 . S
O181 C180 1.278 . S
C182 O183 1.245 . S
C182 O194 1.232 . S
O183 C182 1.245 . S
O184 Co178 2.058 . S
O184 C210 1.269 . S
O185 Co177 2.074 . S
O185 C210 1.257 . S
H186 C211 0.930 . S
H187 C217 0.930 . S
O188 Co177 2.093 . S
O188 C180 1.224 . S
H189 C221 0.929 . S
H190 C223 0.930 . S
H191 C224 0.930 . S
H192 C222 0.929 . S
H193 C225 0.928 . S
O194 Co178 2.057 . S
O194 C182 1.232 . S
H195 C214 0.929 . S
H196 C215 0.929 . S
H197 C227 0.931 . S
H198 C219 0.929 . S
H199 C228 0.930 . S
H200 C220 0.931 . S
O201 Co177 2.097 . S
O201 C229 1.214 . S
H202 C230 0.929 . S
H203 C231 0.929 . S
H204 C232 0.930 . S
H205 C233 0.929 . S
H206 C235 0.930 . S
H207 C212 0.930 . S
H208 C216 0.930 . S
O209 Co178 2.037 . S
O209 C229 1.234 . S
C210 O184 1.269 . S
C210 O185 1.257 . S
C211 H186 0.930 . S
C211 C214 1.388 . S
C211 C216 1.418 1_556 S
C212 H207 0.930 . S
C212 C215 1.404 1_554 S
C212 C216 1.353 . S
N213 Co178 2.145 . S
N213 C214 1.397 . S
N213 C215 1.334 . S
C214 H195 0.929 . S
C214 C211 1.388 . S
C214 N213 1.397 . S
C215 H196 0.929 . S
C215 C212 1.404 1_556 S
C215 N213 1.334 . S
C216 H208 0.930 . S
C216 C211 1.418 1_554 S
C216 C212 1.353 . S
C217 H187 0.930 . S
C217 N218 1.330 . S
C217 C219 1.446 . S
N218 Co177 2.151 . S
N218 C217 1.330 . S
N218 C222 1.418 . S
C219 H198 0.929 . S
C219 C217 1.446 . S
C219 C220 1.332 . S
C220 H200 0.931 . S
C220 C219 1.332 . S
C220 C221 1.267 . S
C221 H189 0.929 . S
C221 C220 1.267 . S
C221 C222 1.251 . S
C222 H192 0.929 . S
C222 N218 1.418 . S
C222 C221 1.251 . S
C223 H190 0.930 . S
C223 C225 1.406 . S
C223 C228 1.261 . S
C224 H191 0.930 . S
C224 N226 1.325 . S
C224 C227 1.357 . S
C225 H193 0.928 . S
C225 C223 1.406 . S
C225 N226 1.261 . S
N226 Co177 2.214 . S
N226 C224 1.325 . S
N226 C225 1.261 . S
C227 H197 0.931 . S
C227 C224 1.357 . S
C227 C228 1.312 . S
C228 H199 0.930 . S
C228 C223 1.261 . S
C228 C227 1.312 . S
C229 O201 1.214 . S
C229 O209 1.234 . S
C230 H202 0.929 . S
C230 C233 1.391 . S
C230 C235 1.391 . S
C231 H203 0.929 . S
C231 C232 1.390 . S
C231 N234 1.391 . S
C232 H204 0.930 . S
C232 C231 1.390 . S
C232 C233 1.392 . S
C233 H205 0.929 . S
C233 C230 1.391 . S
C233 C232 1.392 . S
N234 Co178 2.257 . S
N234 C231 1.391 . S
N234 C235 1.388 . S
C235 H206 0.930 . S
C235 C230 1.391 . S
C235 N234 1.388 . S
H236 C244 0.929 . S
H237 C246 0.930 . S
H238 C248 0.930 . S
H239 C251 0.929 . S
H240 C254 0.930 . S
H241 C256 0.960 1_545 S
H242 C256 0.960 1_545 S
H243 C256 0.960 . S
C244 H236 0.929 . S
C244 C245 1.377 . S
C244 C246 1.384 . S
C245 C244 1.377 . S
C245 C251 1.390 . S
C246 H237 0.930 . S
C246 C244 1.384 . S
C246 C247 1.372 . S
C247 C246 1.372 . S
C247 C248 1.400 . S
C247 C252 1.490 . S
C248 H238 0.930 . S
C248 C247 1.400 . S
C248 C251 1.386 . S
H249 C265 0.930 . S
H250 C266 0.931 . S
C251 H239 0.929 . S
C251 C245 1.390 . S
C251 C248 1.386 . S
C252 C247 1.490 . S
C252 C254 1.395 . S
C252 C255 1.403 . S
H253 C259 0.930 . S
C254 H240 0.930 . S
C254 C252 1.395 . S
C254 C257 1.403 1_565 S
C255 C252 1.403 . S
C255 C256 1.524 . S
C255 C259 1.400 1_565 S
C256 H241 0.960 1_565 S
C256 H242 0.960 1_565 S
C256 H243 0.960 . S
C256 C255 1.524 . S
C257 C254 1.403 1_545 S
C257 C258 1.392 . S
C257 C261 1.495 . S
C258 C257 1.392 . S
C258 C259 1.385 . S
C258 C260 1.478 . S
C259 H253 0.930 . S
C259 C255 1.400 1_545 S
C259 C258 1.385 . S
C260 C258 1.478 . S
C260 C262 1.381 . S
C260 C266 1.383 . S
C261 C257 1.495 . S
C261 H267 0.959 1_545 S
C261 H268 0.961 1_545 S
C261 H269 0.960 . S
C262 C260 1.381 . S
C262 C263 1.394 . S
C262 H270 0.930 . S
C263 C262 1.394 . S
C263 C264 1.383 . S
C263 H271 0.929 . S
C264 C263 1.383 . S
C264 C265 1.377 . S
C265 H249 0.930 . S
C265 C264 1.377 . S
C265 C266 1.379 . S
C266 H250 0.931 . S
C266 C260 1.383 . S
C266 C265 1.379 . S
H267 C261 0.959 1_565 S
H268 C261 0.961 1_565 S
H269 C261 0.960 . S
H270 C262 0.930 . S
H271 C263 0.929 . S
H272 C280 0.929 . S
H273 C282 0.930 . S
H274 C284 0.930 . S
H275 C287 0.929 . S
H276 C290 0.930 . S
H277 C292 0.960 . S
H278 C292 0.960 . S
H279 C292 0.960 . S
C280 H272 0.929 . S
C280 C281 1.377 . S
C280 C282 1.384 . S
C281 C280 1.377 . S
C281 C287 1.390 . S
C282 H273 0.930 . S
C282 C280 1.384 . S
C282 C283 1.372 . S
C283 C282 1.372 . S
C283 C284 1.400 . S
C283 C288 1.490 . S
C284 H274 0.930 . S
C284 C283 1.400 . S
C284 C287 1.386 . S
H285 C301 0.930 . S
H286 C302 0.931 . S
C287 H275 0.929 . S
C287 C281 1.390 . S
C287 C284 1.386 . S
C288 C283 1.490 . S
C288 C290 1.395 . S
C288 C291 1.403 . S
H289 C295 0.930 . S
C290 H276 0.930 . S
C290 C288 1.395 . S
C290 C293 1.403 . S
C291 C288 1.403 . S
C291 C292 1.524 . S
C291 C295 1.400 . S
C292 H277 0.960 . S
C292 H278 0.960 . S
C292 H279 0.960 . S
C292 C291 1.524 . S
C293 C290 1.403 . S
C293 C294 1.392 . S
C293 C297 1.495 . S
C294 C293 1.392 . S
C294 C295 1.385 . S
C294 C296 1.478 . S
C295 H289 0.930 . S
C295 C291 1.400 . S
C295 C294 1.385 . S
C296 C294 1.478 . S
C296 C298 1.381 . S
C296 C302 1.383 . S
C297 C293 1.495 . S
C297 H303 0.959 . S
C297 H304 0.961 . S
C297 H305 0.960 . S
C298 C296 1.381 . S
C298 C299 1.394 . S
C298 H306 0.930 . S
C299 C298 1.394 . S
C299 C300 1.383 . S
C299 H307 0.929 . S
C300 C299 1.383 . S
C300 C301 1.377 . S
C301 H285 0.930 . S
C301 C300 1.377 . S
C301 C302 1.379 . S
C302 H286 0.931 . S
C302 C296 1.383 . S
C302 C301 1.379 . S
H303 C297 0.959 . S
H304 C297 0.961 . S
H305 C297 0.960 . S
H306 C298 0.930 . S
H307 C299 0.929 . S
H308 C316 0.929 . S
H309 C318 0.930 . S
H310 C320 0.930 . S
H311 C323 0.929 . S
H312 C326 0.930 . S
H313 C328 0.960 . S
H314 C328 0.960 . S
H315 C328 0.960 . S
C316 H308 0.929 . S
C316 C317 1.377 . S
C316 C318 1.384 . S
C317 C316 1.377 . S
C317 C323 1.390 . S
C318 H309 0.930 . S
C318 C316 1.384 . S
C318 C319 1.372 . S
C319 C318 1.372 . S
C319 C320 1.400 . S
C319 C324 1.490 . S
C320 H310 0.930 . S
C320 C319 1.400 . S
C320 C323 1.386 . S
H321 C337 0.930 . S
H322 C338 0.931 . S
C323 H311 0.929 . S
C323 C317 1.390 . S
C323 C320 1.386 . S
C324 C319 1.490 . S
C324 C326 1.395 1_545 S
C324 C327 1.403 . S
H325 C331 0.930 . S
C326 H312 0.930 . S
C326 C324 1.395 1_565 S
C326 C329 1.403 . S
C327 C324 1.403 . S
C327 C328 1.524 . S
C327 C331 1.400 . S
C328 H313 0.960 . S
C328 H314 0.960 . S
C328 H315 0.960 . S
C328 C327 1.524 . S
C329 C326 1.403 . S
C329 C330 1.392 . S
C329 C333 1.495 . S
C330 C329 1.392 . S
C330 C331 1.385 1_565 S
C330 C332 1.478 . S
C331 H325 0.930 . S
C331 C327 1.400 . S
C331 C330 1.385 1_545 S
C332 C330 1.478 . S
C332 C334 1.381 . S
C332 C338 1.383 . S
C333 C329 1.495 . S
C333 H339 0.959 . S
C333 H340 0.961 . S
C333 H341 0.960 . S
C334 C332 1.381 . S
C334 C335 1.394 . S
C334 H342 0.930 . S
C335 C334 1.394 . S
C335 C336 1.383 . S
C335 H343 0.929 . S
C336 C335 1.383 . S
C336 C337 1.377 . S
C337 H321 0.930 . S
C337 C336 1.377 . S
C337 C338 1.379 . S
C338 H322 0.931 . S
C338 C332 1.383 . S
C338 C337 1.379 . S
H339 C333 0.959 . S
H340 C333 0.961 . S
H341 C333 0.960 . S
H342 C334 0.930 . S
H343 C335 0.929 . S
H344 C352 0.929 . S
H345 C354 0.930 . S
H346 C356 0.930 . S
H347 C359 0.929 . S
H348 C362 0.930 . S
H349 C364 0.960 . S
H350 C364 0.960 . S
H351 C364 0.960 . S
C352 H344 0.929 . S
C352 C353 1.377 . S
C352 C354 1.384 . S
C353 C352 1.377 . S
C353 C359 1.390 . S
C354 H345 0.930 . S
C354 C352 1.384 . S
C354 C355 1.372 . S
C355 C354 1.372 . S
C355 C356 1.400 . S
C355 C360 1.490 . S
C356 H346 0.930 . S
C356 C355 1.400 . S
C356 C359 1.386 . S
H357 C373 0.930 . S
H358 C374 0.931 . S
C359 H347 0.929 . S
C359 C353 1.390 . S
C359 C356 1.386 . S
C360 C355 1.490 . S
C360 C362 1.395 . S
C360 C363 1.403 . S
H361 C367 0.930 . S
C362 H348 0.930 . S
C362 C360 1.395 . S
C362 C365 1.403 . S
C363 C360 1.403 . S
C363 C364 1.524 . S
C363 C367 1.400 . S
C364 H349 0.960 . S
C364 H350 0.960 . S
C364 H351 0.960 . S
C364 C363 1.524 . S
C365 C362 1.403 . S
C365 C366 1.392 . S
C365 C369 1.495 . S
C366 C365 1.392 . S
C366 C367 1.385 . S
C366 C368 1.478 . S
C367 H361 0.930 . S
C367 C363 1.400 . S
C367 C366 1.385 . S
C368 C366 1.478 . S
C368 C370 1.381 . S
C368 C374 1.383 . S
C369 C365 1.495 . S
C369 H375 0.959 . S
C369 H376 0.961 . S
C369 H377 0.960 . S
C370 C368 1.381 . S
C370 C371 1.394 . S
C370 H378 0.930 . S
C371 C370 1.394 . S
C371 C372 1.383 . S
C371 H379 0.929 . S
C372 C371 1.383 . S
C372 C373 1.377 . S
C373 H357 0.930 . S
C373 C372 1.377 . S
C373 C374 1.379 . S
C374 H358 0.931 . S
C374 C368 1.383 . S
C374 C373 1.379 . S
H375 C369 0.959 . S
H376 C369 0.961 . S
H377 C369 0.960 . S
H378 C370 0.930 . S
H379 C371 0.929 . S
H380 C388 0.929 . S
H381 C390 0.930 1_556 S
H382 C392 0.930 . S
H383 C395 0.929 . S
H384 C398 0.930 . S
H385 C400 0.960 . S
H386 C400 0.960 . S
H387 C400 0.960 . S
C388 H380 0.929 . S
C388 C389 1.377 . S
C388 C390 1.384 . S
C389 C388 1.377 . S
C389 C395 1.390 . S
C390 H381 0.930 1_554 S
C390 C388 1.384 . S
C390 C391 1.372 . S
C391 C390 1.372 . S
C391 C392 1.400 . S
C391 C396 1.490 . S
C392 H382 0.930 . S
C392 C391 1.400 . S
C392 C395 1.386 . S
H393 C409 0.930 . S
H394 C410 0.931 . S
C395 H383 0.929 . S
C395 C389 1.390 . S
C395 C392 1.386 . S
C396 C391 1.490 . S
C396 C398 1.395 1_554 S
C396 C399 1.403 1_455 S
H397 C403 0.930 . S
C398 H384 0.930 . S
C398 C396 1.395 1_556 S
C398 C401 1.403 1_545 S
C399 C396 1.403 1_655 S
C399 C400 1.524 . S
C399 C403 1.400 1_545 S
C400 H385 0.960 . S
C400 H386 0.960 . S
C400 H387 0.960 . S
C400 C399 1.524 . S
C401 C398 1.403 1_565 S
C401 C402 1.392 1_455 S
C401 C405 1.495 . S
C402 C401 1.392 1_655 S
C402 C403 1.385 1_556 S
C402 C404 1.478 . S
C403 H397 0.930 . S
C403 C399 1.400 1_565 S
C403 C402 1.385 1_554 S
C404 C402 1.478 . S
C404 C406 1.381 . S
C404 C410 1.383 . S
C405 C401 1.495 . S
C405 H411 0.959 . S
C405 H412 0.961 . S
C405 H413 0.960 . S
C406 C404 1.381 . S
C406 C407 1.394 . S
C406 H414 0.930 . S
C407 C406 1.394 . S
C407 C408 1.383 . S
C407 H415 0.929 . S
C408 C407 1.383 . S
C408 C409 1.377 . S
C409 H393 0.930 . S
C409 C408 1.377 . S
C409 C410 1.379 . S
C410 H394 0.931 . S
C410 C404 1.383 . S
C410 C409 1.379 . S
H411 C405 0.959 . S
H412 C405 0.961 . S
H413 C405 0.960 . S
H414 C406 0.930 . S
H415 C407 0.929 . S
H416 C424 0.929 . S
H417 C426 0.930 . S
H418 C428 0.918 1_554 S
H419 C431 0.929 . S
H420 C434 0.930 . S
H421 C436 0.960 . S
H422 C436 0.960 . S
H423 C436 0.960 . S
C424 H416 0.929 . S
C424 C425 1.377 . S
C424 C426 1.384 . S
C425 C424 1.377 . S
C425 C431 1.390 . S
C426 H417 0.930 . S
C426 C424 1.384 . S
C426 C427 1.372 . S
C427 C426 1.372 . S
C427 C428 1.400 . S
C427 C432 1.490 . S
C428 H418 0.918 1_556 S
C428 C427 1.400 . S
C428 C431 1.386 . S
H429 C445 0.930 . S
H430 C446 0.931 . S
C431 H419 0.929 . S
C431 C425 1.390 . S
C431 C428 1.386 . S
C432 C427 1.490 . S
C432 C434 1.395 1_545 S
C432 C435 1.403 1_556 S
H433 C439 0.930 . S
C434 H420 0.930 . S
C434 C432 1.395 1_565 S
C434 C437 1.403 . S
C435 C432 1.403 1_554 S
C435 C436 1.524 . S
C435 C439 1.400 . S
C436 H421 0.960 . S
C436 H422 0.960 . S
C436 H423 0.960 . S
C436 C435 1.524 . S
C437 C434 1.403 . S
C437 C438 1.392 1_556 S
C437 C441 1.495 . S
C438 C437 1.392 1_554 S
C438 C439 1.385 1_565 S
C438 C440 1.478 . S
C439 H433 0.930 . S
C439 C435 1.400 . S
C439 C438 1.385 1_545 S
C440 C438 1.478 . S
C440 C442 1.381 . S
C440 C446 1.383 . S
C441 C437 1.495 . S
C441 H447 0.959 . S
C441 H448 0.961 . S
C441 H449 0.960 . S
C442 C440 1.381 . S
C442 C443 1.394 . S
C442 H450 0.930 1_554 S
C443 C442 1.394 . S
C443 C444 1.383 . S
C443 H451 0.929 . S
C444 C443 1.383 . S
C444 C445 1.377 . S
C445 H429 0.930 . S
C445 C444 1.377 . S
C445 C446 1.379 . S
C446 H430 0.931 . S
C446 C440 1.383 . S
C446 C445 1.379 . S
H447 C441 0.959 . S
H448 C441 0.961 . S
H449 C441 0.960 . S
H450 C442 0.930 1_556 S
H451 C443 0.929 . S
H452 C460 0.929 . S
H453 C462 0.930 . S
H454 C464 0.930 . S
H455 C467 0.929 . S
H456 C470 0.930 . S
H457 C472 0.960 . S
H458 C472 0.960 . S
H459 C472 0.960 . S
C460 H452 0.929 . S
C460 C461 1.377 . S
C460 C462 1.384 . S
C461 C460 1.377 . S
C461 C467 1.390 . S
C462 H453 0.930 . S
C462 C460 1.384 . S
C462 C463 1.372 . S
C463 C462 1.372 . S
C463 C464 1.400 . S
C463 C468 1.490 . S
C464 H454 0.930 . S
C464 C463 1.400 . S
C464 C467 1.386 . S
H465 C481 0.930 . S
H466 C482 0.931 . S
C467 H455 0.929 . S
C467 C461 1.390 . S
C467 C464 1.386 . S
C468 C463 1.490 . S
C468 C470 1.395 . S
C468 C471 1.403 1_655 S
H469 C475 0.930 . S
C470 H456 0.930 . S
C470 C468 1.395 . S
C470 C473 1.403 . S
C471 C468 1.403 1_455 S
C471 C472 1.524 . S
C471 C475 1.400 . S
C472 H457 0.960 . S
C472 H458 0.960 . S
C472 H459 0.960 . S
C472 C471 1.524 . S
C473 C470 1.403 . S
C473 C474 1.392 1_655 S
C473 C477 1.495 . S
C474 C473 1.392 1_455 S
C474 C475 1.385 . S
C474 C476 1.478 . S
C475 H469 0.930 . S
C475 C471 1.400 . S
C475 C474 1.385 . S
C476 C474 1.478 . S
C476 C478 1.381 . S
C476 C482 1.383 . S
C477 C473 1.495 . S
C477 H483 0.959 . S
C477 H484 0.961 . S
C477 H485 0.960 . S
C478 C476 1.381 . S
C478 C479 1.394 . S
C478 H486 0.930 . S
C479 C478 1.394 . S
C479 C480 1.383 . S
C479 H487 0.929 . S
C480 C479 1.383 . S
C480 C481 1.377 . S
C481 H465 0.930 . S
C481 C480 1.377 . S
C481 C482 1.379 . S
C482 H466 0.931 . S
C482 C476 1.383 . S
C482 C481 1.379 . S
H483 C477 0.959 . S
H484 C477 0.961 . S
H485 C477 0.960 . S
H486 C478 0.930 . S
H487 C479 0.929 . S
H488 C496 0.929 . S
H489 C498 0.930 . S
H490 C500 0.930 . S
H491 C503 0.929 . S
H492 C506 0.930 . S
H493 C508 0.960 . S
H494 C508 0.960 . S
H495 C508 0.960 . S
C496 H488 0.929 . S
C496 C497 1.377 . S
C496 C498 1.384 . S
C497 C496 1.377 . S
C497 C503 1.390 . S
C498 H489 0.930 . S
C498 C496 1.384 . S
C498 C499 1.372 . S
C499 C498 1.372 . S
C499 C500 1.400 . S
C499 C504 1.490 . S
C500 H490 0.930 . S
C500 C499 1.400 . S
C500 C503 1.386 . S
H501 C517 0.930 . S
H502 C518 0.931 . S
C503 H491 0.929 . S
C503 C497 1.390 . S
C503 C500 1.386 . S
C504 C499 1.490 . S
C504 C506 1.395 . S
C504 C507 1.403 . S
H505 C511 0.930 . S
C506 H492 0.930 . S
C506 C504 1.395 . S
C506 C509 1.403 . S
C507 C504 1.403 . S
C507 C508 1.524 . S
C507 C511 1.400 . S
C508 H493 0.960 . S
C508 H494 0.960 . S
C508 H495 0.960 . S
C508 C507 1.524 . S
C509 C506 1.403 . S
C509 C510 1.392 . S
C509 C513 1.495 . S
C510 C509 1.392 . S
C510 C511 1.385 . S
C510 C512 1.478 . S
C511 H505 0.930 . S
C511 C507 1.400 . S
C511 C510 1.385 . S
C512 C510 1.478 . S
C512 C514 1.381 . S
C512 C518 1.383 . S
C513 C509 1.495 . S
C513 H519 0.959 . S
C513 H520 0.961 . S
C513 H521 0.960 . S
C514 C512 1.381 . S
C514 C515 1.394 . S
C514 H522 0.930 . S
C515 C514 1.394 . S
C515 C516 1.383 . S
C515 H523 0.929 . S
C516 C515 1.383 . S
C516 C517 1.377 . S
C517 H501 0.930 . S
C517 C516 1.377 . S
C517 C518 1.379 . S
C518 H502 0.931 . S
C518 C512 1.383 . S
C518 C517 1.379 . S
H519 C513 0.959 . S
H520 C513 0.961 . S
H521 C513 0.960 . S
H522 C514 0.930 . S
H523 C515 0.929 . S
C245 C92 1.252 . S
C264 C52 1.246 . S
C281 C33 1.252 . S
C300 C111 1.245 . S
C317 C210 1.247 . S
C336 C170 1.249 . S
C353 C151 1.251 . S
C372 C229 1.249 . S
C389 C3 1.484 . S
C408 C121 1.489 . S
C425 C182 1.493 . S
C444 C64 1.498 . S
C461 C123 1.491 . S
C480 C5 1.494 . S
C497 C62 1.484 . S
C516 C180 1.491 . S
