# Generated by pormake.
# Topology qtz-e, (6)-cn, num edge types: 1
# Building blocks:
#     Node 0, Type 0, BuildingBlock: PAMTUU_clean_sbu_0, # of connection points: 6
#     Node 1, Type 0, BuildingBlock: PAMTUU_clean_sbu_0, # of connection points: 6
#     Node 2, Type 0, BuildingBlock: PAMTUU_clean_sbu_0, # of connection points: 6
#     Node 3, Type 0, BuildingBlock: PAMTUU_clean_sbu_0, # of connection points: 6
#     Node 4, Type 0, BuildingBlock: PAMTUU_clean_sbu_0, # of connection points: 6
#     Node 5, Type 0, BuildingBlock: PAMTUU_clean_sbu_0, # of connection points: 6
#     Edge 6, Type (0, 0), BuildingBlock: EYOCIG_clean_linker_4, # of connection points: 2
#     Edge 7, Type (0, 0), BuildingBlock: EYOCIG_clean_linker_4, # of connection points: 2
#     Edge 8, Type (0, 0), BuildingBlock: EYOCIG_clean_linker_4, # of connection points: 2
#     Edge 9, Type (0, 0), BuildingBlock: EYOCIG_clean_linker_4, # of connection points: 2
#     Edge 10, Type (0, 0), BuildingBlock: EYOCIG_clean_linker_4, # of connection points: 2
#     Edge 11, Type (0, 0), BuildingBlock: EYOCIG_clean_linker_4, # of connection points: 2
#     Edge 12, Type (0, 0), BuildingBlock: EYOCIG_clean_linker_4, # of connection points: 2
#     Edge 13, Type (0, 0), BuildingBlock: EYOCIG_clean_linker_4, # of connection points: 2
#     Edge 14, Type (0, 0), BuildingBlock: EYOCIG_clean_linker_4, # of connection points: 2
#     Edge 15, Type (0, 0), BuildingBlock: EYOCIG_clean_linker_4, # of connection points: 2
#     Edge 16, Type (0, 0), BuildingBlock: EYOCIG_clean_linker_4, # of connection points: 2
#     Edge 17, Type (0, 0), BuildingBlock: EYOCIG_clean_linker_4, # of connection points: 2
#     Edge 18, Type (0, 0), BuildingBlock: EYOCIG_clean_linker_4, # of connection points: 2
#     Edge 19, Type (0, 0), BuildingBlock: EYOCIG_clean_linker_4, # of connection points: 2
#     Edge 20, Type (0, 0), BuildingBlock: EYOCIG_clean_linker_4, # of connection points: 2
#     Edge 21, Type (0, 0), BuildingBlock: EYOCIG_clean_linker_4, # of connection points: 2
#     Edge 22, Type (0, 0), BuildingBlock: EYOCIG_clean_linker_4, # of connection points: 2
#     Edge 23, Type (0, 0), BuildingBlock: EYOCIG_clean_linker_4, # of connection points: 2
# Relax obj value: 0.235
# Max RMSD: 0.226
# Mean RMSD: 0.226
data_MOF--net-qtz-e--node1-PAMTUU_clean_sbu_0--edge1-EYOCIG_clean_linker_4
_symmetry_space_group_name_H-M    P1
_symmetry_Int_Tables_number       1
_symmetry_cell_setting            triclinic
loop_
_symmetry_equiv_pos_as_xyz
'x, y, z'
_cell_length_a     21.588211
_cell_length_b     21.599218
_cell_length_c     42.903499
_cell_angle_alpha  90.006259
_cell_angle_beta   89.998799
_cell_angle_gamma 120.03702
loop_
_atom_site_label
_atom_site_type_symbol
_atom_site_fract_x
_atom_site_fract_y
_atom_site_fract_z
_atom_type_partial_charge
Tb0 Tb 0.25407 0.32415 0.13182 0.0
Tb1 Tb 0.34233 0.47755 0.09158 0.0
C2 C 0.42173 0.42005 0.13417 0.0
C3 C 0.15497 0.19762 0.19731 0.0
C4 C 0.08824 0.15011 0.25567 0.0
C5 C 0.14092 0.13444 0.24617 0.0
C6 C 0.17404 0.15805 0.21713 0.0
C7 C 0.10492 0.21662 0.20781 0.0
C8 C 0.07176 0.19285 0.23681 0.0
C9 C 0.18434 0.21406 0.16527 0.0
O10 O 0.29569 0.40855 0.16603 0.0
O11 O 0.3219 0.50949 0.13701 0.0
O12 O 0.23321 0.45704 0.0907 0.0
O13 O 0.18597 0.37328 0.13037 0.0
O14 O 0.43922 0.53769 0.06777 0.0
O15 O 0.36193 0.57326 0.07014 0.0
O16 O 0.3083 0.39281 0.05743 0.0
O17 O 0.24639 0.28617 0.08433 0.0
O18 O 0.36734 0.35413 0.13307 0.0
O19 O 0.41759 0.47464 0.12382 0.0
C20 C 0.30567 0.47332 0.1634 0.0
O21 O 0.15498 0.23748 0.14547 0.0
O22 O 0.25369 0.2482 0.1627 0.0
C23 C 0.1848 0.42212 0.11227 0.0
C24 C 0.43398 0.60247 0.02421 0.0
C25 C 0.4655 0.65077 0.96229 0.0
C26 C 0.41383 0.65768 0.97905 0.0
C27 C 0.39818 0.63386 1.00971 0.0
C28 C 0.48567 0.59484 1.00707 0.0
C29 C 0.5014 0.61896 0.97618 0.0
C30 C 0.42177 0.58387 0.05775 0.0
C31 C 0.27194 0.32295 0.05861 0.0
H32 H 0.15469 0.10199 0.26065 0.0
H33 H 0.21289 0.14332 0.20967 0.0
H34 H 0.08972 0.24787 0.1933 0.0
H35 H 0.03157 0.20592 0.24408 0.0
H36 H 0.38592 0.68238 0.96848 0.0
H37 H 0.35889 0.64136 0.02224 0.0
H38 H 0.51482 0.57157 1.01769 0.0
H39 H 0.54175 0.61355 0.96341 0.0
Tb40 Tb 0.72345 0.05908 0.50807 0.0
Tb41 Tb 0.6352 0.12429 0.54842 0.0
C42 C 0.55591 0.98754 0.50564 0.0
C43 C 0.82238 0.03147 0.44252 0.0
C44 C 0.88858 0.0503 0.38405 0.0
C45 C 0.83584 0.98201 0.39363 0.0
C46 C 0.80299 0.97269 0.42272 0.0
C47 C 0.87253 0.10044 0.43196 0.0
C48 C 0.90543 0.10963 0.4029 0.0
C49 C 0.79313 0.01871 0.47458 0.0
O50 O 0.6826 0.10267 0.47388 0.0
O51 O 0.65537 0.17662 0.503 0.0
O52 O 0.74412 0.21344 0.549 0.0
O53 O 0.79175 0.1761 0.50978 0.0
O54 O 0.53808 0.08733 0.5721 0.0
O55 O 0.61564 0.20018 0.5701 0.0
O56 O 0.66944 0.07366 0.58249 0.0
O57 O 0.73077 0.0284 0.55551 0.0
O58 O 0.61026 0.976 0.50665 0.0
O59 O 0.55996 0.04614 0.51613 0.0
C60 C 0.67201 0.15708 0.4766 0.0
O61 O 0.82257 0.07157 0.49436 0.0
O62 O 0.72379 0.98353 0.47718 0.0
C63 C 0.79282 0.22636 0.52763 0.0
C64 C 0.54311 0.15677 0.61588 0.0
C65 C 0.51095 0.17276 0.67781 0.0
C66 C 0.56286 0.23155 0.66123 0.0
C67 C 0.57882 0.22378 0.63056 0.0
C68 C 0.49119 0.09722 0.63284 0.0
C69 C 0.47514 0.10522 0.66374 0.0
C70 C 0.55561 0.15085 0.58232 0.0
C71 C 0.70545 0.03983 0.58126 0.0
H72 H 0.82181 0.9357 0.37915 0.0
H73 H 0.76407 0.91917 0.43022 0.0
H74 H 0.888 0.14698 0.44646 0.0
H75 H 0.94569 0.16285 0.39558 0.0
H76 H 0.59071 0.28405 0.67194 0.0
H77 H 0.61828 0.27074 0.61818 0.0
H78 H 0.46209 0.04494 0.62209 0.0
H79 H 0.4346 0.05931 0.67637 0.0
Tb80 Tb 0.65179 0.9154 0.79833 0.0
Tb81 Tb 0.49822 0.85012 0.75809 0.0
C82 C 0.55592 0.98703 0.80085 0.0
C83 C 0.77841 0.94343 0.86394 0.0
C84 C 0.82587 0.92564 0.92258 0.0
C85 C 0.84111 0.99369 0.91282 0.0
C86 C 0.81754 1.00249 0.88365 0.0
C87 C 0.75992 0.8747 0.87468 0.0
C88 C 0.78365 0.86603 0.90382 0.0
C89 C 0.76193 0.95568 0.83179 0.0
O90 O 0.56737 0.87198 0.83256 0.0
O91 O 0.46605 0.79789 0.80351 0.0
O92 O 0.51727 0.76055 0.75765 0.0
O93 O 0.60309 0.79842 0.79655 0.0
O94 O 0.43894 0.88764 0.73414 0.0
O95 O 0.4021 0.77452 0.73671 0.0
O96 O 0.58297 0.89964 0.7239 0.0
O97 O 0.68972 0.94607 0.75087 0.0
O98 O 0.6218 0.99848 0.79993 0.0
O99 O 0.50132 0.92847 0.79029 0.0
C100 C 0.50232 0.8175 0.82988 0.0
O101 O 0.73799 0.90239 0.81223 0.0
O102 O 0.72826 0.99124 0.82897 0.0
C103 C 0.55363 0.74796 0.77884 0.0
C104 C 0.37346 0.81756 0.6907 0.0
C105 C 0.32476 0.80066 0.62885 0.0
C106 C 0.31813 0.74215 0.64555 0.0
C107 C 0.34216 0.75038 0.67618 0.0
C108 C 0.38083 0.87681 0.67362 0.0
C109 C 0.35651 0.86836 0.64276 0.0
C110 C 0.39217 0.82406 0.72423 0.0
C111 C 0.65285 0.93391 0.72511 0.0
H112 H 0.87319 0.04022 0.92722 0.0
H113 H 0.83192 0.05585 0.87601 0.0
H114 H 0.72907 0.82794 0.86025 0.0
H115 H 0.77094 0.81299 0.91127 0.0
H116 H 0.29348 0.68954 0.63496 0.0
H117 H 0.33487 0.70364 0.68867 0.0
H118 H 0.40403 0.92921 0.68425 0.0
H119 H 0.36171 0.91406 0.63003 0.0
Tb120 Tb 0.91767 0.65128 0.1747 0.0
Tb121 Tb 0.85234 0.49779 0.21494 0.0
C122 C 0.98968 0.55579 0.17268 0.0
C123 C 0.94497 0.77759 0.10909 0.0
C124 C 0.92554 0.82555 0.05087 0.0
C125 C 0.99397 0.84118 0.06028 0.0
C126 C 1.00358 0.81734 0.08924 0.0
C127 C 0.87583 0.75857 0.09866 0.0
C128 C 0.86634 0.78257 0.06973 0.0
C129 C 0.9581 0.76117 0.1411 0.0
O130 O 0.87495 0.56668 0.14057 0.0
O131 O 0.79952 0.46602 0.1696 0.0
O132 O 0.76408 0.5188 0.21605 0.0
O133 O 0.80046 0.60233 0.1763 0.0
O134 O 0.88907 0.43763 0.23871 0.0
O135 O 0.77615 0.40198 0.23635 0.0
O136 O 0.90344 0.5826 0.24905 0.0
O137 O 0.94732 0.68928 0.22222 0.0
O138 O 1.00126 0.62169 0.17403 0.0
O139 O 0.93051 0.50098 0.18262 0.0
C140 C 0.81965 0.50215 0.1432 0.0
O141 O 0.90552 0.73803 0.16101 0.0
O142 O 0.99309 0.72684 0.14361 0.0
C143 C 0.75055 0.55374 0.19452 0.0
C144 C 0.81892 0.3725 0.28223 0.0
C145 C 0.80191 0.32377 0.3441 0.0
C146 C 0.74342 0.31718 0.32737 0.0
C147 C 0.75169 0.34121 0.29674 0.0
C148 C 0.87816 0.37977 0.29932 0.0
C149 C 0.86965 0.35544 0.33019 0.0
C150 C 0.82538 0.39135 0.2487 0.0
C151 C 0.93641 0.65245 0.24792 0.0
H152 H 0.04018 0.87379 0.04579 0.0
H153 H 0.05723 0.83209 0.09663 0.0
H154 H 0.8294 0.72718 0.11319 0.0
H155 H 0.81301 0.7695 0.06254 0.0
H156 H 0.69077 0.29259 0.33795 0.0
H157 H 0.70495 0.33397 0.28425 0.0
H158 H 0.9306 0.40294 0.2887 0.0
H159 H 0.91536 0.3606 0.34293 0.0
Tb160 Tb 0.06026 0.72275 0.46508 0.0
Tb161 Tb 0.12504 0.63405 0.42467 0.0
C162 C 0.98798 0.55503 0.46737 0.0
C163 C 0.03279 0.82156 0.53085 0.0
C164 C 0.05 0.88772 0.58923 0.0
C165 C 0.98207 0.8344 0.57951 0.0
C166 C 0.97356 0.80157 0.55046 0.0
C167 C 0.10144 0.87218 0.54161 0.0
C168 C 0.10982 0.90503 0.57063 0.0
C169 C 0.02073 0.79303 0.49865 0.0
O170 O 0.1029 0.68075 0.49917 0.0
O171 O 0.17747 0.65443 0.47006 0.0
O172 O 0.21427 0.74287 0.42401 0.0
O173 O 0.17733 0.79077 0.46327 0.0
O174 O 0.08821 0.53692 0.40104 0.0
O175 O 0.20108 0.61451 0.4031 0.0
O176 O 0.07449 0.66843 0.39062 0.0
O177 O 0.0301 0.7306 0.4176 0.0
O178 O 0.97682 0.60963 0.46655 0.0
O179 O 0.04648 0.55885 0.45682 0.0
C180 C 0.15766 0.6707 0.49647 0.0
O181 O 0.07437 0.82215 0.47925 0.0
O182 O 0.98446 0.72384 0.49563 0.0
C183 C 0.2274 0.79172 0.44531 0.0
C184 C 0.15795 0.54163 0.35742 0.0
C185 C 0.17441 0.50901 0.29564 0.0
C186 C 0.23304 0.56126 0.31219 0.0
C187 C 0.22503 0.57746 0.34278 0.0
C188 C 0.09857 0.48933 0.34049 0.0
C189 C 0.1068 0.47306 0.30967 0.0
C190 C 0.15182 0.5544 0.39092 0.0
C191 C 0.04122 0.705 0.39185 0.0
H192 H 0.9354 0.81999 0.5938 0.0
H193 H 0.92026 0.76233 0.54281 0.0
H194 H 0.14833 0.88819 0.52727 0.0
H195 H 0.16277 0.94573 0.57806 0.0
H196 H 0.28558 0.58923 0.30151 0.0
H197 H 0.27188 0.61719 0.35515 0.0
H198 H 0.04624 0.46014 0.35122 0.0
H199 H 0.061 0.43227 0.29705 0.0
Tb200 Tb 0.32511 0.25191 0.84147 0.0
Tb201 Tb 0.47869 0.34044 0.88181 0.0
C202 C 0.42065 0.41954 0.83929 0.0
C203 C 0.19873 0.15382 0.77561 0.0
C204 C 0.15 0.08819 0.71711 0.0
C205 C 0.13545 0.14144 0.72691 0.0
C206 C 0.15966 0.17401 0.75601 0.0
C207 C 0.21669 0.10326 0.76479 0.0
C208 C 0.19234 0.07067 0.73571 0.0
C209 C 0.2152 0.18218 0.80783 0.0
O210 O 0.40984 0.2939 0.80737 0.0
O211 O 0.51065 0.31978 0.83646 0.0
O212 O 0.459 0.2316 0.88238 0.0
O213 O 0.37377 0.1836 0.84325 0.0
O214 O 0.5395 0.43781 0.90523 0.0
O215 O 0.57399 0.35968 0.90359 0.0
O216 O 0.39378 0.30638 0.91587 0.0
O217 O 0.28708 0.24375 0.88898 0.0
O218 O 0.3548 0.365 0.84032 0.0
O219 O 0.47543 0.41557 0.84959 0.0
C220 C 0.4745 0.30349 0.81006 0.0
O221 O 0.23935 0.15276 0.82722 0.0
O222 O 0.24854 0.25138 0.81089 0.0
C223 C 0.42304 0.18268 0.86112 0.0
C224 C 0.60386 0.43304 0.94911 0.0
C225 C 0.65259 0.4661 1.01094 0.0
C226 C 0.65926 0.41394 0.99449 0.0
C227 C 0.63524 0.39753 0.96388 0.0
C228 C 0.59647 0.48524 0.96593 0.0
C229 C 0.62081 0.50174 0.99677 0.0
C230 C 0.5852 0.42004 0.91558 0.0
C231 C 0.32389 0.26962 0.91469 0.0
H232 H 0.10332 0.15601 0.71262 0.0
H233 H 0.14566 0.21322 0.76372 0.0
H234 H 0.24747 0.08712 0.77912 0.0
H235 H 0.20455 0.03003 0.72823 0.0
H236 H 0.68394 0.38622 1.00527 0.0
H237 H 0.64259 0.35789 0.9516 0.0
H238 H 0.57323 0.51419 0.9551 0.0
H239 H 0.61558 0.54246 1.0093 0.0
C240 C 0.21089 0.49273 0.23942 0.0
C241 C 0.18635 0.4942 0.26435 0.0
C242 C 0.24829 0.49722 0.21193 0.0
C243 C 0.27709 0.49438 0.18848 0.0
C244 C 0.49866 0.24592 0.76164 0.0
C245 C 0.49551 0.2747 0.78504 0.0
C246 C 0.49458 0.20874 0.73413 0.0
C247 C 0.49619 0.18447 0.70915 0.0
C248 C 0.48134 0.70313 0.906 0.0
C249 C 0.4799 0.67726 0.93096 0.0
C250 C 0.47726 0.73612 0.87847 0.0
C251 C 0.48062 0.76787 0.85499 0.0
C252 C 0.72821 0.23838 0.42795 0.0
C253 C 0.69986 0.2067 0.45147 0.0
C254 C 0.76526 0.27128 0.40039 0.0
C255 C 0.78971 0.29716 0.37542 0.0
C256 C 0.27209 0.76422 0.5726 0.0
C257 C 0.29805 0.78855 0.59756 0.0
C258 C 0.23907 0.72725 0.54505 0.0
C259 C 0.2073 0.69885 0.52157 0.0
C260 C 0.73819 0.47863 0.09472 0.0
C261 C 0.76994 0.48148 0.11815 0.0
C262 C 0.70521 0.4829 0.06722 0.0
C263 C 0.67923 0.48119 0.04224 0.0
C264 C 0.5461 0.46246 0.16184 0.0
C265 C 0.48749 0.43665 0.14985 0.0
C266 C 0.61605 0.49701 0.17498 0.0
C267 C 0.67719 0.5225 0.18407 0.0
C268 C 0.90558 0.43081 0.49505 0.0
C269 C 0.93869 0.48936 0.48306 0.0
C270 C 0.87021 0.36083 0.5081 0.0
C271 C 0.83512 0.29938 0.51685 0.0
C272 C 0.47946 0.10466 0.84169 0.0
C273 C 0.45359 0.14014 0.85047 0.0
C274 C 0.51391 0.06917 0.82861 0.0
C275 C 0.5394 0.03615 0.81658 0.0
C276 C 0.4966 0.61354 0.7984 0.0
C277 C 0.52321 0.67507 0.78976 0.0
C278 C 0.46204 0.54366 0.81158 0.0
C279 C 0.43689 0.48519 0.82362 0.0
C280 C 0.10756 0.47921 0.13209 0.0
C281 C 0.14296 0.45355 0.12288 0.0
C282 C 0.07221 0.5138 0.14525 0.0
C283 C 0.03926 0.53951 0.15716 0.0
C284 C 0.36191 0.86982 0.46469 0.0
C285 C 0.30056 0.83425 0.45588 0.0
C286 C 0.43182 0.90539 0.47781 0.0
C287 C 0.49028 0.93843 0.48989 0.0
C288 C 0.26905 0.25825 0.97065 0.0
C289 C 0.28718 0.25938 0.9439 0.0
C290 C 0.26018 0.2677 1.00269 0.0
C291 C 0.26165 0.2862 0.0294 0.0
C292 C 0.96552 0.07366 0.33294 0.0
C293 C 0.92875 0.05976 0.35591 0.0
C294 C 0.01084 0.09633 0.30665 0.0
C295 C 0.04778 0.11932 0.28373 0.0
C296 C 0.70768 0.97748 0.66915 0.0
C297 C 0.68949 0.96052 0.69589 0.0
C298 C 0.71675 0.9959 0.63713 0.0
C299 C 0.71548 0.01309 0.61043 0.0
C300 C 0.87942 0.90283 0.97383 0.0
C301 C 0.85663 0.91667 0.95081 0.0
C302 C 0.90193 0.87995 1.0001 0.0
C303 C 0.91582 0.85666 0.02292 0.0
C304 C 0.9978 0.71669 0.33594 0.0
C305 C 0.01477 0.71535 0.36266 0.0
C306 C 0.97957 0.7075 0.30388 0.0
C307 C 0.96266 0.68916 0.27715 0.0
C308 C 0.09496 0.01103 0.66619 0.0
C309 C 0.11838 0.04809 0.68905 0.0
C310 C 0.07217 0.96528 0.64003 0.0
C311 C 0.0586 0.9281 0.61722 0.0
loop_
_geom_bond_atom_site_label_1
_geom_bond_atom_site_label_2
_geom_bond_distance
_geom_bond_site_symmetry_2
_ccdc_geom_bond_type
Tb0 C9 2.764 . S
Tb0 O10 2.325 . S
Tb0 O13 2.303 . S
Tb0 O17 2.322 . S
Tb0 O18 2.349 . S
Tb0 O21 2.415 . S
Tb0 O22 2.399 . S
Tb1 O11 2.322 . S
Tb1 O12 2.349 . S
Tb1 O14 2.415 . S
Tb1 O15 2.399 . S
Tb1 O16 2.325 . S
Tb1 O19 2.303 . S
Tb1 C30 2.764 . S
C2 O18 1.261 . S
C2 O19 1.257 . S
C3 C6 1.358 . S
C3 C7 1.332 . S
C3 C9 1.504 . S
C4 C5 1.373 . S
C4 C8 1.308 . S
C5 C4 1.373 . S
C5 C6 1.429 . S
C5 H32 0.932 . S
C6 C3 1.358 . S
C6 C5 1.429 . S
C6 H33 0.930 . S
C7 C3 1.332 . S
C7 C8 1.394 . S
C7 H34 0.932 . S
C8 C4 1.308 . S
C8 C7 1.394 . S
C8 H35 0.929 . S
C9 Tb0 2.764 . S
C9 C3 1.504 . S
C9 O21 1.239 . S
C9 O22 1.263 . S
O10 Tb0 2.325 . S
O10 C20 1.236 . S
O11 Tb1 2.322 . S
O11 C20 1.257 . S
O12 Tb1 2.349 . S
O12 C23 1.261 . S
O13 Tb0 2.303 . S
O13 C23 1.257 . S
O14 Tb1 2.415 . S
O14 C30 1.239 . S
O15 Tb1 2.399 . S
O15 C30 1.263 . S
O16 Tb1 2.325 . S
O16 C31 1.236 . S
O17 Tb0 2.322 . S
O17 C31 1.257 . S
O18 Tb0 2.349 . S
O18 C2 1.261 . S
O19 Tb1 2.303 . S
O19 C2 1.257 . S
C20 O10 1.236 . S
C20 O11 1.257 . S
O21 Tb0 2.415 . S
O21 C9 1.239 . S
O22 Tb0 2.399 . S
O22 C9 1.263 . S
C23 O12 1.261 . S
C23 O13 1.257 . S
C24 C27 1.358 . S
C24 C28 1.332 . S
C24 C30 1.504 1_556 S
C25 C26 1.373 . S
C25 C29 1.308 . S
C26 C25 1.373 . S
C26 C27 1.429 . S
C26 H36 0.932 . S
C27 C24 1.358 . S
C27 C26 1.429 . S
C27 H37 0.930 . S
C28 C24 1.332 . S
C28 C29 1.394 . S
C28 H38 0.932 . S
C29 C25 1.308 . S
C29 C28 1.394 . S
C29 H39 0.929 . S
C30 Tb1 2.764 . S
C30 O14 1.239 . S
C30 O15 1.263 . S
C30 C24 1.504 1_554 S
C31 O16 1.236 . S
C31 O17 1.257 . S
H32 C5 0.932 . S
H33 C6 0.930 . S
H34 C7 0.932 . S
H35 C8 0.929 . S
H36 C26 0.932 . S
H37 C27 0.930 . S
H38 C28 0.932 . S
H39 C29 0.929 . S
Tb40 C49 2.764 . S
Tb40 O50 2.325 . S
Tb40 O53 2.303 . S
Tb40 O57 2.322 . S
Tb40 O58 2.349 1_545 S
Tb40 O61 2.415 . S
Tb40 O62 2.399 1_545 S
Tb41 O51 2.322 . S
Tb41 O52 2.349 . S
Tb41 O54 2.415 . S
Tb41 O55 2.399 . S
Tb41 O56 2.325 . S
Tb41 O59 2.303 . S
Tb41 C70 2.764 . S
C42 O58 1.261 . S
C42 O59 1.257 1_565 S
C43 C46 1.358 1_545 S
C43 C47 1.332 . S
C43 C49 1.504 . S
C44 C45 1.373 1_545 S
C44 C48 1.308 . S
C45 C44 1.373 1_565 S
C45 C46 1.429 . S
C45 H72 0.932 . S
C46 C43 1.358 1_565 S
C46 C45 1.429 . S
C46 H73 0.930 . S
C47 C43 1.332 . S
C47 C48 1.394 . S
C47 H74 0.932 . S
C48 C44 1.308 . S
C48 C47 1.394 . S
C48 H75 0.929 . S
C49 Tb40 2.764 . S
C49 C43 1.504 . S
C49 O61 1.239 . S
C49 O62 1.263 1_545 S
O50 Tb40 2.325 . S
O50 C60 1.236 . S
O51 Tb41 2.322 . S
O51 C60 1.257 . S
O52 Tb41 2.349 . S
O52 C63 1.261 . S
O53 Tb40 2.303 . S
O53 C63 1.257 . S
O54 Tb41 2.415 . S
O54 C70 1.239 . S
O55 Tb41 2.399 . S
O55 C70 1.263 . S
O56 Tb41 2.325 . S
O56 C71 1.236 . S
O57 Tb40 2.322 . S
O57 C71 1.257 . S
O58 Tb40 2.349 1_565 S
O58 C42 1.261 . S
O59 Tb41 2.303 . S
O59 C42 1.257 1_545 S
C60 O50 1.236 . S
C60 O51 1.257 . S
O61 Tb40 2.415 . S
O61 C49 1.239 . S
O62 Tb40 2.399 1_565 S
O62 C49 1.263 1_565 S
C63 O52 1.261 . S
C63 O53 1.257 . S
C64 C67 1.358 . S
C64 C68 1.332 . S
C64 C70 1.504 . S
C65 C66 1.373 . S
C65 C69 1.308 . S
C66 C65 1.373 . S
C66 C67 1.429 . S
C66 H76 0.932 . S
C67 C64 1.358 . S
C67 C66 1.429 . S
C67 H77 0.930 . S
C68 C64 1.332 . S
C68 C69 1.394 . S
C68 H78 0.932 . S
C69 C65 1.308 . S
C69 C68 1.394 . S
C69 H79 0.929 . S
C70 Tb41 2.764 . S
C70 O54 1.239 . S
C70 O55 1.263 . S
C70 C64 1.504 . S
C71 O56 1.236 . S
C71 O57 1.257 . S
H72 C45 0.932 . S
H73 C46 0.930 . S
H74 C47 0.932 . S
H75 C48 0.929 . S
H76 C66 0.932 . S
H77 C67 0.930 . S
H78 C68 0.932 . S
H79 C69 0.929 . S
Tb80 C89 2.764 . S
Tb80 O90 2.325 . S
Tb80 O93 2.303 . S
Tb80 O97 2.322 . S
Tb80 O98 2.349 1_565 S
Tb80 O101 2.415 . S
Tb80 O102 2.399 . S
Tb81 O91 2.322 . S
Tb81 O92 2.349 . S
Tb81 O94 2.415 . S
Tb81 O95 2.399 . S
Tb81 O96 2.325 . S
Tb81 O99 2.303 . S
Tb81 C110 2.764 . S
C82 O98 1.261 . S
C82 O99 1.257 1_545 S
C83 C86 1.358 . S
C83 C87 1.332 . S
C83 C89 1.504 . S
C84 C85 1.373 . S
C84 C88 1.308 . S
C85 C84 1.373 . S
C85 C86 1.429 . S
C85 H112 0.932 1_565 S
C86 C83 1.358 . S
C86 C85 1.429 . S
C86 H113 0.930 1_565 S
C87 C83 1.332 . S
C87 C88 1.394 . S
C87 H114 0.932 . S
C88 C84 1.308 . S
C88 C87 1.394 . S
C88 H115 0.929 . S
C89 Tb80 2.764 . S
C89 C83 1.504 . S
C89 O101 1.239 . S
C89 O102 1.263 . S
O90 Tb80 2.325 . S
O90 C100 1.236 . S
O91 Tb81 2.322 . S
O91 C100 1.257 . S
O92 Tb81 2.349 . S
O92 C103 1.261 . S
O93 Tb80 2.303 . S
O93 C103 1.257 . S
O94 Tb81 2.415 . S
O94 C110 1.239 . S
O95 Tb81 2.399 . S
O95 C110 1.263 . S
O96 Tb81 2.325 . S
O96 C111 1.236 . S
O97 Tb80 2.322 . S
O97 C111 1.257 . S
O98 Tb80 2.349 1_545 S
O98 C82 1.261 . S
O99 Tb81 2.303 . S
O99 C82 1.257 1_565 S
C100 O90 1.236 . S
C100 O91 1.257 . S
O101 Tb80 2.415 . S
O101 C89 1.239 . S
O102 Tb80 2.399 . S
O102 C89 1.263 . S
C103 O92 1.261 . S
C103 O93 1.257 . S
C104 C107 1.358 . S
C104 C108 1.332 . S
C104 C110 1.504 . S
C105 C106 1.373 . S
C105 C109 1.308 . S
C106 C105 1.373 . S
C106 C107 1.429 . S
C106 H116 0.932 . S
C107 C104 1.358 . S
C107 C106 1.429 . S
C107 H117 0.930 . S
C108 C104 1.332 . S
C108 C109 1.394 . S
C108 H118 0.932 . S
C109 C105 1.308 . S
C109 C108 1.394 . S
C109 H119 0.929 . S
C110 Tb81 2.764 . S
C110 O94 1.239 . S
C110 O95 1.263 . S
C110 C104 1.504 . S
C111 O96 1.236 . S
C111 O97 1.257 . S
H112 C85 0.932 1_545 S
H113 C86 0.930 1_545 S
H114 C87 0.932 . S
H115 C88 0.929 . S
H116 C106 0.932 . S
H117 C107 0.930 . S
H118 C108 0.932 . S
H119 C109 0.929 . S
Tb120 C129 2.764 . S
Tb120 O130 2.325 . S
Tb120 O133 2.303 . S
Tb120 O137 2.322 . S
Tb120 O138 2.349 1_655 S
Tb120 O141 2.415 . S
Tb120 O142 2.399 . S
Tb121 O131 2.322 . S
Tb121 O132 2.349 . S
Tb121 O134 2.415 . S
Tb121 O135 2.399 . S
Tb121 O136 2.325 . S
Tb121 O139 2.303 . S
Tb121 C150 2.764 . S
C122 O138 1.261 . S
C122 O139 1.257 1_455 S
C123 C126 1.358 . S
C123 C127 1.332 . S
C123 C129 1.504 . S
C124 C125 1.373 . S
C124 C128 1.308 . S
C125 C124 1.373 . S
C125 C126 1.429 . S
C125 H152 0.932 1_655 S
C126 C123 1.358 . S
C126 C125 1.429 . S
C126 H153 0.930 1_655 S
C127 C123 1.332 . S
C127 C128 1.394 . S
C127 H154 0.932 . S
C128 C124 1.308 . S
C128 C127 1.394 . S
C128 H155 0.929 . S
C129 Tb120 2.764 . S
C129 C123 1.504 . S
C129 O141 1.239 . S
C129 O142 1.263 . S
O130 Tb120 2.325 . S
O130 C140 1.236 . S
O131 Tb121 2.322 . S
O131 C140 1.257 . S
O132 Tb121 2.349 . S
O132 C143 1.261 . S
O133 Tb120 2.303 . S
O133 C143 1.257 . S
O134 Tb121 2.415 . S
O134 C150 1.239 . S
O135 Tb121 2.399 . S
O135 C150 1.263 . S
O136 Tb121 2.325 . S
O136 C151 1.236 . S
O137 Tb120 2.322 . S
O137 C151 1.257 . S
O138 Tb120 2.349 1_455 S
O138 C122 1.261 . S
O139 Tb121 2.303 . S
O139 C122 1.257 1_655 S
C140 O130 1.236 . S
C140 O131 1.257 . S
O141 Tb120 2.415 . S
O141 C129 1.239 . S
O142 Tb120 2.399 . S
O142 C129 1.263 . S
C143 O132 1.261 . S
C143 O133 1.257 . S
C144 C147 1.358 . S
C144 C148 1.332 . S
C144 C150 1.504 . S
C145 C146 1.373 . S
C145 C149 1.308 . S
C146 C145 1.373 . S
C146 C147 1.429 . S
C146 H156 0.932 . S
C147 C144 1.358 . S
C147 C146 1.429 . S
C147 H157 0.930 . S
C148 C144 1.332 . S
C148 C149 1.394 . S
C148 H158 0.932 . S
C149 C145 1.308 . S
C149 C148 1.394 . S
C149 H159 0.929 . S
C150 Tb121 2.764 . S
C150 O134 1.239 . S
C150 O135 1.263 . S
C150 C144 1.504 . S
C151 O136 1.236 . S
C151 O137 1.257 . S
H152 C125 0.932 1_455 S
H153 C126 0.930 1_455 S
H154 C127 0.932 . S
H155 C128 0.929 . S
H156 C146 0.932 . S
H157 C147 0.930 . S
H158 C148 0.932 . S
H159 C149 0.929 . S
Tb160 C169 2.764 . S
Tb160 O170 2.325 . S
Tb160 O173 2.303 . S
Tb160 O177 2.322 . S
Tb160 O178 2.349 1_455 S
Tb160 O181 2.415 . S
Tb160 O182 2.399 1_455 S
Tb161 O171 2.322 . S
Tb161 O172 2.349 . S
Tb161 O174 2.415 . S
Tb161 O175 2.399 . S
Tb161 O176 2.325 . S
Tb161 O179 2.303 . S
Tb161 C190 2.764 . S
C162 O178 1.261 . S
C162 O179 1.257 1_655 S
C163 C166 1.358 1_455 S
C163 C167 1.332 . S
C163 C169 1.504 . S
C164 C165 1.373 1_455 S
C164 C168 1.308 . S
C165 C164 1.373 1_655 S
C165 C166 1.429 . S
C165 H192 0.932 . S
C166 C163 1.358 1_655 S
C166 C165 1.429 . S
C166 H193 0.930 . S
C167 C163 1.332 . S
C167 C168 1.394 . S
C167 H194 0.932 . S
C168 C164 1.308 . S
C168 C167 1.394 . S
C168 H195 0.929 . S
C169 Tb160 2.764 . S
C169 C163 1.504 . S
C169 O181 1.239 . S
C169 O182 1.263 1_455 S
O170 Tb160 2.325 . S
O170 C180 1.236 . S
O171 Tb161 2.322 . S
O171 C180 1.257 . S
O172 Tb161 2.349 . S
O172 C183 1.261 . S
O173 Tb160 2.303 . S
O173 C183 1.257 . S
O174 Tb161 2.415 . S
O174 C190 1.239 . S
O175 Tb161 2.399 . S
O175 C190 1.263 . S
O176 Tb161 2.325 . S
O176 C191 1.236 . S
O177 Tb160 2.322 . S
O177 C191 1.257 . S
O178 Tb160 2.349 1_655 S
O178 C162 1.261 . S
O179 Tb161 2.303 . S
O179 C162 1.257 1_455 S
C180 O170 1.236 . S
C180 O171 1.257 . S
O181 Tb160 2.415 . S
O181 C169 1.239 . S
O182 Tb160 2.399 1_655 S
O182 C169 1.263 1_655 S
C183 O172 1.261 . S
C183 O173 1.257 . S
C184 C187 1.358 . S
C184 C188 1.332 . S
C184 C190 1.504 . S
C185 C186 1.373 . S
C185 C189 1.308 . S
C186 C185 1.373 . S
C186 C187 1.429 . S
C186 H196 0.932 . S
C187 C184 1.358 . S
C187 C186 1.429 . S
C187 H197 0.930 . S
C188 C184 1.332 . S
C188 C189 1.394 . S
C188 H198 0.932 . S
C189 C185 1.308 . S
C189 C188 1.394 . S
C189 H199 0.929 . S
C190 Tb161 2.764 . S
C190 O174 1.239 . S
C190 O175 1.263 . S
C190 C184 1.504 . S
C191 O176 1.236 . S
C191 O177 1.257 . S
H192 C165 0.932 . S
H193 C166 0.930 . S
H194 C167 0.932 . S
H195 C168 0.929 . S
H196 C186 0.932 . S
H197 C187 0.930 . S
H198 C188 0.932 . S
H199 C189 0.929 . S
Tb200 C209 2.764 . S
Tb200 O210 2.325 . S
Tb200 O213 2.303 . S
Tb200 O217 2.322 . S
Tb200 O218 2.349 . S
Tb200 O221 2.415 . S
Tb200 O222 2.399 . S
Tb201 O211 2.322 . S
Tb201 O212 2.349 . S
Tb201 O214 2.415 . S
Tb201 O215 2.399 . S
Tb201 O216 2.325 . S
Tb201 O219 2.303 . S
Tb201 C230 2.764 . S
C202 O218 1.261 . S
C202 O219 1.257 . S
C203 C206 1.358 . S
C203 C207 1.332 . S
C203 C209 1.504 . S
C204 C205 1.373 . S
C204 C208 1.308 . S
C205 C204 1.373 . S
C205 C206 1.429 . S
C205 H232 0.932 . S
C206 C203 1.358 . S
C206 C205 1.429 . S
C206 H233 0.930 . S
C207 C203 1.332 . S
C207 C208 1.394 . S
C207 H234 0.932 . S
C208 C204 1.308 . S
C208 C207 1.394 . S
C208 H235 0.929 . S
C209 Tb200 2.764 . S
C209 C203 1.504 . S
C209 O221 1.239 . S
C209 O222 1.263 . S
O210 Tb200 2.325 . S
O210 C220 1.236 . S
O211 Tb201 2.322 . S
O211 C220 1.257 . S
O212 Tb201 2.349 . S
O212 C223 1.261 . S
O213 Tb200 2.303 . S
O213 C223 1.257 . S
O214 Tb201 2.415 . S
O214 C230 1.239 . S
O215 Tb201 2.399 . S
O215 C230 1.263 . S
O216 Tb201 2.325 . S
O216 C231 1.236 . S
O217 Tb200 2.322 . S
O217 C231 1.257 . S
O218 Tb200 2.349 . S
O218 C202 1.261 . S
O219 Tb201 2.303 . S
O219 C202 1.257 . S
C220 O210 1.236 . S
C220 O211 1.257 . S
O221 Tb200 2.415 . S
O221 C209 1.239 . S
O222 Tb200 2.399 . S
O222 C209 1.263 . S
C223 O212 1.261 . S
C223 O213 1.257 . S
C224 C227 1.358 . S
C224 C228 1.332 . S
C224 C230 1.504 . S
C225 C226 1.373 . S
C225 C229 1.308 . S
C226 C225 1.373 . S
C226 C227 1.429 . S
C226 H236 0.932 . S
C227 C224 1.358 . S
C227 C226 1.429 . S
C227 H237 0.930 . S
C228 C224 1.332 . S
C228 C229 1.394 . S
C228 H238 0.932 . S
C229 C225 1.308 . S
C229 C228 1.394 . S
C229 H239 0.929 . S
C230 Tb201 2.764 . S
C230 O214 1.239 . S
C230 O215 1.263 . S
C230 C224 1.504 . S
C231 O216 1.236 . S
C231 O217 1.257 . S
H232 C205 0.932 . S
H233 C206 0.930 . S
H234 C207 0.932 . S
H235 C208 0.929 . S
H236 C226 0.932 . S
H237 C227 0.930 . S
H238 C228 0.932 . S
H239 C229 0.929 . S
C240 C241 1.170 . S
C240 C242 1.380 . S
C241 C240 1.170 . S
C242 C240 1.380 . S
C242 C243 1.170 . S
C243 C242 1.170 . S
C244 C245 1.170 . S
C244 C246 1.380 . S
C245 C244 1.170 . S
C246 C244 1.380 . S
C246 C247 1.170 . S
C247 C246 1.170 . S
C248 C249 1.170 . S
C248 C250 1.380 . S
C249 C248 1.170 . S
C250 C248 1.380 . S
C250 C251 1.170 . S
C251 C250 1.170 . S
C252 C253 1.170 . S
C252 C254 1.380 . S
C253 C252 1.170 . S
C254 C252 1.380 . S
C254 C255 1.170 . S
C255 C254 1.170 . S
C256 C257 1.170 . S
C256 C258 1.380 . S
C257 C256 1.170 . S
C258 C256 1.380 . S
C258 C259 1.170 . S
C259 C258 1.170 . S
C260 C261 1.170 . S
C260 C262 1.380 . S
C261 C260 1.170 . S
C262 C260 1.380 . S
C262 C263 1.170 . S
C263 C262 1.170 . S
C264 C265 1.170 . S
C264 C266 1.380 . S
C265 C264 1.170 . S
C266 C264 1.380 . S
C266 C267 1.170 . S
C267 C266 1.170 . S
C268 C269 1.170 . S
C268 C270 1.380 . S
C269 C268 1.170 . S
C270 C268 1.380 . S
C270 C271 1.170 . S
C271 C270 1.170 . S
C272 C273 1.170 . S
C272 C274 1.380 . S
C273 C272 1.170 . S
C274 C272 1.380 . S
C274 C275 1.170 . S
C275 C274 1.170 . S
C276 C277 1.170 . S
C276 C278 1.380 . S
C277 C276 1.170 . S
C278 C276 1.380 . S
C278 C279 1.170 . S
C279 C278 1.170 . S
C280 C281 1.170 . S
C280 C282 1.380 . S
C281 C280 1.170 . S
C282 C280 1.380 . S
C282 C283 1.170 . S
C283 C282 1.170 . S
C284 C285 1.170 . S
C284 C286 1.380 . S
C285 C284 1.170 . S
C286 C284 1.380 . S
C286 C287 1.170 . S
C287 C286 1.170 . S
C288 C289 1.170 . S
C288 C290 1.380 . S
C289 C288 1.170 . S
C290 C288 1.380 . S
C290 C291 1.170 1_556 S
C291 C290 1.170 1_554 S
C292 C293 1.170 . S
C292 C294 1.380 1_655 S
C293 C292 1.170 . S
C294 C292 1.380 1_455 S
C294 C295 1.170 . S
C295 C294 1.170 . S
C296 C297 1.170 . S
C296 C298 1.380 . S
C297 C296 1.170 . S
C298 C296 1.380 . S
C298 C299 1.170 . S
C299 C298 1.170 . S
C300 C301 1.170 . S
C300 C302 1.380 . S
C301 C300 1.170 . S
C302 C300 1.380 . S
C302 C303 1.170 1_556 S
C303 C302 1.170 1_554 S
C304 C305 1.170 1_655 S
C304 C306 1.380 . S
C305 C304 1.170 1_455 S
C306 C304 1.380 . S
C306 C307 1.170 . S
C307 C306 1.170 . S
C308 C309 1.170 . S
C308 C310 1.380 1_545 S
C309 C308 1.170 . S
C310 C308 1.380 1_565 S
C310 C311 1.170 . S
C311 C310 1.170 . S
C241 C185 1.617 . S
C243 C20 1.598 . S
C245 C220 1.591 . S
C247 C65 1.597 . S
C249 C25 1.577 . S
C251 C100 1.620 . S
C253 C60 1.625 . S
C255 C145 1.584 . S
C257 C105 1.591 . S
C259 C180 1.623 . S
C261 C140 1.587 . S
C263 C225 1.616 1_554 S
C265 C2 2.017 . S
C267 C143 1.960 . S
C269 C162 2.045 . S
C271 C63 1.917 . S
C273 C223 1.954 . S
C275 C82 2.026 . S
C277 C103 1.913 . S
C279 C202 2.049 . S
C281 C23 1.912 . S
C283 C122 2.052 . S
C285 C183 1.960 . S
C287 C42 2.018 . S
C289 C231 1.671 . S
C291 C31 1.686 . S
C293 C44 0.857 . S
C295 C4 0.860 . S
C297 C111 1.667 . S
C299 C71 1.689 1_565 S
C301 C84 0.864 . S
C303 C124 0.874 . S
C305 C191 1.682 . S
C307 C151 1.676 . S
C309 C204 0.907 . S
C311 C164 0.910 . S
