# Generated by pormake.
# Topology ung, (4)-cn, num edge types: 1
# Building blocks:
#     Node 0, Type 0, BuildingBlock: CEKHIL_clean_sbu_0, # of connection points: 4
#     Node 1, Type 0, BuildingBlock: CEKHIL_clean_sbu_0, # of connection points: 4
#     Node 2, Type 0, BuildingBlock: CEKHIL_clean_sbu_0, # of connection points: 4
#     Node 3, Type 0, BuildingBlock: CEKHIL_clean_sbu_0, # of connection points: 4
#     Node 4, Type 0, BuildingBlock: CEKHIL_clean_sbu_0, # of connection points: 4
#     Node 5, Type 0, BuildingBlock: CEKHIL_clean_sbu_0, # of connection points: 4
#     Node 6, Type 0, BuildingBlock: CEKHIL_clean_sbu_0, # of connection points: 4
#     Node 7, Type 0, BuildingBlock: CEKHIL_clean_sbu_0, # of connection points: 4
#     Node 8, Type 0, BuildingBlock: CEKHIL_clean_sbu_0, # of connection points: 4
#     Node 9, Type 0, BuildingBlock: CEKHIL_clean_sbu_0, # of connection points: 4
#     Node 10, Type 0, BuildingBlock: CEKHIL_clean_sbu_0, # of connection points: 4
#     Node 11, Type 0, BuildingBlock: CEKHIL_clean_sbu_0, # of connection points: 4
#     Node 12, Type 0, BuildingBlock: CEKHIL_clean_sbu_0, # of connection points: 4
#     Node 13, Type 0, BuildingBlock: CEKHIL_clean_sbu_0, # of connection points: 4
#     Node 14, Type 0, BuildingBlock: CEKHIL_clean_sbu_0, # of connection points: 4
#     Node 15, Type 0, BuildingBlock: CEKHIL_clean_sbu_0, # of connection points: 4
#     Node 16, Type 0, BuildingBlock: CEKHIL_clean_sbu_0, # of connection points: 4
#     Node 17, Type 0, BuildingBlock: CEKHIL_clean_sbu_0, # of connection points: 4
#     Edge 18, Type (0, 0), BuildingBlock: TEMPAE_clean_linker_10, # of connection points: 2
#     Edge 19, Type (0, 0), BuildingBlock: TEMPAE_clean_linker_10, # of connection points: 2
#     Edge 20, Type (0, 0), BuildingBlock: TEMPAE_clean_linker_10, # of connection points: 2
#     Edge 21, Type (0, 0), BuildingBlock: TEMPAE_clean_linker_10, # of connection points: 2
#     Edge 22, Type (0, 0), BuildingBlock: TEMPAE_clean_linker_10, # of connection points: 2
#     Edge 23, Type (0, 0), BuildingBlock: TEMPAE_clean_linker_10, # of connection points: 2
#     Edge 24, Type (0, 0), BuildingBlock: TEMPAE_clean_linker_10, # of connection points: 2
#     Edge 25, Type (0, 0), BuildingBlock: TEMPAE_clean_linker_10, # of connection points: 2
#     Edge 26, Type (0, 0), BuildingBlock: TEMPAE_clean_linker_10, # of connection points: 2
#     Edge 27, Type (0, 0), BuildingBlock: TEMPAE_clean_linker_10, # of connection points: 2
#     Edge 28, Type (0, 0), BuildingBlock: TEMPAE_clean_linker_10, # of connection points: 2
#     Edge 29, Type (0, 0), BuildingBlock: TEMPAE_clean_linker_10, # of connection points: 2
#     Edge 30, Type (0, 0), BuildingBlock: TEMPAE_clean_linker_10, # of connection points: 2
#     Edge 31, Type (0, 0), BuildingBlock: TEMPAE_clean_linker_10, # of connection points: 2
#     Edge 32, Type (0, 0), BuildingBlock: TEMPAE_clean_linker_10, # of connection points: 2
#     Edge 33, Type (0, 0), BuildingBlock: TEMPAE_clean_linker_10, # of connection points: 2
#     Edge 34, Type (0, 0), BuildingBlock: TEMPAE_clean_linker_10, # of connection points: 2
#     Edge 35, Type (0, 0), BuildingBlock: TEMPAE_clean_linker_10, # of connection points: 2
#     Edge 36, Type (0, 0), BuildingBlock: TEMPAE_clean_linker_10, # of connection points: 2
#     Edge 37, Type (0, 0), BuildingBlock: TEMPAE_clean_linker_10, # of connection points: 2
#     Edge 38, Type (0, 0), BuildingBlock: TEMPAE_clean_linker_10, # of connection points: 2
#     Edge 39, Type (0, 0), BuildingBlock: TEMPAE_clean_linker_10, # of connection points: 2
#     Edge 40, Type (0, 0), BuildingBlock: TEMPAE_clean_linker_10, # of connection points: 2
#     Edge 41, Type (0, 0), BuildingBlock: TEMPAE_clean_linker_10, # of connection points: 2
#     Edge 42, Type (0, 0), BuildingBlock: TEMPAE_clean_linker_10, # of connection points: 2
#     Edge 43, Type (0, 0), BuildingBlock: TEMPAE_clean_linker_10, # of connection points: 2
#     Edge 44, Type (0, 0), BuildingBlock: TEMPAE_clean_linker_10, # of connection points: 2
#     Edge 45, Type (0, 0), BuildingBlock: TEMPAE_clean_linker_10, # of connection points: 2
#     Edge 46, Type (0, 0), BuildingBlock: TEMPAE_clean_linker_10, # of connection points: 2
#     Edge 47, Type (0, 0), BuildingBlock: TEMPAE_clean_linker_10, # of connection points: 2
#     Edge 48, Type (0, 0), BuildingBlock: TEMPAE_clean_linker_10, # of connection points: 2
#     Edge 49, Type (0, 0), BuildingBlock: TEMPAE_clean_linker_10, # of connection points: 2
#     Edge 50, Type (0, 0), BuildingBlock: TEMPAE_clean_linker_10, # of connection points: 2
#     Edge 51, Type (0, 0), BuildingBlock: TEMPAE_clean_linker_10, # of connection points: 2
#     Edge 52, Type (0, 0), BuildingBlock: TEMPAE_clean_linker_10, # of connection points: 2
#     Edge 53, Type (0, 0), BuildingBlock: TEMPAE_clean_linker_10, # of connection points: 2
# Relax obj value: 0.073
# Max RMSD: 0.189
# Mean RMSD: 0.184
data_MOF--net-ung--node1-CEKHIL_clean_sbu_0--edge1-TEMPAE_clean_linker_10
_symmetry_space_group_name_H-M    P1
_symmetry_Int_Tables_number       1
_symmetry_cell_setting            triclinic
loop_
_symmetry_equiv_pos_as_xyz
'x, y, z'
_cell_length_a     73.161741
_cell_length_b     73.244079
_cell_length_c     22.335816
_cell_angle_alpha  91.103434
_cell_angle_beta   91.167568
_cell_angle_gamma 119.95671
loop_
_atom_site_label
_atom_site_type_symbol
_atom_site_fract_x
_atom_site_fract_y
_atom_site_fract_z
_atom_type_partial_charge
Co0 Co 0.08788 0.62238 0.22499 0.0
O1 O 0.10716 0.6174 0.27089 0.0
O2 O 0.07451 0.59283 0.24482 0.0
C3 C 0.09383 0.65109 0.27941 0.0
O4 O 0.06364 0.62263 0.17824 0.0
Co5 Co 0.10696 0.66354 0.1549 0.0
O6 O 0.07709 0.65428 0.13545 0.0
C7 C 0.10653 0.62639 0.10152 0.0
C8 C 0.09224 0.59799 0.27342 0.0
C9 C 0.06173 0.63615 0.14653 0.0
O10 O 0.09807 0.61629 0.1488 0.0
O11 O 0.11197 0.64576 0.09513 0.0
O12 O 0.08048 0.6323 0.29613 0.0
O13 O 0.10476 0.65197 0.23347 0.0
Co14 Co 0.50041 0.48457 0.24108 0.0
O15 O 0.52015 0.49195 0.1789 0.0
O16 O 0.50513 0.51059 0.20447 0.0
C17 C 0.48086 0.45061 0.21102 0.0
O18 O 0.47827 0.47985 0.30312 0.0
Co19 Co 0.50074 0.45325 0.3311 0.0
O20 O 0.47521 0.45315 0.35889 0.0
C21 C 0.53259 0.49779 0.34647 0.0
C22 C 0.5177 0.50791 0.1693 0.0
C23 C 0.46947 0.46637 0.34459 0.0
O24 O 0.52378 0.50152 0.30178 0.0
O25 O 0.52682 0.47914 0.36337 0.0
O26 O 0.47787 0.46494 0.18712 0.0
O27 O 0.49717 0.45754 0.24731 0.0
Co28 Co 0.6229 0.04975 0.27199 0.0
O29 O 0.59704 0.03617 0.3138 0.0
O30 O 0.61819 0.07077 0.31205 0.0
C31 C 0.63487 0.029 0.30813 0.0
O32 O 0.65129 0.06908 0.23384 0.0
Co33 Co 0.63169 0.02463 0.17665 0.0
O34 O 0.66114 0.04788 0.18842 0.0
C35 C 0.60469 0.04244 0.14401 0.0
C36 C 0.60113 0.05479 0.33152 0.0
C37 C 0.66513 0.06602 0.20754 0.0
O38 O 0.60712 0.05013 0.19766 0.0
O39 O 0.61278 0.03137 0.12648 0.0
O40 O 0.63768 0.04556 0.33824 0.0
O41 O 0.62358 0.02448 0.25881 0.0
Co42 Co 0.06834 0.49005 0.68587 0.0
O43 O 0.06499 0.50676 0.62709 0.0
O44 O 0.09581 0.51041 0.6572 0.0
C45 C 0.04317 0.45903 0.64614 0.0
O46 O 0.07705 0.47478 0.74563 0.0
Co47 Co 0.03118 0.46518 0.76853 0.0
O48 O 0.04824 0.45255 0.79532 0.0
C49 C 0.05908 0.51056 0.7925 0.0
C50 C 0.08525 0.51622 0.62247 0.0
C51 C 0.06763 0.46012 0.78358 0.0
O52 O 0.07073 0.5105 0.7505 0.0
O53 O 0.0415 0.49431 0.80449 0.0
O54 O 0.06212 0.46825 0.62623 0.0
O55 O 0.03927 0.46977 0.6856 0.0
Co56 Co 0.62942 0.62359 0.78124 0.0
O57 O 0.60369 0.61248 0.82361 0.0
O58 O 0.62303 0.59705 0.81667 0.0
C59 C 0.64348 0.65629 0.82207 0.0
O60 O 0.65724 0.63131 0.74071 0.0
Co61 Co 0.63999 0.65927 0.6923 0.0
O62 O 0.66859 0.66292 0.69979 0.0
C63 C 0.61216 0.61478 0.65255 0.0
C64 C 0.60659 0.59709 0.83804 0.0
C65 C 0.67142 0.64784 0.71505 0.0
O66 O 0.61327 0.60864 0.70529 0.0
O67 O 0.62133 0.63414 0.63828 0.0
O68 O 0.64505 0.64171 0.84973 0.0
O69 O 0.63197 0.6503 0.77305 0.0
Co70 Co 0.49208 0.06029 0.73558 0.0
O71 O 0.51454 0.07464 0.68181 0.0
O72 O 0.49814 0.04022 0.69466 0.0
C73 C 0.4743 0.07641 0.70488 0.0
O74 O 0.46735 0.0405 0.78664 0.0
Co75 Co 0.48655 0.08704 0.83365 0.0
O76 O 0.45846 0.06136 0.83891 0.0
C77 C 0.51887 0.07498 0.85228 0.0
C78 C 0.51218 0.05647 0.66652 0.0
C79 C 0.45482 0.04321 0.82069 0.0
O80 O 0.5126 0.06423 0.80256 0.0
O81 O 0.51161 0.08663 0.87138 0.0
O82 O 0.4722 0.05984 0.67641 0.0
O83 O 0.48852 0.08393 0.74801 0.0
Co84 Co 0.72485 0.94929 0.55519 0.0
O85 O 0.72166 0.92509 0.51233 0.0
O86 O 0.75246 0.95358 0.53702 0.0
C87 C 0.70113 0.95319 0.4996 0.0
O88 O 0.73353 0.97711 0.59885 0.0
Co89 Co 0.68673 0.94438 0.62525 0.0
O90 O 0.70461 0.97534 0.638 0.0
C91 C 0.71374 0.9294 0.6778 0.0
C92 C 0.74205 0.93503 0.51051 0.0
C93 C 0.72424 0.98544 0.62741 0.0
O94 O 0.72578 0.93676 0.6332 0.0
O95 O 0.69619 0.92918 0.68153 0.0
O96 O 0.72023 0.96028 0.48231 0.0
O97 O 0.69609 0.94165 0.54655 0.0
Co98 Co 0.15381 0.81636 0.55488 0.0
O99 O 0.17344 0.82348 0.49261 0.0
O100 O 0.1571 0.84121 0.51442 0.0
C101 C 0.1357 0.78187 0.52782 0.0
O102 O 0.13149 0.81174 0.61592 0.0
Co103 Co 0.1555 0.78729 0.64968 0.0
O104 O 0.13052 0.78778 0.67977 0.0
C105 C 0.18726 0.83194 0.65707 0.0
C106 C 0.16992 0.8386 0.48021 0.0
C107 C 0.12378 0.79975 0.661 0.0
O108 O 0.1772 0.83491 0.61411 0.0
O109 O 0.18236 0.81362 0.67493 0.0
O110 O 0.13161 0.7953 0.50272 0.0
O111 O 0.15195 0.78998 0.56466 0.0
Co112 Co 0.29879 0.3958 0.57776 0.0
O113 O 0.28826 0.41208 0.53985 0.0
O114 O 0.27089 0.37727 0.54129 0.0
C115 C 0.33097 0.41342 0.5375 0.0
O116 O 0.30548 0.37389 0.6117 0.0
Co117 Co 0.33619 0.41762 0.66878 0.0
O118 O 0.3383 0.3921 0.65273 0.0
C119 C 0.29316 0.40376 0.70926 0.0
C120 C 0.27169 0.39446 0.5232 0.0
C121 C 0.32223 0.3748 0.63477 0.0
O122 O 0.28589 0.39701 0.65557 0.0
O123 O 0.31289 0.41309 0.72368 0.0
O124 O 0.31514 0.39801 0.50813 0.0
O125 O 0.32661 0.41892 0.58835 0.0
Co126 Co 0.74076 0.83398 0.05266 0.0
O127 O 0.73116 0.84973 0.00833 0.0
O128 O 0.76489 0.86 0.0272 0.0
C129 C 0.71979 0.80313 0.00332 0.0
O130 O 0.75544 0.82062 0.09787 0.0
Co131 Co 0.70709 0.79855 0.1295 0.0
O132 O 0.72972 0.79135 0.1389 0.0
C133 C 0.72819 0.84256 0.17464 0.0
C134 C 0.75077 0.86352 0.00194 0.0
C135 C 0.74906 0.80362 0.1274 0.0
O136 O 0.74003 0.84817 0.12924 0.0
O137 O 0.71279 0.82384 0.18094 0.0
O138 O 0.73766 0.81682 0.98183 0.0
O139 O 0.71416 0.80947 0.05021 0.0
Co140 Co 0.28569 0.94947 0.09913 0.0
O141 O 0.2585 0.93781 0.13326 0.0
O142 O 0.2772 0.92165 0.12891 0.0
C143 C 0.29854 0.9807 0.14827 0.0
O144 O 0.31486 0.95763 0.06703 0.0
Co145 Co 0.30079 0.98784 0.01882 0.0
O146 O 0.32878 0.99101 0.03742 0.0
C147 C 0.27223 0.94514 0.96733 0.0
C148 C 0.26034 0.92169 0.14651 0.0
C149 C 0.33053 0.97506 0.04985 0.0
O150 O 0.27214 0.9373 0.01832 0.0
O151 O 0.28225 0.96495 0.95808 0.0
O152 O 0.29878 0.965 0.17327 0.0
O153 O 0.28929 0.97676 0.0957 0.0
Co154 Co 0.16189 0.3876 0.06881 0.0
O155 O 0.18789 0.40393 0.02965 0.0
O156 O 0.17278 0.36956 0.04022 0.0
C157 C 0.14497 0.40179 0.01959 0.0
O158 O 0.13429 0.36601 0.10677 0.0
Co159 Co 0.14615 0.41121 0.14924 0.0
O160 O 0.11905 0.38449 0.13807 0.0
C161 C 0.17806 0.40169 0.19838 0.0
C162 C 0.18821 0.3867 0.01909 0.0
C163 C 0.11838 0.36706 0.12685 0.0
O164 O 0.17756 0.39267 0.14796 0.0
O165 O 0.16724 0.41078 0.20778 0.0
O166 O 0.14621 0.38612 0.9962 0.0
O167 O 0.15549 0.4096 0.06984 0.0
Co168 Co 0.40219 0.28612 0.91129 0.0
O169 O 0.42042 0.27731 0.94644 0.0
O170 O 0.38604 0.25648 0.93025 0.0
C171 C 0.41468 0.31531 0.97036 0.0
O172 O 0.37872 0.29071 0.87619 0.0
Co173 Co 0.42202 0.32802 0.84517 0.0
O174 O 0.39417 0.32534 0.85885 0.0
C175 C 0.4151 0.28935 0.78144 0.0
C176 C 0.40387 0.25901 0.95203 0.0
C177 C 0.37777 0.30731 0.86339 0.0
O178 O 0.40776 0.27898 0.82918 0.0
O179 O 0.42201 0.30917 0.77835 0.0
O180 O 0.40001 0.29729 0.9883 0.0
O181 O 0.42251 0.31494 0.91913 0.0
Co182 Co 0.83326 0.14876 0.92668 0.0
O183 O 0.85884 0.15637 0.88671 0.0
O184 O 0.84719 0.17841 0.90686 0.0
C185 C 0.81347 0.11942 0.86993 0.0
O186 O 0.80676 0.1453 0.96709 0.0
Co187 Co 0.81289 0.10735 0.9956 0.0
O188 O 0.78789 0.11095 0.98864 0.0
C189 C 0.84803 0.14565 0.05305 0.0
C190 C 0.86136 0.17506 0.88254 0.0
C191 C 0.78962 0.12903 0.98337 0.0
O192 O 0.84886 0.15588 0.00618 0.0
O193 O 0.83512 0.12592 0.05787 0.0
O194 O 0.81717 0.13765 0.85209 0.0
O195 O 0.82337 0.11966 0.91899 0.0
Co196 Co 0.95597 0.70248 0.94967 0.0
O197 O 0.93437 0.69034 0.00705 0.0
O198 O 0.95432 0.72467 0.99437 0.0
C199 C 0.97073 0.68281 0.97285 0.0
O200 O 0.98056 0.72021 0.89575 0.0
Co201 Co 0.9549 0.67368 0.84618 0.0
O202 O 0.98381 0.69736 0.83438 0.0
C203 C 0.92738 0.69198 0.83692 0.0
C204 C 0.93958 0.70937 0.02375 0.0
C205 C 0.99054 0.71597 0.8559 0.0
O206 O 0.9354 0.70181 0.8873 0.0
O207 O 0.93187 0.67861 0.81394 0.0
O208 O 0.97543 0.69986 0.00364 0.0
O209 O 0.95555 0.6768 0.93282 0.0
Co210 Co 0.39241 0.15782 0.3759 0.0
O211 O 0.38585 0.16785 0.30515 0.0
O212 O 0.41825 0.18037 0.34417 0.0
C213 C 0.37266 0.12361 0.34895 0.0
O214 O 0.40441 0.1499 0.44782 0.0
Co215 Co 0.3559 0.13213 0.45949 0.0
O216 O 0.37693 0.12684 0.50069 0.0
C217 C 0.37598 0.17816 0.46475 0.0
C218 C 0.40589 0.18061 0.30173 0.0
C219 C 0.39663 0.13703 0.491 0.0
O220 O 0.38921 0.17887 0.42671 0.0
O221 O 0.36026 0.16084 0.48084 0.0
O222 O 0.39169 0.13487 0.33043 0.0
O223 O 0.36523 0.13384 0.37805 0.0
Co224 Co 0.96342 0.27677 0.47077 0.0
O225 O 0.94248 0.2661 0.5303 0.0
O226 O 0.96458 0.25431 0.51276 0.0
C227 C 0.97525 0.31071 0.49761 0.0
O228 O 0.98765 0.28512 0.41327 0.0
Co229 Co 0.9598 0.30388 0.37211 0.0
O230 O 0.98922 0.31104 0.35696 0.0
C231 C 0.93275 0.25764 0.36341 0.0
C232 C 0.94948 0.25362 0.54433 0.0
C233 C 0.99676 0.29967 0.37491 0.0
O234 O 0.9427 0.25601 0.40918 0.0
O235 O 0.93601 0.27537 0.3443 0.0
O236 O 0.98222 0.29984 0.52508 0.0
O237 O 0.9603 0.3004 0.45762 0.0
Co238 Co 0.83843 0.73148 0.41707 0.0
O239 O 0.8643 0.74287 0.37522 0.0
O240 O 0.84219 0.70876 0.38546 0.0
C241 C 0.82743 0.75156 0.37118 0.0
O242 O 0.80995 0.71404 0.45682 0.0
Co243 Co 0.83048 0.75968 0.50228 0.0
O244 O 0.80083 0.73665 0.49626 0.0
C245 C 0.85612 0.74162 0.54579 0.0
C246 C 0.85944 0.72358 0.36325 0.0
C247 C 0.79651 0.718 0.48185 0.0
O248 O 0.85385 0.73282 0.49385 0.0
O249 O 0.84831 0.75336 0.55885 0.0
O250 O 0.82422 0.73397 0.34687 0.0
O251 O 0.83851 0.75752 0.4212 0.0
C252 C 0.08863 0.5459 0.82746 0.0
C253 C 0.0674 0.52998 0.83096 0.0
C254 C 0.0975 0.56355 0.8669 0.0
C255 C 0.08479 0.56549 0.91046 0.0
C256 C 0.06317 0.54995 0.91282 0.0
C257 C 0.05475 0.53229 0.87328 0.0
C258 C 0.12065 0.57967 0.86346 0.0
C259 C 0.04905 0.5517 0.95823 0.0
C260 C 0.10747 0.59539 0.05813 0.0
C261 C 0.10638 0.61371 0.04927 0.0
C262 C 0.1017 0.58011 0.01194 0.0
C263 C 0.09431 0.5831 0.95598 0.0
C264 C 0.09455 0.60222 0.9455 0.0
C265 C 0.10078 0.61743 0.99228 0.0
C266 C 0.10217 0.56015 0.02439 0.0
C267 C 0.08666 0.60591 0.88655 0.0
H268 H 0.09861 0.5443 0.79506 0.0
H269 H 0.03833 0.52017 0.87608 0.0
H270 H 0.12286 0.59574 0.8604 0.0
H271 H 0.12917 0.57952 0.90496 0.0
H272 H 0.12802 0.57659 0.82443 0.0
H273 H 0.0323 0.53909 0.95148 0.0
H274 H 0.05451 0.55067 0.00409 0.0
H275 H 0.04994 0.56724 0.95564 0.0
H276 H 0.11182 0.59252 0.1022 0.0
H277 H 0.09963 0.63145 0.98552 0.0
H278 H 0.11 0.55647 0.9879 0.0
H279 H 0.08577 0.54673 0.02607 0.0
H280 H 0.11054 0.56132 0.06761 0.0
H281 H 0.09371 0.60198 0.84846 0.0
H282 H 0.09028 0.62249 0.88305 0.0
H283 H 0.0693 0.59542 0.88204 0.0
C284 C 0.60086 0.57501 0.92722 0.0
C285 C 0.59259 0.58176 0.88125 0.0
C286 C 0.58824 0.56351 0.9746 0.0
C287 C 0.56674 0.55819 0.97486 0.0
C288 C 0.55817 0.56429 0.92708 0.0
C289 C 0.57129 0.57628 0.88137 0.0
C290 C 0.59802 0.55755 0.0252 0.0
C291 C 0.53519 0.55831 0.92448 0.0
C292 C 0.53071 0.51146 0.06665 0.0
C293 C 0.52825 0.52119 0.11813 0.0
C294 C 0.54274 0.5233 0.01926 0.0
C295 C 0.55299 0.54554 0.02386 0.0
C296 C 0.55022 0.55552 0.07525 0.0
C297 C 0.53762 0.54316 0.12173 0.0
C298 C 0.54477 0.51198 0.96477 0.0
C299 C 0.56115 0.57923 0.08198 0.0
H300 H 0.61744 0.57962 0.92771 0.0
H301 H 0.56493 0.58159 0.84583 0.0
H302 H 0.59621 0.56416 0.06834 0.0
H303 H 0.58974 0.54016 0.02864 0.0
H304 H 0.61507 0.56335 0.01911 0.0
H305 H 0.53086 0.56371 0.88322 0.0
H306 H 0.52504 0.54093 0.92614 0.0
H307 H 0.53165 0.56528 0.96396 0.0
H308 H 0.52335 0.49442 0.06371 0.0
H309 H 0.5359 0.55067 0.16183 0.0
H310 H 0.56144 0.51596 0.96072 0.0
H311 H 0.54024 0.51719 0.92354 0.0
H312 H 0.53478 0.49457 0.96678 0.0
H313 H 0.5785 0.5859 0.0818 0.0
H314 H 0.55712 0.58455 0.12408 0.0
H315 H 0.55677 0.58578 0.04349 0.0
C316 C 0.60005 0.05321 0.04219 0.0
C317 C 0.59266 0.04745 0.10005 0.0
C318 C 0.58943 0.0592 0.00095 0.0
C319 C 0.57055 0.05863 0.01737 0.0
C320 C 0.56289 0.05253 0.07562 0.0
C321 C 0.57429 0.04741 0.11667 0.0
C322 C 0.59846 0.06626 0.93999 0.0
C323 C 0.54246 0.05101 0.0942 0.0
C324 C 0.548 0.0877 0.93108 0.0
C325 C 0.5333 0.07165 0.8919 0.0
C326 C 0.56082 0.08392 0.97082 0.0
C327 C 0.55826 0.06343 0.97283 0.0
C328 C 0.54341 0.04722 0.93331 0.0
C329 C 0.53139 0.05163 0.89271 0.0
C330 C 0.57699 0.10178 0.0109 0.0
C331 C 0.53971 0.02501 0.93521 0.0
H332 H 0.61448 0.05358 0.02976 0.0
H333 H 0.5686 0.04295 0.1615 0.0
H334 H 0.58743 0.05514 0.90468 0.0
H335 H 0.60036 0.08198 0.93137 0.0
H336 H 0.614 0.0672 0.93573 0.0
H337 H 0.53855 0.04572 0.14084 0.0
H338 H 0.54344 0.06655 0.09069 0.0
H339 H 0.52933 0.03975 0.06357 0.0
H340 H 0.54953 0.1032 0.93037 0.0
H341 H 0.51982 0.03908 0.86306 0.0
H342 H 0.59274 0.10325 0.00606 0.0
H343 H 0.57279 0.09842 0.05842 0.0
H344 H 0.57816 0.11709 0.00058 0.0
H345 H 0.55454 0.02495 0.9266 0.0
H346 H 0.52741 0.01417 0.90176 0.0
H347 H 0.53473 0.01876 0.9805 0.0
C348 C 0.59658 0.07157 0.42396 0.0
C349 C 0.58765 0.05694 0.37586 0.0
C350 C 0.58421 0.07108 0.47196 0.0
C351 C 0.56235 0.05599 0.47067 0.0
C352 C 0.55316 0.0418 0.42075 0.0
C353 C 0.56599 0.04224 0.37442 0.0
C354 C 0.59465 0.08623 0.5249 0.0
C355 C 0.52981 0.026 0.41656 0.0
C356 C 0.53222 0.04134 0.61562 0.0
C357 C 0.52395 0.05492 0.61577 0.0
C358 C 0.54501 0.04165 0.5689 0.0
C359 C 0.54895 0.05538 0.52072 0.0
C360 C 0.53995 0.06854 0.51999 0.0
C361 C 0.52785 0.06837 0.56792 0.0
C362 C 0.55471 0.0277 0.57169 0.0
C363 C 0.54313 0.08287 0.46864 0.0
H364 H 0.61341 0.08267 0.42551 0.0
H365 H 0.55912 0.03088 0.33716 0.0
H366 H 0.58726 0.09614 0.53128 0.0
H367 H 0.59228 0.07729 0.56633 0.0
H368 H 0.61185 0.09674 0.51945 0.0
H369 H 0.52499 0.01677 0.37339 0.0
H370 H 0.52551 0.01489 0.45367 0.0
H371 H 0.5206 0.03422 0.42132 0.0
H372 H 0.52932 0.03109 0.65292 0.0
H373 H 0.52127 0.07875 0.56781 0.0
H374 H 0.57216 0.0375 0.57099 0.0
H375 H 0.54951 0.01682 0.5318 0.0
H376 H 0.55041 0.01821 0.61259 0.0
H377 H 0.56013 0.09464 0.46552 0.0
H378 H 0.53424 0.09141 0.47373 0.0
H379 H 0.53798 0.07356 0.42568 0.0
C380 C 0.07778 0.56432 0.3284 0.0
C381 C 0.09499 0.58368 0.31354 0.0
C382 C 0.07958 0.55293 0.37583 0.0
C383 C 0.09897 0.56127 0.40912 0.0
C384 C 0.1168 0.57991 0.39105 0.0
C385 C 0.11462 0.59083 0.34324 0.0
C386 C 0.06032 0.53279 0.39309 0.0
C387 C 0.13772 0.58932 0.42529 0.0
C388 C 0.09082 0.54807 0.57247 0.0
C389 C 0.09479 0.53132 0.57508 0.0
C390 C 0.09347 0.55885 0.51944 0.0
C391 C 0.09967 0.55223 0.46747 0.0
C392 C 0.10498 0.53614 0.47098 0.0
C393 C 0.10259 0.5259 0.52523 0.0
C394 C 0.08819 0.57631 0.51804 0.0
C395 C 0.11148 0.52856 0.4165 0.0
H396 H 0.06263 0.55865 0.30533 0.0
H397 H 0.12811 0.60568 0.33148 0.0
H398 H 0.06441 0.52033 0.40109 0.0
H399 H 0.05431 0.53562 0.43545 0.0
H400 H 0.04746 0.52693 0.3581 0.0
H401 H 0.15073 0.60194 0.4003 0.0
H402 H 0.13655 0.59622 0.46872 0.0
H403 H 0.14185 0.57702 0.43537 0.0
H404 H 0.08445 0.55191 0.61105 0.0
H405 H 0.10508 0.51251 0.52715 0.0
H406 H 0.07359 0.5711 0.49013 0.0
H407 H 0.10103 0.59045 0.49746 0.0
H408 H 0.08566 0.58089 0.56352 0.0
H409 H 0.09744 0.51916 0.38631 0.0
H410 H 0.11832 0.51852 0.42865 0.0
H411 H 0.12317 0.54205 0.39097 0.0
C412 C 0.61204 0.59948 0.55255 0.0
C413 C 0.60142 0.59852 0.60488 0.0
C414 C 0.6029 0.5832 0.50857 0.0
C415 C 0.58236 0.56602 0.51639 0.0
C416 C 0.57146 0.56519 0.56894 0.0
C417 C 0.58135 0.58128 0.61326 0.0
C418 C 0.61528 0.58426 0.45419 0.0
C419 C 0.54928 0.54744 0.57802 0.0
C420 C 0.54861 0.53546 0.37999 0.0
C421 C 0.54797 0.51605 0.38455 0.0
C422 C 0.56015 0.55202 0.42183 0.0
C423 C 0.57183 0.54934 0.46857 0.0
C424 C 0.57239 0.53032 0.47135 0.0
C425 C 0.56022 0.51376 0.42967 0.0
C426 C 0.55884 0.57191 0.41792 0.0
C427 C 0.58523 0.52719 0.51959 0.0
H428 H 0.62781 0.61267 0.54699 0.0
H429 H 0.57329 0.58058 0.65412 0.0
H430 H 0.61629 0.56968 0.44945 0.0
H431 H 0.60707 0.58523 0.41311 0.0
H432 H 0.63154 0.59807 0.4567 0.0
H433 H 0.54286 0.54941 0.62078 0.0
H434 H 0.53869 0.54661 0.54047 0.0
H435 H 0.54898 0.53215 0.57795 0.0
H436 H 0.53914 0.53742 0.34552 0.0
H437 H 0.55992 0.49888 0.4333 0.0
H438 H 0.57488 0.58593 0.41726 0.0
H439 H 0.55115 0.57373 0.45813 0.0
H440 H 0.54972 0.57181 0.3774 0.0
H441 H 0.60154 0.54085 0.52259 0.0
H442 H 0.586 0.51258 0.51134 0.0
H443 H 0.57811 0.52617 0.56366 0.0
C444 C 0.75555 0.87051 0.24216 0.0
C445 C 0.73419 0.85805 0.22449 0.0
C446 C 0.76176 0.88469 0.29147 0.0
C447 C 0.74626 0.88689 0.32228 0.0
C448 C 0.72468 0.87457 0.30379 0.0
C449 C 0.71885 0.85996 0.25567 0.0
C450 C 0.78476 0.89693 0.31135 0.0
C451 C 0.70772 0.87687 0.33472 0.0
C452 C 0.74938 0.90694 0.48045 0.0
C453 C 0.75181 0.92677 0.47019 0.0
C454 C 0.75008 0.89455 0.43296 0.0
C455 C 0.75232 0.90198 0.37401 0.0
C456 C 0.75683 0.92287 0.36456 0.0
C457 C 0.75682 0.93519 0.4133 0.0
C458 C 0.74613 0.8727 0.44512 0.0
C459 C 0.75893 0.93127 0.30235 0.0
H460 H 0.76736 0.86869 0.21841 0.0
H461 H 0.70237 0.85027 0.24176 0.0
H462 H 0.79058 0.91411 0.31121 0.0
H463 H 0.78664 0.89306 0.35804 0.0
H464 H 0.79484 0.89343 0.28224 0.0
H465 H 0.69191 0.86704 0.31249 0.0
H466 H 0.70687 0.87218 0.38195 0.0
H467 H 0.71163 0.8936 0.33529 0.0
H468 H 0.74522 0.90043 0.52458 0.0
H469 H 0.7582 0.9504 0.40555 0.0
H470 H 0.75617 0.86879 0.41725 0.0
H471 H 0.7294 0.86098 0.43345 0.0
H472 H 0.74922 0.87108 0.49308 0.0
H473 H 0.76894 0.92723 0.27485 0.0
H474 H 0.76576 0.94866 0.30339 0.0
H475 H 0.74307 0.9239 0.27977 0.0
C476 C 0.17924 0.8396 0.37462 0.0
C477 C 0.17932 0.8507 0.42655 0.0
C478 C 0.19107 0.85013 0.32542 0.0
C479 C 0.2037 0.87234 0.32873 0.0
C480 C 0.20328 0.88374 0.38037 0.0
C481 C 0.19087 0.87273 0.42876 0.0
C482 C 0.19065 0.83741 0.27082 0.0
C483 C 0.21671 0.90744 0.3856 0.0
C484 C 0.25182 0.89743 0.23152 0.0
C485 C 0.24505 0.90599 0.1866 0.0
C486 C 0.23847 0.88636 0.27812 0.0
C487 C 0.2178 0.88347 0.27881 0.0
C488 C 0.21057 0.89109 0.23159 0.0
C489 C 0.22437 0.90246 0.18641 0.0
C490 C 0.24678 0.87854 0.32791 0.0
C491 C 0.18847 0.88779 0.22969 0.0
H492 H 0.17026 0.8225 0.37315 0.0
H493 H 0.19115 0.88122 0.46938 0.0
H494 H 0.18718 0.84357 0.22975 0.0
H495 H 0.20637 0.83885 0.26592 0.0
H496 H 0.17869 0.82043 0.27354 0.0
H497 H 0.21397 0.914 0.42751 0.0
H498 H 0.23364 0.91207 0.38482 0.0
H499 H 0.21339 0.91469 0.3468 0.0
H500 H 0.26793 0.90048 0.23224 0.0
H501 H 0.21915 0.90913 0.15166 0.0
H502 H 0.23639 0.8613 0.33216 0.0
H503 H 0.24668 0.8862 0.37118 0.0
H504 H 0.2631 0.88184 0.32041 0.0
H505 H 0.17674 0.8708 0.23309 0.0
H506 H 0.1849 0.89359 0.18795 0.0
H507 H 0.18644 0.89619 0.26857 0.0
C508 C 0.25955 0.41369 0.45777 0.0
C509 C 0.25571 0.39452 0.48148 0.0
C510 C 0.24601 0.41438 0.41384 0.0
C511 C 0.22791 0.39546 0.39351 0.0
C512 C 0.22345 0.3761 0.41877 0.0
C513 C 0.23752 0.37582 0.46227 0.0
C514 C 0.25152 0.43532 0.38765 0.0
C515 C 0.2041 0.35565 0.39881 0.0
C516 C 0.1865 0.40257 0.30819 0.0
C517 C 0.19097 0.40045 0.24849 0.0
C518 C 0.19789 0.40024 0.35595 0.0
C519 C 0.21439 0.39605 0.34372 0.0
C520 C 0.219 0.39393 0.28358 0.0
C521 C 0.20714 0.396 0.23676 0.0
C522 C 0.19236 0.40236 0.41948 0.0
C523 C 0.23673 0.38988 0.26862 0.0
H524 H 0.27357 0.42825 0.47222 0.0
H525 H 0.23445 0.36098 0.48048 0.0
H526 H 0.25425 0.43492 0.33907 0.0
H527 H 0.23821 0.43839 0.39222 0.0
H528 H 0.26587 0.44867 0.40959 0.0
H529 H 0.20198 0.34225 0.42609 0.0
H530 H 0.18979 0.35716 0.40178 0.0
H531 H 0.20537 0.35194 0.35121 0.0
H532 H 0.17383 0.40571 0.31767 0.0
H533 H 0.21071 0.39433 0.19079 0.0
H534 H 0.20585 0.41621 0.44267 0.0
H535 H 0.18931 0.38825 0.44467 0.0
H536 H 0.17825 0.40428 0.42143 0.0
H537 H 0.25197 0.40315 0.28647 0.0
H538 H 0.23791 0.38806 0.21959 0.0
H539 H 0.2344 0.3754 0.29024 0.0
C540 C 0.22077 0.40672 0.96176 0.0
C541 C 0.20474 0.38715 0.98069 0.0
C542 C 0.23528 0.4081 0.91972 0.0
C543 C 0.23405 0.38945 0.89624 0.0
C544 C 0.21854 0.36962 0.91702 0.0
C545 C 0.20395 0.36868 0.95893 0.0
C546 C 0.25146 0.42958 0.89874 0.0
C547 C 0.217 0.34941 0.8937 0.0
C548 C 0.25729 0.39522 0.74248 0.0
C549 C 0.27787 0.39962 0.75705 0.0
C550 C 0.24261 0.3911 0.7872 0.0
C551 C 0.24851 0.39102 0.84797 0.0
C552 C 0.26903 0.39474 0.86277 0.0
C553 C 0.28352 0.3992 0.81725 0.0
C554 C 0.22102 0.38758 0.76956 0.0
C555 C 0.27583 0.39447 0.92687 0.0
H556 H 0.22165 0.42114 0.97852 0.0
H557 H 0.19163 0.35352 0.97335 0.0
H558 H 0.2676 0.43205 0.90566 0.0
H559 H 0.24896 0.43057 0.85001 0.0
H560 H 0.25063 0.44259 0.92258 0.0
H561 H 0.20546 0.33551 0.91836 0.0
H562 H 0.21205 0.34685 0.84557 0.0
H563 H 0.23266 0.35048 0.89725 0.0
H564 H 0.25275 0.39541 0.69609 0.0
H565 H 0.29926 0.4022 0.82886 0.0
H566 H 0.21911 0.4006 0.78875 0.0
H567 H 0.20857 0.3727 0.78806 0.0
H568 H 0.21844 0.38685 0.72018 0.0
H569 H 0.2768 0.40802 0.95279 0.0
H570 H 0.29145 0.39542 0.93027 0.0
H571 H 0.264 0.37989 0.94824 0.0
C572 C 0.75036 0.89581 0.97577 0.0
C573 C 0.7557 0.88048 0.96054 0.0
C574 C 0.74637 0.90673 0.93117 0.0
C575 C 0.747 0.90154 0.87013 0.0
C576 C 0.75397 0.88719 0.85485 0.0
C577 C 0.75842 0.87695 0.90049 0.0
C578 C 0.73971 0.92244 0.94939 0.0
C579 C 0.75461 0.88101 0.79038 0.0
C580 C 0.70825 0.90487 0.76098 0.0
C581 C 0.72174 0.92249 0.72861 0.0
C582 C 0.71632 0.89789 0.80728 0.0
C583 C 0.73824 0.90925 0.82262 0.0
C584 C 0.75175 0.92752 0.79142 0.0
C585 C 0.74338 0.93372 0.74419 0.0
C586 C 0.70146 0.87808 0.83887 0.0
C587 C 0.77503 0.94044 0.80774 0.0
H588 H 0.74777 0.8981 0.02227 0.0
H589 H 0.76192 0.86459 0.88888 0.0
H590 H 0.74742 0.93663 0.92178 0.0
H591 H 0.7224 0.91524 0.94191 0.0
H592 H 0.74361 0.92742 0.99743 0.0
H593 H 0.76246 0.87142 0.78594 0.0
H594 H 0.73825 0.87163 0.77137 0.0
H595 H 0.76302 0.89518 0.76309 0.0
H596 H 0.69155 0.89621 0.74884 0.0
H597 H 0.7538 0.94759 0.71971 0.0
H598 H 0.70172 0.88163 0.88747 0.0
H599 H 0.7067 0.8663 0.83399 0.0
H600 H 0.68494 0.87091 0.82095 0.0
H601 H 0.77734 0.94502 0.85614 0.0
H602 H 0.78312 0.95496 0.7815 0.0
H603 H 0.78273 0.93091 0.7997 0.0
C604 C 0.26951 0.93381 0.85993 0.0
C605 C 0.26079 0.93029 0.91671 0.0
C606 C 0.25962 0.91875 0.81286 0.0
C607 C 0.24029 0.90014 0.82263 0.0
C608 C 0.2312 0.89683 0.87962 0.0
C609 C 0.24175 0.9118 0.92624 0.0
C610 C 0.27006 0.92251 0.75322 0.0
C611 C 0.21031 0.87745 0.8914 0.0
C612 C 0.20191 0.86905 0.69437 0.0
C613 C 0.20331 0.85062 0.69229 0.0
C614 C 0.2145 0.88571 0.73502 0.0
C615 C 0.22922 0.88413 0.77341 0.0
C616 C 0.23179 0.86624 0.76854 0.0
C617 C 0.21856 0.84952 0.72857 0.0
C618 C 0.21095 0.90431 0.73972 0.0
C619 C 0.2478 0.8643 0.8075 0.0
H620 H 0.28444 0.94798 0.85295 0.0
H621 H 0.23504 0.90913 0.97024 0.0
H622 H 0.27315 0.90949 0.74194 0.0
H623 H 0.2594 0.92254 0.71726 0.0
H624 H 0.28521 0.93768 0.75317 0.0
H625 H 0.20502 0.87772 0.93751 0.0
H626 H 0.19799 0.87615 0.85895 0.0
H627 H 0.21161 0.86309 0.88501 0.0
H628 H 0.19007 0.86998 0.66674 0.0
H629 H 0.21982 0.83539 0.72676 0.0
H630 H 0.22614 0.91933 0.73799 0.0
H631 H 0.20404 0.9043 0.7835 0.0
H632 H 0.20013 0.90393 0.70346 0.0
H633 H 0.26331 0.87907 0.8075 0.0
H634 H 0.2499 0.85094 0.79242 0.0
H635 H 0.24259 0.86176 0.85441 0.0
C636 C 0.40713 0.28189 0.67177 0.0
C637 C 0.41328 0.27708 0.72638 0.0
C638 C 0.40129 0.26797 0.62173 0.0
C639 C 0.40204 0.24911 0.62648 0.0
C640 C 0.40951 0.2449 0.68052 0.0
C641 C 0.4148 0.25883 0.73005 0.0
C642 C 0.39314 0.27284 0.56516 0.0
C643 C 0.41105 0.22521 0.68691 0.0
C644 C 0.36674 0.19859 0.5373 0.0
C645 C 0.38097 0.19804 0.49721 0.0
C646 C 0.37296 0.21598 0.57676 0.0
C647 C 0.39397 0.23304 0.57661 0.0
C648 C 0.40791 0.23327 0.53335 0.0
C649 C 0.40118 0.21585 0.4938 0.0
C650 C 0.35747 0.21544 0.62134 0.0
C651 C 0.43046 0.25111 0.53195 0.0
H652 H 0.40566 0.29586 0.66918 0.0
H653 H 0.4196 0.25516 0.77229 0.0
H654 H 0.40074 0.27062 0.52537 0.0
H655 H 0.37592 0.26174 0.55938 0.0
H656 H 0.39589 0.28919 0.56628 0.0
H657 H 0.4188 0.22518 0.73019 0.0
H658 H 0.395 0.21113 0.68413 0.0
H659 H 0.42009 0.22365 0.64982 0.0
H660 H 0.35102 0.18504 0.53976 0.0
H661 H 0.41231 0.21569 0.46279 0.0
H662 H 0.35771 0.23071 0.62309 0.0
H663 H 0.36208 0.21292 0.66674 0.0
H664 H 0.34109 0.20261 0.61029 0.0
H665 H 0.4312 0.2666 0.53511 0.0
H666 H 0.43829 0.2504 0.49059 0.0
H667 H 0.43953 0.25026 0.57118 0.0
C668 C 0.87557 0.20503 0.81261 0.0
C669 C 0.87832 0.19043 0.84538 0.0
C670 C 0.88937 0.21614 0.76684 0.0
C671 C 0.90635 0.21266 0.75435 0.0
C672 C 0.91002 0.19908 0.79037 0.0
C673 C 0.8959 0.18806 0.83522 0.0
C674 C 0.88502 0.23059 0.7295 0.0
C675 C 0.92814 0.19524 0.77934 0.0
C676 C 0.92421 0.22089 0.59361 0.0
C677 C 0.94169 0.24122 0.59807 0.0
C678 C 0.91297 0.21108 0.6447 0.0
C679 C 0.91936 0.22205 0.70112 0.0
C680 C 0.93764 0.24226 0.70596 0.0
C681 C 0.94852 0.25166 0.65415 0.0
C682 C 0.89361 0.18947 0.63775 0.0
C683 C 0.94504 0.25441 0.76518 0.0
H684 H 0.86191 0.20677 0.82004 0.0
H685 H 0.89813 0.17684 0.86081 0.0
H686 H 0.8995 0.24621 0.72682 0.0
H687 H 0.88026 0.22386 0.68311 0.0
H688 H 0.87227 0.23288 0.74782 0.0
H689 H 0.93012 0.186 0.8152 0.0
H690 H 0.92532 0.18645 0.73595 0.0
H691 H 0.94311 0.21042 0.77623 0.0
H692 H 0.91867 0.21316 0.54979 0.0
H693 H 0.96175 0.26767 0.65694 0.0
H694 H 0.87938 0.19045 0.64856 0.0
H695 H 0.89468 0.17858 0.66962 0.0
H696 H 0.89145 0.18262 0.59158 0.0
H697 H 0.93341 0.25895 0.77978 0.0
H698 H 0.96066 0.26896 0.76238 0.0
H699 H 0.94614 0.24445 0.80025 0.0
C700 C 0.89939 0.68482 0.75815 0.0
C701 C 0.91463 0.69859 0.80075 0.0
C702 C 0.88883 0.69188 0.71997 0.0
C703 C 0.89423 0.71336 0.72312 0.0
C704 C 0.9094 0.72723 0.76665 0.0
C705 C 0.91916 0.7196 0.8055 0.0
C706 C 0.87226 0.67646 0.67534 0.0
C707 C 0.91611 0.75037 0.77032 0.0
C708 C 0.88496 0.73519 0.57996 0.0
C709 C 0.86701 0.7365 0.59317 0.0
C710 C 0.89429 0.72823 0.62249 0.0
C711 C 0.88495 0.72164 0.67874 0.0
C712 C 0.86681 0.72299 0.69233 0.0
C713 C 0.85826 0.73075 0.64964 0.0
C714 C 0.91404 0.72773 0.60696 0.0
C715 C 0.85604 0.71555 0.75105 0.0
H716 H 0.89582 0.66858 0.75443 0.0
H717 H 0.93116 0.73042 0.83776 0.0
H718 H 0.85762 0.67738 0.6782 0.0
H719 H 0.87796 0.68058 0.62921 0.0
H720 H 0.86836 0.65996 0.6827 0.0
H721 H 0.92762 0.75891 0.80802 0.0
H722 H 0.92344 0.75781 0.72789 0.0
H723 H 0.9022 0.75239 0.77586 0.0
H724 H 0.89167 0.73959 0.53614 0.0
H725 H 0.84412 0.73139 0.65936 0.0
H726 H 0.91079 0.71123 0.60569 0.0
H727 H 0.92662 0.73655 0.64191 0.0
H728 H 0.92006 0.73465 0.56288 0.0
H729 H 0.85086 0.6986 0.75568 0.0
H730 H 0.84207 0.71765 0.7547 0.0
H731 H 0.86724 0.72428 0.78908 0.0
C732 C 0.86178 0.70452 0.27315 0.0
C733 C 0.87192 0.71929 0.3204 0.0
C734 C 0.8733 0.70332 0.22517 0.0
C735 C 0.89551 0.71674 0.2258 0.0
C736 C 0.90589 0.7309 0.27516 0.0
C737 C 0.8939 0.73229 0.32135 0.0
C738 C 0.86162 0.68836 0.1727 0.0
C739 C 0.9296 0.74486 0.27865 0.0
C740 C 0.92529 0.69934 0.12465 0.0
C741 C 0.92982 0.7128 0.07656 0.0
C742 C 0.91473 0.70091 0.17428 0.0
C743 C 0.90789 0.71587 0.17493 0.0
C744 C 0.91258 0.72968 0.1266 0.0
C745 C 0.92386 0.7282 0.0782 0.0
C746 C 0.9107 0.68641 0.22571 0.0
C747 C 0.90511 0.7455 0.12518 0.0
H748 H 0.84472 0.6948 0.27196 0.0
H749 H 0.90166 0.7438 0.35791 0.0
H750 H 0.86453 0.69736 0.13117 0.0
H751 H 0.86756 0.67722 0.16587 0.0
H752 H 0.84433 0.67912 0.17896 0.0
H753 H 0.93531 0.75386 0.3221 0.0
H754 H 0.9373 0.73522 0.27257 0.0
H755 H 0.93472 0.75622 0.24202 0.0
H756 H 0.9301 0.68753 0.12347 0.0
H757 H 0.92723 0.73845 0.04066 0.0
H758 H 0.89348 0.67572 0.22967 0.0
H759 H 0.91671 0.69574 0.2685 0.0
H760 H 0.91831 0.67665 0.21994 0.0
H761 H 0.88764 0.7372 0.12686 0.0
H762 H 0.90997 0.755 0.08431 0.0
H763 H 0.91149 0.75635 0.1651 0.0
C764 C 0.412 0.18323 0.1938 0.0
C765 C 0.41349 0.19343 0.24883 0.0
C766 C 0.41227 0.19272 0.13967 0.0
C767 C 0.41371 0.21271 0.14104 0.0
C768 C 0.41657 0.22362 0.19673 0.0
C769 C 0.41636 0.21376 0.2502 0.0
C770 C 0.40942 0.18067 0.08137 0.0
C771 C 0.41828 0.24503 0.20001 0.0
C772 C 0.42539 0.24639 0.00517 0.0
C773 C 0.40538 0.24352 0.99007 0.0
C774 C 0.42822 0.23558 0.05225 0.0
C775 C 0.4106 0.22159 0.085 0.0
C776 C 0.39012 0.21738 0.06695 0.0
C777 C 0.38773 0.2284 0.01943 0.0
C778 C 0.45025 0.24025 0.06945 0.0
C779 C 0.37089 0.2023 0.10039 0.0
H780 H 0.40924 0.16723 0.19319 0.0
H781 H 0.41689 0.2213 0.293 0.0
H782 H 0.39326 0.17491 0.06234 0.0
H783 H 0.4207 0.19103 0.0481 0.0
H784 H 0.41164 0.16687 0.08751 0.0
H785 H 0.42217 0.2521 0.24621 0.0
H786 H 0.43059 0.25596 0.16985 0.0
H787 H 0.40308 0.24359 0.18464 0.0
H788 H 0.43909 0.25796 0.9822 0.0
H789 H 0.37226 0.22619 0.00803 0.0
H790 H 0.4505 0.22541 0.07631 0.0
H791 H 0.45545 0.24953 0.11246 0.0
H792 H 0.46179 0.24937 0.03502 0.0
H793 H 0.3704 0.18702 0.10522 0.0
H794 H 0.35598 0.19935 0.07757 0.0
H795 H 0.37175 0.20891 0.14618 0.0
C796 C 0.92124 0.22077 0.32837 0.0
C797 C 0.91823 0.23826 0.32803 0.0
C798 C 0.90956 0.20338 0.28891 0.0
C799 C 0.89426 0.20334 0.24911 0.0
C800 C 0.89025 0.22037 0.25118 0.0
C801 C 0.90246 0.23774 0.29017 0.0
C802 C 0.91451 0.18568 0.28737 0.0
C803 C 0.8737 0.22066 0.21034 0.0
C804 C 0.88117 0.17579 0.09641 0.0
C805 C 0.86145 0.15803 0.10528 0.0
C806 C 0.8926 0.19 0.14392 0.0
C807 C 0.88382 0.1866 0.20133 0.0
C808 C 0.86437 0.16814 0.21122 0.0
C809 C 0.85347 0.1539 0.16301 0.0
C810 C 0.91356 0.20923 0.13187 0.0
C811 C 0.85438 0.16413 0.27156 0.0
H812 H 0.93349 0.22112 0.35732 0.0
H813 H 0.89993 0.25112 0.29019 0.0
H814 H 0.8998 0.17017 0.2884 0.0
H815 H 0.92226 0.18599 0.24492 0.0
H816 H 0.92515 0.18697 0.32543 0.0
H817 H 0.87096 0.2339 0.22201 0.0
H818 H 0.87877 0.22226 0.16332 0.0
H819 H 0.85853 0.20562 0.21252 0.0
H820 H 0.88737 0.17892 0.05176 0.0
H821 H 0.83809 0.14028 0.16973 0.0
H822 H 0.9257 0.21113 0.16589 0.0
H823 H 0.91204 0.22354 0.13517 0.0
H824 H 0.91919 0.20836 0.08666 0.0
H825 H 0.86602 0.1664 0.30771 0.0
H826 H 0.84056 0.14797 0.27374 0.0
H827 H 0.84904 0.17566 0.28061 0.0
C828 C 0.114 0.68994 0.30219 0.0
C829 C 0.09808 0.66975 0.31647 0.0
C830 C 0.11902 0.70741 0.34022 0.0
C831 C 0.10787 0.70449 0.39364 0.0
C832 C 0.09157 0.68419 0.4077 0.0
C833 C 0.08682 0.66707 0.36881 0.0
C834 C 0.13636 0.72895 0.32359 0.0
C835 C 0.07933 0.68051 0.46417 0.0
C836 C 0.13544 0.74783 0.51354 0.0
C837 C 0.1262 0.76023 0.50231 0.0
C838 C 0.12904 0.72909 0.47994 0.0
C839 C 0.11311 0.72279 0.43431 0.0
C840 C 0.10283 0.73458 0.42554 0.0
C841 C 0.10945 0.75312 0.45989 0.0
C842 C 0.14005 0.71663 0.49115 0.0
C843 C 0.08566 0.72826 0.37764 0.0
H844 H 0.12272 0.69205 0.26179 0.0
H845 H 0.07446 0.65147 0.38009 0.0
H846 H 0.13009 0.73993 0.3204 0.0
H847 H 0.14906 0.73546 0.35905 0.0
H848 H 0.14336 0.72857 0.28024 0.0
H849 H 0.06701 0.66372 0.46828 0.0
H850 H 0.09025 0.68542 0.50399 0.0
H851 H 0.07163 0.69026 0.46498 0.0
H852 H 0.14836 0.75326 0.54642 0.0
H853 H 0.10212 0.76258 0.45148 0.0
H854 H 0.14948 0.71752 0.45187 0.0
H855 H 0.12831 0.69976 0.49672 0.0
H856 H 0.15076 0.72261 0.53158 0.0
H857 H 0.09241 0.72967 0.33279 0.0
H858 H 0.07819 0.73824 0.37972 0.0
H859 H 0.07323 0.71156 0.38193 0.0
C860 C 0.44763 0.45659 0.43484 0.0
C861 C 0.45156 0.46519 0.37771 0.0
C862 C 0.42888 0.4513 0.46352 0.0
C863 C 0.4136 0.45483 0.43469 0.0
C864 C 0.41815 0.46511 0.37921 0.0
C865 C 0.43715 0.47018 0.35119 0.0
C866 C 0.42477 0.44038 0.52254 0.0
C867 C 0.4024 0.46949 0.34761 0.0
C868 C 0.35713 0.41413 0.46695 0.0
C869 C 0.35219 0.42435 0.51207 0.0
C870 C 0.37687 0.42412 0.44056 0.0
C871 C 0.39198 0.44506 0.45884 0.0
C872 C 0.38694 0.45567 0.50356 0.0
C873 C 0.36715 0.44507 0.53026 0.0
C874 C 0.38172 0.412 0.39411 0.0
C875 C 0.40248 0.47812 0.52341 0.0
H876 H 0.4589 0.45306 0.45625 0.0
H877 H 0.44011 0.47689 0.3072 0.0
H878 H 0.41912 0.44778 0.55553 0.0
H879 H 0.41221 0.42365 0.51575 0.0
H880 H 0.43908 0.44079 0.54193 0.0
H881 H 0.40961 0.48066 0.31085 0.0
H882 H 0.3892 0.45452 0.32816 0.0
H883 H 0.39561 0.47606 0.37968 0.0
H884 H 0.34562 0.39809 0.45279 0.0
H885 H 0.36326 0.45311 0.56461 0.0
H886 H 0.39519 0.41027 0.41039 0.0
H887 H 0.38644 0.42077 0.35204 0.0
H888 H 0.36804 0.39604 0.38373 0.0
H889 H 0.41654 0.47887 0.54569 0.0
H890 H 0.39554 0.4847 0.55503 0.0
H891 H 0.40803 0.48825 0.48394 0.0
C892 C 0.66896 0.95728 0.49317 0.0
C893 C 0.68713 0.95917 0.46765 0.0
C894 C 0.65764 0.96583 0.46508 0.0
C895 C 0.6648 0.9765 0.4107 0.0
C896 C 0.68237 0.97725 0.38321 0.0
C897 C 0.69323 0.96852 0.4119 0.0
C898 C 0.63875 0.96448 0.49518 0.0
C899 C 0.69067 0.98856 0.32552 0.0
C900 C 0.63359 0.99421 0.31341 0.0
C901 C 0.64248 0.01535 0.33278 0.0
C902 C 0.64002 0.98099 0.3401 0.0
C903 C 0.65594 0.9893 0.38623 0.0
C904 C 0.66495 0.01066 0.40565 0.0
C905 C 0.658 0.02335 0.37896 0.0
C906 C 0.62992 0.95822 0.31879 0.0
C907 C 0.6823 0.02029 0.45376 0.0
H908 H 0.66415 0.94997 0.53609 0.0
H909 H 0.7071 0.96976 0.3914 0.0
H910 H 0.64295 0.98021 0.51459 0.0
H911 H 0.62552 0.95983 0.46209 0.0
H912 H 0.63328 0.95303 0.53171 0.0
H913 H 0.70324 0.98599 0.30721 0.0
H914 H 0.67773 0.98323 0.29111 0.0
H915 H 0.69726 0.00575 0.33366 0.0
H916 H 0.62139 0.98792 0.27819 0.0
H917 H 0.66492 0.0397 0.39403 0.0
H918 H 0.62384 0.94774 0.35741 0.0
H919 H 0.64186 0.9553 0.29778 0.0
H920 H 0.61671 0.95381 0.28568 0.0
H921 H 0.67707 0.01113 0.49507 0.0
H922 H 0.68712 0.03697 0.4651 0.0
H923 H 0.69635 0.0197 0.43855 0.0
C924 C 0.68652 0.10148 0.16307 0.0
C925 C 0.68557 0.08399 0.1906 0.0
C926 C 0.70428 0.11526 0.13061 0.0
C927 C 0.72135 0.11137 0.12596 0.0
C928 C 0.72123 0.09498 0.15905 0.0
C929 C 0.70332 0.08147 0.19061 0.0
C930 C 0.70389 0.13275 0.09715 0.0
C931 C 0.73918 0.09038 0.15657 0.0
C932 C 0.75138 0.1158 0.98726 0.0
C933 C 0.7719 0.13101 0.00618 0.0
C934 C 0.73413 0.11103 0.02306 0.0
C935 C 0.73757 0.12157 0.0796 0.0
C936 C 0.75787 0.13879 0.09528 0.0
C937 C 0.7749 0.14333 0.05821 0.0
C938 C 0.71273 0.09286 0.00362 0.0
C939 C 0.76216 0.15082 0.15425 0.0
H940 H 0.67275 0.10341 0.16263 0.0
H941 H 0.70265 0.06802 0.2122 0.0
H942 H 0.71987 0.14687 0.09622 0.0
H943 H 0.69837 0.12729 0.05014 0.0
H944 H 0.69295 0.13731 0.11747 0.0
H945 H 0.73767 0.07864 0.18974 0.0
H946 H 0.73942 0.0841 0.11115 0.0
H947 H 0.75454 0.10503 0.16512 0.0
H948 H 0.7491 0.10623 0.94709 0.0
H949 H 0.79081 0.15496 0.07326 0.0
H950 H 0.70019 0.09679 0.01206 0.0
H951 H 0.7093 0.07888 0.03005 0.0
H952 H 0.71198 0.08852 0.95533 0.0
H953 H 0.74861 0.15281 0.16634 0.0
H954 H 0.77659 0.1666 0.15299 0.0
H955 H 0.76461 0.14189 0.19009 0.0
C956 C 0.00144 0.68137 0.01479 0.0
C957 C 0.9812 0.67064 0.98778 0.0
C958 C 0.01114 0.67047 0.03701 0.0
C959 C 0.00022 0.64815 0.03287 0.0
C960 C 0.97996 0.63716 0.004 0.0
C961 C 0.97068 0.6486 0.98135 0.0
C962 C 0.03298 0.68296 0.06612 0.0
C963 C 0.96777 0.6134 0.99918 0.0
C964 C 0.04052 0.63128 0.05462 0.0
C965 C 0.04142 0.63074 0.11722 0.0
C966 C 0.02516 0.63422 0.02505 0.0
C967 C 0.01053 0.63688 0.05922 0.0
C968 C 0.00977 0.63365 0.12178 0.0
C969 C 0.0254 0.63072 0.15031 0.0
C970 C 0.02649 0.63733 0.95834 0.0
C971 C 0.9941 0.63586 0.15962 0.0
H972 H 0.00965 0.69844 0.01941 0.0
H973 H 0.95491 0.64029 0.96103 0.0
H974 H 0.03251 0.67891 0.11389 0.0
H975 H 0.04397 0.6789 0.04386 0.0
H976 H 0.03951 0.70025 0.06395 0.0
H977 H 0.95379 0.60741 0.96799 0.0
H978 H 0.97797 0.60715 0.98377 0.0
H979 H 0.96225 0.60707 0.04407 0.0
H980 H 0.05303 0.63134 0.02921 0.0
H981 H 0.02625 0.63047 0.1988 0.0
H982 H 0.03471 0.65446 0.94992 0.0
H983 H 0.01054 0.63008 0.93653 0.0
H984 H 0.03543 0.63051 0.937 0.0
H985 H -0.00053 0.65285 0.16723 0.0
H986 H 0.99257 0.62868 0.20393 0.0
H987 H 0.97835 0.6284 0.13646 0.0
C988 C 0.41499 0.33329 0.06626 0.0
C989 C 0.42312 0.33445 0.00922 0.0
C990 C 0.42343 0.35099 0.10536 0.0
C991 C 0.44033 0.37027 0.08674 0.0
C992 C 0.44852 0.37158 0.02906 0.0
C993 C 0.4398 0.3536 0.99089 0.0
C994 C 0.41426 0.34908 0.16645 0.0
C995 C 0.46646 0.392 0.00762 0.0
C996 C 0.45034 0.42234 0.1529 0.0
C997 C 0.46861 0.42859 0.18863 0.0
C998 C 0.44038 0.40291 0.12157 0.0
C999 C 0.44891 0.3894 0.12634 0.0
C1000 C 0.4665 0.39497 0.16556 0.0
C1001 C 0.47619 0.4146 0.19649 0.0
C1002 C 0.42151 0.39742 0.08066 0.0
C1003 C 0.4758 0.38075 0.1722 0.0
H1004 H 0.40209 0.31848 0.08068 0.0
H1005 H 0.44612 0.35451 0.94687 0.0
H1006 H 0.42681 0.35382 0.20186 0.0
H1007 H 0.40785 0.35991 0.17106 0.0
H1008 H 0.40144 0.33278 0.17454 0.0
H1009 H 0.47127 0.39025 0.96198 0.0
H1010 H 0.46173 0.40423 0.00705 0.0
H1011 H 0.48035 0.39782 0.03895 0.0
H1012 H 0.44429 0.43306 0.14737 0.0
H1013 H 0.49029 0.4194 0.22426 0.0
H1014 H 0.40838 0.38137 0.0893 0.0
H1015 H 0.42583 0.39739 0.03333 0.0
H1016 H 0.41573 0.40877 0.08619 0.0
H1017 H 0.46324 0.36443 0.18098 0.0
H1018 H 0.48801 0.38632 0.20904 0.0
H1019 H 0.48313 0.38014 0.12977 0.0
C1020 C 0.00043 0.34365 0.55384 0.0
C1021 C 0.98228 0.33264 0.51677 0.0
C1022 C 0.00704 0.36415 0.57529 0.0
C1023 C 0.99507 0.37381 0.55971 0.0
C1024 C 0.97653 0.36268 0.52297 0.0
C1025 C 0.97041 0.3422 0.50144 0.0
C1026 C 0.02715 0.37564 0.6135 0.0
C1027 C 0.96333 0.37247 0.50602 0.0
C1028 C 0.01157 0.42313 0.65593 0.0
C1029 C 0.0274 0.43817 0.62111 0.0
C1030 C -0.00052 0.40207 0.63456 0.0
C1031 C 0.00343 0.39629 0.57733 0.0
C1032 C 0.01813 0.41193 0.54029 0.0
C1033 C 0.02996 0.43266 0.56277 0.0
C1034 C 0.98372 0.3858 0.67494 0.0
C1035 C 0.0228 0.40651 0.47894 0.0
H1036 H 0.00962 0.33628 0.56582 0.0
H1037 H 0.95621 0.33358 0.47334 0.0
H1038 H 0.03899 0.38969 0.59012 0.0
H1039 H 0.02406 0.38128 0.65648 0.0
H1040 H 0.03411 0.36554 0.62351 0.0
H1041 H 0.94855 0.36117 0.48083 0.0
H1042 H 0.95918 0.37831 0.54682 0.0
H1043 H 0.97253 0.38626 0.47792 0.0
H1044 H 0.00958 0.42747 0.701 0.0
H1045 H 0.042 0.44444 0.53542 0.0
H1046 H 0.99046 0.37647 0.69405 0.0
H1047 H 0.96901 0.37468 0.6493 0.0
H1048 H 0.97971 0.39318 0.71255 0.0
H1049 H 0.03144 0.39772 0.48385 0.0
H1050 H 0.0326 0.4208 0.45306 0.0
H1051 H 0.00797 0.39621 0.45273 0.0
C1052 C 0.71023 0.66441 0.71145 0.0
C1053 C 0.69027 0.64843 0.69104 0.0
C1054 C 0.72787 0.67107 0.6756 0.0
C1055 C 0.72527 0.66198 0.61717 0.0
C1056 C 0.7055 0.64447 0.59881 0.0
C1057 C 0.68822 0.63782 0.63625 0.0
C1058 C 0.74874 0.68943 0.69773 0.0
C1059 C 0.70193 0.63433 0.53703 0.0
C1060 C 0.75909 0.7037 0.50846 0.0
C1061 C 0.77646 0.70066 0.50365 0.0
C1062 C 0.74171 0.69029 0.54205 0.0
C1063 C 0.74175 0.67348 0.57239 0.0
C1064 C 0.75856 0.66939 0.56417 0.0
C1065 C 0.77573 0.68302 0.52958 0.0
C1066 C 0.72398 0.69506 0.54839 0.0
C1067 C 0.75921 0.65165 0.59543 0.0
H1068 H 0.7117 0.67285 0.75335 0.0
H1069 H 0.67264 0.62578 0.61985 0.0
H1070 H 0.76191 0.68668 0.68675 0.0
H1071 H 0.75147 0.70391 0.67513 0.0
H1072 H 0.74913 0.69228 0.7469 0.0
H1073 H 0.68741 0.61858 0.53406 0.0
H1074 H 0.70019 0.64452 0.50396 0.0
H1075 H 0.71559 0.63263 0.52419 0.0
H1076 H 0.75956 0.71727 0.48824 0.0
H1077 H 0.78922 0.68072 0.52652 0.0
H1078 H 0.72416 0.70072 0.59495 0.0
H1079 H 0.70849 0.68058 0.53956 0.0
H1080 H 0.72533 0.70731 0.51734 0.0
H1081 H 0.76367 0.65621 0.64344 0.0
H1082 H 0.77091 0.64802 0.57575 0.0
H1083 H 0.74347 0.63715 0.59325 0.0
C1084 C 0.4034 0.12348 0.58565 0.0
C1085 C 0.41069 0.13306 0.53063 0.0
C1086 C 0.41505 0.11689 0.6205 0.0
C1087 C 0.43444 0.11984 0.59977 0.0
C1088 C 0.44257 0.13074 0.54628 0.0
C1089 C 0.43062 0.1373 0.51235 0.0
C1090 C 0.40585 0.10548 0.67743 0.0
C1091 C 0.46323 0.1342 0.52279 0.0
C1092 C 0.46914 0.10784 0.70239 0.0
C1093 C 0.46326 0.08731 0.68245 0.0
C1094 C 0.45989 0.11876 0.67612 0.0
C1095 C 0.44446 0.10882 0.62911 0.0
C1096 C 0.43817 0.08791 0.60999 0.0
C1097 C 0.44761 0.07744 0.63693 0.0
C1098 C 0.46685 0.14098 0.69785 0.0
C1099 C 0.42163 0.07663 0.56041 0.0
H1100 H 0.38818 0.12047 0.60075 0.0
H1101 H 0.4364 0.14477 0.47008 0.0
H1102 H 0.40041 0.08846 0.67026 0.0
H1103 H 0.418 0.11156 0.7144 0.0
H1104 H 0.39223 0.10706 0.69162 0.0
H1105 H 0.46873 0.14531 0.48539 0.0
H1106 H 0.47563 0.14042 0.55907 0.0
H1107 H 0.46127 0.11891 0.50632 0.0
H1108 H 0.48129 0.11555 0.73744 0.0
H1109 H 0.44291 0.06153 0.62149 0.0
H1110 H 0.45301 0.14218 0.71184 0.0
H1111 H 0.47408 0.15197 0.66079 0.0
H1112 H 0.47849 0.14621 0.73612 0.0
H1113 H 0.40658 0.07571 0.57271 0.0
H1114 H 0.41855 0.06037 0.55085 0.0
H1115 H 0.42676 0.08558 0.51869 0.0
C1116 C 0.36949 0.99448 0.04752 0.0
C1117 C 0.35038 0.97621 0.03201 0.0
C1118 C 0.38748 0.00048 0.01386 0.0
C1119 C 0.38618 0.98809 0.96266 0.0
C1120 C 0.36763 0.96835 0.95117 0.0
C1121 C 0.34988 0.96257 0.98628 0.0
C1122 C 0.40705 0.02139 0.02893 0.0
C1123 C 0.36564 0.95447 0.89781 0.0
C1124 C 0.41665 0.02463 0.83955 0.0
C1125 C 0.43593 0.02501 0.84397 0.0
C1126 C 0.39965 0.01116 0.87425 0.0
C1127 C 0.40215 -0.00195 0.91558 0.0
C1128 C 0.4211 0.99718 0.91682 0.0
C1129 C 0.43781 0.01068 0.88067 0.0
C1130 C 0.37964 0.01236 0.87024 0.0
C1131 C 0.42444 0.98341 0.95979 0.0
H1132 H 0.36984 0.00505 0.0828 0.0
H1133 H 0.33504 0.94854 0.97374 0.0
H1134 H 0.42143 0.02004 0.0253 0.0
H1135 H 0.40819 0.0332 0.99659 0.0
H1136 H 0.40679 0.02735 0.07485 0.0
H1137 H 0.35282 0.93795 0.90311 0.0
H1138 H 0.36187 0.96054 0.85702 0.0
H1139 H 0.38066 0.9546 0.89066 0.0
H1140 H 0.41527 0.03578 0.81124 0.0
H1141 H 0.45286 0.01119 0.88468 0.0
H1142 H 0.37829 0.02015 0.91169 0.0
H1143 H 0.36561 0.99632 0.86642 0.0
H1144 H 0.37933 0.02143 0.83131 0.0
H1145 H 0.42897 0.99138 0.00478 0.0
H1146 H 0.43724 0.9805 0.9454 0.0
H1147 H 0.40976 0.96804 0.96415 0.0
C1148 C 0.06968 0.43697 0.86116 0.0
C1149 C 0.07976 0.45224 0.81787 0.0
C1150 C 0.08076 0.42971 0.8958 0.0
C1151 C 0.10251 0.43777 0.88695 0.0
C1152 C 0.11288 0.45321 0.84358 0.0
C1153 C 0.10138 0.46029 0.80954 0.0
C1154 C 0.06911 0.41319 0.94149 0.0
C1155 C 0.13605 0.46207 0.83276 0.0
C1156 C 0.13383 0.42896 0.00991 0.0
C1157 C 0.13391 0.41105 0.98709 0.0
C1158 C 0.12395 0.43811 0.9774 0.0
C1159 C 0.11398 0.42908 0.92091 0.0
C1160 C 0.11406 0.41101 0.8978 0.0
C1161 C 0.12397 0.40221 0.93119 0.0
C1162 C 0.12405 0.45731 0.00355 0.0
C1163 C 0.10354 0.40085 0.83791 0.0
H1164 H 0.05301 0.43064 0.86835 0.0
H1165 H 0.10936 0.47213 0.77648 0.0
H1166 H 0.06946 0.3986 0.92955 0.0
H1167 H 0.077 0.41883 0.98636 0.0
H1168 H 0.05237 0.40916 0.94456 0.0
H1169 H 0.14196 0.47453 0.799 0.0
H1170 H 0.14542 0.4688 0.87525 0.0
H1171 H 0.13887 0.44926 0.81695 0.0
H1172 H 0.14154 0.43588 0.053 0.0
H1173 H 0.12399 0.38838 0.91316 0.0
H1174 H 0.10761 0.4537 0.01036 0.0
H1175 H 0.13111 0.47038 0.97188 0.0
H1176 H 0.13301 0.46279 0.04712 0.0
H1177 H 0.08639 0.39525 0.83906 0.0
H1178 H 0.10562 0.38726 0.82545 0.0
H1179 H 0.11009 0.41258 0.8023 0.0
C1180 C 0.64911 0.69287 0.8231 0.0
C1181 C 0.65389 0.6781 0.84659 0.0
C1182 C 0.6585 0.71343 0.84813 0.0
C1183 C 0.67313 0.71924 0.89716 0.0
C1184 C 0.67805 0.70438 0.92077 0.0
C1185 C 0.6683 0.68395 0.89531 0.0
C1186 C 0.65287 0.72893 0.8221 0.0
C1187 C 0.69382 0.71011 0.97248 0.0
C1188 C 0.7149 0.77627 0.92557 0.0
C1189 C 0.70722 0.78185 0.97554 0.0
C1190 C 0.70364 0.75609 0.89867 0.0
C1191 C 0.68418 0.74115 0.92223 0.0
C1192 C 0.67609 0.74679 0.97192 0.0
C1193 C 0.68778 0.76714 0.99821 0.0
C1194 C 0.71285 0.75059 0.84601 0.0
C1195 C 0.65533 0.7312 0.99797 0.0
H1196 H 0.63787 0.68832 0.78561 0.0
H1197 H 0.67208 0.67257 0.9135 0.0
H1198 H 0.64702 0.7353 0.85766 0.0
H1199 H 0.66714 0.74246 0.80422 0.0
H1200 H 0.64061 0.72168 0.78544 0.0
H1201 H 0.69554 0.69654 0.98628 0.0
H1202 H 0.7095 0.72304 0.95983 0.0
H1203 H 0.6889 0.71596 0.01166 0.0
H1204 H 0.72991 0.78762 0.90773 0.0
H1205 H 0.68178 0.77147 0.03668 0.0
H1206 H 0.70132 0.74447 0.8075 0.0
H1207 H 0.71624 0.73793 0.85816 0.0
H1208 H 0.72769 0.76435 0.83144 0.0
H1209 H 0.64269 0.7245 0.96233 0.0
H1210 H 0.65059 0.73847 0.03409 0.0
H1211 H 0.65653 0.7179 0.01665 0.0
C1212 C 0.72777 0.01515 0.69276 0.0
C1213 C 0.73717 0.0068 0.65527 0.0
C1214 C 0.74004 0.03386 0.72659 0.0
C1215 C 0.76223 0.04459 0.72239 0.0
C1216 C 0.7718 0.03685 0.68264 0.0
C1217 C 0.75914 0.01799 0.64958 0.0
C1218 C 0.72931 0.04174 0.7684 0.0
C1219 C 0.79544 0.04813 0.67644 0.0
C1220 C 0.79245 0.10166 0.77668 0.0
C1221 C 0.80003 0.1001 0.83343 0.0
C1222 C 0.78028 0.08372 0.73982 0.0
C1223 C 0.77543 0.06374 0.76052 0.0
C1224 C 0.78288 0.06201 0.818 0.0
C1225 C 0.7952 0.08028 0.85383 0.0
C1226 C 0.77269 0.08616 0.67867 0.0
C1227 C 0.77779 0.04086 0.8416 0.0
H1228 H 0.71081 0.00671 0.69742 0.0
H1229 H 0.76656 0.01173 0.62061 0.0
H1230 H 0.73451 0.04168 0.81538 0.0
H1231 H 0.73389 0.05825 0.75865 0.0
H1232 H 0.71183 0.03194 0.7648 0.0
H1233 H 0.80029 0.04067 0.64114 0.0
H1234 H 0.80139 0.06484 0.66549 0.0
H1235 H 0.80318 0.04812 0.71965 0.0
H1236 H 0.79621 0.11697 0.76059 0.0
H1237 H 0.80103 0.07906 0.8977 0.0
H1238 H 0.75519 0.07717 0.67534 0.0
H1239 H 0.77846 0.07956 0.64352 0.0
H1240 H 0.77813 0.1029 0.66901 0.0
H1241 H 0.76043 0.03044 0.84302 0.0
H1242 H 0.78478 0.04223 0.88725 0.0
H1243 H 0.78378 0.03306 0.81107 0.0
C1244 C 0.1053 0.79739 0.75447 0.0
C1245 C 0.10547 0.79824 0.69184 0.0
C1246 C 0.08632 0.78885 0.78474 0.0
C1247 C 0.06703 0.78064 0.75133 0.0
C1248 C 0.06738 0.78386 0.6888 0.0
C1249 C 0.08671 0.7927 0.65962 0.0
C1250 C 0.08682 0.78617 0.85149 0.0
C1251 C 0.04721 0.77566 0.65162 0.0
C1252 C 0.02397 0.72783 0.8025 0.0
C1253 C 0.01038 0.73309 0.83191 0.0
C1254 C 0.04224 0.74319 0.77605 0.0
C1255 C 0.0472 0.76452 0.77864 0.0
C1256 C 0.03371 0.77009 0.80873 0.0
C1257 C 0.01545 0.75428 0.83526 0.0
C1258 C 0.05629 0.73647 0.74536 0.0
C1259 C 0.03839 0.79262 0.81203 0.0
H1260 H 0.11988 0.80184 0.77943 0.0
H1261 H 0.08682 0.79328 0.61115 0.0
H1262 H 0.07503 0.78903 0.87375 0.0
H1263 H 0.08281 0.76972 0.86014 0.0
H1264 H 0.10268 0.79699 0.87222 0.0
H1265 H 0.0501 0.78319 0.60746 0.0
H1266 H 0.0401 0.7584 0.64365 0.0
H1267 H 0.03559 0.7784 0.67541 0.0
H1268 H 0.02034 0.71156 0.80008 0.0
H1269 H 0.00493 0.75845 0.85746 0.0
H1270 H 0.0723 0.74471 0.76704 0.0
H1271 H 0.05794 0.7409 0.69774 0.0
H1272 H 0.05006 0.71921 0.74693 0.0
H1273 H 0.05483 0.80328 0.82889 0.0
H1274 H 0.02744 0.79467 0.84146 0.0
H1275 H 0.03696 0.79763 0.76646 0.0
C1276 C 0.3416 0.35552 0.6503 0.0
C1277 C 0.3224 0.35538 0.6505 0.0
C1278 C 0.3445 0.34093 0.68268 0.0
C1279 C 0.32774 0.3258 0.71636 0.0
C1280 C 0.30755 0.32397 0.71078 0.0
C1281 C 0.3051 0.33888 0.67785 0.0
C1282 C 0.36624 0.3433 0.686 0.0
C1283 C 0.28904 0.30762 0.74398 0.0
C1284 C 0.34721 0.29257 0.79073 0.0
C1285 C 0.35789 0.30565 0.84103 0.0
C1286 C 0.33464 0.29722 0.75247 0.0
C1287 C 0.33293 0.31533 0.76516 0.0
C1288 C 0.34113 0.32655 0.82066 0.0
C1289 C 0.35361 0.32161 0.85778 0.0
C1290 C 0.32543 0.28429 0.69512 0.0
C1291 C 0.33927 0.34564 0.83711 0.0
H1292 H 0.35492 0.36814 0.62853 0.0
H1293 H 0.29018 0.33869 0.6781 0.0
H1294 H 0.37352 0.34941 0.73135 0.0
H1295 H 0.36523 0.32782 0.6784 0.0
H1296 H 0.37685 0.35435 0.65255 0.0
H1297 H 0.27386 0.30371 0.72093 0.0
H1298 H 0.28981 0.29295 0.74852 0.0
H1299 H 0.2892 0.31394 0.78964 0.0
H1300 H 0.35054 0.28023 0.77754 0.0
H1301 H 0.36183 0.33166 0.89687 0.0
H1302 H 0.33674 0.29165 0.65882 0.0
H1303 H 0.31043 0.28359 0.68132 0.0
H1304 H 0.32252 0.26799 0.69986 0.0
H1305 H 0.34982 0.35894 0.80897 0.0
H1306 H 0.34378 0.35068 0.88493 0.0
H1307 H 0.32291 0.34236 0.82857 0.0
C1308 C 0.01522 0.28841 0.30331 0.0
C1309 C 0.01616 0.30298 0.34661 0.0
C1310 C 0.03195 0.2939 0.26426 0.0
C1311 C 0.04998 0.31435 0.26923 0.0
C1312 C 0.05158 0.32839 0.31637 0.0
C1313 C 0.03452 0.32263 0.3539 0.0
C1314 C 0.02953 0.27847 0.21476 0.0
C1315 C 0.07061 0.35021 0.32422 0.0
C1316 C 0.10164 0.33514 0.18901 0.0
C1317 C 0.0995 0.34814 0.14757 0.0
C1318 C 0.08486 0.32231 0.2259 0.0
C1319 C 0.06562 0.32254 0.22074 0.0
C1320 C 0.06275 0.33383 0.17417 0.0
C1321 C 0.07976 0.34656 0.13844 0.0
C1322 C 0.08851 0.31027 0.27422 0.0
C1323 C 0.04245 0.33429 0.16606 0.0
H1324 H 0.00081 0.27333 0.29707 0.0
H1325 H 0.03508 0.33393 0.38708 0.0
H1326 H 0.02513 0.28308 0.17216 0.0
H1327 H 0.04459 0.27864 0.20811 0.0
H1328 H 0.01703 0.26215 0.2241 0.0
H1329 H 0.07055 0.35815 0.36705 0.0
H1330 H 0.08538 0.34947 0.3231 0.0
H1331 H 0.07082 0.36004 0.28675 0.0
H1332 H 0.11697 0.3365 0.19667 0.0
H1333 H 0.07811 0.35664 0.10641 0.0
H1334 H 0.07419 0.29471 0.27988 0.0
H1335 H 0.09213 0.3193 0.31748 0.0
H1336 H 0.10196 0.30782 0.26424 0.0
H1337 H 0.02862 0.31816 0.16737 0.0
H1338 H 0.04169 0.34132 0.12309 0.0
H1339 H 0.04118 0.34381 0.20331 0.0
C1340 C 0.81259 0.77577 0.36391 0.0
C1341 C 0.8219 0.76519 0.3369 0.0
C1342 C 0.80383 0.78539 0.32853 0.0
C1343 C 0.80487 0.78464 0.26517 0.0
C1344 C 0.81601 0.77562 0.23854 0.0
C1345 C 0.82414 0.76577 0.27469 0.0
C1346 C 0.79199 0.79479 0.35855 0.0
C1347 C 0.81789 0.77483 0.17144 0.0
C1348 C 0.75756 0.77819 0.17488 0.0
C1349 C 0.76456 0.79866 0.15527 0.0
C1350 C 0.77059 0.77357 0.21039 0.0
C1351 C 0.79133 0.78975 0.22648 0.0
C1352 C 0.79891 0.81027 0.20476 0.0
C1353 C 0.7854 0.81452 0.16934 0.0
C1354 C 0.76191 0.75138 0.23187 0.0
C1355 C 0.82104 0.82783 0.22034 0.0
H1356 H 0.81089 0.77529 0.41206 0.0
H1357 H 0.83167 0.75783 0.25392 0.0
H1358 H 0.7963 0.81028 0.33977 0.0
H1359 H 0.77479 0.78424 0.34989 0.0
H1360 H 0.79515 0.79686 0.40779 0.0
H1361 H 0.82993 0.77057 0.15881 0.0
H1362 H 0.80246 0.76287 0.15073 0.0
H1363 H 0.82209 0.79024 0.15224 0.0
H1364 H 0.74154 0.76579 0.16379 0.0
H1365 H 0.79087 0.83041 0.15479 0.0
H1366 H 0.76248 0.75156 0.28158 0.0
H1367 H 0.77175 0.74476 0.21608 0.0
H1368 H 0.74535 0.74068 0.21578 0.0
H1369 H 0.82262 0.83165 0.26914 0.0
H1370 H 0.82512 0.84237 0.19584 0.0
H1371 H 0.83266 0.82279 0.20994 0.0
C1372 C 0.31097 0.00234 0.2428 0.0
C1373 C 0.30673 0.00107 0.18088 0.0
C1374 C 0.31931 0.02154 0.27505 0.0
C1375 C 0.32382 0.03994 0.24438 0.0
C1376 C 0.31895 0.03866 0.18216 0.0
C1377 C 0.31031 0.01913 0.15108 0.0
C1378 C 0.32413 0.02226 0.34144 0.0
C1379 C 0.32377 0.05806 0.14798 0.0
C1380 C 0.33776 0.09068 0.33083 0.0
C1381 C 0.35983 0.10134 0.32925 0.0
C1382 C 0.32567 0.07039 0.30422 0.0
C1383 C 0.33601 0.06079 0.27576 0.0
C1384 C 0.3583 0.0712 0.27635 0.0
C1385 C 0.36991 0.09132 0.30324 0.0
C1386 C 0.3019 0.05953 0.30491 0.0
C1387 C 0.36993 0.06139 0.24699 0.0
H1388 H 0.30791 0.9883 0.26619 0.0
H1389 H 0.30693 0.01812 0.10326 0.0
H1390 H 0.34148 0.03075 0.34996 0.0
H1391 H 0.31781 0.03104 0.36636 0.0
H1392 H 0.31741 0.00625 0.35971 0.0
H1393 H 0.31735 0.05414 0.10108 0.0
H1394 H 0.31715 0.06696 0.17068 0.0
H1395 H 0.34113 0.06865 0.14706 0.0
H1396 H 0.32996 0.09844 0.35089 0.0
H1397 H 0.387 0.09945 0.30248 0.0
H1398 H 0.29539 0.04349 0.32264 0.0
H1399 H 0.29537 0.05767 0.25849 0.0
H1400 H 0.29634 0.06848 0.33249 0.0
H1401 H 0.36524 0.04589 0.26642 0.0
H1402 H 0.38735 0.0715 0.25241 0.0
H1403 H 0.36566 0.05854 0.1984 0.0
loop_
_geom_bond_atom_site_label_1
_geom_bond_atom_site_label_2
_geom_bond_distance
_geom_bond_site_symmetry_2
_ccdc_geom_bond_type
Co0 O1 2.216 . S
Co0 O2 2.091 . S
Co0 O4 2.004 . S
Co0 O10 2.021 . S
Co0 O12 2.137 . S
Co0 O13 2.244 . S
O1 Co0 2.216 . S
O1 C8 1.247 . S
O2 Co0 2.091 . S
O2 C8 1.261 . S
C3 O12 1.247 . S
C3 O13 1.272 . S
O4 Co0 2.004 . S
O4 C9 1.259 . S
Co5 O6 2.061 . S
Co5 O11 2.052 . S
Co5 O13 2.135 . S
O6 Co5 2.061 . S
O6 C9 1.235 . S
C7 O10 1.238 . S
C7 O11 1.241 . S
C8 O1 1.247 . S
C8 O2 1.261 . S
C9 O4 1.259 . S
C9 O6 1.235 . S
O10 Co0 2.021 . S
O10 C7 1.238 . S
O11 Co5 2.052 . S
O11 C7 1.241 . S
O12 Co0 2.137 . S
O12 C3 1.247 . S
O13 Co0 2.244 . S
O13 C3 1.272 . S
O13 Co5 2.135 . S
Co14 O15 2.216 . S
Co14 O16 2.091 . S
Co14 O18 2.004 . S
Co14 O24 2.021 . S
Co14 O26 2.137 . S
Co14 O27 2.244 . S
O15 Co14 2.216 . S
O15 C22 1.247 . S
O16 Co14 2.091 . S
O16 C22 1.261 . S
C17 O26 1.247 . S
C17 O27 1.272 . S
O18 Co14 2.004 . S
O18 C23 1.259 . S
Co19 O20 2.061 . S
Co19 O25 2.052 . S
Co19 O27 2.135 . S
O20 Co19 2.061 . S
O20 C23 1.235 . S
C21 O24 1.238 . S
C21 O25 1.241 . S
C22 O15 1.247 . S
C22 O16 1.261 . S
C23 O18 1.259 . S
C23 O20 1.235 . S
O24 Co14 2.021 . S
O24 C21 1.238 . S
O25 Co19 2.052 . S
O25 C21 1.241 . S
O26 Co14 2.137 . S
O26 C17 1.247 . S
O27 Co14 2.244 . S
O27 C17 1.272 . S
O27 Co19 2.135 . S
Co28 O29 2.216 . S
Co28 O30 2.091 . S
Co28 O32 2.004 . S
Co28 O38 2.021 . S
Co28 O40 2.137 . S
Co28 O41 2.244 . S
O29 Co28 2.216 . S
O29 C36 1.247 . S
O30 Co28 2.091 . S
O30 C36 1.261 . S
C31 O40 1.247 . S
C31 O41 1.272 . S
O32 Co28 2.004 . S
O32 C37 1.259 . S
Co33 O34 2.061 . S
Co33 O39 2.052 . S
Co33 O41 2.135 . S
O34 Co33 2.061 . S
O34 C37 1.235 . S
C35 O38 1.238 . S
C35 O39 1.241 . S
C36 O29 1.247 . S
C36 O30 1.261 . S
C37 O32 1.259 . S
C37 O34 1.235 . S
O38 Co28 2.021 . S
O38 C35 1.238 . S
O39 Co33 2.052 . S
O39 C35 1.241 . S
O40 Co28 2.137 . S
O40 C31 1.247 . S
O41 Co28 2.244 . S
O41 C31 1.272 . S
O41 Co33 2.135 . S
Co42 O43 2.216 . S
Co42 O44 2.091 . S
Co42 O46 2.004 . S
Co42 O52 2.021 . S
Co42 O54 2.137 . S
Co42 O55 2.244 . S
O43 Co42 2.216 . S
O43 C50 1.247 . S
O44 Co42 2.091 . S
O44 C50 1.261 . S
C45 O54 1.247 . S
C45 O55 1.272 . S
O46 Co42 2.004 . S
O46 C51 1.259 . S
Co47 O48 2.061 . S
Co47 O53 2.052 . S
Co47 O55 2.135 . S
O48 Co47 2.061 . S
O48 C51 1.235 . S
C49 O52 1.238 . S
C49 O53 1.241 . S
C50 O43 1.247 . S
C50 O44 1.261 . S
C51 O46 1.259 . S
C51 O48 1.235 . S
O52 Co42 2.021 . S
O52 C49 1.238 . S
O53 Co47 2.052 . S
O53 C49 1.241 . S
O54 Co42 2.137 . S
O54 C45 1.247 . S
O55 Co42 2.244 . S
O55 C45 1.272 . S
O55 Co47 2.135 . S
Co56 O57 2.216 . S
Co56 O58 2.091 . S
Co56 O60 2.004 . S
Co56 O66 2.021 . S
Co56 O68 2.137 . S
Co56 O69 2.244 . S
O57 Co56 2.216 . S
O57 C64 1.247 . S
O58 Co56 2.091 . S
O58 C64 1.261 . S
C59 O68 1.247 . S
C59 O69 1.272 . S
O60 Co56 2.004 . S
O60 C65 1.259 . S
Co61 O62 2.061 . S
Co61 O67 2.052 . S
Co61 O69 2.135 . S
O62 Co61 2.061 . S
O62 C65 1.235 . S
C63 O66 1.238 . S
C63 O67 1.241 . S
C64 O57 1.247 . S
C64 O58 1.261 . S
C65 O60 1.259 . S
C65 O62 1.235 . S
O66 Co56 2.021 . S
O66 C63 1.238 . S
O67 Co61 2.052 . S
O67 C63 1.241 . S
O68 Co56 2.137 . S
O68 C59 1.247 . S
O69 Co56 2.244 . S
O69 C59 1.272 . S
O69 Co61 2.135 . S
Co70 O71 2.216 . S
Co70 O72 2.091 . S
Co70 O74 2.004 . S
Co70 O80 2.021 . S
Co70 O82 2.137 . S
Co70 O83 2.244 . S
O71 Co70 2.216 . S
O71 C78 1.247 . S
O72 Co70 2.091 . S
O72 C78 1.261 . S
C73 O82 1.247 . S
C73 O83 1.272 . S
O74 Co70 2.004 . S
O74 C79 1.259 . S
Co75 O76 2.061 . S
Co75 O81 2.052 . S
Co75 O83 2.135 . S
O76 Co75 2.061 . S
O76 C79 1.235 . S
C77 O80 1.238 . S
C77 O81 1.241 . S
C78 O71 1.247 . S
C78 O72 1.261 . S
C79 O74 1.259 . S
C79 O76 1.235 . S
O80 Co70 2.021 . S
O80 C77 1.238 . S
O81 Co75 2.052 . S
O81 C77 1.241 . S
O82 Co70 2.137 . S
O82 C73 1.247 . S
O83 Co70 2.244 . S
O83 C73 1.272 . S
O83 Co75 2.135 . S
Co84 O85 2.216 . S
Co84 O86 2.091 . S
Co84 O88 2.004 . S
Co84 O94 2.021 . S
Co84 O96 2.137 . S
Co84 O97 2.244 . S
O85 Co84 2.216 . S
O85 C92 1.247 . S
O86 Co84 2.091 . S
O86 C92 1.261 . S
C87 O96 1.247 . S
C87 O97 1.272 . S
O88 Co84 2.004 . S
O88 C93 1.259 . S
Co89 O90 2.061 . S
Co89 O95 2.052 . S
Co89 O97 2.135 . S
O90 Co89 2.061 . S
O90 C93 1.235 . S
C91 O94 1.238 . S
C91 O95 1.241 . S
C92 O85 1.247 . S
C92 O86 1.261 . S
C93 O88 1.259 . S
C93 O90 1.235 . S
O94 Co84 2.021 . S
O94 C91 1.238 . S
O95 Co89 2.052 . S
O95 C91 1.241 . S
O96 Co84 2.137 . S
O96 C87 1.247 . S
O97 Co84 2.244 . S
O97 C87 1.272 . S
O97 Co89 2.135 . S
Co98 O99 2.216 . S
Co98 O100 2.091 . S
Co98 O102 2.004 . S
Co98 O108 2.021 . S
Co98 O110 2.137 . S
Co98 O111 2.244 . S
O99 Co98 2.216 . S
O99 C106 1.247 . S
O100 Co98 2.091 . S
O100 C106 1.261 . S
C101 O110 1.247 . S
C101 O111 1.272 . S
O102 Co98 2.004 . S
O102 C107 1.259 . S
Co103 O104 2.061 . S
Co103 O109 2.052 . S
Co103 O111 2.135 . S
O104 Co103 2.061 . S
O104 C107 1.235 . S
C105 O108 1.238 . S
C105 O109 1.241 . S
C106 O99 1.247 . S
C106 O100 1.261 . S
C107 O102 1.259 . S
C107 O104 1.235 . S
O108 Co98 2.021 . S
O108 C105 1.238 . S
O109 Co103 2.052 . S
O109 C105 1.241 . S
O110 Co98 2.137 . S
O110 C101 1.247 . S
O111 Co98 2.244 . S
O111 C101 1.272 . S
O111 Co103 2.135 . S
Co112 O113 2.216 . S
Co112 O114 2.091 . S
Co112 O116 2.004 . S
Co112 O122 2.021 . S
Co112 O124 2.137 . S
Co112 O125 2.244 . S
O113 Co112 2.216 . S
O113 C120 1.247 . S
O114 Co112 2.091 . S
O114 C120 1.261 . S
C115 O124 1.247 . S
C115 O125 1.272 . S
O116 Co112 2.004 . S
O116 C121 1.259 . S
Co117 O118 2.061 . S
Co117 O123 2.052 . S
Co117 O125 2.135 . S
O118 Co117 2.061 . S
O118 C121 1.235 . S
C119 O122 1.238 . S
C119 O123 1.241 . S
C120 O113 1.247 . S
C120 O114 1.261 . S
C121 O116 1.259 . S
C121 O118 1.235 . S
O122 Co112 2.021 . S
O122 C119 1.238 . S
O123 Co117 2.052 . S
O123 C119 1.241 . S
O124 Co112 2.137 . S
O124 C115 1.247 . S
O125 Co112 2.244 . S
O125 C115 1.272 . S
O125 Co117 2.135 . S
Co126 O127 2.208 1_554 S
Co126 O128 2.091 1_554 S
Co126 O130 2.004 . S
Co126 O136 2.021 . S
Co126 O138 2.137 1_554 S
Co126 O139 2.244 . S
O127 Co126 2.208 1_556 S
O127 C134 1.252 . S
O128 Co126 2.091 1_556 S
O128 C134 1.261 . S
C129 O138 1.247 1_554 S
C129 O139 1.272 . S
O130 Co126 2.004 . S
O130 C135 1.259 . S
Co131 O132 2.061 . S
Co131 O137 2.052 . S
Co131 O139 2.135 . S
O132 Co131 2.061 . S
O132 C135 1.235 . S
C133 O136 1.238 . S
C133 O137 1.241 . S
C134 O127 1.252 . S
C134 O128 1.261 . S
C135 O130 1.259 . S
C135 O132 1.235 . S
O136 Co126 2.021 . S
O136 C133 1.238 . S
O137 Co131 2.052 . S
O137 C133 1.241 . S
O138 Co126 2.137 1_556 S
O138 C129 1.247 1_556 S
O139 Co126 2.244 . S
O139 C129 1.272 . S
O139 Co131 2.135 . S
Co140 O141 2.216 . S
Co140 O142 2.091 . S
Co140 O144 2.004 . S
Co140 O150 2.021 . S
Co140 O152 2.137 . S
Co140 O153 2.244 . S
O141 Co140 2.216 . S
O141 C148 1.247 . S
O142 Co140 2.091 . S
O142 C148 1.261 . S
C143 O152 1.247 . S
C143 O153 1.272 . S
O144 Co140 2.004 . S
O144 C149 1.259 . S
Co145 O146 2.061 1_556 S
Co145 O151 2.052 . S
Co145 O153 2.135 1_556 S
O146 Co145 2.061 1_554 S
O146 C149 1.235 . S
C147 O150 1.238 1_556 S
C147 O151 1.241 . S
C148 O141 1.247 . S
C148 O142 1.261 . S
C149 O144 1.259 . S
C149 O146 1.235 . S
O150 Co140 2.021 . S
O150 C147 1.238 1_554 S
O151 Co145 2.052 . S
O151 C147 1.241 . S
O152 Co140 2.137 . S
O152 C143 1.247 . S
O153 Co140 2.244 . S
O153 C143 1.272 . S
O153 Co145 2.135 1_554 S
Co154 O155 2.227 . S
Co154 O156 2.091 1_554 S
Co154 O158 2.004 . S
Co154 O164 2.021 . S
Co154 O166 2.137 1_554 S
Co154 O167 2.244 . S
O155 Co154 2.227 . S
O155 C162 1.240 1_554 S
O156 Co154 2.091 1_556 S
O156 C162 1.261 . S
C157 O166 1.247 1_554 S
C157 O167 1.272 . S
O158 Co154 2.004 . S
O158 C163 1.259 . S
Co159 O160 2.061 . S
Co159 O165 2.052 . S
Co159 O167 2.135 . S
O160 Co159 2.061 . S
O160 C163 1.235 . S
C161 O164 1.238 . S
C161 O165 1.241 . S
C162 O155 1.240 1_556 S
C162 O156 1.261 . S
C163 O158 1.259 . S
C163 O160 1.235 . S
O164 Co154 2.021 . S
O164 C161 1.238 . S
O165 Co159 2.052 . S
O165 C161 1.241 . S
O166 Co154 2.137 1_556 S
O166 C157 1.247 1_556 S
O167 Co154 2.244 . S
O167 C157 1.272 . S
O167 Co159 2.135 . S
Co168 O169 2.216 . S
Co168 O170 2.091 . S
Co168 O172 2.004 . S
Co168 O178 2.021 . S
Co168 O180 2.137 1_556 S
Co168 O181 2.244 . S
O169 Co168 2.216 . S
O169 C176 1.247 1_556 S
O170 Co168 2.091 . S
O170 C176 1.261 1_556 S
C171 O180 1.247 1_556 S
C171 O181 1.272 . S
O172 Co168 2.004 . S
O172 C177 1.259 . S
Co173 O174 2.061 . S
Co173 O179 2.052 . S
Co173 O181 2.135 . S
O174 Co173 2.061 . S
O174 C177 1.235 . S
C175 O178 1.238 . S
C175 O179 1.241 . S
C176 O169 1.247 1_554 S
C176 O170 1.261 1_554 S
C177 O172 1.259 . S
C177 O174 1.235 . S
O178 Co168 2.021 . S
O178 C175 1.238 . S
O179 Co173 2.052 . S
O179 C175 1.241 . S
O180 Co168 2.137 1_554 S
O180 C171 1.247 1_554 S
O181 Co168 2.244 . S
O181 C171 1.272 . S
O181 Co173 2.135 . S
Co182 O183 2.216 . S
Co182 O184 2.091 . S
Co182 O186 2.004 . S
Co182 O192 2.021 . S
Co182 O194 2.137 . S
Co182 O195 2.244 . S
O183 Co182 2.216 . S
O183 C190 1.247 . S
O184 Co182 2.091 . S
O184 C190 1.261 . S
C185 O194 1.247 . S
C185 O195 1.272 . S
O186 Co182 2.004 . S
O186 C191 1.259 . S
Co187 O188 2.061 . S
Co187 O193 2.052 . S
Co187 O195 2.135 1_554 S
O188 Co187 2.061 . S
O188 C191 1.235 1_554 S
C189 O192 1.238 1_554 S
C189 O193 1.241 . S
C190 O183 1.247 . S
C190 O184 1.261 . S
C191 O186 1.259 . S
C191 O188 1.235 1_556 S
O192 Co182 2.021 . S
O192 C189 1.238 1_556 S
O193 Co187 2.052 . S
O193 C189 1.241 . S
O194 Co182 2.137 . S
O194 C185 1.247 . S
O195 Co182 2.244 . S
O195 C185 1.272 . S
O195 Co187 2.135 1_556 S
Co196 O197 2.216 . S
Co196 O198 2.091 . S
Co196 O200 2.004 . S
Co196 O206 2.021 . S
Co196 O208 2.137 . S
Co196 O209 2.244 . S
O197 Co196 2.216 . S
O197 C204 1.247 1_556 S
O198 Co196 2.091 . S
O198 C204 1.261 1_556 S
C199 O208 1.247 . S
C199 O209 1.272 . S
O200 Co196 2.004 . S
O200 C205 1.259 1_655 S
Co201 O202 2.061 . S
Co201 O207 2.052 . S
Co201 O209 2.135 . S
O202 Co201 2.061 . S
O202 C205 1.235 1_655 S
C203 O206 1.238 . S
C203 O207 1.241 . S
C204 O197 1.247 1_554 S
C204 O198 1.261 1_554 S
C205 O200 1.259 1_455 S
C205 O202 1.235 1_455 S
O206 Co196 2.021 . S
O206 C203 1.238 . S
O207 Co201 2.052 . S
O207 C203 1.241 . S
O208 Co196 2.137 . S
O208 C199 1.247 . S
O209 Co196 2.244 . S
O209 C199 1.272 . S
O209 Co201 2.135 . S
Co210 O211 2.216 . S
Co210 O212 2.091 . S
Co210 O214 2.004 . S
Co210 O220 2.021 . S
Co210 O222 2.137 . S
Co210 O223 2.244 . S
O211 Co210 2.216 . S
O211 C218 1.247 . S
O212 Co210 2.091 . S
O212 C218 1.261 . S
C213 O222 1.247 . S
C213 O223 1.272 . S
O214 Co210 2.004 . S
O214 C219 1.259 . S
Co215 O216 2.061 . S
Co215 O221 2.052 . S
Co215 O223 2.135 . S
O216 Co215 2.061 . S
O216 C219 1.235 . S
C217 O220 1.238 . S
C217 O221 1.241 . S
C218 O211 1.247 . S
C218 O212 1.261 . S
C219 O214 1.259 . S
C219 O216 1.235 . S
O220 Co210 2.021 . S
O220 C217 1.238 . S
O221 Co215 2.052 . S
O221 C217 1.241 . S
O222 Co210 2.137 . S
O222 C213 1.247 . S
O223 Co210 2.244 . S
O223 C213 1.272 . S
O223 Co215 2.135 . S
Co224 O225 2.216 . S
Co224 O226 2.091 . S
Co224 O228 2.004 . S
Co224 O234 2.021 . S
Co224 O236 2.137 . S
Co224 O237 2.244 . S
O225 Co224 2.216 . S
O225 C232 1.247 . S
O226 Co224 2.091 . S
O226 C232 1.261 . S
C227 O236 1.247 . S
C227 O237 1.272 . S
O228 Co224 2.004 . S
O228 C233 1.259 1_655 S
Co229 O230 2.061 . S
Co229 O235 2.052 . S
Co229 O237 2.135 . S
O230 Co229 2.061 . S
O230 C233 1.235 1_655 S
C231 O234 1.238 . S
C231 O235 1.241 . S
C232 O225 1.247 . S
C232 O226 1.261 . S
C233 O228 1.259 1_455 S
C233 O230 1.235 1_455 S
O234 Co224 2.021 . S
O234 C231 1.238 . S
O235 Co229 2.052 . S
O235 C231 1.241 . S
O236 Co224 2.137 . S
O236 C227 1.247 . S
O237 Co224 2.244 . S
O237 C227 1.272 . S
O237 Co229 2.135 . S
Co238 O239 2.216 . S
Co238 O240 2.091 . S
Co238 O242 2.004 . S
Co238 O248 2.021 . S
Co238 O250 2.137 . S
Co238 O251 2.244 . S
O239 Co238 2.216 . S
O239 C246 1.247 . S
O240 Co238 2.091 . S
O240 C246 1.261 . S
C241 O250 1.247 . S
C241 O251 1.272 . S
O242 Co238 2.004 . S
O242 C247 1.259 . S
Co243 O244 2.061 . S
Co243 O249 2.052 . S
Co243 O251 2.135 . S
O244 Co243 2.061 . S
O244 C247 1.235 . S
C245 O248 1.238 . S
C245 O249 1.241 . S
C246 O239 1.247 . S
C246 O240 1.261 . S
C247 O242 1.259 . S
C247 O244 1.235 . S
O248 Co238 2.021 . S
O248 C245 1.238 . S
O249 Co243 2.052 . S
O249 C245 1.241 . S
O250 Co238 2.137 . S
O250 C241 1.247 . S
O251 Co238 2.244 . S
O251 C241 1.272 . S
O251 Co243 2.135 . S
C252 C253 1.391 . S
C252 C254 1.394 . S
C252 H268 0.931 . S
C253 C252 1.391 . S
C253 C257 1.376 . S
C254 C252 1.394 . S
C254 C255 1.369 . S
C254 C258 1.531 . S
C255 C254 1.369 . S
C255 C256 1.410 . S
C255 C263 1.503 1_556 S
C256 C255 1.410 . S
C256 C257 1.392 . S
C256 C259 1.511 . S
C257 C253 1.376 . S
C257 C256 1.392 . S
C257 H269 0.929 . S
C258 C254 1.531 . S
C258 H270 0.960 . S
C258 H271 0.962 . S
C258 H272 0.960 . S
C259 C256 1.511 . S
C259 H273 0.961 . S
C259 H274 0.961 1_556 S
C259 H275 0.961 . S
C260 C261 1.370 . S
C260 C262 1.363 . S
C260 H276 0.931 . S
C261 C260 1.370 . S
C261 C265 1.408 . S
C262 C260 1.363 . S
C262 C263 1.370 . S
C262 C266 1.524 . S
C263 C255 1.503 1_554 S
C263 C262 1.370 . S
C263 C264 1.403 . S
C264 C263 1.403 . S
C264 C265 1.404 . S
C264 C267 1.539 1_554 S
C265 C261 1.408 . S
C265 C264 1.404 . S
C265 H277 0.930 . S
C266 C262 1.524 . S
C266 H278 0.956 . S
C266 H279 0.961 . S
C266 H280 0.961 . S
C267 C264 1.539 1_556 S
C267 H281 0.958 . S
C267 H282 0.961 . S
C267 H283 0.960 . S
H268 C252 0.931 . S
H269 C257 0.929 . S
H270 C258 0.960 . S
H271 C258 0.962 . S
H272 C258 0.960 . S
H273 C259 0.961 . S
H274 C259 0.961 1_554 S
H275 C259 0.961 . S
H276 C260 0.931 . S
H277 C265 0.930 . S
H278 C266 0.956 . S
H279 C266 0.961 . S
H280 C266 0.961 . S
H281 C267 0.958 . S
H282 C267 0.961 . S
H283 C267 0.960 . S
C284 C285 1.391 . S
C284 C286 1.394 . S
C284 H300 0.931 . S
C285 C284 1.391 . S
C285 C289 1.376 . S
C286 C284 1.394 . S
C286 C287 1.369 . S
C286 C290 1.531 1_556 S
C287 C286 1.369 . S
C287 C288 1.410 . S
C287 C295 1.503 1_556 S
C288 C287 1.410 . S
C288 C289 1.392 . S
C288 C291 1.511 . S
C289 C285 1.376 . S
C289 C288 1.392 . S
C289 H301 0.929 . S
C290 C286 1.531 1_554 S
C290 H302 0.960 . S
C290 H303 0.962 . S
C290 H304 0.960 . S
C291 C288 1.511 . S
C291 H305 0.961 . S
C291 H306 0.961 . S
C291 H307 0.961 . S
C292 C293 1.370 . S
C292 C294 1.363 . S
C292 H308 0.931 . S
C293 C292 1.370 . S
C293 C297 1.408 . S
C294 C292 1.363 . S
C294 C295 1.370 . S
C294 C298 1.524 . S
C295 C287 1.503 1_554 S
C295 C294 1.370 . S
C295 C296 1.403 . S
C296 C295 1.403 . S
C296 C297 1.404 . S
C296 C299 1.539 . S
C297 C293 1.408 . S
C297 C296 1.404 . S
C297 H309 0.930 . S
C298 C294 1.524 . S
C298 H310 0.956 . S
C298 H311 0.961 1_554 S
C298 H312 0.961 . S
C299 C296 1.539 . S
C299 H313 0.958 . S
C299 H314 0.961 . S
C299 H315 0.960 1_554 S
H300 C284 0.931 . S
H301 C289 0.929 . S
H302 C290 0.960 . S
H303 C290 0.962 . S
H304 C290 0.960 . S
H305 C291 0.961 . S
H306 C291 0.961 . S
H307 C291 0.961 . S
H308 C292 0.931 . S
H309 C297 0.930 . S
H310 C298 0.956 . S
H311 C298 0.961 1_556 S
H312 C298 0.961 . S
H313 C299 0.958 . S
H314 C299 0.961 . S
H315 C299 0.960 1_556 S
C316 C317 1.391 . S
C316 C318 1.394 . S
C316 H332 0.931 . S
C317 C316 1.391 . S
C317 C321 1.376 . S
C318 C316 1.394 . S
C318 C319 1.369 . S
C318 C322 1.531 1_554 S
C319 C318 1.369 . S
C319 C320 1.410 . S
C319 C327 1.503 1_554 S
C320 C319 1.410 . S
C320 C321 1.392 . S
C320 C323 1.511 . S
C321 C317 1.376 . S
C321 C320 1.392 . S
C321 H333 0.929 . S
C322 C318 1.531 1_556 S
C322 H334 0.960 . S
C322 H335 0.962 . S
C322 H336 0.960 . S
C323 C320 1.511 . S
C323 H337 0.961 . S
C323 H338 0.961 . S
C323 H339 0.961 . S
C324 C325 1.370 . S
C324 C326 1.363 . S
C324 H340 0.931 . S
C325 C324 1.370 . S
C325 C329 1.408 . S
C326 C324 1.363 . S
C326 C327 1.370 . S
C326 C330 1.524 1_556 S
C327 C319 1.503 1_556 S
C327 C326 1.370 . S
C327 C328 1.403 . S
C328 C327 1.403 . S
C328 C329 1.404 . S
C328 C331 1.539 . S
C329 C325 1.408 . S
C329 C328 1.404 . S
C329 H341 0.930 . S
C330 C326 1.524 1_554 S
C330 H342 0.956 . S
C330 H343 0.961 . S
C330 H344 0.961 . S
C331 C328 1.539 . S
C331 H345 0.958 . S
C331 H346 0.961 . S
C331 H347 0.960 . S
H332 C316 0.931 . S
H333 C321 0.929 . S
H334 C322 0.960 . S
H335 C322 0.962 . S
H336 C322 0.960 . S
H337 C323 0.961 . S
H338 C323 0.961 . S
H339 C323 0.961 . S
H340 C324 0.931 . S
H341 C329 0.930 . S
H342 C330 0.956 . S
H343 C330 0.961 . S
H344 C330 0.961 . S
H345 C331 0.958 . S
H346 C331 0.961 . S
H347 C331 0.960 . S
C348 C349 1.391 . S
C348 C350 1.394 . S
C348 H364 0.931 . S
C349 C348 1.391 . S
C349 C353 1.376 . S
C350 C348 1.394 . S
C350 C351 1.369 . S
C350 C354 1.531 . S
C351 C350 1.369 . S
C351 C352 1.410 . S
C351 C359 1.503 . S
C352 C351 1.410 . S
C352 C353 1.392 . S
C352 C355 1.511 . S
C353 C349 1.376 . S
C353 C352 1.392 . S
C353 H365 0.929 . S
C354 C350 1.531 . S
C354 H366 0.960 . S
C354 H367 0.962 . S
C354 H368 0.960 . S
C355 C352 1.511 . S
C355 H369 0.961 . S
C355 H370 0.961 . S
C355 H371 0.961 . S
C356 C357 1.370 . S
C356 C358 1.363 . S
C356 H372 0.931 . S
C357 C356 1.370 . S
C357 C361 1.408 . S
C358 C356 1.363 . S
C358 C359 1.370 . S
C358 C362 1.524 . S
C359 C351 1.503 . S
C359 C358 1.370 . S
C359 C360 1.403 . S
C360 C359 1.403 . S
C360 C361 1.404 . S
C360 C363 1.539 . S
C361 C357 1.408 . S
C361 C360 1.404 . S
C361 H373 0.930 . S
C362 C358 1.524 . S
C362 H374 0.956 . S
C362 H375 0.961 . S
C362 H376 0.961 . S
C363 C360 1.539 . S
C363 H377 0.958 . S
C363 H378 0.961 . S
C363 H379 0.960 . S
H364 C348 0.931 . S
H365 C353 0.929 . S
H366 C354 0.960 . S
H367 C354 0.962 . S
H368 C354 0.960 . S
H369 C355 0.961 . S
H370 C355 0.961 . S
H371 C355 0.961 . S
H372 C356 0.931 . S
H373 C361 0.930 . S
H374 C362 0.956 . S
H375 C362 0.961 . S
H376 C362 0.961 . S
H377 C363 0.958 . S
H378 C363 0.961 . S
H379 C363 0.960 . S
C380 C381 1.391 . S
C380 C382 1.394 . S
C380 H396 0.931 . S
C381 C380 1.391 . S
C381 C385 1.376 . S
C382 C380 1.394 . S
C382 C383 1.369 . S
C382 C386 1.531 . S
C383 C382 1.369 . S
C383 C384 1.410 . S
C383 C391 1.503 . S
C384 C383 1.410 . S
C384 C385 1.392 . S
C384 C387 1.511 . S
C385 C381 1.376 . S
C385 C384 1.392 . S
C385 H397 0.929 . S
C386 C382 1.531 . S
C386 H398 0.960 . S
C386 H399 0.962 . S
C386 H400 0.960 . S
C387 C384 1.511 . S
C387 H401 0.961 . S
C387 H402 0.961 . S
C387 H403 0.961 . S
C388 C389 1.370 . S
C388 C390 1.363 . S
C388 H404 0.931 . S
C389 C388 1.370 . S
C389 C393 1.408 . S
C390 C388 1.363 . S
C390 C391 1.370 . S
C390 C394 1.524 . S
C391 C383 1.503 . S
C391 C390 1.370 . S
C391 C392 1.403 . S
C392 C391 1.403 . S
C392 C393 1.404 . S
C392 C395 1.539 . S
C393 C389 1.408 . S
C393 C392 1.404 . S
C393 H405 0.930 . S
C394 C390 1.524 . S
C394 H406 0.956 . S
C394 H407 0.961 . S
C394 H408 0.961 . S
C395 C392 1.539 . S
C395 H409 0.958 . S
C395 H410 0.961 . S
C395 H411 0.960 . S
H396 C380 0.931 . S
H397 C385 0.929 . S
H398 C386 0.960 . S
H399 C386 0.962 . S
H400 C386 0.960 . S
H401 C387 0.961 . S
H402 C387 0.961 . S
H403 C387 0.961 . S
H404 C388 0.931 . S
H405 C393 0.930 . S
H406 C394 0.956 . S
H407 C394 0.961 . S
H408 C394 0.961 . S
H409 C395 0.958 . S
H410 C395 0.961 . S
H411 C395 0.960 . S
C412 C413 1.391 . S
C412 C414 1.394 . S
C412 H428 0.931 . S
C413 C412 1.391 . S
C413 C417 1.376 . S
C414 C412 1.394 . S
C414 C415 1.369 . S
C414 C418 1.531 . S
C415 C414 1.369 . S
C415 C416 1.410 . S
C415 C423 1.503 . S
C416 C415 1.410 . S
C416 C417 1.392 . S
C416 C419 1.511 . S
C417 C413 1.376 . S
C417 C416 1.392 . S
C417 H429 0.929 . S
C418 C414 1.531 . S
C418 H430 0.960 . S
C418 H431 0.962 . S
C418 H432 0.960 . S
C419 C416 1.511 . S
C419 H433 0.961 . S
C419 H434 0.961 . S
C419 H435 0.961 . S
C420 C421 1.370 . S
C420 C422 1.363 . S
C420 H436 0.931 . S
C421 C420 1.370 . S
C421 C425 1.408 . S
C422 C420 1.363 . S
C422 C423 1.370 . S
C422 C426 1.524 . S
C423 C415 1.503 . S
C423 C422 1.370 . S
C423 C424 1.403 . S
C424 C423 1.403 . S
C424 C425 1.404 . S
C424 C427 1.539 . S
C425 C421 1.408 . S
C425 C424 1.404 . S
C425 H437 0.930 . S
C426 C422 1.524 . S
C426 H438 0.956 . S
C426 H439 0.961 . S
C426 H440 0.961 . S
C427 C424 1.539 . S
C427 H441 0.958 . S
C427 H442 0.961 . S
C427 H443 0.960 . S
H428 C412 0.931 . S
H429 C417 0.929 . S
H430 C418 0.960 . S
H431 C418 0.962 . S
H432 C418 0.960 . S
H433 C419 0.961 . S
H434 C419 0.961 . S
H435 C419 0.961 . S
H436 C420 0.931 . S
H437 C425 0.930 . S
H438 C426 0.956 . S
H439 C426 0.961 . S
H440 C426 0.961 . S
H441 C427 0.958 . S
H442 C427 0.961 . S
H443 C427 0.960 . S
C444 C445 1.391 . S
C444 C446 1.394 . S
C444 H460 0.931 . S
C445 C444 1.391 . S
C445 C449 1.376 . S
C446 C444 1.394 . S
C446 C447 1.369 . S
C446 C450 1.531 . S
C447 C446 1.369 . S
C447 C448 1.410 . S
C447 C455 1.503 . S
C448 C447 1.410 . S
C448 C449 1.392 . S
C448 C451 1.511 . S
C449 C445 1.376 . S
C449 C448 1.392 . S
C449 H461 0.929 . S
C450 C446 1.531 . S
C450 H462 0.960 . S
C450 H463 0.962 . S
C450 H464 0.960 . S
C451 C448 1.511 . S
C451 H465 0.961 . S
C451 H466 0.961 . S
C451 H467 0.961 . S
C452 C453 1.370 . S
C452 C454 1.363 . S
C452 H468 0.931 . S
C453 C452 1.370 . S
C453 C457 1.408 . S
C454 C452 1.363 . S
C454 C455 1.370 . S
C454 C458 1.524 . S
C455 C447 1.503 . S
C455 C454 1.370 . S
C455 C456 1.403 . S
C456 C455 1.403 . S
C456 C457 1.404 . S
C456 C459 1.539 . S
C457 C453 1.408 . S
C457 C456 1.404 . S
C457 H469 0.930 . S
C458 C454 1.524 . S
C458 H470 0.956 . S
C458 H471 0.961 . S
C458 H472 0.961 . S
C459 C456 1.539 . S
C459 H473 0.958 . S
C459 H474 0.961 . S
C459 H475 0.960 . S
H460 C444 0.931 . S
H461 C449 0.929 . S
H462 C450 0.960 . S
H463 C450 0.962 . S
H464 C450 0.960 . S
H465 C451 0.961 . S
H466 C451 0.961 . S
H467 C451 0.961 . S
H468 C452 0.931 . S
H469 C457 0.930 . S
H470 C458 0.956 . S
H471 C458 0.961 . S
H472 C458 0.961 . S
H473 C459 0.958 . S
H474 C459 0.961 . S
H475 C459 0.960 . S
C476 C477 1.391 . S
C476 C478 1.394 . S
C476 H492 0.931 . S
C477 C476 1.391 . S
C477 C481 1.376 . S
C478 C476 1.394 . S
C478 C479 1.369 . S
C478 C482 1.531 . S
C479 C478 1.369 . S
C479 C480 1.410 . S
C479 C487 1.503 . S
C480 C479 1.410 . S
C480 C481 1.392 . S
C480 C483 1.511 . S
C481 C477 1.376 . S
C481 C480 1.392 . S
C481 H493 0.929 . S
C482 C478 1.531 . S
C482 H494 0.960 . S
C482 H495 0.962 . S
C482 H496 0.960 . S
C483 C480 1.511 . S
C483 H497 0.961 . S
C483 H498 0.961 . S
C483 H499 0.961 . S
C484 C485 1.370 . S
C484 C486 1.363 . S
C484 H500 0.931 . S
C485 C484 1.370 . S
C485 C489 1.408 . S
C486 C484 1.363 . S
C486 C487 1.370 . S
C486 C490 1.524 . S
C487 C479 1.503 . S
C487 C486 1.370 . S
C487 C488 1.403 . S
C488 C487 1.403 . S
C488 C489 1.404 . S
C488 C491 1.539 . S
C489 C485 1.408 . S
C489 C488 1.404 . S
C489 H501 0.930 . S
C490 C486 1.524 . S
C490 H502 0.956 . S
C490 H503 0.961 . S
C490 H504 0.961 . S
C491 C488 1.539 . S
C491 H505 0.958 . S
C491 H506 0.961 . S
C491 H507 0.960 . S
H492 C476 0.931 . S
H493 C481 0.929 . S
H494 C482 0.960 . S
H495 C482 0.962 . S
H496 C482 0.960 . S
H497 C483 0.961 . S
H498 C483 0.961 . S
H499 C483 0.961 . S
H500 C484 0.931 . S
H501 C489 0.930 . S
H502 C490 0.956 . S
H503 C490 0.961 . S
H504 C490 0.961 . S
H505 C491 0.958 . S
H506 C491 0.961 . S
H507 C491 0.960 . S
C508 C509 1.391 . S
C508 C510 1.394 . S
C508 H524 0.931 . S
C509 C508 1.391 . S
C509 C513 1.376 . S
C510 C508 1.394 . S
C510 C511 1.369 . S
C510 C514 1.531 . S
C511 C510 1.369 . S
C511 C512 1.410 . S
C511 C519 1.503 . S
C512 C511 1.410 . S
C512 C513 1.392 . S
C512 C515 1.511 . S
C513 C509 1.376 . S
C513 C512 1.392 . S
C513 H525 0.929 . S
C514 C510 1.531 . S
C514 H526 0.960 . S
C514 H527 0.962 . S
C514 H528 0.960 . S
C515 C512 1.511 . S
C515 H529 0.961 . S
C515 H530 0.961 . S
C515 H531 0.961 . S
C516 C517 1.370 . S
C516 C518 1.363 . S
C516 H532 0.931 . S
C517 C516 1.370 . S
C517 C521 1.408 . S
C518 C516 1.363 . S
C518 C519 1.370 . S
C518 C522 1.524 . S
C519 C511 1.503 . S
C519 C518 1.370 . S
C519 C520 1.403 . S
C520 C519 1.403 . S
C520 C521 1.404 . S
C520 C523 1.539 . S
C521 C517 1.408 . S
C521 C520 1.404 . S
C521 H533 0.930 . S
C522 C518 1.524 . S
C522 H534 0.956 . S
C522 H535 0.961 . S
C522 H536 0.961 . S
C523 C520 1.539 . S
C523 H537 0.958 . S
C523 H538 0.961 . S
C523 H539 0.960 . S
H524 C508 0.931 . S
H525 C513 0.929 . S
H526 C514 0.960 . S
H527 C514 0.962 . S
H528 C514 0.960 . S
H529 C515 0.961 . S
H530 C515 0.961 . S
H531 C515 0.961 . S
H532 C516 0.931 . S
H533 C521 0.930 . S
H534 C522 0.956 . S
H535 C522 0.961 . S
H536 C522 0.961 . S
H537 C523 0.958 . S
H538 C523 0.961 . S
H539 C523 0.960 . S
C540 C541 1.391 . S
C540 C542 1.394 . S
C540 H556 0.931 . S
C541 C540 1.391 . S
C541 C545 1.376 . S
C542 C540 1.394 . S
C542 C543 1.369 . S
C542 C546 1.531 . S
C543 C542 1.369 . S
C543 C544 1.410 . S
C543 C551 1.503 . S
C544 C543 1.410 . S
C544 C545 1.392 . S
C544 C547 1.511 . S
C545 C541 1.376 . S
C545 C544 1.392 . S
C545 H557 0.929 . S
C546 C542 1.531 . S
C546 H558 0.960 . S
C546 H559 0.962 . S
C546 H560 0.960 . S
C547 C544 1.511 . S
C547 H561 0.961 . S
C547 H562 0.961 . S
C547 H563 0.961 . S
C548 C549 1.370 . S
C548 C550 1.363 . S
C548 H564 0.931 . S
C549 C548 1.370 . S
C549 C553 1.408 . S
C550 C548 1.363 . S
C550 C551 1.370 . S
C550 C554 1.524 . S
C551 C543 1.503 . S
C551 C550 1.370 . S
C551 C552 1.403 . S
C552 C551 1.403 . S
C552 C553 1.404 . S
C552 C555 1.539 . S
C553 C549 1.408 . S
C553 C552 1.404 . S
C553 H565 0.930 . S
C554 C550 1.524 . S
C554 H566 0.956 . S
C554 H567 0.961 . S
C554 H568 0.961 . S
C555 C552 1.539 . S
C555 H569 0.958 . S
C555 H570 0.961 . S
C555 H571 0.960 . S
H556 C540 0.931 . S
H557 C545 0.929 . S
H558 C546 0.960 . S
H559 C546 0.962 . S
H560 C546 0.960 . S
H561 C547 0.961 . S
H562 C547 0.961 . S
H563 C547 0.961 . S
H564 C548 0.931 . S
H565 C553 0.930 . S
H566 C554 0.956 . S
H567 C554 0.961 . S
H568 C554 0.961 . S
H569 C555 0.958 . S
H570 C555 0.961 . S
H571 C555 0.960 . S
C572 C573 1.391 . S
C572 C574 1.394 . S
C572 H588 0.931 . S
C573 C572 1.391 . S
C573 C577 1.376 . S
C574 C572 1.394 . S
C574 C575 1.369 . S
C574 C578 1.531 . S
C575 C574 1.369 . S
C575 C576 1.410 . S
C575 C583 1.503 . S
C576 C575 1.410 . S
C576 C577 1.392 . S
C576 C579 1.511 . S
C577 C573 1.376 . S
C577 C576 1.392 . S
C577 H589 0.929 . S
C578 C574 1.531 . S
C578 H590 0.960 . S
C578 H591 0.962 . S
C578 H592 0.960 . S
C579 C576 1.511 . S
C579 H593 0.961 . S
C579 H594 0.961 . S
C579 H595 0.961 . S
C580 C581 1.370 . S
C580 C582 1.363 . S
C580 H596 0.931 . S
C581 C580 1.370 . S
C581 C585 1.408 . S
C582 C580 1.363 . S
C582 C583 1.370 . S
C582 C586 1.524 . S
C583 C575 1.503 . S
C583 C582 1.370 . S
C583 C584 1.403 . S
C584 C583 1.403 . S
C584 C585 1.404 . S
C584 C587 1.539 . S
C585 C581 1.408 . S
C585 C584 1.404 . S
C585 H597 0.930 . S
C586 C582 1.524 . S
C586 H598 0.956 . S
C586 H599 0.961 . S
C586 H600 0.961 . S
C587 C584 1.539 . S
C587 H601 0.958 . S
C587 H602 0.961 . S
C587 H603 0.960 . S
H588 C572 0.931 . S
H589 C577 0.929 . S
H590 C578 0.960 . S
H591 C578 0.962 . S
H592 C578 0.960 . S
H593 C579 0.961 . S
H594 C579 0.961 . S
H595 C579 0.961 . S
H596 C580 0.931 . S
H597 C585 0.930 . S
H598 C586 0.956 . S
H599 C586 0.961 . S
H600 C586 0.961 . S
H601 C587 0.958 . S
H602 C587 0.961 . S
H603 C587 0.960 . S
C604 C605 1.391 . S
C604 C606 1.394 . S
C604 H620 0.931 . S
C605 C604 1.391 . S
C605 C609 1.376 . S
C606 C604 1.394 . S
C606 C607 1.369 . S
C606 C610 1.531 . S
C607 C606 1.369 . S
C607 C608 1.410 . S
C607 C615 1.503 . S
C608 C607 1.410 . S
C608 C609 1.392 . S
C608 C611 1.511 . S
C609 C605 1.376 . S
C609 C608 1.392 . S
C609 H621 0.929 1_556 S
C610 C606 1.531 . S
C610 H622 0.960 . S
C610 H623 0.962 . S
C610 H624 0.960 . S
C611 C608 1.511 . S
C611 H625 0.961 . S
C611 H626 0.961 . S
C611 H627 0.961 . S
C612 C613 1.370 . S
C612 C614 1.363 . S
C612 H628 0.931 . S
C613 C612 1.370 . S
C613 C617 1.408 . S
C614 C612 1.363 . S
C614 C615 1.370 . S
C614 C618 1.524 . S
C615 C607 1.503 . S
C615 C614 1.370 . S
C615 C616 1.403 . S
C616 C615 1.403 . S
C616 C617 1.404 . S
C616 C619 1.539 . S
C617 C613 1.408 . S
C617 C616 1.404 . S
C617 H629 0.930 . S
C618 C614 1.524 . S
C618 H630 0.956 . S
C618 H631 0.961 . S
C618 H632 0.961 . S
C619 C616 1.539 . S
C619 H633 0.958 . S
C619 H634 0.961 . S
C619 H635 0.960 . S
H620 C604 0.931 . S
H621 C609 0.929 1_554 S
H622 C610 0.960 . S
H623 C610 0.962 . S
H624 C610 0.960 . S
H625 C611 0.961 . S
H626 C611 0.961 . S
H627 C611 0.961 . S
H628 C612 0.931 . S
H629 C617 0.930 . S
H630 C618 0.956 . S
H631 C618 0.961 . S
H632 C618 0.961 . S
H633 C619 0.958 . S
H634 C619 0.961 . S
H635 C619 0.960 . S
C636 C637 1.391 . S
C636 C638 1.394 . S
C636 H652 0.931 . S
C637 C636 1.391 . S
C637 C641 1.376 . S
C638 C636 1.394 . S
C638 C639 1.369 . S
C638 C642 1.531 . S
C639 C638 1.369 . S
C639 C640 1.410 . S
C639 C647 1.503 . S
C640 C639 1.410 . S
C640 C641 1.392 . S
C640 C643 1.511 . S
C641 C637 1.376 . S
C641 C640 1.392 . S
C641 H653 0.929 . S
C642 C638 1.531 . S
C642 H654 0.960 . S
C642 H655 0.962 . S
C642 H656 0.960 . S
C643 C640 1.511 . S
C643 H657 0.961 . S
C643 H658 0.961 . S
C643 H659 0.961 . S
C644 C645 1.370 . S
C644 C646 1.363 . S
C644 H660 0.931 . S
C645 C644 1.370 . S
C645 C649 1.408 . S
C646 C644 1.363 . S
C646 C647 1.370 . S
C646 C650 1.524 . S
C647 C639 1.503 . S
C647 C646 1.370 . S
C647 C648 1.403 . S
C648 C647 1.403 . S
C648 C649 1.404 . S
C648 C651 1.539 . S
C649 C645 1.408 . S
C649 C648 1.404 . S
C649 H661 0.930 . S
C650 C646 1.524 . S
C650 H662 0.956 . S
C650 H663 0.961 . S
C650 H664 0.961 . S
C651 C648 1.539 . S
C651 H665 0.958 . S
C651 H666 0.961 . S
C651 H667 0.960 . S
H652 C636 0.931 . S
H653 C641 0.929 . S
H654 C642 0.960 . S
H655 C642 0.962 . S
H656 C642 0.960 . S
H657 C643 0.961 . S
H658 C643 0.961 . S
H659 C643 0.961 . S
H660 C644 0.931 . S
H661 C649 0.930 . S
H662 C650 0.956 . S
H663 C650 0.961 . S
H664 C650 0.961 . S
H665 C651 0.958 . S
H666 C651 0.961 . S
H667 C651 0.960 . S
C668 C669 1.391 . S
C668 C670 1.394 . S
C668 H684 0.931 . S
C669 C668 1.391 . S
C669 C673 1.376 . S
C670 C668 1.394 . S
C670 C671 1.369 . S
C670 C674 1.531 . S
C671 C670 1.369 . S
C671 C672 1.410 . S
C671 C679 1.503 . S
C672 C671 1.410 . S
C672 C673 1.392 . S
C672 C675 1.511 . S
C673 C669 1.376 . S
C673 C672 1.392 . S
C673 H685 0.929 . S
C674 C670 1.531 . S
C674 H686 0.960 . S
C674 H687 0.962 . S
C674 H688 0.960 . S
C675 C672 1.511 . S
C675 H689 0.961 . S
C675 H690 0.961 . S
C675 H691 0.961 . S
C676 C677 1.370 . S
C676 C678 1.363 . S
C676 H692 0.931 . S
C677 C676 1.370 . S
C677 C681 1.408 . S
C678 C676 1.363 . S
C678 C679 1.370 . S
C678 C682 1.524 . S
C679 C671 1.503 . S
C679 C678 1.370 . S
C679 C680 1.403 . S
C680 C679 1.403 . S
C680 C681 1.404 . S
C680 C683 1.539 . S
C681 C677 1.408 . S
C681 C680 1.404 . S
C681 H693 0.930 . S
C682 C678 1.524 . S
C682 H694 0.956 . S
C682 H695 0.961 . S
C682 H696 0.961 . S
C683 C680 1.539 . S
C683 H697 0.958 . S
C683 H698 0.961 . S
C683 H699 0.960 . S
H684 C668 0.931 . S
H685 C673 0.929 . S
H686 C674 0.960 . S
H687 C674 0.962 . S
H688 C674 0.960 . S
H689 C675 0.961 . S
H690 C675 0.961 . S
H691 C675 0.961 . S
H692 C676 0.931 . S
H693 C681 0.930 . S
H694 C682 0.956 . S
H695 C682 0.961 . S
H696 C682 0.961 . S
H697 C683 0.958 . S
H698 C683 0.961 . S
H699 C683 0.960 . S
C700 C701 1.391 . S
C700 C702 1.394 . S
C700 H716 0.931 . S
C701 C700 1.391 . S
C701 C705 1.376 . S
C702 C700 1.394 . S
C702 C703 1.369 . S
C702 C706 1.531 . S
C703 C702 1.369 . S
C703 C704 1.410 . S
C703 C711 1.503 . S
C704 C703 1.410 . S
C704 C705 1.392 . S
C704 C707 1.511 . S
C705 C701 1.376 . S
C705 C704 1.392 . S
C705 H717 0.929 . S
C706 C702 1.531 . S
C706 H718 0.960 . S
C706 H719 0.962 . S
C706 H720 0.960 . S
C707 C704 1.511 . S
C707 H721 0.961 . S
C707 H722 0.961 . S
C707 H723 0.961 . S
C708 C709 1.370 . S
C708 C710 1.363 . S
C708 H724 0.931 . S
C709 C708 1.370 . S
C709 C713 1.408 . S
C710 C708 1.363 . S
C710 C711 1.370 . S
C710 C714 1.524 . S
C711 C703 1.503 . S
C711 C710 1.370 . S
C711 C712 1.403 . S
C712 C711 1.403 . S
C712 C713 1.404 . S
C712 C715 1.539 . S
C713 C709 1.408 . S
C713 C712 1.404 . S
C713 H725 0.930 . S
C714 C710 1.524 . S
C714 H726 0.956 . S
C714 H727 0.961 . S
C714 H728 0.961 . S
C715 C712 1.539 . S
C715 H729 0.958 . S
C715 H730 0.961 . S
C715 H731 0.960 . S
H716 C700 0.931 . S
H717 C705 0.929 . S
H718 C706 0.960 . S
H719 C706 0.962 . S
H720 C706 0.960 . S
H721 C707 0.961 . S
H722 C707 0.961 . S
H723 C707 0.961 . S
H724 C708 0.931 . S
H725 C713 0.930 . S
H726 C714 0.956 . S
H727 C714 0.961 . S
H728 C714 0.961 . S
H729 C715 0.958 . S
H730 C715 0.961 . S
H731 C715 0.960 . S
C732 C733 1.391 . S
C732 C734 1.394 . S
C732 H748 0.931 . S
C733 C732 1.391 . S
C733 C737 1.376 . S
C734 C732 1.394 . S
C734 C735 1.369 . S
C734 C738 1.531 . S
C735 C734 1.369 . S
C735 C736 1.410 . S
C735 C743 1.503 . S
C736 C735 1.410 . S
C736 C737 1.392 . S
C736 C739 1.511 . S
C737 C733 1.376 . S
C737 C736 1.392 . S
C737 H749 0.929 . S
C738 C734 1.531 . S
C738 H750 0.960 . S
C738 H751 0.962 . S
C738 H752 0.960 . S
C739 C736 1.511 . S
C739 H753 0.961 . S
C739 H754 0.961 . S
C739 H755 0.961 . S
C740 C741 1.370 . S
C740 C742 1.363 . S
C740 H756 0.931 . S
C741 C740 1.370 . S
C741 C745 1.408 . S
C742 C740 1.363 . S
C742 C743 1.370 . S
C742 C746 1.524 . S
C743 C735 1.503 . S
C743 C742 1.370 . S
C743 C744 1.403 . S
C744 C743 1.403 . S
C744 C745 1.404 . S
C744 C747 1.539 . S
C745 C741 1.408 . S
C745 C744 1.404 . S
C745 H757 0.930 . S
C746 C742 1.524 . S
C746 H758 0.956 . S
C746 H759 0.961 . S
C746 H760 0.961 . S
C747 C744 1.539 . S
C747 H761 0.958 . S
C747 H762 0.961 . S
C747 H763 0.960 . S
H748 C732 0.931 . S
H749 C737 0.929 . S
H750 C738 0.960 . S
H751 C738 0.962 . S
H752 C738 0.960 . S
H753 C739 0.961 . S
H754 C739 0.961 . S
H755 C739 0.961 . S
H756 C740 0.931 . S
H757 C745 0.930 . S
H758 C746 0.956 . S
H759 C746 0.961 . S
H760 C746 0.961 . S
H761 C747 0.958 . S
H762 C747 0.961 . S
H763 C747 0.960 . S
C764 C765 1.391 . S
C764 C766 1.394 . S
C764 H780 0.931 . S
C765 C764 1.391 . S
C765 C769 1.376 . S
C766 C764 1.394 . S
C766 C767 1.369 . S
C766 C770 1.531 . S
C767 C766 1.369 . S
C767 C768 1.410 . S
C767 C775 1.503 . S
C768 C767 1.410 . S
C768 C769 1.392 . S
C768 C771 1.511 . S
C769 C765 1.376 . S
C769 C768 1.392 . S
C769 H781 0.929 . S
C770 C766 1.531 . S
C770 H782 0.960 . S
C770 H783 0.962 . S
C770 H784 0.960 . S
C771 C768 1.511 . S
C771 H785 0.961 . S
C771 H786 0.961 . S
C771 H787 0.961 . S
C772 C773 1.370 . S
C772 C774 1.363 . S
C772 H788 0.931 . S
C773 C772 1.370 . S
C773 C777 1.408 . S
C774 C772 1.363 . S
C774 C775 1.370 . S
C774 C778 1.524 . S
C775 C767 1.503 . S
C775 C774 1.370 . S
C775 C776 1.403 . S
C776 C775 1.403 . S
C776 C777 1.404 . S
C776 C779 1.539 . S
C777 C773 1.408 . S
C777 C776 1.404 . S
C777 H789 0.930 . S
C778 C774 1.524 . S
C778 H790 0.956 . S
C778 H791 0.961 . S
C778 H792 0.961 . S
C779 C776 1.539 . S
C779 H793 0.958 . S
C779 H794 0.961 . S
C779 H795 0.960 . S
H780 C764 0.931 . S
H781 C769 0.929 . S
H782 C770 0.960 . S
H783 C770 0.962 . S
H784 C770 0.960 . S
H785 C771 0.961 . S
H786 C771 0.961 . S
H787 C771 0.961 . S
H788 C772 0.931 . S
H789 C777 0.930 . S
H790 C778 0.956 . S
H791 C778 0.961 . S
H792 C778 0.961 . S
H793 C779 0.958 . S
H794 C779 0.961 . S
H795 C779 0.960 . S
C796 C797 1.391 . S
C796 C798 1.394 . S
C796 H812 0.931 . S
C797 C796 1.391 . S
C797 C801 1.376 . S
C798 C796 1.394 . S
C798 C799 1.369 . S
C798 C802 1.531 . S
C799 C798 1.369 . S
C799 C800 1.410 . S
C799 C807 1.503 . S
C800 C799 1.410 . S
C800 C801 1.392 . S
C800 C803 1.511 . S
C801 C797 1.376 . S
C801 C800 1.392 . S
C801 H813 0.929 . S
C802 C798 1.531 . S
C802 H814 0.960 . S
C802 H815 0.962 . S
C802 H816 0.960 . S
C803 C800 1.511 . S
C803 H817 0.961 . S
C803 H818 0.961 . S
C803 H819 0.961 . S
C804 C805 1.370 . S
C804 C806 1.363 . S
C804 H820 0.931 . S
C805 C804 1.370 . S
C805 C809 1.408 . S
C806 C804 1.363 . S
C806 C807 1.370 . S
C806 C810 1.524 . S
C807 C799 1.503 . S
C807 C806 1.370 . S
C807 C808 1.403 . S
C808 C807 1.403 . S
C808 C809 1.404 . S
C808 C811 1.539 . S
C809 C805 1.408 . S
C809 C808 1.404 . S
C809 H821 0.930 . S
C810 C806 1.524 . S
C810 H822 0.956 . S
C810 H823 0.961 . S
C810 H824 0.961 . S
C811 C808 1.539 . S
C811 H825 0.958 . S
C811 H826 0.961 . S
C811 H827 0.960 . S
H812 C796 0.931 . S
H813 C801 0.929 . S
H814 C802 0.960 . S
H815 C802 0.962 . S
H816 C802 0.960 . S
H817 C803 0.961 . S
H818 C803 0.961 . S
H819 C803 0.961 . S
H820 C804 0.931 . S
H821 C809 0.930 . S
H822 C810 0.956 . S
H823 C810 0.961 . S
H824 C810 0.961 . S
H825 C811 0.958 . S
H826 C811 0.961 . S
H827 C811 0.960 . S
C828 C829 1.391 . S
C828 C830 1.394 . S
C828 H844 0.931 . S
C829 C828 1.391 . S
C829 C833 1.376 . S
C830 C828 1.394 . S
C830 C831 1.369 . S
C830 C834 1.531 . S
C831 C830 1.369 . S
C831 C832 1.410 . S
C831 C839 1.503 . S
C832 C831 1.410 . S
C832 C833 1.392 . S
C832 C835 1.511 . S
C833 C829 1.376 . S
C833 C832 1.392 . S
C833 H845 0.929 . S
C834 C830 1.531 . S
C834 H846 0.960 . S
C834 H847 0.962 . S
C834 H848 0.960 . S
C835 C832 1.511 . S
C835 H849 0.961 . S
C835 H850 0.961 . S
C835 H851 0.961 . S
C836 C837 1.370 . S
C836 C838 1.363 . S
C836 H852 0.931 . S
C837 C836 1.370 . S
C837 C841 1.408 . S
C838 C836 1.363 . S
C838 C839 1.370 . S
C838 C842 1.524 . S
C839 C831 1.503 . S
C839 C838 1.370 . S
C839 C840 1.403 . S
C840 C839 1.403 . S
C840 C841 1.404 . S
C840 C843 1.539 . S
C841 C837 1.408 . S
C841 C840 1.404 . S
C841 H853 0.930 . S
C842 C838 1.524 . S
C842 H854 0.956 . S
C842 H855 0.961 . S
C842 H856 0.961 . S
C843 C840 1.539 . S
C843 H857 0.958 . S
C843 H858 0.961 . S
C843 H859 0.960 . S
H844 C828 0.931 . S
H845 C833 0.929 . S
H846 C834 0.960 . S
H847 C834 0.962 . S
H848 C834 0.960 . S
H849 C835 0.961 . S
H850 C835 0.961 . S
H851 C835 0.961 . S
H852 C836 0.931 . S
H853 C841 0.930 . S
H854 C842 0.956 . S
H855 C842 0.961 . S
H856 C842 0.961 . S
H857 C843 0.958 . S
H858 C843 0.961 . S
H859 C843 0.960 . S
C860 C861 1.391 . S
C860 C862 1.394 . S
C860 H876 0.931 . S
C861 C860 1.391 . S
C861 C865 1.376 . S
C862 C860 1.394 . S
C862 C863 1.369 . S
C862 C866 1.531 . S
C863 C862 1.369 . S
C863 C864 1.410 . S
C863 C871 1.503 . S
C864 C863 1.410 . S
C864 C865 1.392 . S
C864 C867 1.511 . S
C865 C861 1.376 . S
C865 C864 1.392 . S
C865 H877 0.929 . S
C866 C862 1.531 . S
C866 H878 0.960 . S
C866 H879 0.962 . S
C866 H880 0.960 . S
C867 C864 1.511 . S
C867 H881 0.961 . S
C867 H882 0.961 . S
C867 H883 0.961 . S
C868 C869 1.370 . S
C868 C870 1.363 . S
C868 H884 0.931 . S
C869 C868 1.370 . S
C869 C873 1.408 . S
C870 C868 1.363 . S
C870 C871 1.370 . S
C870 C874 1.524 . S
C871 C863 1.503 . S
C871 C870 1.370 . S
C871 C872 1.403 . S
C872 C871 1.403 . S
C872 C873 1.404 . S
C872 C875 1.539 . S
C873 C869 1.408 . S
C873 C872 1.404 . S
C873 H885 0.930 . S
C874 C870 1.524 . S
C874 H886 0.956 . S
C874 H887 0.961 . S
C874 H888 0.961 . S
C875 C872 1.539 . S
C875 H889 0.958 . S
C875 H890 0.961 . S
C875 H891 0.960 . S
H876 C860 0.931 . S
H877 C865 0.929 . S
H878 C866 0.960 . S
H879 C866 0.962 . S
H880 C866 0.960 . S
H881 C867 0.961 . S
H882 C867 0.961 . S
H883 C867 0.961 . S
H884 C868 0.931 . S
H885 C873 0.930 . S
H886 C874 0.956 . S
H887 C874 0.961 . S
H888 C874 0.961 . S
H889 C875 0.958 . S
H890 C875 0.961 . S
H891 C875 0.960 . S
C892 C893 1.391 . S
C892 C894 1.394 1_565 S
C892 H908 0.931 . S
C893 C892 1.391 . S
C893 C897 1.376 . S
C894 C892 1.394 1_545 S
C894 C895 1.369 1_545 S
C894 C898 1.531 . S
C895 C894 1.369 1_565 S
C895 C896 1.410 . S
C895 C903 1.503 1_565 S
C896 C895 1.410 . S
C896 C897 1.392 . S
C896 C899 1.511 . S
C897 C893 1.376 . S
C897 C896 1.392 . S
C897 H909 0.929 . S
C898 C894 1.531 . S
C898 H910 0.960 . S
C898 H911 0.962 . S
C898 H912 0.960 . S
C899 C896 1.511 . S
C899 H913 0.961 . S
C899 H914 0.961 . S
C899 H915 0.961 . S
C900 C901 1.370 . S
C900 C902 1.363 1_545 S
C900 H916 0.931 . S
C901 C900 1.370 . S
C901 C905 1.408 . S
C902 C900 1.363 1_565 S
C902 C903 1.370 1_565 S
C902 C906 1.524 . S
C903 C895 1.503 1_545 S
C903 C902 1.370 1_545 S
C903 C904 1.403 . S
C904 C903 1.403 . S
C904 C905 1.404 . S
C904 C907 1.539 . S
C905 C901 1.408 . S
C905 C904 1.404 . S
C905 H917 0.930 . S
C906 C902 1.524 . S
C906 H918 0.956 . S
C906 H919 0.961 . S
C906 H920 0.961 . S
C907 C904 1.539 . S
C907 H921 0.958 . S
C907 H922 0.961 . S
C907 H923 0.960 . S
H908 C892 0.931 . S
H909 C897 0.929 . S
H910 C898 0.960 . S
H911 C898 0.962 . S
H912 C898 0.960 . S
H913 C899 0.961 . S
H914 C899 0.961 . S
H915 C899 0.961 . S
H916 C900 0.931 . S
H917 C905 0.930 . S
H918 C906 0.956 . S
H919 C906 0.961 . S
H920 C906 0.961 . S
H921 C907 0.958 . S
H922 C907 0.961 . S
H923 C907 0.960 . S
C924 C925 1.391 . S
C924 C926 1.394 . S
C924 H940 0.931 . S
C925 C924 1.391 . S
C925 C929 1.376 . S
C926 C924 1.394 . S
C926 C927 1.369 . S
C926 C930 1.531 . S
C927 C926 1.369 . S
C927 C928 1.410 . S
C927 C935 1.503 . S
C928 C927 1.410 . S
C928 C929 1.392 . S
C928 C931 1.511 . S
C929 C925 1.376 . S
C929 C928 1.392 . S
C929 H941 0.929 . S
C930 C926 1.531 . S
C930 H942 0.960 . S
C930 H943 0.962 . S
C930 H944 0.960 . S
C931 C928 1.511 . S
C931 H945 0.961 . S
C931 H946 0.961 . S
C931 H947 0.961 . S
C932 C933 1.370 1_556 S
C932 C934 1.363 1_556 S
C932 H948 0.931 . S
C933 C932 1.370 1_554 S
C933 C937 1.408 . S
C934 C932 1.363 1_554 S
C934 C935 1.370 . S
C934 C938 1.524 1_554 S
C935 C927 1.503 . S
C935 C934 1.370 . S
C935 C936 1.403 . S
C936 C935 1.403 . S
C936 C937 1.404 . S
C936 C939 1.539 . S
C937 C933 1.408 . S
C937 C936 1.404 . S
C937 H949 0.930 . S
C938 C934 1.524 1_556 S
C938 H950 0.956 . S
C938 H951 0.961 1_556 S
C938 H952 0.961 . S
C939 C936 1.539 . S
C939 H953 0.958 . S
C939 H954 0.961 . S
C939 H955 0.960 . S
H940 C924 0.931 . S
H941 C929 0.929 . S
H942 C930 0.960 . S
H943 C930 0.962 . S
H944 C930 0.960 . S
H945 C931 0.961 . S
H946 C931 0.961 . S
H947 C931 0.961 . S
H948 C932 0.931 . S
H949 C937 0.930 . S
H950 C938 0.956 . S
H951 C938 0.961 1_554 S
H952 C938 0.961 . S
H953 C939 0.958 . S
H954 C939 0.961 . S
H955 C939 0.960 . S
C956 C957 1.394 1_554 S
C956 C958 1.390 1_655 S
C956 H972 0.931 1_655 S
C957 C956 1.394 1_556 S
C957 C961 1.376 . S
C958 C956 1.390 1_455 S
C958 C959 1.369 1_455 S
C958 C962 1.531 . S
C959 C958 1.369 1_655 S
C959 C960 1.410 . S
C959 C967 1.503 1_655 S
C960 C959 1.410 . S
C960 C961 1.392 1_554 S
C960 C963 1.511 . S
C961 C957 1.376 . S
C961 C960 1.392 1_556 S
C961 H973 0.929 . S
C962 C958 1.531 . S
C962 H974 0.960 . S
C962 H975 0.962 . S
C962 H976 0.960 . S
C963 C960 1.511 . S
C963 H977 0.961 . S
C963 H978 0.961 . S
C963 H979 0.961 . S
C964 C965 1.370 . S
C964 C966 1.363 . S
C964 H980 0.931 . S
C965 C964 1.370 . S
C965 C969 1.408 . S
C966 C964 1.363 . S
C966 C967 1.370 . S
C966 C970 1.524 1_554 S
C967 C959 1.503 1_455 S
C967 C966 1.370 . S
C967 C968 1.403 . S
C968 C967 1.403 . S
C968 C969 1.404 . S
C968 C971 1.539 1_455 S
C969 C965 1.408 . S
C969 C968 1.404 . S
C969 H981 0.930 . S
C970 C966 1.524 1_556 S
C970 H982 0.956 . S
C970 H983 0.961 . S
C970 H984 0.961 . S
C971 C968 1.539 1_655 S
C971 H985 0.961 . S
C971 H986 0.961 . S
C971 H987 0.960 . S
H972 C956 0.931 1_455 S
H973 C961 0.929 . S
H974 C962 0.960 . S
H975 C962 0.962 . S
H976 C962 0.960 . S
H977 C963 0.961 . S
H978 C963 0.961 . S
H979 C963 0.961 . S
H980 C964 0.931 . S
H981 C969 0.930 . S
H982 C970 0.956 . S
H983 C970 0.961 . S
H984 C970 0.961 . S
H985 C971 0.961 . S
H986 C971 0.961 . S
H987 C971 0.960 . S
C988 C989 1.391 . S
C988 C990 1.394 . S
C988 H1004 0.931 . S
C989 C988 1.391 . S
C989 C993 1.376 . S
C990 C988 1.394 . S
C990 C991 1.369 . S
C990 C994 1.531 . S
C991 C990 1.369 . S
C991 C992 1.410 . S
C991 C999 1.503 . S
C992 C991 1.410 . S
C992 C993 1.392 . S
C992 C995 1.511 . S
C993 C989 1.376 . S
C993 C992 1.392 . S
C993 H1005 0.929 1_554 S
C994 C990 1.531 . S
C994 H1006 0.960 . S
C994 H1007 0.962 . S
C994 H1008 0.960 . S
C995 C992 1.511 . S
C995 H1009 0.961 . S
C995 H1010 0.961 . S
C995 H1011 0.961 . S
C996 C997 1.370 . S
C996 C998 1.363 . S
C996 H1012 0.931 . S
C997 C996 1.370 . S
C997 C1001 1.408 . S
C998 C996 1.363 . S
C998 C999 1.370 . S
C998 C1002 1.524 . S
C999 C991 1.503 . S
C999 C998 1.370 . S
C999 C1000 1.403 . S
C1000 C999 1.403 . S
C1000 C1001 1.404 . S
C1000 C1003 1.539 . S
C1001 C997 1.408 . S
C1001 C1000 1.404 . S
C1001 H1013 0.930 . S
C1002 C998 1.524 . S
C1002 H1014 0.956 . S
C1002 H1015 0.963 . S
C1002 H1016 0.961 . S
C1003 C1000 1.539 . S
C1003 H1017 0.958 . S
C1003 H1018 0.961 . S
C1003 H1019 0.960 . S
H1004 C988 0.931 . S
H1005 C993 0.929 1_556 S
H1006 C994 0.960 . S
H1007 C994 0.962 . S
H1008 C994 0.960 . S
H1009 C995 0.961 . S
H1010 C995 0.961 . S
H1011 C995 0.961 . S
H1012 C996 0.931 . S
H1013 C1001 0.930 . S
H1014 C1002 0.956 . S
H1015 C1002 0.963 . S
H1016 C1002 0.961 . S
H1017 C1003 0.958 . S
H1018 C1003 0.961 . S
H1019 C1003 0.960 . S
C1020 C1021 1.391 1_455 S
C1020 C1022 1.394 . S
C1020 H1036 0.931 . S
C1021 C1020 1.391 1_655 S
C1021 C1025 1.376 . S
C1022 C1020 1.394 . S
C1022 C1023 1.369 . S
C1022 C1026 1.531 . S
C1023 C1022 1.369 . S
C1023 C1024 1.410 1_455 S
C1023 C1031 1.503 . S
C1024 C1023 1.410 1_655 S
C1024 C1025 1.392 . S
C1024 C1027 1.511 . S
C1025 C1021 1.376 . S
C1025 C1024 1.392 . S
C1025 H1037 0.929 . S
C1026 C1022 1.531 . S
C1026 H1038 0.960 . S
C1026 H1039 0.962 . S
C1026 H1040 0.960 . S
C1027 C1024 1.511 . S
C1027 H1041 0.961 . S
C1027 H1042 0.961 . S
C1027 H1043 0.961 . S
C1028 C1029 1.370 . S
C1028 C1030 1.363 . S
C1028 H1044 0.931 . S
C1029 C1028 1.370 . S
C1029 C1033 1.408 . S
C1030 C1028 1.363 . S
C1030 C1031 1.370 . S
C1030 C1034 1.524 . S
C1031 C1023 1.503 . S
C1031 C1030 1.370 . S
C1031 C1032 1.403 . S
C1032 C1031 1.403 . S
C1032 C1033 1.404 . S
C1032 C1035 1.539 . S
C1033 C1029 1.408 . S
C1033 C1032 1.404 . S
C1033 H1045 0.930 . S
C1034 C1030 1.524 . S
C1034 H1046 0.956 . S
C1034 H1047 0.961 1_455 S
C1034 H1048 0.961 . S
C1035 C1032 1.539 . S
C1035 H1049 0.958 . S
C1035 H1050 0.961 . S
C1035 H1051 0.954 1_455 S
H1036 C1020 0.931 . S
H1037 C1025 0.929 . S
H1038 C1026 0.960 . S
H1039 C1026 0.962 . S
H1040 C1026 0.960 . S
H1041 C1027 0.961 . S
H1042 C1027 0.961 . S
H1043 C1027 0.961 . S
H1044 C1028 0.931 . S
H1045 C1033 0.930 . S
H1046 C1034 0.956 . S
H1047 C1034 0.961 1_655 S
H1048 C1034 0.961 . S
H1049 C1035 0.958 . S
H1050 C1035 0.961 . S
H1051 C1035 0.954 1_655 S
C1052 C1053 1.391 . S
C1052 C1054 1.394 . S
C1052 H1068 0.931 . S
C1053 C1052 1.391 . S
C1053 C1057 1.376 . S
C1054 C1052 1.394 . S
C1054 C1055 1.369 . S
C1054 C1058 1.531 . S
C1055 C1054 1.369 . S
C1055 C1056 1.410 . S
C1055 C1063 1.503 . S
C1056 C1055 1.410 . S
C1056 C1057 1.392 . S
C1056 C1059 1.511 . S
C1057 C1053 1.376 . S
C1057 C1056 1.392 . S
C1057 H1069 0.929 . S
C1058 C1054 1.531 . S
C1058 H1070 0.960 . S
C1058 H1071 0.962 . S
C1058 H1072 0.960 . S
C1059 C1056 1.511 . S
C1059 H1073 0.961 . S
C1059 H1074 0.961 . S
C1059 H1075 0.961 . S
C1060 C1061 1.370 . S
C1060 C1062 1.363 . S
C1060 H1076 0.931 . S
C1061 C1060 1.370 . S
C1061 C1065 1.408 . S
C1062 C1060 1.363 . S
C1062 C1063 1.370 . S
C1062 C1066 1.524 . S
C1063 C1055 1.503 . S
C1063 C1062 1.370 . S
C1063 C1064 1.403 . S
C1064 C1063 1.403 . S
C1064 C1065 1.404 . S
C1064 C1067 1.539 . S
C1065 C1061 1.408 . S
C1065 C1064 1.404 . S
C1065 H1077 0.930 . S
C1066 C1062 1.524 . S
C1066 H1078 0.956 . S
C1066 H1079 0.961 . S
C1066 H1080 0.961 . S
C1067 C1064 1.539 . S
C1067 H1081 0.958 . S
C1067 H1082 0.961 . S
C1067 H1083 0.960 . S
H1068 C1052 0.931 . S
H1069 C1057 0.929 . S
H1070 C1058 0.960 . S
H1071 C1058 0.962 . S
H1072 C1058 0.960 . S
H1073 C1059 0.961 . S
H1074 C1059 0.961 . S
H1075 C1059 0.961 . S
H1076 C1060 0.931 . S
H1077 C1065 0.930 . S
H1078 C1066 0.956 . S
H1079 C1066 0.961 . S
H1080 C1066 0.961 . S
H1081 C1067 0.958 . S
H1082 C1067 0.961 . S
H1083 C1067 0.960 . S
C1084 C1085 1.391 . S
C1084 C1086 1.394 . S
C1084 H1100 0.931 . S
C1085 C1084 1.391 . S
C1085 C1089 1.376 . S
C1086 C1084 1.394 . S
C1086 C1087 1.369 . S
C1086 C1090 1.531 . S
C1087 C1086 1.369 . S
C1087 C1088 1.410 . S
C1087 C1095 1.503 . S
C1088 C1087 1.410 . S
C1088 C1089 1.392 . S
C1088 C1091 1.511 . S
C1089 C1085 1.376 . S
C1089 C1088 1.392 . S
C1089 H1101 0.929 . S
C1090 C1086 1.531 . S
C1090 H1102 0.960 . S
C1090 H1103 0.962 . S
C1090 H1104 0.960 . S
C1091 C1088 1.511 . S
C1091 H1105 0.961 . S
C1091 H1106 0.961 . S
C1091 H1107 0.961 . S
C1092 C1093 1.370 . S
C1092 C1094 1.363 . S
C1092 H1108 0.931 . S
C1093 C1092 1.370 . S
C1093 C1097 1.408 . S
C1094 C1092 1.363 . S
C1094 C1095 1.370 . S
C1094 C1098 1.524 . S
C1095 C1087 1.503 . S
C1095 C1094 1.370 . S
C1095 C1096 1.403 . S
C1096 C1095 1.403 . S
C1096 C1097 1.404 . S
C1096 C1099 1.539 . S
C1097 C1093 1.408 . S
C1097 C1096 1.404 . S
C1097 H1109 0.930 . S
C1098 C1094 1.524 . S
C1098 H1110 0.956 . S
C1098 H1111 0.961 . S
C1098 H1112 0.961 . S
C1099 C1096 1.539 . S
C1099 H1113 0.958 . S
C1099 H1114 0.961 . S
C1099 H1115 0.960 . S
H1100 C1084 0.931 . S
H1101 C1089 0.929 . S
H1102 C1090 0.960 . S
H1103 C1090 0.962 . S
H1104 C1090 0.960 . S
H1105 C1091 0.961 . S
H1106 C1091 0.961 . S
H1107 C1091 0.961 . S
H1108 C1092 0.931 . S
H1109 C1097 0.930 . S
H1110 C1098 0.956 . S
H1111 C1098 0.961 . S
H1112 C1098 0.961 . S
H1113 C1099 0.958 . S
H1114 C1099 0.961 . S
H1115 C1099 0.960 . S
C1116 C1117 1.391 1_556 S
C1116 C1118 1.394 1_565 S
C1116 H1132 0.931 1_566 S
C1117 C1116 1.391 1_554 S
C1117 C1121 1.376 . S
C1118 C1116 1.394 1_545 S
C1118 C1119 1.369 1_545 S
C1118 C1122 1.531 . S
C1119 C1118 1.369 1_565 S
C1119 C1120 1.410 . S
C1119 C1127 1.503 1_565 S
C1120 C1119 1.410 . S
C1120 C1121 1.392 1_556 S
C1120 C1123 1.511 . S
C1121 C1117 1.376 . S
C1121 C1120 1.392 1_554 S
C1121 H1133 0.929 . S
C1122 C1118 1.531 . S
C1122 H1134 0.960 . S
C1122 H1135 0.962 . S
C1122 H1136 0.960 . S
C1123 C1120 1.511 . S
C1123 H1137 0.961 . S
C1123 H1138 0.961 . S
C1123 H1139 0.961 1_556 S
C1124 C1125 1.370 . S
C1124 C1126 1.363 1_545 S
C1124 H1140 0.931 . S
C1125 C1124 1.370 . S
C1125 C1129 1.408 . S
C1126 C1124 1.363 1_565 S
C1126 C1127 1.370 1_565 S
C1126 C1130 1.524 . S
C1127 C1119 1.503 1_545 S
C1127 C1126 1.370 1_545 S
C1127 C1128 1.403 . S
C1128 C1127 1.403 . S
C1128 C1129 1.404 . S
C1128 C1131 1.539 1_556 S
C1129 C1125 1.408 . S
C1129 C1128 1.404 . S
C1129 H1141 0.930 . S
C1130 C1126 1.524 . S
C1130 H1142 0.956 . S
C1130 H1143 0.961 . S
C1130 H1144 0.961 . S
C1131 C1128 1.539 1_554 S
C1131 H1145 0.958 . S
C1131 H1146 0.961 . S
C1131 H1147 0.960 . S
H1132 C1116 0.931 1_544 S
H1133 C1121 0.929 . S
H1134 C1122 0.960 . S
H1135 C1122 0.962 . S
H1136 C1122 0.960 . S
H1137 C1123 0.961 . S
H1138 C1123 0.961 . S
H1139 C1123 0.961 1_554 S
H1140 C1124 0.931 . S
H1141 C1129 0.930 . S
H1142 C1130 0.956 . S
H1143 C1130 0.961 . S
H1144 C1130 0.961 . S
H1145 C1131 0.958 . S
H1146 C1131 0.961 . S
H1147 C1131 0.960 . S
C1148 C1149 1.391 . S
C1148 C1150 1.394 . S
C1148 H1164 0.931 . S
C1149 C1148 1.391 . S
C1149 C1153 1.376 . S
C1150 C1148 1.394 . S
C1150 C1151 1.369 . S
C1150 C1154 1.531 . S
C1151 C1150 1.369 . S
C1151 C1152 1.410 . S
C1151 C1159 1.503 . S
C1152 C1151 1.410 . S
C1152 C1153 1.392 . S
C1152 C1155 1.511 . S
C1153 C1149 1.376 . S
C1153 C1152 1.392 . S
C1153 H1165 0.929 . S
C1154 C1150 1.531 . S
C1154 H1166 0.960 1_556 S
C1154 H1167 0.962 1_556 S
C1154 H1168 0.960 1_556 S
C1155 C1152 1.511 . S
C1155 H1169 0.961 . S
C1155 H1170 0.961 . S
C1155 H1171 0.961 . S
C1156 C1157 1.370 1_556 S
C1156 C1158 1.363 . S
C1156 H1172 0.931 1_556 S
C1157 C1156 1.370 1_554 S
C1157 C1161 1.408 1_554 S
C1158 C1156 1.363 . S
C1158 C1159 1.370 . S
C1158 C1162 1.524 . S
C1159 C1151 1.503 . S
C1159 C1158 1.370 . S
C1159 C1160 1.403 . S
C1160 C1159 1.403 . S
C1160 C1161 1.404 . S
C1160 C1163 1.539 . S
C1161 C1157 1.408 1_556 S
C1161 C1160 1.404 . S
C1161 H1173 0.930 . S
C1162 C1158 1.524 . S
C1162 H1174 0.956 . S
C1162 H1175 0.961 . S
C1162 H1176 0.961 . S
C1163 C1160 1.539 . S
C1163 H1177 0.958 . S
C1163 H1178 0.961 . S
C1163 H1179 0.960 . S
H1164 C1148 0.931 . S
H1165 C1153 0.929 . S
H1166 C1154 0.960 1_554 S
H1167 C1154 0.962 1_554 S
H1168 C1154 0.960 1_554 S
H1169 C1155 0.961 . S
H1170 C1155 0.961 . S
H1171 C1155 0.961 . S
H1172 C1156 0.931 1_554 S
H1173 C1161 0.930 . S
H1174 C1162 0.956 . S
H1175 C1162 0.961 . S
H1176 C1162 0.961 . S
H1177 C1163 0.958 . S
H1178 C1163 0.961 . S
H1179 C1163 0.960 . S
C1180 C1181 1.391 . S
C1180 C1182 1.394 . S
C1180 H1196 0.931 . S
C1181 C1180 1.391 . S
C1181 C1185 1.376 . S
C1182 C1180 1.394 . S
C1182 C1183 1.369 . S
C1182 C1186 1.531 . S
C1183 C1182 1.369 . S
C1183 C1184 1.410 . S
C1183 C1191 1.503 . S
C1184 C1183 1.410 . S
C1184 C1185 1.392 . S
C1184 C1187 1.511 . S
C1185 C1181 1.376 . S
C1185 C1184 1.392 . S
C1185 H1197 0.929 . S
C1186 C1182 1.531 . S
C1186 H1198 0.960 . S
C1186 H1199 0.962 . S
C1186 H1200 0.960 . S
C1187 C1184 1.511 . S
C1187 H1201 0.961 . S
C1187 H1202 0.961 . S
C1187 H1203 0.961 1_556 S
C1188 C1189 1.370 . S
C1188 C1190 1.363 . S
C1188 H1204 0.931 . S
C1189 C1188 1.370 . S
C1189 C1193 1.408 1_556 S
C1190 C1188 1.363 . S
C1190 C1191 1.370 . S
C1190 C1194 1.524 . S
C1191 C1183 1.503 . S
C1191 C1190 1.370 . S
C1191 C1192 1.403 . S
C1192 C1191 1.403 . S
C1192 C1193 1.404 1_556 S
C1192 C1195 1.539 1_556 S
C1193 C1189 1.408 1_554 S
C1193 C1192 1.404 1_554 S
C1193 H1205 0.930 . S
C1194 C1190 1.524 . S
C1194 H1206 0.956 . S
C1194 H1207 0.961 . S
C1194 H1208 0.961 . S
C1195 C1192 1.539 1_554 S
C1195 H1209 0.958 1_554 S
C1195 H1210 0.961 . S
C1195 H1211 0.960 1_554 S
H1196 C1180 0.931 . S
H1197 C1185 0.929 . S
H1198 C1186 0.960 . S
H1199 C1186 0.962 . S
H1200 C1186 0.960 . S
H1201 C1187 0.961 . S
H1202 C1187 0.961 . S
H1203 C1187 0.961 1_554 S
H1204 C1188 0.931 . S
H1205 C1193 0.930 . S
H1206 C1194 0.956 . S
H1207 C1194 0.961 . S
H1208 C1194 0.961 . S
H1209 C1195 0.958 1_556 S
H1210 C1195 0.961 . S
H1211 C1195 0.960 1_556 S
C1212 C1213 1.391 . S
C1212 C1214 1.394 . S
C1212 H1228 0.931 . S
C1213 C1212 1.391 . S
C1213 C1217 1.376 . S
C1214 C1212 1.394 . S
C1214 C1215 1.369 . S
C1214 C1218 1.531 . S
C1215 C1214 1.369 . S
C1215 C1216 1.410 . S
C1215 C1223 1.503 . S
C1216 C1215 1.410 . S
C1216 C1217 1.392 . S
C1216 C1219 1.511 . S
C1217 C1213 1.376 . S
C1217 C1216 1.392 . S
C1217 H1229 0.929 . S
C1218 C1214 1.531 . S
C1218 H1230 0.960 . S
C1218 H1231 0.962 . S
C1218 H1232 0.960 . S
C1219 C1216 1.511 . S
C1219 H1233 0.961 . S
C1219 H1234 0.961 . S
C1219 H1235 0.961 . S
C1220 C1221 1.370 . S
C1220 C1222 1.363 . S
C1220 H1236 0.931 . S
C1221 C1220 1.370 . S
C1221 C1225 1.408 . S
C1222 C1220 1.363 . S
C1222 C1223 1.370 . S
C1222 C1226 1.524 . S
C1223 C1215 1.503 . S
C1223 C1222 1.370 . S
C1223 C1224 1.403 . S
C1224 C1223 1.403 . S
C1224 C1225 1.404 . S
C1224 C1227 1.539 . S
C1225 C1221 1.408 . S
C1225 C1224 1.404 . S
C1225 H1237 0.930 . S
C1226 C1222 1.524 . S
C1226 H1238 0.956 . S
C1226 H1239 0.961 . S
C1226 H1240 0.961 . S
C1227 C1224 1.539 . S
C1227 H1241 0.958 . S
C1227 H1242 0.961 . S
C1227 H1243 0.960 . S
H1228 C1212 0.931 . S
H1229 C1217 0.929 . S
H1230 C1218 0.960 . S
H1231 C1218 0.962 . S
H1232 C1218 0.960 . S
H1233 C1219 0.961 . S
H1234 C1219 0.961 . S
H1235 C1219 0.961 . S
H1236 C1220 0.931 . S
H1237 C1225 0.930 . S
H1238 C1226 0.956 . S
H1239 C1226 0.961 . S
H1240 C1226 0.961 . S
H1241 C1227 0.958 . S
H1242 C1227 0.961 . S
H1243 C1227 0.960 . S
C1244 C1245 1.391 . S
C1244 C1246 1.394 . S
C1244 H1260 0.931 . S
C1245 C1244 1.391 . S
C1245 C1249 1.376 . S
C1246 C1244 1.394 . S
C1246 C1247 1.369 . S
C1246 C1250 1.531 . S
C1247 C1246 1.369 . S
C1247 C1248 1.410 . S
C1247 C1255 1.503 . S
C1248 C1247 1.410 . S
C1248 C1249 1.392 . S
C1248 C1251 1.511 . S
C1249 C1245 1.376 . S
C1249 C1248 1.392 . S
C1249 H1261 0.929 . S
C1250 C1246 1.531 . S
C1250 H1262 0.960 . S
C1250 H1263 0.962 . S
C1250 H1264 0.960 . S
C1251 C1248 1.511 . S
C1251 H1265 0.961 . S
C1251 H1266 0.961 . S
C1251 H1267 0.961 . S
C1252 C1253 1.370 . S
C1252 C1254 1.363 . S
C1252 H1268 0.931 . S
C1253 C1252 1.370 . S
C1253 C1257 1.408 . S
C1254 C1252 1.363 . S
C1254 C1255 1.370 . S
C1254 C1258 1.524 . S
C1255 C1247 1.503 . S
C1255 C1254 1.370 . S
C1255 C1256 1.403 . S
C1256 C1255 1.403 . S
C1256 C1257 1.404 . S
C1256 C1259 1.539 . S
C1257 C1253 1.408 . S
C1257 C1256 1.404 . S
C1257 H1269 0.930 . S
C1258 C1254 1.524 . S
C1258 H1270 0.956 . S
C1258 H1271 0.961 . S
C1258 H1272 0.961 . S
C1259 C1256 1.539 . S
C1259 H1273 0.958 . S
C1259 H1274 0.961 . S
C1259 H1275 0.960 . S
H1260 C1244 0.931 . S
H1261 C1249 0.929 . S
H1262 C1250 0.960 . S
H1263 C1250 0.962 . S
H1264 C1250 0.960 . S
H1265 C1251 0.961 . S
H1266 C1251 0.961 . S
H1267 C1251 0.961 . S
H1268 C1252 0.931 . S
H1269 C1257 0.930 . S
H1270 C1258 0.956 . S
H1271 C1258 0.961 . S
H1272 C1258 0.961 . S
H1273 C1259 0.958 . S
H1274 C1259 0.961 . S
H1275 C1259 0.960 . S
C1276 C1277 1.391 . S
C1276 C1278 1.394 . S
C1276 H1292 0.931 . S
C1277 C1276 1.391 . S
C1277 C1281 1.376 . S
C1278 C1276 1.394 . S
C1278 C1279 1.369 . S
C1278 C1282 1.531 . S
C1279 C1278 1.369 . S
C1279 C1280 1.410 . S
C1279 C1287 1.503 . S
C1280 C1279 1.410 . S
C1280 C1281 1.392 . S
C1280 C1283 1.511 . S
C1281 C1277 1.376 . S
C1281 C1280 1.392 . S
C1281 H1293 0.929 . S
C1282 C1278 1.531 . S
C1282 H1294 0.960 . S
C1282 H1295 0.962 . S
C1282 H1296 0.960 . S
C1283 C1280 1.511 . S
C1283 H1297 0.961 . S
C1283 H1298 0.961 . S
C1283 H1299 0.961 . S
C1284 C1285 1.370 . S
C1284 C1286 1.363 . S
C1284 H1300 0.931 . S
C1285 C1284 1.370 . S
C1285 C1289 1.408 . S
C1286 C1284 1.363 . S
C1286 C1287 1.370 . S
C1286 C1290 1.524 . S
C1287 C1279 1.503 . S
C1287 C1286 1.370 . S
C1287 C1288 1.403 . S
C1288 C1287 1.403 . S
C1288 C1289 1.404 . S
C1288 C1291 1.539 . S
C1289 C1285 1.408 . S
C1289 C1288 1.404 . S
C1289 H1301 0.930 . S
C1290 C1286 1.524 . S
C1290 H1302 0.956 . S
C1290 H1303 0.961 . S
C1290 H1304 0.961 . S
C1291 C1288 1.539 . S
C1291 H1305 0.958 . S
C1291 H1306 0.961 . S
C1291 H1307 0.960 . S
H1292 C1276 0.931 . S
H1293 C1281 0.929 . S
H1294 C1282 0.960 . S
H1295 C1282 0.962 . S
H1296 C1282 0.960 . S
H1297 C1283 0.961 . S
H1298 C1283 0.961 . S
H1299 C1283 0.961 . S
H1300 C1284 0.931 . S
H1301 C1289 0.930 . S
H1302 C1290 0.956 . S
H1303 C1290 0.961 . S
H1304 C1290 0.961 . S
H1305 C1291 0.958 . S
H1306 C1291 0.961 . S
H1307 C1291 0.960 . S
C1308 C1309 1.391 . S
C1308 C1310 1.394 . S
C1308 H1324 0.931 . S
C1309 C1308 1.391 . S
C1309 C1313 1.376 . S
C1310 C1308 1.394 . S
C1310 C1311 1.369 . S
C1310 C1314 1.531 . S
C1311 C1310 1.369 . S
C1311 C1312 1.410 . S
C1311 C1319 1.503 . S
C1312 C1311 1.410 . S
C1312 C1313 1.392 . S
C1312 C1315 1.511 . S
C1313 C1309 1.376 . S
C1313 C1312 1.392 . S
C1313 H1325 0.929 . S
C1314 C1310 1.531 . S
C1314 H1326 0.960 . S
C1314 H1327 0.962 . S
C1314 H1328 0.960 . S
C1315 C1312 1.511 . S
C1315 H1329 0.961 . S
C1315 H1330 0.961 . S
C1315 H1331 0.961 . S
C1316 C1317 1.370 . S
C1316 C1318 1.363 . S
C1316 H1332 0.931 . S
C1317 C1316 1.370 . S
C1317 C1321 1.408 . S
C1318 C1316 1.363 . S
C1318 C1319 1.370 . S
C1318 C1322 1.524 . S
C1319 C1311 1.503 . S
C1319 C1318 1.370 . S
C1319 C1320 1.403 . S
C1320 C1319 1.403 . S
C1320 C1321 1.404 . S
C1320 C1323 1.539 . S
C1321 C1317 1.408 . S
C1321 C1320 1.404 . S
C1321 H1333 0.930 . S
C1322 C1318 1.524 . S
C1322 H1334 0.956 . S
C1322 H1335 0.961 . S
C1322 H1336 0.961 . S
C1323 C1320 1.539 . S
C1323 H1337 0.958 . S
C1323 H1338 0.961 . S
C1323 H1339 0.960 . S
H1324 C1308 0.931 . S
H1325 C1313 0.929 . S
H1326 C1314 0.960 . S
H1327 C1314 0.962 . S
H1328 C1314 0.960 . S
H1329 C1315 0.961 . S
H1330 C1315 0.961 . S
H1331 C1315 0.961 . S
H1332 C1316 0.931 . S
H1333 C1321 0.930 . S
H1334 C1322 0.956 . S
H1335 C1322 0.961 . S
H1336 C1322 0.961 . S
H1337 C1323 0.958 . S
H1338 C1323 0.961 . S
H1339 C1323 0.960 . S
C1340 C1341 1.391 . S
C1340 C1342 1.394 . S
C1340 H1356 0.931 . S
C1341 C1340 1.391 . S
C1341 C1345 1.376 . S
C1342 C1340 1.394 . S
C1342 C1343 1.369 . S
C1342 C1346 1.531 . S
C1343 C1342 1.369 . S
C1343 C1344 1.410 . S
C1343 C1351 1.503 . S
C1344 C1343 1.410 . S
C1344 C1345 1.392 . S
C1344 C1347 1.511 . S
C1345 C1341 1.376 . S
C1345 C1344 1.392 . S
C1345 H1357 0.929 . S
C1346 C1342 1.531 . S
C1346 H1358 0.960 . S
C1346 H1359 0.962 . S
C1346 H1360 0.960 . S
C1347 C1344 1.511 . S
C1347 H1361 0.961 . S
C1347 H1362 0.961 . S
C1347 H1363 0.961 . S
C1348 C1349 1.370 . S
C1348 C1350 1.363 . S
C1348 H1364 0.931 . S
C1349 C1348 1.370 . S
C1349 C1353 1.408 . S
C1350 C1348 1.363 . S
C1350 C1351 1.370 . S
C1350 C1354 1.524 . S
C1351 C1343 1.503 . S
C1351 C1350 1.370 . S
C1351 C1352 1.403 . S
C1352 C1351 1.403 . S
C1352 C1353 1.404 . S
C1352 C1355 1.539 . S
C1353 C1349 1.408 . S
C1353 C1352 1.404 . S
C1353 H1365 0.930 . S
C1354 C1350 1.524 . S
C1354 H1366 0.956 . S
C1354 H1367 0.961 . S
C1354 H1368 0.961 . S
C1355 C1352 1.539 . S
C1355 H1369 0.958 . S
C1355 H1370 0.961 . S
C1355 H1371 0.960 . S
H1356 C1340 0.931 . S
H1357 C1345 0.929 . S
H1358 C1346 0.960 . S
H1359 C1346 0.962 . S
H1360 C1346 0.960 . S
H1361 C1347 0.961 . S
H1362 C1347 0.961 . S
H1363 C1347 0.961 . S
H1364 C1348 0.931 . S
H1365 C1353 0.930 . S
H1366 C1354 0.956 . S
H1367 C1354 0.961 . S
H1368 C1354 0.961 . S
H1369 C1355 0.958 . S
H1370 C1355 0.961 . S
H1371 C1355 0.960 . S
C1372 C1373 1.391 . S
C1372 C1374 1.394 . S
C1372 H1388 0.917 1_545 S
C1373 C1372 1.391 . S
C1373 C1377 1.376 . S
C1374 C1372 1.394 . S
C1374 C1375 1.369 . S
C1374 C1378 1.531 . S
C1375 C1374 1.369 . S
C1375 C1376 1.410 . S
C1375 C1383 1.503 . S
C1376 C1375 1.410 . S
C1376 C1377 1.392 . S
C1376 C1379 1.511 . S
C1377 C1373 1.376 . S
C1377 C1376 1.392 . S
C1377 H1389 0.929 . S
C1378 C1374 1.531 . S
C1378 H1390 0.960 . S
C1378 H1391 0.962 . S
C1378 H1392 0.960 . S
C1379 C1376 1.511 . S
C1379 H1393 0.961 . S
C1379 H1394 0.961 . S
C1379 H1395 0.961 . S
C1380 C1381 1.370 . S
C1380 C1382 1.363 . S
C1380 H1396 0.931 . S
C1381 C1380 1.370 . S
C1381 C1385 1.408 . S
C1382 C1380 1.363 . S
C1382 C1383 1.370 . S
C1382 C1386 1.524 . S
C1383 C1375 1.503 . S
C1383 C1382 1.370 . S
C1383 C1384 1.403 . S
C1384 C1383 1.403 . S
C1384 C1385 1.404 . S
C1384 C1387 1.539 . S
C1385 C1381 1.408 . S
C1385 C1384 1.404 . S
C1385 H1397 0.930 . S
C1386 C1382 1.524 . S
C1386 H1398 0.956 . S
C1386 H1399 0.961 . S
C1386 H1400 0.961 . S
C1387 C1384 1.539 . S
C1387 H1401 0.958 . S
C1387 H1402 0.961 . S
C1387 H1403 0.960 . S
H1388 C1372 0.917 1_565 S
H1389 C1377 0.929 . S
H1390 C1378 0.960 . S
H1391 C1378 0.962 . S
H1392 C1378 0.960 . S
H1393 C1379 0.961 . S
H1394 C1379 0.961 . S
H1395 C1379 0.961 . S
H1396 C1380 0.931 . S
H1397 C1385 0.930 . S
H1398 C1386 0.956 . S
H1399 C1386 0.961 . S
H1400 C1386 0.961 . S
H1401 C1387 0.958 . S
H1402 C1387 0.961 . S
H1403 C1387 0.960 . S
C253 C49 1.382 . S
C261 C7 1.356 . S
C285 C64 1.363 . S
C293 C22 1.387 . S
C317 C35 1.375 . S
C325 C77 1.380 . S
C349 C36 1.340 . S
C357 C78 1.326 . S
C381 C8 1.315 . S
C389 C50 1.307 . S
C413 C63 1.307 . S
C421 C21 1.304 . S
C445 C133 1.287 . S
C453 C92 1.269 . S
C477 C106 1.297 . S
C485 C148 1.287 . S
C509 C120 1.294 . S
C517 C161 1.299 . S
C541 C162 1.432 . S
C549 C119 1.408 . S
C573 C134 1.414 . S
C581 C91 1.385 . S
C605 C147 1.387 . S
C613 C105 1.411 . S
C637 C175 1.353 . S
C645 C217 1.368 . S
C669 C190 1.393 . S
C677 C232 1.384 . S
C701 C203 1.407 . S
C709 C245 1.380 . S
C733 C246 1.309 . S
C741 C204 1.340 . S
C765 C218 1.295 . S
C773 C176 1.324 . S
C797 C231 1.332 . S
C805 C189 1.301 . S
C829 C3 1.245 . S
C837 C101 1.230 . S
C861 C23 1.282 . S
C869 C115 1.279 . S
C893 C87 1.215 . S
C901 C31 1.241 . S
C925 C37 1.268 . S
C933 C191 1.243 1_554 S
C957 C199 1.226 . S
C965 C9 1.235 . S
C989 C171 1.204 1_554 S
C997 C17 1.223 . S
C1021 C227 1.226 . S
C1029 C45 1.206 . S
C1053 C65 1.264 . S
C1061 C247 1.268 . S
C1085 C219 1.210 . S
C1093 C73 1.231 . S
C1117 C149 1.231 . S
C1125 C79 1.219 . S
C1149 C51 1.163 . S
C1157 C157 1.206 . S
C1181 C59 1.187 . S
C1189 C129 1.194 1_556 S
C1213 C93 1.196 1_545 S
C1221 C185 1.220 . S
C1245 C107 1.237 . S
C1253 C205 1.243 . S
C1277 C121 1.188 . S
C1285 C177 1.221 . S
C1309 C233 1.242 . S
C1317 C163 1.264 . S
C1341 C241 1.289 . S
C1349 C135 1.254 . S
C1373 C143 1.213 1_545 S
C1381 C213 1.238 . S
