# Generated by pormake.
# Topology uof, (4)-cn, num edge types: 1
# Building blocks:
#     Node 0, Type 0, BuildingBlock: UXUYUI_clean_sbu_0, # of connection points: 4
#     Node 1, Type 0, BuildingBlock: UXUYUI_clean_sbu_0, # of connection points: 4
#     Node 2, Type 0, BuildingBlock: UXUYUI_clean_sbu_0, # of connection points: 4
#     Node 3, Type 0, BuildingBlock: UXUYUI_clean_sbu_0, # of connection points: 4
#     Node 4, Type 0, BuildingBlock: UXUYUI_clean_sbu_0, # of connection points: 4
#     Node 5, Type 0, BuildingBlock: UXUYUI_clean_sbu_0, # of connection points: 4
#     Node 6, Type 0, BuildingBlock: UXUYUI_clean_sbu_0, # of connection points: 4
#     Node 7, Type 0, BuildingBlock: UXUYUI_clean_sbu_0, # of connection points: 4
#     Node 8, Type 0, BuildingBlock: UXUYUI_clean_sbu_0, # of connection points: 4
#     Node 9, Type 0, BuildingBlock: UXUYUI_clean_sbu_0, # of connection points: 4
#     Node 10, Type 0, BuildingBlock: UXUYUI_clean_sbu_0, # of connection points: 4
#     Node 11, Type 0, BuildingBlock: UXUYUI_clean_sbu_0, # of connection points: 4
#     Edge 12, Type (0, 0), BuildingBlock: XIVTED_clean_linker_0, # of connection points: 2
#     Edge 13, Type (0, 0), BuildingBlock: XIVTED_clean_linker_0, # of connection points: 2
#     Edge 14, Type (0, 0), BuildingBlock: XIVTED_clean_linker_0, # of connection points: 2
#     Edge 15, Type (0, 0), BuildingBlock: XIVTED_clean_linker_0, # of connection points: 2
#     Edge 16, Type (0, 0), BuildingBlock: XIVTED_clean_linker_0, # of connection points: 2
#     Edge 17, Type (0, 0), BuildingBlock: XIVTED_clean_linker_0, # of connection points: 2
#     Edge 18, Type (0, 0), BuildingBlock: XIVTED_clean_linker_0, # of connection points: 2
#     Edge 19, Type (0, 0), BuildingBlock: XIVTED_clean_linker_0, # of connection points: 2
#     Edge 20, Type (0, 0), BuildingBlock: XIVTED_clean_linker_0, # of connection points: 2
#     Edge 21, Type (0, 0), BuildingBlock: XIVTED_clean_linker_0, # of connection points: 2
#     Edge 22, Type (0, 0), BuildingBlock: XIVTED_clean_linker_0, # of connection points: 2
#     Edge 23, Type (0, 0), BuildingBlock: XIVTED_clean_linker_0, # of connection points: 2
#     Edge 24, Type (0, 0), BuildingBlock: XIVTED_clean_linker_0, # of connection points: 2
#     Edge 25, Type (0, 0), BuildingBlock: XIVTED_clean_linker_0, # of connection points: 2
#     Edge 26, Type (0, 0), BuildingBlock: XIVTED_clean_linker_0, # of connection points: 2
#     Edge 27, Type (0, 0), BuildingBlock: XIVTED_clean_linker_0, # of connection points: 2
#     Edge 28, Type (0, 0), BuildingBlock: XIVTED_clean_linker_0, # of connection points: 2
#     Edge 29, Type (0, 0), BuildingBlock: XIVTED_clean_linker_0, # of connection points: 2
#     Edge 30, Type (0, 0), BuildingBlock: XIVTED_clean_linker_0, # of connection points: 2
#     Edge 31, Type (0, 0), BuildingBlock: XIVTED_clean_linker_0, # of connection points: 2
#     Edge 32, Type (0, 0), BuildingBlock: XIVTED_clean_linker_0, # of connection points: 2
#     Edge 33, Type (0, 0), BuildingBlock: XIVTED_clean_linker_0, # of connection points: 2
#     Edge 34, Type (0, 0), BuildingBlock: XIVTED_clean_linker_0, # of connection points: 2
#     Edge 35, Type (0, 0), BuildingBlock: XIVTED_clean_linker_0, # of connection points: 2
# Relax obj value: 0.353
# Max RMSD: 0.222
# Mean RMSD: 0.221
data_MOF--net-uof--node1-UXUYUI_clean_sbu_0--edge1-XIVTED_clean_linker_0
_symmetry_space_group_name_H-M    P1
_symmetry_Int_Tables_number       1
_symmetry_cell_setting            triclinic
loop_
_symmetry_equiv_pos_as_xyz
'x, y, z'
_cell_length_a     46.654035
_cell_length_b     46.64167
_cell_length_c     90.195419
_cell_angle_alpha  90.001906
_cell_angle_beta   90.002922
_cell_angle_gamma 120.02586
loop_
_atom_site_label
_atom_site_type_symbol
_atom_site_fract_x
_atom_site_fract_y
_atom_site_fract_z
_atom_type_partial_charge
Li0 Li 0.20665 0.3392 0.21406 0.0
Li1 Li 0.23355 0.33225 0.23798 0.0
Li2 Li 0.26607 0.36638 0.2174 0.0
Li3 Li 0.23587 0.30786 0.21405 0.0
C4 C 0.25196 0.40584 0.23304 0.0
N5 N 0.28978 0.47264 0.23934 0.0
C6 C 0.26221 0.41643 0.24757 0.0
C7 C 0.26044 0.42928 0.22177 0.0
C8 C 0.28144 0.45029 0.25052 0.0
C9 C 0.27973 0.46292 0.22515 0.0
C10 C 0.17903 0.26455 0.22543 0.0
C11 C 0.17256 0.21227 0.2334 0.0
N12 N 0.14729 0.19632 0.22358 0.0
C13 C 0.15292 0.24764 0.21547 0.0
C14 C 0.1889 0.24676 0.23452 0.0
C15 C 0.13721 0.21314 0.21468 0.0
C16 C 0.15984 0.31931 0.19215 0.0
N17 N 0.16897 0.33737 0.20486 0.0
C18 C 0.12261 0.34594 0.20296 0.0
C19 C 0.15122 0.35087 0.21034 0.0
C20 C 0.11244 0.32705 0.18983 0.0
C21 C 0.13168 0.31385 0.18445 0.0
H22 H 0.17414 0.30844 0.18817 0.0
H23 H 0.15896 0.36501 0.22053 0.0
C24 C 0.26314 0.34469 0.26557 0.0
N25 N 0.2335 0.32584 0.25876 0.0
C26 C 0.26808 0.3377 0.28006 0.0
C27 C 0.21146 0.29259 0.28052 0.0
C28 C 0.20754 0.30063 0.26599 0.0
C29 C 0.24232 0.31079 0.28761 0.0
H30 H 0.28347 0.36423 0.25945 0.0
H31 H 0.18434 0.28577 0.26024 0.0
C32 C 0.24699 0.35563 0.18637 0.0
N33 N 0.26147 0.38447 0.15859 0.0
C34 C 0.26197 0.34566 0.17571 0.0
C35 C 0.23888 0.37988 0.18282 0.0
C36 C 0.26924 0.36066 0.16175 0.0
C37 C 0.24652 0.39426 0.16873 0.0
C38 C 0.3015 0.33581 0.22555 0.0
C39 C 0.31142 0.3357 0.21094 0.0
C40 C 0.32335 0.34091 0.23718 0.0
C41 C 0.34316 0.34096 0.20819 0.0
C42 C 0.3549 0.34609 0.23398 0.0
N43 N 0.36409 0.34605 0.21967 0.0
C44 C 0.3278 0.41467 0.22705 0.0
C45 C 0.32452 0.41303 0.20083 0.0
C46 C 0.36218 0.43409 0.22647 0.0
N47 N 0.30979 0.40359 0.21435 0.0
C48 C 0.35898 0.43253 0.19974 0.0
C49 C 0.37831 0.44211 0.21269 0.0
H50 H 0.31569 0.40614 0.23766 0.0
H51 H 0.31007 0.40361 0.19086 0.0
C52 C 0.21783 0.25985 0.19214 0.0
N53 N 0.23445 0.27055 0.20516 0.0
C54 C 0.21499 0.23186 0.18519 0.0
C55 C 0.24642 0.22647 0.20525 0.0
C56 C 0.24863 0.25458 0.21181 0.0
C57 C 0.22942 0.21479 0.19176 0.0
H58 H 0.20648 0.27293 0.18725 0.0
H59 H 0.2614 0.26353 0.22227 0.0
O60 O 0.23338 0.37274 0.22996 0.0
O61 O 0.19546 0.2984 0.22603 0.0
O62 O 0.2395 0.34098 0.20004 0.0
O63 O 0.2711 0.33234 0.22842 0.0
H64 H 0.25532 0.3987 0.25649 0.0
H65 H 0.25258 0.42163 0.2105 0.0
H66 H 0.28968 0.4588 0.2617 0.0
H67 H 0.28673 0.48129 0.2165 0.0
H68 H 0.18012 0.19821 0.24027 0.0
H69 H 0.14497 0.261 0.20835 0.0
H70 H 0.20942 0.2595 0.24212 0.0
H71 H 0.11705 0.19973 0.20698 0.0
H72 H 0.10862 0.3567 0.20748 0.0
H73 H 0.12454 0.2985 0.17461 0.0
H74 H 0.2924 0.35212 0.28498 0.0
H75 H 0.19087 0.27183 0.28598 0.0
H76 H 0.26797 0.32656 0.17817 0.0
H77 H 0.22647 0.38725 0.19076 0.0
H78 H 0.281 0.35332 0.15343 0.0
H79 H 0.24044 0.4131 0.16585 0.0
H80 H 0.29497 0.33209 0.20181 0.0
H81 H 0.31616 0.34115 0.24856 0.0
H82 H 0.35122 0.34118 0.19693 0.0
H83 H 0.37213 0.35027 0.24287 0.0
H84 H 0.37609 0.44133 0.23674 0.0
H85 H 0.37041 0.43801 0.18888 0.0
H86 H 0.20123 0.22341 0.17492 0.0
H87 H 0.25817 0.21423 0.21061 0.0
Li88 Li 0.86868 0.20602 0.54647 0.0
Li89 Li 0.90191 0.23289 0.56916 0.0
Li90 Li 0.9034 0.26585 0.54794 0.0
Li91 Li 0.92696 0.23117 0.54612 0.0
C92 C 0.83633 0.22016 0.56915 0.0
N93 N 0.77997 0.18547 0.58618 0.0
C94 C 0.83045 0.19147 0.57664 0.0
C95 C 0.81355 0.23118 0.57032 0.0
C96 C 0.80182 0.1743 0.58521 0.0
C97 C 0.78519 0.21329 0.57897 0.0
C98 C 0.91236 0.17602 0.55955 0.0
C99 C 0.95603 0.16897 0.57 0.0
N100 N 0.94762 0.14297 0.56071 0.0
C101 C 0.90404 0.14913 0.55017 0.0
C102 C 0.93849 0.18599 0.56959 0.0
C103 C 0.92221 0.13278 0.5509 0.0
C104 C 0.8414 0.15734 0.52584 0.0
N105 N 0.83141 0.1688 0.53743 0.0
C106 C 0.77527 0.12554 0.53384 0.0
C107 C 0.79896 0.15377 0.54148 0.0
C108 C 0.78514 0.1131 0.52187 0.0
C109 C 0.81874 0.12959 0.5179 0.0
H110 H 0.86734 0.16962 0.52289 0.0
H111 H 0.7914 0.16338 0.55065 0.0
C112 C 0.92371 0.26706 0.59533 0.0
N113 N 0.90808 0.2356 0.59004 0.0
C114 C 0.9361 0.27368 0.60975 0.0
C115 C 0.91394 0.215 0.61345 0.0
C116 C 0.90233 0.20955 0.59882 0.0
C117 C 0.93201 0.24758 0.61898 0.0
H118 H 0.92811 0.28726 0.58803 0.0
H119 H 0.89013 0.18476 0.59428 0.0
C120 C 0.88144 0.24026 0.52009 0.0
N121 N 0.84511 0.24721 0.49762 0.0
C122 C 0.89059 0.24081 0.50529 0.0
C123 C 0.85377 0.2432 0.52346 0.0
C124 C 0.87192 0.24436 0.49409 0.0
C125 C 0.83574 0.24671 0.51194 0.0
C126 C 0.9697 0.29634 0.55504 0.0
C127 C 0.97775 0.30238 0.54 0.0
C128 C 0.99094 0.31882 0.56563 0.0
C129 C 0.00688 0.3309 0.5358 0.0
C130 C 0.01985 0.34706 0.56098 0.0
N131 N 0.02715 0.35247 0.54629 0.0
C132 C 0.91267 0.32741 0.55572 0.0
C133 C 0.92319 0.324 0.53026 0.0
C134 C 0.92668 0.36171 0.55467 0.0
N135 N 0.91187 0.30947 0.54371 0.0
C136 C 0.93737 0.35828 0.5287 0.0
C137 C 0.9402 0.37772 0.54113 0.0
H138 H 0.9042 0.31528 0.56634 0.0
H139 H 0.92339 0.30943 0.52099 0.0
C140 C 0.95545 0.21043 0.52456 0.0
N141 N 0.9615 0.22639 0.53777 0.0
C142 C 0.97983 0.20596 0.51784 0.0
C143 C 0.0161 0.23431 0.53853 0.0
C144 C 0.99096 0.23814 0.54487 0.0
C145 C 0.01072 0.21816 0.5248 0.0
H146 H 0.93159 0.20111 0.51928 0.0
H147 H 0.99493 0.25052 0.55544 0.0
O148 O 0.86416 0.23759 0.56069 0.0
O149 O 0.89543 0.1929 0.55875 0.0
O150 O 0.89954 0.23658 0.53109 0.0
O151 O 0.94095 0.26892 0.55945 0.0
H152 H 0.84756 0.18234 0.57581 0.0
H153 H 0.81776 0.25334 0.56457 0.0
H154 H 0.79693 0.15205 0.59105 0.0
H155 H 0.76734 0.22154 0.57996 0.0
H156 H 0.97647 0.17658 0.57763 0.0
H157 H 0.88387 0.14104 0.54236 0.0
H158 H 0.9456 0.20708 0.57677 0.0
H159 H 0.91613 0.11201 0.54366 0.0
H160 H 0.74958 0.11369 0.53722 0.0
H161 H 0.8277 0.12065 0.50896 0.0
H162 H 0.95023 0.29925 0.61327 0.0
H163 H 0.90957 0.19398 0.62017 0.0
H164 H 0.91192 0.23849 0.50251 0.0
H165 H 0.84617 0.24278 0.5348 0.0
H166 H 0.87874 0.24483 0.48259 0.0
H167 H 0.81428 0.24901 0.51438 0.0
H168 H 0.96162 0.2854 0.53162 0.0
H169 H 0.98516 0.31455 0.57732 0.0
H170 H 0.01333 0.33591 0.5242 0.0
H171 H 0.03648 0.36469 0.56906 0.0
H172 H 0.92795 0.37566 0.56449 0.0
H173 H 0.94785 0.3696 0.5181 0.0
H174 H 0.97446 0.19292 0.50737 0.0
H175 H 0.03966 0.24443 0.5442 0.0
Li176 Li 0.67005 0.90442 0.90442 0.0
Li177 Li 0.66393 0.87148 0.88139 0.0
Li178 Li 0.69303 0.93025 0.8805 0.0
Li179 Li 0.63494 0.90219 0.88417 0.0
C180 C 0.73799 0.91853 0.89145 0.0
N181 N 0.80598 0.95464 0.88827 0.0
C182 C 0.75389 0.9082 0.88145 0.0
C183 C 0.75668 0.9471 0.8999 0.0
C184 C 0.78829 0.92682 0.88 0.0
C185 C 0.79102 0.96505 0.89812 0.0
C186 C 0.6216 0.83692 0.90511 0.0
C187 C 0.58214 0.78303 0.91466 0.0
N188 N 0.60688 0.78208 0.92222 0.0
C189 C 0.64666 0.83539 0.91295 0.0
C190 C 0.58909 0.81056 0.90597 0.0
C191 C 0.6387 0.80747 0.92156 0.0
C192 C 0.65455 0.91713 0.93259 0.0
N193 N 0.67625 0.91087 0.92525 0.0
C194 C 0.71111 0.92557 0.9466 0.0
C195 C 0.70362 0.91387 0.93204 0.0
C196 C 0.69023 0.9343 0.95418 0.0
C197 C 0.66107 0.92894 0.94713 0.0
H198 H 0.63301 0.91454 0.92686 0.0
H199 H 0.72038 0.90853 0.92596 0.0
C200 C 0.68142 0.84511 0.85844 0.0
N201 N 0.66739 0.83612 0.8721 0.0
C202 C 0.68982 0.82483 0.85051 0.0
C203 C 0.66966 0.7859 0.8708 0.0
C204 C 0.66082 0.80679 0.87827 0.0
C205 C 0.68517 0.79528 0.85684 0.0
H206 H 0.68752 0.8689 0.85389 0.0
H207 H 0.64998 0.80007 0.88918 0.0
C208 C 0.66202 0.96629 0.89245 0.0
N209 N 0.64462 0.01404 0.88733 0.0
C210 C 0.66499 0.97948 0.87824 0.0
C211 C 0.65034 0.97751 0.90407 0.0
C212 C 0.65609 0.0036 0.87588 0.0
C213 C 0.64161 0.00161 0.90124 0.0
C214 C 0.63639 0.8809 0.85595 0.0
C215 C 0.64173 0.8905 0.84107 0.0
C216 C 0.60804 0.85135 0.85998 0.0
C217 C 0.61858 0.87039 0.83044 0.0
C218 C 0.58549 0.83193 0.84901 0.0
N219 N 0.59118 0.84177 0.8346 0.0
C220 C 0.74088 0.96053 0.85845 0.0
C221 C 0.74497 0.9967 0.87787 0.0
C222 C 0.76871 0.98594 0.85152 0.0
N223 N 0.72975 0.96636 0.87137 0.0
C224 C 0.77276 0.02291 0.87127 0.0
C225 C 0.78503 0.01767 0.85793 0.0
H226 H 0.72835 0.93595 0.85368 0.0
H227 H 0.73565 0.00044 0.88824 0.0
C228 C 0.57946 0.90627 0.8928 0.0
N229 N 0.59734 0.9072 0.88073 0.0
C230 C 0.55831 0.91933 0.89203 0.0
C231 C 0.57277 0.93206 0.86618 0.0
C232 C 0.59377 0.91895 0.86747 0.0
C233 C 0.55562 0.93345 0.8787 0.0
H234 H 0.58351 0.89765 0.9033 0.0
H235 H 0.60927 0.92085 0.8582 0.0
O236 O 0.70425 0.90113 0.89275 0.0
O237 O 0.62846 0.86411 0.89675 0.0
O238 O 0.6694 0.94171 0.89488 0.0
O239 O 0.65909 0.90049 0.8664 0.0
H240 H 0.73985 0.88614 0.87485 0.0
H241 H 0.74472 0.95573 0.90753 0.0
H242 H 0.80091 0.9192 0.87226 0.0
H243 H 0.80576 0.98736 0.90449 0.0
H244 H 0.55708 0.76245 0.91541 0.0
H245 H 0.67202 0.85526 0.91232 0.0
H246 H 0.56941 0.81141 0.89997 0.0
H247 H 0.65784 0.80593 0.92766 0.0
H248 H 0.73351 0.92868 0.95169 0.0
H249 H 0.64437 0.93553 0.95246 0.0
H250 H 0.7008 0.83291 0.83965 0.0
H251 H 0.66567 0.76346 0.87619 0.0
H252 H 0.67337 0.97066 0.86905 0.0
H253 H 0.64777 0.96756 0.91512 0.0
H254 H 0.65802 0.01381 0.86492 0.0
H255 H 0.63234 0.01037 0.91011 0.0
H256 H 0.66359 0.91328 0.83778 0.0
H257 H 0.60342 0.84337 0.87139 0.0
H258 H 0.62241 0.87754 0.81888 0.0
H259 H 0.56347 0.80902 0.85197 0.0
H260 H 0.77762 0.98065 0.84138 0.0
H261 H 0.78429 0.04703 0.87651 0.0
H262 H 0.54531 0.91967 0.90191 0.0
H263 H 0.5719 0.94316 0.85577 0.0
Li264 Li 0.79548 0.66315 0.21485 0.0
Li265 Li 0.76539 0.66716 0.23842 0.0
Li266 Li 0.73572 0.63324 0.21746 0.0
Li267 Li 0.76317 0.69194 0.21431 0.0
C268 C 0.75304 0.59501 0.23209 0.0
N269 N 0.72046 0.52705 0.23553 0.0
C270 C 0.73981 0.58082 0.24586 0.0
C271 C 0.75021 0.57469 0.22014 0.0
C272 C 0.7233 0.5464 0.24736 0.0
C273 C 0.73349 0.54037 0.22208 0.0
C274 C 0.81861 0.7366 0.22703 0.0
C275 C 0.82015 0.78692 0.23463 0.0
N276 N 0.84828 0.8048 0.22658 0.0
C277 C 0.8476 0.75545 0.21888 0.0
C278 C 0.80481 0.75241 0.23503 0.0
C279 C 0.86222 0.78991 0.21879 0.0
C280 C 0.84474 0.68757 0.19405 0.0
N281 N 0.83443 0.66723 0.20603 0.0
C282 C 0.88061 0.65849 0.2037 0.0
C283 C 0.85152 0.65252 0.21096 0.0
C284 C 0.89194 0.67962 0.19128 0.0
C285 C 0.87344 0.69414 0.1865 0.0
H286 H 0.83079 0.69913 0.19047 0.0
H287 H 0.84273 0.63643 0.22054 0.0
C288 C 0.73621 0.65249 0.26639 0.0
N289 N 0.76486 0.67316 0.25922 0.0
C290 C 0.73101 0.65939 0.28087 0.0
C291 C 0.78565 0.70787 0.28061 0.0
C292 C 0.78982 0.69996 0.26611 0.0
C293 C 0.75553 0.68796 0.28804 0.0
H294 H 0.71669 0.63154 0.26057 0.0
H295 H 0.81232 0.71607 0.26012 0.0
C296 C 0.75674 0.64905 0.1862 0.0
N297 N 0.74532 0.62763 0.15711 0.0
C298 C 0.74165 0.66071 0.17641 0.0
C299 C 0.76651 0.62691 0.18113 0.0
C300 C 0.73594 0.64945 0.16177 0.0
C301 C 0.7604 0.61627 0.1664 0.0
C302 C 0.69534 0.65726 0.22584 0.0
C303 C 0.68415 0.65646 0.21139 0.0
C304 C 0.67313 0.64833 0.23767 0.0
C305 C 0.65083 0.64627 0.20898 0.0
C306 C 0.63999 0.63833 0.23481 0.0
N307 N 0.6296 0.63745 0.22064 0.0
C308 C 0.67501 0.58005 0.22586 0.0
C309 C 0.6805 0.58547 0.19975 0.0
C310 C 0.64113 0.55795 0.22458 0.0
N311 N 0.69378 0.5941 0.21358 0.0
C312 C 0.6466 0.56351 0.19796 0.0
C313 C 0.62626 0.55036 0.21051 0.0
H314 H 0.68579 0.58821 0.23673 0.0
H315 H 0.6955 0.5972 0.19012 0.0
C316 C 0.7861 0.74504 0.19463 0.0
N317 N 0.76337 0.72872 0.20542 0.0
C318 C 0.78883 0.77352 0.18826 0.0
C319 C 0.74383 0.76709 0.20386 0.0
C320 C 0.7425 0.73917 0.21016 0.0
C321 C 0.76746 0.78496 0.19282 0.0
H322 H 0.80259 0.73624 0.19123 0.0
H323 H 0.72502 0.72603 0.21894 0.0
O324 O 0.76897 0.62865 0.23037 0.0
O325 O 0.8033 0.70278 0.22689 0.0
O326 O 0.76269 0.65999 0.20055 0.0
O327 O 0.7276 0.66575 0.22833 0.0
H328 H 0.74219 0.59622 0.25527 0.0
H329 H 0.76059 0.58528 0.20947 0.0
H330 H 0.71275 0.53507 0.25793 0.0
H331 H 0.73089 0.52433 0.21289 0.0
H332 H 0.80959 0.79948 0.24066 0.0
H333 H 0.85862 0.7436 0.21265 0.0
H334 H 0.78214 0.73813 0.24125 0.0
H335 H 0.88459 0.80482 0.21248 0.0
H336 H 0.89398 0.64662 0.20772 0.0
H337 H 0.88144 0.71114 0.17722 0.0
H338 H 0.70728 0.64351 0.28606 0.0
H339 H 0.8054 0.72985 0.28578 0.0
H340 H 0.73445 0.6783 0.18007 0.0
H341 H 0.77893 0.61825 0.18844 0.0
H342 H 0.72413 0.65813 0.15409 0.0
H343 H 0.76775 0.59908 0.16234 0.0
H344 H 0.70095 0.66312 0.20211 0.0
H345 H 0.68129 0.64893 0.24894 0.0
H346 H 0.64181 0.64521 0.19783 0.0
H347 H 0.62251 0.63118 0.24386 0.0
H348 H 0.62642 0.54892 0.23458 0.0
H349 H 0.63619 0.55803 0.18689 0.0
H350 H 0.80793 0.78669 0.18006 0.0
H351 H 0.7264 0.77444 0.2076 0.0
Li352 Li 0.13579 0.79691 0.54543 0.0
Li353 Li 0.10155 0.77238 0.56777 0.0
Li354 Li 0.09868 0.7377 0.54667 0.0
Li355 Li 0.07561 0.77478 0.54481 0.0
C356 C 0.16987 0.77868 0.56278 0.0
N357 N 0.23693 0.80896 0.56846 0.0
C358 C 0.18273 0.79636 0.57593 0.0
C359 C 0.191 0.77614 0.55256 0.0
C360 C 0.21674 0.81153 0.57859 0.0
C361 C 0.22487 0.79173 0.55562 0.0
C362 C 0.10139 0.83655 0.55537 0.0
C363 C 0.0637 0.85701 0.55955 0.0
N364 N 0.08402 0.88475 0.55168 0.0
C365 C 0.12194 0.86532 0.54735 0.0
C366 C 0.07207 0.8324 0.56157 0.0
C367 C 0.11272 0.88938 0.54561 0.0
C368 C 0.17502 0.8373 0.52239 0.0
N369 N 0.17546 0.83291 0.53726 0.0
C370 C 0.22515 0.8854 0.5396 0.0
C371 C 0.20008 0.85606 0.54589 0.0
C372 C 0.22445 0.8914 0.52432 0.0
C373 C 0.19922 0.86637 0.51568 0.0
H374 H 0.15469 0.81907 0.51581 0.0
H375 H 0.19939 0.8526 0.55775 0.0
C376 C 0.0963 0.74693 0.59662 0.0
N377 N 0.09633 0.77181 0.58875 0.0
C378 C 0.08385 0.74016 0.61107 0.0
C379 C 0.07421 0.78638 0.60941 0.0
C380 C 0.08687 0.79226 0.59502 0.0
C381 C 0.07143 0.75927 0.61743 0.0
H382 H 0.10372 0.73088 0.59129 0.0
H383 H 0.08742 0.81201 0.58858 0.0
C384 C 0.0994 0.74945 0.51818 0.0
N385 N 0.09 0.7089 0.49418 0.0
C386 C 0.06936 0.73474 0.5105 0.0
C387 C 0.12477 0.74382 0.51359 0.0
C388 C 0.06506 0.71424 0.4984 0.0
C389 C 0.1195 0.72315 0.50145 0.0
C390 C 0.04122 0.71866 0.56898 0.0
C391 C 0.04097 0.69024 0.5741 0.0
C392 C 0.02112 0.72908 0.57584 0.0
C393 C 0.02077 0.67286 0.5861 0.0
C394 C 0.00139 0.7111 0.58786 0.0
N395 N 0.00163 0.6836 0.59269 0.0
C396 C 0.10752 0.6809 0.54477 0.0
C397 C 0.05685 0.67471 0.53595 0.0
C398 C 0.09568 0.64702 0.54274 0.0
N399 N 0.08783 0.69383 0.54152 0.0
C400 C 0.04417 0.64094 0.53366 0.0
C401 C 0.06337 0.62648 0.53734 0.0
H402 H 0.13186 0.69662 0.54942 0.0
H403 H 0.04142 0.68552 0.53389 0.0
C404 C 0.04687 0.80508 0.52768 0.0
N405 N 0.04068 0.77832 0.53604 0.0
C406 C 0.02077 0.80708 0.5212 0.0
C407 C 0.98275 0.753 0.53127 0.0
C408 C 0.00947 0.75239 0.53782 0.0
C409 C 0.98833 0.7807 0.52294 0.0
H410 H 0.07205 0.8248 0.52601 0.0
H411 H 0.00538 0.73102 0.54417 0.0
O412 O 0.1367 0.76372 0.55996 0.0
O413 O 0.10998 0.81267 0.55717 0.0
O414 O 0.10388 0.76907 0.53021 0.0
O415 O 0.06151 0.73656 0.55751 0.0
H416 H 0.16665 0.79851 0.58396 0.0
H417 H 0.18134 0.76239 0.54237 0.0
H418 H 0.22709 0.82541 0.5887 0.0
H419 H 0.24157 0.79013 0.54778 0.0
H420 H 0.04096 0.85398 0.5642 0.0
H421 H 0.14472 0.86907 0.54249 0.0
H422 H 0.05564 0.81015 0.56764 0.0
H423 H 0.12836 0.91171 0.5394 0.0
H424 H 0.2442 0.90362 0.54674 0.0
H425 H 0.19688 0.86982 0.50397 0.0
H426 H 0.08201 0.7189 0.6168 0.0
H427 H 0.06557 0.80215 0.61401 0.0
H428 H 0.04948 0.73887 0.51391 0.0
H429 H 0.14818 0.75513 0.51942 0.0
H430 H 0.04188 0.70253 0.4924 0.0
H431 H 0.13884 0.71841 0.49782 0.0
H432 H 0.05655 0.68195 0.56903 0.0
H433 H 0.02106 0.75104 0.57205 0.0
H434 H 0.02049 0.65095 0.59024 0.0
H435 H 0.98596 0.71907 0.59336 0.0
H436 H 0.11136 0.63689 0.54566 0.0
H437 H 0.01895 0.62606 0.52977 0.0
H438 H 0.02588 0.82858 0.51464 0.0
H439 H 0.95797 0.73217 0.53274 0.0
Li440 Li 0.32463 0.09648 0.90425 0.0
Li441 Li 0.33405 0.13018 0.88183 0.0
Li442 Li 0.29719 0.06989 0.88128 0.0
Li443 Li 0.35734 0.09433 0.88333 0.0
C444 C 0.25962 0.09369 0.89086 0.0
N445 N 0.19375 0.0732 0.88561 0.0
C446 C 0.25097 0.11254 0.88182 0.0
C447 C 0.23473 0.06451 0.89728 0.0
C448 C 0.21753 0.10175 0.8793 0.0
C449 C 0.20159 0.05452 0.89447 0.0
C450 C 0.38577 0.16547 0.89918 0.0
C451 C 0.42669 0.2207 0.89174 0.0
N452 N 0.42088 0.23282 0.9044 0.0
C453 C 0.3803 0.1784 0.91215 0.0
C454 C 0.40927 0.18668 0.88892 0.0
C455 C 0.39829 0.21256 0.91458 0.0
C456 C 0.34391 0.09073 0.93319 0.0
N457 N 0.3196 0.09154 0.92522 0.0
C458 C 0.28258 0.07052 0.94582 0.0
C459 C 0.28982 0.08301 0.9314 0.0
C460 C 0.3062 0.06669 0.95393 0.0
C461 C 0.33768 0.07819 0.94763 0.0
H462 H 0.3673 0.0975 0.92795 0.0
H463 H 0.27104 0.08416 0.92486 0.0
C464 C 0.33496 0.17066 0.8587 0.0
N465 N 0.33729 0.1696 0.87368 0.0
C466 C 0.32984 0.19474 0.85202 0.0
C467 C 0.33145 0.21748 0.87626 0.0
C468 C 0.33611 0.19264 0.8825 0.0
C469 C 0.3271 0.21814 0.86084 0.0
H470 H 0.33499 0.15154 0.85194 0.0
H471 H 0.33696 0.19071 0.89441 0.0
C472 C 0.31991 0.03693 0.90577 0.0
N473 N 0.31649 0.99799 0.92957 0.0
C474 C 0.34827 0.03666 0.91058 0.0
C475 C 0.28977 0.0172 0.91301 0.0
C476 C 0.34602 0.01679 0.92262 0.0
C477 C 0.28858 0.99779 0.92505 0.0
C478 C 0.34631 0.09441 0.85467 0.0
C479 C 0.33101 0.06459 0.84681 0.0
C480 C 0.37741 0.11988 0.85023 0.0
C481 C 0.34734 0.0606 0.83469 0.0
C482 C 0.39293 0.11492 0.83805 0.0
N483 N 0.37771 0.08562 0.83061 0.0
C484 C 0.2404 0.03966 0.86274 0.0
C485 C 0.25353 0.00307 0.87533 0.0
C486 C 0.21338 0.01305 0.85587 0.0
N487 N 0.25948 0.03415 0.87241 0.0
C488 C 0.22708 0.97581 0.86859 0.0
C489 C 0.20665 0.98067 0.85873 0.0
H490 H 0.2464 0.06473 0.86025 0.0
H491 H 0.26967 0.99945 0.88271 0.0
C492 C 0.42325 0.10373 0.88203 0.0
N493 N 0.39084 0.08427 0.87834 0.0
C494 C 0.44534 0.09191 0.88016 0.0
C495 C 0.40036 0.04098 0.8703 0.0
C496 C 0.37924 0.0536 0.87247 0.0
C497 C 0.43377 0.05989 0.87444 0.0
H498 H 0.43163 0.12779 0.88695 0.0
H499 H 0.35311 0.03829 0.87012 0.0
O500 O 0.29224 0.10373 0.89338 0.0
O501 O 0.36831 0.13217 0.89656 0.0
O502 O 0.32173 0.05681 0.89422 0.0
O503 O 0.33099 0.09862 0.86671 0.0
H504 H 0.26978 0.13517 0.87674 0.0
H505 H 0.24092 0.04943 0.90418 0.0
H506 H 0.2105 0.11605 0.8723 0.0
H507 H 0.18211 0.03187 0.89928 0.0
H508 H 0.44484 0.23746 0.88386 0.0
H509 H 0.36221 0.16225 0.92021 0.0
H510 H 0.41387 0.17698 0.87886 0.0
H511 H 0.39424 0.22296 0.92454 0.0
H512 H 0.25829 0.06279 0.95035 0.0
H513 H 0.3566 0.07556 0.95338 0.0
H514 H 0.32603 0.1936 0.84015 0.0
H515 H 0.33 0.23516 0.88354 0.0
H516 H 0.37188 0.05196 0.90523 0.0
H517 H 0.26762 0.0172 0.90949 0.0
H518 H 0.3678 0.01649 0.92651 0.0
H519 H 0.26549 0.98266 0.93084 0.0
H520 H 0.30693 0.04463 0.85011 0.0
H521 H 0.38949 0.14313 0.85618 0.0
H522 H 0.33589 0.03759 0.82855 0.0
H523 H 0.41708 0.13434 0.83453 0.0
H524 H 0.19845 0.01775 0.84813 0.0
H525 H 0.22263 0.95119 0.87107 0.0
H526 H 0.47094 0.1073 0.88347 0.0
H527 H 0.39019 0.01595 0.86617 0.0
Li528 Li 0.69893 0.77414 0.45551 0.0
Li529 Li 0.63881 0.73729 0.45271 0.0
Li530 Li 0.6727 0.77133 0.43181 0.0
Li531 Li 0.66131 0.79654 0.45343 0.0
C532 C 0.67898 0.71727 0.43188 0.0
N533 N 0.68557 0.68126 0.40915 0.0
C534 C 0.65138 0.68828 0.42679 0.0
C535 C 0.70999 0.72775 0.4255 0.0
C536 C 0.65523 0.67044 0.41528 0.0
C537 C 0.71278 0.70928 0.41398 0.0
C538 C 0.64804 0.75036 0.48149 0.0
C539 C 0.60014 0.72386 0.49737 0.0
N540 N 0.61593 0.71204 0.50594 0.0
C541 C 0.66391 0.73817 0.49049 0.0
C542 C 0.616 0.74338 0.48498 0.0
C543 C 0.64721 0.71876 0.5028 0.0
C544 C 0.75753 0.80475 0.4731 0.0
N545 N 0.73679 0.77766 0.46497 0.0
C546 C 0.76951 0.7526 0.46999 0.0
C547 C 0.7419 0.75159 0.46354 0.0
C548 C 0.79235 0.78089 0.4779 0.0
C549 C 0.78588 0.80714 0.4795 0.0
H550 H 0.75228 0.82468 0.47448 0.0
H551 H 0.72438 0.72986 0.45747 0.0
C552 C 0.57425 0.67978 0.45137 0.0
N553 N 0.60497 0.69349 0.45746 0.0
C554 C 0.55223 0.64572 0.45272 0.0
C555 C 0.59341 0.64107 0.46714 0.0
C556 C 0.61475 0.67496 0.46529 0.0
C557 C 0.56199 0.62589 0.46051 0.0
H558 H 0.56747 0.69497 0.44486 0.0
H559 H 0.6398 0.68623 0.46945 0.0
C560 C 0.73628 0.83548 0.4446 0.0
N561 N 0.80178 0.88339 0.44882 0.0
C562 C 0.74431 0.86418 0.45264 0.0
C563 C 0.76161 0.83124 0.43868 0.0
C564 C 0.77756 0.8881 0.45465 0.0
C565 C 0.79456 0.8557 0.44095 0.0
C566 C 0.61114 0.77887 0.43512 0.0
C567 C 0.61803 0.79708 0.422 0.0
C568 C 0.58656 0.77668 0.44467 0.0
C569 C 0.60031 0.81314 0.41872 0.0
C570 C 0.56943 0.79315 0.441 0.0
N571 N 0.57661 0.81089 0.42821 0.0
C572 C 0.65482 0.7444 0.40314 0.0
C573 C 0.70878 0.79106 0.40478 0.0
C574 C 0.66132 0.7374 0.38888 0.0
N575 N 0.6789 0.77008 0.41095 0.0
C576 C 0.71631 0.78509 0.39053 0.0
C577 C 0.69281 0.75724 0.3826 0.0
H578 H 0.63126 0.7281 0.40835 0.0
H579 H 0.72741 0.8114 0.41118 0.0
C580 C 0.65726 0.83661 0.47556 0.0
N581 N 0.65717 0.83299 0.4606 0.0
C582 C 0.66208 0.86617 0.48173 0.0
C583 C 0.6648 0.88721 0.457 0.0
C584 C 0.66018 0.85728 0.45129 0.0
C585 C 0.66696 0.89245 0.47243 0.0
H586 H 0.65573 0.81737 0.48274 0.0
H587 H 0.66105 0.85426 0.43945 0.0
O588 O 0.67559 0.73563 0.44286 0.0
O589 O 0.66381 0.76908 0.4693 0.0
O590 O 0.70384 0.81173 0.44253 0.0
O591 O 0.62838 0.76322 0.4386 0.0
H592 H 0.62716 0.67986 0.43151 0.0
H593 H 0.7316 0.75011 0.42931 0.0
H594 H 0.63405 0.64809 0.41116 0.0
H595 H 0.73657 0.71727 0.40886 0.0
H596 H 0.57527 0.71809 0.50017 0.0
H597 H 0.68875 0.74344 0.48795 0.0
H598 H 0.60348 0.75276 0.47813 0.0
H599 H 0.6591 0.709 0.50983 0.0
H600 H 0.77268 0.73125 0.46887 0.0
H601 H 0.80271 0.82952 0.48542 0.0
H602 H 0.5282 0.63486 0.44743 0.0
H603 H 0.60213 0.62658 0.47296 0.0
H604 H 0.72516 0.86793 0.45736 0.0
H605 H 0.75594 0.80905 0.4326 0.0
H606 H 0.7841 0.91037 0.46087 0.0
H607 H 0.81438 0.85261 0.43652 0.0
H608 H 0.63701 0.79899 0.4145 0.0
H609 H 0.58088 0.76254 0.45484 0.0
H610 H 0.60545 0.82746 0.40863 0.0
H611 H 0.55044 0.79183 0.44832 0.0
H612 H 0.64228 0.71602 0.38306 0.0
H613 H 0.74092 0.801 0.38615 0.0
H614 H 0.66411 0.86903 0.49366 0.0
H615 H 0.66799 0.90649 0.44936 0.0
Li616 Li 0.93195 0.69085 0.78632 0.0
Li617 Li 0.89867 0.62987 0.7825 0.0
Li618 Li 0.90609 0.66632 0.76155 0.0
Li619 Li 0.87298 0.66257 0.78394 0.0
C620 C 0.9691 0.66206 0.77243 0.0
N621 N 0.02651 0.65848 0.77175 0.0
C622 C 0.97728 0.64833 0.78434 0.0
C623 C 0.99048 0.67447 0.76027 0.0
C624 C 0.00627 0.64656 0.78376 0.0
C625 C 0.01932 0.67237 0.76012 0.0
C626 C 0.88219 0.65549 0.81199 0.0
C627 C 0.83766 0.62537 0.82933 0.0
N628 N 0.84546 0.65429 0.83625 0.0
C629 C 0.89004 0.68486 0.81939 0.0
C630 C 0.85601 0.62545 0.81707 0.0
C631 C 0.87107 0.68376 0.83159 0.0
C632 C 0.96644 0.75514 0.79779 0.0
N633 N 0.96828 0.72717 0.79597 0.0
C634 C 0.02083 0.7523 0.8081 0.0
C635 C 0.99454 0.72513 0.80116 0.0
C636 C 0.02002 0.78185 0.80976 0.0
C637 C 0.99224 0.78297 0.80454 0.0
H638 H 0.94484 0.75587 0.79401 0.0
H639 H 0.99505 0.70241 0.80009 0.0
C640 C 0.90848 0.57901 0.77357 0.0
N641 N 0.90097 0.59079 0.78586 0.0
C642 C 0.92216 0.5586 0.77493 0.0
C643 C 0.91807 0.56084 0.80158 0.0
C644 C 0.90416 0.58115 0.7997 0.0
C645 C 0.92876 0.55072 0.78908 0.0
H646 H 0.90685 0.58802 0.76275 0.0
H647 H 0.89909 0.59183 0.80929 0.0
C648 C 0.92577 0.73234 0.76566 0.0
N649 N 0.96546 0.79101 0.75082 0.0
C650 C 0.91417 0.75417 0.76267 0.0
C651 C 0.95763 0.74044 0.76114 0.0
C652 C 0.9346 0.78369 0.75514 0.0
C653 C 0.97729 0.77018 0.75364 0.0
C654 C 0.84543 0.5947 0.76628 0.0
C655 C 0.84663 0.58167 0.75249 0.0
C656 C 0.82562 0.57348 0.77755 0.0
C657 C 0.82842 0.54744 0.7503 0.0
C658 C 0.80779 0.53939 0.77493 0.0
N659 N 0.80958 0.52718 0.76148 0.0
C660 C 0.9267 0.65272 0.73497 0.0
C661 C 0.91249 0.69464 0.73248 0.0
C662 C 0.9401 0.65904 0.72072 0.0
N663 N 0.91441 0.67127 0.74074 0.0
C664 C 0.92577 0.70193 0.71816 0.0
C665 C 0.94084 0.68475 0.7123 0.0
H666 H 0.92767 0.63411 0.74176 0.0
H667 H 0.90219 0.70879 0.73722 0.0
C668 C 0.84925 0.70156 0.7942 0.0
N669 N 0.83818 0.66911 0.79129 0.0
C670 C 0.82827 0.71149 0.80029 0.0
C671 C 0.78435 0.65434 0.80054 0.0
C672 C 0.80642 0.64541 0.79435 0.0
C673 C 0.79524 0.6879 0.80347 0.0
H674 H 0.87483 0.7198 0.7921 0.0
H675 H 0.79833 0.61967 0.79213 0.0
O676 O 0.94004 0.66273 0.77248 0.0
O677 O 0.89987 0.6562 0.79977 0.0
O678 O 0.90593 0.70333 0.77302 0.0
O679 O 0.86335 0.6281 0.76869 0.0
H680 H 0.9617 0.63961 0.79406 0.0
H681 H 0.985 0.68574 0.75104 0.0
H682 H 0.01273 0.63583 0.79288 0.0
H683 H 0.036 0.68178 0.75075 0.0
H684 H 0.81719 0.60233 0.83333 0.0
H685 H 0.91025 0.70831 0.81561 0.0
H686 H 0.84986 0.60245 0.81159 0.0
H687 H 0.87666 0.70634 0.83732 0.0
H688 H 0.04133 0.74998 0.81229 0.0
H689 H 0.99055 0.80522 0.80548 0.0
H690 H 0.92955 0.55091 0.765 0.0
H691 H 0.92294 0.55552 0.81269 0.0
H692 H 0.88957 0.74829 0.76608 0.0
H693 H 0.96716 0.72403 0.7634 0.0
H694 H 0.92591 0.80078 0.75273 0.0
H695 H 0.00195 0.77671 0.75007 0.0
H696 H 0.86157 0.59779 0.74361 0.0
H697 H 0.82414 0.58322 0.78821 0.0
H698 H 0.82927 0.53698 0.73972 0.0
H699 H 0.79252 0.52265 0.78358 0.0
H700 H 0.95069 0.64461 0.71653 0.0
H701 H 0.92577 0.72196 0.71209 0.0
H702 H 0.8381 0.73749 0.80274 0.0
H703 H 0.7591 0.63535 0.80288 0.0
Li704 Li 0.23092 0.93188 0.12151 0.0
Li705 Li 0.2673 0.90819 0.11953 0.0
Li706 Li 0.23296 0.90646 0.0985 0.0
Li707 Li 0.20789 0.87178 0.12061 0.0
C708 C 0.28782 0.96592 0.09733 0.0
N709 N 0.32426 0.00466 0.07364 0.0
C710 C 0.31741 0.96733 0.09325 0.0
C711 C 0.2769 0.98442 0.08939 0.0
C712 C 0.33547 0.98706 0.08125 0.0
C713 C 0.2956 0.00376 0.07742 0.0
C714 C 0.25378 0.90559 0.14838 0.0
C715 C 0.27838 0.88336 0.16493 0.0
N716 N 0.29048 0.91122 0.17336 0.0
C717 C 0.26627 0.93391 0.15724 0.0
C718 C 0.25967 0.88 0.15228 0.0
C719 C 0.28484 0.93632 0.16981 0.0
C720 C 0.20437 0.95927 0.1414 0.0
N721 N 0.22715 0.96644 0.13053 0.0
C722 C 0.24634 0.02419 0.13276 0.0
C723 C 0.24818 0.9981 0.12625 0.0
C724 C 0.22278 0.01761 0.14389 0.0
C725 C 0.20164 0.98464 0.14824 0.0
H726 H 0.1884 0.93384 0.14477 0.0
H727 H 0.2667 0.00316 0.11791 0.0
C728 C 0.3243 0.90026 0.11898 0.0
N729 N 0.31069 0.91771 0.1247 0.0
C730 C 0.35818 0.91188 0.12074 0.0
C731 C 0.36277 0.95813 0.13482 0.0
C732 C 0.32911 0.94604 0.13253 0.0
C733 C 0.37787 0.94144 0.12859 0.0
H734 H 0.30922 0.87828 0.11246 0.0
H735 H 0.31796 0.96017 0.13638 0.0
C736 C 0.17038 0.90861 0.11181 0.0
N737 N 0.12591 0.92993 0.11771 0.0
C738 C 0.14365 0.89046 0.12134 0.0
C739 C 0.17438 0.93753 0.10523 0.0
C740 C 0.12144 0.90165 0.12418 0.0
C741 C 0.15169 0.94794 0.10838 0.0
C742 C 0.22501 0.83752 0.103 0.0
C743 C 0.2065 0.82538 0.09 0.0
C744 C 0.22735 0.81568 0.11286 0.0
C745 C 0.1903 0.79139 0.08714 0.0
C746 C 0.21074 0.78185 0.10962 0.0
N747 N 0.1927 0.77051 0.09693 0.0
C748 C 0.25905 0.91316 0.06974 0.0
C749 C 0.21139 0.91885 0.07109 0.0
C750 C 0.26525 0.92535 0.05526 0.0
N751 N 0.23329 0.9115 0.07751 0.0
C752 C 0.21648 0.93087 0.05658 0.0
C753 C 0.24443 0.93545 0.04868 0.0
H754 H 0.27607 0.90715 0.07516 0.0
H755 H 0.19107 0.91719 0.07749 0.0
C756 C 0.1677 0.82968 0.14331 0.0
N757 N 0.17141 0.83195 0.12834 0.0
C758 C 0.13808 0.80553 0.14967 0.0
C759 C 0.11713 0.7852 0.12512 0.0
C760 C 0.14709 0.81002 0.11922 0.0
C761 C 0.11182 0.78338 0.14055 0.0
H762 H 0.1869 0.84798 0.15033 0.0
H763 H 0.15014 0.81294 0.10734 0.0
O764 O 0.26937 0.94616 0.10885 0.0
O765 O 0.23584 0.9029 0.13595 0.0
O766 O 0.19271 0.89835 0.10907 0.0
O767 O 0.24082 0.87064 0.10606 0.0
H768 H 0.32623 0.95309 0.09916 0.0
H769 H 0.25392 0.98343 0.09227 0.0
H770 H 0.35832 0.98823 0.07795 0.0
H771 H 0.28725 0.01791 0.0711 0.0
H772 H 0.28328 0.86382 0.16805 0.0
H773 H 0.26192 0.95394 0.15437 0.0
H774 H 0.25005 0.85788 0.14556 0.0
H775 H 0.29482 0.95817 0.17674 0.0
H776 H 0.26363 0.0493 0.12933 0.0
H777 H 0.18307 0.9785 0.15675 0.0
H778 H 0.36905 0.89843 0.11573 0.0
H779 H 0.37722 0.98134 0.14066 0.0
H780 H 0.14013 0.8681 0.12659 0.0
H781 H 0.1951 0.95212 0.09797 0.0
H782 H 0.10071 0.88789 0.13157 0.0
H783 H 0.15465 0.97041 0.10345 0.0
H784 H 0.20446 0.842 0.08226 0.0
H785 H 0.24175 0.82476 0.12293 0.0
H786 H 0.17575 0.7816 0.07715 0.0
H787 H 0.21218 0.76461 0.11718 0.0
H788 H 0.2868 0.92805 0.04947 0.0
H789 H 0.19987 0.93844 0.05195 0.0
H790 H 0.13518 0.80572 0.16157 0.0
H791 H 0.09789 0.76849 0.11761 0.0
Li792 Li 0.35863 0.26579 0.45192 0.0
Li793 Li 0.2988 0.22804 0.45465 0.0
Li794 Li 0.33696 0.20622 0.4536 0.0
Li795 Li 0.32522 0.22984 0.43142 0.0
C796 C 0.35049 0.25219 0.481 0.0
N797 N 0.38413 0.28767 0.50584 0.0
C798 C 0.33599 0.26504 0.49047 0.0
C799 C 0.38192 0.25707 0.48421 0.0
C800 C 0.35345 0.28299 0.50297 0.0
C801 C 0.39858 0.27517 0.49681 0.0
C802 C 0.31921 0.2838 0.42999 0.0
C803 C 0.28756 0.29043 0.41049 0.0
N804 N 0.31509 0.31865 0.40607 0.0
C805 C 0.34716 0.31294 0.42527 0.0
C806 C 0.28911 0.27253 0.42258 0.0
C807 C 0.34457 0.33019 0.41316 0.0
C808 C 0.42273 0.32408 0.45053 0.0
N809 N 0.39204 0.30975 0.4567 0.0
C810 C 0.40302 0.36151 0.46697 0.0
C811 C 0.38199 0.32765 0.46484 0.0
C812 C 0.43439 0.37732 0.4603 0.0
C813 C 0.44442 0.35816 0.45214 0.0
H814 H 0.42974 0.30939 0.44379 0.0
H815 H 0.35699 0.31589 0.46909 0.0
C816 C 0.24565 0.2003 0.47495 0.0
N817 N 0.26065 0.22344 0.46415 0.0
C818 C 0.21711 0.19636 0.48184 0.0
C819 C 0.22079 0.24086 0.46667 0.0
C820 C 0.24916 0.24389 0.46008 0.0
C821 C 0.20424 0.2167 0.47763 0.0
H822 H 0.25575 0.18477 0.4781 0.0
H823 H 0.26214 0.2627 0.45179 0.0
C824 C 0.38803 0.22471 0.43489 0.0
N825 N 0.42517 0.19576 0.42738 0.0
C826 C 0.38085 0.20584 0.42195 0.0
C827 C 0.41422 0.2291 0.44395 0.0
C828 C 0.39992 0.19137 0.41835 0.0
C829 C 0.43264 0.21416 0.43998 0.0
C830 C 0.26219 0.16663 0.44543 0.0
C831 C 0.25471 0.1394 0.45447 0.0
C832 C 0.23649 0.17031 0.43954 0.0
C833 C 0.22163 0.11648 0.45757 0.0
C834 C 0.20374 0.14689 0.44293 0.0
N835 N 0.19704 0.12069 0.4518 0.0
C836 C 0.33583 0.16614 0.47674 0.0
C837 C 0.34445 0.14828 0.45346 0.0
C838 C 0.33161 0.13742 0.48354 0.0
N839 N 0.34156 0.17084 0.46192 0.0
C840 C 0.34086 0.11929 0.45986 0.0
C841 C 0.33336 0.11301 0.47507 0.0
H842 H 0.33242 0.18373 0.48318 0.0
H843 H 0.34785 0.15186 0.44162 0.0
C844 C 0.34339 0.25424 0.40236 0.0
N845 N 0.31918 0.22936 0.41047 0.0
C846 C 0.33677 0.26053 0.388 0.0
C847 C 0.28135 0.21372 0.39018 0.0
C848 C 0.28904 0.20838 0.40451 0.0
C849 C 0.30498 0.24091 0.38195 0.0
H850 H 0.3671 0.27063 0.40743 0.0
H851 H 0.27025 0.18879 0.4112 0.0
O852 O 0.33395 0.23483 0.46864 0.0
O853 O 0.32141 0.2661 0.44162 0.0
O854 O 0.36973 0.23911 0.43859 0.0
O855 O 0.29448 0.18962 0.44244 0.0
H856 H 0.31163 0.26138 0.48813 0.0
H857 H 0.39334 0.24709 0.47701 0.0
H858 H 0.34263 0.29324 0.51036 0.0
H859 H 0.42299 0.27929 0.49941 0.0
H860 H 0.26451 0.28179 0.40457 0.0
H861 H 0.37072 0.32199 0.43076 0.0
H862 H 0.26728 0.24988 0.42595 0.0
H863 H 0.36605 0.35267 0.40935 0.0
H864 H 0.39412 0.37549 0.47308 0.0
H865 H 0.46842 0.36954 0.4468 0.0
H866 H 0.20506 0.17738 0.49021 0.0
H867 H 0.2122 0.2576 0.46337 0.0
H868 H 0.36066 0.20221 0.41482 0.0
H869 H 0.42021 0.24386 0.45393 0.0
H870 H 0.3946 0.17659 0.40841 0.0
H871 H 0.45291 0.21722 0.44692 0.0
H872 H 0.27416 0.13598 0.45908 0.0
H873 H 0.24177 0.19139 0.43268 0.0
H874 H 0.2155 0.09536 0.46458 0.0
H875 H 0.18365 0.14963 0.43856 0.0
H876 H 0.32509 0.13368 0.49517 0.0
H877 H 0.34285 0.10154 0.45285 0.0
H878 H 0.35591 0.2814 0.38195 0.0
H879 H 0.2565 0.19802 0.38601 0.0
Li880 Li 0.06811 0.30242 0.78709 0.0
Li881 Li 0.09685 0.36225 0.78508 0.0
Li882 Li 0.09441 0.32747 0.76357 0.0
Li883 Li 0.1276 0.33235 0.78653 0.0
C884 C 0.0273 0.32325 0.77087 0.0
N885 N 0.9643 0.31151 0.76462 0.0
C886 C 0.0129 0.33732 0.77968 0.0
C887 C 0.00967 0.30338 0.7588 0.0
C888 C 0.98103 0.33105 0.77636 0.0
C889 C 0.97785 0.29768 0.75585 0.0
C890 C 0.08644 0.33907 0.81472 0.0
C891 C 0.09447 0.3553 0.84045 0.0
N892 N 0.06231 0.3477 0.84131 0.0
C893 C 0.05345 0.33131 0.81587 0.0
C894 C 0.10712 0.35106 0.82711 0.0
C895 C 0.04172 0.33587 0.8294 0.0
C896 C 0.03779 0.25373 0.80895 0.0
N897 N 0.03176 0.26462 0.79598 0.0
C898 C 0.97537 0.22117 0.79629 0.0
C899 C 0.00139 0.24879 0.78953 0.0
C900 C 0.98073 0.2095 0.80976 0.0
C901 C 0.01251 0.22609 0.81608 0.0
H902 H 0.06237 0.26646 0.8137 0.0
H903 H 0.9973 0.25723 0.77907 0.0
C904 C 0.0858 0.41211 0.77644 0.0
N905 N 0.0928 0.40025 0.78885 0.0
C906 C 0.07435 0.43448 0.77756 0.0
C907 C 0.07933 0.43364 0.80421 0.0
C908 C 0.09103 0.41144 0.80256 0.0
C909 C 0.0699 0.44465 0.79161 0.0
H910 H 0.08706 0.40244 0.76571 0.0
H911 H 0.09708 0.40205 0.81228 0.0
C912 C 0.07968 0.25869 0.77501 0.0
N913 N 0.04157 0.19055 0.77673 0.0
C914 C 0.08763 0.24123 0.78522 0.0
C915 C 0.05249 0.24151 0.7656 0.0
C916 C 0.06802 0.20677 0.78594 0.0
C917 C 0.0335 0.20706 0.76666 0.0
C918 C 0.16285 0.39692 0.77574 0.0
C919 C 0.18582 0.41605 0.76485 0.0
C920 C 0.16908 0.40687 0.79057 0.0
C921 C 0.21474 0.44487 0.76899 0.0
C922 C 0.19829 0.43585 0.79426 0.0
N923 N 0.22033 0.45409 0.78349 0.0
C924 C 0.07606 0.34209 0.73672 0.0
C925 C 0.08942 0.29947 0.73475 0.0
C926 C 0.06291 0.33557 0.72243 0.0
N927 N 0.08787 0.32335 0.74274 0.0
C928 C 0.07701 0.29244 0.72026 0.0
C929 C 0.06239 0.30982 0.71407 0.0
H930 H 0.0747 0.36058 0.74344 0.0
H931 H 0.09877 0.28479 0.73986 0.0
C932 C 0.15632 0.31428 0.80821 0.0
N933 N 0.16407 0.33081 0.79511 0.0
C934 C 0.17948 0.30904 0.81563 0.0
C935 C 0.21872 0.33838 0.79604 0.0
C936 C 0.1946 0.34306 0.78894 0.0
C937 C 0.21119 0.32097 0.80957 0.0
H938 H 0.13169 0.30437 0.81274 0.0
H939 H 0.20007 0.35601 0.77846 0.0
O940 O 0.05883 0.32971 0.77372 0.0
O941 O 0.09859 0.33487 0.80161 0.0
O942 O 0.09789 0.29249 0.77447 0.0
O943 O 0.13457 0.36852 0.77182 0.0
H944 H 0.02617 0.35309 0.78896 0.0
H945 H 0.02022 0.29202 0.75191 0.0
H946 H 0.96963 0.34179 0.78311 0.0
H947 H 0.96389 0.28221 0.7466 0.0
H948 H 0.11023 0.36466 0.85012 0.0
H949 H 0.03705 0.32176 0.80645 0.0
H950 H 0.13273 0.35718 0.8264 0.0
H951 H 0.01625 0.32999 0.83044 0.0
H952 H 0.95123 0.20935 0.79107 0.0
H953 H 0.0179 0.21761 0.82632 0.0
H954 H 0.06708 0.44205 0.76756 0.0
H955 H 0.0767 0.44128 0.81522 0.0
H956 H 0.10853 0.25416 0.79261 0.0
H957 H 0.04574 0.2547 0.75776 0.0
H958 H 0.07376 0.19294 0.79385 0.0
H959 H 0.01223 0.19347 0.75953 0.0
H960 H 0.18134 0.40864 0.75332 0.0
H961 H 0.15166 0.39245 0.79917 0.0
H962 H 0.23276 0.4599 0.76068 0.0
H963 H 0.20345 0.44383 0.8057 0.0
H964 H 0.05155 0.34938 0.71839 0.0
H965 H 0.07794 0.2729 0.7142 0.0
H966 H 0.17213 0.29482 0.82581 0.0
H967 H 0.24289 0.34815 0.79099 0.0
Li968 Li 0.73715 0.09483 0.12012 0.0
Li969 Li 0.77377 0.07122 0.12262 0.0
Li970 Li 0.79638 0.13141 0.12089 0.0
Li971 Li 0.77107 0.09542 0.09913 0.0
C972 C 0.7503 0.09802 0.14889 0.0
N973 N 0.71237 0.09171 0.1735 0.0
C974 C 0.73814 0.06986 0.15784 0.0
C975 C 0.7435 0.12313 0.15253 0.0
C976 C 0.71893 0.0671 0.17022 0.0
C977 C 0.72417 0.11943 0.16499 0.0
C978 C 0.71697 0.03495 0.09901 0.0
C979 C 0.70888 0.99318 0.08108 0.0
N980 N 0.68099 0.99256 0.07621 0.0
C981 C 0.6881 0.03375 0.0939 0.0
C982 C 0.72732 0.01432 0.09265 0.0
C983 C 0.67028 0.01217 0.08234 0.0
C984 C 0.67989 0.10218 0.11909 0.0
N985 N 0.69353 0.08493 0.125 0.0
C986 C 0.6412 0.04407 0.13473 0.0
C987 C 0.67502 0.0565 0.13275 0.0
C988 C 0.62609 0.06056 0.1283 0.0
C989 C 0.6459 0.09026 0.12057 0.0
H990 H 0.69508 0.12424 0.11263 0.0
H991 H 0.68623 0.04256 0.13677 0.0
C992 C 0.80407 0.04217 0.13973 0.0
N993 N 0.77669 0.03646 0.13198 0.0
C994 C 0.80535 0.01595 0.14652 0.0
C995 C 0.74939 0.97901 0.13813 0.0
C996 C 0.7495 0.00575 0.13119 0.0
C997 C 0.77769 0.98405 0.14576 0.0
H998 H 0.82483 0.06703 0.14068 0.0
H999 H 0.72774 0.0021 0.12532 0.0
C1000 C 0.77876 0.16452 0.10285 0.0
N1001 N 0.81064 0.23123 0.0962 0.0
C1002 C 0.79688 0.17612 0.08973 0.0
C1003 C 0.77659 0.18673 0.11254 0.0
C1004 C 0.81286 0.20998 0.08657 0.0
C1005 C 0.79299 0.2204 0.109 0.0
C1006 C 0.83525 0.09559 0.11158 0.0
C1007 C 0.86415 0.11626 0.11949 0.0
C1008 C 0.8309 0.06609 0.10551 0.0
C1009 C 0.88818 0.107 0.12123 0.0
C1010 C 0.85548 0.05767 0.10751 0.0
N1011 N 0.88337 0.07813 0.11526 0.0
C1012 C 0.8363 0.17436 0.1433 0.0
C1013 C 0.85679 0.19389 0.11917 0.0
C1014 C 0.86558 0.19913 0.14964 0.0
N1015 N 0.8327 0.17174 0.12832 0.0
C1016 C 0.88643 0.21932 0.12506 0.0
C1017 C 0.89162 0.22157 0.1405 0.0
H1018 H 0.81726 0.15598 0.15034 0.0
H1019 H 0.85383 0.19075 0.1073 0.0
C1020 C 0.74411 0.08716 0.07051 0.0
N1021 N 0.76978 0.08854 0.07824 0.0
C1022 C 0.73722 0.07423 0.05615 0.0
C1023 C 0.78497 0.06701 0.05755 0.0
C1024 C 0.79081 0.07991 0.07191 0.0
C1025 C 0.75718 0.06296 0.04967 0.0
H1026 H 0.72778 0.0942 0.07585 0.0
H1027 H 0.81112 0.08141 0.07826 0.0
O1028 O 0.76883 0.10103 0.13663 0.0
O1029 O 0.73531 0.05659 0.11002 0.0
O1030 O 0.76314 0.13154 0.1062 0.0
O1031 O 0.81143 0.10425 0.10976 0.0
H1032 H 0.74329 0.05025 0.15519 0.0
H1033 H 0.75287 0.14513 0.14573 0.0
H1034 H 0.70919 0.04537 0.17721 0.0
H1035 H 0.71854 0.13857 0.1679 0.0
H1036 H 0.71677 0.9773 0.07596 0.0
H1037 H 0.67978 0.04962 0.09863 0.0
H1038 H 0.74955 0.01489 0.0965 0.0
H1039 H 0.64803 0.01116 0.0782 0.0
H1040 H 0.62669 0.02078 0.1405 0.0
H1041 H 0.63507 0.1036 0.11542 0.0
H1042 H 0.82736 0.02059 0.15254 0.0
H1043 H 0.7276 0.95462 0.13746 0.0
H1044 H 0.79876 0.1592 0.08211 0.0
H1045 H 0.76251 0.17805 0.12271 0.0
H1046 H 0.8271 0.21936 0.07648 0.0
H1047 H 0.79168 0.23792 0.11642 0.0
H1048 H 0.86799 0.13913 0.12431 0.0
H1049 H 0.80858 0.04959 0.0995 0.0
H1050 H 0.91061 0.12273 0.12735 0.0
H1051 H 0.85232 0.03482 0.10295 0.0
H1052 H 0.86841 0.19926 0.16155 0.0
H1053 H 0.90553 0.23621 0.11754 0.0
H1054 H 0.71587 0.07207 0.05038 0.0
H1055 H 0.80095 0.05856 0.05301 0.0
H1056 H 0.90643 0.25457 0.16735 0.0
H1057 H 0.10123 0.32418 0.15985 0.0
H1058 H 0.95303 0.24094 0.1287 0.0
H1059 H 0.05236 0.31249 0.20189 0.0
H1060 H 0.04828 0.30418 0.14727 0.0
H1061 H 0.96087 0.28581 0.17906 0.0
C1062 C 0.92801 0.25825 0.16126 0.0
C1063 C 0.92483 0.24465 0.14701 0.0
C1064 C 0.04917 0.30623 0.15924 0.0
C1065 C 0.98739 0.28098 0.16034 0.0
C1066 C 0.07941 0.31756 0.16646 0.0
C1067 C 0.08127 0.31951 0.18201 0.0
C1068 C 0.02043 0.29688 0.16758 0.0
C1069 C 0.05222 0.31146 0.18991 0.0
C1070 C 0.95911 0.27624 0.16795 0.0
C1071 C 0.95397 0.25109 0.13959 0.0
N1072 N 0.02294 0.30021 0.18262 0.0
N1073 N 0.98389 0.26856 0.14637 0.0
H1074 H 0.78161 0.10143 0.49197 0.0
H1075 H 0.64785 0.90843 0.49875 0.0
H1076 H 0.73456 0.0548 0.53323 0.0
H1077 H 0.71146 0.95327 0.46085 0.0
H1078 H 0.67183 0.96315 0.5103 0.0
H1079 H 0.7481 0.04881 0.47922 0.0
C1080 C 0.76407 0.08014 0.49835 0.0
C1081 C 0.76134 0.08247 0.51376 0.0
C1082 C 0.68023 0.96097 0.49938 0.0
C1083 C 0.72262 0.02195 0.49914 0.0
C1084 C 0.66665 0.92969 0.49278 0.0
C1085 C 0.67774 0.92593 0.4788 0.0
C1086 C 0.705 0.98882 0.49194 0.0
C1087 C 0.7017 0.95469 0.47153 0.0
C1088 C 0.74487 0.05009 0.49104 0.0
C1089 C 0.73753 0.0542 0.52135 0.0
N1090 N 0.71461 0.98475 0.47822 0.0
N1091 N 0.71934 0.02502 0.514 0.0
H1092 H 0.66005 0.72719 0.85609 0.0
H1093 H 0.79062 0.74175 0.79545 0.0
H1094 H 0.74173 0.8195 0.84027 0.0
H1095 H 0.7494 0.65971 0.82612 0.0
H1096 H 0.76118 0.76517 0.80828 0.0
H1097 H 0.68304 0.69738 0.84252 0.0
C1098 C 0.68268 0.74123 0.84982 0.0
C1099 C 0.6985 0.77603 0.84914 0.0
C1100 C 0.75841 0.74194 0.81218 0.0
C1101 C 0.72425 0.74203 0.83341 0.0
C1102 C 0.77524 0.72855 0.80487 0.0
C1103 C 0.77312 0.69909 0.80992 0.0
C1104 C 0.73891 0.72573 0.8246 0.0
C1105 C 0.75187 0.68256 0.8219 0.0
C1106 C 0.69563 0.72416 0.84205 0.0
C1107 C 0.72778 0.79274 0.84078 0.0
N1108 N 0.73572 0.69627 0.82895 0.0
N1109 N 0.73943 0.77563 0.83319 0.0
H1110 H 0.95098 0.69099 0.20338 0.0
H1111 H 0.05105 0.76566 0.12849 0.0
H1112 H 0.90467 0.68697 0.1614 0.0
H1113 H 0.0957 0.75087 0.16754 0.0
H1114 H 0.99705 0.73463 0.14018 0.0
H1115 H 0.00374 0.71051 0.19048 0.0
C1116 C 0.95173 0.6937 0.19144 0.0
C1117 C 0.92333 0.68773 0.18351 0.0
C1118 C 0.0186 0.73784 0.14616 0.0
C1119 C 0.98383 0.7106 0.16871 0.0
C1120 C 0.04959 0.7554 0.13941 0.0
C1121 C 0.07832 0.76116 0.147 0.0
C1122 C 0.01606 0.72616 0.16072 0.0
C1123 C 0.07448 0.74771 0.16132 0.0
C1124 C 0.98194 0.70503 0.18409 0.0
C1125 C 0.92601 0.69201 0.16805 0.0
N1126 N 0.04404 0.73116 0.16776 0.0
N1127 N 0.9557 0.70347 0.1612 0.0
H1128 H 0.30154 0.0512 0.46202 0.0
H1129 H 0.25178 0.95316 0.53729 0.0
H1130 H 0.34391 0.09943 0.50375 0.0
H1131 H 0.25003 0.90564 0.49589 0.0
H1132 H 0.28426 0.00688 0.52535 0.0
H1133 H 0.28129 0.99768 0.47404 0.0
C1134 C 0.30722 0.05077 0.47362 0.0
C1135 C 0.32436 0.08026 0.48184 0.0
C1136 C 0.27707 0.98466 0.51894 0.0
C1137 C 0.30008 0.01855 0.49579 0.0
C1138 C 0.25864 0.95381 0.52578 0.0
C1139 C 0.24768 0.92442 0.51762 0.0
C1140 C 0.2842 0.98635 0.50374 0.0
C1141 C 0.25702 0.92737 0.5026 0.0
C1142 C 0.29537 0.02003 0.4805 0.0
C1143 C 0.33013 0.07757 0.49697 0.0
N1144 N 0.27428 0.95769 0.49612 0.0
N1145 N 0.31761 0.04734 0.50348 0.0
H1146 H 0.28676 0.23931 0.87294 0.0
H1147 H 0.25462 0.30416 0.79699 0.0
H1148 H 0.34217 0.24782 0.83318 0.0
H1149 H 0.2225 0.32063 0.83942 0.0
H1150 H 0.28837 0.28523 0.80984 0.0
H1151 H 0.26452 0.27061 0.86089 0.0
C1152 C 0.29486 0.24824 0.86178 0.0
C1153 C 0.31642 0.24059 0.85411 0.0
C1154 C 0.27421 0.29335 0.81632 0.0
C1155 C 0.28992 0.27586 0.84001 0.0
C1156 C 0.25505 0.30435 0.80899 0.0
C1157 C 0.23522 0.31359 0.81711 0.0
C1158 C 0.27337 0.29131 0.83188 0.0
C1159 C 0.23665 0.31296 0.83267 0.0
C1160 C 0.28184 0.26597 0.85484 0.0
C1161 C 0.32514 0.2524 0.83949 0.0
N1162 N 0.255 0.30165 0.83951 0.0
N1163 N 0.31158 0.26907 0.83287 0.0
H1164 H 0.5874 0.56316 0.19198 0.0
H1165 H 0.41781 0.42715 0.22945 0.0
H1166 H 0.5814 0.49576 0.22624 0.0
H1167 H 0.42209 0.49111 0.1939 0.0
H1168 H 0.4777 0.45153 0.22801 0.0
H1169 H 0.52699 0.53583 0.19169 0.0
C1170 C 0.57339 0.54223 0.19926 0.0
C1171 C 0.58957 0.53172 0.20914 0.0
C1172 C 0.46563 0.46032 0.22052 0.0
C1173 C 0.52032 0.50079 0.20909 0.0
C1174 C 0.43141 0.44662 0.22143 0.0
C1175 C 0.41491 0.45743 0.21191 0.0
C1176 C 0.4837 0.48512 0.21001 0.0
C1177 C 0.43378 0.48203 0.20145 0.0
C1178 C 0.53887 0.52685 0.19919 0.0
C1179 C 0.57005 0.50494 0.21855 0.0
N1180 N 0.4672 0.49516 0.20082 0.0
N1181 N 0.53652 0.49053 0.21833 0.0
H1182 H 0.02334 0.58387 0.51564 0.0
H1183 H 0.98429 0.42109 0.56136 0.0
H1184 H 0.0689 0.58555 0.55752 0.0
H1185 H 0.94046 0.41825 0.51885 0.0
H1186 H 0.01627 0.48133 0.5598 0.0
H1187 H 0.99429 0.52332 0.51609 0.0
C1188 C 0.02738 0.57151 0.52489 0.0
C1189 C 0.04853 0.58988 0.53659 0.0
C1190 C 0.99967 0.4676 0.5508 0.0
C1191 C 0.01525 0.52049 0.53719 0.0
C1192 C 0.98112 0.43315 0.55175 0.0
C1193 C 0.95932 0.41452 0.54029 0.0
C1194 C 0.99648 0.48375 0.53831 0.0
C1195 C 0.957 0.43157 0.52793 0.0
C1196 C 0.01082 0.53693 0.52513 0.0
C1197 C 0.05314 0.5725 0.54819 0.0
N1198 N 0.97524 0.46521 0.52729 0.0
N1199 N 0.03647 0.53883 0.54824 0.0
H1200 H 0.43787 0.02143 0.85246 0.0
H1201 H 0.5558 0.97644 0.8994 0.0
H1202 H 0.47802 0.06333 0.89535 0.0
H1203 H 0.51547 0.9342 0.85658 0.0
H1204 H 0.52849 0.00937 0.89786 0.0
H1205 H 0.46809 0.99118 0.85325 0.0
C1206 C 0.45323 0.02443 0.86201 0.0
C1207 C 0.45528 0.04483 0.87389 0.0
C1208 C 0.52553 0.99286 0.88881 0.0
C1209 C 0.48988 0.01015 0.8749 0.0
C1210 C 0.54084 0.97376 0.88975 0.0
C1211 C 0.53766 0.95224 0.87816 0.0
C1212 C 0.50686 0.9905 0.87618 0.0
C1213 C 0.51869 0.95052 0.86575 0.0
C1214 C 0.47049 0.00716 0.86245 0.0
C1215 C 0.47592 0.04813 0.88588 0.0
N1216 N 0.50397 0.96934 0.8651 0.0
N1217 N 0.49221 0.03078 0.88612 0.0
H1218 H 0.5303 0.58466 0.43718 0.0
H1219 H 0.44989 0.41772 0.48458 0.0
H1220 H 0.54677 0.58385 0.48419 0.0
H1221 H 0.46499 0.42012 0.43733 0.0
H1222 H 0.48011 0.47847 0.4849 0.0
H1223 H 0.49986 0.52401 0.43725 0.0
C1224 C 0.52709 0.57169 0.44755 0.0
C1225 C 0.54098 0.58927 0.46071 0.0
C1226 C 0.47699 0.46568 0.47449 0.0
C1227 C 0.5065 0.51995 0.46085 0.0
C1228 C 0.45977 0.43108 0.4743 0.0
C1229 C 0.45511 0.41393 0.46092 0.0
C1230 C 0.48911 0.48323 0.46116 0.0
C1231 C 0.4684 0.43239 0.4479 0.0
C1232 C 0.51004 0.53711 0.44756 0.0
C1233 C 0.53656 0.57121 0.4738 0.0
N1234 N 0.48455 0.46604 0.44833 0.0
N1235 N 0.51961 0.53753 0.47356 0.0
H1236 H 0.92262 0.50228 0.80855 0.0
H1237 H 0.07964 0.49804 0.77508 0.0
H1238 H 0.98471 0.56614 0.7735 0.0
H1239 H 0.02068 0.43509 0.81102 0.0
H1240 H 0.04655 0.52526 0.77544 0.0
H1241 H 0.9594 0.47896 0.81067 0.0
C1242 C 0.94393 0.51137 0.80132 0.0
C1243 C 0.95022 0.53575 0.79065 0.0
C1244 C 0.04095 0.50567 0.78334 0.0
C1245 C 0.99242 0.5094 0.79305 0.0
C1246 C 0.05986 0.49013 0.78312 0.0
C1247 C 0.05283 0.46418 0.79299 0.0
C1248 C 0.01458 0.49508 0.79342 0.0
C1249 C 0.02713 0.45518 0.8033 0.0
C1250 C 0.9649 0.49807 0.80252 0.0
C1251 C 0.9783 0.54672 0.78159 0.0
N1252 N 0.00873 0.47041 0.80316 0.0
N1253 N 0.99821 0.53343 0.78297 0.0
H1254 H 0.41842 0.96666 0.15279 0.0
H1255 H 0.58468 0.05104 0.10509 0.0
H1256 H 0.42022 0.95183 0.10568 0.0
H1257 H 0.58443 0.03403 0.1521 0.0
H1258 H 0.52405 0.02098 0.10532 0.0
H1259 H 0.47917 0.99659 0.15302 0.0
C1260 C 0.43166 0.96952 0.14253 0.0
C1261 C 0.41436 0.95664 0.12921 0.0
C1262 C 0.53727 0.02392 0.11559 0.0
C1263 C 0.48361 0.99129 0.12933 0.0
C1264 C 0.57183 0.04137 0.1155 0.0
C1265 C 0.58954 0.04509 0.12861 0.0
C1266 C 0.52029 0.01045 0.12893 0.0
C1267 C 0.57166 0.03158 0.14175 0.0
C1268 C 0.46624 0.98655 0.14266 0.0
C1269 C 0.43263 0.96102 0.11621 0.0
N1270 N 0.53799 0.01494 0.14159 0.0
N1271 N 0.46627 0.97824 0.11657 0.0
H1272 H 0.21426 0.0255 0.17339 0.0
H1273 H 0.23508 0.20511 0.16222 0.0
H1274 H 0.22729 0.07262 0.13077 0.0
H1275 H 0.21794 0.15686 0.20478 0.0
H1276 H 0.23102 0.15611 0.15048 0.0
H1277 H 0.21393 0.0726 0.18508 0.0
C1278 C 0.21673 0.0456 0.16648 0.0
C1279 C 0.22095 0.0452 0.15109 0.0
C1280 C 0.22807 0.15618 0.16239 0.0
C1281 C 0.22103 0.09933 0.16441 0.0
C1282 C 0.23022 0.1841 0.16909 0.0
C1283 C 0.22686 0.18509 0.18451 0.0
C1284 C 0.22254 0.129 0.17115 0.0
C1285 C 0.22114 0.15734 0.19288 0.0
C1286 C 0.21675 0.07258 0.17317 0.0
C1287 C 0.2245 0.07213 0.1427 0.0
N1288 N 0.21919 0.13043 0.18609 0.0
N1289 N 0.22455 0.09814 0.14947 0.0
H1290 H 0.02728 0.22532 0.49539 0.0
H1291 H 0.18663 0.2061 0.507 0.0
H1292 H 0.05524 0.20369 0.53777 0.0
H1293 H 0.15296 0.21935 0.46432 0.0
H1294 H 0.13782 0.2033 0.51847 0.0
H1295 H 0.07241 0.22154 0.48378 0.0
C1296 C 0.0427 0.21943 0.50224 0.0
C1297 C 0.03747 0.21485 0.51759 0.0
C1298 C 0.14105 0.20667 0.50658 0.0
C1299 C 0.08962 0.21101 0.50438 0.0
C1300 C 0.16881 0.20809 0.50002 0.0
C1301 C 0.17399 0.2132 0.48469 0.0
C1302 C 0.11836 0.21044 0.49775 0.0
C1303 C 0.15028 0.216 0.47622 0.0
C1304 C 0.06862 0.21747 0.49561 0.0
C1305 C 0.05867 0.20789 0.52594 0.0
N1306 N 0.12359 0.21473 0.48287 0.0
N1307 N 0.08389 0.20628 0.51923 0.0
H1308 H 0.96682 0.1999 0.8395 0.0
H1309 H 0.79598 0.03144 0.82825 0.0
H1310 H 0.93183 0.15267 0.79694 0.0
H1311 H 0.84141 0.06662 0.87112 0.0
H1312 H 0.84461 0.07699 0.81658 0.0
H1313 H 0.92017 0.15241 0.85136 0.0
C1314 C 0.94952 0.17944 0.83266 0.0
C1315 C 0.95321 0.18036 0.81719 0.0
C1316 C 0.84398 0.07468 0.82854 0.0
C1317 C 0.89947 0.12621 0.83068 0.0
C1318 C 0.81628 0.04857 0.83521 0.0
C1319 C 0.81457 0.04515 0.8507 0.0
C1320 C 0.87013 0.09772 0.83741 0.0
C1321 C 0.8414 0.06855 0.85916 0.0
C1322 C 0.9228 0.15241 0.83943 0.0
C1323 C 0.92968 0.15334 0.80887 0.0
N1324 N 0.86804 0.0939 0.8524 0.0
N1325 N 0.90375 0.12744 0.81572 0.0
H1326 H 0.81777 0.95879 0.13961 0.0
H1327 H 0.75591 0.83129 0.20625 0.0
H1328 H 0.73827 0.94604 0.16825 0.0
H1329 H 0.78501 0.80862 0.16431 0.0
H1330 H 0.75888 0.88024 0.19498 0.0
H1331 H 0.8163 0.9104 0.1513 0.0
C1332 C 0.80022 0.94585 0.14844 0.0
C1333 C 0.77805 0.95604 0.15303 0.0
C1334 C 0.76461 0.86444 0.18831 0.0
C1335 C 0.77652 0.90158 0.16644 0.0
C1336 C 0.7627 0.83631 0.19467 0.0
C1337 C 0.76996 0.81539 0.18623 0.0
C1338 C 0.77457 0.8722 0.17351 0.0
C1339 C 0.77967 0.8241 0.17138 0.0
C1340 C 0.79928 0.91833 0.15502 0.0
C1341 C 0.75562 0.93864 0.16443 0.0
N1342 N 0.78185 0.85193 0.16552 0.0
N1343 N 0.75555 0.91228 0.17086 0.0
H1344 H 0.82441 0.81112 0.50389 0.0
H1345 H 0.94254 0.7352 0.5042 0.0
H1346 H 0.82956 0.75511 0.46681 0.0
H1347 H 0.97082 0.82818 0.52573 0.0
H1348 H 0.89547 0.7365 0.49282 0.0
H1349 H 0.87355 0.8129 0.51441 0.0
C1350 C 0.83589 0.79942 0.49787 0.0
C1351 C 0.82253 0.78279 0.48442 0.0
C1352 C 0.91208 0.75666 0.49999 0.0
C1353 C 0.87818 0.78403 0.49668 0.0
C1354 C 0.93872 0.75584 0.50651 0.0
C1355 C 0.96037 0.78164 0.51585 0.0
C1356 C 0.90676 0.78312 0.50311 0.0
C1357 C 0.95463 0.80796 0.5185 0.0
C1358 C 0.86384 0.80035 0.50395 0.0
C1359 C 0.8383 0.76754 0.47735 0.0
N1360 N 0.92809 0.80791 0.51225 0.0
N1361 N 0.86509 0.76829 0.48363 0.0
H1362 H 0.14296 0.96757 0.85529 0.0
H1363 H 0.0865 0.80396 0.80735 0.0
H1364 H 0.20752 0.92886 0.84512 0.0
H1365 H 0.01729 0.82706 0.82838 0.0
H1366 H 0.13198 0.85251 0.81914 0.0
H1367 H 0.09727 0.91931 0.84316 0.0
C1368 C 0.14749 0.94896 0.85043 0.0
C1369 C 0.17893 0.95204 0.85124 0.0
C1370 C 0.10681 0.84689 0.82118 0.0
C1371 C 0.12704 0.897 0.8374 0.0
C1372 C 0.0808 0.81906 0.81452 0.0
C1373 C 0.04793 0.81129 0.81688 0.0
C1374 C 0.1 0.86732 0.83017 0.0
C1375 C 0.0422 0.83229 0.82604 0.0
C1376 C 0.12144 0.92139 0.84361 0.0
C1377 C 0.18352 0.92717 0.84489 0.0
N1378 N 0.06799 0.85937 0.83233 0.0
N1379 N 0.15786 0.90072 0.83819 0.0
H1380 H 0.26601 0.20044 0.35937 0.0
H1381 H 0.27793 0.35025 0.31099 0.0
H1382 H 0.3218 0.30312 0.37247 0.0
H1383 H 0.22192 0.24785 0.29752 0.0
H1384 H 0.29287 0.33309 0.33393 0.0
H1385 H 0.24857 0.21696 0.33689 0.0
C1386 C 0.27464 0.22645 0.35751 0.0
C1387 C 0.29561 0.25042 0.36779 0.0
C1388 C 0.27716 0.31433 0.326 0.0
C1389 C 0.27569 0.26952 0.34209 0.0
C1390 C 0.26865 0.32413 0.31289 0.0
C1391 C 0.24871 0.30048 0.30227 0.0
C1392 C 0.26578 0.2806 0.32856 0.0
C1393 C 0.23705 0.26693 0.30544 0.0
C1394 C 0.26471 0.23587 0.34467 0.0
C1395 C 0.30617 0.2838 0.36474 0.0
N1396 N 0.24591 0.25801 0.31825 0.0
N1397 N 0.29608 0.29232 0.3522 0.0
H1398 H 0.9434 0.29763 0.63858 0.0
H1399 H 0.02761 0.24726 0.70183 0.0
H1400 H 0.95907 0.21435 0.6333 0.0
H1401 H 0.05564 0.34914 0.69307 0.0
H1402 H 0.99528 0.23102 0.67895 0.0
H1403 H 0.97619 0.31267 0.66128 0.0
C1404 C 0.95366 0.28244 0.64211 0.0
C1405 C 0.94863 0.25482 0.63377 0.0
C1406 C 0.00866 0.25692 0.68207 0.0
C1407 C 0.98559 0.27164 0.66007 0.0
C1408 C 0.02746 0.26637 0.69508 0.0
C1409 C 0.04456 0.29977 0.69956 0.0
C1410 C 0.00634 0.28085 0.67359 0.0
C1411 C 0.04244 0.32304 0.69038 0.0
C1412 C 0.97232 0.29107 0.65513 0.0
C1413 C 0.96182 0.23562 0.63933 0.0
N1414 N 0.02345 0.31311 0.67794 0.0
N1415 N 0.97966 0.24438 0.65213 0.0
H1416 H 0.79765 0.06787 0.0265 0.0
H1417 H 0.65057 0.92632 0.97822 0.0
H1418 H 0.69534 0.01629 0.04029 0.0
H1419 H 0.75209 0.98158 0.96343 0.0
H1420 H 0.66675 0.95782 0.00137 0.0
H1421 H 0.78168 0.03546 0.00359 0.0
C1422 C 0.77183 0.04977 0.0247 0.0
C1423 C 0.74779 0.04493 0.03531 0.0
C1424 C 0.68551 0.96295 0.99308 0.0
C1425 C 0.7293 0.00766 0.00911 0.0
C1426 C 0.67627 0.94501 0.97984 0.0
C1427 C 0.69997 0.95125 0.96882 0.0
C1428 C 0.71872 0.98741 0.99535 0.0
C1429 C 0.733 0.97551 0.97166 0.0
C1430 C 0.7627 0.0313 0.01161 0.0
C1431 C 0.71464 0.02127 0.03232 0.0
N1432 N 0.74135 0.99274 0.9846 0.0
N1433 N 0.7064 0.0035 0.01953 0.0
H1434 H 0.72239 0.64868 0.31195 0.0
H1435 H 0.7297 0.79741 0.35956 0.0
H1436 H 0.77214 0.75042 0.29728 0.0
H1437 H 0.67742 0.69516 0.37348 0.0
H1438 H 0.74671 0.78096 0.33695 0.0
H1439 H 0.70713 0.66553 0.3349 0.0
C1440 C 0.73019 0.67458 0.31356 0.0
C1441 C 0.74856 0.69813 0.30262 0.0
C1442 C 0.73143 0.76211 0.34493 0.0
C1443 C 0.73118 0.71766 0.32894 0.0
C1444 C 0.72177 0.7715 0.35785 0.0
C1445 C 0.70194 0.74763 0.36841 0.0
C1446 C 0.72135 0.72859 0.34254 0.0
C1447 C 0.6922 0.71436 0.36554 0.0
C1448 C 0.72152 0.68421 0.32669 0.0
C1449 C 0.75835 0.73143 0.30545 0.0
N1450 N 0.70204 0.70587 0.35291 0.0
N1451 N 0.74943 0.74015 0.31828 0.0
H1452 H 0.08709 0.73709 0.64271 0.0
H1453 H 0.92411 0.70491 0.68663 0.0
H1454 H 0.01393 0.75817 0.62465 0.0
H1455 H 0.99988 0.68861 0.70545 0.0
H1456 H 0.95626 0.72384 0.6637 0.0
H1457 H 0.05501 0.7184 0.66568 0.0
C1458 C 0.06432 0.73785 0.64359 0.0
C1459 C 0.05332 0.74942 0.63176 0.0
C1460 C 0.9658 0.71603 0.67284 0.0
C1461 C 0.01641 0.72802 0.65802 0.0
C1462 C 0.94748 0.70531 0.68596 0.0
C1463 C 0.95918 0.69499 0.698 0.0
C1464 C 0.9961 0.71653 0.67173 0.0
C1465 C 0.98952 0.69573 0.69639 0.0
C1466 C 0.04605 0.72725 0.65671 0.0
C1467 C 0.02371 0.75003 0.63356 0.0
N1468 N 0.00689 0.70633 0.68354 0.0
N1469 N 0.00628 0.73942 0.64641 0.0
H1470 H 0.20358 0.92758 0.02523 0.0
H1471 H 0.34465 0.07917 0.97892 0.0
H1472 H 0.3053 0.98443 0.03951 0.0
H1473 H 0.24739 0.01187 0.96154 0.0
H1474 H 0.32995 0.04653 0.00174 0.0
H1475 H 0.2184 0.95991 0.00229 0.0
C1476 C 0.22904 0.94678 0.02351 0.0
C1477 C 0.25326 0.95319 0.03427 0.0
C1478 C 0.31181 0.03898 0.99294 0.0
C1479 C 0.2704 0.99045 0.00809 0.0
C1480 C 0.32021 0.05758 0.97988 0.0
C1481 C 0.29721 0.04843 0.96827 0.0
C1482 C 0.28014 0.011 0.99443 0.0
C1483 C 0.26575 0.02035 0.97027 0.0
C1484 C 0.23752 0.96519 0.0104 0.0
C1485 C 0.28593 0.97829 0.03142 0.0
N1486 N 0.25818 0.00269 0.98307 0.0
N1487 N 0.2935 0.99608 0.01865 0.0
loop_
_geom_bond_atom_site_label_1
_geom_bond_atom_site_label_2
_geom_bond_distance
_geom_bond_site_symmetry_2
_ccdc_geom_bond_type
Li0 N17 1.990 . S
Li0 O60 1.956 . S
Li0 O61 1.970 . S
Li0 O62 1.961 . S
Li1 N25 1.990 . S
Li1 O60 1.970 . S
Li1 O61 1.956 . S
Li1 O63 1.961 . S
Li2 N47 1.990 . S
Li2 O60 1.961 . S
Li2 O62 1.956 . S
Li2 O63 1.970 . S
Li3 N53 1.990 . S
Li3 O61 1.961 . S
Li3 O62 1.970 . S
Li3 O63 1.956 . S
C4 C6 1.348 . S
C4 C7 1.356 . S
C4 O60 1.325 . S
N5 C8 1.314 . S
N5 C9 1.279 . S
C6 C4 1.348 . S
C6 C8 1.353 . S
C6 H64 0.929 . S
C7 C4 1.356 . S
C7 C9 1.358 . S
C7 H65 0.930 . S
C8 N5 1.314 . S
C8 C6 1.353 . S
C8 H66 0.930 . S
C9 N5 1.279 . S
C9 C7 1.358 . S
C9 H67 0.930 . S
C10 C13 1.348 . S
C10 C14 1.356 . S
C10 O61 1.325 . S
C11 N12 1.279 . S
C11 C14 1.358 . S
C11 H68 0.930 . S
N12 C11 1.279 . S
N12 C15 1.314 . S
C13 C10 1.348 . S
C13 C15 1.353 . S
C13 H69 0.929 . S
C14 C10 1.356 . S
C14 C11 1.358 . S
C14 H70 0.930 . S
C15 N12 1.314 . S
C15 C13 1.353 . S
C15 H71 0.930 . S
C16 N17 1.314 . S
C16 C21 1.353 . S
C16 H22 0.930 . S
N17 Li0 1.990 . S
N17 C16 1.314 . S
N17 C19 1.279 . S
C18 C19 1.358 . S
C18 C20 1.356 . S
C18 H72 0.930 . S
C19 N17 1.279 . S
C19 C18 1.358 . S
C19 H23 0.930 . S
C20 C18 1.356 . S
C20 C21 1.348 . S
C21 C16 1.353 . S
C21 C20 1.348 . S
C21 H73 0.929 . S
H22 C16 0.930 . S
H23 C19 0.930 . S
C24 N25 1.314 . S
C24 C26 1.353 . S
C24 H30 0.930 . S
N25 Li1 1.990 . S
N25 C24 1.314 . S
N25 C28 1.279 . S
C26 C24 1.353 . S
C26 C29 1.348 . S
C26 H74 0.929 . S
C27 C28 1.358 . S
C27 C29 1.356 . S
C27 H75 0.930 . S
C28 N25 1.279 . S
C28 C27 1.358 . S
C28 H31 0.930 . S
C29 C26 1.348 . S
C29 C27 1.356 . S
H30 C24 0.930 . S
H31 C28 0.930 . S
C32 C34 1.348 . S
C32 C35 1.356 . S
C32 O62 1.325 . S
N33 C36 1.314 . S
N33 C37 1.279 . S
C34 C32 1.348 . S
C34 C36 1.353 . S
C34 H76 0.929 . S
C35 C32 1.356 . S
C35 C37 1.358 . S
C35 H77 0.930 . S
C36 N33 1.314 . S
C36 C34 1.353 . S
C36 H78 0.930 . S
C37 N33 1.279 . S
C37 C35 1.358 . S
C37 H79 0.930 . S
C38 C39 1.348 . S
C38 C40 1.356 . S
C38 O63 1.325 . S
C39 C38 1.348 . S
C39 C41 1.353 . S
C39 H80 0.929 . S
C40 C38 1.356 . S
C40 C42 1.358 . S
C40 H81 0.930 . S
C41 C39 1.353 . S
C41 N43 1.314 . S
C41 H82 0.930 . S
C42 C40 1.358 . S
C42 N43 1.279 . S
C42 H83 0.930 . S
N43 C41 1.314 . S
N43 C42 1.279 . S
C44 C46 1.353 . S
C44 N47 1.314 . S
C44 H50 0.930 . S
C45 N47 1.279 . S
C45 C48 1.358 . S
C45 H51 0.930 . S
C46 C44 1.353 . S
C46 C49 1.348 . S
C46 H84 0.929 . S
N47 Li2 1.990 . S
N47 C44 1.314 . S
N47 C45 1.279 . S
C48 C45 1.358 . S
C48 C49 1.356 . S
C48 H85 0.930 . S
C49 C46 1.348 . S
C49 C48 1.356 . S
H50 C44 0.930 . S
H51 C45 0.930 . S
C52 N53 1.314 . S
C52 C54 1.353 . S
C52 H58 0.930 . S
N53 Li3 1.990 . S
N53 C52 1.314 . S
N53 C56 1.279 . S
C54 C52 1.353 . S
C54 C57 1.348 . S
C54 H86 0.929 . S
C55 C56 1.358 . S
C55 C57 1.356 . S
C55 H87 0.930 . S
C56 N53 1.279 . S
C56 C55 1.358 . S
C56 H59 0.930 . S
C57 C54 1.348 . S
C57 C55 1.356 . S
H58 C52 0.930 . S
H59 C56 0.930 . S
O60 Li0 1.956 . S
O60 Li1 1.970 . S
O60 Li2 1.961 . S
O60 C4 1.325 . S
O61 Li0 1.970 . S
O61 Li1 1.956 . S
O61 Li3 1.961 . S
O61 C10 1.325 . S
O62 Li0 1.961 . S
O62 Li2 1.956 . S
O62 Li3 1.970 . S
O62 C32 1.325 . S
O63 Li1 1.961 . S
O63 Li2 1.970 . S
O63 Li3 1.956 . S
O63 C38 1.325 . S
H64 C6 0.929 . S
H65 C7 0.930 . S
H66 C8 0.930 . S
H67 C9 0.930 . S
H68 C11 0.930 . S
H69 C13 0.929 . S
H70 C14 0.930 . S
H71 C15 0.930 . S
H72 C18 0.930 . S
H73 C21 0.929 . S
H74 C26 0.929 . S
H75 C27 0.930 . S
H76 C34 0.929 . S
H77 C35 0.930 . S
H78 C36 0.930 . S
H79 C37 0.930 . S
H80 C39 0.929 . S
H81 C40 0.930 . S
H82 C41 0.930 . S
H83 C42 0.930 . S
H84 C46 0.929 . S
H85 C48 0.930 . S
H86 C54 0.929 . S
H87 C55 0.930 . S
Li88 N105 1.990 . S
Li88 O148 1.956 . S
Li88 O149 1.970 . S
Li88 O150 1.961 . S
Li89 N113 1.990 . S
Li89 O148 1.970 . S
Li89 O149 1.956 . S
Li89 O151 1.961 . S
Li90 N135 1.990 . S
Li90 O148 1.961 . S
Li90 O150 1.956 . S
Li90 O151 1.970 . S
Li91 N141 1.990 1_655 S
Li91 O149 1.961 . S
Li91 O150 1.970 . S
Li91 O151 1.956 . S
C92 C94 1.348 . S
C92 C95 1.356 . S
C92 O148 1.325 . S
N93 C96 1.314 . S
N93 C97 1.279 . S
C94 C92 1.348 . S
C94 C96 1.353 . S
C94 H152 0.929 . S
C95 C92 1.356 . S
C95 C97 1.358 . S
C95 H153 0.930 . S
C96 N93 1.314 . S
C96 C94 1.353 . S
C96 H154 0.930 . S
C97 N93 1.279 . S
C97 C95 1.358 . S
C97 H155 0.930 . S
C98 C101 1.348 . S
C98 C102 1.356 . S
C98 O149 1.325 . S
C99 N100 1.279 . S
C99 C102 1.358 . S
C99 H156 0.928 . S
N100 C99 1.279 . S
N100 C103 1.314 . S
C101 C98 1.348 . S
C101 C103 1.353 . S
C101 H157 0.929 . S
C102 C98 1.356 . S
C102 C99 1.358 . S
C102 H158 0.930 . S
C103 N100 1.314 . S
C103 C101 1.353 . S
C103 H159 0.930 . S
C104 N105 1.314 . S
C104 C109 1.353 . S
C104 H110 0.930 . S
N105 Li88 1.990 . S
N105 C104 1.314 . S
N105 C107 1.279 . S
C106 C107 1.358 . S
C106 C108 1.356 . S
C106 H160 0.930 . S
C107 N105 1.279 . S
C107 C106 1.358 . S
C107 H111 0.930 . S
C108 C106 1.356 . S
C108 C109 1.348 . S
C109 C104 1.353 . S
C109 C108 1.348 . S
C109 H161 0.929 . S
H110 C104 0.930 . S
H111 C107 0.930 . S
C112 N113 1.314 . S
C112 C114 1.353 . S
C112 H118 0.930 . S
N113 Li89 1.990 . S
N113 C112 1.314 . S
N113 C116 1.279 . S
C114 C112 1.353 . S
C114 C117 1.348 . S
C114 H162 0.929 . S
C115 C116 1.358 . S
C115 C117 1.356 . S
C115 H163 0.930 . S
C116 N113 1.279 . S
C116 C115 1.358 . S
C116 H119 0.930 . S
C117 C114 1.348 . S
C117 C115 1.356 . S
H118 C112 0.930 . S
H119 C116 0.930 . S
C120 C122 1.348 . S
C120 C123 1.356 . S
C120 O150 1.325 . S
N121 C124 1.314 . S
N121 C125 1.279 . S
C122 C120 1.348 . S
C122 C124 1.353 . S
C122 H164 0.929 . S
C123 C120 1.356 . S
C123 C125 1.358 . S
C123 H165 0.930 . S
C124 N121 1.314 . S
C124 C122 1.353 . S
C124 H166 0.930 . S
C125 N121 1.279 . S
C125 C123 1.358 . S
C125 H167 0.930 . S
C126 C127 1.348 . S
C126 C128 1.356 . S
C126 O151 1.325 1_455 S
C127 C126 1.348 . S
C127 C129 1.353 . S
C127 H168 0.929 1_455 S
C128 C126 1.356 . S
C128 C130 1.358 . S
C128 H169 0.930 . S
C129 C127 1.353 . S
C129 N131 1.314 . S
C129 H170 0.930 . S
C130 C128 1.358 . S
C130 N131 1.279 . S
C130 H171 0.930 . S
N131 C129 1.314 . S
N131 C130 1.279 . S
C132 C134 1.353 . S
C132 N135 1.314 . S
C132 H138 0.930 . S
C133 N135 1.279 . S
C133 C136 1.358 . S
C133 H139 0.930 . S
C134 C132 1.353 . S
C134 C137 1.348 . S
C134 H172 0.929 . S
N135 Li90 1.990 . S
N135 C132 1.314 . S
N135 C133 1.279 . S
C136 C133 1.358 . S
C136 C137 1.356 . S
C136 H173 0.930 . S
C137 C134 1.348 . S
C137 C136 1.356 . S
H138 C132 0.930 . S
H139 C133 0.930 . S
C140 N141 1.314 . S
C140 C142 1.353 . S
C140 H146 0.930 1_455 S
N141 Li91 1.990 1_455 S
N141 C140 1.314 . S
N141 C144 1.279 . S
C142 C140 1.353 . S
C142 C145 1.348 . S
C142 H174 0.929 . S
C143 C144 1.358 . S
C143 C145 1.356 . S
C143 H175 0.930 . S
C144 N141 1.279 . S
C144 C143 1.358 . S
C144 H147 0.930 . S
C145 C142 1.348 . S
C145 C143 1.356 . S
H146 C140 0.930 1_655 S
H147 C144 0.930 . S
O148 Li88 1.956 . S
O148 Li89 1.970 . S
O148 Li90 1.961 . S
O148 C92 1.325 . S
O149 Li88 1.970 . S
O149 Li89 1.956 . S
O149 Li91 1.961 . S
O149 C98 1.325 . S
O150 Li88 1.961 . S
O150 Li90 1.956 . S
O150 Li91 1.970 . S
O150 C120 1.325 . S
O151 Li89 1.961 . S
O151 Li90 1.970 . S
O151 Li91 1.956 . S
O151 C126 1.325 1_655 S
H152 C94 0.929 . S
H153 C95 0.930 . S
H154 C96 0.930 . S
H155 C97 0.930 . S
H156 C99 0.928 . S
H157 C101 0.929 . S
H158 C102 0.930 . S
H159 C103 0.930 . S
H160 C106 0.930 . S
H161 C109 0.929 . S
H162 C114 0.929 . S
H163 C115 0.930 . S
H164 C122 0.929 . S
H165 C123 0.930 . S
H166 C124 0.930 . S
H167 C125 0.930 . S
H168 C127 0.929 1_655 S
H169 C128 0.930 . S
H170 C129 0.930 . S
H171 C130 0.930 . S
H172 C134 0.929 . S
H173 C136 0.930 . S
H174 C142 0.929 . S
H175 C143 0.930 . S
Li176 N193 1.990 . S
Li176 O236 1.956 . S
Li176 O237 1.970 . S
Li176 O238 1.961 . S
Li177 N201 1.990 . S
Li177 O236 1.970 . S
Li177 O237 1.956 . S
Li177 O239 1.961 . S
Li178 N223 1.990 1_565 S
Li178 O236 1.961 . S
Li178 O238 1.956 . S
Li178 O239 1.970 . S
Li179 N229 1.990 . S
Li179 O237 1.961 . S
Li179 O238 1.970 . S
Li179 O239 1.956 . S
C180 C182 1.348 . S
C180 C183 1.356 . S
C180 O236 1.325 . S
N181 C184 1.314 . S
N181 C185 1.279 . S
C182 C180 1.348 . S
C182 C184 1.353 . S
C182 H240 0.929 . S
C183 C180 1.356 . S
C183 C185 1.358 . S
C183 H241 0.930 . S
C184 N181 1.314 . S
C184 C182 1.353 . S
C184 H242 0.930 . S
C185 N181 1.279 . S
C185 C183 1.358 . S
C185 H243 0.930 . S
C186 C189 1.348 . S
C186 C190 1.356 . S
C186 O237 1.325 . S
C187 N188 1.279 . S
C187 C190 1.358 . S
C187 H244 0.930 . S
N188 C187 1.279 . S
N188 C191 1.314 . S
C189 C186 1.348 . S
C189 C191 1.353 . S
C189 H245 0.929 . S
C190 C186 1.356 . S
C190 C187 1.358 . S
C190 H246 0.930 . S
C191 N188 1.314 . S
C191 C189 1.353 . S
C191 H247 0.930 . S
C192 N193 1.314 . S
C192 C197 1.353 . S
C192 H198 0.930 . S
N193 Li176 1.990 . S
N193 C192 1.314 . S
N193 C195 1.279 . S
C194 C195 1.358 . S
C194 C196 1.356 . S
C194 H248 0.930 . S
C195 N193 1.279 . S
C195 C194 1.358 . S
C195 H199 0.930 . S
C196 C194 1.356 . S
C196 C197 1.348 . S
C197 C192 1.353 . S
C197 C196 1.348 . S
C197 H249 0.929 . S
H198 C192 0.930 . S
H199 C195 0.930 . S
C200 N201 1.314 . S
C200 C202 1.353 . S
C200 H206 0.930 . S
N201 Li177 1.990 . S
N201 C200 1.314 . S
N201 C204 1.279 . S
C202 C200 1.353 . S
C202 C205 1.348 . S
C202 H250 0.929 . S
C203 C204 1.358 . S
C203 C205 1.356 . S
C203 H251 0.930 . S
C204 N201 1.279 . S
C204 C203 1.358 . S
C204 H207 0.930 . S
C205 C202 1.348 . S
C205 C203 1.356 . S
H206 C200 0.930 . S
H207 C204 0.930 . S
C208 C210 1.347 . S
C208 C211 1.356 . S
C208 O238 1.325 1_545 S
N209 C212 1.314 . S
N209 C213 1.279 . S
C210 C208 1.347 . S
C210 C212 1.353 . S
C210 H252 0.929 1_545 S
C211 C208 1.356 . S
C211 C213 1.358 . S
C211 H253 0.930 . S
C212 N209 1.314 . S
C212 C210 1.353 . S
C212 H254 0.930 . S
C213 N209 1.279 . S
C213 C211 1.358 . S
C213 H255 0.930 . S
C214 C215 1.348 . S
C214 C216 1.356 . S
C214 O239 1.325 . S
C215 C214 1.348 . S
C215 C217 1.353 . S
C215 H256 0.929 . S
C216 C214 1.356 . S
C216 C218 1.358 . S
C216 H257 0.930 . S
C217 C215 1.353 . S
C217 N219 1.314 . S
C217 H258 0.930 . S
C218 C216 1.358 . S
C218 N219 1.279 . S
C218 H259 0.930 . S
N219 C217 1.314 . S
N219 C218 1.279 . S
C220 C222 1.353 . S
C220 N223 1.314 . S
C220 H226 0.930 1_545 S
C221 N223 1.279 . S
C221 C224 1.358 . S
C221 H227 0.930 . S
C222 C220 1.353 . S
C222 C225 1.348 . S
C222 H260 0.929 . S
N223 Li178 1.990 1_545 S
N223 C220 1.314 . S
N223 C221 1.279 . S
C224 C221 1.358 . S
C224 C225 1.356 . S
C224 H261 0.930 . S
C225 C222 1.348 . S
C225 C224 1.356 . S
H226 C220 0.930 1_565 S
H227 C221 0.930 . S
C228 N229 1.314 . S
C228 C230 1.353 . S
C228 H234 0.930 . S
N229 Li179 1.990 . S
N229 C228 1.314 . S
N229 C232 1.279 . S
C230 C228 1.353 . S
C230 C233 1.348 . S
C230 H262 0.929 . S
C231 C232 1.358 . S
C231 C233 1.356 . S
C231 H263 0.930 . S
C232 N229 1.279 . S
C232 C231 1.358 . S
C232 H235 0.930 . S
C233 C230 1.348 . S
C233 C231 1.356 . S
H234 C228 0.930 . S
H235 C232 0.930 . S
O236 Li176 1.956 . S
O236 Li177 1.970 . S
O236 Li178 1.961 . S
O236 C180 1.325 . S
O237 Li176 1.970 . S
O237 Li177 1.956 . S
O237 Li179 1.961 . S
O237 C186 1.325 . S
O238 Li176 1.961 . S
O238 Li178 1.956 . S
O238 Li179 1.970 . S
O238 C208 1.325 1_565 S
O239 Li177 1.961 . S
O239 Li178 1.970 . S
O239 Li179 1.956 . S
O239 C214 1.325 . S
H240 C182 0.929 . S
H241 C183 0.930 . S
H242 C184 0.930 . S
H243 C185 0.930 . S
H244 C187 0.930 . S
H245 C189 0.929 . S
H246 C190 0.930 . S
H247 C191 0.930 . S
H248 C194 0.930 . S
H249 C197 0.929 . S
H250 C202 0.929 . S
H251 C203 0.930 . S
H252 C210 0.929 1_565 S
H253 C211 0.930 . S
H254 C212 0.930 . S
H255 C213 0.930 . S
H256 C215 0.929 . S
H257 C216 0.930 . S
H258 C217 0.930 . S
H259 C218 0.930 . S
H260 C222 0.929 . S
H261 C224 0.930 . S
H262 C230 0.929 . S
H263 C231 0.930 . S
Li264 N281 1.990 . S
Li264 O324 1.956 . S
Li264 O325 1.970 . S
Li264 O326 1.961 . S
Li265 N289 1.990 . S
Li265 O324 1.970 . S
Li265 O325 1.956 . S
Li265 O327 1.961 . S
Li266 N311 1.990 . S
Li266 O324 1.961 . S
Li266 O326 1.956 . S
Li266 O327 1.970 . S
Li267 N317 1.990 . S
Li267 O325 1.961 . S
Li267 O326 1.970 . S
Li267 O327 1.956 . S
C268 C270 1.348 . S
C268 C271 1.356 . S
C268 O324 1.325 . S
N269 C272 1.314 . S
N269 C273 1.279 . S
C270 C268 1.348 . S
C270 C272 1.353 . S
C270 H328 0.929 . S
C271 C268 1.356 . S
C271 C273 1.358 . S
C271 H329 0.930 . S
C272 N269 1.314 . S
C272 C270 1.353 . S
C272 H330 0.930 . S
C273 N269 1.279 . S
C273 C271 1.358 . S
C273 H331 0.930 . S
C274 C277 1.348 . S
C274 C278 1.356 . S
C274 O325 1.325 . S
C275 N276 1.279 . S
C275 C278 1.358 . S
C275 H332 0.930 . S
N276 C275 1.279 . S
N276 C279 1.314 . S
C277 C274 1.348 . S
C277 C279 1.353 . S
C277 H333 0.929 . S
C278 C274 1.356 . S
C278 C275 1.358 . S
C278 H334 0.930 . S
C279 N276 1.314 . S
C279 C277 1.353 . S
C279 H335 0.930 . S
C280 N281 1.314 . S
C280 C285 1.353 . S
C280 H286 0.930 . S
N281 Li264 1.990 . S
N281 C280 1.314 . S
N281 C283 1.279 . S
C282 C283 1.358 . S
C282 C284 1.356 . S
C282 H336 0.930 . S
C283 N281 1.279 . S
C283 C282 1.358 . S
C283 H287 0.930 . S
C284 C282 1.356 . S
C284 C285 1.348 . S
C285 C280 1.353 . S
C285 C284 1.348 . S
C285 H337 0.929 . S
H286 C280 0.930 . S
H287 C283 0.930 . S
C288 N289 1.314 . S
C288 C290 1.353 . S
C288 H294 0.930 . S
N289 Li265 1.990 . S
N289 C288 1.314 . S
N289 C292 1.279 . S
C290 C288 1.353 . S
C290 C293 1.348 . S
C290 H338 0.929 . S
C291 C292 1.358 . S
C291 C293 1.356 . S
C291 H339 0.930 . S
C292 N289 1.279 . S
C292 C291 1.358 . S
C292 H295 0.930 . S
C293 C290 1.348 . S
C293 C291 1.356 . S
H294 C288 0.930 . S
H295 C292 0.930 . S
C296 C298 1.348 . S
C296 C299 1.356 . S
C296 O326 1.325 . S
N297 C300 1.314 . S
N297 C301 1.279 . S
C298 C296 1.348 . S
C298 C300 1.353 . S
C298 H340 0.929 . S
C299 C296 1.356 . S
C299 C301 1.358 . S
C299 H341 0.930 . S
C300 N297 1.314 . S
C300 C298 1.353 . S
C300 H342 0.930 . S
C301 N297 1.279 . S
C301 C299 1.358 . S
C301 H343 0.930 . S
C302 C303 1.348 . S
C302 C304 1.356 . S
C302 O327 1.325 . S
C303 C302 1.348 . S
C303 C305 1.353 . S
C303 H344 0.929 . S
C304 C302 1.356 . S
C304 C306 1.358 . S
C304 H345 0.930 . S
C305 C303 1.353 . S
C305 N307 1.314 . S
C305 H346 0.930 . S
C306 C304 1.358 . S
C306 N307 1.279 . S
C306 H347 0.930 . S
N307 C305 1.314 . S
N307 C306 1.279 . S
C308 C310 1.353 . S
C308 N311 1.314 . S
C308 H314 0.930 . S
C309 N311 1.279 . S
C309 C312 1.358 . S
C309 H315 0.930 . S
C310 C308 1.353 . S
C310 C313 1.348 . S
C310 H348 0.929 . S
N311 Li266 1.990 . S
N311 C308 1.314 . S
N311 C309 1.279 . S
C312 C309 1.358 . S
C312 C313 1.356 . S
C312 H349 0.930 . S
C313 C310 1.348 . S
C313 C312 1.356 . S
H314 C308 0.930 . S
H315 C309 0.930 . S
C316 N317 1.314 . S
C316 C318 1.353 . S
C316 H322 0.930 . S
N317 Li267 1.990 . S
N317 C316 1.314 . S
N317 C320 1.279 . S
C318 C316 1.353 . S
C318 C321 1.348 . S
C318 H350 0.929 . S
C319 C320 1.358 . S
C319 C321 1.356 . S
C319 H351 0.930 . S
C320 N317 1.279 . S
C320 C319 1.358 . S
C320 H323 0.930 . S
C321 C318 1.348 . S
C321 C319 1.356 . S
H322 C316 0.930 . S
H323 C320 0.930 . S
O324 Li264 1.956 . S
O324 Li265 1.970 . S
O324 Li266 1.961 . S
O324 C268 1.325 . S
O325 Li264 1.970 . S
O325 Li265 1.956 . S
O325 Li267 1.961 . S
O325 C274 1.325 . S
O326 Li264 1.961 . S
O326 Li266 1.956 . S
O326 Li267 1.970 . S
O326 C296 1.325 . S
O327 Li265 1.961 . S
O327 Li266 1.970 . S
O327 Li267 1.956 . S
O327 C302 1.325 . S
H328 C270 0.929 . S
H329 C271 0.930 . S
H330 C272 0.930 . S
H331 C273 0.930 . S
H332 C275 0.930 . S
H333 C277 0.929 . S
H334 C278 0.930 . S
H335 C279 0.930 . S
H336 C282 0.930 . S
H337 C285 0.929 . S
H338 C290 0.929 . S
H339 C291 0.930 . S
H340 C298 0.929 . S
H341 C299 0.930 . S
H342 C300 0.930 . S
H343 C301 0.930 . S
H344 C303 0.929 . S
H345 C304 0.930 . S
H346 C305 0.930 . S
H347 C306 0.930 . S
H348 C310 0.929 . S
H349 C312 0.930 . S
H350 C318 0.929 . S
H351 C319 0.930 . S
Li352 N369 1.990 . S
Li352 O412 1.956 . S
Li352 O413 1.970 . S
Li352 O414 1.961 . S
Li353 N377 1.990 . S
Li353 O412 1.970 . S
Li353 O413 1.956 . S
Li353 O415 1.961 . S
Li354 N399 1.990 . S
Li354 O412 1.961 . S
Li354 O414 1.956 . S
Li354 O415 1.970 . S
Li355 N405 1.990 1_455 S
Li355 O413 1.961 . S
Li355 O414 1.970 . S
Li355 O415 1.956 . S
C356 C358 1.348 . S
C356 C359 1.356 . S
C356 O412 1.325 . S
N357 C360 1.314 . S
N357 C361 1.279 . S
C358 C356 1.348 . S
C358 C360 1.353 . S
C358 H416 0.929 . S
C359 C356 1.356 . S
C359 C361 1.358 . S
C359 H417 0.930 . S
C360 N357 1.314 . S
C360 C358 1.353 . S
C360 H418 0.930 . S
C361 N357 1.279 . S
C361 C359 1.358 . S
C361 H419 0.930 . S
C362 C365 1.348 . S
C362 C366 1.356 . S
C362 O413 1.325 . S
C363 N364 1.279 . S
C363 C366 1.358 . S
C363 H420 0.928 . S
N364 C363 1.279 . S
N364 C367 1.314 . S
C365 C362 1.348 . S
C365 C367 1.353 . S
C365 H421 0.929 . S
C366 C362 1.356 . S
C366 C363 1.358 . S
C366 H422 0.930 . S
C367 N364 1.314 . S
C367 C365 1.353 . S
C367 H423 0.930 . S
C368 N369 1.314 . S
C368 C373 1.353 . S
C368 H374 0.930 . S
N369 Li352 1.990 . S
N369 C368 1.314 . S
N369 C371 1.279 . S
C370 C371 1.358 . S
C370 C372 1.356 . S
C370 H424 0.930 . S
C371 N369 1.279 . S
C371 C370 1.358 . S
C371 H375 0.930 . S
C372 C370 1.356 . S
C372 C373 1.348 . S
C373 C368 1.353 . S
C373 C372 1.348 . S
C373 H425 0.929 . S
H374 C368 0.930 . S
H375 C371 0.930 . S
C376 N377 1.314 . S
C376 C378 1.353 . S
C376 H382 0.930 . S
N377 Li353 1.990 . S
N377 C376 1.314 . S
N377 C380 1.279 . S
C378 C376 1.353 . S
C378 C381 1.348 . S
C378 H426 0.929 . S
C379 C380 1.358 . S
C379 C381 1.356 . S
C379 H427 0.930 . S
C380 N377 1.279 . S
C380 C379 1.358 . S
C380 H383 0.930 . S
C381 C378 1.348 . S
C381 C379 1.356 . S
H382 C376 0.930 . S
H383 C380 0.930 . S
C384 C386 1.348 . S
C384 C387 1.356 . S
C384 O414 1.325 . S
N385 C388 1.314 . S
N385 C389 1.279 . S
C386 C384 1.348 . S
C386 C388 1.353 . S
C386 H428 0.929 . S
C387 C384 1.356 . S
C387 C389 1.358 . S
C387 H429 0.930 . S
C388 N385 1.314 . S
C388 C386 1.353 . S
C388 H430 0.930 . S
C389 N385 1.279 . S
C389 C387 1.358 . S
C389 H431 0.930 . S
C390 C391 1.348 . S
C390 C392 1.356 . S
C390 O415 1.325 1_655 S
C391 C390 1.348 . S
C391 C393 1.353 . S
C391 H432 0.929 1_655 S
C392 C390 1.356 . S
C392 C394 1.358 . S
C392 H433 0.930 . S
C393 C391 1.353 . S
C393 N395 1.314 . S
C393 H434 0.930 . S
C394 C392 1.358 . S
C394 N395 1.279 . S
C394 H435 0.930 . S
N395 C393 1.314 . S
N395 C394 1.279 . S
C396 C398 1.353 . S
C396 N399 1.314 . S
C396 H402 0.930 . S
C397 N399 1.279 . S
C397 C400 1.358 . S
C397 H403 0.930 . S
C398 C396 1.353 . S
C398 C401 1.348 . S
C398 H436 0.929 . S
N399 Li354 1.990 . S
N399 C396 1.314 . S
N399 C397 1.279 . S
C400 C397 1.358 . S
C400 C401 1.356 . S
C400 H437 0.930 . S
C401 C398 1.348 . S
C401 C400 1.356 . S
H402 C396 0.930 . S
H403 C397 0.930 . S
C404 N405 1.314 . S
C404 C406 1.353 . S
C404 H410 0.930 1_655 S
N405 Li355 1.990 1_655 S
N405 C404 1.314 . S
N405 C408 1.279 . S
C406 C404 1.353 . S
C406 C409 1.348 . S
C406 H438 0.929 . S
C407 C408 1.358 . S
C407 C409 1.356 . S
C407 H439 0.930 . S
C408 N405 1.279 . S
C408 C407 1.358 . S
C408 H411 0.930 . S
C409 C406 1.348 . S
C409 C407 1.356 . S
H410 C404 0.930 1_455 S
H411 C408 0.930 . S
O412 Li352 1.956 . S
O412 Li353 1.970 . S
O412 Li354 1.961 . S
O412 C356 1.325 . S
O413 Li352 1.970 . S
O413 Li353 1.956 . S
O413 Li355 1.961 . S
O413 C362 1.325 . S
O414 Li352 1.961 . S
O414 Li354 1.956 . S
O414 Li355 1.970 . S
O414 C384 1.325 . S
O415 Li353 1.961 . S
O415 Li354 1.970 . S
O415 Li355 1.956 . S
O415 C390 1.325 1_455 S
H416 C358 0.929 . S
H417 C359 0.930 . S
H418 C360 0.930 . S
H419 C361 0.930 . S
H420 C363 0.928 . S
H421 C365 0.929 . S
H422 C366 0.930 . S
H423 C367 0.930 . S
H424 C370 0.930 . S
H425 C373 0.929 . S
H426 C378 0.929 . S
H427 C379 0.930 . S
H428 C386 0.929 . S
H429 C387 0.930 . S
H430 C388 0.930 . S
H431 C389 0.930 . S
H432 C391 0.929 1_455 S
H433 C392 0.930 . S
H434 C393 0.930 . S
H435 C394 0.930 . S
H436 C398 0.929 . S
H437 C400 0.930 . S
H438 C406 0.929 . S
H439 C407 0.930 . S
Li440 N457 1.990 . S
Li440 O500 1.956 . S
Li440 O501 1.970 . S
Li440 O502 1.961 . S
Li441 N465 1.990 . S
Li441 O500 1.970 . S
Li441 O501 1.956 . S
Li441 O503 1.961 . S
Li442 N487 1.990 1_545 S
Li442 O500 1.961 . S
Li442 O502 1.956 . S
Li442 O503 1.970 . S
Li443 N493 1.990 . S
Li443 O501 1.961 . S
Li443 O502 1.970 . S
Li443 O503 1.956 . S
C444 C446 1.348 . S
C444 C447 1.356 . S
C444 O500 1.325 . S
N445 C448 1.314 . S
N445 C449 1.279 . S
C446 C444 1.348 . S
C446 C448 1.353 . S
C446 H504 0.929 . S
C447 C444 1.356 . S
C447 C449 1.358 . S
C447 H505 0.930 . S
C448 N445 1.314 . S
C448 C446 1.353 . S
C448 H506 0.930 . S
C449 N445 1.279 . S
C449 C447 1.358 . S
C449 H507 0.930 . S
C450 C453 1.348 . S
C450 C454 1.356 . S
C450 O501 1.325 . S
C451 N452 1.279 . S
C451 C454 1.358 . S
C451 H508 0.930 . S
N452 C451 1.279 . S
N452 C455 1.314 . S
C453 C450 1.348 . S
C453 C455 1.353 . S
C453 H509 0.929 . S
C454 C450 1.356 . S
C454 C451 1.358 . S
C454 H510 0.930 . S
C455 N452 1.314 . S
C455 C453 1.353 . S
C455 H511 0.930 . S
C456 N457 1.314 . S
C456 C461 1.353 . S
C456 H462 0.930 . S
N457 Li440 1.990 . S
N457 C456 1.314 . S
N457 C459 1.279 . S
C458 C459 1.358 . S
C458 C460 1.356 . S
C458 H512 0.930 . S
C459 N457 1.279 . S
C459 C458 1.358 . S
C459 H463 0.930 . S
C460 C458 1.356 . S
C460 C461 1.348 . S
C461 C456 1.353 . S
C461 C460 1.348 . S
C461 H513 0.929 . S
H462 C456 0.930 . S
H463 C459 0.930 . S
C464 N465 1.314 . S
C464 C466 1.353 . S
C464 H470 0.930 . S
N465 Li441 1.990 . S
N465 C464 1.314 . S
N465 C468 1.279 . S
C466 C464 1.353 . S
C466 C469 1.348 . S
C466 H514 0.929 . S
C467 C468 1.358 . S
C467 C469 1.356 . S
C467 H515 0.930 . S
C468 N465 1.279 . S
C468 C467 1.358 . S
C468 H471 0.930 . S
C469 C466 1.348 . S
C469 C467 1.356 . S
H470 C464 0.930 . S
H471 C468 0.930 . S
C472 C474 1.347 . S
C472 C475 1.356 . S
C472 O502 1.326 1_565 S
N473 C476 1.314 . S
N473 C477 1.279 . S
C474 C472 1.347 . S
C474 C476 1.353 . S
C474 H516 0.929 1_565 S
C475 C472 1.356 . S
C475 C477 1.358 . S
C475 H517 0.930 . S
C476 N473 1.314 . S
C476 C474 1.353 . S
C476 H518 0.930 . S
C477 N473 1.279 . S
C477 C475 1.358 . S
C477 H519 0.930 . S
C478 C479 1.348 . S
C478 C480 1.356 . S
C478 O503 1.325 . S
C479 C478 1.348 . S
C479 C481 1.353 . S
C479 H520 0.929 . S
C480 C478 1.356 . S
C480 C482 1.358 . S
C480 H521 0.930 . S
C481 C479 1.353 . S
C481 N483 1.314 . S
C481 H522 0.930 . S
C482 C480 1.358 . S
C482 N483 1.279 . S
C482 H523 0.930 . S
N483 C481 1.314 . S
N483 C482 1.279 . S
C484 C486 1.353 . S
C484 N487 1.314 . S
C484 H490 0.930 1_565 S
C485 N487 1.279 . S
C485 C488 1.358 . S
C485 H491 0.930 . S
C486 C484 1.353 . S
C486 C489 1.348 . S
C486 H524 0.929 . S
N487 Li442 1.990 1_565 S
N487 C484 1.314 . S
N487 C485 1.279 . S
C488 C485 1.358 . S
C488 C489 1.356 . S
C488 H525 0.930 . S
C489 C486 1.348 . S
C489 C488 1.356 . S
H490 C484 0.930 1_545 S
H491 C485 0.930 . S
C492 N493 1.314 . S
C492 C494 1.353 . S
C492 H498 0.930 . S
N493 Li443 1.990 . S
N493 C492 1.314 . S
N493 C496 1.279 . S
C494 C492 1.353 . S
C494 C497 1.348 . S
C494 H526 0.929 . S
C495 C496 1.358 . S
C495 C497 1.356 . S
C495 H527 0.930 . S
C496 N493 1.279 . S
C496 C495 1.358 . S
C496 H499 0.930 . S
C497 C494 1.348 . S
C497 C495 1.356 . S
H498 C492 0.930 . S
H499 C496 0.930 . S
O500 Li440 1.956 . S
O500 Li441 1.970 . S
O500 Li442 1.961 . S
O500 C444 1.325 . S
O501 Li440 1.970 . S
O501 Li441 1.956 . S
O501 Li443 1.961 . S
O501 C450 1.325 . S
O502 Li440 1.961 . S
O502 Li442 1.956 . S
O502 Li443 1.970 . S
O502 C472 1.326 1_545 S
O503 Li441 1.961 . S
O503 Li442 1.970 . S
O503 Li443 1.956 . S
O503 C478 1.325 . S
H504 C446 0.929 . S
H505 C447 0.930 . S
H506 C448 0.930 . S
H507 C449 0.930 . S
H508 C451 0.930 . S
H509 C453 0.929 . S
H510 C454 0.930 . S
H511 C455 0.930 . S
H512 C458 0.930 . S
H513 C461 0.929 . S
H514 C466 0.929 . S
H515 C467 0.930 . S
H516 C474 0.929 1_545 S
H517 C475 0.930 . S
H518 C476 0.930 . S
H519 C477 0.930 . S
H520 C479 0.929 . S
H521 C480 0.930 . S
H522 C481 0.930 . S
H523 C482 0.930 . S
H524 C486 0.929 . S
H525 C488 0.930 . S
H526 C494 0.929 . S
H527 C495 0.930 . S
Li528 N545 1.990 . S
Li528 O588 1.956 . S
Li528 O589 1.970 . S
Li528 O590 1.961 . S
Li529 N553 1.990 . S
Li529 O588 1.970 . S
Li529 O589 1.956 . S
Li529 O591 1.961 . S
Li530 N575 1.990 . S
Li530 O588 1.961 . S
Li530 O590 1.956 . S
Li530 O591 1.970 . S
Li531 N581 1.990 . S
Li531 O589 1.961 . S
Li531 O590 1.970 . S
Li531 O591 1.956 . S
C532 C534 1.348 . S
C532 C535 1.356 . S
C532 O588 1.325 . S
N533 C536 1.314 . S
N533 C537 1.279 . S
C534 C532 1.348 . S
C534 C536 1.353 . S
C534 H592 0.929 . S
C535 C532 1.356 . S
C535 C537 1.358 . S
C535 H593 0.930 . S
C536 N533 1.314 . S
C536 C534 1.353 . S
C536 H594 0.930 . S
C537 N533 1.279 . S
C537 C535 1.358 . S
C537 H595 0.930 . S
C538 C541 1.348 . S
C538 C542 1.356 . S
C538 O589 1.325 . S
C539 N540 1.279 . S
C539 C542 1.358 . S
C539 H596 0.930 . S
N540 C539 1.279 . S
N540 C543 1.314 . S
C541 C538 1.348 . S
C541 C543 1.353 . S
C541 H597 0.929 . S
C542 C538 1.356 . S
C542 C539 1.358 . S
C542 H598 0.930 . S
C543 N540 1.314 . S
C543 C541 1.353 . S
C543 H599 0.930 . S
C544 N545 1.314 . S
C544 C549 1.353 . S
C544 H550 0.930 . S
N545 Li528 1.990 . S
N545 C544 1.314 . S
N545 C547 1.279 . S
C546 C547 1.358 . S
C546 C548 1.356 . S
C546 H600 0.930 . S
C547 N545 1.279 . S
C547 C546 1.358 . S
C547 H551 0.930 . S
C548 C546 1.356 . S
C548 C549 1.348 . S
C549 C544 1.353 . S
C549 C548 1.348 . S
C549 H601 0.929 . S
H550 C544 0.930 . S
H551 C547 0.930 . S
C552 N553 1.314 . S
C552 C554 1.353 . S
C552 H558 0.930 . S
N553 Li529 1.990 . S
N553 C552 1.314 . S
N553 C556 1.279 . S
C554 C552 1.353 . S
C554 C557 1.348 . S
C554 H602 0.929 . S
C555 C556 1.358 . S
C555 C557 1.356 . S
C555 H603 0.930 . S
C556 N553 1.279 . S
C556 C555 1.358 . S
C556 H559 0.930 . S
C557 C554 1.348 . S
C557 C555 1.356 . S
H558 C552 0.930 . S
H559 C556 0.930 . S
C560 C562 1.348 . S
C560 C563 1.356 . S
C560 O590 1.325 . S
N561 C564 1.314 . S
N561 C565 1.279 . S
C562 C560 1.348 . S
C562 C564 1.353 . S
C562 H604 0.929 . S
C563 C560 1.356 . S
C563 C565 1.358 . S
C563 H605 0.930 . S
C564 N561 1.314 . S
C564 C562 1.353 . S
C564 H606 0.930 . S
C565 N561 1.279 . S
C565 C563 1.358 . S
C565 H607 0.930 . S
C566 C567 1.348 . S
C566 C568 1.356 . S
C566 O591 1.325 . S
C567 C566 1.348 . S
C567 C569 1.353 . S
C567 H608 0.929 . S
C568 C566 1.356 . S
C568 C570 1.358 . S
C568 H609 0.930 . S
C569 C567 1.353 . S
C569 N571 1.314 . S
C569 H610 0.930 . S
C570 C568 1.358 . S
C570 N571 1.279 . S
C570 H611 0.930 . S
N571 C569 1.314 . S
N571 C570 1.279 . S
C572 C574 1.353 . S
C572 N575 1.314 . S
C572 H578 0.930 . S
C573 N575 1.279 . S
C573 C576 1.358 . S
C573 H579 0.930 . S
C574 C572 1.353 . S
C574 C577 1.348 . S
C574 H612 0.929 . S
N575 Li530 1.990 . S
N575 C572 1.314 . S
N575 C573 1.279 . S
C576 C573 1.358 . S
C576 C577 1.356 . S
C576 H613 0.930 . S
C577 C574 1.348 . S
C577 C576 1.356 . S
H578 C572 0.930 . S
H579 C573 0.930 . S
C580 N581 1.314 . S
C580 C582 1.353 . S
C580 H586 0.930 . S
N581 Li531 1.990 . S
N581 C580 1.314 . S
N581 C584 1.279 . S
C582 C580 1.353 . S
C582 C585 1.348 . S
C582 H614 0.929 . S
C583 C584 1.358 . S
C583 C585 1.356 . S
C583 H615 0.930 . S
C584 N581 1.279 . S
C584 C583 1.358 . S
C584 H587 0.930 . S
C585 C582 1.348 . S
C585 C583 1.356 . S
H586 C580 0.930 . S
H587 C584 0.930 . S
O588 Li528 1.956 . S
O588 Li529 1.970 . S
O588 Li530 1.961 . S
O588 C532 1.325 . S
O589 Li528 1.970 . S
O589 Li529 1.956 . S
O589 Li531 1.961 . S
O589 C538 1.325 . S
O590 Li528 1.961 . S
O590 Li530 1.956 . S
O590 Li531 1.970 . S
O590 C560 1.325 . S
O591 Li529 1.961 . S
O591 Li530 1.970 . S
O591 Li531 1.956 . S
O591 C566 1.325 . S
H592 C534 0.929 . S
H593 C535 0.930 . S
H594 C536 0.930 . S
H595 C537 0.930 . S
H596 C539 0.930 . S
H597 C541 0.929 . S
H598 C542 0.930 . S
H599 C543 0.930 . S
H600 C546 0.930 . S
H601 C549 0.929 . S
H602 C554 0.929 . S
H603 C555 0.930 . S
H604 C562 0.929 . S
H605 C563 0.930 . S
H606 C564 0.930 . S
H607 C565 0.930 . S
H608 C567 0.929 . S
H609 C568 0.930 . S
H610 C569 0.930 . S
H611 C570 0.930 . S
H612 C574 0.929 . S
H613 C576 0.930 . S
H614 C582 0.929 . S
H615 C583 0.930 . S
Li616 N633 1.990 1_655 S
Li616 O676 1.956 . S
Li616 O677 1.970 . S
Li616 O678 1.961 . S
Li617 N641 1.990 . S
Li617 O676 1.970 . S
Li617 O677 1.956 . S
Li617 O679 1.961 . S
Li618 N663 1.990 . S
Li618 O676 1.961 . S
Li618 O678 1.956 . S
Li618 O679 1.970 . S
Li619 N669 1.990 . S
Li619 O677 1.961 . S
Li619 O678 1.970 . S
Li619 O679 1.956 . S
C620 C622 1.347 . S
C620 C623 1.356 . S
C620 O676 1.326 1_455 S
N621 C624 1.314 . S
N621 C625 1.279 . S
C622 C620 1.347 . S
C622 C624 1.353 . S
C622 H680 0.929 1_455 S
C623 C620 1.356 . S
C623 C625 1.358 . S
C623 H681 0.930 . S
C624 N621 1.314 . S
C624 C622 1.353 . S
C624 H682 0.930 . S
C625 N621 1.279 . S
C625 C623 1.358 . S
C625 H683 0.930 . S
C626 C629 1.348 . S
C626 C630 1.356 . S
C626 O677 1.325 . S
C627 N628 1.279 . S
C627 C630 1.358 . S
C627 H684 0.930 . S
N628 C627 1.279 . S
N628 C631 1.314 . S
C629 C626 1.348 . S
C629 C631 1.353 . S
C629 H685 0.929 . S
C630 C626 1.356 . S
C630 C627 1.358 . S
C630 H686 0.930 . S
C631 N628 1.314 . S
C631 C629 1.353 . S
C631 H687 0.930 . S
C632 N633 1.314 . S
C632 C637 1.353 . S
C632 H638 0.930 1_455 S
N633 Li616 1.990 1_455 S
N633 C632 1.314 . S
N633 C635 1.279 . S
C634 C635 1.358 . S
C634 C636 1.356 . S
C634 H688 0.930 . S
C635 N633 1.279 . S
C635 C634 1.358 . S
C635 H639 0.930 . S
C636 C634 1.356 . S
C636 C637 1.348 . S
C637 C632 1.353 . S
C637 C636 1.348 . S
C637 H689 0.929 . S
H638 C632 0.930 1_655 S
H639 C635 0.930 . S
C640 N641 1.314 . S
C640 C642 1.353 . S
C640 H646 0.930 . S
N641 Li617 1.990 . S
N641 C640 1.314 . S
N641 C644 1.279 . S
C642 C640 1.353 . S
C642 C645 1.348 . S
C642 H690 0.929 . S
C643 C644 1.358 . S
C643 C645 1.356 . S
C643 H691 0.930 . S
C644 N641 1.279 . S
C644 C643 1.358 . S
C644 H647 0.930 . S
C645 C642 1.348 . S
C645 C643 1.356 . S
H646 C640 0.930 . S
H647 C644 0.930 . S
C648 C650 1.348 . S
C648 C651 1.356 . S
C648 O678 1.325 . S
N649 C652 1.314 . S
N649 C653 1.279 . S
C650 C648 1.348 . S
C650 C652 1.353 . S
C650 H692 0.929 . S
C651 C648 1.356 . S
C651 C653 1.358 . S
C651 H693 0.930 . S
C652 N649 1.314 . S
C652 C650 1.353 . S
C652 H694 0.930 . S
C653 N649 1.279 . S
C653 C651 1.358 . S
C653 H695 0.930 . S
C654 C655 1.348 . S
C654 C656 1.356 . S
C654 O679 1.325 . S
C655 C654 1.348 . S
C655 C657 1.353 . S
C655 H696 0.929 . S
C656 C654 1.356 . S
C656 C658 1.358 . S
C656 H697 0.930 . S
C657 C655 1.353 . S
C657 N659 1.314 . S
C657 H698 0.930 . S
C658 C656 1.358 . S
C658 N659 1.279 . S
C658 H699 0.930 . S
N659 C657 1.314 . S
N659 C658 1.279 . S
C660 C662 1.353 . S
C660 N663 1.314 . S
C660 H666 0.930 . S
C661 N663 1.279 . S
C661 C664 1.358 . S
C661 H667 0.930 . S
C662 C660 1.353 . S
C662 C665 1.348 . S
C662 H700 0.929 . S
N663 Li618 1.990 . S
N663 C660 1.314 . S
N663 C661 1.279 . S
C664 C661 1.358 . S
C664 C665 1.356 . S
C664 H701 0.930 . S
C665 C662 1.348 . S
C665 C664 1.356 . S
H666 C660 0.930 . S
H667 C661 0.930 . S
C668 N669 1.314 . S
C668 C670 1.353 . S
C668 H674 0.930 . S
N669 Li619 1.990 . S
N669 C668 1.314 . S
N669 C672 1.279 . S
C670 C668 1.353 . S
C670 C673 1.348 . S
C670 H702 0.929 . S
C671 C672 1.358 . S
C671 C673 1.356 . S
C671 H703 0.930 . S
C672 N669 1.279 . S
C672 C671 1.358 . S
C672 H675 0.930 . S
C673 C670 1.348 . S
C673 C671 1.356 . S
H674 C668 0.930 . S
H675 C672 0.930 . S
O676 Li616 1.956 . S
O676 Li617 1.970 . S
O676 Li618 1.961 . S
O676 C620 1.326 1_655 S
O677 Li616 1.970 . S
O677 Li617 1.956 . S
O677 Li619 1.961 . S
O677 C626 1.325 . S
O678 Li616 1.961 . S
O678 Li618 1.956 . S
O678 Li619 1.970 . S
O678 C648 1.325 . S
O679 Li617 1.961 . S
O679 Li618 1.970 . S
O679 Li619 1.956 . S
O679 C654 1.325 . S
H680 C622 0.929 1_655 S
H681 C623 0.930 . S
H682 C624 0.930 . S
H683 C625 0.930 . S
H684 C627 0.930 . S
H685 C629 0.929 . S
H686 C630 0.930 . S
H687 C631 0.930 . S
H688 C634 0.930 . S
H689 C637 0.929 . S
H690 C642 0.929 . S
H691 C643 0.930 . S
H692 C650 0.929 . S
H693 C651 0.930 . S
H694 C652 0.930 . S
H695 C653 0.930 . S
H696 C655 0.929 . S
H697 C656 0.930 . S
H698 C657 0.930 . S
H699 C658 0.930 . S
H700 C662 0.929 . S
H701 C664 0.930 . S
H702 C670 0.929 . S
H703 C671 0.930 . S
Li704 N721 1.990 1_565 S
Li704 O764 1.956 . S
Li704 O765 1.970 . S
Li704 O766 1.961 . S
Li705 N729 1.990 . S
Li705 O764 1.970 . S
Li705 O765 1.956 . S
Li705 O767 1.961 . S
Li706 N751 1.990 . S
Li706 O764 1.961 . S
Li706 O766 1.956 . S
Li706 O767 1.970 . S
Li707 N757 1.990 . S
Li707 O765 1.961 . S
Li707 O766 1.970 . S
Li707 O767 1.956 . S
C708 C710 1.348 . S
C708 C711 1.356 . S
C708 O764 1.325 1_545 S
N709 C712 1.314 . S
N709 C713 1.279 . S
C710 C708 1.348 . S
C710 C712 1.353 . S
C710 H768 0.929 1_545 S
C711 C708 1.356 . S
C711 C713 1.358 . S
C711 H769 0.930 . S
C712 N709 1.314 . S
C712 C710 1.353 . S
C712 H770 0.930 . S
C713 N709 1.279 . S
C713 C711 1.358 . S
C713 H771 0.930 . S
C714 C717 1.348 . S
C714 C718 1.356 . S
C714 O765 1.325 . S
C715 N716 1.279 . S
C715 C718 1.358 . S
C715 H772 0.930 . S
N716 C715 1.279 . S
N716 C719 1.314 . S
C717 C714 1.348 . S
C717 C719 1.353 . S
C717 H773 0.929 . S
C718 C714 1.356 . S
C718 C715 1.358 . S
C718 H774 0.930 . S
C719 N716 1.314 . S
C719 C717 1.353 . S
C719 H775 0.930 . S
C720 N721 1.314 . S
C720 C725 1.353 . S
C720 H726 0.930 1_545 S
N721 Li704 1.990 1_545 S
N721 C720 1.314 . S
N721 C723 1.279 . S
C722 C723 1.358 . S
C722 C724 1.356 . S
C722 H776 0.930 . S
C723 N721 1.279 . S
C723 C722 1.358 . S
C723 H727 0.930 . S
C724 C722 1.356 . S
C724 C725 1.348 . S
C725 C720 1.353 . S
C725 C724 1.348 . S
C725 H777 0.929 . S
H726 C720 0.930 1_565 S
H727 C723 0.930 . S
C728 N729 1.314 . S
C728 C730 1.353 . S
C728 H734 0.930 . S
N729 Li705 1.990 . S
N729 C728 1.314 . S
N729 C732 1.279 . S
C730 C728 1.353 . S
C730 C733 1.348 . S
C730 H778 0.929 . S
C731 C732 1.358 . S
C731 C733 1.356 . S
C731 H779 0.930 . S
C732 N729 1.279 . S
C732 C731 1.358 . S
C732 H735 0.930 . S
C733 C730 1.348 . S
C733 C731 1.356 . S
H734 C728 0.930 . S
H735 C732 0.930 . S
C736 C738 1.348 . S
C736 C739 1.356 . S
C736 O766 1.325 . S
N737 C740 1.314 . S
N737 C741 1.279 . S
C738 C736 1.348 . S
C738 C740 1.353 . S
C738 H780 0.929 . S
C739 C736 1.356 . S
C739 C741 1.358 . S
C739 H781 0.930 . S
C740 N737 1.314 . S
C740 C738 1.353 . S
C740 H782 0.930 . S
C741 N737 1.279 . S
C741 C739 1.358 . S
C741 H783 0.928 . S
C742 C743 1.348 . S
C742 C744 1.356 . S
C742 O767 1.325 . S
C743 C742 1.348 . S
C743 C745 1.353 . S
C743 H784 0.929 . S
C744 C742 1.356 . S
C744 C746 1.358 . S
C744 H785 0.930 . S
C745 C743 1.353 . S
C745 N747 1.314 . S
C745 H786 0.930 . S
C746 C744 1.358 . S
C746 N747 1.279 . S
C746 H787 0.930 . S
N747 C745 1.314 . S
N747 C746 1.279 . S
C748 C750 1.353 . S
C748 N751 1.314 . S
C748 H754 0.930 . S
C749 N751 1.279 . S
C749 C752 1.358 . S
C749 H755 0.930 . S
C750 C748 1.353 . S
C750 C753 1.348 . S
C750 H788 0.929 . S
N751 Li706 1.990 . S
N751 C748 1.314 . S
N751 C749 1.279 . S
C752 C749 1.358 . S
C752 C753 1.356 . S
C752 H789 0.930 . S
C753 C750 1.348 . S
C753 C752 1.356 . S
H754 C748 0.930 . S
H755 C749 0.930 . S
C756 N757 1.314 . S
C756 C758 1.353 . S
C756 H762 0.930 . S
N757 Li707 1.990 . S
N757 C756 1.314 . S
N757 C760 1.279 . S
C758 C756 1.353 . S
C758 C761 1.348 . S
C758 H790 0.929 . S
C759 C760 1.358 . S
C759 C761 1.356 . S
C759 H791 0.930 . S
C760 N757 1.279 . S
C760 C759 1.358 . S
C760 H763 0.930 . S
C761 C758 1.348 . S
C761 C759 1.356 . S
H762 C756 0.930 . S
H763 C760 0.930 . S
O764 Li704 1.956 . S
O764 Li705 1.970 . S
O764 Li706 1.961 . S
O764 C708 1.325 1_565 S
O765 Li704 1.970 . S
O765 Li705 1.956 . S
O765 Li707 1.961 . S
O765 C714 1.325 . S
O766 Li704 1.961 . S
O766 Li706 1.956 . S
O766 Li707 1.970 . S
O766 C736 1.325 . S
O767 Li705 1.961 . S
O767 Li706 1.970 . S
O767 Li707 1.956 . S
O767 C742 1.325 . S
H768 C710 0.929 1_565 S
H769 C711 0.930 . S
H770 C712 0.930 . S
H771 C713 0.930 . S
H772 C715 0.930 . S
H773 C717 0.929 . S
H774 C718 0.930 . S
H775 C719 0.930 . S
H776 C722 0.930 . S
H777 C725 0.929 . S
H778 C730 0.929 . S
H779 C731 0.930 . S
H780 C738 0.929 . S
H781 C739 0.930 . S
H782 C740 0.930 . S
H783 C741 0.928 . S
H784 C743 0.929 . S
H785 C744 0.930 . S
H786 C745 0.930 . S
H787 C746 0.930 . S
H788 C750 0.929 . S
H789 C752 0.930 . S
H790 C758 0.929 . S
H791 C759 0.930 . S
Li792 N809 1.990 . S
Li792 O852 1.956 . S
Li792 O853 1.970 . S
Li792 O854 1.961 . S
Li793 N817 1.990 . S
Li793 O852 1.970 . S
Li793 O853 1.956 . S
Li793 O855 1.961 . S
Li794 N839 1.990 . S
Li794 O852 1.961 . S
Li794 O854 1.956 . S
Li794 O855 1.970 . S
Li795 N845 1.990 . S
Li795 O853 1.961 . S
Li795 O854 1.970 . S
Li795 O855 1.956 . S
C796 C798 1.348 . S
C796 C799 1.356 . S
C796 O852 1.325 . S
N797 C800 1.314 . S
N797 C801 1.279 . S
C798 C796 1.348 . S
C798 C800 1.353 . S
C798 H856 0.929 . S
C799 C796 1.356 . S
C799 C801 1.358 . S
C799 H857 0.930 . S
C800 N797 1.314 . S
C800 C798 1.353 . S
C800 H858 0.930 . S
C801 N797 1.279 . S
C801 C799 1.358 . S
C801 H859 0.930 . S
C802 C805 1.348 . S
C802 C806 1.356 . S
C802 O853 1.325 . S
C803 N804 1.279 . S
C803 C806 1.358 . S
C803 H860 0.930 . S
N804 C803 1.279 . S
N804 C807 1.314 . S
C805 C802 1.348 . S
C805 C807 1.353 . S
C805 H861 0.929 . S
C806 C802 1.356 . S
C806 C803 1.358 . S
C806 H862 0.930 . S
C807 N804 1.314 . S
C807 C805 1.353 . S
C807 H863 0.930 . S
C808 N809 1.314 . S
C808 C813 1.353 . S
C808 H814 0.930 . S
N809 Li792 1.990 . S
N809 C808 1.314 . S
N809 C811 1.279 . S
C810 C811 1.358 . S
C810 C812 1.356 . S
C810 H864 0.930 . S
C811 N809 1.279 . S
C811 C810 1.358 . S
C811 H815 0.930 . S
C812 C810 1.356 . S
C812 C813 1.348 . S
C813 C808 1.353 . S
C813 C812 1.348 . S
C813 H865 0.929 . S
H814 C808 0.930 . S
H815 C811 0.930 . S
C816 N817 1.314 . S
C816 C818 1.353 . S
C816 H822 0.930 . S
N817 Li793 1.990 . S
N817 C816 1.314 . S
N817 C820 1.279 . S
C818 C816 1.353 . S
C818 C821 1.348 . S
C818 H866 0.929 . S
C819 C820 1.358 . S
C819 C821 1.356 . S
C819 H867 0.930 . S
C820 N817 1.279 . S
C820 C819 1.358 . S
C820 H823 0.930 . S
C821 C818 1.348 . S
C821 C819 1.356 . S
H822 C816 0.930 . S
H823 C820 0.930 . S
C824 C826 1.348 . S
C824 C827 1.356 . S
C824 O854 1.325 . S
N825 C828 1.314 . S
N825 C829 1.279 . S
C826 C824 1.348 . S
C826 C828 1.353 . S
C826 H868 0.929 . S
C827 C824 1.356 . S
C827 C829 1.358 . S
C827 H869 0.930 . S
C828 N825 1.314 . S
C828 C826 1.353 . S
C828 H870 0.930 . S
C829 N825 1.279 . S
C829 C827 1.358 . S
C829 H871 0.930 . S
C830 C831 1.348 . S
C830 C832 1.356 . S
C830 O855 1.325 . S
C831 C830 1.348 . S
C831 C833 1.353 . S
C831 H872 0.929 . S
C832 C830 1.356 . S
C832 C834 1.358 . S
C832 H873 0.930 . S
C833 C831 1.353 . S
C833 N835 1.314 . S
C833 H874 0.930 . S
C834 C832 1.358 . S
C834 N835 1.279 . S
C834 H875 0.930 . S
N835 C833 1.314 . S
N835 C834 1.279 . S
C836 C838 1.353 . S
C836 N839 1.314 . S
C836 H842 0.930 . S
C837 N839 1.279 . S
C837 C840 1.358 . S
C837 H843 0.930 . S
C838 C836 1.353 . S
C838 C841 1.348 . S
C838 H876 0.929 . S
N839 Li794 1.990 . S
N839 C836 1.314 . S
N839 C837 1.279 . S
C840 C837 1.358 . S
C840 C841 1.356 . S
C840 H877 0.930 . S
C841 C838 1.348 . S
C841 C840 1.356 . S
H842 C836 0.930 . S
H843 C837 0.930 . S
C844 N845 1.314 . S
C844 C846 1.353 . S
C844 H850 0.930 . S
N845 Li795 1.990 . S
N845 C844 1.314 . S
N845 C848 1.279 . S
C846 C844 1.353 . S
C846 C849 1.348 . S
C846 H878 0.929 . S
C847 C848 1.358 . S
C847 C849 1.356 . S
C847 H879 0.930 . S
C848 N845 1.279 . S
C848 C847 1.358 . S
C848 H851 0.930 . S
C849 C846 1.348 . S
C849 C847 1.356 . S
H850 C844 0.930 . S
H851 C848 0.930 . S
O852 Li792 1.956 . S
O852 Li793 1.970 . S
O852 Li794 1.961 . S
O852 C796 1.325 . S
O853 Li792 1.970 . S
O853 Li793 1.956 . S
O853 Li795 1.961 . S
O853 C802 1.325 . S
O854 Li792 1.961 . S
O854 Li794 1.956 . S
O854 Li795 1.970 . S
O854 C824 1.325 . S
O855 Li793 1.961 . S
O855 Li794 1.970 . S
O855 Li795 1.956 . S
O855 C830 1.325 . S
H856 C798 0.929 . S
H857 C799 0.930 . S
H858 C800 0.930 . S
H859 C801 0.930 . S
H860 C803 0.930 . S
H861 C805 0.929 . S
H862 C806 0.930 . S
H863 C807 0.930 . S
H864 C810 0.930 . S
H865 C813 0.929 . S
H866 C818 0.929 . S
H867 C819 0.930 . S
H868 C826 0.929 . S
H869 C827 0.930 . S
H870 C828 0.930 . S
H871 C829 0.930 . S
H872 C831 0.929 . S
H873 C832 0.930 . S
H874 C833 0.930 . S
H875 C834 0.930 . S
H876 C838 0.929 . S
H877 C840 0.930 . S
H878 C846 0.929 . S
H879 C847 0.930 . S
Li880 N897 1.990 1_455 S
Li880 O940 1.956 . S
Li880 O941 1.970 . S
Li880 O942 1.961 . S
Li881 N905 1.990 . S
Li881 O940 1.970 . S
Li881 O941 1.956 . S
Li881 O943 1.961 . S
Li882 N927 1.990 . S
Li882 O940 1.961 . S
Li882 O942 1.956 . S
Li882 O943 1.970 . S
Li883 N933 1.990 . S
Li883 O941 1.961 . S
Li883 O942 1.970 . S
Li883 O943 1.956 . S
C884 C886 1.347 . S
C884 C887 1.356 . S
C884 O940 1.326 1_655 S
N885 C888 1.314 . S
N885 C889 1.279 . S
C886 C884 1.347 . S
C886 C888 1.353 . S
C886 H944 0.929 1_655 S
C887 C884 1.356 . S
C887 C889 1.358 . S
C887 H945 0.930 . S
C888 N885 1.314 . S
C888 C886 1.353 . S
C888 H946 0.930 . S
C889 N885 1.279 . S
C889 C887 1.358 . S
C889 H947 0.930 . S
C890 C893 1.348 . S
C890 C894 1.356 . S
C890 O941 1.325 . S
C891 N892 1.279 . S
C891 C894 1.358 . S
C891 H948 0.930 . S
N892 C891 1.279 . S
N892 C895 1.314 . S
C893 C890 1.348 . S
C893 C895 1.353 . S
C893 H949 0.929 . S
C894 C890 1.356 . S
C894 C891 1.358 . S
C894 H950 0.930 . S
C895 N892 1.314 . S
C895 C893 1.353 . S
C895 H951 0.930 . S
C896 N897 1.314 . S
C896 C901 1.353 . S
C896 H902 0.930 1_655 S
N897 Li880 1.990 1_655 S
N897 C896 1.314 . S
N897 C899 1.279 . S
C898 C899 1.358 . S
C898 C900 1.356 . S
C898 H952 0.930 . S
C899 N897 1.279 . S
C899 C898 1.358 . S
C899 H903 0.930 . S
C900 C898 1.356 . S
C900 C901 1.348 . S
C901 C896 1.353 . S
C901 C900 1.348 . S
C901 H953 0.929 . S
H902 C896 0.930 1_455 S
H903 C899 0.930 . S
C904 N905 1.314 . S
C904 C906 1.353 . S
C904 H910 0.930 . S
N905 Li881 1.990 . S
N905 C904 1.314 . S
N905 C908 1.279 . S
C906 C904 1.353 . S
C906 C909 1.348 . S
C906 H954 0.929 . S
C907 C908 1.358 . S
C907 C909 1.356 . S
C907 H955 0.930 . S
C908 N905 1.279 . S
C908 C907 1.358 . S
C908 H911 0.930 . S
C909 C906 1.348 . S
C909 C907 1.356 . S
H910 C904 0.930 . S
H911 C908 0.930 . S
C912 C914 1.348 . S
C912 C915 1.356 . S
C912 O942 1.325 . S
N913 C916 1.314 . S
N913 C917 1.279 . S
C914 C912 1.348 . S
C914 C916 1.353 . S
C914 H956 0.929 . S
C915 C912 1.356 . S
C915 C917 1.358 . S
C915 H957 0.930 . S
C916 N913 1.314 . S
C916 C914 1.353 . S
C916 H958 0.930 . S
C917 N913 1.279 . S
C917 C915 1.358 . S
C917 H959 0.930 . S
C918 C919 1.348 . S
C918 C920 1.356 . S
C918 O943 1.325 . S
C919 C918 1.348 . S
C919 C921 1.353 . S
C919 H960 0.929 . S
C920 C918 1.356 . S
C920 C922 1.358 . S
C920 H961 0.930 . S
C921 C919 1.353 . S
C921 N923 1.314 . S
C921 H962 0.930 . S
C922 C920 1.358 . S
C922 N923 1.279 . S
C922 H963 0.930 . S
N923 C921 1.314 . S
N923 C922 1.279 . S
C924 C926 1.353 . S
C924 N927 1.314 . S
C924 H930 0.930 . S
C925 N927 1.279 . S
C925 C928 1.358 . S
C925 H931 0.930 . S
C926 C924 1.353 . S
C926 C929 1.348 . S
C926 H964 0.929 . S
N927 Li882 1.990 . S
N927 C924 1.314 . S
N927 C925 1.279 . S
C928 C925 1.358 . S
C928 C929 1.356 . S
C928 H965 0.930 . S
C929 C926 1.348 . S
C929 C928 1.356 . S
H930 C924 0.930 . S
H931 C925 0.930 . S
C932 N933 1.314 . S
C932 C934 1.353 . S
C932 H938 0.930 . S
N933 Li883 1.990 . S
N933 C932 1.314 . S
N933 C936 1.279 . S
C934 C932 1.353 . S
C934 C937 1.348 . S
C934 H966 0.929 . S
C935 C936 1.358 . S
C935 C937 1.356 . S
C935 H967 0.930 . S
C936 N933 1.279 . S
C936 C935 1.358 . S
C936 H939 0.930 . S
C937 C934 1.348 . S
C937 C935 1.356 . S
H938 C932 0.930 . S
H939 C936 0.930 . S
O940 Li880 1.956 . S
O940 Li881 1.970 . S
O940 Li882 1.961 . S
O940 C884 1.326 1_455 S
O941 Li880 1.970 . S
O941 Li881 1.956 . S
O941 Li883 1.961 . S
O941 C890 1.325 . S
O942 Li880 1.961 . S
O942 Li882 1.956 . S
O942 Li883 1.970 . S
O942 C912 1.325 . S
O943 Li881 1.961 . S
O943 Li882 1.970 . S
O943 Li883 1.956 . S
O943 C918 1.325 . S
H944 C886 0.929 1_455 S
H945 C887 0.930 . S
H946 C888 0.930 . S
H947 C889 0.930 . S
H948 C891 0.930 . S
H949 C893 0.929 . S
H950 C894 0.930 . S
H951 C895 0.930 . S
H952 C898 0.930 . S
H953 C901 0.929 . S
H954 C906 0.929 . S
H955 C907 0.930 . S
H956 C914 0.929 . S
H957 C915 0.930 . S
H958 C916 0.930 . S
H959 C917 0.930 . S
H960 C919 0.929 . S
H961 C920 0.930 . S
H962 C921 0.930 . S
H963 C922 0.930 . S
H964 C926 0.929 . S
H965 C928 0.930 . S
H966 C934 0.929 . S
H967 C935 0.930 . S
Li968 N985 1.990 . S
Li968 O1028 1.956 . S
Li968 O1029 1.970 . S
Li968 O1030 1.961 . S
Li969 N993 1.990 1_545 S
Li969 O1028 1.970 . S
Li969 O1029 1.956 . S
Li969 O1031 1.961 . S
Li970 N1015 1.990 . S
Li970 O1028 1.961 . S
Li970 O1030 1.956 . S
Li970 O1031 1.970 . S
Li971 N1021 1.990 . S
Li971 O1029 1.961 . S
Li971 O1030 1.970 . S
Li971 O1031 1.956 . S
C972 C974 1.348 . S
C972 C975 1.356 . S
C972 O1028 1.325 . S
N973 C976 1.314 . S
N973 C977 1.279 . S
C974 C972 1.348 . S
C974 C976 1.353 . S
C974 H1032 0.929 . S
C975 C972 1.356 . S
C975 C977 1.358 . S
C975 H1033 0.930 . S
C976 N973 1.314 . S
C976 C974 1.353 . S
C976 H1034 0.930 . S
C977 N973 1.279 . S
C977 C975 1.358 . S
C977 H1035 0.930 . S
C978 C981 1.348 . S
C978 C982 1.356 . S
C978 O1029 1.325 1_565 S
C979 N980 1.279 . S
C979 C982 1.358 . S
C979 H1036 0.930 . S
N980 C979 1.279 . S
N980 C983 1.314 . S
C981 C978 1.348 . S
C981 C983 1.353 . S
C981 H1037 0.929 1_565 S
C982 C978 1.356 . S
C982 C979 1.358 . S
C982 H1038 0.930 . S
C983 N980 1.314 . S
C983 C981 1.353 . S
C983 H1039 0.930 . S
C984 N985 1.314 . S
C984 C989 1.353 . S
C984 H990 0.930 . S
N985 Li968 1.990 . S
N985 C984 1.314 . S
N985 C987 1.279 . S
C986 C987 1.358 . S
C986 C988 1.356 . S
C986 H1040 0.930 . S
C987 N985 1.279 . S
C987 C986 1.358 . S
C987 H991 0.930 . S
C988 C986 1.356 . S
C988 C989 1.348 . S
C989 C984 1.353 . S
C989 C988 1.348 . S
C989 H1041 0.929 . S
H990 C984 0.930 . S
H991 C987 0.930 . S
C992 N993 1.314 . S
C992 C994 1.353 . S
C992 H998 0.930 1_565 S
N993 Li969 1.990 1_565 S
N993 C992 1.314 . S
N993 C996 1.279 . S
C994 C992 1.353 . S
C994 C997 1.348 . S
C994 H1042 0.929 . S
C995 C996 1.358 . S
C995 C997 1.356 . S
C995 H1043 0.930 . S
C996 N993 1.279 . S
C996 C995 1.358 . S
C996 H999 0.930 . S
C997 C994 1.348 . S
C997 C995 1.356 . S
H998 C992 0.930 1_545 S
H999 C996 0.930 . S
C1000 C1002 1.348 . S
C1000 C1003 1.356 . S
C1000 O1030 1.325 . S
N1001 C1004 1.314 . S
N1001 C1005 1.279 . S
C1002 C1000 1.348 . S
C1002 C1004 1.353 . S
C1002 H1044 0.929 . S
C1003 C1000 1.356 . S
C1003 C1005 1.358 . S
C1003 H1045 0.930 . S
C1004 N1001 1.314 . S
C1004 C1002 1.353 . S
C1004 H1046 0.930 . S
C1005 N1001 1.279 . S
C1005 C1003 1.358 . S
C1005 H1047 0.930 . S
C1006 C1007 1.348 . S
C1006 C1008 1.356 . S
C1006 O1031 1.325 . S
C1007 C1006 1.348 . S
C1007 C1009 1.353 . S
C1007 H1048 0.929 . S
C1008 C1006 1.356 . S
C1008 C1010 1.358 . S
C1008 H1049 0.930 . S
C1009 C1007 1.353 . S
C1009 N1011 1.314 . S
C1009 H1050 0.930 . S
C1010 C1008 1.358 . S
C1010 N1011 1.279 . S
C1010 H1051 0.928 . S
N1011 C1009 1.314 . S
N1011 C1010 1.279 . S
C1012 C1014 1.353 . S
C1012 N1015 1.314 . S
C1012 H1018 0.930 . S
C1013 N1015 1.279 . S
C1013 C1016 1.358 . S
C1013 H1019 0.930 . S
C1014 C1012 1.353 . S
C1014 C1017 1.348 . S
C1014 H1052 0.929 . S
N1015 Li970 1.990 . S
N1015 C1012 1.314 . S
N1015 C1013 1.279 . S
C1016 C1013 1.358 . S
C1016 C1017 1.356 . S
C1016 H1053 0.930 . S
C1017 C1014 1.348 . S
C1017 C1016 1.356 . S
H1018 C1012 0.930 . S
H1019 C1013 0.930 . S
C1020 N1021 1.314 . S
C1020 C1022 1.353 . S
C1020 H1026 0.930 . S
N1021 Li971 1.990 . S
N1021 C1020 1.314 . S
N1021 C1024 1.279 . S
C1022 C1020 1.353 . S
C1022 C1025 1.348 . S
C1022 H1054 0.929 . S
C1023 C1024 1.358 . S
C1023 C1025 1.356 . S
C1023 H1055 0.930 . S
C1024 N1021 1.279 . S
C1024 C1023 1.358 . S
C1024 H1027 0.930 . S
C1025 C1022 1.348 . S
C1025 C1023 1.356 . S
H1026 C1020 0.930 . S
H1027 C1024 0.930 . S
O1028 Li968 1.956 . S
O1028 Li969 1.970 . S
O1028 Li970 1.961 . S
O1028 C972 1.325 . S
O1029 Li968 1.970 . S
O1029 Li969 1.956 . S
O1029 Li971 1.961 . S
O1029 C978 1.325 1_545 S
O1030 Li968 1.961 . S
O1030 Li970 1.956 . S
O1030 Li971 1.970 . S
O1030 C1000 1.325 . S
O1031 Li969 1.961 . S
O1031 Li970 1.970 . S
O1031 Li971 1.956 . S
O1031 C1006 1.325 . S
H1032 C974 0.929 . S
H1033 C975 0.930 . S
H1034 C976 0.930 . S
H1035 C977 0.930 . S
H1036 C979 0.930 . S
H1037 C981 0.929 1_545 S
H1038 C982 0.930 . S
H1039 C983 0.930 . S
H1040 C986 0.930 . S
H1041 C989 0.929 . S
H1042 C994 0.929 . S
H1043 C995 0.930 . S
H1044 C1002 0.929 . S
H1045 C1003 0.930 . S
H1046 C1004 0.930 . S
H1047 C1005 0.930 . S
H1048 C1007 0.929 . S
H1049 C1008 0.930 . S
H1050 C1009 0.930 . S
H1051 C1010 0.928 . S
H1052 C1014 0.929 . S
H1053 C1016 0.930 . S
H1054 C1022 0.929 . S
H1055 C1023 0.930 . S
H1056 C1062 0.930 . S
H1057 C1066 0.930 . S
H1058 C1071 0.929 . S
H1059 C1069 0.929 . S
H1060 C1064 0.929 . S
H1061 C1070 0.929 . S
C1062 H1056 0.930 . S
C1062 C1063 1.367 . S
C1062 C1070 1.378 . S
C1063 C1062 1.367 . S
C1063 C1071 1.433 . S
C1064 H1060 0.929 . S
C1064 C1066 1.378 . S
C1064 C1068 1.350 . S
C1065 C1068 1.463 1_655 S
C1065 C1070 1.350 . S
C1065 N1073 1.427 . S
C1066 H1057 0.930 . S
C1066 C1064 1.378 . S
C1066 C1067 1.367 . S
C1067 C1066 1.367 . S
C1067 C1069 1.433 . S
C1068 C1064 1.350 . S
C1068 C1065 1.463 1_455 S
C1068 N1072 1.427 . S
C1069 H1059 0.929 . S
C1069 C1067 1.433 . S
C1069 N1072 1.384 . S
C1070 H1061 0.929 . S
C1070 C1062 1.378 . S
C1070 C1065 1.350 . S
C1071 H1058 0.929 . S
C1071 C1063 1.433 . S
C1071 N1073 1.384 . S
N1072 C1068 1.427 . S
N1072 C1069 1.384 . S
N1073 C1065 1.427 . S
N1073 C1071 1.384 . S
H1074 C1080 0.930 . S
H1075 C1084 0.930 . S
H1076 C1089 0.929 . S
H1077 C1087 0.929 . S
H1078 C1082 0.929 . S
H1079 C1088 0.929 . S
C1080 H1074 0.930 . S
C1080 C1081 1.367 . S
C1080 C1088 1.378 . S
C1081 C1080 1.367 . S
C1081 C1089 1.433 . S
C1082 H1078 0.929 . S
C1082 C1084 1.378 . S
C1082 C1086 1.350 . S
C1083 C1086 1.463 1_545 S
C1083 C1088 1.350 . S
C1083 N1091 1.427 . S
C1084 H1075 0.930 . S
C1084 C1082 1.378 . S
C1084 C1085 1.367 . S
C1085 C1084 1.367 . S
C1085 C1087 1.433 . S
C1086 C1082 1.350 . S
C1086 C1083 1.463 1_565 S
C1086 N1090 1.427 . S
C1087 H1077 0.929 . S
C1087 C1085 1.433 . S
C1087 N1090 1.384 . S
C1088 H1079 0.929 . S
C1088 C1080 1.378 . S
C1088 C1083 1.350 . S
C1089 H1076 0.929 . S
C1089 C1081 1.433 . S
C1089 N1091 1.384 . S
N1090 C1086 1.427 . S
N1090 C1087 1.384 . S
N1091 C1083 1.427 . S
N1091 C1089 1.384 . S
H1092 C1098 0.930 . S
H1093 C1102 0.930 . S
H1094 C1107 0.929 . S
H1095 C1105 0.929 . S
H1096 C1100 0.929 . S
H1097 C1106 0.929 . S
C1098 H1092 0.930 . S
C1098 C1099 1.367 . S
C1098 C1106 1.378 . S
C1099 C1098 1.367 . S
C1099 C1107 1.433 . S
C1100 H1096 0.929 . S
C1100 C1102 1.378 . S
C1100 C1104 1.350 . S
C1101 C1104 1.463 . S
C1101 C1106 1.350 . S
C1101 N1109 1.427 . S
C1102 H1093 0.930 . S
C1102 C1100 1.378 . S
C1102 C1103 1.367 . S
C1103 C1102 1.367 . S
C1103 C1105 1.433 . S
C1104 C1100 1.350 . S
C1104 C1101 1.463 . S
C1104 N1108 1.427 . S
C1105 H1095 0.929 . S
C1105 C1103 1.433 . S
C1105 N1108 1.384 . S
C1106 H1097 0.929 . S
C1106 C1098 1.378 . S
C1106 C1101 1.350 . S
C1107 H1094 0.929 . S
C1107 C1099 1.433 . S
C1107 N1109 1.384 . S
N1108 C1104 1.427 . S
N1108 C1105 1.384 . S
N1109 C1101 1.427 . S
N1109 C1107 1.384 . S
H1110 C1116 0.930 . S
H1111 C1120 0.930 . S
H1112 C1125 0.929 . S
H1113 C1123 0.929 . S
H1114 C1118 0.929 . S
H1115 C1124 0.929 . S
C1116 H1110 0.930 . S
C1116 C1117 1.367 . S
C1116 C1124 1.378 . S
C1117 C1116 1.367 . S
C1117 C1125 1.433 . S
C1118 H1114 0.929 . S
C1118 C1120 1.378 . S
C1118 C1122 1.350 . S
C1119 C1122 1.463 1_655 S
C1119 C1124 1.350 . S
C1119 N1127 1.427 . S
C1120 H1111 0.930 . S
C1120 C1118 1.378 . S
C1120 C1121 1.367 . S
C1121 C1120 1.367 . S
C1121 C1123 1.433 . S
C1122 C1118 1.350 . S
C1122 C1119 1.463 1_455 S
C1122 N1126 1.427 . S
C1123 H1113 0.929 . S
C1123 C1121 1.433 . S
C1123 N1126 1.384 . S
C1124 H1115 0.929 . S
C1124 C1116 1.378 . S
C1124 C1119 1.350 . S
C1125 H1112 0.929 . S
C1125 C1117 1.433 . S
C1125 N1127 1.384 . S
N1126 C1122 1.427 . S
N1126 C1123 1.384 . S
N1127 C1119 1.427 . S
N1127 C1125 1.384 . S
H1128 C1134 0.930 . S
H1129 C1138 0.930 . S
H1130 C1143 0.929 . S
H1131 C1141 0.929 . S
H1132 C1136 0.929 . S
H1133 C1142 0.929 . S
C1134 H1128 0.930 . S
C1134 C1135 1.367 . S
C1134 C1142 1.378 . S
C1135 C1134 1.367 . S
C1135 C1143 1.433 . S
C1136 H1132 0.929 . S
C1136 C1138 1.378 . S
C1136 C1140 1.350 . S
C1137 C1140 1.463 1_545 S
C1137 C1142 1.350 . S
C1137 N1145 1.427 . S
C1138 H1129 0.930 . S
C1138 C1136 1.378 . S
C1138 C1139 1.367 . S
C1139 C1138 1.367 . S
C1139 C1141 1.433 . S
C1140 C1136 1.350 . S
C1140 C1137 1.463 1_565 S
C1140 N1144 1.427 . S
C1141 H1131 0.929 . S
C1141 C1139 1.433 . S
C1141 N1144 1.384 . S
C1142 H1133 0.929 . S
C1142 C1134 1.378 . S
C1142 C1137 1.350 . S
C1143 H1130 0.929 . S
C1143 C1135 1.433 . S
C1143 N1145 1.384 . S
N1144 C1140 1.427 . S
N1144 C1141 1.384 . S
N1145 C1137 1.427 . S
N1145 C1143 1.384 . S
H1146 C1152 0.930 . S
H1147 C1156 0.930 . S
H1148 C1161 0.929 . S
H1149 C1159 0.929 . S
H1150 C1154 0.929 . S
H1151 C1160 0.929 . S
C1152 H1146 0.930 . S
C1152 C1153 1.367 . S
C1152 C1160 1.378 . S
C1153 C1152 1.367 . S
C1153 C1161 1.433 . S
C1154 H1150 0.929 . S
C1154 C1156 1.378 . S
C1154 C1158 1.350 . S
C1155 C1158 1.463 . S
C1155 C1160 1.350 . S
C1155 N1163 1.427 . S
C1156 H1147 0.930 . S
C1156 C1154 1.378 . S
C1156 C1157 1.367 . S
C1157 C1156 1.367 . S
C1157 C1159 1.433 . S
C1158 C1154 1.350 . S
C1158 C1155 1.463 . S
C1158 N1162 1.427 . S
C1159 H1149 0.929 . S
C1159 C1157 1.433 . S
C1159 N1162 1.384 . S
C1160 H1151 0.929 . S
C1160 C1152 1.378 . S
C1160 C1155 1.350 . S
C1161 H1148 0.929 . S
C1161 C1153 1.433 . S
C1161 N1163 1.384 . S
N1162 C1158 1.427 . S
N1162 C1159 1.384 . S
N1163 C1155 1.427 . S
N1163 C1161 1.384 . S
H1164 C1170 0.930 . S
H1165 C1174 0.930 . S
H1166 C1179 0.929 . S
H1167 C1177 0.929 . S
H1168 C1172 0.929 . S
H1169 C1178 0.929 . S
C1170 H1164 0.930 . S
C1170 C1171 1.367 . S
C1170 C1178 1.378 . S
C1171 C1170 1.367 . S
C1171 C1179 1.433 . S
C1172 H1168 0.929 . S
C1172 C1174 1.378 . S
C1172 C1176 1.350 . S
C1173 C1176 1.463 . S
C1173 C1178 1.350 . S
C1173 N1181 1.427 . S
C1174 H1165 0.930 . S
C1174 C1172 1.378 . S
C1174 C1175 1.367 . S
C1175 C1174 1.367 . S
C1175 C1177 1.433 . S
C1176 C1172 1.350 . S
C1176 C1173 1.463 . S
C1176 N1180 1.427 . S
C1177 H1167 0.929 . S
C1177 C1175 1.433 . S
C1177 N1180 1.384 . S
C1178 H1169 0.929 . S
C1178 C1170 1.378 . S
C1178 C1173 1.350 . S
C1179 H1166 0.929 . S
C1179 C1171 1.433 . S
C1179 N1181 1.384 . S
N1180 C1176 1.427 . S
N1180 C1177 1.384 . S
N1181 C1173 1.427 . S
N1181 C1179 1.384 . S
H1182 C1188 0.930 . S
H1183 C1192 0.930 . S
H1184 C1197 0.929 . S
H1185 C1195 0.929 . S
H1186 C1190 0.929 . S
H1187 C1196 0.929 . S
C1188 H1182 0.930 . S
C1188 C1189 1.367 . S
C1188 C1196 1.378 . S
C1189 C1188 1.367 . S
C1189 C1197 1.433 . S
C1190 H1186 0.929 . S
C1190 C1192 1.378 . S
C1190 C1194 1.350 . S
C1191 C1194 1.463 1_455 S
C1191 C1196 1.350 . S
C1191 N1199 1.427 . S
C1192 H1183 0.930 . S
C1192 C1190 1.378 . S
C1192 C1193 1.367 . S
C1193 C1192 1.367 . S
C1193 C1195 1.433 . S
C1194 C1190 1.350 . S
C1194 C1191 1.463 1_655 S
C1194 N1198 1.427 . S
C1195 H1185 0.929 . S
C1195 C1193 1.433 . S
C1195 N1198 1.384 . S
C1196 H1187 0.929 . S
C1196 C1188 1.378 . S
C1196 C1191 1.350 . S
C1197 H1184 0.929 . S
C1197 C1189 1.433 . S
C1197 N1199 1.384 . S
N1198 C1194 1.427 . S
N1198 C1195 1.384 . S
N1199 C1191 1.427 . S
N1199 C1197 1.384 . S
H1200 C1206 0.930 . S
H1201 C1210 0.930 . S
H1202 C1215 0.929 . S
H1203 C1213 0.929 . S
H1204 C1208 0.929 . S
H1205 C1214 0.929 . S
C1206 H1200 0.930 . S
C1206 C1207 1.367 . S
C1206 C1214 1.378 . S
C1207 C1206 1.367 . S
C1207 C1215 1.433 . S
C1208 H1204 0.929 . S
C1208 C1210 1.378 . S
C1208 C1212 1.350 . S
C1209 C1212 1.463 1_545 S
C1209 C1214 1.350 . S
C1209 N1217 1.427 . S
C1210 H1201 0.930 . S
C1210 C1208 1.378 . S
C1210 C1211 1.367 . S
C1211 C1210 1.367 . S
C1211 C1213 1.433 . S
C1212 C1208 1.350 . S
C1212 C1209 1.463 1_565 S
C1212 N1216 1.427 . S
C1213 H1203 0.929 . S
C1213 C1211 1.433 . S
C1213 N1216 1.384 . S
C1214 H1205 0.929 . S
C1214 C1206 1.378 . S
C1214 C1209 1.350 . S
C1215 H1202 0.929 . S
C1215 C1207 1.433 . S
C1215 N1217 1.384 . S
N1216 C1212 1.427 . S
N1216 C1213 1.384 . S
N1217 C1209 1.427 . S
N1217 C1215 1.384 . S
H1218 C1224 0.930 . S
H1219 C1228 0.930 . S
H1220 C1233 0.929 . S
H1221 C1231 0.929 . S
H1222 C1226 0.929 . S
H1223 C1232 0.929 . S
C1224 H1218 0.930 . S
C1224 C1225 1.367 . S
C1224 C1232 1.378 . S
C1225 C1224 1.367 . S
C1225 C1233 1.433 . S
C1226 H1222 0.929 . S
C1226 C1228 1.378 . S
C1226 C1230 1.350 . S
C1227 C1230 1.463 . S
C1227 C1232 1.350 . S
C1227 N1235 1.427 . S
C1228 H1219 0.930 . S
C1228 C1226 1.378 . S
C1228 C1229 1.367 . S
C1229 C1228 1.367 . S
C1229 C1231 1.433 . S
C1230 C1226 1.350 . S
C1230 C1227 1.463 . S
C1230 N1234 1.427 . S
C1231 H1221 0.929 . S
C1231 C1229 1.433 . S
C1231 N1234 1.384 . S
C1232 H1223 0.929 . S
C1232 C1224 1.378 . S
C1232 C1227 1.350 . S
C1233 H1220 0.929 . S
C1233 C1225 1.433 . S
C1233 N1235 1.384 . S
N1234 C1230 1.427 . S
N1234 C1231 1.384 . S
N1235 C1227 1.427 . S
N1235 C1233 1.384 . S
H1236 C1242 0.930 . S
H1237 C1246 0.930 . S
H1238 C1251 0.929 . S
H1239 C1249 0.929 . S
H1240 C1244 0.929 . S
H1241 C1250 0.929 . S
C1242 H1236 0.930 . S
C1242 C1243 1.367 . S
C1242 C1250 1.378 . S
C1243 C1242 1.367 . S
C1243 C1251 1.433 . S
C1244 H1240 0.929 . S
C1244 C1246 1.378 . S
C1244 C1248 1.350 . S
C1245 C1248 1.463 1_655 S
C1245 C1250 1.350 . S
C1245 N1253 1.427 . S
C1246 H1237 0.930 . S
C1246 C1244 1.378 . S
C1246 C1247 1.367 . S
C1247 C1246 1.367 . S
C1247 C1249 1.433 . S
C1248 C1244 1.350 . S
C1248 C1245 1.463 1_455 S
C1248 N1252 1.427 . S
C1249 H1239 0.929 . S
C1249 C1247 1.433 . S
C1249 N1252 1.384 . S
C1250 H1241 0.929 . S
C1250 C1242 1.378 . S
C1250 C1245 1.350 . S
C1251 H1238 0.929 . S
C1251 C1243 1.433 . S
C1251 N1253 1.384 . S
N1252 C1248 1.427 . S
N1252 C1249 1.384 . S
N1253 C1245 1.427 . S
N1253 C1251 1.384 . S
H1254 C1260 0.930 . S
H1255 C1264 0.930 . S
H1256 C1269 0.929 . S
H1257 C1267 0.929 . S
H1258 C1262 0.929 . S
H1259 C1268 0.929 . S
C1260 H1254 0.930 . S
C1260 C1261 1.367 . S
C1260 C1268 1.378 . S
C1261 C1260 1.367 . S
C1261 C1269 1.433 . S
C1262 H1258 0.929 . S
C1262 C1264 1.378 . S
C1262 C1266 1.350 . S
C1263 C1266 1.463 1_565 S
C1263 C1268 1.350 . S
C1263 N1271 1.427 . S
C1264 H1255 0.930 . S
C1264 C1262 1.378 . S
C1264 C1265 1.367 . S
C1265 C1264 1.367 . S
C1265 C1267 1.433 . S
C1266 C1262 1.350 . S
C1266 C1263 1.463 1_545 S
C1266 N1270 1.427 . S
C1267 H1257 0.929 . S
C1267 C1265 1.433 . S
C1267 N1270 1.384 . S
C1268 H1259 0.929 . S
C1268 C1260 1.378 . S
C1268 C1263 1.350 . S
C1269 H1256 0.929 . S
C1269 C1261 1.433 . S
C1269 N1271 1.384 . S
N1270 C1266 1.427 . S
N1270 C1267 1.384 . S
N1271 C1263 1.427 . S
N1271 C1269 1.384 . S
H1272 C1278 0.930 . S
H1273 C1282 0.930 . S
H1274 C1287 0.929 . S
H1275 C1285 0.929 . S
H1276 C1280 0.929 . S
H1277 C1286 0.929 . S
C1278 H1272 0.930 . S
C1278 C1279 1.367 . S
C1278 C1286 1.378 . S
C1279 C1278 1.367 . S
C1279 C1287 1.433 . S
C1280 H1276 0.929 . S
C1280 C1282 1.378 . S
C1280 C1284 1.350 . S
C1281 C1284 1.463 . S
C1281 C1286 1.350 . S
C1281 N1289 1.427 . S
C1282 H1273 0.930 . S
C1282 C1280 1.378 . S
C1282 C1283 1.367 . S
C1283 C1282 1.367 . S
C1283 C1285 1.433 . S
C1284 C1280 1.350 . S
C1284 C1281 1.463 . S
C1284 N1288 1.427 . S
C1285 H1275 0.929 . S
C1285 C1283 1.433 . S
C1285 N1288 1.384 . S
C1286 H1277 0.929 . S
C1286 C1278 1.378 . S
C1286 C1281 1.350 . S
C1287 H1274 0.929 . S
C1287 C1279 1.433 . S
C1287 N1289 1.384 . S
N1288 C1284 1.427 . S
N1288 C1285 1.384 . S
N1289 C1281 1.427 . S
N1289 C1287 1.384 . S
H1290 C1296 0.930 . S
H1291 C1300 0.930 . S
H1292 C1305 0.929 . S
H1293 C1303 0.929 . S
H1294 C1298 0.929 . S
H1295 C1304 0.929 . S
C1296 H1290 0.930 . S
C1296 C1297 1.367 . S
C1296 C1304 1.378 . S
C1297 C1296 1.367 . S
C1297 C1305 1.433 . S
C1298 H1294 0.929 . S
C1298 C1300 1.378 . S
C1298 C1302 1.350 . S
C1299 C1302 1.463 . S
C1299 C1304 1.350 . S
C1299 N1307 1.427 . S
C1300 H1291 0.930 . S
C1300 C1298 1.378 . S
C1300 C1301 1.367 . S
C1301 C1300 1.367 . S
C1301 C1303 1.433 . S
C1302 C1298 1.350 . S
C1302 C1299 1.463 . S
C1302 N1306 1.427 . S
C1303 H1293 0.929 . S
C1303 C1301 1.433 . S
C1303 N1306 1.384 . S
C1304 H1295 0.929 . S
C1304 C1296 1.378 . S
C1304 C1299 1.350 . S
C1305 H1292 0.929 . S
C1305 C1297 1.433 . S
C1305 N1307 1.384 . S
N1306 C1302 1.427 . S
N1306 C1303 1.384 . S
N1307 C1299 1.427 . S
N1307 C1305 1.384 . S
H1308 C1314 0.930 . S
H1309 C1318 0.930 . S
H1310 C1323 0.929 . S
H1311 C1321 0.929 . S
H1312 C1316 0.929 . S
H1313 C1322 0.929 . S
C1314 H1308 0.930 . S
C1314 C1315 1.367 . S
C1314 C1322 1.378 . S
C1315 C1314 1.367 . S
C1315 C1323 1.433 . S
C1316 H1312 0.929 . S
C1316 C1318 1.378 . S
C1316 C1320 1.350 . S
C1317 C1320 1.463 . S
C1317 C1322 1.350 . S
C1317 N1325 1.427 . S
C1318 H1309 0.930 . S
C1318 C1316 1.378 . S
C1318 C1319 1.367 . S
C1319 C1318 1.367 . S
C1319 C1321 1.433 . S
C1320 C1316 1.350 . S
C1320 C1317 1.463 . S
C1320 N1324 1.427 . S
C1321 H1311 0.929 . S
C1321 C1319 1.433 . S
C1321 N1324 1.384 . S
C1322 H1313 0.929 . S
C1322 C1314 1.378 . S
C1322 C1317 1.350 . S
C1323 H1310 0.929 . S
C1323 C1315 1.433 . S
C1323 N1325 1.384 . S
N1324 C1320 1.427 . S
N1324 C1321 1.384 . S
N1325 C1317 1.427 . S
N1325 C1323 1.384 . S
H1326 C1332 0.930 . S
H1327 C1336 0.930 . S
H1328 C1341 0.929 . S
H1329 C1339 0.929 . S
H1330 C1334 0.929 . S
H1331 C1340 0.929 . S
C1332 H1326 0.930 . S
C1332 C1333 1.367 . S
C1332 C1340 1.378 . S
C1333 C1332 1.367 . S
C1333 C1341 1.433 . S
C1334 H1330 0.929 . S
C1334 C1336 1.378 . S
C1334 C1338 1.350 . S
C1335 C1338 1.463 . S
C1335 C1340 1.350 . S
C1335 N1343 1.427 . S
C1336 H1327 0.930 . S
C1336 C1334 1.378 . S
C1336 C1337 1.367 . S
C1337 C1336 1.367 . S
C1337 C1339 1.433 . S
C1338 C1334 1.350 . S
C1338 C1335 1.463 . S
C1338 N1342 1.427 . S
C1339 H1329 0.929 . S
C1339 C1337 1.433 . S
C1339 N1342 1.384 . S
C1340 H1331 0.929 . S
C1340 C1332 1.378 . S
C1340 C1335 1.350 . S
C1341 H1328 0.929 . S
C1341 C1333 1.433 . S
C1341 N1343 1.384 . S
N1342 C1338 1.427 . S
N1342 C1339 1.384 . S
N1343 C1335 1.427 . S
N1343 C1341 1.384 . S
H1344 C1350 0.930 . S
H1345 C1354 0.930 . S
H1346 C1359 0.929 . S
H1347 C1357 0.929 . S
H1348 C1352 0.929 . S
H1349 C1358 0.929 . S
C1350 H1344 0.930 . S
C1350 C1351 1.367 . S
C1350 C1358 1.378 . S
C1351 C1350 1.367 . S
C1351 C1359 1.433 . S
C1352 H1348 0.929 . S
C1352 C1354 1.378 . S
C1352 C1356 1.350 . S
C1353 C1356 1.463 . S
C1353 C1358 1.350 . S
C1353 N1361 1.427 . S
C1354 H1345 0.930 . S
C1354 C1352 1.378 . S
C1354 C1355 1.367 . S
C1355 C1354 1.367 . S
C1355 C1357 1.433 . S
C1356 C1352 1.350 . S
C1356 C1353 1.463 . S
C1356 N1360 1.427 . S
C1357 H1347 0.929 . S
C1357 C1355 1.433 . S
C1357 N1360 1.384 . S
C1358 H1349 0.929 . S
C1358 C1350 1.378 . S
C1358 C1353 1.350 . S
C1359 H1346 0.929 . S
C1359 C1351 1.433 . S
C1359 N1361 1.384 . S
N1360 C1356 1.427 . S
N1360 C1357 1.384 . S
N1361 C1353 1.427 . S
N1361 C1359 1.384 . S
H1362 C1368 0.930 . S
H1363 C1372 0.930 . S
H1364 C1377 0.929 . S
H1365 C1375 0.929 . S
H1366 C1370 0.929 . S
H1367 C1376 0.929 . S
C1368 H1362 0.930 . S
C1368 C1369 1.367 . S
C1368 C1376 1.378 . S
C1369 C1368 1.367 . S
C1369 C1377 1.433 . S
C1370 H1366 0.929 . S
C1370 C1372 1.378 . S
C1370 C1374 1.350 . S
C1371 C1374 1.463 . S
C1371 C1376 1.350 . S
C1371 N1379 1.427 . S
C1372 H1363 0.930 . S
C1372 C1370 1.378 . S
C1372 C1373 1.367 . S
C1373 C1372 1.367 . S
C1373 C1375 1.433 . S
C1374 C1370 1.350 . S
C1374 C1371 1.463 . S
C1374 N1378 1.427 . S
C1375 H1365 0.929 . S
C1375 C1373 1.433 . S
C1375 N1378 1.384 . S
C1376 H1367 0.929 . S
C1376 C1368 1.378 . S
C1376 C1371 1.350 . S
C1377 H1364 0.929 . S
C1377 C1369 1.433 . S
C1377 N1379 1.384 . S
N1378 C1374 1.427 . S
N1378 C1375 1.384 . S
N1379 C1371 1.427 . S
N1379 C1377 1.384 . S
H1380 C1386 0.930 . S
H1381 C1390 0.930 . S
H1382 C1395 0.929 . S
H1383 C1393 0.929 . S
H1384 C1388 0.929 . S
H1385 C1394 0.929 . S
C1386 H1380 0.930 . S
C1386 C1387 1.367 . S
C1386 C1394 1.378 . S
C1387 C1386 1.367 . S
C1387 C1395 1.433 . S
C1388 H1384 0.929 . S
C1388 C1390 1.378 . S
C1388 C1392 1.350 . S
C1389 C1392 1.463 . S
C1389 C1394 1.350 . S
C1389 N1397 1.427 . S
C1390 H1381 0.930 . S
C1390 C1388 1.378 . S
C1390 C1391 1.367 . S
C1391 C1390 1.367 . S
C1391 C1393 1.433 . S
C1392 C1388 1.350 . S
C1392 C1389 1.463 . S
C1392 N1396 1.427 . S
C1393 H1383 0.929 . S
C1393 C1391 1.433 . S
C1393 N1396 1.384 . S
C1394 H1385 0.929 . S
C1394 C1386 1.378 . S
C1394 C1389 1.350 . S
C1395 H1382 0.929 . S
C1395 C1387 1.433 . S
C1395 N1397 1.384 . S
N1396 C1392 1.427 . S
N1396 C1393 1.384 . S
N1397 C1389 1.427 . S
N1397 C1395 1.384 . S
H1398 C1404 0.930 . S
H1399 C1408 0.930 . S
H1400 C1413 0.929 . S
H1401 C1411 0.929 . S
H1402 C1406 0.929 . S
H1403 C1412 0.929 . S
C1404 H1398 0.930 . S
C1404 C1405 1.367 . S
C1404 C1412 1.378 . S
C1405 C1404 1.367 . S
C1405 C1413 1.433 . S
C1406 H1402 0.929 . S
C1406 C1408 1.378 . S
C1406 C1410 1.350 . S
C1407 C1410 1.463 1_655 S
C1407 C1412 1.350 . S
C1407 N1415 1.427 . S
C1408 H1399 0.930 . S
C1408 C1406 1.378 . S
C1408 C1409 1.367 . S
C1409 C1408 1.367 . S
C1409 C1411 1.433 . S
C1410 C1406 1.350 . S
C1410 C1407 1.463 1_455 S
C1410 N1414 1.427 . S
C1411 H1401 0.929 . S
C1411 C1409 1.433 . S
C1411 N1414 1.384 . S
C1412 H1403 0.929 . S
C1412 C1404 1.378 . S
C1412 C1407 1.350 . S
C1413 H1400 0.929 . S
C1413 C1405 1.433 . S
C1413 N1415 1.384 . S
N1414 C1410 1.427 . S
N1414 C1411 1.384 . S
N1415 C1407 1.427 . S
N1415 C1413 1.384 . S
H1416 C1422 0.930 . S
H1417 C1426 0.930 . S
H1418 C1431 0.929 1_565 S
H1419 C1429 0.929 1_545 S
H1420 C1424 0.914 1_554 S
H1421 C1430 0.914 1_556 S
C1422 H1416 0.930 . S
C1422 C1423 1.367 . S
C1422 C1430 1.378 . S
C1423 C1422 1.367 . S
C1423 C1431 1.433 . S
C1424 H1420 0.914 1_556 S
C1424 C1426 1.378 . S
C1424 C1428 1.350 . S
C1425 C1428 1.463 1_544 S
C1425 C1430 1.350 . S
C1425 N1433 1.427 1_545 S
C1426 H1417 0.930 . S
C1426 C1424 1.378 . S
C1426 C1427 1.367 . S
C1427 C1426 1.367 . S
C1427 C1429 1.433 . S
C1428 C1424 1.350 . S
C1428 C1425 1.463 1_566 S
C1428 N1432 1.427 1_565 S
C1429 H1419 0.929 1_565 S
C1429 C1427 1.433 . S
C1429 N1432 1.384 1_565 S
C1430 H1421 0.914 1_554 S
C1430 C1422 1.378 . S
C1430 C1425 1.350 . S
C1431 H1418 0.929 1_545 S
C1431 C1423 1.433 . S
C1431 N1433 1.384 1_545 S
N1432 C1428 1.427 1_545 S
N1432 C1429 1.384 1_545 S
N1433 C1425 1.427 1_565 S
N1433 C1431 1.384 1_565 S
H1434 C1440 0.930 . S
H1435 C1444 0.930 . S
H1436 C1449 0.929 . S
H1437 C1447 0.929 . S
H1438 C1442 0.929 . S
H1439 C1448 0.929 . S
C1440 H1434 0.930 . S
C1440 C1441 1.367 . S
C1440 C1448 1.378 . S
C1441 C1440 1.367 . S
C1441 C1449 1.433 . S
C1442 H1438 0.929 . S
C1442 C1444 1.378 . S
C1442 C1446 1.350 . S
C1443 C1446 1.463 . S
C1443 C1448 1.350 . S
C1443 N1451 1.427 . S
C1444 H1435 0.930 . S
C1444 C1442 1.378 . S
C1444 C1445 1.367 . S
C1445 C1444 1.367 . S
C1445 C1447 1.433 . S
C1446 C1442 1.350 . S
C1446 C1443 1.463 . S
C1446 N1450 1.427 . S
C1447 H1437 0.929 . S
C1447 C1445 1.433 . S
C1447 N1450 1.384 . S
C1448 H1439 0.929 . S
C1448 C1440 1.378 . S
C1448 C1443 1.350 . S
C1449 H1436 0.929 . S
C1449 C1441 1.433 . S
C1449 N1451 1.384 . S
N1450 C1446 1.427 . S
N1450 C1447 1.384 . S
N1451 C1443 1.427 . S
N1451 C1449 1.384 . S
H1452 C1458 0.930 . S
H1453 C1462 0.930 . S
H1454 C1467 0.929 . S
H1455 C1465 0.929 . S
H1456 C1460 0.929 . S
H1457 C1466 0.929 . S
C1458 H1452 0.930 . S
C1458 C1459 1.367 . S
C1458 C1466 1.378 . S
C1459 C1458 1.367 . S
C1459 C1467 1.433 . S
C1460 H1456 0.929 . S
C1460 C1462 1.378 . S
C1460 C1464 1.350 . S
C1461 C1464 1.463 1_455 S
C1461 C1466 1.350 . S
C1461 N1469 1.427 . S
C1462 H1453 0.930 . S
C1462 C1460 1.378 . S
C1462 C1463 1.367 . S
C1463 C1462 1.367 . S
C1463 C1465 1.433 . S
C1464 C1460 1.350 . S
C1464 C1461 1.463 1_655 S
C1464 N1468 1.427 . S
C1465 H1455 0.929 . S
C1465 C1463 1.433 . S
C1465 N1468 1.384 . S
C1466 H1457 0.929 . S
C1466 C1458 1.378 . S
C1466 C1461 1.350 . S
C1467 H1454 0.929 . S
C1467 C1459 1.433 . S
C1467 N1469 1.384 . S
N1468 C1464 1.427 . S
N1468 C1465 1.384 . S
N1469 C1461 1.427 . S
N1469 C1467 1.384 . S
H1470 C1476 0.930 . S
H1471 C1480 0.930 . S
H1472 C1485 0.928 1_545 S
H1473 C1483 0.928 1_565 S
H1474 C1478 0.929 . S
H1475 C1484 0.929 . S
C1476 H1470 0.930 . S
C1476 C1477 1.367 . S
C1476 C1484 1.378 . S
C1477 C1476 1.367 . S
C1477 C1485 1.433 . S
C1478 H1474 0.929 . S
C1478 C1480 1.378 . S
C1478 C1482 1.350 . S
C1479 C1482 1.463 1_564 S
C1479 C1484 1.350 . S
C1479 N1487 1.427 1_565 S
C1480 H1471 0.930 . S
C1480 C1478 1.378 . S
C1480 C1481 1.367 . S
C1481 C1480 1.367 . S
C1481 C1483 1.433 . S
C1482 C1478 1.350 . S
C1482 C1479 1.463 1_546 S
C1482 N1486 1.427 1_545 S
C1483 H1473 0.928 1_545 S
C1483 C1481 1.433 . S
C1483 N1486 1.384 1_545 S
C1484 H1475 0.929 . S
C1484 C1476 1.378 . S
C1484 C1479 1.350 . S
C1485 H1472 0.928 1_565 S
C1485 C1477 1.433 . S
C1485 N1487 1.384 1_565 S
N1486 C1482 1.427 1_565 S
N1486 C1483 1.384 1_565 S
N1487 C1479 1.427 1_545 S
N1487 C1485 1.384 1_545 S
C1063 C1017 1.730 . S
C1067 C20 1.731 . S
C1081 C108 1.729 . S
C1085 C585 1.732 . S
C1099 C205 1.734 . S
C1103 C673 1.726 . S
C1117 C284 1.728 . S
C1121 C761 1.733 . S
C1135 C841 1.733 . S
C1139 C372 1.728 . S
C1153 C469 1.733 . S
C1157 C937 1.728 . S
C1171 C313 1.602 . S
C1175 C49 1.597 . S
C1189 C401 1.605 . S
C1193 C137 1.600 . S
C1207 C497 1.604 . S
C1211 C233 1.599 . S
C1225 C557 1.600 . S
C1229 C812 1.605 . S
C1243 C645 1.612 . S
C1247 C909 1.608 . S
C1261 C733 1.607 . S
C1265 C988 1.602 . S
C1279 C724 0.331 . S
C1283 C57 0.331 . S
C1297 C145 0.330 . S
C1301 C821 0.331 . S
C1315 C900 0.329 . S
C1319 C225 0.331 . S
C1333 C997 0.305 . S
C1337 C321 0.310 . S
C1351 C548 0.316 . S
C1355 C409 0.326 . S
C1369 C489 0.305 . S
C1373 C636 0.312 . S
C1387 C849 1.738 . S
C1391 C29 1.737 . S
C1405 C117 1.734 . S
C1409 C929 1.735 . S
C1423 C1025 1.739 . S
C1427 C196 1.738 . S
C1441 C293 1.738 . S
C1445 C577 1.739 . S
C1459 C381 1.735 . S
C1463 C665 1.736 . S
C1477 C753 1.738 . S
C1481 C460 1.737 . S
