# Generated by pormake.
# Topology wnd, (6)-cn, num edge types: 1
# Building blocks:
#     Node 0, Type 0, BuildingBlock: BETDAH_clean_sbu_0, # of connection points: 6
#     Node 1, Type 0, BuildingBlock: BETDAH_clean_sbu_0, # of connection points: 6
#     Node 2, Type 0, BuildingBlock: BETDAH_clean_sbu_0, # of connection points: 6
#     Node 3, Type 0, BuildingBlock: BETDAH_clean_sbu_0, # of connection points: 6
#     Node 4, Type 0, BuildingBlock: BETDAH_clean_sbu_0, # of connection points: 6
#     Node 5, Type 0, BuildingBlock: BETDAH_clean_sbu_0, # of connection points: 6
#     Node 6, Type 0, BuildingBlock: BETDAH_clean_sbu_0, # of connection points: 6
#     Node 7, Type 0, BuildingBlock: BETDAH_clean_sbu_0, # of connection points: 6
#     Node 8, Type 0, BuildingBlock: BETDAH_clean_sbu_0, # of connection points: 6
#     Node 9, Type 0, BuildingBlock: BETDAH_clean_sbu_0, # of connection points: 6
#     Node 10, Type 0, BuildingBlock: BETDAH_clean_sbu_0, # of connection points: 6
#     Node 11, Type 0, BuildingBlock: BETDAH_clean_sbu_0, # of connection points: 6
#     Node 12, Type 0, BuildingBlock: BETDAH_clean_sbu_0, # of connection points: 6
#     Node 13, Type 0, BuildingBlock: BETDAH_clean_sbu_0, # of connection points: 6
#     Node 14, Type 0, BuildingBlock: BETDAH_clean_sbu_0, # of connection points: 6
#     Node 15, Type 0, BuildingBlock: BETDAH_clean_sbu_0, # of connection points: 6
#     Node 16, Type 0, BuildingBlock: BETDAH_clean_sbu_0, # of connection points: 6
#     Node 17, Type 0, BuildingBlock: BETDAH_clean_sbu_0, # of connection points: 6
#     Node 18, Type 0, BuildingBlock: BETDAH_clean_sbu_0, # of connection points: 6
#     Node 19, Type 0, BuildingBlock: BETDAH_clean_sbu_0, # of connection points: 6
#     Node 20, Type 0, BuildingBlock: BETDAH_clean_sbu_0, # of connection points: 6
#     Node 21, Type 0, BuildingBlock: BETDAH_clean_sbu_0, # of connection points: 6
#     Node 22, Type 0, BuildingBlock: BETDAH_clean_sbu_0, # of connection points: 6
#     Node 23, Type 0, BuildingBlock: BETDAH_clean_sbu_0, # of connection points: 6
#     Node 24, Type 0, BuildingBlock: BETDAH_clean_sbu_0, # of connection points: 6
#     Node 25, Type 0, BuildingBlock: BETDAH_clean_sbu_0, # of connection points: 6
#     Node 26, Type 0, BuildingBlock: BETDAH_clean_sbu_0, # of connection points: 6
#     Node 27, Type 0, BuildingBlock: BETDAH_clean_sbu_0, # of connection points: 6
#     Node 28, Type 0, BuildingBlock: BETDAH_clean_sbu_0, # of connection points: 6
#     Node 29, Type 0, BuildingBlock: BETDAH_clean_sbu_0, # of connection points: 6
#     Node 30, Type 0, BuildingBlock: BETDAH_clean_sbu_0, # of connection points: 6
#     Node 31, Type 0, BuildingBlock: BETDAH_clean_sbu_0, # of connection points: 6
#     Node 32, Type 0, BuildingBlock: BETDAH_clean_sbu_0, # of connection points: 6
#     Node 33, Type 0, BuildingBlock: BETDAH_clean_sbu_0, # of connection points: 6
#     Node 34, Type 0, BuildingBlock: BETDAH_clean_sbu_0, # of connection points: 6
#     Node 35, Type 0, BuildingBlock: BETDAH_clean_sbu_0, # of connection points: 6
#     Edge 36, Type (0, 0), BuildingBlock: ZUJKAS_clean_linker_0, # of connection points: 2
#     Edge 37, Type (0, 0), BuildingBlock: ZUJKAS_clean_linker_0, # of connection points: 2
#     Edge 38, Type (0, 0), BuildingBlock: ZUJKAS_clean_linker_0, # of connection points: 2
#     Edge 39, Type (0, 0), BuildingBlock: ZUJKAS_clean_linker_0, # of connection points: 2
#     Edge 40, Type (0, 0), BuildingBlock: ZUJKAS_clean_linker_0, # of connection points: 2
#     Edge 41, Type (0, 0), BuildingBlock: ZUJKAS_clean_linker_0, # of connection points: 2
#     Edge 42, Type (0, 0), BuildingBlock: ZUJKAS_clean_linker_0, # of connection points: 2
#     Edge 43, Type (0, 0), BuildingBlock: ZUJKAS_clean_linker_0, # of connection points: 2
#     Edge 44, Type (0, 0), BuildingBlock: ZUJKAS_clean_linker_0, # of connection points: 2
#     Edge 45, Type (0, 0), BuildingBlock: ZUJKAS_clean_linker_0, # of connection points: 2
#     Edge 46, Type (0, 0), BuildingBlock: ZUJKAS_clean_linker_0, # of connection points: 2
#     Edge 47, Type (0, 0), BuildingBlock: ZUJKAS_clean_linker_0, # of connection points: 2
#     Edge 48, Type (0, 0), BuildingBlock: ZUJKAS_clean_linker_0, # of connection points: 2
#     Edge 49, Type (0, 0), BuildingBlock: ZUJKAS_clean_linker_0, # of connection points: 2
#     Edge 50, Type (0, 0), BuildingBlock: ZUJKAS_clean_linker_0, # of connection points: 2
#     Edge 51, Type (0, 0), BuildingBlock: ZUJKAS_clean_linker_0, # of connection points: 2
#     Edge 52, Type (0, 0), BuildingBlock: ZUJKAS_clean_linker_0, # of connection points: 2
#     Edge 53, Type (0, 0), BuildingBlock: ZUJKAS_clean_linker_0, # of connection points: 2
#     Edge 54, Type (0, 0), BuildingBlock: ZUJKAS_clean_linker_0, # of connection points: 2
#     Edge 55, Type (0, 0), BuildingBlock: ZUJKAS_clean_linker_0, # of connection points: 2
#     Edge 56, Type (0, 0), BuildingBlock: ZUJKAS_clean_linker_0, # of connection points: 2
#     Edge 57, Type (0, 0), BuildingBlock: ZUJKAS_clean_linker_0, # of connection points: 2
#     Edge 58, Type (0, 0), BuildingBlock: ZUJKAS_clean_linker_0, # of connection points: 2
#     Edge 59, Type (0, 0), BuildingBlock: ZUJKAS_clean_linker_0, # of connection points: 2
#     Edge 60, Type (0, 0), BuildingBlock: ZUJKAS_clean_linker_0, # of connection points: 2
#     Edge 61, Type (0, 0), BuildingBlock: ZUJKAS_clean_linker_0, # of connection points: 2
#     Edge 62, Type (0, 0), BuildingBlock: ZUJKAS_clean_linker_0, # of connection points: 2
#     Edge 63, Type (0, 0), BuildingBlock: ZUJKAS_clean_linker_0, # of connection points: 2
#     Edge 64, Type (0, 0), BuildingBlock: ZUJKAS_clean_linker_0, # of connection points: 2
#     Edge 65, Type (0, 0), BuildingBlock: ZUJKAS_clean_linker_0, # of connection points: 2
#     Edge 66, Type (0, 0), BuildingBlock: ZUJKAS_clean_linker_0, # of connection points: 2
#     Edge 67, Type (0, 0), BuildingBlock: ZUJKAS_clean_linker_0, # of connection points: 2
#     Edge 68, Type (0, 0), BuildingBlock: ZUJKAS_clean_linker_0, # of connection points: 2
#     Edge 69, Type (0, 0), BuildingBlock: ZUJKAS_clean_linker_0, # of connection points: 2
#     Edge 70, Type (0, 0), BuildingBlock: ZUJKAS_clean_linker_0, # of connection points: 2
#     Edge 71, Type (0, 0), BuildingBlock: ZUJKAS_clean_linker_0, # of connection points: 2
#     Edge 72, Type (0, 0), BuildingBlock: ZUJKAS_clean_linker_0, # of connection points: 2
#     Edge 73, Type (0, 0), BuildingBlock: ZUJKAS_clean_linker_0, # of connection points: 2
#     Edge 74, Type (0, 0), BuildingBlock: ZUJKAS_clean_linker_0, # of connection points: 2
#     Edge 75, Type (0, 0), BuildingBlock: ZUJKAS_clean_linker_0, # of connection points: 2
#     Edge 76, Type (0, 0), BuildingBlock: ZUJKAS_clean_linker_0, # of connection points: 2
#     Edge 77, Type (0, 0), BuildingBlock: ZUJKAS_clean_linker_0, # of connection points: 2
#     Edge 78, Type (0, 0), BuildingBlock: ZUJKAS_clean_linker_0, # of connection points: 2
#     Edge 79, Type (0, 0), BuildingBlock: ZUJKAS_clean_linker_0, # of connection points: 2
#     Edge 80, Type (0, 0), BuildingBlock: ZUJKAS_clean_linker_0, # of connection points: 2
#     Edge 81, Type (0, 0), BuildingBlock: ZUJKAS_clean_linker_0, # of connection points: 2
#     Edge 82, Type (0, 0), BuildingBlock: ZUJKAS_clean_linker_0, # of connection points: 2
#     Edge 83, Type (0, 0), BuildingBlock: ZUJKAS_clean_linker_0, # of connection points: 2
#     Edge 84, Type (0, 0), BuildingBlock: ZUJKAS_clean_linker_0, # of connection points: 2
#     Edge 85, Type (0, 0), BuildingBlock: ZUJKAS_clean_linker_0, # of connection points: 2
#     Edge 86, Type (0, 0), BuildingBlock: ZUJKAS_clean_linker_0, # of connection points: 2
#     Edge 87, Type (0, 0), BuildingBlock: ZUJKAS_clean_linker_0, # of connection points: 2
#     Edge 88, Type (0, 0), BuildingBlock: ZUJKAS_clean_linker_0, # of connection points: 2
#     Edge 89, Type (0, 0), BuildingBlock: ZUJKAS_clean_linker_0, # of connection points: 2
#     Edge 90, Type (0, 0), BuildingBlock: ZUJKAS_clean_linker_0, # of connection points: 2
#     Edge 91, Type (0, 0), BuildingBlock: ZUJKAS_clean_linker_0, # of connection points: 2
#     Edge 92, Type (0, 0), BuildingBlock: ZUJKAS_clean_linker_0, # of connection points: 2
#     Edge 93, Type (0, 0), BuildingBlock: ZUJKAS_clean_linker_0, # of connection points: 2
#     Edge 94, Type (0, 0), BuildingBlock: ZUJKAS_clean_linker_0, # of connection points: 2
#     Edge 95, Type (0, 0), BuildingBlock: ZUJKAS_clean_linker_0, # of connection points: 2
#     Edge 96, Type (0, 0), BuildingBlock: ZUJKAS_clean_linker_0, # of connection points: 2
#     Edge 97, Type (0, 0), BuildingBlock: ZUJKAS_clean_linker_0, # of connection points: 2
#     Edge 98, Type (0, 0), BuildingBlock: ZUJKAS_clean_linker_0, # of connection points: 2
#     Edge 99, Type (0, 0), BuildingBlock: ZUJKAS_clean_linker_0, # of connection points: 2
#     Edge 100, Type (0, 0), BuildingBlock: ZUJKAS_clean_linker_0, # of connection points: 2
#     Edge 101, Type (0, 0), BuildingBlock: ZUJKAS_clean_linker_0, # of connection points: 2
#     Edge 102, Type (0, 0), BuildingBlock: ZUJKAS_clean_linker_0, # of connection points: 2
#     Edge 103, Type (0, 0), BuildingBlock: ZUJKAS_clean_linker_0, # of connection points: 2
#     Edge 104, Type (0, 0), BuildingBlock: ZUJKAS_clean_linker_0, # of connection points: 2
#     Edge 105, Type (0, 0), BuildingBlock: ZUJKAS_clean_linker_0, # of connection points: 2
#     Edge 106, Type (0, 0), BuildingBlock: ZUJKAS_clean_linker_0, # of connection points: 2
#     Edge 107, Type (0, 0), BuildingBlock: ZUJKAS_clean_linker_0, # of connection points: 2
#     Edge 108, Type (0, 0), BuildingBlock: ZUJKAS_clean_linker_0, # of connection points: 2
#     Edge 109, Type (0, 0), BuildingBlock: ZUJKAS_clean_linker_0, # of connection points: 2
#     Edge 110, Type (0, 0), BuildingBlock: ZUJKAS_clean_linker_0, # of connection points: 2
#     Edge 111, Type (0, 0), BuildingBlock: ZUJKAS_clean_linker_0, # of connection points: 2
#     Edge 112, Type (0, 0), BuildingBlock: ZUJKAS_clean_linker_0, # of connection points: 2
#     Edge 113, Type (0, 0), BuildingBlock: ZUJKAS_clean_linker_0, # of connection points: 2
#     Edge 114, Type (0, 0), BuildingBlock: ZUJKAS_clean_linker_0, # of connection points: 2
#     Edge 115, Type (0, 0), BuildingBlock: ZUJKAS_clean_linker_0, # of connection points: 2
#     Edge 116, Type (0, 0), BuildingBlock: ZUJKAS_clean_linker_0, # of connection points: 2
#     Edge 117, Type (0, 0), BuildingBlock: ZUJKAS_clean_linker_0, # of connection points: 2
#     Edge 118, Type (0, 0), BuildingBlock: ZUJKAS_clean_linker_0, # of connection points: 2
#     Edge 119, Type (0, 0), BuildingBlock: ZUJKAS_clean_linker_0, # of connection points: 2
#     Edge 120, Type (0, 0), BuildingBlock: ZUJKAS_clean_linker_0, # of connection points: 2
#     Edge 121, Type (0, 0), BuildingBlock: ZUJKAS_clean_linker_0, # of connection points: 2
#     Edge 122, Type (0, 0), BuildingBlock: ZUJKAS_clean_linker_0, # of connection points: 2
#     Edge 123, Type (0, 0), BuildingBlock: ZUJKAS_clean_linker_0, # of connection points: 2
#     Edge 124, Type (0, 0), BuildingBlock: ZUJKAS_clean_linker_0, # of connection points: 2
#     Edge 125, Type (0, 0), BuildingBlock: ZUJKAS_clean_linker_0, # of connection points: 2
#     Edge 126, Type (0, 0), BuildingBlock: ZUJKAS_clean_linker_0, # of connection points: 2
#     Edge 127, Type (0, 0), BuildingBlock: ZUJKAS_clean_linker_0, # of connection points: 2
#     Edge 128, Type (0, 0), BuildingBlock: ZUJKAS_clean_linker_0, # of connection points: 2
#     Edge 129, Type (0, 0), BuildingBlock: ZUJKAS_clean_linker_0, # of connection points: 2
#     Edge 130, Type (0, 0), BuildingBlock: ZUJKAS_clean_linker_0, # of connection points: 2
#     Edge 131, Type (0, 0), BuildingBlock: ZUJKAS_clean_linker_0, # of connection points: 2
#     Edge 132, Type (0, 0), BuildingBlock: ZUJKAS_clean_linker_0, # of connection points: 2
#     Edge 133, Type (0, 0), BuildingBlock: ZUJKAS_clean_linker_0, # of connection points: 2
#     Edge 134, Type (0, 0), BuildingBlock: ZUJKAS_clean_linker_0, # of connection points: 2
#     Edge 135, Type (0, 0), BuildingBlock: ZUJKAS_clean_linker_0, # of connection points: 2
#     Edge 136, Type (0, 0), BuildingBlock: ZUJKAS_clean_linker_0, # of connection points: 2
#     Edge 137, Type (0, 0), BuildingBlock: ZUJKAS_clean_linker_0, # of connection points: 2
#     Edge 138, Type (0, 0), BuildingBlock: ZUJKAS_clean_linker_0, # of connection points: 2
#     Edge 139, Type (0, 0), BuildingBlock: ZUJKAS_clean_linker_0, # of connection points: 2
#     Edge 140, Type (0, 0), BuildingBlock: ZUJKAS_clean_linker_0, # of connection points: 2
#     Edge 141, Type (0, 0), BuildingBlock: ZUJKAS_clean_linker_0, # of connection points: 2
#     Edge 142, Type (0, 0), BuildingBlock: ZUJKAS_clean_linker_0, # of connection points: 2
#     Edge 143, Type (0, 0), BuildingBlock: ZUJKAS_clean_linker_0, # of connection points: 2
# Relax obj value: 0.095
# Max RMSD: 0.194
# Mean RMSD: 0.194
data_MOF--net-wnd--node1-BETDAH_clean_sbu_0--edge1-ZUJKAS_clean_linker_0
_symmetry_space_group_name_H-M    P1
_symmetry_Int_Tables_number       1
_symmetry_cell_setting            triclinic
loop_
_symmetry_equiv_pos_as_xyz
'x, y, z'
_cell_length_a     49.636439
_cell_length_b     49.61986
_cell_length_c     206.11987
_cell_angle_alpha  89.987526
_cell_angle_beta   89.937143
_cell_angle_gamma 119.97219
loop_
_atom_site_label
_atom_site_type_symbol
_atom_site_fract_x
_atom_site_fract_y
_atom_site_fract_z
_atom_type_partial_charge
Ho0 Ho 0.49509 0.05967 0.05607 0.0
Ho1 Ho 0.52708 0.02217 0.06044 0.0
C2 C 0.5707 0.09301 0.05779 0.0
C3 C 0.47962 0.10207 0.05666 0.0
C4 C 0.49731 0.13633 0.05553 0.0
C5 C 0.51873 0.1564 0.06017 0.0
C6 C 0.53302 0.18865 0.05948 0.0
C7 C 0.52603 0.20191 0.05417 0.0
C8 C 0.50632 0.18192 0.04929 0.0
C9 C 0.49214 0.14949 0.04996 0.0
C10 C 0.5176 0.04709 0.04524 0.0
C11 C 0.45304 0.98553 0.05726 0.0
C12 C 0.54528 0.98183 0.06228 0.0
C13 C 0.53536 0.94811 0.06214 0.0
C14 C 0.52207 0.92942 0.05663 0.0
C15 C 0.51717 0.89894 0.0564 0.0
C16 C 0.5261 0.88648 0.0616 0.0
C17 C 0.53818 0.90515 0.0672 0.0
C18 C 0.54244 0.93524 0.06747 0.0
C19 C 0.51088 0.05038 0.06988 0.0
O20 O 0.54546 0.09563 0.0581 0.0
O21 O 0.56969 0.06602 0.05778 0.0
O22 O 0.47319 0.08375 0.05163 0.0
O23 O 0.48795 0.09202 0.06171 0.0
O24 O 0.50192 0.06143 0.04539 0.0
O25 O 0.51985 0.0388 0.05098 0.0
O26 O 0.47892 0.98463 0.0581 0.0
O27 O 0.45227 0.01185 0.05669 0.0
O28 O 0.53413 0.99158 0.06689 0.0
O29 O 0.54828 0.99616 0.05677 0.0
O30 O 0.53639 0.04908 0.06997 0.0
O31 O 0.49535 0.03598 0.06496 0.0
H32 H 0.52393 0.14735 0.06447 0.0
H33 H 0.54887 0.20318 0.06323 0.0
H34 H 0.50044 0.19116 0.04511 0.0
H35 H 0.47623 0.13471 0.04624 0.0
H36 H 0.51613 0.93856 0.05244 0.0
H37 H 0.50681 0.88555 0.05205 0.0
H38 H 0.54593 0.89748 0.07134 0.0
H39 H 0.55273 0.94909 0.07179 0.0
Ho40 Ho 0.02102 0.47018 0.05683 0.0
Ho41 Ho 0.05949 0.53885 0.06057 0.0
C42 C 0.98938 0.51423 0.05789 0.0
C43 C 0.9786 0.41281 0.05839 0.0
C44 C 0.94461 0.39439 0.05716 0.0
C45 C 0.92424 0.38451 0.06248 0.0
C46 C 0.89223 0.36588 0.06161 0.0
C47 C 0.87934 0.35666 0.05537 0.0
C48 C 0.89973 0.36772 0.04999 0.0
C49 C 0.93201 0.38625 0.05088 0.0
C50 C 0.03331 0.50153 0.04554 0.0
C51 C 0.09515 0.50113 0.0572 0.0
C52 C 0.10051 0.59688 0.06277 0.0
C53 C 0.13413 0.62065 0.06238 0.0
C54 C 0.15114 0.62758 0.05657 0.0
C55 C 0.18149 0.65317 0.05619 0.0
C56 C 0.19549 0.6727 0.06161 0.0
C57 C 0.17878 0.66466 0.06749 0.0
C58 C 0.14862 0.639 0.06787 0.0
C59 C 0.03264 0.49573 0.07037 0.0
O60 O 0.98595 0.48615 0.05852 0.0
O61 O 0.01682 0.53952 0.05774 0.0
O62 O 0.99776 0.42231 0.05343 0.0
O63 O 0.98685 0.434 0.06291 0.0
O64 O 0.01795 0.47165 0.0462 0.0
O65 O 0.04253 0.51455 0.05108 0.0
O66 O 0.09633 0.52824 0.05752 0.0
O67 O 0.06852 0.4742 0.05737 0.0
O68 O 0.09202 0.57484 0.06709 0.0
O69 O 0.0847 0.58693 0.05737 0.0
O70 O 0.0318 0.52147 0.07009 0.0
O71 O 0.04677 0.49442 0.06543 0.0
H72 H 0.93318 0.3906 0.06737 0.0
H73 H 0.87789 0.35772 0.06592 0.0
H74 H 0.89093 0.36192 0.04509 0.0
H75 H 0.94703 0.39387 0.04665 0.0
H76 H 0.14073 0.61379 0.05225 0.0
H77 H 0.19369 0.65796 0.05161 0.0
H78 H 0.18826 0.67903 0.07176 0.0
H79 H 0.13604 0.63427 0.07241 0.0
Ho80 Ho 0.61222 0.58528 0.05584 0.0
Ho81 Ho 0.54328 0.55554 0.06061 0.0
C82 C 0.56801 0.50946 0.05771 0.0
C83 C 0.66944 0.59935 0.05701 0.0
C84 C 0.6873 0.58314 0.05579 0.0
C85 C 0.69653 0.572 0.06111 0.0
C86 C 0.71486 0.55825 0.06024 0.0
C87 C 0.72454 0.55511 0.05401 0.0
C88 C 0.71427 0.56516 0.04864 0.0
C89 C 0.69589 0.57908 0.04952 0.0
C90 C 0.57534 0.56318 0.04526 0.0
C91 C 0.58174 0.6286 0.05658 0.0
C92 C 0.48572 0.53953 0.06298 0.0
C93 C 0.46136 0.54844 0.06226 0.0
C94 C 0.45384 0.55637 0.05624 0.0
C95 C 0.42781 0.56038 0.05565 0.0
C96 C 0.40852 0.55632 0.06104 0.0
C97 C 0.41707 0.54965 0.06709 0.0
C98 C 0.4431 0.54588 0.06768 0.0
C99 C 0.5889 0.57259 0.06982 0.0
O100 O 0.59614 0.5341 0.05714 0.0
O101 O 0.54272 0.51132 0.05861 0.0
O102 O 0.65936 0.60833 0.05202 0.0
O103 O 0.64904 0.58762 0.06171 0.0
O104 O 0.60546 0.57817 0.0451 0.0
O105 O 0.56617 0.56165 0.0511 0.0
O106 O 0.55448 0.60292 0.05716 0.0
O107 O 0.60859 0.62876 0.05655 0.0
O108 O 0.50855 0.55569 0.06701 0.0
O109 O 0.49471 0.53077 0.05781 0.0
O110 O 0.56213 0.54711 0.07008 0.0
O111 O 0.58951 0.5872 0.06477 0.0
H112 H 0.69022 0.57465 0.06601 0.0
H113 H 0.72251 0.55137 0.06453 0.0
H114 H 0.72075 0.56266 0.04375 0.0
H115 H 0.68885 0.58704 0.0453 0.0
H116 H 0.46754 0.55868 0.05197 0.0
H117 H 0.42255 0.56617 0.05093 0.0
H118 H 0.40289 0.54586 0.07136 0.0
H119 H 0.44825 0.53964 0.07237 0.0
Ho120 Ho 0.06349 0.49067 0.46665 0.0
Ho121 Ho 0.02593 0.52193 0.4623 0.0
C122 C 0.09608 0.56671 0.46508 0.0
C123 C 0.10563 0.47513 0.46534 0.0
C124 C 0.13981 0.49084 0.46636 0.0
C125 C 0.15953 0.50147 0.46093 0.0
C126 C 0.19163 0.51452 0.4616 0.0
C127 C 0.20519 0.51758 0.46774 0.0
C128 C 0.18554 0.50816 0.47324 0.0
C129 C 0.1532 0.49482 0.47255 0.0
C130 C 0.05083 0.51265 0.47753 0.0
C131 C 0.98939 0.44886 0.4659 0.0
C132 C 0.98505 0.53873 0.45983 0.0
C133 C 0.95156 0.52906 0.46048 0.0
C134 C 0.93652 0.52275 0.46654 0.0
C135 C 0.90642 0.51847 0.46706 0.0
C136 C 0.89066 0.52046 0.46156 0.0
C137 C 0.90515 0.52504 0.45546 0.0
C138 C 0.93521 0.52933 0.45494 0.0
C139 C 0.05357 0.50477 0.45288 0.0
O140 O 0.09912 0.54163 0.46486 0.0
O141 O 0.06882 0.56503 0.46495 0.0
O142 O 0.08721 0.4671 0.47042 0.0
O143 O 0.09673 0.48667 0.46065 0.0
O144 O 0.06558 0.49731 0.47737 0.0
O145 O 0.04246 0.51506 0.47181 0.0
O146 O 0.98909 0.47527 0.46568 0.0
O147 O 0.01563 0.44775 0.46594 0.0
O148 O 0.99239 0.5233 0.45575 0.0
O149 O 1.00218 0.54682 0.46508 0.0
O150 O 0.05414 0.53124 0.45291 0.0
O151 O 0.03896 0.48967 0.45782 0.0
H152 H 0.15004 0.49891 0.45609 0.0
H153 H 0.20552 0.5209 0.45722 0.0
H154 H 0.19502 0.5107 0.47807 0.0
H155 H 0.13873 0.48726 0.47685 0.0
H156 H 0.94835 0.52214 0.4709 0.0
H157 H 0.89579 0.5144 0.47182 0.0
H158 H 0.89399 0.52698 0.45112 0.0
H159 H 0.94625 0.53424 0.45022 0.0
Ho160 Ho 0.5902 0.60718 0.46689 0.0
Ho161 Ho 0.55789 0.53731 0.46241 0.0
C162 C 0.51436 0.56455 0.46526 0.0
C163 C 0.60742 0.66565 0.4666 0.0
C164 C 0.59051 0.68319 0.4674 0.0
C165 C 0.57972 0.69169 0.4619 0.0
C166 C 0.56564 0.70992 0.46248 0.0
C167 C 0.56189 0.72027 0.4686 0.0
C168 C 0.57139 0.71055 0.47414 0.0
C169 C 0.58565 0.69236 0.47355 0.0
C170 C 0.57003 0.57127 0.47768 0.0
C171 C 0.632 0.5746 0.46546 0.0
C172 C 0.54068 0.47893 0.46065 0.0
C173 C 0.55171 0.45589 0.46091 0.0
C174 C 0.55745 0.4454 0.46681 0.0
C175 C 0.56241 0.41984 0.46697 0.0
C176 C 0.56212 0.40411 0.46122 0.0
C177 C 0.55864 0.41641 0.4553 0.0
C178 C 0.55305 0.44145 0.45516 0.0
C179 C 0.5732 0.58201 0.453 0.0
O180 O 0.53954 0.59256 0.46501 0.0
O181 O 0.51547 0.5386 0.46518 0.0
O182 O 0.61093 0.65211 0.47172 0.0
O183 O 0.60063 0.64828 0.46143 0.0
O184 O 0.58538 0.6013 0.47762 0.0
O185 O 0.56662 0.56144 0.47186 0.0
O186 O 0.60593 0.54798 0.46469 0.0
O187 O 0.63296 0.60179 0.46611 0.0
O188 O 0.55154 0.49976 0.45603 0.0
O189 O 0.53683 0.49012 0.46611 0.0
O190 O 0.54841 0.55462 0.45284 0.0
O191 O 0.58892 0.58327 0.45792 0.0
H192 H 0.58299 0.68507 0.45709 0.0
H193 H 0.55911 0.71705 0.45808 0.0
H194 H 0.56832 0.7174 0.47895 0.0
H195 H 0.59334 0.68599 0.4779 0.0
H196 H 0.5568 0.45603 0.47135 0.0
H197 H 0.56494 0.41176 0.47167 0.0
H198 H 0.55953 0.4065 0.45069 0.0
H199 H 0.54878 0.44892 0.45053 0.0
Ho200 Ho 0.47318 0.01563 0.46654 0.0
Ho201 Ho 0.54172 0.05451 0.46246 0.0
C202 C 0.51719 0.98415 0.46494 0.0
C203 C 0.41622 0.97223 0.46511 0.0
C204 C 0.39806 0.93856 0.46668 0.0
C205 C 0.39293 0.91675 0.46179 0.0
C206 C 0.37423 0.88495 0.46292 0.0
C207 C 0.35987 0.87398 0.46898 0.0
C208 C 0.36606 0.89564 0.47398 0.0
C209 C 0.385 0.92765 0.47285 0.0
C210 C 0.50623 0.02705 0.47758 0.0
C211 C 0.50452 0.08955 0.46642 0.0
C212 C 0.59915 0.09564 0.45983 0.0
C213 C 0.62385 0.12874 0.46046 0.0
C214 C 0.6345 0.14315 0.46653 0.0
C215 C 0.66103 0.17281 0.46694 0.0
C216 C 0.67745 0.1887 0.46131 0.0
C217 C 0.66575 0.17486 0.45524 0.0
C218 C 0.63936 0.14522 0.45484 0.0
C219 C 0.49778 0.02783 0.45282 0.0
O220 O 0.48912 0.98085 0.46455 0.0
O221 O 0.54259 0.01156 0.46501 0.0
O222 O 0.425 0.99271 0.46983 0.0
O223 O 0.43795 0.97946 0.46076 0.0
O224 O 0.47623 0.01222 0.47721 0.0
O225 O 0.51813 0.03662 0.47197 0.0
O226 O 0.53142 0.09025 0.4665 0.0
O227 O 0.47761 0.06323 0.46569 0.0
O228 O 0.57582 0.08941 0.456 0.0
O229 O 0.59069 0.07781 0.46498 0.0
O230 O 0.52404 0.02804 0.45285 0.0
O231 O 0.4966 0.04139 0.45787 0.0
H232 H 0.40268 0.92429 0.45698 0.0
H233 H 0.36976 0.86909 0.45893 0.0
H234 H 0.35569 0.88789 0.47874 0.0
H235 H 0.38879 0.94379 0.47675 0.0
H236 H 0.62299 0.13116 0.47095 0.0
H237 H 0.66914 0.18304 0.47169 0.0
H238 H 0.67789 0.18622 0.45082 0.0
H239 H 0.63178 0.13459 0.4501 0.0
Ho240 Ho 0.55728 0.0533 0.96221 0.0
Ho241 Ho 0.59052 0.01779 0.96663 0.0
C242 C 0.63064 0.09189 0.96575 0.0
C243 C 0.54022 0.09425 0.95998 0.0
C244 C 0.55005 0.12789 0.9604 0.0
C245 C 0.56222 0.14554 0.96609 0.0
C246 C 0.56771 0.17623 0.96644 0.0
C247 C 0.5608 0.18993 0.96115 0.0
C248 C 0.54981 0.17236 0.9554 0.0
C249 C 0.5447 0.14198 0.95504 0.0
C250 C 0.57619 0.02758 0.95271 0.0
C251 C 0.51387 0.9827 0.965 0.0
C252 C 0.60443 0.97456 0.96525 0.0
C253 C 0.58909 0.94075 0.96675 0.0
C254 C 0.57616 0.91951 0.9616 0.0
C255 C 0.56385 0.88774 0.96262 0.0
C256 C 0.56419 0.87627 0.96881 0.0
C257 C 0.57526 0.89701 0.97408 0.0
C258 C 0.5877 0.92913 0.97306 0.0
C259 C 0.56751 0.02856 0.97749 0.0
O260 O 0.60346 0.0906 0.96566 0.0
O261 O 0.63288 0.06622 0.9657 0.0
O262 O 0.55432 0.08615 0.95571 0.0
O263 O 0.53369 0.07798 0.96534 0.0
O264 O 0.55005 0.02761 0.95258 0.0
O265 O 0.59065 0.04154 0.95776 0.0
O266 O 0.53958 0.98107 0.9656 0.0
O267 O 0.51408 1.009 0.96407 0.0
O268 O 0.61569 0.9949 0.97001 0.0
O269 O 0.59023 0.98184 0.96085 0.0
O270 O 0.58503 0.01613 0.97729 0.0
O271 O 0.56449 0.03718 0.97181 0.0
H272 H 0.56687 0.13545 0.9703 0.0
H273 H 0.57693 0.18896 0.97091 0.0
H274 H 0.54365 0.18135 0.95123 0.0
H275 H 0.53531 0.12894 0.95059 0.0
H276 H 0.57649 0.92757 0.9567 0.0
H277 H 0.55523 0.87214 0.95849 0.0
H278 H 0.57576 0.8886 0.97891 0.0
H279 H 0.59704 0.94481 0.97715 0.0
Ho280 Ho 0.02783 0.53833 0.96221 0.0
Ho281 Ho 0.06454 0.60723 0.96645 0.0
C282 C 0.99024 0.57408 0.96582 0.0
C283 C 0.9869 0.48025 0.96004 0.0
C284 C 0.95312 0.45668 0.9604 0.0
C285 C 0.93663 0.44792 0.96632 0.0
C286 C 0.90649 0.42189 0.96661 0.0
C287 C 0.8922 0.40439 0.96101 0.0
C288 C 0.90792 0.41416 0.95506 0.0
C289 C 0.93804 0.43998 0.95477 0.0
C290 C 0.05565 0.58232 0.95264 0.0
C291 C 0.09825 0.56507 0.96496 0.0
C292 C 0.10593 0.66558 0.9662 0.0
C293 C 0.14026 0.68256 0.96719 0.0
C294 C 0.16015 0.68654 0.96196 0.0
C295 C 0.19231 0.70479 0.96261 0.0
C296 C 0.20563 0.72008 0.96846 0.0
C297 C 0.18609 0.71451 0.97385 0.0
C298 C 0.15365 0.69592 0.97322 0.0
C299 C 0.05032 0.57331 0.97747 0.0
O300 O 0.99064 0.54782 0.96534 0.0
O301 O 0.01624 0.60169 0.96577 0.0
O302 O 0.99568 0.50218 0.95569 0.0
O303 O 1.00272 0.49025 0.96544 0.0
O304 O 0.05512 0.5559 0.95271 0.0
O305 O 0.04114 0.58361 0.95754 0.0
O306 O 0.1008 0.59291 0.96449 0.0
O307 O 0.07118 0.53923 0.96504 0.0
O308 O 0.08811 0.65237 0.97124 0.0
O309 O 0.09578 0.64815 0.96102 0.0
O310 O 0.06521 0.60323 0.97711 0.0
O311 O 0.04289 0.56187 0.97177 0.0
H312 H 0.94746 0.46027 0.97075 0.0
H313 H 0.89484 0.41463 0.97126 0.0
H314 H 0.89757 0.4008 0.9507 0.0
H315 H 0.95018 0.446 0.95016 0.0
H316 H 0.15095 0.67646 0.95727 0.0
H317 H 0.20676 0.70799 0.95841 0.0
H318 H 0.19569 0.72587 0.97844 0.0
H319 H 0.13907 0.69297 0.97738 0.0
Ho320 Ho 0.54384 0.52268 0.96225 0.0
Ho321 Ho 0.47436 0.49102 0.96688 0.0
C322 C 0.50563 0.44816 0.96537 0.0
C323 C 0.60217 0.54015 0.96052 0.0
C324 C 0.6256 0.52978 0.96052 0.0
C325 C 0.63276 0.5183 0.96613 0.0
C326 C 0.65879 0.51412 0.96623 0.0
C327 C 0.67824 0.52169 0.96076 0.0
C328 C 0.67006 0.5315 0.95508 0.0
C329 C 0.644 0.53534 0.95495 0.0
C330 C 0.49894 0.50584 0.95293 0.0
C331 C 0.51756 0.56739 0.96522 0.0
C332 C 0.41713 0.47682 0.96561 0.0
C333 C 0.39952 0.49334 0.9668 0.0
C334 C 0.39164 0.50586 0.96149 0.0
C335 C 0.37359 0.51995 0.96234 0.0
C336 C 0.36277 0.52195 0.96853 0.0
C337 C 0.37174 0.51059 0.9739 0.0
C338 C 0.38988 0.49641 0.97304 0.0
C339 C 0.51049 0.51281 0.97754 0.0
O340 O 0.5324 0.47377 0.96426 0.0
O341 O 0.47888 0.44786 0.96623 0.0
O342 O 0.58173 0.53036 0.95583 0.0
O343 O 0.59055 0.54228 0.96608 0.0
O344 O 0.52578 0.53134 0.95272 0.0
O345 O 0.49804 0.49093 0.95796 0.0
O346 O 0.4897 0.54215 0.96567 0.0
O347 O 0.54325 0.56615 0.96442 0.0
O348 O 0.42705 0.46781 0.97062 0.0
O349 O 0.43763 0.48835 0.96092 0.0
O350 O 0.48037 0.49736 0.97763 0.0
O351 O 0.52007 0.51511 0.97172 0.0
H352 H 0.61912 0.51386 0.97051 0.0
H353 H 0.66475 0.50676 0.97068 0.0
H354 H 0.68464 0.53745 0.9508 0.0
H355 H 0.63915 0.54426 0.95058 0.0
H356 H 0.39879 0.50404 0.95662 0.0
H357 H 0.36697 0.52794 0.95807 0.0
H358 H 0.36434 0.5122 0.97875 0.0
H359 H 0.39587 0.48741 0.97725 0.0
Ho360 Ho 0.0611 0.55477 0.56055 0.0
Ho361 Ho 0.02247 0.5847 0.55621 0.0
C362 C 0.0963 0.6273 0.55653 0.0
C363 C 0.1022 0.53834 0.56312 0.0
C364 C 0.13566 0.54774 0.56273 0.0
C365 C 0.15368 0.56043 0.55711 0.0
C366 C 0.18421 0.56553 0.55677 0.0
C367 C 0.1973 0.55756 0.56202 0.0
C368 C 0.17926 0.54593 0.5677 0.0
C369 C 0.1491 0.54134 0.56806 0.0
C370 C 0.03348 0.57189 0.57001 0.0
C371 C 0.99072 0.50913 0.55789 0.0
C372 C 0.98004 0.59987 0.55726 0.0
C373 C 0.94601 0.58382 0.55599 0.0
C374 C 0.92509 0.5669 0.561 0.0
C375 C 0.8932 0.55461 0.5602 0.0
C376 C 0.88124 0.55919 0.5544 0.0
C377 C 0.90178 0.57414 0.5492 0.0
C378 C 0.93393 0.58642 0.54999 0.0
C379 C 0.03523 0.56253 0.54535 0.0
O380 O 0.09737 0.60132 0.55685 0.0
O381 O 0.06986 0.62788 0.55688 0.0
O382 O 0.09427 0.55332 0.56719 0.0
O383 O 0.08598 0.531 0.55775 0.0
O384 O 0.03309 0.54552 0.56997 0.0
O385 O 0.04771 0.58696 0.56503 0.0
O386 O 0.98738 0.53397 0.55823 0.0
O387 O 0.01819 0.51119 0.55792 0.0
O388 O 0.99915 0.60838 0.55229 0.0
O389 O 0.98863 0.58847 0.56203 0.0
O390 O 0.01995 0.57731 0.5455 0.0
O391 O 0.0439 0.56067 0.55107 0.0
H392 H 0.14401 0.56582 0.55293 0.0
H393 H 0.19726 0.57531 0.55235 0.0
H394 H 0.18764 0.53887 0.57184 0.0
H395 H 0.13571 0.53152 0.57245 0.0
H396 H 0.93338 0.56398 0.56567 0.0
H397 H 0.87793 0.54246 0.56425 0.0
H398 H 0.89324 0.57785 0.54464 0.0
H399 H 0.94934 0.59892 0.54599 0.0
Ho400 Ho 0.5268 0.53877 0.56086 0.0
Ho401 Ho 0.49797 0.47111 0.55588 0.0
C402 C 0.45353 0.50022 0.55716 0.0
C403 C 0.5432 0.59638 0.56317 0.0
C404 C 0.53426 0.62061 0.56248 0.0
C405 C 0.52569 0.62769 0.55649 0.0
C406 C 0.52155 0.6536 0.55591 0.0
C407 C 0.52607 0.67305 0.56128 0.0
C408 C 0.53337 0.66494 0.56731 0.0
C409 C 0.53734 0.63907 0.56789 0.0
C410 C 0.50903 0.49317 0.57012 0.0
C411 C 0.57377 0.51543 0.55774 0.0
C412 C 0.48679 0.41487 0.55716 0.0
C413 C 0.50292 0.39715 0.55578 0.0
C414 C 0.52014 0.39362 0.56079 0.0
C415 C 0.53222 0.37389 0.56007 0.0
C416 C 0.52712 0.35677 0.55435 0.0
C417 C 0.51199 0.36185 0.54912 0.0
C418 C 0.49984 0.3819 0.54984 0.0
C419 C 0.51753 0.50733 0.54525 0.0
O420 O 0.47895 0.52753 0.5579 0.0
O421 O 0.45385 0.4736 0.5568 0.0
O422 O 0.52716 0.57369 0.56724 0.0
O423 O 0.55151 0.58721 0.55797 0.0
O424 O 0.53367 0.52051 0.57054 0.0
O425 O 0.49513 0.4922 0.56494 0.0
O426 O 0.54934 0.48792 0.55653 0.0
O427 O 0.57159 0.53992 0.55932 0.0
O428 O 0.47507 0.42323 0.55235 0.0
O429 O 0.50053 0.43662 0.56153 0.0
O430 O 0.50245 0.47717 0.54521 0.0
O431 O 0.52033 0.51733 0.55108 0.0
H432 H 0.52299 0.61377 0.55224 0.0
H433 H 0.51535 0.65869 0.55122 0.0
H434 H 0.53751 0.67939 0.57154 0.0
H435 H 0.54408 0.63418 0.57255 0.0
H436 H 0.52323 0.40512 0.56543 0.0
H437 H 0.54432 0.37083 0.56412 0.0
H438 H 0.50794 0.34898 0.54464 0.0
H439 H 0.48703 0.38443 0.54586 0.0
Ho440 Ho 0.54363 0.02221 0.56065 0.0
Ho441 Ho 0.61227 0.05911 0.55583 0.0
C442 C 0.58014 0.98517 0.55696 0.0
C443 C 0.4854 0.98143 0.56268 0.0
C444 C 0.46164 0.9477 0.5622 0.0
C445 C 0.45007 0.93273 0.55621 0.0
C446 C 0.42411 0.90251 0.55596 0.0
C447 C 0.40906 0.88623 0.56169 0.0
C448 C 0.42221 0.90074 0.56766 0.0
C449 C 0.44771 0.93103 0.5679 0.0
C450 C 0.58882 0.05095 0.56991 0.0
C451 C 0.57026 0.09307 0.55794 0.0
C452 C 0.67047 0.10063 0.55644 0.0
C453 C 0.68836 0.13493 0.55544 0.0
C454 C 0.69545 0.15492 0.5608 0.0
C455 C 0.71426 0.18707 0.5601 0.0
C456 C 0.72673 0.20027 0.55402 0.0
C457 C 0.71844 0.18043 0.54859 0.0
C458 C 0.69952 0.14812 0.54929 0.0
C459 C 0.57636 0.04642 0.5452 0.0
O460 O 0.5537 0.98464 0.55802 0.0
O461 O 0.60719 0.01128 0.55623 0.0
O462 O 0.50711 0.98973 0.56707 0.0
O463 O 0.49574 0.99771 0.55733 0.0
O464 O 0.56166 0.04876 0.57018 0.0
O465 O 0.58974 0.03653 0.56494 0.0
O466 O 0.598 0.09555 0.55733 0.0
O467 O 0.54445 0.06637 0.55875 0.0
O468 O 0.65819 0.08265 0.55137 0.0
O469 O 0.65185 0.09111 0.56145 0.0
O470 O 0.60639 0.06031 0.54521 0.0
O471 O 0.56604 0.03822 0.55098 0.0
H472 H 0.46024 0.94479 0.55171 0.0
H473 H 0.41513 0.89272 0.55123 0.0
H474 H 0.41256 0.88912 0.57222 0.0
H475 H 0.45598 0.94183 0.5726 0.0
H476 H 0.6873 0.14568 0.56561 0.0
H477 H 0.72027 0.20136 0.56441 0.0
H478 H 0.72711 0.1898 0.5438 0.0
H479 H 0.69427 0.13349 0.54505 0.0
Ho480 Ho 0.1616 0.39262 0.38946 0.0
Ho481 Ho 0.19427 0.35618 0.39381 0.0
C482 C 0.23769 0.4264 0.39095 0.0
C483 C 0.1467 0.4352 0.39061 0.0
C484 C 0.16335 0.46921 0.38923 0.0
C485 C 0.18222 0.49059 0.39402 0.0
C486 C 0.19582 0.52263 0.393 0.0
C487 C 0.19072 0.53414 0.38719 0.0
C488 C 0.1733 0.51294 0.38226 0.0
C489 C 0.15978 0.48082 0.38326 0.0
C490 C 0.18436 0.38018 0.37863 0.0
C491 C 0.12164 0.31874 0.38986 0.0
C492 C 0.21054 0.31495 0.39639 0.0
C493 C 0.2017 0.28172 0.39554 0.0
C494 C 0.1957 0.26726 0.38943 0.0
C495 C 0.19177 0.23728 0.38878 0.0
C496 C 0.19381 0.22108 0.39421 0.0
C497 C 0.19827 0.23513 0.40035 0.0
C498 C 0.20216 0.26498 0.40099 0.0
C499 C 0.17648 0.38333 0.40321 0.0
O500 O 0.21227 0.42874 0.39128 0.0
O501 O 0.23689 0.39951 0.39103 0.0
O502 O 0.1375 0.4158 0.38569 0.0
O503 O 0.15814 0.42649 0.39536 0.0
O504 O 0.16831 0.39422 0.37867 0.0
O505 O 0.18675 0.37247 0.38439 0.0
O506 O 0.14885 0.32005 0.38975 0.0
O507 O 0.11937 0.34432 0.39026 0.0
O508 O 0.19328 0.321 0.40023 0.0
O509 O 0.22055 0.33341 0.39133 0.0
O510 O 0.20321 0.3845 0.40315 0.0
O511 O 0.16132 0.36838 0.39831 0.0
H512 H 0.18572 0.48261 0.39866 0.0
H513 H 0.20892 0.5383 0.39691 0.0
H514 H 0.16935 0.52119 0.37769 0.0
H515 H 0.14581 0.4651 0.37943 0.0
H516 H 0.19492 0.27941 0.38513 0.0
H517 H 0.18775 0.22704 0.38398 0.0
H518 H 0.2003 0.22375 0.40465 0.0
H519 H 0.2068 0.27555 0.40576 0.0
Ho520 Ho 0.68811 0.80298 0.38944 0.0
Ho521 Ho 0.72659 0.87211 0.39409 0.0
C522 C 0.65565 0.84636 0.39168 0.0
C523 C 0.64521 0.74558 0.3906 0.0
C524 C 0.61114 0.72761 0.38944 0.0
C525 C 0.59085 0.7197 0.39476 0.0
C526 C 0.55878 0.70123 0.39396 0.0
C527 C 0.54588 0.69006 0.3878 0.0
C528 C 0.5661 0.69909 0.38241 0.0
C529 C 0.5984 0.7176 0.38322 0.0
C530 C 0.70162 0.83963 0.3788 0.0
C531 C 0.76202 0.83501 0.38982 0.0
C532 C 0.7678 0.92962 0.39648 0.0
C533 C 0.80099 0.95399 0.39586 0.0
C534 C 0.81723 0.96122 0.38992 0.0
C535 C 0.8471 0.98755 0.38941 0.0
C536 C 0.86101 1.00692 0.39481 0.0
C537 C 0.84538 0.99879 0.40078 0.0
C538 C 0.81576 0.97255 0.4013 0.0
C539 C 0.69951 0.82677 0.40343 0.0
O540 O 0.65287 0.81844 0.39121 0.0
O541 O 0.68272 0.87206 0.39222 0.0
O542 O 0.66424 0.75579 0.3856 0.0
O543 O 0.65374 0.76602 0.39527 0.0
O544 O 0.68725 0.80951 0.37869 0.0
O545 O 0.70929 0.84887 0.38462 0.0
O546 O 0.76245 0.86179 0.39019 0.0
O547 O 0.73581 0.80769 0.39012 0.0
O548 O 0.76107 0.90674 0.4005 0.0
O549 O 0.75037 0.92074 0.39127 0.0
O550 O 0.70098 0.85362 0.40372 0.0
O551 O 0.71294 0.82602 0.3983 0.0
H552 H 0.59985 0.72711 0.39962 0.0
H553 H 0.54432 0.69459 0.39826 0.0
H554 H 0.55707 0.69151 0.37757 0.0
H555 H 0.61333 0.72359 0.379 0.0
H556 H 0.80645 0.94732 0.38564 0.0
H557 H 0.85869 0.99363 0.38474 0.0
H558 H 0.85555 0.01354 0.40499 0.0
H559 H 0.80375 0.96754 0.40592 0.0
Ho560 Ho 0.27843 0.91799 0.38914 0.0
Ho561 Ho 0.20881 0.8868 0.39363 0.0
C562 C 0.23473 0.8419 0.3909 0.0
C563 C 0.33507 0.93052 0.39048 0.0
C564 C 0.35335 0.9151 0.38901 0.0
C565 C 0.35966 0.90027 0.39412 0.0
C566 C 0.37928 0.88816 0.39319 0.0
C567 C 0.39317 0.89066 0.38715 0.0
C568 C 0.3856 0.90366 0.3819 0.0
C569 C 0.36572 0.91587 0.38282 0.0
C570 C 0.24273 0.89572 0.37844 0.0
C571 C 0.24713 0.96103 0.39045 0.0
C572 C 0.15038 0.86922 0.39523 0.0
C573 C 0.12695 0.87956 0.39526 0.0
C574 C 0.11745 0.88786 0.38952 0.0
C575 C 0.09117 0.89157 0.38952 0.0
C576 C 0.07377 0.88698 0.39523 0.0
C577 C 0.08469 0.88079 0.40103 0.0
C578 C 0.11076 0.87696 0.40103 0.0
C579 C 0.25342 0.90517 0.40314 0.0
O580 O 0.26268 0.86706 0.39077 0.0
O581 O 0.20904 0.84335 0.39132 0.0
O582 O 0.32652 0.9424 0.38574 0.0
O583 O 0.31318 0.91578 0.39478 0.0
O584 O 0.27284 0.91163 0.3784 0.0
O585 O 0.23307 0.89357 0.38425 0.0
O586 O 0.22016 0.93508 0.39113 0.0
O587 O 0.27417 0.96147 0.38998 0.0
O588 O 0.17049 0.87845 0.39998 0.0
O589 O 0.16241 0.86776 0.38968 0.0
O590 O 0.2263 0.88005 0.40345 0.0
O591 O 0.2546 0.91908 0.39794 0.0
H592 H 0.35038 0.89909 0.39894 0.0
H593 H 0.38491 0.87822 0.3973 0.0
H594 H 0.39634 0.90589 0.3772 0.0
H595 H 0.36101 0.92682 0.37878 0.0
H596 H 0.12938 0.89007 0.38498 0.0
H597 H 0.08355 0.8963 0.38495 0.0
H598 H 0.07246 0.87784 0.40556 0.0
H599 H 0.11744 0.87054 0.40552 0.0
Ho600 Ho 0.73062 0.82486 0.80028 0.0
Ho601 Ho 0.69229 0.85562 0.79553 0.0
C602 C 0.76294 0.90106 0.79856 0.0
C603 C 0.77425 0.81137 0.79923 0.0
C604 C 0.8083 0.82844 0.80054 0.0
C605 C 0.82901 0.8507 0.79609 0.0
C606 C 0.86112 0.86451 0.7969 0.0
C607 C 0.8737 0.85599 0.80209 0.0
C608 C 0.85297 0.83514 0.80677 0.0
C609 C 0.82068 0.82163 0.80601 0.0
C610 C 0.71622 0.84728 0.81086 0.0
C611 C 0.65663 0.78293 0.79974 0.0
C612 C 0.65128 0.87202 0.79293 0.0
C613 C 0.61819 0.86371 0.79356 0.0
C614 C 0.6024 0.85623 0.79954 0.0
C615 C 0.57244 0.85251 0.8 0.0
C616 C 0.55771 0.85639 0.79451 0.0
C617 C 0.57329 0.86264 0.7885 0.0
C618 C 0.60301 0.86616 0.78805 0.0
C619 C 0.72038 0.83805 0.78627 0.0
O620 O 0.76591 0.87603 0.79901 0.0
O621 O 0.73592 0.89952 0.79766 0.0
O622 O 0.75494 0.80203 0.80418 0.0
O623 O 0.76522 0.82251 0.79449 0.0
O624 O 0.73066 0.8316 0.81102 0.0
O625 O 0.70878 0.84906 0.80503 0.0
O626 O 0.65605 0.80923 0.79938 0.0
O627 O 0.68293 0.78192 0.79948 0.0
O628 O 0.65756 0.855 0.78906 0.0
O629 O 0.66897 0.88123 0.7981 0.0
O630 O 0.71888 0.86341 0.78599 0.0
O631 O 0.70653 0.8236 0.79135 0.0
H632 H 0.82052 0.85701 0.79184 0.0
H633 H 0.87601 0.88134 0.79331 0.0
H634 H 0.86143 0.82787 0.81087 0.0
H635 H 0.8054 0.80494 0.80958 0.0
H636 H 0.61343 0.85401 0.80388 0.0
H637 H 0.56106 0.84707 0.80469 0.0
H638 H 0.56322 0.86627 0.78417 0.0
H639 H 0.61471 0.87204 0.78339 0.0
Ho640 Ho 0.25443 0.93932 0.80004 0.0
Ho641 Ho 0.2267 0.87128 0.79552 0.0
C642 C 0.17892 0.89341 0.79853 0.0
C643 C 0.26496 0.99523 0.79855 0.0
C644 C 0.2508 0.01419 0.80041 0.0
C645 C 0.23277 0.01883 0.79576 0.0
C646 C 0.22094 0.03843 0.79704 0.0
C647 C 0.22706 0.05424 0.80297 0.0
C648 C 0.24412 0.04882 0.80774 0.0
C649 C 0.25586 0.02884 0.80647 0.0
C650 C 0.23657 0.9051 0.81094 0.0
C651 C 0.29949 0.91079 0.79912 0.0
C652 C 0.21171 0.8141 0.79311 0.0
C653 C 0.22069 0.78993 0.79389 0.0
C654 C 0.22445 0.77986 0.80003 0.0
C655 C 0.22745 0.75332 0.8006 0.0
C656 C 0.22709 0.73663 0.79506 0.0
C657 C 0.22519 0.74777 0.78891 0.0
C658 C 0.22185 0.77405 0.78834 0.0
C659 C 0.2435 0.91579 0.78601 0.0
O660 O 0.20298 0.92172 0.7991 0.0
O661 O 0.18163 0.86873 0.79755 0.0
O662 O 0.27977 0.98814 0.80292 0.0
O663 O 0.24751 0.97201 0.79471 0.0
O664 O 0.25054 0.93518 0.81071 0.0
O665 O 0.23337 0.8939 0.80521 0.0
O666 O 0.27408 0.88321 0.79893 0.0
O667 O 0.29879 0.93725 0.79892 0.0
O668 O 0.2285 0.83728 0.7892 0.0
O669 O 0.20198 0.82254 0.79821 0.0
O670 O 0.21886 0.88841 0.78574 0.0
O671 O 0.25757 0.91736 0.79118 0.0
H672 H 0.22855 1.00801 0.79102 0.0
H673 H 0.20838 0.04246 0.79322 0.0
H674 H 0.24897 0.06059 0.81237 0.0
H675 H 0.26947 0.02554 0.81016 0.0
H676 H 0.22377 0.79166 0.80439 0.0
H677 H 0.22902 0.74519 0.80539 0.0
H678 H 0.2245 0.73513 0.78457 0.0
H679 H 0.21872 0.78115 0.78356 0.0
Ho680 Ho 0.14334 0.35185 0.7998 0.0
Ho681 Ho 0.20811 0.38779 0.7961 0.0
C682 C 0.18573 0.31831 0.79794 0.0
C683 C 0.08571 0.30804 0.80034 0.0
C684 C 0.06861 0.27354 0.80097 0.0
C685 C 0.06261 0.25454 0.79547 0.0
C686 C 0.04276 0.22238 0.79589 0.0
C687 C 0.0285 0.2084 0.8018 0.0
C688 C 0.03618 0.22697 0.80739 0.0
C689 C 0.05592 0.25927 0.80697 0.0
C690 C 0.17885 0.37528 0.81047 0.0
C691 C 0.17224 0.42424 0.79902 0.0
C692 C 0.26622 0.42956 0.79402 0.0
C693 C 0.2898 0.46346 0.79422 0.0
C694 C 0.30077 0.47985 0.80009 0.0
C695 C 0.32688 0.51002 0.80019 0.0
C696 C 0.34277 0.5247 0.79441 0.0
C697 C 0.33041 0.50884 0.78852 0.0
C698 C 0.30457 0.47869 0.78843 0.0
C699 C 0.16569 0.36228 0.78608 0.0
O700 O 0.15775 0.31548 0.79791 0.0
O701 O 0.21092 0.34569 0.79796 0.0
O702 O 0.1012 0.32425 0.80539 0.0
O703 O 0.10069 0.31975 0.79491 0.0
O704 O 0.15298 0.37489 0.80933 0.0
O705 O 0.18608 0.36417 0.80559 0.0
O706 O 0.1982 0.42384 0.7999 0.0
O707 O 0.14575 0.39803 0.79805 0.0
O708 O 0.24467 0.41978 0.78957 0.0
O709 O 0.25579 0.41456 0.79948 0.0
O710 O 0.19061 0.36009 0.78656 0.0
O711 O 0.16453 0.37689 0.79093 0.0
H712 H 0.0722 0.26457 0.79078 0.0
H713 H 0.03761 0.20851 0.79152 0.0
H714 H 0.0255 0.2168 0.81201 0.0
H715 H 0.0602 0.27319 0.8113 0.0
H716 H 0.29004 0.46891 0.80466 0.0
H717 H 0.33544 0.52108 0.80484 0.0
H718 H 0.34112 0.51936 0.78393 0.0
H719 H 0.29683 0.46677 0.78382 0.0
Ho720 Ho 0.22342 0.38715 0.29564 0.0
Ho721 Ho 0.25674 0.35105 0.30003 0.0
C722 C 0.29663 0.42511 0.29944 0.0
C723 C 0.20658 0.42821 0.2934 0.0
C724 C 0.21716 0.46205 0.29389 0.0
C725 C 0.22162 0.47737 0.29987 0.0
C726 C 0.22649 0.50784 0.30013 0.0
C727 C 0.22724 0.52391 0.29441 0.0
C728 C 0.22501 0.50908 0.28843 0.0
C729 C 0.21966 0.4786 0.28818 0.0
C730 C 0.24112 0.35997 0.28623 0.0
C731 C 0.18048 0.31696 0.2986 0.0
C732 C 0.27237 0.30896 0.29889 0.0
C733 C 0.25628 0.27488 0.30019 0.0
C734 C 0.23806 0.25363 0.29532 0.0
C735 C 0.22533 0.22161 0.29623 0.0
C736 C 0.23064 0.20998 0.302 0.0
C737 C 0.24733 0.23102 0.30701 0.0
C738 C 0.26001 0.26313 0.30612 0.0
C739 C 0.23398 0.36391 0.31081 0.0
O740 O 0.26956 0.42401 0.29915 0.0
O741 O 0.29894 0.3995 0.29933 0.0
O742 O 0.22028 0.41973 0.28911 0.0
O743 O 0.19975 0.41175 0.29874 0.0
O744 O 0.2145 0.35908 0.28628 0.0
O745 O 0.25637 0.37485 0.29115 0.0
O746 O 0.20599 0.31471 0.2983 0.0
O747 O 0.18118 0.34379 0.29846 0.0
O748 O 0.28086 0.32803 0.30386 0.0
O749 O 0.26099 0.31763 0.29413 0.0
O750 O 0.24995 0.34978 0.31082 0.0
O751 O 0.23153 0.37117 0.30502 0.0
H752 H 0.22009 0.46543 0.30437 0.0
H753 H 0.22807 0.51801 0.30485 0.0
H754 H 0.22666 0.52061 0.28387 0.0
H755 H 0.21644 0.46754 0.28349 0.0
H756 H 0.23446 0.26172 0.2907 0.0
H757 H 0.21278 0.20612 0.29225 0.0
H758 H 0.25135 0.22271 0.31157 0.0
H759 H 0.27351 0.27874 0.31 0.0
Ho760 Ho 0.69217 0.87042 0.29563 0.0
Ho761 Ho 0.73217 0.9391 0.30012 0.0
C762 C 0.65821 0.90816 0.29998 0.0
C763 C 0.64983 0.81354 0.29305 0.0
C764 C 0.61663 0.7896 0.29384 0.0
C765 C 0.60192 0.78124 0.29994 0.0
C766 C 0.57201 0.75516 0.30055 0.0
C767 C 0.55636 0.73738 0.29507 0.0
C768 C 0.57038 0.74672 0.28895 0.0
C769 C 0.60025 0.77254 0.28835 0.0
C770 C 0.71882 0.91527 0.28615 0.0
C771 C 0.76243 0.8939 0.29798 0.0
C772 C 0.77616 0.99604 0.2989 0.0
C773 C 0.80995 0.01418 0.30033 0.0
C774 C 0.83109 0.02169 0.29518 0.0
C775 C 0.86299 0.04008 0.29618 0.0
C776 C 0.87484 0.05168 0.30238 0.0
C777 C 0.8538 0.04333 0.30761 0.0
C778 C 0.82163 0.02473 0.3066 0.0
C779 C 0.71841 0.9033 0.31088 0.0
O780 O 0.65758 0.88128 0.29998 0.0
O781 O 0.68462 0.93515 0.29929 0.0
O782 O 0.65619 0.83712 0.28928 0.0
O783 O 0.66817 0.82139 0.29811 0.0
O784 O 0.71712 0.88832 0.2859 0.0
O785 O 0.70623 0.91662 0.29136 0.0
O786 O 0.76619 0.92226 0.29799 0.0
O787 O 0.73488 0.86868 0.29785 0.0
O788 O 0.75597 0.98685 0.30369 0.0
O789 O 0.7687 0.97469 0.29445 0.0
O790 O 0.73378 0.9334 0.31087 0.0
O791 O 0.71009 0.89352 0.30511 0.0
H792 H 0.61392 0.79403 0.30426 0.0
H793 H 0.56158 0.74817 0.30531 0.0
H794 H 0.55889 0.73308 0.28468 0.0
H795 H 0.61114 0.77839 0.28361 0.0
H796 H 0.82289 0.01394 0.29029 0.0
H797 H 0.8782 0.04633 0.292 0.0
H798 H 0.86216 0.05154 0.31247 0.0
H799 H 0.80601 0.01911 0.31069 0.0
Ho800 Ho 0.21114 0.85557 0.29561 0.0
Ho801 Ho 0.14119 0.82512 0.30018 0.0
C802 C 0.17245 0.78216 0.29929 0.0
C803 C 0.26922 0.8723 0.29371 0.0
C804 C 0.29282 0.86211 0.29391 0.0
C805 C 0.30191 0.85391 0.29972 0.0
C806 C 0.32793 0.84966 0.29983 0.0
C807 C 0.34549 0.85367 0.29416 0.0
C808 C 0.33496 0.85987 0.28831 0.0
C809 C 0.3092 0.86421 0.28821 0.0
C810 C 0.16654 0.84039 0.28623 0.0
C811 C 0.18528 0.90084 0.29832 0.0
C812 C 0.08305 0.80891 0.29977 0.0
C813 C 0.06555 0.82576 0.30066 0.0
C814 C 0.05819 0.83799 0.29523 0.0
C815 C 0.03971 0.85174 0.29586 0.0
C816 C 0.02795 0.85369 0.30195 0.0
C817 C 0.03652 0.84278 0.30744 0.0
C818 C 0.05501 0.82888 0.30681 0.0
C819 C 0.17815 0.84622 0.31081 0.0
O820 O 0.19963 0.8077 0.29857 0.0
O821 O 0.14552 0.78191 0.29944 0.0
O822 O 0.24798 0.86049 0.28919 0.0
O823 O 0.25852 0.87672 0.29918 0.0
O824 O 0.19423 0.86464 0.28597 0.0
O825 O 0.16476 0.82491 0.29123 0.0
O826 O 0.15699 0.87596 0.29828 0.0
O827 O 0.2108 0.89886 0.29811 0.0
O828 O 0.09587 0.80418 0.30488 0.0
O829 O 0.10101 0.81672 0.29467 0.0
O830 O 0.1481 0.83118 0.31095 0.0
O831 O 0.18696 0.84835 0.30495 0.0
H832 H 0.28976 0.852 0.30421 0.0
H833 H 0.33519 0.84489 0.30444 0.0
H834 H 0.34721 0.86234 0.2838 0.0
H835 H 0.30281 0.87048 0.28366 0.0
H836 H 0.06588 0.83608 0.29042 0.0
H837 H 0.03345 0.85942 0.29149 0.0
H838 H 0.02845 0.84442 0.31223 0.0
H839 H 0.06048 0.82001 0.31111 0.0
Ho840 Ho 0.72593 0.88773 0.89402 0.0
Ho841 Ho 0.68888 0.91956 0.88877 0.0
C842 C 0.76289 0.96137 0.89036 0.0
C843 C 0.76632 0.87018 0.89636 0.0
C844 C 0.7996 0.87892 0.89585 0.0
C845 C 0.81719 0.89118 0.89015 0.0
C846 C 0.8474 0.8955 0.88968 0.0
C847 C 0.8606 0.88726 0.89485 0.0
C848 C 0.84309 0.87612 0.90061 0.0
C849 C 0.81321 0.87222 0.9011 0.0
C850 C 0.69576 0.90386 0.90301 0.0
C851 C 0.65517 0.84354 0.89098 0.0
C852 C 0.64723 0.93619 0.88888 0.0
C853 C 0.61286 0.91934 0.88799 0.0
C854 C 0.59316 0.90396 0.89328 0.0
C855 C 0.56106 0.89092 0.89275 0.0
C856 C 0.54763 0.89335 0.88695 0.0
C857 C 0.56692 0.90685 0.88151 0.0
C858 C 0.59928 0.91977 0.88203 0.0
C859 C 0.70499 0.89715 0.87846 0.0
O860 O 0.76325 0.93521 0.89123 0.0
O861 O 0.73679 0.96239 0.88955 0.0
O862 O 0.75911 0.88546 0.90052 0.0
O863 O 0.74971 0.8631 0.89104 0.0
O864 O 0.69918 0.87965 0.9035 0.0
O865 O 0.71028 0.91904 0.89803 0.0
O866 O 0.65253 0.86869 0.89022 0.0
O867 O 0.68183 0.84453 0.89199 0.0
O868 O 0.66476 0.94015 0.88381 0.0
O869 O 0.65737 0.92913 0.89409 0.0
O870 O 0.69073 0.9129 0.8781 0.0
O871 O 0.71126 0.89511 0.88437 0.0
H872 H 0.8074 0.89679 0.88603 0.0
H873 H 0.86013 0.90488 0.8852 0.0
H874 H 0.85168 0.86895 0.90469 0.0
H875 H 0.80016 0.8627 0.90554 0.0
H876 H 0.60248 0.90287 0.89795 0.0
H877 H 0.5468 0.87994 0.89699 0.0
H878 H 0.55725 0.90895 0.87695 0.0
H879 H 0.61371 0.93112 0.87783 0.0
Ho880 Ho 0.19372 0.87225 0.89396 0.0
Ho881 Ho 0.16342 0.80295 0.88952 0.0
C882 C 0.11965 0.8334 0.89071 0.0
C883 C 0.2111 0.93065 0.89559 0.0
C884 C 0.20102 0.95429 0.89574 0.0
C885 C 0.19127 0.96321 0.89013 0.0
C886 C 0.18754 0.9895 0.8902 0.0
C887 C 0.19369 1.00753 0.89587 0.0
C888 C 0.20153 0.99732 0.90155 0.0
C889 C 0.20524 0.97117 0.90148 0.0
C890 C 0.17605 0.82776 0.90345 0.0
C891 C 0.23938 0.84703 0.89114 0.0
C892 C 0.14946 0.74585 0.89099 0.0
C893 C 0.16458 0.72709 0.8897 0.0
C894 C 0.17478 0.71695 0.89503 0.0
C895 C 0.18789 0.6981 0.89415 0.0
C896 C 0.19143 0.68882 0.88791 0.0
C897 C 0.18222 0.69993 0.88253 0.0
C898 C 0.16885 0.71883 0.88342 0.0
C899 C 0.18399 0.83779 0.87869 0.0
O900 O 0.14494 0.86044 0.89179 0.0
O901 O 0.11985 0.8068 0.89004 0.0
O902 O 0.20198 0.91042 0.90033 0.0
O903 O 0.2123 0.91872 0.89001 0.0
O904 O 0.20115 0.85487 0.90372 0.0
O905 O 0.16188 0.82647 0.89829 0.0
O906 O 0.21462 0.81906 0.89051 0.0
O907 O 0.23773 0.87237 0.89209 0.0
O908 O 0.13911 0.75507 0.88609 0.0
O909 O 0.16333 0.76737 0.8954 0.0
O910 O 0.16896 0.80766 0.87884 0.0
O911 O 0.1868 0.84845 0.88445 0.0
H912 H 0.18783 0.95075 0.88561 0.0
H913 H 0.18151 0.99664 0.88572 0.0
H914 H 0.2058 0.01015 0.90605 0.0
H915 H 0.21281 0.96495 0.90588 0.0
H916 H 0.17195 0.72306 0.89993 0.0
H917 H 0.194 0.68981 0.89845 0.0
H918 H 0.18505 0.69385 0.87763 0.0
H919 H 0.16161 0.72662 0.8792 0.0
Ho920 Ho 0.21109 0.35605 0.89383 0.0
Ho921 Ho 0.27842 0.39274 0.88981 0.0
C922 C 0.24678 0.31944 0.88991 0.0
C923 C 0.15403 0.31479 0.89679 0.0
C924 C 0.12893 0.28191 0.89597 0.0
C925 C 0.11971 0.26761 0.88986 0.0
C926 C 0.09312 0.23801 0.88926 0.0
C927 C 0.07514 0.22208 0.89474 0.0
C928 C 0.08543 0.23592 0.90087 0.0
C929 C 0.11192 0.26541 0.90147 0.0
C930 C 0.25466 0.38363 0.90346 0.0
C931 C 0.23542 0.42547 0.89079 0.0
C932 C 0.33595 0.43535 0.89089 0.0
C933 C 0.35305 0.46952 0.88972 0.0
C934 C 0.35518 0.48986 0.89471 0.0
C935 C 0.37392 0.52195 0.894 0.0
C936 C 0.39143 0.53471 0.88832 0.0
C937 C 0.38759 0.51469 0.88313 0.0
C938 C 0.36859 0.48234 0.88383 0.0
C939 C 0.24672 0.37896 0.87855 0.0
O940 O 0.2205 0.31996 0.88973 0.0
O941 O 0.27397 0.34527 0.89068 0.0
O942 O 0.17809 0.31998 0.90027 0.0
O943 O 0.1616 0.33374 0.89184 0.0
O944 O 0.22979 0.38586 0.90302 0.0
O945 O 0.25551 0.36842 0.89868 0.0
O946 O 0.26331 0.42853 0.89141 0.0
O947 O 0.20999 0.39817 0.89076 0.0
O948 O 0.32546 0.41667 0.88588 0.0
O949 O 0.31612 0.42588 0.8957 0.0
O950 O 0.27658 0.39382 0.87915 0.0
O951 O 0.2337 0.37059 0.88412 0.0
H952 H 0.13247 0.27961 0.88553 0.0
H953 H 0.08628 0.22787 0.88447 0.0
H954 H 0.07219 0.22468 0.9052 0.0
H955 H 0.11845 0.27592 0.90623 0.0
H956 H 0.34323 0.48102 0.89928 0.0
H957 H 0.37574 0.53679 0.89803 0.0
H958 H 0.40063 0.52384 0.87867 0.0
H959 H 0.36706 0.46739 0.87985 0.0
Ho960 Ho 0.82911 0.72703 0.7228 0.0
Ho961 Ho 0.86158 0.69043 0.7272 0.0
C962 C 0.90542 0.76104 0.72444 0.0
C963 C 0.81226 0.76851 0.72336 0.0
C964 C 0.82889 0.80281 0.72233 0.0
C965 C 0.84004 0.82272 0.72773 0.0
C966 C 0.85386 0.8549 0.72699 0.0
C967 C 0.85702 0.8683 0.72082 0.0
C968 C 0.84721 0.84848 0.71537 0.0
C969 C 0.83322 0.8161 0.71612 0.0
C970 C 0.84869 0.71208 0.71187 0.0
C971 C 0.78798 0.65281 0.72396 0.0
C972 C 0.87928 0.64993 0.72938 0.0
C973 C 0.87051 0.61654 0.72908 0.0
C974 C 0.85784 0.59797 0.72353 0.0
C975 C 0.85347 0.56763 0.72329 0.0
C976 C 0.8622 0.55527 0.72856 0.0
C977 C 0.87396 0.57396 0.73415 0.0
C978 C 0.87774 0.60383 0.73442 0.0
C979 C 0.84579 0.71921 0.73666 0.0
O980 O 0.87999 0.7635 0.72429 0.0
O981 O 0.90437 0.73408 0.72481 0.0
O982 O 0.80668 0.75045 0.71831 0.0
O983 O 0.82109 0.75894 0.72839 0.0
O984 O 0.83309 0.72649 0.71211 0.0
O985 O 0.85274 0.70511 0.71762 0.0
O986 O 0.81466 0.65317 0.72424 0.0
O987 O 0.78644 0.67885 0.72376 0.0
O988 O 0.86528 0.65797 0.73369 0.0
O989 O 0.88494 0.66569 0.72397 0.0
O990 O 0.87121 0.7178 0.73669 0.0
O991 O 0.82998 0.70437 0.73179 0.0
H992 H 0.83724 0.81337 0.73259 0.0
H993 H 0.86065 0.86904 0.73133 0.0
H994 H 0.84982 0.85788 0.71052 0.0
H995 H 0.8253 0.80153 0.71184 0.0
H996 H 0.85186 0.60704 0.71933 0.0
H997 H 0.84357 0.55419 0.71893 0.0
H998 H 0.88173 0.56639 0.73831 0.0
H999 H 0.88762 0.61763 0.73876 0.0
Ho1000 Ho 0.35562 0.13815 0.72238 0.0
Ho1001 Ho 0.39303 0.20667 0.72733 0.0
C1002 C 0.32243 0.18107 0.7246 0.0
C1003 C 0.31276 0.08066 0.72335 0.0
C1004 C 0.27884 0.06228 0.72206 0.0
C1005 C 0.25819 0.05449 0.72733 0.0
C1006 C 0.22639 0.0347 0.7265 0.0
C1007 C 0.21439 0.02214 0.7204 0.0
C1008 C 0.23446 0.03117 0.71502 0.0
C1009 C 0.26659 0.05114 0.71585 0.0
C1010 C 0.36927 0.17529 0.7119 0.0
C1011 C 0.42967 0.17106 0.72292 0.0
C1012 C 0.43421 0.26376 0.73005 0.0
C1013 C 0.46743 0.28784 0.7293 0.0
C1014 C 0.4821 0.29664 0.7232 0.0
C1015 C 0.51191 0.32288 0.72262 0.0
C1016 C 0.52761 0.3404 0.72812 0.0
C1017 C 0.51371 0.33054 0.73424 0.0
C1018 C 0.48389 0.30458 0.73481 0.0
C1019 C 0.36559 0.16044 0.73644 0.0
O1020 O 0.31988 0.15325 0.72406 0.0
O1021 O 0.34938 0.20673 0.72531 0.0
O1022 O 0.33237 0.09105 0.71845 0.0
O1023 O 0.32049 0.10106 0.728 0.0
O1024 O 0.35476 0.1452 0.71169 0.0
O1025 O 0.37686 0.18445 0.71773 0.0
O1026 O 0.42926 0.1974 0.7233 0.0
O1027 O 0.4037 0.14343 0.72311 0.0
O1028 O 0.42783 0.24022 0.73385 0.0
O1029 O 0.41613 0.25575 0.72494 0.0
O1030 O 0.36663 0.18706 0.73683 0.0
O1031 O 0.37956 0.16037 0.73134 0.0
H1032 H 0.26674 0.06277 0.73218 0.0
H1033 H 0.21126 0.02801 0.73071 0.0
H1034 H 0.22555 0.02151 0.71027 0.0
H1035 H 0.28181 0.05692 0.71168 0.0
H1036 H 0.4701 0.28409 0.71886 0.0
H1037 H 0.52224 0.33021 0.71785 0.0
H1038 H 0.52522 0.34393 0.73854 0.0
H1039 H 0.47307 0.29839 0.73956 0.0
Ho1040 Ho 0.94406 0.25107 0.72304 0.0
Ho1041 Ho 0.8757 0.22234 0.72716 0.0
C1042 C 0.89941 0.17584 0.72467 0.0
C1043 C 1.00127 0.26536 0.72426 0.0
C1044 C 0.01935 0.24962 0.72282 0.0
C1045 C 0.02702 0.23598 0.72795 0.0
C1046 C 0.04666 0.22386 0.72692 0.0
C1047 C 0.05905 0.22505 0.72076 0.0
C1048 C 0.05017 0.23696 0.71552 0.0
C1049 C 0.03037 0.24916 0.71654 0.0
C1050 C 0.91019 0.22877 0.71206 0.0
C1051 C 0.91451 0.29541 0.72349 0.0
C1052 C 0.81782 0.20574 0.72935 0.0
C1053 C 0.79426 0.21592 0.72939 0.0
C1054 C 0.78657 0.22697 0.72379 0.0
C1055 C 0.76043 0.23097 0.72377 0.0
C1056 C 0.74135 0.2237 0.72931 0.0
C1057 C 0.75032 0.21454 0.73498 0.0
C1058 C 0.77638 0.2107 0.73502 0.0
C1059 C 0.91984 0.23917 0.73673 0.0
O1060 O 0.92769 0.20027 0.72519 0.0
O1061 O 0.87439 0.1785 0.72446 0.0
O1062 O 0.99148 0.2753 0.71939 0.0
O1063 O 0.98057 0.2526 0.72888 0.0
O1064 O 0.9402 0.24339 0.71236 0.0
O1065 O 0.89899 0.22722 0.71771 0.0
O1066 O 0.88707 0.27001 0.72399 0.0
O1067 O 0.94105 0.29499 0.72362 0.0
O1068 O 0.83932 0.21685 0.73382 0.0
O1069 O 0.82818 0.20216 0.72376 0.0
O1070 O 0.89388 0.21278 0.73663 0.0
O1071 O 0.92092 0.25422 0.73174 0.0
H1072 H 0.01881 0.23576 0.73283 0.0
H1073 H 0.05342 0.21489 0.73102 0.0
H1074 H 0.05978 0.23827 0.71073 0.0
H1075 H 0.02467 0.2592 0.71247 0.0
H1076 H 0.79991 0.23126 0.71937 0.0
H1077 H 0.75417 0.23804 0.71931 0.0
H1078 H 0.73649 0.20924 0.73936 0.0
H1079 H 0.78172 0.20219 0.73939 0.0
Ho1080 Ho 0.39799 0.15875 0.13298 0.0
Ho1081 Ho 0.35898 0.18826 0.12885 0.0
C1082 C 0.42978 0.23461 0.13113 0.0
C1083 C 0.44101 0.1447 0.13155 0.0
C1084 C 0.47481 0.16075 0.13301 0.0
C1085 C 0.49648 0.18015 0.12831 0.0
C1086 C 0.52837 0.19318 0.12935 0.0
C1087 C 0.53936 0.18683 0.13508 0.0
C1088 C 0.51794 0.16876 0.13993 0.0
C1089 C 0.48594 0.15593 0.13892 0.0
C1090 C 0.38508 0.17916 0.14404 0.0
C1091 C 0.32429 0.11594 0.13294 0.0
C1092 C 0.31727 0.20385 0.12631 0.0
C1093 C 0.2841 0.19509 0.12702 0.0
C1094 C 0.26875 0.18772 0.13305 0.0
C1095 C 0.23865 0.18352 0.13359 0.0
C1096 C 0.22332 0.18683 0.12814 0.0
C1097 C 0.2384 0.19287 0.12208 0.0
C1098 C 0.2683 0.19687 0.12154 0.0
C1099 C 0.38545 0.17038 0.11928 0.0
O1100 O 0.43294 0.20966 0.13133 0.0
O1101 O 0.40238 0.23264 0.13079 0.0
O1102 O 0.42119 0.1341 0.13641 0.0
O1103 O 0.4329 0.15775 0.12702 0.0
O1104 O 0.40012 0.16416 0.14366 0.0
O1105 O 0.3762 0.18203 0.13839 0.0
O1106 O 0.32333 0.14204 0.13288 0.0
O1107 O 0.35067 0.11547 0.13226 0.0
O1108 O 0.32358 0.18681 0.12246 0.0
O1109 O 0.33529 0.21353 0.13142 0.0
O1110 O 0.38539 0.19651 0.11922 0.0
O1111 O 0.3719 0.15598 0.12435 0.0
H1112 H 0.48883 0.18449 0.12371 0.0
H1113 H 0.54434 0.20679 0.12551 0.0
H1114 H 0.52594 0.16381 0.14442 0.0
H1115 H 0.46995 0.14145 0.14267 0.0
H1116 H 0.28025 0.18598 0.13736 0.0
H1117 H 0.22766 0.17825 0.13832 0.0
H1118 H 0.22781 0.19603 0.11778 0.0
H1119 H 0.27964 0.20262 0.11684 0.0
Ho1120 Ho 0.92258 0.27273 0.13343 0.0
Ho1121 Ho 0.89091 0.20356 0.12883 0.0
C1122 C 0.84655 0.22989 0.13164 0.0
C1123 C 0.93757 0.33038 0.13253 0.0
C1124 C 0.92097 0.34787 0.13383 0.0
C1125 C 0.90286 0.35093 0.12895 0.0
C1126 C 0.88964 0.36977 0.12987 0.0
C1127 C 0.89431 0.38621 0.1357 0.0
C1128 C 0.91096 0.38184 0.14072 0.0
C1129 C 0.92416 0.3629 0.1398 0.0
C1130 C 0.90099 0.23659 0.14415 0.0
C1131 C 0.96476 0.24084 0.13217 0.0
C1132 C 0.87343 0.14539 0.12674 0.0
C1133 C 0.88346 0.12171 0.127 0.0
C1134 C 0.89631 0.11637 0.1326 0.0
C1135 C 0.90149 0.09098 0.13291 0.0
C1136 C 0.8935 0.06995 0.12766 0.0
C1137 C 0.88186 0.07639 0.12199 0.0
C1138 C 0.87712 0.10191 0.12166 0.0
C1139 C 0.90761 0.2489 0.11956 0.0
O1140 O 0.87184 0.25781 0.13176 0.0
O1141 O 0.84782 0.20407 0.13129 0.0
O1142 O 0.94567 0.31941 0.1375 0.0
O1143 O 0.92694 0.31085 0.12768 0.0
O1144 O 0.9167 0.26668 0.14417 0.0
O1145 O 0.89832 0.22694 0.13833 0.0
O1146 O 0.9388 0.21407 0.1314 0.0
O1147 O 0.96555 0.26797 0.13269 0.0
O1148 O 0.88588 0.16699 0.12229 0.0
O1149 O 0.86877 0.15584 0.13221 0.0
O1150 O 0.88185 0.22233 0.11942 0.0
O1151 O 0.92287 0.24943 0.12448 0.0
H1152 H 0.89971 0.33962 0.12429 0.0
H1153 H 0.87717 0.37275 0.12589 0.0
H1154 H 0.91453 0.39378 0.14531 0.0
H1155 H 0.93762 0.36078 0.14369 0.0
H1156 H 0.90165 0.13131 0.1368 0.0
H1157 H 0.9113 0.08768 0.13731 0.0
H1158 H 0.87487 0.06096 0.11785 0.0
H1159 H 0.86714 0.10541 0.11729 0.0
Ho1160 Ho 0.80739 0.68333 0.13316 0.0
Ho1161 Ho 0.87608 0.72117 0.12929 0.0
C1162 C 0.85088 0.65079 0.13202 0.0
C1163 C 0.75028 0.64034 0.13176 0.0
C1164 C 0.73249 0.60649 0.13324 0.0
C1165 C 0.72666 0.58497 0.12823 0.0
C1166 C 0.70741 0.55313 0.12927 0.0
C1167 C 0.69354 0.54205 0.13534 0.0
C1168 C 0.70053 0.5631 0.14047 0.0
C1169 C 0.72 0.59514 0.13944 0.0
C1170 C 0.8394 0.69692 0.1444 0.0
C1171 C 0.8383 0.75707 0.13244 0.0
C1172 C 0.93414 0.76239 0.12717 0.0
C1173 C 0.95782 0.79614 0.12751 0.0
C1174 C 0.96711 0.8126 0.13339 0.0
C1175 C 0.99291 0.84293 0.13362 0.0
C1176 C 1.0103 0.85803 0.12797 0.0
C1177 C 0.99916 0.84173 0.12204 0.0
C1178 C 0.97381 0.81136 0.12185 0.0
C1179 C 0.83263 0.6941 0.11959 0.0
O1180 O 0.82293 0.64789 0.13169 0.0
O1181 O 0.87643 0.6781 0.13195 0.0
O1182 O 0.75958 0.66017 0.1366 0.0
O1183 O 0.77131 0.64849 0.1272 0.0
O1184 O 0.80946 0.68196 0.14387 0.0
O1185 O 0.85183 0.70522 0.13879 0.0
O1186 O 0.8654 0.7582 0.13225 0.0
O1187 O 0.81136 0.73055 0.1322 0.0
O1188 O 0.91233 0.75359 0.12279 0.0
O1189 O 0.92399 0.74663 0.13258 0.0
O1190 O 0.85816 0.69289 0.11986 0.0
O1191 O 0.83162 0.70865 0.12447 0.0
H1192 H 0.73601 0.59282 0.1234 0.0
H1193 H 0.70201 0.53723 0.12524 0.0
H1194 H 0.68977 0.5549 0.14518 0.0
H1195 H 0.72429 0.611 0.14343 0.0
H1196 H 0.95515 0.80168 0.13786 0.0
H1197 H 0.99944 0.85359 0.13835 0.0
H1198 H 1.00993 0.85165 0.11745 0.0
H1199 H 0.96721 0.79935 0.11723 0.0
Ho1200 Ho 0.8933 0.72155 0.62909 0.0
Ho1201 Ho 0.92301 0.68221 0.63321 0.0
C1202 C 0.96699 0.75595 0.63232 0.0
C1203 C 0.87675 0.76309 0.62711 0.0
C1204 C 0.88693 0.79689 0.62739 0.0
C1205 C 0.89202 0.81292 0.6333 0.0
C1206 C 0.89609 0.84308 0.63345 0.0
C1207 C 0.89522 0.85804 0.6277 0.0
C1208 C 0.89208 0.84253 0.62177 0.0
C1209 C 0.88772 0.81239 0.62163 0.0
C1210 C 0.90978 0.69392 0.61952 0.0
C1211 C 0.84751 0.65118 0.63172 0.0
C1212 C 0.93656 0.63869 0.63206 0.0
C1213 C 0.92021 0.60501 0.63372 0.0
C1214 C 0.9013 0.58279 0.62906 0.0
C1215 C 0.88819 0.551 0.63031 0.0
C1216 C 0.89402 0.54071 0.63619 0.0
C1217 C 0.91157 0.56263 0.64098 0.0
C1218 C 0.92438 0.59452 0.63978 0.0
C1219 C 0.90344 0.69676 0.64424 0.0
O1220 O 0.94148 0.75789 0.63187 0.0
O1221 O 0.96675 0.72905 0.63236 0.0
O1222 O 0.88891 0.75375 0.62263 0.0
O1223 O 0.8719 0.74774 0.63255 0.0
O1224 O 0.8836 0.69396 0.6196 0.0
O1225 O 0.92492 0.70782 0.6245 0.0
O1226 O 0.87215 0.64759 0.63137 0.0
O1227 O 0.84971 0.6787 0.63175 0.0
O1228 O 0.94718 0.65893 0.63683 0.0
O1229 O 0.92396 0.64667 0.62742 0.0
O1230 O 0.91789 0.68116 0.64396 0.0
O1231 O 0.90044 0.70468 0.63852 0.0
H1232 H 0.89156 0.80172 0.63785 0.0
H1233 H 0.89831 0.8539 0.63813 0.0
H1234 H 0.89218 0.85331 0.6172 0.0
H1235 H 0.88379 0.80071 0.617 0.0
H1236 H 0.89747 0.58995 0.62435 0.0
H1237 H 0.87501 0.5345 0.62652 0.0
H1238 H 0.91625 0.5551 0.64557 0.0
H1239 H 0.93846 0.61092 0.6435 0.0
Ho1240 Ho 0.35807 0.20375 0.62917 0.0
Ho1241 Ho 0.39904 0.27325 0.63356 0.0
C1242 C 0.32472 0.24341 0.63293 0.0
C1243 C 0.31676 0.14582 0.62715 0.0
C1244 C 0.28329 0.12181 0.62738 0.0
C1245 C 0.26524 0.11517 0.63305 0.0
C1246 C 0.2351 0.08918 0.63331 0.0
C1247 C 0.22244 0.06897 0.62794 0.0
C1248 C 0.24031 0.07667 0.62221 0.0
C1249 C 0.27015 0.10274 0.62194 0.0
C1250 C 0.38486 0.24863 0.61971 0.0
C1251 C 0.42878 0.22779 0.63147 0.0
C1252 C 0.44282 0.33021 0.63231 0.0
C1253 C 0.47671 0.34819 0.63363 0.0
C1254 C 0.49741 0.35628 0.62838 0.0
C1255 C 0.5294 0.37451 0.6293 0.0
C1256 C 0.54178 0.38533 0.6355 0.0
C1257 C 0.52116 0.3763 0.64082 0.0
C1258 C 0.48891 0.35791 0.6399 0.0
C1259 C 0.38591 0.2373 0.64427 0.0
O1260 O 0.32249 0.21581 0.6325 0.0
O1261 O 0.35183 0.27001 0.63282 0.0
O1262 O 0.32578 0.16741 0.62271 0.0
O1263 O 0.33181 0.15622 0.63262 0.0
O1264 O 0.38275 0.22147 0.61937 0.0
O1265 O 0.37251 0.24992 0.62494 0.0
O1266 O 0.43282 0.25625 0.63128 0.0
O1267 O 0.40113 0.20266 0.6315 0.0
O1268 O 0.42309 0.32085 0.63719 0.0
O1269 O 0.4349 0.30907 0.6278 0.0
O1270 O 0.40181 0.26738 0.64426 0.0
O1271 O 0.37703 0.22767 0.63851 0.0
H1272 H 0.27468 0.12951 0.63733 0.0
H1273 H 0.22201 0.08468 0.63777 0.0
H1274 H 0.23204 0.0618 0.61798 0.0
H1275 H 0.28361 0.10721 0.61752 0.0
H1276 H 0.4888 0.34911 0.62349 0.0
H1277 H 0.54425 0.38126 0.62505 0.0
H1278 H 0.52988 0.38381 0.64569 0.0
H1279 H 0.47362 0.35178 0.64406 0.0
Ho1280 Ho 0.87718 0.18891 0.62909 0.0
Ho1281 Ho 0.80848 0.15845 0.63333 0.0
C1282 C 0.8404 0.11643 0.63312 0.0
C1283 C 0.93485 0.20502 0.62667 0.0
C1284 C 0.95891 0.19544 0.6271 0.0
C1285 C 0.9707 0.19205 0.63305 0.0
C1286 C 0.99672 0.18787 0.63324 0.0
C1287 C 1.01162 0.18672 0.62747 0.0
C1288 C 0.99835 0.18829 0.62153 0.0
C1289 C 0.97274 0.19294 0.62136 0.0
C1290 C 0.83293 0.17074 0.61949 0.0
C1291 C 0.85191 0.23443 0.63155 0.0
C1292 C 0.7512 0.14408 0.63189 0.0
C1293 C 0.73258 0.15954 0.63304 0.0
C1294 C 0.72336 0.17023 0.62765 0.0
C1295 C 0.70455 0.18349 0.62838 0.0
C1296 C 0.6944 0.18684 0.63456 0.0
C1297 C 0.70474 0.17725 0.64002 0.0
C1298 C 0.72349 0.1636 0.63926 0.0
C1299 C 0.84197 0.1807 0.64428 0.0
O1300 O 0.86717 0.14274 0.63296 0.0
O1301 O 0.81321 0.11545 0.63261 0.0
O1302 O 0.91209 0.19009 0.62257 0.0
O1303 O 0.9258 0.21271 0.63198 0.0
O1304 O 0.85925 0.19672 0.61942 0.0
O1305 O 0.83188 0.15633 0.6246 0.0
O1306 O 0.82397 0.20925 0.63162 0.0
O1307 O 0.87756 0.23284 0.63121 0.0
O1308 O 0.76063 0.13432 0.63685 0.0
O1309 O 0.77251 0.15726 0.62741 0.0
O1310 O 0.81195 0.16488 0.64398 0.0
O1311 O 0.85371 0.18305 0.63864 0.0
H1312 H 0.9606 0.19379 0.63758 0.0
H1313 H 1.00582 0.187 0.63795 0.0
H1314 H 1.00794 0.18648 0.61694 0.0
H1315 H 0.96427 0.1955 0.61669 0.0
H1316 H 0.7301 0.16761 0.62279 0.0
H1317 H 0.69698 0.18979 0.62401 0.0
H1318 H 0.69817 0.17995 0.64488 0.0
H1319 H 0.73054 0.15598 0.64354 0.0
Ho1320 Ho 0.39191 0.22017 0.22739 0.0
Ho1321 Ho 0.3547 0.25112 0.22304 0.0
C1322 C 0.42855 0.29331 0.22385 0.0
C1323 C 0.43311 0.20382 0.22992 0.0
C1324 C 0.46669 0.21365 0.22933 0.0
C1325 C 0.4816 0.21873 0.22327 0.0
C1326 C 0.51152 0.22248 0.22283 0.0
C1327 C 0.52726 0.22163 0.22843 0.0
C1328 C 0.51319 0.21852 0.2345 0.0
C1329 C 0.48316 0.2144 0.23494 0.0
C1330 C 0.36411 0.23714 0.23682 0.0
C1331 C 0.32184 0.17509 0.22467 0.0
C1332 C 0.31241 0.26651 0.22404 0.0
C1333 C 0.27845 0.25045 0.22273 0.0
C1334 C 0.25759 0.23616 0.2279 0.0
C1335 C 0.22575 0.22377 0.22702 0.0
C1336 C 0.21385 0.22554 0.22096 0.0
C1337 C 0.23425 0.23773 0.21565 0.0
C1338 C 0.26639 0.2502 0.21653 0.0
C1339 C 0.36891 0.23138 0.21206 0.0
O1340 O 0.42888 0.26693 0.22409 0.0
O1341 O 0.40227 0.2943 0.22383 0.0
O1342 O 0.42547 0.21908 0.23398 0.0
O1343 O 0.41609 0.19563 0.22466 0.0
O1344 O 0.36321 0.21052 0.23672 0.0
O1345 O 0.37892 0.25245 0.23192 0.0
O1346 O 0.31894 0.20024 0.2248 0.0
O1347 O 0.34909 0.17676 0.2248 0.0
O1348 O 0.33165 0.27499 0.2191 0.0
O1349 O 0.32082 0.25505 0.22883 0.0
O1350 O 0.35396 0.24645 0.21235 0.0
O1351 O 0.37667 0.22774 0.21776 0.0
H1352 H 0.46969 0.21846 0.21885 0.0
H1353 H 0.52197 0.22492 0.21809 0.0
H1354 H 0.52466 0.21742 0.23888 0.0
H1355 H 0.47221 0.21033 0.23966 0.0
H1356 H 0.26593 0.23552 0.23272 0.0
H1357 H 0.21045 0.21392 0.23117 0.0
H1358 H 0.22561 0.23922 0.21092 0.0
H1359 H 0.28178 0.26059 0.21242 0.0
Ho1360 Ho 0.86149 0.20603 0.22731 0.0
Ho1361 Ho 0.82937 0.13719 0.22263 0.0
C1362 C 0.78849 0.17029 0.22365 0.0
C1363 C 0.87739 0.26352 0.22973 0.0
C1364 C 0.86781 0.28741 0.22916 0.0
C1365 C 0.857 0.29341 0.22334 0.0
C1366 C 0.85177 0.31875 0.22289 0.0
C1367 C 0.85751 0.33881 0.22822 0.0
C1368 C 0.8671 0.3317 0.2341 0.0
C1369 C 0.87204 0.30636 0.23455 0.0
C1370 C 0.84214 0.16056 0.23666 0.0
C1371 C 0.90603 0.1802 0.22431 0.0
C1372 C 0.81671 0.08051 0.22409 0.0
C1373 C 0.83224 0.06221 0.2227 0.0
C1374 C 0.84647 0.05551 0.22787 0.0
C1375 C 0.85875 0.03597 0.22698 0.0
C1376 C 0.85709 0.02255 0.22092 0.0
C1377 C 0.84463 0.03049 0.21562 0.0
C1378 C 0.83223 0.05025 0.2165 0.0
C1379 C 0.85062 0.17257 0.2119 0.0
O1380 O 0.8155 0.19639 0.22353 0.0
O1381 O 0.78664 0.14254 0.22379 0.0
O1382 O 0.86179 0.24062 0.23378 0.0
O1383 O 0.88578 0.2547 0.22448 0.0
O1384 O 0.86784 0.18708 0.23699 0.0
O1385 O 0.82838 0.16028 0.23152 0.0
O1386 O 0.88067 0.15272 0.22353 0.0
O1387 O 0.90518 0.20583 0.22545 0.0
O1388 O 0.80501 0.08901 0.21931 0.0
O1389 O 0.83111 0.10242 0.2284 0.0
O1390 O 0.834 0.14247 0.21192 0.0
O1391 O 0.85375 0.18287 0.2177 0.0
H1392 H 0.85326 0.27903 0.21911 0.0
H1393 H 0.84374 0.32286 0.21832 0.0
H1394 H 0.87229 0.34652 0.23831 0.0
H1395 H 0.88039 0.30227 0.23909 0.0
H1396 H 0.84709 0.06448 0.23269 0.0
H1397 H 0.86823 0.03007 0.23113 0.0
H1398 H 0.84299 0.02012 0.21091 0.0
H1399 H 0.82175 0.05523 0.21241 0.0
Ho1400 Ho 0.87626 0.68796 0.22755 0.0
Ho1401 Ho 0.94446 0.72602 0.22295 0.0
C1402 C 0.9137 0.6521 0.22403 0.0
C1403 C 0.81853 0.64707 0.22996 0.0
C1404 C 0.79408 0.61388 0.22924 0.0
C1405 C 0.78487 0.59935 0.22315 0.0
C1406 C 0.75844 0.56968 0.22258 0.0
C1407 C 0.74058 0.55391 0.22809 0.0
C1408 C 0.7509 0.56787 0.2342 0.0
C1409 C 0.77726 0.59747 0.23476 0.0
C1410 C 0.92135 0.71599 0.2369 0.0
C1411 C 0.90057 0.75827 0.22452 0.0
C1412 C 1.00152 0.76946 0.22423 0.0
C1413 C 0.01946 0.80338 0.22286 0.0
C1414 C 0.02497 0.82442 0.22794 0.0
C1415 C 0.04365 0.85638 0.227 0.0
C1416 C 0.05756 0.86834 0.22095 0.0
C1417 C 0.051 0.84744 0.21577 0.0
C1418 C 0.03215 0.81526 0.21671 0.0
C1419 C 0.90997 0.71044 0.21208 0.0
O1420 O 0.88664 0.65088 0.22456 0.0
O1421 O 0.94066 0.67872 0.22382 0.0
O1422 O 0.84129 0.65359 0.23399 0.0
O1423 O 0.8277 0.6647 0.22477 0.0
O1424 O 0.89467 0.71492 0.23708 0.0
O1425 O 0.92206 0.70205 0.23187 0.0
O1426 O 0.92855 0.76139 0.22395 0.0
O1427 O 0.8754 0.7312 0.22546 0.0
O1428 O 0.99213 0.74977 0.21935 0.0
O1429 O 0.98043 0.76139 0.22876 0.0
O1430 O 0.94006 0.72561 0.21228 0.0
O1431 O 0.89877 0.70289 0.21783 0.0
H1432 H 0.79742 0.61127 0.2188 0.0
H1433 H 0.75154 0.55942 0.21781 0.0
H1434 H 0.73771 0.55668 0.23854 0.0
H1435 H 0.78372 0.60817 0.23951 0.0
H1436 H 0.01555 0.81614 0.23275 0.0
H1437 H 0.04839 0.87156 0.23114 0.0
H1438 H 0.06095 0.8559 0.21101 0.0
H1439 H 0.0281 0.79974 0.21267 0.0
H1440 H 0.38168 0.11336 0.1186 0.0
H1441 H 0.40431 0.09424 0.1105 0.0
H1442 H 0.44341 0.1819 0.10041 0.0
H1443 H 0.42112 0.20128 0.10858 0.0
H1444 H 0.39418 0.08623 0.09724 0.0
H1445 H 0.51892 0.17039 0.10158 0.0
H1446 H 0.48893 0.16424 0.10734 0.0
H1447 H 0.49507 0.18765 0.10024 0.0
C1448 C 0.39523 0.12869 0.11468 0.0
C1449 C 0.39959 0.159 0.11428 0.0
C1450 C 0.40821 0.11766 0.11002 0.0
C1451 C 0.42613 0.1366 0.10482 0.0
C1452 C 0.43038 0.16687 0.10441 0.0
H1453 H 0.52585 0.1109 0.07202 0.0
H1454 H 0.50409 0.13095 0.08017 0.0
C1455 C 0.41735 0.17791 0.10907 0.0
C1456 C 0.43927 0.12423 0.09975 0.0
H1457 H 0.50707 0.13708 0.09254 0.0
C1458 C 0.4189 0.09734 0.09624 0.0
C1459 C 0.47154 0.13855 0.09836 0.0
C1460 C 0.495 0.16664 0.1021 0.0
C1461 C 0.42957 0.08494 0.09133 0.0
C1462 C 0.46195 0.09906 0.08996 0.0
C1463 C 0.48232 0.12598 0.0935 0.0
C1464 C 0.47512 0.08653 0.08488 0.0
C1465 C 0.40564 0.05742 0.08752 0.0
C1466 C 0.46684 0.05485 0.08473 0.0
C1467 C 0.47842 0.04322 0.07988 0.0
C1468 C 0.49957 0.06305 0.07518 0.0
C1469 C 0.50914 0.09491 0.0755 0.0
C1470 C 0.49681 0.10642 0.08021 0.0
H1471 H 0.38249 0.05577 0.0877 0.0
H1472 H 0.41265 0.0588 0.08235 0.0
H1473 H 0.40298 0.03569 0.08965 0.0
H1474 H 0.45145 0.03894 0.08838 0.0
H1475 H 0.47097 0.01865 0.07984 0.0
H1476 H 0.88566 0.28866 0.11668 0.0
H1477 H 0.90572 0.33087 0.10857 0.0
H1478 H 0.97491 0.3075 0.10272 0.0
H1479 H 0.95564 0.26622 0.11099 0.0
H1480 H 0.96753 0.38437 0.10684 0.0
H1481 H 0.9322 0.30694 0.08537 0.0
H1482 H 0.91602 0.29322 0.09334 0.0
H1483 H 0.95396 0.29945 0.09136 0.0
C1484 C 0.90506 0.29247 0.11364 0.0
C1485 C 0.91888 0.27386 0.11445 0.0
C1486 C 0.91664 0.31674 0.109 0.0
C1487 C 0.94169 0.3224 0.1049 0.0
C1488 C 0.95537 0.30363 0.10572 0.0
H1489 H 0.04243 0.44666 0.07234 0.0
H1490 H 0.02023 0.40607 0.08068 0.0
C1491 C 0.94436 0.27998 0.11047 0.0
C1492 C 0.95364 0.34786 0.0998 0.0
H1493 H 0.9644 0.36082 0.08339 0.0
C1494 C 0.96666 0.37916 0.10171 0.0
C1495 C 0.9527 0.34147 0.09307 0.0
C1496 C 0.93775 0.30847 0.09062 0.0
C1497 C 0.97946 0.40396 0.09716 0.0
C1498 C 0.97871 0.39761 0.09041 0.0
C1499 C 0.96532 0.36619 0.08851 0.0
C1500 C 0.99223 0.42298 0.08526 0.0
C1501 C 0.99476 0.43685 0.0997 0.0
C1502 C 0.98395 0.44635 0.08485 0.0
C1503 C 0.99712 0.47005 0.0801 0.0
C1504 C 0.01852 0.47082 0.07551 0.0
C1505 C 0.02621 0.44706 0.07581 0.0
C1506 C 1.01334 0.42362 0.08059 0.0
H1507 H 1.00145 0.43811 0.10488 0.0
H1508 H 0.01588 0.45249 0.09684 0.0
H1509 H 0.97816 0.4456 0.09933 0.0
H1510 H 0.96698 0.44619 0.08817 0.0
H1511 H 0.99021 0.48759 0.07997 0.0
H1512 H 0.63128 0.63301 0.07298 0.0
H1513 H 0.6717 0.65222 0.08141 0.0
H1514 H 0.64486 0.55786 0.08647 0.0
H1515 H 0.60371 0.53857 0.07817 0.0
H1516 H 0.66376 0.63725 0.09557 0.0
H1517 H 0.74192 0.60253 0.08352 0.0
H1518 H 0.71321 0.60736 0.07909 0.0
H1519 H 0.70138 0.57344 0.08401 0.0
C1520 C 0.63399 0.61631 0.07588 0.0
C1521 C 0.61406 0.58417 0.07489 0.0
C1522 C 0.65716 0.62736 0.08072 0.0
C1523 C 0.66181 0.60666 0.08461 0.0
C1524 C 0.64214 0.5745 0.08356 0.0
H1525 H 0.80359 0.63526 0.11417 0.0
H1526 H 0.76138 0.61357 0.1061 0.0
C1527 C 0.61843 0.56343 0.07882 0.0
C1528 C 0.68672 0.61867 0.08979 0.0
H1529 H 0.75609 0.62389 0.09401 0.0
C1530 C 0.68398 0.63437 0.09522 0.0
C1531 C 0.71313 0.61481 0.08943 0.0
C1532 C 0.71793 0.59882 0.08369 0.0
C1533 C 0.70635 0.64576 0.10027 0.0
C1534 C 0.73329 0.64258 0.09985 0.0
C1535 C 0.73583 0.62666 0.09442 0.0
C1536 C 0.75907 0.65577 0.10492 0.0
C1537 C 0.70005 0.66006 0.10612 0.0
C1538 C 0.77261 0.68692 0.10703 0.0
C1539 C 0.79616 0.699 0.11178 0.0
C1540 C 0.80808 0.68089 0.1144 0.0
C1541 C 0.79535 0.65005 0.11219 0.0
C1542 C 0.77105 0.63761 0.10757 0.0
H1543 H 0.67481 0.65161 0.10669 0.0
H1544 H 0.70865 0.65474 0.11064 0.0
H1545 H 0.71195 0.68568 0.1055 0.0
H1546 H 0.76521 0.70219 0.10496 0.0
H1547 H 0.80551 0.72289 0.11334 0.0
H1548 H 0.03477 0.44453 0.44951 0.0
H1549 H 0.05639 0.42532 0.44116 0.0
H1550 H 0.12596 0.51959 0.43656 0.0
H1551 H 0.10373 0.53893 0.4448 0.0
H1552 H 0.06493 0.44124 0.42716 0.0
H1553 H 0.17637 0.47294 0.43947 0.0
H1554 H 0.14276 0.46847 0.44383 0.0
H1555 H 0.16571 0.50265 0.43904 0.0
C1556 C 0.05468 0.46121 0.44672 0.0
C1557 C 0.06734 0.49335 0.44782 0.0
C1558 C 0.06707 0.45016 0.44193 0.0
C1559 C 0.0931 0.47083 0.43821 0.0
C1560 C 0.10606 0.50298 0.43936 0.0
H1561 H 0.20627 0.44181 0.40871 0.0
H1562 H 0.18586 0.46343 0.41683 0.0
C1563 C 0.0932 0.51408 0.44406 0.0
C1564 C 0.10601 0.45876 0.43303 0.0
H1565 H 0.16956 0.45224 0.42891 0.0
C1566 C 0.0878 0.44361 0.42755 0.0
C1567 C 0.13597 0.46191 0.43346 0.0
C1568 C 0.15641 0.47716 0.43927 0.0
C1569 C 0.09872 0.43214 0.4225 0.0
C1570 C 0.12854 0.43468 0.42297 0.0
C1571 C 0.14678 0.45 0.42846 0.0
C1572 C 0.14105 0.42151 0.41788 0.0
C1573 C 0.07841 0.41841 0.4166 0.0
C1574 C 0.12321 0.39055 0.41568 0.0
C1575 C 0.13459 0.37853 0.41088 0.0
C1576 C 0.16474 0.39654 0.40832 0.0
C1577 C 0.18307 0.42716 0.41063 0.0
C1578 C 0.17131 0.43954 0.41529 0.0
H1579 H 0.06192 0.42725 0.41603 0.0
H1580 H 0.09255 0.42381 0.41211 0.0
H1581 H 0.06437 0.39278 0.41716 0.0
H1582 H 0.10041 0.37536 0.41771 0.0
H1583 H 0.11995 0.35476 0.40927 0.0
H1584 H 0.56424 0.63228 0.45195 0.0
H1585 H 0.58604 0.67435 0.44384 0.0
H1586 H 0.62515 0.62661 0.43346 0.0
H1587 H 0.60546 0.58581 0.44187 0.0
H1588 H 0.65403 0.71348 0.43944 0.0
H1589 H 0.57138 0.64517 0.41981 0.0
H1590 H 0.56274 0.63549 0.42829 0.0
H1591 H 0.58891 0.62631 0.42414 0.0
C1592 C 0.57821 0.63117 0.44804 0.0
C1593 C 0.584 0.60616 0.44771 0.0
C1594 C 0.59038 0.65512 0.44334 0.0
C1595 C 0.6075 0.65403 0.43799 0.0
C1596 C 0.61223 0.62833 0.43752 0.0
H1597 H 0.69673 0.76978 0.40356 0.0
H1598 H 0.67384 0.72871 0.41183 0.0
C1599 C 0.60087 0.60489 0.44234 0.0
C1600 C 0.62034 0.67958 0.43293 0.0
H1601 H 0.61282 0.6949 0.41698 0.0
C1602 C 0.64489 0.7094 0.43454 0.0
C1603 C 0.60858 0.67465 0.42651 0.0
C1604 C 0.5813 0.6438 0.42455 0.0
C1605 C 0.65832 0.73384 0.42992 0.0
C1606 C 0.64673 0.72883 0.42347 0.0
C1607 C 0.62201 0.69904 0.42188 0.0
C1608 C 0.66012 0.754 0.41831 0.0
C1609 C 0.68551 0.76468 0.43194 0.0
C1610 C 0.65982 0.78211 0.41905 0.0
C1611 C 0.67241 0.8055 0.41424 0.0
C1612 C 0.68587 0.80165 0.40854 0.0
C1613 C 0.68631 0.7736 0.40783 0.0
C1614 C 0.67324 0.75 0.41258 0.0
H1615 H 0.69631 0.76273 0.4365 0.0
H1616 H 0.70354 0.77419 0.42808 0.0
H1617 H 0.67736 0.78155 0.43277 0.0
H1618 H 0.64954 0.78592 0.42333 0.0
H1619 H 0.67166 0.82671 0.41499 0.0
H1620 H 0.24901 0.88666 0.41595 0.0
H1621 H 0.2894 0.90737 0.42433 0.0
H1622 H 0.35594 0.96749 0.41002 0.0
H1623 H 0.31415 0.95295 0.40231 0.0
H1624 H 0.33475 0.90783 0.42781 0.0
H1625 H 0.38781 0.03262 0.42189 0.0
H1626 H 0.35267 1.00438 0.41799 0.0
H1627 H 0.39037 0.01248 0.41497 0.0
C1628 C 0.27218 0.90489 0.41465 0.0
C1629 C 0.27829 0.91719 0.40831 0.0
C1630 C 0.29565 0.91666 0.41946 0.0
C1631 C 0.32653 0.9401 0.41803 0.0
C1632 C 0.3326 0.95109 0.41158 0.0
H1633 H 0.49918 1.003 0.44092 0.0
H1634 H 0.4579 0.98038 0.43265 0.0
C1635 C 0.30862 0.94143 0.40698 0.0
C1636 C 0.35202 0.95267 0.42321 0.0
H1637 H 0.41755 0.01857 0.42859 0.0
C1638 C 0.35244 0.9322 0.42795 0.0
C1639 C 0.3758 0.98465 0.42364 0.0
C1640 C 0.3764 0.00973 0.41939 0.0
C1641 C 0.37536 0.94246 0.43289 0.0
C1642 C 0.3995 0.97388 0.43306 0.0
C1643 C 0.39938 0.99435 0.4284 0.0
C1644 C 0.42434 0.98641 0.43821 0.0
C1645 C 0.37365 0.91977 0.43796 0.0
C1646 C 0.41978 0.99816 0.44406 0.0
C1647 C 0.44371 0.01204 0.4487 0.0
C1648 C 0.47262 0.01358 0.44775 0.0
C1649 C 0.47714 1.00174 0.44189 0.0
C1650 C 0.45344 0.98865 0.43716 0.0
H1651 H 0.35406 0.89583 0.4371 0.0
H1652 H 0.39577 0.91929 0.43804 0.0
H1653 H 0.3707 0.92758 0.44283 0.0
H1654 H 0.39778 0.99708 0.445 0.0
H1655 H 0.43945 0.02148 0.45306 0.0
H1656 H 0.55034 1.00259 0.94083 0.0
H1657 H 0.56958 0.98077 0.93251 0.0
H1658 H 0.64755 0.99978 0.94469 0.0
H1659 H 0.62947 0.02324 0.95282 0.0
H1660 H 0.62988 0.01011 0.9259 0.0
H1661 H 0.60899 0.90546 0.93976 0.0
H1662 H 0.58935 0.9269 0.94161 0.0
H1663 H 0.62887 0.94165 0.94412 0.0
C1664 C 0.57157 1.00211 0.94175 0.0
C1665 C 0.5879 0.01419 0.9476 0.0
C1666 C 0.58258 0.98956 0.93697 0.0
C1667 C 0.60983 0.98794 0.93797 0.0
C1668 C 0.62624 1.00014 0.94379 0.0
H1669 H 0.725 0.93715 0.91397 0.0
H1670 H 0.70401 0.95681 0.92244 0.0
C1671 C 0.61575 0.01353 0.94848 0.0
C1672 C 0.62164 0.97448 0.93286 0.0
H1673 H 0.63768 0.9157 0.92998 0.0
C1674 C 0.63141 0.98939 0.9268 0.0
C1675 C 0.62366 0.94729 0.93395 0.0
C1676 C 0.61196 0.92912 0.94018 0.0
C1677 C 0.64363 0.97836 0.92192 0.0
C1678 C 0.64615 0.95152 0.92305 0.0
C1679 C 0.63612 0.93642 0.92909 0.0
C1680 C 0.65878 0.93875 0.91799 0.0
C1681 C 0.65425 0.99572 0.91559 0.0
C1682 C 0.64031 0.92124 0.91272 0.0
C1683 C 0.65207 0.90926 0.90799 0.0
C1684 C 0.68296 0.91544 0.90823 0.0
C1685 C 0.70131 0.9325 0.91356 0.0
C1686 C 0.68929 0.94378 0.9184 0.0
H1687 H 0.65359 0.01777 0.91565 0.0
H1688 H 0.67833 1.00109 0.91447 0.0
H1689 H 0.63902 0.98081 0.91161 0.0
H1690 H 0.6166 0.91655 0.91229 0.0
H1691 H 0.63691 0.8949 0.90414 0.0
H1692 H 0.20127 0.82913 0.91545 0.0
H1693 H 0.18208 0.78791 0.92375 0.0
H1694 H 0.10551 0.7282 0.91133 0.0
H1695 H 0.12353 0.76978 0.90322 0.0
H1696 H 0.12138 0.75536 0.93019 0.0
H1697 H 0.14564 0.67405 0.91628 0.0
H1698 H 0.16452 0.71518 0.91452 0.0
H1699 H 0.12531 0.6898 0.91189 0.0
C1700 C 0.18036 0.80721 0.91448 0.0
C1701 C 0.16446 0.80271 0.90857 0.0
C1702 C 0.16937 0.78357 0.91924 0.0
C1703 C 0.14256 0.75444 0.91817 0.0
C1704 C 0.12651 0.75006 0.91229 0.0
H1705 H 0.02651 0.58809 0.94187 0.0
H1706 H 0.04788 0.62939 0.93355 0.0
C1707 C 0.13698 0.77396 0.90762 0.0
C1708 C 0.1309 0.72895 0.92322 0.0
H1709 H 0.11618 0.65445 0.92595 0.0
C1710 C 0.12042 0.73339 0.92926 0.0
C1711 C 0.12963 0.70012 0.92208 0.0
C1712 C 0.14208 0.69439 0.91587 0.0
C1713 C 0.10821 0.7098 0.93407 0.0
C1714 C 0.10642 0.6808 0.93288 0.0
C1715 C 0.11721 0.67645 0.92687 0.0
C1716 C 0.09363 0.65495 0.93784 0.0
C1717 C 0.09691 0.71578 0.9404 0.0
C1718 C 0.11229 0.65475 0.94296 0.0
C1719 C 0.10035 0.63049 0.94758 0.0
C1720 C 0.0691 0.60648 0.94739 0.0
C1721 C 0.05055 0.60645 0.94222 0.0
C1722 C 0.06275 0.63016 0.93747 0.0
H1723 H 0.09765 0.73853 0.94043 0.0
H1724 H 0.07269 0.697 0.94136 0.0
H1725 H 0.11163 0.71548 0.94442 0.0
H1726 H 0.13621 0.67332 0.94337 0.0
H1727 H 0.11553 0.63064 0.95136 0.0
H1728 H 0.49211 0.53865 0.94286 0.0
H1729 H 0.45073 0.51985 0.93465 0.0
H1730 H 0.40847 0.42806 0.94306 0.0
H1731 H 0.44887 0.44715 0.95139 0.0
H1732 H 0.43256 0.48039 0.92519 0.0
H1733 H 0.33264 0.43409 0.94201 0.0
H1734 H 0.37209 0.45776 0.94479 0.0
H1735 H 0.35602 0.41658 0.94349 0.0
C1736 C 0.47382 0.51451 0.94299 0.0
C1737 C 0.47382 0.49457 0.94786 0.0
C1738 C 0.45006 0.50367 0.93826 0.0
C1739 C 0.42555 0.47247 0.93823 0.0
C1740 C 0.42607 0.45244 0.94302 0.0
H1741 H 0.27617 0.35398 0.91124 0.0
H1742 H 0.31736 0.37642 0.9195 0.0
C1743 C 0.44955 0.46336 0.94779 0.0
C1744 C 0.40008 0.46075 0.93312 0.0
H1745 H 0.32086 0.41773 0.93096 0.0
C1746 C 0.40817 0.46698 0.9265 0.0
C1747 C 0.36786 0.44331 0.93469 0.0
C1748 C 0.35661 0.43784 0.94163 0.0
C1749 C 0.38545 0.45569 0.92151 0.0
C1750 C 0.35347 0.43741 0.9231 0.0
C1751 C 0.34529 0.43143 0.92969 0.0
C1752 C 0.32821 0.42394 0.91801 0.0
C1753 C 0.39578 0.46281 0.91454 0.0
C1754 C 0.31988 0.44289 0.91443 0.0
C1755 C 0.29547 0.42986 0.90984 0.0
C1756 C 0.27934 0.39764 0.90859 0.0
C1757 C 0.28803 0.37883 0.9121 0.0
C1758 C 0.3117 0.39169 0.91682 0.0
H1759 H 0.42141 0.47373 0.91402 0.0
H1760 H 0.38443 0.44119 0.91159 0.0
H1761 H 0.38856 0.47898 0.91252 0.0
H1762 H 0.33209 0.46779 0.91522 0.0
H1763 H 0.28975 0.44508 0.90715 0.0
H1764 H 0.96937 0.71569 0.61529 0.0
H1765 H 0.98839 0.69423 0.60692 0.0
H1766 H 0.89529 0.6171 0.60441 0.0
H1767 H 0.87601 0.64016 0.61239 0.0
H1768 H 0.99459 0.64788 0.60543 0.0
H1769 H 0.91151 0.63337 0.58604 0.0
H1770 H 0.91401 0.65366 0.59345 0.0
H1771 H 0.89181 0.61171 0.59314 0.0
C1772 C 0.95286 0.69438 0.61287 0.0
C1773 C 0.921 0.6801 0.61442 0.0
C1774 C 0.96381 0.68191 0.60807 0.0
C1775 C 0.94343 0.6542 0.60475 0.0
C1776 C 0.91167 0.6392 0.60655 0.0
H1777 H 0.9819 0.53772 0.57775 0.0
H1778 H 0.95976 0.5569 0.58606 0.0
C1779 C 0.90055 0.65228 0.61119 0.0
C1780 C 0.95566 0.64101 0.59958 0.0
H1781 H 0.94246 0.60993 0.58419 0.0
C1782 C 0.9831 0.63987 0.60078 0.0
C1783 C 0.94121 0.63028 0.59341 0.0
C1784 C 0.91323 0.6326 0.5914 0.0
C1785 C 0.99597 0.62835 0.59614 0.0
C1786 C 0.98122 0.61727 0.59006 0.0
C1787 C 0.95379 0.61813 0.58884 0.0
C1788 C 0.9944 0.60545 0.58489 0.0
C1789 C 0.02523 0.62771 0.59779 0.0
C1790 C 0.02102 0.62615 0.58132 0.0
C1791 C 0.0333 0.61525 0.57647 0.0
C1792 C 0.0198 0.58321 0.57513 0.0
C1793 C 0.99318 0.56247 0.5787 0.0
C1794 C 0.98042 0.57347 0.58345 0.0
H1795 H 0.03198 0.6336 0.60295 0.0
H1796 H 0.02206 0.60433 0.59676 0.0
H1797 H 0.04459 0.64473 0.59469 0.0
H1798 H 0.0323 0.6509 0.58227 0.0
H1799 H 0.05377 0.63194 0.57382 0.0
H1800 H 0.52559 0.49951 0.58301 0.0
H1801 H 0.50579 0.45946 0.59157 0.0
H1802 H 0.44489 0.39118 0.57775 0.0
H1803 H 0.46191 0.43163 0.56941 0.0
H1804 H 0.42278 0.40249 0.59249 0.0
H1805 H 0.51681 0.37282 0.59061 0.0
H1806 H 0.52461 0.41199 0.58916 0.0
H1807 H 0.50228 0.382 0.58341 0.0
C1808 C 0.50812 0.47593 0.58178 0.0
C1809 C 0.4966 0.46871 0.57538 0.0
C1810 C 0.49685 0.45298 0.58668 0.0
C1811 C 0.47437 0.42193 0.5853 0.0
C1812 C 0.46251 0.41476 0.57895 0.0
H1813 H 0.40732 0.24789 0.60746 0.0
H1814 H 0.42836 0.28958 0.59928 0.0
C1815 C 0.4728 0.43795 0.57413 0.0
C1816 C 0.46232 0.39722 0.59049 0.0
H1817 H 0.4764 0.34387 0.59804 0.0
C1818 C 0.43456 0.38975 0.59373 0.0
C1819 C 0.4774 0.38026 0.59208 0.0
C1820 C 0.50698 0.38696 0.58867 0.0
C1821 C 0.42133 0.36579 0.59844 0.0
C1822 C 0.43658 0.34889 0.60014 0.0
C1823 C 0.46447 0.3565 0.59685 0.0
C1824 C 0.42386 0.3232 0.60521 0.0
C1825 C 0.39043 0.35828 0.60135 0.0
C1826 C 0.41426 0.32755 0.61136 0.0
C1827 C 0.40089 0.3032 0.61592 0.0
C1828 C 0.39852 0.27414 0.61469 0.0
C1829 C 0.40899 0.26995 0.60862 0.0
C1830 C 0.42124 0.29399 0.60394 0.0
H1831 H 0.37744 0.3657 0.59811 0.0
H1832 H 0.37563 0.333 0.60231 0.0
H1833 H 0.39448 0.3711 0.60599 0.0
H1834 H 0.41697 0.34987 0.61268 0.0
H1835 H 0.39267 0.30734 0.62047 0.0
H1836 H 0.83353 0.19757 0.60771 0.0
H1837 H 0.79247 0.17872 0.59941 0.0
H1838 H 0.73412 0.09941 0.61136 0.0
H1839 H 0.77554 0.11728 0.6195 0.0
H1840 H 0.76243 0.12051 0.59244 0.0
H1841 H 0.67663 0.13564 0.60691 0.0
H1842 H 0.7176 0.15546 0.60883 0.0
H1843 H 0.69319 0.11534 0.61101 0.0
C1844 C 0.81195 0.17612 0.60858 0.0
C1845 C 0.80786 0.15936 0.61437 0.0
C1846 C 0.78836 0.16532 0.60381 0.0
C1847 C 0.75963 0.1378 0.60475 0.0
C1848 C 0.75562 0.12096 0.61051 0.0
H1849 H 0.59541 0.02119 0.58052 0.0
H1850 H 0.63618 0.0426 0.58893 0.0
C1851 C 0.77948 0.13129 0.61519 0.0
C1852 C 0.73428 0.12617 0.59965 0.0
H1853 H 0.65853 0.1077 0.59702 0.0
C1854 C 0.73981 0.1179 0.59345 0.0
C1855 C 0.70456 0.12278 0.60087 0.0
C1856 C 0.69754 0.13299 0.60723 0.0
C1857 C 0.71652 0.10579 0.58859 0.0
C1858 C 0.68664 0.10176 0.58986 0.0
C1859 C 0.68118 0.11037 0.59602 0.0
C1860 C 0.66104 0.08889 0.58483 0.0
C1861 C 0.72377 0.09689 0.5821 0.0
C1862 C 0.66059 0.10775 0.57977 0.0
C1863 C 0.63668 0.09573 0.57508 0.0
C1864 C 0.61321 0.06418 0.57514 0.0
C1865 C 0.6134 0.04542 0.58025 0.0
C1866 C 0.63679 0.05768 0.58506 0.0
H1867 H 0.74703 0.09875 0.58202 0.0
H1868 H 0.70585 0.07266 0.58087 0.0
H1869 H 0.72312 0.11235 0.57829 0.0
H1870 H 0.67868 0.13193 0.57947 0.0
H1871 H 0.63666 0.11115 0.57137 0.0
H1872 H 0.85728 0.77922 0.73805 0.0
H1873 H 0.83577 0.79967 0.74618 0.0
H1874 H 0.79116 0.71077 0.75584 0.0
H1875 H 0.81068 0.68963 0.7474 0.0
H1876 H 0.76693 0.7723 0.75011 0.0
H1877 H 0.84533 0.77996 0.77012 0.0
H1878 H 0.8551 0.78007 0.76167 0.0
H1879 H 0.8273 0.7444 0.76549 0.0
C1880 C 0.84233 0.76382 0.74182 0.0
C1881 C 0.83497 0.73248 0.74194 0.0
C1882 C 0.83023 0.77565 0.74652 0.0
C1883 C 0.81163 0.75688 0.75167 0.0
C1884 C 0.80526 0.72584 0.75193 0.0
H1885 H 0.72197 0.78326 0.78603 0.0
H1886 H 0.74448 0.76481 0.77774 0.0
C1887 C 0.8165 0.71374 0.7471 0.0
C1888 C 0.79892 0.76963 0.75674 0.0
H1889 H 0.80495 0.79008 0.77282 0.0
C1890 C 0.77537 0.7763 0.75507 0.0
C1891 C 0.80975 0.77503 0.76324 0.0
C1892 C 0.83592 0.76977 0.76528 0.0
C1893 C 0.76203 0.78738 0.75969 0.0
C1894 C 0.77275 0.79263 0.76622 0.0
C1895 C 0.79645 0.7861 0.76787 0.0
C1896 C 0.75949 0.80449 0.77138 0.0
C1897 C 0.73583 0.79251 0.75759 0.0
C1898 C 0.76063 0.83334 0.77073 0.0
C1899 C 0.74813 0.8442 0.77554 0.0
C1900 C 0.73402 0.82658 0.78117 0.0
C1901 C 0.73285 0.7977 0.78181 0.0
C1902 C 0.74572 0.78704 0.77704 0.0
H1903 H 0.7252 0.78035 0.75297 0.0
H1904 H 0.71742 0.78427 0.76137 0.0
H1905 H 0.74498 0.81775 0.75684 0.0
H1906 H 0.77149 0.84773 0.76651 0.0
H1907 H 0.74949 0.86649 0.77485 0.0
H1908 H 0.2322 0.9088 0.7728 0.0
H1909 H 0.25348 0.94901 0.76436 0.0
H1910 H 0.29744 0.01888 0.77925 0.0
H1911 H 0.28528 0.97836 0.7871 0.0
H1912 H 0.2496 0.98965 0.75981 0.0
H1913 H 0.3686 0.06104 0.76941 0.0
H1914 H 0.34238 0.02412 0.77299 0.0
H1915 H 0.34172 0.05905 0.77538 0.0
C1916 C 0.24717 0.93281 0.77422 0.0
C1917 C 0.25549 0.94025 0.78077 0.0
C1918 C 0.25918 0.95614 0.76937 0.0
C1919 C 0.27828 0.98801 0.77096 0.0
C1920 C 0.28491 0.99511 0.77759 0.0
H1921 H 0.33931 0.15995 0.74822 0.0
H1922 H 0.31676 0.11799 0.75633 0.0
C1923 C 0.27598 0.97163 0.78228 0.0
C1924 C 0.29084 0.01343 0.76576 0.0
H1925 H 0.35257 0.08519 0.76165 0.0
C1926 C 0.27242 0.01009 0.76025 0.0
C1927 C 0.32079 0.04095 0.7661 0.0
C1928 C 0.34452 0.04626 0.77126 0.0
C1929 C 0.28269 0.03278 0.75526 0.0
C1930 C 0.31176 0.06044 0.75581 0.0
C1931 C 0.33007 0.06417 0.76127 0.0
C1932 C 0.3242 0.08549 0.75071 0.0
C1933 C 0.26228 0.02727 0.74942 0.0
C1934 C 0.33678 0.08176 0.74489 0.0
C1935 C 0.35072 0.10617 0.74034 0.0
C1936 C 0.35142 0.13463 0.74136 0.0
C1937 C 0.33876 0.13827 0.7472 0.0
C1938 C 0.3257 0.11419 0.75184 0.0
H1939 H 0.23901 1.00617 0.74997 0.0
H1940 H 0.25929 0.04772 0.74857 0.0
H1941 H 0.2737 0.02438 0.74505 0.0
H1942 H 0.33648 0.06015 0.74392 0.0
H1943 H 0.36096 0.10269 0.73601 0.0
H1944 H 0.95533 0.29817 0.74149 0.0
H1945 H 0.99625 0.31705 0.74981 0.0
H1946 H 0.98359 0.22493 0.75159 0.0
H1947 H 0.94171 0.20573 0.74343 0.0
H1948 H 0.99127 0.29317 0.76335 0.0
H1949 H 0.08031 0.28412 0.74866 0.0
H1950 H 0.04822 0.286 0.74499 0.0
H1951 H 0.04177 0.25069 0.74877 0.0
C1952 C 0.96119 0.28188 0.74366 0.0
C1953 C 0.94492 0.25032 0.74182 0.0
C1954 C 0.98468 0.29273 0.74844 0.0
C1955 C 0.99348 0.27263 0.75136 0.0
C1956 C 0.97757 0.24113 0.74944 0.0
H1957 H 0.14507 0.30799 0.77901 0.0
H1958 H 0.10277 0.28532 0.77097 0.0
C1959 C 0.9534 0.23006 0.74479 0.0
C1960 C 0.0187 0.28455 0.75649 0.0
H1961 H 0.09311 0.29995 0.75953 0.0
C1962 C 1.01354 0.29466 0.7625 0.0
C1963 C 0.04784 0.28635 0.75549 0.0
C1964 C 0.05519 0.27644 0.74912 0.0
C1965 C 0.03618 0.30597 0.7675 0.0
C1966 C 0.06581 0.30866 0.76645 0.0
C1967 C 0.07079 0.29825 0.76043 0.0
C1968 C 0.09186 0.32247 0.77146 0.0
C1969 C 0.02741 0.31382 0.77395 0.0
C1970 C 0.10075 0.35125 0.77447 0.0
C1971 C 0.12442 0.36378 0.77919 0.0
C1972 C 0.14108 0.34873 0.7809 0.0
C1973 C 0.13304 0.32045 0.77777 0.0
C1974 C 0.10869 0.30743 0.77316 0.0
H1975 H 1.00181 0.30088 0.7747 0.0
H1976 H 0.03845 0.30838 0.77804 0.0
H1977 H 0.0351 0.339 0.77408 0.0
H1978 H 0.08954 0.36437 0.77314 0.0
H1979 H 0.13007 0.3857 0.78145 0.0
H1980 H 0.20741 0.30669 0.27894 0.0
H1981 H 0.22678 0.28401 0.27084 0.0
H1982 H 0.31976 0.36103 0.27354 0.0
H1983 H 0.30075 0.38208 0.28196 0.0
H1984 H 0.25086 0.29743 0.25967 0.0
H1985 H 0.34296 0.29735 0.2746 0.0
H1986 H 0.31478 0.30603 0.27803 0.0
H1987 H 0.34904 0.33594 0.27398 0.0
C1988 C 0.23204 0.31859 0.27784 0.0
C1989 C 0.2525 0.34616 0.28116 0.0
C1990 C 0.24322 0.3056 0.27317 0.0
C1991 C 0.27517 0.32005 0.27158 0.0
C1992 C 0.29533 0.34822 0.27478 0.0
H1993 H 0.38388 0.297 0.24062 0.0
H1994 H 0.36136 0.31579 0.24886 0.0
C1995 C 0.28432 0.36062 0.27958 0.0
C1996 C 0.28722 0.30626 0.26651 0.0
H1997 H 0.34615 0.29078 0.2632 0.0
C1998 C 0.27152 0.29575 0.26052 0.0
C1999 C 0.31415 0.30345 0.26748 0.0
C2000 C 0.33096 0.31096 0.2739 0.0
C2001 C 0.28228 0.28367 0.25554 0.0
C2002 C 0.30976 0.28211 0.25646 0.0
C2003 C 0.3253 0.29222 0.26242 0.0
C2004 C 0.32293 0.27033 0.25128 0.0
C2005 C 0.26453 0.27312 0.24925 0.0
C2006 C 0.3092 0.23835 0.24985 0.0
C2007 C 0.32259 0.22743 0.24523 0.0
C2008 C 0.34972 0.24825 0.24181 0.0
C2009 C 0.36302 0.28026 0.24315 0.0
C2010 C 0.35011 0.29107 0.24787 0.0
H2011 H 0.24541 0.27857 0.249 0.0
H2012 H 0.28051 0.28432 0.24508 0.0
H2013 H 0.2544 0.24759 0.24874 0.0
H2014 H 0.28829 0.22172 0.25238 0.0
H2015 H 0.31147 0.2027 0.24427 0.0
H2016 H 0.73404 0.91036 0.27352 0.0
H2017 H 0.7551 0.9508 0.26504 0.0
H2018 H 0.75407 0.01667 0.27848 0.0
H2019 H 0.73057 0.97581 0.28676 0.0
H2020 H 0.72446 1.00372 0.2633 0.0
H2021 H 0.84944 0.04171 0.26701 0.0
H2022 H 0.81977 1.00151 0.26814 0.0
H2023 H 0.82306 0.03025 0.27383 0.0
C2024 C 0.73845 0.93349 0.27469 0.0
C2025 C 0.73159 0.93993 0.28094 0.0
C2026 C 0.75059 0.95668 0.26983 0.0
C2027 C 0.7569 0.98715 0.27113 0.0
C2028 C 0.74979 0.99354 0.27734 0.0
H2029 H 0.86394 0.16151 0.24903 0.0
H2030 H 0.84269 0.12004 0.25723 0.0
C2031 C 0.73668 0.97013 0.28212 0.0
C2032 C 0.76972 0.012 0.26596 0.0
H2033 H 0.8376 0.0681 0.25904 0.0
C2034 C 0.74919 0.01778 0.26235 0.0
C2035 C 0.80199 0.03068 0.26476 0.0
C2036 C 0.8251 0.02598 0.26861 0.0
C2037 C 0.75987 0.0417 0.25763 0.0
C2038 C 0.79233 0.06025 0.25628 0.0
C2039 C 0.81282 0.05428 0.25995 0.0
C2040 C 0.80544 0.08601 0.2512 0.0
C2041 C 0.73592 0.04734 0.25437 0.0
C2042 C 0.79216 0.08156 0.24497 0.0
C2043 C 0.80317 0.10599 0.24043 0.0
C2044 C 0.82966 0.13508 0.24169 0.0
C2045 C 0.84377 0.13938 0.24782 0.0
C2046 C 0.83164 0.11541 0.25252 0.0
H2047 H 0.71485 0.03922 0.25744 0.0
H2048 H 0.74527 0.07236 0.25328 0.0
H2049 H 0.72839 0.03389 0.24978 0.0
H2050 H 0.77303 0.05912 0.24357 0.0
H2051 H 0.79103 0.10181 0.23585 0.0
H2052 H 0.97781 0.71803 0.23694 0.0
H2053 H 0.01944 0.74101 0.24504 0.0
H2054 H 0.96419 0.7679 0.25654 0.0
H2055 H 0.92271 0.74551 0.24835 0.0
H2056 H 0.05542 0.8007 0.24995 0.0
H2057 H 0.98557 0.72121 0.26985 0.0
H2058 H 0.97319 0.71409 0.2615 0.0
H2059 H 0.96814 0.74171 0.26623 0.0
C2060 C 0.97451 0.72899 0.24117 0.0
C2061 C 0.94675 0.72998 0.24194 0.0
C2062 C 0.99847 0.74217 0.24583 0.0
C2063 C 0.99517 0.75599 0.25152 0.0
C2064 C 0.96743 0.75702 0.25229 0.0
H2065 H 0.11804 0.85185 0.28485 0.0
H2066 H 0.07655 0.83103 0.27664 0.0
C2067 C 0.94364 0.74427 0.24757 0.0
C2068 C 0.02055 0.76903 0.25663 0.0
H2069 H 0.03525 0.7631 0.27271 0.0
C2070 C 0.05092 0.7923 0.25492 0.0
C2071 C 0.01518 0.75832 0.26315 0.0
C2072 C 0.98387 0.73227 0.2653 0.0
C2073 C 0.07546 0.80529 0.25951 0.0
C2074 C 0.07 0.79467 0.26602 0.0
C2075 C 0.0397 0.77147 0.26774 0.0
C2076 C 0.09541 0.80724 0.2711 0.0
C2077 C 0.10707 0.83091 0.2574 0.0
C2078 C 0.12006 0.80084 0.27084 0.0
C2079 C 0.14316 0.81173 0.27571 0.0
C2080 C 0.14257 0.82973 0.28093 0.0
C2081 C 0.1186 0.83709 0.28105 0.0
C2082 C 0.095 0.82546 0.2763 0.0
H2083 H 0.10648 0.84011 0.25252 0.0
H2084 H 0.11626 0.85036 0.26094 0.0
H2085 H 0.12346 0.82184 0.25725 0.0
H2086 H 0.12119 0.78694 0.26691 0.0
H2087 H 0.16147 0.80593 0.27541 0.0
H2088 H 0.51598 0.99558 0.03941 0.0
H2089 H 0.52526 0.99151 0.02775 0.0
H2090 H 0.5548 0.08872 0.02528 0.0
H2091 H 0.54741 0.09303 0.03677 0.0
H2092 H 0.49588 0.99855 0.01782 0.0
H2093 H 0.61908 0.08781 0.0145 0.0
H2094 H 0.60252 0.07432 0.02244 0.0
H2095 H 0.59846 0.10434 0.01838 0.0
C2096 C 0.52607 0.01631 0.03642 0.0
C2097 C 0.53166 0.0448 0.03904 0.0
C2098 C 0.53087 0.01394 0.02972 0.0
C2099 C 0.54132 0.03998 0.02557 0.0
C2100 C 0.54792 0.06849 0.02832 0.0
H2101 H 0.56522 0.07774 0.98348 0.0
H2102 H 0.55507 0.08026 0.99515 0.0
C2103 C 0.54355 0.07091 0.03493 0.0
C2104 C 0.54264 0.03732 0.01831 0.0
H2105 H 0.58742 0.0733 1.00493 0.0
C2106 C 0.51609 0.01469 0.01503 0.0
C2107 C 0.56876 0.05855 0.01457 0.0
C2108 C 0.59887 0.08238 0.01767 0.0
C2109 C 0.51467 0.01315 1.00819 0.0
C2110 C 0.54066 0.03462 1.00445 0.0
C2111 C 0.56722 0.05715 1.00773 0.0
C2112 C 0.54199 0.03238 0.9972 0.0
C2113 C 0.48493 0.98885 1.00504 0.0
C2114 C 0.53731 1.00464 0.99439 0.0
C2115 C 0.54245 1.00311 0.98777 0.0
C2116 C 0.55293 0.02935 0.98373 0.0
C2117 C 0.55634 0.05691 0.98642 0.0
C2118 C 0.55098 0.05842 0.99311 0.0
H2119 H 0.46455 0.98201 1.00826 0.0
H2120 H 0.48073 0.99723 1.00036 0.0
H2121 H 0.48651 0.96766 1.0041 0.0
H2122 H 0.53144 0.98449 0.99738 0.0
H2123 H 0.54021 0.9817 0.98588 0.0
H2124 H 0.03359 0.59611 0.98732 0.0
H2125 H 0.03252 0.58475 0.9987 0.0
H2126 H 0.04211 0.50503 0.99413 0.0
H2127 H 0.04627 0.51857 0.98248 0.0
H2128 H 0.99976 0.54533 1.00654 0.0
H2129 H 0.10991 0.54214 1.00668 0.0
H2130 H 0.09641 0.55248 0.99951 0.0
H2131 H 0.08024 0.51223 1.00179 0.0
C2132 C 0.03513 0.57582 0.98869 0.0
C2133 C 0.04015 0.55837 0.98395 0.0
C2134 C 0.03449 0.5693 0.99527 0.0
C2135 C 0.03806 0.54447 0.99742 0.0
C2136 C 0.0405 0.52512 0.99267 0.0
H2137 H 0.0381 0.47315 0.03502 0.0
H2138 H 0.04027 0.48709 0.02376 0.0
C2139 C 0.04201 0.53228 0.98598 0.0
C2140 C 0.03973 0.54024 1.00463 0.0
H2141 H 0.08302 0.53227 0.0166 0.0
C2142 C 0.01819 0.54269 1.00871 0.0
C2143 C 0.06385 0.5371 1.00758 0.0
C2144 C 0.08909 0.53614 1.00367 0.0
C2145 C 0.01975 0.54169 0.01553 0.0
C2146 C 0.0434 0.53784 0.01845 0.0
C2147 C 0.065 0.5355 0.0144 0.0
C2148 C 0.04372 0.5316 0.02557 0.0
C2149 C 0.99549 0.54393 0.01954 0.0
C2150 C 0.04557 0.55228 0.03051 0.0
C2151 C 0.04408 0.54409 0.03715 0.0
C2152 C 0.04088 0.51519 0.03889 0.0
C2153 C 0.04045 0.49557 0.0339 0.0
C2154 C 0.04173 0.50353 0.0274 0.0
H2155 H 0.97597 0.5418 0.01652 0.0
H2156 H 0.98593 0.52555 0.02332 0.0
H2157 H 1.00635 0.56686 0.022 0.0
H2158 H 0.04776 0.57446 0.02925 0.0
H2159 H 0.04418 0.55961 0.04085 0.0
H2160 H 0.56196 0.51069 0.0387 0.0
H2161 H 0.55079 0.50185 0.02707 0.0
H2162 H 0.54014 0.5828 0.02615 0.0
H2163 H 0.5517 0.59178 0.0378 0.0
H2164 H 0.50392 0.49372 0.01845 0.0
H2165 H 0.61186 0.60549 0.01357 0.0
H2166 H 0.60274 0.58731 0.02147 0.0
H2167 H 0.5846 0.60888 0.01875 0.0
C2168 C 0.5558 0.52575 0.03608 0.0
C2169 C 0.55682 0.55142 0.03922 0.0
C2170 C 0.54984 0.52094 0.02939 0.0
C2171 C 0.54533 0.54205 0.02565 0.0
C2172 C 0.54414 0.56647 0.02887 0.0
H2173 H 0.5213 0.56348 0.98447 0.0
H2174 H 0.53165 0.57078 0.99616 0.0
C2175 C 0.55006 0.57123 0.03557 0.0
C2176 C 0.544 0.53968 0.01837 0.0
H2177 H 0.58063 0.57927 1.00449 0.0
C2178 C 0.52077 0.5124 0.0154 0.0
C2179 C 0.56613 0.56386 0.01434 0.0
C2180 C 0.59295 0.59294 0.01717 0.0
C2181 C 0.51855 0.50905 1.00859 0.0
C2182 C 0.5405 0.53339 1.00456 0.0
C2183 C 0.56381 0.56057 1.00753 0.0
C2184 C 0.53887 0.53151 0.99729 0.0
C2185 C 0.49208 0.47979 1.00573 0.0
C2186 C 0.54118 0.5081 0.9939 0.0
C2187 C 0.53584 0.50429 0.98716 0.0
C2188 C 0.52847 0.52405 0.98365 0.0
C2189 C 0.52808 0.54861 0.98698 0.0
C2190 C 0.53352 0.55249 0.9937 0.0
H2191 H 0.4737 0.46626 1.00938 0.0
H2192 H 0.48144 0.48545 1.0016 0.0
H2193 H 0.50107 0.46477 1.00389 0.0
H2194 H 0.54579 0.49188 0.99651 0.0
H2195 H 0.53518 0.48448 0.98479 0.0
H2196 H 0.08928 0.57587 0.53887 0.0
H2197 H 0.0929 0.56787 0.52714 0.0
H2198 H 0.99292 0.51433 0.52602 0.0
H2199 H 0.98934 0.52242 0.53761 0.0
H2200 H 0.06737 0.51339 0.51832 0.0
H2201 H 0.0168 0.58925 0.51373 0.0
H2202 H 0.03355 0.58825 0.52144 0.0
H2203 H 0.99514 0.55787 0.51932 0.0
C2204 C 0.06821 0.56127 0.53616 0.0
C2205 C 0.03902 0.54931 0.53918 0.0
C2206 C 0.07024 0.55706 0.52944 0.0
C2207 C 0.04312 0.5411 0.52564 0.0
C2208 C 1.01417 0.52721 0.52879 0.0
H2209 H 0.99745 0.49727 0.48443 0.0
H2210 H 0.99532 0.50561 0.49619 0.0
C2211 C 1.01216 0.53144 0.53545 0.0
C2212 C 0.04451 0.54049 0.51837 0.0
H2213 H 0.02194 0.56298 0.50463 0.0
C2214 C 0.05766 0.52443 0.51534 0.0
C2215 C 0.03178 0.55484 0.51443 0.0
C2216 C 0.01874 0.57378 0.51737 0.0
C2217 C 0.05775 0.52174 0.50851 0.0
C2218 C 0.04469 0.53579 0.50458 0.0
C2219 C 0.03173 0.55201 0.50762 0.0
C2220 C 0.04515 0.53446 0.49732 0.0
C2221 C 0.07118 0.50321 0.50555 0.0
C2222 C 0.07356 0.54927 0.49396 0.0
C2223 C 0.07469 0.54494 0.48727 0.0
C2224 C 0.04744 0.52598 0.48372 0.0
C2225 C 0.01872 0.51283 0.48698 0.0
C2226 C 0.01757 0.5172 0.49372 0.0
H2227 H 0.07495 0.48904 0.50922 0.0
H2228 H 0.05557 0.48753 0.5017 0.0
H2229 H 0.09393 0.51935 0.50327 0.0
H2230 H 0.09511 0.56306 0.49658 0.0
H2231 H 0.09722 0.55477 0.48493 0.0
H2232 H 0.61204 0.58321 0.48691 0.0
H2233 H 0.60218 0.57262 0.49848 0.0
H2234 H 0.50443 0.51367 0.49463 0.0
H2235 H 0.51426 0.52506 0.4829 0.0
H2236 H 0.55672 0.58767 0.50528 0.0
H2237 H 0.53415 0.46662 0.50835 0.0
H2238 H 0.55736 0.49123 0.50174 0.0
H2239 H 0.51599 0.47484 0.50165 0.0
C2240 C 0.58854 0.56692 0.48848 0.0
C2241 C 0.56406 0.55442 0.48395 0.0
C2242 C 0.58291 0.56123 0.49512 0.0
C2243 C 0.55261 0.54253 0.49746 0.0
C2244 C 0.52809 0.52813 0.49294 0.0
H2245 H 0.47545 0.49734 0.53611 0.0
H2246 H 0.4853 0.50876 0.52455 0.0
C2247 C 0.53375 0.53417 0.48622 0.0
C2248 C 0.54703 0.54033 0.50463 0.0
H2249 H 0.53102 0.49224 0.51773 0.0
C2250 C 0.55103 0.56677 0.508 0.0
C2251 C 0.54 0.51327 0.5082 0.0
C2252 C 0.53672 0.48479 0.50485 0.0
C2253 C 0.54776 0.56664 0.51481 0.0
C2254 C 0.54061 0.53953 0.51837 0.0
C2255 C 0.53666 0.51312 0.515 0.0
C2256 C 0.53509 0.53729 0.52554 0.0
C2257 C 0.55137 0.59522 0.51817 0.0
C2258 C 0.55976 0.55058 0.53004 0.0
C2259 C 0.5541 0.54413 0.53674 0.0
C2260 C 0.52366 0.52453 0.53903 0.0
C2261 C 0.49907 0.51314 0.53453 0.0
C2262 C 0.50468 0.51932 0.52789 0.0
H2263 H 0.55473 0.61373 0.51469 0.0
H2264 H 0.53049 0.58902 0.52119 0.0
H2265 H 0.57171 0.60459 0.52148 0.0
H2266 H 0.58349 0.56442 0.52834 0.0
H2267 H 0.57363 0.55237 0.54004 0.0
H2268 H 0.52535 0.99543 0.53949 0.0
H2269 H 0.51219 0.99126 0.52781 0.0
H2270 H 0.57994 0.08816 0.52522 0.0
H2271 H 0.59255 0.09252 0.53672 0.0
H2272 H 0.49964 0.03806 0.5184 0.0
H2273 H 0.60576 0.02977 0.51376 0.0
H2274 H 0.58436 0.01709 0.5213 0.0
H2275 H 0.60852 0.05783 0.51966 0.0
C2276 C 0.53633 0.01606 0.53648 0.0
C2277 C 0.55977 0.04439 0.53906 0.0
C2278 C 0.52916 0.0136 0.52978 0.0
C2279 C 0.54549 0.03935 0.52561 0.0
C2280 C 0.56716 0.06797 0.5283 0.0
H2281 H 0.5551 0.0788 0.48356 0.0
H2282 H 0.56728 0.08309 0.49529 0.0
C2283 C 0.57412 0.07044 0.53492 0.0
C2284 C 0.54218 0.03658 0.51839 0.0
H2285 H 0.58057 0.03572 0.50461 0.0
C2286 C 0.51717 0.03729 0.51539 0.0
C2287 C 0.56533 0.03607 0.51444 0.0
C2288 C 0.59252 0.03498 0.51741 0.0
C2289 C 0.51484 0.03763 0.50857 0.0
C2290 C 0.53805 0.03723 0.50462 0.0
C2291 C 0.56302 0.03647 0.50762 0.0
C2292 C 0.5349 0.03464 0.4974 0.0
C2293 C 0.48762 0.0386 0.50558 0.0
C2294 C 0.51393 1.00588 0.49466 0.0
C2295 C 0.50739 1.00339 0.48802 0.0
C2296 C 0.52162 0.02954 0.48392 0.0
C2297 C 0.54426 0.05812 0.48656 0.0
C2298 C 0.55089 0.06062 0.49327 0.0
H2299 H 0.47367 0.04271 0.50925 0.0
H2300 H 0.49593 0.05723 0.50185 0.0
H2301 H 0.47227 0.01614 0.50312 0.0
H2302 H 0.50146 0.98551 0.49771 0.0
H2303 H 0.48961 0.98111 0.48616 0.0
H2304 H 0.26012 0.4172 0.31801 0.0
H2305 H 0.25219 0.42026 0.32971 0.0
H2306 H 0.17569 0.32592 0.3294 0.0
H2307 H 0.18401 0.32277 0.31777 0.0
H2308 H 0.20375 0.41149 0.33805 0.0
H2309 H 0.23469 0.31988 0.34224 0.0
H2310 H 0.2409 0.33954 0.33455 0.0
H2311 H 0.20281 0.30856 0.33674 0.0
C2312 C 0.24075 0.39764 0.32039 0.0
C2313 C 0.22216 0.37002 0.31693 0.0
C2314 C 0.23649 0.39921 0.32711 0.0
C2315 C 0.21383 0.37304 0.33052 0.0
C2316 C 0.1938 0.34623 0.32695 0.0
H2317 H 0.15694 0.32835 0.37104 0.0
H2318 H 0.16586 0.32664 0.35934 0.0
C2319 C 0.19814 0.34464 0.32026 0.0
C2320 C 0.21227 0.37306 0.3378 0.0
H2321 H 0.21682 0.33548 0.35138 0.0
C2322 C 0.20679 0.39497 0.34096 0.0
C2323 C 0.21639 0.35164 0.34165 0.0
C2324 C 0.22433 0.32875 0.33864 0.0
C2325 C 0.20444 0.39548 0.34778 0.0
C2326 C 0.20819 0.37381 0.35162 0.0
C2327 C 0.21387 0.35205 0.34847 0.0
C2328 C 0.20571 0.37312 0.35889 0.0
C2329 C 0.19701 0.41866 0.35083 0.0
C2330 C 0.22611 0.39905 0.36264 0.0
C2331 C 0.22126 0.39981 0.36934 0.0
C2332 C 0.19624 0.37448 0.37248 0.0
C2333 C 0.17707 0.34776 0.36881 0.0
C2334 C 0.1819 0.34699 0.3621 0.0
H2335 H 0.1882 0.42897 0.3472 0.0
H2336 H 0.17936 0.40753 0.35473 0.0
H2337 H 0.21841 0.43784 0.35303 0.0
H2338 H 0.24502 0.4193 0.36034 0.0
H2339 H 0.23585 0.42107 0.37199 0.0
H2340 H 0.67152 0.86601 0.37274 0.0
H2341 H 0.6737 0.87689 0.36104 0.0
H2342 H 0.75079 0.86056 0.35902 0.0
H2343 H 0.74844 0.84955 0.37066 0.0
H2344 H 0.71998 0.91762 0.35182 0.0
H2345 H 0.68395 0.794 0.34719 0.0
H2346 H 0.68077 0.80797 0.35507 0.0
H2347 H 0.71774 0.81429 0.35223 0.0
C2348 C 0.68989 0.86626 0.36985 0.0
C2349 C 0.71046 0.85787 0.37268 0.0
C2350 C 0.69082 0.872 0.36313 0.0
C2351 C 0.71198 0.8689 0.35908 0.0
C2352 C 0.73388 0.86261 0.36198 0.0
H2353 H 0.74966 0.87965 0.31742 0.0
H2354 H 0.74653 0.86966 0.32916 0.0
C2355 C 0.73296 0.85695 0.36868 0.0
C2356 C 0.70998 0.87018 0.35181 0.0
H2357 H 0.69774 0.82694 0.338 0.0
C2358 C 0.71494 0.89773 0.34881 0.0
C2359 C 0.70326 0.84421 0.34783 0.0
C2360 C 0.69582 0.81332 0.35072 0.0
C2361 C 0.71421 0.90026 0.34199 0.0
C2362 C 0.70784 0.87439 0.33801 0.0
C2363 C 0.70269 0.8468 0.34101 0.0
C2364 C 0.70684 0.8758 0.33074 0.0
C2365 C 0.72122 0.93098 0.33907 0.0
C2366 C 0.68458 0.88086 0.32761 0.0
C2367 C 0.68599 0.88592 0.32087 0.0
C2368 C 0.70945 0.8857 0.31708 0.0
C2369 C 0.73058 0.87878 0.32015 0.0
C2370 C 0.7291 0.87358 0.32689 0.0
H2371 H 0.73148 0.95018 0.34267 0.0
H2372 H 0.73753 0.93707 0.33492 0.0
H2373 H 0.69937 0.92914 0.33723 0.0
H2374 H 0.66687 0.88228 0.33042 0.0
H2375 H 0.67007 0.89227 0.3187 0.0
H2376 H 0.17839 0.80525 0.31927 0.0
H2377 H 0.18867 0.81371 0.33089 0.0
H2378 H 0.22592 0.9122 0.3281 0.0
H2379 H 0.21443 0.90337 0.31643 0.0
H2380 H 0.23529 0.84411 0.33889 0.0
H2381 H 0.15863 0.89525 0.34083 0.0
H2382 H 0.16209 0.8778 0.33344 0.0
H2383 H 0.19135 0.91681 0.33558 0.0
C2384 C 0.19001 0.82889 0.32109 0.0
C2385 C 0.19633 0.85371 0.31689 0.0
C2386 C 0.1955 0.83369 0.32777 0.0
C2387 C 0.20726 0.86349 0.33047 0.0
C2388 C 0.21598 0.8888 0.32621 0.0
H2389 H 0.24488 0.93621 0.36958 0.0
H2390 H 0.23395 0.92627 0.35801 0.0
C2391 C 0.21024 0.88391 0.31949 0.0
C2392 C 0.20883 0.86737 0.33772 0.0
H2393 H 0.18451 0.89465 0.3504 0.0
C2394 C 0.22409 0.8551 0.3414 0.0
C2395 C 0.19392 0.88136 0.34106 0.0
C2396 C 0.17531 0.89328 0.33754 0.0
C2397 C 0.22564 0.85717 0.34823 0.0
C2398 C 0.21104 0.87149 0.35156 0.0
C2399 C 0.19562 0.88357 0.34789 0.0
C2400 C 0.21344 0.87633 0.35878 0.0
C2401 C 0.24381 0.84486 0.35179 0.0
C2402 C 0.20406 0.85149 0.3632 0.0
C2403 C 0.21011 0.85724 0.36989 0.0
C2404 C 0.22513 0.88786 0.37228 0.0
C2405 C 0.23242 0.91231 0.36791 0.0
C2406 C 0.22654 0.90664 0.36126 0.0
H2407 H 0.2595 0.84135 0.34848 0.0
H2408 H 0.258 0.86095 0.35573 0.0
H2409 H 0.22739 0.82203 0.35399 0.0
H2410 H 0.19321 0.82777 0.36146 0.0
H2411 H 0.20513 0.83801 0.3731 0.0
H2412 H 0.75438 0.90061 0.81726 0.0
H2413 H 0.75263 0.90917 0.82895 0.0
H2414 H 0.66287 0.82596 0.83015 0.0
H2415 H 0.66486 0.81729 0.81848 0.0
H2416 H 0.71246 0.91485 0.83783 0.0
H2417 H 0.71589 0.80632 0.84231 0.0
H2418 H 0.72375 0.82477 0.83444 0.0
H2419 H 0.68435 0.80145 0.83724 0.0
C2420 C 0.73361 0.885 0.81997 0.0
C2421 C 0.70931 0.8588 0.81691 0.0
C2422 C 0.73282 0.88964 0.82668 0.0
C2423 C 0.70794 0.86785 0.8305 0.0
C2424 C 0.68262 0.84285 0.82736 0.0
H2425 H 0.66666 0.84448 0.87192 0.0
H2426 H 0.66875 0.8371 0.8602 0.0
C2427 C 0.68341 0.83825 0.82065 0.0
C2428 C 0.70949 0.87011 0.83777 0.0
H2429 H 0.71003 0.83136 0.85151 0.0
C2430 C 0.71205 0.89664 0.84081 0.0
C2431 C 0.70919 0.84649 0.84171 0.0
C2432 C 0.70844 0.81826 0.83878 0.0
C2433 C 0.71345 0.89979 0.84763 0.0
C2434 C 0.71293 0.87605 0.85157 0.0
C2435 C 0.71048 0.84959 0.84853 0.0
C2436 C 0.714 0.87791 0.85884 0.0
C2437 C 0.71451 0.92813 0.85058 0.0
C2438 C 0.73949 0.90219 0.86209 0.0
C2439 C 0.73855 0.90603 0.86884 0.0
C2440 C 0.7123 0.88546 0.87249 0.0
C2441 C 0.68777 0.85996 0.8693 0.0
C2442 C 0.68871 0.85607 0.86256 0.0
H2443 H 0.70827 0.94089 0.84701 0.0
H2444 H 0.6984 0.92147 0.85479 0.0
H2445 H 0.73839 0.94423 0.85235 0.0
H2446 H 0.75954 0.91909 0.85937 0.0
H2447 H 0.75725 0.92657 0.8711 0.0
H2448 H 0.23836 0.88731 0.87362 0.0
H2449 H 0.24837 0.90042 0.86196 0.0
H2450 H 0.15297 0.83262 0.85772 0.0
H2451 H 0.14274 0.82133 0.86916 0.0
H2452 H 0.24615 0.864 0.85239 0.0
H2453 H 0.15899 0.89781 0.84619 0.0
H2454 H 0.16876 0.89494 0.85448 0.0
H2455 H 0.14076 0.86076 0.85014 0.0
C2456 C 0.21925 0.87664 0.87021 0.0
C2457 C 0.1895 0.85395 0.87234 0.0
C2458 C 0.22505 0.88365 0.86353 0.0
C2459 C 0.20125 0.86801 0.85888 0.0
C2460 C 0.17152 0.84609 0.86111 0.0
H2461 H 0.18388 0.85465 0.81623 0.0
H2462 H 0.17533 0.84216 0.82794 0.0
C2463 C 0.16569 0.83956 0.86771 0.0
C2464 C 0.20743 0.87201 0.8517 0.0
H2465 H 0.17799 0.88067 0.83732 0.0
C2466 C 0.23145 0.86805 0.84911 0.0
C2467 C 0.1881 0.87685 0.84734 0.0
C2468 C 0.16295 0.88313 0.8497 0.0
C2469 C 0.23617 0.86804 0.84236 0.0
C2470 C 0.21662 0.87255 0.838 0.0
C2471 C 0.1927 0.87665 0.84059 0.0
C2472 C 0.22232 0.87604 0.83081 0.0
C2473 C 0.2617 0.8624 0.83998 0.0
C2474 C 0.25155 0.89854 0.82846 0.0
C2475 C 0.25655 0.90488 0.82184 0.0
C2476 C 0.23238 0.88953 0.81731 0.0
C2477 C 0.20325 0.86612 0.81956 0.0
C2478 C 0.19827 0.85942 0.82627 0.0
H2479 H 0.2666 0.84856 0.84353 0.0
H2480 H 0.2557 0.85005 0.83525 0.0
H2481 H 0.28343 0.88507 0.83937 0.0
H2482 H 0.27023 0.91264 0.83178 0.0
H2483 H 0.27904 0.92363 0.82029 0.0
H2484 H 0.14069 0.36151 0.82083 0.0
H2485 H 0.15129 0.35914 0.83222 0.0
H2486 H 0.24478 0.38128 0.82755 0.0
H2487 H 0.23408 0.38336 0.81587 0.0
H2488 H 0.17232 0.32043 0.83862 0.0
H2489 H 0.25237 0.4478 0.84158 0.0
H2490 H 0.22528 0.43202 0.83492 0.0
H2491 H 0.25952 0.42853 0.83495 0.0
C2492 C 0.16367 0.36597 0.82215 0.0
C2493 C 0.18668 0.37301 0.81738 0.0
C2494 C 0.16958 0.36443 0.82872 0.0
C2495 C 0.19883 0.37029 0.83078 0.0
C2496 C 0.22202 0.37693 0.82607 0.0
H2497 H 0.27409 0.37218 0.86802 0.0
H2498 H 0.25916 0.36876 0.85673 0.0
C2499 C 0.21591 0.37803 0.8194 0.0
C2500 C 0.20434 0.36966 0.8379 0.0
H2501 H 0.24102 0.41657 0.85093 0.0
C2502 C 0.1874 0.34145 0.84131 0.0
C2503 C 0.22354 0.39714 0.84144 0.0
C2504 C 0.24117 0.42823 0.83808 0.0
C2505 C 0.18969 0.33995 0.84811 0.0
C2506 C 0.20898 0.36737 0.85163 0.0
C2507 C 0.2258 0.3956 0.84824 0.0
C2508 C 0.21544 0.36663 0.85868 0.0
C2509 C 0.17212 0.30898 0.8515 0.0
C2510 C 0.19531 0.36576 0.86363 0.0
C2511 C 0.2039 0.36778 0.87025 0.0
C2512 C 0.23273 0.37072 0.87194 0.0
C2513 C 0.25179 0.37012 0.86693 0.0
C2514 C 0.24337 0.36823 0.86043 0.0
H2515 H 0.15864 0.28957 0.84807 0.0
H2516 H 0.18864 0.30418 0.85419 0.0
H2517 H 0.15589 0.30978 0.85511 0.0
H2518 H 0.17354 0.36451 0.86238 0.0
H2519 H 0.18886 0.36854 0.87396 0.0
H2520 H 0.80808 0.68975 0.70215 0.0
H2521 H 0.81879 0.6887 0.69067 0.0
H2522 H 0.91291 0.71263 0.69515 0.0
H2523 H 0.90239 0.71467 0.70685 0.0
H2524 H 0.873 0.7468 0.68416 0.0
H2525 H 0.87107 0.63425 0.68128 0.0
H2526 H 0.85 0.64045 0.68771 0.0
H2527 H 0.89153 0.65887 0.68809 0.0
C2528 C 0.83089 0.69389 0.70075 0.0
C2529 C 0.85425 0.70191 0.70545 0.0
C2530 C 0.83702 0.69356 0.69415 0.0
C2531 C 0.86665 0.70083 0.69202 0.0
C2532 C 0.88979 0.70694 0.69669 0.0
H2533 H 0.94445 0.71997 0.65391 0.0
H2534 H 0.93413 0.72275 0.66537 0.0
C2535 C 0.88368 0.70763 0.70339 0.0
C2536 C 0.87301 0.70351 0.68488 0.0
H2537 H 0.87964 0.66447 0.67186 0.0
C2538 C 0.87459 0.72887 0.68147 0.0
C2539 C 0.8745 0.67988 0.68135 0.0
C2540 C 0.87158 0.65164 0.68474 0.0
C2541 C 0.87813 0.73138 0.67466 0.0
C2542 C 0.87979 0.70782 0.67114 0.0
C2543 C 0.87811 0.68244 0.67455 0.0
C2544 C 0.8862 0.71036 0.66401 0.0
C2545 C 0.88068 0.75943 0.67125 0.0
C2546 C 0.8629 0.70355 0.65933 0.0
C2547 C 0.86883 0.70202 0.65266 0.0
C2548 C 0.89819 0.7074 0.65062 0.0
C2549 C 0.92171 0.71605 0.6553 0.0
C2550 C 0.9158 0.71742 0.66188 0.0
H2551 H 0.88068 0.77663 0.6747 0.0
H2552 H 0.90239 0.77095 0.66833 0.0
H2553 H 0.86086 0.75193 0.66785 0.0
H2554 H 0.83978 0.6979 0.66086 0.0
H2555 H 0.85002 0.69454 0.6492 0.0
H2556 H 0.42962 0.23464 0.65143 0.0
H2557 H 0.42681 0.22389 0.66308 0.0
H2558 H 0.32901 0.19409 0.66293 0.0
H2559 H 0.33187 0.20461 0.65121 0.0
H2560 H 0.41181 0.25533 0.67205 0.0
H2561 H 0.33079 0.12835 0.67458 0.0
H2562 H 0.35062 0.14588 0.66707 0.0
H2563 H 0.31712 0.14835 0.66947 0.0
C2564 C 0.40717 0.22427 0.65382 0.0
C2565 C 0.38075 0.21947 0.65036 0.0
C2566 C 0.40568 0.2186 0.66051 0.0
C2567 C 0.3777 0.20805 0.66394 0.0
C2568 C 0.35078 0.20159 0.66042 0.0
H2569 H 0.32701 0.18116 0.70483 0.0
H2570 H 0.3304 0.19224 0.69319 0.0
C2571 C 0.3523 0.20726 0.65369 0.0
C2572 C 0.37761 0.20671 0.67121 0.0
H2573 H 0.34488 0.15817 0.68423 0.0
C2574 C 0.39727 0.23401 0.6747 0.0
C2575 C 0.35868 0.179 0.67472 0.0
C2576 C 0.33827 0.14862 0.6713 0.0
C2577 C 0.39813 0.23444 0.68155 0.0
C2578 C 0.37905 0.20678 0.68505 0.0
C2579 C 0.35943 0.17947 0.68157 0.0
C2580 C 0.37888 0.20548 0.69232 0.0
C2581 C 0.41883 0.26467 0.685 0.0
C2582 C 0.40532 0.21039 0.69582 0.0
C2583 C 0.4035 0.20452 0.70254 0.0
C2584 C 0.37524 0.19375 0.70589 0.0
C2585 C 0.34938 0.19054 0.70244 0.0
C2586 C 0.35116 0.19637 0.69575 0.0
H2587 H 0.4276 0.28498 0.68168 0.0
H2588 H 0.40611 0.26803 0.68907 0.0
H2589 H 0.43914 0.26406 0.68706 0.0
H2590 H 0.42683 0.21678 0.69329 0.0
H2591 H 0.42341 0.20584 0.705 0.0
H2592 H 0.82457 0.20946 0.65281 0.0
H2593 H 0.83618 0.2171 0.66437 0.0
H2594 H 0.90363 0.18732 0.66202 0.0
H2595 H 0.89157 0.17912 0.65029 0.0
H2596 H 0.82729 0.1647 0.67263 0.0
H2597 H 0.946 0.26841 0.67404 0.0
H2598 H 0.92043 0.26186 0.66726 0.0
H2599 H 0.93908 0.23906 0.66808 0.0
C2600 C 0.84267 0.20547 0.6547 0.0
C2601 C 0.8574 0.19403 0.6506 0.0
C2602 C 0.84906 0.2096 0.66134 0.0
C2603 C 0.87059 0.20263 0.66411 0.0
C2604 C 0.88698 0.19303 0.65999 0.0
H2605 H 0.92453 0.19706 0.70361 0.0
H2606 H 0.91157 0.18856 0.6921 0.0
C2607 C 0.8804 0.1887 0.65327 0.0
C2608 C 0.87369 0.20335 0.67135 0.0
H2609 H 0.92236 0.24371 0.68389 0.0
C2610 C 0.8481 0.18198 0.67509 0.0
C2611 C 0.90065 0.22604 0.67458 0.0
C2612 C 0.92817 0.25036 0.67083 0.0
C2613 C 0.84899 0.18244 0.68194 0.0
C2614 C 0.876 0.20504 0.68517 0.0
C2615 C 0.90155 0.22645 0.68143 0.0
C2616 C 0.87927 0.20571 0.69239 0.0
C2617 C 0.82139 0.15834 0.68571 0.0
C2618 C 0.86439 0.21703 0.69651 0.0
C2619 C 0.87171 0.2218 0.70319 0.0
C2620 C 0.89401 0.21531 0.70582 0.0
C2621 C 0.90708 0.20208 0.70175 0.0
C2622 C 0.89988 0.19741 0.69514 0.0
H2623 H 0.80294 0.14094 0.6825 0.0
H2624 H 0.8289 0.14603 0.68912 0.0
H2625 H 0.81137 0.16995 0.68865 0.0
H2626 H 0.84847 0.22375 0.6945 0.0
H2627 H 0.86176 0.23264 0.70616 0.0
H2628 H 0.39403 0.27331 0.2026 0.0
H2629 H 0.39573 0.26388 0.19111 0.0
H2630 H 0.36791 0.16813 0.19517 0.0
H2631 H 0.36436 0.17738 0.20684 0.0
H2632 H 0.42481 0.24881 0.18328 0.0
H2633 H 0.30219 0.15305 0.18253 0.0
H2634 H 0.31912 0.17571 0.18975 0.0
H2635 H 0.32643 0.14473 0.1876 0.0
C2636 C 0.38896 0.25034 0.20108 0.0
C2637 C 0.3793 0.22619 0.20565 0.0
C2638 C 0.38979 0.2449 0.19446 0.0
C2639 C 0.38111 0.21506 0.19215 0.0
C2640 C 0.37373 0.1912 0.19676 0.0
H2641 H 0.36444 0.13924 0.15392 0.0
H2642 H 0.36311 0.15024 0.16534 0.0
C2643 C 0.37248 0.19662 0.20346 0.0
C2644 C 0.37906 0.20962 0.18493 0.0
H2645 H 0.33036 0.16507 0.17273 0.0
C2646 C 0.40406 0.23047 0.18099 0.0
C2647 C 0.35192 0.18602 0.18185 0.0
C2648 C 0.32327 0.1638 0.18564 0.0
C2649 C 0.40304 0.22808 0.17416 0.0
C2650 C 0.37608 0.20421 0.17109 0.0
C2651 C 0.35103 0.18349 0.17503 0.0
C2652 C 0.37443 0.19796 0.16392 0.0
C2653 C 0.43131 0.25069 0.17032 0.0
C2654 C 0.38005 0.22071 0.15916 0.0
C2655 C 0.38091 0.21435 0.15249 0.0
C2656 C 0.37574 0.18501 0.15051 0.0
C2657 C 0.36823 0.162 0.15527 0.0
C2658 C 0.36761 0.16833 0.16184 0.0
H2659 H 0.45226 0.26307 0.17344 0.0
H2660 H 0.43639 0.23857 0.16639 0.0
H2661 H 0.42688 0.26842 0.16807 0.0
H2662 H 0.38458 0.24359 0.16058 0.0
H2663 H 0.38735 0.23276 0.14896 0.0
H2664 H 0.84366 0.19722 0.14962 0.0
H2665 H 0.83413 0.18583 0.16134 0.0
H2666 H 0.93286 0.22939 0.16459 0.0
H2667 H 0.94228 0.2405 0.153 0.0
H2668 H 0.8564 0.15565 0.17132 0.0
H2669 H 0.90298 0.2821 0.17526 0.0
H2670 H 0.88839 0.26359 0.1675 0.0
H2671 H 0.9262 0.27206 0.1702 0.0
C2672 C 0.86316 0.20291 0.1528 0.0
C2673 C 0.89372 0.21903 0.15035 0.0
C2674 C 0.85776 0.19687 0.15952 0.0
C2675 C 0.88284 0.20727 0.16388 0.0
C2676 C 0.91312 0.22141 0.16136 0.0
H2677 H 0.90776 0.20839 0.20614 0.0
H2678 H 0.91636 0.21845 0.19437 0.0
C2679 C 0.91846 0.2273 0.1547 0.0
C2680 C 0.87805 0.20551 0.17109 0.0
H2681 H 0.89333 0.25109 0.18463 0.0
C2682 C 0.86426 0.17648 0.17422 0.0
C2683 C 0.8884 0.2327 0.17491 0.0
C2684 C 0.90212 0.26443 0.17182 0.0
C2685 C 0.86115 0.17404 0.18104 0.0
C2686 C 0.8718 0.20128 0.18486 0.0
C2687 C 0.88542 0.23026 0.18173 0.0
C2688 C 0.8677 0.19977 0.19207 0.0
C2689 C 0.84703 0.14234 0.18415 0.0
C2690 C 0.83784 0.18756 0.19474 0.0
C2691 C 0.83309 0.18255 0.20144 0.0
C2692 C 0.85802 0.18975 0.20566 0.0
C2693 C 0.88825 0.20375 0.20305 0.0
C2694 C 0.89307 0.20895 0.19631 0.0
H2695 H 0.84425 0.12411 0.18065 0.0
H2696 H 0.86171 0.14275 0.18826 0.0
H2697 H 0.82376 0.13587 0.18613 0.0
H2698 H 0.81793 0.18048 0.1916 0.0
H2699 H 0.80944 0.17082 0.20327 0.0
H2700 H 0.81633 0.71263 0.15446 0.0
H2701 H 0.82893 0.71425 0.16588 0.0
H2702 H 0.9063 0.70157 0.16101 0.0
H2703 H 0.89319 0.69928 0.14934 0.0
H2704 H 0.8313 0.66034 0.17214 0.0
H2705 H 0.9369 0.7769 0.17513 0.0
H2706 H 0.90932 0.76885 0.16867 0.0
H2707 H 0.93488 0.75316 0.1683 0.0
C2708 C 0.83656 0.7109 0.15576 0.0
C2709 C 0.85383 0.70599 0.15095 0.0
C2710 C 0.84359 0.71166 0.16233 0.0
C2711 C 0.86835 0.70781 0.16434 0.0
C2712 C 0.88704 0.70466 0.15957 0.0
H2713 H 0.92844 0.68853 0.20227 0.0
H2714 H 0.91571 0.68676 0.19082 0.0
C2715 C 0.8798 0.7037 0.15289 0.0
C2716 C 0.87269 0.70529 0.17145 0.0
H2717 H 0.91693 0.74582 0.18451 0.0
C2718 C 0.85011 0.67899 0.17484 0.0
C2719 C 0.89688 0.72978 0.175 0.0
C2720 C 0.92094 0.75894 0.17164 0.0
C2721 C 0.85135 0.67642 0.18164 0.0
C2722 C 0.87553 0.70089 0.18518 0.0
C2723 C 0.89814 0.72719 0.1818 0.0
C2724 C 0.87963 0.69832 0.1923 0.0
C2725 C 0.82715 0.64739 0.18501 0.0
C2726 C 0.86272 0.70432 0.19703 0.0
C2727 C 0.87 0.70533 0.2037 0.0
C2728 C 0.89417 0.70015 0.20568 0.0
C2729 C 0.90945 0.69228 0.20093 0.0
C2730 C 0.90242 0.69152 0.19435 0.0
H2731 H 0.8105 0.62982 0.18155 0.0
H2732 H 0.83867 0.63688 0.18783 0.0
H2733 H 0.81401 0.65351 0.1885 0.0
H2734 H 0.84496 0.70965 0.19555 0.0
H2735 H 0.85832 0.71221 0.20721 0.0
H2736 H 0.52548 0.85406 0.05051 0.0
H2737 H 0.52877 0.80714 0.04972 0.0
H2738 H 0.53137 0.80227 0.07056 0.0
H2739 H 0.52427 0.84693 0.07148 0.0
H2740 H 0.57576 0.80197 0.05294 0.0
H2741 H 0.47683 0.7126 0.06722 0.0
H2742 H 0.47882 0.74834 0.06465 0.0
H2743 H 0.49955 0.74758 0.07176 0.0
C2744 C 0.52549 0.84271 0.05498 0.0
C2745 C 0.52496 0.85544 0.06108 0.0
C2746 C 0.52781 0.81574 0.0545 0.0
C2747 C 0.53026 0.80079 0.06007 0.0
C2748 C 0.52885 0.8127 0.06616 0.0
H2749 H 0.59271 0.66686 0.06681 0.0
H2750 H 0.5792 0.70816 0.06768 0.0
C2751 C 0.52561 0.83915 0.06666 0.0
C2752 C 0.53757 0.77501 0.05945 0.0
H2753 H 0.51772 0.70192 0.06477 0.0
C2754 C 0.56274 0.78 0.05548 0.0
C2755 C 0.52081 0.74618 0.06278 0.0
C2756 C 0.49231 0.73818 0.06678 0.0
C2757 C 0.57194 0.75755 0.05484 0.0
C2758 C 0.55564 0.72914 0.05824 0.0
C2759 C 0.53039 0.72387 0.0622 0.0
C2760 C 0.56455 0.70467 0.05768 0.0
C2761 C 0.59951 0.76465 0.0506 0.0
C2762 C 0.56106 0.68917 0.05177 0.0
C2763 C 0.56893 0.66578 0.05127 0.0
C2764 C 0.58089 0.65783 0.05663 0.0
C2765 C 0.58476 0.67355 0.06253 0.0
C2766 C 0.57655 0.69671 0.06306 0.0
H2767 H 0.61334 0.78975 0.04935 0.0
H2768 H 0.61494 0.75754 0.05303 0.0
H2769 H 0.59115 0.75128 0.04601 0.0
H2770 H 0.55144 0.69458 0.04759 0.0
H2771 H 0.56464 0.65312 0.04675 0.0
H2772 H 0.24188 0.70237 0.07084 0.0
H2773 H 0.28777 0.75443 0.0702 0.0
H2774 H 0.26554 0.7625 0.05036 0.0
H2775 H 0.21892 0.7116 0.05102 0.0
H2776 H 0.34145 0.78445 0.06161 0.0
H2777 H 0.2647 0.83559 0.0596 0.0
H2778 H 0.25083 0.79629 0.06236 0.0
H2779 H 0.25622 0.80526 0.05384 0.0
C2780 C 0.24657 0.71516 0.06633 0.0
C2781 C 0.22605 0.70256 0.06101 0.0
C2782 C 0.27312 0.74487 0.06596 0.0
C2783 C 0.27982 0.76263 0.06027 0.0
C2784 C 0.26058 0.74945 0.05485 0.0
H2785 H 0.40955 0.95241 0.04792 0.0
H2786 H 0.36893 0.89711 0.04863 0.0
C2787 C 0.23397 0.71998 0.05522 0.0
C2788 C 0.3053 0.79573 0.06008 0.0
H2789 H 0.31818 0.86941 0.05765 0.0
C2790 C 0.33642 0.80307 0.06078 0.0
C2791 C 0.29875 0.8201 0.05906 0.0
C2792 C 0.26583 0.81407 0.05873 0.0
C2793 C 0.36108 0.83405 0.06028 0.0
C2794 C 0.35434 0.85821 0.05907 0.0
C2795 C 0.3233 0.85084 0.05847 0.0
C2796 C 0.37889 0.89151 0.05861 0.0
C2797 C 0.39415 0.84067 0.06087 0.0
C2798 C 0.39712 0.9069 0.06403 0.0
C2799 C 0.41977 0.93833 0.06365 0.0
C2800 C 0.42441 0.95518 0.05787 0.0
C2801 C 0.40568 0.94015 0.05248 0.0
C2802 C 0.38293 0.90852 0.05286 0.0
H2803 H 0.39565 0.81909 0.06061 0.0
H2804 H 0.40889 0.85685 0.05698 0.0
H2805 H 0.40388 0.85201 0.0656 0.0
H2806 H 0.39397 0.89455 0.06855 0.0
H2807 H 0.43444 0.94935 0.06783 0.0
H2808 H 0.12578 0.48472 0.04827 0.0
H2809 H 0.18067 0.49762 0.04886 0.0
H2810 H 0.18835 0.53758 0.06783 0.0
H2811 H 0.13397 0.52439 0.06726 0.0
H2812 H 0.23482 0.55781 0.05061 0.0
H2813 H 0.22197 0.47909 0.07102 0.0
H2814 H 0.18901 0.47507 0.06651 0.0
H2815 H 0.20707 0.50477 0.0726 0.0
C2816 C 0.13902 0.49527 0.05263 0.0
C2817 C 0.12549 0.50266 0.05781 0.0
C2818 C 0.17043 0.50307 0.05294 0.0
C2819 C 0.18858 0.51817 0.05844 0.0
C2820 C 0.1748 0.52533 0.0636 0.0
H2821 H 0.37995 0.57605 0.06988 0.0
H2822 H 0.32827 0.57049 0.06919 0.0
C2823 C 0.14367 0.51764 0.06329 0.0
C2824 C 0.22199 0.5269 0.05881 0.0
H2825 H 0.27327 0.51472 0.06763 0.0
C2826 C 0.2432 0.54819 0.05429 0.0
C2827 C 0.23315 0.51506 0.06373 0.0
C2828 C 0.21162 0.49206 0.06871 0.0
C2829 C 0.27512 0.5577 0.05455 0.0
C2830 C 0.28604 0.545 0.05933 0.0
C2831 C 0.26494 0.52433 0.06393 0.0
C2832 C 0.31884 0.55146 0.05948 0.0
C2833 C 0.29707 0.58188 0.0498 0.0
C2834 C 0.33101 0.54278 0.05425 0.0
C2835 C 0.36044 0.54541 0.05466 0.0
C2836 C 0.37859 0.55683 0.06033 0.0
C2837 C 0.36667 0.56656 0.06548 0.0
C2838 C 0.3371 0.56365 0.06508 0.0
H2839 H 0.28677 0.59517 0.04762 0.0
H2840 H 0.31929 0.59847 0.0522 0.0
H2841 H 0.3024 0.57025 0.04581 0.0
H2842 H 0.31717 0.53266 0.04994 0.0
H2843 H 0.36825 0.53711 0.05063 0.0
H2844 H 0.83899 0.49351 0.45357 0.0
H2845 H 0.79273 0.49945 0.45416 0.0
H2846 H 0.82841 0.55397 0.47156 0.0
H2847 H 0.87467 0.54876 0.47097 0.0
H2848 H 0.74663 0.48692 0.46517 0.0
H2849 H 0.81727 0.61074 0.45777 0.0
H2850 H 0.82878 0.5822 0.45609 0.0
H2851 H 0.83413 0.59872 0.46406 0.0
C2852 C 0.83691 0.50663 0.45754 0.0
C2853 C 0.86074 0.52073 0.46221 0.0
C2854 C 0.81035 0.50981 0.45789 0.0
C2855 C 0.80727 0.52738 0.46288 0.0
C2856 C 0.83038 0.54043 0.46766 0.0
H2857 H 0.6847 0.59999 0.47319 0.0
H2858 H 0.72641 0.58655 0.4728 0.0
C2859 C 0.85676 0.5372 0.46733 0.0
C2860 C 0.78125 0.53415 0.46293 0.0
H2861 H 0.76686 0.59454 0.46179 0.0
C2862 C 0.75093 0.51037 0.4644 0.0
C2863 C 0.78684 0.56468 0.46185 0.0
C2864 C 0.81842 0.59058 0.45979 0.0
C2865 C 0.72632 0.51669 0.46503 0.0
C2866 C 0.73233 0.54759 0.46418 0.0
C2867 C 0.76248 0.57108 0.46259 0.0
C2868 C 0.70741 0.55587 0.46451 0.0
C2869 C 0.69424 0.49046 0.46671 0.0
C2870 C 0.68376 0.54405 0.45986 0.0
C2871 C 0.66054 0.55201 0.46003 0.0
C2872 C 0.66036 0.57212 0.46483 0.0
C2873 C 0.68461 0.58494 0.46938 0.0
C2874 C 0.70808 0.57689 0.4692 0.0
H2875 H 0.6947 0.4695 0.46845 0.0
H2876 H 0.68341 0.49791 0.4705 0.0
H2877 H 0.67925 0.48383 0.46234 0.0
H2878 H 0.6832 0.52856 0.4561 0.0
H2879 H 0.64211 0.54177 0.45645 0.0
H2880 H 0.53049 0.13483 0.47552 0.0
H2881 H 0.54396 0.18941 0.47439 0.0
H2882 H 0.50176 0.16927 0.45542 0.0
H2883 H 0.48694 0.11441 0.45671 0.0
H2884 H 0.58105 0.2336 0.46572 0.0
H2885 H 0.46099 0.21329 0.46336 0.0
H2886 H 0.46887 0.18337 0.46607 0.0
H2887 H 0.47023 0.19219 0.45756 0.0
C2888 C 0.52306 0.14193 0.47122 0.0
C2889 C 0.50641 0.1202 0.46633 0.0
C2890 C 0.53123 0.17321 0.47053 0.0
C2891 C 0.52343 0.18356 0.46487 0.0
C2892 C 0.50711 0.16182 0.45993 0.0
H2893 H 0.54059 0.35682 0.45201 0.0
H2894 H 0.5377 0.30696 0.45265 0.0
C2895 C 0.49837 0.13038 0.46069 0.0
C2896 C 0.53231 0.217 0.46415 0.0
H2897 H 0.50184 0.26428 0.46135 0.0
C2898 C 0.56372 0.24035 0.46479 0.0
C2899 C 0.50982 0.22596 0.46293 0.0
C2900 C 0.47557 0.20244 0.4625 0.0
C2901 C 0.57316 0.27221 0.46414 0.0
C2902 C 0.55055 0.28104 0.4629 0.0
C2903 C 0.51927 0.25765 0.46227 0.0
C2904 C 0.55818 0.31415 0.46218 0.0
C2905 C 0.60728 0.29605 0.46461 0.0
C2906 C 0.57172 0.33576 0.46725 0.0
C2907 C 0.57451 0.36536 0.46683 0.0
C2908 C 0.56304 0.37398 0.4614 0.0
C2909 C 0.5504 0.35229 0.45626 0.0
C2910 C 0.54831 0.32314 0.45663 0.0
H2911 H 0.62216 0.28528 0.46415 0.0
H2912 H 0.61399 0.31407 0.46079 0.0
H2913 H 0.61206 0.30777 0.46939 0.0
H2914 H 0.57906 0.32938 0.47165 0.0
H2915 H 0.58514 0.38107 0.47087 0.0
H2916 H 0.94595 0.44222 0.45736 0.0
H2917 H 0.89221 0.40036 0.45655 0.0
H2918 H 0.90853 0.35006 0.47166 0.0
H2919 H 0.96303 0.3927 0.47254 0.0
H2920 H 0.86717 0.3391 0.45358 0.0
H2921 H 0.83182 0.35333 0.47831 0.0
H2922 H 0.86652 0.38294 0.47434 0.0
H2923 H 0.86626 0.35002 0.47804 0.0
C2924 C 0.9382 0.42212 0.46049 0.0
C2925 C 0.95861 0.42071 0.46504 0.0
C2926 C 0.90742 0.39823 0.46002 0.0
C2927 C 0.89609 0.37232 0.46412 0.0
C2928 C 0.91666 0.37019 0.46853 0.0
H2929 H 0.72493 0.2023 0.46974 0.0
H2930 H 0.7763 0.24875 0.4701 0.0
C2931 C 0.94783 0.39424 0.46898 0.0
C2932 C 0.86279 0.34764 0.46366 0.0
H2933 H 0.79537 0.30925 0.47237 0.0
C2934 C 0.85142 0.33253 0.45769 0.0
C2935 C 0.84202 0.3399 0.46894 0.0
C2936 C 0.85204 0.35755 0.47526 0.0
C2937 C 0.82035 0.30865 0.45696 0.0
C2938 C 0.79994 0.29963 0.46236 0.0
C2939 C 0.81106 0.3157 0.46826 0.0
C2940 C 0.76783 0.27217 0.46218 0.0
C2941 C 0.81004 0.29275 0.45046 0.0
C2942 C 0.7455 0.26991 0.45768 0.0
C2943 C 0.71597 0.24309 0.45744 0.0
C2944 C 0.70796 0.21825 0.46177 0.0
C2945 C 0.73007 0.22109 0.46639 0.0
C2946 C 0.75958 0.24765 0.46658 0.0
H2947 H 0.83011 0.29781 0.44728 0.0
H2948 H 0.79551 0.26716 0.45106 0.0
H2949 H 0.79594 0.30126 0.44796 0.0
H2950 H 0.75087 0.2888 0.45435 0.0
H2951 H 0.69939 0.24183 0.45387 0.0
H2952 H 0.51789 0.42537 0.95464 0.0
H2953 H 0.53125 0.38409 0.95399 0.0
H2954 H 0.51426 0.36748 0.97453 0.0
H2955 H 0.50012 0.4084 0.97513 0.0
H2956 H 0.57803 0.37907 0.96005 0.0
H2957 H 0.46289 0.28069 0.96718 0.0
H2958 H 0.46836 0.31804 0.96477 0.0
H2959 H 0.47848 0.31242 0.97283 0.0
C2960 C 0.51599 0.4121 0.95897 0.0
C2961 C 0.50676 0.41909 0.96489 0.0
C2962 C 0.52411 0.38888 0.95861 0.0
C2963 C 0.52341 0.37228 0.96418 0.0
C2964 C 0.51421 0.37933 0.97012 0.0
H2965 H 0.55261 0.21751 0.97206 0.0
H2966 H 0.54922 0.26464 0.97274 0.0
C2967 C 0.50582 0.40247 0.97047 0.0
C2968 C 0.53221 0.3476 0.96376 0.0
H2969 H 0.50424 0.2702 0.96649 0.0
C2970 C 0.5619 0.35523 0.96145 0.0
C2971 C 0.51115 0.31644 0.96553 0.0
C2972 C 0.47834 0.30624 0.96766 0.0
C2973 C 0.57123 0.33266 0.96101 0.0
C2974 C 0.55021 0.30156 0.96288 0.0
C2975 C 0.52054 0.29405 0.96513 0.0
C2976 C 0.55789 0.27601 0.96255 0.0
C2977 C 0.6037 0.34245 0.9587 0.0
C2978 C 0.56486 0.26693 0.95662 0.0
C2979 C 0.56755 0.2401 0.95622 0.0
C2980 C 0.56264 0.22115 0.96172 0.0
C2981 C 0.55693 0.23122 0.9677 0.0
C2982 C 0.55468 0.25823 0.9681 0.0
H2983 H 0.61911 0.36812 0.95885 0.0
H2984 H 0.61418 0.33149 0.96171 0.0
H2985 H 0.60275 0.33476 0.95361 0.0
H2986 H 0.56695 0.2798 0.95222 0.0
H2987 H 0.57274 0.23391 0.95154 0.0
H2988 H 0.83188 0.38848 0.95801 0.0
H2989 H 0.78508 0.33633 0.95877 0.0
H2990 H 0.84204 0.29885 0.96545 0.0
H2991 H 0.88815 0.35066 0.96488 0.0
H2992 H 0.76901 0.28029 0.95288 0.0
H2993 H 0.77586 0.26791 0.97935 0.0
H2994 H 0.79633 0.30494 0.97525 0.0
H2995 H 0.8125 0.27956 0.97551 0.0
C2996 C 0.83414 0.36903 0.9597 0.0
C2997 C 0.86343 0.37354 0.96151 0.0
C2998 C 0.8075 0.33928 0.96011 0.0
C2999 C 0.80985 0.31366 0.96232 0.0
C3000 C 0.83936 0.31828 0.96393 0.0
H3001 H 0.6941 0.11155 0.96628 0.0
H3002 H 0.73763 0.16556 0.96519 0.0
C3003 C 0.86574 0.34786 0.96359 0.0
C3004 C 0.782 0.28186 0.9629 0.0
H3005 H 0.74591 0.22058 0.97344 0.0
C3006 C 0.76384 0.26733 0.95739 0.0
C3007 C 0.77459 0.26502 0.96881 0.0
C3008 C 0.79058 0.28026 0.97509 0.0
C3009 C 0.73969 0.23603 0.95757 0.0
C3010 C 0.73389 0.21867 0.96338 0.0
C3011 C 0.75121 0.23352 0.96893 0.0
C3012 C 0.70818 0.18585 0.96394 0.0
C3013 C 0.72069 0.22158 0.95154 0.0
C3014 C 0.67745 0.17954 0.96373 0.0
C3015 C 0.65291 0.14921 0.96444 0.0
C3016 C 0.65818 0.12396 0.96537 0.0
C3017 C 0.68911 0.13026 0.96561 0.0
C3018 C 0.71394 0.16107 0.96496 0.0
H3019 H 0.73179 0.2359 0.94715 0.0
H3020 H 0.71715 0.19788 0.95076 0.0
H3021 H 0.69745 0.21939 0.95213 0.0
H3022 H 0.67237 0.19821 0.96307 0.0
H3023 H 0.6296 0.14575 0.96417 0.0
H3024 H 0.69163 0.47504 0.96341 0.0
H3025 H 0.74372 0.48024 0.96423 0.0
H3026 H 0.78592 0.5781 0.95993 0.0
H3027 H 0.73443 0.57293 0.95903 0.0
H3028 H 0.7981 0.50829 0.95455 0.0
H3029 H 0.8216 0.5701 0.97808 0.0
H3030 H 0.7828 0.54464 0.97506 0.0
H3031 H 0.80513 0.58367 0.97201 0.0
C3032 C 0.71212 0.49756 0.96263 0.0
C3033 C 0.70909 0.52363 0.96117 0.0
C3034 C 0.74177 0.50049 0.96307 0.0
C3035 C 0.7687 0.52965 0.96219 0.0
C3036 C 0.76551 0.55545 0.96065 0.0
H3037 H 0.97123 0.61717 0.96316 0.0
H3038 H 0.91694 0.60583 0.96208 0.0
C3039 C 0.73609 0.55246 0.96013 0.0
C3040 C 0.80042 0.53415 0.96311 0.0
H3041 H 0.86542 0.57435 0.97247 0.0
C3042 C 0.81277 0.52249 0.95849 0.0
C3043 C 0.81942 0.55231 0.96831 0.0
C3044 C 0.80659 0.5632 0.9737 0.0
C3045 C 0.84405 0.52969 0.9588 0.0
C3046 C 0.86346 0.54938 0.96381 0.0
C3047 C 0.8508 0.56016 0.96853 0.0
C3048 C 0.89632 0.55704 0.96454 0.0
C3049 C 0.85633 0.51657 0.95374 0.0
C3050 C 0.90253 0.53378 0.96652 0.0
C3051 C 0.93306 0.54028 0.96727 0.0
C3052 C 0.9585 0.57025 0.966 0.0
C3053 C 0.95232 0.59398 0.96422 0.0
C3054 C 0.92136 0.58742 0.96353 0.0
H3055 H 0.84012 0.50627 0.94958 0.0
H3056 H 0.87928 0.53493 0.95191 0.0
H3057 H 0.85965 0.49807 0.95597 0.0
H3058 H 0.88366 0.5104 0.96746 0.0
H3059 H 0.93661 0.52129 0.96872 0.0
H3060 H 0.42614 0.50458 0.56806 0.0
H3061 H 0.38517 0.51838 0.5689 0.0
H3062 H 0.37752 0.51603 0.54804 0.0
H3063 H 0.41826 0.50177 0.54723 0.0
H3064 H 0.38414 0.57028 0.56386 0.0
H3065 H 0.28765 0.46099 0.55372 0.0
H3066 H 0.32361 0.46413 0.55647 0.0
H3067 H 0.32164 0.4793 0.54867 0.0
C3068 C 0.41477 0.50585 0.56368 0.0
C3069 C 0.4242 0.50072 0.55759 0.0
C3070 C 0.3918 0.51428 0.56415 0.0
C3071 C 0.37789 0.51786 0.55854 0.0
C3072 C 0.38732 0.51266 0.55245 0.0
H3073 H 0.22655 0.55267 0.55098 0.0
H3074 H 0.27342 0.54899 0.55024 0.0
C3075 C 0.41031 0.50418 0.55198 0.0
C3076 C 0.35355 0.527 0.55906 0.0
H3077 H 0.27768 0.50224 0.55538 0.0
C3078 C 0.36081 0.55541 0.56202 0.0
C3079 C 0.3231 0.50761 0.55669 0.0
C3080 C 0.31334 0.47618 0.55376 0.0
C3081 C 0.3386 0.56515 0.56253 0.0
C3082 C 0.30815 0.54574 0.5601 0.0
C3083 C 0.30102 0.51733 0.55718 0.0
C3084 C 0.28285 0.55371 0.56054 0.0
C3085 C 0.34818 0.59643 0.56551 0.0
C3086 C 0.27281 0.55867 0.56657 0.0
C3087 C 0.24627 0.56178 0.567 0.0
C3088 C 0.22837 0.55907 0.56145 0.0
C3089 C 0.23937 0.55529 0.5554 0.0
C3090 C 0.26624 0.55282 0.55496 0.0
H3091 H 0.37387 0.61167 0.56559 0.0
H3092 H 0.33787 0.60848 0.56282 0.0
H3093 H 0.33977 0.59312 0.5706 0.0
H3094 H 0.28469 0.55887 0.57098 0.0
H3095 H 0.23951 0.56556 0.57176 0.0
H3096 H 0.54614 0.7135 0.55094 0.0
H3097 H 0.55083 0.76473 0.55026 0.0
H3098 H 0.51025 0.75221 0.5693 0.0
H3099 H 0.50502 0.70063 0.57001 0.0
H3100 H 0.50955 0.78718 0.55112 0.0
H3101 H 0.59328 0.83097 0.57167 0.0
H3102 H 0.58103 0.79375 0.56794 0.0
H3103 H 0.55576 0.79836 0.57352 0.0
C3104 C 0.53758 0.72121 0.55494 0.0
C3105 C 0.52553 0.70282 0.56056 0.0
C3106 C 0.54046 0.75071 0.55456 0.0
C3107 C 0.53159 0.76267 0.55979 0.0
C3108 C 0.51804 0.74384 0.56527 0.0
H3109 H 0.55466 0.94519 0.56678 0.0
H3110 H 0.5412 0.89076 0.5672 0.0
C3111 C 0.51511 0.7143 0.56566 0.0
C3112 C 0.53805 0.79538 0.55958 0.0
H3113 H 0.58083 0.86627 0.56686 0.0
C3114 C 0.52521 0.80451 0.55455 0.0
C3115 C 0.55818 0.81794 0.56411 0.0
C3116 C 0.57308 0.80992 0.56959 0.0
C3117 C 0.53212 0.83557 0.5539 0.0
C3118 C 0.55308 0.8582 0.5583 0.0
C3119 C 0.56526 0.84895 0.56342 0.0
C3120 C 0.56176 0.89145 0.5579 0.0
C3121 C 0.5163 0.84384 0.54867 0.0
C3122 C 0.57864 0.91029 0.5526 0.0
C3123 C 0.58682 0.9418 0.55239 0.0
C3124 C 0.5781 0.95462 0.55748 0.0
C3125 C 0.56195 0.93587 0.56282 0.0
C3126 C 0.55401 0.90472 0.56305 0.0
H3127 H 0.49696 0.82284 0.54636 0.0
H3128 H 0.50693 0.85824 0.5507 0.0
H3129 H 0.53345 0.85773 0.54485 0.0
H3130 H 0.58528 0.90057 0.54862 0.0
H3131 H 0.59868 0.95566 0.54816 0.0
H3132 H 0.38628 0.84045 0.55206 0.0
H3133 H 0.33436 0.79473 0.55128 0.0
H3134 H 0.31183 0.81419 0.57024 0.0
H3135 H 0.36179 0.86121 0.57085 0.0
H3136 H 0.29839 0.74061 0.55825 0.0
H3137 H 0.24518 0.81562 0.55966 0.0
H3138 H 0.28642 0.83145 0.55859 0.0
H3139 H 0.2691 0.81996 0.56653 0.0
C3140 C 0.37029 0.8355 0.55605 0.0
C3141 C 0.37878 0.85559 0.56147 0.0
C3142 C 0.34059 0.80888 0.55562 0.0
C3143 C 0.31871 0.8014 0.56062 0.0
C3144 C 0.32785 0.8199 0.56622 0.0
H3145 H 0.1216 0.66887 0.56633 0.0
H3146 H 0.17652 0.70915 0.56747 0.0
C3147 C 0.35706 0.8468 0.56659 0.0
C3148 C 0.28576 0.77578 0.55986 0.0
H3149 H 0.21083 0.76147 0.56026 0.0
C3150 C 0.27925 0.74519 0.55865 0.0
C3151 C 0.26061 0.78159 0.56037 0.0
C3152 C 0.26563 0.81397 0.56129 0.0
C3153 C 0.24837 0.72035 0.55808 0.0
C3154 C 0.22336 0.72636 0.55865 0.0
C3155 C 0.22994 0.75684 0.55985 0.0
C3156 C 0.19011 0.70171 0.55794 0.0
C3157 C 0.2427 0.68778 0.55709 0.0
C3158 C 0.1792 0.68472 0.55215 0.0
C3159 C 0.14787 0.66182 0.55151 0.0
C3160 C 0.12668 0.65613 0.55656 0.0
C3161 C 0.13728 0.67373 0.56227 0.0
C3162 C 0.16872 0.69633 0.56296 0.0
H3163 H 0.2637 0.68607 0.5582 0.0
H3164 H 0.22317 0.67093 0.56018 0.0
H3165 H 0.23635 0.68089 0.55195 0.0
H3166 H 0.19494 0.68897 0.54814 0.0
H3167 H 0.14032 0.64793 0.54713 0.0
H3168 H 0.27353 0.01442 0.38285 0.0
H3169 H 0.26147 0.05708 0.38344 0.0
H3170 H 0.20195 0.01275 0.39992 0.0
H3171 H 0.21436 0.97119 0.39945 0.0
H3172 H 0.20121 0.05215 0.38268 0.0
H3173 H 0.25576 0.10028 0.40657 0.0
H3174 H 0.26387 0.07398 0.40205 0.0
H3175 H 0.22827 0.05937 0.40658 0.0
C3176 C 0.25868 0.01445 0.3867 0.0
C3177 C 0.2453 0.98979 0.39116 0.0
C3178 C 0.25144 0.03852 0.38699 0.0
C3179 C 0.23109 0.03839 0.39179 0.0
C3180 C 0.21818 0.01388 0.39627 0.0
H3181 H 0.16809 0.16979 0.40233 0.0
H3182 H 0.17316 0.12324 0.40163 0.0
C3183 C 0.22532 0.99008 0.39598 0.0
C3184 C 0.22263 0.06332 0.39211 0.0
H3185 H 0.22534 0.11998 0.40201 0.0
C3186 C 0.20678 0.0672 0.38688 0.0
C3187 C 0.22876 0.08221 0.39769 0.0
C3188 C 0.24528 0.07897 0.40353 0.0
C3189 C 0.1973 0.08967 0.38704 0.0
C3190 C 0.20485 0.10962 0.39248 0.0
C3191 C 0.21983 0.10503 0.39779 0.0
C3192 C 0.19914 0.13652 0.39263 0.0
C3193 C 0.17848 0.09121 0.38146 0.0
C3194 C 0.21193 0.15965 0.38782 0.0
C3195 C 0.20916 0.18636 0.38821 0.0
C3196 C 0.19374 0.19092 0.39348 0.0
C3197 C 0.18041 0.16739 0.39824 0.0
C3198 C 0.18317 0.14061 0.39783 0.0
H3199 H 0.16641 0.06879 0.37879 0.0
H3200 H 0.16085 0.09712 0.38318 0.0
H3201 H 0.1942 0.10944 0.37799 0.0
H3202 H 0.22517 0.15766 0.38385 0.0
H3203 H 0.22034 0.20409 0.38452 0.0
H3204 H 0.05849 0.29988 0.38938 0.0
H3205 H 0.01458 0.24606 0.39034 0.0
H3206 H 0.07908 0.21217 0.39196 0.0
H3207 H 0.12224 0.26454 0.39101 0.0
H3208 H 1.00244 0.19204 0.38217 0.0
H3209 H 0.02257 0.17428 0.40795 0.0
H3210 H 0.03858 0.21253 0.40438 0.0
H3211 H 0.05602 0.18905 0.40275 0.0
C3212 C 0.06321 0.28092 0.38991 0.0
C3213 C 0.09401 0.28681 0.39008 0.0
C3214 C 0.03817 0.25023 0.39049 0.0
C3215 C 0.04364 0.22518 0.39134 0.0
C3216 C 0.07425 0.23108 0.39143 0.0
H3217 H 0.92228 0.02141 0.39472 0.0
H3218 H 0.96864 0.07386 0.39386 0.0
C3219 C 0.09901 0.26132 0.39081 0.0
C3220 C 0.0177 0.19255 0.39195 0.0
H3221 H 0.98542 0.1297 0.40216 0.0
C3222 C 0.99851 0.17853 0.38656 0.0
C3223 C 1.01333 0.17458 0.39761 0.0
C3224 C 0.03355 0.18835 0.40353 0.0
C3225 C 0.97488 0.14716 0.3867 0.0
C3226 C 0.96966 0.12954 0.39244 0.0
C3227 C 0.98932 0.14329 0.39778 0.0
C3228 C 0.94228 0.09773 0.39309 0.0
C3229 C 0.95592 0.13277 0.38066 0.0
C3230 C 0.91228 0.09385 0.39302 0.0
C3231 C 0.88611 0.06423 0.39352 0.0
C3232 C 0.88933 0.03781 0.39408 0.0
C3233 C 0.91931 0.0415 0.39421 0.0
C3234 C 0.94568 0.07136 0.39375 0.0
H3235 H 0.96729 0.14697 0.37628 0.0
H3236 H 0.95222 0.10899 0.37991 0.0
H3237 H 0.93279 0.13087 0.38122 0.0
H3238 H 0.90912 0.11387 0.39261 0.0
H3239 H 0.86321 0.06192 0.39349 0.0
H3240 H 0.78084 0.79675 0.39543 0.0
H3241 H 0.83492 0.80832 0.39675 0.0
H3242 H 0.86702 0.89143 0.38524 0.0
H3243 H 0.81363 0.8803 0.38399 0.0
H3244 H 0.8792 0.81612 0.38771 0.0
H3245 H 0.92068 0.9267 0.4012 0.0
H3246 H 0.87988 0.89894 0.40013 0.0
H3247 H 0.90193 0.92509 0.39366 0.0
C3248 C 0.79942 0.81706 0.39307 0.0
C3249 C 0.79299 0.83749 0.38958 0.0
C3250 C 0.83032 0.82392 0.3939 0.0
C3251 C 0.85515 0.85128 0.39125 0.0
C3252 C 0.84848 0.87078 0.38751 0.0
H3253 H 0.05604 0.92289 0.38808 0.0
H3254 H 1.00375 0.91647 0.38725 0.0
C3255 C 0.81784 0.86408 0.38671 0.0
C3256 C 0.888 0.85895 0.39216 0.0
H3257 H 0.95944 0.91519 0.3976 0.0
C3258 C 0.89664 0.83767 0.38992 0.0
C3259 C 0.91093 0.88734 0.39497 0.0
C3260 C 0.90292 0.91074 0.39768 0.0
C3261 C 0.9275 0.84402 0.39034 0.0
C3262 C 0.95036 0.87216 0.39319 0.0
C3263 C 0.9419 0.89366 0.3954 0.0
C3264 C 0.98274 0.87857 0.39414 0.0
C3265 C 0.93559 0.82072 0.38762 0.0
C3266 C 0.9884 0.85992 0.39839 0.0
C3267 C 0.01801 0.86328 0.39883 0.0
C3268 C 0.04293 0.88563 0.39508 0.0
C3269 C 0.03742 0.90517 0.39099 0.0
C3270 C 1.00761 0.90173 0.39054 0.0
H3271 H 0.91709 0.80363 0.38437 0.0
H3272 H 0.9578 0.83269 0.38487 0.0
H3273 H 0.93859 0.80773 0.39167 0.0
H3274 H 0.9696 0.84206 0.40124 0.0
H3275 H 0.02097 0.84742 0.40196 0.0
H3276 H 0.31806 0.89427 0.7884 0.0
H3277 H 0.35869 0.88028 0.7875 0.0
H3278 H 0.38574 0.90916 0.80731 0.0
H3279 H 0.34428 0.92253 0.80824 0.0
H3280 H 0.42024 0.91286 0.78852 0.0
H3281 H 0.37396 0.82214 0.80761 0.0
H3282 H 0.35137 0.83773 0.80406 0.0
H3283 H 0.37915 0.85879 0.81034 0.0
C3284 C 0.33327 0.89839 0.79251 0.0
C3285 C 0.32871 0.91026 0.79833 0.0
C3286 C 0.35624 0.89004 0.79202 0.0
C3287 C 0.37499 0.89307 0.79737 0.0
C3288 C 0.37115 0.90596 0.80315 0.0
H3289 H 0.53654 0.87712 0.80463 0.0
H3290 H 0.48989 0.88172 0.80505 0.0
C3291 C 0.34799 0.91428 0.80365 0.0
C3292 C 0.3989 0.88334 0.79681 0.0
H3293 H 0.42512 0.83815 0.80379 0.0
C3294 C 0.42118 0.89638 0.79184 0.0
C3295 C 0.39969 0.86118 0.80102 0.0
C3296 C 0.37459 0.84384 0.80601 0.0
C3297 C 0.4451 0.88921 0.79118 0.0
C3298 C 0.44692 0.86836 0.79561 0.0
C3299 C 0.42403 0.85448 0.80045 0.0
C3300 C 0.47343 0.86222 0.79553 0.0
C3301 C 0.46879 0.9048 0.78584 0.0
C3302 C 0.47925 0.84864 0.79012 0.0
C3303 C 0.50587 0.84562 0.78989 0.0
C3304 C 0.52739 0.85614 0.79505 0.0
C3305 C 0.52061 0.86843 0.80058 0.0
C3306 C 0.49392 0.87129 0.80081 0.0
H3307 H 0.46767 0.92472 0.78368 0.0
H3308 H 0.4927 0.91327 0.78769 0.0
H3309 H 0.46426 0.88769 0.78193 0.0
H3310 H 0.46342 0.84077 0.78604 0.0
H3311 H 0.50969 0.83531 0.78561 0.0
H3312 H 0.18369 0.68671 0.80171 0.0
H3313 H 0.17672 0.6343 0.80215 0.0
H3314 H 0.25787 0.66411 0.79011 0.0
H3315 H 0.26471 0.71681 0.78959 0.0
H3316 H 0.16887 0.59636 0.79077 0.0
H3317 H 0.27076 0.61799 0.80588 0.0
H3318 H 0.25596 0.64467 0.80574 0.0
H3319 H 0.27779 0.64289 0.79898 0.0
C3320 C 0.20034 0.68222 0.79925 0.0
C3321 C 0.22492 0.70582 0.79568 0.0
C3322 C 0.19626 0.65227 0.79948 0.0
C3323 C 0.21692 0.6454 0.79622 0.0
C3324 C 0.24186 0.66904 0.79272 0.0
H3325 H 0.21961 0.47301 0.79314 0.0
H3326 H 0.22987 0.5262 0.79239 0.0
C3327 C 0.2457 0.69902 0.79241 0.0
C3328 C 0.21105 0.61301 0.79628 0.0
H3329 H 0.2377 0.56657 0.80232 0.0
C3330 C 0.18387 0.5898 0.7933 0.0
C3331 C 0.23093 0.60465 0.7995 0.0
C3332 C 0.26046 0.62872 0.80275 0.0
C3333 C 0.17588 0.55839 0.79351 0.0
C3334 C 0.19506 0.54984 0.79695 0.0
C3335 C 0.22267 0.57313 0.7998 0.0
C3336 C 0.18772 0.51701 0.79736 0.0
C3337 C 0.14747 0.53467 0.78988 0.0
C3338 C 0.16028 0.49388 0.80035 0.0
C3339 C 0.15405 0.46301 0.80072 0.0
C3340 C 0.17553 0.45523 0.7982 0.0
C3341 C 0.2027 0.47841 0.79517 0.0
C3342 C 0.20871 0.50889 0.79475 0.0
H3343 H 0.139 0.54578 0.78638 0.0
H3344 H 0.15254 0.51827 0.78721 0.0
H3345 H 0.12849 0.52098 0.79339 0.0
H3346 H 0.14401 0.49983 0.80249 0.0
H3347 H 0.1332 0.44563 0.80315 0.0
H3348 H 0.60818 0.77046 0.80764 0.0
H3349 H 0.55406 0.72864 0.80652 0.0
H3350 H 0.58031 0.69187 0.79028 0.0
H3351 H 0.63474 0.733 0.79159 0.0
H3352 H 0.51332 0.71437 0.79665 0.0
H3353 H 0.53216 0.61468 0.8009 0.0
H3354 H 0.56138 0.6542 0.80273 0.0
H3355 H 0.55591 0.64001 0.79453 0.0
C3356 C 0.60249 0.75277 0.80397 0.0
C3357 C 0.62582 0.75426 0.79986 0.0
C3358 C 0.57148 0.72915 0.80327 0.0
C3359 C 0.56294 0.70665 0.79838 0.0
C3360 C 0.58629 0.70824 0.79423 0.0
H3361 H 0.39303 0.54412 0.7862 0.0
H3362 H 0.44371 0.59079 0.78682 0.0
C3363 C 0.61748 0.7316 0.79501 0.0
C3364 C 0.52968 0.68168 0.79762 0.0
H3365 H 0.48245 0.60272 0.79716 0.0
C3366 C 0.50654 0.68994 0.79679 0.0
C3367 C 0.52062 0.64974 0.79784 0.0
C3368 C 0.54374 0.63905 0.79911 0.0
C3369 C 0.47488 0.66717 0.79603 0.0
C3370 C 0.46603 0.63524 0.79614 0.0
C3371 C 0.48915 0.62713 0.79702 0.0
C3372 C 0.43318 0.60948 0.79529 0.0
C3373 C 0.45132 0.67743 0.79492 0.0
C3374 C 0.40975 0.60442 0.79978 0.0
C3375 C 0.38012 0.57765 0.79939 0.0
C3376 C 0.37325 0.55503 0.79453 0.0
C3377 C 0.39671 0.56086 0.78995 0.0
C3378 C 0.42607 0.58763 0.79032 0.0
H3379 H 0.46254 0.7026 0.79373 0.0
H3380 H 0.43527 0.66385 0.79092 0.0
H3381 H 0.43722 0.67317 0.79938 0.0
H3382 H 0.41466 0.62055 0.80374 0.0
H3383 H 0.36281 0.5745 0.80297 0.0
H3384 H 0.25255 0.57076 0.30378 0.0
H3385 H 0.24651 0.61666 0.30464 0.0
H3386 H 0.19976 0.5947 0.28618 0.0
H3387 H 0.20279 0.54769 0.28553 0.0
H3388 H 0.26238 0.67005 0.29735 0.0
H3389 H 0.13431 0.59369 0.29774 0.0
H3390 H 0.16045 0.57854 0.29851 0.0
H3391 H 0.15184 0.58817 0.29064 0.0
C3392 C 0.24059 0.5753 0.29992 0.0
C3393 C 0.22772 0.55458 0.29463 0.0
C3394 C 0.23757 0.60197 0.30039 0.0
C3395 C 0.22188 0.60876 0.29556 0.0
C3396 C 0.21118 0.58957 0.29007 0.0
H3397 H 0.1543 0.73854 0.28984 0.0
H3398 H 0.16925 0.69838 0.28884 0.0
C3399 C 0.2135 0.56268 0.28966 0.0
C3400 C 0.21441 0.63424 0.29641 0.0
H3401 H 0.15315 0.64759 0.29664 0.0
C3402 C 0.23851 0.66514 0.29725 0.0
C3403 C 0.18322 0.62795 0.29629 0.0
C3404 C 0.15597 0.59527 0.29581 0.0
C3405 C 0.23221 0.68985 0.29779 0.0
C3406 C 0.20097 0.68338 0.29756 0.0
C3407 C 0.17705 0.65256 0.29677 0.0
C3408 C 0.19213 0.7079 0.29819 0.0
C3409 C 0.25902 0.72273 0.29839 0.0
C3410 C 0.19909 0.72594 0.30384 0.0
C3411 C 0.19031 0.74863 0.30442 0.0
C3412 C 0.17373 0.75317 0.29943 0.0
C3413 C 0.16591 0.73455 0.29386 0.0
C3414 C 0.17497 0.71206 0.29325 0.0
H3415 H 0.28159 0.72445 0.29712 0.0
H3416 H 0.2554 0.73871 0.29521 0.0
H3417 H 0.26056 0.73076 0.30347 0.0
H3418 H 0.21154 0.72268 0.30779 0.0
H3419 H 0.19738 0.76338 0.30868 0.0
H3420 H 0.29581 0.47931 0.29865 0.0
H3421 H 0.33857 0.53156 0.29768 0.0
H3422 H 0.40354 0.49816 0.29929 0.0
H3423 H 0.35988 0.44423 0.30001 0.0
H3424 H 0.38257 0.56758 0.30546 0.0
H3425 H 0.43525 0.55115 0.28319 0.0
H3426 H 0.39713 0.5226 0.28605 0.0
H3427 H 0.43132 0.52487 0.28959 0.0
C3428 C 0.31906 0.48255 0.29882 0.0
C3429 C 0.3242 0.45709 0.2994 0.0
C3430 C 0.34365 0.51285 0.29826 0.0
C3431 C 0.37436 0.51899 0.29832 0.0
C3432 C 0.37996 0.49393 0.29908 0.0
H3433 H 0.55263 0.68401 0.29909 0.0
H3434 H 0.50649 0.63202 0.29959 0.0
C3435 C 0.35504 0.46314 0.29956 0.0
C3436 C 0.4 0.55182 0.29762 0.0
H3437 H 0.46437 0.59961 0.28863 0.0
C3438 C 0.4004 0.57455 0.30177 0.0
C3439 C 0.42265 0.56124 0.29265 0.0
C3440 C 0.42147 0.5388 0.28756 0.0
C3441 C 0.42353 0.60603 0.30127 0.0
C3442 C 0.44727 0.615 0.29657 0.0
C3443 C 0.44639 0.59254 0.2923 0.0
C3444 C 0.47459 0.64695 0.29635 0.0
C3445 C 0.42282 0.62942 0.30583 0.0
C3446 C 0.47194 0.67263 0.29435 0.0
C3447 C 0.49843 0.7024 0.29402 0.0
C3448 C 0.52771 0.7068 0.29578 0.0
C3449 C 0.53018 0.68116 0.29782 0.0
C3450 C 0.50392 0.65151 0.29807 0.0
H3451 H 0.40484 0.61816 0.30967 0.0
H3452 H 0.44587 0.64364 0.30817 0.0
H3453 H 0.41764 0.64543 0.30305 0.0
H3454 H 0.44957 0.66956 0.29293 0.0
H3455 H 0.49614 0.72188 0.29236 0.0
H3456 H 0.36261 0.81768 0.30152 0.0
H3457 H 0.41462 0.82331 0.30242 0.0
H3458 H 0.44938 0.89627 0.28809 0.0
H3459 H 0.3985 0.89185 0.28734 0.0
H3460 H 0.45928 0.82266 0.29275 0.0
H3461 H 0.50189 0.93734 0.30455 0.0
H3462 H 0.46109 0.90885 0.30392 0.0
H3463 H 0.48159 0.93286 0.29706 0.0
C3464 C 0.38132 0.83494 0.29856 0.0
C3465 C 0.37611 0.8544 0.29438 0.0
C3466 C 0.41098 0.8379 0.29903 0.0
C3467 C 0.43602 0.8605 0.29537 0.0
C3468 C 0.43053 0.87887 0.291 0.0
H3469 H 0.63757 0.94153 0.29294 0.0
H3470 H 0.58294 0.92814 0.29152 0.0
C3471 C 0.40115 0.87606 0.29054 0.0
C3472 C 0.4685 0.86708 0.29642 0.0
H3473 H 0.54018 0.92527 0.30116 0.0
C3474 C 0.47695 0.84496 0.29464 0.0
C3475 C 0.49158 0.89615 0.2989 0.0
C3476 C 0.48364 0.9201 0.30128 0.0
C3477 C 0.50807 0.85161 0.29511 0.0
C3478 C 0.53122 0.88111 0.29744 0.0
C3479 C 0.52258 0.90291 0.29928 0.0
C3480 C 0.56435 0.88957 0.29829 0.0
C3481 C 0.51611 0.82739 0.29296 0.0
C3482 C 0.57216 0.87325 0.30274 0.0
C3483 C 0.60316 0.88117 0.30362 0.0
C3484 C 0.62725 0.90579 0.30012 0.0
C3485 C 0.61966 0.92303 0.29584 0.0
C3486 C 0.58842 0.91501 0.29495 0.0
H3487 H 0.49714 0.80864 0.29006 0.0
H3488 H 0.53781 0.83822 0.29003 0.0
H3489 H 0.52008 0.81654 0.29729 0.0
H3490 H 0.55422 0.85416 0.30552 0.0
H3491 H 0.60824 0.86727 0.30692 0.0
H3492 H 0.08014 0.82697 0.88082 0.0
H3493 H 0.03891 0.84082 0.88125 0.0
H3494 H 0.05436 0.85811 0.90179 0.0
H3495 H 0.09569 0.84487 0.90133 0.0
H3496 H 0.9845 0.81529 0.88837 0.0
H3497 H 0.05992 0.93856 0.89566 0.0
H3498 H 0.07528 0.91546 0.89225 0.0
H3499 H 0.06379 0.91097 0.90062 0.0
C3500 C 0.07401 0.83287 0.88544 0.0
C3501 C 0.09035 0.83404 0.89108 0.0
C3502 C 0.05086 0.84126 0.88567 0.0
C3503 C 0.04399 0.85124 0.89153 0.0
C3504 C 0.05972 0.85134 0.89719 0.0
H3505 H 0.90422 0.89663 0.90434 0.0
H3506 H 0.94946 0.88981 0.90338 0.0
C3507 C 0.08284 0.84312 0.89695 0.0
C3508 C 0.01948 0.86022 0.89179 0.0
H3509 H 1.00528 0.91873 0.89604 0.0
C3510 C 0.98913 0.83801 0.88999 0.0
C3511 C 0.02548 0.88985 0.89395 0.0
C3512 C 0.05791 0.91523 0.89568 0.0
C3513 C 0.96448 0.8442 0.89042 0.0
C3514 C 0.97032 0.87375 0.89258 0.0
C3515 C 1.00076 0.89611 0.89438 0.0
C3516 C 0.94481 0.88135 0.89304 0.0
C3517 C 0.93212 0.81854 0.88876 0.0
C3518 C 0.92758 0.87992 0.88753 0.0
C3519 C 0.90103 0.88289 0.88807 0.0
C3520 C 0.89124 0.88802 0.89414 0.0
C3521 C 0.91003 0.89165 0.8996 0.0
C3522 C 0.93634 0.88819 0.89905 0.0
H3523 H 0.93046 0.79536 0.8887 0.0
H3524 H 0.91488 0.81787 0.8923 0.0
H3525 H 0.92577 0.82282 0.88387 0.0
H3526 H 0.93408 0.87544 0.8828 0.0
H3527 H 0.88754 0.87977 0.88373 0.0
H3528 H 0.28474 0.29987 0.89546 0.0
H3529 H 0.2729 0.24558 0.89666 0.0
H3530 H 0.18823 0.21426 0.88578 0.0
H3531 H 0.20028 0.26773 0.8844 0.0
H3532 H 0.21988 0.1956 0.90254 0.0
H3533 H 0.22565 0.16945 0.87655 0.0
H3534 H 0.24102 0.2087 0.87948 0.0
H3535 H 0.19987 0.1841 0.87823 0.0
C3536 C 0.26419 0.28143 0.89315 0.0
C3537 C 0.24372 0.28816 0.88975 0.0
C3538 C 0.2572 0.25042 0.89391 0.0
C3539 C 0.22985 0.22582 0.89123 0.0
C3540 C 0.20979 0.23273 0.88777 0.0
H3541 H 0.15438 0.0235 0.8896 0.0
H3542 H 0.15911 0.07512 0.88897 0.0
C3543 C 0.21675 0.26344 0.88699 0.0
C3544 C 0.2216 0.19279 0.89214 0.0
H3545 H 0.20579 0.1269 0.88383 0.0
C3546 C 0.21705 0.18063 0.89846 0.0
C3547 C 0.21688 0.17294 0.8868 0.0
C3548 C 0.22133 0.18447 0.87989 0.0
C3549 C 0.20823 0.14929 0.89957 0.0
C3550 C 0.20485 0.1298 0.89424 0.0
C3551 C 0.20853 0.14178 0.88793 0.0
C3552 C 0.19992 0.09778 0.89509 0.0
C3553 C 0.20191 0.13718 0.90644 0.0
C3554 C 0.22127 0.09323 0.8987 0.0
C3555 C 0.21865 0.06388 0.89905 0.0
C3556 C 0.19474 0.03821 0.89576 0.0
C3557 C 0.17317 0.04271 0.89217 0.0
C3558 C 0.17575 0.07219 0.89184 0.0
H3559 H 0.19542 0.15124 0.90959 0.0
H3560 H 0.18293 0.11252 0.90662 0.0
H3561 H 0.22325 0.13862 0.90849 0.0
H3562 H 0.24074 0.11266 0.90106 0.0
H3563 H 0.23619 0.06164 0.90173 0.0
H3564 H 0.78763 0.0173 0.8836 0.0
H3565 H 0.84203 0.06052 0.88413 0.0
H3566 H 0.86145 0.01196 0.89912 0.0
H3567 H 0.80816 0.96936 0.89858 0.0
H3568 H 0.87627 0.0979 0.8949 0.0
H3569 H 0.92995 0.02963 0.88609 0.0
H3570 H 0.88921 0.01679 0.88496 0.0
H3571 H 0.90313 0.01225 0.89269 0.0
C3572 C 0.80352 0.01617 0.88703 0.0
C3573 C 0.79373 0.98984 0.89098 0.0
C3574 C 0.83459 0.04064 0.88731 0.0
C3575 C 0.85609 0.03901 0.89153 0.0
C3576 C 0.84574 0.01335 0.89566 0.0
H3577 H 0.04936 0.17004 0.90266 0.0
H3578 H 0.99689 0.12438 0.90202 0.0
C3579 C 0.81509 0.9891 0.89538 0.0
C3580 C 0.88912 0.0644 0.89185 0.0
H3581 H 0.96432 0.08004 0.89028 0.0
C3582 C 0.89548 0.09405 0.89382 0.0
C3583 C 0.91426 0.05915 0.89061 0.0
C3584 C 0.90892 0.02781 0.88842 0.0
C3585 C 0.92619 0.11857 0.89458 0.0
C3586 C 0.95129 0.11361 0.89319 0.0
C3587 C 0.94504 0.08384 0.89132 0.0
C3588 C 0.984 0.13973 0.89334 0.0
C3589 C 0.93171 0.14962 0.89698 0.0
C3590 C 0.99439 0.16313 0.88861 0.0
C3591 C 0.02425 0.1892 0.88896 0.0
C3592 C 0.04454 0.19257 0.89406 0.0
C3593 C 0.03434 0.16848 0.8987 0.0
C3594 C 1.00441 0.14226 0.89832 0.0
H3595 H 0.91013 0.14822 0.89891 0.0
H3596 H 0.94964 0.15859 0.90085 0.0
H3597 H 0.94047 0.16661 0.89292 0.0
H3598 H 0.97905 0.16157 0.88471 0.0
H3599 H 0.03094 0.2073 0.88535 0.0
H3600 H 0.92636 0.33289 0.73386 0.0
H3601 H 0.91245 0.37364 0.73511 0.0
H3602 H 0.8854 0.36315 0.71497 0.0
H3603 H 0.89802 0.32144 0.71383 0.0
H3604 H 0.93304 0.42861 0.72973 0.0
H3605 H 0.80886 0.35608 0.72313 0.0
H3606 H 0.83322 0.33969 0.72501 0.0
H3607 H 0.83439 0.35529 0.71707 0.0
C3608 C 0.91828 0.34001 0.72967 0.0
C3609 C 0.91416 0.32486 0.7237 0.0
C3610 C 0.90989 0.36294 0.7304 0.0
C3611 C 0.89718 0.37112 0.72518 0.0
C3612 C 0.89425 0.35673 0.71913 0.0
H3613 H 0.86362 0.523 0.7176 0.0
H3614 H 0.86767 0.47613 0.71712 0.0
C3615 C 0.90218 0.33346 0.71843 0.0
C3616 C 0.888 0.39537 0.726 0.0
H3617 H 0.8289 0.41104 0.72354 0.0
C3618 C 0.91017 0.42461 0.72842 0.0
C3619 C 0.85796 0.39014 0.72439 0.0
C3620 C 0.83212 0.35852 0.72232 0.0
C3621 C 0.90366 0.449 0.72904 0.0
C3622 C 0.87415 0.44421 0.72718 0.0
C3623 C 0.85165 0.41482 0.72489 0.0
C3624 C 0.86687 0.46993 0.7275 0.0
C3625 C 0.92868 0.48004 0.73156 0.0
C3626 C 0.86364 0.48133 0.73349 0.0
C3627 C 0.86036 0.50777 0.73381 0.0
C3628 C 0.86106 0.52422 0.72814 0.0
C3629 C 0.86281 0.51155 0.72212 0.0
C3630 C 0.86539 0.48464 0.72181 0.0
H3631 H 0.95172 0.48146 0.7318 0.0
H3632 H 0.9307 0.49919 0.72843 0.0
H3633 H 0.92236 0.48369 0.73652 0.0
H3634 H 0.86427 0.47009 0.73795 0.0
H3635 H 0.85774 0.51538 0.73857 0.0
H3636 H 0.531 0.39308 0.7237 0.0
H3637 H 0.57666 0.44534 0.72318 0.0
H3638 H 0.63388 0.40977 0.73071 0.0
H3639 H 0.5878 0.35718 0.73127 0.0
H3640 H 0.61504 0.48 0.73364 0.0
H3641 H 0.6827 0.45981 0.7146 0.0
H3642 H 0.64195 0.43271 0.716 0.0
H3643 H 0.67065 0.4345 0.72155 0.0
C3644 C 0.55343 0.3964 0.72516 0.0
C3645 C 0.55609 0.3712 0.72744 0.0
C3646 C 0.57944 0.42623 0.72489 0.0
C3647 C 0.60877 0.43148 0.72683 0.0
C3648 C 0.61159 0.40623 0.72909 0.0
H3649 H 0.78671 0.60011 0.72786 0.0
H3650 H 0.7433 0.54782 0.72852 0.0
C3651 C 0.58534 0.37628 0.72943 0.0
C3652 C 0.63581 0.46372 0.72663 0.0
H3653 H 0.7046 0.51052 0.71886 0.0
C3654 C 0.63459 0.4867 0.7304 0.0
C3655 C 0.6616 0.47235 0.72248 0.0
C3656 C 0.66442 0.44868 0.71839 0.0
C3657 C 0.6582 0.51807 0.73007 0.0
C3658 C 0.68322 0.52693 0.72571 0.0
C3659 C 0.68493 0.50383 0.72208 0.0
C3660 C 0.70919 0.55964 0.72523 0.0
C3661 C 0.65679 0.54135 0.73456 0.0
C3662 C 0.70461 0.58417 0.72316 0.0
C3663 C 0.72984 0.61486 0.72277 0.0
C3664 C 0.75997 0.62124 0.72437 0.0
C3665 C 0.76406 0.59639 0.72647 0.0
C3666 C 0.73915 0.56618 0.72687 0.0
H3667 H 0.63924 0.52984 0.73847 0.0
H3668 H 0.67984 0.55648 0.73682 0.0
H3669 H 0.65048 0.55643 0.73174 0.0
H3670 H 0.68163 0.57953 0.7218 0.0
H3671 H 0.72587 0.63333 0.72114 0.0
H3672 H 0.48339 0.22272 0.71951 0.0
H3673 H 0.53633 0.23337 0.72091 0.0
H3674 H 0.50209 0.13952 0.72762 0.0
H3675 H 0.44812 0.12855 0.72634 0.0
H3676 H 0.56536 0.22942 0.73256 0.0
H3677 H 0.56543 0.1532 0.71282 0.0
H3678 H 0.53745 0.16629 0.71325 0.0
H3679 H 0.53327 0.13527 0.7184 0.0
C3680 C 0.48683 0.20402 0.72123 0.0
C3681 C 0.46126 0.17459 0.72278 0.0
C3682 C 0.51731 0.21035 0.72206 0.0
C3683 C 0.52326 0.18736 0.72437 0.0
C3684 C 0.49797 0.15758 0.72578 0.0
H3685 H 0.68593 0.17781 0.73396 0.0
H3686 H 0.6347 0.17296 0.73305 0.0
C3687 C 0.46715 0.15121 0.72499 0.0
C3688 C 0.55608 0.19489 0.72523 0.0
H3689 H 0.60998 0.17719 0.7195 0.0
C3690 C 0.57515 0.21801 0.72971 0.0
C3691 C 0.56907 0.18066 0.72139 0.0
C3692 C 0.55045 0.15766 0.71615 0.0
C3693 C 0.60654 0.22636 0.7306 0.0
C3694 C 0.61906 0.21115 0.72692 0.0
C3695 C 0.60021 0.18862 0.72235 0.0
C3696 C 0.651 0.21656 0.728 0.0
C3697 C 0.62603 0.25088 0.73552 0.0
C3698 C 0.67734 0.24288 0.72548 0.0
C3699 C 0.70691 0.24569 0.72596 0.0
C3700 C 0.7106 0.22235 0.72903 0.0
C3701 C 0.68413 0.19647 0.73166 0.0
C3702 C 0.65474 0.19357 0.73113 0.0
H3703 H 0.61249 0.25963 0.73819 0.0
H3704 H 0.63587 0.24126 0.73906 0.0
H3705 H 0.64585 0.27078 0.73304 0.0
H3706 H 0.6749 0.26079 0.723 0.0
H3707 H 0.72682 0.26597 0.72391 0.0
H3708 H 0.17411 0.16489 0.11949 0.0
H3709 H 0.12822 0.17117 0.12009 0.0
H3710 H 0.1572 0.21342 0.13893 0.0
H3711 H 0.20361 0.2086 0.13829 0.0
H3712 H 0.07786 0.1523 0.12978 0.0
H3713 H 0.15308 0.28032 0.1275 0.0
H3714 H 0.16583 0.25337 0.1252 0.0
H3715 H 0.16531 0.26284 0.1336 0.0
C3716 C 0.17082 0.17556 0.12377 0.0
C3717 C 0.19305 0.18656 0.12881 0.0
C3718 C 0.14434 0.17883 0.12413 0.0
C3719 C 0.13951 0.19318 0.12952 0.0
C3720 C 0.16066 0.20262 0.13469 0.0
H3721 H 1.01273 0.25875 0.14091 0.0
H3722 H 0.05414 0.24501 0.14036 0.0
C3723 C 0.18713 0.19952 0.13433 0.0
C3724 C 0.11382 0.20045 0.12962 0.0
H3725 H 0.10061 0.26172 0.13035 0.0
C3726 C 0.08276 0.17618 0.12987 0.0
C3727 C 0.12019 0.23163 0.12966 0.0
C3728 C 0.15286 0.2586 0.12891 0.0
C3729 C 0.05804 0.18241 0.13039 0.0
C3730 C 0.06468 0.2137 0.13065 0.0
C3731 C 0.09564 0.23781 0.13028 0.0
C3732 C 0.03992 0.22218 0.13102 0.0
C3733 C 0.02511 0.15555 0.13081 0.0
C3734 C 0.01905 0.21493 0.12587 0.0
C3735 C 0.99593 0.22306 0.12615 0.0
C3736 C 0.99334 0.23895 0.13155 0.0
C3737 C 0.01479 0.24722 0.13663 0.0
C3738 C 0.03804 0.23895 0.13635 0.0
H3739 H 0.02431 0.13312 0.13177 0.0
H3740 H 1.01211 0.15969 0.13471 0.0
H3741 H 1.01298 0.15337 0.12616 0.0
H3742 H 0.02051 0.20278 0.12163 0.0
H3743 H 0.9794 0.21615 0.12219 0.0
H3744 H 0.90246 0.03617 0.11796 0.0
H3745 H 0.89613 0.98425 0.11875 0.0
H3746 H 0.88457 0.98515 0.13944 0.0
H3747 H 0.88804 0.03562 0.13869 0.0
H3748 H 0.92467 0.95616 0.1253 0.0
H3749 H 0.80391 0.90951 0.13421 0.0
H3750 H 0.82624 0.94795 0.13078 0.0
H3751 H 0.83231 0.94077 0.13907 0.0
C3752 C 0.89815 0.02537 0.12269 0.0
C3753 C 0.89494 0.04035 0.12823 0.0
C3754 C 0.89501 0.99568 0.12313 0.0
C3755 C 0.88899 0.98031 0.12913 0.0
C3756 C 0.8883 0.9961 0.13472 0.0
H3757 H 0.84335 0.79551 0.14234 0.0
H3758 H 0.85815 0.85067 0.14139 0.0
C3759 C 0.8908 0.02544 0.13428 0.0
C3760 C 0.88116 0.9471 0.12951 0.0
H3761 H 0.82393 0.87527 0.1345 0.0
C3762 C 0.9026 0.93845 0.12729 0.0
C3763 C 0.85223 0.92379 0.13205 0.0
C3764 C 0.82721 0.93083 0.1341 0.0
C3765 C 0.89611 0.90736 0.12769 0.0
C3766 C 0.86738 0.88437 0.13035 0.0
C3767 C 0.84601 0.89299 0.13252 0.0
C3768 C 0.85857 0.85107 0.13089 0.0
C3769 C 0.92022 0.89938 0.12544 0.0
C3770 C 0.85287 0.83277 0.12531 0.0
C3771 C 0.84366 0.80119 0.12586 0.0
C3772 C 0.83976 0.78733 0.13199 0.0
C3773 C 0.84506 0.80546 0.13757 0.0
C3774 C 0.85404 0.83701 0.13702 0.0
H3775 H 0.94298 0.92048 0.12443 0.0
H3776 H 0.92358 0.88512 0.12916 0.0
H3777 H 0.91208 0.88537 0.12093 0.0
H3778 H 0.85577 0.84297 0.12053 0.0
H3779 H 0.84078 0.78785 0.1215 0.0
H3780 H 0.28034 0.09419 0.1424 0.0
H3781 H 0.22587 0.05257 0.1414 0.0
H3782 H 0.24394 0.03524 0.12181 0.0
H3783 H 0.29865 0.07564 0.12296 0.0
H3784 H 0.18053 0.04688 0.13327 0.0
H3785 H 0.20173 0.94875 0.12883 0.0
H3786 H 0.23175 0.98599 0.13176 0.0
H3787 H 0.22186 0.98046 0.12327 0.0
C3788 C 0.27282 0.08056 0.13798 0.0
C3789 C 0.29389 0.08703 0.13287 0.0
C3790 C 0.24162 0.05716 0.13737 0.0
C3791 C 0.23074 0.04021 0.13157 0.0
C3792 C 0.25185 0.04707 0.12642 0.0
H3793 H 0.05551 0.88892 0.11827 0.0
H3794 H 0.10519 0.93523 0.11907 0.0
C3795 C 0.28318 0.06999 0.12709 0.0
C3796 C 0.19736 0.01557 0.1309 0.0
H3797 H 0.15032 0.93858 0.12733 0.0
C3798 C 0.17391 0.02314 0.13201 0.0
C3799 C 0.18857 0.98457 0.12922 0.0
C3800 C 0.21226 0.97432 0.12826 0.0
C3801 C 0.14209 1.00067 0.13141 0.0
C3802 C 0.13345 0.96972 0.12974 0.0
C3803 C 0.15689 0.96229 0.12861 0.0
C3804 C 0.10039 0.94428 0.12911 0.0
C3805 C 0.11801 0.01035 0.1324 0.0
C3806 C 0.0802 0.93399 0.13446 0.0
C3807 C 0.05066 0.90718 0.13404 0.0
C3808 C 0.04053 0.88924 0.12827 0.0
C3809 C 0.0609 0.90085 0.12286 0.0
C3810 C 0.09007 0.92781 0.12328 0.0
H3811 H 0.12852 0.03607 0.13243 0.0
H3812 H 0.1001 1.00048 0.12853 0.0
H3813 H 0.10617 1.00127 0.13713 0.0
H3814 H 0.08769 0.94599 0.13907 0.0
H3815 H 0.03645 0.90061 0.13835 0.0
H3816 H 0.92463 0.90749 0.63633 0.0
H3817 H 0.91859 0.95349 0.63716 0.0
H3818 H 0.86095 0.92446 0.62009 0.0
H3819 H 0.86487 0.87776 0.61945 0.0
H3820 H 0.92962 1.00398 0.62886 0.0
H3821 H 0.80361 0.92806 0.63364 0.0
H3822 H 0.83063 0.91379 0.63391 0.0
H3823 H 0.81616 0.91867 0.62625 0.0
C3824 C 0.91045 0.91066 0.63277 0.0
C3825 C 0.89496 0.88827 0.62787 0.0
C3826 C 0.90735 0.93728 0.63321 0.0
C3827 C 0.88875 0.94216 0.62877 0.0
C3828 C 0.87489 0.92095 0.62366 0.0
H3829 H 0.81486 0.06794 0.62458 0.0
H3830 H 0.82924 0.02744 0.62329 0.0
C3831 C 0.87759 0.89426 0.62326 0.0
C3832 C 0.8817 0.96788 0.62967 0.0
H3833 H 0.8209 0.98114 0.63167 0.0
C3834 C 0.9059 0.99903 0.62952 0.0
C3835 C 0.85074 0.96151 0.63055 0.0
C3836 C 0.82382 0.92871 0.63117 0.0
C3837 C 0.89978 0.02385 0.63004 0.0
C3838 C 0.86865 0.01728 0.63082 0.0
C3839 C 0.84466 0.9862 0.63102 0.0
C3840 C 0.86015 0.04201 0.63158 0.0
C3841 C 0.92652 0.05684 0.62957 0.0
C3842 C 0.87189 0.06305 0.63677 0.0
C3843 C 0.86359 0.08599 0.63752 0.0
C3844 C 0.84274 0.08793 0.63319 0.0
C3845 C 0.83008 0.06624 0.62812 0.0
C3846 C 0.83874 0.04349 0.62732 0.0
H3847 H 0.94768 0.05785 0.62749 0.0
H3848 H 0.9201 0.07126 0.62653 0.0
H3849 H 0.93243 0.06728 0.63448 0.0
H3850 H 0.88765 0.06189 0.64024 0.0
H3851 H 0.87412 0.10283 0.64139 0.0
H3852 H 0.17927 0.03749 0.61825 0.0
H3853 H 0.13369 0.98551 0.61874 0.0
H3854 H 0.14951 0.98016 0.63912 0.0
H3855 H 0.19596 0.03134 0.63866 0.0
H3856 H 0.13519 0.93173 0.62227 0.0
H3857 H 0.05533 0.94879 0.63833 0.0
H3858 H 0.08696 0.98028 0.63396 0.0
H3859 H 0.09443 0.96598 0.64136 0.0
C3860 C 0.17331 0.02542 0.62286 0.0
C3861 C 0.19194 0.03897 0.6284 0.0
C3862 C 0.1469 0.99569 0.62313 0.0
C3863 C 0.13796 0.97899 0.62898 0.0
C3864 C 0.15559 0.9928 0.63458 0.0
H3865 H 1.00971 0.78998 0.64168 0.0
H3866 H 0.05133 0.84478 0.64069 0.0
C3867 C 0.18225 0.02233 0.63429 0.0
C3868 C 0.11212 0.9461 0.62913 0.0
H3869 H 0.0435 0.89641 0.63668 0.0
C3870 C 0.11502 0.92406 0.62538 0.0
C3871 C 0.08565 0.9361 0.63314 0.0
C3872 C 0.08011 0.95901 0.63688 0.0
C3873 C 0.0929 0.8922 0.62574 0.0
C3874 C 0.06706 0.88204 0.62994 0.0
C3875 C 0.06366 0.90415 0.63357 0.0
C3876 C 0.04304 0.8486 0.63051 0.0
C3877 C 0.09778 0.86954 0.62172 0.0
C3878 C 0.02487 0.83258 0.62512 0.0
C3879 C 1.00169 0.80143 0.62566 0.0
C3880 C 0.99615 0.78565 0.6316 0.0
C3881 C 0.01441 0.80141 0.637 0.0
C3882 C 0.03775 0.83275 0.63646 0.0
H3883 H 0.12209 0.88001 0.61994 0.0
H3884 H 0.09201 0.84831 0.62456 0.0
H3885 H 0.08221 0.86242 0.61744 0.0
H3886 H 0.02798 0.84444 0.62053 0.0
H3887 H 0.98709 0.78997 0.6215 0.0
H3888 H 0.29928 0.25773 0.6228 0.0
H3889 H 0.24438 0.24355 0.62163 0.0
H3890 H 0.22669 0.20916 0.64129 0.0
H3891 H 0.28136 0.22325 0.64242 0.0
H3892 H 0.18976 0.18324 0.62311 0.0
H3893 H 0.19131 0.26811 0.64087 0.0
H3894 H 0.22643 0.27151 0.63749 0.0
H3895 H 0.20623 0.24422 0.64391 0.0
C3896 C 0.28387 0.24836 0.62694 0.0
C3897 C 0.29479 0.24295 0.63281 0.0
C3898 C 0.25241 0.23968 0.62623 0.0
C3899 C 0.23139 0.22563 0.6314 0.0
C3900 C 0.24248 0.22051 0.63727 0.0
H3901 H 0.03411 0.16339 0.63705 0.0
H3902 H 0.08563 0.16879 0.63781 0.0
C3903 C 0.27379 0.22891 0.63796 0.0
C3904 C 0.19792 0.21635 0.63069 0.0
H3905 H 0.14215 0.23044 0.63685 0.0
C3906 C 0.17937 0.19366 0.62609 0.0
C3907 C 0.18421 0.22968 0.63461 0.0
C3908 C 0.20306 0.25492 0.63946 0.0
C3909 C 0.14752 0.18397 0.62535 0.0
C3910 C 0.13399 0.19755 0.62925 0.0
C3911 C 0.15247 0.21991 0.63388 0.0
C3912 C 0.10123 0.19047 0.62842 0.0
C3913 C 0.12837 0.15895 0.62048 0.0
C3914 C 0.09267 0.20079 0.62288 0.0
C3915 C 0.06354 0.19883 0.62251 0.0
C3916 C 0.04174 0.186 0.62763 0.0
C3917 C 0.05006 0.17424 0.63305 0.0
C3918 C 0.07952 0.17686 0.63347 0.0
H3919 H 0.14064 0.1468 0.61871 0.0
H3920 H 0.1058 0.14156 0.62266 0.0
H3921 H 0.12329 0.16955 0.61626 0.0
H3922 H 0.10917 0.21185 0.61896 0.0
H3923 H 0.05897 0.20883 0.61828 0.0
H3924 H 0.58558 0.26147 0.23335 0.0
H3925 H 0.63232 0.25616 0.23255 0.0
H3926 H 0.57918 0.1703 0.22201 0.0
H3927 H 0.53342 0.17646 0.22253 0.0
H3928 H 0.64575 0.21384 0.23689 0.0
H3929 H 0.65205 0.21296 0.21021 0.0
H3930 H 0.62864 0.2257 0.21447 0.0
H3931 H 0.61375 0.18494 0.21288 0.0
C3932 C 0.58421 0.24178 0.23079 0.0
C3933 C 0.55612 0.21969 0.22788 0.0
C3934 C 0.61082 0.23867 0.23035 0.0
C3935 C 0.60963 0.21321 0.22706 0.0
C3936 C 0.58122 0.1908 0.22434 0.0
H3937 H 0.72537 0.12734 0.22192 0.0
H3938 H 0.68168 0.13764 0.22301 0.0
C3939 C 0.55497 0.19422 0.22466 0.0
C3940 C 0.6374 0.20903 0.22658 0.0
H3941 H 0.67776 0.18979 0.21585 0.0
C3942 C 0.65286 0.20881 0.23228 0.0
C3943 C 0.64745 0.20326 0.22056 0.0
C3944 C 0.63487 0.20712 0.21418 0.0
C3945 C 0.67677 0.20134 0.23214 0.0
C3946 C 0.68502 0.19325 0.22617 0.0
C3947 C 0.67047 0.19465 0.22046 0.0
C3948 C 0.71069 0.18607 0.22566 0.0
C3949 C 0.69293 0.20191 0.23837 0.0
C3950 C 0.74123 0.20982 0.22671 0.0
C3951 C 0.76584 0.20414 0.22603 0.0
C3952 C 0.76083 0.17446 0.22426 0.0
C3953 C 0.7301 0.1504 0.22326 0.0
C3954 C 0.7052 0.15629 0.22389 0.0
H3955 H 0.67988 0.20241 0.24271 0.0
H3956 H 0.69617 0.18136 0.2387 0.0
H3957 H 0.71631 0.22308 0.23847 0.0
H3958 H 0.74613 0.23302 0.22798 0.0
H3959 H 0.78901 0.2234 0.22695 0.0
H3960 H 0.89469 0.61508 0.23449 0.0
H3961 H 0.88147 0.56054 0.23518 0.0
H3962 H 0.91201 0.56489 0.21541 0.0
H3963 H 0.92585 0.6199 0.21478 0.0
H3964 H 0.83927 0.50986 0.22796 0.0
H3965 H 0.95859 0.52885 0.22495 0.0
H3966 H 0.95107 0.5599 0.22695 0.0
H3967 H 0.94723 0.54644 0.21872 0.0
C3968 C 0.89948 0.60458 0.23036 0.0
C3969 C 0.91234 0.62187 0.22466 0.0
C3970 C 0.89148 0.57332 0.23073 0.0
C3971 C 0.89603 0.5586 0.22538 0.0
C3972 C 0.90897 0.57592 0.21966 0.0
H3973 H 0.871 0.37674 0.21751 0.0
H3974 H 0.87514 0.42766 0.21686 0.0
C3975 C 0.91717 0.60738 0.21931 0.0
C3976 C 0.8873 0.5252 0.22581 0.0
H3977 H 0.9174 0.47678 0.22456 0.0
C3978 C 0.85633 0.50258 0.22723 0.0
C3979 C 0.90959 0.51571 0.22495 0.0
C3980 C 0.94354 0.53896 0.22387 0.0
C3981 C 0.84702 0.4707 0.22762 0.0
C3982 C 0.86929 0.46124 0.22659 0.0
C3983 C 0.90023 0.48394 0.22526 0.0
C3984 C 0.86149 0.42805 0.2268 0.0
C3985 C 0.81338 0.44735 0.22898 0.0
C3986 C 0.85162 0.41076 0.23258 0.0
C3987 C 0.84869 0.38115 0.23295 0.0
C3988 C 0.85606 0.36828 0.22759 0.0
C3989 C 0.86471 0.38531 0.22174 0.0
C3990 C 0.86736 0.41473 0.22136 0.0
H3991 H 0.79815 0.45771 0.22848 0.0
H3992 H 0.80501 0.42717 0.22565 0.0
H3993 H 0.81109 0.43855 0.23402 0.0
H3994 H 0.8474 0.42062 0.23688 0.0
H3995 H 0.84137 0.36874 0.23751 0.0
H3996 H 0.45256 0.34998 0.21746 0.0
H3997 H 0.50696 0.39318 0.21794 0.0
H3998 H 0.52774 0.34286 0.23227 0.0
H3999 H 0.47444 0.30008 0.23172 0.0
H4000 H 0.54181 0.4296 0.22845 0.0
H4001 H 0.59551 0.36231 0.21912 0.0
H4002 H 0.55453 0.34894 0.21826 0.0
H4003 H 0.56969 0.34451 0.22585 0.0
C4004 C 0.46878 0.34845 0.22074 0.0
C4005 C 0.4594 0.32163 0.2245 0.0
C4006 C 0.49983 0.37292 0.22098 0.0
C4007 C 0.5217 0.37082 0.225 0.0
C4008 C 0.51174 0.34462 0.22896 0.0
H4009 H 0.71501 0.50178 0.23596 0.0
H4010 H 0.66251 0.45614 0.23531 0.0
C4011 C 0.48111 0.32029 0.22868 0.0
C4012 C 0.55471 0.3963 0.22529 0.0
H4013 H 0.62994 0.41234 0.2235 0.0
C4014 C 0.56103 0.42588 0.2273 0.0
C4015 C 0.57989 0.39125 0.22392 0.0
C4016 C 0.57466 0.36011 0.22162 0.0
C4017 C 0.59171 0.45048 0.22802 0.0
C4018 C 0.61682 0.44564 0.22655 0.0
C4019 C 0.61064 0.41599 0.22461 0.0
C4020 C 0.64948 0.47177 0.2267 0.0
C4021 C 0.59722 0.48148 0.23045 0.0
C4022 C 0.65975 0.49531 0.222 0.0
C4023 C 0.68959 0.52133 0.22235 0.0
C4024 C 0.70998 0.5245 0.22741 0.0
C4025 C 0.69989 0.50031 0.23202 0.0
C4026 C 0.66996 0.47412 0.23165 0.0
H4027 H 0.57566 0.48 0.23241 0.0
H4028 H 0.61524 0.49045 0.2343 0.0
H4029 H 0.60584 0.49852 0.2264 0.0
H4030 H 0.64432 0.49387 0.21813 0.0
H4031 H 0.69623 0.53955 0.21877 0.0
H4032 H 0.57507 0.48285 0.0469 0.0
H4033 H 0.57012 0.43126 0.0459 0.0
H4034 H 0.55168 0.41646 0.06645 0.0
H4035 H 0.55492 0.46737 0.06735 0.0
H4036 H 0.60261 0.40695 0.0513 0.0
H4037 H 0.47976 0.33877 0.05935 0.0
H4038 H 0.49788 0.37949 0.0573 0.0
H4039 H 0.50433 0.3676 0.06513 0.0
C4040 C 0.56962 0.4683 0.05117 0.0
C4041 C 0.56494 0.47858 0.05717 0.0
C4042 C 0.56696 0.43899 0.05061 0.0
C4043 C 0.55998 0.41971 0.05608 0.0
C4044 C 0.55612 0.43047 0.06213 0.0
H4045 H 0.53157 0.23857 0.06456 0.0
H4046 H 0.54394 0.29243 0.06459 0.0
C4047 C 0.55813 0.45954 0.06265 0.0
C4048 C 0.55685 0.38843 0.05544 0.0
H4049 H 0.50732 0.31137 0.05841 0.0
C4050 C 0.58171 0.386 0.05281 0.0
C4051 C 0.52949 0.36108 0.05738 0.0
C4052 C 0.50123 0.36175 0.05988 0.0
C4053 C 0.58028 0.35704 0.05226 0.0
C4054 C 0.55316 0.32985 0.05434 0.0
C4055 C 0.52818 0.33228 0.05686 0.0
C4056 C 0.5502 0.29855 0.05421 0.0
C4057 C 0.60805 0.35586 0.04964 0.0
C4058 C 0.5502 0.28409 0.04835 0.0
C4059 C 0.54357 0.25307 0.04831 0.0
C4060 C 0.53656 0.2359 0.05413 0.0
C4061 C 0.53747 0.25096 0.05999 0.0
C4062 C 0.54427 0.28183 0.06002 0.0
H4063 H 0.62921 0.37929 0.04948 0.0
H4064 H 0.613 0.34026 0.05264 0.0
H4065 H 0.60299 0.34644 0.04463 0.0
H4066 H 0.55422 0.29638 0.04379 0.0
H4067 H 0.54337 0.24242 0.04371 0.0
H4068 H 0.8304 0.34855 0.06318 0.0
H4069 H 0.77744 0.3051 0.06315 0.0
H4070 H 0.79578 0.27163 0.04533 0.0
H4071 H 0.84986 0.31267 0.04573 0.0
H4072 H 0.72886 0.28353 0.05608 0.0
H4073 H 0.76646 0.19548 0.05565 0.0
H4074 H 0.79373 0.23635 0.05661 0.0
H4075 H 0.77968 0.22023 0.04866 0.0
C4076 C 0.82361 0.33166 0.05931 0.0
C4077 C 0.84528 0.33381 0.0546 0.0
C4078 C 0.79295 0.30696 0.05925 0.0
C4079 C 0.78281 0.28421 0.05438 0.0
C4080 C 0.80336 0.28799 0.04931 0.0
H4081 H 0.61015 0.11176 0.0476 0.0
H4082 H 0.66088 0.15956 0.04671 0.0
C4083 C 0.83434 0.31209 0.04948 0.0
C4084 C 0.75119 0.25618 0.05476 0.0
H4085 H 0.71257 0.17665 0.05452 0.0
C4086 C 0.72537 0.26018 0.05576 0.0
C4087 C 0.74649 0.22555 0.05441 0.0
C4088 C 0.77309 0.21911 0.05384 0.0
C4089 C 0.6951 0.23456 0.05632 0.0
C4090 C 0.69052 0.20413 0.05585 0.0
C4091 C 0.71619 0.20007 0.05483 0.0
C4092 C 0.65931 0.17601 0.05636 0.0
C4093 C 0.66821 0.24024 0.0573 0.0
C4094 C 0.64176 0.16932 0.06209 0.0
C4095 C 0.61263 0.14232 0.06256 0.0
C4096 C 0.60111 0.1214 0.05735 0.0
C4097 C 0.61881 0.12771 0.05167 0.0
C4098 C 0.64764 0.15493 0.05116 0.0
H4099 H 0.67479 0.26475 0.05625 0.0
H4100 H 0.64831 0.22462 0.05415 0.0
H4101 H 0.6603 0.23522 0.06242 0.0
H4102 H 0.65074 0.18476 0.06623 0.0
H4103 H 0.59935 0.1375 0.06701 0.0
H4104 H 0.97748 0.54644 0.04881 0.0
H4105 H 0.93006 0.55006 0.04769 0.0
H4106 H 0.89178 0.49323 0.06478 0.0
H4107 H 0.93879 0.4888 0.06579 0.0
H4108 H 0.86413 0.49514 0.04699 0.0
H4109 H 0.88807 0.57658 0.06758 0.0
H4110 H 0.91833 0.57254 0.06361 0.0
H4111 H 0.89235 0.54323 0.06918 0.0
C4112 C 0.95892 0.53485 0.05232 0.0
C4113 C 0.9615 0.51729 0.05737 0.0
C4114 C 0.93191 0.53682 0.05167 0.0
C4115 C 0.90756 0.52196 0.05616 0.0
C4116 C 0.91037 0.50483 0.06127 0.0
H4117 H 0.72886 0.51048 0.06118 0.0
H4118 H 0.77189 0.49987 0.0613 0.0
C4119 C 0.93707 0.50225 0.06184 0.0
C4120 C 0.87909 0.52422 0.05549 0.0
H4121 H 0.83923 0.55633 0.06243 0.0
C4122 C 0.85866 0.50856 0.05034 0.0
C4123 C 0.87214 0.54173 0.05989 0.0
C4124 C 0.8939 0.55972 0.06536 0.0
C4125 C 0.83116 0.50976 0.04953 0.0
C4126 C 0.82423 0.52723 0.05394 0.0
C4127 C 0.84464 0.54284 0.05908 0.0
C4128 C 0.79626 0.53035 0.05325 0.0
C4129 C 0.8094 0.49208 0.04405 0.0
C4130 C 0.7955 0.55058 0.0486 0.0
C4131 C 0.77131 0.55736 0.04861 0.0
C4132 C 0.74731 0.5439 0.05327 0.0
C4133 C 0.74726 0.52201 0.05764 0.0
C4134 C 0.77169 0.51563 0.05768 0.0
H4135 H 0.81632 0.47673 0.0415 0.0
H4136 H 0.78532 0.47768 0.04592 0.0
H4137 H 0.80925 0.50879 0.04049 0.0
H4138 H 0.81443 0.56231 0.04517 0.0
H4139 H 0.77247 0.5745 0.0452 0.0
H4140 H 0.48644 0.58151 0.45608 0.0
H4141 H 0.43447 0.57632 0.45668 0.0
H4142 H 0.42183 0.53684 0.47585 0.0
H4143 H 0.47335 0.54126 0.47518 0.0
H4144 H 0.37432 0.51754 0.45956 0.0
H4145 H 0.40569 0.61305 0.47735 0.0
H4146 H 0.43409 0.61116 0.47217 0.0
H4147 H 0.41902 0.58609 0.4791 0.0
C4148 C 0.47251 0.57192 0.46042 0.0
C4149 C 0.48369 0.56209 0.46562 0.0
C4150 C 0.44294 0.56887 0.46075 0.0
C4151 C 0.4246 0.55663 0.46634 0.0
C4152 C 0.43582 0.54668 0.47153 0.0
H4153 H 0.2346 0.49939 0.47663 0.0
H4154 H 0.28872 0.51153 0.47655 0.0
C4155 C 0.46508 0.54914 0.47114 0.0
C4156 C 0.39351 0.55376 0.46676 0.0
H4157 H 0.35225 0.58176 0.47476 0.0
C4158 C 0.36949 0.53166 0.46286 0.0
C4159 C 0.38742 0.5723 0.47105 0.0
C4160 C 0.41288 0.59719 0.47514 0.0
C4161 C 0.33928 0.52719 0.46324 0.0
C4162 C 0.3331 0.54544 0.4676 0.0
C4163 C 0.35715 0.56775 0.47146 0.0
C4164 C 0.3016 0.54146 0.46815 0.0
C4165 C 0.31393 0.5028 0.45905 0.0
C4166 C 0.29138 0.55529 0.46359 0.0
C4167 C 0.26062 0.54904 0.46369 0.0
C4168 C 0.23918 0.52826 0.46829 0.0
C4169 C 0.25016 0.51565 0.47304 0.0
C4170 C 0.28111 0.52232 0.47298 0.0
H4171 H 0.32197 0.48896 0.45627 0.0
H4172 H 0.29379 0.48677 0.46211 0.0
H4173 H 0.30568 0.51421 0.45558 0.0
H4174 H 0.30703 0.57034 0.45985 0.0
H4175 H 0.25355 0.56004 0.46007 0.0
H4176 H 0.51861 0.72497 0.46097 0.0
H4177 H 0.50812 0.76808 0.46059 0.0
H4178 H 0.56727 0.80966 0.4772 0.0
H4179 H 0.57997 0.76827 0.47731 0.0
H4180 H 0.48415 0.79366 0.46859 0.0
H4181 H 0.60865 0.8787 0.46428 0.0
H4182 H 0.59352 0.83728 0.46403 0.0
H4183 H 0.60235 0.85743 0.47168 0.0
C4184 C 0.52968 0.74339 0.46451 0.0
C4185 C 0.55084 0.74331 0.46907 0.0
C4186 C 0.52334 0.7679 0.46433 0.0
C4187 C 0.53772 0.79266 0.46873 0.0
C4188 C 0.55673 0.79135 0.47361 0.0
H4189 H 0.54959 0.97147 0.47381 0.0
H4190 H 0.55217 0.92352 0.47482 0.0
C4191 C 0.56354 0.76722 0.47373 0.0
C4192 C 0.53412 0.82053 0.46804 0.0
H4193 H 0.57572 0.89953 0.46632 0.0
C4194 C 0.50414 0.81681 0.46807 0.0
C4195 C 0.56021 0.85073 0.46729 0.0
C4196 C 0.59295 0.85631 0.46675 0.0
C4197 C 0.49962 0.84256 0.46757 0.0
C4198 C 0.52582 0.87278 0.46696 0.0
C4199 C 0.5557 0.8764 0.46685 0.0
C4200 C 0.52306 0.90115 0.46646 0.0
C4201 C 0.46694 0.83727 0.46788 0.0
C4202 C 0.50613 0.90465 0.46139 0.0
C4203 C 0.50414 0.93171 0.46091 0.0
C4204 C 0.5199 0.95606 0.46535 0.0
C4205 C 0.53749 0.95299 0.47031 0.0
C4206 C 0.53884 0.92563 0.47089 0.0
H4207 H 0.45031 0.814 0.4699 0.0
H4208 H 0.46603 0.85536 0.47089 0.0
H4209 H 0.45908 0.83857 0.46292 0.0
H4210 H 0.49472 0.88662 0.45777 0.0
H4211 H 0.49073 0.93387 0.457 0.0
H4212 H 0.30385 0.84959 0.47517 0.0
H4213 H 0.26124 0.79583 0.47496 0.0
H4214 H 0.31807 0.7691 0.46395 0.0
H4215 H 0.36133 0.82272 0.46434 0.0
H4216 H 0.23467 0.76525 0.46318 0.0
H4217 H 0.27766 0.6998 0.47767 0.0
H4218 H 0.29388 0.74135 0.47843 0.0
H4219 H 0.30382 0.72562 0.47159 0.0
C4220 C 0.30773 0.83216 0.47289 0.0
C4221 C 0.33604 0.84055 0.46976 0.0
C4222 C 0.28322 0.80147 0.47273 0.0
C4223 C 0.28654 0.77849 0.46947 0.0
C4224 C 0.31515 0.7864 0.46657 0.0
H4225 H 0.15455 0.58424 0.46071 0.0
H4226 H 0.20086 0.63614 0.46132 0.0
C4227 C 0.33975 0.81712 0.46675 0.0
C4228 C 0.25918 0.74708 0.46859 0.0
H4229 H 0.2302 0.67023 0.47209 0.0
C4230 C 0.2336 0.74445 0.46515 0.0
C4231 C 0.25811 0.72003 0.47109 0.0
C4232 C 0.28469 0.72167 0.47495 0.0
C4233 C 0.20692 0.71545 0.46412 0.0
C4234 C 0.20556 0.68843 0.46673 0.0
C4235 C 0.23131 0.691 0.4701 0.0
C4236 C 0.17735 0.65735 0.46616 0.0
C4237 C 0.18073 0.714 0.46013 0.0
C4238 C 0.14888 0.65206 0.4687 0.0
C4239 C 0.12242 0.62265 0.46828 0.0
C4240 C 0.12411 0.59779 0.46544 0.0
C4241 C 0.15268 0.60296 0.46296 0.0
C4242 C 0.17908 0.63256 0.4633 0.0
H4243 H 0.18877 0.73503 0.45705 0.0
H4244 H 0.1702 0.69312 0.45696 0.0
H4245 H 0.16239 0.71263 0.46342 0.0
H4246 H 0.1472 0.67059 0.4711 0.0
H4247 H 0.10076 0.61924 0.47029 0.0
H4248 H 0.47687 0.58128 0.97113 0.0
H4249 H 0.48069 0.63228 0.97207 0.0
H4250 H 0.56677 0.67404 0.96133 0.0
H4251 H 0.56335 0.62312 0.96042 0.0
H4252 H 0.53336 0.6886 0.97773 0.0
H4253 H 0.50941 0.70236 0.95196 0.0
H4254 H 0.49758 0.66487 0.95557 0.0
H4255 H 0.53744 0.69003 0.95331 0.0
C4256 C 0.49653 0.60129 0.96893 0.0
C4257 C 0.51979 0.59819 0.96569 0.0
C4258 C 0.4987 0.63038 0.96949 0.0
C4259 C 0.52383 0.65679 0.96672 0.0
C4260 C 0.54703 0.65382 0.96345 0.0
H4261 H 0.59455 0.85093 0.96295 0.0
H4262 H 0.58204 0.79672 0.96301 0.0
C4263 C 0.54513 0.62479 0.96297 0.0
C4264 C 0.52624 0.68764 0.96742 0.0
H4265 H 0.52696 0.74651 0.95873 0.0
C4266 C 0.53169 0.70124 0.9736 0.0
C4267 C 0.52377 0.70379 0.96202 0.0
C4268 C 0.51648 0.68954 0.95533 0.0
C4269 C 0.53614 0.7313 0.97448 0.0
C4270 C 0.53467 0.74791 0.96904 0.0
C4271 C 0.52817 0.73378 0.96289 0.0
C4272 C 0.54258 0.78095 0.96946 0.0
C4273 C 0.54371 0.74556 0.98116 0.0
C4274 C 0.52476 0.79027 0.97315 0.0
C4275 C 0.53217 0.82157 0.97318 0.0
C4276 C 0.55719 0.84367 0.96944 0.0
C4277 C 0.57509 0.83426 0.96585 0.0
C4278 C 0.56793 0.80331 0.96587 0.0
H4279 H 0.54907 0.7317 0.98462 0.0
H4280 H 0.56388 0.76959 0.98096 0.0
H4281 H 0.52348 0.74684 0.98308 0.0
H4282 H 0.50476 0.7733 0.97587 0.0
H4283 H 0.51786 0.8283 0.97593 0.0
H4284 H 0.2499 0.73169 0.97788 0.0
H4285 H 0.30446 0.77437 0.97797 0.0
H4286 H 0.29073 0.80598 0.95944 0.0
H4287 H 0.23677 0.7644 0.95937 0.0
H4288 H 0.35438 0.79164 0.96783 0.0
H4289 H 0.3213 0.88205 0.97179 0.0
H4290 H 0.2956 0.84149 0.97369 0.0
H4291 H 0.30024 0.8548 0.96544 0.0
C4292 C 0.25862 0.7478 0.97384 0.0
C4293 C 0.23904 0.74457 0.9686 0.0
C4294 C 0.28974 0.77198 0.97388 0.0
C4295 C 0.30142 0.79341 0.96874 0.0
C4296 C 0.28208 0.78983 0.96348 0.0
H4297 H 0.46286 0.96488 0.95743 0.0
H4298 H 0.4124 0.91689 0.95834 0.0
C4299 C 0.25127 0.76583 0.96342 0.0
C4300 C 0.33345 0.82035 0.96882 0.0
H4301 H 0.37318 0.89968 0.96846 0.0
C4302 C 0.35868 0.81531 0.96806 0.0
C4303 C 0.3388 0.85111 0.96907 0.0
C4304 C 0.31262 0.85783 0.9701 0.0
C4305 C 0.38915 0.84038 0.96728 0.0
C4306 C 0.39437 0.87119 0.9674 0.0
C4307 C 0.36913 0.87608 0.96832 0.0
C4308 C 0.4257 0.89888 0.96656 0.0
C4309 C 0.4152 0.83366 0.96606 0.0
C4310 C 0.44993 0.90468 0.97086 0.0
C4311 C 0.47888 0.9317 0.97025 0.0
C4312 C 0.48375 0.95376 0.96545 0.0
C4313 C 0.45951 0.9482 0.96119 0.0
C4314 C 0.43079 0.92082 0.9617 0.0
H4315 H 0.40631 0.80915 0.96456 0.0
H4316 H 0.43124 0.8493 0.96225 0.0
H4317 H 0.42875 0.83765 0.97059 0.0
H4318 H 0.44626 0.88869 0.97478 0.0
H4319 H 0.49717 0.93583 0.97365 0.0
H4320 H 0.15331 0.5999 0.95859 0.0
H4321 H 0.20001 0.59484 0.95926 0.0
H4322 H 0.15395 0.52101 0.97329 0.0
H4323 H 0.10689 0.52481 0.97234 0.0
H4324 H 0.23766 0.60286 0.96915 0.0
H4325 H 0.18465 0.4803 0.9611 0.0
H4326 H 0.16519 0.50255 0.96016 0.0
H4327 H 0.16438 0.48473 0.96783 0.0
C4328 C 0.15324 0.58251 0.96178 0.0
C4329 C 0.12659 0.56263 0.96538 0.0
C4330 C 0.17985 0.57961 0.96216 0.0
C4331 C 0.18034 0.55711 0.96623 0.0
C4332 C 0.15386 0.53778 0.96995 0.0
H4333 H 0.31255 0.49991 0.97674 0.0
H4334 H 0.27095 0.51248 0.9767 0.0
C4335 C 0.12705 0.54014 0.96944 0.0
C4336 C 0.20877 0.5544 0.96674 0.0
H4337 H 0.23463 0.50235 0.96593 0.0
C4338 C 0.23706 0.58094 0.9684 0.0
C4339 C 0.20803 0.5258 0.96575 0.0
C4340 C 0.17901 0.49682 0.96355 0.0
C4341 C 0.2644 0.57946 0.96926 0.0
C4342 C 0.26343 0.55071 0.9684 0.0
C4343 C 0.23524 0.5243 0.96668 0.0
C4344 C 0.29129 0.5472 0.96913 0.0
C4345 C 0.29385 0.60848 0.97123 0.0
C4346 C 0.31708 0.56321 0.96502 0.0
C4347 C 0.3413 0.55647 0.96511 0.0
C4348 C 0.33998 0.53314 0.96923 0.0
C4349 C 0.31473 0.51823 0.97355 0.0
C4350 C 0.29069 0.52519 0.9735 0.0
H4351 H 0.28904 0.6265 0.97321 0.0
H4352 H 0.30671 0.60308 0.97493 0.0
H4353 H 0.30912 0.61845 0.96692 0.0
H4354 H 0.31787 0.57992 0.96154 0.0
H4355 H 0.36058 0.56887 0.96179 0.0
H4356 H 0.59396 0.49364 0.54799 0.0
H4357 H 0.6449 0.49728 0.54693 0.0
H4358 H 0.67367 0.54686 0.56508 0.0
H4359 H 0.62285 0.54399 0.56607 0.0
H4360 H 0.70635 0.55687 0.54735 0.0
H4361 H 0.68993 0.4698 0.56624 0.0
H4362 H 0.65769 0.46968 0.56215 0.0
H4363 H 0.67851 0.49792 0.56834 0.0
C4364 C 0.61121 0.5053 0.55174 0.0
C4365 C 0.6047 0.51856 0.5571 0.0
C4366 C 0.64018 0.50734 0.55113 0.0
C4367 C 0.66278 0.52201 0.55596 0.0
C4368 C 0.65634 0.53526 0.56134 0.0
H4369 H 0.84887 0.56965 0.56372 0.0
H4370 H 0.79506 0.55782 0.56348 0.0
C4371 C 0.62753 0.53381 0.56188 0.0
C4372 C 0.69348 0.52432 0.55523 0.0
H4373 H 0.74026 0.49911 0.56169 0.0
C4374 C 0.71378 0.54409 0.55043 0.0
C4375 C 0.70275 0.50733 0.55924 0.0
C4376 C 0.68111 0.48477 0.56427 0.0
C4377 C 0.74378 0.54834 0.54971 0.0
C4378 C 0.75344 0.53201 0.55384 0.0
C4379 C 0.73274 0.51155 0.55852 0.0
C4380 C 0.78587 0.53816 0.55383 0.0
C4381 C 0.76539 0.57123 0.54472 0.0
C4382 C 0.79858 0.53088 0.54847 0.0
C4383 C 0.82958 0.53754 0.5486 0.0
C4384 C 0.84814 0.55131 0.55411 0.0
C4385 C 0.8351 0.55841 0.55945 0.0
C4386 C 0.80435 0.55182 0.55932 0.0
H4387 H 0.75584 0.58526 0.54258 0.0
H4388 H 0.78834 0.58724 0.54693 0.0
H4389 H 0.76918 0.55842 0.54075 0.0
H4390 H 0.78452 0.51996 0.54422 0.0
H4391 H 0.83891 0.53166 0.54443 0.0
H4392 H 0.5354 0.10875 0.56556 0.0
H4393 H 0.53103 0.15588 0.56474 0.0
H4394 H 0.59471 0.18732 0.54855 0.0
H4395 H 0.59979 0.14072 0.54946 0.0
H4396 H 0.58684 0.22395 0.56442 0.0
H4397 H 0.50925 0.18379 0.54281 0.0
H4398 H 0.51211 0.15711 0.54835 0.0
H4399 H 0.54285 0.17889 0.54266 0.0
C4400 C 0.54849 0.12584 0.56185 0.0
C4401 C 0.56803 0.12142 0.55758 0.0
C4402 C 0.54604 0.15263 0.56139 0.0
C4403 C 0.56246 0.1748 0.55656 0.0
C4404 C 0.58191 0.17036 0.5523 0.0
H4405 H 0.55824 0.34281 0.54505 0.0
H4406 H 0.56999 0.30004 0.5454 0.0
C4407 C 0.58489 0.14393 0.55284 0.0
C4408 C 0.55914 0.20256 0.55593 0.0
H4409 H 0.52616 0.23477 0.54649 0.0
C4410 C 0.57364 0.22643 0.56051 0.0
C4411 C 0.54203 0.20556 0.55079 0.0
C4412 C 0.52544 0.17997 0.54587 0.0
C4413 C 0.57148 0.25349 0.56007 0.0
C4414 C 0.55394 0.25632 0.55498 0.0
C4415 C 0.5398 0.23258 0.55035 0.0
C4416 C 0.54774 0.28247 0.55471 0.0
C4417 C 0.58812 0.27893 0.56502 0.0
C4418 C 0.53083 0.28611 0.55973 0.0
C4419 C 0.52421 0.3102 0.55953 0.0
C4420 C 0.53414 0.33109 0.55428 0.0
C4421 C 0.55043 0.32705 0.54915 0.0
C4422 C 0.55722 0.30282 0.54937 0.0
H4423 H 0.60667 0.2767 0.56755 0.0
H4424 H 0.59866 0.30221 0.5627 0.0
H4425 H 0.57121 0.27749 0.56872 0.0
H4426 H 0.52247 0.27007 0.56379 0.0
H4427 H 0.51095 0.31232 0.56348 0.0
H4428 H 0.98442 0.45829 0.5515 0.0
H4429 H 0.93739 0.40732 0.55045 0.0
H4430 H 0.8875 0.43843 0.56263 0.0
H4431 H 0.93402 0.48996 0.56338 0.0
H4432 H 0.90457 0.36486 0.55915 0.0
H4433 H 0.82745 0.4032 0.54807 0.0
H4434 H 0.8689 0.42868 0.54878 0.0
H4435 H 0.84384 0.42186 0.55565 0.0
C4436 C 0.96333 0.45423 0.55393 0.0
C4437 C 0.96269 0.47807 0.55747 0.0
C4438 C 0.93647 0.42514 0.55332 0.0
C4439 C 0.9086 0.41918 0.55633 0.0
C4440 C 0.90829 0.44275 0.56006 0.0
H4441 H 0.729 0.24986 0.56058 0.0
H4442 H 0.77251 0.30337 0.561 0.0
C4443 C 0.93495 0.47209 0.56053 0.0
C4444 C 0.88031 0.38797 0.55574 0.0
H4445 H 0.80357 0.35032 0.55139 0.0
C4446 C 0.88257 0.36173 0.55741 0.0
C4447 C 0.85147 0.38383 0.55351 0.0
C4448 C 0.84776 0.41085 0.55134 0.0
C4449 C 0.85687 0.33158 0.55696 0.0
C4450 C 0.82813 0.32744 0.5547 0.0
C4451 C 0.82566 0.3536 0.5531 0.0
C4452 C 0.80052 0.29597 0.55396 0.0
C4453 C 0.86055 0.30441 0.55903 0.0
C4454 C 0.80135 0.27441 0.54969 0.0
C4455 C 0.77677 0.24373 0.54949 0.0
C4456 C 0.75058 0.23399 0.55352 0.0
C4457 C 0.74902 0.25628 0.55751 0.0
C4458 C 0.77378 0.28696 0.55773 0.0
H4459 H 0.8816 0.31193 0.56207 0.0
H4460 H 0.83988 0.28715 0.56181 0.0
H4461 H 0.86289 0.29269 0.55466 0.0
H4462 H 0.82151 0.28109 0.54664 0.0
H4463 H 0.77905 0.22735 0.5464 0.0
H4464 H 0.2467 0.58538 0.3905 0.0
H4465 H 0.25873 0.63984 0.39092 0.0
H4466 H 0.16801 0.6126 0.38319 0.0
H4467 H 0.15576 0.55847 0.38279 0.0
H4468 H 0.25413 0.68113 0.38056 0.0
H4469 H 0.17401 0.6535 0.40152 0.0
H4470 H 0.19023 0.62941 0.39923 0.0
H4471 H 0.15829 0.62741 0.39474 0.0
C4472 C 0.2295 0.59112 0.38882 0.0
C4473 C 0.20024 0.56762 0.38662 0.0
C4474 C 0.23643 0.62218 0.38905 0.0
C4475 C 0.21408 0.63004 0.38716 0.0
C4476 C 0.18547 0.60689 0.3847 0.0
H4477 H 0.18367 0.786 0.38785 0.0
H4478 H 0.18068 0.73539 0.38695 0.0
C4479 C 0.17861 0.57601 0.38443 0.0
C4480 C 0.21951 0.66195 0.38809 0.0
H4481 H 0.19242 0.70269 0.39655 0.0
C4482 C 0.24094 0.68603 0.38409 0.0
C4483 C 0.20228 0.66814 0.39273 0.0
C4484 C 0.18007 0.64337 0.39735 0.0
C4485 C 0.24469 0.71603 0.38444 0.0
C4486 C 0.22678 0.72196 0.38896 0.0
C4487 C 0.20591 0.69799 0.39306 0.0
C4488 C 0.2289 0.75274 0.38947 0.0
C4489 C 0.26692 0.74081 0.37982 0.0
C4490 C 0.25686 0.77913 0.39129 0.0
C4491 C 0.2587 0.80808 0.39177 0.0
C4492 C 0.23246 0.81108 0.39053 0.0
C4493 C 0.20428 0.78446 0.38885 0.0
C4494 C 0.20255 0.75556 0.38832 0.0
H4495 H 0.27399 0.73085 0.37578 0.0
H4496 H 0.25629 0.75399 0.37775 0.0
H4497 H 0.28821 0.75747 0.38249 0.0
H4498 H 0.27723 0.77731 0.39238 0.0
H4499 H 0.28065 0.82807 0.39316 0.0
H4500 H 0.49675 0.68678 0.39477 0.0
H4501 H 0.44328 0.64361 0.39508 0.0
H4502 H 0.46359 0.59892 0.37942 0.0
H4503 H 0.51762 0.64051 0.37941 0.0
H4504 H 0.39526 0.61659 0.38681 0.0
H4505 H 0.43385 0.53243 0.39299 0.0
H4506 H 0.4601 0.57388 0.39298 0.0
H4507 H 0.44999 0.55231 0.38549 0.0
C4508 C 0.49003 0.66767 0.39142 0.0
C4509 C 0.51198 0.66694 0.38718 0.0
C4510 C 0.45927 0.64312 0.39156 0.0
C4511 C 0.44968 0.61752 0.38742 0.0
C4512 C 0.47075 0.61793 0.38282 0.0
H4513 H 0.28431 0.4383 0.38255 0.0
H4514 H 0.33488 0.4861 0.38168 0.0
C4515 C 0.50163 0.64214 0.38274 0.0
C4516 C 0.41816 0.58981 0.3881 0.0
H4517 H 0.38045 0.51126 0.39055 0.0
C4518 C 0.39198 0.59356 0.38765 0.0
C4519 C 0.41391 0.5598 0.38928 0.0
C4520 C 0.44095 0.55434 0.39028 0.0
C4521 C 0.36166 0.56796 0.38813 0.0
C4522 C 0.3575 0.5379 0.38915 0.0
C4523 C 0.38368 0.53427 0.3897 0.0
C4524 C 0.3263 0.50965 0.38957 0.0
C4525 C 0.3344 0.57323 0.38735 0.0
C4526 C 0.30476 0.50692 0.39433 0.0
C4527 C 0.27562 0.47993 0.39472 0.0
C4528 C 0.26807 0.45495 0.39051 0.0
C4529 C 0.2898 0.45733 0.38586 0.0
C4530 C 0.31858 0.48457 0.38536 0.0
H4531 H 0.34139 0.59609 0.38507 0.0
H4532 H 0.31585 0.55459 0.38436 0.0
H4533 H 0.32451 0.57291 0.3922 0.0
H4534 H 0.31059 0.52546 0.39778 0.0
H4535 H 0.25928 0.47826 0.39841 0.0
H4536 H 0.4486 0.9239 0.39287 0.0
H4537 H 0.49105 0.91249 0.39335 0.0
H4538 H 0.43811 0.83109 0.38147 0.0
H4539 H 0.3956 0.84313 0.38085 0.0
H4540 H 0.48845 0.86061 0.39851 0.0
H4541 H 0.52262 0.87382 0.37247 0.0
H4542 H 0.49818 0.88794 0.37572 0.0
H4543 H 0.48231 0.84716 0.37415 0.0
C4544 C 0.44632 0.90387 0.39028 0.0
C4545 C 0.41921 0.88451 0.38677 0.0
C4546 C 0.47042 0.89728 0.39058 0.0
C4547 C 0.46783 0.8711 0.38741 0.0
C4548 C 0.44079 0.85175 0.38384 0.0
H4549 H 0.59839 0.80258 0.3874 0.0
H4550 H 0.55143 0.80671 0.38674 0.0
C4551 C 0.4166 0.85855 0.38349 0.0
C4552 C 0.49329 0.86399 0.3881 0.0
H4553 H 0.54967 0.85877 0.37965 0.0
C4554 C 0.50178 0.8601 0.39439 0.0
C4555 C 0.5106 0.86336 0.38271 0.0
C4556 C 0.50323 0.86853 0.37588 0.0
C4557 C 0.52741 0.85601 0.39543 0.0
C4558 C 0.54491 0.85587 0.39004 0.0
C4559 C 0.53606 0.85897 0.38376 0.0
C4560 C 0.57285 0.85295 0.39083 0.0
C4561 C 0.53566 0.85179 0.40225 0.0
C4562 C 0.60034 0.87772 0.39334 0.0
C4563 C 0.62734 0.87561 0.39367 0.0
C4564 C 0.6271 0.84857 0.39152 0.0
C4565 C 0.5993 0.82365 0.38911 0.0
C4566 C 0.57247 0.82594 0.38872 0.0
H4567 H 0.51708 0.84779 0.40578 0.0
H4568 H 0.5399 0.83185 0.40247 0.0
H4569 H 0.55741 0.87297 0.40374 0.0
H4570 H 0.60102 0.89886 0.39493 0.0
H4571 H 0.64836 0.89512 0.39558 0.0
H4572 H 0.14611 0.88532 0.80954 0.0
H4573 H 0.09525 0.88221 0.81057 0.0
H4574 H 0.09248 0.89213 0.78982 0.0
H4575 H 0.14304 0.89468 0.78879 0.0
H4576 H 0.07709 0.92552 0.80677 0.0
H4577 H 1.01 0.8133 0.79371 0.0
H4578 H 0.04896 0.82709 0.79666 0.0
H4579 H 0.04275 0.8426 0.78929 0.0
C4580 C 0.1343 0.88644 0.80521 0.0
C4581 C 0.14785 0.88969 0.79908 0.0
C4582 C 0.1055 0.8849 0.8058 0.0
C4583 C 0.08995 0.88657 0.80027 0.0
C4584 C 0.10381 0.8902 0.79414 0.0
H4585 H 0.91346 0.86916 0.79175 0.0
H4586 H 0.9671 0.88139 0.79184 0.0
C4587 C 0.13256 0.89164 0.79355 0.0
C4588 C 0.05912 0.88424 0.80089 0.0
H4589 H 0.98339 0.84033 0.79624 0.0
C4590 C 0.0565 0.90684 0.8045 0.0
C4591 C 0.03238 0.8598 0.79794 0.0
C4592 C 0.03347 0.83414 0.79423 0.0
C4593 C 0.02788 0.90609 0.80509 0.0
C4594 C 1.00122 0.88181 0.80206 0.0
C4595 C 1.00388 0.85904 0.79853 0.0
C4596 C 0.97027 0.8796 0.80227 0.0
C4597 C 0.0266 0.93171 0.80876 0.0
C4598 C 0.95427 0.87537 0.80814 0.0
C4599 C 0.92343 0.8692 0.80814 0.0
C4600 C 0.90775 0.86648 0.80226 0.0
C4601 C 0.92445 0.87167 0.79641 0.0
C4602 C 0.95527 0.87836 0.79643 0.0
H4603 H 0.05017 0.95194 0.80962 0.0
H4604 H 1.01252 0.93977 0.80608 0.0
H4605 H 0.01544 0.92273 0.81355 0.0
H4606 H 0.96515 0.87565 0.81271 0.0
H4607 H 0.91178 0.86591 0.81276 0.0
H4608 H 0.2632 0.11257 0.80782 0.0
H4609 H 0.25315 0.15599 0.80731 0.0
H4610 H 0.16298 0.09561 0.79896 0.0
H4611 H 0.17248 0.0518 0.79961 0.0
H4612 H 0.24077 0.17599 0.79513 0.0
H4613 H 0.14582 0.14452 0.81311 0.0
H4614 H 0.17147 0.12851 0.81342 0.0
H4615 H 0.14086 0.11457 0.80752 0.0
C4616 C 0.24081 0.10827 0.80609 0.0
C4617 C 0.21862 0.07878 0.80377 0.0
C4618 C 0.23524 0.13315 0.80574 0.0
C4619 C 0.20732 0.12889 0.80313 0.0
C4620 C 0.18451 0.09922 0.80107 0.0
H4621 H 0.14213 0.25863 0.79483 0.0
H4622 H 0.14754 0.21224 0.79554 0.0
C4623 C 0.19006 0.0743 0.80141 0.0
C4624 C 0.20323 0.15602 0.80205 0.0
H4625 H 0.16003 0.18883 0.80662 0.0
C4626 C 0.22319 0.17891 0.79765 0.0
C4627 C 0.18 0.15938 0.80529 0.0
C4628 C 0.15838 0.13561 0.81014 0.0
C4629 C 0.22055 0.20525 0.79639 0.0
C4630 C 0.19773 0.20895 0.79974 0.0
C4631 C 0.17749 0.18584 0.80407 0.0
C4632 C 0.19507 0.23712 0.79897 0.0
C4633 C 0.24181 0.22857 0.79142 0.0
C4634 C 0.22 0.26633 0.80068 0.0
C4635 C 0.21709 0.29279 0.80022 0.0
C4636 C 0.18897 0.29039 0.79816 0.0
C4637 C 0.164 0.26111 0.79646 0.0
C4638 C 0.16706 0.23466 0.79686 0.0
H4639 H 0.2522 0.21845 0.78814 0.0
H4640 H 0.22909 0.23726 0.78845 0.0
H4641 H 0.2611 0.24871 0.79394 0.0
H4642 H 0.24152 0.26859 0.80249 0.0
H4643 H 0.23665 0.315 0.80163 0.0
H4644 H 0.02 0.16161 0.81025 0.0
H4645 H 0.97708 0.10723 0.8102 0.0
H4646 H 0.93606 0.12767 0.79386 0.0
H4647 H 0.97888 0.18122 0.79378 0.0
H4648 H 0.91367 0.08212 0.81154 0.0
H4649 H 0.9393 0.05293 0.78725 0.0
H4650 H 0.96708 0.08671 0.79173 0.0
H4651 H 0.93682 0.08775 0.78712 0.0
C4652 C 1.00188 0.15429 0.80663 0.0
C4653 C 1.00309 0.17543 0.80192 0.0
C4654 C 0.97741 0.12332 0.80661 0.0
C4655 C 0.95379 0.11317 0.80191 0.0
C4656 C 0.95456 0.13462 0.79738 0.0
H4657 H 0.77379 0.95657 0.79345 0.0
H4658 H 0.82112 1.00756 0.79456 0.0
C4659 C 0.97904 0.16526 0.79734 0.0
C4660 C 0.92782 0.08046 0.80173 0.0
H4661 H 0.88805 0.01922 0.7914 0.0
C4662 C 0.90832 0.06819 0.80717 0.0
C4663 C 0.92097 0.06214 0.79605 0.0
C4664 C 0.94234 0.0729 0.79023 0.0
C4665 C 0.88136 0.03869 0.80696 0.0
C4666 C 0.8738 0.02122 0.80116 0.0
C4667 C 0.89374 0.033 0.7958 0.0
C4668 C 0.8452 0.99057 0.80056 0.0
C4669 C 0.86061 0.02658 0.81285 0.0
C4670 C 0.84337 0.96427 0.80351 0.0
C4671 C 0.81666 0.93516 0.80281 0.0
C4672 C 0.79118 0.93193 0.79921 0.0
C4673 C 0.793 0.95841 0.79629 0.0
C4674 C 0.81996 0.98747 0.79691 0.0
H4675 H 0.86781 0.0444 0.81673 0.0
H4676 H 0.83614 0.01869 0.81148 0.0
H4677 H 0.86137 1.00617 0.81483 0.0
H4678 H 0.86271 0.96626 0.80632 0.0
H4679 H 0.81582 0.91521 0.80516 0.0
H4680 H 0.23788 0.95666 0.30071 0.0
H4681 H 0.24244 1.00793 0.30154 0.0
H4682 H 0.14482 0.9674 0.29719 0.0
H4683 H 0.13982 0.91594 0.29652 0.0
H4684 H 0.23115 0.04173 0.29257 0.0
H4685 H 0.15194 0.01484 0.31366 0.0
H4686 H 0.16729 0.99013 0.31128 0.0
H4687 H 0.13516 0.98865 0.30694 0.0
C4688 C 0.21733 0.9586 0.29995 0.0
C4689 C 0.18838 0.9321 0.29862 0.0
C4690 C 0.22 0.98795 0.30042 0.0
C4691 C 0.19383 0.99141 0.29956 0.0
C4692 C 0.16512 0.96516 0.29806 0.0
H4693 H 0.17613 0.15824 0.29817 0.0
H4694 H 0.1654 0.10427 0.2977 0.0
C4695 C 0.16236 0.93576 0.29764 0.0
C4696 C 0.19675 0.02257 0.30015 0.0
H4697 H 0.17006 0.06388 0.3086 0.0
C4698 C 0.21783 0.04656 0.29608 0.0
C4699 C 0.17929 0.02883 0.30474 0.0
C4700 C 0.15734 1.00437 0.30945 0.0
C4701 C 0.22183 0.07658 0.29645 0.0
C4702 C 0.20453 0.08285 0.30105 0.0
C4703 C 0.18318 0.05887 0.30507 0.0
C4704 C 0.20947 0.11463 0.30188 0.0
C4705 C 0.24438 0.10145 0.29189 0.0
C4706 C 0.23736 0.13797 0.30457 0.0
C4707 C 0.2435 0.16864 0.30487 0.0
C4708 C 0.22188 0.17663 0.30247 0.0
C4709 C 0.19336 0.15289 0.30001 0.0
C4710 C 0.18715 0.12208 0.29975 0.0
H4711 H 0.25178 0.09161 0.28788 0.0
H4712 H 0.23378 0.11458 0.28977 0.0
H4713 H 0.26539 0.11818 0.29462 0.0
H4714 H 0.25477 0.13257 0.30627 0.0
H4715 H 0.26584 0.18634 0.30671 0.0
H4716 H 0.16256 0.26088 0.29292 0.0
H4717 H 0.11115 0.21379 0.29353 0.0
H4718 H 0.07929 0.2616 0.30615 0.0
H4719 H 0.12994 0.30895 0.30528 0.0
H4720 H 0.07999 0.17834 0.30367 0.0
H4721 H 1.01096 0.22712 0.29307 0.0
H4722 H 0.05281 0.24678 0.29251 0.0
H4723 H 0.03422 0.24966 0.29978 0.0
C4724 C 0.14444 0.26124 0.29579 0.0
C4725 C 0.14998 0.28844 0.29902 0.0
C4726 C 0.11515 0.23443 0.29613 0.0
C4727 C 0.09117 0.23436 0.29978 0.0
C4728 C 0.09705 0.26139 0.30313 0.0
H4729 H 0.90167 0.10375 0.31004 0.0
H4730 H 0.9557 0.14577 0.3099 0.0
C4731 C 0.12604 0.28834 0.30267 0.0
C4732 C 0.06028 0.2058 0.30026 0.0
H4733 H 0.98253 0.17865 0.29857 0.0
C4734 C 0.05867 0.1783 0.30251 0.0
C4735 C 0.03251 0.20576 0.2987 0.0
C4736 C 0.03267 0.23382 0.29581 0.0
C4737 C 0.02994 0.15102 0.30344 0.0
C4738 C 1.00219 0.15132 0.30208 0.0
C4739 C 1.00386 0.17865 0.29971 0.0
C4740 C 0.97098 0.12358 0.30294 0.0
C4741 C 0.02951 0.12239 0.30604 0.0
C4742 C 0.96187 0.09675 0.29922 0.0
C4743 C 0.93106 0.07238 0.29937 0.0
C4744 C 0.90859 0.07463 0.30316 0.0
C4745 C 0.91826 0.10096 0.30712 0.0
C4746 C 0.94912 0.12518 0.307 0.0
H4747 H 0.05218 0.12797 0.30822 0.0
H4748 H 1.01096 0.11067 0.30975 0.0
H4749 H 0.02461 0.10576 0.30201 0.0
H4750 H 0.9782 0.0952 0.29597 0.0
H4751 H 0.92461 0.05226 0.29633 0.0
H4752 H 0.0255 0.89962 0.29486 0.0
H4753 H 0.98267 0.91055 0.2944 0.0
H4754 H 0.93509 0.84371 0.30961 0.0
H4755 H 0.97698 0.83159 0.30996 0.0
H4756 H 0.91933 0.86255 0.29157 0.0
H4757 H 0.92928 0.92162 0.31509 0.0
H4758 H 0.96172 0.92071 0.31132 0.0
H4759 H 0.93246 0.88711 0.31554 0.0
C4760 C 1.00602 0.88725 0.29814 0.0
C4761 C 1.00471 0.8644 0.3024 0.0
C4762 C 0.98166 0.89373 0.29789 0.0
C4763 C 0.95582 0.87802 0.30198 0.0
C4764 C 0.95506 0.8564 0.30647 0.0
H4765 H 0.77021 0.85083 0.30461 0.0
H4766 H 0.81783 0.84742 0.30538 0.0
C4767 C 0.97921 0.84962 0.30667 0.0
C4768 C 0.92839 0.88206 0.30119 0.0
H4769 H 0.88246 0.90448 0.30917 0.0
C4770 C 0.91142 0.872 0.29539 0.0
C4771 C 0.91817 0.89435 0.30619 0.0
C4772 C 0.93642 0.90684 0.31238 0.0
C4773 C 0.88396 0.87315 0.29452 0.0
C4774 C 0.87343 0.88482 0.29957 0.0
C4775 C 0.89059 0.89532 0.30533 0.0
C4776 C 0.84458 0.88633 0.29895 0.0
C4777 C 0.86595 0.86132 0.28829 0.0
C4778 C 0.84408 0.90933 0.29509 0.0
C4779 C 0.81719 0.91164 0.29473 0.0
C4780 C 0.7903 0.89061 0.29815 0.0
C4781 C 0.79061 0.86713 0.30189 0.0
C4782 C 0.81773 0.86524 0.30235 0.0
H4783 H 0.87503 0.84929 0.28519 0.0
H4784 H 0.84101 0.845 0.28934 0.0
H4785 H 0.86742 0.88119 0.28551 0.0
H4786 H 0.86464 0.92578 0.29243 0.0
H4787 H 0.81736 0.9298 0.29178 0.0
H4788 H 0.25817 0.82162 0.88186 0.0
H4789 H 0.30936 0.8258 0.88076 0.0
H4790 H 0.34062 0.88217 0.89804 0.0
H4791 H 0.28957 0.87878 0.89905 0.0
H4792 H 0.3705 0.88661 0.8803 0.0
H4793 H 0.35849 0.80636 0.90039 0.0
H4794 H 0.32531 0.80427 0.8963 0.0
H4795 H 0.34676 0.83467 0.90205 0.0
C4796 C 0.276 0.83481 0.88543 0.0
C4797 C 0.27015 0.84982 0.89054 0.0
C4798 C 0.30511 0.83719 0.88479 0.0
C4799 C 0.32849 0.85398 0.88935 0.0
C4800 C 0.32268 0.86894 0.8945 0.0
H4801 H 0.51665 0.90569 0.89628 0.0
H4802 H 0.46265 0.89325 0.89635 0.0
C4803 C 0.29373 0.86714 0.89505 0.0
C4804 C 0.35931 0.85663 0.88861 0.0
H4805 H 0.40788 0.83446 0.89538 0.0
C4806 C 0.37868 0.87505 0.88355 0.0
C4807 C 0.36959 0.8413 0.89285 0.0
C4808 C 0.34899 0.82032 0.89819 0.0
C4809 C 0.40874 0.87951 0.88276 0.0
C4810 C 0.41935 0.86472 0.88709 0.0
C4811 C 0.39961 0.84568 0.89206 0.0
C4812 C 0.45183 0.87103 0.88695 0.0
C4813 C 0.42935 0.901 0.87748 0.0
C4814 C 0.46366 0.86241 0.88163 0.0
C4815 C 0.49477 0.86941 0.88159 0.0
C4816 C 0.51433 0.88486 0.88688 0.0
C4817 C 0.50213 0.89318 0.89219 0.0
C4818 C 0.47126 0.88625 0.89222 0.0
H4819 H 0.41934 0.91438 0.87522 0.0
H4820 H 0.4527 0.91764 0.87944 0.0
H4821 H 0.43241 0.88712 0.87363 0.0
H4822 H 0.44884 0.85025 0.87755 0.0
H4823 H 0.50341 0.86253 0.87745 0.0
H4824 H 0.17411 0.64277 0.87868 0.0
H4825 H 0.186 0.60059 0.87853 0.0
H4826 H 0.24371 0.63882 0.89544 0.0
H4827 H 0.23375 0.68222 0.89543 0.0
H4828 H 0.25228 0.60331 0.87985 0.0
H4829 H 0.1638 0.54545 0.89936 0.0
H4830 H 0.16279 0.57315 0.89383 0.0
H4831 H 0.19117 0.58642 0.90018 0.0
C4832 C 0.19012 0.64295 0.88226 0.0
C4833 C 0.2024 0.66584 0.88715 0.0
C4834 C 0.19668 0.61859 0.88219 0.0
C4835 C 0.21531 0.61647 0.88703 0.0
C4836 C 0.22902 0.64 0.89169 0.0
H4837 H 0.26133 0.47611 0.89864 0.0
H4838 H 0.25699 0.52323 0.89766 0.0
C4839 C 0.22295 0.66462 0.89171 0.0
C4840 C 0.21848 0.58848 0.88754 0.0
H4841 H 0.192 0.52105 0.89614 0.0
C4842 C 0.23909 0.58525 0.88339 0.0
C4843 C 0.2012 0.5651 0.89218 0.0
C4844 C 0.17832 0.56738 0.89664 0.0
C4845 C 0.24304 0.55917 0.88381 0.0
C4846 C 0.22576 0.53585 0.88845 0.0
C4847 C 0.20519 0.5391 0.8926 0.0
C4848 C 0.22847 0.50765 0.88903 0.0
C4849 C 0.26593 0.55673 0.87938 0.0
C4850 C 0.21335 0.48327 0.88457 0.0
C4851 C 0.2152 0.4562 0.88521 0.0
C4852 C 0.23274 0.45353 0.89024 0.0
C4853 C 0.24795 0.47795 0.89469 0.0
C4854 C 0.24548 0.50472 0.89414 0.0
H4855 H 0.27968 0.57815 0.87645 0.0
H4856 H 0.28214 0.55223 0.88228 0.0
H4857 H 0.25323 0.53676 0.87603 0.0
H4858 H 0.20001 0.48516 0.88061 0.0
H4859 H 0.20344 0.4376 0.88171 0.0
H4860 H 0.43218 0.56657 0.89796 0.0
H4861 H 0.47459 0.62015 0.89793 0.0
H4862 H 0.45115 0.63187 0.87839 0.0
H4863 H 0.40764 0.57787 0.87844 0.0
H4864 H 0.52465 0.64406 0.88946 0.0
H4865 H 0.46095 0.70959 0.88795 0.0
H4866 H 0.44215 0.6691 0.89028 0.0
H4867 H 0.45125 0.68 0.88191 0.0
C4868 C 0.43547 0.58065 0.89369 0.0
C4869 C 0.41624 0.56801 0.88823 0.0
C4870 C 0.45993 0.61125 0.89367 0.0
C4871 C 0.46584 0.63009 0.88819 0.0
C4872 C 0.44666 0.61783 0.88271 0.0
H4873 H 0.61249 0.8212 0.88133 0.0
H4874 H 0.5669 0.76884 0.88047 0.0
C4875 C 0.42202 0.58695 0.88272 0.0
C4876 C 0.49334 0.66185 0.88819 0.0
H4877 H 0.51574 0.73902 0.88784 0.0
C4878 C 0.52275 0.66486 0.88909 0.0
C4879 C 0.49073 0.68886 0.88771 0.0
C4880 C 0.45959 0.68694 0.88696 0.0
C4881 C 0.5497 0.69414 0.8895 0.0
C4882 C 0.54709 0.72124 0.88912 0.0
C4883 C 0.51769 0.71823 0.88814 0.0
C4884 C 0.57457 0.75291 0.8897 0.0
C4885 C 0.58068 0.69566 0.89025 0.0
C4886 C 0.59382 0.76146 0.8952 0.0
C4887 C 0.62019 0.79101 0.89561 0.0
C4888 C 0.62702 0.81281 0.89064 0.0
C4889 C 0.60734 0.80472 0.88524 0.0
C4890 C 0.58142 0.77489 0.88475 0.0
H4891 H 0.57959 0.67377 0.88863 0.0
H4892 H 0.59911 0.71533 0.88743 0.0
H4893 H 0.58743 0.69906 0.89544 0.0
H4894 H 0.58848 0.74529 0.89917 0.0
H4895 H 0.63503 0.79698 0.89984 0.0
H4896 H 0.83724 0.8969 0.71216 0.0
H4897 H 0.84913 0.9508 0.71215 0.0
H4898 H 0.91049 0.97031 0.72846 0.0
H4899 H 0.90071 0.91708 0.72819 0.0
H4900 H 0.83439 0.97658 0.72167 0.0
H4901 H 0.96187 0.04668 0.71795 0.0
H4902 H 0.94017 1.00542 0.71635 0.0
H4903 H 0.95123 0.01952 0.72452 0.0
C4904 C 0.85419 0.91279 0.7156 0.0
C4905 C 0.86776 0.90226 0.72021 0.0
C4906 C 0.86071 0.94366 0.71563 0.0
C4907 C 0.88082 0.96477 0.72028 0.0
C4908 C 0.89536 0.95475 0.72473 0.0
H4909 H 0.92458 0.15021 0.73252 0.0
H4910 H 0.91888 0.09822 0.73158 0.0
C4911 C 0.88926 0.924 0.72464 0.0
C4912 C 0.88399 0.99612 0.72086 0.0
H4913 H 0.9366 0.07393 0.72164 0.0
C4914 C 0.85675 0.99787 0.72159 0.0
C4915 C 0.91317 0.02393 0.72085 0.0
C4916 C 0.94325 0.02389 0.71981 0.0
C4917 C 0.85784 0.02648 0.72239 0.0
C4918 C 0.88699 0.05426 0.72238 0.0
C4919 C 0.91427 0.05259 0.72167 0.0
C4920 C 0.88969 0.08531 0.72304 0.0
C4921 C 0.82777 0.02658 0.72342 0.0
C4922 C 0.8752 0.09528 0.71856 0.0
C4923 C 0.87782 0.12453 0.71919 0.0
C4924 C 0.89579 0.14466 0.72419 0.0
C4925 C 0.91073 0.13501 0.72861 0.0
C4926 C 0.9075 0.10543 0.72807 0.0
H4927 H 0.80863 1.00341 0.72497 0.0
H4928 H 0.83061 0.04406 0.72712 0.0
H4929 H 0.82066 0.03265 0.71879 0.0
H4930 H 0.86216 0.0806 0.71452 0.0
H4931 H 0.8665 0.13179 0.71567 0.0
H4932 H 0.96123 0.76725 0.72801 0.0
H4933 H 1.01259 0.81373 0.72726 0.0
H4934 H 0.97118 0.86532 0.71948 0.0
H4935 H 0.91956 0.81915 0.7204 0.0
H4936 H 0.04149 0.84503 0.7163 0.0
H4937 H 0.02787 0.92464 0.73319 0.0
H4938 H 1.00167 0.88312 0.73317 0.0
H4939 H 0.99792 0.90729 0.72716 0.0
C4940 C 0.96299 0.78856 0.72618 0.0
C4941 C 0.93632 0.78954 0.72424 0.0
C4942 C 0.99238 0.81511 0.72577 0.0
C4943 C 0.9957 0.8431 0.72339 0.0
C4944 C 0.9691 0.8442 0.72149 0.0
H4945 H 0.16448 0.02062 0.71424 0.0
H4946 H 0.11004 0.97743 0.71446 0.0
C4947 C 0.93963 0.81773 0.72198 0.0
C4948 C 0.02715 0.87051 0.72251 0.0
H4949 H 0.07363 0.94673 0.72675 0.0
C4950 C 0.04849 0.86725 0.71859 0.0
C4951 C 0.03623 0.8995 0.7255 0.0
C4952 C 0.01487 0.9039 0.73004 0.0
C4953 C 0.07862 0.89221 0.71755 0.0
C4954 C 0.0877 0.92111 0.72054 0.0
C4955 C 0.06635 0.92459 0.7244 0.0
C4956 C 0.12018 0.94701 0.72019 0.0
C4957 C 0.10063 0.88756 0.71326 0.0
C4958 C 0.14352 0.94406 0.72336 0.0
C4959 C 0.17416 0.96844 0.72326 0.0
C4960 C 0.18206 0.9962 0.71998 0.0
C4961 C 0.15883 0.99922 0.71674 0.0
C4962 C 0.1279 0.97475 0.71689 0.0
H4963 H 0.08826 0.86614 0.71028 0.0
H4964 H 0.11357 0.90785 0.70999 0.0
H4965 H 0.11787 0.88549 0.71633 0.0
H4966 H 0.13794 0.92299 0.72599 0.0
H4967 H 0.19176 0.96577 0.72581 0.0
H4968 H 0.31624 0.23162 0.72746 0.0
H4969 H 0.26931 0.23575 0.72663 0.0
H4970 H 0.21744 0.1405 0.72015 0.0
H4971 H 0.26398 0.13586 0.72111 0.0
H4972 H 0.23562 0.22862 0.71557 0.0
H4973 H 0.16053 0.14209 0.7341 0.0
H4974 H 0.20212 0.15797 0.7338 0.0
H4975 H 0.17722 0.12777 0.72826 0.0
C4976 C 0.2948 0.21144 0.72591 0.0
C4977 C 0.29386 0.18338 0.72435 0.0
C4978 C 0.268 0.21385 0.72545 0.0
C4979 C 0.2398 0.18831 0.72341 0.0
C4980 C 0.23876 0.16026 0.72188 0.0
H4981 H 0.05846 0.17359 0.71566 0.0
H4982 H 0.10201 0.16284 0.71569 0.0
C4983 C 0.26547 0.15774 0.72239 0.0
C4984 C 0.21201 0.19165 0.72252 0.0
H4985 H 0.13684 0.16329 0.72744 0.0
C4986 C 0.21403 0.21434 0.71817 0.0
C4987 C 0.18381 0.17282 0.72588 0.0
C4988 C 0.18073 0.14896 0.73082 0.0
C4989 C 0.18865 0.2188 0.71709 0.0
C4990 C 0.16063 0.2003 0.72051 0.0
C4991 C 0.15833 0.17721 0.72478 0.0
C4992 C 0.13457 0.20667 0.72018 0.0
C4993 C 0.19192 0.24325 0.7123 0.0
C4994 C 0.1386 0.23468 0.72269 0.0
C4995 C 0.11405 0.2407 0.72268 0.0
C4996 C 0.08503 0.21885 0.72015 0.0
C4997 C 0.08086 0.19085 0.71756 0.0
C4998 C 0.10555 0.1847 0.71761 0.0
H4999 H 0.21215 0.25042 0.70902 0.0
H5000 H 0.17053 0.23459 0.70933 0.0
H5001 H 0.19539 0.26415 0.71497 0.0
H5002 H 0.16064 0.25166 0.72479 0.0
H5003 H 0.11753 0.26228 0.72475 0.0
H5004 H 0.83349 0.27704 0.13037 0.0
H5005 H 0.78264 0.27352 0.13116 0.0
H5006 H 0.73905 0.17445 0.13412 0.0
H5007 H 0.78972 0.17762 0.13337 0.0
H5008 H 0.72647 0.23554 0.12366 0.0
H5009 H 0.71197 0.2075 0.14999 0.0
H5010 H 0.74932 0.2251 0.14597 0.0
H5011 H 0.72251 0.1842 0.14509 0.0
C5012 C 0.81311 0.25448 0.1312 0.0
C5013 C 0.81571 0.22766 0.13188 0.0
C5014 C 0.7841 0.25254 0.13163 0.0
C5015 C 0.75728 0.22384 0.1328 0.0
C5016 C 0.75963 0.1969 0.13332 0.0
H5017 H 0.56254 0.14935 0.13822 0.0
H5018 H 0.61666 0.16159 0.13779 0.0
C5019 C 0.78859 0.19876 0.13286 0.0
C5020 C 0.72682 0.22203 0.13357 0.0
H5021 H 0.66816 0.20303 0.14444 0.0
C5022 C 0.71374 0.2287 0.12821 0.0
C5023 C 0.71055 0.21331 0.13952 0.0
C5024 C 0.72432 0.20735 0.1455 0.0
C5025 C 0.68405 0.22558 0.12858 0.0
C5026 C 0.66739 0.21608 0.1345 0.0
C5027 C 0.68094 0.21025 0.1399 0.0
C5028 C 0.63499 0.20981 0.13509 0.0
C5029 C 0.67032 0.23121 0.12255 0.0
C5030 C 0.62739 0.23308 0.13387 0.0
C5031 C 0.59634 0.22602 0.13406 0.0
C5032 C 0.57256 0.19577 0.13561 0.0
C5033 C 0.58044 0.17295 0.1371 0.0
C5034 C 0.61132 0.17989 0.13683 0.0
H5035 H 0.68331 0.23186 0.1181 0.0
H5036 H 0.6456 0.21286 0.12196 0.0
H5037 H 0.67126 0.25396 0.12297 0.0
H5038 H 0.64539 0.25655 0.1327 0.0
H5039 H 0.59085 0.24406 0.13292 0.0
H5040 H 0.83982 0.38296 0.13166 0.0
H5041 H 0.82842 0.42575 0.1312 0.0
H5042 H 0.91619 0.48664 0.14041 0.0
H5043 H 0.92802 0.4445 0.14078 0.0
H5044 H 0.82834 0.46828 0.14147 0.0
H5045 H 0.91851 0.52743 0.12245 0.0
H5046 H 0.90178 0.48661 0.12432 0.0
H5047 H 0.93115 0.51544 0.12949 0.0
C5048 C 0.85656 0.40541 0.13363 0.0
C5049 C 0.88493 0.41034 0.13623 0.0
C5050 C 0.84995 0.42975 0.13339 0.0
C5051 C 0.87169 0.4594 0.13569 0.0
C5052 C 0.89926 0.46397 0.13855 0.0
H5053 H 0.90076 0.64561 0.13597 0.0
H5054 H 0.90391 0.59805 0.13684 0.0
C5055 C 0.90584 0.43973 0.13882 0.0
C5056 C 0.86673 0.48621 0.13477 0.0
H5057 H 0.89744 0.5565 0.12712 0.0
C5058 C 0.84321 0.48749 0.1383 0.0
C5059 C 0.88611 0.51109 0.1306 0.0
C5060 C 0.91066 0.51012 0.12645 0.0
C5061 C 0.83935 0.51368 0.13795 0.0
C5062 C 0.85931 0.53893 0.13389 0.0
C5063 C 0.88235 0.53725 0.13027 0.0
C5064 C 0.85707 0.56756 0.1334 0.0
C5065 C 0.81468 0.51458 0.14208 0.0
C5066 C 0.82989 0.56626 0.13108 0.0
C5067 C 0.82792 0.59333 0.13063 0.0
C5068 C 0.85331 0.6223 0.1324 0.0
C5069 C 0.8808 0.62366 0.13457 0.0
C5070 C 0.88262 0.59651 0.13508 0.0
H5071 H 0.80597 0.49653 0.14594 0.0
H5072 H 0.82381 0.53777 0.14438 0.0
H5073 H 0.79467 0.51028 0.13897 0.0
H5074 H 0.81024 0.54433 0.12957 0.0
H5075 H 0.80658 0.59157 0.12885 0.0
H5076 H 0.63402 0.52138 0.13223 0.0
H5077 H 0.59125 0.46752 0.13183 0.0
H5078 H 0.6526 0.43586 0.13885 0.0
H5079 H 0.69561 0.49023 0.1393 0.0
H5080 H 0.59087 0.42069 0.12426 0.0
H5081 H 0.57484 0.38881 0.15045 0.0
H5082 H 0.59569 0.42875 0.14772 0.0
H5083 H 0.61371 0.40517 0.1473 0.0
C5084 C 0.63813 0.5029 0.1338 0.0
C5085 C 0.66776 0.5097 0.13587 0.0
C5086 C 0.61382 0.47221 0.13354 0.0
C5087 C 0.61866 0.44771 0.13535 0.0
C5088 C 0.64824 0.45447 0.13753 0.0
H5089 H 0.48917 0.24803 0.13371 0.0
H5090 H 0.53591 0.29923 0.13437 0.0
C5091 C 0.67273 0.48539 0.13779 0.0
C5092 C 0.59288 0.41523 0.13459 0.0
H5093 H 0.54277 0.3498 0.14301 0.0
C5094 C 0.58039 0.40515 0.12836 0.0
C5095 C 0.57938 0.39499 0.13994 0.0
C5096 C 0.59134 0.4049 0.14675 0.0
C5097 C 0.55451 0.37552 0.12735 0.0
C5098 C 0.54061 0.3556 0.13272 0.0
C5099 C 0.5535 0.3653 0.13892 0.0
C5100 C 0.51239 0.32469 0.13201 0.0
C5101 C 0.54229 0.36555 0.12056 0.0
C5102 C 0.48367 0.32214 0.13047 0.0
C5103 C 0.45677 0.29289 0.13013 0.0
C5104 C 0.45821 0.26569 0.13131 0.0
C5105 C 0.48717 0.26844 0.13277 0.0
C5106 C 0.51395 0.29767 0.13316 0.0
H5107 H 0.55878 0.38144 0.11683 0.0
H5108 H 0.53768 0.34158 0.11961 0.0
H5109 H 0.51999 0.36543 0.12002 0.0
H5110 H 0.48201 0.34282 0.12963 0.0
H5111 H 0.43488 0.29162 0.12898 0.0
H5112 H 0.80449 0.24681 0.63316 0.0
H5113 H 0.80812 0.2976 0.63403 0.0
H5114 H 0.90768 0.34276 0.63178 0.0
H5115 H 0.90438 0.29204 0.63085 0.0
H5116 H 0.84196 0.34458 0.64332 0.0
H5117 H 0.88108 0.38598 0.61817 0.0
H5118 H 0.86257 0.34541 0.62043 0.0
H5119 H 0.90294 0.37108 0.62224 0.0
C5120 C 0.82719 0.2675 0.6328 0.0
C5121 C 0.85415 0.2653 0.63191 0.0
C5122 C 0.82918 0.2965 0.63332 0.0
C5123 C 0.85809 0.32387 0.6329 0.0
C5124 C 0.88508 0.32186 0.63201 0.0
H5125 H 0.93377 0.51914 0.63782 0.0
H5126 H 0.92206 0.46501 0.6374 0.0
C5127 C 0.88315 0.29284 0.63151 0.0
C5128 C 0.86013 0.35454 0.63358 0.0
H5129 H 0.88414 0.42348 0.62575 0.0
C5130 C 0.8509 0.36176 0.63947 0.0
C5131 C 0.87148 0.3767 0.62851 0.0
C5132 C 0.87984 0.36943 0.62196 0.0
C5133 C 0.85387 0.39111 0.6405 0.0
C5134 C 0.86632 0.4136 0.63551 0.0
C5135 C 0.87478 0.40612 0.62957 0.0
C5136 C 0.8724 0.44568 0.63645 0.0
C5137 C 0.84459 0.39836 0.64694 0.0
C5138 C 0.84821 0.45253 0.63611 0.0
C5139 C 0.85491 0.48352 0.63627 0.0
C5140 C 0.88581 0.50783 0.63689 0.0
C5141 C 0.90974 0.50072 0.63746 0.0
C5142 C 0.90312 0.46992 0.63719 0.0
H5143 H 0.83723 0.379 0.65048 0.0
H5144 H 0.86434 0.41974 0.64903 0.0
H5145 H 0.82505 0.40291 0.64623 0.0
H5146 H 0.82437 0.43404 0.63549 0.0
H5147 H 0.83614 0.48856 0.63577 0.0
H5148 H 0.82742 0.59649 0.62533 0.0
H5149 H 0.77597 0.54961 0.62604 0.0
H5150 H 0.74736 0.59564 0.6399 0.0
H5151 H 0.7981 0.64299 0.63891 0.0
H5152 H 0.74712 0.51252 0.63609 0.0
H5153 H 0.67605 0.56315 0.62759 0.0
H5154 H 0.71773 0.58297 0.62663 0.0
H5155 H 0.70072 0.58426 0.63426 0.0
C5156 C 0.80995 0.59657 0.62848 0.0
C5157 C 0.81647 0.62326 0.63204 0.0
C5158 C 0.78065 0.56984 0.62888 0.0
C5159 C 0.75759 0.56925 0.63294 0.0
C5160 C 0.76437 0.59584 0.63658 0.0
H5161 H 0.56927 0.43585 0.6436 0.0
H5162 H 0.62321 0.4779 0.64349 0.0
C5163 C 0.79339 0.6228 0.63605 0.0
C5164 C 0.72678 0.54056 0.63351 0.0
H5165 H 0.64875 0.51337 0.63256 0.0
C5166 C 0.72559 0.51263 0.63528 0.0
C5167 C 0.69871 0.54069 0.6324 0.0
C5168 C 0.6983 0.56929 0.63005 0.0
C5169 C 0.69707 0.48504 0.63617 0.0
C5170 C 0.66905 0.48544 0.63523 0.0
C5171 C 0.67028 0.51324 0.63337 0.0
C5172 C 0.63798 0.45737 0.63604 0.0
C5173 C 0.69716 0.45593 0.63824 0.0
C5174 C 0.62858 0.43136 0.63203 0.0
C5175 C 0.5978 0.40688 0.63217 0.0
C5176 C 0.57561 0.40823 0.63623 0.0
C5177 C 0.5856 0.4337 0.64046 0.0
C5178 C 0.61644 0.45797 0.64037 0.0
H5179 H 0.72008 0.4612 0.64023 0.0
H5180 H 0.67896 0.44304 0.64196 0.0
H5181 H 0.69213 0.44049 0.63398 0.0
H5182 H 0.64463 0.43058 0.62858 0.0
H5183 H 0.59117 0.38743 0.62892 0.0
H5184 H 0.68682 0.22741 0.62654 0.0
H5185 H 0.64325 0.23691 0.62632 0.0
H5186 H 0.60701 0.18389 0.64389 0.0
H5187 H 0.64901 0.17189 0.64393 0.0
H5188 H 0.57576 0.18091 0.62665 0.0
H5189 H 0.6069 0.27144 0.64566 0.0
H5190 H 0.63586 0.26669 0.64129 0.0
H5191 H 0.61302 0.23935 0.64748 0.0
C5192 C 0.66958 0.21733 0.63035 0.0
C5193 C 0.67135 0.19795 0.63515 0.0
C5194 C 0.64484 0.22325 0.63024 0.0
C5195 C 0.62191 0.21097 0.63506 0.0
C5196 C 0.62458 0.19359 0.64012 0.0
H5197 H 0.44236 0.19734 0.64065 0.0
H5198 H 0.48972 0.19339 0.64146 0.0
C5199 C 0.64892 0.18698 0.64016 0.0
C5200 C 0.5938 0.21397 0.63448 0.0
H5201 H 0.55685 0.25013 0.64098 0.0
C5202 C 0.57164 0.19612 0.62976 0.0
C5203 C 0.58863 0.23385 0.63854 0.0
C5204 C 0.61234 0.25415 0.64352 0.0
C5205 C 0.5441 0.19729 0.62907 0.0
C5206 C 0.53881 0.217 0.63316 0.0
C5207 C 0.56103 0.23497 0.63787 0.0
C5208 C 0.51024 0.21918 0.63263 0.0
C5209 C 0.52055 0.17714 0.62404 0.0
C5210 C 0.50632 0.23508 0.62741 0.0
C5211 C 0.47967 0.23784 0.62702 0.0
C5212 C 0.45637 0.22418 0.63176 0.0
C5213 C 0.46002 0.2078 0.63692 0.0
C5214 C 0.48699 0.20565 0.63739 0.0
H5215 H 0.52597 0.15981 0.62192 0.0
H5216 H 0.49689 0.16465 0.62621 0.0
H5217 H 0.52021 0.19207 0.62007 0.0
H5218 H 0.52406 0.24564 0.6237 0.0
H5219 H 0.47714 0.25045 0.623 0.0
H5220 H 0.92157 0.14611 0.21648 0.0
H5221 H 0.97245 0.1496 0.21545 0.0
H5222 H 1.00984 0.22144 0.23003 0.0
H5223 H 0.95911 0.21854 0.23099 0.0
H5224 H 0.0324 0.20908 0.21251 0.0
H5225 H 0.03113 0.15117 0.23572 0.0
H5226 H 0.99593 0.14451 0.23172 0.0
H5227 H 0.01926 0.18002 0.23608 0.0
C5228 C 0.94062 0.16252 0.21948 0.0
C5229 C 0.93652 0.18206 0.22381 0.0
C5230 C 0.96959 0.16451 0.21888 0.0
C5231 C 0.99468 0.18557 0.2227 0.0
C5232 C 0.99061 0.20491 0.22708 0.0
H5233 H 0.18488 0.24617 0.22893 0.0
H5234 H 0.13091 0.23395 0.2287 0.0
C5235 C 0.96177 0.20336 0.22759 0.0
C5236 C 0.02543 0.18806 0.22194 0.0
H5237 H 0.07838 0.17534 0.22984 0.0
C5238 C 0.04245 0.20146 0.21625 0.0
C5239 C 0.03817 0.1779 0.22684 0.0
C5240 C 0.02021 0.16237 0.23293 0.0
C5241 C 0.07262 0.20622 0.21544 0.0
C5242 C 0.08574 0.1968 0.22042 0.0
C5243 C 0.06823 0.18249 0.22602 0.0
C5244 C 0.11862 0.20433 0.22025 0.0
C5245 C 0.09073 0.22251 0.20942 0.0
C5246 C 0.12976 0.19186 0.21552 0.0
C5247 C 0.16092 0.19897 0.21562 0.0
C5248 C 0.18106 0.21823 0.22052 0.0
C5249 C 0.16975 0.2308 0.22517 0.0
C5250 C 0.13894 0.22392 0.22504 0.0
H5251 H 0.0791 0.23277 0.20655 0.0
H5252 H 0.1145 0.24128 0.21071 0.0
H5253 H 0.09301 0.20556 0.20629 0.0
H5254 H 0.1143 0.17632 0.21183 0.0
H5255 H 0.16907 0.18893 0.21199 0.0
H5256 H 0.82364 0.9666 0.22649 0.0
H5257 H 0.83439 0.92361 0.22666 0.0
H5258 H 0.91589 0.97706 0.21481 0.0
H5259 H 0.90502 0.02051 0.21464 0.0
H5260 H 0.83939 0.89116 0.21588 0.0
H5261 H 0.94767 0.94836 0.23065 0.0
H5262 H 0.92084 0.96292 0.23029 0.0
H5263 H 0.94644 0.96911 0.2236 0.0
C5264 C 0.84377 0.96907 0.2239 0.0
C5265 C 0.86347 0.9966 0.22054 0.0
C5266 C 0.84992 0.94461 0.22401 0.0
C5267 C 0.87608 0.9473 0.22081 0.0
C5268 C 0.89579 0.97474 0.21738 0.0
H5269 H 0.9409 0.81376 0.21887 0.0
H5270 H 0.93523 0.8598 0.21785 0.0
C5271 C 0.88946 0.99932 0.21723 0.0
C5272 C 0.88181 0.92077 0.22102 0.0
H5273 H 0.93008 0.89684 0.22727 0.0
C5274 C 0.8593 0.8924 0.21833 0.0
C5275 C 0.90774 0.92255 0.22426 0.0
C5276 C 0.93203 0.95225 0.22741 0.0
C5277 C 0.86196 0.86564 0.21879 0.0
C5278 C 0.88759 0.86721 0.22213 0.0
C5279 C 0.91041 0.89573 0.22473 0.0
C5280 C 0.89119 0.83951 0.22292 0.0
C5281 C 0.83749 0.83603 0.21563 0.0
C5282 C 0.86851 0.81301 0.2262 0.0
C5283 C 0.87147 0.78652 0.22671 0.0
C5284 C 0.89751 0.78634 0.22407 0.0
C5285 C 0.92061 0.81322 0.22096 0.0
C5286 C 0.91742 0.83954 0.22038 0.0
H5287 H 0.82389 0.84062 0.21196 0.0
H5288 H 0.8482 0.82358 0.21324 0.0
H5289 H 0.82103 0.82047 0.21939 0.0
H5290 H 0.84849 0.8128 0.22835 0.0
H5291 H 0.85351 0.7663 0.22922 0.0
H5292 H 0.05646 0.91847 0.22639 0.0
H5293 H 0.09905 0.97241 0.22678 0.0
H5294 H 0.15456 0.94853 0.21456 0.0
H5295 H 0.11253 0.89458 0.21424 0.0
H5296 H 0.15798 0.99104 0.2318 0.0
H5297 H 0.16647 0.02829 0.20615 0.0
H5298 H 0.13216 0.99515 0.20943 0.0
H5299 H 0.1653 0.99176 0.20713 0.0
C5300 C 0.07762 0.92471 0.22374 0.0
C5301 C 0.08106 0.90203 0.22031 0.0
C5302 C 0.10188 0.95559 0.22395 0.0
C5303 C 0.12988 0.96452 0.22066 0.0
C5304 C 0.13294 0.94229 0.21703 0.0
H5305 H 0.31637 0.12086 0.22017 0.0
H5306 H 0.2691 0.06976 0.21961 0.0
C5307 C 0.10877 0.9114 0.21684 0.0
C5308 C 0.15679 0.99635 0.22145 0.0
H5309 H 0.20963 0.06016 0.21296 0.0
C5310 C 0.16907 1.00632 0.22769 0.0
C5311 C 0.17119 0.01622 0.21608 0.0
C5312 C 0.15798 1.00751 0.20933 0.0
C5313 C 0.19596 0.03528 0.22868 0.0
C5314 C 0.21078 0.05468 0.22329 0.0
C5315 C 0.19826 0.045 0.21707 0.0
C5316 C 0.23947 0.08514 0.22398 0.0
C5317 C 0.20891 0.04472 0.23544 0.0
C5318 C 0.23829 0.11056 0.22663 0.0
C5319 C 0.26512 0.13986 0.22687 0.0
C5320 C 0.29358 0.14406 0.22453 0.0
C5321 C 0.29478 0.11832 0.22202 0.0
C5322 C 0.26785 0.08916 0.22169 0.0
H5323 H 0.19697 0.02539 0.23898 0.0
H5324 H 0.23417 0.05268 0.23546 0.0
H5325 H 0.20608 0.06449 0.23707 0.0
H5326 H 0.21651 0.10784 0.2284 0.0
H5327 H 0.2636 0.1592 0.2289 0.0
loop_
_geom_bond_atom_site_label_1
_geom_bond_atom_site_label_2
_geom_bond_distance
_geom_bond_site_symmetry_2
_ccdc_geom_bond_type
Ho0 C3 2.811 . S
Ho0 O20 2.322 . S
Ho0 O22 2.378 . S
Ho0 O23 2.524 . S
Ho0 O24 2.381 . S
Ho0 O25 2.669 . S
Ho0 O27 2.346 . S
Ho0 O31 2.305 . S
Ho1 C12 2.811 1_545 S
Ho1 O21 2.346 . S
Ho1 O25 2.305 . S
Ho1 O26 2.322 1_545 S
Ho1 O28 2.378 1_545 S
Ho1 O29 2.524 1_545 S
Ho1 O30 2.381 . S
Ho1 O31 2.669 . S
C2 O20 1.259 . S
C2 O21 1.268 . S
C3 Ho0 2.811 . S
C3 C4 1.488 . S
C3 O22 1.215 . S
C3 O23 1.289 . S
C4 C3 1.488 . S
C4 C5 1.348 . S
C4 C9 1.413 . S
C5 C4 1.348 . S
C5 C6 1.442 . S
C5 H32 0.930 . S
C6 C5 1.442 . S
C6 C7 1.381 . S
C6 H33 0.931 . S
C7 C6 1.381 . S
C7 C8 1.321 . S
C8 C7 1.321 . S
C8 C9 1.403 . S
C8 H34 0.934 . S
C9 C4 1.413 . S
C9 C8 1.403 . S
C9 H35 0.930 . S
C10 O24 1.275 . S
C10 O25 1.256 . S
C11 O26 1.259 . S
C11 O27 1.268 1_565 S
C12 Ho1 2.811 1_565 S
C12 C13 1.488 . S
C12 O28 1.215 . S
C12 O29 1.289 . S
C13 C12 1.488 . S
C13 C14 1.348 . S
C13 C18 1.413 . S
C14 C13 1.348 . S
C14 C15 1.442 . S
C14 H36 0.930 . S
C15 C14 1.442 . S
C15 C16 1.381 . S
C15 H37 0.931 . S
C16 C15 1.381 . S
C16 C17 1.321 . S
C17 C16 1.321 . S
C17 C18 1.403 . S
C17 H38 0.934 . S
C18 C13 1.413 . S
C18 C17 1.403 . S
C18 H39 0.930 . S
C19 O30 1.275 . S
C19 O31 1.256 . S
O20 Ho0 2.322 . S
O20 C2 1.259 . S
O21 Ho1 2.346 . S
O21 C2 1.268 . S
O22 Ho0 2.378 . S
O22 C3 1.215 . S
O23 Ho0 2.524 . S
O23 C3 1.289 . S
O24 Ho0 2.381 . S
O24 C10 1.275 . S
O25 Ho0 2.669 . S
O25 Ho1 2.305 . S
O25 C10 1.256 . S
O26 Ho1 2.322 1_565 S
O26 C11 1.259 . S
O27 Ho0 2.346 . S
O27 C11 1.268 1_545 S
O28 Ho1 2.378 1_565 S
O28 C12 1.215 . S
O29 Ho1 2.524 1_565 S
O29 C12 1.289 . S
O30 Ho1 2.381 . S
O30 C19 1.275 . S
O31 Ho0 2.305 . S
O31 Ho1 2.669 . S
O31 C19 1.256 . S
H32 C5 0.930 . S
H33 C6 0.931 . S
H34 C8 0.934 . S
H35 C9 0.930 . S
H36 C14 0.930 . S
H37 C15 0.931 . S
H38 C17 0.934 . S
H39 C18 0.930 . S
Ho40 C43 2.811 . S
Ho40 O60 2.322 . S
Ho40 O62 2.378 . S
Ho40 O63 2.524 . S
Ho40 O64 2.381 1_655 S
Ho40 O65 2.669 1_655 S
Ho40 O67 2.346 1_655 S
Ho40 O71 2.305 1_655 S
Ho41 C52 2.811 . S
Ho41 O61 2.346 1_455 S
Ho41 O65 2.305 . S
Ho41 O66 2.322 . S
Ho41 O68 2.378 . S
Ho41 O69 2.524 . S
Ho41 O70 2.381 . S
Ho41 O71 2.669 . S
C42 O60 1.259 . S
C42 O61 1.268 . S
C43 Ho40 2.811 . S
C43 C44 1.488 . S
C43 O62 1.215 . S
C43 O63 1.289 . S
C44 C43 1.488 . S
C44 C45 1.348 . S
C44 C49 1.413 . S
C45 C44 1.348 . S
C45 C46 1.442 . S
C45 H72 0.930 . S
C46 C45 1.442 . S
C46 C47 1.381 . S
C46 H73 0.931 . S
C47 C46 1.381 . S
C47 C48 1.321 . S
C48 C47 1.321 . S
C48 C49 1.403 . S
C48 H74 0.934 . S
C49 C44 1.413 . S
C49 C48 1.403 . S
C49 H75 0.930 . S
C50 O64 1.275 . S
C50 O65 1.256 . S
C51 O66 1.259 . S
C51 O67 1.268 . S
C52 Ho41 2.811 . S
C52 C53 1.488 . S
C52 O68 1.215 . S
C52 O69 1.289 . S
C53 C52 1.488 . S
C53 C54 1.348 . S
C53 C58 1.413 . S
C54 C53 1.348 . S
C54 C55 1.442 . S
C54 H76 0.930 . S
C55 C54 1.442 . S
C55 C56 1.381 . S
C55 H77 0.931 . S
C56 C55 1.381 . S
C56 C57 1.321 . S
C57 C56 1.321 . S
C57 C58 1.403 . S
C57 H78 0.934 . S
C58 C53 1.413 . S
C58 C57 1.403 . S
C58 H79 0.930 . S
C59 O70 1.275 . S
C59 O71 1.256 . S
O60 Ho40 2.322 . S
O60 C42 1.259 . S
O61 Ho41 2.346 1_655 S
O61 C42 1.268 . S
O62 Ho40 2.378 . S
O62 C43 1.215 . S
O63 Ho40 2.524 . S
O63 C43 1.289 . S
O64 Ho40 2.381 1_455 S
O64 C50 1.275 . S
O65 Ho40 2.669 1_455 S
O65 Ho41 2.305 . S
O65 C50 1.256 . S
O66 Ho41 2.322 . S
O66 C51 1.259 . S
O67 Ho40 2.346 1_455 S
O67 C51 1.268 . S
O68 Ho41 2.378 . S
O68 C52 1.215 . S
O69 Ho41 2.524 . S
O69 C52 1.289 . S
O70 Ho41 2.381 . S
O70 C59 1.275 . S
O71 Ho40 2.305 1_455 S
O71 Ho41 2.669 . S
O71 C59 1.256 . S
H72 C45 0.930 . S
H73 C46 0.931 . S
H74 C48 0.934 . S
H75 C49 0.930 . S
H76 C54 0.930 . S
H77 C55 0.931 . S
H78 C57 0.934 . S
H79 C58 0.930 . S
Ho80 C83 2.811 . S
Ho80 O100 2.322 . S
Ho80 O102 2.378 . S
Ho80 O103 2.524 . S
Ho80 O104 2.381 . S
Ho80 O105 2.669 . S
Ho80 O107 2.346 . S
Ho80 O111 2.305 . S
Ho81 C92 2.811 . S
Ho81 O101 2.346 . S
Ho81 O105 2.305 . S
Ho81 O106 2.322 . S
Ho81 O108 2.378 . S
Ho81 O109 2.524 . S
Ho81 O110 2.381 . S
Ho81 O111 2.669 . S
C82 O100 1.259 . S
C82 O101 1.268 . S
C83 Ho80 2.811 . S
C83 C84 1.488 . S
C83 O102 1.215 . S
C83 O103 1.289 . S
C84 C83 1.488 . S
C84 C85 1.348 . S
C84 C89 1.413 . S
C85 C84 1.348 . S
C85 C86 1.442 . S
C85 H112 0.930 . S
C86 C85 1.442 . S
C86 C87 1.381 . S
C86 H113 0.931 . S
C87 C86 1.381 . S
C87 C88 1.321 . S
C88 C87 1.321 . S
C88 C89 1.403 . S
C88 H114 0.934 . S
C89 C84 1.413 . S
C89 C88 1.403 . S
C89 H115 0.930 . S
C90 O104 1.275 . S
C90 O105 1.256 . S
C91 O106 1.259 . S
C91 O107 1.268 . S
C92 Ho81 2.811 . S
C92 C93 1.488 . S
C92 O108 1.215 . S
C92 O109 1.289 . S
C93 C92 1.488 . S
C93 C94 1.348 . S
C93 C98 1.413 . S
C94 C93 1.348 . S
C94 C95 1.442 . S
C94 H116 0.930 . S
C95 C94 1.442 . S
C95 C96 1.381 . S
C95 H117 0.931 . S
C96 C95 1.381 . S
C96 C97 1.321 . S
C97 C96 1.321 . S
C97 C98 1.403 . S
C97 H118 0.934 . S
C98 C93 1.413 . S
C98 C97 1.403 . S
C98 H119 0.930 . S
C99 O110 1.275 . S
C99 O111 1.256 . S
O100 Ho80 2.322 . S
O100 C82 1.259 . S
O101 Ho81 2.346 . S
O101 C82 1.268 . S
O102 Ho80 2.378 . S
O102 C83 1.215 . S
O103 Ho80 2.524 . S
O103 C83 1.289 . S
O104 Ho80 2.381 . S
O104 C90 1.275 . S
O105 Ho80 2.669 . S
O105 Ho81 2.305 . S
O105 C90 1.256 . S
O106 Ho81 2.322 . S
O106 C91 1.259 . S
O107 Ho80 2.346 . S
O107 C91 1.268 . S
O108 Ho81 2.378 . S
O108 C92 1.215 . S
O109 Ho81 2.524 . S
O109 C92 1.289 . S
O110 Ho81 2.381 . S
O110 C99 1.275 . S
O111 Ho80 2.305 . S
O111 Ho81 2.669 . S
O111 C99 1.256 . S
H112 C85 0.930 . S
H113 C86 0.931 . S
H114 C88 0.934 . S
H115 C89 0.930 . S
H116 C94 0.930 . S
H117 C95 0.931 . S
H118 C97 0.934 . S
H119 C98 0.930 . S
Ho120 C123 2.811 . S
Ho120 O140 2.322 . S
Ho120 O142 2.378 . S
Ho120 O143 2.524 . S
Ho120 O144 2.381 . S
Ho120 O145 2.669 . S
Ho120 O147 2.346 . S
Ho120 O151 2.305 . S
Ho121 C132 2.811 1_455 S
Ho121 O141 2.346 . S
Ho121 O145 2.305 . S
Ho121 O146 2.322 1_455 S
Ho121 O148 2.378 1_455 S
Ho121 O149 2.524 1_455 S
Ho121 O150 2.381 . S
Ho121 O151 2.669 . S
C122 O140 1.259 . S
C122 O141 1.268 . S
C123 Ho120 2.811 . S
C123 C124 1.488 . S
C123 O142 1.215 . S
C123 O143 1.289 . S
C124 C123 1.488 . S
C124 C125 1.348 . S
C124 C129 1.413 . S
C125 C124 1.348 . S
C125 C126 1.442 . S
C125 H152 0.930 . S
C126 C125 1.442 . S
C126 C127 1.381 . S
C126 H153 0.931 . S
C127 C126 1.381 . S
C127 C128 1.321 . S
C128 C127 1.321 . S
C128 C129 1.403 . S
C128 H154 0.934 . S
C129 C124 1.413 . S
C129 C128 1.403 . S
C129 H155 0.930 . S
C130 O144 1.275 . S
C130 O145 1.256 . S
C131 O146 1.259 . S
C131 O147 1.268 1_655 S
C132 Ho121 2.811 1_655 S
C132 C133 1.488 . S
C132 O148 1.215 . S
C132 O149 1.289 . S
C133 C132 1.488 . S
C133 C134 1.348 . S
C133 C138 1.413 . S
C134 C133 1.348 . S
C134 C135 1.442 . S
C134 H156 0.930 . S
C135 C134 1.442 . S
C135 C136 1.381 . S
C135 H157 0.931 . S
C136 C135 1.381 . S
C136 C137 1.321 . S
C137 C136 1.321 . S
C137 C138 1.403 . S
C137 H158 0.934 . S
C138 C133 1.413 . S
C138 C137 1.403 . S
C138 H159 0.930 . S
C139 O150 1.275 . S
C139 O151 1.256 . S
O140 Ho120 2.322 . S
O140 C122 1.259 . S
O141 Ho121 2.346 . S
O141 C122 1.268 . S
O142 Ho120 2.378 . S
O142 C123 1.215 . S
O143 Ho120 2.524 . S
O143 C123 1.289 . S
O144 Ho120 2.381 . S
O144 C130 1.275 . S
O145 Ho120 2.669 . S
O145 Ho121 2.305 . S
O145 C130 1.256 . S
O146 Ho121 2.322 1_655 S
O146 C131 1.259 . S
O147 Ho120 2.346 . S
O147 C131 1.268 1_455 S
O148 Ho121 2.378 1_655 S
O148 C132 1.215 . S
O149 Ho121 2.524 1_655 S
O149 C132 1.289 . S
O150 Ho121 2.381 . S
O150 C139 1.275 . S
O151 Ho120 2.305 . S
O151 Ho121 2.669 . S
O151 C139 1.256 . S
H152 C125 0.930 . S
H153 C126 0.931 . S
H154 C128 0.934 . S
H155 C129 0.930 . S
H156 C134 0.930 . S
H157 C135 0.931 . S
H158 C137 0.934 . S
H159 C138 0.930 . S
Ho160 C163 2.811 . S
Ho160 O180 2.322 . S
Ho160 O182 2.378 . S
Ho160 O183 2.524 . S
Ho160 O184 2.381 . S
Ho160 O185 2.669 . S
Ho160 O187 2.346 . S
Ho160 O191 2.305 . S
Ho161 C172 2.811 . S
Ho161 O181 2.346 . S
Ho161 O185 2.305 . S
Ho161 O186 2.322 . S
Ho161 O188 2.378 . S
Ho161 O189 2.524 . S
Ho161 O190 2.381 . S
Ho161 O191 2.669 . S
C162 O180 1.259 . S
C162 O181 1.268 . S
C163 Ho160 2.811 . S
C163 C164 1.488 . S
C163 O182 1.215 . S
C163 O183 1.289 . S
C164 C163 1.488 . S
C164 C165 1.348 . S
C164 C169 1.413 . S
C165 C164 1.348 . S
C165 C166 1.442 . S
C165 H192 0.930 . S
C166 C165 1.442 . S
C166 C167 1.381 . S
C166 H193 0.931 . S
C167 C166 1.381 . S
C167 C168 1.321 . S
C168 C167 1.321 . S
C168 C169 1.403 . S
C168 H194 0.934 . S
C169 C164 1.413 . S
C169 C168 1.403 . S
C169 H195 0.930 . S
C170 O184 1.275 . S
C170 O185 1.256 . S
C171 O186 1.259 . S
C171 O187 1.268 . S
C172 Ho161 2.811 . S
C172 C173 1.488 . S
C172 O188 1.215 . S
C172 O189 1.289 . S
C173 C172 1.488 . S
C173 C174 1.348 . S
C173 C178 1.413 . S
C174 C173 1.348 . S
C174 C175 1.442 . S
C174 H196 0.930 . S
C175 C174 1.442 . S
C175 C176 1.381 . S
C175 H197 0.931 . S
C176 C175 1.381 . S
C176 C177 1.321 . S
C177 C176 1.321 . S
C177 C178 1.403 . S
C177 H198 0.934 . S
C178 C173 1.413 . S
C178 C177 1.403 . S
C178 H199 0.930 . S
C179 O190 1.275 . S
C179 O191 1.256 . S
O180 Ho160 2.322 . S
O180 C162 1.259 . S
O181 Ho161 2.346 . S
O181 C162 1.268 . S
O182 Ho160 2.378 . S
O182 C163 1.215 . S
O183 Ho160 2.524 . S
O183 C163 1.289 . S
O184 Ho160 2.381 . S
O184 C170 1.275 . S
O185 Ho160 2.669 . S
O185 Ho161 2.305 . S
O185 C170 1.256 . S
O186 Ho161 2.322 . S
O186 C171 1.259 . S
O187 Ho160 2.346 . S
O187 C171 1.268 . S
O188 Ho161 2.378 . S
O188 C172 1.215 . S
O189 Ho161 2.524 . S
O189 C172 1.289 . S
O190 Ho161 2.381 . S
O190 C179 1.275 . S
O191 Ho160 2.305 . S
O191 Ho161 2.669 . S
O191 C179 1.256 . S
H192 C165 0.930 . S
H193 C166 0.931 . S
H194 C168 0.934 . S
H195 C169 0.930 . S
H196 C174 0.930 . S
H197 C175 0.931 . S
H198 C177 0.934 . S
H199 C178 0.930 . S
Ho200 C203 2.811 . S
Ho200 O220 2.322 . S
Ho200 O222 2.378 . S
Ho200 O223 2.524 . S
Ho200 O224 2.381 1_565 S
Ho200 O225 2.669 1_565 S
Ho200 O227 2.346 1_565 S
Ho200 O231 2.305 1_565 S
Ho201 C212 2.811 . S
Ho201 O221 2.346 1_545 S
Ho201 O225 2.305 . S
Ho201 O226 2.322 . S
Ho201 O228 2.378 . S
Ho201 O229 2.524 . S
Ho201 O230 2.381 . S
Ho201 O231 2.669 . S
C202 O220 1.259 . S
C202 O221 1.268 . S
C203 Ho200 2.811 . S
C203 C204 1.488 . S
C203 O222 1.215 . S
C203 O223 1.289 . S
C204 C203 1.488 . S
C204 C205 1.348 . S
C204 C209 1.413 . S
C205 C204 1.348 . S
C205 C206 1.442 . S
C205 H232 0.930 . S
C206 C205 1.442 . S
C206 C207 1.381 . S
C206 H233 0.931 . S
C207 C206 1.381 . S
C207 C208 1.321 . S
C208 C207 1.321 . S
C208 C209 1.403 . S
C208 H234 0.934 . S
C209 C204 1.413 . S
C209 C208 1.403 . S
C209 H235 0.930 . S
C210 O224 1.275 . S
C210 O225 1.256 . S
C211 O226 1.259 . S
C211 O227 1.268 . S
C212 Ho201 2.811 . S
C212 C213 1.488 . S
C212 O228 1.215 . S
C212 O229 1.289 . S
C213 C212 1.488 . S
C213 C214 1.348 . S
C213 C218 1.413 . S
C214 C213 1.348 . S
C214 C215 1.442 . S
C214 H236 0.930 . S
C215 C214 1.442 . S
C215 C216 1.381 . S
C215 H237 0.931 . S
C216 C215 1.381 . S
C216 C217 1.321 . S
C217 C216 1.321 . S
C217 C218 1.403 . S
C217 H238 0.934 . S
C218 C213 1.413 . S
C218 C217 1.403 . S
C218 H239 0.930 . S
C219 O230 1.275 . S
C219 O231 1.256 . S
O220 Ho200 2.322 . S
O220 C202 1.259 . S
O221 Ho201 2.346 1_565 S
O221 C202 1.268 . S
O222 Ho200 2.378 . S
O222 C203 1.215 . S
O223 Ho200 2.524 . S
O223 C203 1.289 . S
O224 Ho200 2.381 1_545 S
O224 C210 1.275 . S
O225 Ho200 2.669 1_545 S
O225 Ho201 2.305 . S
O225 C210 1.256 . S
O226 Ho201 2.322 . S
O226 C211 1.259 . S
O227 Ho200 2.346 1_545 S
O227 C211 1.268 . S
O228 Ho201 2.378 . S
O228 C212 1.215 . S
O229 Ho201 2.524 . S
O229 C212 1.289 . S
O230 Ho201 2.381 . S
O230 C219 1.275 . S
O231 Ho200 2.305 1_545 S
O231 Ho201 2.669 . S
O231 C219 1.256 . S
H232 C205 0.930 . S
H233 C206 0.931 . S
H234 C208 0.934 . S
H235 C209 0.930 . S
H236 C214 0.930 . S
H237 C215 0.931 . S
H238 C217 0.934 . S
H239 C218 0.930 . S
Ho240 C243 2.811 . S
Ho240 O260 2.322 . S
Ho240 O262 2.378 . S
Ho240 O263 2.524 . S
Ho240 O264 2.381 . S
Ho240 O265 2.669 . S
Ho240 O267 2.346 1_545 S
Ho240 O271 2.305 . S
Ho241 C252 2.811 . S
Ho241 O261 2.346 1_565 S
Ho241 O265 2.305 1_565 S
Ho241 O266 2.322 . S
Ho241 O268 2.378 . S
Ho241 O269 2.524 . S
Ho241 O270 2.381 1_565 S
Ho241 O271 2.669 1_565 S
C242 O260 1.259 . S
C242 O261 1.268 . S
C243 Ho240 2.811 . S
C243 C244 1.488 . S
C243 O262 1.215 . S
C243 O263 1.289 . S
C244 C243 1.488 . S
C244 C245 1.348 . S
C244 C249 1.413 . S
C245 C244 1.348 . S
C245 C246 1.442 . S
C245 H272 0.930 . S
C246 C245 1.442 . S
C246 C247 1.381 . S
C246 H273 0.931 . S
C247 C246 1.381 . S
C247 C248 1.321 . S
C248 C247 1.321 . S
C248 C249 1.403 . S
C248 H274 0.934 . S
C249 C244 1.413 . S
C249 C248 1.403 . S
C249 H275 0.930 . S
C250 O264 1.275 . S
C250 O265 1.256 . S
C251 O266 1.259 . S
C251 O267 1.268 . S
C252 Ho241 2.811 . S
C252 C253 1.488 . S
C252 O268 1.215 . S
C252 O269 1.289 . S
C253 C252 1.488 . S
C253 C254 1.348 . S
C253 C258 1.413 . S
C254 C253 1.348 . S
C254 C255 1.442 . S
C254 H276 0.930 . S
C255 C254 1.442 . S
C255 C256 1.381 . S
C255 H277 0.931 . S
C256 C255 1.381 . S
C256 C257 1.321 . S
C257 C256 1.321 . S
C257 C258 1.403 . S
C257 H278 0.934 . S
C258 C253 1.413 . S
C258 C257 1.403 . S
C258 H279 0.930 . S
C259 O270 1.275 . S
C259 O271 1.256 . S
O260 Ho240 2.322 . S
O260 C242 1.259 . S
O261 Ho241 2.346 1_545 S
O261 C242 1.268 . S
O262 Ho240 2.378 . S
O262 C243 1.215 . S
O263 Ho240 2.524 . S
O263 C243 1.289 . S
O264 Ho240 2.381 . S
O264 C250 1.275 . S
O265 Ho240 2.669 . S
O265 Ho241 2.305 1_545 S
O265 C250 1.256 . S
O266 Ho241 2.322 . S
O266 C251 1.259 . S
O267 Ho240 2.346 1_565 S
O267 C251 1.268 . S
O268 Ho241 2.378 . S
O268 C252 1.215 . S
O269 Ho241 2.524 . S
O269 C252 1.289 . S
O270 Ho241 2.381 1_545 S
O270 C259 1.275 . S
O271 Ho240 2.305 . S
O271 Ho241 2.669 1_545 S
O271 C259 1.256 . S
H272 C245 0.930 . S
H273 C246 0.931 . S
H274 C248 0.934 . S
H275 C249 0.930 . S
H276 C254 0.930 . S
H277 C255 0.931 . S
H278 C257 0.934 . S
H279 C258 0.930 . S
Ho280 C283 2.811 1_455 S
Ho280 O300 2.322 1_455 S
Ho280 O302 2.378 1_455 S
Ho280 O303 2.524 1_455 S
Ho280 O304 2.381 . S
Ho280 O305 2.669 . S
Ho280 O307 2.346 . S
Ho280 O311 2.305 . S
Ho281 C292 2.811 . S
Ho281 O301 2.346 . S
Ho281 O305 2.305 . S
Ho281 O306 2.322 . S
Ho281 O308 2.378 . S
Ho281 O309 2.524 . S
Ho281 O310 2.381 . S
Ho281 O311 2.669 . S
C282 O300 1.259 . S
C282 O301 1.268 1_655 S
C283 Ho280 2.811 1_655 S
C283 C284 1.488 . S
C283 O302 1.215 . S
C283 O303 1.289 . S
C284 C283 1.488 . S
C284 C285 1.348 . S
C284 C289 1.413 . S
C285 C284 1.348 . S
C285 C286 1.442 . S
C285 H312 0.930 . S
C286 C285 1.442 . S
C286 C287 1.381 . S
C286 H313 0.931 . S
C287 C286 1.381 . S
C287 C288 1.321 . S
C288 C287 1.321 . S
C288 C289 1.403 . S
C288 H314 0.934 . S
C289 C284 1.413 . S
C289 C288 1.403 . S
C289 H315 0.930 . S
C290 O304 1.275 . S
C290 O305 1.256 . S
C291 O306 1.259 . S
C291 O307 1.268 . S
C292 Ho281 2.811 . S
C292 C293 1.488 . S
C292 O308 1.215 . S
C292 O309 1.289 . S
C293 C292 1.488 . S
C293 C294 1.348 . S
C293 C298 1.413 . S
C294 C293 1.348 . S
C294 C295 1.442 . S
C294 H316 0.930 . S
C295 C294 1.442 . S
C295 C296 1.381 . S
C295 H317 0.931 . S
C296 C295 1.381 . S
C296 C297 1.321 . S
C297 C296 1.321 . S
C297 C298 1.403 . S
C297 H318 0.934 . S
C298 C293 1.413 . S
C298 C297 1.403 . S
C298 H319 0.930 . S
C299 O310 1.275 . S
C299 O311 1.256 . S
O300 Ho280 2.322 1_655 S
O300 C282 1.259 . S
O301 Ho281 2.346 . S
O301 C282 1.268 1_455 S
O302 Ho280 2.378 1_655 S
O302 C283 1.215 . S
O303 Ho280 2.524 1_655 S
O303 C283 1.289 . S
O304 Ho280 2.381 . S
O304 C290 1.275 . S
O305 Ho280 2.669 . S
O305 Ho281 2.305 . S
O305 C290 1.256 . S
O306 Ho281 2.322 . S
O306 C291 1.259 . S
O307 Ho280 2.346 . S
O307 C291 1.268 . S
O308 Ho281 2.378 . S
O308 C292 1.215 . S
O309 Ho281 2.524 . S
O309 C292 1.289 . S
O310 Ho281 2.381 . S
O310 C299 1.275 . S
O311 Ho280 2.305 . S
O311 Ho281 2.669 . S
O311 C299 1.256 . S
H312 C285 0.930 . S
H313 C286 0.931 . S
H314 C288 0.934 . S
H315 C289 0.930 . S
H316 C294 0.930 . S
H317 C295 0.931 . S
H318 C297 0.934 . S
H319 C298 0.930 . S
Ho320 C323 2.811 . S
Ho320 O340 2.322 . S
Ho320 O342 2.378 . S
Ho320 O343 2.524 . S
Ho320 O344 2.381 . S
Ho320 O345 2.669 . S
Ho320 O347 2.346 . S
Ho320 O351 2.305 . S
Ho321 C332 2.811 . S
Ho321 O341 2.346 . S
Ho321 O345 2.305 . S
Ho321 O346 2.322 . S
Ho321 O348 2.378 . S
Ho321 O349 2.524 . S
Ho321 O350 2.381 . S
Ho321 O351 2.669 . S
C322 O340 1.259 . S
C322 O341 1.268 . S
C323 Ho320 2.811 . S
C323 C324 1.488 . S
C323 O342 1.215 . S
C323 O343 1.289 . S
C324 C323 1.488 . S
C324 C325 1.348 . S
C324 C329 1.413 . S
C325 C324 1.348 . S
C325 C326 1.442 . S
C325 H352 0.930 . S
C326 C325 1.442 . S
C326 C327 1.381 . S
C326 H353 0.931 . S
C327 C326 1.381 . S
C327 C328 1.321 . S
C328 C327 1.321 . S
C328 C329 1.403 . S
C328 H354 0.934 . S
C329 C324 1.413 . S
C329 C328 1.403 . S
C329 H355 0.930 . S
C330 O344 1.275 . S
C330 O345 1.256 . S
C331 O346 1.259 . S
C331 O347 1.268 . S
C332 Ho321 2.811 . S
C332 C333 1.488 . S
C332 O348 1.215 . S
C332 O349 1.289 . S
C333 C332 1.488 . S
C333 C334 1.348 . S
C333 C338 1.413 . S
C334 C333 1.348 . S
C334 C335 1.442 . S
C334 H356 0.930 . S
C335 C334 1.442 . S
C335 C336 1.381 . S
C335 H357 0.931 . S
C336 C335 1.381 . S
C336 C337 1.321 . S
C337 C336 1.321 . S
C337 C338 1.403 . S
C337 H358 0.934 . S
C338 C333 1.413 . S
C338 C337 1.403 . S
C338 H359 0.930 . S
C339 O350 1.275 . S
C339 O351 1.256 . S
O340 Ho320 2.322 . S
O340 C322 1.259 . S
O341 Ho321 2.346 . S
O341 C322 1.268 . S
O342 Ho320 2.378 . S
O342 C323 1.215 . S
O343 Ho320 2.524 . S
O343 C323 1.289 . S
O344 Ho320 2.381 . S
O344 C330 1.275 . S
O345 Ho320 2.669 . S
O345 Ho321 2.305 . S
O345 C330 1.256 . S
O346 Ho321 2.322 . S
O346 C331 1.259 . S
O347 Ho320 2.346 . S
O347 C331 1.268 . S
O348 Ho321 2.378 . S
O348 C332 1.215 . S
O349 Ho321 2.524 . S
O349 C332 1.289 . S
O350 Ho321 2.381 . S
O350 C339 1.275 . S
O351 Ho320 2.305 . S
O351 Ho321 2.669 . S
O351 C339 1.256 . S
H352 C325 0.930 . S
H353 C326 0.931 . S
H354 C328 0.934 . S
H355 C329 0.930 . S
H356 C334 0.930 . S
H357 C335 0.931 . S
H358 C337 0.934 . S
H359 C338 0.930 . S
Ho360 C363 2.811 . S
Ho360 O380 2.322 . S
Ho360 O382 2.378 . S
Ho360 O383 2.524 . S
Ho360 O384 2.381 . S
Ho360 O385 2.669 . S
Ho360 O387 2.346 1_455 S
Ho360 O391 2.305 . S
Ho361 C372 2.811 . S
Ho361 O381 2.346 1_655 S
Ho361 O385 2.305 1_655 S
Ho361 O386 2.322 . S
Ho361 O388 2.378 . S
Ho361 O389 2.524 . S
Ho361 O390 2.381 1_655 S
Ho361 O391 2.669 1_655 S
C362 O380 1.259 . S
C362 O381 1.268 . S
C363 Ho360 2.811 . S
C363 C364 1.488 . S
C363 O382 1.215 . S
C363 O383 1.289 . S
C364 C363 1.488 . S
C364 C365 1.348 . S
C364 C369 1.413 . S
C365 C364 1.348 . S
C365 C366 1.442 . S
C365 H392 0.930 . S
C366 C365 1.442 . S
C366 C367 1.381 . S
C366 H393 0.931 . S
C367 C366 1.381 . S
C367 C368 1.321 . S
C368 C367 1.321 . S
C368 C369 1.403 . S
C368 H394 0.934 . S
C369 C364 1.413 . S
C369 C368 1.403 . S
C369 H395 0.930 . S
C370 O384 1.275 . S
C370 O385 1.256 . S
C371 O386 1.259 . S
C371 O387 1.268 . S
C372 Ho361 2.811 . S
C372 C373 1.488 . S
C372 O388 1.215 . S
C372 O389 1.289 . S
C373 C372 1.488 . S
C373 C374 1.348 . S
C373 C378 1.413 . S
C374 C373 1.348 . S
C374 C375 1.442 . S
C374 H396 0.930 . S
C375 C374 1.442 . S
C375 C376 1.381 . S
C375 H397 0.931 . S
C376 C375 1.381 . S
C376 C377 1.321 . S
C377 C376 1.321 . S
C377 C378 1.403 . S
C377 H398 0.934 . S
C378 C373 1.413 . S
C378 C377 1.403 . S
C378 H399 0.930 . S
C379 O390 1.275 . S
C379 O391 1.256 . S
O380 Ho360 2.322 . S
O380 C362 1.259 . S
O381 Ho361 2.346 1_455 S
O381 C362 1.268 . S
O382 Ho360 2.378 . S
O382 C363 1.215 . S
O383 Ho360 2.524 . S
O383 C363 1.289 . S
O384 Ho360 2.381 . S
O384 C370 1.275 . S
O385 Ho360 2.669 . S
O385 Ho361 2.305 1_455 S
O385 C370 1.256 . S
O386 Ho361 2.322 . S
O386 C371 1.259 . S
O387 Ho360 2.346 1_655 S
O387 C371 1.268 . S
O388 Ho361 2.378 . S
O388 C372 1.215 . S
O389 Ho361 2.524 . S
O389 C372 1.289 . S
O390 Ho361 2.381 1_455 S
O390 C379 1.275 . S
O391 Ho360 2.305 . S
O391 Ho361 2.669 1_455 S
O391 C379 1.256 . S
H392 C365 0.930 . S
H393 C366 0.931 . S
H394 C368 0.934 . S
H395 C369 0.930 . S
H396 C374 0.930 . S
H397 C375 0.931 . S
H398 C377 0.934 . S
H399 C378 0.930 . S
Ho400 C403 2.811 . S
Ho400 O420 2.322 . S
Ho400 O422 2.378 . S
Ho400 O423 2.524 . S
Ho400 O424 2.381 . S
Ho400 O425 2.669 . S
Ho400 O427 2.346 . S
Ho400 O431 2.305 . S
Ho401 C412 2.811 . S
Ho401 O421 2.346 . S
Ho401 O425 2.305 . S
Ho401 O426 2.322 . S
Ho401 O428 2.378 . S
Ho401 O429 2.524 . S
Ho401 O430 2.381 . S
Ho401 O431 2.669 . S
C402 O420 1.259 . S
C402 O421 1.268 . S
C403 Ho400 2.811 . S
C403 C404 1.488 . S
C403 O422 1.215 . S
C403 O423 1.289 . S
C404 C403 1.488 . S
C404 C405 1.348 . S
C404 C409 1.413 . S
C405 C404 1.348 . S
C405 C406 1.442 . S
C405 H432 0.930 . S
C406 C405 1.442 . S
C406 C407 1.381 . S
C406 H433 0.931 . S
C407 C406 1.381 . S
C407 C408 1.321 . S
C408 C407 1.321 . S
C408 C409 1.403 . S
C408 H434 0.934 . S
C409 C404 1.413 . S
C409 C408 1.403 . S
C409 H435 0.930 . S
C410 O424 1.275 . S
C410 O425 1.256 . S
C411 O426 1.259 . S
C411 O427 1.268 . S
C412 Ho401 2.811 . S
C412 C413 1.488 . S
C412 O428 1.215 . S
C412 O429 1.289 . S
C413 C412 1.488 . S
C413 C414 1.348 . S
C413 C418 1.413 . S
C414 C413 1.348 . S
C414 C415 1.442 . S
C414 H436 0.930 . S
C415 C414 1.442 . S
C415 C416 1.381 . S
C415 H437 0.931 . S
C416 C415 1.381 . S
C416 C417 1.321 . S
C417 C416 1.321 . S
C417 C418 1.403 . S
C417 H438 0.934 . S
C418 C413 1.413 . S
C418 C417 1.403 . S
C418 H439 0.930 . S
C419 O430 1.275 . S
C419 O431 1.256 . S
O420 Ho400 2.322 . S
O420 C402 1.259 . S
O421 Ho401 2.346 . S
O421 C402 1.268 . S
O422 Ho400 2.378 . S
O422 C403 1.215 . S
O423 Ho400 2.524 . S
O423 C403 1.289 . S
O424 Ho400 2.381 . S
O424 C410 1.275 . S
O425 Ho400 2.669 . S
O425 Ho401 2.305 . S
O425 C410 1.256 . S
O426 Ho401 2.322 . S
O426 C411 1.259 . S
O427 Ho400 2.346 . S
O427 C411 1.268 . S
O428 Ho401 2.378 . S
O428 C412 1.215 . S
O429 Ho401 2.524 . S
O429 C412 1.289 . S
O430 Ho401 2.381 . S
O430 C419 1.275 . S
O431 Ho400 2.305 . S
O431 Ho401 2.669 . S
O431 C419 1.256 . S
H432 C405 0.930 . S
H433 C406 0.931 . S
H434 C408 0.934 . S
H435 C409 0.930 . S
H436 C414 0.930 . S
H437 C415 0.931 . S
H438 C417 0.934 . S
H439 C418 0.930 . S
Ho440 C443 2.811 1_545 S
Ho440 O460 2.322 1_545 S
Ho440 O462 2.378 1_545 S
Ho440 O463 2.524 1_545 S
Ho440 O464 2.381 . S
Ho440 O465 2.669 . S
Ho440 O467 2.346 . S
Ho440 O471 2.305 . S
Ho441 C452 2.811 . S
Ho441 O461 2.346 . S
Ho441 O465 2.305 . S
Ho441 O466 2.322 . S
Ho441 O468 2.378 . S
Ho441 O469 2.524 . S
Ho441 O470 2.381 . S
Ho441 O471 2.669 . S
C442 O460 1.259 . S
C442 O461 1.268 1_565 S
C443 Ho440 2.811 1_565 S
C443 C444 1.488 . S
C443 O462 1.215 . S
C443 O463 1.289 . S
C444 C443 1.488 . S
C444 C445 1.348 . S
C444 C449 1.413 . S
C445 C444 1.348 . S
C445 C446 1.442 . S
C445 H472 0.930 . S
C446 C445 1.442 . S
C446 C447 1.381 . S
C446 H473 0.931 . S
C447 C446 1.381 . S
C447 C448 1.321 . S
C448 C447 1.321 . S
C448 C449 1.403 . S
C448 H474 0.934 . S
C449 C444 1.413 . S
C449 C448 1.403 . S
C449 H475 0.930 . S
C450 O464 1.275 . S
C450 O465 1.256 . S
C451 O466 1.259 . S
C451 O467 1.268 . S
C452 Ho441 2.811 . S
C452 C453 1.488 . S
C452 O468 1.215 . S
C452 O469 1.289 . S
C453 C452 1.488 . S
C453 C454 1.348 . S
C453 C458 1.413 . S
C454 C453 1.348 . S
C454 C455 1.442 . S
C454 H476 0.930 . S
C455 C454 1.442 . S
C455 C456 1.381 . S
C455 H477 0.931 . S
C456 C455 1.381 . S
C456 C457 1.321 . S
C457 C456 1.321 . S
C457 C458 1.403 . S
C457 H478 0.934 . S
C458 C453 1.413 . S
C458 C457 1.403 . S
C458 H479 0.930 . S
C459 O470 1.275 . S
C459 O471 1.256 . S
O460 Ho440 2.322 1_565 S
O460 C442 1.259 . S
O461 Ho441 2.346 . S
O461 C442 1.268 1_545 S
O462 Ho440 2.378 1_565 S
O462 C443 1.215 . S
O463 Ho440 2.524 1_565 S
O463 C443 1.289 . S
O464 Ho440 2.381 . S
O464 C450 1.275 . S
O465 Ho440 2.669 . S
O465 Ho441 2.305 . S
O465 C450 1.256 . S
O466 Ho441 2.322 . S
O466 C451 1.259 . S
O467 Ho440 2.346 . S
O467 C451 1.268 . S
O468 Ho441 2.378 . S
O468 C452 1.215 . S
O469 Ho441 2.524 . S
O469 C452 1.289 . S
O470 Ho441 2.381 . S
O470 C459 1.275 . S
O471 Ho440 2.305 . S
O471 Ho441 2.669 . S
O471 C459 1.256 . S
H472 C445 0.930 . S
H473 C446 0.931 . S
H474 C448 0.934 . S
H475 C449 0.930 . S
H476 C454 0.930 . S
H477 C455 0.931 . S
H478 C457 0.934 . S
H479 C458 0.930 . S
Ho480 C483 2.811 . S
Ho480 O500 2.322 . S
Ho480 O502 2.378 . S
Ho480 O503 2.524 . S
Ho480 O504 2.381 . S
Ho480 O505 2.669 . S
Ho480 O507 2.346 . S
Ho480 O511 2.305 . S
Ho481 C492 2.811 . S
Ho481 O501 2.346 . S
Ho481 O505 2.305 . S
Ho481 O506 2.322 . S
Ho481 O508 2.378 . S
Ho481 O509 2.524 . S
Ho481 O510 2.381 . S
Ho481 O511 2.669 . S
C482 O500 1.259 . S
C482 O501 1.268 . S
C483 Ho480 2.811 . S
C483 C484 1.488 . S
C483 O502 1.215 . S
C483 O503 1.289 . S
C484 C483 1.488 . S
C484 C485 1.348 . S
C484 C489 1.413 . S
C485 C484 1.348 . S
C485 C486 1.442 . S
C485 H512 0.930 . S
C486 C485 1.442 . S
C486 C487 1.381 . S
C486 H513 0.931 . S
C487 C486 1.381 . S
C487 C488 1.321 . S
C488 C487 1.321 . S
C488 C489 1.403 . S
C488 H514 0.934 . S
C489 C484 1.413 . S
C489 C488 1.403 . S
C489 H515 0.930 . S
C490 O504 1.275 . S
C490 O505 1.256 . S
C491 O506 1.259 . S
C491 O507 1.268 . S
C492 Ho481 2.811 . S
C492 C493 1.488 . S
C492 O508 1.215 . S
C492 O509 1.289 . S
C493 C492 1.488 . S
C493 C494 1.348 . S
C493 C498 1.413 . S
C494 C493 1.348 . S
C494 C495 1.442 . S
C494 H516 0.930 . S
C495 C494 1.442 . S
C495 C496 1.381 . S
C495 H517 0.931 . S
C496 C495 1.381 . S
C496 C497 1.321 . S
C497 C496 1.321 . S
C497 C498 1.403 . S
C497 H518 0.934 . S
C498 C493 1.413 . S
C498 C497 1.403 . S
C498 H519 0.930 . S
C499 O510 1.275 . S
C499 O511 1.256 . S
O500 Ho480 2.322 . S
O500 C482 1.259 . S
O501 Ho481 2.346 . S
O501 C482 1.268 . S
O502 Ho480 2.378 . S
O502 C483 1.215 . S
O503 Ho480 2.524 . S
O503 C483 1.289 . S
O504 Ho480 2.381 . S
O504 C490 1.275 . S
O505 Ho480 2.669 . S
O505 Ho481 2.305 . S
O505 C490 1.256 . S
O506 Ho481 2.322 . S
O506 C491 1.259 . S
O507 Ho480 2.346 . S
O507 C491 1.268 . S
O508 Ho481 2.378 . S
O508 C492 1.215 . S
O509 Ho481 2.524 . S
O509 C492 1.289 . S
O510 Ho481 2.381 . S
O510 C499 1.275 . S
O511 Ho480 2.305 . S
O511 Ho481 2.669 . S
O511 C499 1.256 . S
H512 C485 0.930 . S
H513 C486 0.931 . S
H514 C488 0.934 . S
H515 C489 0.930 . S
H516 C494 0.930 . S
H517 C495 0.931 . S
H518 C497 0.934 . S
H519 C498 0.930 . S
Ho520 C523 2.811 . S
Ho520 O540 2.322 . S
Ho520 O542 2.378 . S
Ho520 O543 2.524 . S
Ho520 O544 2.381 . S
Ho520 O545 2.669 . S
Ho520 O547 2.346 . S
Ho520 O551 2.305 . S
Ho521 C532 2.811 . S
Ho521 O541 2.346 . S
Ho521 O545 2.305 . S
Ho521 O546 2.322 . S
Ho521 O548 2.378 . S
Ho521 O549 2.524 . S
Ho521 O550 2.381 . S
Ho521 O551 2.669 . S
C522 O540 1.259 . S
C522 O541 1.268 . S
C523 Ho520 2.811 . S
C523 C524 1.488 . S
C523 O542 1.215 . S
C523 O543 1.289 . S
C524 C523 1.488 . S
C524 C525 1.348 . S
C524 C529 1.413 . S
C525 C524 1.348 . S
C525 C526 1.442 . S
C525 H552 0.930 . S
C526 C525 1.442 . S
C526 C527 1.381 . S
C526 H553 0.931 . S
C527 C526 1.381 . S
C527 C528 1.321 . S
C528 C527 1.321 . S
C528 C529 1.403 . S
C528 H554 0.934 . S
C529 C524 1.413 . S
C529 C528 1.403 . S
C529 H555 0.930 . S
C530 O544 1.275 . S
C530 O545 1.256 . S
C531 O546 1.259 . S
C531 O547 1.268 . S
C532 Ho521 2.811 . S
C532 C533 1.488 . S
C532 O548 1.215 . S
C532 O549 1.289 . S
C533 C532 1.488 . S
C533 C534 1.348 . S
C533 C538 1.413 . S
C534 C533 1.348 . S
C534 C535 1.442 . S
C534 H556 0.930 . S
C535 C534 1.442 . S
C535 C536 1.381 . S
C535 H557 0.931 . S
C536 C535 1.381 . S
C536 C537 1.321 . S
C537 C536 1.321 . S
C537 C538 1.403 . S
C537 H558 0.934 . S
C538 C533 1.413 . S
C538 C537 1.403 . S
C538 H559 0.930 . S
C539 O550 1.275 . S
C539 O551 1.256 . S
O540 Ho520 2.322 . S
O540 C522 1.259 . S
O541 Ho521 2.346 . S
O541 C522 1.268 . S
O542 Ho520 2.378 . S
O542 C523 1.215 . S
O543 Ho520 2.524 . S
O543 C523 1.289 . S
O544 Ho520 2.381 . S
O544 C530 1.275 . S
O545 Ho520 2.669 . S
O545 Ho521 2.305 . S
O545 C530 1.256 . S
O546 Ho521 2.322 . S
O546 C531 1.259 . S
O547 Ho520 2.346 . S
O547 C531 1.268 . S
O548 Ho521 2.378 . S
O548 C532 1.215 . S
O549 Ho521 2.524 . S
O549 C532 1.289 . S
O550 Ho521 2.381 . S
O550 C539 1.275 . S
O551 Ho520 2.305 . S
O551 Ho521 2.669 . S
O551 C539 1.256 . S
H552 C525 0.930 . S
H553 C526 0.931 . S
H554 C528 0.934 . S
H555 C529 0.930 . S
H556 C534 0.930 . S
H557 C535 0.931 . S
H558 C537 0.934 . S
H559 C538 0.930 . S
Ho560 C563 2.811 . S
Ho560 O580 2.322 . S
Ho560 O582 2.378 . S
Ho560 O583 2.524 . S
Ho560 O584 2.381 . S
Ho560 O585 2.669 . S
Ho560 O587 2.346 . S
Ho560 O591 2.305 . S
Ho561 C572 2.811 . S
Ho561 O581 2.346 . S
Ho561 O585 2.305 . S
Ho561 O586 2.322 . S
Ho561 O588 2.378 . S
Ho561 O589 2.524 . S
Ho561 O590 2.381 . S
Ho561 O591 2.669 . S
C562 O580 1.259 . S
C562 O581 1.268 . S
C563 Ho560 2.811 . S
C563 C564 1.488 . S
C563 O582 1.215 . S
C563 O583 1.289 . S
C564 C563 1.488 . S
C564 C565 1.348 . S
C564 C569 1.413 . S
C565 C564 1.348 . S
C565 C566 1.442 . S
C565 H592 0.930 . S
C566 C565 1.442 . S
C566 C567 1.381 . S
C566 H593 0.931 . S
C567 C566 1.381 . S
C567 C568 1.321 . S
C568 C567 1.321 . S
C568 C569 1.403 . S
C568 H594 0.934 . S
C569 C564 1.413 . S
C569 C568 1.403 . S
C569 H595 0.930 . S
C570 O584 1.275 . S
C570 O585 1.256 . S
C571 O586 1.259 . S
C571 O587 1.268 . S
C572 Ho561 2.811 . S
C572 C573 1.488 . S
C572 O588 1.215 . S
C572 O589 1.289 . S
C573 C572 1.488 . S
C573 C574 1.348 . S
C573 C578 1.413 . S
C574 C573 1.348 . S
C574 C575 1.442 . S
C574 H596 0.930 . S
C575 C574 1.442 . S
C575 C576 1.381 . S
C575 H597 0.931 . S
C576 C575 1.381 . S
C576 C577 1.321 . S
C577 C576 1.321 . S
C577 C578 1.403 . S
C577 H598 0.934 . S
C578 C573 1.413 . S
C578 C577 1.403 . S
C578 H599 0.930 . S
C579 O590 1.275 . S
C579 O591 1.256 . S
O580 Ho560 2.322 . S
O580 C562 1.259 . S
O581 Ho561 2.346 . S
O581 C562 1.268 . S
O582 Ho560 2.378 . S
O582 C563 1.215 . S
O583 Ho560 2.524 . S
O583 C563 1.289 . S
O584 Ho560 2.381 . S
O584 C570 1.275 . S
O585 Ho560 2.669 . S
O585 Ho561 2.305 . S
O585 C570 1.256 . S
O586 Ho561 2.322 . S
O586 C571 1.259 . S
O587 Ho560 2.346 . S
O587 C571 1.268 . S
O588 Ho561 2.378 . S
O588 C572 1.215 . S
O589 Ho561 2.524 . S
O589 C572 1.289 . S
O590 Ho561 2.381 . S
O590 C579 1.275 . S
O591 Ho560 2.305 . S
O591 Ho561 2.669 . S
O591 C579 1.256 . S
H592 C565 0.930 . S
H593 C566 0.931 . S
H594 C568 0.934 . S
H595 C569 0.930 . S
H596 C574 0.930 . S
H597 C575 0.931 . S
H598 C577 0.934 . S
H599 C578 0.930 . S
Ho600 C603 2.811 . S
Ho600 O620 2.322 . S
Ho600 O622 2.378 . S
Ho600 O623 2.524 . S
Ho600 O624 2.381 . S
Ho600 O625 2.669 . S
Ho600 O627 2.346 . S
Ho600 O631 2.305 . S
Ho601 C612 2.811 . S
Ho601 O621 2.346 . S
Ho601 O625 2.305 . S
Ho601 O626 2.322 . S
Ho601 O628 2.378 . S
Ho601 O629 2.524 . S
Ho601 O630 2.381 . S
Ho601 O631 2.669 . S
C602 O620 1.259 . S
C602 O621 1.268 . S
C603 Ho600 2.811 . S
C603 C604 1.488 . S
C603 O622 1.215 . S
C603 O623 1.289 . S
C604 C603 1.488 . S
C604 C605 1.348 . S
C604 C609 1.413 . S
C605 C604 1.348 . S
C605 C606 1.442 . S
C605 H632 0.930 . S
C606 C605 1.442 . S
C606 C607 1.381 . S
C606 H633 0.931 . S
C607 C606 1.381 . S
C607 C608 1.321 . S
C608 C607 1.321 . S
C608 C609 1.403 . S
C608 H634 0.934 . S
C609 C604 1.413 . S
C609 C608 1.403 . S
C609 H635 0.930 . S
C610 O624 1.275 . S
C610 O625 1.256 . S
C611 O626 1.259 . S
C611 O627 1.268 . S
C612 Ho601 2.811 . S
C612 C613 1.488 . S
C612 O628 1.215 . S
C612 O629 1.289 . S
C613 C612 1.488 . S
C613 C614 1.348 . S
C613 C618 1.413 . S
C614 C613 1.348 . S
C614 C615 1.442 . S
C614 H636 0.930 . S
C615 C614 1.442 . S
C615 C616 1.381 . S
C615 H637 0.931 . S
C616 C615 1.381 . S
C616 C617 1.321 . S
C617 C616 1.321 . S
C617 C618 1.403 . S
C617 H638 0.934 . S
C618 C613 1.413 . S
C618 C617 1.403 . S
C618 H639 0.930 . S
C619 O630 1.275 . S
C619 O631 1.256 . S
O620 Ho600 2.322 . S
O620 C602 1.259 . S
O621 Ho601 2.346 . S
O621 C602 1.268 . S
O622 Ho600 2.378 . S
O622 C603 1.215 . S
O623 Ho600 2.524 . S
O623 C603 1.289 . S
O624 Ho600 2.381 . S
O624 C610 1.275 . S
O625 Ho600 2.669 . S
O625 Ho601 2.305 . S
O625 C610 1.256 . S
O626 Ho601 2.322 . S
O626 C611 1.259 . S
O627 Ho600 2.346 . S
O627 C611 1.268 . S
O628 Ho601 2.378 . S
O628 C612 1.215 . S
O629 Ho601 2.524 . S
O629 C612 1.289 . S
O630 Ho601 2.381 . S
O630 C619 1.275 . S
O631 Ho600 2.305 . S
O631 Ho601 2.669 . S
O631 C619 1.256 . S
H632 C605 0.930 . S
H633 C606 0.931 . S
H634 C608 0.934 . S
H635 C609 0.930 . S
H636 C614 0.930 . S
H637 C615 0.931 . S
H638 C617 0.934 . S
H639 C618 0.930 . S
Ho640 C643 2.811 . S
Ho640 O660 2.322 . S
Ho640 O662 2.378 . S
Ho640 O663 2.524 . S
Ho640 O664 2.381 . S
Ho640 O665 2.669 . S
Ho640 O667 2.346 . S
Ho640 O671 2.305 . S
Ho641 C652 2.811 . S
Ho641 O661 2.346 . S
Ho641 O665 2.305 . S
Ho641 O666 2.322 . S
Ho641 O668 2.378 . S
Ho641 O669 2.524 . S
Ho641 O670 2.381 . S
Ho641 O671 2.669 . S
C642 O660 1.259 . S
C642 O661 1.268 . S
C643 Ho640 2.811 . S
C643 C644 1.488 1_565 S
C643 O662 1.215 . S
C643 O663 1.289 . S
C644 C643 1.488 1_545 S
C644 C645 1.348 . S
C644 C649 1.413 . S
C645 C644 1.348 . S
C645 C646 1.442 . S
C645 H672 0.930 . S
C646 C645 1.442 . S
C646 C647 1.381 . S
C646 H673 0.931 . S
C647 C646 1.381 . S
C647 C648 1.321 . S
C648 C647 1.321 . S
C648 C649 1.403 . S
C648 H674 0.934 . S
C649 C644 1.413 . S
C649 C648 1.403 . S
C649 H675 0.930 . S
C650 O664 1.275 . S
C650 O665 1.256 . S
C651 O666 1.259 . S
C651 O667 1.268 . S
C652 Ho641 2.811 . S
C652 C653 1.488 . S
C652 O668 1.215 . S
C652 O669 1.289 . S
C653 C652 1.488 . S
C653 C654 1.348 . S
C653 C658 1.413 . S
C654 C653 1.348 . S
C654 C655 1.442 . S
C654 H676 0.930 . S
C655 C654 1.442 . S
C655 C656 1.381 . S
C655 H677 0.931 . S
C656 C655 1.381 . S
C656 C657 1.321 . S
C657 C656 1.321 . S
C657 C658 1.403 . S
C657 H678 0.934 . S
C658 C653 1.413 . S
C658 C657 1.403 . S
C658 H679 0.930 . S
C659 O670 1.275 . S
C659 O671 1.256 . S
O660 Ho640 2.322 . S
O660 C642 1.259 . S
O661 Ho641 2.346 . S
O661 C642 1.268 . S
O662 Ho640 2.378 . S
O662 C643 1.215 . S
O663 Ho640 2.524 . S
O663 C643 1.289 . S
O664 Ho640 2.381 . S
O664 C650 1.275 . S
O665 Ho640 2.669 . S
O665 Ho641 2.305 . S
O665 C650 1.256 . S
O666 Ho641 2.322 . S
O666 C651 1.259 . S
O667 Ho640 2.346 . S
O667 C651 1.268 . S
O668 Ho641 2.378 . S
O668 C652 1.215 . S
O669 Ho641 2.524 . S
O669 C652 1.289 . S
O670 Ho641 2.381 . S
O670 C659 1.275 . S
O671 Ho640 2.305 . S
O671 Ho641 2.669 . S
O671 C659 1.256 . S
H672 C645 0.930 . S
H673 C646 0.931 . S
H674 C648 0.934 . S
H675 C649 0.930 . S
H676 C654 0.930 . S
H677 C655 0.931 . S
H678 C657 0.934 . S
H679 C658 0.930 . S
Ho680 C683 2.811 . S
Ho680 O700 2.322 . S
Ho680 O702 2.378 . S
Ho680 O703 2.524 . S
Ho680 O704 2.381 . S
Ho680 O705 2.669 . S
Ho680 O707 2.346 . S
Ho680 O711 2.305 . S
Ho681 C692 2.811 . S
Ho681 O701 2.346 . S
Ho681 O705 2.305 . S
Ho681 O706 2.322 . S
Ho681 O708 2.378 . S
Ho681 O709 2.524 . S
Ho681 O710 2.381 . S
Ho681 O711 2.669 . S
C682 O700 1.259 . S
C682 O701 1.268 . S
C683 Ho680 2.811 . S
C683 C684 1.488 . S
C683 O702 1.215 . S
C683 O703 1.289 . S
C684 C683 1.488 . S
C684 C685 1.348 . S
C684 C689 1.413 . S
C685 C684 1.348 . S
C685 C686 1.442 . S
C685 H712 0.930 . S
C686 C685 1.442 . S
C686 C687 1.381 . S
C686 H713 0.931 . S
C687 C686 1.381 . S
C687 C688 1.321 . S
C688 C687 1.321 . S
C688 C689 1.403 . S
C688 H714 0.934 . S
C689 C684 1.413 . S
C689 C688 1.403 . S
C689 H715 0.930 . S
C690 O704 1.275 . S
C690 O705 1.256 . S
C691 O706 1.259 . S
C691 O707 1.268 . S
C692 Ho681 2.811 . S
C692 C693 1.488 . S
C692 O708 1.215 . S
C692 O709 1.289 . S
C693 C692 1.488 . S
C693 C694 1.348 . S
C693 C698 1.413 . S
C694 C693 1.348 . S
C694 C695 1.442 . S
C694 H716 0.930 . S
C695 C694 1.442 . S
C695 C696 1.381 . S
C695 H717 0.931 . S
C696 C695 1.381 . S
C696 C697 1.321 . S
C697 C696 1.321 . S
C697 C698 1.403 . S
C697 H718 0.934 . S
C698 C693 1.413 . S
C698 C697 1.403 . S
C698 H719 0.930 . S
C699 O710 1.275 . S
C699 O711 1.256 . S
O700 Ho680 2.322 . S
O700 C682 1.259 . S
O701 Ho681 2.346 . S
O701 C682 1.268 . S
O702 Ho680 2.378 . S
O702 C683 1.215 . S
O703 Ho680 2.524 . S
O703 C683 1.289 . S
O704 Ho680 2.381 . S
O704 C690 1.275 . S
O705 Ho680 2.669 . S
O705 Ho681 2.305 . S
O705 C690 1.256 . S
O706 Ho681 2.322 . S
O706 C691 1.259 . S
O707 Ho680 2.346 . S
O707 C691 1.268 . S
O708 Ho681 2.378 . S
O708 C692 1.215 . S
O709 Ho681 2.524 . S
O709 C692 1.289 . S
O710 Ho681 2.381 . S
O710 C699 1.275 . S
O711 Ho680 2.305 . S
O711 Ho681 2.669 . S
O711 C699 1.256 . S
H712 C685 0.930 . S
H713 C686 0.931 . S
H714 C688 0.934 . S
H715 C689 0.930 . S
H716 C694 0.930 . S
H717 C695 0.931 . S
H718 C697 0.934 . S
H719 C698 0.930 . S
Ho720 C723 2.811 . S
Ho720 O740 2.322 . S
Ho720 O742 2.378 . S
Ho720 O743 2.524 . S
Ho720 O744 2.381 . S
Ho720 O745 2.669 . S
Ho720 O747 2.346 . S
Ho720 O751 2.305 . S
Ho721 C732 2.811 . S
Ho721 O741 2.346 . S
Ho721 O745 2.305 . S
Ho721 O746 2.322 . S
Ho721 O748 2.378 . S
Ho721 O749 2.524 . S
Ho721 O750 2.381 . S
Ho721 O751 2.669 . S
C722 O740 1.259 . S
C722 O741 1.268 . S
C723 Ho720 2.811 . S
C723 C724 1.488 . S
C723 O742 1.215 . S
C723 O743 1.289 . S
C724 C723 1.488 . S
C724 C725 1.348 . S
C724 C729 1.413 . S
C725 C724 1.348 . S
C725 C726 1.442 . S
C725 H752 0.930 . S
C726 C725 1.442 . S
C726 C727 1.381 . S
C726 H753 0.931 . S
C727 C726 1.381 . S
C727 C728 1.321 . S
C728 C727 1.321 . S
C728 C729 1.403 . S
C728 H754 0.934 . S
C729 C724 1.413 . S
C729 C728 1.403 . S
C729 H755 0.930 . S
C730 O744 1.275 . S
C730 O745 1.256 . S
C731 O746 1.259 . S
C731 O747 1.268 . S
C732 Ho721 2.811 . S
C732 C733 1.488 . S
C732 O748 1.215 . S
C732 O749 1.289 . S
C733 C732 1.488 . S
C733 C734 1.348 . S
C733 C738 1.413 . S
C734 C733 1.348 . S
C734 C735 1.442 . S
C734 H756 0.930 . S
C735 C734 1.442 . S
C735 C736 1.381 . S
C735 H757 0.931 . S
C736 C735 1.381 . S
C736 C737 1.321 . S
C737 C736 1.321 . S
C737 C738 1.403 . S
C737 H758 0.934 . S
C738 C733 1.413 . S
C738 C737 1.403 . S
C738 H759 0.930 . S
C739 O750 1.275 . S
C739 O751 1.256 . S
O740 Ho720 2.322 . S
O740 C722 1.259 . S
O741 Ho721 2.346 . S
O741 C722 1.268 . S
O742 Ho720 2.378 . S
O742 C723 1.215 . S
O743 Ho720 2.524 . S
O743 C723 1.289 . S
O744 Ho720 2.381 . S
O744 C730 1.275 . S
O745 Ho720 2.669 . S
O745 Ho721 2.305 . S
O745 C730 1.256 . S
O746 Ho721 2.322 . S
O746 C731 1.259 . S
O747 Ho720 2.346 . S
O747 C731 1.268 . S
O748 Ho721 2.378 . S
O748 C732 1.215 . S
O749 Ho721 2.524 . S
O749 C732 1.289 . S
O750 Ho721 2.381 . S
O750 C739 1.275 . S
O751 Ho720 2.305 . S
O751 Ho721 2.669 . S
O751 C739 1.256 . S
H752 C725 0.930 . S
H753 C726 0.931 . S
H754 C728 0.934 . S
H755 C729 0.930 . S
H756 C734 0.930 . S
H757 C735 0.931 . S
H758 C737 0.934 . S
H759 C738 0.930 . S
Ho760 C763 2.811 . S
Ho760 O780 2.322 . S
Ho760 O782 2.378 . S
Ho760 O783 2.524 . S
Ho760 O784 2.381 . S
Ho760 O785 2.669 . S
Ho760 O787 2.346 . S
Ho760 O791 2.305 . S
Ho761 C772 2.811 . S
Ho761 O781 2.346 . S
Ho761 O785 2.305 . S
Ho761 O786 2.322 . S
Ho761 O788 2.378 . S
Ho761 O789 2.524 . S
Ho761 O790 2.381 . S
Ho761 O791 2.669 . S
C762 O780 1.259 . S
C762 O781 1.268 . S
C763 Ho760 2.811 . S
C763 C764 1.488 . S
C763 O782 1.215 . S
C763 O783 1.289 . S
C764 C763 1.488 . S
C764 C765 1.348 . S
C764 C769 1.413 . S
C765 C764 1.348 . S
C765 C766 1.442 . S
C765 H792 0.930 . S
C766 C765 1.442 . S
C766 C767 1.381 . S
C766 H793 0.931 . S
C767 C766 1.381 . S
C767 C768 1.321 . S
C768 C767 1.321 . S
C768 C769 1.403 . S
C768 H794 0.934 . S
C769 C764 1.413 . S
C769 C768 1.403 . S
C769 H795 0.930 . S
C770 O784 1.275 . S
C770 O785 1.256 . S
C771 O786 1.259 . S
C771 O787 1.268 . S
C772 Ho761 2.811 . S
C772 C773 1.488 1_565 S
C772 O788 1.215 . S
C772 O789 1.289 . S
C773 C772 1.488 1_545 S
C773 C774 1.348 . S
C773 C778 1.413 . S
C774 C773 1.348 . S
C774 C775 1.442 . S
C774 H796 0.930 . S
C775 C774 1.442 . S
C775 C776 1.381 . S
C775 H797 0.931 . S
C776 C775 1.381 . S
C776 C777 1.321 . S
C777 C776 1.321 . S
C777 C778 1.403 . S
C777 H798 0.934 . S
C778 C773 1.413 . S
C778 C777 1.403 . S
C778 H799 0.930 . S
C779 O790 1.275 . S
C779 O791 1.256 . S
O780 Ho760 2.322 . S
O780 C762 1.259 . S
O781 Ho761 2.346 . S
O781 C762 1.268 . S
O782 Ho760 2.378 . S
O782 C763 1.215 . S
O783 Ho760 2.524 . S
O783 C763 1.289 . S
O784 Ho760 2.381 . S
O784 C770 1.275 . S
O785 Ho760 2.669 . S
O785 Ho761 2.305 . S
O785 C770 1.256 . S
O786 Ho761 2.322 . S
O786 C771 1.259 . S
O787 Ho760 2.346 . S
O787 C771 1.268 . S
O788 Ho761 2.378 . S
O788 C772 1.215 . S
O789 Ho761 2.524 . S
O789 C772 1.289 . S
O790 Ho761 2.381 . S
O790 C779 1.275 . S
O791 Ho760 2.305 . S
O791 Ho761 2.669 . S
O791 C779 1.256 . S
H792 C765 0.930 . S
H793 C766 0.931 . S
H794 C768 0.934 . S
H795 C769 0.930 . S
H796 C774 0.930 . S
H797 C775 0.931 . S
H798 C777 0.934 . S
H799 C778 0.930 . S
Ho800 C803 2.811 . S
Ho800 O820 2.322 . S
Ho800 O822 2.378 . S
Ho800 O823 2.524 . S
Ho800 O824 2.381 . S
Ho800 O825 2.669 . S
Ho800 O827 2.346 . S
Ho800 O831 2.305 . S
Ho801 C812 2.811 . S
Ho801 O821 2.346 . S
Ho801 O825 2.305 . S
Ho801 O826 2.322 . S
Ho801 O828 2.378 . S
Ho801 O829 2.524 . S
Ho801 O830 2.381 . S
Ho801 O831 2.669 . S
C802 O820 1.259 . S
C802 O821 1.268 . S
C803 Ho800 2.811 . S
C803 C804 1.488 . S
C803 O822 1.215 . S
C803 O823 1.289 . S
C804 C803 1.488 . S
C804 C805 1.348 . S
C804 C809 1.413 . S
C805 C804 1.348 . S
C805 C806 1.442 . S
C805 H832 0.930 . S
C806 C805 1.442 . S
C806 C807 1.381 . S
C806 H833 0.931 . S
C807 C806 1.381 . S
C807 C808 1.321 . S
C808 C807 1.321 . S
C808 C809 1.403 . S
C808 H834 0.934 . S
C809 C804 1.413 . S
C809 C808 1.403 . S
C809 H835 0.930 . S
C810 O824 1.275 . S
C810 O825 1.256 . S
C811 O826 1.259 . S
C811 O827 1.268 . S
C812 Ho801 2.811 . S
C812 C813 1.488 . S
C812 O828 1.215 . S
C812 O829 1.289 . S
C813 C812 1.488 . S
C813 C814 1.348 . S
C813 C818 1.413 . S
C814 C813 1.348 . S
C814 C815 1.442 . S
C814 H836 0.930 . S
C815 C814 1.442 . S
C815 C816 1.381 . S
C815 H837 0.931 . S
C816 C815 1.381 . S
C816 C817 1.321 . S
C817 C816 1.321 . S
C817 C818 1.403 . S
C817 H838 0.934 . S
C818 C813 1.413 . S
C818 C817 1.403 . S
C818 H839 0.930 . S
C819 O830 1.275 . S
C819 O831 1.256 . S
O820 Ho800 2.322 . S
O820 C802 1.259 . S
O821 Ho801 2.346 . S
O821 C802 1.268 . S
O822 Ho800 2.378 . S
O822 C803 1.215 . S
O823 Ho800 2.524 . S
O823 C803 1.289 . S
O824 Ho800 2.381 . S
O824 C810 1.275 . S
O825 Ho800 2.669 . S
O825 Ho801 2.305 . S
O825 C810 1.256 . S
O826 Ho801 2.322 . S
O826 C811 1.259 . S
O827 Ho800 2.346 . S
O827 C811 1.268 . S
O828 Ho801 2.378 . S
O828 C812 1.215 . S
O829 Ho801 2.524 . S
O829 C812 1.289 . S
O830 Ho801 2.381 . S
O830 C819 1.275 . S
O831 Ho800 2.305 . S
O831 Ho801 2.669 . S
O831 C819 1.256 . S
H832 C805 0.930 . S
H833 C806 0.931 . S
H834 C808 0.934 . S
H835 C809 0.930 . S
H836 C814 0.930 . S
H837 C815 0.931 . S
H838 C817 0.934 . S
H839 C818 0.930 . S
Ho840 C843 2.811 . S
Ho840 O860 2.322 . S
Ho840 O862 2.378 . S
Ho840 O863 2.524 . S
Ho840 O864 2.381 . S
Ho840 O865 2.669 . S
Ho840 O867 2.346 . S
Ho840 O871 2.305 . S
Ho841 C852 2.811 . S
Ho841 O861 2.346 . S
Ho841 O865 2.305 . S
Ho841 O866 2.322 . S
Ho841 O868 2.378 . S
Ho841 O869 2.524 . S
Ho841 O870 2.381 . S
Ho841 O871 2.669 . S
C842 O860 1.259 . S
C842 O861 1.268 . S
C843 Ho840 2.811 . S
C843 C844 1.488 . S
C843 O862 1.215 . S
C843 O863 1.289 . S
C844 C843 1.488 . S
C844 C845 1.348 . S
C844 C849 1.413 . S
C845 C844 1.348 . S
C845 C846 1.442 . S
C845 H872 0.930 . S
C846 C845 1.442 . S
C846 C847 1.381 . S
C846 H873 0.931 . S
C847 C846 1.381 . S
C847 C848 1.321 . S
C848 C847 1.321 . S
C848 C849 1.403 . S
C848 H874 0.934 . S
C849 C844 1.413 . S
C849 C848 1.403 . S
C849 H875 0.930 . S
C850 O864 1.275 . S
C850 O865 1.256 . S
C851 O866 1.259 . S
C851 O867 1.268 . S
C852 Ho841 2.811 . S
C852 C853 1.488 . S
C852 O868 1.215 . S
C852 O869 1.289 . S
C853 C852 1.488 . S
C853 C854 1.348 . S
C853 C858 1.413 . S
C854 C853 1.348 . S
C854 C855 1.442 . S
C854 H876 0.930 . S
C855 C854 1.442 . S
C855 C856 1.381 . S
C855 H877 0.931 . S
C856 C855 1.381 . S
C856 C857 1.321 . S
C857 C856 1.321 . S
C857 C858 1.403 . S
C857 H878 0.934 . S
C858 C853 1.413 . S
C858 C857 1.403 . S
C858 H879 0.930 . S
C859 O870 1.275 . S
C859 O871 1.256 . S
O860 Ho840 2.322 . S
O860 C842 1.259 . S
O861 Ho841 2.346 . S
O861 C842 1.268 . S
O862 Ho840 2.378 . S
O862 C843 1.215 . S
O863 Ho840 2.524 . S
O863 C843 1.289 . S
O864 Ho840 2.381 . S
O864 C850 1.275 . S
O865 Ho840 2.669 . S
O865 Ho841 2.305 . S
O865 C850 1.256 . S
O866 Ho841 2.322 . S
O866 C851 1.259 . S
O867 Ho840 2.346 . S
O867 C851 1.268 . S
O868 Ho841 2.378 . S
O868 C852 1.215 . S
O869 Ho841 2.524 . S
O869 C852 1.289 . S
O870 Ho841 2.381 . S
O870 C859 1.275 . S
O871 Ho840 2.305 . S
O871 Ho841 2.669 . S
O871 C859 1.256 . S
H872 C845 0.930 . S
H873 C846 0.931 . S
H874 C848 0.934 . S
H875 C849 0.930 . S
H876 C854 0.930 . S
H877 C855 0.931 . S
H878 C857 0.934 . S
H879 C858 0.930 . S
Ho880 C883 2.811 . S
Ho880 O900 2.322 . S
Ho880 O902 2.378 . S
Ho880 O903 2.524 . S
Ho880 O904 2.381 . S
Ho880 O905 2.669 . S
Ho880 O907 2.346 . S
Ho880 O911 2.305 . S
Ho881 C892 2.811 . S
Ho881 O901 2.346 . S
Ho881 O905 2.305 . S
Ho881 O906 2.322 . S
Ho881 O908 2.378 . S
Ho881 O909 2.524 . S
Ho881 O910 2.381 . S
Ho881 O911 2.669 . S
C882 O900 1.259 . S
C882 O901 1.268 . S
C883 Ho880 2.811 . S
C883 C884 1.488 . S
C883 O902 1.215 . S
C883 O903 1.289 . S
C884 C883 1.488 . S
C884 C885 1.348 . S
C884 C889 1.413 . S
C885 C884 1.348 . S
C885 C886 1.442 . S
C885 H912 0.930 . S
C886 C885 1.442 . S
C886 C887 1.381 . S
C886 H913 0.931 . S
C887 C886 1.381 . S
C887 C888 1.321 . S
C888 C887 1.321 . S
C888 C889 1.403 . S
C888 H914 0.934 . S
C889 C884 1.413 . S
C889 C888 1.403 . S
C889 H915 0.930 . S
C890 O904 1.275 . S
C890 O905 1.256 . S
C891 O906 1.259 . S
C891 O907 1.268 . S
C892 Ho881 2.811 . S
C892 C893 1.488 . S
C892 O908 1.215 . S
C892 O909 1.289 . S
C893 C892 1.488 . S
C893 C894 1.348 . S
C893 C898 1.413 . S
C894 C893 1.348 . S
C894 C895 1.442 . S
C894 H916 0.930 . S
C895 C894 1.442 . S
C895 C896 1.381 . S
C895 H917 0.931 . S
C896 C895 1.381 . S
C896 C897 1.321 . S
C897 C896 1.321 . S
C897 C898 1.403 . S
C897 H918 0.934 . S
C898 C893 1.413 . S
C898 C897 1.403 . S
C898 H919 0.930 . S
C899 O910 1.275 . S
C899 O911 1.256 . S
O900 Ho880 2.322 . S
O900 C882 1.259 . S
O901 Ho881 2.346 . S
O901 C882 1.268 . S
O902 Ho880 2.378 . S
O902 C883 1.215 . S
O903 Ho880 2.524 . S
O903 C883 1.289 . S
O904 Ho880 2.381 . S
O904 C890 1.275 . S
O905 Ho880 2.669 . S
O905 Ho881 2.305 . S
O905 C890 1.256 . S
O906 Ho881 2.322 . S
O906 C891 1.259 . S
O907 Ho880 2.346 . S
O907 C891 1.268 . S
O908 Ho881 2.378 . S
O908 C892 1.215 . S
O909 Ho881 2.524 . S
O909 C892 1.289 . S
O910 Ho881 2.381 . S
O910 C899 1.275 . S
O911 Ho880 2.305 . S
O911 Ho881 2.669 . S
O911 C899 1.256 . S
H912 C885 0.930 . S
H913 C886 0.931 . S
H914 C888 0.934 . S
H915 C889 0.930 . S
H916 C894 0.930 . S
H917 C895 0.931 . S
H918 C897 0.934 . S
H919 C898 0.930 . S
Ho920 C923 2.811 . S
Ho920 O940 2.322 . S
Ho920 O942 2.378 . S
Ho920 O943 2.524 . S
Ho920 O944 2.381 . S
Ho920 O945 2.669 . S
Ho920 O947 2.346 . S
Ho920 O951 2.305 . S
Ho921 C932 2.811 . S
Ho921 O941 2.346 . S
Ho921 O945 2.305 . S
Ho921 O946 2.322 . S
Ho921 O948 2.378 . S
Ho921 O949 2.524 . S
Ho921 O950 2.381 . S
Ho921 O951 2.669 . S
C922 O940 1.259 . S
C922 O941 1.268 . S
C923 Ho920 2.811 . S
C923 C924 1.488 . S
C923 O942 1.215 . S
C923 O943 1.289 . S
C924 C923 1.488 . S
C924 C925 1.348 . S
C924 C929 1.413 . S
C925 C924 1.348 . S
C925 C926 1.442 . S
C925 H952 0.930 . S
C926 C925 1.442 . S
C926 C927 1.381 . S
C926 H953 0.931 . S
C927 C926 1.381 . S
C927 C928 1.321 . S
C928 C927 1.321 . S
C928 C929 1.403 . S
C928 H954 0.934 . S
C929 C924 1.413 . S
C929 C928 1.403 . S
C929 H955 0.930 . S
C930 O944 1.275 . S
C930 O945 1.256 . S
C931 O946 1.259 . S
C931 O947 1.268 . S
C932 Ho921 2.811 . S
C932 C933 1.488 . S
C932 O948 1.215 . S
C932 O949 1.289 . S
C933 C932 1.488 . S
C933 C934 1.348 . S
C933 C938 1.413 . S
C934 C933 1.348 . S
C934 C935 1.442 . S
C934 H956 0.930 . S
C935 C934 1.442 . S
C935 C936 1.381 . S
C935 H957 0.931 . S
C936 C935 1.381 . S
C936 C937 1.321 . S
C937 C936 1.321 . S
C937 C938 1.403 . S
C937 H958 0.934 . S
C938 C933 1.413 . S
C938 C937 1.403 . S
C938 H959 0.930 . S
C939 O950 1.275 . S
C939 O951 1.256 . S
O940 Ho920 2.322 . S
O940 C922 1.259 . S
O941 Ho921 2.346 . S
O941 C922 1.268 . S
O942 Ho920 2.378 . S
O942 C923 1.215 . S
O943 Ho920 2.524 . S
O943 C923 1.289 . S
O944 Ho920 2.381 . S
O944 C930 1.275 . S
O945 Ho920 2.669 . S
O945 Ho921 2.305 . S
O945 C930 1.256 . S
O946 Ho921 2.322 . S
O946 C931 1.259 . S
O947 Ho920 2.346 . S
O947 C931 1.268 . S
O948 Ho921 2.378 . S
O948 C932 1.215 . S
O949 Ho921 2.524 . S
O949 C932 1.289 . S
O950 Ho921 2.381 . S
O950 C939 1.275 . S
O951 Ho920 2.305 . S
O951 Ho921 2.669 . S
O951 C939 1.256 . S
H952 C925 0.930 . S
H953 C926 0.931 . S
H954 C928 0.934 . S
H955 C929 0.930 . S
H956 C934 0.930 . S
H957 C935 0.931 . S
H958 C937 0.934 . S
H959 C938 0.930 . S
Ho960 C963 2.811 . S
Ho960 O980 2.322 . S
Ho960 O982 2.378 . S
Ho960 O983 2.524 . S
Ho960 O984 2.381 . S
Ho960 O985 2.669 . S
Ho960 O987 2.346 . S
Ho960 O991 2.305 . S
Ho961 C972 2.811 . S
Ho961 O981 2.346 . S
Ho961 O985 2.305 . S
Ho961 O986 2.322 . S
Ho961 O988 2.378 . S
Ho961 O989 2.524 . S
Ho961 O990 2.381 . S
Ho961 O991 2.669 . S
C962 O980 1.259 . S
C962 O981 1.268 . S
C963 Ho960 2.811 . S
C963 C964 1.488 . S
C963 O982 1.215 . S
C963 O983 1.289 . S
C964 C963 1.488 . S
C964 C965 1.348 . S
C964 C969 1.413 . S
C965 C964 1.348 . S
C965 C966 1.442 . S
C965 H992 0.930 . S
C966 C965 1.442 . S
C966 C967 1.381 . S
C966 H993 0.931 . S
C967 C966 1.381 . S
C967 C968 1.321 . S
C968 C967 1.321 . S
C968 C969 1.403 . S
C968 H994 0.934 . S
C969 C964 1.413 . S
C969 C968 1.403 . S
C969 H995 0.930 . S
C970 O984 1.275 . S
C970 O985 1.256 . S
C971 O986 1.259 . S
C971 O987 1.268 . S
C972 Ho961 2.811 . S
C972 C973 1.488 . S
C972 O988 1.215 . S
C972 O989 1.289 . S
C973 C972 1.488 . S
C973 C974 1.348 . S
C973 C978 1.413 . S
C974 C973 1.348 . S
C974 C975 1.442 . S
C974 H996 0.930 . S
C975 C974 1.442 . S
C975 C976 1.381 . S
C975 H997 0.931 . S
C976 C975 1.381 . S
C976 C977 1.321 . S
C977 C976 1.321 . S
C977 C978 1.403 . S
C977 H998 0.934 . S
C978 C973 1.413 . S
C978 C977 1.403 . S
C978 H999 0.930 . S
C979 O990 1.275 . S
C979 O991 1.256 . S
O980 Ho960 2.322 . S
O980 C962 1.259 . S
O981 Ho961 2.346 . S
O981 C962 1.268 . S
O982 Ho960 2.378 . S
O982 C963 1.215 . S
O983 Ho960 2.524 . S
O983 C963 1.289 . S
O984 Ho960 2.381 . S
O984 C970 1.275 . S
O985 Ho960 2.669 . S
O985 Ho961 2.305 . S
O985 C970 1.256 . S
O986 Ho961 2.322 . S
O986 C971 1.259 . S
O987 Ho960 2.346 . S
O987 C971 1.268 . S
O988 Ho961 2.378 . S
O988 C972 1.215 . S
O989 Ho961 2.524 . S
O989 C972 1.289 . S
O990 Ho961 2.381 . S
O990 C979 1.275 . S
O991 Ho960 2.305 . S
O991 Ho961 2.669 . S
O991 C979 1.256 . S
H992 C965 0.930 . S
H993 C966 0.931 . S
H994 C968 0.934 . S
H995 C969 0.930 . S
H996 C974 0.930 . S
H997 C975 0.931 . S
H998 C977 0.934 . S
H999 C978 0.930 . S
Ho1000 C1003 2.811 . S
Ho1000 O1020 2.322 . S
Ho1000 O1022 2.378 . S
Ho1000 O1023 2.524 . S
Ho1000 O1024 2.381 . S
Ho1000 O1025 2.669 . S
Ho1000 O1027 2.346 . S
Ho1000 O1031 2.305 . S
Ho1001 C1012 2.811 . S
Ho1001 O1021 2.346 . S
Ho1001 O1025 2.305 . S
Ho1001 O1026 2.322 . S
Ho1001 O1028 2.378 . S
Ho1001 O1029 2.524 . S
Ho1001 O1030 2.381 . S
Ho1001 O1031 2.669 . S
C1002 O1020 1.259 . S
C1002 O1021 1.268 . S
C1003 Ho1000 2.811 . S
C1003 C1004 1.488 . S
C1003 O1022 1.215 . S
C1003 O1023 1.289 . S
C1004 C1003 1.488 . S
C1004 C1005 1.348 . S
C1004 C1009 1.413 . S
C1005 C1004 1.348 . S
C1005 C1006 1.442 . S
C1005 H1032 0.930 . S
C1006 C1005 1.442 . S
C1006 C1007 1.381 . S
C1006 H1033 0.931 . S
C1007 C1006 1.381 . S
C1007 C1008 1.321 . S
C1008 C1007 1.321 . S
C1008 C1009 1.403 . S
C1008 H1034 0.934 . S
C1009 C1004 1.413 . S
C1009 C1008 1.403 . S
C1009 H1035 0.930 . S
C1010 O1024 1.275 . S
C1010 O1025 1.256 . S
C1011 O1026 1.259 . S
C1011 O1027 1.268 . S
C1012 Ho1001 2.811 . S
C1012 C1013 1.488 . S
C1012 O1028 1.215 . S
C1012 O1029 1.289 . S
C1013 C1012 1.488 . S
C1013 C1014 1.348 . S
C1013 C1018 1.413 . S
C1014 C1013 1.348 . S
C1014 C1015 1.442 . S
C1014 H1036 0.930 . S
C1015 C1014 1.442 . S
C1015 C1016 1.381 . S
C1015 H1037 0.931 . S
C1016 C1015 1.381 . S
C1016 C1017 1.321 . S
C1017 C1016 1.321 . S
C1017 C1018 1.403 . S
C1017 H1038 0.934 . S
C1018 C1013 1.413 . S
C1018 C1017 1.403 . S
C1018 H1039 0.930 . S
C1019 O1030 1.275 . S
C1019 O1031 1.256 . S
O1020 Ho1000 2.322 . S
O1020 C1002 1.259 . S
O1021 Ho1001 2.346 . S
O1021 C1002 1.268 . S
O1022 Ho1000 2.378 . S
O1022 C1003 1.215 . S
O1023 Ho1000 2.524 . S
O1023 C1003 1.289 . S
O1024 Ho1000 2.381 . S
O1024 C1010 1.275 . S
O1025 Ho1000 2.669 . S
O1025 Ho1001 2.305 . S
O1025 C1010 1.256 . S
O1026 Ho1001 2.322 . S
O1026 C1011 1.259 . S
O1027 Ho1000 2.346 . S
O1027 C1011 1.268 . S
O1028 Ho1001 2.378 . S
O1028 C1012 1.215 . S
O1029 Ho1001 2.524 . S
O1029 C1012 1.289 . S
O1030 Ho1001 2.381 . S
O1030 C1019 1.275 . S
O1031 Ho1000 2.305 . S
O1031 Ho1001 2.669 . S
O1031 C1019 1.256 . S
H1032 C1005 0.930 . S
H1033 C1006 0.931 . S
H1034 C1008 0.934 . S
H1035 C1009 0.930 . S
H1036 C1014 0.930 . S
H1037 C1015 0.931 . S
H1038 C1017 0.934 . S
H1039 C1018 0.930 . S
Ho1040 C1043 2.811 . S
Ho1040 O1060 2.322 . S
Ho1040 O1062 2.378 . S
Ho1040 O1063 2.524 . S
Ho1040 O1064 2.381 . S
Ho1040 O1065 2.669 . S
Ho1040 O1067 2.346 . S
Ho1040 O1071 2.305 . S
Ho1041 C1052 2.811 . S
Ho1041 O1061 2.346 . S
Ho1041 O1065 2.305 . S
Ho1041 O1066 2.322 . S
Ho1041 O1068 2.378 . S
Ho1041 O1069 2.524 . S
Ho1041 O1070 2.381 . S
Ho1041 O1071 2.669 . S
C1042 O1060 1.259 . S
C1042 O1061 1.268 . S
C1043 Ho1040 2.811 . S
C1043 C1044 1.488 1_655 S
C1043 O1062 1.215 . S
C1043 O1063 1.289 . S
C1044 C1043 1.488 1_455 S
C1044 C1045 1.348 . S
C1044 C1049 1.413 . S
C1045 C1044 1.348 . S
C1045 C1046 1.442 . S
C1045 H1072 0.930 . S
C1046 C1045 1.442 . S
C1046 C1047 1.381 . S
C1046 H1073 0.931 . S
C1047 C1046 1.381 . S
C1047 C1048 1.321 . S
C1048 C1047 1.321 . S
C1048 C1049 1.403 . S
C1048 H1074 0.934 . S
C1049 C1044 1.413 . S
C1049 C1048 1.403 . S
C1049 H1075 0.930 . S
C1050 O1064 1.275 . S
C1050 O1065 1.256 . S
C1051 O1066 1.259 . S
C1051 O1067 1.268 . S
C1052 Ho1041 2.811 . S
C1052 C1053 1.488 . S
C1052 O1068 1.215 . S
C1052 O1069 1.289 . S
C1053 C1052 1.488 . S
C1053 C1054 1.348 . S
C1053 C1058 1.413 . S
C1054 C1053 1.348 . S
C1054 C1055 1.442 . S
C1054 H1076 0.930 . S
C1055 C1054 1.442 . S
C1055 C1056 1.381 . S
C1055 H1077 0.931 . S
C1056 C1055 1.381 . S
C1056 C1057 1.321 . S
C1057 C1056 1.321 . S
C1057 C1058 1.403 . S
C1057 H1078 0.934 . S
C1058 C1053 1.413 . S
C1058 C1057 1.403 . S
C1058 H1079 0.930 . S
C1059 O1070 1.275 . S
C1059 O1071 1.256 . S
O1060 Ho1040 2.322 . S
O1060 C1042 1.259 . S
O1061 Ho1041 2.346 . S
O1061 C1042 1.268 . S
O1062 Ho1040 2.378 . S
O1062 C1043 1.215 . S
O1063 Ho1040 2.524 . S
O1063 C1043 1.289 . S
O1064 Ho1040 2.381 . S
O1064 C1050 1.275 . S
O1065 Ho1040 2.669 . S
O1065 Ho1041 2.305 . S
O1065 C1050 1.256 . S
O1066 Ho1041 2.322 . S
O1066 C1051 1.259 . S
O1067 Ho1040 2.346 . S
O1067 C1051 1.268 . S
O1068 Ho1041 2.378 . S
O1068 C1052 1.215 . S
O1069 Ho1041 2.524 . S
O1069 C1052 1.289 . S
O1070 Ho1041 2.381 . S
O1070 C1059 1.275 . S
O1071 Ho1040 2.305 . S
O1071 Ho1041 2.669 . S
O1071 C1059 1.256 . S
H1072 C1045 0.930 . S
H1073 C1046 0.931 . S
H1074 C1048 0.934 . S
H1075 C1049 0.930 . S
H1076 C1054 0.930 . S
H1077 C1055 0.931 . S
H1078 C1057 0.934 . S
H1079 C1058 0.930 . S
Ho1080 C1083 2.811 . S
Ho1080 O1100 2.322 . S
Ho1080 O1102 2.378 . S
Ho1080 O1103 2.524 . S
Ho1080 O1104 2.381 . S
Ho1080 O1105 2.669 . S
Ho1080 O1107 2.346 . S
Ho1080 O1111 2.305 . S
Ho1081 C1092 2.811 . S
Ho1081 O1101 2.346 . S
Ho1081 O1105 2.305 . S
Ho1081 O1106 2.322 . S
Ho1081 O1108 2.378 . S
Ho1081 O1109 2.524 . S
Ho1081 O1110 2.381 . S
Ho1081 O1111 2.669 . S
C1082 O1100 1.259 . S
C1082 O1101 1.268 . S
C1083 Ho1080 2.811 . S
C1083 C1084 1.488 . S
C1083 O1102 1.215 . S
C1083 O1103 1.289 . S
C1084 C1083 1.488 . S
C1084 C1085 1.348 . S
C1084 C1089 1.413 . S
C1085 C1084 1.348 . S
C1085 C1086 1.442 . S
C1085 H1112 0.930 . S
C1086 C1085 1.442 . S
C1086 C1087 1.381 . S
C1086 H1113 0.931 . S
C1087 C1086 1.381 . S
C1087 C1088 1.321 . S
C1088 C1087 1.321 . S
C1088 C1089 1.403 . S
C1088 H1114 0.934 . S
C1089 C1084 1.413 . S
C1089 C1088 1.403 . S
C1089 H1115 0.930 . S
C1090 O1104 1.275 . S
C1090 O1105 1.256 . S
C1091 O1106 1.259 . S
C1091 O1107 1.268 . S
C1092 Ho1081 2.811 . S
C1092 C1093 1.488 . S
C1092 O1108 1.215 . S
C1092 O1109 1.289 . S
C1093 C1092 1.488 . S
C1093 C1094 1.348 . S
C1093 C1098 1.413 . S
C1094 C1093 1.348 . S
C1094 C1095 1.442 . S
C1094 H1116 0.930 . S
C1095 C1094 1.442 . S
C1095 C1096 1.381 . S
C1095 H1117 0.931 . S
C1096 C1095 1.381 . S
C1096 C1097 1.321 . S
C1097 C1096 1.321 . S
C1097 C1098 1.403 . S
C1097 H1118 0.934 . S
C1098 C1093 1.413 . S
C1098 C1097 1.403 . S
C1098 H1119 0.930 . S
C1099 O1110 1.275 . S
C1099 O1111 1.256 . S
O1100 Ho1080 2.322 . S
O1100 C1082 1.259 . S
O1101 Ho1081 2.346 . S
O1101 C1082 1.268 . S
O1102 Ho1080 2.378 . S
O1102 C1083 1.215 . S
O1103 Ho1080 2.524 . S
O1103 C1083 1.289 . S
O1104 Ho1080 2.381 . S
O1104 C1090 1.275 . S
O1105 Ho1080 2.669 . S
O1105 Ho1081 2.305 . S
O1105 C1090 1.256 . S
O1106 Ho1081 2.322 . S
O1106 C1091 1.259 . S
O1107 Ho1080 2.346 . S
O1107 C1091 1.268 . S
O1108 Ho1081 2.378 . S
O1108 C1092 1.215 . S
O1109 Ho1081 2.524 . S
O1109 C1092 1.289 . S
O1110 Ho1081 2.381 . S
O1110 C1099 1.275 . S
O1111 Ho1080 2.305 . S
O1111 Ho1081 2.669 . S
O1111 C1099 1.256 . S
H1112 C1085 0.930 . S
H1113 C1086 0.931 . S
H1114 C1088 0.934 . S
H1115 C1089 0.930 . S
H1116 C1094 0.930 . S
H1117 C1095 0.931 . S
H1118 C1097 0.934 . S
H1119 C1098 0.930 . S
Ho1120 C1123 2.811 . S
Ho1120 O1140 2.322 . S
Ho1120 O1142 2.378 . S
Ho1120 O1143 2.524 . S
Ho1120 O1144 2.381 . S
Ho1120 O1145 2.669 . S
Ho1120 O1147 2.346 . S
Ho1120 O1151 2.305 . S
Ho1121 C1132 2.811 . S
Ho1121 O1141 2.346 . S
Ho1121 O1145 2.305 . S
Ho1121 O1146 2.322 . S
Ho1121 O1148 2.378 . S
Ho1121 O1149 2.524 . S
Ho1121 O1150 2.381 . S
Ho1121 O1151 2.669 . S
C1122 O1140 1.259 . S
C1122 O1141 1.268 . S
C1123 Ho1120 2.811 . S
C1123 C1124 1.488 . S
C1123 O1142 1.215 . S
C1123 O1143 1.289 . S
C1124 C1123 1.488 . S
C1124 C1125 1.348 . S
C1124 C1129 1.413 . S
C1125 C1124 1.348 . S
C1125 C1126 1.442 . S
C1125 H1152 0.930 . S
C1126 C1125 1.442 . S
C1126 C1127 1.381 . S
C1126 H1153 0.931 . S
C1127 C1126 1.381 . S
C1127 C1128 1.321 . S
C1128 C1127 1.321 . S
C1128 C1129 1.403 . S
C1128 H1154 0.934 . S
C1129 C1124 1.413 . S
C1129 C1128 1.403 . S
C1129 H1155 0.930 . S
C1130 O1144 1.275 . S
C1130 O1145 1.256 . S
C1131 O1146 1.259 . S
C1131 O1147 1.268 . S
C1132 Ho1121 2.811 . S
C1132 C1133 1.488 . S
C1132 O1148 1.215 . S
C1132 O1149 1.289 . S
C1133 C1132 1.488 . S
C1133 C1134 1.348 . S
C1133 C1138 1.413 . S
C1134 C1133 1.348 . S
C1134 C1135 1.442 . S
C1134 H1156 0.930 . S
C1135 C1134 1.442 . S
C1135 C1136 1.381 . S
C1135 H1157 0.931 . S
C1136 C1135 1.381 . S
C1136 C1137 1.321 . S
C1137 C1136 1.321 . S
C1137 C1138 1.403 . S
C1137 H1158 0.934 . S
C1138 C1133 1.413 . S
C1138 C1137 1.403 . S
C1138 H1159 0.930 . S
C1139 O1150 1.275 . S
C1139 O1151 1.256 . S
O1140 Ho1120 2.322 . S
O1140 C1122 1.259 . S
O1141 Ho1121 2.346 . S
O1141 C1122 1.268 . S
O1142 Ho1120 2.378 . S
O1142 C1123 1.215 . S
O1143 Ho1120 2.524 . S
O1143 C1123 1.289 . S
O1144 Ho1120 2.381 . S
O1144 C1130 1.275 . S
O1145 Ho1120 2.669 . S
O1145 Ho1121 2.305 . S
O1145 C1130 1.256 . S
O1146 Ho1121 2.322 . S
O1146 C1131 1.259 . S
O1147 Ho1120 2.346 . S
O1147 C1131 1.268 . S
O1148 Ho1121 2.378 . S
O1148 C1132 1.215 . S
O1149 Ho1121 2.524 . S
O1149 C1132 1.289 . S
O1150 Ho1121 2.381 . S
O1150 C1139 1.275 . S
O1151 Ho1120 2.305 . S
O1151 Ho1121 2.669 . S
O1151 C1139 1.256 . S
H1152 C1125 0.930 . S
H1153 C1126 0.931 . S
H1154 C1128 0.934 . S
H1155 C1129 0.930 . S
H1156 C1134 0.930 . S
H1157 C1135 0.931 . S
H1158 C1137 0.934 . S
H1159 C1138 0.930 . S
Ho1160 C1163 2.811 . S
Ho1160 O1180 2.322 . S
Ho1160 O1182 2.378 . S
Ho1160 O1183 2.524 . S
Ho1160 O1184 2.381 . S
Ho1160 O1185 2.669 . S
Ho1160 O1187 2.346 . S
Ho1160 O1191 2.305 . S
Ho1161 C1172 2.811 . S
Ho1161 O1181 2.346 . S
Ho1161 O1185 2.305 . S
Ho1161 O1186 2.322 . S
Ho1161 O1188 2.378 . S
Ho1161 O1189 2.524 . S
Ho1161 O1190 2.381 . S
Ho1161 O1191 2.669 . S
C1162 O1180 1.259 . S
C1162 O1181 1.268 . S
C1163 Ho1160 2.811 . S
C1163 C1164 1.488 . S
C1163 O1182 1.215 . S
C1163 O1183 1.289 . S
C1164 C1163 1.488 . S
C1164 C1165 1.348 . S
C1164 C1169 1.413 . S
C1165 C1164 1.348 . S
C1165 C1166 1.442 . S
C1165 H1192 0.930 . S
C1166 C1165 1.442 . S
C1166 C1167 1.381 . S
C1166 H1193 0.931 . S
C1167 C1166 1.381 . S
C1167 C1168 1.321 . S
C1168 C1167 1.321 . S
C1168 C1169 1.403 . S
C1168 H1194 0.934 . S
C1169 C1164 1.413 . S
C1169 C1168 1.403 . S
C1169 H1195 0.930 . S
C1170 O1184 1.275 . S
C1170 O1185 1.256 . S
C1171 O1186 1.259 . S
C1171 O1187 1.268 . S
C1172 Ho1161 2.811 . S
C1172 C1173 1.488 . S
C1172 O1188 1.215 . S
C1172 O1189 1.289 . S
C1173 C1172 1.488 . S
C1173 C1174 1.348 . S
C1173 C1178 1.413 . S
C1174 C1173 1.348 . S
C1174 C1175 1.442 . S
C1174 H1196 0.930 . S
C1175 C1174 1.442 . S
C1175 C1176 1.381 . S
C1175 H1197 0.931 . S
C1176 C1175 1.381 . S
C1176 C1177 1.321 . S
C1177 C1176 1.321 . S
C1177 C1178 1.403 . S
C1177 H1198 0.934 . S
C1178 C1173 1.413 . S
C1178 C1177 1.403 . S
C1178 H1199 0.930 . S
C1179 O1190 1.275 . S
C1179 O1191 1.256 . S
O1180 Ho1160 2.322 . S
O1180 C1162 1.259 . S
O1181 Ho1161 2.346 . S
O1181 C1162 1.268 . S
O1182 Ho1160 2.378 . S
O1182 C1163 1.215 . S
O1183 Ho1160 2.524 . S
O1183 C1163 1.289 . S
O1184 Ho1160 2.381 . S
O1184 C1170 1.275 . S
O1185 Ho1160 2.669 . S
O1185 Ho1161 2.305 . S
O1185 C1170 1.256 . S
O1186 Ho1161 2.322 . S
O1186 C1171 1.259 . S
O1187 Ho1160 2.346 . S
O1187 C1171 1.268 . S
O1188 Ho1161 2.378 . S
O1188 C1172 1.215 . S
O1189 Ho1161 2.524 . S
O1189 C1172 1.289 . S
O1190 Ho1161 2.381 . S
O1190 C1179 1.275 . S
O1191 Ho1160 2.305 . S
O1191 Ho1161 2.669 . S
O1191 C1179 1.256 . S
H1192 C1165 0.930 . S
H1193 C1166 0.931 . S
H1194 C1168 0.934 . S
H1195 C1169 0.930 . S
H1196 C1174 0.930 . S
H1197 C1175 0.931 . S
H1198 C1177 0.934 . S
H1199 C1178 0.930 . S
Ho1200 C1203 2.811 . S
Ho1200 O1220 2.322 . S
Ho1200 O1222 2.378 . S
Ho1200 O1223 2.524 . S
Ho1200 O1224 2.381 . S
Ho1200 O1225 2.669 . S
Ho1200 O1227 2.346 . S
Ho1200 O1231 2.305 . S
Ho1201 C1212 2.811 . S
Ho1201 O1221 2.346 . S
Ho1201 O1225 2.305 . S
Ho1201 O1226 2.322 . S
Ho1201 O1228 2.378 . S
Ho1201 O1229 2.524 . S
Ho1201 O1230 2.381 . S
Ho1201 O1231 2.669 . S
C1202 O1220 1.259 . S
C1202 O1221 1.268 . S
C1203 Ho1200 2.811 . S
C1203 C1204 1.488 . S
C1203 O1222 1.215 . S
C1203 O1223 1.289 . S
C1204 C1203 1.488 . S
C1204 C1205 1.348 . S
C1204 C1209 1.413 . S
C1205 C1204 1.348 . S
C1205 C1206 1.442 . S
C1205 H1232 0.930 . S
C1206 C1205 1.442 . S
C1206 C1207 1.381 . S
C1206 H1233 0.931 . S
C1207 C1206 1.381 . S
C1207 C1208 1.321 . S
C1208 C1207 1.321 . S
C1208 C1209 1.403 . S
C1208 H1234 0.934 . S
C1209 C1204 1.413 . S
C1209 C1208 1.403 . S
C1209 H1235 0.930 . S
C1210 O1224 1.275 . S
C1210 O1225 1.256 . S
C1211 O1226 1.259 . S
C1211 O1227 1.268 . S
C1212 Ho1201 2.811 . S
C1212 C1213 1.488 . S
C1212 O1228 1.215 . S
C1212 O1229 1.289 . S
C1213 C1212 1.488 . S
C1213 C1214 1.348 . S
C1213 C1218 1.413 . S
C1214 C1213 1.348 . S
C1214 C1215 1.442 . S
C1214 H1236 0.930 . S
C1215 C1214 1.442 . S
C1215 C1216 1.381 . S
C1215 H1237 0.931 . S
C1216 C1215 1.381 . S
C1216 C1217 1.321 . S
C1217 C1216 1.321 . S
C1217 C1218 1.403 . S
C1217 H1238 0.934 . S
C1218 C1213 1.413 . S
C1218 C1217 1.403 . S
C1218 H1239 0.930 . S
C1219 O1230 1.275 . S
C1219 O1231 1.256 . S
O1220 Ho1200 2.322 . S
O1220 C1202 1.259 . S
O1221 Ho1201 2.346 . S
O1221 C1202 1.268 . S
O1222 Ho1200 2.378 . S
O1222 C1203 1.215 . S
O1223 Ho1200 2.524 . S
O1223 C1203 1.289 . S
O1224 Ho1200 2.381 . S
O1224 C1210 1.275 . S
O1225 Ho1200 2.669 . S
O1225 Ho1201 2.305 . S
O1225 C1210 1.256 . S
O1226 Ho1201 2.322 . S
O1226 C1211 1.259 . S
O1227 Ho1200 2.346 . S
O1227 C1211 1.268 . S
O1228 Ho1201 2.378 . S
O1228 C1212 1.215 . S
O1229 Ho1201 2.524 . S
O1229 C1212 1.289 . S
O1230 Ho1201 2.381 . S
O1230 C1219 1.275 . S
O1231 Ho1200 2.305 . S
O1231 Ho1201 2.669 . S
O1231 C1219 1.256 . S
H1232 C1205 0.930 . S
H1233 C1206 0.931 . S
H1234 C1208 0.934 . S
H1235 C1209 0.930 . S
H1236 C1214 0.930 . S
H1237 C1215 0.931 . S
H1238 C1217 0.934 . S
H1239 C1218 0.930 . S
Ho1240 C1243 2.811 . S
Ho1240 O1260 2.322 . S
Ho1240 O1262 2.378 . S
Ho1240 O1263 2.524 . S
Ho1240 O1264 2.381 . S
Ho1240 O1265 2.669 . S
Ho1240 O1267 2.346 . S
Ho1240 O1271 2.305 . S
Ho1241 C1252 2.811 . S
Ho1241 O1261 2.346 . S
Ho1241 O1265 2.305 . S
Ho1241 O1266 2.322 . S
Ho1241 O1268 2.378 . S
Ho1241 O1269 2.524 . S
Ho1241 O1270 2.381 . S
Ho1241 O1271 2.669 . S
C1242 O1260 1.259 . S
C1242 O1261 1.268 . S
C1243 Ho1240 2.811 . S
C1243 C1244 1.488 . S
C1243 O1262 1.215 . S
C1243 O1263 1.289 . S
C1244 C1243 1.488 . S
C1244 C1245 1.348 . S
C1244 C1249 1.413 . S
C1245 C1244 1.348 . S
C1245 C1246 1.442 . S
C1245 H1272 0.930 . S
C1246 C1245 1.442 . S
C1246 C1247 1.381 . S
C1246 H1273 0.931 . S
C1247 C1246 1.381 . S
C1247 C1248 1.321 . S
C1248 C1247 1.321 . S
C1248 C1249 1.403 . S
C1248 H1274 0.934 . S
C1249 C1244 1.413 . S
C1249 C1248 1.403 . S
C1249 H1275 0.930 . S
C1250 O1264 1.275 . S
C1250 O1265 1.256 . S
C1251 O1266 1.259 . S
C1251 O1267 1.268 . S
C1252 Ho1241 2.811 . S
C1252 C1253 1.488 . S
C1252 O1268 1.215 . S
C1252 O1269 1.289 . S
C1253 C1252 1.488 . S
C1253 C1254 1.348 . S
C1253 C1258 1.413 . S
C1254 C1253 1.348 . S
C1254 C1255 1.442 . S
C1254 H1276 0.930 . S
C1255 C1254 1.442 . S
C1255 C1256 1.381 . S
C1255 H1277 0.931 . S
C1256 C1255 1.381 . S
C1256 C1257 1.321 . S
C1257 C1256 1.321 . S
C1257 C1258 1.403 . S
C1257 H1278 0.934 . S
C1258 C1253 1.413 . S
C1258 C1257 1.403 . S
C1258 H1279 0.930 . S
C1259 O1270 1.275 . S
C1259 O1271 1.256 . S
O1260 Ho1240 2.322 . S
O1260 C1242 1.259 . S
O1261 Ho1241 2.346 . S
O1261 C1242 1.268 . S
O1262 Ho1240 2.378 . S
O1262 C1243 1.215 . S
O1263 Ho1240 2.524 . S
O1263 C1243 1.289 . S
O1264 Ho1240 2.381 . S
O1264 C1250 1.275 . S
O1265 Ho1240 2.669 . S
O1265 Ho1241 2.305 . S
O1265 C1250 1.256 . S
O1266 Ho1241 2.322 . S
O1266 C1251 1.259 . S
O1267 Ho1240 2.346 . S
O1267 C1251 1.268 . S
O1268 Ho1241 2.378 . S
O1268 C1252 1.215 . S
O1269 Ho1241 2.524 . S
O1269 C1252 1.289 . S
O1270 Ho1241 2.381 . S
O1270 C1259 1.275 . S
O1271 Ho1240 2.305 . S
O1271 Ho1241 2.669 . S
O1271 C1259 1.256 . S
H1272 C1245 0.930 . S
H1273 C1246 0.931 . S
H1274 C1248 0.934 . S
H1275 C1249 0.930 . S
H1276 C1254 0.930 . S
H1277 C1255 0.931 . S
H1278 C1257 0.934 . S
H1279 C1258 0.930 . S
Ho1280 C1283 2.811 . S
Ho1280 O1300 2.322 . S
Ho1280 O1302 2.378 . S
Ho1280 O1303 2.524 . S
Ho1280 O1304 2.381 . S
Ho1280 O1305 2.669 . S
Ho1280 O1307 2.346 . S
Ho1280 O1311 2.305 . S
Ho1281 C1292 2.811 . S
Ho1281 O1301 2.346 . S
Ho1281 O1305 2.305 . S
Ho1281 O1306 2.322 . S
Ho1281 O1308 2.378 . S
Ho1281 O1309 2.524 . S
Ho1281 O1310 2.381 . S
Ho1281 O1311 2.669 . S
C1282 O1300 1.259 . S
C1282 O1301 1.268 . S
C1283 Ho1280 2.811 . S
C1283 C1284 1.488 . S
C1283 O1302 1.215 . S
C1283 O1303 1.289 . S
C1284 C1283 1.488 . S
C1284 C1285 1.348 . S
C1284 C1289 1.413 . S
C1285 C1284 1.348 . S
C1285 C1286 1.442 . S
C1285 H1312 0.930 . S
C1286 C1285 1.442 . S
C1286 C1287 1.381 . S
C1286 H1313 0.931 . S
C1287 C1286 1.381 . S
C1287 C1288 1.321 . S
C1288 C1287 1.321 . S
C1288 C1289 1.403 . S
C1288 H1314 0.934 . S
C1289 C1284 1.413 . S
C1289 C1288 1.403 . S
C1289 H1315 0.930 . S
C1290 O1304 1.275 . S
C1290 O1305 1.256 . S
C1291 O1306 1.259 . S
C1291 O1307 1.268 . S
C1292 Ho1281 2.811 . S
C1292 C1293 1.488 . S
C1292 O1308 1.215 . S
C1292 O1309 1.289 . S
C1293 C1292 1.488 . S
C1293 C1294 1.348 . S
C1293 C1298 1.413 . S
C1294 C1293 1.348 . S
C1294 C1295 1.442 . S
C1294 H1316 0.930 . S
C1295 C1294 1.442 . S
C1295 C1296 1.381 . S
C1295 H1317 0.931 . S
C1296 C1295 1.381 . S
C1296 C1297 1.321 . S
C1297 C1296 1.321 . S
C1297 C1298 1.403 . S
C1297 H1318 0.934 . S
C1298 C1293 1.413 . S
C1298 C1297 1.403 . S
C1298 H1319 0.930 . S
C1299 O1310 1.275 . S
C1299 O1311 1.256 . S
O1300 Ho1280 2.322 . S
O1300 C1282 1.259 . S
O1301 Ho1281 2.346 . S
O1301 C1282 1.268 . S
O1302 Ho1280 2.378 . S
O1302 C1283 1.215 . S
O1303 Ho1280 2.524 . S
O1303 C1283 1.289 . S
O1304 Ho1280 2.381 . S
O1304 C1290 1.275 . S
O1305 Ho1280 2.669 . S
O1305 Ho1281 2.305 . S
O1305 C1290 1.256 . S
O1306 Ho1281 2.322 . S
O1306 C1291 1.259 . S
O1307 Ho1280 2.346 . S
O1307 C1291 1.268 . S
O1308 Ho1281 2.378 . S
O1308 C1292 1.215 . S
O1309 Ho1281 2.524 . S
O1309 C1292 1.289 . S
O1310 Ho1281 2.381 . S
O1310 C1299 1.275 . S
O1311 Ho1280 2.305 . S
O1311 Ho1281 2.669 . S
O1311 C1299 1.256 . S
H1312 C1285 0.930 . S
H1313 C1286 0.931 . S
H1314 C1288 0.934 . S
H1315 C1289 0.930 . S
H1316 C1294 0.930 . S
H1317 C1295 0.931 . S
H1318 C1297 0.934 . S
H1319 C1298 0.930 . S
Ho1320 C1323 2.811 . S
Ho1320 O1340 2.322 . S
Ho1320 O1342 2.378 . S
Ho1320 O1343 2.524 . S
Ho1320 O1344 2.381 . S
Ho1320 O1345 2.669 . S
Ho1320 O1347 2.346 . S
Ho1320 O1351 2.305 . S
Ho1321 C1332 2.811 . S
Ho1321 O1341 2.346 . S
Ho1321 O1345 2.305 . S
Ho1321 O1346 2.322 . S
Ho1321 O1348 2.378 . S
Ho1321 O1349 2.524 . S
Ho1321 O1350 2.381 . S
Ho1321 O1351 2.669 . S
C1322 O1340 1.259 . S
C1322 O1341 1.268 . S
C1323 Ho1320 2.811 . S
C1323 C1324 1.488 . S
C1323 O1342 1.215 . S
C1323 O1343 1.289 . S
C1324 C1323 1.488 . S
C1324 C1325 1.348 . S
C1324 C1329 1.413 . S
C1325 C1324 1.348 . S
C1325 C1326 1.442 . S
C1325 H1352 0.930 . S
C1326 C1325 1.442 . S
C1326 C1327 1.381 . S
C1326 H1353 0.931 . S
C1327 C1326 1.381 . S
C1327 C1328 1.321 . S
C1328 C1327 1.321 . S
C1328 C1329 1.403 . S
C1328 H1354 0.934 . S
C1329 C1324 1.413 . S
C1329 C1328 1.403 . S
C1329 H1355 0.930 . S
C1330 O1344 1.275 . S
C1330 O1345 1.256 . S
C1331 O1346 1.259 . S
C1331 O1347 1.268 . S
C1332 Ho1321 2.811 . S
C1332 C1333 1.488 . S
C1332 O1348 1.215 . S
C1332 O1349 1.289 . S
C1333 C1332 1.488 . S
C1333 C1334 1.348 . S
C1333 C1338 1.413 . S
C1334 C1333 1.348 . S
C1334 C1335 1.442 . S
C1334 H1356 0.930 . S
C1335 C1334 1.442 . S
C1335 C1336 1.381 . S
C1335 H1357 0.931 . S
C1336 C1335 1.381 . S
C1336 C1337 1.321 . S
C1337 C1336 1.321 . S
C1337 C1338 1.403 . S
C1337 H1358 0.934 . S
C1338 C1333 1.413 . S
C1338 C1337 1.403 . S
C1338 H1359 0.930 . S
C1339 O1350 1.275 . S
C1339 O1351 1.256 . S
O1340 Ho1320 2.322 . S
O1340 C1322 1.259 . S
O1341 Ho1321 2.346 . S
O1341 C1322 1.268 . S
O1342 Ho1320 2.378 . S
O1342 C1323 1.215 . S
O1343 Ho1320 2.524 . S
O1343 C1323 1.289 . S
O1344 Ho1320 2.381 . S
O1344 C1330 1.275 . S
O1345 Ho1320 2.669 . S
O1345 Ho1321 2.305 . S
O1345 C1330 1.256 . S
O1346 Ho1321 2.322 . S
O1346 C1331 1.259 . S
O1347 Ho1320 2.346 . S
O1347 C1331 1.268 . S
O1348 Ho1321 2.378 . S
O1348 C1332 1.215 . S
O1349 Ho1321 2.524 . S
O1349 C1332 1.289 . S
O1350 Ho1321 2.381 . S
O1350 C1339 1.275 . S
O1351 Ho1320 2.305 . S
O1351 Ho1321 2.669 . S
O1351 C1339 1.256 . S
H1352 C1325 0.930 . S
H1353 C1326 0.931 . S
H1354 C1328 0.934 . S
H1355 C1329 0.930 . S
H1356 C1334 0.930 . S
H1357 C1335 0.931 . S
H1358 C1337 0.934 . S
H1359 C1338 0.930 . S
Ho1360 C1363 2.811 . S
Ho1360 O1380 2.322 . S
Ho1360 O1382 2.378 . S
Ho1360 O1383 2.524 . S
Ho1360 O1384 2.381 . S
Ho1360 O1385 2.669 . S
Ho1360 O1387 2.346 . S
Ho1360 O1391 2.305 . S
Ho1361 C1372 2.811 . S
Ho1361 O1381 2.346 . S
Ho1361 O1385 2.305 . S
Ho1361 O1386 2.322 . S
Ho1361 O1388 2.378 . S
Ho1361 O1389 2.524 . S
Ho1361 O1390 2.381 . S
Ho1361 O1391 2.669 . S
C1362 O1380 1.259 . S
C1362 O1381 1.268 . S
C1363 Ho1360 2.811 . S
C1363 C1364 1.488 . S
C1363 O1382 1.215 . S
C1363 O1383 1.289 . S
C1364 C1363 1.488 . S
C1364 C1365 1.348 . S
C1364 C1369 1.413 . S
C1365 C1364 1.348 . S
C1365 C1366 1.442 . S
C1365 H1392 0.930 . S
C1366 C1365 1.442 . S
C1366 C1367 1.381 . S
C1366 H1393 0.931 . S
C1367 C1366 1.381 . S
C1367 C1368 1.321 . S
C1368 C1367 1.321 . S
C1368 C1369 1.403 . S
C1368 H1394 0.934 . S
C1369 C1364 1.413 . S
C1369 C1368 1.403 . S
C1369 H1395 0.930 . S
C1370 O1384 1.275 . S
C1370 O1385 1.256 . S
C1371 O1386 1.259 . S
C1371 O1387 1.268 . S
C1372 Ho1361 2.811 . S
C1372 C1373 1.488 . S
C1372 O1388 1.215 . S
C1372 O1389 1.289 . S
C1373 C1372 1.488 . S
C1373 C1374 1.348 . S
C1373 C1378 1.413 . S
C1374 C1373 1.348 . S
C1374 C1375 1.442 . S
C1374 H1396 0.930 . S
C1375 C1374 1.442 . S
C1375 C1376 1.381 . S
C1375 H1397 0.931 . S
C1376 C1375 1.381 . S
C1376 C1377 1.321 . S
C1377 C1376 1.321 . S
C1377 C1378 1.403 . S
C1377 H1398 0.934 . S
C1378 C1373 1.413 . S
C1378 C1377 1.403 . S
C1378 H1399 0.930 . S
C1379 O1390 1.275 . S
C1379 O1391 1.256 . S
O1380 Ho1360 2.322 . S
O1380 C1362 1.259 . S
O1381 Ho1361 2.346 . S
O1381 C1362 1.268 . S
O1382 Ho1360 2.378 . S
O1382 C1363 1.215 . S
O1383 Ho1360 2.524 . S
O1383 C1363 1.289 . S
O1384 Ho1360 2.381 . S
O1384 C1370 1.275 . S
O1385 Ho1360 2.669 . S
O1385 Ho1361 2.305 . S
O1385 C1370 1.256 . S
O1386 Ho1361 2.322 . S
O1386 C1371 1.259 . S
O1387 Ho1360 2.346 . S
O1387 C1371 1.268 . S
O1388 Ho1361 2.378 . S
O1388 C1372 1.215 . S
O1389 Ho1361 2.524 . S
O1389 C1372 1.289 . S
O1390 Ho1361 2.381 . S
O1390 C1379 1.275 . S
O1391 Ho1360 2.305 . S
O1391 Ho1361 2.669 . S
O1391 C1379 1.256 . S
H1392 C1365 0.930 . S
H1393 C1366 0.931 . S
H1394 C1368 0.934 . S
H1395 C1369 0.930 . S
H1396 C1374 0.930 . S
H1397 C1375 0.931 . S
H1398 C1377 0.934 . S
H1399 C1378 0.930 . S
Ho1400 C1403 2.811 . S
Ho1400 O1420 2.322 . S
Ho1400 O1422 2.378 . S
Ho1400 O1423 2.524 . S
Ho1400 O1424 2.381 . S
Ho1400 O1425 2.669 . S
Ho1400 O1427 2.346 . S
Ho1400 O1431 2.305 . S
Ho1401 C1412 2.811 . S
Ho1401 O1421 2.346 . S
Ho1401 O1425 2.305 . S
Ho1401 O1426 2.322 . S
Ho1401 O1428 2.378 . S
Ho1401 O1429 2.524 . S
Ho1401 O1430 2.381 . S
Ho1401 O1431 2.669 . S
C1402 O1420 1.259 . S
C1402 O1421 1.268 . S
C1403 Ho1400 2.811 . S
C1403 C1404 1.488 . S
C1403 O1422 1.215 . S
C1403 O1423 1.289 . S
C1404 C1403 1.488 . S
C1404 C1405 1.348 . S
C1404 C1409 1.413 . S
C1405 C1404 1.348 . S
C1405 C1406 1.442 . S
C1405 H1432 0.930 . S
C1406 C1405 1.442 . S
C1406 C1407 1.381 . S
C1406 H1433 0.931 . S
C1407 C1406 1.381 . S
C1407 C1408 1.321 . S
C1408 C1407 1.321 . S
C1408 C1409 1.403 . S
C1408 H1434 0.934 . S
C1409 C1404 1.413 . S
C1409 C1408 1.403 . S
C1409 H1435 0.930 . S
C1410 O1424 1.275 . S
C1410 O1425 1.256 . S
C1411 O1426 1.259 . S
C1411 O1427 1.268 . S
C1412 Ho1401 2.811 . S
C1412 C1413 1.488 1_655 S
C1412 O1428 1.215 . S
C1412 O1429 1.289 . S
C1413 C1412 1.488 1_455 S
C1413 C1414 1.348 . S
C1413 C1418 1.413 . S
C1414 C1413 1.348 . S
C1414 C1415 1.442 . S
C1414 H1436 0.930 . S
C1415 C1414 1.442 . S
C1415 C1416 1.381 . S
C1415 H1437 0.931 . S
C1416 C1415 1.381 . S
C1416 C1417 1.321 . S
C1417 C1416 1.321 . S
C1417 C1418 1.403 . S
C1417 H1438 0.934 . S
C1418 C1413 1.413 . S
C1418 C1417 1.403 . S
C1418 H1439 0.930 . S
C1419 O1430 1.275 . S
C1419 O1431 1.256 . S
O1420 Ho1400 2.322 . S
O1420 C1402 1.259 . S
O1421 Ho1401 2.346 . S
O1421 C1402 1.268 . S
O1422 Ho1400 2.378 . S
O1422 C1403 1.215 . S
O1423 Ho1400 2.524 . S
O1423 C1403 1.289 . S
O1424 Ho1400 2.381 . S
O1424 C1410 1.275 . S
O1425 Ho1400 2.669 . S
O1425 Ho1401 2.305 . S
O1425 C1410 1.256 . S
O1426 Ho1401 2.322 . S
O1426 C1411 1.259 . S
O1427 Ho1400 2.346 . S
O1427 C1411 1.268 . S
O1428 Ho1401 2.378 . S
O1428 C1412 1.215 . S
O1429 Ho1401 2.524 . S
O1429 C1412 1.289 . S
O1430 Ho1401 2.381 . S
O1430 C1419 1.275 . S
O1431 Ho1400 2.305 . S
O1431 Ho1401 2.669 . S
O1431 C1419 1.256 . S
H1432 C1405 0.930 . S
H1433 C1406 0.931 . S
H1434 C1408 0.934 . S
H1435 C1409 0.930 . S
H1436 C1414 0.930 . S
H1437 C1415 0.931 . S
H1438 C1417 0.934 . S
H1439 C1418 0.930 . S
H1440 C1448 0.929 . S
H1441 C1450 0.930 . S
H1442 C1452 0.930 . S
H1443 C1455 0.929 . S
H1444 C1458 0.930 . S
H1445 C1460 0.960 . S
H1446 C1460 0.960 . S
H1447 C1460 0.960 . S
C1448 H1440 0.929 . S
C1448 C1449 1.377 . S
C1448 C1450 1.384 . S
C1449 C1448 1.377 . S
C1449 C1455 1.390 . S
C1450 H1441 0.930 . S
C1450 C1448 1.384 . S
C1450 C1451 1.372 . S
C1451 C1450 1.372 . S
C1451 C1452 1.400 . S
C1451 C1456 1.490 . S
C1452 H1442 0.930 . S
C1452 C1451 1.400 . S
C1452 C1455 1.386 . S
H1453 C1469 0.930 . S
H1454 C1470 0.931 . S
C1455 H1443 0.929 . S
C1455 C1449 1.390 . S
C1455 C1452 1.386 . S
C1456 C1451 1.490 . S
C1456 C1458 1.395 . S
C1456 C1459 1.403 . S
H1457 C1463 0.930 . S
C1458 H1444 0.930 . S
C1458 C1456 1.395 . S
C1458 C1461 1.403 . S
C1459 C1456 1.403 . S
C1459 C1460 1.524 . S
C1459 C1463 1.400 . S
C1460 H1445 0.960 . S
C1460 H1446 0.960 . S
C1460 H1447 0.960 . S
C1460 C1459 1.524 . S
C1461 C1458 1.403 . S
C1461 C1462 1.392 . S
C1461 C1465 1.495 . S
C1462 C1461 1.392 . S
C1462 C1463 1.385 . S
C1462 C1464 1.478 . S
C1463 H1457 0.930 . S
C1463 C1459 1.400 . S
C1463 C1462 1.385 . S
C1464 C1462 1.478 . S
C1464 C1466 1.381 . S
C1464 C1470 1.383 . S
C1465 C1461 1.495 . S
C1465 H1471 0.959 . S
C1465 H1472 0.961 . S
C1465 H1473 0.960 . S
C1466 C1464 1.381 . S
C1466 C1467 1.394 . S
C1466 H1474 0.930 . S
C1467 C1466 1.394 . S
C1467 C1468 1.383 . S
C1467 H1475 0.929 . S
C1468 C1467 1.383 . S
C1468 C1469 1.377 . S
C1469 H1453 0.930 . S
C1469 C1468 1.377 . S
C1469 C1470 1.379 . S
C1470 H1454 0.931 . S
C1470 C1464 1.383 . S
C1470 C1469 1.379 . S
H1471 C1465 0.959 . S
H1472 C1465 0.961 . S
H1473 C1465 0.960 . S
H1474 C1466 0.930 . S
H1475 C1467 0.929 . S
H1476 C1484 0.929 . S
H1477 C1486 0.930 . S
H1478 C1488 0.930 . S
H1479 C1491 0.929 . S
H1480 C1494 0.930 . S
H1481 C1496 0.960 . S
H1482 C1496 0.960 . S
H1483 C1496 0.960 . S
C1484 H1476 0.929 . S
C1484 C1485 1.377 . S
C1484 C1486 1.384 . S
C1485 C1484 1.377 . S
C1485 C1491 1.390 . S
C1486 H1477 0.930 . S
C1486 C1484 1.384 . S
C1486 C1487 1.372 . S
C1487 C1486 1.372 . S
C1487 C1488 1.400 . S
C1487 C1492 1.490 . S
C1488 H1478 0.930 . S
C1488 C1487 1.400 . S
C1488 C1491 1.386 . S
H1489 C1505 0.930 . S
H1490 C1506 0.931 . S
C1491 H1479 0.929 . S
C1491 C1485 1.390 . S
C1491 C1488 1.386 . S
C1492 C1487 1.490 . S
C1492 C1494 1.395 . S
C1492 C1495 1.403 . S
H1493 C1499 0.930 . S
C1494 H1480 0.930 . S
C1494 C1492 1.395 . S
C1494 C1497 1.403 . S
C1495 C1492 1.403 . S
C1495 C1496 1.524 . S
C1495 C1499 1.400 . S
C1496 H1481 0.960 . S
C1496 H1482 0.960 . S
C1496 H1483 0.960 . S
C1496 C1495 1.524 . S
C1497 C1494 1.403 . S
C1497 C1498 1.392 . S
C1497 C1501 1.495 . S
C1498 C1497 1.392 . S
C1498 C1499 1.385 . S
C1498 C1500 1.478 . S
C1499 H1493 0.930 . S
C1499 C1495 1.400 . S
C1499 C1498 1.385 . S
C1500 C1498 1.478 . S
C1500 C1502 1.381 . S
C1500 C1506 1.383 1_655 S
C1501 C1497 1.495 . S
C1501 H1507 0.959 . S
C1501 H1508 0.947 1_655 S
C1501 H1509 0.960 . S
C1502 C1500 1.381 . S
C1502 C1503 1.394 . S
C1502 H1510 0.930 . S
C1503 C1502 1.394 . S
C1503 C1504 1.413 . S
C1503 H1511 0.929 . S
C1504 C1503 1.413 . S
C1504 C1505 1.347 1_655 S
C1505 H1489 0.930 . S
C1505 C1504 1.347 1_455 S
C1505 C1506 1.379 . S
C1506 H1490 0.931 . S
C1506 C1500 1.383 1_455 S
C1506 C1505 1.379 . S
H1507 C1501 0.959 . S
H1508 C1501 0.947 1_455 S
H1509 C1501 0.960 . S
H1510 C1502 0.930 . S
H1511 C1503 0.929 . S
H1512 C1520 0.929 . S
H1513 C1522 0.930 . S
H1514 C1524 0.930 . S
H1515 C1527 0.929 . S
H1516 C1530 0.930 . S
H1517 C1532 0.960 . S
H1518 C1532 0.960 . S
H1519 C1532 0.960 . S
C1520 H1512 0.929 . S
C1520 C1521 1.377 . S
C1520 C1522 1.384 . S
C1521 C1520 1.377 . S
C1521 C1527 1.390 . S
C1522 H1513 0.930 . S
C1522 C1520 1.384 . S
C1522 C1523 1.372 . S
C1523 C1522 1.372 . S
C1523 C1524 1.400 . S
C1523 C1528 1.490 . S
C1524 H1514 0.930 . S
C1524 C1523 1.400 . S
C1524 C1527 1.386 . S
H1525 C1541 0.930 . S
H1526 C1542 0.931 . S
C1527 H1515 0.929 . S
C1527 C1521 1.390 . S
C1527 C1524 1.386 . S
C1528 C1523 1.490 . S
C1528 C1530 1.395 . S
C1528 C1531 1.403 . S
H1529 C1535 0.930 . S
C1530 H1516 0.930 . S
C1530 C1528 1.395 . S
C1530 C1533 1.403 . S
C1531 C1528 1.403 . S
C1531 C1532 1.524 . S
C1531 C1535 1.400 . S
C1532 H1517 0.960 . S
C1532 H1518 0.960 . S
C1532 H1519 0.960 . S
C1532 C1531 1.524 . S
C1533 C1530 1.403 . S
C1533 C1534 1.392 . S
C1533 C1537 1.495 . S
C1534 C1533 1.392 . S
C1534 C1535 1.385 . S
C1534 C1536 1.478 . S
C1535 H1529 0.930 . S
C1535 C1531 1.400 . S
C1535 C1534 1.385 . S
C1536 C1534 1.478 . S
C1536 C1538 1.381 . S
C1536 C1542 1.383 . S
C1537 C1533 1.495 . S
C1537 H1543 0.959 . S
C1537 H1544 0.961 . S
C1537 H1545 0.960 . S
C1538 C1536 1.381 . S
C1538 C1539 1.394 . S
C1538 H1546 0.930 . S
C1539 C1538 1.394 . S
C1539 C1540 1.383 . S
C1539 H1547 0.929 . S
C1540 C1539 1.383 . S
C1540 C1541 1.377 . S
C1541 H1525 0.930 . S
C1541 C1540 1.377 . S
C1541 C1542 1.379 . S
C1542 H1526 0.931 . S
C1542 C1536 1.383 . S
C1542 C1541 1.379 . S
H1543 C1537 0.959 . S
H1544 C1537 0.961 . S
H1545 C1537 0.960 . S
H1546 C1538 0.930 . S
H1547 C1539 0.929 . S
H1548 C1556 0.929 . S
H1549 C1558 0.930 . S
H1550 C1560 0.930 . S
H1551 C1563 0.929 . S
H1552 C1566 0.930 . S
H1553 C1568 0.960 . S
H1554 C1568 0.960 . S
H1555 C1568 0.960 . S
C1556 H1548 0.929 . S
C1556 C1557 1.377 . S
C1556 C1558 1.384 . S
C1557 C1556 1.377 . S
C1557 C1563 1.390 . S
C1558 H1549 0.930 . S
C1558 C1556 1.384 . S
C1558 C1559 1.372 . S
C1559 C1558 1.372 . S
C1559 C1560 1.400 . S
C1559 C1564 1.490 . S
C1560 H1550 0.930 . S
C1560 C1559 1.400 . S
C1560 C1563 1.386 . S
H1561 C1577 0.930 . S
H1562 C1578 0.931 . S
C1563 H1551 0.929 . S
C1563 C1557 1.390 . S
C1563 C1560 1.386 . S
C1564 C1559 1.490 . S
C1564 C1566 1.395 . S
C1564 C1567 1.403 . S
H1565 C1571 0.930 . S
C1566 H1552 0.930 . S
C1566 C1564 1.395 . S
C1566 C1569 1.403 . S
C1567 C1564 1.403 . S
C1567 C1568 1.524 . S
C1567 C1571 1.400 . S
C1568 H1553 0.960 . S
C1568 H1554 0.960 . S
C1568 H1555 0.960 . S
C1568 C1567 1.524 . S
C1569 C1566 1.403 . S
C1569 C1570 1.392 . S
C1569 C1573 1.495 . S
C1570 C1569 1.392 . S
C1570 C1571 1.385 . S
C1570 C1572 1.478 . S
C1571 H1565 0.930 . S
C1571 C1567 1.400 . S
C1571 C1570 1.385 . S
C1572 C1570 1.478 . S
C1572 C1574 1.381 . S
C1572 C1578 1.383 . S
C1573 C1569 1.495 . S
C1573 H1579 0.959 . S
C1573 H1580 0.961 . S
C1573 H1581 0.960 . S
C1574 C1572 1.381 . S
C1574 C1575 1.394 . S
C1574 H1582 0.930 . S
C1575 C1574 1.394 . S
C1575 C1576 1.383 . S
C1575 H1583 0.929 . S
C1576 C1575 1.383 . S
C1576 C1577 1.377 . S
C1577 H1561 0.930 . S
C1577 C1576 1.377 . S
C1577 C1578 1.379 . S
C1578 H1562 0.931 . S
C1578 C1572 1.383 . S
C1578 C1577 1.379 . S
H1579 C1573 0.959 . S
H1580 C1573 0.961 . S
H1581 C1573 0.960 . S
H1582 C1574 0.930 . S
H1583 C1575 0.929 . S
H1584 C1592 0.929 . S
H1585 C1594 0.930 . S
H1586 C1596 0.930 . S
H1587 C1599 0.929 . S
H1588 C1602 0.930 . S
H1589 C1604 0.960 . S
H1590 C1604 0.960 . S
H1591 C1604 0.960 . S
C1592 H1584 0.929 . S
C1592 C1593 1.377 . S
C1592 C1594 1.384 . S
C1593 C1592 1.377 . S
C1593 C1599 1.390 . S
C1594 H1585 0.930 . S
C1594 C1592 1.384 . S
C1594 C1595 1.372 . S
C1595 C1594 1.372 . S
C1595 C1596 1.400 . S
C1595 C1600 1.490 . S
C1596 H1586 0.930 . S
C1596 C1595 1.400 . S
C1596 C1599 1.386 . S
H1597 C1613 0.930 . S
H1598 C1614 0.931 . S
C1599 H1587 0.929 . S
C1599 C1593 1.390 . S
C1599 C1596 1.386 . S
C1600 C1595 1.490 . S
C1600 C1602 1.395 . S
C1600 C1603 1.403 . S
H1601 C1607 0.930 . S
C1602 H1588 0.930 . S
C1602 C1600 1.395 . S
C1602 C1605 1.403 . S
C1603 C1600 1.403 . S
C1603 C1604 1.524 . S
C1603 C1607 1.400 . S
C1604 H1589 0.960 . S
C1604 H1590 0.960 . S
C1604 H1591 0.960 . S
C1604 C1603 1.524 . S
C1605 C1602 1.403 . S
C1605 C1606 1.392 . S
C1605 C1609 1.495 . S
C1606 C1605 1.392 . S
C1606 C1607 1.385 . S
C1606 C1608 1.478 . S
C1607 H1601 0.930 . S
C1607 C1603 1.400 . S
C1607 C1606 1.385 . S
C1608 C1606 1.478 . S
C1608 C1610 1.381 . S
C1608 C1614 1.383 . S
C1609 C1605 1.495 . S
C1609 H1615 0.959 . S
C1609 H1616 0.961 . S
C1609 H1617 0.960 . S
C1610 C1608 1.381 . S
C1610 C1611 1.394 . S
C1610 H1618 0.930 . S
C1611 C1610 1.394 . S
C1611 C1612 1.383 . S
C1611 H1619 0.929 . S
C1612 C1611 1.383 . S
C1612 C1613 1.377 . S
C1613 H1597 0.930 . S
C1613 C1612 1.377 . S
C1613 C1614 1.379 . S
C1614 H1598 0.931 . S
C1614 C1608 1.383 . S
C1614 C1613 1.379 . S
H1615 C1609 0.959 . S
H1616 C1609 0.961 . S
H1617 C1609 0.960 . S
H1618 C1610 0.930 . S
H1619 C1611 0.929 . S
H1620 C1628 0.929 . S
H1621 C1630 0.930 . S
H1622 C1632 0.930 . S
H1623 C1635 0.929 . S
H1624 C1638 0.930 . S
H1625 C1640 0.960 1_545 S
H1626 C1640 0.960 . S
H1627 C1640 0.960 . S
C1628 H1620 0.929 . S
C1628 C1629 1.377 . S
C1628 C1630 1.384 . S
C1629 C1628 1.377 . S
C1629 C1635 1.390 . S
C1630 H1621 0.930 . S
C1630 C1628 1.384 . S
C1630 C1631 1.372 . S
C1631 C1630 1.372 . S
C1631 C1632 1.400 . S
C1631 C1636 1.490 . S
C1632 H1622 0.930 . S
C1632 C1631 1.400 . S
C1632 C1635 1.386 . S
H1633 C1649 0.924 . S
H1634 C1650 0.931 . S
C1635 H1623 0.929 . S
C1635 C1629 1.390 . S
C1635 C1632 1.386 . S
C1636 C1631 1.490 . S
C1636 C1638 1.395 . S
C1636 C1639 1.403 . S
H1637 C1643 0.930 . S
C1638 H1624 0.930 . S
C1638 C1636 1.395 . S
C1638 C1641 1.403 . S
C1639 C1636 1.403 . S
C1639 C1640 1.524 . S
C1639 C1643 1.400 . S
C1640 H1625 0.960 1_565 S
C1640 H1626 0.960 . S
C1640 H1627 0.960 . S
C1640 C1639 1.524 . S
C1641 C1638 1.403 . S
C1641 C1642 1.392 . S
C1641 C1645 1.495 . S
C1642 C1641 1.392 . S
C1642 C1643 1.385 . S
C1642 C1644 1.478 . S
C1643 H1637 0.930 . S
C1643 C1639 1.400 . S
C1643 C1642 1.385 . S
C1644 C1642 1.478 . S
C1644 C1646 1.381 . S
C1644 C1650 1.383 . S
C1645 C1641 1.495 . S
C1645 H1651 0.959 . S
C1645 H1652 0.961 . S
C1645 H1653 0.960 . S
C1646 C1644 1.381 . S
C1646 C1647 1.394 . S
C1646 H1654 0.930 . S
C1647 C1646 1.394 . S
C1647 C1648 1.383 . S
C1647 H1655 0.929 . S
C1648 C1647 1.383 . S
C1648 C1649 1.377 . S
C1649 H1633 0.924 . S
C1649 C1648 1.377 . S
C1649 C1650 1.379 . S
C1650 H1634 0.931 . S
C1650 C1644 1.383 . S
C1650 C1649 1.379 . S
H1651 C1645 0.959 . S
H1652 C1645 0.961 . S
H1653 C1645 0.960 . S
H1654 C1646 0.930 . S
H1655 C1647 0.929 . S
H1656 C1664 0.929 . S
H1657 C1666 0.930 . S
H1658 C1668 0.930 . S
H1659 C1671 0.930 . S
H1660 C1674 0.930 . S
H1661 C1676 0.960 . S
H1662 C1676 0.960 . S
H1663 C1676 0.960 . S
C1664 H1656 0.929 . S
C1664 C1665 1.377 . S
C1664 C1666 1.384 . S
C1665 C1664 1.377 . S
C1665 C1671 1.390 . S
C1666 H1657 0.930 . S
C1666 C1664 1.384 . S
C1666 C1667 1.372 . S
C1667 C1666 1.372 . S
C1667 C1668 1.400 . S
C1667 C1672 1.490 . S
C1668 H1658 0.930 . S
C1668 C1667 1.400 . S
C1668 C1671 1.386 . S
H1669 C1685 0.930 . S
H1670 C1686 0.931 . S
C1671 H1659 0.930 . S
C1671 C1665 1.390 . S
C1671 C1668 1.386 . S
C1672 C1667 1.490 . S
C1672 C1674 1.395 . S
C1672 C1675 1.403 . S
H1673 C1679 0.930 . S
C1674 H1660 0.930 . S
C1674 C1672 1.395 . S
C1674 C1677 1.403 . S
C1675 C1672 1.403 . S
C1675 C1676 1.524 . S
C1675 C1679 1.400 . S
C1676 H1661 0.960 . S
C1676 H1662 0.960 . S
C1676 H1663 0.960 . S
C1676 C1675 1.524 . S
C1677 C1674 1.403 . S
C1677 C1678 1.392 . S
C1677 C1681 1.495 . S
C1678 C1677 1.392 . S
C1678 C1679 1.385 . S
C1678 C1680 1.478 . S
C1679 H1673 0.930 . S
C1679 C1675 1.400 . S
C1679 C1678 1.385 . S
C1680 C1678 1.478 . S
C1680 C1682 1.381 . S
C1680 C1686 1.383 . S
C1681 C1677 1.495 . S
C1681 H1687 0.959 1_565 S
C1681 H1688 0.961 . S
C1681 H1689 0.960 . S
C1682 C1680 1.381 . S
C1682 C1683 1.394 . S
C1682 H1690 0.930 . S
C1683 C1682 1.394 . S
C1683 C1684 1.383 . S
C1683 H1691 0.929 . S
C1684 C1683 1.383 . S
C1684 C1685 1.377 . S
C1685 H1669 0.930 . S
C1685 C1684 1.377 . S
C1685 C1686 1.379 . S
C1686 H1670 0.931 . S
C1686 C1680 1.383 . S
C1686 C1685 1.379 . S
H1687 C1681 0.959 1_545 S
H1688 C1681 0.961 . S
H1689 C1681 0.960 . S
H1690 C1682 0.930 . S
H1691 C1683 0.929 . S
H1692 C1700 0.929 . S
H1693 C1702 0.930 . S
H1694 C1704 0.930 . S
H1695 C1707 0.929 . S
H1696 C1710 0.930 . S
H1697 C1712 0.960 . S
H1698 C1712 0.960 . S
H1699 C1712 0.960 . S
C1700 H1692 0.929 . S
C1700 C1701 1.377 . S
C1700 C1702 1.384 . S
C1701 C1700 1.377 . S
C1701 C1707 1.390 . S
C1702 H1693 0.930 . S
C1702 C1700 1.384 . S
C1702 C1703 1.372 . S
C1703 C1702 1.372 . S
C1703 C1704 1.400 . S
C1703 C1708 1.490 . S
C1704 H1694 0.930 . S
C1704 C1703 1.400 . S
C1704 C1707 1.386 . S
H1705 C1721 0.930 . S
H1706 C1722 0.931 . S
C1707 H1695 0.929 . S
C1707 C1701 1.390 . S
C1707 C1704 1.386 . S
C1708 C1703 1.490 . S
C1708 C1710 1.395 . S
C1708 C1711 1.403 . S
H1709 C1715 0.930 . S
C1710 H1696 0.930 . S
C1710 C1708 1.395 . S
C1710 C1713 1.403 . S
C1711 C1708 1.403 . S
C1711 C1712 1.524 . S
C1711 C1715 1.400 . S
C1712 H1697 0.960 . S
C1712 H1698 0.960 . S
C1712 H1699 0.960 . S
C1712 C1711 1.524 . S
C1713 C1710 1.403 . S
C1713 C1714 1.392 . S
C1713 C1717 1.495 . S
C1714 C1713 1.392 . S
C1714 C1715 1.385 . S
C1714 C1716 1.478 . S
C1715 H1709 0.930 . S
C1715 C1711 1.400 . S
C1715 C1714 1.385 . S
C1716 C1714 1.478 . S
C1716 C1718 1.381 . S
C1716 C1722 1.383 . S
C1717 C1713 1.495 . S
C1717 H1723 0.959 . S
C1717 H1724 0.961 . S
C1717 H1725 0.960 . S
C1718 C1716 1.381 . S
C1718 C1719 1.394 . S
C1718 H1726 0.930 . S
C1719 C1718 1.394 . S
C1719 C1720 1.383 . S
C1719 H1727 0.929 . S
C1720 C1719 1.383 . S
C1720 C1721 1.377 . S
C1721 H1705 0.930 . S
C1721 C1720 1.377 . S
C1721 C1722 1.379 . S
C1722 H1706 0.931 . S
C1722 C1716 1.383 . S
C1722 C1721 1.379 . S
H1723 C1717 0.959 . S
H1724 C1717 0.961 . S
H1725 C1717 0.960 . S
H1726 C1718 0.930 . S
H1727 C1719 0.929 . S
H1728 C1736 0.929 . S
H1729 C1738 0.930 . S
H1730 C1740 0.930 . S
H1731 C1743 0.929 . S
H1732 C1746 0.930 . S
H1733 C1748 0.960 . S
H1734 C1748 0.960 . S
H1735 C1748 0.960 . S
C1736 H1728 0.929 . S
C1736 C1737 1.377 . S
C1736 C1738 1.384 . S
C1737 C1736 1.377 . S
C1737 C1743 1.390 . S
C1738 H1729 0.930 . S
C1738 C1736 1.384 . S
C1738 C1739 1.372 . S
C1739 C1738 1.372 . S
C1739 C1740 1.400 . S
C1739 C1744 1.490 . S
C1740 H1730 0.930 . S
C1740 C1739 1.400 . S
C1740 C1743 1.386 . S
H1741 C1757 0.930 . S
H1742 C1758 0.931 . S
C1743 H1731 0.929 . S
C1743 C1737 1.390 . S
C1743 C1740 1.386 . S
C1744 C1739 1.490 . S
C1744 C1746 1.395 . S
C1744 C1747 1.403 . S
H1745 C1751 0.930 . S
C1746 H1732 0.930 . S
C1746 C1744 1.395 . S
C1746 C1749 1.403 . S
C1747 C1744 1.403 . S
C1747 C1748 1.524 . S
C1747 C1751 1.400 . S
C1748 H1733 0.960 . S
C1748 H1734 0.960 . S
C1748 H1735 0.960 . S
C1748 C1747 1.524 . S
C1749 C1746 1.403 . S
C1749 C1750 1.392 . S
C1749 C1753 1.495 . S
C1750 C1749 1.392 . S
C1750 C1751 1.385 . S
C1750 C1752 1.478 . S
C1751 H1745 0.930 . S
C1751 C1747 1.400 . S
C1751 C1750 1.385 . S
C1752 C1750 1.478 . S
C1752 C1754 1.381 . S
C1752 C1758 1.383 . S
C1753 C1749 1.495 . S
C1753 H1759 0.959 . S
C1753 H1760 0.961 . S
C1753 H1761 0.960 . S
C1754 C1752 1.381 . S
C1754 C1755 1.394 . S
C1754 H1762 0.930 . S
C1755 C1754 1.394 . S
C1755 C1756 1.383 . S
C1755 H1763 0.929 . S
C1756 C1755 1.383 . S
C1756 C1757 1.377 . S
C1757 H1741 0.930 . S
C1757 C1756 1.377 . S
C1757 C1758 1.379 . S
C1758 H1742 0.931 . S
C1758 C1752 1.383 . S
C1758 C1757 1.379 . S
H1759 C1753 0.959 . S
H1760 C1753 0.961 . S
H1761 C1753 0.960 . S
H1762 C1754 0.930 . S
H1763 C1755 0.929 . S
H1764 C1772 0.929 . S
H1765 C1774 0.930 . S
H1766 C1776 0.930 . S
H1767 C1779 0.929 . S
H1768 C1782 0.930 . S
H1769 C1784 0.960 . S
H1770 C1784 0.960 . S
H1771 C1784 0.960 . S
C1772 H1764 0.929 . S
C1772 C1773 1.377 . S
C1772 C1774 1.384 . S
C1773 C1772 1.377 . S
C1773 C1779 1.390 . S
C1774 H1765 0.930 . S
C1774 C1772 1.384 . S
C1774 C1775 1.372 . S
C1775 C1774 1.372 . S
C1775 C1776 1.400 . S
C1775 C1780 1.490 . S
C1776 H1766 0.930 . S
C1776 C1775 1.400 . S
C1776 C1779 1.386 . S
H1777 C1793 0.930 . S
H1778 C1794 0.931 . S
C1779 H1767 0.929 . S
C1779 C1773 1.390 . S
C1779 C1776 1.386 . S
C1780 C1775 1.490 . S
C1780 C1782 1.395 . S
C1780 C1783 1.403 . S
H1781 C1787 0.930 . S
C1782 H1768 0.930 . S
C1782 C1780 1.395 . S
C1782 C1785 1.403 . S
C1783 C1780 1.403 . S
C1783 C1784 1.524 . S
C1783 C1787 1.400 . S
C1784 H1769 0.960 . S
C1784 H1770 0.960 . S
C1784 H1771 0.960 . S
C1784 C1783 1.524 . S
C1785 C1782 1.403 . S
C1785 C1786 1.392 . S
C1785 C1789 1.495 1_655 S
C1786 C1785 1.392 . S
C1786 C1787 1.385 . S
C1786 C1788 1.478 . S
C1787 H1781 0.930 . S
C1787 C1783 1.400 . S
C1787 C1786 1.385 . S
C1788 C1786 1.478 . S
C1788 C1790 1.381 1_655 S
C1788 C1794 1.383 . S
C1789 C1785 1.495 1_455 S
C1789 H1795 0.959 . S
C1789 H1796 0.961 . S
C1789 H1797 0.960 . S
C1790 C1788 1.381 1_455 S
C1790 C1791 1.394 . S
C1790 H1798 0.930 . S
C1791 C1790 1.394 . S
C1791 C1792 1.383 . S
C1791 H1799 0.929 . S
C1792 C1791 1.383 . S
C1792 C1793 1.379 1_455 S
C1793 H1777 0.930 . S
C1793 C1792 1.379 1_655 S
C1793 C1794 1.379 . S
C1794 H1778 0.931 . S
C1794 C1788 1.383 . S
C1794 C1793 1.379 . S
H1795 C1789 0.959 . S
H1796 C1789 0.961 . S
H1797 C1789 0.960 . S
H1798 C1790 0.930 . S
H1799 C1791 0.929 . S
H1800 C1808 0.929 . S
H1801 C1810 0.930 . S
H1802 C1812 0.930 . S
H1803 C1815 0.929 . S
H1804 C1818 0.930 . S
H1805 C1820 0.960 . S
H1806 C1820 0.960 . S
H1807 C1820 0.960 . S
C1808 H1800 0.929 . S
C1808 C1809 1.377 . S
C1808 C1810 1.384 . S
C1809 C1808 1.377 . S
C1809 C1815 1.390 . S
C1810 H1801 0.930 . S
C1810 C1808 1.384 . S
C1810 C1811 1.372 . S
C1811 C1810 1.372 . S
C1811 C1812 1.400 . S
C1811 C1816 1.490 . S
C1812 H1802 0.930 . S
C1812 C1811 1.400 . S
C1812 C1815 1.386 . S
H1813 C1829 0.930 . S
H1814 C1830 0.931 . S
C1815 H1803 0.929 . S
C1815 C1809 1.390 . S
C1815 C1812 1.386 . S
C1816 C1811 1.490 . S
C1816 C1818 1.395 . S
C1816 C1819 1.403 . S
H1817 C1823 0.930 . S
C1818 H1804 0.930 . S
C1818 C1816 1.395 . S
C1818 C1821 1.403 . S
C1819 C1816 1.403 . S
C1819 C1820 1.524 . S
C1819 C1823 1.400 . S
C1820 H1805 0.960 . S
C1820 H1806 0.960 . S
C1820 H1807 0.960 . S
C1820 C1819 1.524 . S
C1821 C1818 1.403 . S
C1821 C1822 1.392 . S
C1821 C1825 1.495 . S
C1822 C1821 1.392 . S
C1822 C1823 1.385 . S
C1822 C1824 1.478 . S
C1823 H1817 0.930 . S
C1823 C1819 1.400 . S
C1823 C1822 1.385 . S
C1824 C1822 1.478 . S
C1824 C1826 1.381 . S
C1824 C1830 1.383 . S
C1825 C1821 1.495 . S
C1825 H1831 0.959 . S
C1825 H1832 0.961 . S
C1825 H1833 0.960 . S
C1826 C1824 1.381 . S
C1826 C1827 1.394 . S
C1826 H1834 0.930 . S
C1827 C1826 1.394 . S
C1827 C1828 1.383 . S
C1827 H1835 0.929 . S
C1828 C1827 1.383 . S
C1828 C1829 1.377 . S
C1829 H1813 0.930 . S
C1829 C1828 1.377 . S
C1829 C1830 1.379 . S
C1830 H1814 0.931 . S
C1830 C1824 1.383 . S
C1830 C1829 1.379 . S
H1831 C1825 0.959 . S
H1832 C1825 0.961 . S
H1833 C1825 0.960 . S
H1834 C1826 0.930 . S
H1835 C1827 0.929 . S
H1836 C1844 0.929 . S
H1837 C1846 0.930 . S
H1838 C1848 0.930 . S
H1839 C1851 0.929 . S
H1840 C1854 0.930 . S
H1841 C1856 0.960 . S
H1842 C1856 0.960 . S
H1843 C1856 0.960 . S
C1844 H1836 0.929 . S
C1844 C1845 1.377 . S
C1844 C1846 1.384 . S
C1845 C1844 1.377 . S
C1845 C1851 1.390 . S
C1846 H1837 0.930 . S
C1846 C1844 1.384 . S
C1846 C1847 1.372 . S
C1847 C1846 1.372 . S
C1847 C1848 1.400 . S
C1847 C1852 1.490 . S
C1848 H1838 0.930 . S
C1848 C1847 1.400 . S
C1848 C1851 1.386 . S
H1849 C1865 0.930 . S
H1850 C1866 0.931 . S
C1851 H1839 0.929 . S
C1851 C1845 1.390 . S
C1851 C1848 1.386 . S
C1852 C1847 1.490 . S
C1852 C1854 1.395 . S
C1852 C1855 1.403 . S
H1853 C1859 0.930 . S
C1854 H1840 0.930 . S
C1854 C1852 1.395 . S
C1854 C1857 1.403 . S
C1855 C1852 1.403 . S
C1855 C1856 1.524 . S
C1855 C1859 1.400 . S
C1856 H1841 0.960 . S
C1856 H1842 0.960 . S
C1856 H1843 0.960 . S
C1856 C1855 1.524 . S
C1857 C1854 1.403 . S
C1857 C1858 1.392 . S
C1857 C1861 1.495 . S
C1858 C1857 1.392 . S
C1858 C1859 1.385 . S
C1858 C1860 1.478 . S
C1859 H1853 0.930 . S
C1859 C1855 1.400 . S
C1859 C1858 1.385 . S
C1860 C1858 1.478 . S
C1860 C1862 1.381 . S
C1860 C1866 1.383 . S
C1861 C1857 1.495 . S
C1861 H1867 0.959 . S
C1861 H1868 0.961 . S
C1861 H1869 0.960 . S
C1862 C1860 1.381 . S
C1862 C1863 1.394 . S
C1862 H1870 0.930 . S
C1863 C1862 1.394 . S
C1863 C1864 1.383 . S
C1863 H1871 0.929 . S
C1864 C1863 1.383 . S
C1864 C1865 1.377 . S
C1865 H1849 0.930 . S
C1865 C1864 1.377 . S
C1865 C1866 1.379 . S
C1866 H1850 0.931 . S
C1866 C1860 1.383 . S
C1866 C1865 1.379 . S
H1867 C1861 0.959 . S
H1868 C1861 0.961 . S
H1869 C1861 0.960 . S
H1870 C1862 0.930 . S
H1871 C1863 0.929 . S
H1872 C1880 0.929 . S
H1873 C1882 0.930 . S
H1874 C1884 0.930 . S
H1875 C1887 0.929 . S
H1876 C1890 0.930 . S
H1877 C1892 0.960 . S
H1878 C1892 0.960 . S
H1879 C1892 0.960 . S
C1880 H1872 0.929 . S
C1880 C1881 1.377 . S
C1880 C1882 1.384 . S
C1881 C1880 1.377 . S
C1881 C1887 1.390 . S
C1882 H1873 0.930 . S
C1882 C1880 1.384 . S
C1882 C1883 1.372 . S
C1883 C1882 1.372 . S
C1883 C1884 1.400 . S
C1883 C1888 1.490 . S
C1884 H1874 0.930 . S
C1884 C1883 1.400 . S
C1884 C1887 1.386 . S
H1885 C1901 0.930 . S
H1886 C1902 0.931 . S
C1887 H1875 0.929 . S
C1887 C1881 1.390 . S
C1887 C1884 1.386 . S
C1888 C1883 1.490 . S
C1888 C1890 1.395 . S
C1888 C1891 1.403 . S
H1889 C1895 0.930 . S
C1890 H1876 0.930 . S
C1890 C1888 1.395 . S
C1890 C1893 1.403 . S
C1891 C1888 1.403 . S
C1891 C1892 1.524 . S
C1891 C1895 1.400 . S
C1892 H1877 0.960 . S
C1892 H1878 0.960 . S
C1892 H1879 0.960 . S
C1892 C1891 1.524 . S
C1893 C1890 1.403 . S
C1893 C1894 1.392 . S
C1893 C1897 1.495 . S
C1894 C1893 1.392 . S
C1894 C1895 1.385 . S
C1894 C1896 1.478 . S
C1895 H1889 0.930 . S
C1895 C1891 1.400 . S
C1895 C1894 1.385 . S
C1896 C1894 1.478 . S
C1896 C1898 1.381 . S
C1896 C1902 1.383 . S
C1897 C1893 1.495 . S
C1897 H1903 0.959 . S
C1897 H1904 0.961 . S
C1897 H1905 0.960 . S
C1898 C1896 1.381 . S
C1898 C1899 1.394 . S
C1898 H1906 0.930 . S
C1899 C1898 1.394 . S
C1899 C1900 1.383 . S
C1899 H1907 0.929 . S
C1900 C1899 1.383 . S
C1900 C1901 1.377 . S
C1901 H1885 0.930 . S
C1901 C1900 1.377 . S
C1901 C1902 1.379 . S
C1902 H1886 0.931 . S
C1902 C1896 1.383 . S
C1902 C1901 1.379 . S
H1903 C1897 0.959 . S
H1904 C1897 0.961 . S
H1905 C1897 0.960 . S
H1906 C1898 0.930 . S
H1907 C1899 0.929 . S
H1908 C1916 0.929 . S
H1909 C1918 0.930 . S
H1910 C1920 0.930 1_545 S
H1911 C1923 0.929 . S
H1912 C1926 0.932 . S
H1913 C1928 0.960 . S
H1914 C1928 0.960 . S
H1915 C1928 0.960 . S
C1916 H1908 0.929 . S
C1916 C1917 1.377 . S
C1916 C1918 1.384 . S
C1917 C1916 1.377 . S
C1917 C1923 1.390 . S
C1918 H1909 0.930 . S
C1918 C1916 1.384 . S
C1918 C1919 1.372 . S
C1919 C1918 1.372 . S
C1919 C1920 1.400 . S
C1919 C1924 1.490 1_565 S
C1920 H1910 0.930 1_565 S
C1920 C1919 1.400 . S
C1920 C1923 1.386 . S
H1921 C1937 0.930 . S
H1922 C1938 0.931 . S
C1923 H1911 0.929 . S
C1923 C1917 1.390 . S
C1923 C1920 1.386 . S
C1924 C1919 1.490 1_545 S
C1924 C1926 1.395 1_545 S
C1924 C1927 1.403 . S
H1925 C1931 0.930 . S
C1926 H1912 0.932 . S
C1926 C1924 1.395 1_565 S
C1926 C1929 1.401 1_565 S
C1927 C1924 1.403 . S
C1927 C1928 1.524 . S
C1927 C1931 1.400 . S
C1928 H1913 0.960 . S
C1928 H1914 0.960 . S
C1928 H1915 0.960 . S
C1928 C1927 1.524 . S
C1929 C1926 1.401 1_545 S
C1929 C1930 1.392 . S
C1929 C1933 1.495 . S
C1930 C1929 1.392 . S
C1930 C1931 1.385 . S
C1930 C1932 1.478 . S
C1931 H1925 0.930 . S
C1931 C1927 1.400 . S
C1931 C1930 1.385 . S
C1932 C1930 1.478 . S
C1932 C1934 1.381 . S
C1932 C1938 1.383 . S
C1933 C1929 1.495 . S
C1933 H1939 0.959 1_545 S
C1933 H1940 0.961 . S
C1933 H1941 0.960 . S
C1934 C1932 1.381 . S
C1934 C1935 1.394 . S
C1934 H1942 0.930 . S
C1935 C1934 1.394 . S
C1935 C1936 1.383 . S
C1935 H1943 0.929 . S
C1936 C1935 1.383 . S
C1936 C1937 1.377 . S
C1937 H1921 0.930 . S
C1937 C1936 1.377 . S
C1937 C1938 1.379 . S
C1938 H1922 0.931 . S
C1938 C1932 1.383 . S
C1938 C1937 1.379 . S
H1939 C1933 0.959 1_565 S
H1940 C1933 0.961 . S
H1941 C1933 0.960 . S
H1942 C1934 0.930 . S
H1943 C1935 0.929 . S
H1944 C1952 0.929 . S
H1945 C1954 0.930 . S
H1946 C1956 0.930 . S
H1947 C1959 0.929 . S
H1948 C1962 0.930 . S
H1949 C1964 0.960 . S
H1950 C1964 0.960 . S
H1951 C1964 0.960 . S
C1952 H1944 0.929 . S
C1952 C1953 1.377 . S
C1952 C1954 1.384 . S
C1953 C1952 1.377 . S
C1953 C1959 1.390 . S
C1954 H1945 0.930 . S
C1954 C1952 1.384 . S
C1954 C1955 1.372 . S
C1955 C1954 1.372 . S
C1955 C1956 1.400 . S
C1955 C1960 1.490 1_655 S
C1956 H1946 0.930 . S
C1956 C1955 1.400 . S
C1956 C1959 1.386 . S
H1957 C1973 0.930 . S
H1958 C1974 0.931 . S
C1959 H1947 0.929 . S
C1959 C1953 1.390 . S
C1959 C1956 1.386 . S
C1960 C1955 1.490 1_455 S
C1960 C1962 1.395 1_455 S
C1960 C1963 1.403 . S
H1961 C1967 0.930 . S
C1962 H1948 0.930 . S
C1962 C1960 1.395 1_655 S
C1962 C1965 1.403 1_655 S
C1963 C1960 1.403 . S
C1963 C1964 1.524 . S
C1963 C1967 1.400 . S
C1964 H1949 0.960 . S
C1964 H1950 0.960 . S
C1964 H1951 0.960 . S
C1964 C1963 1.524 . S
C1965 C1962 1.403 1_455 S
C1965 C1966 1.392 . S
C1965 C1969 1.495 . S
C1966 C1965 1.392 . S
C1966 C1967 1.385 . S
C1966 C1968 1.478 . S
C1967 H1961 0.930 . S
C1967 C1963 1.400 . S
C1967 C1966 1.385 . S
C1968 C1966 1.478 . S
C1968 C1970 1.381 . S
C1968 C1974 1.383 . S
C1969 C1965 1.495 . S
C1969 H1975 0.959 1_455 S
C1969 H1976 0.961 . S
C1969 H1977 0.960 . S
C1970 C1968 1.381 . S
C1970 C1971 1.394 . S
C1970 H1978 0.930 . S
C1971 C1970 1.394 . S
C1971 C1972 1.383 . S
C1971 H1979 0.929 . S
C1972 C1971 1.383 . S
C1972 C1973 1.377 . S
C1973 H1957 0.930 . S
C1973 C1972 1.377 . S
C1973 C1974 1.379 . S
C1974 H1958 0.931 . S
C1974 C1968 1.383 . S
C1974 C1973 1.379 . S
H1975 C1969 0.959 1_655 S
H1976 C1969 0.961 . S
H1977 C1969 0.960 . S
H1978 C1970 0.930 . S
H1979 C1971 0.929 . S
H1980 C1988 0.929 . S
H1981 C1990 0.930 . S
H1982 C1992 0.930 . S
H1983 C1995 0.929 . S
H1984 C1998 0.930 . S
H1985 C2000 0.960 . S
H1986 C2000 0.960 . S
H1987 C2000 0.960 . S
C1988 H1980 0.929 . S
C1988 C1989 1.377 . S
C1988 C1990 1.384 . S
C1989 C1988 1.377 . S
C1989 C1995 1.390 . S
C1990 H1981 0.930 . S
C1990 C1988 1.384 . S
C1990 C1991 1.372 . S
C1991 C1990 1.372 . S
C1991 C1992 1.400 . S
C1991 C1996 1.490 . S
C1992 H1982 0.930 . S
C1992 C1991 1.400 . S
C1992 C1995 1.386 . S
H1993 C2009 0.930 . S
H1994 C2010 0.931 . S
C1995 H1983 0.929 . S
C1995 C1989 1.390 . S
C1995 C1992 1.386 . S
C1996 C1991 1.490 . S
C1996 C1998 1.395 . S
C1996 C1999 1.403 . S
H1997 C2003 0.930 . S
C1998 H1984 0.930 . S
C1998 C1996 1.395 . S
C1998 C2001 1.403 . S
C1999 C1996 1.403 . S
C1999 C2000 1.524 . S
C1999 C2003 1.400 . S
C2000 H1985 0.960 . S
C2000 H1986 0.960 . S
C2000 H1987 0.960 . S
C2000 C1999 1.524 . S
C2001 C1998 1.403 . S
C2001 C2002 1.392 . S
C2001 C2005 1.495 . S
C2002 C2001 1.392 . S
C2002 C2003 1.385 . S
C2002 C2004 1.478 . S
C2003 H1997 0.930 . S
C2003 C1999 1.400 . S
C2003 C2002 1.385 . S
C2004 C2002 1.478 . S
C2004 C2006 1.381 . S
C2004 C2010 1.383 . S
C2005 C2001 1.495 . S
C2005 H2011 0.959 . S
C2005 H2012 0.961 . S
C2005 H2013 0.960 . S
C2006 C2004 1.381 . S
C2006 C2007 1.394 . S
C2006 H2014 0.930 . S
C2007 C2006 1.394 . S
C2007 C2008 1.383 . S
C2007 H2015 0.929 . S
C2008 C2007 1.383 . S
C2008 C2009 1.377 . S
C2009 H1993 0.930 . S
C2009 C2008 1.377 . S
C2009 C2010 1.379 . S
C2010 H1994 0.931 . S
C2010 C2004 1.383 . S
C2010 C2009 1.379 . S
H2011 C2005 0.959 . S
H2012 C2005 0.961 . S
H2013 C2005 0.960 . S
H2014 C2006 0.930 . S
H2015 C2007 0.929 . S
H2016 C2024 0.929 . S
H2017 C2026 0.930 . S
H2018 C2028 0.930 1_545 S
H2019 C2031 0.929 . S
H2020 C2034 0.930 1_565 S
H2021 C2036 0.960 . S
H2022 C2036 0.960 1_565 S
H2023 C2036 0.960 . S
C2024 H2016 0.929 . S
C2024 C2025 1.377 . S
C2024 C2026 1.384 . S
C2025 C2024 1.377 . S
C2025 C2031 1.390 . S
C2026 H2017 0.930 . S
C2026 C2024 1.384 . S
C2026 C2027 1.372 . S
C2027 C2026 1.372 . S
C2027 C2028 1.400 . S
C2027 C2032 1.490 1_565 S
C2028 H2018 0.930 1_565 S
C2028 C2027 1.400 . S
C2028 C2031 1.386 . S
H2029 C2045 0.930 . S
H2030 C2046 0.931 . S
C2031 H2019 0.929 . S
C2031 C2025 1.390 . S
C2031 C2028 1.386 . S
C2032 C2027 1.490 1_545 S
C2032 C2034 1.395 . S
C2032 C2035 1.403 . S
H2033 C2039 0.930 . S
C2034 H2020 0.930 1_545 S
C2034 C2032 1.395 . S
C2034 C2037 1.403 . S
C2035 C2032 1.403 . S
C2035 C2036 1.524 . S
C2035 C2039 1.400 . S
C2036 H2021 0.960 . S
C2036 H2022 0.960 1_545 S
C2036 H2023 0.960 . S
C2036 C2035 1.524 . S
C2037 C2034 1.403 . S
C2037 C2038 1.392 . S
C2037 C2041 1.495 . S
C2038 C2037 1.392 . S
C2038 C2039 1.385 . S
C2038 C2040 1.478 . S
C2039 H2033 0.930 . S
C2039 C2035 1.400 . S
C2039 C2038 1.385 . S
C2040 C2038 1.478 . S
C2040 C2042 1.381 . S
C2040 C2046 1.383 . S
C2041 C2037 1.495 . S
C2041 H2047 0.959 . S
C2041 H2048 0.961 . S
C2041 H2049 0.960 . S
C2042 C2040 1.381 . S
C2042 C2043 1.394 . S
C2042 H2050 0.930 . S
C2043 C2042 1.394 . S
C2043 C2044 1.383 . S
C2043 H2051 0.929 . S
C2044 C2043 1.383 . S
C2044 C2045 1.377 . S
C2045 H2029 0.930 . S
C2045 C2044 1.377 . S
C2045 C2046 1.379 . S
C2046 H2030 0.931 . S
C2046 C2040 1.383 . S
C2046 C2045 1.379 . S
H2047 C2041 0.959 . S
H2048 C2041 0.961 . S
H2049 C2041 0.960 . S
H2050 C2042 0.930 . S
H2051 C2043 0.929 . S
H2052 C2060 0.929 . S
H2053 C2062 0.910 1_455 S
H2054 C2064 0.930 . S
H2055 C2067 0.929 . S
H2056 C2070 0.930 . S
H2057 C2072 0.960 . S
H2058 C2072 0.960 . S
H2059 C2072 0.960 . S
C2060 H2052 0.929 . S
C2060 C2061 1.377 . S
C2060 C2062 1.384 . S
C2061 C2060 1.377 . S
C2061 C2067 1.390 . S
C2062 H2053 0.910 1_655 S
C2062 C2060 1.384 . S
C2062 C2063 1.372 . S
C2063 C2062 1.372 . S
C2063 C2064 1.400 . S
C2063 C2068 1.490 1_655 S
C2064 H2054 0.930 . S
C2064 C2063 1.400 . S
C2064 C2067 1.386 . S
H2065 C2081 0.930 . S
H2066 C2082 0.931 . S
C2067 H2055 0.929 . S
C2067 C2061 1.390 . S
C2067 C2064 1.386 . S
C2068 C2063 1.490 1_455 S
C2068 C2070 1.395 . S
C2068 C2071 1.403 . S
H2069 C2075 0.930 . S
C2070 H2056 0.930 . S
C2070 C2068 1.395 . S
C2070 C2073 1.403 . S
C2071 C2068 1.403 . S
C2071 C2072 1.524 1_455 S
C2071 C2075 1.400 . S
C2072 H2057 0.960 . S
C2072 H2058 0.960 . S
C2072 H2059 0.960 . S
C2072 C2071 1.524 1_655 S
C2073 C2070 1.403 . S
C2073 C2074 1.392 . S
C2073 C2077 1.495 . S
C2074 C2073 1.392 . S
C2074 C2075 1.385 . S
C2074 C2076 1.478 . S
C2075 H2069 0.930 . S
C2075 C2071 1.400 . S
C2075 C2074 1.385 . S
C2076 C2074 1.478 . S
C2076 C2078 1.381 . S
C2076 C2082 1.383 . S
C2077 C2073 1.495 . S
C2077 H2083 0.959 . S
C2077 H2084 0.961 . S
C2077 H2085 0.960 . S
C2078 C2076 1.381 . S
C2078 C2079 1.394 . S
C2078 H2086 0.930 . S
C2079 C2078 1.394 . S
C2079 C2080 1.383 . S
C2079 H2087 0.929 . S
C2080 C2079 1.383 . S
C2080 C2081 1.377 . S
C2081 H2065 0.930 . S
C2081 C2080 1.377 . S
C2081 C2082 1.379 . S
C2082 H2066 0.931 . S
C2082 C2076 1.383 . S
C2082 C2081 1.379 . S
H2083 C2077 0.959 . S
H2084 C2077 0.961 . S
H2085 C2077 0.960 . S
H2086 C2078 0.930 . S
H2087 C2079 0.929 . S
H2088 C2096 0.929 1_565 S
H2089 C2098 0.930 1_565 S
H2090 C2100 0.930 . S
H2091 C2103 0.929 . S
H2092 C2106 0.930 1_565 S
H2093 C2108 0.960 . S
H2094 C2108 0.960 . S
H2095 C2108 0.960 . S
C2096 H2088 0.929 1_545 S
C2096 C2097 1.377 . S
C2096 C2098 1.384 . S
C2097 C2096 1.377 . S
C2097 C2103 1.390 . S
C2098 H2089 0.930 1_545 S
C2098 C2096 1.384 . S
C2098 C2099 1.372 . S
C2099 C2098 1.372 . S
C2099 C2100 1.400 . S
C2099 C2104 1.490 . S
C2100 H2090 0.930 . S
C2100 C2099 1.400 . S
C2100 C2103 1.386 . S
H2101 C2117 0.930 . S
H2102 C2118 0.931 . S
C2103 H2091 0.929 . S
C2103 C2097 1.390 . S
C2103 C2100 1.386 . S
C2104 C2099 1.490 . S
C2104 C2106 1.395 . S
C2104 C2107 1.403 . S
H2105 C2111 0.930 . S
C2106 H2092 0.930 1_545 S
C2106 C2104 1.395 . S
C2106 C2109 1.403 1_554 S
C2107 C2104 1.403 . S
C2107 C2108 1.524 . S
C2107 C2111 1.400 1_554 S
C2108 H2093 0.960 . S
C2108 H2094 0.960 . S
C2108 H2095 0.960 . S
C2108 C2107 1.524 . S
C2109 C2106 1.403 1_556 S
C2109 C2110 1.392 . S
C2109 C2113 1.495 1_545 S
C2110 C2109 1.392 . S
C2110 C2111 1.385 . S
C2110 C2112 1.478 . S
C2111 H2105 0.930 . S
C2111 C2107 1.400 1_556 S
C2111 C2110 1.385 . S
C2112 C2110 1.478 . S
C2112 C2114 1.381 . S
C2112 C2118 1.383 . S
C2113 C2109 1.495 1_565 S
C2113 H2119 0.959 . S
C2113 H2120 0.961 . S
C2113 H2121 0.960 . S
C2114 C2112 1.381 . S
C2114 C2115 1.394 . S
C2114 H2122 0.930 1_545 S
C2115 C2114 1.394 . S
C2115 C2116 1.383 . S
C2115 H2123 0.929 1_545 S
C2116 C2115 1.383 . S
C2116 C2117 1.377 . S
C2117 H2101 0.930 . S
C2117 C2116 1.377 . S
C2117 C2118 1.379 . S
C2118 H2102 0.931 . S
C2118 C2112 1.383 . S
C2118 C2117 1.379 . S
H2119 C2113 0.959 . S
H2120 C2113 0.961 . S
H2121 C2113 0.960 . S
H2122 C2114 0.930 1_565 S
H2123 C2115 0.929 1_565 S
H2124 C2132 0.929 . S
H2125 C2134 0.930 . S
H2126 C2136 0.930 . S
H2127 C2139 0.929 . S
H2128 C2142 0.930 1_655 S
H2129 C2144 0.960 . S
H2130 C2144 0.960 . S
H2131 C2144 0.960 . S
C2132 H2124 0.929 . S
C2132 C2133 1.377 . S
C2132 C2134 1.384 . S
C2133 C2132 1.377 . S
C2133 C2139 1.390 . S
C2134 H2125 0.930 . S
C2134 C2132 1.384 . S
C2134 C2135 1.372 . S
C2135 C2134 1.372 . S
C2135 C2136 1.400 . S
C2135 C2140 1.490 . S
C2136 H2126 0.930 . S
C2136 C2135 1.400 . S
C2136 C2139 1.386 . S
H2137 C2153 0.930 . S
H2138 C2154 0.931 . S
C2139 H2127 0.929 . S
C2139 C2133 1.390 . S
C2139 C2136 1.386 . S
C2140 C2135 1.490 . S
C2140 C2142 1.395 . S
C2140 C2143 1.403 . S
H2141 C2147 0.930 . S
C2142 H2128 0.930 1_455 S
C2142 C2140 1.395 . S
C2142 C2145 1.403 1_556 S
C2143 C2140 1.403 . S
C2143 C2144 1.524 . S
C2143 C2147 1.400 1_556 S
C2144 H2129 0.960 . S
C2144 H2130 0.960 . S
C2144 H2131 0.960 . S
C2144 C2143 1.524 . S
C2145 C2142 1.403 1_554 S
C2145 C2146 1.392 . S
C2145 C2149 1.495 1_455 S
C2146 C2145 1.392 . S
C2146 C2147 1.385 . S
C2146 C2148 1.478 . S
C2147 H2141 0.930 . S
C2147 C2143 1.400 1_554 S
C2147 C2146 1.385 . S
C2148 C2146 1.478 . S
C2148 C2150 1.381 . S
C2148 C2154 1.383 . S
C2149 C2145 1.495 1_655 S
C2149 H2155 0.959 . S
C2149 H2156 0.961 . S
C2149 H2157 0.960 . S
C2150 C2148 1.381 . S
C2150 C2151 1.394 . S
C2150 H2158 0.930 . S
C2151 C2150 1.394 . S
C2151 C2152 1.383 . S
C2151 H2159 0.929 . S
C2152 C2151 1.383 . S
C2152 C2153 1.377 . S
C2153 H2137 0.930 . S
C2153 C2152 1.377 . S
C2153 C2154 1.379 . S
C2154 H2138 0.931 . S
C2154 C2148 1.383 . S
C2154 C2153 1.379 . S
H2155 C2149 0.959 . S
H2156 C2149 0.961 . S
H2157 C2149 0.960 . S
H2158 C2150 0.930 . S
H2159 C2151 0.929 . S
H2160 C2168 0.929 . S
H2161 C2170 0.930 . S
H2162 C2172 0.930 . S
H2163 C2175 0.929 . S
H2164 C2178 0.930 . S
H2165 C2180 0.960 . S
H2166 C2180 0.960 . S
H2167 C2180 0.960 . S
C2168 H2160 0.929 . S
C2168 C2169 1.377 . S
C2168 C2170 1.384 . S
C2169 C2168 1.377 . S
C2169 C2175 1.390 . S
C2170 H2161 0.930 . S
C2170 C2168 1.384 . S
C2170 C2171 1.372 . S
C2171 C2170 1.372 . S
C2171 C2172 1.400 . S
C2171 C2176 1.490 . S
C2172 H2162 0.930 . S
C2172 C2171 1.400 . S
C2172 C2175 1.386 . S
H2173 C2189 0.930 . S
H2174 C2190 0.931 . S
C2175 H2163 0.929 . S
C2175 C2169 1.390 . S
C2175 C2172 1.386 . S
C2176 C2171 1.490 . S
C2176 C2178 1.395 . S
C2176 C2179 1.403 . S
H2177 C2183 0.930 . S
C2178 H2164 0.930 . S
C2178 C2176 1.395 . S
C2178 C2181 1.403 1_554 S
C2179 C2176 1.403 . S
C2179 C2180 1.524 . S
C2179 C2183 1.400 1_554 S
C2180 H2165 0.960 . S
C2180 H2166 0.960 . S
C2180 H2167 0.960 . S
C2180 C2179 1.524 . S
C2181 C2178 1.403 1_556 S
C2181 C2182 1.392 . S
C2181 C2185 1.495 . S
C2182 C2181 1.392 . S
C2182 C2183 1.385 . S
C2182 C2184 1.478 . S
C2183 H2177 0.930 . S
C2183 C2179 1.400 1_556 S
C2183 C2182 1.385 . S
C2184 C2182 1.478 . S
C2184 C2186 1.381 . S
C2184 C2190 1.383 . S
C2185 C2181 1.495 . S
C2185 H2191 0.959 . S
C2185 H2192 0.961 . S
C2185 H2193 0.960 . S
C2186 C2184 1.381 . S
C2186 C2187 1.394 . S
C2186 H2194 0.930 . S
C2187 C2186 1.394 . S
C2187 C2188 1.383 . S
C2187 H2195 0.929 . S
C2188 C2187 1.383 . S
C2188 C2189 1.377 . S
C2189 H2173 0.930 . S
C2189 C2188 1.377 . S
C2189 C2190 1.379 . S
C2190 H2174 0.931 . S
C2190 C2184 1.383 . S
C2190 C2189 1.379 . S
H2191 C2185 0.959 . S
H2192 C2185 0.961 . S
H2193 C2185 0.960 . S
H2194 C2186 0.930 . S
H2195 C2187 0.929 . S
H2196 C2204 0.929 . S
H2197 C2206 0.930 . S
H2198 C2208 0.930 1_655 S
H2199 C2211 0.929 1_655 S
H2200 C2214 0.930 . S
H2201 C2216 0.977 . S
H2202 C2216 0.960 . S
H2203 C2216 0.960 1_655 S
C2204 H2196 0.929 . S
C2204 C2205 1.377 . S
C2204 C2206 1.384 . S
C2205 C2204 1.377 . S
C2205 C2211 1.390 . S
C2206 H2197 0.930 . S
C2206 C2204 1.384 . S
C2206 C2207 1.372 . S
C2207 C2206 1.372 . S
C2207 C2208 1.400 . S
C2207 C2212 1.490 . S
C2208 H2198 0.930 1_455 S
C2208 C2207 1.400 . S
C2208 C2211 1.386 . S
H2209 C2225 0.930 1_655 S
H2210 C2226 0.931 1_655 S
C2211 H2199 0.929 1_455 S
C2211 C2205 1.390 . S
C2211 C2208 1.386 . S
C2212 C2207 1.490 . S
C2212 C2214 1.395 . S
C2212 C2215 1.403 . S
H2213 C2219 0.930 . S
C2214 H2200 0.930 . S
C2214 C2212 1.395 . S
C2214 C2217 1.403 . S
C2215 C2212 1.403 . S
C2215 C2216 1.524 . S
C2215 C2219 1.400 . S
C2216 H2201 0.977 . S
C2216 H2202 0.960 . S
C2216 H2203 0.960 1_455 S
C2216 C2215 1.524 . S
C2217 C2214 1.403 . S
C2217 C2218 1.392 . S
C2217 C2221 1.495 . S
C2218 C2217 1.392 . S
C2218 C2219 1.385 . S
C2218 C2220 1.478 . S
C2219 H2213 0.930 . S
C2219 C2215 1.400 . S
C2219 C2218 1.385 . S
C2220 C2218 1.478 . S
C2220 C2222 1.381 . S
C2220 C2226 1.383 . S
C2221 C2217 1.495 . S
C2221 H2227 0.959 . S
C2221 H2228 0.961 . S
C2221 H2229 0.960 . S
C2222 C2220 1.381 . S
C2222 C2223 1.394 . S
C2222 H2230 0.930 . S
C2223 C2222 1.394 . S
C2223 C2224 1.383 . S
C2223 H2231 0.929 . S
C2224 C2223 1.383 . S
C2224 C2225 1.377 . S
C2225 H2209 0.930 1_455 S
C2225 C2224 1.377 . S
C2225 C2226 1.379 . S
C2226 H2210 0.931 1_455 S
C2226 C2220 1.383 . S
C2226 C2225 1.379 . S
H2227 C2221 0.959 . S
H2228 C2221 0.961 . S
H2229 C2221 0.960 . S
H2230 C2222 0.930 . S
H2231 C2223 0.929 . S
H2232 C2240 0.929 . S
H2233 C2242 0.930 . S
H2234 C2244 0.930 . S
H2235 C2247 0.929 . S
H2236 C2250 0.930 . S
H2237 C2252 0.960 . S
H2238 C2252 0.960 . S
H2239 C2252 0.960 . S
C2240 H2232 0.929 . S
C2240 C2241 1.377 . S
C2240 C2242 1.384 . S
C2241 C2240 1.377 . S
C2241 C2247 1.390 . S
C2242 H2233 0.930 . S
C2242 C2240 1.384 . S
C2242 C2243 1.372 . S
C2243 C2242 1.372 . S
C2243 C2244 1.400 . S
C2243 C2248 1.490 . S
C2244 H2234 0.930 . S
C2244 C2243 1.400 . S
C2244 C2247 1.386 . S
H2245 C2261 0.930 . S
H2246 C2262 0.931 . S
C2247 H2235 0.929 . S
C2247 C2241 1.390 . S
C2247 C2244 1.386 . S
C2248 C2243 1.490 . S
C2248 C2250 1.395 . S
C2248 C2251 1.403 . S
H2249 C2255 0.930 . S
C2250 H2236 0.930 . S
C2250 C2248 1.395 . S
C2250 C2253 1.403 . S
C2251 C2248 1.403 . S
C2251 C2252 1.524 . S
C2251 C2255 1.400 . S
C2252 H2237 0.960 . S
C2252 H2238 0.960 . S
C2252 H2239 0.960 . S
C2252 C2251 1.524 . S
C2253 C2250 1.403 . S
C2253 C2254 1.392 . S
C2253 C2257 1.495 . S
C2254 C2253 1.392 . S
C2254 C2255 1.385 . S
C2254 C2256 1.478 . S
C2255 H2249 0.930 . S
C2255 C2251 1.400 . S
C2255 C2254 1.385 . S
C2256 C2254 1.478 . S
C2256 C2258 1.381 . S
C2256 C2262 1.383 . S
C2257 C2253 1.495 . S
C2257 H2263 0.959 . S
C2257 H2264 0.961 . S
C2257 H2265 0.960 . S
C2258 C2256 1.381 . S
C2258 C2259 1.394 . S
C2258 H2266 0.930 . S
C2259 C2258 1.394 . S
C2259 C2260 1.383 . S
C2259 H2267 0.929 . S
C2260 C2259 1.383 . S
C2260 C2261 1.377 . S
C2261 H2245 0.930 . S
C2261 C2260 1.377 . S
C2261 C2262 1.379 . S
C2262 H2246 0.931 . S
C2262 C2256 1.383 . S
C2262 C2261 1.379 . S
H2263 C2257 0.959 . S
H2264 C2257 0.961 . S
H2265 C2257 0.960 . S
H2266 C2258 0.930 . S
H2267 C2259 0.929 . S
H2268 C2276 0.929 1_565 S
H2269 C2278 0.930 1_565 S
H2270 C2280 0.930 . S
H2271 C2283 0.929 . S
H2272 C2286 0.930 . S
H2273 C2288 0.960 . S
H2274 C2288 0.960 . S
H2275 C2288 0.960 . S
C2276 H2268 0.929 1_545 S
C2276 C2277 1.377 . S
C2276 C2278 1.384 . S
C2277 C2276 1.377 . S
C2277 C2283 1.390 . S
C2278 H2269 0.930 1_545 S
C2278 C2276 1.384 . S
C2278 C2279 1.372 . S
C2279 C2278 1.372 . S
C2279 C2280 1.400 . S
C2279 C2284 1.490 . S
C2280 H2270 0.930 . S
C2280 C2279 1.400 . S
C2280 C2283 1.386 . S
H2281 C2297 0.930 . S
H2282 C2298 0.931 . S
C2283 H2271 0.929 . S
C2283 C2277 1.390 . S
C2283 C2280 1.386 . S
C2284 C2279 1.490 . S
C2284 C2286 1.395 . S
C2284 C2287 1.403 . S
H2285 C2291 0.930 . S
C2286 H2272 0.930 . S
C2286 C2284 1.395 . S
C2286 C2289 1.403 . S
C2287 C2284 1.403 . S
C2287 C2288 1.524 . S
C2287 C2291 1.400 . S
C2288 H2273 0.960 . S
C2288 H2274 0.960 . S
C2288 H2275 0.960 . S
C2288 C2287 1.524 . S
C2289 C2286 1.403 . S
C2289 C2290 1.392 . S
C2289 C2293 1.495 . S
C2290 C2289 1.392 . S
C2290 C2291 1.385 . S
C2290 C2292 1.478 . S
C2291 H2285 0.930 . S
C2291 C2287 1.400 . S
C2291 C2290 1.385 . S
C2292 C2290 1.478 . S
C2292 C2294 1.381 . S
C2292 C2298 1.383 . S
C2293 C2289 1.495 . S
C2293 H2299 0.959 . S
C2293 H2300 0.961 . S
C2293 H2301 0.960 . S
C2294 C2292 1.381 . S
C2294 C2295 1.394 . S
C2294 H2302 0.930 1_545 S
C2295 C2294 1.394 . S
C2295 C2296 1.383 . S
C2295 H2303 0.929 1_545 S
C2296 C2295 1.383 . S
C2296 C2297 1.377 . S
C2297 H2281 0.930 . S
C2297 C2296 1.377 . S
C2297 C2298 1.379 . S
C2298 H2282 0.931 . S
C2298 C2292 1.383 . S
C2298 C2297 1.379 . S
H2299 C2293 0.959 . S
H2300 C2293 0.961 . S
H2301 C2293 0.960 . S
H2302 C2294 0.930 1_565 S
H2303 C2295 0.929 1_565 S
H2304 C2312 0.929 . S
H2305 C2314 0.930 . S
H2306 C2316 0.930 . S
H2307 C2319 0.929 . S
H2308 C2322 0.930 . S
H2309 C2324 0.960 . S
H2310 C2324 0.960 . S
H2311 C2324 0.960 . S
C2312 H2304 0.929 . S
C2312 C2313 1.377 . S
C2312 C2314 1.384 . S
C2313 C2312 1.377 . S
C2313 C2319 1.390 . S
C2314 H2305 0.930 . S
C2314 C2312 1.384 . S
C2314 C2315 1.372 . S
C2315 C2314 1.372 . S
C2315 C2316 1.400 . S
C2315 C2320 1.490 . S
C2316 H2306 0.930 . S
C2316 C2315 1.400 . S
C2316 C2319 1.386 . S
H2317 C2333 0.930 . S
H2318 C2334 0.931 . S
C2319 H2307 0.929 . S
C2319 C2313 1.390 . S
C2319 C2316 1.386 . S
C2320 C2315 1.490 . S
C2320 C2322 1.395 . S
C2320 C2323 1.403 . S
H2321 C2327 0.930 . S
C2322 H2308 0.930 . S
C2322 C2320 1.395 . S
C2322 C2325 1.403 . S
C2323 C2320 1.403 . S
C2323 C2324 1.524 . S
C2323 C2327 1.400 . S
C2324 H2309 0.960 . S
C2324 H2310 0.960 . S
C2324 H2311 0.960 . S
C2324 C2323 1.524 . S
C2325 C2322 1.403 . S
C2325 C2326 1.392 . S
C2325 C2329 1.495 . S
C2326 C2325 1.392 . S
C2326 C2327 1.385 . S
C2326 C2328 1.478 . S
C2327 H2321 0.930 . S
C2327 C2323 1.400 . S
C2327 C2326 1.385 . S
C2328 C2326 1.478 . S
C2328 C2330 1.381 . S
C2328 C2334 1.383 . S
C2329 C2325 1.495 . S
C2329 H2335 0.959 . S
C2329 H2336 0.961 . S
C2329 H2337 0.960 . S
C2330 C2328 1.381 . S
C2330 C2331 1.394 . S
C2330 H2338 0.930 . S
C2331 C2330 1.394 . S
C2331 C2332 1.383 . S
C2331 H2339 0.929 . S
C2332 C2331 1.383 . S
C2332 C2333 1.377 . S
C2333 H2317 0.930 . S
C2333 C2332 1.377 . S
C2333 C2334 1.379 . S
C2334 H2318 0.931 . S
C2334 C2328 1.383 . S
C2334 C2333 1.379 . S
H2335 C2329 0.959 . S
H2336 C2329 0.961 . S
H2337 C2329 0.960 . S
H2338 C2330 0.930 . S
H2339 C2331 0.929 . S
H2340 C2348 0.929 . S
H2341 C2350 0.930 . S
H2342 C2352 0.930 . S
H2343 C2355 0.929 . S
H2344 C2358 0.930 . S
H2345 C2360 0.960 . S
H2346 C2360 0.960 . S
H2347 C2360 0.960 . S
C2348 H2340 0.929 . S
C2348 C2349 1.377 . S
C2348 C2350 1.384 . S
C2349 C2348 1.377 . S
C2349 C2355 1.390 . S
C2350 H2341 0.930 . S
C2350 C2348 1.384 . S
C2350 C2351 1.372 . S
C2351 C2350 1.372 . S
C2351 C2352 1.400 . S
C2351 C2356 1.490 . S
C2352 H2342 0.930 . S
C2352 C2351 1.400 . S
C2352 C2355 1.386 . S
H2353 C2369 0.930 . S
H2354 C2370 0.931 . S
C2355 H2343 0.929 . S
C2355 C2349 1.390 . S
C2355 C2352 1.386 . S
C2356 C2351 1.490 . S
C2356 C2358 1.395 . S
C2356 C2359 1.403 . S
H2357 C2363 0.930 . S
C2358 H2344 0.930 . S
C2358 C2356 1.395 . S
C2358 C2361 1.403 . S
C2359 C2356 1.403 . S
C2359 C2360 1.524 . S
C2359 C2363 1.400 . S
C2360 H2345 0.960 . S
C2360 H2346 0.960 . S
C2360 H2347 0.960 . S
C2360 C2359 1.524 . S
C2361 C2358 1.403 . S
C2361 C2362 1.392 . S
C2361 C2365 1.495 . S
C2362 C2361 1.392 . S
C2362 C2363 1.385 . S
C2362 C2364 1.478 . S
C2363 H2357 0.930 . S
C2363 C2359 1.400 . S
C2363 C2362 1.385 . S
C2364 C2362 1.478 . S
C2364 C2366 1.381 . S
C2364 C2370 1.383 . S
C2365 C2361 1.495 . S
C2365 H2371 0.959 . S
C2365 H2372 0.961 . S
C2365 H2373 0.960 . S
C2366 C2364 1.381 . S
C2366 C2367 1.394 . S
C2366 H2374 0.930 . S
C2367 C2366 1.394 . S
C2367 C2368 1.383 . S
C2367 H2375 0.929 . S
C2368 C2367 1.383 . S
C2368 C2369 1.377 . S
C2369 H2353 0.930 . S
C2369 C2368 1.377 . S
C2369 C2370 1.379 . S
C2370 H2354 0.931 . S
C2370 C2364 1.383 . S
C2370 C2369 1.379 . S
H2371 C2365 0.959 . S
H2372 C2365 0.961 . S
H2373 C2365 0.960 . S
H2374 C2366 0.930 . S
H2375 C2367 0.929 . S
H2376 C2384 0.929 . S
H2377 C2386 0.930 . S
H2378 C2388 0.930 . S
H2379 C2391 0.929 . S
H2380 C2394 0.930 . S
H2381 C2396 0.960 . S
H2382 C2396 0.960 . S
H2383 C2396 0.960 . S
C2384 H2376 0.929 . S
C2384 C2385 1.377 . S
C2384 C2386 1.384 . S
C2385 C2384 1.377 . S
C2385 C2391 1.390 . S
C2386 H2377 0.930 . S
C2386 C2384 1.384 . S
C2386 C2387 1.372 . S
C2387 C2386 1.372 . S
C2387 C2388 1.400 . S
C2387 C2392 1.490 . S
C2388 H2378 0.930 . S
C2388 C2387 1.400 . S
C2388 C2391 1.386 . S
H2389 C2405 0.930 . S
H2390 C2406 0.931 . S
C2391 H2379 0.929 . S
C2391 C2385 1.390 . S
C2391 C2388 1.386 . S
C2392 C2387 1.490 . S
C2392 C2394 1.395 . S
C2392 C2395 1.403 . S
H2393 C2399 0.930 . S
C2394 H2380 0.930 . S
C2394 C2392 1.395 . S
C2394 C2397 1.403 . S
C2395 C2392 1.403 . S
C2395 C2396 1.524 . S
C2395 C2399 1.400 . S
C2396 H2381 0.960 . S
C2396 H2382 0.960 . S
C2396 H2383 0.960 . S
C2396 C2395 1.524 . S
C2397 C2394 1.403 . S
C2397 C2398 1.392 . S
C2397 C2401 1.495 . S
C2398 C2397 1.392 . S
C2398 C2399 1.385 . S
C2398 C2400 1.478 . S
C2399 H2393 0.930 . S
C2399 C2395 1.400 . S
C2399 C2398 1.385 . S
C2400 C2398 1.478 . S
C2400 C2402 1.381 . S
C2400 C2406 1.383 . S
C2401 C2397 1.495 . S
C2401 H2407 0.959 . S
C2401 H2408 0.961 . S
C2401 H2409 0.960 . S
C2402 C2400 1.381 . S
C2402 C2403 1.394 . S
C2402 H2410 0.930 . S
C2403 C2402 1.394 . S
C2403 C2404 1.383 . S
C2403 H2411 0.929 . S
C2404 C2403 1.383 . S
C2404 C2405 1.377 . S
C2405 H2389 0.930 . S
C2405 C2404 1.377 . S
C2405 C2406 1.379 . S
C2406 H2390 0.931 . S
C2406 C2400 1.383 . S
C2406 C2405 1.379 . S
H2407 C2401 0.959 . S
H2408 C2401 0.961 . S
H2409 C2401 0.960 . S
H2410 C2402 0.930 . S
H2411 C2403 0.929 . S
H2412 C2420 0.929 . S
H2413 C2422 0.930 . S
H2414 C2424 0.930 . S
H2415 C2427 0.929 . S
H2416 C2430 0.930 . S
H2417 C2432 0.960 . S
H2418 C2432 0.960 . S
H2419 C2432 0.960 . S
C2420 H2412 0.929 . S
C2420 C2421 1.377 . S
C2420 C2422 1.384 . S
C2421 C2420 1.377 . S
C2421 C2427 1.390 . S
C2422 H2413 0.930 . S
C2422 C2420 1.384 . S
C2422 C2423 1.372 . S
C2423 C2422 1.372 . S
C2423 C2424 1.400 . S
C2423 C2428 1.490 . S
C2424 H2414 0.930 . S
C2424 C2423 1.400 . S
C2424 C2427 1.386 . S
H2425 C2441 0.930 . S
H2426 C2442 0.931 . S
C2427 H2415 0.929 . S
C2427 C2421 1.390 . S
C2427 C2424 1.386 . S
C2428 C2423 1.490 . S
C2428 C2430 1.395 . S
C2428 C2431 1.403 . S
H2429 C2435 0.930 . S
C2430 H2416 0.930 . S
C2430 C2428 1.395 . S
C2430 C2433 1.403 . S
C2431 C2428 1.403 . S
C2431 C2432 1.524 . S
C2431 C2435 1.400 . S
C2432 H2417 0.960 . S
C2432 H2418 0.960 . S
C2432 H2419 0.960 . S
C2432 C2431 1.524 . S
C2433 C2430 1.403 . S
C2433 C2434 1.392 . S
C2433 C2437 1.495 . S
C2434 C2433 1.392 . S
C2434 C2435 1.385 . S
C2434 C2436 1.478 . S
C2435 H2429 0.930 . S
C2435 C2431 1.400 . S
C2435 C2434 1.385 . S
C2436 C2434 1.478 . S
C2436 C2438 1.381 . S
C2436 C2442 1.383 . S
C2437 C2433 1.495 . S
C2437 H2443 0.959 . S
C2437 H2444 0.961 . S
C2437 H2445 0.960 . S
C2438 C2436 1.381 . S
C2438 C2439 1.394 . S
C2438 H2446 0.930 . S
C2439 C2438 1.394 . S
C2439 C2440 1.383 . S
C2439 H2447 0.929 . S
C2440 C2439 1.383 . S
C2440 C2441 1.377 . S
C2441 H2425 0.930 . S
C2441 C2440 1.377 . S
C2441 C2442 1.379 . S
C2442 H2426 0.931 . S
C2442 C2436 1.383 . S
C2442 C2441 1.379 . S
H2443 C2437 0.959 . S
H2444 C2437 0.961 . S
H2445 C2437 0.960 . S
H2446 C2438 0.930 . S
H2447 C2439 0.929 . S
H2448 C2456 0.929 . S
H2449 C2458 0.930 . S
H2450 C2460 0.930 . S
H2451 C2463 0.929 . S
H2452 C2466 0.930 . S
H2453 C2468 0.960 . S
H2454 C2468 0.960 . S
H2455 C2468 0.960 . S
C2456 H2448 0.929 . S
C2456 C2457 1.377 . S
C2456 C2458 1.384 . S
C2457 C2456 1.377 . S
C2457 C2463 1.390 . S
C2458 H2449 0.930 . S
C2458 C2456 1.384 . S
C2458 C2459 1.372 . S
C2459 C2458 1.372 . S
C2459 C2460 1.400 . S
C2459 C2464 1.490 . S
C2460 H2450 0.930 . S
C2460 C2459 1.400 . S
C2460 C2463 1.386 . S
H2461 C2477 0.930 . S
H2462 C2478 0.931 . S
C2463 H2451 0.929 . S
C2463 C2457 1.390 . S
C2463 C2460 1.386 . S
C2464 C2459 1.490 . S
C2464 C2466 1.395 . S
C2464 C2467 1.403 . S
H2465 C2471 0.930 . S
C2466 H2452 0.930 . S
C2466 C2464 1.395 . S
C2466 C2469 1.403 . S
C2467 C2464 1.403 . S
C2467 C2468 1.524 . S
C2467 C2471 1.400 . S
C2468 H2453 0.960 . S
C2468 H2454 0.960 . S
C2468 H2455 0.960 . S
C2468 C2467 1.524 . S
C2469 C2466 1.403 . S
C2469 C2470 1.392 . S
C2469 C2473 1.495 . S
C2470 C2469 1.392 . S
C2470 C2471 1.385 . S
C2470 C2472 1.478 . S
C2471 H2465 0.930 . S
C2471 C2467 1.400 . S
C2471 C2470 1.385 . S
C2472 C2470 1.478 . S
C2472 C2474 1.381 . S
C2472 C2478 1.383 . S
C2473 C2469 1.495 . S
C2473 H2479 0.959 . S
C2473 H2480 0.961 . S
C2473 H2481 0.960 . S
C2474 C2472 1.381 . S
C2474 C2475 1.394 . S
C2474 H2482 0.930 . S
C2475 C2474 1.394 . S
C2475 C2476 1.383 . S
C2475 H2483 0.929 . S
C2476 C2475 1.383 . S
C2476 C2477 1.377 . S
C2477 H2461 0.930 . S
C2477 C2476 1.377 . S
C2477 C2478 1.379 . S
C2478 H2462 0.931 . S
C2478 C2472 1.383 . S
C2478 C2477 1.379 . S
H2479 C2473 0.959 . S
H2480 C2473 0.961 . S
H2481 C2473 0.960 . S
H2482 C2474 0.930 . S
H2483 C2475 0.929 . S
H2484 C2492 0.929 . S
H2485 C2494 0.930 . S
H2486 C2496 0.930 . S
H2487 C2499 0.929 . S
H2488 C2502 0.930 . S
H2489 C2504 0.960 . S
H2490 C2504 0.960 . S
H2491 C2504 0.960 . S
C2492 H2484 0.929 . S
C2492 C2493 1.377 . S
C2492 C2494 1.384 . S
C2493 C2492 1.377 . S
C2493 C2499 1.390 . S
C2494 H2485 0.930 . S
C2494 C2492 1.384 . S
C2494 C2495 1.372 . S
C2495 C2494 1.372 . S
C2495 C2496 1.400 . S
C2495 C2500 1.490 . S
C2496 H2486 0.930 . S
C2496 C2495 1.400 . S
C2496 C2499 1.386 . S
H2497 C2513 0.930 . S
H2498 C2514 0.931 . S
C2499 H2487 0.929 . S
C2499 C2493 1.390 . S
C2499 C2496 1.386 . S
C2500 C2495 1.490 . S
C2500 C2502 1.395 . S
C2500 C2503 1.403 . S
H2501 C2507 0.930 . S
C2502 H2488 0.930 . S
C2502 C2500 1.395 . S
C2502 C2505 1.403 . S
C2503 C2500 1.403 . S
C2503 C2504 1.524 . S
C2503 C2507 1.400 . S
C2504 H2489 0.960 . S
C2504 H2490 0.960 . S
C2504 H2491 0.960 . S
C2504 C2503 1.524 . S
C2505 C2502 1.403 . S
C2505 C2506 1.392 . S
C2505 C2509 1.495 . S
C2506 C2505 1.392 . S
C2506 C2507 1.385 . S
C2506 C2508 1.478 . S
C2507 H2501 0.930 . S
C2507 C2503 1.400 . S
C2507 C2506 1.385 . S
C2508 C2506 1.478 . S
C2508 C2510 1.381 . S
C2508 C2514 1.383 . S
C2509 C2505 1.495 . S
C2509 H2515 0.959 . S
C2509 H2516 0.961 . S
C2509 H2517 0.960 . S
C2510 C2508 1.381 . S
C2510 C2511 1.394 . S
C2510 H2518 0.930 . S
C2511 C2510 1.394 . S
C2511 C2512 1.383 . S
C2511 H2519 0.929 . S
C2512 C2511 1.383 . S
C2512 C2513 1.377 . S
C2513 H2497 0.930 . S
C2513 C2512 1.377 . S
C2513 C2514 1.379 . S
C2514 H2498 0.931 . S
C2514 C2508 1.383 . S
C2514 C2513 1.379 . S
H2515 C2509 0.959 . S
H2516 C2509 0.961 . S
H2517 C2509 0.960 . S
H2518 C2510 0.930 . S
H2519 C2511 0.929 . S
H2520 C2528 0.929 . S
H2521 C2530 0.930 . S
H2522 C2532 0.930 . S
H2523 C2535 0.929 . S
H2524 C2538 0.930 . S
H2525 C2540 0.960 . S
H2526 C2540 0.960 . S
H2527 C2540 0.960 . S
C2528 H2520 0.929 . S
C2528 C2529 1.377 . S
C2528 C2530 1.384 . S
C2529 C2528 1.377 . S
C2529 C2535 1.390 . S
C2530 H2521 0.930 . S
C2530 C2528 1.384 . S
C2530 C2531 1.372 . S
C2531 C2530 1.372 . S
C2531 C2532 1.400 . S
C2531 C2536 1.490 . S
C2532 H2522 0.930 . S
C2532 C2531 1.400 . S
C2532 C2535 1.386 . S
H2533 C2549 0.930 . S
H2534 C2550 0.931 . S
C2535 H2523 0.929 . S
C2535 C2529 1.390 . S
C2535 C2532 1.386 . S
C2536 C2531 1.490 . S
C2536 C2538 1.395 . S
C2536 C2539 1.403 . S
H2537 C2543 0.930 . S
C2538 H2524 0.930 . S
C2538 C2536 1.395 . S
C2538 C2541 1.403 . S
C2539 C2536 1.403 . S
C2539 C2540 1.524 . S
C2539 C2543 1.400 . S
C2540 H2525 0.960 . S
C2540 H2526 0.960 . S
C2540 H2527 0.960 . S
C2540 C2539 1.524 . S
C2541 C2538 1.403 . S
C2541 C2542 1.392 . S
C2541 C2545 1.495 . S
C2542 C2541 1.392 . S
C2542 C2543 1.385 . S
C2542 C2544 1.478 . S
C2543 H2537 0.930 . S
C2543 C2539 1.400 . S
C2543 C2542 1.385 . S
C2544 C2542 1.478 . S
C2544 C2546 1.381 . S
C2544 C2550 1.383 . S
C2545 C2541 1.495 . S
C2545 H2551 0.959 . S
C2545 H2552 0.961 . S
C2545 H2553 0.960 . S
C2546 C2544 1.381 . S
C2546 C2547 1.394 . S
C2546 H2554 0.930 . S
C2547 C2546 1.394 . S
C2547 C2548 1.383 . S
C2547 H2555 0.929 . S
C2548 C2547 1.383 . S
C2548 C2549 1.377 . S
C2549 H2533 0.930 . S
C2549 C2548 1.377 . S
C2549 C2550 1.379 . S
C2550 H2534 0.931 . S
C2550 C2544 1.383 . S
C2550 C2549 1.379 . S
H2551 C2545 0.959 . S
H2552 C2545 0.961 . S
H2553 C2545 0.960 . S
H2554 C2546 0.930 . S
H2555 C2547 0.929 . S
H2556 C2564 0.929 . S
H2557 C2566 0.930 . S
H2558 C2568 0.930 . S
H2559 C2571 0.929 . S
H2560 C2574 0.930 . S
H2561 C2576 0.960 . S
H2562 C2576 0.960 . S
H2563 C2576 0.960 . S
C2564 H2556 0.929 . S
C2564 C2565 1.377 . S
C2564 C2566 1.384 . S
C2565 C2564 1.377 . S
C2565 C2571 1.390 . S
C2566 H2557 0.930 . S
C2566 C2564 1.384 . S
C2566 C2567 1.372 . S
C2567 C2566 1.372 . S
C2567 C2568 1.400 . S
C2567 C2572 1.490 . S
C2568 H2558 0.930 . S
C2568 C2567 1.400 . S
C2568 C2571 1.386 . S
H2569 C2585 0.930 . S
H2570 C2586 0.931 . S
C2571 H2559 0.929 . S
C2571 C2565 1.390 . S
C2571 C2568 1.386 . S
C2572 C2567 1.490 . S
C2572 C2574 1.395 . S
C2572 C2575 1.403 . S
H2573 C2579 0.930 . S
C2574 H2560 0.930 . S
C2574 C2572 1.395 . S
C2574 C2577 1.403 . S
C2575 C2572 1.403 . S
C2575 C2576 1.524 . S
C2575 C2579 1.400 . S
C2576 H2561 0.960 . S
C2576 H2562 0.960 . S
C2576 H2563 0.960 . S
C2576 C2575 1.524 . S
C2577 C2574 1.403 . S
C2577 C2578 1.392 . S
C2577 C2581 1.495 . S
C2578 C2577 1.392 . S
C2578 C2579 1.385 . S
C2578 C2580 1.478 . S
C2579 H2573 0.930 . S
C2579 C2575 1.400 . S
C2579 C2578 1.385 . S
C2580 C2578 1.478 . S
C2580 C2582 1.381 . S
C2580 C2586 1.383 . S
C2581 C2577 1.495 . S
C2581 H2587 0.959 . S
C2581 H2588 0.961 . S
C2581 H2589 0.960 . S
C2582 C2580 1.381 . S
C2582 C2583 1.394 . S
C2582 H2590 0.930 . S
C2583 C2582 1.394 . S
C2583 C2584 1.383 . S
C2583 H2591 0.929 . S
C2584 C2583 1.383 . S
C2584 C2585 1.377 . S
C2585 H2569 0.930 . S
C2585 C2584 1.377 . S
C2585 C2586 1.379 . S
C2586 H2570 0.931 . S
C2586 C2580 1.383 . S
C2586 C2585 1.379 . S
H2587 C2581 0.959 . S
H2588 C2581 0.961 . S
H2589 C2581 0.960 . S
H2590 C2582 0.930 . S
H2591 C2583 0.929 . S
H2592 C2600 0.929 . S
H2593 C2602 0.930 . S
H2594 C2604 0.930 . S
H2595 C2607 0.929 . S
H2596 C2610 0.930 . S
H2597 C2612 0.960 . S
H2598 C2612 0.960 . S
H2599 C2612 0.960 . S
C2600 H2592 0.929 . S
C2600 C2601 1.377 . S
C2600 C2602 1.384 . S
C2601 C2600 1.377 . S
C2601 C2607 1.390 . S
C2602 H2593 0.930 . S
C2602 C2600 1.384 . S
C2602 C2603 1.372 . S
C2603 C2602 1.372 . S
C2603 C2604 1.400 . S
C2603 C2608 1.490 . S
C2604 H2594 0.930 . S
C2604 C2603 1.400 . S
C2604 C2607 1.386 . S
H2605 C2621 0.930 . S
H2606 C2622 0.931 . S
C2607 H2595 0.929 . S
C2607 C2601 1.390 . S
C2607 C2604 1.386 . S
C2608 C2603 1.490 . S
C2608 C2610 1.395 . S
C2608 C2611 1.403 . S
H2609 C2615 0.930 . S
C2610 H2596 0.930 . S
C2610 C2608 1.395 . S
C2610 C2613 1.403 . S
C2611 C2608 1.403 . S
C2611 C2612 1.524 . S
C2611 C2615 1.400 . S
C2612 H2597 0.960 . S
C2612 H2598 0.960 . S
C2612 H2599 0.960 . S
C2612 C2611 1.524 . S
C2613 C2610 1.403 . S
C2613 C2614 1.392 . S
C2613 C2617 1.495 . S
C2614 C2613 1.392 . S
C2614 C2615 1.385 . S
C2614 C2616 1.478 . S
C2615 H2609 0.930 . S
C2615 C2611 1.400 . S
C2615 C2614 1.385 . S
C2616 C2614 1.478 . S
C2616 C2618 1.381 . S
C2616 C2622 1.383 . S
C2617 C2613 1.495 . S
C2617 H2623 0.959 . S
C2617 H2624 0.961 . S
C2617 H2625 0.960 . S
C2618 C2616 1.381 . S
C2618 C2619 1.394 . S
C2618 H2626 0.930 . S
C2619 C2618 1.394 . S
C2619 C2620 1.383 . S
C2619 H2627 0.929 . S
C2620 C2619 1.383 . S
C2620 C2621 1.377 . S
C2621 H2605 0.930 . S
C2621 C2620 1.377 . S
C2621 C2622 1.379 . S
C2622 H2606 0.931 . S
C2622 C2616 1.383 . S
C2622 C2621 1.379 . S
H2623 C2617 0.959 . S
H2624 C2617 0.961 . S
H2625 C2617 0.960 . S
H2626 C2618 0.930 . S
H2627 C2619 0.929 . S
H2628 C2636 0.929 . S
H2629 C2638 0.930 . S
H2630 C2640 0.930 . S
H2631 C2643 0.929 . S
H2632 C2646 0.930 . S
H2633 C2648 0.960 . S
H2634 C2648 0.960 . S
H2635 C2648 0.960 . S
C2636 H2628 0.929 . S
C2636 C2637 1.377 . S
C2636 C2638 1.384 . S
C2637 C2636 1.377 . S
C2637 C2643 1.390 . S
C2638 H2629 0.930 . S
C2638 C2636 1.384 . S
C2638 C2639 1.372 . S
C2639 C2638 1.372 . S
C2639 C2640 1.400 . S
C2639 C2644 1.490 . S
C2640 H2630 0.930 . S
C2640 C2639 1.400 . S
C2640 C2643 1.386 . S
H2641 C2657 0.930 . S
H2642 C2658 0.931 . S
C2643 H2631 0.929 . S
C2643 C2637 1.390 . S
C2643 C2640 1.386 . S
C2644 C2639 1.490 . S
C2644 C2646 1.395 . S
C2644 C2647 1.403 . S
H2645 C2651 0.930 . S
C2646 H2632 0.930 . S
C2646 C2644 1.395 . S
C2646 C2649 1.403 . S
C2647 C2644 1.403 . S
C2647 C2648 1.524 . S
C2647 C2651 1.400 . S
C2648 H2633 0.960 . S
C2648 H2634 0.960 . S
C2648 H2635 0.960 . S
C2648 C2647 1.524 . S
C2649 C2646 1.403 . S
C2649 C2650 1.392 . S
C2649 C2653 1.495 . S
C2650 C2649 1.392 . S
C2650 C2651 1.385 . S
C2650 C2652 1.478 . S
C2651 H2645 0.930 . S
C2651 C2647 1.400 . S
C2651 C2650 1.385 . S
C2652 C2650 1.478 . S
C2652 C2654 1.381 . S
C2652 C2658 1.383 . S
C2653 C2649 1.495 . S
C2653 H2659 0.959 . S
C2653 H2660 0.961 . S
C2653 H2661 0.960 . S
C2654 C2652 1.381 . S
C2654 C2655 1.394 . S
C2654 H2662 0.930 . S
C2655 C2654 1.394 . S
C2655 C2656 1.383 . S
C2655 H2663 0.929 . S
C2656 C2655 1.383 . S
C2656 C2657 1.377 . S
C2657 H2641 0.930 . S
C2657 C2656 1.377 . S
C2657 C2658 1.379 . S
C2658 H2642 0.931 . S
C2658 C2652 1.383 . S
C2658 C2657 1.379 . S
H2659 C2653 0.959 . S
H2660 C2653 0.961 . S
H2661 C2653 0.960 . S
H2662 C2654 0.930 . S
H2663 C2655 0.929 . S
H2664 C2672 0.929 . S
H2665 C2674 0.930 . S
H2666 C2676 0.930 . S
H2667 C2679 0.929 . S
H2668 C2682 0.930 . S
H2669 C2684 0.960 . S
H2670 C2684 0.960 . S
H2671 C2684 0.960 . S
C2672 H2664 0.929 . S
C2672 C2673 1.377 . S
C2672 C2674 1.384 . S
C2673 C2672 1.377 . S
C2673 C2679 1.390 . S
C2674 H2665 0.930 . S
C2674 C2672 1.384 . S
C2674 C2675 1.372 . S
C2675 C2674 1.372 . S
C2675 C2676 1.400 . S
C2675 C2680 1.490 . S
C2676 H2666 0.930 . S
C2676 C2675 1.400 . S
C2676 C2679 1.386 . S
H2677 C2693 0.930 . S
H2678 C2694 0.931 . S
C2679 H2667 0.929 . S
C2679 C2673 1.390 . S
C2679 C2676 1.386 . S
C2680 C2675 1.490 . S
C2680 C2682 1.395 . S
C2680 C2683 1.403 . S
H2681 C2687 0.930 . S
C2682 H2668 0.930 . S
C2682 C2680 1.395 . S
C2682 C2685 1.403 . S
C2683 C2680 1.403 . S
C2683 C2684 1.524 . S
C2683 C2687 1.400 . S
C2684 H2669 0.960 . S
C2684 H2670 0.960 . S
C2684 H2671 0.960 . S
C2684 C2683 1.524 . S
C2685 C2682 1.403 . S
C2685 C2686 1.392 . S
C2685 C2689 1.495 . S
C2686 C2685 1.392 . S
C2686 C2687 1.385 . S
C2686 C2688 1.478 . S
C2687 H2681 0.930 . S
C2687 C2683 1.400 . S
C2687 C2686 1.385 . S
C2688 C2686 1.478 . S
C2688 C2690 1.381 . S
C2688 C2694 1.383 . S
C2689 C2685 1.495 . S
C2689 H2695 0.959 . S
C2689 H2696 0.961 . S
C2689 H2697 0.960 . S
C2690 C2688 1.381 . S
C2690 C2691 1.394 . S
C2690 H2698 0.930 . S
C2691 C2690 1.394 . S
C2691 C2692 1.383 . S
C2691 H2699 0.929 . S
C2692 C2691 1.383 . S
C2692 C2693 1.377 . S
C2693 H2677 0.930 . S
C2693 C2692 1.377 . S
C2693 C2694 1.379 . S
C2694 H2678 0.931 . S
C2694 C2688 1.383 . S
C2694 C2693 1.379 . S
H2695 C2689 0.959 . S
H2696 C2689 0.961 . S
H2697 C2689 0.960 . S
H2698 C2690 0.930 . S
H2699 C2691 0.929 . S
H2700 C2708 0.929 . S
H2701 C2710 0.930 . S
H2702 C2712 0.930 . S
H2703 C2715 0.929 . S
H2704 C2718 0.930 . S
H2705 C2720 0.960 . S
H2706 C2720 0.960 . S
H2707 C2720 0.960 . S
C2708 H2700 0.929 . S
C2708 C2709 1.377 . S
C2708 C2710 1.384 . S
C2709 C2708 1.377 . S
C2709 C2715 1.390 . S
C2710 H2701 0.930 . S
C2710 C2708 1.384 . S
C2710 C2711 1.372 . S
C2711 C2710 1.372 . S
C2711 C2712 1.400 . S
C2711 C2716 1.490 . S
C2712 H2702 0.930 . S
C2712 C2711 1.400 . S
C2712 C2715 1.386 . S
H2713 C2729 0.930 . S
H2714 C2730 0.931 . S
C2715 H2703 0.929 . S
C2715 C2709 1.390 . S
C2715 C2712 1.386 . S
C2716 C2711 1.490 . S
C2716 C2718 1.395 . S
C2716 C2719 1.403 . S
H2717 C2723 0.930 . S
C2718 H2704 0.930 . S
C2718 C2716 1.395 . S
C2718 C2721 1.403 . S
C2719 C2716 1.403 . S
C2719 C2720 1.524 . S
C2719 C2723 1.400 . S
C2720 H2705 0.960 . S
C2720 H2706 0.960 . S
C2720 H2707 0.960 . S
C2720 C2719 1.524 . S
C2721 C2718 1.403 . S
C2721 C2722 1.392 . S
C2721 C2725 1.495 . S
C2722 C2721 1.392 . S
C2722 C2723 1.385 . S
C2722 C2724 1.478 . S
C2723 H2717 0.930 . S
C2723 C2719 1.400 . S
C2723 C2722 1.385 . S
C2724 C2722 1.478 . S
C2724 C2726 1.381 . S
C2724 C2730 1.383 . S
C2725 C2721 1.495 . S
C2725 H2731 0.959 . S
C2725 H2732 0.961 . S
C2725 H2733 0.960 . S
C2726 C2724 1.381 . S
C2726 C2727 1.394 . S
C2726 H2734 0.930 . S
C2727 C2726 1.394 . S
C2727 C2728 1.383 . S
C2727 H2735 0.929 . S
C2728 C2727 1.383 . S
C2728 C2729 1.377 . S
C2729 H2713 0.930 . S
C2729 C2728 1.377 . S
C2729 C2730 1.379 . S
C2730 H2714 0.931 . S
C2730 C2724 1.383 . S
C2730 C2729 1.379 . S
H2731 C2725 0.959 . S
H2732 C2725 0.961 . S
H2733 C2725 0.960 . S
H2734 C2726 0.930 . S
H2735 C2727 0.929 . S
H2736 C2744 0.929 . S
H2737 C2746 0.930 . S
H2738 C2748 0.930 . S
H2739 C2751 0.929 . S
H2740 C2754 0.930 . S
H2741 C2756 0.960 . S
H2742 C2756 0.960 . S
H2743 C2756 0.960 . S
C2744 H2736 0.929 . S
C2744 C2745 1.377 . S
C2744 C2746 1.384 . S
C2745 C2744 1.377 . S
C2745 C2751 1.390 . S
C2746 H2737 0.930 . S
C2746 C2744 1.384 . S
C2746 C2747 1.372 . S
C2747 C2746 1.372 . S
C2747 C2748 1.400 . S
C2747 C2752 1.490 . S
C2748 H2738 0.930 . S
C2748 C2747 1.400 . S
C2748 C2751 1.386 . S
H2749 C2765 0.930 . S
H2750 C2766 0.931 . S
C2751 H2739 0.929 . S
C2751 C2745 1.390 . S
C2751 C2748 1.386 . S
C2752 C2747 1.490 . S
C2752 C2754 1.395 . S
C2752 C2755 1.403 . S
H2753 C2759 0.930 . S
C2754 H2740 0.930 . S
C2754 C2752 1.395 . S
C2754 C2757 1.403 . S
C2755 C2752 1.403 . S
C2755 C2756 1.524 . S
C2755 C2759 1.400 . S
C2756 H2741 0.960 . S
C2756 H2742 0.960 . S
C2756 H2743 0.960 . S
C2756 C2755 1.524 . S
C2757 C2754 1.403 . S
C2757 C2758 1.392 . S
C2757 C2761 1.495 . S
C2758 C2757 1.392 . S
C2758 C2759 1.385 . S
C2758 C2760 1.478 . S
C2759 H2753 0.930 . S
C2759 C2755 1.400 . S
C2759 C2758 1.385 . S
C2760 C2758 1.478 . S
C2760 C2762 1.381 . S
C2760 C2766 1.383 . S
C2761 C2757 1.495 . S
C2761 H2767 0.959 . S
C2761 H2768 0.961 . S
C2761 H2769 0.960 . S
C2762 C2760 1.381 . S
C2762 C2763 1.394 . S
C2762 H2770 0.930 . S
C2763 C2762 1.394 . S
C2763 C2764 1.383 . S
C2763 H2771 0.929 . S
C2764 C2763 1.383 . S
C2764 C2765 1.377 . S
C2765 H2749 0.930 . S
C2765 C2764 1.377 . S
C2765 C2766 1.379 . S
C2766 H2750 0.931 . S
C2766 C2760 1.383 . S
C2766 C2765 1.379 . S
H2767 C2761 0.959 . S
H2768 C2761 0.961 . S
H2769 C2761 0.960 . S
H2770 C2762 0.930 . S
H2771 C2763 0.929 . S
H2772 C2780 0.929 . S
H2773 C2782 0.930 . S
H2774 C2784 0.930 . S
H2775 C2787 0.929 . S
H2776 C2790 0.930 . S
H2777 C2792 0.960 . S
H2778 C2792 0.960 . S
H2779 C2792 0.960 . S
C2780 H2772 0.929 . S
C2780 C2781 1.377 . S
C2780 C2782 1.384 . S
C2781 C2780 1.377 . S
C2781 C2787 1.390 . S
C2782 H2773 0.930 . S
C2782 C2780 1.384 . S
C2782 C2783 1.372 . S
C2783 C2782 1.372 . S
C2783 C2784 1.400 . S
C2783 C2788 1.490 . S
C2784 H2774 0.930 . S
C2784 C2783 1.400 . S
C2784 C2787 1.386 . S
H2785 C2801 0.930 . S
H2786 C2802 0.931 . S
C2787 H2775 0.929 . S
C2787 C2781 1.390 . S
C2787 C2784 1.386 . S
C2788 C2783 1.490 . S
C2788 C2790 1.395 . S
C2788 C2791 1.403 . S
H2789 C2795 0.930 . S
C2790 H2776 0.930 . S
C2790 C2788 1.395 . S
C2790 C2793 1.403 . S
C2791 C2788 1.403 . S
C2791 C2792 1.524 . S
C2791 C2795 1.400 . S
C2792 H2777 0.960 . S
C2792 H2778 0.960 . S
C2792 H2779 0.960 . S
C2792 C2791 1.524 . S
C2793 C2790 1.403 . S
C2793 C2794 1.392 . S
C2793 C2797 1.495 . S
C2794 C2793 1.392 . S
C2794 C2795 1.385 . S
C2794 C2796 1.478 . S
C2795 H2789 0.930 . S
C2795 C2791 1.400 . S
C2795 C2794 1.385 . S
C2796 C2794 1.478 . S
C2796 C2798 1.381 . S
C2796 C2802 1.383 . S
C2797 C2793 1.495 . S
C2797 H2803 0.959 . S
C2797 H2804 0.961 . S
C2797 H2805 0.960 . S
C2798 C2796 1.381 . S
C2798 C2799 1.394 . S
C2798 H2806 0.930 . S
C2799 C2798 1.394 . S
C2799 C2800 1.383 . S
C2799 H2807 0.929 . S
C2800 C2799 1.383 . S
C2800 C2801 1.377 . S
C2801 H2785 0.930 . S
C2801 C2800 1.377 . S
C2801 C2802 1.379 . S
C2802 H2786 0.931 . S
C2802 C2796 1.383 . S
C2802 C2801 1.379 . S
H2803 C2797 0.959 . S
H2804 C2797 0.961 . S
H2805 C2797 0.960 . S
H2806 C2798 0.930 . S
H2807 C2799 0.929 . S
H2808 C2816 0.929 . S
H2809 C2818 0.930 . S
H2810 C2820 0.930 . S
H2811 C2823 0.929 . S
H2812 C2826 0.930 . S
H2813 C2828 0.960 . S
H2814 C2828 0.960 . S
H2815 C2828 0.960 . S
C2816 H2808 0.929 . S
C2816 C2817 1.377 . S
C2816 C2818 1.384 . S
C2817 C2816 1.377 . S
C2817 C2823 1.390 . S
C2818 H2809 0.930 . S
C2818 C2816 1.384 . S
C2818 C2819 1.372 . S
C2819 C2818 1.372 . S
C2819 C2820 1.400 . S
C2819 C2824 1.490 . S
C2820 H2810 0.930 . S
C2820 C2819 1.400 . S
C2820 C2823 1.386 . S
H2821 C2837 0.930 . S
H2822 C2838 0.931 . S
C2823 H2811 0.929 . S
C2823 C2817 1.390 . S
C2823 C2820 1.386 . S
C2824 C2819 1.490 . S
C2824 C2826 1.395 . S
C2824 C2827 1.403 . S
H2825 C2831 0.930 . S
C2826 H2812 0.930 . S
C2826 C2824 1.395 . S
C2826 C2829 1.403 . S
C2827 C2824 1.403 . S
C2827 C2828 1.524 . S
C2827 C2831 1.400 . S
C2828 H2813 0.960 . S
C2828 H2814 0.960 . S
C2828 H2815 0.960 . S
C2828 C2827 1.524 . S
C2829 C2826 1.403 . S
C2829 C2830 1.392 . S
C2829 C2833 1.495 . S
C2830 C2829 1.392 . S
C2830 C2831 1.385 . S
C2830 C2832 1.478 . S
C2831 H2825 0.930 . S
C2831 C2827 1.400 . S
C2831 C2830 1.385 . S
C2832 C2830 1.478 . S
C2832 C2834 1.381 . S
C2832 C2838 1.383 . S
C2833 C2829 1.495 . S
C2833 H2839 0.959 . S
C2833 H2840 0.961 . S
C2833 H2841 0.960 . S
C2834 C2832 1.381 . S
C2834 C2835 1.394 . S
C2834 H2842 0.930 . S
C2835 C2834 1.394 . S
C2835 C2836 1.383 . S
C2835 H2843 0.929 . S
C2836 C2835 1.383 . S
C2836 C2837 1.377 . S
C2837 H2821 0.930 . S
C2837 C2836 1.377 . S
C2837 C2838 1.379 . S
C2838 H2822 0.931 . S
C2838 C2832 1.383 . S
C2838 C2837 1.379 . S
H2839 C2833 0.959 . S
H2840 C2833 0.961 . S
H2841 C2833 0.960 . S
H2842 C2834 0.930 . S
H2843 C2835 0.929 . S
H2844 C2852 0.929 . S
H2845 C2854 0.930 . S
H2846 C2856 0.930 . S
H2847 C2859 0.929 . S
H2848 C2862 0.930 . S
H2849 C2864 0.960 . S
H2850 C2864 0.960 . S
H2851 C2864 0.960 . S
C2852 H2844 0.929 . S
C2852 C2853 1.377 . S
C2852 C2854 1.384 . S
C2853 C2852 1.377 . S
C2853 C2859 1.390 . S
C2854 H2845 0.930 . S
C2854 C2852 1.384 . S
C2854 C2855 1.372 . S
C2855 C2854 1.372 . S
C2855 C2856 1.400 . S
C2855 C2860 1.490 . S
C2856 H2846 0.930 . S
C2856 C2855 1.400 . S
C2856 C2859 1.386 . S
H2857 C2873 0.930 . S
H2858 C2874 0.931 . S
C2859 H2847 0.929 . S
C2859 C2853 1.390 . S
C2859 C2856 1.386 . S
C2860 C2855 1.490 . S
C2860 C2862 1.395 . S
C2860 C2863 1.403 . S
H2861 C2867 0.930 . S
C2862 H2848 0.930 . S
C2862 C2860 1.395 . S
C2862 C2865 1.403 . S
C2863 C2860 1.403 . S
C2863 C2864 1.524 . S
C2863 C2867 1.400 . S
C2864 H2849 0.960 . S
C2864 H2850 0.960 . S
C2864 H2851 0.960 . S
C2864 C2863 1.524 . S
C2865 C2862 1.403 . S
C2865 C2866 1.392 . S
C2865 C2869 1.495 . S
C2866 C2865 1.392 . S
C2866 C2867 1.385 . S
C2866 C2868 1.478 . S
C2867 H2861 0.930 . S
C2867 C2863 1.400 . S
C2867 C2866 1.385 . S
C2868 C2866 1.478 . S
C2868 C2870 1.381 . S
C2868 C2874 1.383 . S
C2869 C2865 1.495 . S
C2869 H2875 0.959 . S
C2869 H2876 0.961 . S
C2869 H2877 0.960 . S
C2870 C2868 1.381 . S
C2870 C2871 1.394 . S
C2870 H2878 0.930 . S
C2871 C2870 1.394 . S
C2871 C2872 1.383 . S
C2871 H2879 0.929 . S
C2872 C2871 1.383 . S
C2872 C2873 1.377 . S
C2873 H2857 0.930 . S
C2873 C2872 1.377 . S
C2873 C2874 1.379 . S
C2874 H2858 0.931 . S
C2874 C2868 1.383 . S
C2874 C2873 1.379 . S
H2875 C2869 0.959 . S
H2876 C2869 0.961 . S
H2877 C2869 0.960 . S
H2878 C2870 0.930 . S
H2879 C2871 0.929 . S
H2880 C2888 0.929 . S
H2881 C2890 0.930 . S
H2882 C2892 0.930 . S
H2883 C2895 0.929 . S
H2884 C2898 0.930 . S
H2885 C2900 0.960 . S
H2886 C2900 0.960 . S
H2887 C2900 0.960 . S
C2888 H2880 0.929 . S
C2888 C2889 1.377 . S
C2888 C2890 1.384 . S
C2889 C2888 1.377 . S
C2889 C2895 1.390 . S
C2890 H2881 0.930 . S
C2890 C2888 1.384 . S
C2890 C2891 1.372 . S
C2891 C2890 1.372 . S
C2891 C2892 1.400 . S
C2891 C2896 1.490 . S
C2892 H2882 0.930 . S
C2892 C2891 1.400 . S
C2892 C2895 1.386 . S
H2893 C2909 0.930 . S
H2894 C2910 0.931 . S
C2895 H2883 0.929 . S
C2895 C2889 1.390 . S
C2895 C2892 1.386 . S
C2896 C2891 1.490 . S
C2896 C2898 1.395 . S
C2896 C2899 1.403 . S
H2897 C2903 0.930 . S
C2898 H2884 0.930 . S
C2898 C2896 1.395 . S
C2898 C2901 1.403 . S
C2899 C2896 1.403 . S
C2899 C2900 1.524 . S
C2899 C2903 1.400 . S
C2900 H2885 0.960 . S
C2900 H2886 0.960 . S
C2900 H2887 0.960 . S
C2900 C2899 1.524 . S
C2901 C2898 1.403 . S
C2901 C2902 1.392 . S
C2901 C2905 1.495 . S
C2902 C2901 1.392 . S
C2902 C2903 1.385 . S
C2902 C2904 1.478 . S
C2903 H2897 0.930 . S
C2903 C2899 1.400 . S
C2903 C2902 1.385 . S
C2904 C2902 1.478 . S
C2904 C2906 1.381 . S
C2904 C2910 1.383 . S
C2905 C2901 1.495 . S
C2905 H2911 0.959 . S
C2905 H2912 0.961 . S
C2905 H2913 0.960 . S
C2906 C2904 1.381 . S
C2906 C2907 1.394 . S
C2906 H2914 0.930 . S
C2907 C2906 1.394 . S
C2907 C2908 1.383 . S
C2907 H2915 0.929 . S
C2908 C2907 1.383 . S
C2908 C2909 1.377 . S
C2909 H2893 0.930 . S
C2909 C2908 1.377 . S
C2909 C2910 1.379 . S
C2910 H2894 0.931 . S
C2910 C2904 1.383 . S
C2910 C2909 1.379 . S
H2911 C2905 0.959 . S
H2912 C2905 0.961 . S
H2913 C2905 0.960 . S
H2914 C2906 0.930 . S
H2915 C2907 0.929 . S
H2916 C2924 0.929 . S
H2917 C2926 0.930 . S
H2918 C2928 0.930 . S
H2919 C2931 0.929 . S
H2920 C2934 0.930 . S
H2921 C2936 0.960 . S
H2922 C2936 0.960 . S
H2923 C2936 0.960 . S
C2924 H2916 0.929 . S
C2924 C2925 1.377 . S
C2924 C2926 1.384 . S
C2925 C2924 1.377 . S
C2925 C2931 1.390 . S
C2926 H2917 0.930 . S
C2926 C2924 1.384 . S
C2926 C2927 1.372 . S
C2927 C2926 1.372 . S
C2927 C2928 1.400 . S
C2927 C2932 1.490 . S
C2928 H2918 0.930 . S
C2928 C2927 1.400 . S
C2928 C2931 1.386 . S
H2929 C2945 0.930 . S
H2930 C2946 0.931 . S
C2931 H2919 0.929 . S
C2931 C2925 1.390 . S
C2931 C2928 1.386 . S
C2932 C2927 1.490 . S
C2932 C2934 1.395 . S
C2932 C2935 1.403 . S
H2933 C2939 0.930 . S
C2934 H2920 0.930 . S
C2934 C2932 1.395 . S
C2934 C2937 1.403 . S
C2935 C2932 1.403 . S
C2935 C2936 1.524 . S
C2935 C2939 1.400 . S
C2936 H2921 0.960 . S
C2936 H2922 0.960 . S
C2936 H2923 0.960 . S
C2936 C2935 1.524 . S
C2937 C2934 1.403 . S
C2937 C2938 1.392 . S
C2937 C2941 1.495 . S
C2938 C2937 1.392 . S
C2938 C2939 1.385 . S
C2938 C2940 1.478 . S
C2939 H2933 0.930 . S
C2939 C2935 1.400 . S
C2939 C2938 1.385 . S
C2940 C2938 1.478 . S
C2940 C2942 1.381 . S
C2940 C2946 1.383 . S
C2941 C2937 1.495 . S
C2941 H2947 0.959 . S
C2941 H2948 0.961 . S
C2941 H2949 0.960 . S
C2942 C2940 1.381 . S
C2942 C2943 1.394 . S
C2942 H2950 0.930 . S
C2943 C2942 1.394 . S
C2943 C2944 1.383 . S
C2943 H2951 0.929 . S
C2944 C2943 1.383 . S
C2944 C2945 1.377 . S
C2945 H2929 0.930 . S
C2945 C2944 1.377 . S
C2945 C2946 1.379 . S
C2946 H2930 0.931 . S
C2946 C2940 1.383 . S
C2946 C2945 1.379 . S
H2947 C2941 0.959 . S
H2948 C2941 0.961 . S
H2949 C2941 0.960 . S
H2950 C2942 0.930 . S
H2951 C2943 0.929 . S
H2952 C2960 0.929 . S
H2953 C2962 0.930 . S
H2954 C2964 0.930 . S
H2955 C2967 0.929 . S
H2956 C2970 0.930 . S
H2957 C2972 0.960 . S
H2958 C2972 0.960 . S
H2959 C2972 0.960 . S
C2960 H2952 0.929 . S
C2960 C2961 1.377 . S
C2960 C2962 1.384 . S
C2961 C2960 1.377 . S
C2961 C2967 1.390 . S
C2962 H2953 0.930 . S
C2962 C2960 1.384 . S
C2962 C2963 1.372 . S
C2963 C2962 1.372 . S
C2963 C2964 1.400 . S
C2963 C2968 1.490 . S
C2964 H2954 0.930 . S
C2964 C2963 1.400 . S
C2964 C2967 1.386 . S
H2965 C2981 0.930 . S
H2966 C2982 0.931 . S
C2967 H2955 0.929 . S
C2967 C2961 1.390 . S
C2967 C2964 1.386 . S
C2968 C2963 1.490 . S
C2968 C2970 1.395 . S
C2968 C2971 1.403 . S
H2969 C2975 0.930 . S
C2970 H2956 0.930 . S
C2970 C2968 1.395 . S
C2970 C2973 1.403 . S
C2971 C2968 1.403 . S
C2971 C2972 1.524 . S
C2971 C2975 1.400 . S
C2972 H2957 0.960 . S
C2972 H2958 0.960 . S
C2972 H2959 0.960 . S
C2972 C2971 1.524 . S
C2973 C2970 1.403 . S
C2973 C2974 1.392 . S
C2973 C2977 1.495 . S
C2974 C2973 1.392 . S
C2974 C2975 1.385 . S
C2974 C2976 1.478 . S
C2975 H2969 0.930 . S
C2975 C2971 1.400 . S
C2975 C2974 1.385 . S
C2976 C2974 1.478 . S
C2976 C2978 1.381 . S
C2976 C2982 1.383 . S
C2977 C2973 1.495 . S
C2977 H2983 0.959 . S
C2977 H2984 0.961 . S
C2977 H2985 0.960 . S
C2978 C2976 1.381 . S
C2978 C2979 1.394 . S
C2978 H2986 0.930 . S
C2979 C2978 1.394 . S
C2979 C2980 1.383 . S
C2979 H2987 0.929 . S
C2980 C2979 1.383 . S
C2980 C2981 1.377 . S
C2981 H2965 0.930 . S
C2981 C2980 1.377 . S
C2981 C2982 1.379 . S
C2982 H2966 0.931 . S
C2982 C2976 1.383 . S
C2982 C2981 1.379 . S
H2983 C2977 0.959 . S
H2984 C2977 0.961 . S
H2985 C2977 0.960 . S
H2986 C2978 0.930 . S
H2987 C2979 0.929 . S
H2988 C2996 0.929 . S
H2989 C2998 0.930 . S
H2990 C3000 0.930 . S
H2991 C3003 0.929 . S
H2992 C3006 0.930 . S
H2993 C3008 0.960 . S
H2994 C3008 0.960 . S
H2995 C3008 0.960 . S
C2996 H2988 0.929 . S
C2996 C2997 1.377 . S
C2996 C2998 1.384 . S
C2997 C2996 1.377 . S
C2997 C3003 1.390 . S
C2998 H2989 0.930 . S
C2998 C2996 1.384 . S
C2998 C2999 1.372 . S
C2999 C2998 1.372 . S
C2999 C3000 1.400 . S
C2999 C3004 1.490 . S
C3000 H2990 0.930 . S
C3000 C2999 1.400 . S
C3000 C3003 1.386 . S
H3001 C3017 0.930 . S
H3002 C3018 0.931 . S
C3003 H2991 0.929 . S
C3003 C2997 1.390 . S
C3003 C3000 1.386 . S
C3004 C2999 1.490 . S
C3004 C3006 1.395 . S
C3004 C3007 1.403 . S
H3005 C3011 0.930 . S
C3006 H2992 0.930 . S
C3006 C3004 1.395 . S
C3006 C3009 1.403 . S
C3007 C3004 1.403 . S
C3007 C3008 1.524 . S
C3007 C3011 1.400 . S
C3008 H2993 0.960 . S
C3008 H2994 0.960 . S
C3008 H2995 0.960 . S
C3008 C3007 1.524 . S
C3009 C3006 1.403 . S
C3009 C3010 1.392 . S
C3009 C3013 1.495 . S
C3010 C3009 1.392 . S
C3010 C3011 1.385 . S
C3010 C3012 1.478 . S
C3011 H3005 0.930 . S
C3011 C3007 1.400 . S
C3011 C3010 1.385 . S
C3012 C3010 1.478 . S
C3012 C3014 1.381 . S
C3012 C3018 1.383 . S
C3013 C3009 1.495 . S
C3013 H3019 0.959 . S
C3013 H3020 0.961 . S
C3013 H3021 0.960 . S
C3014 C3012 1.381 . S
C3014 C3015 1.394 . S
C3014 H3022 0.930 . S
C3015 C3014 1.394 . S
C3015 C3016 1.383 . S
C3015 H3023 0.929 . S
C3016 C3015 1.383 . S
C3016 C3017 1.377 . S
C3017 H3001 0.930 . S
C3017 C3016 1.377 . S
C3017 C3018 1.379 . S
C3018 H3002 0.931 . S
C3018 C3012 1.383 . S
C3018 C3017 1.379 . S
H3019 C3013 0.959 . S
H3020 C3013 0.961 . S
H3021 C3013 0.960 . S
H3022 C3014 0.930 . S
H3023 C3015 0.929 . S
H3024 C3032 0.929 . S
H3025 C3034 0.930 . S
H3026 C3036 0.930 . S
H3027 C3039 0.929 . S
H3028 C3042 0.930 . S
H3029 C3044 0.960 . S
H3030 C3044 0.960 . S
H3031 C3044 0.960 . S
C3032 H3024 0.929 . S
C3032 C3033 1.377 . S
C3032 C3034 1.384 . S
C3033 C3032 1.377 . S
C3033 C3039 1.390 . S
C3034 H3025 0.930 . S
C3034 C3032 1.384 . S
C3034 C3035 1.372 . S
C3035 C3034 1.372 . S
C3035 C3036 1.400 . S
C3035 C3040 1.490 . S
C3036 H3026 0.930 . S
C3036 C3035 1.400 . S
C3036 C3039 1.386 . S
H3037 C3053 0.930 . S
H3038 C3054 0.931 . S
C3039 H3027 0.929 . S
C3039 C3033 1.390 . S
C3039 C3036 1.386 . S
C3040 C3035 1.490 . S
C3040 C3042 1.395 . S
C3040 C3043 1.403 . S
H3041 C3047 0.930 . S
C3042 H3028 0.930 . S
C3042 C3040 1.395 . S
C3042 C3045 1.403 . S
C3043 C3040 1.403 . S
C3043 C3044 1.524 . S
C3043 C3047 1.400 . S
C3044 H3029 0.960 . S
C3044 H3030 0.960 . S
C3044 H3031 0.960 . S
C3044 C3043 1.524 . S
C3045 C3042 1.403 . S
C3045 C3046 1.392 . S
C3045 C3049 1.495 . S
C3046 C3045 1.392 . S
C3046 C3047 1.385 . S
C3046 C3048 1.478 . S
C3047 H3041 0.930 . S
C3047 C3043 1.400 . S
C3047 C3046 1.385 . S
C3048 C3046 1.478 . S
C3048 C3050 1.381 . S
C3048 C3054 1.383 . S
C3049 C3045 1.495 . S
C3049 H3055 0.959 . S
C3049 H3056 0.961 . S
C3049 H3057 0.960 . S
C3050 C3048 1.381 . S
C3050 C3051 1.394 . S
C3050 H3058 0.930 . S
C3051 C3050 1.394 . S
C3051 C3052 1.383 . S
C3051 H3059 0.929 . S
C3052 C3051 1.383 . S
C3052 C3053 1.377 . S
C3053 H3037 0.930 . S
C3053 C3052 1.377 . S
C3053 C3054 1.379 . S
C3054 H3038 0.931 . S
C3054 C3048 1.383 . S
C3054 C3053 1.379 . S
H3055 C3049 0.959 . S
H3056 C3049 0.961 . S
H3057 C3049 0.960 . S
H3058 C3050 0.930 . S
H3059 C3051 0.929 . S
H3060 C3068 0.929 . S
H3061 C3070 0.930 . S
H3062 C3072 0.930 . S
H3063 C3075 0.929 . S
H3064 C3078 0.930 . S
H3065 C3080 0.960 . S
H3066 C3080 0.960 . S
H3067 C3080 0.960 . S
C3068 H3060 0.929 . S
C3068 C3069 1.377 . S
C3068 C3070 1.384 . S
C3069 C3068 1.377 . S
C3069 C3075 1.390 . S
C3070 H3061 0.930 . S
C3070 C3068 1.384 . S
C3070 C3071 1.372 . S
C3071 C3070 1.372 . S
C3071 C3072 1.400 . S
C3071 C3076 1.490 . S
C3072 H3062 0.930 . S
C3072 C3071 1.400 . S
C3072 C3075 1.386 . S
H3073 C3089 0.930 . S
H3074 C3090 0.931 . S
C3075 H3063 0.929 . S
C3075 C3069 1.390 . S
C3075 C3072 1.386 . S
C3076 C3071 1.490 . S
C3076 C3078 1.395 . S
C3076 C3079 1.403 . S
H3077 C3083 0.930 . S
C3078 H3064 0.930 . S
C3078 C3076 1.395 . S
C3078 C3081 1.403 . S
C3079 C3076 1.403 . S
C3079 C3080 1.524 . S
C3079 C3083 1.400 . S
C3080 H3065 0.960 . S
C3080 H3066 0.960 . S
C3080 H3067 0.960 . S
C3080 C3079 1.524 . S
C3081 C3078 1.403 . S
C3081 C3082 1.392 . S
C3081 C3085 1.495 . S
C3082 C3081 1.392 . S
C3082 C3083 1.385 . S
C3082 C3084 1.478 . S
C3083 H3077 0.930 . S
C3083 C3079 1.400 . S
C3083 C3082 1.385 . S
C3084 C3082 1.478 . S
C3084 C3086 1.381 . S
C3084 C3090 1.383 . S
C3085 C3081 1.495 . S
C3085 H3091 0.959 . S
C3085 H3092 0.961 . S
C3085 H3093 0.960 . S
C3086 C3084 1.381 . S
C3086 C3087 1.394 . S
C3086 H3094 0.930 . S
C3087 C3086 1.394 . S
C3087 C3088 1.383 . S
C3087 H3095 0.929 . S
C3088 C3087 1.383 . S
C3088 C3089 1.377 . S
C3089 H3073 0.930 . S
C3089 C3088 1.377 . S
C3089 C3090 1.379 . S
C3090 H3074 0.931 . S
C3090 C3084 1.383 . S
C3090 C3089 1.379 . S
H3091 C3085 0.959 . S
H3092 C3085 0.961 . S
H3093 C3085 0.960 . S
H3094 C3086 0.930 . S
H3095 C3087 0.929 . S
H3096 C3104 0.929 . S
H3097 C3106 0.930 . S
H3098 C3108 0.930 . S
H3099 C3111 0.929 . S
H3100 C3114 0.930 . S
H3101 C3116 0.960 . S
H3102 C3116 0.960 . S
H3103 C3116 0.960 . S
C3104 H3096 0.929 . S
C3104 C3105 1.377 . S
C3104 C3106 1.384 . S
C3105 C3104 1.377 . S
C3105 C3111 1.390 . S
C3106 H3097 0.930 . S
C3106 C3104 1.384 . S
C3106 C3107 1.372 . S
C3107 C3106 1.372 . S
C3107 C3108 1.400 . S
C3107 C3112 1.490 . S
C3108 H3098 0.930 . S
C3108 C3107 1.400 . S
C3108 C3111 1.386 . S
H3109 C3125 0.930 . S
H3110 C3126 0.931 . S
C3111 H3099 0.929 . S
C3111 C3105 1.390 . S
C3111 C3108 1.386 . S
C3112 C3107 1.490 . S
C3112 C3114 1.395 . S
C3112 C3115 1.403 . S
H3113 C3119 0.930 . S
C3114 H3100 0.930 . S
C3114 C3112 1.395 . S
C3114 C3117 1.403 . S
C3115 C3112 1.403 . S
C3115 C3116 1.524 . S
C3115 C3119 1.400 . S
C3116 H3101 0.960 . S
C3116 H3102 0.960 . S
C3116 H3103 0.960 . S
C3116 C3115 1.524 . S
C3117 C3114 1.403 . S
C3117 C3118 1.392 . S
C3117 C3121 1.495 . S
C3118 C3117 1.392 . S
C3118 C3119 1.385 . S
C3118 C3120 1.478 . S
C3119 H3113 0.930 . S
C3119 C3115 1.400 . S
C3119 C3118 1.385 . S
C3120 C3118 1.478 . S
C3120 C3122 1.381 . S
C3120 C3126 1.383 . S
C3121 C3117 1.495 . S
C3121 H3127 0.959 . S
C3121 H3128 0.961 . S
C3121 H3129 0.960 . S
C3122 C3120 1.381 . S
C3122 C3123 1.394 . S
C3122 H3130 0.930 . S
C3123 C3122 1.394 . S
C3123 C3124 1.383 . S
C3123 H3131 0.929 . S
C3124 C3123 1.383 . S
C3124 C3125 1.377 . S
C3125 H3109 0.930 . S
C3125 C3124 1.377 . S
C3125 C3126 1.379 . S
C3126 H3110 0.931 . S
C3126 C3120 1.383 . S
C3126 C3125 1.379 . S
H3127 C3121 0.959 . S
H3128 C3121 0.961 . S
H3129 C3121 0.960 . S
H3130 C3122 0.930 . S
H3131 C3123 0.929 . S
H3132 C3140 0.929 . S
H3133 C3142 0.930 . S
H3134 C3144 0.930 . S
H3135 C3147 0.929 . S
H3136 C3150 0.930 . S
H3137 C3152 0.960 . S
H3138 C3152 0.960 . S
H3139 C3152 0.960 . S
C3140 H3132 0.929 . S
C3140 C3141 1.377 . S
C3140 C3142 1.384 . S
C3141 C3140 1.377 . S
C3141 C3147 1.390 . S
C3142 H3133 0.930 . S
C3142 C3140 1.384 . S
C3142 C3143 1.372 . S
C3143 C3142 1.372 . S
C3143 C3144 1.400 . S
C3143 C3148 1.490 . S
C3144 H3134 0.930 . S
C3144 C3143 1.400 . S
C3144 C3147 1.386 . S
H3145 C3161 0.930 . S
H3146 C3162 0.931 . S
C3147 H3135 0.929 . S
C3147 C3141 1.390 . S
C3147 C3144 1.386 . S
C3148 C3143 1.490 . S
C3148 C3150 1.395 . S
C3148 C3151 1.403 . S
H3149 C3155 0.930 . S
C3150 H3136 0.930 . S
C3150 C3148 1.395 . S
C3150 C3153 1.403 . S
C3151 C3148 1.403 . S
C3151 C3152 1.524 . S
C3151 C3155 1.400 . S
C3152 H3137 0.960 . S
C3152 H3138 0.960 . S
C3152 H3139 0.960 . S
C3152 C3151 1.524 . S
C3153 C3150 1.403 . S
C3153 C3154 1.392 . S
C3153 C3157 1.495 . S
C3154 C3153 1.392 . S
C3154 C3155 1.385 . S
C3154 C3156 1.478 . S
C3155 H3149 0.930 . S
C3155 C3151 1.400 . S
C3155 C3154 1.385 . S
C3156 C3154 1.478 . S
C3156 C3158 1.381 . S
C3156 C3162 1.383 . S
C3157 C3153 1.495 . S
C3157 H3163 0.959 . S
C3157 H3164 0.961 . S
C3157 H3165 0.960 . S
C3158 C3156 1.381 . S
C3158 C3159 1.394 . S
C3158 H3166 0.930 . S
C3159 C3158 1.394 . S
C3159 C3160 1.383 . S
C3159 H3167 0.929 . S
C3160 C3159 1.383 . S
C3160 C3161 1.377 . S
C3161 H3145 0.930 . S
C3161 C3160 1.377 . S
C3161 C3162 1.379 . S
C3162 H3146 0.931 . S
C3162 C3156 1.383 . S
C3162 C3161 1.379 . S
H3163 C3157 0.959 . S
H3164 C3157 0.961 . S
H3165 C3157 0.960 . S
H3166 C3158 0.930 . S
H3167 C3159 0.929 . S
H3168 C3176 0.929 . S
H3169 C3178 0.930 . S
H3170 C3180 0.930 . S
H3171 C3183 0.929 . S
H3172 C3186 0.930 . S
H3173 C3188 0.960 . S
H3174 C3188 0.960 . S
H3175 C3188 0.960 . S
C3176 H3168 0.929 . S
C3176 C3177 1.377 . S
C3176 C3178 1.384 1_565 S
C3177 C3176 1.377 . S
C3177 C3183 1.390 . S
C3178 H3169 0.930 . S
C3178 C3176 1.384 1_545 S
C3178 C3179 1.372 . S
C3179 C3178 1.372 . S
C3179 C3180 1.400 1_545 S
C3179 C3184 1.490 . S
C3180 H3170 0.930 . S
C3180 C3179 1.400 1_565 S
C3180 C3183 1.386 . S
H3181 C3197 0.930 . S
H3182 C3198 0.931 . S
C3183 H3171 0.929 . S
C3183 C3177 1.390 . S
C3183 C3180 1.386 . S
C3184 C3179 1.490 . S
C3184 C3186 1.395 . S
C3184 C3187 1.403 . S
H3185 C3191 0.930 . S
C3186 H3172 0.930 . S
C3186 C3184 1.395 . S
C3186 C3189 1.403 . S
C3187 C3184 1.403 . S
C3187 C3188 1.524 . S
C3187 C3191 1.400 . S
C3188 H3173 0.960 . S
C3188 H3174 0.960 . S
C3188 H3175 0.960 . S
C3188 C3187 1.524 . S
C3189 C3186 1.403 . S
C3189 C3190 1.392 . S
C3189 C3193 1.495 . S
C3190 C3189 1.392 . S
C3190 C3191 1.385 . S
C3190 C3192 1.478 . S
C3191 H3185 0.930 . S
C3191 C3187 1.400 . S
C3191 C3190 1.385 . S
C3192 C3190 1.478 . S
C3192 C3194 1.381 . S
C3192 C3198 1.383 . S
C3193 C3189 1.495 . S
C3193 H3199 0.959 . S
C3193 H3200 0.961 . S
C3193 H3201 0.960 . S
C3194 C3192 1.381 . S
C3194 C3195 1.394 . S
C3194 H3202 0.930 . S
C3195 C3194 1.394 . S
C3195 C3196 1.383 . S
C3195 H3203 0.929 . S
C3196 C3195 1.383 . S
C3196 C3197 1.377 . S
C3197 H3181 0.930 . S
C3197 C3196 1.377 . S
C3197 C3198 1.379 . S
C3198 H3182 0.931 . S
C3198 C3192 1.383 . S
C3198 C3197 1.379 . S
H3199 C3193 0.959 . S
H3200 C3193 0.961 . S
H3201 C3193 0.960 . S
H3202 C3194 0.930 . S
H3203 C3195 0.929 . S
H3204 C3212 0.929 . S
H3205 C3214 0.930 . S
H3206 C3216 0.930 . S
H3207 C3219 0.929 . S
H3208 C3222 0.930 1_455 S
H3209 C3224 0.960 . S
H3210 C3224 0.960 . S
H3211 C3224 0.960 . S
C3212 H3204 0.929 . S
C3212 C3213 1.377 . S
C3212 C3214 1.384 . S
C3213 C3212 1.377 . S
C3213 C3219 1.390 . S
C3214 H3205 0.930 . S
C3214 C3212 1.384 . S
C3214 C3215 1.372 . S
C3215 C3214 1.372 . S
C3215 C3216 1.400 . S
C3215 C3220 1.490 . S
C3216 H3206 0.930 . S
C3216 C3215 1.400 . S
C3216 C3219 1.386 . S
H3217 C3233 0.930 . S
H3218 C3234 0.931 . S
C3219 H3207 0.929 . S
C3219 C3213 1.390 . S
C3219 C3216 1.386 . S
C3220 C3215 1.490 . S
C3220 C3222 1.395 1_455 S
C3220 C3223 1.403 . S
H3221 C3227 0.930 . S
C3222 H3208 0.930 1_655 S
C3222 C3220 1.395 1_655 S
C3222 C3225 1.403 . S
C3223 C3220 1.403 . S
C3223 C3224 1.524 . S
C3223 C3227 1.400 1_455 S
C3224 H3209 0.960 . S
C3224 H3210 0.960 . S
C3224 H3211 0.960 . S
C3224 C3223 1.524 . S
C3225 C3222 1.403 . S
C3225 C3226 1.392 . S
C3225 C3229 1.495 . S
C3226 C3225 1.392 . S
C3226 C3227 1.385 . S
C3226 C3228 1.478 . S
C3227 H3221 0.930 . S
C3227 C3223 1.400 1_655 S
C3227 C3226 1.385 . S
C3228 C3226 1.478 . S
C3228 C3230 1.381 . S
C3228 C3234 1.383 . S
C3229 C3225 1.495 . S
C3229 H3235 0.959 . S
C3229 H3236 0.961 . S
C3229 H3237 0.960 . S
C3230 C3228 1.381 . S
C3230 C3231 1.394 . S
C3230 H3238 0.930 . S
C3231 C3230 1.394 . S
C3231 C3232 1.383 . S
C3231 H3239 0.929 . S
C3232 C3231 1.383 . S
C3232 C3233 1.377 . S
C3233 H3217 0.930 . S
C3233 C3232 1.377 . S
C3233 C3234 1.379 . S
C3234 H3218 0.931 . S
C3234 C3228 1.383 . S
C3234 C3233 1.379 . S
H3235 C3229 0.959 . S
H3236 C3229 0.961 . S
H3237 C3229 0.960 . S
H3238 C3230 0.930 . S
H3239 C3231 0.929 . S
H3240 C3248 0.929 . S
H3241 C3250 0.930 . S
H3242 C3252 0.930 . S
H3243 C3255 0.929 . S
H3244 C3258 0.930 . S
H3245 C3260 0.960 . S
H3246 C3260 0.960 . S
H3247 C3260 0.960 . S
C3248 H3240 0.929 . S
C3248 C3249 1.377 . S
C3248 C3250 1.384 . S
C3249 C3248 1.377 . S
C3249 C3255 1.390 . S
C3250 H3241 0.930 . S
C3250 C3248 1.384 . S
C3250 C3251 1.372 . S
C3251 C3250 1.372 . S
C3251 C3252 1.400 . S
C3251 C3256 1.490 . S
C3252 H3242 0.930 . S
C3252 C3251 1.400 . S
C3252 C3255 1.386 . S
H3253 C3269 0.930 . S
H3254 C3270 0.931 . S
C3255 H3243 0.929 . S
C3255 C3249 1.390 . S
C3255 C3252 1.386 . S
C3256 C3251 1.490 . S
C3256 C3258 1.395 . S
C3256 C3259 1.403 . S
H3257 C3263 0.930 . S
C3258 H3244 0.930 . S
C3258 C3256 1.395 . S
C3258 C3261 1.403 . S
C3259 C3256 1.403 . S
C3259 C3260 1.524 . S
C3259 C3263 1.400 . S
C3260 H3245 0.960 . S
C3260 H3246 0.960 . S
C3260 H3247 0.960 . S
C3260 C3259 1.524 . S
C3261 C3258 1.403 . S
C3261 C3262 1.392 . S
C3261 C3265 1.495 . S
C3262 C3261 1.392 . S
C3262 C3263 1.385 . S
C3262 C3264 1.478 . S
C3263 H3257 0.930 . S
C3263 C3259 1.400 . S
C3263 C3262 1.385 . S
C3264 C3262 1.478 . S
C3264 C3266 1.381 . S
C3264 C3270 1.383 . S
C3265 C3261 1.495 . S
C3265 H3271 0.959 . S
C3265 H3272 0.961 . S
C3265 H3273 0.960 . S
C3266 C3264 1.381 . S
C3266 C3267 1.390 . S
C3266 H3274 0.930 . S
C3267 C3266 1.390 . S
C3267 C3268 1.385 1_655 S
C3267 H3275 0.932 1_655 S
C3268 C3267 1.385 1_455 S
C3268 C3269 1.377 . S
C3269 H3253 0.930 . S
C3269 C3268 1.377 . S
C3269 C3270 1.379 1_455 S
C3270 H3254 0.931 . S
C3270 C3264 1.383 . S
C3270 C3269 1.379 1_655 S
H3271 C3265 0.959 . S
H3272 C3265 0.961 . S
H3273 C3265 0.960 . S
H3274 C3266 0.930 . S
H3275 C3267 0.932 1_455 S
H3276 C3284 0.929 . S
H3277 C3286 0.930 . S
H3278 C3288 0.930 . S
H3279 C3291 0.929 . S
H3280 C3294 0.930 . S
H3281 C3296 0.960 . S
H3282 C3296 0.960 . S
H3283 C3296 0.960 . S
C3284 H3276 0.929 . S
C3284 C3285 1.377 . S
C3284 C3286 1.384 . S
C3285 C3284 1.377 . S
C3285 C3291 1.390 . S
C3286 H3277 0.930 . S
C3286 C3284 1.384 . S
C3286 C3287 1.372 . S
C3287 C3286 1.372 . S
C3287 C3288 1.400 . S
C3287 C3292 1.490 . S
C3288 H3278 0.930 . S
C3288 C3287 1.400 . S
C3288 C3291 1.386 . S
H3289 C3305 0.930 . S
H3290 C3306 0.931 . S
C3291 H3279 0.929 . S
C3291 C3285 1.390 . S
C3291 C3288 1.386 . S
C3292 C3287 1.490 . S
C3292 C3294 1.395 . S
C3292 C3295 1.403 . S
H3293 C3299 0.930 . S
C3294 H3280 0.930 . S
C3294 C3292 1.395 . S
C3294 C3297 1.403 . S
C3295 C3292 1.403 . S
C3295 C3296 1.524 . S
C3295 C3299 1.400 . S
C3296 H3281 0.960 . S
C3296 H3282 0.960 . S
C3296 H3283 0.960 . S
C3296 C3295 1.524 . S
C3297 C3294 1.403 . S
C3297 C3298 1.392 . S
C3297 C3301 1.495 . S
C3298 C3297 1.392 . S
C3298 C3299 1.385 . S
C3298 C3300 1.478 . S
C3299 H3293 0.930 . S
C3299 C3295 1.400 . S
C3299 C3298 1.385 . S
C3300 C3298 1.478 . S
C3300 C3302 1.381 . S
C3300 C3306 1.383 . S
C3301 C3297 1.495 . S
C3301 H3307 0.959 . S
C3301 H3308 0.961 . S
C3301 H3309 0.960 . S
C3302 C3300 1.381 . S
C3302 C3303 1.394 . S
C3302 H3310 0.930 . S
C3303 C3302 1.394 . S
C3303 C3304 1.383 . S
C3303 H3311 0.929 . S
C3304 C3303 1.383 . S
C3304 C3305 1.377 . S
C3305 H3289 0.930 . S
C3305 C3304 1.377 . S
C3305 C3306 1.379 . S
C3306 H3290 0.931 . S
C3306 C3300 1.383 . S
C3306 C3305 1.379 . S
H3307 C3301 0.959 . S
H3308 C3301 0.961 . S
H3309 C3301 0.960 . S
H3310 C3302 0.930 . S
H3311 C3303 0.929 . S
H3312 C3320 0.929 . S
H3313 C3322 0.930 . S
H3314 C3324 0.930 . S
H3315 C3327 0.929 . S
H3316 C3330 0.930 . S
H3317 C3332 0.960 . S
H3318 C3332 0.960 . S
H3319 C3332 0.960 . S
C3320 H3312 0.929 . S
C3320 C3321 1.377 . S
C3320 C3322 1.384 . S
C3321 C3320 1.377 . S
C3321 C3327 1.390 . S
C3322 H3313 0.930 . S
C3322 C3320 1.384 . S
C3322 C3323 1.372 . S
C3323 C3322 1.372 . S
C3323 C3324 1.400 . S
C3323 C3328 1.490 . S
C3324 H3314 0.930 . S
C3324 C3323 1.400 . S
C3324 C3327 1.386 . S
H3325 C3341 0.930 . S
H3326 C3342 0.931 . S
C3327 H3315 0.929 . S
C3327 C3321 1.390 . S
C3327 C3324 1.386 . S
C3328 C3323 1.490 . S
C3328 C3330 1.395 . S
C3328 C3331 1.403 . S
H3329 C3335 0.930 . S
C3330 H3316 0.930 . S
C3330 C3328 1.395 . S
C3330 C3333 1.403 . S
C3331 C3328 1.403 . S
C3331 C3332 1.524 . S
C3331 C3335 1.400 . S
C3332 H3317 0.960 . S
C3332 H3318 0.960 . S
C3332 H3319 0.960 . S
C3332 C3331 1.524 . S
C3333 C3330 1.403 . S
C3333 C3334 1.392 . S
C3333 C3337 1.495 . S
C3334 C3333 1.392 . S
C3334 C3335 1.385 . S
C3334 C3336 1.478 . S
C3335 H3329 0.930 . S
C3335 C3331 1.400 . S
C3335 C3334 1.385 . S
C3336 C3334 1.478 . S
C3336 C3338 1.381 . S
C3336 C3342 1.383 . S
C3337 C3333 1.495 . S
C3337 H3343 0.959 . S
C3337 H3344 0.961 . S
C3337 H3345 0.960 . S
C3338 C3336 1.381 . S
C3338 C3339 1.394 . S
C3338 H3346 0.930 . S
C3339 C3338 1.394 . S
C3339 C3340 1.383 . S
C3339 H3347 0.929 . S
C3340 C3339 1.383 . S
C3340 C3341 1.377 . S
C3341 H3325 0.930 . S
C3341 C3340 1.377 . S
C3341 C3342 1.379 . S
C3342 H3326 0.931 . S
C3342 C3336 1.383 . S
C3342 C3341 1.379 . S
H3343 C3337 0.959 . S
H3344 C3337 0.961 . S
H3345 C3337 0.960 . S
H3346 C3338 0.930 . S
H3347 C3339 0.929 . S
H3348 C3356 0.929 . S
H3349 C3358 0.930 . S
H3350 C3360 0.930 . S
H3351 C3363 0.929 . S
H3352 C3366 0.930 . S
H3353 C3368 0.960 . S
H3354 C3368 0.960 . S
H3355 C3368 0.960 . S
C3356 H3348 0.929 . S
C3356 C3357 1.377 . S
C3356 C3358 1.384 . S
C3357 C3356 1.377 . S
C3357 C3363 1.390 . S
C3358 H3349 0.930 . S
C3358 C3356 1.384 . S
C3358 C3359 1.372 . S
C3359 C3358 1.372 . S
C3359 C3360 1.400 . S
C3359 C3364 1.490 . S
C3360 H3350 0.930 . S
C3360 C3359 1.400 . S
C3360 C3363 1.386 . S
H3361 C3377 0.930 . S
H3362 C3378 0.931 . S
C3363 H3351 0.929 . S
C3363 C3357 1.390 . S
C3363 C3360 1.386 . S
C3364 C3359 1.490 . S
C3364 C3366 1.395 . S
C3364 C3367 1.403 . S
H3365 C3371 0.930 . S
C3366 H3352 0.930 . S
C3366 C3364 1.395 . S
C3366 C3369 1.403 . S
C3367 C3364 1.403 . S
C3367 C3368 1.524 . S
C3367 C3371 1.400 . S
C3368 H3353 0.960 . S
C3368 H3354 0.960 . S
C3368 H3355 0.960 . S
C3368 C3367 1.524 . S
C3369 C3366 1.403 . S
C3369 C3370 1.392 . S
C3369 C3373 1.495 . S
C3370 C3369 1.392 . S
C3370 C3371 1.385 . S
C3370 C3372 1.478 . S
C3371 H3365 0.930 . S
C3371 C3367 1.400 . S
C3371 C3370 1.385 . S
C3372 C3370 1.478 . S
C3372 C3374 1.381 . S
C3372 C3378 1.383 . S
C3373 C3369 1.495 . S
C3373 H3379 0.959 . S
C3373 H3380 0.961 . S
C3373 H3381 0.960 . S
C3374 C3372 1.381 . S
C3374 C3375 1.394 . S
C3374 H3382 0.930 . S
C3375 C3374 1.394 . S
C3375 C3376 1.383 . S
C3375 H3383 0.929 . S
C3376 C3375 1.383 . S
C3376 C3377 1.377 . S
C3377 H3361 0.930 . S
C3377 C3376 1.377 . S
C3377 C3378 1.379 . S
C3378 H3362 0.931 . S
C3378 C3372 1.383 . S
C3378 C3377 1.379 . S
H3379 C3373 0.959 . S
H3380 C3373 0.961 . S
H3381 C3373 0.960 . S
H3382 C3374 0.930 . S
H3383 C3375 0.929 . S
H3384 C3392 0.929 . S
H3385 C3394 0.930 . S
H3386 C3396 0.930 . S
H3387 C3399 0.929 . S
H3388 C3402 0.930 . S
H3389 C3404 0.960 . S
H3390 C3404 0.960 . S
H3391 C3404 0.960 . S
C3392 H3384 0.929 . S
C3392 C3393 1.377 . S
C3392 C3394 1.384 . S
C3393 C3392 1.377 . S
C3393 C3399 1.390 . S
C3394 H3385 0.930 . S
C3394 C3392 1.384 . S
C3394 C3395 1.372 . S
C3395 C3394 1.372 . S
C3395 C3396 1.400 . S
C3395 C3400 1.490 . S
C3396 H3386 0.930 . S
C3396 C3395 1.400 . S
C3396 C3399 1.386 . S
H3397 C3413 0.930 . S
H3398 C3414 0.931 . S
C3399 H3387 0.929 . S
C3399 C3393 1.390 . S
C3399 C3396 1.386 . S
C3400 C3395 1.490 . S
C3400 C3402 1.395 . S
C3400 C3403 1.403 . S
H3401 C3407 0.930 . S
C3402 H3388 0.930 . S
C3402 C3400 1.395 . S
C3402 C3405 1.403 . S
C3403 C3400 1.403 . S
C3403 C3404 1.524 . S
C3403 C3407 1.400 . S
C3404 H3389 0.960 . S
C3404 H3390 0.960 . S
C3404 H3391 0.960 . S
C3404 C3403 1.524 . S
C3405 C3402 1.403 . S
C3405 C3406 1.392 . S
C3405 C3409 1.495 . S
C3406 C3405 1.392 . S
C3406 C3407 1.385 . S
C3406 C3408 1.478 . S
C3407 H3401 0.930 . S
C3407 C3403 1.400 . S
C3407 C3406 1.385 . S
C3408 C3406 1.478 . S
C3408 C3410 1.381 . S
C3408 C3414 1.383 . S
C3409 C3405 1.495 . S
C3409 H3415 0.959 . S
C3409 H3416 0.961 . S
C3409 H3417 0.960 . S
C3410 C3408 1.381 . S
C3410 C3411 1.394 . S
C3410 H3418 0.930 . S
C3411 C3410 1.394 . S
C3411 C3412 1.383 . S
C3411 H3419 0.929 . S
C3412 C3411 1.383 . S
C3412 C3413 1.377 . S
C3413 H3397 0.930 . S
C3413 C3412 1.377 . S
C3413 C3414 1.379 . S
C3414 H3398 0.931 . S
C3414 C3408 1.383 . S
C3414 C3413 1.379 . S
H3415 C3409 0.959 . S
H3416 C3409 0.961 . S
H3417 C3409 0.960 . S
H3418 C3410 0.930 . S
H3419 C3411 0.929 . S
H3420 C3428 0.929 . S
H3421 C3430 0.930 . S
H3422 C3432 0.930 . S
H3423 C3435 0.929 . S
H3424 C3438 0.930 . S
H3425 C3440 0.960 . S
H3426 C3440 0.960 . S
H3427 C3440 0.960 . S
C3428 H3420 0.929 . S
C3428 C3429 1.377 . S
C3428 C3430 1.384 . S
C3429 C3428 1.377 . S
C3429 C3435 1.390 . S
C3430 H3421 0.930 . S
C3430 C3428 1.384 . S
C3430 C3431 1.372 . S
C3431 C3430 1.372 . S
C3431 C3432 1.400 . S
C3431 C3436 1.490 . S
C3432 H3422 0.930 . S
C3432 C3431 1.400 . S
C3432 C3435 1.386 . S
H3433 C3449 0.930 . S
H3434 C3450 0.931 . S
C3435 H3423 0.929 . S
C3435 C3429 1.390 . S
C3435 C3432 1.386 . S
C3436 C3431 1.490 . S
C3436 C3438 1.395 . S
C3436 C3439 1.403 . S
H3437 C3443 0.930 . S
C3438 H3424 0.930 . S
C3438 C3436 1.395 . S
C3438 C3441 1.403 . S
C3439 C3436 1.403 . S
C3439 C3440 1.524 . S
C3439 C3443 1.400 . S
C3440 H3425 0.960 . S
C3440 H3426 0.960 . S
C3440 H3427 0.960 . S
C3440 C3439 1.524 . S
C3441 C3438 1.403 . S
C3441 C3442 1.392 . S
C3441 C3445 1.495 . S
C3442 C3441 1.392 . S
C3442 C3443 1.385 . S
C3442 C3444 1.478 . S
C3443 H3437 0.930 . S
C3443 C3439 1.400 . S
C3443 C3442 1.385 . S
C3444 C3442 1.478 . S
C3444 C3446 1.381 . S
C3444 C3450 1.383 . S
C3445 C3441 1.495 . S
C3445 H3451 0.959 . S
C3445 H3452 0.961 . S
C3445 H3453 0.960 . S
C3446 C3444 1.381 . S
C3446 C3447 1.394 . S
C3446 H3454 0.930 . S
C3447 C3446 1.394 . S
C3447 C3448 1.383 . S
C3447 H3455 0.929 . S
C3448 C3447 1.383 . S
C3448 C3449 1.377 . S
C3449 H3433 0.930 . S
C3449 C3448 1.377 . S
C3449 C3450 1.379 . S
C3450 H3434 0.931 . S
C3450 C3444 1.383 . S
C3450 C3449 1.379 . S
H3451 C3445 0.959 . S
H3452 C3445 0.961 . S
H3453 C3445 0.960 . S
H3454 C3446 0.930 . S
H3455 C3447 0.929 . S
H3456 C3464 0.929 . S
H3457 C3466 0.930 . S
H3458 C3468 0.930 . S
H3459 C3471 0.929 . S
H3460 C3474 0.930 . S
H3461 C3476 0.960 . S
H3462 C3476 0.960 . S
H3463 C3476 0.960 . S
C3464 H3456 0.929 . S
C3464 C3465 1.377 . S
C3464 C3466 1.384 . S
C3465 C3464 1.377 . S
C3465 C3471 1.390 . S
C3466 H3457 0.930 . S
C3466 C3464 1.384 . S
C3466 C3467 1.372 . S
C3467 C3466 1.372 . S
C3467 C3468 1.400 . S
C3467 C3472 1.490 . S
C3468 H3458 0.930 . S
C3468 C3467 1.400 . S
C3468 C3471 1.386 . S
H3469 C3485 0.930 . S
H3470 C3486 0.931 . S
C3471 H3459 0.929 . S
C3471 C3465 1.390 . S
C3471 C3468 1.386 . S
C3472 C3467 1.490 . S
C3472 C3474 1.395 . S
C3472 C3475 1.403 . S
H3473 C3479 0.930 . S
C3474 H3460 0.930 . S
C3474 C3472 1.395 . S
C3474 C3477 1.403 . S
C3475 C3472 1.403 . S
C3475 C3476 1.524 . S
C3475 C3479 1.400 . S
C3476 H3461 0.960 . S
C3476 H3462 0.960 . S
C3476 H3463 0.960 . S
C3476 C3475 1.524 . S
C3477 C3474 1.403 . S
C3477 C3478 1.392 . S
C3477 C3481 1.495 . S
C3478 C3477 1.392 . S
C3478 C3479 1.385 . S
C3478 C3480 1.478 . S
C3479 H3473 0.930 . S
C3479 C3475 1.400 . S
C3479 C3478 1.385 . S
C3480 C3478 1.478 . S
C3480 C3482 1.381 . S
C3480 C3486 1.383 . S
C3481 C3477 1.495 . S
C3481 H3487 0.959 . S
C3481 H3488 0.961 . S
C3481 H3489 0.960 . S
C3482 C3480 1.381 . S
C3482 C3483 1.394 . S
C3482 H3490 0.930 . S
C3483 C3482 1.394 . S
C3483 C3484 1.383 . S
C3483 H3491 0.929 . S
C3484 C3483 1.383 . S
C3484 C3485 1.377 . S
C3485 H3469 0.930 . S
C3485 C3484 1.377 . S
C3485 C3486 1.379 . S
C3486 H3470 0.931 . S
C3486 C3480 1.383 . S
C3486 C3485 1.379 . S
H3487 C3481 0.959 . S
H3488 C3481 0.961 . S
H3489 C3481 0.960 . S
H3490 C3482 0.930 . S
H3491 C3483 0.929 . S
H3492 C3500 0.929 . S
H3493 C3502 0.930 . S
H3494 C3504 0.930 . S
H3495 C3507 0.929 . S
H3496 C3510 0.930 . S
H3497 C3512 0.960 . S
H3498 C3512 0.960 . S
H3499 C3512 0.960 . S
C3500 H3492 0.929 . S
C3500 C3501 1.377 . S
C3500 C3502 1.384 . S
C3501 C3500 1.377 . S
C3501 C3507 1.390 . S
C3502 H3493 0.930 . S
C3502 C3500 1.384 . S
C3502 C3503 1.372 . S
C3503 C3502 1.372 . S
C3503 C3504 1.400 . S
C3503 C3508 1.490 . S
C3504 H3494 0.930 . S
C3504 C3503 1.400 . S
C3504 C3507 1.386 . S
H3505 C3521 0.930 . S
H3506 C3522 0.931 . S
C3507 H3495 0.929 . S
C3507 C3501 1.390 . S
C3507 C3504 1.386 . S
C3508 C3503 1.490 . S
C3508 C3510 1.395 1_455 S
C3508 C3511 1.403 . S
H3509 C3515 0.930 . S
C3510 H3496 0.930 . S
C3510 C3508 1.395 1_655 S
C3510 C3513 1.403 . S
C3511 C3508 1.403 . S
C3511 C3512 1.524 . S
C3511 C3515 1.400 1_455 S
C3512 H3497 0.960 . S
C3512 H3498 0.960 . S
C3512 H3499 0.960 . S
C3512 C3511 1.524 . S
C3513 C3510 1.403 . S
C3513 C3514 1.392 . S
C3513 C3517 1.495 . S
C3514 C3513 1.392 . S
C3514 C3515 1.385 . S
C3514 C3516 1.478 . S
C3515 H3509 0.930 . S
C3515 C3511 1.400 1_655 S
C3515 C3514 1.385 . S
C3516 C3514 1.478 . S
C3516 C3518 1.381 . S
C3516 C3522 1.383 . S
C3517 C3513 1.495 . S
C3517 H3523 0.959 . S
C3517 H3524 0.961 . S
C3517 H3525 0.960 . S
C3518 C3516 1.381 . S
C3518 C3519 1.394 . S
C3518 H3526 0.930 . S
C3519 C3518 1.394 . S
C3519 C3520 1.383 . S
C3519 H3527 0.929 . S
C3520 C3519 1.383 . S
C3520 C3521 1.377 . S
C3521 H3505 0.930 . S
C3521 C3520 1.377 . S
C3521 C3522 1.379 . S
C3522 H3506 0.931 . S
C3522 C3516 1.383 . S
C3522 C3521 1.379 . S
H3523 C3517 0.959 . S
H3524 C3517 0.961 . S
H3525 C3517 0.960 . S
H3526 C3518 0.930 . S
H3527 C3519 0.929 . S
H3528 C3536 0.929 . S
H3529 C3538 0.930 . S
H3530 C3540 0.930 . S
H3531 C3543 0.929 . S
H3532 C3546 0.930 . S
H3533 C3548 0.960 . S
H3534 C3548 0.960 . S
H3535 C3548 0.960 . S
C3536 H3528 0.929 . S
C3536 C3537 1.377 . S
C3536 C3538 1.384 . S
C3537 C3536 1.377 . S
C3537 C3543 1.390 . S
C3538 H3529 0.930 . S
C3538 C3536 1.384 . S
C3538 C3539 1.372 . S
C3539 C3538 1.372 . S
C3539 C3540 1.400 . S
C3539 C3544 1.490 . S
C3540 H3530 0.930 . S
C3540 C3539 1.400 . S
C3540 C3543 1.386 . S
H3541 C3557 0.930 . S
H3542 C3558 0.931 . S
C3543 H3531 0.929 . S
C3543 C3537 1.390 . S
C3543 C3540 1.386 . S
C3544 C3539 1.490 . S
C3544 C3546 1.395 . S
C3544 C3547 1.403 . S
H3545 C3551 0.930 . S
C3546 H3532 0.930 . S
C3546 C3544 1.395 . S
C3546 C3549 1.403 . S
C3547 C3544 1.403 . S
C3547 C3548 1.524 . S
C3547 C3551 1.400 . S
C3548 H3533 0.960 . S
C3548 H3534 0.960 . S
C3548 H3535 0.960 . S
C3548 C3547 1.524 . S
C3549 C3546 1.403 . S
C3549 C3550 1.392 . S
C3549 C3553 1.495 . S
C3550 C3549 1.392 . S
C3550 C3551 1.385 . S
C3550 C3552 1.478 . S
C3551 H3545 0.930 . S
C3551 C3547 1.400 . S
C3551 C3550 1.385 . S
C3552 C3550 1.478 . S
C3552 C3554 1.381 . S
C3552 C3558 1.383 . S
C3553 C3549 1.495 . S
C3553 H3559 0.959 . S
C3553 H3560 0.961 . S
C3553 H3561 0.960 . S
C3554 C3552 1.381 . S
C3554 C3555 1.394 . S
C3554 H3562 0.930 . S
C3555 C3554 1.394 . S
C3555 C3556 1.383 . S
C3555 H3563 0.929 . S
C3556 C3555 1.383 . S
C3556 C3557 1.377 . S
C3557 H3541 0.930 . S
C3557 C3556 1.377 . S
C3557 C3558 1.379 . S
C3558 H3542 0.931 . S
C3558 C3552 1.383 . S
C3558 C3557 1.379 . S
H3559 C3553 0.959 . S
H3560 C3553 0.961 . S
H3561 C3553 0.960 . S
H3562 C3554 0.930 . S
H3563 C3555 0.929 . S
H3564 C3572 0.929 . S
H3565 C3574 0.930 . S
H3566 C3576 0.930 . S
H3567 C3579 0.929 . S
H3568 C3582 0.930 . S
H3569 C3584 0.960 . S
H3570 C3584 0.960 . S
H3571 C3584 0.960 1_565 S
C3572 H3564 0.929 . S
C3572 C3573 1.377 . S
C3572 C3574 1.384 1_565 S
C3573 C3572 1.377 . S
C3573 C3579 1.390 . S
C3574 H3565 0.930 . S
C3574 C3572 1.384 1_545 S
C3574 C3575 1.372 . S
C3575 C3574 1.372 . S
C3575 C3576 1.400 1_545 S
C3575 C3580 1.490 . S
C3576 H3566 0.930 . S
C3576 C3575 1.400 1_565 S
C3576 C3579 1.386 . S
H3577 C3593 0.930 . S
H3578 C3594 0.931 . S
C3579 H3567 0.929 . S
C3579 C3573 1.390 . S
C3579 C3576 1.386 . S
C3580 C3575 1.490 . S
C3580 C3582 1.395 . S
C3580 C3583 1.403 . S
H3581 C3587 0.930 . S
C3582 H3568 0.930 . S
C3582 C3580 1.395 . S
C3582 C3585 1.403 . S
C3583 C3580 1.403 . S
C3583 C3584 1.524 . S
C3583 C3587 1.400 . S
C3584 H3569 0.960 . S
C3584 H3570 0.960 . S
C3584 H3571 0.960 1_545 S
C3584 C3583 1.524 . S
C3585 C3582 1.403 . S
C3585 C3586 1.392 . S
C3585 C3589 1.495 . S
C3586 C3585 1.392 . S
C3586 C3587 1.385 . S
C3586 C3588 1.478 . S
C3587 H3581 0.930 . S
C3587 C3583 1.400 . S
C3587 C3586 1.385 . S
C3588 C3586 1.478 . S
C3588 C3590 1.381 . S
C3588 C3594 1.383 . S
C3589 C3585 1.495 . S
C3589 H3595 0.959 . S
C3589 H3596 0.961 . S
C3589 H3597 0.960 . S
C3590 C3588 1.381 . S
C3590 C3591 1.394 1_655 S
C3590 H3598 0.930 . S
C3591 C3590 1.394 1_455 S
C3591 C3592 1.383 . S
C3591 H3599 0.929 . S
C3592 C3591 1.383 . S
C3592 C3593 1.377 . S
C3593 H3577 0.930 . S
C3593 C3592 1.377 . S
C3593 C3594 1.379 1_455 S
C3594 H3578 0.931 . S
C3594 C3588 1.383 . S
C3594 C3593 1.379 1_655 S
H3595 C3589 0.959 . S
H3596 C3589 0.961 . S
H3597 C3589 0.960 . S
H3598 C3590 0.930 . S
H3599 C3591 0.929 . S
H3600 C3608 0.929 . S
H3601 C3610 0.930 . S
H3602 C3612 0.930 . S
H3603 C3615 0.929 . S
H3604 C3618 0.930 . S
H3605 C3620 0.960 . S
H3606 C3620 0.960 . S
H3607 C3620 0.960 . S
C3608 H3600 0.929 . S
C3608 C3609 1.377 . S
C3608 C3610 1.384 . S
C3609 C3608 1.377 . S
C3609 C3615 1.390 . S
C3610 H3601 0.930 . S
C3610 C3608 1.384 . S
C3610 C3611 1.372 . S
C3611 C3610 1.372 . S
C3611 C3612 1.400 . S
C3611 C3616 1.490 . S
C3612 H3602 0.930 . S
C3612 C3611 1.400 . S
C3612 C3615 1.386 . S
H3613 C3629 0.930 . S
H3614 C3630 0.931 . S
C3615 H3603 0.929 . S
C3615 C3609 1.390 . S
C3615 C3612 1.386 . S
C3616 C3611 1.490 . S
C3616 C3618 1.395 . S
C3616 C3619 1.403 . S
H3617 C3623 0.930 . S
C3618 H3604 0.930 . S
C3618 C3616 1.395 . S
C3618 C3621 1.403 . S
C3619 C3616 1.403 . S
C3619 C3620 1.524 . S
C3619 C3623 1.400 . S
C3620 H3605 0.960 . S
C3620 H3606 0.960 . S
C3620 H3607 0.960 . S
C3620 C3619 1.524 . S
C3621 C3618 1.403 . S
C3621 C3622 1.392 . S
C3621 C3625 1.495 . S
C3622 C3621 1.392 . S
C3622 C3623 1.385 . S
C3622 C3624 1.478 . S
C3623 H3617 0.930 . S
C3623 C3619 1.400 . S
C3623 C3622 1.385 . S
C3624 C3622 1.478 . S
C3624 C3626 1.381 . S
C3624 C3630 1.383 . S
C3625 C3621 1.495 . S
C3625 H3631 0.959 . S
C3625 H3632 0.961 . S
C3625 H3633 0.960 . S
C3626 C3624 1.381 . S
C3626 C3627 1.394 . S
C3626 H3634 0.930 . S
C3627 C3626 1.394 . S
C3627 C3628 1.383 . S
C3627 H3635 0.929 . S
C3628 C3627 1.383 . S
C3628 C3629 1.377 . S
C3629 H3613 0.930 . S
C3629 C3628 1.377 . S
C3629 C3630 1.379 . S
C3630 H3614 0.931 . S
C3630 C3624 1.383 . S
C3630 C3629 1.379 . S
H3631 C3625 0.959 . S
H3632 C3625 0.961 . S
H3633 C3625 0.960 . S
H3634 C3626 0.930 . S
H3635 C3627 0.929 . S
H3636 C3644 0.929 . S
H3637 C3646 0.930 . S
H3638 C3648 0.930 . S
H3639 C3651 0.929 . S
H3640 C3654 0.930 . S
H3641 C3656 0.960 . S
H3642 C3656 0.960 . S
H3643 C3656 0.960 . S
C3644 H3636 0.929 . S
C3644 C3645 1.377 . S
C3644 C3646 1.384 . S
C3645 C3644 1.377 . S
C3645 C3651 1.390 . S
C3646 H3637 0.930 . S
C3646 C3644 1.384 . S
C3646 C3647 1.372 . S
C3647 C3646 1.372 . S
C3647 C3648 1.400 . S
C3647 C3652 1.490 . S
C3648 H3638 0.930 . S
C3648 C3647 1.400 . S
C3648 C3651 1.386 . S
H3649 C3665 0.930 . S
H3650 C3666 0.931 . S
C3651 H3639 0.929 . S
C3651 C3645 1.390 . S
C3651 C3648 1.386 . S
C3652 C3647 1.490 . S
C3652 C3654 1.395 . S
C3652 C3655 1.403 . S
H3653 C3659 0.930 . S
C3654 H3640 0.930 . S
C3654 C3652 1.395 . S
C3654 C3657 1.403 . S
C3655 C3652 1.403 . S
C3655 C3656 1.524 . S
C3655 C3659 1.400 . S
C3656 H3641 0.960 . S
C3656 H3642 0.960 . S
C3656 H3643 0.960 . S
C3656 C3655 1.524 . S
C3657 C3654 1.403 . S
C3657 C3658 1.392 . S
C3657 C3661 1.495 . S
C3658 C3657 1.392 . S
C3658 C3659 1.385 . S
C3658 C3660 1.478 . S
C3659 H3653 0.930 . S
C3659 C3655 1.400 . S
C3659 C3658 1.385 . S
C3660 C3658 1.478 . S
C3660 C3662 1.381 . S
C3660 C3666 1.383 . S
C3661 C3657 1.495 . S
C3661 H3667 0.959 . S
C3661 H3668 0.961 . S
C3661 H3669 0.960 . S
C3662 C3660 1.381 . S
C3662 C3663 1.394 . S
C3662 H3670 0.930 . S
C3663 C3662 1.394 . S
C3663 C3664 1.383 . S
C3663 H3671 0.929 . S
C3664 C3663 1.383 . S
C3664 C3665 1.377 . S
C3665 H3649 0.930 . S
C3665 C3664 1.377 . S
C3665 C3666 1.379 . S
C3666 H3650 0.931 . S
C3666 C3660 1.383 . S
C3666 C3665 1.379 . S
H3667 C3661 0.959 . S
H3668 C3661 0.961 . S
H3669 C3661 0.960 . S
H3670 C3662 0.930 . S
H3671 C3663 0.929 . S
H3672 C3680 0.929 . S
H3673 C3682 0.930 . S
H3674 C3684 0.930 . S
H3675 C3687 0.929 . S
H3676 C3690 0.930 . S
H3677 C3692 0.960 . S
H3678 C3692 0.960 . S
H3679 C3692 0.960 . S
C3680 H3672 0.929 . S
C3680 C3681 1.377 . S
C3680 C3682 1.384 . S
C3681 C3680 1.377 . S
C3681 C3687 1.390 . S
C3682 H3673 0.930 . S
C3682 C3680 1.384 . S
C3682 C3683 1.372 . S
C3683 C3682 1.372 . S
C3683 C3684 1.400 . S
C3683 C3688 1.490 . S
C3684 H3674 0.930 . S
C3684 C3683 1.400 . S
C3684 C3687 1.386 . S
H3685 C3701 0.930 . S
H3686 C3702 0.931 . S
C3687 H3675 0.929 . S
C3687 C3681 1.390 . S
C3687 C3684 1.386 . S
C3688 C3683 1.490 . S
C3688 C3690 1.395 . S
C3688 C3691 1.403 . S
H3689 C3695 0.930 . S
C3690 H3676 0.930 . S
C3690 C3688 1.395 . S
C3690 C3693 1.403 . S
C3691 C3688 1.403 . S
C3691 C3692 1.524 . S
C3691 C3695 1.400 . S
C3692 H3677 0.960 . S
C3692 H3678 0.960 . S
C3692 H3679 0.960 . S
C3692 C3691 1.524 . S
C3693 C3690 1.403 . S
C3693 C3694 1.392 . S
C3693 C3697 1.495 . S
C3694 C3693 1.392 . S
C3694 C3695 1.385 . S
C3694 C3696 1.478 . S
C3695 H3689 0.930 . S
C3695 C3691 1.400 . S
C3695 C3694 1.385 . S
C3696 C3694 1.478 . S
C3696 C3698 1.381 . S
C3696 C3702 1.383 . S
C3697 C3693 1.495 . S
C3697 H3703 0.959 . S
C3697 H3704 0.961 . S
C3697 H3705 0.960 . S
C3698 C3696 1.381 . S
C3698 C3699 1.394 . S
C3698 H3706 0.930 . S
C3699 C3698 1.394 . S
C3699 C3700 1.383 . S
C3699 H3707 0.929 . S
C3700 C3699 1.383 . S
C3700 C3701 1.377 . S
C3701 H3685 0.930 . S
C3701 C3700 1.377 . S
C3701 C3702 1.379 . S
C3702 H3686 0.931 . S
C3702 C3696 1.383 . S
C3702 C3701 1.379 . S
H3703 C3697 0.959 . S
H3704 C3697 0.961 . S
H3705 C3697 0.960 . S
H3706 C3698 0.930 . S
H3707 C3699 0.929 . S
H3708 C3716 0.929 . S
H3709 C3718 0.930 . S
H3710 C3720 0.930 . S
H3711 C3723 0.929 . S
H3712 C3726 0.930 . S
H3713 C3728 0.960 . S
H3714 C3728 0.960 . S
H3715 C3728 0.960 . S
C3716 H3708 0.929 . S
C3716 C3717 1.377 . S
C3716 C3718 1.384 . S
C3717 C3716 1.377 . S
C3717 C3723 1.390 . S
C3718 H3709 0.930 . S
C3718 C3716 1.384 . S
C3718 C3719 1.372 . S
C3719 C3718 1.372 . S
C3719 C3720 1.400 . S
C3719 C3724 1.490 . S
C3720 H3710 0.930 . S
C3720 C3719 1.400 . S
C3720 C3723 1.386 . S
H3721 C3737 0.930 . S
H3722 C3738 0.931 . S
C3723 H3711 0.929 . S
C3723 C3717 1.390 . S
C3723 C3720 1.386 . S
C3724 C3719 1.490 . S
C3724 C3726 1.395 . S
C3724 C3727 1.403 . S
H3725 C3731 0.930 . S
C3726 H3712 0.930 . S
C3726 C3724 1.395 . S
C3726 C3729 1.403 . S
C3727 C3724 1.403 . S
C3727 C3728 1.524 . S
C3727 C3731 1.400 . S
C3728 H3713 0.960 . S
C3728 H3714 0.960 . S
C3728 H3715 0.960 . S
C3728 C3727 1.524 . S
C3729 C3726 1.403 . S
C3729 C3730 1.392 . S
C3729 C3733 1.493 . S
C3730 C3729 1.392 . S
C3730 C3731 1.385 . S
C3730 C3732 1.478 . S
C3731 H3725 0.930 . S
C3731 C3727 1.400 . S
C3731 C3730 1.385 . S
C3732 C3730 1.478 . S
C3732 C3734 1.381 1_455 S
C3732 C3738 1.383 . S
C3733 C3729 1.493 . S
C3733 H3739 0.957 . S
C3733 H3740 0.963 1_455 S
C3733 H3741 0.963 1_455 S
C3734 C3732 1.381 1_655 S
C3734 C3735 1.394 . S
C3734 H3742 0.930 . S
C3735 C3734 1.394 . S
C3735 C3736 1.383 . S
C3735 H3743 0.929 . S
C3736 C3735 1.383 . S
C3736 C3737 1.377 . S
C3737 H3721 0.930 . S
C3737 C3736 1.377 . S
C3737 C3738 1.379 1_655 S
C3738 H3722 0.931 . S
C3738 C3732 1.383 . S
C3738 C3737 1.379 1_455 S
H3739 C3733 0.957 . S
H3740 C3733 0.963 1_655 S
H3741 C3733 0.963 1_655 S
H3742 C3734 0.930 . S
H3743 C3735 0.929 . S
H3744 C3752 0.929 . S
H3745 C3754 0.930 . S
H3746 C3756 0.930 . S
H3747 C3759 0.929 . S
H3748 C3762 0.930 . S
H3749 C3764 0.960 . S
H3750 C3764 0.960 . S
H3751 C3764 0.960 . S
C3752 H3744 0.929 . S
C3752 C3753 1.377 . S
C3752 C3754 1.384 1_545 S
C3753 C3752 1.377 . S
C3753 C3759 1.390 . S
C3754 H3745 0.930 . S
C3754 C3752 1.384 1_565 S
C3754 C3755 1.372 . S
C3755 C3754 1.372 . S
C3755 C3756 1.400 . S
C3755 C3760 1.490 . S
C3756 H3746 0.930 . S
C3756 C3755 1.400 . S
C3756 C3759 1.386 1_565 S
H3757 C3773 0.930 . S
H3758 C3774 0.931 . S
C3759 H3747 0.929 . S
C3759 C3753 1.390 . S
C3759 C3756 1.386 1_545 S
C3760 C3755 1.490 . S
C3760 C3762 1.395 . S
C3760 C3763 1.403 . S
H3761 C3767 0.930 . S
C3762 H3748 0.930 . S
C3762 C3760 1.395 . S
C3762 C3765 1.403 . S
C3763 C3760 1.403 . S
C3763 C3764 1.524 . S
C3763 C3767 1.400 . S
C3764 H3749 0.960 . S
C3764 H3750 0.960 . S
C3764 H3751 0.960 . S
C3764 C3763 1.524 . S
C3765 C3762 1.403 . S
C3765 C3766 1.392 . S
C3765 C3769 1.495 . S
C3766 C3765 1.392 . S
C3766 C3767 1.385 . S
C3766 C3768 1.478 . S
C3767 H3761 0.930 . S
C3767 C3763 1.400 . S
C3767 C3766 1.385 . S
C3768 C3766 1.478 . S
C3768 C3770 1.381 . S
C3768 C3774 1.383 . S
C3769 C3765 1.495 . S
C3769 H3775 0.959 . S
C3769 H3776 0.961 . S
C3769 H3777 0.960 . S
C3770 C3768 1.381 . S
C3770 C3771 1.394 . S
C3770 H3778 0.930 . S
C3771 C3770 1.394 . S
C3771 C3772 1.383 . S
C3771 H3779 0.929 . S
C3772 C3771 1.383 . S
C3772 C3773 1.377 . S
C3773 H3757 0.930 . S
C3773 C3772 1.377 . S
C3773 C3774 1.379 . S
C3774 H3758 0.931 . S
C3774 C3768 1.383 . S
C3774 C3773 1.379 . S
H3775 C3769 0.959 . S
H3776 C3769 0.961 . S
H3777 C3769 0.960 . S
H3778 C3770 0.930 . S
H3779 C3771 0.929 . S
H3780 C3788 0.929 . S
H3781 C3790 0.930 . S
H3782 C3792 0.930 . S
H3783 C3795 0.929 . S
H3784 C3798 0.930 . S
H3785 C3800 0.960 . S
H3786 C3800 0.960 . S
H3787 C3800 0.960 . S
C3788 H3780 0.929 . S
C3788 C3789 1.377 . S
C3788 C3790 1.384 . S
C3789 C3788 1.377 . S
C3789 C3795 1.390 . S
C3790 H3781 0.930 . S
C3790 C3788 1.384 . S
C3790 C3791 1.372 . S
C3791 C3790 1.372 . S
C3791 C3792 1.400 . S
C3791 C3796 1.490 . S
C3792 H3782 0.930 . S
C3792 C3791 1.400 . S
C3792 C3795 1.386 . S
H3793 C3809 0.930 . S
H3794 C3810 0.931 . S
C3795 H3783 0.929 . S
C3795 C3789 1.390 . S
C3795 C3792 1.386 . S
C3796 C3791 1.490 . S
C3796 C3798 1.395 . S
C3796 C3799 1.403 1_545 S
H3797 C3803 0.930 . S
C3798 H3784 0.930 . S
C3798 C3796 1.395 . S
C3798 C3801 1.403 . S
C3799 C3796 1.403 1_565 S
C3799 C3800 1.524 . S
C3799 C3803 1.400 . S
C3800 H3785 0.960 . S
C3800 H3786 0.960 . S
C3800 H3787 0.960 . S
C3800 C3799 1.524 . S
C3801 C3798 1.403 . S
C3801 C3802 1.392 1_545 S
C3801 C3805 1.495 . S
C3802 C3801 1.392 1_565 S
C3802 C3803 1.385 . S
C3802 C3804 1.478 . S
C3803 H3797 0.930 . S
C3803 C3799 1.400 . S
C3803 C3802 1.385 . S
C3804 C3802 1.478 . S
C3804 C3806 1.381 . S
C3804 C3810 1.383 . S
C3805 C3801 1.495 . S
C3805 H3811 0.959 . S
C3805 H3812 0.961 . S
C3805 H3813 0.949 1_545 S
C3806 C3804 1.381 . S
C3806 C3807 1.394 . S
C3806 H3814 0.930 . S
C3807 C3806 1.394 . S
C3807 C3808 1.383 . S
C3807 H3815 0.929 . S
C3808 C3807 1.383 . S
C3808 C3809 1.377 . S
C3809 H3793 0.930 . S
C3809 C3808 1.377 . S
C3809 C3810 1.379 . S
C3810 H3794 0.931 . S
C3810 C3804 1.383 . S
C3810 C3809 1.379 . S
H3811 C3805 0.959 . S
H3812 C3805 0.961 . S
H3813 C3805 0.949 1_565 S
H3814 C3806 0.930 . S
H3815 C3807 0.929 . S
H3816 C3824 0.929 . S
H3817 C3826 0.930 . S
H3818 C3828 0.930 . S
H3819 C3831 0.929 . S
H3820 C3834 0.921 . S
H3821 C3836 0.960 . S
H3822 C3836 0.960 . S
H3823 C3836 0.960 . S
C3824 H3816 0.929 . S
C3824 C3825 1.377 . S
C3824 C3826 1.384 . S
C3825 C3824 1.377 . S
C3825 C3831 1.390 . S
C3826 H3817 0.930 . S
C3826 C3824 1.384 . S
C3826 C3827 1.372 . S
C3827 C3826 1.372 . S
C3827 C3828 1.400 . S
C3827 C3832 1.490 . S
C3828 H3818 0.930 . S
C3828 C3827 1.400 . S
C3828 C3831 1.386 . S
H3829 C3845 0.930 . S
H3830 C3846 0.931 . S
C3831 H3819 0.929 . S
C3831 C3825 1.390 . S
C3831 C3828 1.386 . S
C3832 C3827 1.490 . S
C3832 C3834 1.381 1_565 S
C3832 C3835 1.403 . S
H3833 C3839 0.930 . S
C3834 H3820 0.921 . S
C3834 C3832 1.381 1_545 S
C3834 C3837 1.426 . S
C3835 C3832 1.403 . S
C3835 C3836 1.524 . S
C3835 C3839 1.400 . S
C3836 H3821 0.960 . S
C3836 H3822 0.960 . S
C3836 H3823 0.960 . S
C3836 C3835 1.524 . S
C3837 C3834 1.426 . S
C3837 C3838 1.392 . S
C3837 C3841 1.495 . S
C3838 C3837 1.392 . S
C3838 C3839 1.385 1_545 S
C3838 C3840 1.478 . S
C3839 H3833 0.930 . S
C3839 C3835 1.400 . S
C3839 C3838 1.385 1_565 S
C3840 C3838 1.478 . S
C3840 C3842 1.381 . S
C3840 C3846 1.383 . S
C3841 C3837 1.495 . S
C3841 H3847 0.959 . S
C3841 H3848 0.961 . S
C3841 H3849 0.960 . S
C3842 C3840 1.381 . S
C3842 C3843 1.394 . S
C3842 H3850 0.930 . S
C3843 C3842 1.394 . S
C3843 C3844 1.383 . S
C3843 H3851 0.929 . S
C3844 C3843 1.383 . S
C3844 C3845 1.377 . S
C3845 H3829 0.930 . S
C3845 C3844 1.377 . S
C3845 C3846 1.379 . S
C3846 H3830 0.931 . S
C3846 C3840 1.383 . S
C3846 C3845 1.379 . S
H3847 C3841 0.959 . S
H3848 C3841 0.961 . S
H3849 C3841 0.960 . S
H3850 C3842 0.930 . S
H3851 C3843 0.929 . S
H3852 C3860 0.929 . S
H3853 C3862 0.930 . S
H3854 C3864 0.930 . S
H3855 C3867 0.929 . S
H3856 C3870 0.930 . S
H3857 C3872 0.960 . S
H3858 C3872 0.960 . S
H3859 C3872 0.960 . S
C3860 H3852 0.929 . S
C3860 C3861 1.377 . S
C3860 C3862 1.384 1_545 S
C3861 C3860 1.377 . S
C3861 C3867 1.390 . S
C3862 H3853 0.930 . S
C3862 C3860 1.384 1_565 S
C3862 C3863 1.372 . S
C3863 C3862 1.372 . S
C3863 C3864 1.400 . S
C3863 C3868 1.490 . S
C3864 H3854 0.930 . S
C3864 C3863 1.400 . S
C3864 C3867 1.386 1_565 S
H3865 C3881 0.930 . S
H3866 C3882 0.931 . S
C3867 H3855 0.929 . S
C3867 C3861 1.390 . S
C3867 C3864 1.386 1_545 S
C3868 C3863 1.490 . S
C3868 C3870 1.395 . S
C3868 C3871 1.403 . S
H3869 C3875 0.930 . S
C3870 H3856 0.930 . S
C3870 C3868 1.395 . S
C3870 C3873 1.403 . S
C3871 C3868 1.403 . S
C3871 C3872 1.524 . S
C3871 C3875 1.400 . S
C3872 H3857 0.960 . S
C3872 H3858 0.960 . S
C3872 H3859 0.960 . S
C3872 C3871 1.524 . S
C3873 C3870 1.403 . S
C3873 C3874 1.392 . S
C3873 C3877 1.495 . S
C3874 C3873 1.392 . S
C3874 C3875 1.385 . S
C3874 C3876 1.478 . S
C3875 H3869 0.930 . S
C3875 C3871 1.400 . S
C3875 C3874 1.385 . S
C3876 C3874 1.478 . S
C3876 C3878 1.381 1_455 S
C3876 C3882 1.383 . S
C3877 C3873 1.495 . S
C3877 H3883 0.959 . S
C3877 H3884 0.961 . S
C3877 H3885 0.960 . S
C3878 C3876 1.381 1_655 S
C3878 C3879 1.394 . S
C3878 H3886 0.930 1_655 S
C3879 C3878 1.394 . S
C3879 C3880 1.383 . S
C3879 H3887 0.929 . S
C3880 C3879 1.383 . S
C3880 C3881 1.377 . S
C3881 H3865 0.930 . S
C3881 C3880 1.377 . S
C3881 C3882 1.379 1_655 S
C3882 H3866 0.931 . S
C3882 C3876 1.383 . S
C3882 C3881 1.379 1_455 S
H3883 C3877 0.959 . S
H3884 C3877 0.961 . S
H3885 C3877 0.960 . S
H3886 C3878 0.930 1_455 S
H3887 C3879 0.929 . S
H3888 C3896 0.929 . S
H3889 C3898 0.930 . S
H3890 C3900 0.930 . S
H3891 C3903 0.929 . S
H3892 C3906 0.930 . S
H3893 C3908 0.960 . S
H3894 C3908 0.960 . S
H3895 C3908 0.960 . S
C3896 H3888 0.929 . S
C3896 C3897 1.377 . S
C3896 C3898 1.384 . S
C3897 C3896 1.377 . S
C3897 C3903 1.390 . S
C3898 H3889 0.930 . S
C3898 C3896 1.384 . S
C3898 C3899 1.372 . S
C3899 C3898 1.372 . S
C3899 C3900 1.400 . S
C3899 C3904 1.490 . S
C3900 H3890 0.930 . S
C3900 C3899 1.400 . S
C3900 C3903 1.386 . S
H3901 C3917 0.930 . S
H3902 C3918 0.931 . S
C3903 H3891 0.929 . S
C3903 C3897 1.390 . S
C3903 C3900 1.386 . S
C3904 C3899 1.490 . S
C3904 C3906 1.395 . S
C3904 C3907 1.403 . S
H3905 C3911 0.930 . S
C3906 H3892 0.930 . S
C3906 C3904 1.395 . S
C3906 C3909 1.403 . S
C3907 C3904 1.403 . S
C3907 C3908 1.524 . S
C3907 C3911 1.400 . S
C3908 H3893 0.960 . S
C3908 H3894 0.960 . S
C3908 H3895 0.960 . S
C3908 C3907 1.524 . S
C3909 C3906 1.403 . S
C3909 C3910 1.392 . S
C3909 C3913 1.495 . S
C3910 C3909 1.392 . S
C3910 C3911 1.385 . S
C3910 C3912 1.478 . S
C3911 H3905 0.930 . S
C3911 C3907 1.400 . S
C3911 C3910 1.385 . S
C3912 C3910 1.478 . S
C3912 C3914 1.381 . S
C3912 C3918 1.383 . S
C3913 C3909 1.495 . S
C3913 H3919 0.959 . S
C3913 H3920 0.961 . S
C3913 H3921 0.960 . S
C3914 C3912 1.381 . S
C3914 C3915 1.394 . S
C3914 H3922 0.930 . S
C3915 C3914 1.394 . S
C3915 C3916 1.383 . S
C3915 H3923 0.929 . S
C3916 C3915 1.383 . S
C3916 C3917 1.377 . S
C3917 H3901 0.930 . S
C3917 C3916 1.377 . S
C3917 C3918 1.379 . S
C3918 H3902 0.931 . S
C3918 C3912 1.383 . S
C3918 C3917 1.379 . S
H3919 C3913 0.959 . S
H3920 C3913 0.961 . S
H3921 C3913 0.960 . S
H3922 C3914 0.930 . S
H3923 C3915 0.929 . S
H3924 C3932 0.929 . S
H3925 C3934 0.930 . S
H3926 C3936 0.930 . S
H3927 C3939 0.929 . S
H3928 C3942 0.930 . S
H3929 C3944 0.960 . S
H3930 C3944 0.960 . S
H3931 C3944 0.960 . S
C3932 H3924 0.929 . S
C3932 C3933 1.377 . S
C3932 C3934 1.384 . S
C3933 C3932 1.377 . S
C3933 C3939 1.390 . S
C3934 H3925 0.930 . S
C3934 C3932 1.384 . S
C3934 C3935 1.372 . S
C3935 C3934 1.372 . S
C3935 C3936 1.400 . S
C3935 C3940 1.490 . S
C3936 H3926 0.930 . S
C3936 C3935 1.400 . S
C3936 C3939 1.386 . S
H3937 C3953 0.930 . S
H3938 C3954 0.931 . S
C3939 H3927 0.929 . S
C3939 C3933 1.390 . S
C3939 C3936 1.386 . S
C3940 C3935 1.490 . S
C3940 C3942 1.395 . S
C3940 C3943 1.403 . S
H3941 C3947 0.930 . S
C3942 H3928 0.930 . S
C3942 C3940 1.395 . S
C3942 C3945 1.403 . S
C3943 C3940 1.403 . S
C3943 C3944 1.524 . S
C3943 C3947 1.400 . S
C3944 H3929 0.960 . S
C3944 H3930 0.960 . S
C3944 H3931 0.960 . S
C3944 C3943 1.524 . S
C3945 C3942 1.403 . S
C3945 C3946 1.392 . S
C3945 C3949 1.495 . S
C3946 C3945 1.392 . S
C3946 C3947 1.385 . S
C3946 C3948 1.478 . S
C3947 H3941 0.930 . S
C3947 C3943 1.400 . S
C3947 C3946 1.385 . S
C3948 C3946 1.478 . S
C3948 C3950 1.381 . S
C3948 C3954 1.383 . S
C3949 C3945 1.495 . S
C3949 H3955 0.959 . S
C3949 H3956 0.961 . S
C3949 H3957 0.960 . S
C3950 C3948 1.381 . S
C3950 C3951 1.394 . S
C3950 H3958 0.930 . S
C3951 C3950 1.394 . S
C3951 C3952 1.383 . S
C3951 H3959 0.929 . S
C3952 C3951 1.383 . S
C3952 C3953 1.377 . S
C3953 H3937 0.930 . S
C3953 C3952 1.377 . S
C3953 C3954 1.379 . S
C3954 H3938 0.931 . S
C3954 C3948 1.383 . S
C3954 C3953 1.379 . S
H3955 C3949 0.959 . S
H3956 C3949 0.961 . S
H3957 C3949 0.960 . S
H3958 C3950 0.930 . S
H3959 C3951 0.929 . S
H3960 C3968 0.929 . S
H3961 C3970 0.930 . S
H3962 C3972 0.930 . S
H3963 C3975 0.929 . S
H3964 C3978 0.930 . S
H3965 C3980 0.960 . S
H3966 C3980 0.960 . S
H3967 C3980 0.960 . S
C3968 H3960 0.929 . S
C3968 C3969 1.377 . S
C3968 C3970 1.384 . S
C3969 C3968 1.377 . S
C3969 C3975 1.390 . S
C3970 H3961 0.930 . S
C3970 C3968 1.384 . S
C3970 C3971 1.372 . S
C3971 C3970 1.372 . S
C3971 C3972 1.400 . S
C3971 C3976 1.490 . S
C3972 H3962 0.930 . S
C3972 C3971 1.400 . S
C3972 C3975 1.386 . S
H3973 C3989 0.930 . S
H3974 C3990 0.931 . S
C3975 H3963 0.929 . S
C3975 C3969 1.390 . S
C3975 C3972 1.386 . S
C3976 C3971 1.490 . S
C3976 C3978 1.395 . S
C3976 C3979 1.403 . S
H3977 C3983 0.930 . S
C3978 H3964 0.930 . S
C3978 C3976 1.395 . S
C3978 C3981 1.403 . S
C3979 C3976 1.403 . S
C3979 C3980 1.524 . S
C3979 C3983 1.400 . S
C3980 H3965 0.960 . S
C3980 H3966 0.960 . S
C3980 H3967 0.960 . S
C3980 C3979 1.524 . S
C3981 C3978 1.403 . S
C3981 C3982 1.392 . S
C3981 C3985 1.495 . S
C3982 C3981 1.392 . S
C3982 C3983 1.385 . S
C3982 C3984 1.478 . S
C3983 H3977 0.930 . S
C3983 C3979 1.400 . S
C3983 C3982 1.385 . S
C3984 C3982 1.478 . S
C3984 C3986 1.381 . S
C3984 C3990 1.383 . S
C3985 C3981 1.495 . S
C3985 H3991 0.959 . S
C3985 H3992 0.961 . S
C3985 H3993 0.960 . S
C3986 C3984 1.381 . S
C3986 C3987 1.394 . S
C3986 H3994 0.930 . S
C3987 C3986 1.394 . S
C3987 C3988 1.383 . S
C3987 H3995 0.929 . S
C3988 C3987 1.383 . S
C3988 C3989 1.377 . S
C3989 H3973 0.930 . S
C3989 C3988 1.377 . S
C3989 C3990 1.379 . S
C3990 H3974 0.931 . S
C3990 C3984 1.383 . S
C3990 C3989 1.379 . S
H3991 C3985 0.959 . S
H3992 C3985 0.961 . S
H3993 C3985 0.960 . S
H3994 C3986 0.930 . S
H3995 C3987 0.929 . S
H3996 C4004 0.929 . S
H3997 C4006 0.930 . S
H3998 C4008 0.930 . S
H3999 C4011 0.929 . S
H4000 C4014 0.930 . S
H4001 C4016 0.960 . S
H4002 C4016 0.960 . S
H4003 C4016 0.960 . S
C4004 H3996 0.929 . S
C4004 C4005 1.377 . S
C4004 C4006 1.384 . S
C4005 C4004 1.377 . S
C4005 C4011 1.390 . S
C4006 H3997 0.930 . S
C4006 C4004 1.384 . S
C4006 C4007 1.372 . S
C4007 C4006 1.372 . S
C4007 C4008 1.400 . S
C4007 C4012 1.490 . S
C4008 H3998 0.930 . S
C4008 C4007 1.400 . S
C4008 C4011 1.386 . S
H4009 C4025 0.930 . S
H4010 C4026 0.931 . S
C4011 H3999 0.929 . S
C4011 C4005 1.390 . S
C4011 C4008 1.386 . S
C4012 C4007 1.490 . S
C4012 C4014 1.395 . S
C4012 C4015 1.403 . S
H4013 C4019 0.930 . S
C4014 H4000 0.930 . S
C4014 C4012 1.395 . S
C4014 C4017 1.403 . S
C4015 C4012 1.403 . S
C4015 C4016 1.524 . S
C4015 C4019 1.400 . S
C4016 H4001 0.960 . S
C4016 H4002 0.960 . S
C4016 H4003 0.960 . S
C4016 C4015 1.524 . S
C4017 C4014 1.403 . S
C4017 C4018 1.392 . S
C4017 C4021 1.495 . S
C4018 C4017 1.392 . S
C4018 C4019 1.385 . S
C4018 C4020 1.478 . S
C4019 H4013 0.930 . S
C4019 C4015 1.400 . S
C4019 C4018 1.385 . S
C4020 C4018 1.478 . S
C4020 C4022 1.381 . S
C4020 C4026 1.383 . S
C4021 C4017 1.495 . S
C4021 H4027 0.959 . S
C4021 H4028 0.961 . S
C4021 H4029 0.960 . S
C4022 C4020 1.381 . S
C4022 C4023 1.394 . S
C4022 H4030 0.930 . S
C4023 C4022 1.394 . S
C4023 C4024 1.383 . S
C4023 H4031 0.929 . S
C4024 C4023 1.383 . S
C4024 C4025 1.377 . S
C4025 H4009 0.930 . S
C4025 C4024 1.377 . S
C4025 C4026 1.379 . S
C4026 H4010 0.931 . S
C4026 C4020 1.383 . S
C4026 C4025 1.379 . S
H4027 C4021 0.959 . S
H4028 C4021 0.961 . S
H4029 C4021 0.960 . S
H4030 C4022 0.930 . S
H4031 C4023 0.929 . S
H4032 C4040 0.929 . S
H4033 C4042 0.930 . S
H4034 C4044 0.930 . S
H4035 C4047 0.929 . S
H4036 C4050 0.930 . S
H4037 C4052 0.960 . S
H4038 C4052 0.960 . S
H4039 C4052 0.960 . S
C4040 H4032 0.929 . S
C4040 C4041 1.377 . S
C4040 C4042 1.384 . S
C4041 C4040 1.377 . S
C4041 C4047 1.390 . S
C4042 H4033 0.930 . S
C4042 C4040 1.384 . S
C4042 C4043 1.372 . S
C4043 C4042 1.372 . S
C4043 C4044 1.400 . S
C4043 C4048 1.490 . S
C4044 H4034 0.930 . S
C4044 C4043 1.400 . S
C4044 C4047 1.386 . S
H4045 C4061 0.930 . S
H4046 C4062 0.931 . S
C4047 H4035 0.929 . S
C4047 C4041 1.390 . S
C4047 C4044 1.386 . S
C4048 C4043 1.490 . S
C4048 C4050 1.395 . S
C4048 C4051 1.403 . S
H4049 C4055 0.930 . S
C4050 H4036 0.930 . S
C4050 C4048 1.395 . S
C4050 C4053 1.403 . S
C4051 C4048 1.403 . S
C4051 C4052 1.524 . S
C4051 C4055 1.400 . S
C4052 H4037 0.960 . S
C4052 H4038 0.960 . S
C4052 H4039 0.960 . S
C4052 C4051 1.524 . S
C4053 C4050 1.403 . S
C4053 C4054 1.392 . S
C4053 C4057 1.495 . S
C4054 C4053 1.392 . S
C4054 C4055 1.385 . S
C4054 C4056 1.478 . S
C4055 H4049 0.930 . S
C4055 C4051 1.400 . S
C4055 C4054 1.385 . S
C4056 C4054 1.478 . S
C4056 C4058 1.381 . S
C4056 C4062 1.383 . S
C4057 C4053 1.495 . S
C4057 H4063 0.959 . S
C4057 H4064 0.961 . S
C4057 H4065 0.960 . S
C4058 C4056 1.381 . S
C4058 C4059 1.394 . S
C4058 H4066 0.930 . S
C4059 C4058 1.394 . S
C4059 C4060 1.383 . S
C4059 H4067 0.929 . S
C4060 C4059 1.383 . S
C4060 C4061 1.377 . S
C4061 H4045 0.930 . S
C4061 C4060 1.377 . S
C4061 C4062 1.379 . S
C4062 H4046 0.931 . S
C4062 C4056 1.383 . S
C4062 C4061 1.379 . S
H4063 C4057 0.959 . S
H4064 C4057 0.961 . S
H4065 C4057 0.960 . S
H4066 C4058 0.930 . S
H4067 C4059 0.929 . S
H4068 C4076 0.929 . S
H4069 C4078 0.930 . S
H4070 C4080 0.930 . S
H4071 C4083 0.929 . S
H4072 C4086 0.930 . S
H4073 C4088 0.960 . S
H4074 C4088 0.960 . S
H4075 C4088 0.960 . S
C4076 H4068 0.929 . S
C4076 C4077 1.377 . S
C4076 C4078 1.384 . S
C4077 C4076 1.377 . S
C4077 C4083 1.390 . S
C4078 H4069 0.930 . S
C4078 C4076 1.384 . S
C4078 C4079 1.372 . S
C4079 C4078 1.372 . S
C4079 C4080 1.400 . S
C4079 C4084 1.490 . S
C4080 H4070 0.930 . S
C4080 C4079 1.400 . S
C4080 C4083 1.386 . S
H4081 C4097 0.930 . S
H4082 C4098 0.931 . S
C4083 H4071 0.929 . S
C4083 C4077 1.390 . S
C4083 C4080 1.386 . S
C4084 C4079 1.490 . S
C4084 C4086 1.395 . S
C4084 C4087 1.403 . S
H4085 C4091 0.930 . S
C4086 H4072 0.930 . S
C4086 C4084 1.395 . S
C4086 C4089 1.403 . S
C4087 C4084 1.403 . S
C4087 C4088 1.524 . S
C4087 C4091 1.400 . S
C4088 H4073 0.960 . S
C4088 H4074 0.960 . S
C4088 H4075 0.960 . S
C4088 C4087 1.524 . S
C4089 C4086 1.403 . S
C4089 C4090 1.392 . S
C4089 C4093 1.495 . S
C4090 C4089 1.392 . S
C4090 C4091 1.385 . S
C4090 C4092 1.478 . S
C4091 H4085 0.930 . S
C4091 C4087 1.400 . S
C4091 C4090 1.385 . S
C4092 C4090 1.478 . S
C4092 C4094 1.381 . S
C4092 C4098 1.383 . S
C4093 C4089 1.495 . S
C4093 H4099 0.959 . S
C4093 H4100 0.961 . S
C4093 H4101 0.960 . S
C4094 C4092 1.381 . S
C4094 C4095 1.394 . S
C4094 H4102 0.930 . S
C4095 C4094 1.394 . S
C4095 C4096 1.383 . S
C4095 H4103 0.929 . S
C4096 C4095 1.383 . S
C4096 C4097 1.377 . S
C4097 H4081 0.930 . S
C4097 C4096 1.377 . S
C4097 C4098 1.379 . S
C4098 H4082 0.931 . S
C4098 C4092 1.383 . S
C4098 C4097 1.379 . S
H4099 C4093 0.959 . S
H4100 C4093 0.961 . S
H4101 C4093 0.960 . S
H4102 C4094 0.930 . S
H4103 C4095 0.929 . S
H4104 C4112 0.929 . S
H4105 C4114 0.930 . S
H4106 C4116 0.930 . S
H4107 C4119 0.929 . S
H4108 C4122 0.930 . S
H4109 C4124 0.960 . S
H4110 C4124 0.960 . S
H4111 C4124 0.960 . S
C4112 H4104 0.929 . S
C4112 C4113 1.377 . S
C4112 C4114 1.384 . S
C4113 C4112 1.377 . S
C4113 C4119 1.390 . S
C4114 H4105 0.930 . S
C4114 C4112 1.384 . S
C4114 C4115 1.372 . S
C4115 C4114 1.372 . S
C4115 C4116 1.400 . S
C4115 C4120 1.490 . S
C4116 H4106 0.930 . S
C4116 C4115 1.400 . S
C4116 C4119 1.386 . S
H4117 C4133 0.930 . S
H4118 C4134 0.931 . S
C4119 H4107 0.929 . S
C4119 C4113 1.390 . S
C4119 C4116 1.386 . S
C4120 C4115 1.490 . S
C4120 C4122 1.395 . S
C4120 C4123 1.403 . S
H4121 C4127 0.930 . S
C4122 H4108 0.930 . S
C4122 C4120 1.395 . S
C4122 C4125 1.403 . S
C4123 C4120 1.403 . S
C4123 C4124 1.524 . S
C4123 C4127 1.400 . S
C4124 H4109 0.960 . S
C4124 H4110 0.960 . S
C4124 H4111 0.960 . S
C4124 C4123 1.524 . S
C4125 C4122 1.403 . S
C4125 C4126 1.392 . S
C4125 C4129 1.495 . S
C4126 C4125 1.392 . S
C4126 C4127 1.385 . S
C4126 C4128 1.478 . S
C4127 H4121 0.930 . S
C4127 C4123 1.400 . S
C4127 C4126 1.385 . S
C4128 C4126 1.478 . S
C4128 C4130 1.381 . S
C4128 C4134 1.383 . S
C4129 C4125 1.495 . S
C4129 H4135 0.959 . S
C4129 H4136 0.961 . S
C4129 H4137 0.960 . S
C4130 C4128 1.381 . S
C4130 C4131 1.394 . S
C4130 H4138 0.930 . S
C4131 C4130 1.394 . S
C4131 C4132 1.383 . S
C4131 H4139 0.929 . S
C4132 C4131 1.383 . S
C4132 C4133 1.377 . S
C4133 H4117 0.930 . S
C4133 C4132 1.377 . S
C4133 C4134 1.379 . S
C4134 H4118 0.931 . S
C4134 C4128 1.383 . S
C4134 C4133 1.379 . S
H4135 C4129 0.959 . S
H4136 C4129 0.961 . S
H4137 C4129 0.960 . S
H4138 C4130 0.930 . S
H4139 C4131 0.929 . S
H4140 C4148 0.929 . S
H4141 C4150 0.930 . S
H4142 C4152 0.930 . S
H4143 C4155 0.929 . S
H4144 C4158 0.930 . S
H4145 C4160 0.960 . S
H4146 C4160 0.960 . S
H4147 C4160 0.960 . S
C4148 H4140 0.929 . S
C4148 C4149 1.377 . S
C4148 C4150 1.384 . S
C4149 C4148 1.377 . S
C4149 C4155 1.390 . S
C4150 H4141 0.930 . S
C4150 C4148 1.384 . S
C4150 C4151 1.372 . S
C4151 C4150 1.372 . S
C4151 C4152 1.400 . S
C4151 C4156 1.490 . S
C4152 H4142 0.930 . S
C4152 C4151 1.400 . S
C4152 C4155 1.386 . S
H4153 C4169 0.930 . S
H4154 C4170 0.931 . S
C4155 H4143 0.929 . S
C4155 C4149 1.390 . S
C4155 C4152 1.386 . S
C4156 C4151 1.490 . S
C4156 C4158 1.395 . S
C4156 C4159 1.403 . S
H4157 C4163 0.930 . S
C4158 H4144 0.930 . S
C4158 C4156 1.395 . S
C4158 C4161 1.403 . S
C4159 C4156 1.403 . S
C4159 C4160 1.524 . S
C4159 C4163 1.400 . S
C4160 H4145 0.960 . S
C4160 H4146 0.960 . S
C4160 H4147 0.960 . S
C4160 C4159 1.524 . S
C4161 C4158 1.403 . S
C4161 C4162 1.392 . S
C4161 C4165 1.495 . S
C4162 C4161 1.392 . S
C4162 C4163 1.385 . S
C4162 C4164 1.478 . S
C4163 H4157 0.930 . S
C4163 C4159 1.400 . S
C4163 C4162 1.385 . S
C4164 C4162 1.478 . S
C4164 C4166 1.381 . S
C4164 C4170 1.383 . S
C4165 C4161 1.495 . S
C4165 H4171 0.959 . S
C4165 H4172 0.961 . S
C4165 H4173 0.960 . S
C4166 C4164 1.381 . S
C4166 C4167 1.394 . S
C4166 H4174 0.930 . S
C4167 C4166 1.394 . S
C4167 C4168 1.383 . S
C4167 H4175 0.929 . S
C4168 C4167 1.383 . S
C4168 C4169 1.377 . S
C4169 H4153 0.930 . S
C4169 C4168 1.377 . S
C4169 C4170 1.379 . S
C4170 H4154 0.931 . S
C4170 C4164 1.383 . S
C4170 C4169 1.379 . S
H4171 C4165 0.959 . S
H4172 C4165 0.961 . S
H4173 C4165 0.960 . S
H4174 C4166 0.930 . S
H4175 C4167 0.929 . S
H4176 C4184 0.929 . S
H4177 C4186 0.930 . S
H4178 C4188 0.930 . S
H4179 C4191 0.929 . S
H4180 C4194 0.930 . S
H4181 C4196 0.960 . S
H4182 C4196 0.960 . S
H4183 C4196 0.960 . S
C4184 H4176 0.929 . S
C4184 C4185 1.377 . S
C4184 C4186 1.384 . S
C4185 C4184 1.377 . S
C4185 C4191 1.390 . S
C4186 H4177 0.930 . S
C4186 C4184 1.384 . S
C4186 C4187 1.372 . S
C4187 C4186 1.372 . S
C4187 C4188 1.400 . S
C4187 C4192 1.490 . S
C4188 H4178 0.930 . S
C4188 C4187 1.400 . S
C4188 C4191 1.386 . S
H4189 C4205 0.930 . S
H4190 C4206 0.931 . S
C4191 H4179 0.929 . S
C4191 C4185 1.390 . S
C4191 C4188 1.386 . S
C4192 C4187 1.490 . S
C4192 C4194 1.395 . S
C4192 C4195 1.403 . S
H4193 C4199 0.930 . S
C4194 H4180 0.930 . S
C4194 C4192 1.395 . S
C4194 C4197 1.403 . S
C4195 C4192 1.403 . S
C4195 C4196 1.524 . S
C4195 C4199 1.400 . S
C4196 H4181 0.960 . S
C4196 H4182 0.960 . S
C4196 H4183 0.960 . S
C4196 C4195 1.524 . S
C4197 C4194 1.403 . S
C4197 C4198 1.392 . S
C4197 C4201 1.495 . S
C4198 C4197 1.392 . S
C4198 C4199 1.385 . S
C4198 C4200 1.478 . S
C4199 H4193 0.930 . S
C4199 C4195 1.400 . S
C4199 C4198 1.385 . S
C4200 C4198 1.478 . S
C4200 C4202 1.381 . S
C4200 C4206 1.383 . S
C4201 C4197 1.495 . S
C4201 H4207 0.959 . S
C4201 H4208 0.961 . S
C4201 H4209 0.960 . S
C4202 C4200 1.381 . S
C4202 C4203 1.394 . S
C4202 H4210 0.930 . S
C4203 C4202 1.394 . S
C4203 C4204 1.383 . S
C4203 H4211 0.929 . S
C4204 C4203 1.383 . S
C4204 C4205 1.377 . S
C4205 H4189 0.930 . S
C4205 C4204 1.377 . S
C4205 C4206 1.379 . S
C4206 H4190 0.931 . S
C4206 C4200 1.383 . S
C4206 C4205 1.379 . S
H4207 C4201 0.959 . S
H4208 C4201 0.961 . S
H4209 C4201 0.960 . S
H4210 C4202 0.930 . S
H4211 C4203 0.929 . S
H4212 C4220 0.929 . S
H4213 C4222 0.930 . S
H4214 C4224 0.930 . S
H4215 C4227 0.929 . S
H4216 C4230 0.930 . S
H4217 C4232 0.960 . S
H4218 C4232 0.960 . S
H4219 C4232 0.960 . S
C4220 H4212 0.929 . S
C4220 C4221 1.377 . S
C4220 C4222 1.384 . S
C4221 C4220 1.377 . S
C4221 C4227 1.390 . S
C4222 H4213 0.930 . S
C4222 C4220 1.384 . S
C4222 C4223 1.372 . S
C4223 C4222 1.372 . S
C4223 C4224 1.400 . S
C4223 C4228 1.490 . S
C4224 H4214 0.930 . S
C4224 C4223 1.400 . S
C4224 C4227 1.386 . S
H4225 C4241 0.930 . S
H4226 C4242 0.931 . S
C4227 H4215 0.929 . S
C4227 C4221 1.390 . S
C4227 C4224 1.386 . S
C4228 C4223 1.490 . S
C4228 C4230 1.395 . S
C4228 C4231 1.403 . S
H4229 C4235 0.930 . S
C4230 H4216 0.930 . S
C4230 C4228 1.395 . S
C4230 C4233 1.403 . S
C4231 C4228 1.403 . S
C4231 C4232 1.524 . S
C4231 C4235 1.400 . S
C4232 H4217 0.960 . S
C4232 H4218 0.960 . S
C4232 H4219 0.960 . S
C4232 C4231 1.524 . S
C4233 C4230 1.403 . S
C4233 C4234 1.392 . S
C4233 C4237 1.495 . S
C4234 C4233 1.392 . S
C4234 C4235 1.385 . S
C4234 C4236 1.478 . S
C4235 H4229 0.930 . S
C4235 C4231 1.400 . S
C4235 C4234 1.385 . S
C4236 C4234 1.478 . S
C4236 C4238 1.381 . S
C4236 C4242 1.383 . S
C4237 C4233 1.495 . S
C4237 H4243 0.959 . S
C4237 H4244 0.961 . S
C4237 H4245 0.960 . S
C4238 C4236 1.381 . S
C4238 C4239 1.394 . S
C4238 H4246 0.930 . S
C4239 C4238 1.394 . S
C4239 C4240 1.383 . S
C4239 H4247 0.929 . S
C4240 C4239 1.383 . S
C4240 C4241 1.377 . S
C4241 H4225 0.930 . S
C4241 C4240 1.377 . S
C4241 C4242 1.379 . S
C4242 H4226 0.931 . S
C4242 C4236 1.383 . S
C4242 C4241 1.379 . S
H4243 C4237 0.959 . S
H4244 C4237 0.961 . S
H4245 C4237 0.960 . S
H4246 C4238 0.930 . S
H4247 C4239 0.929 . S
H4248 C4256 0.929 . S
H4249 C4258 0.930 . S
H4250 C4260 0.930 . S
H4251 C4263 0.929 . S
H4252 C4266 0.930 . S
H4253 C4268 0.960 . S
H4254 C4268 0.960 . S
H4255 C4268 0.960 . S
C4256 H4248 0.929 . S
C4256 C4257 1.377 . S
C4256 C4258 1.384 . S
C4257 C4256 1.377 . S
C4257 C4263 1.390 . S
C4258 H4249 0.930 . S
C4258 C4256 1.384 . S
C4258 C4259 1.372 . S
C4259 C4258 1.372 . S
C4259 C4260 1.400 . S
C4259 C4264 1.490 . S
C4260 H4250 0.930 . S
C4260 C4259 1.400 . S
C4260 C4263 1.386 . S
H4261 C4277 0.930 . S
H4262 C4278 0.931 . S
C4263 H4251 0.929 . S
C4263 C4257 1.390 . S
C4263 C4260 1.386 . S
C4264 C4259 1.490 . S
C4264 C4266 1.395 . S
C4264 C4267 1.403 . S
H4265 C4271 0.930 . S
C4266 H4252 0.930 . S
C4266 C4264 1.395 . S
C4266 C4269 1.403 . S
C4267 C4264 1.403 . S
C4267 C4268 1.524 . S
C4267 C4271 1.400 . S
C4268 H4253 0.960 . S
C4268 H4254 0.960 . S
C4268 H4255 0.960 . S
C4268 C4267 1.524 . S
C4269 C4266 1.403 . S
C4269 C4270 1.392 . S
C4269 C4273 1.495 . S
C4270 C4269 1.392 . S
C4270 C4271 1.385 . S
C4270 C4272 1.478 . S
C4271 H4265 0.930 . S
C4271 C4267 1.400 . S
C4271 C4270 1.385 . S
C4272 C4270 1.478 . S
C4272 C4274 1.381 . S
C4272 C4278 1.383 . S
C4273 C4269 1.495 . S
C4273 H4279 0.959 . S
C4273 H4280 0.961 . S
C4273 H4281 0.960 . S
C4274 C4272 1.381 . S
C4274 C4275 1.394 . S
C4274 H4282 0.930 . S
C4275 C4274 1.394 . S
C4275 C4276 1.383 . S
C4275 H4283 0.929 . S
C4276 C4275 1.383 . S
C4276 C4277 1.377 . S
C4277 H4261 0.930 . S
C4277 C4276 1.377 . S
C4277 C4278 1.379 . S
C4278 H4262 0.931 . S
C4278 C4272 1.383 . S
C4278 C4277 1.379 . S
H4279 C4273 0.959 . S
H4280 C4273 0.961 . S
H4281 C4273 0.960 . S
H4282 C4274 0.930 . S
H4283 C4275 0.929 . S
H4284 C4292 0.929 . S
H4285 C4294 0.930 . S
H4286 C4296 0.930 . S
H4287 C4299 0.929 . S
H4288 C4302 0.930 . S
H4289 C4304 0.960 . S
H4290 C4304 0.960 . S
H4291 C4304 0.960 . S
C4292 H4284 0.929 . S
C4292 C4293 1.377 . S
C4292 C4294 1.384 . S
C4293 C4292 1.377 . S
C4293 C4299 1.390 . S
C4294 H4285 0.930 . S
C4294 C4292 1.384 . S
C4294 C4295 1.372 . S
C4295 C4294 1.372 . S
C4295 C4296 1.400 . S
C4295 C4300 1.490 . S
C4296 H4286 0.930 . S
C4296 C4295 1.400 . S
C4296 C4299 1.386 . S
H4297 C4313 0.930 . S
H4298 C4314 0.931 . S
C4299 H4287 0.929 . S
C4299 C4293 1.390 . S
C4299 C4296 1.386 . S
C4300 C4295 1.490 . S
C4300 C4302 1.395 . S
C4300 C4303 1.403 . S
H4301 C4307 0.930 . S
C4302 H4288 0.930 . S
C4302 C4300 1.395 . S
C4302 C4305 1.403 . S
C4303 C4300 1.403 . S
C4303 C4304 1.524 . S
C4303 C4307 1.400 . S
C4304 H4289 0.960 . S
C4304 H4290 0.960 . S
C4304 H4291 0.960 . S
C4304 C4303 1.524 . S
C4305 C4302 1.403 . S
C4305 C4306 1.392 . S
C4305 C4309 1.495 . S
C4306 C4305 1.392 . S
C4306 C4307 1.385 . S
C4306 C4308 1.478 . S
C4307 H4301 0.930 . S
C4307 C4303 1.400 . S
C4307 C4306 1.385 . S
C4308 C4306 1.478 . S
C4308 C4310 1.381 . S
C4308 C4314 1.383 . S
C4309 C4305 1.495 . S
C4309 H4315 0.959 . S
C4309 H4316 0.961 . S
C4309 H4317 0.960 . S
C4310 C4308 1.381 . S
C4310 C4311 1.394 . S
C4310 H4318 0.930 . S
C4311 C4310 1.394 . S
C4311 C4312 1.383 . S
C4311 H4319 0.929 . S
C4312 C4311 1.383 . S
C4312 C4313 1.377 . S
C4313 H4297 0.930 . S
C4313 C4312 1.377 . S
C4313 C4314 1.379 . S
C4314 H4298 0.931 . S
C4314 C4308 1.383 . S
C4314 C4313 1.379 . S
H4315 C4309 0.959 . S
H4316 C4309 0.961 . S
H4317 C4309 0.960 . S
H4318 C4310 0.930 . S
H4319 C4311 0.929 . S
H4320 C4328 0.929 . S
H4321 C4330 0.930 . S
H4322 C4332 0.930 . S
H4323 C4335 0.929 . S
H4324 C4338 0.930 . S
H4325 C4340 0.960 . S
H4326 C4340 0.960 . S
H4327 C4340 0.960 . S
C4328 H4320 0.929 . S
C4328 C4329 1.377 . S
C4328 C4330 1.384 . S
C4329 C4328 1.377 . S
C4329 C4335 1.390 . S
C4330 H4321 0.930 . S
C4330 C4328 1.384 . S
C4330 C4331 1.372 . S
C4331 C4330 1.372 . S
C4331 C4332 1.400 . S
C4331 C4336 1.490 . S
C4332 H4322 0.930 . S
C4332 C4331 1.400 . S
C4332 C4335 1.386 . S
H4333 C4349 0.930 . S
H4334 C4350 0.931 . S
C4335 H4323 0.929 . S
C4335 C4329 1.390 . S
C4335 C4332 1.386 . S
C4336 C4331 1.490 . S
C4336 C4338 1.395 . S
C4336 C4339 1.403 . S
H4337 C4343 0.930 . S
C4338 H4324 0.930 . S
C4338 C4336 1.395 . S
C4338 C4341 1.403 . S
C4339 C4336 1.403 . S
C4339 C4340 1.524 . S
C4339 C4343 1.400 . S
C4340 H4325 0.960 . S
C4340 H4326 0.960 . S
C4340 H4327 0.960 . S
C4340 C4339 1.524 . S
C4341 C4338 1.403 . S
C4341 C4342 1.392 . S
C4341 C4345 1.495 . S
C4342 C4341 1.392 . S
C4342 C4343 1.385 . S
C4342 C4344 1.478 . S
C4343 H4337 0.930 . S
C4343 C4339 1.400 . S
C4343 C4342 1.385 . S
C4344 C4342 1.478 . S
C4344 C4346 1.381 . S
C4344 C4350 1.383 . S
C4345 C4341 1.495 . S
C4345 H4351 0.959 . S
C4345 H4352 0.961 . S
C4345 H4353 0.960 . S
C4346 C4344 1.381 . S
C4346 C4347 1.394 . S
C4346 H4354 0.930 . S
C4347 C4346 1.394 . S
C4347 C4348 1.383 . S
C4347 H4355 0.929 . S
C4348 C4347 1.383 . S
C4348 C4349 1.377 . S
C4349 H4333 0.930 . S
C4349 C4348 1.377 . S
C4349 C4350 1.379 . S
C4350 H4334 0.931 . S
C4350 C4344 1.383 . S
C4350 C4349 1.379 . S
H4351 C4345 0.959 . S
H4352 C4345 0.961 . S
H4353 C4345 0.960 . S
H4354 C4346 0.930 . S
H4355 C4347 0.929 . S
H4356 C4364 0.929 . S
H4357 C4366 0.930 . S
H4358 C4368 0.930 . S
H4359 C4371 0.929 . S
H4360 C4374 0.930 . S
H4361 C4376 0.960 . S
H4362 C4376 0.960 . S
H4363 C4376 0.960 . S
C4364 H4356 0.929 . S
C4364 C4365 1.377 . S
C4364 C4366 1.384 . S
C4365 C4364 1.377 . S
C4365 C4371 1.390 . S
C4366 H4357 0.930 . S
C4366 C4364 1.384 . S
C4366 C4367 1.372 . S
C4367 C4366 1.372 . S
C4367 C4368 1.400 . S
C4367 C4372 1.490 . S
C4368 H4358 0.930 . S
C4368 C4367 1.400 . S
C4368 C4371 1.386 . S
H4369 C4385 0.930 . S
H4370 C4386 0.931 . S
C4371 H4359 0.929 . S
C4371 C4365 1.390 . S
C4371 C4368 1.386 . S
C4372 C4367 1.490 . S
C4372 C4374 1.395 . S
C4372 C4375 1.403 . S
H4373 C4379 0.930 . S
C4374 H4360 0.930 . S
C4374 C4372 1.395 . S
C4374 C4377 1.403 . S
C4375 C4372 1.403 . S
C4375 C4376 1.524 . S
C4375 C4379 1.400 . S
C4376 H4361 0.960 . S
C4376 H4362 0.960 . S
C4376 H4363 0.960 . S
C4376 C4375 1.524 . S
C4377 C4374 1.403 . S
C4377 C4378 1.392 . S
C4377 C4381 1.495 . S
C4378 C4377 1.392 . S
C4378 C4379 1.385 . S
C4378 C4380 1.478 . S
C4379 H4373 0.930 . S
C4379 C4375 1.400 . S
C4379 C4378 1.385 . S
C4380 C4378 1.478 . S
C4380 C4382 1.381 . S
C4380 C4386 1.383 . S
C4381 C4377 1.495 . S
C4381 H4387 0.959 . S
C4381 H4388 0.961 . S
C4381 H4389 0.960 . S
C4382 C4380 1.381 . S
C4382 C4383 1.394 . S
C4382 H4390 0.930 . S
C4383 C4382 1.394 . S
C4383 C4384 1.383 . S
C4383 H4391 0.929 . S
C4384 C4383 1.383 . S
C4384 C4385 1.377 . S
C4385 H4369 0.930 . S
C4385 C4384 1.377 . S
C4385 C4386 1.379 . S
C4386 H4370 0.931 . S
C4386 C4380 1.383 . S
C4386 C4385 1.379 . S
H4387 C4381 0.959 . S
H4388 C4381 0.961 . S
H4389 C4381 0.960 . S
H4390 C4382 0.930 . S
H4391 C4383 0.929 . S
H4392 C4400 0.929 . S
H4393 C4402 0.930 . S
H4394 C4404 0.930 . S
H4395 C4407 0.929 . S
H4396 C4410 0.930 . S
H4397 C4412 0.960 . S
H4398 C4412 0.960 . S
H4399 C4412 0.960 . S
C4400 H4392 0.929 . S
C4400 C4401 1.377 . S
C4400 C4402 1.384 . S
C4401 C4400 1.377 . S
C4401 C4407 1.390 . S
C4402 H4393 0.930 . S
C4402 C4400 1.384 . S
C4402 C4403 1.372 . S
C4403 C4402 1.372 . S
C4403 C4404 1.400 . S
C4403 C4408 1.490 . S
C4404 H4394 0.930 . S
C4404 C4403 1.400 . S
C4404 C4407 1.386 . S
H4405 C4421 0.930 . S
H4406 C4422 0.931 . S
C4407 H4395 0.929 . S
C4407 C4401 1.390 . S
C4407 C4404 1.386 . S
C4408 C4403 1.490 . S
C4408 C4410 1.395 . S
C4408 C4411 1.403 . S
H4409 C4415 0.930 . S
C4410 H4396 0.930 . S
C4410 C4408 1.395 . S
C4410 C4413 1.403 . S
C4411 C4408 1.403 . S
C4411 C4412 1.524 . S
C4411 C4415 1.400 . S
C4412 H4397 0.960 . S
C4412 H4398 0.960 . S
C4412 H4399 0.960 . S
C4412 C4411 1.524 . S
C4413 C4410 1.403 . S
C4413 C4414 1.392 . S
C4413 C4417 1.495 . S
C4414 C4413 1.392 . S
C4414 C4415 1.385 . S
C4414 C4416 1.478 . S
C4415 H4409 0.930 . S
C4415 C4411 1.400 . S
C4415 C4414 1.385 . S
C4416 C4414 1.478 . S
C4416 C4418 1.381 . S
C4416 C4422 1.383 . S
C4417 C4413 1.495 . S
C4417 H4423 0.959 . S
C4417 H4424 0.961 . S
C4417 H4425 0.960 . S
C4418 C4416 1.381 . S
C4418 C4419 1.394 . S
C4418 H4426 0.930 . S
C4419 C4418 1.394 . S
C4419 C4420 1.383 . S
C4419 H4427 0.929 . S
C4420 C4419 1.383 . S
C4420 C4421 1.377 . S
C4421 H4405 0.930 . S
C4421 C4420 1.377 . S
C4421 C4422 1.379 . S
C4422 H4406 0.931 . S
C4422 C4416 1.383 . S
C4422 C4421 1.379 . S
H4423 C4417 0.959 . S
H4424 C4417 0.961 . S
H4425 C4417 0.960 . S
H4426 C4418 0.930 . S
H4427 C4419 0.929 . S
H4428 C4436 0.929 . S
H4429 C4438 0.930 . S
H4430 C4440 0.930 . S
H4431 C4443 0.929 . S
H4432 C4446 0.930 . S
H4433 C4448 0.960 . S
H4434 C4448 0.960 . S
H4435 C4448 0.960 . S
C4436 H4428 0.929 . S
C4436 C4437 1.377 . S
C4436 C4438 1.384 . S
C4437 C4436 1.377 . S
C4437 C4443 1.390 . S
C4438 H4429 0.930 . S
C4438 C4436 1.384 . S
C4438 C4439 1.372 . S
C4439 C4438 1.372 . S
C4439 C4440 1.400 . S
C4439 C4444 1.490 . S
C4440 H4430 0.930 . S
C4440 C4439 1.400 . S
C4440 C4443 1.386 . S
H4441 C4457 0.930 . S
H4442 C4458 0.931 . S
C4443 H4431 0.929 . S
C4443 C4437 1.390 . S
C4443 C4440 1.386 . S
C4444 C4439 1.490 . S
C4444 C4446 1.395 . S
C4444 C4447 1.403 . S
H4445 C4451 0.930 . S
C4446 H4432 0.930 . S
C4446 C4444 1.395 . S
C4446 C4449 1.403 . S
C4447 C4444 1.403 . S
C4447 C4448 1.524 . S
C4447 C4451 1.400 . S
C4448 H4433 0.960 . S
C4448 H4434 0.960 . S
C4448 H4435 0.960 . S
C4448 C4447 1.524 . S
C4449 C4446 1.403 . S
C4449 C4450 1.392 . S
C4449 C4453 1.495 . S
C4450 C4449 1.392 . S
C4450 C4451 1.385 . S
C4450 C4452 1.478 . S
C4451 H4445 0.930 . S
C4451 C4447 1.400 . S
C4451 C4450 1.385 . S
C4452 C4450 1.478 . S
C4452 C4454 1.381 . S
C4452 C4458 1.383 . S
C4453 C4449 1.495 . S
C4453 H4459 0.959 . S
C4453 H4460 0.961 . S
C4453 H4461 0.960 . S
C4454 C4452 1.381 . S
C4454 C4455 1.394 . S
C4454 H4462 0.930 . S
C4455 C4454 1.394 . S
C4455 C4456 1.383 . S
C4455 H4463 0.929 . S
C4456 C4455 1.383 . S
C4456 C4457 1.377 . S
C4457 H4441 0.930 . S
C4457 C4456 1.377 . S
C4457 C4458 1.379 . S
C4458 H4442 0.931 . S
C4458 C4452 1.383 . S
C4458 C4457 1.379 . S
H4459 C4453 0.959 . S
H4460 C4453 0.961 . S
H4461 C4453 0.960 . S
H4462 C4454 0.930 . S
H4463 C4455 0.929 . S
H4464 C4472 0.929 . S
H4465 C4474 0.930 . S
H4466 C4476 0.930 . S
H4467 C4479 0.929 . S
H4468 C4482 0.930 . S
H4469 C4484 0.960 . S
H4470 C4484 0.960 . S
H4471 C4484 0.960 . S
C4472 H4464 0.929 . S
C4472 C4473 1.377 . S
C4472 C4474 1.384 . S
C4473 C4472 1.377 . S
C4473 C4479 1.390 . S
C4474 H4465 0.930 . S
C4474 C4472 1.384 . S
C4474 C4475 1.372 . S
C4475 C4474 1.372 . S
C4475 C4476 1.400 . S
C4475 C4480 1.490 . S
C4476 H4466 0.930 . S
C4476 C4475 1.400 . S
C4476 C4479 1.386 . S
H4477 C4493 0.930 . S
H4478 C4494 0.931 . S
C4479 H4467 0.929 . S
C4479 C4473 1.390 . S
C4479 C4476 1.386 . S
C4480 C4475 1.490 . S
C4480 C4482 1.395 . S
C4480 C4483 1.403 . S
H4481 C4487 0.930 . S
C4482 H4468 0.930 . S
C4482 C4480 1.395 . S
C4482 C4485 1.403 . S
C4483 C4480 1.403 . S
C4483 C4484 1.524 . S
C4483 C4487 1.400 . S
C4484 H4469 0.960 . S
C4484 H4470 0.960 . S
C4484 H4471 0.960 . S
C4484 C4483 1.524 . S
C4485 C4482 1.403 . S
C4485 C4486 1.392 . S
C4485 C4489 1.495 . S
C4486 C4485 1.392 . S
C4486 C4487 1.385 . S
C4486 C4488 1.478 . S
C4487 H4481 0.930 . S
C4487 C4483 1.400 . S
C4487 C4486 1.385 . S
C4488 C4486 1.478 . S
C4488 C4490 1.381 . S
C4488 C4494 1.383 . S
C4489 C4485 1.495 . S
C4489 H4495 0.959 . S
C4489 H4496 0.961 . S
C4489 H4497 0.960 . S
C4490 C4488 1.381 . S
C4490 C4491 1.394 . S
C4490 H4498 0.930 . S
C4491 C4490 1.394 . S
C4491 C4492 1.383 . S
C4491 H4499 0.929 . S
C4492 C4491 1.383 . S
C4492 C4493 1.377 . S
C4493 H4477 0.930 . S
C4493 C4492 1.377 . S
C4493 C4494 1.379 . S
C4494 H4478 0.931 . S
C4494 C4488 1.383 . S
C4494 C4493 1.379 . S
H4495 C4489 0.959 . S
H4496 C4489 0.961 . S
H4497 C4489 0.960 . S
H4498 C4490 0.930 . S
H4499 C4491 0.929 . S
H4500 C4508 0.929 . S
H4501 C4510 0.930 . S
H4502 C4512 0.930 . S
H4503 C4515 0.929 . S
H4504 C4518 0.930 . S
H4505 C4520 0.960 . S
H4506 C4520 0.960 . S
H4507 C4520 0.960 . S
C4508 H4500 0.929 . S
C4508 C4509 1.377 . S
C4508 C4510 1.384 . S
C4509 C4508 1.377 . S
C4509 C4515 1.390 . S
C4510 H4501 0.930 . S
C4510 C4508 1.384 . S
C4510 C4511 1.372 . S
C4511 C4510 1.372 . S
C4511 C4512 1.400 . S
C4511 C4516 1.490 . S
C4512 H4502 0.930 . S
C4512 C4511 1.400 . S
C4512 C4515 1.386 . S
H4513 C4529 0.930 . S
H4514 C4530 0.931 . S
C4515 H4503 0.929 . S
C4515 C4509 1.390 . S
C4515 C4512 1.386 . S
C4516 C4511 1.490 . S
C4516 C4518 1.395 . S
C4516 C4519 1.403 . S
H4517 C4523 0.930 . S
C4518 H4504 0.930 . S
C4518 C4516 1.395 . S
C4518 C4521 1.403 . S
C4519 C4516 1.403 . S
C4519 C4520 1.524 . S
C4519 C4523 1.400 . S
C4520 H4505 0.960 . S
C4520 H4506 0.960 . S
C4520 H4507 0.960 . S
C4520 C4519 1.524 . S
C4521 C4518 1.403 . S
C4521 C4522 1.392 . S
C4521 C4525 1.495 . S
C4522 C4521 1.392 . S
C4522 C4523 1.385 . S
C4522 C4524 1.478 . S
C4523 H4517 0.930 . S
C4523 C4519 1.400 . S
C4523 C4522 1.385 . S
C4524 C4522 1.478 . S
C4524 C4526 1.381 . S
C4524 C4530 1.383 . S
C4525 C4521 1.495 . S
C4525 H4531 0.959 . S
C4525 H4532 0.961 . S
C4525 H4533 0.960 . S
C4526 C4524 1.381 . S
C4526 C4527 1.394 . S
C4526 H4534 0.930 . S
C4527 C4526 1.394 . S
C4527 C4528 1.383 . S
C4527 H4535 0.929 . S
C4528 C4527 1.383 . S
C4528 C4529 1.377 . S
C4529 H4513 0.930 . S
C4529 C4528 1.377 . S
C4529 C4530 1.379 . S
C4530 H4514 0.931 . S
C4530 C4524 1.383 . S
C4530 C4529 1.379 . S
H4531 C4525 0.959 . S
H4532 C4525 0.961 . S
H4533 C4525 0.960 . S
H4534 C4526 0.930 . S
H4535 C4527 0.929 . S
H4536 C4544 0.929 . S
H4537 C4546 0.930 . S
H4538 C4548 0.930 . S
H4539 C4551 0.929 . S
H4540 C4554 0.930 . S
H4541 C4556 0.960 . S
H4542 C4556 0.960 . S
H4543 C4556 0.960 . S
C4544 H4536 0.929 . S
C4544 C4545 1.377 . S
C4544 C4546 1.384 . S
C4545 C4544 1.377 . S
C4545 C4551 1.390 . S
C4546 H4537 0.930 . S
C4546 C4544 1.384 . S
C4546 C4547 1.372 . S
C4547 C4546 1.372 . S
C4547 C4548 1.400 . S
C4547 C4552 1.490 . S
C4548 H4538 0.930 . S
C4548 C4547 1.400 . S
C4548 C4551 1.386 . S
H4549 C4565 0.930 . S
H4550 C4566 0.931 . S
C4551 H4539 0.929 . S
C4551 C4545 1.390 . S
C4551 C4548 1.386 . S
C4552 C4547 1.490 . S
C4552 C4554 1.395 . S
C4552 C4555 1.403 . S
H4553 C4559 0.930 . S
C4554 H4540 0.930 . S
C4554 C4552 1.395 . S
C4554 C4557 1.403 . S
C4555 C4552 1.403 . S
C4555 C4556 1.524 . S
C4555 C4559 1.400 . S
C4556 H4541 0.960 . S
C4556 H4542 0.960 . S
C4556 H4543 0.960 . S
C4556 C4555 1.524 . S
C4557 C4554 1.403 . S
C4557 C4558 1.392 . S
C4557 C4561 1.495 . S
C4558 C4557 1.392 . S
C4558 C4559 1.385 . S
C4558 C4560 1.478 . S
C4559 H4553 0.930 . S
C4559 C4555 1.400 . S
C4559 C4558 1.385 . S
C4560 C4558 1.478 . S
C4560 C4562 1.381 . S
C4560 C4566 1.383 . S
C4561 C4557 1.495 . S
C4561 H4567 0.959 . S
C4561 H4568 0.961 . S
C4561 H4569 0.960 . S
C4562 C4560 1.381 . S
C4562 C4563 1.394 . S
C4562 H4570 0.930 . S
C4563 C4562 1.394 . S
C4563 C4564 1.383 . S
C4563 H4571 0.929 . S
C4564 C4563 1.383 . S
C4564 C4565 1.377 . S
C4565 H4549 0.930 . S
C4565 C4564 1.377 . S
C4565 C4566 1.379 . S
C4566 H4550 0.931 . S
C4566 C4560 1.383 . S
C4566 C4565 1.379 . S
H4567 C4561 0.959 . S
H4568 C4561 0.961 . S
H4569 C4561 0.960 . S
H4570 C4562 0.930 . S
H4571 C4563 0.929 . S
H4572 C4580 0.929 . S
H4573 C4582 0.930 . S
H4574 C4584 0.930 . S
H4575 C4587 0.929 . S
H4576 C4590 0.930 . S
H4577 C4592 0.960 . S
H4578 C4592 0.960 . S
H4579 C4592 0.960 . S
C4580 H4572 0.929 . S
C4580 C4581 1.377 . S
C4580 C4582 1.384 . S
C4581 C4580 1.377 . S
C4581 C4587 1.390 . S
C4582 H4573 0.930 . S
C4582 C4580 1.384 . S
C4582 C4583 1.372 . S
C4583 C4582 1.372 . S
C4583 C4584 1.400 . S
C4583 C4588 1.490 . S
C4584 H4574 0.930 . S
C4584 C4583 1.400 . S
C4584 C4587 1.386 . S
H4585 C4601 0.930 . S
H4586 C4602 0.931 . S
C4587 H4575 0.929 . S
C4587 C4581 1.390 . S
C4587 C4584 1.386 . S
C4588 C4583 1.490 . S
C4588 C4590 1.395 . S
C4588 C4591 1.403 . S
H4589 C4595 0.930 . S
C4590 H4576 0.930 . S
C4590 C4588 1.395 . S
C4590 C4593 1.403 . S
C4591 C4588 1.403 . S
C4591 C4592 1.524 . S
C4591 C4595 1.400 1_455 S
C4592 H4577 0.960 . S
C4592 H4578 0.960 . S
C4592 H4579 0.960 . S
C4592 C4591 1.524 . S
C4593 C4590 1.403 . S
C4593 C4594 1.392 1_455 S
C4593 C4597 1.495 . S
C4594 C4593 1.392 1_655 S
C4594 C4595 1.385 . S
C4594 C4596 1.478 . S
C4595 H4589 0.930 . S
C4595 C4591 1.400 1_655 S
C4595 C4594 1.385 . S
C4596 C4594 1.478 . S
C4596 C4598 1.381 . S
C4596 C4602 1.383 . S
C4597 C4593 1.495 . S
C4597 H4603 0.959 . S
C4597 H4604 0.961 . S
C4597 H4605 0.960 . S
C4598 C4596 1.381 . S
C4598 C4599 1.394 . S
C4598 H4606 0.930 . S
C4599 C4598 1.394 . S
C4599 C4600 1.383 . S
C4599 H4607 0.929 . S
C4600 C4599 1.383 . S
C4600 C4601 1.377 . S
C4601 H4585 0.930 . S
C4601 C4600 1.377 . S
C4601 C4602 1.379 . S
C4602 H4586 0.931 . S
C4602 C4596 1.383 . S
C4602 C4601 1.379 . S
H4603 C4597 0.959 . S
H4604 C4597 0.961 . S
H4605 C4597 0.960 . S
H4606 C4598 0.930 . S
H4607 C4599 0.929 . S
H4608 C4616 0.929 . S
H4609 C4618 0.930 . S
H4610 C4620 0.930 . S
H4611 C4623 0.929 . S
H4612 C4626 0.930 . S
H4613 C4628 0.960 . S
H4614 C4628 0.960 . S
H4615 C4628 0.960 . S
C4616 H4608 0.929 . S
C4616 C4617 1.377 . S
C4616 C4618 1.384 . S
C4617 C4616 1.377 . S
C4617 C4623 1.390 . S
C4618 H4609 0.930 . S
C4618 C4616 1.384 . S
C4618 C4619 1.372 . S
C4619 C4618 1.372 . S
C4619 C4620 1.400 . S
C4619 C4624 1.490 . S
C4620 H4610 0.930 . S
C4620 C4619 1.400 . S
C4620 C4623 1.386 . S
H4621 C4637 0.930 . S
H4622 C4638 0.931 . S
C4623 H4611 0.929 . S
C4623 C4617 1.390 . S
C4623 C4620 1.386 . S
C4624 C4619 1.490 . S
C4624 C4626 1.395 . S
C4624 C4627 1.403 . S
H4625 C4631 0.930 . S
C4626 H4612 0.930 . S
C4626 C4624 1.395 . S
C4626 C4629 1.403 . S
C4627 C4624 1.403 . S
C4627 C4628 1.524 . S
C4627 C4631 1.400 . S
C4628 H4613 0.960 . S
C4628 H4614 0.960 . S
C4628 H4615 0.960 . S
C4628 C4627 1.524 . S
C4629 C4626 1.403 . S
C4629 C4630 1.392 . S
C4629 C4633 1.495 . S
C4630 C4629 1.392 . S
C4630 C4631 1.385 . S
C4630 C4632 1.478 . S
C4631 H4625 0.930 . S
C4631 C4627 1.400 . S
C4631 C4630 1.385 . S
C4632 C4630 1.478 . S
C4632 C4634 1.381 . S
C4632 C4638 1.383 . S
C4633 C4629 1.495 . S
C4633 H4639 0.959 . S
C4633 H4640 0.961 . S
C4633 H4641 0.960 . S
C4634 C4632 1.381 . S
C4634 C4635 1.394 . S
C4634 H4642 0.930 . S
C4635 C4634 1.394 . S
C4635 C4636 1.383 . S
C4635 H4643 0.929 . S
C4636 C4635 1.383 . S
C4636 C4637 1.377 . S
C4637 H4621 0.930 . S
C4637 C4636 1.377 . S
C4637 C4638 1.379 . S
C4638 H4622 0.931 . S
C4638 C4632 1.383 . S
C4638 C4637 1.379 . S
H4639 C4633 0.959 . S
H4640 C4633 0.961 . S
H4641 C4633 0.960 . S
H4642 C4634 0.930 . S
H4643 C4635 0.929 . S
H4644 C4652 0.929 . S
H4645 C4654 0.930 . S
H4646 C4656 0.930 . S
H4647 C4659 0.929 . S
H4648 C4662 0.930 . S
H4649 C4664 0.960 . S
H4650 C4664 0.960 . S
H4651 C4664 0.960 . S
C4652 H4644 0.929 . S
C4652 C4653 1.377 . S
C4652 C4654 1.384 . S
C4653 C4652 1.377 . S
C4653 C4659 1.390 . S
C4654 H4645 0.930 . S
C4654 C4652 1.384 . S
C4654 C4655 1.372 . S
C4655 C4654 1.372 . S
C4655 C4656 1.400 . S
C4655 C4660 1.490 . S
C4656 H4646 0.930 . S
C4656 C4655 1.400 . S
C4656 C4659 1.386 . S
H4657 C4673 0.930 . S
H4658 C4674 0.931 . S
C4659 H4647 0.929 . S
C4659 C4653 1.390 . S
C4659 C4656 1.386 . S
C4660 C4655 1.490 . S
C4660 C4662 1.395 . S
C4660 C4663 1.403 . S
H4661 C4667 0.930 . S
C4662 H4648 0.930 . S
C4662 C4660 1.395 . S
C4662 C4665 1.403 . S
C4663 C4660 1.403 . S
C4663 C4664 1.524 . S
C4663 C4667 1.400 . S
C4664 H4649 0.960 . S
C4664 H4650 0.960 . S
C4664 H4651 0.960 . S
C4664 C4663 1.524 . S
C4665 C4662 1.403 . S
C4665 C4666 1.392 . S
C4665 C4669 1.495 . S
C4666 C4665 1.392 . S
C4666 C4667 1.385 . S
C4666 C4668 1.478 1_545 S
C4667 H4661 0.930 . S
C4667 C4663 1.400 . S
C4667 C4666 1.385 . S
C4668 C4666 1.478 1_565 S
C4668 C4670 1.381 . S
C4668 C4674 1.383 . S
C4669 C4665 1.495 . S
C4669 H4675 0.959 . S
C4669 H4676 0.961 . S
C4669 H4677 0.960 1_545 S
C4670 C4668 1.381 . S
C4670 C4671 1.394 . S
C4670 H4678 0.930 . S
C4671 C4670 1.394 . S
C4671 C4672 1.383 . S
C4671 H4679 0.929 . S
C4672 C4671 1.383 . S
C4672 C4673 1.377 . S
C4673 H4657 0.930 . S
C4673 C4672 1.377 . S
C4673 C4674 1.379 . S
C4674 H4658 0.931 . S
C4674 C4668 1.383 . S
C4674 C4673 1.379 . S
H4675 C4669 0.959 . S
H4676 C4669 0.961 . S
H4677 C4669 0.960 1_565 S
H4678 C4670 0.930 . S
H4679 C4671 0.929 . S
H4680 C4688 0.929 . S
H4681 C4690 0.930 . S
H4682 C4692 0.930 . S
H4683 C4695 0.929 . S
H4684 C4698 0.930 . S
H4685 C4700 0.928 1_545 S
H4686 C4700 0.960 . S
H4687 C4700 0.960 . S
C4688 H4680 0.929 . S
C4688 C4689 1.377 . S
C4688 C4690 1.384 . S
C4689 C4688 1.377 . S
C4689 C4695 1.390 . S
C4690 H4681 0.930 . S
C4690 C4688 1.384 . S
C4690 C4691 1.372 . S
C4691 C4690 1.372 . S
C4691 C4692 1.400 . S
C4691 C4696 1.490 1_565 S
C4692 H4682 0.930 . S
C4692 C4691 1.400 . S
C4692 C4695 1.386 . S
H4693 C4709 0.930 . S
H4694 C4710 0.931 . S
C4695 H4683 0.929 . S
C4695 C4689 1.390 . S
C4695 C4692 1.386 . S
C4696 C4691 1.490 1_545 S
C4696 C4698 1.395 . S
C4696 C4699 1.403 . S
H4697 C4703 0.930 . S
C4698 H4684 0.930 . S
C4698 C4696 1.395 . S
C4698 C4701 1.403 . S
C4699 C4696 1.403 . S
C4699 C4700 1.524 1_545 S
C4699 C4703 1.400 . S
C4700 H4685 0.928 1_565 S
C4700 H4686 0.960 . S
C4700 H4687 0.960 . S
C4700 C4699 1.524 1_565 S
C4701 C4698 1.403 . S
C4701 C4702 1.392 . S
C4701 C4705 1.495 . S
C4702 C4701 1.392 . S
C4702 C4703 1.385 . S
C4702 C4704 1.478 . S
C4703 H4697 0.930 . S
C4703 C4699 1.400 . S
C4703 C4702 1.385 . S
C4704 C4702 1.478 . S
C4704 C4706 1.381 . S
C4704 C4710 1.383 . S
C4705 C4701 1.495 . S
C4705 H4711 0.959 . S
C4705 H4712 0.961 . S
C4705 H4713 0.960 . S
C4706 C4704 1.381 . S
C4706 C4707 1.394 . S
C4706 H4714 0.930 . S
C4707 C4706 1.394 . S
C4707 C4708 1.383 . S
C4707 H4715 0.929 . S
C4708 C4707 1.383 . S
C4708 C4709 1.377 . S
C4709 H4693 0.930 . S
C4709 C4708 1.377 . S
C4709 C4710 1.379 . S
C4710 H4694 0.931 . S
C4710 C4704 1.383 . S
C4710 C4709 1.379 . S
H4711 C4705 0.959 . S
H4712 C4705 0.961 . S
H4713 C4705 0.960 . S
H4714 C4706 0.930 . S
H4715 C4707 0.929 . S
H4716 C4724 0.929 . S
H4717 C4726 0.930 . S
H4718 C4728 0.930 . S
H4719 C4731 0.929 . S
H4720 C4734 0.930 . S
H4721 C4736 0.960 . S
H4722 C4736 0.960 . S
H4723 C4736 0.960 . S
C4724 H4716 0.929 . S
C4724 C4725 1.377 . S
C4724 C4726 1.384 . S
C4725 C4724 1.377 . S
C4725 C4731 1.390 . S
C4726 H4717 0.930 . S
C4726 C4724 1.384 . S
C4726 C4727 1.372 . S
C4727 C4726 1.372 . S
C4727 C4728 1.400 . S
C4727 C4732 1.490 . S
C4728 H4718 0.930 . S
C4728 C4727 1.400 . S
C4728 C4731 1.386 . S
H4729 C4745 0.930 . S
H4730 C4746 0.931 . S
C4731 H4719 0.929 . S
C4731 C4725 1.390 . S
C4731 C4728 1.386 . S
C4732 C4727 1.490 . S
C4732 C4734 1.395 . S
C4732 C4735 1.403 . S
H4733 C4739 0.930 . S
C4734 H4720 0.930 . S
C4734 C4732 1.395 . S
C4734 C4737 1.403 . S
C4735 C4732 1.403 . S
C4735 C4736 1.524 . S
C4735 C4739 1.400 1_455 S
C4736 H4721 0.960 . S
C4736 H4722 0.960 . S
C4736 H4723 0.960 . S
C4736 C4735 1.524 . S
C4737 C4734 1.403 . S
C4737 C4738 1.392 1_455 S
C4737 C4741 1.495 . S
C4738 C4737 1.392 1_655 S
C4738 C4739 1.385 . S
C4738 C4740 1.478 . S
C4739 H4733 0.930 . S
C4739 C4735 1.400 1_655 S
C4739 C4738 1.385 . S
C4740 C4738 1.478 . S
C4740 C4742 1.381 . S
C4740 C4746 1.383 . S
C4741 C4737 1.495 . S
C4741 H4747 0.959 . S
C4741 H4748 0.961 . S
C4741 H4749 0.960 . S
C4742 C4740 1.381 . S
C4742 C4743 1.394 . S
C4742 H4750 0.930 . S
C4743 C4742 1.394 . S
C4743 C4744 1.383 . S
C4743 H4751 0.929 . S
C4744 C4743 1.383 . S
C4744 C4745 1.377 . S
C4745 H4729 0.930 . S
C4745 C4744 1.377 . S
C4745 C4746 1.379 . S
C4746 H4730 0.931 . S
C4746 C4740 1.383 . S
C4746 C4745 1.379 . S
H4747 C4741 0.959 . S
H4748 C4741 0.961 . S
H4749 C4741 0.960 . S
H4750 C4742 0.930 . S
H4751 C4743 0.929 . S
H4752 C4760 0.921 1_455 S
H4753 C4762 0.930 . S
H4754 C4764 0.930 . S
H4755 C4767 0.929 . S
H4756 C4770 0.930 . S
H4757 C4772 0.960 . S
H4758 C4772 0.960 . S
H4759 C4772 0.960 . S
C4760 H4752 0.921 1_655 S
C4760 C4761 1.377 . S
C4760 C4762 1.384 . S
C4761 C4760 1.377 . S
C4761 C4767 1.390 . S
C4762 H4753 0.930 . S
C4762 C4760 1.384 . S
C4762 C4763 1.372 . S
C4763 C4762 1.372 . S
C4763 C4764 1.400 . S
C4763 C4768 1.490 . S
C4764 H4754 0.930 . S
C4764 C4763 1.400 . S
C4764 C4767 1.386 . S
H4765 C4781 0.930 . S
H4766 C4782 0.931 . S
C4767 H4755 0.929 . S
C4767 C4761 1.390 . S
C4767 C4764 1.386 . S
C4768 C4763 1.490 . S
C4768 C4770 1.395 . S
C4768 C4771 1.403 . S
H4769 C4775 0.930 . S
C4770 H4756 0.930 . S
C4770 C4768 1.395 . S
C4770 C4773 1.403 . S
C4771 C4768 1.403 . S
C4771 C4772 1.524 . S
C4771 C4775 1.400 . S
C4772 H4757 0.960 . S
C4772 H4758 0.960 . S
C4772 H4759 0.960 . S
C4772 C4771 1.524 . S
C4773 C4770 1.403 . S
C4773 C4774 1.392 . S
C4773 C4777 1.495 . S
C4774 C4773 1.392 . S
C4774 C4775 1.385 . S
C4774 C4776 1.478 . S
C4775 H4769 0.930 . S
C4775 C4771 1.400 . S
C4775 C4774 1.385 . S
C4776 C4774 1.478 . S
C4776 C4778 1.381 . S
C4776 C4782 1.383 . S
C4777 C4773 1.495 . S
C4777 H4783 0.959 . S
C4777 H4784 0.961 . S
C4777 H4785 0.960 . S
C4778 C4776 1.381 . S
C4778 C4779 1.394 . S
C4778 H4786 0.930 . S
C4779 C4778 1.394 . S
C4779 C4780 1.383 . S
C4779 H4787 0.929 . S
C4780 C4779 1.383 . S
C4780 C4781 1.377 . S
C4781 H4765 0.930 . S
C4781 C4780 1.377 . S
C4781 C4782 1.379 . S
C4782 H4766 0.931 . S
C4782 C4776 1.383 . S
C4782 C4781 1.379 . S
H4783 C4777 0.959 . S
H4784 C4777 0.961 . S
H4785 C4777 0.960 . S
H4786 C4778 0.930 . S
H4787 C4779 0.929 . S
H4788 C4796 0.929 . S
H4789 C4798 0.930 . S
H4790 C4800 0.930 . S
H4791 C4803 0.929 . S
H4792 C4806 0.930 . S
H4793 C4808 0.960 . S
H4794 C4808 0.960 . S
H4795 C4808 0.960 . S
C4796 H4788 0.929 . S
C4796 C4797 1.377 . S
C4796 C4798 1.384 . S
C4797 C4796 1.377 . S
C4797 C4803 1.390 . S
C4798 H4789 0.930 . S
C4798 C4796 1.384 . S
C4798 C4799 1.372 . S
C4799 C4798 1.372 . S
C4799 C4800 1.400 . S
C4799 C4804 1.490 . S
C4800 H4790 0.930 . S
C4800 C4799 1.400 . S
C4800 C4803 1.386 . S
H4801 C4817 0.930 . S
H4802 C4818 0.931 . S
C4803 H4791 0.929 . S
C4803 C4797 1.390 . S
C4803 C4800 1.386 . S
C4804 C4799 1.490 . S
C4804 C4806 1.395 . S
C4804 C4807 1.403 . S
H4805 C4811 0.930 . S
C4806 H4792 0.930 . S
C4806 C4804 1.395 . S
C4806 C4809 1.403 . S
C4807 C4804 1.403 . S
C4807 C4808 1.524 . S
C4807 C4811 1.400 . S
C4808 H4793 0.960 . S
C4808 H4794 0.960 . S
C4808 H4795 0.960 . S
C4808 C4807 1.524 . S
C4809 C4806 1.403 . S
C4809 C4810 1.392 . S
C4809 C4813 1.495 . S
C4810 C4809 1.392 . S
C4810 C4811 1.385 . S
C4810 C4812 1.478 . S
C4811 H4805 0.930 . S
C4811 C4807 1.400 . S
C4811 C4810 1.385 . S
C4812 C4810 1.478 . S
C4812 C4814 1.381 . S
C4812 C4818 1.383 . S
C4813 C4809 1.495 . S
C4813 H4819 0.959 . S
C4813 H4820 0.961 . S
C4813 H4821 0.960 . S
C4814 C4812 1.381 . S
C4814 C4815 1.394 . S
C4814 H4822 0.930 . S
C4815 C4814 1.394 . S
C4815 C4816 1.383 . S
C4815 H4823 0.929 . S
C4816 C4815 1.383 . S
C4816 C4817 1.377 . S
C4817 H4801 0.930 . S
C4817 C4816 1.377 . S
C4817 C4818 1.379 . S
C4818 H4802 0.931 . S
C4818 C4812 1.383 . S
C4818 C4817 1.379 . S
H4819 C4813 0.959 . S
H4820 C4813 0.961 . S
H4821 C4813 0.960 . S
H4822 C4814 0.930 . S
H4823 C4815 0.929 . S
H4824 C4832 0.929 . S
H4825 C4834 0.930 . S
H4826 C4836 0.930 . S
H4827 C4839 0.929 . S
H4828 C4842 0.930 . S
H4829 C4844 0.960 . S
H4830 C4844 0.960 . S
H4831 C4844 0.960 . S
C4832 H4824 0.929 . S
C4832 C4833 1.377 . S
C4832 C4834 1.384 . S
C4833 C4832 1.377 . S
C4833 C4839 1.390 . S
C4834 H4825 0.930 . S
C4834 C4832 1.384 . S
C4834 C4835 1.372 . S
C4835 C4834 1.372 . S
C4835 C4836 1.400 . S
C4835 C4840 1.490 . S
C4836 H4826 0.930 . S
C4836 C4835 1.400 . S
C4836 C4839 1.386 . S
H4837 C4853 0.930 . S
H4838 C4854 0.931 . S
C4839 H4827 0.929 . S
C4839 C4833 1.390 . S
C4839 C4836 1.386 . S
C4840 C4835 1.490 . S
C4840 C4842 1.395 . S
C4840 C4843 1.403 . S
H4841 C4847 0.930 . S
C4842 H4828 0.930 . S
C4842 C4840 1.395 . S
C4842 C4845 1.403 . S
C4843 C4840 1.403 . S
C4843 C4844 1.524 . S
C4843 C4847 1.400 . S
C4844 H4829 0.960 . S
C4844 H4830 0.960 . S
C4844 H4831 0.960 . S
C4844 C4843 1.524 . S
C4845 C4842 1.403 . S
C4845 C4846 1.392 . S
C4845 C4849 1.495 . S
C4846 C4845 1.392 . S
C4846 C4847 1.385 . S
C4846 C4848 1.478 . S
C4847 H4841 0.930 . S
C4847 C4843 1.400 . S
C4847 C4846 1.385 . S
C4848 C4846 1.478 . S
C4848 C4850 1.381 . S
C4848 C4854 1.383 . S
C4849 C4845 1.495 . S
C4849 H4855 0.959 . S
C4849 H4856 0.961 . S
C4849 H4857 0.960 . S
C4850 C4848 1.381 . S
C4850 C4851 1.394 . S
C4850 H4858 0.930 . S
C4851 C4850 1.394 . S
C4851 C4852 1.383 . S
C4851 H4859 0.929 . S
C4852 C4851 1.383 . S
C4852 C4853 1.377 . S
C4853 H4837 0.930 . S
C4853 C4852 1.377 . S
C4853 C4854 1.379 . S
C4854 H4838 0.931 . S
C4854 C4848 1.383 . S
C4854 C4853 1.379 . S
H4855 C4849 0.959 . S
H4856 C4849 0.961 . S
H4857 C4849 0.960 . S
H4858 C4850 0.930 . S
H4859 C4851 0.929 . S
H4860 C4868 0.929 . S
H4861 C4870 0.930 . S
H4862 C4872 0.930 . S
H4863 C4875 0.929 . S
H4864 C4878 0.930 . S
H4865 C4880 0.960 . S
H4866 C4880 0.960 . S
H4867 C4880 0.960 . S
C4868 H4860 0.929 . S
C4868 C4869 1.377 . S
C4868 C4870 1.384 . S
C4869 C4868 1.377 . S
C4869 C4875 1.390 . S
C4870 H4861 0.930 . S
C4870 C4868 1.384 . S
C4870 C4871 1.372 . S
C4871 C4870 1.372 . S
C4871 C4872 1.400 . S
C4871 C4876 1.490 . S
C4872 H4862 0.930 . S
C4872 C4871 1.400 . S
C4872 C4875 1.386 . S
H4873 C4889 0.930 . S
H4874 C4890 0.931 . S
C4875 H4863 0.929 . S
C4875 C4869 1.390 . S
C4875 C4872 1.386 . S
C4876 C4871 1.490 . S
C4876 C4878 1.395 . S
C4876 C4879 1.403 . S
H4877 C4883 0.930 . S
C4878 H4864 0.930 . S
C4878 C4876 1.395 . S
C4878 C4881 1.403 . S
C4879 C4876 1.403 . S
C4879 C4880 1.524 . S
C4879 C4883 1.400 . S
C4880 H4865 0.960 . S
C4880 H4866 0.960 . S
C4880 H4867 0.960 . S
C4880 C4879 1.524 . S
C4881 C4878 1.403 . S
C4881 C4882 1.392 . S
C4881 C4885 1.495 . S
C4882 C4881 1.392 . S
C4882 C4883 1.385 . S
C4882 C4884 1.478 . S
C4883 H4877 0.930 . S
C4883 C4879 1.400 . S
C4883 C4882 1.385 . S
C4884 C4882 1.478 . S
C4884 C4886 1.381 . S
C4884 C4890 1.383 . S
C4885 C4881 1.495 . S
C4885 H4891 0.959 . S
C4885 H4892 0.961 . S
C4885 H4893 0.960 . S
C4886 C4884 1.381 . S
C4886 C4887 1.394 . S
C4886 H4894 0.930 . S
C4887 C4886 1.394 . S
C4887 C4888 1.383 . S
C4887 H4895 0.929 . S
C4888 C4887 1.383 . S
C4888 C4889 1.377 . S
C4889 H4873 0.930 . S
C4889 C4888 1.377 . S
C4889 C4890 1.379 . S
C4890 H4874 0.931 . S
C4890 C4884 1.383 . S
C4890 C4889 1.379 . S
H4891 C4885 0.959 . S
H4892 C4885 0.961 . S
H4893 C4885 0.960 . S
H4894 C4886 0.930 . S
H4895 C4887 0.929 . S
H4896 C4904 0.929 . S
H4897 C4906 0.930 . S
H4898 C4908 0.930 . S
H4899 C4911 0.929 . S
H4900 C4914 0.930 . S
H4901 C4916 0.960 . S
H4902 C4916 0.960 . S
H4903 C4916 0.960 . S
C4904 H4896 0.929 . S
C4904 C4905 1.377 . S
C4904 C4906 1.384 . S
C4905 C4904 1.377 . S
C4905 C4911 1.390 . S
C4906 H4897 0.930 . S
C4906 C4904 1.384 . S
C4906 C4907 1.372 . S
C4907 C4906 1.372 . S
C4907 C4908 1.400 . S
C4907 C4912 1.490 . S
C4908 H4898 0.930 . S
C4908 C4907 1.400 . S
C4908 C4911 1.386 . S
H4909 C4925 0.930 . S
H4910 C4926 0.931 . S
C4911 H4899 0.929 . S
C4911 C4905 1.390 . S
C4911 C4908 1.386 . S
C4912 C4907 1.490 . S
C4912 C4914 1.395 . S
C4912 C4915 1.403 1_565 S
H4913 C4919 0.930 . S
C4914 H4900 0.930 . S
C4914 C4912 1.395 . S
C4914 C4917 1.403 1_565 S
C4915 C4912 1.403 1_545 S
C4915 C4916 1.524 . S
C4915 C4919 1.400 . S
C4916 H4901 0.960 . S
C4916 H4902 0.960 . S
C4916 H4903 0.960 . S
C4916 C4915 1.524 . S
C4917 C4914 1.403 1_545 S
C4917 C4918 1.392 . S
C4917 C4921 1.495 . S
C4918 C4917 1.392 . S
C4918 C4919 1.385 . S
C4918 C4920 1.478 . S
C4919 H4913 0.930 . S
C4919 C4915 1.400 . S
C4919 C4918 1.385 . S
C4920 C4918 1.478 . S
C4920 C4922 1.381 . S
C4920 C4926 1.383 . S
C4921 C4917 1.495 . S
C4921 H4927 0.959 . S
C4921 H4928 0.961 . S
C4921 H4929 0.960 . S
C4922 C4920 1.381 . S
C4922 C4923 1.394 . S
C4922 H4930 0.930 . S
C4923 C4922 1.394 . S
C4923 C4924 1.383 . S
C4923 H4931 0.929 . S
C4924 C4923 1.383 . S
C4924 C4925 1.377 . S
C4925 H4909 0.930 . S
C4925 C4924 1.377 . S
C4925 C4926 1.379 . S
C4926 H4910 0.931 . S
C4926 C4920 1.383 . S
C4926 C4925 1.379 . S
H4927 C4921 0.959 . S
H4928 C4921 0.961 . S
H4929 C4921 0.960 . S
H4930 C4922 0.930 . S
H4931 C4923 0.929 . S
H4932 C4940 0.929 . S
H4933 C4942 0.930 . S
H4934 C4944 0.930 . S
H4935 C4947 0.929 . S
H4936 C4950 0.930 . S
H4937 C4952 0.960 1_455 S
H4938 C4952 0.960 . S
H4939 C4952 0.960 . S
C4940 H4932 0.929 . S
C4940 C4941 1.377 . S
C4940 C4942 1.384 . S
C4941 C4940 1.377 . S
C4941 C4947 1.390 . S
C4942 H4933 0.930 . S
C4942 C4940 1.384 . S
C4942 C4943 1.372 . S
C4943 C4942 1.372 . S
C4943 C4944 1.400 . S
C4943 C4948 1.490 1_655 S
C4944 H4934 0.930 . S
C4944 C4943 1.400 . S
C4944 C4947 1.386 . S
H4945 C4961 0.942 . S
H4946 C4962 0.931 . S
C4947 H4935 0.929 . S
C4947 C4941 1.390 . S
C4947 C4944 1.386 . S
C4948 C4943 1.490 1_455 S
C4948 C4950 1.395 . S
C4948 C4951 1.403 . S
H4949 C4955 0.930 . S
C4950 H4936 0.930 . S
C4950 C4948 1.395 . S
C4950 C4953 1.403 . S
C4951 C4948 1.403 . S
C4951 C4952 1.524 1_455 S
C4951 C4955 1.400 . S
C4952 H4937 0.960 1_655 S
C4952 H4938 0.960 . S
C4952 H4939 0.960 . S
C4952 C4951 1.524 1_655 S
C4953 C4950 1.403 . S
C4953 C4954 1.392 . S
C4953 C4957 1.495 . S
C4954 C4953 1.392 . S
C4954 C4955 1.385 . S
C4954 C4956 1.478 . S
C4955 H4949 0.930 . S
C4955 C4951 1.400 . S
C4955 C4954 1.385 . S
C4956 C4954 1.478 . S
C4956 C4958 1.381 . S
C4956 C4962 1.383 . S
C4957 C4953 1.495 . S
C4957 H4963 0.959 . S
C4957 H4964 0.961 . S
C4957 H4965 0.960 . S
C4958 C4956 1.381 . S
C4958 C4959 1.394 . S
C4958 H4966 0.930 . S
C4959 C4958 1.394 . S
C4959 C4960 1.383 . S
C4959 H4967 0.929 . S
C4960 C4959 1.383 . S
C4960 C4961 1.377 . S
C4961 H4945 0.942 . S
C4961 C4960 1.377 . S
C4961 C4962 1.379 . S
C4962 H4946 0.931 . S
C4962 C4956 1.383 . S
C4962 C4961 1.379 . S
H4963 C4957 0.959 . S
H4964 C4957 0.961 . S
H4965 C4957 0.960 . S
H4966 C4958 0.930 . S
H4967 C4959 0.929 . S
H4968 C4976 0.929 . S
H4969 C4978 0.930 . S
H4970 C4980 0.930 . S
H4971 C4983 0.929 . S
H4972 C4986 0.930 . S
H4973 C4988 0.960 . S
H4974 C4988 0.960 . S
H4975 C4988 0.960 . S
C4976 H4968 0.929 . S
C4976 C4977 1.377 . S
C4976 C4978 1.384 . S
C4977 C4976 1.377 . S
C4977 C4983 1.390 . S
C4978 H4969 0.930 . S
C4978 C4976 1.384 . S
C4978 C4979 1.372 . S
C4979 C4978 1.372 . S
C4979 C4980 1.400 . S
C4979 C4984 1.490 . S
C4980 H4970 0.930 . S
C4980 C4979 1.400 . S
C4980 C4983 1.386 . S
H4981 C4997 0.930 . S
H4982 C4998 0.931 . S
C4983 H4971 0.929 . S
C4983 C4977 1.390 . S
C4983 C4980 1.386 . S
C4984 C4979 1.490 . S
C4984 C4986 1.395 . S
C4984 C4987 1.403 . S
H4985 C4991 0.930 . S
C4986 H4972 0.930 . S
C4986 C4984 1.395 . S
C4986 C4989 1.403 . S
C4987 C4984 1.403 . S
C4987 C4988 1.524 . S
C4987 C4991 1.400 . S
C4988 H4973 0.960 . S
C4988 H4974 0.960 . S
C4988 H4975 0.960 . S
C4988 C4987 1.524 . S
C4989 C4986 1.403 . S
C4989 C4990 1.392 . S
C4989 C4993 1.495 . S
C4990 C4989 1.392 . S
C4990 C4991 1.385 . S
C4990 C4992 1.478 . S
C4991 H4985 0.930 . S
C4991 C4987 1.400 . S
C4991 C4990 1.385 . S
C4992 C4990 1.478 . S
C4992 C4994 1.381 . S
C4992 C4998 1.383 . S
C4993 C4989 1.495 . S
C4993 H4999 0.959 . S
C4993 H5000 0.961 . S
C4993 H5001 0.960 . S
C4994 C4992 1.381 . S
C4994 C4995 1.394 . S
C4994 H5002 0.930 . S
C4995 C4994 1.394 . S
C4995 C4996 1.383 . S
C4995 H5003 0.929 . S
C4996 C4995 1.383 . S
C4996 C4997 1.377 . S
C4997 H4981 0.930 . S
C4997 C4996 1.377 . S
C4997 C4998 1.379 . S
C4998 H4982 0.931 . S
C4998 C4992 1.383 . S
C4998 C4997 1.379 . S
H4999 C4993 0.959 . S
H5000 C4993 0.961 . S
H5001 C4993 0.960 . S
H5002 C4994 0.930 . S
H5003 C4995 0.929 . S
H5004 C5012 0.929 . S
H5005 C5014 0.930 . S
H5006 C5016 0.930 . S
H5007 C5019 0.929 . S
H5008 C5022 0.930 . S
H5009 C5024 0.960 . S
H5010 C5024 0.960 . S
H5011 C5024 0.960 . S
C5012 H5004 0.929 . S
C5012 C5013 1.377 . S
C5012 C5014 1.384 . S
C5013 C5012 1.377 . S
C5013 C5019 1.390 . S
C5014 H5005 0.930 . S
C5014 C5012 1.384 . S
C5014 C5015 1.372 . S
C5015 C5014 1.372 . S
C5015 C5016 1.400 . S
C5015 C5020 1.490 . S
C5016 H5006 0.930 . S
C5016 C5015 1.400 . S
C5016 C5019 1.386 . S
H5017 C5033 0.930 . S
H5018 C5034 0.931 . S
C5019 H5007 0.929 . S
C5019 C5013 1.390 . S
C5019 C5016 1.386 . S
C5020 C5015 1.490 . S
C5020 C5022 1.395 . S
C5020 C5023 1.403 . S
H5021 C5027 0.930 . S
C5022 H5008 0.930 . S
C5022 C5020 1.395 . S
C5022 C5025 1.403 . S
C5023 C5020 1.403 . S
C5023 C5024 1.524 . S
C5023 C5027 1.400 . S
C5024 H5009 0.960 . S
C5024 H5010 0.960 . S
C5024 H5011 0.960 . S
C5024 C5023 1.524 . S
C5025 C5022 1.403 . S
C5025 C5026 1.392 . S
C5025 C5029 1.495 . S
C5026 C5025 1.392 . S
C5026 C5027 1.385 . S
C5026 C5028 1.478 . S
C5027 H5021 0.930 . S
C5027 C5023 1.400 . S
C5027 C5026 1.385 . S
C5028 C5026 1.478 . S
C5028 C5030 1.381 . S
C5028 C5034 1.383 . S
C5029 C5025 1.495 . S
C5029 H5035 0.959 . S
C5029 H5036 0.961 . S
C5029 H5037 0.960 . S
C5030 C5028 1.381 . S
C5030 C5031 1.394 . S
C5030 H5038 0.930 . S
C5031 C5030 1.394 . S
C5031 C5032 1.383 . S
C5031 H5039 0.929 . S
C5032 C5031 1.383 . S
C5032 C5033 1.377 . S
C5033 H5017 0.930 . S
C5033 C5032 1.377 . S
C5033 C5034 1.379 . S
C5034 H5018 0.931 . S
C5034 C5028 1.383 . S
C5034 C5033 1.379 . S
H5035 C5029 0.959 . S
H5036 C5029 0.961 . S
H5037 C5029 0.960 . S
H5038 C5030 0.930 . S
H5039 C5031 0.929 . S
H5040 C5048 0.929 . S
H5041 C5050 0.930 . S
H5042 C5052 0.930 . S
H5043 C5055 0.929 . S
H5044 C5058 0.930 . S
H5045 C5060 0.960 . S
H5046 C5060 0.960 . S
H5047 C5060 0.960 . S
C5048 H5040 0.929 . S
C5048 C5049 1.377 . S
C5048 C5050 1.384 . S
C5049 C5048 1.377 . S
C5049 C5055 1.390 . S
C5050 H5041 0.930 . S
C5050 C5048 1.384 . S
C5050 C5051 1.372 . S
C5051 C5050 1.372 . S
C5051 C5052 1.400 . S
C5051 C5056 1.490 . S
C5052 H5042 0.930 . S
C5052 C5051 1.400 . S
C5052 C5055 1.386 . S
H5053 C5069 0.930 . S
H5054 C5070 0.931 . S
C5055 H5043 0.929 . S
C5055 C5049 1.390 . S
C5055 C5052 1.386 . S
C5056 C5051 1.490 . S
C5056 C5058 1.395 . S
C5056 C5059 1.403 . S
H5057 C5063 0.930 . S
C5058 H5044 0.930 . S
C5058 C5056 1.395 . S
C5058 C5061 1.403 . S
C5059 C5056 1.403 . S
C5059 C5060 1.524 . S
C5059 C5063 1.400 . S
C5060 H5045 0.960 . S
C5060 H5046 0.960 . S
C5060 H5047 0.960 . S
C5060 C5059 1.524 . S
C5061 C5058 1.403 . S
C5061 C5062 1.392 . S
C5061 C5065 1.495 . S
C5062 C5061 1.392 . S
C5062 C5063 1.385 . S
C5062 C5064 1.478 . S
C5063 H5057 0.930 . S
C5063 C5059 1.400 . S
C5063 C5062 1.385 . S
C5064 C5062 1.478 . S
C5064 C5066 1.381 . S
C5064 C5070 1.383 . S
C5065 C5061 1.495 . S
C5065 H5071 0.959 . S
C5065 H5072 0.961 . S
C5065 H5073 0.960 . S
C5066 C5064 1.381 . S
C5066 C5067 1.394 . S
C5066 H5074 0.930 . S
C5067 C5066 1.394 . S
C5067 C5068 1.383 . S
C5067 H5075 0.929 . S
C5068 C5067 1.383 . S
C5068 C5069 1.377 . S
C5069 H5053 0.930 . S
C5069 C5068 1.377 . S
C5069 C5070 1.379 . S
C5070 H5054 0.931 . S
C5070 C5064 1.383 . S
C5070 C5069 1.379 . S
H5071 C5065 0.959 . S
H5072 C5065 0.961 . S
H5073 C5065 0.960 . S
H5074 C5066 0.930 . S
H5075 C5067 0.929 . S
H5076 C5084 0.929 . S
H5077 C5086 0.930 . S
H5078 C5088 0.930 . S
H5079 C5091 0.929 . S
H5080 C5094 0.930 . S
H5081 C5096 0.960 . S
H5082 C5096 0.960 . S
H5083 C5096 0.960 . S
C5084 H5076 0.929 . S
C5084 C5085 1.377 . S
C5084 C5086 1.384 . S
C5085 C5084 1.377 . S
C5085 C5091 1.390 . S
C5086 H5077 0.930 . S
C5086 C5084 1.384 . S
C5086 C5087 1.372 . S
C5087 C5086 1.372 . S
C5087 C5088 1.400 . S
C5087 C5092 1.490 . S
C5088 H5078 0.930 . S
C5088 C5087 1.400 . S
C5088 C5091 1.386 . S
H5089 C5105 0.930 . S
H5090 C5106 0.931 . S
C5091 H5079 0.929 . S
C5091 C5085 1.390 . S
C5091 C5088 1.386 . S
C5092 C5087 1.490 . S
C5092 C5094 1.395 . S
C5092 C5095 1.403 . S
H5093 C5099 0.930 . S
C5094 H5080 0.930 . S
C5094 C5092 1.395 . S
C5094 C5097 1.403 . S
C5095 C5092 1.403 . S
C5095 C5096 1.524 . S
C5095 C5099 1.400 . S
C5096 H5081 0.960 . S
C5096 H5082 0.960 . S
C5096 H5083 0.960 . S
C5096 C5095 1.524 . S
C5097 C5094 1.403 . S
C5097 C5098 1.392 . S
C5097 C5101 1.495 . S
C5098 C5097 1.392 . S
C5098 C5099 1.385 . S
C5098 C5100 1.478 . S
C5099 H5093 0.930 . S
C5099 C5095 1.400 . S
C5099 C5098 1.385 . S
C5100 C5098 1.478 . S
C5100 C5102 1.381 . S
C5100 C5106 1.383 . S
C5101 C5097 1.495 . S
C5101 H5107 0.959 . S
C5101 H5108 0.961 . S
C5101 H5109 0.960 . S
C5102 C5100 1.381 . S
C5102 C5103 1.394 . S
C5102 H5110 0.930 . S
C5103 C5102 1.394 . S
C5103 C5104 1.383 . S
C5103 H5111 0.929 . S
C5104 C5103 1.383 . S
C5104 C5105 1.377 . S
C5105 H5089 0.930 . S
C5105 C5104 1.377 . S
C5105 C5106 1.379 . S
C5106 H5090 0.931 . S
C5106 C5100 1.383 . S
C5106 C5105 1.379 . S
H5107 C5101 0.959 . S
H5108 C5101 0.961 . S
H5109 C5101 0.960 . S
H5110 C5102 0.930 . S
H5111 C5103 0.929 . S
H5112 C5120 0.929 . S
H5113 C5122 0.930 . S
H5114 C5124 0.930 . S
H5115 C5127 0.929 . S
H5116 C5130 0.930 . S
H5117 C5132 0.960 . S
H5118 C5132 0.960 . S
H5119 C5132 0.960 . S
C5120 H5112 0.929 . S
C5120 C5121 1.377 . S
C5120 C5122 1.384 . S
C5121 C5120 1.377 . S
C5121 C5127 1.390 . S
C5122 H5113 0.930 . S
C5122 C5120 1.384 . S
C5122 C5123 1.372 . S
C5123 C5122 1.372 . S
C5123 C5124 1.400 . S
C5123 C5128 1.490 . S
C5124 H5114 0.930 . S
C5124 C5123 1.400 . S
C5124 C5127 1.386 . S
H5125 C5141 0.930 . S
H5126 C5142 0.931 . S
C5127 H5115 0.929 . S
C5127 C5121 1.390 . S
C5127 C5124 1.386 . S
C5128 C5123 1.490 . S
C5128 C5130 1.395 . S
C5128 C5131 1.403 . S
H5129 C5135 0.930 . S
C5130 H5116 0.930 . S
C5130 C5128 1.395 . S
C5130 C5133 1.403 . S
C5131 C5128 1.403 . S
C5131 C5132 1.524 . S
C5131 C5135 1.400 . S
C5132 H5117 0.960 . S
C5132 H5118 0.960 . S
C5132 H5119 0.960 . S
C5132 C5131 1.524 . S
C5133 C5130 1.403 . S
C5133 C5134 1.392 . S
C5133 C5137 1.495 . S
C5134 C5133 1.392 . S
C5134 C5135 1.385 . S
C5134 C5136 1.478 . S
C5135 H5129 0.930 . S
C5135 C5131 1.400 . S
C5135 C5134 1.385 . S
C5136 C5134 1.478 . S
C5136 C5138 1.381 . S
C5136 C5142 1.383 . S
C5137 C5133 1.495 . S
C5137 H5143 0.959 . S
C5137 H5144 0.961 . S
C5137 H5145 0.960 . S
C5138 C5136 1.381 . S
C5138 C5139 1.394 . S
C5138 H5146 0.930 . S
C5139 C5138 1.394 . S
C5139 C5140 1.383 . S
C5139 H5147 0.929 . S
C5140 C5139 1.383 . S
C5140 C5141 1.377 . S
C5141 H5125 0.930 . S
C5141 C5140 1.377 . S
C5141 C5142 1.379 . S
C5142 H5126 0.931 . S
C5142 C5136 1.383 . S
C5142 C5141 1.379 . S
H5143 C5137 0.959 . S
H5144 C5137 0.961 . S
H5145 C5137 0.960 . S
H5146 C5138 0.930 . S
H5147 C5139 0.929 . S
H5148 C5156 0.929 . S
H5149 C5158 0.930 . S
H5150 C5160 0.930 . S
H5151 C5163 0.929 . S
H5152 C5166 0.930 . S
H5153 C5168 0.960 . S
H5154 C5168 0.960 . S
H5155 C5168 0.960 . S
C5156 H5148 0.929 . S
C5156 C5157 1.377 . S
C5156 C5158 1.384 . S
C5157 C5156 1.377 . S
C5157 C5163 1.390 . S
C5158 H5149 0.930 . S
C5158 C5156 1.384 . S
C5158 C5159 1.372 . S
C5159 C5158 1.372 . S
C5159 C5160 1.400 . S
C5159 C5164 1.490 . S
C5160 H5150 0.930 . S
C5160 C5159 1.400 . S
C5160 C5163 1.386 . S
H5161 C5177 0.930 . S
H5162 C5178 0.931 . S
C5163 H5151 0.929 . S
C5163 C5157 1.390 . S
C5163 C5160 1.386 . S
C5164 C5159 1.490 . S
C5164 C5166 1.395 . S
C5164 C5167 1.403 . S
H5165 C5171 0.930 . S
C5166 H5152 0.930 . S
C5166 C5164 1.395 . S
C5166 C5169 1.403 . S
C5167 C5164 1.403 . S
C5167 C5168 1.524 . S
C5167 C5171 1.400 . S
C5168 H5153 0.960 . S
C5168 H5154 0.960 . S
C5168 H5155 0.960 . S
C5168 C5167 1.524 . S
C5169 C5166 1.403 . S
C5169 C5170 1.392 . S
C5169 C5173 1.495 . S
C5170 C5169 1.392 . S
C5170 C5171 1.385 . S
C5170 C5172 1.478 . S
C5171 H5165 0.930 . S
C5171 C5167 1.400 . S
C5171 C5170 1.385 . S
C5172 C5170 1.478 . S
C5172 C5174 1.381 . S
C5172 C5178 1.383 . S
C5173 C5169 1.495 . S
C5173 H5179 0.959 . S
C5173 H5180 0.961 . S
C5173 H5181 0.960 . S
C5174 C5172 1.381 . S
C5174 C5175 1.394 . S
C5174 H5182 0.930 . S
C5175 C5174 1.394 . S
C5175 C5176 1.383 . S
C5175 H5183 0.929 . S
C5176 C5175 1.383 . S
C5176 C5177 1.377 . S
C5177 H5161 0.930 . S
C5177 C5176 1.377 . S
C5177 C5178 1.379 . S
C5178 H5162 0.931 . S
C5178 C5172 1.383 . S
C5178 C5177 1.379 . S
H5179 C5173 0.959 . S
H5180 C5173 0.961 . S
H5181 C5173 0.960 . S
H5182 C5174 0.930 . S
H5183 C5175 0.929 . S
H5184 C5192 0.929 . S
H5185 C5194 0.930 . S
H5186 C5196 0.930 . S
H5187 C5199 0.929 . S
H5188 C5202 0.930 . S
H5189 C5204 0.960 . S
H5190 C5204 0.960 . S
H5191 C5204 0.960 . S
C5192 H5184 0.929 . S
C5192 C5193 1.377 . S
C5192 C5194 1.384 . S
C5193 C5192 1.377 . S
C5193 C5199 1.390 . S
C5194 H5185 0.930 . S
C5194 C5192 1.384 . S
C5194 C5195 1.372 . S
C5195 C5194 1.372 . S
C5195 C5196 1.400 . S
C5195 C5200 1.490 . S
C5196 H5186 0.930 . S
C5196 C5195 1.400 . S
C5196 C5199 1.386 . S
H5197 C5213 0.930 . S
H5198 C5214 0.931 . S
C5199 H5187 0.929 . S
C5199 C5193 1.390 . S
C5199 C5196 1.386 . S
C5200 C5195 1.490 . S
C5200 C5202 1.395 . S
C5200 C5203 1.403 . S
H5201 C5207 0.930 . S
C5202 H5188 0.930 . S
C5202 C5200 1.395 . S
C5202 C5205 1.403 . S
C5203 C5200 1.403 . S
C5203 C5204 1.524 . S
C5203 C5207 1.400 . S
C5204 H5189 0.960 . S
C5204 H5190 0.960 . S
C5204 H5191 0.960 . S
C5204 C5203 1.524 . S
C5205 C5202 1.403 . S
C5205 C5206 1.392 . S
C5205 C5209 1.495 . S
C5206 C5205 1.392 . S
C5206 C5207 1.385 . S
C5206 C5208 1.478 . S
C5207 H5201 0.930 . S
C5207 C5203 1.400 . S
C5207 C5206 1.385 . S
C5208 C5206 1.478 . S
C5208 C5210 1.381 . S
C5208 C5214 1.383 . S
C5209 C5205 1.495 . S
C5209 H5215 0.959 . S
C5209 H5216 0.961 . S
C5209 H5217 0.960 . S
C5210 C5208 1.381 . S
C5210 C5211 1.394 . S
C5210 H5218 0.930 . S
C5211 C5210 1.394 . S
C5211 C5212 1.383 . S
C5211 H5219 0.929 . S
C5212 C5211 1.383 . S
C5212 C5213 1.377 . S
C5213 H5197 0.930 . S
C5213 C5212 1.377 . S
C5213 C5214 1.379 . S
C5214 H5198 0.931 . S
C5214 C5208 1.383 . S
C5214 C5213 1.379 . S
H5215 C5209 0.959 . S
H5216 C5209 0.961 . S
H5217 C5209 0.960 . S
H5218 C5210 0.930 . S
H5219 C5211 0.929 . S
H5220 C5228 0.929 . S
H5221 C5230 0.930 . S
H5222 C5232 0.930 . S
H5223 C5235 0.929 . S
H5224 C5238 0.930 . S
H5225 C5240 0.960 . S
H5226 C5240 0.960 1_655 S
H5227 C5240 0.960 1_655 S
C5228 H5220 0.929 . S
C5228 C5229 1.377 . S
C5228 C5230 1.384 . S
C5229 C5228 1.377 . S
C5229 C5235 1.390 . S
C5230 H5221 0.930 . S
C5230 C5228 1.384 . S
C5230 C5231 1.372 . S
C5231 C5230 1.372 . S
C5231 C5232 1.400 . S
C5231 C5236 1.490 1_655 S
C5232 H5222 0.930 . S
C5232 C5231 1.400 . S
C5232 C5235 1.386 . S
H5233 C5249 0.930 . S
H5234 C5250 0.931 . S
C5235 H5223 0.929 . S
C5235 C5229 1.390 . S
C5235 C5232 1.386 . S
C5236 C5231 1.490 1_455 S
C5236 C5238 1.395 . S
C5236 C5239 1.403 . S
H5237 C5243 0.930 . S
C5238 H5224 0.930 . S
C5238 C5236 1.395 . S
C5238 C5241 1.403 . S
C5239 C5236 1.403 . S
C5239 C5240 1.524 . S
C5239 C5243 1.400 . S
C5240 H5225 0.960 . S
C5240 H5226 0.960 1_455 S
C5240 H5227 0.960 1_455 S
C5240 C5239 1.524 . S
C5241 C5238 1.403 . S
C5241 C5242 1.392 . S
C5241 C5245 1.495 . S
C5242 C5241 1.392 . S
C5242 C5243 1.385 . S
C5242 C5244 1.478 . S
C5243 H5237 0.930 . S
C5243 C5239 1.400 . S
C5243 C5242 1.385 . S
C5244 C5242 1.478 . S
C5244 C5246 1.381 . S
C5244 C5250 1.383 . S
C5245 C5241 1.495 . S
C5245 H5251 0.959 . S
C5245 H5252 0.961 . S
C5245 H5253 0.960 . S
C5246 C5244 1.381 . S
C5246 C5247 1.394 . S
C5246 H5254 0.930 . S
C5247 C5246 1.394 . S
C5247 C5248 1.383 . S
C5247 H5255 0.929 . S
C5248 C5247 1.383 . S
C5248 C5249 1.377 . S
C5249 H5233 0.930 . S
C5249 C5248 1.377 . S
C5249 C5250 1.379 . S
C5250 H5234 0.931 . S
C5250 C5244 1.383 . S
C5250 C5249 1.379 . S
H5251 C5245 0.959 . S
H5252 C5245 0.961 . S
H5253 C5245 0.960 . S
H5254 C5246 0.930 . S
H5255 C5247 0.929 . S
H5256 C5264 0.929 . S
H5257 C5266 0.930 . S
H5258 C5268 0.930 . S
H5259 C5271 0.929 1_545 S
H5260 C5274 0.930 . S
H5261 C5276 0.960 . S
H5262 C5276 0.960 . S
H5263 C5276 0.960 . S
C5264 H5256 0.929 . S
C5264 C5265 1.377 . S
C5264 C5266 1.384 . S
C5265 C5264 1.377 . S
C5265 C5271 1.390 . S
C5266 H5257 0.930 . S
C5266 C5264 1.384 . S
C5266 C5267 1.372 . S
C5267 C5266 1.372 . S
C5267 C5268 1.400 . S
C5267 C5272 1.490 . S
C5268 H5258 0.930 . S
C5268 C5267 1.400 . S
C5268 C5271 1.386 . S
H5269 C5285 0.930 . S
H5270 C5286 0.931 . S
C5271 H5259 0.929 1_565 S
C5271 C5265 1.390 . S
C5271 C5268 1.386 . S
C5272 C5267 1.490 . S
C5272 C5274 1.395 . S
C5272 C5275 1.403 . S
H5273 C5279 0.930 . S
C5274 H5260 0.930 . S
C5274 C5272 1.395 . S
C5274 C5277 1.403 . S
C5275 C5272 1.403 . S
C5275 C5276 1.524 . S
C5275 C5279 1.400 . S
C5276 H5261 0.960 . S
C5276 H5262 0.960 . S
C5276 H5263 0.960 . S
C5276 C5275 1.524 . S
C5277 C5274 1.403 . S
C5277 C5278 1.392 . S
C5277 C5281 1.495 . S
C5278 C5277 1.392 . S
C5278 C5279 1.385 . S
C5278 C5280 1.478 . S
C5279 H5273 0.930 . S
C5279 C5275 1.400 . S
C5279 C5278 1.385 . S
C5280 C5278 1.478 . S
C5280 C5282 1.381 . S
C5280 C5286 1.383 . S
C5281 C5277 1.495 . S
C5281 H5287 0.959 . S
C5281 H5288 0.961 . S
C5281 H5289 0.960 . S
C5282 C5280 1.381 . S
C5282 C5283 1.394 . S
C5282 H5290 0.930 . S
C5283 C5282 1.394 . S
C5283 C5284 1.383 . S
C5283 H5291 0.929 . S
C5284 C5283 1.383 . S
C5284 C5285 1.377 . S
C5285 H5269 0.930 . S
C5285 C5284 1.377 . S
C5285 C5286 1.379 . S
C5286 H5270 0.931 . S
C5286 C5280 1.383 . S
C5286 C5285 1.379 . S
H5287 C5281 0.959 . S
H5288 C5281 0.961 . S
H5289 C5281 0.960 . S
H5290 C5282 0.930 . S
H5291 C5283 0.929 . S
H5292 C5300 0.929 . S
H5293 C5302 0.930 . S
H5294 C5304 0.930 . S
H5295 C5307 0.929 . S
H5296 C5310 0.930 1_565 S
H5297 C5312 0.960 . S
H5298 C5312 0.960 . S
H5299 C5312 0.960 1_565 S
C5300 H5292 0.929 . S
C5300 C5301 1.377 . S
C5300 C5302 1.384 . S
C5301 C5300 1.377 . S
C5301 C5307 1.390 . S
C5302 H5293 0.930 . S
C5302 C5300 1.384 . S
C5302 C5303 1.372 . S
C5303 C5302 1.372 . S
C5303 C5304 1.400 . S
C5303 C5308 1.490 . S
C5304 H5294 0.930 . S
C5304 C5303 1.400 . S
C5304 C5307 1.386 . S
H5305 C5321 0.930 . S
H5306 C5322 0.931 . S
C5307 H5295 0.929 . S
C5307 C5301 1.390 . S
C5307 C5304 1.386 . S
C5308 C5303 1.490 . S
C5308 C5310 1.395 1_565 S
C5308 C5311 1.403 1_565 S
H5309 C5315 0.930 . S
C5310 H5296 0.930 1_545 S
C5310 C5308 1.395 1_545 S
C5310 C5313 1.403 . S
C5311 C5308 1.403 1_545 S
C5311 C5312 1.524 . S
C5311 C5315 1.400 . S
C5312 H5297 0.960 . S
C5312 H5298 0.960 . S
C5312 H5299 0.960 1_545 S
C5312 C5311 1.524 . S
C5313 C5310 1.403 . S
C5313 C5314 1.392 . S
C5313 C5317 1.495 . S
C5314 C5313 1.392 . S
C5314 C5315 1.385 . S
C5314 C5316 1.478 . S
C5315 H5309 0.930 . S
C5315 C5311 1.400 . S
C5315 C5314 1.385 . S
C5316 C5314 1.478 . S
C5316 C5318 1.381 . S
C5316 C5322 1.383 . S
C5317 C5313 1.495 . S
C5317 H5323 0.959 . S
C5317 H5324 0.961 . S
C5317 H5325 0.960 . S
C5318 C5316 1.381 . S
C5318 C5319 1.394 . S
C5318 H5326 0.930 . S
C5319 C5318 1.394 . S
C5319 C5320 1.383 . S
C5319 H5327 0.929 . S
C5320 C5319 1.383 . S
C5320 C5321 1.377 . S
C5321 H5305 0.930 . S
C5321 C5320 1.377 . S
C5321 C5322 1.379 . S
C5322 H5306 0.931 . S
C5322 C5316 1.383 . S
C5322 C5321 1.379 . S
H5323 C5317 0.959 . S
H5324 C5317 0.961 . S
H5325 C5317 0.960 . S
H5326 C5318 0.930 . S
H5327 C5319 0.929 . S
C1449 C1099 2.108 . S
C1468 C19 2.103 . S
C1485 C1139 2.110 . S
C1504 C59 2.109 1_655 S
C1521 C99 2.107 . S
C1540 C1179 2.101 . S
C1557 C139 2.108 . S
C1576 C499 2.102 . S
C1593 C179 2.108 . S
C1612 C539 2.107 . S
C1629 C579 2.110 . S
C1648 C219 2.104 1_565 S
C1665 C250 2.110 1_565 S
C1684 C850 2.103 . S
C1701 C890 2.109 . S
C1720 C290 2.102 . S
C1737 C330 2.108 . S
C1756 C930 2.101 . S
C1773 C1210 2.110 . S
C1792 C370 2.107 . S
C1809 C410 2.109 . S
C1828 C1250 2.104 . S
C1845 C1290 2.108 . S
C1864 C450 2.101 . S
C1881 C979 2.110 . S
C1900 C619 2.109 . S
C1917 C659 2.109 . S
C1936 C1019 2.102 . S
C1953 C1059 2.108 . S
C1972 C699 2.101 . S
C1989 C730 2.108 . S
C2008 C1330 2.101 . S
C2025 C770 2.110 . S
C2044 C1370 2.104 . S
C2061 C1410 2.109 . S
C2080 C810 2.108 . S
C2097 C10 1.643 . S
C2116 C259 1.639 . S
C2133 C299 1.633 . S
C2152 C50 1.636 . S
C2169 C90 1.633 . S
C2188 C339 1.610 . S
C2205 C379 1.636 . S
C2224 C130 1.605 . S
C2241 C170 1.638 . S
C2260 C419 1.660 . S
C2277 C459 1.640 . S
C2296 C210 1.613 . S
C2313 C739 1.633 . S
C2332 C490 1.605 . S
C2349 C530 1.634 . S
C2368 C779 1.606 . S
C2385 C819 1.633 . S
C2404 C570 1.617 . S
C2421 C610 1.633 . S
C2440 C859 1.609 . S
C2457 C899 1.644 . S
C2476 C650 1.641 . S
C2493 C690 1.635 . S
C2512 C939 1.651 . S
C2529 C970 1.637 . S
C2548 C1219 1.658 . S
C2565 C1259 1.641 . S
C2584 C1010 1.663 . S
C2601 C1299 1.638 . S
C2620 C1050 1.660 . S
C2637 C1339 1.631 . S
C2656 C1090 1.627 . S
C2673 C1130 1.636 . S
C2692 C1379 1.606 . S
C2709 C1170 1.637 . S
C2728 C1419 1.657 . S
C2745 C16 1.882 . S
C2764 C91 1.886 . S
C2781 C56 1.880 . S
C2800 C11 1.878 . S
C2817 C51 1.883 . S
C2836 C96 1.879 . S
C2853 C136 1.881 . S
C2872 C171 1.884 . S
C2889 C211 1.885 . S
C2908 C176 1.888 . S
C2925 C131 1.883 . S
C2944 C216 1.878 . S
C2961 C322 1.881 . S
C2980 C247 1.890 . S
C2997 C287 1.881 . S
C3016 C242 1.866 . S
C3033 C327 1.880 . S
C3052 C282 1.867 . S
C3069 C402 1.881 . S
C3088 C367 1.890 . S
C3105 C407 1.877 . S
C3124 C442 1.889 . S
C3141 C447 1.877 . S
C3160 C362 1.880 . S
C3177 C571 1.883 . S
C3196 C496 1.876 . S
C3213 C491 1.881 . S
C3232 C536 1.866 1_545 S
C3249 C531 1.880 . S
C3268 C576 1.862 . S
C3285 C651 1.882 . S
C3304 C616 1.873 . S
C3321 C656 1.878 . S
C3340 C691 1.870 . S
C3357 C611 1.885 . S
C3376 C696 1.889 . S
C3393 C727 1.878 . S
C3412 C802 1.879 . S
C3429 C722 1.881 . S
C3448 C767 1.877 . S
C3465 C807 1.879 . S
C3484 C762 1.873 . S
C3501 C882 1.885 . S
C3520 C847 1.863 . S
C3537 C922 1.884 . S
C3556 C887 1.885 1_545 S
C3573 C842 1.886 . S
C3592 C927 1.868 . S
C3609 C1051 1.881 . S
C3628 C976 1.866 . S
C3645 C1016 1.877 . S
C3664 C971 1.868 . S
C3681 C1011 1.886 . S
C3700 C1056 1.889 . S
C3717 C1096 1.880 . S
C3736 C1131 1.881 . S
C3753 C1136 1.879 . S
C3772 C1171 1.875 . S
C3789 C1091 1.885 . S
C3808 C1176 1.887 1_455 S
C3825 C1207 1.878 . S
C3844 C1282 1.877 . S
C3861 C1247 1.883 . S
C3880 C1202 1.871 . S
C3897 C1242 1.882 . S
C3916 C1287 1.890 1_455 S
C3933 C1327 1.882 . S
C3952 C1362 1.866 . S
C3969 C1402 1.880 . S
C3988 C1367 1.889 . S
C4005 C1322 1.886 . S
C4024 C1407 1.868 . S
C4041 C82 1.106 . S
C4060 C7 1.138 . S
C4077 C47 1.136 . S
C4096 C2 1.134 . S
C4113 C42 1.107 . S
C4132 C87 1.145 . S
C4149 C162 1.119 . S
C4168 C127 1.128 . S
C4185 C167 1.135 . S
C4204 C202 1.129 . S
C4221 C207 1.141 . S
C4240 C122 1.107 . S
C4257 C331 1.118 . S
C4276 C256 1.149 . S
C4293 C296 1.141 . S
C4312 C251 1.136 . S
C4329 C291 1.117 . S
C4348 C336 1.138 . S
C4365 C411 1.115 . S
C4384 C376 1.145 . S
C4401 C451 1.109 . S
C4420 C416 1.125 . S
C4437 C371 1.109 . S
C4456 C456 1.132 . S
C4473 C487 1.135 . S
C4492 C562 1.106 . S
C4509 C527 1.135 . S
C4528 C482 1.127 . S
C4545 C567 1.139 . S
C4564 C522 1.137 . S
C4581 C642 1.107 . S
C4600 C607 1.141 . S
C4617 C647 1.141 . S
C4636 C682 1.113 . S
C4653 C687 1.138 1_655 S
C4672 C602 1.081 . S
C4689 C811 1.106 . S
C4708 C736 1.125 . S
C4725 C731 1.117 . S
C4744 C776 1.140 . S
C4761 C816 1.138 1_655 S
C4780 C771 1.120 . S
C4797 C891 1.116 . S
C4816 C856 1.146 . S
C4833 C896 1.139 . S
C4852 C931 1.111 . S
C4869 C936 1.135 . S
C4888 C851 1.089 . S
C4905 C967 1.141 . S
C4924 C1042 1.093 . S
C4941 C962 1.117 . S
C4960 C1007 1.146 1_565 S
C4977 C1002 1.116 . S
C4996 C1047 1.146 . S
C5013 C1122 1.113 . S
C5032 C1087 1.123 . S
C5049 C1127 1.135 . S
C5068 C1162 1.109 . S
C5085 C1167 1.139 . S
C5104 C1082 1.133 . S
C5121 C1291 1.119 . S
C5140 C1216 1.148 . S
C5157 C1211 1.116 . S
C5176 C1256 1.138 . S
C5193 C1296 1.136 . S
C5212 C1251 1.109 . S
C5229 C1371 1.117 . S
C5248 C1336 1.147 . S
C5265 C1376 1.135 1_565 S
C5284 C1411 1.079 . S
C5301 C1416 1.138 . S
C5320 C1331 1.128 . S
