# Generated by pormake.
# Topology pyc, (8)-cn, num edge types: 1
# Building blocks:
#     Node 0, Type 0, BuildingBlock: EBIMEJ_clean_sbu_0, # of connection points: 8
#     Node 1, Type 0, BuildingBlock: EBIMEJ_clean_sbu_0, # of connection points: 8
#     Node 2, Type 0, BuildingBlock: EBIMEJ_clean_sbu_0, # of connection points: 8
#     Node 3, Type 0, BuildingBlock: EBIMEJ_clean_sbu_0, # of connection points: 8
#     Node 4, Type 0, BuildingBlock: EBIMEJ_clean_sbu_0, # of connection points: 8
#     Node 5, Type 0, BuildingBlock: EBIMEJ_clean_sbu_0, # of connection points: 8
#     Node 6, Type 0, BuildingBlock: EBIMEJ_clean_sbu_0, # of connection points: 8
#     Node 7, Type 0, BuildingBlock: EBIMEJ_clean_sbu_0, # of connection points: 8
#     Node 8, Type 0, BuildingBlock: EBIMEJ_clean_sbu_0, # of connection points: 8
#     Node 9, Type 0, BuildingBlock: EBIMEJ_clean_sbu_0, # of connection points: 8
#     Node 10, Type 0, BuildingBlock: EBIMEJ_clean_sbu_0, # of connection points: 8
#     Node 11, Type 0, BuildingBlock: EBIMEJ_clean_sbu_0, # of connection points: 8
#     Node 12, Type 0, BuildingBlock: EBIMEJ_clean_sbu_0, # of connection points: 8
#     Node 13, Type 0, BuildingBlock: EBIMEJ_clean_sbu_0, # of connection points: 8
#     Node 14, Type 0, BuildingBlock: EBIMEJ_clean_sbu_0, # of connection points: 8
#     Node 15, Type 0, BuildingBlock: EBIMEJ_clean_sbu_0, # of connection points: 8
#     Node 16, Type 0, BuildingBlock: EBIMEJ_clean_sbu_0, # of connection points: 8
#     Node 17, Type 0, BuildingBlock: EBIMEJ_clean_sbu_0, # of connection points: 8
#     Node 18, Type 0, BuildingBlock: EBIMEJ_clean_sbu_0, # of connection points: 8
#     Node 19, Type 0, BuildingBlock: EBIMEJ_clean_sbu_0, # of connection points: 8
#     Node 20, Type 0, BuildingBlock: EBIMEJ_clean_sbu_0, # of connection points: 8
#     Node 21, Type 0, BuildingBlock: EBIMEJ_clean_sbu_0, # of connection points: 8
#     Node 22, Type 0, BuildingBlock: EBIMEJ_clean_sbu_0, # of connection points: 8
#     Node 23, Type 0, BuildingBlock: EBIMEJ_clean_sbu_0, # of connection points: 8
#     Node 24, Type 0, BuildingBlock: EBIMEJ_clean_sbu_0, # of connection points: 8
#     Node 25, Type 0, BuildingBlock: EBIMEJ_clean_sbu_0, # of connection points: 8
#     Node 26, Type 0, BuildingBlock: EBIMEJ_clean_sbu_0, # of connection points: 8
#     Node 27, Type 0, BuildingBlock: EBIMEJ_clean_sbu_0, # of connection points: 8
#     Node 28, Type 0, BuildingBlock: EBIMEJ_clean_sbu_0, # of connection points: 8
#     Node 29, Type 0, BuildingBlock: EBIMEJ_clean_sbu_0, # of connection points: 8
#     Node 30, Type 0, BuildingBlock: EBIMEJ_clean_sbu_0, # of connection points: 8
#     Node 31, Type 0, BuildingBlock: EBIMEJ_clean_sbu_0, # of connection points: 8
#     Node 32, Type 0, BuildingBlock: EBIMEJ_clean_sbu_0, # of connection points: 8
#     Node 33, Type 0, BuildingBlock: EBIMEJ_clean_sbu_0, # of connection points: 8
#     Node 34, Type 0, BuildingBlock: EBIMEJ_clean_sbu_0, # of connection points: 8
#     Node 35, Type 0, BuildingBlock: EBIMEJ_clean_sbu_0, # of connection points: 8
#     Node 36, Type 0, BuildingBlock: EBIMEJ_clean_sbu_0, # of connection points: 8
#     Node 37, Type 0, BuildingBlock: EBIMEJ_clean_sbu_0, # of connection points: 8
#     Node 38, Type 0, BuildingBlock: EBIMEJ_clean_sbu_0, # of connection points: 8
#     Node 39, Type 0, BuildingBlock: EBIMEJ_clean_sbu_0, # of connection points: 8
#     Node 40, Type 0, BuildingBlock: EBIMEJ_clean_sbu_0, # of connection points: 8
#     Node 41, Type 0, BuildingBlock: EBIMEJ_clean_sbu_0, # of connection points: 8
#     Node 42, Type 0, BuildingBlock: EBIMEJ_clean_sbu_0, # of connection points: 8
#     Node 43, Type 0, BuildingBlock: EBIMEJ_clean_sbu_0, # of connection points: 8
#     Node 44, Type 0, BuildingBlock: EBIMEJ_clean_sbu_0, # of connection points: 8
#     Node 45, Type 0, BuildingBlock: EBIMEJ_clean_sbu_0, # of connection points: 8
#     Node 46, Type 0, BuildingBlock: EBIMEJ_clean_sbu_0, # of connection points: 8
#     Node 47, Type 0, BuildingBlock: EBIMEJ_clean_sbu_0, # of connection points: 8
#     Edge 48, Type (0, 0), BuildingBlock: OJICUG_clean_linker_0, # of connection points: 2
#     Edge 49, Type (0, 0), BuildingBlock: OJICUG_clean_linker_0, # of connection points: 2
#     Edge 50, Type (0, 0), BuildingBlock: OJICUG_clean_linker_0, # of connection points: 2
#     Edge 51, Type (0, 0), BuildingBlock: OJICUG_clean_linker_0, # of connection points: 2
#     Edge 52, Type (0, 0), BuildingBlock: OJICUG_clean_linker_0, # of connection points: 2
#     Edge 53, Type (0, 0), BuildingBlock: OJICUG_clean_linker_0, # of connection points: 2
#     Edge 54, Type (0, 0), BuildingBlock: OJICUG_clean_linker_0, # of connection points: 2
#     Edge 55, Type (0, 0), BuildingBlock: OJICUG_clean_linker_0, # of connection points: 2
#     Edge 56, Type (0, 0), BuildingBlock: OJICUG_clean_linker_0, # of connection points: 2
#     Edge 57, Type (0, 0), BuildingBlock: OJICUG_clean_linker_0, # of connection points: 2
#     Edge 58, Type (0, 0), BuildingBlock: OJICUG_clean_linker_0, # of connection points: 2
#     Edge 59, Type (0, 0), BuildingBlock: OJICUG_clean_linker_0, # of connection points: 2
#     Edge 60, Type (0, 0), BuildingBlock: OJICUG_clean_linker_0, # of connection points: 2
#     Edge 61, Type (0, 0), BuildingBlock: OJICUG_clean_linker_0, # of connection points: 2
#     Edge 62, Type (0, 0), BuildingBlock: OJICUG_clean_linker_0, # of connection points: 2
#     Edge 63, Type (0, 0), BuildingBlock: OJICUG_clean_linker_0, # of connection points: 2
#     Edge 64, Type (0, 0), BuildingBlock: OJICUG_clean_linker_0, # of connection points: 2
#     Edge 65, Type (0, 0), BuildingBlock: OJICUG_clean_linker_0, # of connection points: 2
#     Edge 66, Type (0, 0), BuildingBlock: OJICUG_clean_linker_0, # of connection points: 2
#     Edge 67, Type (0, 0), BuildingBlock: OJICUG_clean_linker_0, # of connection points: 2
#     Edge 68, Type (0, 0), BuildingBlock: OJICUG_clean_linker_0, # of connection points: 2
#     Edge 69, Type (0, 0), BuildingBlock: OJICUG_clean_linker_0, # of connection points: 2
#     Edge 70, Type (0, 0), BuildingBlock: OJICUG_clean_linker_0, # of connection points: 2
#     Edge 71, Type (0, 0), BuildingBlock: OJICUG_clean_linker_0, # of connection points: 2
#     Edge 72, Type (0, 0), BuildingBlock: OJICUG_clean_linker_0, # of connection points: 2
#     Edge 73, Type (0, 0), BuildingBlock: OJICUG_clean_linker_0, # of connection points: 2
#     Edge 74, Type (0, 0), BuildingBlock: OJICUG_clean_linker_0, # of connection points: 2
#     Edge 75, Type (0, 0), BuildingBlock: OJICUG_clean_linker_0, # of connection points: 2
#     Edge 76, Type (0, 0), BuildingBlock: OJICUG_clean_linker_0, # of connection points: 2
#     Edge 77, Type (0, 0), BuildingBlock: OJICUG_clean_linker_0, # of connection points: 2
#     Edge 78, Type (0, 0), BuildingBlock: OJICUG_clean_linker_0, # of connection points: 2
#     Edge 79, Type (0, 0), BuildingBlock: OJICUG_clean_linker_0, # of connection points: 2
#     Edge 80, Type (0, 0), BuildingBlock: OJICUG_clean_linker_0, # of connection points: 2
#     Edge 81, Type (0, 0), BuildingBlock: OJICUG_clean_linker_0, # of connection points: 2
#     Edge 82, Type (0, 0), BuildingBlock: OJICUG_clean_linker_0, # of connection points: 2
#     Edge 83, Type (0, 0), BuildingBlock: OJICUG_clean_linker_0, # of connection points: 2
#     Edge 84, Type (0, 0), BuildingBlock: OJICUG_clean_linker_0, # of connection points: 2
#     Edge 85, Type (0, 0), BuildingBlock: OJICUG_clean_linker_0, # of connection points: 2
#     Edge 86, Type (0, 0), BuildingBlock: OJICUG_clean_linker_0, # of connection points: 2
#     Edge 87, Type (0, 0), BuildingBlock: OJICUG_clean_linker_0, # of connection points: 2
#     Edge 88, Type (0, 0), BuildingBlock: OJICUG_clean_linker_0, # of connection points: 2
#     Edge 89, Type (0, 0), BuildingBlock: OJICUG_clean_linker_0, # of connection points: 2
#     Edge 90, Type (0, 0), BuildingBlock: OJICUG_clean_linker_0, # of connection points: 2
#     Edge 91, Type (0, 0), BuildingBlock: OJICUG_clean_linker_0, # of connection points: 2
#     Edge 92, Type (0, 0), BuildingBlock: OJICUG_clean_linker_0, # of connection points: 2
#     Edge 93, Type (0, 0), BuildingBlock: OJICUG_clean_linker_0, # of connection points: 2
#     Edge 94, Type (0, 0), BuildingBlock: OJICUG_clean_linker_0, # of connection points: 2
#     Edge 95, Type (0, 0), BuildingBlock: OJICUG_clean_linker_0, # of connection points: 2
#     Edge 96, Type (0, 0), BuildingBlock: OJICUG_clean_linker_0, # of connection points: 2
#     Edge 97, Type (0, 0), BuildingBlock: OJICUG_clean_linker_0, # of connection points: 2
#     Edge 98, Type (0, 0), BuildingBlock: OJICUG_clean_linker_0, # of connection points: 2
#     Edge 99, Type (0, 0), BuildingBlock: OJICUG_clean_linker_0, # of connection points: 2
#     Edge 100, Type (0, 0), BuildingBlock: OJICUG_clean_linker_0, # of connection points: 2
#     Edge 101, Type (0, 0), BuildingBlock: OJICUG_clean_linker_0, # of connection points: 2
#     Edge 102, Type (0, 0), BuildingBlock: OJICUG_clean_linker_0, # of connection points: 2
#     Edge 103, Type (0, 0), BuildingBlock: OJICUG_clean_linker_0, # of connection points: 2
#     Edge 104, Type (0, 0), BuildingBlock: OJICUG_clean_linker_0, # of connection points: 2
#     Edge 105, Type (0, 0), BuildingBlock: OJICUG_clean_linker_0, # of connection points: 2
#     Edge 106, Type (0, 0), BuildingBlock: OJICUG_clean_linker_0, # of connection points: 2
#     Edge 107, Type (0, 0), BuildingBlock: OJICUG_clean_linker_0, # of connection points: 2
#     Edge 108, Type (0, 0), BuildingBlock: OJICUG_clean_linker_0, # of connection points: 2
#     Edge 109, Type (0, 0), BuildingBlock: OJICUG_clean_linker_0, # of connection points: 2
#     Edge 110, Type (0, 0), BuildingBlock: OJICUG_clean_linker_0, # of connection points: 2
#     Edge 111, Type (0, 0), BuildingBlock: OJICUG_clean_linker_0, # of connection points: 2
#     Edge 112, Type (0, 0), BuildingBlock: OJICUG_clean_linker_0, # of connection points: 2
#     Edge 113, Type (0, 0), BuildingBlock: OJICUG_clean_linker_0, # of connection points: 2
#     Edge 114, Type (0, 0), BuildingBlock: OJICUG_clean_linker_0, # of connection points: 2
#     Edge 115, Type (0, 0), BuildingBlock: OJICUG_clean_linker_0, # of connection points: 2
#     Edge 116, Type (0, 0), BuildingBlock: OJICUG_clean_linker_0, # of connection points: 2
#     Edge 117, Type (0, 0), BuildingBlock: OJICUG_clean_linker_0, # of connection points: 2
#     Edge 118, Type (0, 0), BuildingBlock: OJICUG_clean_linker_0, # of connection points: 2
#     Edge 119, Type (0, 0), BuildingBlock: OJICUG_clean_linker_0, # of connection points: 2
#     Edge 120, Type (0, 0), BuildingBlock: OJICUG_clean_linker_0, # of connection points: 2
#     Edge 121, Type (0, 0), BuildingBlock: OJICUG_clean_linker_0, # of connection points: 2
#     Edge 122, Type (0, 0), BuildingBlock: OJICUG_clean_linker_0, # of connection points: 2
#     Edge 123, Type (0, 0), BuildingBlock: OJICUG_clean_linker_0, # of connection points: 2
#     Edge 124, Type (0, 0), BuildingBlock: OJICUG_clean_linker_0, # of connection points: 2
#     Edge 125, Type (0, 0), BuildingBlock: OJICUG_clean_linker_0, # of connection points: 2
#     Edge 126, Type (0, 0), BuildingBlock: OJICUG_clean_linker_0, # of connection points: 2
#     Edge 127, Type (0, 0), BuildingBlock: OJICUG_clean_linker_0, # of connection points: 2
#     Edge 128, Type (0, 0), BuildingBlock: OJICUG_clean_linker_0, # of connection points: 2
#     Edge 129, Type (0, 0), BuildingBlock: OJICUG_clean_linker_0, # of connection points: 2
#     Edge 130, Type (0, 0), BuildingBlock: OJICUG_clean_linker_0, # of connection points: 2
#     Edge 131, Type (0, 0), BuildingBlock: OJICUG_clean_linker_0, # of connection points: 2
#     Edge 132, Type (0, 0), BuildingBlock: OJICUG_clean_linker_0, # of connection points: 2
#     Edge 133, Type (0, 0), BuildingBlock: OJICUG_clean_linker_0, # of connection points: 2
#     Edge 134, Type (0, 0), BuildingBlock: OJICUG_clean_linker_0, # of connection points: 2
#     Edge 135, Type (0, 0), BuildingBlock: OJICUG_clean_linker_0, # of connection points: 2
#     Edge 136, Type (0, 0), BuildingBlock: OJICUG_clean_linker_0, # of connection points: 2
#     Edge 137, Type (0, 0), BuildingBlock: OJICUG_clean_linker_0, # of connection points: 2
#     Edge 138, Type (0, 0), BuildingBlock: OJICUG_clean_linker_0, # of connection points: 2
#     Edge 139, Type (0, 0), BuildingBlock: OJICUG_clean_linker_0, # of connection points: 2
#     Edge 140, Type (0, 0), BuildingBlock: OJICUG_clean_linker_0, # of connection points: 2
#     Edge 141, Type (0, 0), BuildingBlock: OJICUG_clean_linker_0, # of connection points: 2
#     Edge 142, Type (0, 0), BuildingBlock: OJICUG_clean_linker_0, # of connection points: 2
#     Edge 143, Type (0, 0), BuildingBlock: OJICUG_clean_linker_0, # of connection points: 2
#     Edge 144, Type (0, 0), BuildingBlock: OJICUG_clean_linker_0, # of connection points: 2
#     Edge 145, Type (0, 0), BuildingBlock: OJICUG_clean_linker_0, # of connection points: 2
#     Edge 146, Type (0, 0), BuildingBlock: OJICUG_clean_linker_0, # of connection points: 2
#     Edge 147, Type (0, 0), BuildingBlock: OJICUG_clean_linker_0, # of connection points: 2
#     Edge 148, Type (0, 0), BuildingBlock: OJICUG_clean_linker_0, # of connection points: 2
#     Edge 149, Type (0, 0), BuildingBlock: OJICUG_clean_linker_0, # of connection points: 2
#     Edge 150, Type (0, 0), BuildingBlock: OJICUG_clean_linker_0, # of connection points: 2
#     Edge 151, Type (0, 0), BuildingBlock: OJICUG_clean_linker_0, # of connection points: 2
#     Edge 152, Type (0, 0), BuildingBlock: OJICUG_clean_linker_0, # of connection points: 2
#     Edge 153, Type (0, 0), BuildingBlock: OJICUG_clean_linker_0, # of connection points: 2
#     Edge 154, Type (0, 0), BuildingBlock: OJICUG_clean_linker_0, # of connection points: 2
#     Edge 155, Type (0, 0), BuildingBlock: OJICUG_clean_linker_0, # of connection points: 2
#     Edge 156, Type (0, 0), BuildingBlock: OJICUG_clean_linker_0, # of connection points: 2
#     Edge 157, Type (0, 0), BuildingBlock: OJICUG_clean_linker_0, # of connection points: 2
#     Edge 158, Type (0, 0), BuildingBlock: OJICUG_clean_linker_0, # of connection points: 2
#     Edge 159, Type (0, 0), BuildingBlock: OJICUG_clean_linker_0, # of connection points: 2
#     Edge 160, Type (0, 0), BuildingBlock: OJICUG_clean_linker_0, # of connection points: 2
#     Edge 161, Type (0, 0), BuildingBlock: OJICUG_clean_linker_0, # of connection points: 2
#     Edge 162, Type (0, 0), BuildingBlock: OJICUG_clean_linker_0, # of connection points: 2
#     Edge 163, Type (0, 0), BuildingBlock: OJICUG_clean_linker_0, # of connection points: 2
#     Edge 164, Type (0, 0), BuildingBlock: OJICUG_clean_linker_0, # of connection points: 2
#     Edge 165, Type (0, 0), BuildingBlock: OJICUG_clean_linker_0, # of connection points: 2
#     Edge 166, Type (0, 0), BuildingBlock: OJICUG_clean_linker_0, # of connection points: 2
#     Edge 167, Type (0, 0), BuildingBlock: OJICUG_clean_linker_0, # of connection points: 2
#     Edge 168, Type (0, 0), BuildingBlock: OJICUG_clean_linker_0, # of connection points: 2
#     Edge 169, Type (0, 0), BuildingBlock: OJICUG_clean_linker_0, # of connection points: 2
#     Edge 170, Type (0, 0), BuildingBlock: OJICUG_clean_linker_0, # of connection points: 2
#     Edge 171, Type (0, 0), BuildingBlock: OJICUG_clean_linker_0, # of connection points: 2
#     Edge 172, Type (0, 0), BuildingBlock: OJICUG_clean_linker_0, # of connection points: 2
#     Edge 173, Type (0, 0), BuildingBlock: OJICUG_clean_linker_0, # of connection points: 2
#     Edge 174, Type (0, 0), BuildingBlock: OJICUG_clean_linker_0, # of connection points: 2
#     Edge 175, Type (0, 0), BuildingBlock: OJICUG_clean_linker_0, # of connection points: 2
#     Edge 176, Type (0, 0), BuildingBlock: OJICUG_clean_linker_0, # of connection points: 2
#     Edge 177, Type (0, 0), BuildingBlock: OJICUG_clean_linker_0, # of connection points: 2
#     Edge 178, Type (0, 0), BuildingBlock: OJICUG_clean_linker_0, # of connection points: 2
#     Edge 179, Type (0, 0), BuildingBlock: OJICUG_clean_linker_0, # of connection points: 2
#     Edge 180, Type (0, 0), BuildingBlock: OJICUG_clean_linker_0, # of connection points: 2
#     Edge 181, Type (0, 0), BuildingBlock: OJICUG_clean_linker_0, # of connection points: 2
#     Edge 182, Type (0, 0), BuildingBlock: OJICUG_clean_linker_0, # of connection points: 2
#     Edge 183, Type (0, 0), BuildingBlock: OJICUG_clean_linker_0, # of connection points: 2
#     Edge 184, Type (0, 0), BuildingBlock: OJICUG_clean_linker_0, # of connection points: 2
#     Edge 185, Type (0, 0), BuildingBlock: OJICUG_clean_linker_0, # of connection points: 2
#     Edge 186, Type (0, 0), BuildingBlock: OJICUG_clean_linker_0, # of connection points: 2
#     Edge 187, Type (0, 0), BuildingBlock: OJICUG_clean_linker_0, # of connection points: 2
#     Edge 188, Type (0, 0), BuildingBlock: OJICUG_clean_linker_0, # of connection points: 2
#     Edge 189, Type (0, 0), BuildingBlock: OJICUG_clean_linker_0, # of connection points: 2
#     Edge 190, Type (0, 0), BuildingBlock: OJICUG_clean_linker_0, # of connection points: 2
#     Edge 191, Type (0, 0), BuildingBlock: OJICUG_clean_linker_0, # of connection points: 2
#     Edge 192, Type (0, 0), BuildingBlock: OJICUG_clean_linker_0, # of connection points: 2
#     Edge 193, Type (0, 0), BuildingBlock: OJICUG_clean_linker_0, # of connection points: 2
#     Edge 194, Type (0, 0), BuildingBlock: OJICUG_clean_linker_0, # of connection points: 2
#     Edge 195, Type (0, 0), BuildingBlock: OJICUG_clean_linker_0, # of connection points: 2
#     Edge 196, Type (0, 0), BuildingBlock: OJICUG_clean_linker_0, # of connection points: 2
#     Edge 197, Type (0, 0), BuildingBlock: OJICUG_clean_linker_0, # of connection points: 2
#     Edge 198, Type (0, 0), BuildingBlock: OJICUG_clean_linker_0, # of connection points: 2
#     Edge 199, Type (0, 0), BuildingBlock: OJICUG_clean_linker_0, # of connection points: 2
#     Edge 200, Type (0, 0), BuildingBlock: OJICUG_clean_linker_0, # of connection points: 2
#     Edge 201, Type (0, 0), BuildingBlock: OJICUG_clean_linker_0, # of connection points: 2
#     Edge 202, Type (0, 0), BuildingBlock: OJICUG_clean_linker_0, # of connection points: 2
#     Edge 203, Type (0, 0), BuildingBlock: OJICUG_clean_linker_0, # of connection points: 2
#     Edge 204, Type (0, 0), BuildingBlock: OJICUG_clean_linker_0, # of connection points: 2
#     Edge 205, Type (0, 0), BuildingBlock: OJICUG_clean_linker_0, # of connection points: 2
#     Edge 206, Type (0, 0), BuildingBlock: OJICUG_clean_linker_0, # of connection points: 2
#     Edge 207, Type (0, 0), BuildingBlock: OJICUG_clean_linker_0, # of connection points: 2
#     Edge 208, Type (0, 0), BuildingBlock: OJICUG_clean_linker_0, # of connection points: 2
#     Edge 209, Type (0, 0), BuildingBlock: OJICUG_clean_linker_0, # of connection points: 2
#     Edge 210, Type (0, 0), BuildingBlock: OJICUG_clean_linker_0, # of connection points: 2
#     Edge 211, Type (0, 0), BuildingBlock: OJICUG_clean_linker_0, # of connection points: 2
#     Edge 212, Type (0, 0), BuildingBlock: OJICUG_clean_linker_0, # of connection points: 2
#     Edge 213, Type (0, 0), BuildingBlock: OJICUG_clean_linker_0, # of connection points: 2
#     Edge 214, Type (0, 0), BuildingBlock: OJICUG_clean_linker_0, # of connection points: 2
#     Edge 215, Type (0, 0), BuildingBlock: OJICUG_clean_linker_0, # of connection points: 2
#     Edge 216, Type (0, 0), BuildingBlock: OJICUG_clean_linker_0, # of connection points: 2
#     Edge 217, Type (0, 0), BuildingBlock: OJICUG_clean_linker_0, # of connection points: 2
#     Edge 218, Type (0, 0), BuildingBlock: OJICUG_clean_linker_0, # of connection points: 2
#     Edge 219, Type (0, 0), BuildingBlock: OJICUG_clean_linker_0, # of connection points: 2
#     Edge 220, Type (0, 0), BuildingBlock: OJICUG_clean_linker_0, # of connection points: 2
#     Edge 221, Type (0, 0), BuildingBlock: OJICUG_clean_linker_0, # of connection points: 2
#     Edge 222, Type (0, 0), BuildingBlock: OJICUG_clean_linker_0, # of connection points: 2
#     Edge 223, Type (0, 0), BuildingBlock: OJICUG_clean_linker_0, # of connection points: 2
#     Edge 224, Type (0, 0), BuildingBlock: OJICUG_clean_linker_0, # of connection points: 2
#     Edge 225, Type (0, 0), BuildingBlock: OJICUG_clean_linker_0, # of connection points: 2
#     Edge 226, Type (0, 0), BuildingBlock: OJICUG_clean_linker_0, # of connection points: 2
#     Edge 227, Type (0, 0), BuildingBlock: OJICUG_clean_linker_0, # of connection points: 2
#     Edge 228, Type (0, 0), BuildingBlock: OJICUG_clean_linker_0, # of connection points: 2
#     Edge 229, Type (0, 0), BuildingBlock: OJICUG_clean_linker_0, # of connection points: 2
#     Edge 230, Type (0, 0), BuildingBlock: OJICUG_clean_linker_0, # of connection points: 2
#     Edge 231, Type (0, 0), BuildingBlock: OJICUG_clean_linker_0, # of connection points: 2
#     Edge 232, Type (0, 0), BuildingBlock: OJICUG_clean_linker_0, # of connection points: 2
#     Edge 233, Type (0, 0), BuildingBlock: OJICUG_clean_linker_0, # of connection points: 2
#     Edge 234, Type (0, 0), BuildingBlock: OJICUG_clean_linker_0, # of connection points: 2
#     Edge 235, Type (0, 0), BuildingBlock: OJICUG_clean_linker_0, # of connection points: 2
#     Edge 236, Type (0, 0), BuildingBlock: OJICUG_clean_linker_0, # of connection points: 2
#     Edge 237, Type (0, 0), BuildingBlock: OJICUG_clean_linker_0, # of connection points: 2
#     Edge 238, Type (0, 0), BuildingBlock: OJICUG_clean_linker_0, # of connection points: 2
#     Edge 239, Type (0, 0), BuildingBlock: OJICUG_clean_linker_0, # of connection points: 2
# Relax obj value: 0.346
# Max RMSD: 0.282
# Mean RMSD: 0.275
data_MOF--net-pyc--node1-EBIMEJ_clean_sbu_0--edge1-OJICUG_clean_linker_0
_symmetry_space_group_name_H-M    P1
_symmetry_Int_Tables_number       1
_symmetry_cell_setting            triclinic
loop_
_symmetry_equiv_pos_as_xyz
'x, y, z'
_cell_length_a     49.830226
_cell_length_b     49.648051
_cell_length_c     49.680132
_cell_angle_alpha  95.148611
_cell_angle_beta   86.037286
_cell_angle_gamma 94.555924
loop_
_atom_site_label
_atom_site_type_symbol
_atom_site_fract_x
_atom_site_fract_y
_atom_site_fract_z
_atom_type_partial_charge
Co0 Co 0.16851 0.19131 0.43297 0.0
Co1 Co 0.11219 0.15965 0.45138 0.0
Co2 Co 0.15924 0.12792 0.42803 0.0
H3 H 0.15638 0.15905 0.42803 0.0
O4 O 0.1412 0.16271 0.42221 0.0
H5 H 0.11457 0.1287 0.45118 0.0
O6 O 0.12988 0.12492 0.45641 0.0
Co7 Co 0.10121 0.0968 0.4494 0.0
O8 O 0.06773 0.11223 0.46932 0.0
O9 O 0.08341 0.155 0.48077 0.0
O10 O 0.12497 0.08044 0.41808 0.0
O11 O 0.16678 0.08972 0.43034 0.0
O12 O 0.17807 0.23122 0.44199 0.0
O13 O 0.16568 0.21715 0.40348 0.0
O14 O 0.08017 0.10214 0.41816 0.0
O15 O 0.08417 0.14759 0.42281 0.0
C16 C 0.20626 0.15574 0.39808 0.0
C17 C 0.12101 0.21486 0.46363 0.0
C18 C 0.10343 0.06516 0.48446 0.0
C19 C 0.1961 0.16037 0.46886 0.0
C20 C 0.06532 0.13542 0.48253 0.0
C21 C 0.14798 0.07256 0.42223 0.0
C22 C 0.17319 0.23735 0.41896 0.0
C23 C 0.07409 0.12486 0.41146 0.0
O24 O 0.20012 0.17869 0.40927 0.0
O25 O 0.19147 0.13365 0.40137 0.0
O26 O 0.1038 0.19806 0.45198 0.0
O27 O 0.14577 0.21001 0.46324 0.0
O28 O 0.08795 0.06096 0.46534 0.0
O29 O 0.11758 0.08709 0.48347 0.0
O30 O 0.19271 0.18341 0.46108 0.0
O31 O 0.18394 0.1386 0.45854 0.0
Co32 Co 0.85774 0.42414 0.70636 0.0
Co33 Co 0.88072 0.36784 0.7167 0.0
Co34 Co 0.91691 0.41111 0.68742 0.0
H35 H 0.88573 0.40974 0.694 0.0
O36 O 0.87762 0.39413 0.68914 0.0
H37 H 0.91186 0.36973 0.71272 0.0
O38 O 0.91953 0.38584 0.71569 0.0
Co39 Co 0.94147 0.35539 0.70986 0.0
O40 O 0.92328 0.32326 0.72924 0.0
O41 O 0.88504 0.34142 0.74487 0.0
O42 O 0.96837 0.37315 0.68249 0.0
O43 O 0.9578 0.4168 0.6815 0.0
O44 O 0.82665 0.44851 0.71561 0.0
O45 O 0.82572 0.4199 0.6822 0.0
O46 O 0.92909 0.33428 0.6764 0.0
O47 O 0.8845 0.33634 0.68587 0.0
C48 C 0.89127 0.45829 0.66636 0.0
C49 C 0.82661 0.37993 0.73546 0.0
C50 C 0.96931 0.35764 0.74955 0.0
C51 C 0.90175 0.4417 0.74017 0.0
C52 C 0.9017 0.32296 0.74489 0.0
C53 C 0.97435 0.39776 0.67682 0.0
C54 C 0.81349 0.43799 0.69618 0.0
C55 C 0.90487 0.32646 0.67146 0.0
O56 O 0.87159 0.45515 0.68391 0.0
O57 O 0.91011 0.44125 0.66253 0.0
O58 O 0.84026 0.36089 0.72314 0.0
O59 O 0.83491 0.40488 0.73508 0.0
O60 O 0.96664 0.33732 0.73265 0.0
O61 O 0.95677 0.37694 0.74348 0.0
O62 O 0.87782 0.43095 0.74014 0.0
O63 O 0.91759 0.44004 0.71885 0.0
Co64 Co 0.66834 0.19131 0.93264 0.0
Co65 Co 0.61201 0.15941 0.95133 0.0
Co66 Co 0.65926 0.12788 0.92815 0.0
H67 H 0.65628 0.15899 0.928 0.0
O68 O 0.64105 0.1625 0.92218 0.0
H69 H 0.61467 0.1285 0.95146 0.0
O70 O 0.63005 0.12495 0.9567 0.0
Co71 Co 0.60167 0.09645 0.94995 0.0
O72 O 0.56826 0.1116 0.97015 0.0
O73 O 0.58312 0.1548 0.98073 0.0
O74 O 0.62527 0.08027 0.91843 0.0
O75 O 0.66704 0.08975 0.93061 0.0
O76 O 0.67748 0.23136 0.94161 0.0
O77 O 0.66537 0.21706 0.90308 0.0
O78 O 0.58071 0.10128 0.91851 0.0
O79 O 0.58418 0.14674 0.92277 0.0
C80 C 0.70603 0.15561 0.89779 0.0
C81 C 0.62038 0.21482 0.96269 0.0
C82 C 0.60368 0.06477 0.98507 0.0
C83 C 0.69691 0.16058 0.96798 0.0
C84 C 0.56547 0.13489 0.98301 0.0
C85 C 0.64834 0.0725 0.92248 0.0
C86 C 0.67266 0.23737 0.91851 0.0
C87 C 0.57439 0.12382 0.91157 0.0
O88 O 0.6999 0.1786 0.9089 0.0
O89 O 0.6913 0.13353 0.90126 0.0
O90 O 0.60326 0.19766 0.95141 0.0
O91 O 0.64518 0.21013 0.96252 0.0
O92 O 0.58802 0.0608 0.9661 0.0
O93 O 0.61816 0.08649 0.98389 0.0
O94 O 0.69375 0.1835 0.95978 0.0
O95 O 0.68409 0.13885 0.95844 0.0
Co96 Co 0.85741 0.92381 0.20706 0.0
Co97 Co 0.88027 0.86733 0.21675 0.0
Co98 Co 0.91635 0.91043 0.18725 0.0
H99 H 0.8852 0.90931 0.19427 0.0
O100 O 0.87697 0.89376 0.18941 0.0
H101 H 0.91138 0.86917 0.21253 0.0
O102 O 0.91911 0.88524 0.21553 0.0
Co103 Co 0.94085 0.85467 0.20924 0.0
O104 O 0.92275 0.82244 0.2285 0.0
O105 O 0.88477 0.84077 0.24469 0.0
O106 O 0.96753 0.87212 0.1815 0.0
O107 O 0.95719 0.91586 0.18088 0.0
O108 O 0.82543 0.94673 0.2176 0.0
O109 O 0.82552 0.91999 0.18273 0.0
O110 O 0.92827 0.83378 0.1758 0.0
O111 O 0.88376 0.83586 0.18576 0.0
C112 C 0.89082 0.95755 0.16649 0.0
C113 C 0.82652 0.87951 0.23624 0.0
C114 C 0.96868 0.85703 0.24888 0.0
C115 C 0.90211 0.94251 0.23975 0.0
C116 C 0.90133 0.82218 0.24436 0.0
C117 C 0.97358 0.89674 0.17593 0.0
C118 C 0.81265 0.93695 0.19764 0.0
C119 C 0.90399 0.82598 0.17111 0.0
O120 O 0.87137 0.95463 0.18435 0.0
O121 O 0.90947 0.94037 0.16234 0.0
O122 O 0.83989 0.86047 0.22352 0.0
O123 O 0.83499 0.90444 0.23601 0.0
O124 O 0.96581 0.83657 0.23219 0.0
O125 O 0.95638 0.87641 0.2426 0.0
O126 O 0.87798 0.9323 0.24039 0.0
O127 O 0.91773 0.93974 0.21836 0.0
Co128 Co 0.07977 0.17006 0.81159 0.0
Co129 Co 0.10411 0.11418 0.83347 0.0
Co130 Co 0.14043 0.15747 0.80441 0.0
H131 H 0.10929 0.15563 0.80843 0.0
O132 O 0.10159 0.13957 0.80531 0.0
H133 H 0.13531 0.11545 0.82691 0.0
O134 O 0.14344 0.13103 0.83183 0.0
Co135 Co 0.16329 0.10101 0.8146 0.0
O136 O 0.14928 0.07008 0.83707 0.0
O137 O 0.11073 0.08405 0.85833 0.0
O138 O 0.18603 0.12033 0.7859 0.0
O139 O 0.18088 0.16432 0.79806 0.0
O140 O 0.05509 0.18839 0.78851 0.0
O141 O 0.06418 0.14845 0.77817 0.0
O142 O 0.14329 0.09374 0.78081 0.0
O143 O 0.10333 0.08526 0.802 0.0
C144 C 0.11948 0.20271 0.77678 0.0
C145 C 0.04684 0.12775 0.84441 0.0
C146 C 0.20764 0.08735 0.82479 0.0
C147 C 0.11651 0.1987 0.84992 0.0
C148 C 0.12953 0.06699 0.85455 0.0
C149 C 0.19449 0.14526 0.78574 0.0
C150 C 0.05211 0.16794 0.7718 0.0
C151 C 0.11926 0.08325 0.78076 0.0
O152 O 0.09797 0.20233 0.79253 0.0
O153 O 0.13611 0.18416 0.77649 0.0
O154 O 0.06323 0.10862 0.83937 0.0
O155 O 0.05299 0.15243 0.83911 0.0
O156 O 0.19451 0.07676 0.80539 0.0
O157 O 0.19534 0.10541 0.83875 0.0
O158 O 0.09225 0.19093 0.84511 0.0
O159 O 0.13679 0.18883 0.83537 0.0
Co160 Co 0.91932 0.42763 0.0706 0.0
Co161 Co 0.86124 0.39702 0.09277 0.0
Co162 Co 0.90812 0.36483 0.07005 0.0
H163 H 0.90585 0.39575 0.06952 0.0
O164 O 0.89054 0.39942 0.06423 0.0
H165 H 0.86391 0.36587 0.09323 0.0
O166 O 0.87905 0.36231 0.09917 0.0
Co167 Co 0.85165 0.33359 0.08879 0.0
O168 O 0.82033 0.34675 0.11255 0.0
O169 O 0.8291 0.39186 0.11964 0.0
O170 O 0.8747 0.31441 0.05904 0.0
O171 O 0.91655 0.32656 0.07046 0.0
O172 O 0.9332 0.46322 0.05442 0.0
O173 O 0.90312 0.43758 0.03648 0.0
O174 O 0.82626 0.34141 0.06165 0.0
O175 O 0.83639 0.38597 0.06251 0.0
C176 C 0.95526 0.38821 0.03872 0.0
C177 C 0.87275 0.4524 0.09764 0.0
C178 C 0.84713 0.28755 0.10292 0.0
C179 C 0.94584 0.40043 0.10966 0.0
C180 C 0.8143 0.36987 0.1234 0.0
C181 C 0.89942 0.30949 0.0591 0.0
C182 C 0.91763 0.45928 0.03536 0.0
C183 C 0.82335 0.36428 0.0532 0.0
O184 O 0.95292 0.41166 0.05143 0.0
O185 O 0.937 0.36882 0.04066 0.0
O186 O 0.85387 0.43518 0.08987 0.0
O187 O 0.8958 0.44462 0.10175 0.0
O188 O 0.84192 0.29364 0.07996 0.0
O189 O 0.85491 0.30777 0.11821 0.0
O190 O 0.93988 0.42294 0.10235 0.0
O191 O 0.93592 0.3775 0.09863 0.0
Co192 Co 0.57966 0.17001 0.3119 0.0
Co193 Co 0.60425 0.11428 0.33416 0.0
Co194 Co 0.64037 0.15755 0.30483 0.0
H195 H 0.60924 0.15565 0.30888 0.0
O196 O 0.60157 0.13955 0.3059 0.0
H197 H 0.63544 0.11562 0.3275 0.0
O198 O 0.64354 0.13124 0.33235 0.0
Co199 Co 0.66341 0.10122 0.31509 0.0
O200 O 0.6496 0.07029 0.33767 0.0
O201 O 0.61108 0.08419 0.35906 0.0
O202 O 0.68617 0.12057 0.28638 0.0
O203 O 0.68078 0.16455 0.29836 0.0
O204 O 0.55449 0.18806 0.28911 0.0
O205 O 0.56419 0.14835 0.27844 0.0
O206 O 0.64324 0.09414 0.28138 0.0
O207 O 0.60345 0.08532 0.30276 0.0
C208 C 0.61929 0.20242 0.2767 0.0
C209 C 0.5469 0.12773 0.34506 0.0
C210 C 0.7077 0.08726 0.32508 0.0
C211 C 0.61631 0.19892 0.35017 0.0
C212 C 0.62993 0.06717 0.35523 0.0
C213 C 0.69443 0.14554 0.28601 0.0
C214 C 0.5517 0.16767 0.27231 0.0
C215 C 0.61927 0.08349 0.28143 0.0
O216 O 0.59774 0.20211 0.2924 0.0
O217 O 0.63598 0.18398 0.27669 0.0
O218 O 0.56337 0.10865 0.3402 0.0
O219 O 0.55292 0.15236 0.33949 0.0
O220 O 0.69445 0.07676 0.30572 0.0
O221 O 0.69556 0.10539 0.33909 0.0
O222 O 0.59208 0.19107 0.34534 0.0
O223 O 0.63664 0.18905 0.33567 0.0
Co224 Co 0.919 0.92814 0.57165 0.0
Co225 Co 0.86151 0.89761 0.59431 0.0
Co226 Co 0.90771 0.86522 0.56975 0.0
H227 H 0.9056 0.89627 0.57003 0.0
O228 O 0.89018 0.90014 0.56517 0.0
H229 H 0.86442 0.86665 0.59514 0.0
O230 O 0.87997 0.86308 0.60011 0.0
Co231 Co 0.85185 0.8344 0.59286 0.0
O232 O 0.81887 0.84788 0.61314 0.0
O233 O 0.8298 0.89248 0.62191 0.0
O234 O 0.87192 0.81316 0.56251 0.0
O235 O 0.91522 0.82635 0.56873 0.0
O236 O 0.93382 0.96323 0.55507 0.0
O237 O 0.90215 0.9389 0.53827 0.0
O238 O 0.82777 0.84105 0.56352 0.0
O239 O 0.83626 0.8859 0.56458 0.0
C240 C 0.95409 0.88908 0.53778 0.0
C241 C 0.87259 0.95303 0.59905 0.0
C242 C 0.85186 0.7962 0.62119 0.0
C243 C 0.94627 0.89984 0.60931 0.0
C244 C 0.81385 0.87101 0.62467 0.0
C245 C 0.89694 0.80904 0.55938 0.0
C246 C 0.91753 0.95998 0.53661 0.0
C247 C 0.82412 0.86381 0.55497 0.0
O248 O 0.9519 0.9122 0.55119 0.0
O249 O 0.9359 0.86953 0.53959 0.0
O250 O 0.85373 0.93567 0.59145 0.0
O251 O 0.89579 0.94541 0.60291 0.0
O252 O 0.8309 0.80534 0.61412 0.0
O253 O 0.87288 0.80894 0.61239 0.0
O254 O 0.93947 0.92253 0.60323 0.0
O255 O 0.93671 0.87711 0.59747 0.0
Co256 Co 0.45123 0.19832 0.15158 0.0
Co257 Co 0.42935 0.1677 0.09698 0.0
Co258 Co 0.46054 0.13748 0.13411 0.0
H259 H 0.45662 0.16818 0.13541 0.0
O260 O 0.45984 0.17489 0.12004 0.0
H261 H 0.4306 0.13597 0.09723 0.0
O262 O 0.42802 0.13075 0.11344 0.0
Co263 Co 0.43142 0.10357 0.0837 0.0
O264 O 0.41464 0.11666 0.05256 0.0
O265 O 0.40185 0.15794 0.0685 0.0
O266 O 0.45981 0.08117 0.0957 0.0
O267 O 0.4646 0.09805 0.13873 0.0
O268 O 0.46426 0.23869 0.15705 0.0
O269 O 0.48261 0.21295 0.1271 0.0
O270 O 0.4628 0.11872 0.06163 0.0
O271 O 0.45932 0.16384 0.06694 0.0
C272 C 0.49186 0.16774 0.17688 0.0
C273 C 0.41516 0.22038 0.11849 0.0
C274 C 0.40049 0.06278 0.08934 0.0
C275 C 0.42264 0.15697 0.18244 0.0
C276 C 0.40207 0.13758 0.05036 0.0
C277 C 0.46774 0.07936 0.11933 0.0
C278 C 0.4823 0.23662 0.13809 0.0
C279 C 0.47065 0.14269 0.05605 0.0
O280 O 0.4758 0.18681 0.17852 0.0
O281 O 0.49135 0.14825 0.1579 0.0
O282 O 0.42556 0.20859 0.09612 0.0
O283 O 0.41565 0.20911 0.14047 0.0
O284 O 0.40989 0.06997 0.06678 0.0
O285 O 0.40853 0.07885 0.10855 0.0
O286 O 0.42425 0.1818 0.17776 0.0
O287 O 0.43588 0.13926 0.168 0.0
Co288 Co 0.91476 0.68966 0.33868 0.0
Co289 Co 0.86771 0.72076 0.37402 0.0
Co290 Co 0.89705 0.67837 0.39992 0.0
H291 H 0.89894 0.68503 0.36929 0.0
O292 O 0.88323 0.68579 0.36307 0.0
H293 H 0.86548 0.71408 0.40413 0.0
O294 O 0.88093 0.71288 0.41053 0.0
Co295 Co 0.84947 0.71085 0.43467 0.0
O296 O 0.82678 0.74098 0.42489 0.0
O297 O 0.85005 0.75477 0.38759 0.0
O298 O 0.85316 0.6747 0.45027 0.0
O299 O 0.89711 0.66849 0.43931 0.0
O300 O 0.92936 0.66645 0.30559 0.0
O301 O 0.89046 0.67923 0.30716 0.0
O302 O 0.82108 0.68712 0.41587 0.0
O303 O 0.83074 0.69939 0.37363 0.0
C304 C 0.93873 0.64673 0.36709 0.0
C305 C 0.88722 0.73697 0.32062 0.0
C306 C 0.87246 0.73576 0.47305 0.0
C307 C 0.94759 0.71335 0.38403 0.0
C308 C 0.8316 0.75792 0.40671 0.0
C309 C 0.87489 0.66364 0.45406 0.0
C310 C 0.90798 0.66613 0.29358 0.0
C311 C 0.81598 0.68605 0.39102 0.0
O312 O 0.94031 0.66337 0.34882 0.0
O313 O 0.91986 0.64673 0.38642 0.0
O314 O 0.86567 0.73135 0.33568 0.0
O315 O 0.90891 0.72527 0.32286 0.0
O316 O 0.85343 0.71778 0.47579 0.0
O317 O 0.87759 0.74022 0.44874 0.0
O318 O 0.94336 0.71121 0.35897 0.0
O319 O 0.932 0.70194 0.40195 0.0
Co320 Co 0.31631 0.09077 0.67381 0.0
Co321 Co 0.29164 0.13905 0.64249 0.0
Co322 Co 0.33161 0.10111 0.61101 0.0
H323 H 0.32312 0.10286 0.64274 0.0
O324 O 0.32347 0.11955 0.64959 0.0
H325 H 0.3003 0.13776 0.61192 0.0
O326 O 0.30047 0.12173 0.60381 0.0
Co327 Co 0.30813 0.15339 0.58341 0.0
O328 O 0.28292 0.18198 0.59808 0.0
O329 O 0.26129 0.16126 0.63259 0.0
O330 O 0.3462 0.14083 0.57833 0.0
O331 O 0.34314 0.09706 0.56999 0.0
O332 O 0.34631 0.07772 0.69541 0.0
O333 O 0.32685 0.11166 0.71018 0.0
O334 O 0.33989 0.16024 0.60649 0.0
O335 O 0.31595 0.17319 0.64276 0.0
C336 C 0.35572 0.05703 0.63869 0.0
C337 C 0.27697 0.13261 0.70042 0.0
C338 C 0.27707 0.15545 0.54622 0.0
C339 C 0.2864 0.06086 0.6275 0.0
C340 C 0.26328 0.18005 0.61595 0.0
C341 C 0.35033 0.12062 0.56142 0.0
C342 C 0.34499 0.09655 0.71394 0.0
C343 C 0.33628 0.17745 0.62645 0.0
O344 O 0.3379 0.05907 0.65848 0.0
O345 O 0.35899 0.07458 0.62056 0.0
O346 O 0.28133 0.1486 0.68151 0.0
O347 O 0.28666 0.10912 0.69889 0.0
O348 O 0.28822 0.17588 0.55889 0.0
O349 O 0.28415 0.134 0.55411 0.0
O350 O 0.28806 0.06743 0.65287 0.0
O351 O 0.30298 0.07039 0.60927 0.0
Co352 Co 0.94811 0.56726 0.91367 0.0
Co353 Co 0.91895 0.57651 0.85814 0.0
Co354 Co 0.88813 0.5481 0.9038 0.0
H355 H 0.91877 0.55617 0.90072 0.0
O356 O 0.92614 0.5517 0.88491 0.0
H357 H 0.88841 0.5668 0.86102 0.0
O358 O 0.88069 0.57229 0.87646 0.0
Co359 Co 0.86042 0.55069 0.84927 0.0
O360 O 0.8736 0.56829 0.81541 0.0
O361 O 0.90831 0.59772 0.8279 0.0
O362 O 0.83893 0.52373 0.87192 0.0
O363 O 0.84882 0.53982 0.91394 0.0
O364 O 0.98135 0.55168 0.9271 0.0
O365 O 0.96775 0.53802 0.88939 0.0
O366 O 0.88324 0.51922 0.84252 0.0
O367 O 0.92076 0.54358 0.83071 0.0
C368 C 0.91629 0.52872 0.94858 0.0
C369 C 0.96977 0.60106 0.87196 0.0
C370 C 0.81579 0.56372 0.83956 0.0
C371 C 0.90593 0.59745 0.94364 0.0
C372 C 0.89034 0.58846 0.81116 0.0
C373 C 0.83301 0.5265 0.89736 0.0
C374 C 0.98464 0.53548 0.90636 0.0
C375 C 0.90614 0.52112 0.82977 0.0
O376 O 0.93556 0.54716 0.94644 0.0
O377 O 0.89789 0.52438 0.93154 0.0
O378 O 0.9588 0.58716 0.85182 0.0
O379 O 0.95736 0.60201 0.89528 0.0
O380 O 0.82743 0.54464 0.8265 0.0
O381 O 0.82956 0.57539 0.85798 0.0
O382 O 0.93114 0.59662 0.93763 0.0
O383 O 0.88843 0.58031 0.93251 0.0
Co384 Co 0.15945 0.47345 0.17123 0.0
Co385 Co 0.13185 0.47711 0.11642 0.0
Co386 Co 0.1004 0.44889 0.16178 0.0
H387 H 0.13113 0.45815 0.15921 0.0
O388 O 0.13884 0.45271 0.14376 0.0
H389 H 0.1011 0.46926 0.11936 0.0
O390 O 0.09376 0.47394 0.13512 0.0
Co391 Co 0.07168 0.45813 0.10655 0.0
O392 O 0.08459 0.47767 0.07366 0.0
O393 O 0.12234 0.5006 0.08833 0.0
O394 O 0.06137 0.42341 0.12456 0.0
O395 O 0.06041 0.43872 0.16794 0.0
O396 O 0.19193 0.47872 0.19482 0.0
O397 O 0.19068 0.44914 0.16228 0.0
O398 O 0.08883 0.42896 0.08229 0.0
O399 O 0.13159 0.4448 0.08798 0.0
C400 C 0.12841 0.43532 0.20837 0.0
C401 C 0.18718 0.4981 0.12348 0.0
C402 C 0.03499 0.4896 0.11637 0.0
C403 C 0.11424 0.5038 0.19085 0.0
C404 C 0.10394 0.49598 0.07128 0.0
C405 C 0.04929 0.42454 0.14805 0.0
C406 C 0.20399 0.46017 0.18135 0.0
C407 C 0.11408 0.42783 0.07665 0.0
O408 O 0.14576 0.45509 0.2045 0.0
O409 O 0.11029 0.42694 0.19158 0.0
O410 O 0.17134 0.4852 0.10663 0.0
O411 O 0.18113 0.50054 0.1489 0.0
O412 O 0.03482 0.47056 0.09783 0.0
O413 O 0.05563 0.4903 0.1295 0.0
O414 O 0.13719 0.50533 0.17815 0.0
O415 O 0.0991 0.48165 0.1896 0.0
Co416 Co 0.67072 0.31271 0.08531 0.0
Co417 Co 0.62361 0.34613 0.12052 0.0
Co418 Co 0.65272 0.30332 0.14622 0.0
H419 H 0.65489 0.30996 0.11606 0.0
O420 O 0.63944 0.31146 0.10977 0.0
H421 H 0.62167 0.33929 0.15112 0.0
O422 O 0.63737 0.33838 0.1573 0.0
Co423 Co 0.60585 0.33463 0.18174 0.0
O424 O 0.58032 0.36101 0.17166 0.0
O425 O 0.60091 0.37784 0.13421 0.0
O426 O 0.61169 0.29905 0.19765 0.0
O427 O 0.65481 0.29265 0.18457 0.0
O428 O 0.6632 0.30633 0.04472 0.0
O429 O 0.64399 0.28131 0.07261 0.0
O430 O 0.57735 0.31308 0.16129 0.0
O431 O 0.58854 0.32278 0.1184 0.0
C432 C 0.68901 0.26613 0.11378 0.0
C433 C 0.64585 0.3608 0.0662 0.0
C434 C 0.61233 0.35803 0.22699 0.0
C435 C 0.7048 0.33728 0.12878 0.0
C436 C 0.58196 0.37775 0.15348 0.0
C437 C 0.63332 0.2872 0.19978 0.0
C438 C 0.64607 0.28677 0.04839 0.0
C439 C 0.57303 0.31118 0.13626 0.0
O440 O 0.69381 0.28293 0.09544 0.0
O441 O 0.67028 0.26922 0.13262 0.0
O442 O 0.62368 0.35637 0.08118 0.0
O443 O 0.66725 0.34886 0.06937 0.0
O444 O 0.59107 0.3578 0.21481 0.0
O445 O 0.62991 0.34493 0.21349 0.0
O446 O 0.69972 0.33595 0.10389 0.0
O447 O 0.68979 0.32447 0.14641 0.0
Co448 Co 0.71183 0.86945 0.43993 0.0
Co449 Co 0.68985 0.92226 0.41195 0.0
Co450 Co 0.73016 0.88491 0.3813 0.0
H451 H 0.72027 0.88527 0.41166 0.0
O452 O 0.7202 0.90128 0.4198 0.0
H453 H 0.69829 0.92058 0.38022 0.0
O454 O 0.69824 0.90389 0.3735 0.0
Co455 Co 0.70475 0.93273 0.3491 0.0
O456 O 0.68368 0.96481 0.36427 0.0
O457 O 0.66281 0.94944 0.40232 0.0
O458 O 0.73436 0.91462 0.32396 0.0
O459 O 0.74186 0.87621 0.34232 0.0
O460 O 0.72701 0.849 0.46941 0.0
O461 O 0.73884 0.8895 0.46605 0.0
O462 O 0.73298 0.95626 0.36986 0.0
O463 O 0.71896 0.95262 0.41361 0.0
C464 C 0.75832 0.84444 0.4082 0.0
C465 C 0.67067 0.90434 0.46405 0.0
C466 C 0.67621 0.92697 0.30872 0.0
C467 C 0.68786 0.83931 0.39423 0.0
C468 C 0.66607 0.96708 0.3842 0.0
C469 C 0.74511 0.89173 0.32292 0.0
C470 C 0.74174 0.86906 0.47837 0.0
C471 C 0.73512 0.9625 0.39523 0.0
O472 O 0.73826 0.84195 0.42547 0.0
O473 O 0.76045 0.86329 0.39171 0.0
O474 O 0.67873 0.92643 0.45267 0.0
O475 O 0.67429 0.88132 0.45135 0.0
O476 O 0.69609 0.91367 0.3113 0.0
O477 O 0.67295 0.94399 0.32866 0.0
O478 O 0.68355 0.84761 0.41899 0.0
O479 O 0.70643 0.85046 0.37908 0.0
Co480 Co 0.15995 0.97387 0.67144 0.0
Co481 Co 0.13229 0.97716 0.61682 0.0
Co482 Co 0.10108 0.94869 0.66227 0.0
H483 H 0.13175 0.95821 0.65958 0.0
O484 O 0.13944 0.95276 0.64411 0.0
H485 H 0.10155 0.96937 0.61982 0.0
O486 O 0.09425 0.97382 0.63566 0.0
Co487 Co 0.072 0.95871 0.60696 0.0
O488 O 0.08488 0.97852 0.57418 0.0
O489 O 0.12278 1.00096 0.58901 0.0
O490 O 0.06246 0.92364 0.6246 0.0
O491 O 0.06106 0.93808 0.6682 0.0
O492 O 0.19258 0.97923 0.69481 0.0
O493 O 0.19113 0.94954 0.66236 0.0
O494 O 0.08885 0.9296 0.58248 0.0
O495 O 0.13177 0.94495 0.58814 0.0
C496 C 0.12943 0.93614 0.70923 0.0
C497 C 0.1876 0.99831 0.62356 0.0
C498 C 0.03533 0.99018 0.6169 0.0
C499 C 0.11435 1.00377 0.69114 0.0
C500 C 0.10439 0.99669 0.57195 0.0
C501 C 0.05011 0.92431 0.64794 0.0
C502 C 0.20455 0.96063 0.68133 0.0
C503 C 0.11405 0.92826 0.57674 0.0
O504 O 0.14644 0.95612 0.70508 0.0
O505 O 0.11141 0.92717 0.69244 0.0
O506 O 0.17174 0.98524 0.60684 0.0
O507 O 0.18164 1.00087 0.64899 0.0
O508 O 0.03517 0.97122 0.59828 0.0
O509 O 0.05596 0.99082 0.63003 0.0
O510 O 0.13733 1.0055 0.67851 0.0
O511 O 0.09942 0.98149 0.68992 0.0
Co512 Co 0.58839 0.42111 0.43865 0.0
Co513 Co 0.55976 0.38742 0.38779 0.0
Co514 Co 0.59122 0.35717 0.4247 0.0
H515 H 0.58963 0.38888 0.42474 0.0
O516 O 0.5922 0.39428 0.4086 0.0
H517 H 0.56376 0.35673 0.38641 0.0
O518 O 0.56063 0.34997 0.40177 0.0
Co519 Co 0.56912 0.32658 0.37019 0.0
O520 O 0.54454 0.33807 0.34328 0.0
O521 O 0.52898 0.37662 0.36394 0.0
O522 O 0.60482 0.31575 0.38096 0.0
O523 O 0.59525 0.31631 0.42536 0.0
O524 O 0.60947 0.45507 0.45545 0.0
O525 O 0.61108 0.4459 0.41371 0.0
O526 O 0.59601 0.3432 0.34402 0.0
O527 O 0.58445 0.38576 0.35386 0.0
C528 C 0.61845 0.38718 0.47142 0.0
C529 C 0.55216 0.44534 0.40296 0.0
C530 C 0.53812 0.28828 0.38383 0.0
C531 C 0.55029 0.38133 0.46667 0.0
C532 C 0.52847 0.35715 0.34494 0.0
C533 C 0.60555 0.30455 0.40294 0.0
C534 C 0.6189 0.46217 0.43286 0.0
C535 C 0.59764 0.36803 0.33936 0.0
O536 O 0.6056 0.40797 0.46949 0.0
O537 O 0.6188 0.36695 0.45313 0.0
O538 O 0.55556 0.42688 0.38338 0.0
O539 O 0.55974 0.4432 0.42667 0.0
O540 O 0.55622 0.28616 0.36494 0.0
O541 O 0.5377 0.312 0.39466 0.0
O542 O 0.558 0.40554 0.46179 0.0
O543 O 0.56138 0.36045 0.45486 0.0
Co544 Co 0.17075 0.81256 0.08481 0.0
Co545 Co 0.12359 0.84606 0.11992 0.0
Co546 Co 0.15275 0.80339 0.14572 0.0
H547 H 0.15489 0.80992 0.11555 0.0
O548 O 0.13943 0.81138 0.10925 0.0
H549 H 0.12172 0.83938 0.15056 0.0
O550 O 0.13743 0.83849 0.1567 0.0
Co551 Co 0.10593 0.83492 0.18122 0.0
O552 O 0.08035 0.86117 0.17106 0.0
O553 O 0.10089 0.8778 0.1335 0.0
O554 O 0.11182 0.79939 0.19713 0.0
O555 O 0.15495 0.79298 0.18407 0.0
O556 O 0.16304 0.80602 0.04427 0.0
O557 O 0.14429 0.78085 0.07229 0.0
O558 O 0.07731 0.81335 0.16095 0.0
O559 O 0.08853 0.82265 0.11794 0.0
C560 C 0.18898 0.76603 0.11337 0.0
C561 C 0.1458 0.86064 0.06573 0.0
C562 C 0.11246 0.85835 0.22644 0.0
C563 C 0.20491 0.83715 0.12817 0.0
C564 C 0.08196 0.8778 0.15278 0.0
C565 C 0.13347 0.78761 0.1993 0.0
C566 C 0.14616 0.78627 0.04806 0.0
C567 C 0.07299 0.81124 0.13591 0.0
O568 O 0.19379 0.78277 0.09498 0.0
O569 O 0.17028 0.76922 0.13223 0.0
O570 O 0.1236 0.85613 0.0806 0.0
O571 O 0.16722 0.84874 0.06896 0.0
O572 O 0.09118 0.8581 0.21429 0.0
O573 O 0.13004 0.84528 0.21292 0.0
O574 O 0.19985 0.83578 0.10327 0.0
O575 O 0.18982 0.82446 0.14582 0.0
Co576 Co 0.08717 0.42058 0.94058 0.0
Co577 Co 0.05989 0.38736 0.88857 0.0
Co578 Co 0.09157 0.35685 0.92508 0.0
H579 H 0.08947 0.38866 0.92588 0.0
O580 O 0.09213 0.39444 0.9099 0.0
H581 H 0.06424 0.35672 0.88673 0.0
O582 O 0.06112 0.34976 0.90199 0.0
Co583 Co 0.06978 0.32678 0.87017 0.0
O584 O 0.04536 0.3384 0.84321 0.0
O585 O 0.02939 0.37656 0.8643 0.0
O586 O 0.10544 0.31567 0.88073 0.0
O587 O 0.09589 0.31599 0.92513 0.0
O588 O 0.08705 0.46158 0.94845 0.0
O589 O 0.12179 0.44473 0.93132 0.0
O590 O 0.09652 0.34405 0.84428 0.0
O591 O 0.08484 0.38652 0.85476 0.0
C592 C 0.11959 0.38669 0.97155 0.0
C593 C 0.04893 0.44304 0.90591 0.0
C594 C 0.03852 0.28851 0.88354 0.0
C595 C 0.05063 0.3794 0.96814 0.0
C596 C 0.02913 0.35733 0.84504 0.0
C597 C 0.1062 0.30437 0.90266 0.0
C598 C 0.11098 0.46617 0.93962 0.0
C599 C 0.09806 0.36899 0.84 0.0
O600 O 0.10706 0.40771 0.96973 0.0
O601 O 0.11909 0.36623 0.95355 0.0
O602 O 0.05501 0.42683 0.88512 0.0
O603 O 0.05522 0.43879 0.92957 0.0
O604 O 0.05661 0.28642 0.86464 0.0
O605 O 0.03827 0.31218 0.89455 0.0
O606 O 0.05802 0.40385 0.96414 0.0
O607 O 0.06167 0.359 0.9553 0.0
Co608 Co 0.07973 0.6704 0.31093 0.0
Co609 Co 0.10428 0.61484 0.33297 0.0
Co610 Co 0.14053 0.65821 0.30415 0.0
H611 H 0.10937 0.65619 0.30793 0.0
O612 O 0.10181 0.64008 0.30471 0.0
H613 H 0.13555 0.61622 0.32662 0.0
O614 O 0.14355 0.63185 0.33162 0.0
Co615 Co 0.16375 0.60196 0.31454 0.0
O616 O 0.14956 0.57119 0.33713 0.0
O617 O 0.11075 0.58495 0.35798 0.0
O618 O 0.1866 0.62153 0.28605 0.0
O619 O 0.18093 0.66544 0.29809 0.0
O620 O 0.05473 0.68845 0.28797 0.0
O621 O 0.06417 0.64862 0.27758 0.0
O622 O 0.14394 0.5939 0.28066 0.0
O623 O 0.10376 0.58579 0.3016 0.0
C624 C 0.11949 0.70299 0.27607 0.0
C625 C 0.04702 0.6281 0.3438 0.0
C626 C 0.20828 0.58838 0.32449 0.0
C627 C 0.11603 0.69932 0.3495 0.0
C628 C 0.12964 0.56804 0.35441 0.0
C629 C 0.19474 0.64654 0.28579 0.0
C630 C 0.05184 0.66798 0.27129 0.0
C631 C 0.11988 0.58347 0.28053 0.0
O632 O 0.09786 0.70257 0.29164 0.0
O633 O 0.13625 0.68464 0.27608 0.0
O634 O 0.06344 0.60905 0.33861 0.0
O635 O 0.05311 0.65283 0.33863 0.0
O636 O 0.1975 0.58214 0.30246 0.0
O637 O 0.19354 0.60204 0.34114 0.0
O638 O 0.09185 0.69139 0.34452 0.0
O639 O 0.13646 0.68958 0.33507 0.0
Co640 Co 0.4195 0.92791 0.07209 0.0
Co641 Co 0.36166 0.8968 0.0933 0.0
Co642 Co 0.40885 0.86501 0.07063 0.0
H643 H 0.40637 0.89593 0.07044 0.0
O644 O 0.3911 0.89955 0.06501 0.0
H645 H 0.36448 0.86568 0.09358 0.0
O646 O 0.3796 0.86211 0.09956 0.0
Co647 Co 0.3523 0.83342 0.08884 0.0
O648 O 0.3207 0.8463 0.11241 0.0
O649 O 0.32942 0.89136 0.11994 0.0
O650 O 0.37555 0.81467 0.05899 0.0
O651 O 0.41736 0.82671 0.07064 0.0
O652 O 0.43274 0.96379 0.05623 0.0
O653 O 0.40312 0.93768 0.03805 0.0
O654 O 0.32684 0.84133 0.0618 0.0
O655 O 0.33701 0.88588 0.06281 0.0
C656 C 0.45574 0.88923 0.03941 0.0
C657 C 0.37259 0.95233 0.09889 0.0
C658 C 0.34791 0.78726 0.10262 0.0
C659 C 0.44643 0.90042 0.11061 0.0
C660 C 0.31459 0.86934 0.12339 0.0
C661 C 0.40025 0.80972 0.05911 0.0
C662 C 0.41724 0.95963 0.03712 0.0
C663 C 0.32396 0.86422 0.05341 0.0
O664 O 0.45308 0.91252 0.05234 0.0
O665 O 0.43787 0.86949 0.04141 0.0
O666 O 0.35407 0.93492 0.09064 0.0
O667 O 0.39578 0.9449 0.10309 0.0
O668 O 0.34284 0.79348 0.07968 0.0
O669 O 0.35547 0.80742 0.11811 0.0
O670 O 0.44028 0.92299 0.10362 0.0
O671 O 0.43658 0.87754 0.09937 0.0
Co672 Co 0.16854 0.69073 0.93201 0.0
Co673 Co 0.11228 0.65835 0.95019 0.0
Co674 Co 0.1599 0.62727 0.9256 0.0
H675 H 0.15667 0.65844 0.9266 0.0
O676 O 0.14135 0.66206 0.92104 0.0
H677 H 0.11469 0.62748 0.94987 0.0
O678 O 0.1302 0.62334 0.95434 0.0
Co679 Co 0.09997 0.59605 0.9489 0.0
O680 O 0.06652 0.61107 0.96865 0.0
O681 O 0.08331 0.65352 0.97973 0.0
O682 O 0.12645 0.59038 0.91665 0.0
O683 O 0.16782 0.58878 0.92596 0.0
O684 O 0.17748 0.73077 0.94131 0.0
O685 O 0.16537 0.71673 0.90271 0.0
O686 O 0.07803 0.601 0.91839 0.0
O687 O 0.08431 0.64641 0.92139 0.0
C688 C 0.20657 0.65608 0.89642 0.0
C689 C 0.12074 0.71372 0.96262 0.0
C690 C 0.10228 0.56371 0.98336 0.0
C691 C 0.19697 0.65894 0.96664 0.0
C692 C 0.06471 0.63439 0.98167 0.0
C693 C 0.14581 0.57594 0.91953 0.0
C694 C 0.17256 0.73695 0.91831 0.0
C695 C 0.07319 0.62377 0.9108 0.0
O696 O 0.20047 0.67874 0.90838 0.0
O697 O 0.19175 0.63392 0.89892 0.0
O698 O 0.10363 0.69673 0.9511 0.0
O699 O 0.14555 0.70905 0.96233 0.0
O700 O 0.08389 0.56221 0.96707 0.0
O701 O 0.11916 0.58331 0.97989 0.0
O702 O 0.19333 0.68211 0.95933 0.0
O703 O 0.18476 0.63724 0.95616 0.0
Co704 Co 0.35737 0.92329 0.70706 0.0
Co705 Co 0.38041 0.86707 0.71736 0.0
Co706 Co 0.41667 0.91031 0.6884 0.0
H707 H 0.38545 0.90896 0.69483 0.0
O708 O 0.37738 0.89336 0.68986 0.0
H709 H 0.41157 0.86901 0.71348 0.0
O710 O 0.41917 0.8851 0.71666 0.0
Co711 Co 0.44119 0.85475 0.71036 0.0
O712 O 0.42301 0.82259 0.72961 0.0
O713 O 0.38474 0.84063 0.7454 0.0
O714 O 0.46783 0.87234 0.68269 0.0
O715 O 0.45749 0.91611 0.68271 0.0
O716 O 0.32586 0.94707 0.71679 0.0
O717 O 0.32555 0.91944 0.68261 0.0
O718 O 0.42887 0.83393 0.67675 0.0
O719 O 0.3843 0.83571 0.68646 0.0
C720 C 0.39133 0.95716 0.66711 0.0
C721 C 0.32622 0.87891 0.7358 0.0
C722 C 0.4691 0.85706 0.74999 0.0
C723 C 0.40125 0.94117 0.741 0.0
C724 C 0.40146 0.82223 0.74529 0.0
C725 C 0.4739 0.89706 0.6775 0.0
C726 C 0.31297 0.937 0.69701 0.0
C727 C 0.40465 0.82603 0.67189 0.0
O728 O 0.37152 0.95411 0.68453 0.0
O729 O 0.41013 0.94016 0.66339 0.0
O730 O 0.33998 0.85996 0.72352 0.0
O731 O 0.33449 0.90389 0.73562 0.0
O732 O 0.46626 0.83665 0.73322 0.0
O733 O 0.45671 0.87641 0.74379 0.0
O734 O 0.37729 0.9305 0.74092 0.0
O735 O 0.4172 0.93933 0.71977 0.0
Co736 Co 0.58886 0.92118 0.9391 0.0
Co737 Co 0.5602 0.88733 0.88832 0.0
Co738 Co 0.59164 0.85717 0.92529 0.0
H739 H 0.59005 0.88889 0.92529 0.0
O740 O 0.59262 0.89424 0.90914 0.0
H741 H 0.56429 0.85666 0.88689 0.0
O742 O 0.56115 0.84988 0.90224 0.0
Co743 Co 0.56974 0.82657 0.8706 0.0
O744 O 0.54514 0.83803 0.84369 0.0
O745 O 0.52946 0.87648 0.86443 0.0
O746 O 0.60548 0.81605 0.88158 0.0
O747 O 0.59571 0.81631 0.92592 0.0
O748 O 0.61005 0.95516 0.95576 0.0
O749 O 0.61144 0.94594 0.91403 0.0
O750 O 0.59669 0.8433 0.84455 0.0
O751 O 0.58494 0.88579 0.85446 0.0
C752 C 0.61865 0.88725 0.97214 0.0
C753 C 0.55248 0.94524 0.90341 0.0
C754 C 0.53868 0.78816 0.88389 0.0
C755 C 0.55057 0.88141 0.96701 0.0
C756 C 0.52902 0.85705 0.84539 0.0
C757 C 0.60608 0.80465 0.90347 0.0
C758 C 0.61935 0.96223 0.93312 0.0
C759 C 0.59824 0.86816 0.83997 0.0
O760 O 0.60588 0.90808 0.97007 0.0
O761 O 0.61906 0.867 0.95388 0.0
O762 O 0.55592 0.92674 0.88388 0.0
O763 O 0.5602 0.94327 0.92709 0.0
O764 O 0.55672 0.78621 0.86492 0.0
O765 O 0.53837 0.81178 0.89501 0.0
O766 O 0.55836 0.90559 0.96211 0.0
O767 O 0.56166 0.86049 0.95531 0.0
Co768 Co 0.1714 0.3123 0.58692 0.0
Co769 Co 0.12465 0.3473 0.62122 0.0
Co770 Co 0.15305 0.30414 0.64757 0.0
H771 H 0.15523 0.31036 0.61749 0.0
O772 O 0.13997 0.3122 0.61095 0.0
H773 H 0.12223 0.34039 0.65186 0.0
O774 O 0.13785 0.3394 0.65823 0.0
Co775 Co 0.10608 0.33564 0.68234 0.0
O776 O 0.08083 0.36204 0.67174 0.0
O777 O 0.10199 0.37913 0.63464 0.0
O778 O 0.11182 0.30016 0.69863 0.0
O779 O 0.15504 0.29389 0.68596 0.0
O780 O 0.16503 0.3044 0.54629 0.0
O781 O 0.14361 0.28151 0.57464 0.0
O782 O 0.07811 0.31387 0.6613 0.0
O783 O 0.08944 0.32422 0.6186 0.0
C784 C 0.18924 0.26614 0.6157 0.0
C785 C 0.14857 0.36078 0.56713 0.0
C786 C 0.11228 0.35907 0.72763 0.0
C787 C 0.20556 0.33738 0.62994 0.0
C788 C 0.08276 0.37891 0.65365 0.0
C789 C 0.13345 0.28837 0.70096 0.0
C790 C 0.14688 0.28586 0.55015 0.0
C791 C 0.07393 0.31225 0.63623 0.0
O792 O 0.19423 0.28266 0.59718 0.0
O793 O 0.17049 0.26966 0.63446 0.0
O794 O 0.12584 0.35767 0.58159 0.0
O795 O 0.16952 0.34947 0.57295 0.0
O796 O 0.09094 0.35846 0.71549 0.0
O797 O 0.13007 0.34632 0.71407 0.0
O798 O 0.20067 0.33558 0.60499 0.0
O799 O 0.19026 0.32509 0.64773 0.0
Co800 Co 0.41506 0.69012 0.83996 0.0
Co801 Co 0.36841 0.72175 0.87558 0.0
Co802 Co 0.39723 0.67873 0.90122 0.0
H803 H 0.39924 0.68559 0.87062 0.0
O804 O 0.38355 0.68661 0.86446 0.0
H805 H 0.36609 0.715 0.90568 0.0
O806 O 0.38149 0.71344 0.91205 0.0
Co807 Co 0.35003 0.71211 0.9363 0.0
O808 O 0.32702 0.74194 0.9261 0.0
O809 O 0.35089 0.75589 0.88921 0.0
O810 O 0.35345 0.67589 0.95214 0.0
O811 O 0.39706 0.6684 0.94051 0.0
O812 O 0.42983 0.66703 0.80682 0.0
O813 O 0.39096 0.67985 0.80822 0.0
O814 O 0.32099 0.68913 0.91747 0.0
O815 O 0.33135 0.70085 0.87513 0.0
C816 C 0.43872 0.64692 0.86821 0.0
C817 C 0.38773 0.73761 0.822 0.0
C818 C 0.37463 0.73794 0.97331 0.0
C819 C 0.44795 0.71348 0.88546 0.0
C820 C 0.33196 0.75886 0.90787 0.0
C821 C 0.37483 0.66391 0.95537 0.0
C822 C 0.40854 0.66681 0.79467 0.0
C823 C 0.31613 0.68803 0.89254 0.0
O824 O 0.44045 0.66366 0.85003 0.0
O825 O 0.4198 0.64693 0.8875 0.0
O826 O 0.36629 0.73235 0.8373 0.0
O827 O 0.40932 0.7257 0.82406 0.0
O828 O 0.3575 0.71836 0.97691 0.0
O829 O 0.37676 0.74346 0.94911 0.0
O830 O 0.44364 0.71153 0.86042 0.0
O831 O 0.43238 0.70199 0.90335 0.0
Co832 Co 0.949 0.0669 0.41392 0.0
Co833 Co 0.91931 0.07691 0.35892 0.0
Co834 Co 0.88887 0.04774 0.40429 0.0
H835 H 0.91952 0.05592 0.4011 0.0
O836 O 0.92678 0.05168 0.3852 0.0
H837 H 0.88884 0.0667 0.36165 0.0
O838 O 0.88108 0.07198 0.37714 0.0
Co839 Co 0.86094 0.05039 0.34981 0.0
O840 O 0.87361 0.0693 0.31657 0.0
O841 O 0.90825 0.09872 0.32934 0.0
O842 O 0.83975 0.0231 0.37239 0.0
O843 O 0.84957 0.03907 0.41447 0.0
O844 O 0.98607 0.05461 0.42218 0.0
O845 O 0.96492 0.0348 0.39078 0.0
O846 O 0.8842 0.01939 0.34159 0.0
O847 O 0.92149 0.04464 0.33068 0.0
C848 C 0.9174 0.02841 0.44891 0.0
C849 C 0.9702 0.10171 0.37304 0.0
C850 C 0.81597 0.06298 0.34045 0.0
C851 C 0.90672 0.09682 0.4444 0.0
C852 C 0.89006 0.08981 0.31273 0.0
C853 C 0.83384 0.02566 0.39784 0.0
C854 C 0.98574 0.03558 0.40364 0.0
C855 C 0.90715 0.02202 0.32902 0.0
O856 O 0.93672 0.04678 0.44668 0.0
O857 O 0.89892 0.02407 0.43195 0.0
O858 O 0.95914 0.08812 0.35277 0.0
O859 O 0.95798 0.10216 0.39644 0.0
O860 O 0.82774 0.04406 0.32726 0.0
O861 O 0.82977 0.07469 0.35883 0.0
O862 O 0.93194 0.09577 0.43857 0.0
O863 O 0.88913 0.07993 0.43303 0.0
Co864 Co 0.45143 0.6988 0.65166 0.0
Co865 Co 0.42982 0.66825 0.59692 0.0
Co866 Co 0.46126 0.63812 0.63389 0.0
H867 H 0.45706 0.66877 0.63536 0.0
O868 O 0.46024 0.67559 0.62004 0.0
H869 H 0.43169 0.63658 0.59675 0.0
O870 O 0.42902 0.63108 0.61284 0.0
Co871 Co 0.43341 0.60447 0.58267 0.0
O872 O 0.41604 0.61753 0.55189 0.0
O873 O 0.40239 0.65834 0.56838 0.0
O874 O 0.46217 0.5826 0.5948 0.0
O875 O 0.46566 0.59871 0.63824 0.0
O876 O 0.46441 0.73918 0.6573 0.0
O877 O 0.4828 0.71359 0.62725 0.0
O878 O 0.46385 0.62043 0.5598 0.0
O879 O 0.45987 0.6654 0.56697 0.0
C880 C 0.49216 0.66844 0.67699 0.0
C881 C 0.41514 0.72064 0.61869 0.0
C882 C 0.40324 0.56319 0.58854 0.0
C883 C 0.42306 0.65712 0.68226 0.0
C884 C 0.40289 0.63814 0.55007 0.0
C885 C 0.46943 0.58038 0.61862 0.0
C886 C 0.48247 0.73721 0.63835 0.0
C887 C 0.47133 0.64475 0.55517 0.0
O888 O 0.47596 0.6874 0.67866 0.0
O889 O 0.49185 0.64905 0.65791 0.0
O890 O 0.4256 0.70902 0.59629 0.0
O891 O 0.41571 0.70927 0.6406 0.0
O892 O 0.41281 0.57015 0.56593 0.0
O893 O 0.41073 0.5797 0.60763 0.0
O894 O 0.42455 0.68198 0.6777 0.0
O895 O 0.43639 0.63952 0.66772 0.0
Co896 Co 0.91489 0.19064 0.83969 0.0
Co897 Co 0.8679 0.22179 0.87515 0.0
Co898 Co 0.89699 0.17894 0.90083 0.0
H899 H 0.89899 0.18587 0.87025 0.0
O900 O 0.8833 0.18677 0.86403 0.0
H901 H 0.86563 0.21503 0.90527 0.0
O902 O 0.88106 0.21356 0.91162 0.0
Co903 Co 0.84966 0.21212 0.93593 0.0
O904 O 0.8266 0.24194 0.9258 0.0
O905 O 0.8503 0.25584 0.88879 0.0
O906 O 0.85316 0.17592 0.95177 0.0
O907 O 0.8968 0.16858 0.94014 0.0
O908 O 0.92975 0.16762 0.80657 0.0
O909 O 0.8909 0.18047 0.80787 0.0
O910 O 0.82066 0.18904 0.9172 0.0
O911 O 0.83081 0.20067 0.87477 0.0
C912 C 0.93867 0.14738 0.86782 0.0
C913 C 0.88747 0.2381 0.8217 0.0
C914 C 0.87414 0.23783 0.97306 0.0
C915 C 0.94761 0.21402 0.88527 0.0
C916 C 0.83147 0.25884 0.90755 0.0
C917 C 0.87458 0.16404 0.95503 0.0
C918 C 0.90851 0.16744 0.79435 0.0
C919 C 0.81568 0.18784 0.89229 0.0
O920 O 0.94035 0.16419 0.84971 0.0
O921 O 0.91972 0.14727 0.88709 0.0
O922 O 0.86593 0.23258 0.83682 0.0
O923 O 0.9091 0.22629 0.82389 0.0
O924 O 0.87644 0.24336 0.94886 0.0
O925 O 0.8569 0.21833 0.97659 0.0
O926 O 0.94332 0.21218 0.86022 0.0
O927 O 0.93207 0.20235 0.90307 0.0
Co928 Co 0.95107 0.69825 0.15082 0.0
Co929 Co 0.9292 0.66782 0.09614 0.0
Co930 Co 0.9607 0.63754 0.13296 0.0
H931 H 0.95659 0.66821 0.13446 0.0
O932 O 0.95973 0.67504 0.11914 0.0
H933 H 0.93088 0.63611 0.09599 0.0
O934 O 0.9283 0.63066 0.11211 0.0
Co935 Co 0.9322 0.60389 0.08202 0.0
O936 O 0.91497 0.61709 0.0512 0.0
O937 O 0.90168 0.65805 0.06765 0.0
O938 O 0.96081 0.58173 0.09402 0.0
O939 O 0.965 0.5981 0.13729 0.0
O940 O 0.96413 0.7386 0.15648 0.0
O941 O 0.98247 0.71298 0.12642 0.0
O942 O 0.96274 0.61964 0.05919 0.0
O943 O 0.95913 0.66469 0.06603 0.0
C944 C 0.99184 0.66776 0.17594 0.0
C945 C 0.91469 0.72035 0.11812 0.0
C946 C 0.90175 0.56275 0.08764 0.0
C947 C 0.92256 0.65657 0.18131 0.0
C948 C 0.90206 0.63786 0.04933 0.0
C949 C 0.96845 0.57965 0.11772 0.0
C950 C 0.98217 0.73661 0.13753 0.0
C951 C 0.97039 0.64386 0.05432 0.0
O952 O 0.97568 0.68675 0.17769 0.0
O953 O 0.99142 0.64835 0.15688 0.0
O954 O 0.92504 0.7087 0.09566 0.0
O955 O 0.91536 0.709 0.14002 0.0
O956 O 0.91118 0.56995 0.06508 0.0
O957 O 0.90953 0.57896 0.10685 0.0
O958 O 0.92405 0.68142 0.17674 0.0
O959 O 0.93594 0.63898 0.16683 0.0
Co960 Co 0.66904 0.69101 0.42844 0.0
Co961 Co 0.61301 0.66056 0.4515 0.0
Co962 Co 0.65906 0.62785 0.42718 0.0
H963 H 0.65631 0.65881 0.42622 0.0
O964 O 0.64081 0.66246 0.42118 0.0
H965 H 0.61491 0.6295 0.45131 0.0
O966 O 0.63028 0.62554 0.45623 0.0
Co967 Co 0.6013 0.59771 0.44975 0.0
O968 O 0.56836 0.61398 0.4699 0.0
O969 O 0.58479 0.65648 0.48163 0.0
O970 O 0.62452 0.58007 0.41872 0.0
O971 O 0.66661 0.58978 0.43021 0.0
O972 O 0.68993 0.72006 0.40715 0.0
O973 O 0.64796 0.71622 0.40866 0.0
O974 O 0.58078 0.60338 0.41823 0.0
O975 O 0.58399 0.64881 0.42376 0.0
C976 C 0.70695 0.65416 0.3969 0.0
C977 C 0.62408 0.71671 0.46178 0.0
C978 C 0.60304 0.56589 0.48474 0.0
C979 C 0.69653 0.66158 0.46649 0.0
C980 C 0.56637 0.63714 0.4833 0.0
C981 C 0.64771 0.57244 0.42266 0.0
C982 C 0.66895 0.72903 0.39992 0.0
C983 C 0.57422 0.62611 0.41203 0.0
O984 O 0.70201 0.67734 0.40835 0.0
O985 O 0.69089 0.63277 0.39967 0.0
O986 O 0.60574 0.69948 0.4524 0.0
O987 O 0.64907 0.71244 0.45871 0.0
O988 O 0.58738 0.56205 0.46575 0.0
O989 O 0.61759 0.58757 0.48368 0.0
O990 O 0.69307 0.68433 0.4578 0.0
O991 O 0.68424 0.63952 0.45698 0.0
Co992 Co 0.5797 0.67043 0.81205 0.0
Co993 Co 0.60415 0.6145 0.83363 0.0
Co994 Co 0.64034 0.65782 0.80454 0.0
H995 H 0.60922 0.65599 0.80871 0.0
O996 O 0.6015 0.63994 0.80557 0.0
H997 H 0.6353 0.61583 0.827 0.0
O998 O 0.64347 0.63139 0.83192 0.0
Co999 Co 0.66319 0.60141 0.81446 0.0
O1000 O 0.64933 0.57041 0.83694 0.0
O1001 O 0.61087 0.58435 0.85841 0.0
O1002 O 0.6858 0.62061 0.78556 0.0
O1003 O 0.68077 0.6646 0.79782 0.0
O1004 O 0.55441 0.6885 0.78943 0.0
O1005 O 0.56434 0.64889 0.77851 0.0
O1006 O 0.64309 0.59467 0.78071 0.0
O1007 O 0.60336 0.58564 0.80209 0.0
C1008 C 0.6193 0.70291 0.7769 0.0
C1009 C 0.54694 0.62795 0.8448 0.0
C1010 C 0.70748 0.58763 0.82443 0.0
C1011 C 0.61656 0.6991 0.8502 0.0
C1012 C 0.62966 0.5673 0.85451 0.0
C1013 C 0.6942 0.64555 0.7852 0.0
C1014 C 0.55175 0.66818 0.77251 0.0
C1015 C 0.61915 0.58395 0.78073 0.0
O1016 O 0.59784 0.70261 0.79273 0.0
O1017 O 0.63591 0.68437 0.7766 0.0
O1018 O 0.56331 0.60884 0.83959 0.0
O1019 O 0.55307 0.65268 0.83964 0.0
O1020 O 0.69419 0.57696 0.80517 0.0
O1021 O 0.69536 0.60582 0.83838 0.0
O1022 O 0.59229 0.69127 0.84551 0.0
O1023 O 0.6368 0.68926 0.83553 0.0
Co1024 Co 0.3157 0.59162 0.17367 0.0
Co1025 Co 0.29089 0.63963 0.14193 0.0
Co1026 Co 0.33043 0.60169 0.11055 0.0
H1027 H 0.32225 0.60345 0.14239 0.0
O1028 O 0.32266 0.62017 0.14913 0.0
H1029 H 0.29943 0.63792 0.11124 0.0
O1030 O 0.29921 0.62175 0.10353 0.0
Co1031 Co 0.30773 0.65236 0.0821 0.0
O1032 O 0.28227 0.68102 0.09623 0.0
O1033 O 0.26077 0.66174 0.13169 0.0
O1034 O 0.34522 0.6426 0.0685 0.0
O1035 O 0.34138 0.59753 0.06939 0.0
O1036 O 0.35137 0.58779 0.192 0.0
O1037 O 0.3194 0.60441 0.21431 0.0
O1038 O 0.33936 0.65898 0.10536 0.0
O1039 O 0.31561 0.67326 0.14133 0.0
C1040 C 0.35497 0.55772 0.13836 0.0
C1041 C 0.27669 0.63404 0.20002 0.0
C1042 C 0.2782 0.65344 0.04374 0.0
C1043 C 0.28576 0.56112 0.12755 0.0
C1044 C 0.26273 0.67977 0.11428 0.0
C1045 C 0.34962 0.61921 0.05718 0.0
C1046 C 0.34333 0.59838 0.21467 0.0
C1047 C 0.33611 0.67663 0.12502 0.0
O1048 O 0.33743 0.56 0.15838 0.0
O1049 O 0.35797 0.57511 0.12 0.0
O1050 O 0.28092 0.64982 0.18091 0.0
O1051 O 0.28629 0.61051 0.19864 0.0
O1052 O 0.29215 0.67367 0.05362 0.0
O1053 O 0.28153 0.63264 0.05525 0.0
O1054 O 0.2877 0.56766 0.15291 0.0
O1055 O 0.30194 0.57089 0.10916 0.0
Co1056 Co 0.6715 0.81448 0.58672 0.0
Co1057 Co 0.62382 0.84684 0.62136 0.0
Co1058 Co 0.65305 0.80437 0.64728 0.0
H1059 H 0.65538 0.81113 0.61719 0.0
O1060 O 0.63995 0.81234 0.61074 0.0
H1061 H 0.62184 0.84011 0.65197 0.0
O1062 O 0.63753 0.83933 0.65823 0.0
Co1063 Co 0.60595 0.8354 0.68253 0.0
O1064 O 0.58047 0.86176 0.67238 0.0
O1065 O 0.60103 0.87848 0.63487 0.0
O1066 O 0.61171 0.79975 0.69829 0.0
O1067 O 0.65498 0.79372 0.68561 0.0
O1068 O 0.66775 0.80762 0.54557 0.0
O1069 O 0.64322 0.78536 0.57249 0.0
O1070 O 0.57738 0.81393 0.66214 0.0
O1071 O 0.58885 0.8233 0.6192 0.0
C1072 C 0.68923 0.76729 0.61463 0.0
C1073 C 0.64615 0.8617 0.56732 0.0
C1074 C 0.61273 0.85878 0.72768 0.0
C1075 C 0.70485 0.83912 0.63052 0.0
C1076 C 0.58213 0.87846 0.65417 0.0
C1077 C 0.63339 0.78807 0.70059 0.0
C1078 C 0.64855 0.7898 0.54821 0.0
C1079 C 0.5732 0.81186 0.63707 0.0
O1080 O 0.69412 0.78429 0.5965 0.0
O1081 O 0.67073 0.77039 0.63369 0.0
O1082 O 0.62389 0.85681 0.58198 0.0
O1083 O 0.66787 0.85066 0.57117 0.0
O1084 O 0.59132 0.85846 0.71572 0.0
O1085 O 0.63028 0.84578 0.71402 0.0
O1086 O 0.69984 0.83813 0.60567 0.0
O1087 O 0.69003 0.82572 0.64783 0.0
Co1088 Co 0.71209 0.37171 0.93857 0.0
Co1089 Co 0.6898 0.42286 0.91067 0.0
Co1090 Co 0.7294 0.38514 0.87903 0.0
H1091 H 0.72066 0.38649 0.90967 0.0
O1092 O 0.7209 0.40259 0.91757 0.0
H1093 H 0.69807 0.42133 0.8789 0.0
O1094 O 0.69767 0.40469 0.87194 0.0
Co1095 Co 0.7048 0.43357 0.84786 0.0
O1096 O 0.68316 0.46517 0.86337 0.0
O1097 O 0.66231 0.44959 0.90138 0.0
O1098 O 0.73445 0.41516 0.82284 0.0
O1099 O 0.73966 0.37551 0.83995 0.0
O1100 O 0.72745 0.35007 0.96695 0.0
O1101 O 0.73847 0.39104 0.96539 0.0
O1102 O 0.73289 0.4571 0.86873 0.0
O1103 O 0.71833 0.45366 0.91236 0.0
C1104 C 0.75734 0.34467 0.90641 0.0
C1105 C 0.67055 0.40507 0.964 0.0
C1106 C 0.67631 0.4282 0.80761 0.0
C1107 C 0.68414 0.3479 0.89533 0.0
C1108 C 0.66545 0.46721 0.88324 0.0
C1109 C 0.74409 0.39165 0.82115 0.0
C1110 C 0.74161 0.37014 0.97682 0.0
C1111 C 0.73465 0.46351 0.89411 0.0
O1112 O 0.7376 0.34317 0.92422 0.0
O1113 O 0.75945 0.3629 0.88919 0.0
O1114 O 0.67884 0.42676 0.95185 0.0
O1115 O 0.67476 0.38167 0.95257 0.0
O1116 O 0.675 0.44694 0.82624 0.0
O1117 O 0.69431 0.41293 0.81137 0.0
O1118 O 0.68074 0.36556 0.91494 0.0
O1119 O 0.7047 0.3514 0.87911 0.0
Co1120 Co 0.08809 0.92127 0.43806 0.0
Co1121 Co 0.05965 0.88751 0.38718 0.0
Co1122 Co 0.09081 0.85729 0.42433 0.0
H1123 H 0.08932 0.889 0.42426 0.0
O1124 O 0.092 0.89435 0.4081 0.0
H1125 H 0.06366 0.85682 0.38581 0.0
O1126 O 0.06041 0.85007 0.40116 0.0
Co1127 Co 0.06915 0.82671 0.36961 0.0
O1128 O 0.04452 0.83815 0.34271 0.0
O1129 O 0.02894 0.87671 0.36329 0.0
O1130 O 0.10479 0.81615 0.3808 0.0
O1131 O 0.09474 0.81645 0.42509 0.0
O1132 O 0.10933 0.95511 0.45495 0.0
O1133 O 0.11094 0.94602 0.41321 0.0
O1134 O 0.09612 0.84332 0.34351 0.0
O1135 O 0.08442 0.88584 0.35329 0.0
C1136 C 0.11775 0.88734 0.4712 0.0
C1137 C 0.05211 0.9455 0.40214 0.0
C1138 C 0.03817 0.78822 0.38279 0.0
C1139 C 0.04924 0.8816 0.46543 0.0
C1140 C 0.02843 0.8572 0.34435 0.0
C1141 C 0.10524 0.80478 0.40273 0.0
C1142 C 0.1188 0.96223 0.43238 0.0
C1143 C 0.09768 0.86814 0.33883 0.0
O1144 O 0.10494 0.90813 0.46915 0.0
O1145 O 0.11818 0.86709 0.45294 0.0
O1146 O 0.05551 0.92694 0.38266 0.0
O1147 O 0.05968 0.94352 0.42588 0.0
O1148 O 0.05623 0.78634 0.36384 0.0
O1149 O 0.0378 0.81182 0.39397 0.0
O1150 O 0.05697 0.90574 0.46032 0.0
O1151 O 0.06069 0.86068 0.45421 0.0
Co1152 Co 0.42034 0.42862 0.57264 0.0
Co1153 Co 0.36222 0.39771 0.59438 0.0
Co1154 Co 0.40911 0.36581 0.57096 0.0
H1155 H 0.40683 0.39676 0.57105 0.0
O1156 O 0.39152 0.40058 0.56589 0.0
H1157 H 0.36497 0.36654 0.59445 0.0
O1158 O 0.38017 0.36289 0.60022 0.0
Co1159 Co 0.35275 0.33428 0.58964 0.0
O1160 O 0.32119 0.34709 0.61328 0.0
O1161 O 0.33 0.39213 0.62109 0.0
O1162 O 0.37544 0.31528 0.55955 0.0
O1163 O 0.41747 0.32741 0.57052 0.0
O1164 O 0.43467 0.46397 0.55626 0.0
O1165 O 0.40418 0.43864 0.5386 0.0
O1166 O 0.32895 0.3422 0.56115 0.0
O1167 O 0.33755 0.38703 0.56393 0.0
C1168 C 0.45602 0.38978 0.53958 0.0
C1169 C 0.37371 0.45298 0.59982 0.0
C1170 C 0.34756 0.28829 0.60393 0.0
C1171 C 0.4469 0.40073 0.61101 0.0
C1172 C 0.31513 0.37009 0.62442 0.0
C1173 C 0.40023 0.31051 0.55906 0.0
C1174 C 0.419 0.46012 0.53728 0.0
C1175 C 0.32557 0.36526 0.55343 0.0
O1176 O 0.45375 0.41302 0.55273 0.0
O1177 O 0.43785 0.37029 0.54147 0.0
O1178 O 0.35475 0.43591 0.59195 0.0
O1179 O 0.39662 0.44491 0.60402 0.0
O1180 O 0.34299 0.29436 0.58079 0.0
O1181 O 0.35505 0.30853 0.61936 0.0
O1182 O 0.44067 0.42341 0.60438 0.0
O1183 O 0.43714 0.37797 0.59946 0.0
Co1184 Co 0.35717 0.42372 0.20707 0.0
Co1185 Co 0.38016 0.36724 0.21694 0.0
Co1186 Co 0.41633 0.41054 0.18776 0.0
H1187 H 0.38513 0.40931 0.19454 0.0
O1188 O 0.37698 0.39373 0.18961 0.0
H1189 H 0.41131 0.36918 0.21289 0.0
O1190 O 0.41896 0.38527 0.21599 0.0
Co1191 Co 0.44092 0.35488 0.20973 0.0
O1192 O 0.42289 0.32262 0.22889 0.0
O1193 O 0.38464 0.34062 0.24484 0.0
O1194 O 0.46759 0.37237 0.18206 0.0
O1195 O 0.45721 0.4161 0.18165 0.0
O1196 O 0.32543 0.4472 0.2169 0.0
O1197 O 0.3253 0.41966 0.18266 0.0
O1198 O 0.42851 0.33389 0.17625 0.0
O1199 O 0.38394 0.33586 0.18591 0.0
C1200 C 0.39086 0.45767 0.1669 0.0
C1201 C 0.326 0.37922 0.23582 0.0
C1202 C 0.46876 0.35723 0.24941 0.0
C1203 C 0.40161 0.4421 0.24034 0.0
C1204 C 0.40138 0.3222 0.24462 0.0
C1205 C 0.47365 0.39703 0.17665 0.0
C1206 C 0.3126 0.43709 0.1971 0.0
C1207 C 0.40429 0.32603 0.1714 0.0
O1208 O 0.37127 0.45465 0.18459 0.0
O1209 O 0.40957 0.44054 0.16288 0.0
O1210 O 0.33969 0.36025 0.22342 0.0
O1211 O 0.3343 0.4042 0.23563 0.0
O1212 O 0.46604 0.33685 0.23259 0.0
O1213 O 0.45628 0.37654 0.24325 0.0
O1214 O 0.37749 0.43181 0.24062 0.0
O1215 O 0.41741 0.43965 0.21905 0.0
Co1216 Co 0.41524 0.19002 0.33977 0.0
Co1217 Co 0.36839 0.22164 0.37439 0.0
Co1218 Co 0.39687 0.17869 0.4009 0.0
H1219 H 0.39916 0.1854 0.37025 0.0
O1220 O 0.38352 0.18633 0.36389 0.0
H1221 H 0.36629 0.21559 0.40451 0.0
O1222 O 0.38157 0.21382 0.41103 0.0
Co1223 Co 0.35017 0.21378 0.43511 0.0
O1224 O 0.3274 0.2434 0.42473 0.0
O1225 O 0.35107 0.25619 0.38733 0.0
O1226 O 0.35224 0.17671 0.44924 0.0
O1227 O 0.39595 0.16865 0.44053 0.0
O1228 O 0.42993 0.16707 0.30655 0.0
O1229 O 0.39078 0.17931 0.30846 0.0
O1230 O 0.3208 0.19048 0.41723 0.0
O1231 O 0.33115 0.20075 0.37442 0.0
C1232 C 0.43861 0.14685 0.36849 0.0
C1233 C 0.38786 0.23713 0.32095 0.0
C1234 C 0.37452 0.24007 0.47206 0.0
C1235 C 0.44769 0.21346 0.38557 0.0
C1236 C 0.33238 0.25982 0.40612 0.0
C1237 C 0.37328 0.16556 0.45506 0.0
C1238 C 0.4084 0.16648 0.29472 0.0
C1239 C 0.31586 0.18857 0.39229 0.0
O1240 O 0.44051 0.16363 0.35032 0.0
O1241 O 0.41946 0.14677 0.38758 0.0
O1242 O 0.36628 0.23162 0.33596 0.0
O1243 O 0.40954 0.22545 0.32339 0.0
O1244 O 0.35582 0.22205 0.47582 0.0
O1245 O 0.37846 0.24405 0.44752 0.0
O1246 O 0.4435 0.21166 0.3605 0.0
O1247 O 0.4321 0.20175 0.4033 0.0
Co1248 Co 0.95219 0.19908 0.65097 0.0
Co1249 Co 0.92965 0.16828 0.59654 0.0
Co1250 Co 0.96119 0.13812 0.63346 0.0
H1251 H 0.95728 0.16884 0.63479 0.0
O1252 O 0.96032 0.17552 0.61939 0.0
H1253 H 0.93115 0.13656 0.59664 0.0
O1254 O 0.92864 0.13126 0.61282 0.0
Co1255 Co 0.93223 0.10425 0.58289 0.0
O1256 O 0.91507 0.11726 0.55196 0.0
O1257 O 0.90207 0.15842 0.56808 0.0
O1258 O 0.96095 0.0822 0.5948 0.0
O1259 O 0.96534 0.09869 0.638 0.0
O1260 O 0.96518 0.23949 0.65631 0.0
O1261 O 0.98386 0.21363 0.62674 0.0
O1262 O 0.96274 0.11968 0.5598 0.0
O1263 O 0.95948 0.1648 0.56643 0.0
C1264 C 0.99277 0.16839 0.67611 0.0
C1265 C 0.91561 0.22097 0.61827 0.0
C1266 C 0.90161 0.06326 0.58879 0.0
C1267 C 0.92355 0.15778 0.68195 0.0
C1268 C 0.90233 0.1381 0.54989 0.0
C1269 C 0.9687 0.08018 0.61846 0.0
C1270 C 0.98342 0.23735 0.63757 0.0
C1271 C 0.97054 0.14383 0.5548 0.0
O1272 O 0.97681 0.18755 0.67781 0.0
O1273 O 0.9921 0.14889 0.65715 0.0
O1274 O 0.92571 0.20914 0.59579 0.0
O1275 O 0.91641 0.20976 0.64024 0.0
O1276 O 0.91091 0.07039 0.56616 0.0
O1277 O 0.90962 0.07945 0.60791 0.0
O1278 O 0.92528 0.18261 0.67724 0.0
O1279 O 0.93662 0.13995 0.66746 0.0
Co1280 Co 0.81582 0.0916 0.17355 0.0
Co1281 Co 0.79112 0.13984 0.14221 0.0
Co1282 Co 0.83054 0.10195 0.11054 0.0
H1283 H 0.8224 0.10359 0.14236 0.0
O1284 O 0.82286 0.12027 0.14922 0.0
H1285 H 0.79975 0.13838 0.11154 0.0
O1286 O 0.79945 0.12226 0.10368 0.0
Co1287 Co 0.80824 0.15307 0.08257 0.0
O1288 O 0.78273 0.18163 0.09691 0.0
O1289 O 0.76104 0.16206 0.1321 0.0
O1290 O 0.84555 0.14307 0.06861 0.0
O1291 O 0.84141 0.09797 0.06934 0.0
O1292 O 0.85199 0.08939 0.19149 0.0
O1293 O 0.81895 0.10303 0.2145 0.0
O1294 O 0.83971 0.15933 0.10604 0.0
O1295 O 0.81584 0.1735 0.14194 0.0
C1296 C 0.855 0.05774 0.13815 0.0
C1297 C 0.7767 0.13367 0.20019 0.0
C1298 C 0.77869 0.15466 0.04432 0.0
C1299 C 0.78588 0.06124 0.12744 0.0
C1300 C 0.76307 0.18021 0.11481 0.0
C1301 C 0.84974 0.11966 0.05718 0.0
C1302 C 0.84336 0.09854 0.21452 0.0
C1303 C 0.83637 0.17697 0.12569 0.0
O1304 O 0.8375 0.06 0.1582 0.0
O1305 O 0.85798 0.07517 0.11982 0.0
O1306 O 0.78105 0.14969 0.18128 0.0
O1307 O 0.78624 0.11012 0.19856 0.0
O1308 O 0.79284 0.17473 0.05422 0.0
O1309 O 0.78186 0.13376 0.05573 0.0
O1310 O 0.78793 0.06759 0.1528 0.0
O1311 O 0.80191 0.07124 0.10905 0.0
Co1312 Co 0.44954 0.56732 0.4147 0.0
Co1313 Co 0.41964 0.57683 0.35937 0.0
Co1314 Co 0.38969 0.54737 0.40497 0.0
H1315 H 0.42021 0.55612 0.40187 0.0
O1316 O 0.42748 0.55196 0.38593 0.0
H1317 H 0.38918 0.56684 0.36237 0.0
O1318 O 0.38151 0.57187 0.37799 0.0
Co1319 Co 0.36125 0.55088 0.35036 0.0
O1320 O 0.37258 0.57035 0.31735 0.0
O1321 O 0.40851 0.59838 0.32943 0.0
O1322 O 0.35188 0.51861 0.37227 0.0
O1323 O 0.35048 0.53732 0.41409 0.0
O1324 O 0.48639 0.55474 0.42334 0.0
O1325 O 0.46567 0.5354 0.39143 0.0
O1326 O 0.38361 0.51941 0.34183 0.0
O1327 O 0.42156 0.54404 0.33149 0.0
C1328 C 0.41843 0.52842 0.44956 0.0
C1329 C 0.47035 0.60185 0.37342 0.0
C1330 C 0.31655 0.5652 0.34171 0.0
C1331 C 0.40664 0.59666 0.44499 0.0
C1332 C 0.38975 0.59017 0.31317 0.0
C1333 C 0.33933 0.52182 0.3954 0.0
C1334 C 0.48625 0.5359 0.4046 0.0
C1335 C 0.40679 0.52162 0.32968 0.0
O1336 O 0.43744 0.54714 0.44749 0.0
O1337 O 0.40011 0.52374 0.43245 0.0
O1338 O 0.45945 0.58814 0.3531 0.0
O1339 O 0.45793 0.6024 0.39674 0.0
O1340 O 0.33106 0.5519 0.32453 0.0
O1341 O 0.32745 0.57043 0.36375 0.0
O1342 O 0.43189 0.59608 0.43899 0.0
O1343 O 0.38924 0.57934 0.43391 0.0
Co1344 Co 0.66047 0.47492 0.67102 0.0
Co1345 Co 0.63251 0.47764 0.61652 0.0
Co1346 Co 0.60172 0.44936 0.66224 0.0
H1347 H 0.63233 0.459 0.65935 0.0
O1348 O 0.63998 0.45348 0.64389 0.0
H1349 H 0.60181 0.46971 0.61972 0.0
O1350 O 0.59459 0.47425 0.63556 0.0
Co1351 Co 0.57227 0.45877 0.60705 0.0
O1352 O 0.58475 0.47865 0.57415 0.0
O1353 O 0.6227 0.50122 0.58871 0.0
O1354 O 0.56277 0.42391 0.62512 0.0
O1355 O 0.56186 0.43876 0.66862 0.0
O1356 O 0.69346 0.48091 0.69383 0.0
O1357 O 0.69153 0.45046 0.66208 0.0
O1358 O 0.58913 0.42967 0.58255 0.0
O1359 O 0.63201 0.4453 0.58801 0.0
C1360 C 0.63036 0.43705 0.709 0.0
C1361 C 0.68775 0.49912 0.6228 0.0
C1362 C 0.53555 0.49013 0.61719 0.0
C1363 C 0.61482 0.50457 0.69102 0.0
C1364 C 0.60417 0.4969 0.5718 0.0
C1365 C 0.55072 0.42479 0.64862 0.0
C1366 C 0.70524 0.46202 0.68061 0.0
C1367 C 0.61434 0.42845 0.57674 0.0
O1368 O 0.64727 0.45709 0.70474 0.0
O1369 O 0.61229 0.42798 0.69234 0.0
O1370 O 0.67185 0.48585 0.60626 0.0
O1371 O 0.68196 0.50181 0.64826 0.0
O1372 O 0.53533 0.47118 0.59857 0.0
O1373 O 0.55626 0.49081 0.63021 0.0
O1374 O 0.63779 0.50646 0.67837 0.0
O1375 O 0.60005 0.4822 0.68982 0.0
Co1376 Co 0.21252 0.87178 0.93884 0.0
Co1377 Co 0.1899 0.92272 0.91065 0.0
Co1378 Co 0.22946 0.88489 0.87916 0.0
H1379 H 0.22086 0.88642 0.90982 0.0
O1380 O 0.22107 0.90256 0.91762 0.0
H1381 H 0.19809 0.92106 0.87886 0.0
O1382 O 0.1977 0.90438 0.87201 0.0
Co1383 Co 0.20466 0.93317 0.84775 0.0
O1384 O 0.18308 0.96484 0.8632 0.0
O1385 O 0.16234 0.94935 0.90131 0.0
O1386 O 0.23415 0.91449 0.82272 0.0
O1387 O 0.2395 0.87501 0.84014 0.0
O1388 O 0.22791 0.85022 0.96728 0.0
O1389 O 0.23912 0.89112 0.96547 0.0
O1390 O 0.23289 0.95676 0.86848 0.0
O1391 O 0.2184 0.95352 0.91216 0.0
C1392 C 0.25763 0.84459 0.90662 0.0
C1393 C 0.17078 0.90514 0.96392 0.0
C1394 C 0.17596 0.92763 0.80758 0.0
C1395 C 0.18428 0.84766 0.89584 0.0
C1396 C 0.16542 0.96692 0.88313 0.0
C1397 C 0.24378 0.89098 0.82119 0.0
C1398 C 0.24221 0.87027 0.97701 0.0
C1399 C 0.23472 0.96326 0.89385 0.0
O1400 O 0.23799 0.84317 0.92454 0.0
O1401 O 0.2596 0.86274 0.88932 0.0
O1402 O 0.17901 0.92682 0.95176 0.0
O1403 O 0.17511 0.88174 0.95256 0.0
O1404 O 0.17456 0.94628 0.82629 0.0
O1405 O 0.19417 0.91255 0.81121 0.0
O1406 O 0.18094 0.86526 0.91553 0.0
O1407 O 0.20478 0.85117 0.87955 0.0
Co1408 Co 0.65972 0.97396 0.17242 0.0
Co1409 Co 0.63197 0.97712 0.11781 0.0
Co1410 Co 0.60098 0.9487 0.1634 0.0
H1411 H 0.63159 0.95823 0.16058 0.0
O1412 O 0.63926 0.95279 0.1451 0.0
H1413 H 0.60124 0.96924 0.12086 0.0
O1414 O 0.59397 0.9737 0.1367 0.0
Co1415 Co 0.57171 0.95849 0.10801 0.0
O1416 O 0.58447 0.97838 0.07521 0.0
O1417 O 0.62237 1.00086 0.08999 0.0
O1418 O 0.56222 0.92361 0.12605 0.0
O1419 O 0.56104 0.93819 0.16961 0.0
O1420 O 0.69205 0.97863 0.19618 0.0
O1421 O 0.69089 0.94971 0.16304 0.0
O1422 O 0.58863 0.92952 0.08337 0.0
O1423 O 0.63152 0.9449 0.08917 0.0
C1424 C 0.62955 0.93629 0.21036 0.0
C1425 C 0.68729 0.99831 0.12443 0.0
C1426 C 0.53488 0.9898 0.11792 0.0
C1427 C 0.61421 1.0039 0.19194 0.0
C1428 C 0.60396 0.99657 0.07295 0.0
C1429 C 0.54996 0.92444 0.14944 0.0
C1430 C 0.7041 0.96029 0.18237 0.0
C1431 C 0.61385 0.92821 0.07769 0.0
O1432 O 0.64639 0.95641 0.20624 0.0
O1433 O 0.61152 0.92726 0.19358 0.0
O1434 O 0.67137 0.98527 0.10775 0.0
O1435 O 0.68139 1.00088 0.14988 0.0
O1436 O 0.53467 0.97067 0.09948 0.0
O1437 O 0.55565 0.9907 0.13089 0.0
O1438 O 0.63714 1.00562 0.1792 0.0
O1439 O 0.59938 0.98157 0.19094 0.0
Co1440 Co 0.44865 0.06617 0.91464 0.0
Co1441 Co 0.41958 0.07579 0.85927 0.0
Co1442 Co 0.38837 0.04758 0.90483 0.0
H1443 H 0.41912 0.05539 0.90183 0.0
O1444 O 0.42641 0.05082 0.88601 0.0
H1445 H 0.38891 0.06637 0.86203 0.0
O1446 O 0.38123 0.0719 0.87747 0.0
Co1447 Co 0.36072 0.05066 0.85023 0.0
O1448 O 0.37414 0.06845 0.81658 0.0
O1449 O 0.40932 0.09726 0.82909 0.0
O1450 O 0.33926 0.02355 0.87269 0.0
O1451 O 0.34893 0.03953 0.91479 0.0
O1452 O 0.48561 0.05393 0.92331 0.0
O1453 O 0.46476 0.03403 0.89173 0.0
O1454 O 0.38323 0.01895 0.84338 0.0
O1455 O 0.42108 0.04291 0.83173 0.0
C1456 C 0.41626 0.0282 0.94974 0.0
C1457 C 0.4707 0.09994 0.87312 0.0
C1458 C 0.31609 0.06377 0.84032 0.0
C1459 C 0.40653 0.09658 0.94482 0.0
C1460 C 0.39123 0.08836 0.81237 0.0
C1461 C 0.33317 0.02628 0.89809 0.0
C1462 C 0.48546 0.03486 0.9048 0.0
C1463 C 0.40617 0.02063 0.83067 0.0
O1464 O 0.43576 0.04639 0.94747 0.0
O1465 O 0.39786 0.02388 0.93269 0.0
O1466 O 0.45955 0.08608 0.85306 0.0
O1467 O 0.4585 0.10095 0.89655 0.0
O1468 O 0.32786 0.04482 0.8272 0.0
O1469 O 0.32974 0.07528 0.85893 0.0
O1470 O 0.43174 0.09527 0.93912 0.0
O1471 O 0.38885 0.07985 0.93342 0.0
Co1472 Co 0.81587 0.59234 0.67208 0.0
Co1473 Co 0.79063 0.64026 0.64003 0.0
Co1474 Co 0.83115 0.60307 0.60942 0.0
H1475 H 0.82253 0.60464 0.64109 0.0
O1476 O 0.82254 0.62132 0.64789 0.0
H1477 H 0.80055 0.63992 0.60968 0.0
O1478 O 0.8007 0.62392 0.60153 0.0
Co1479 Co 0.80895 0.65576 0.58142 0.0
O1480 O 0.78256 0.68327 0.5959 0.0
O1481 O 0.76033 0.66186 0.62959 0.0
O1482 O 0.84657 0.64413 0.56994 0.0
O1483 O 0.84242 0.599 0.56873 0.0
O1484 O 0.84563 0.57897 0.69378 0.0
O1485 O 0.8263 0.61295 0.70866 0.0
O1486 O 0.83726 0.67753 0.60239 0.0
O1487 O 0.81432 0.67475 0.64228 0.0
C1488 C 0.85497 0.5583 0.63722 0.0
C1489 C 0.77559 0.63334 0.6984 0.0
C1490 C 0.77892 0.65615 0.54305 0.0
C1491 C 0.78601 0.56253 0.62572 0.0
C1492 C 0.76248 0.68074 0.61314 0.0
C1493 C 0.85038 0.62111 0.55733 0.0
C1494 C 0.84427 0.59765 0.71246 0.0
C1495 C 0.83292 0.68588 0.62713 0.0
O1496 O 0.83718 0.5604 0.657 0.0
O1497 O 0.85827 0.57599 0.61915 0.0
O1498 O 0.77887 0.64891 0.67903 0.0
O1499 O 0.78628 0.61041 0.69728 0.0
O1500 O 0.79379 0.67617 0.55188 0.0
O1501 O 0.78175 0.63575 0.55546 0.0
O1502 O 0.78788 0.56874 0.65112 0.0
O1503 O 0.80225 0.57256 0.60749 0.0
Co1504 Co 0.21399 0.37297 0.43863 0.0
Co1505 Co 0.19023 0.42487 0.41081 0.0
Co1506 Co 0.22927 0.38602 0.37908 0.0
H1507 H 0.22136 0.38804 0.40979 0.0
O1508 O 0.22152 0.40422 0.41761 0.0
H1509 H 0.19718 0.42174 0.37874 0.0
O1510 O 0.19679 0.40481 0.37266 0.0
Co1511 Co 0.20206 0.43188 0.34662 0.0
O1512 O 0.18073 0.46395 0.36132 0.0
O1513 O 0.16253 0.45122 0.40156 0.0
O1514 O 0.23196 0.41408 0.32152 0.0
O1515 O 0.23871 0.37557 0.33994 0.0
O1516 O 0.23393 0.35036 0.463 0.0
O1517 O 0.23838 0.39224 0.46764 0.0
O1518 O 0.23194 0.45384 0.36568 0.0
O1519 O 0.21933 0.45555 0.41013 0.0
C1520 C 0.25844 0.3459 0.40567 0.0
C1521 C 0.17241 0.40633 0.46097 0.0
C1522 C 0.17297 0.42537 0.30694 0.0
C1523 C 0.18491 0.34803 0.39663 0.0
C1524 C 0.16447 0.46746 0.38223 0.0
C1525 C 0.24244 0.39105 0.32054 0.0
C1526 C 0.24532 0.37073 0.47553 0.0
C1527 C 0.2353 0.4628 0.39027 0.0
O1528 O 0.23906 0.34426 0.42386 0.0
O1529 O 0.2601 0.36435 0.38869 0.0
O1530 O 0.17987 0.42976 0.45211 0.0
O1531 O 0.1761 0.38593 0.44417 0.0
O1532 O 0.17017 0.443 0.32642 0.0
O1533 O 0.19264 0.41183 0.30962 0.0
O1534 O 0.18161 0.36537 0.41654 0.0
O1535 O 0.20518 0.35188 0.38015 0.0
C1536 C 0.08761 1.00681 0.52794 0.0
C1537 C 0.10522 0.0136 0.54887 0.0
H1538 H 0.07341 0.01773 0.49099 0.0
C1539 C 0.12299 0.03695 0.54779 0.0
H1540 H 0.07381 0.98881 0.52801 0.0
C1541 C 0.12263 0.05352 0.52658 0.0
C1542 C 0.1046 0.04696 0.50604 0.0
H1543 H 0.13682 0.04274 0.56356 0.0
H1544 H 0.13625 0.07165 0.52645 0.0
C1545 C 0.08735 0.02331 0.50669 0.0
C1546 C 1.00787 0.33386 0.80451 0.0
C1547 C 0.01124 0.35738 0.82239 0.0
H1548 H 0.99234 0.31568 0.7676 0.0
C1549 C 0.99973 0.38099 0.81659 0.0
H1550 H 0.01624 0.3152 0.80837 0.0
C1551 C 0.98595 0.3812 0.7929 0.0
C1552 C 0.98353 0.35783 0.77469 0.0
H1553 H 1.00208 0.39947 0.82984 0.0
H1554 H 0.97754 0.39972 0.78865 0.0
C1555 C 0.99426 0.33411 0.78099 0.0
C1556 C 0.6221 0.26268 0.97921 0.0
C1557 C 0.61217 0.23603 0.98336 0.0
H1558 H 0.64177 0.29957 0.99653 0.0
C1559 C 0.60772 0.22864 1.01002 0.0
H1560 H 0.62541 0.26882 0.95882 0.0
C1561 C 0.61707 0.2461 0.03163 0.0
C1562 C 0.631 0.27113 0.02679 0.0
H1563 H 0.60048 0.20806 0.01377 0.0
H1564 H 0.61552 0.23896 0.0517 0.0
C1565 C 0.63188 0.28002 1.00069 0.0
C1566 C 0.78262 0.86467 0.29919 0.0
C1567 C 0.76274 0.88334 0.29831 0.0
H1568 H 0.81846 0.84804 0.27969 0.0
C1569 C 0.76126 0.8956 0.27408 0.0
H1570 H 0.78438 0.85472 0.31745 0.0
C1571 C 0.78027 0.89113 0.25233 0.0
C1572 C 0.8016 0.87448 0.25404 0.0
H1573 H 0.74609 0.90971 0.27231 0.0
H1574 H 0.77949 0.90245 0.2348 0.0
C1575 C 0.80197 0.86044 0.27736 0.0
C1576 C 0.15133 0.24808 0.72172 0.0
C1577 C 0.13202 0.26737 0.7214 0.0
H1578 H 0.16272 0.21262 0.73908 0.0
C1579 C 0.10941 0.26541 0.74007 0.0
H1580 H 0.16893 0.24866 0.70766 0.0
C1581 C 0.10579 0.24484 0.75786 0.0
C1582 C 0.12461 0.22515 0.75795 0.0
H1583 H 0.09401 0.27972 0.74079 0.0
H1584 H 0.08782 0.24426 0.77143 0.0
C1585 C 0.14765 0.22726 0.73971 0.0
C1586 C 0.76686 0.34385 1.00613 0.0
C1587 C 0.76209 0.36874 0.99673 0.0
H1588 H 0.79005 0.32283 0.03098 0.0
C1589 C 0.77804 0.39212 1.00543 0.0
H1590 H 0.75509 0.32545 0.99954 0.0
C1591 C 0.79823 0.39069 0.02339 0.0
C1592 C 0.80295 0.3658 0.03301 0.0
H1593 H 0.775 0.41156 0.99827 0.0
H1594 H 0.81003 0.40912 0.02982 0.0
C1595 C 0.78706 0.34238 0.02404 0.0
C1596 C 0.6239 0.07144 0.23178 0.0
C1597 C 0.61154 0.0659 0.25713 0.0
H1598 H 0.63346 0.05646 0.19092 0.0
C1599 C 0.59529 0.04159 0.25931 0.0
H1600 H 0.63627 0.09015 0.22941 0.0
C1601 C 0.59378 0.022 0.2371 0.0
C1602 C 0.60837 0.02662 0.21245 0.0
H1603 H 0.58559 0.03679 0.27866 0.0
H1604 H 0.58309 1.0025 0.23993 0.0
C1605 C 0.6222 0.05213 0.20969 0.0
C1606 C 0.02502 0.90058 0.507 0.0
C1607 C 0.02662 0.87943 0.48625 0.0
H1608 H 1.00119 0.92033 0.53892 0.0
C1609 C 1.00477 0.85988 0.48371 0.0
H1610 H 0.04163 0.91587 0.50966 0.0
C1611 C 0.98119 0.86247 0.5008 0.0
C1612 C 0.97917 0.88474 0.52046 0.0
H1613 H 1.00536 0.84355 0.46773 0.0
H1614 H 0.96426 0.84763 0.49799 0.0
C1615 C 1.00167 0.90329 0.5237 0.0
C1616 C 0.49543 0.12211 0.01552 0.0
C1617 C 0.49324 0.14429 0.0351 0.0
H1618 H 0.51962 0.10162 0.9844 0.0
C1619 C 0.51437 0.16474 0.03626 0.0
H1620 H 0.47937 0.1061 0.01384 0.0
C1621 C 0.53783 0.16215 0.01898 0.0
C1622 C 0.54045 0.13901 1.0005 0.0
H1623 H 0.51333 0.18192 0.05127 0.0
H1624 H 0.55419 0.1778 0.02071 0.0
C1625 C 0.51867 0.11941 0.99865 0.0
C1626 C 0.911 0.75942 0.2811 0.0
C1627 C 0.88857 0.75782 0.30005 0.0
H1628 H 0.93251 0.78019 0.24943 0.0
C1629 C 0.86949 0.77735 0.29987 0.0
H1630 H 0.92621 0.7449 0.28024 0.0
C1631 C 0.87324 0.79806 0.28176 0.0
C1632 C 0.89613 0.79983 0.26328 0.0
H1633 H 0.85205 0.77705 0.31414 0.0
H1634 H 0.85836 0.81291 0.28251 0.0
C1635 C 0.91469 0.77989 0.2632 0.0
C1636 C 0.24291 0.13265 0.5153 0.0
C1637 C 0.25649 0.15656 0.52638 0.0
H1638 H 0.21297 0.11499 0.4887 0.0
C1639 C 0.24952 0.18163 0.51909 0.0
H1640 H 0.24771 0.11303 0.52077 0.0
C1641 C 0.22957 0.18279 0.50088 0.0
C1642 C 0.21607 0.15889 0.48948 0.0
H1643 H 0.25951 0.20039 0.52743 0.0
H1644 H 0.22491 0.20252 0.49559 0.0
C1645 C 0.22288 0.13379 0.49705 0.0
C1646 C 0.89848 0.47288 0.81195 0.0
C1647 C 0.91218 0.49847 0.80926 0.0
H1648 H 0.88469 0.43482 0.79213 0.0
C1649 C 0.92681 0.5032 0.78466 0.0
H1650 H 0.88721 0.46846 0.83068 0.0
C1651 C 0.92548 0.48364 0.76243 0.0
C1652 C 0.90936 0.45925 0.76452 0.0
H1653 H 0.9374 0.52276 0.78189 0.0
H1654 H 0.9352 0.48853 0.74311 0.0
C1655 C 0.89696 0.45359 0.78983 0.0
C1656 C 0.52687 0.19117 0.24078 0.0
C1657 C 0.53747 0.16742 0.24719 0.0
H1658 H 0.50497 0.21003 0.21329 0.0
C1659 C 0.53494 0.14397 0.22912 0.0
H1660 H 0.52889 0.20965 0.25407 0.0
C1661 C 0.52116 0.14412 0.20543 0.0
C1662 C 0.50976 0.16776 0.19951 0.0
H1663 H 0.54325 0.12544 0.23347 0.0
H1664 H 0.5187 0.12559 0.19229 0.0
C1665 C 0.51326 0.19136 0.21725 0.0
C1666 C 0.88899 0.76112 0.54409 0.0
C1667 C 0.90317 0.78615 0.53984 0.0
H1668 H 0.86759 0.72567 0.52614 0.0
C1669 C 0.91204 0.79168 0.51334 0.0
H1670 H 0.88146 0.75664 0.56429 0.0
C1671 C 0.90361 0.77414 0.49134 0.0
C1672 C 0.88625 0.75095 0.49571 0.0
H1673 H 0.92245 0.81109 0.50948 0.0
H1674 H 0.90878 0.77995 0.47102 0.0
C1675 C 0.88045 0.74371 0.52221 0.0
C1676 C 0.26009 0.12865 0.749 0.0
C1677 C 0.2592 0.14112 0.72483 0.0
H1678 H 0.24111 0.12179 0.78796 0.0
C1679 C 0.23968 0.16012 0.7237 0.0
H1680 H 0.27498 0.11429 0.75092 0.0
C1681 C 0.22003 0.16446 0.74522 0.0
C1682 C 0.21976 0.1502 0.76846 0.0
H1683 H 0.2384 0.17022 0.70544 0.0
H1684 H 0.20379 0.17709 0.74266 0.0
C1685 C 0.24081 0.13326 0.77047 0.0
C1686 C 0.89814 0.47156 0.99364 0.0
C1687 C 0.91659 0.47762 0.01385 0.0
H1688 H 0.88345 0.48297 0.95716 0.0
C1689 C 0.93424 0.50098 0.01303 0.0
H1690 H 0.8842 0.45367 0.99389 0.0
C1691 C 0.93389 0.51773 0.99198 0.0
C1692 C 0.91576 0.51149 0.97141 0.0
H1693 H 0.94855 0.50617 0.02847 0.0
H1694 H 0.94799 0.53549 0.99177 0.0
C1695 C 0.89768 0.48837 0.97263 0.0
C1696 C 0.99394 0.50972 0.10304 0.0
C1697 C 0.01535 0.5108 0.12006 0.0
H1698 H 0.96206 0.5304 0.08946 0.0
C1699 C 0.01914 0.5335 0.13898 0.0
H1700 H 0.99033 0.49248 0.08844 0.0
C1701 C 1.00281 0.5554 0.13968 0.0
C1702 C 0.98252 0.55502 0.12133 0.0
H1703 H 0.03547 0.53485 0.15247 0.0
H1704 H 1.00704 0.57317 0.15347 0.0
C1705 C 0.97776 0.53154 0.10365 0.0
C1706 C 0.50168 0.28422 0.14523 0.0
C1707 C 0.50301 0.2583 0.13175 0.0
H1708 H 0.52339 0.32204 0.15626 0.0
C1709 C 0.52587 0.2524 0.11459 0.0
H1710 H 0.48417 0.28939 0.15826 0.0
C1711 C 0.54828 0.2712 0.11328 0.0
C1712 C 0.54782 0.29602 0.12902 0.0
H1713 H 0.52725 0.23255 0.10379 0.0
H1714 H 0.56664 0.26538 0.10203 0.0
C1715 C 0.52398 0.30294 0.14389 0.0
C1716 C 0.81583 0.79861 0.38596 0.0
C1717 C 0.81447 0.78151 0.40736 0.0
H1718 H 0.79942 0.83195 0.36919 0.0
C1719 C 0.79565 0.78652 0.42925 0.0
H1720 H 0.83005 0.79541 0.36868 0.0
C1721 C 0.77831 0.80735 0.42953 0.0
C1722 C 0.77899 0.82404 0.4079 0.0
H1723 H 0.79397 0.77408 0.44621 0.0
H1724 H 0.764 0.81005 0.44679 0.0
C1725 C 0.7983 0.81965 0.38623 0.0
C1726 C 0.24285 0.05038 0.60516 0.0
C1727 C 0.26376 0.04174 0.61919 0.0
H1728 H 0.20145 0.04268 0.59499 0.0
C1729 C 0.26089 0.01602 0.62892 0.0
H1730 H 0.24464 0.07034 0.59772 0.0
C1731 C 0.23677 0.99997 0.62646 0.0
C1732 C 0.21477 1.00962 0.615 0.0
H1733 H 0.27675 1.00899 0.6398 0.0
H1734 H 0.2345 0.98094 0.63566 0.0
C1735 C 0.2183 0.03448 0.60331 0.0
C1736 C 0.5272 0.51547 0.41777 0.0
C1737 C 0.50577 0.51458 0.40079 0.0
H1738 H 0.55894 0.49453 0.43123 0.0
C1739 C 0.50181 0.49194 0.38183 0.0
H1740 H 0.53093 0.53266 0.4324 0.0
C1741 C 0.51798 0.46989 0.38107 0.0
C1742 C 0.53827 0.47009 0.39937 0.0
H1743 H 0.48546 0.49072 0.36839 0.0
H1744 H 0.5136 0.45216 0.36727 0.0
C1745 C 0.54322 0.49353 0.41707 0.0
C1746 C 0.20463 0.72562 0.13486 0.0
C1747 C 0.20645 0.7427 0.11339 0.0
H1748 H 0.22067 0.69242 0.15225 0.0
C1749 C 0.22608 0.73793 0.09218 0.0
H1750 H 0.18984 0.72863 0.15167 0.0
C1751 C 0.2436 0.71731 0.09255 0.0
C1752 C 0.24232 0.70052 0.11417 0.0
H1753 H 0.22822 0.75039 0.07523 0.0
H1754 H 0.25847 0.71482 0.07575 0.0
C1755 C 0.22232 0.70478 0.13524 0.0
C1756 C 0.8036 0.98921 0.41828 0.0
C1757 C 0.80681 0.01405 0.40654 0.0
H1758 H 0.77752 0.95326 0.42434 0.0
C1759 C 0.78455 0.02356 0.39542 0.0
H1760 H 0.82066 0.98113 0.42635 0.0
C1761 C 0.76042 1.00743 0.39342 0.0
C1762 C 0.75782 0.98173 0.40323 0.0
H1763 H 0.78655 0.04258 0.38619 0.0
H1764 H 0.74432 0.01437 0.38281 0.0
C1765 C 0.77907 0.97321 0.41688 0.0
C1766 C 0.97237 0.25405 0.90821 0.0
C1767 C 0.97282 0.22918 0.89255 0.0
H1768 H 0.99342 0.29269 0.91767 0.0
C1769 C 0.99669 0.22223 0.87774 0.0
H1770 H 0.954 0.2599 0.9194 0.0
C1771 C 0.01901 0.24093 0.87639 0.0
C1772 C 0.01771 0.26687 0.88982 0.0
H1773 H 0.99728 0.20309 0.86541 0.0
H1774 H 0.03654 0.23571 0.86341 0.0
C1775 C 0.99481 0.27283 0.90691 0.0
C1776 C 0.8975 0.98931 0.4741 0.0
C1777 C 0.91672 1.01141 0.47192 0.0
H1778 H 0.88274 0.95571 0.4964 0.0
C1779 C 0.93568 0.01696 0.49181 0.0
H1780 H 0.88259 0.98449 0.4592 0.0
C1781 C 0.93569 1.00051 0.51314 0.0
C1782 C 0.91683 0.97816 0.51494 0.0
H1783 H 0.95069 0.03391 0.49085 0.0
H1784 H 0.95066 1.00509 0.52802 0.0
C1785 C 0.89759 0.97281 0.4954 0.0
C1786 C 0.02106 0.64416 0.20458 0.0
C1787 C 1.00984 0.66783 0.1985 0.0
H1788 H 0.04302 0.62553 0.23276 0.0
C1789 C 0.01357 0.69155 0.21604 0.0
H1790 H 0.01842 0.62555 0.19159 0.0
C1791 C 0.02721 0.69144 0.23955 0.0
C1792 C 0.03762 0.66766 0.24616 0.0
H1793 H 1.00543 0.71025 0.21193 0.0
H1794 H 0.02941 0.71001 0.25269 0.0
C1795 C 0.03487 0.64409 0.22826 0.0
C1796 C 0.38878 0.74457 0.02102 0.0
C1797 C 0.38969 0.75351 0.99495 0.0
H1798 H 0.39521 0.75567 0.06292 0.0
C1799 C 0.40365 0.77855 0.99017 0.0
H1800 H 0.37888 0.72501 0.02514 0.0
C1801 C 0.41299 0.79596 0.01182 0.0
C1802 C 0.40849 0.78852 0.03846 0.0
H1803 H 0.40522 0.78572 0.97012 0.0
H1804 H 0.42025 0.81654 1.0081 0.0
C1805 C 0.39856 0.76186 0.04255 0.0
C1806 C 0.23269 0.68085 0.9964 0.0
C1807 C 0.21729 0.65729 0.98691 0.0
H1808 H 0.26412 0.69803 0.02142 0.0
C1809 C 0.22235 0.63236 0.99622 0.0
H1810 H 0.22946 0.70045 0.98973 0.0
C1811 C 0.24239 0.63106 0.01443 0.0
C1812 C 0.25785 0.65461 0.02363 0.0
H1813 H 0.21091 0.61383 0.9894 0.0
H1814 H 0.24571 0.6116 0.02138 0.0
C1815 C 0.25274 0.67951 0.01448 0.0
C1816 C 0.42668 1.00255 0.78553 0.0
C1817 C 0.41197 0.99793 0.81011 0.0
H1818 H 0.43501 0.98781 0.74398 0.0
C1819 C 0.39801 0.97246 0.81277 0.0
H1820 H 0.43745 0.02202 0.78278 0.0
C1821 C 0.39635 0.95319 0.79064 0.0
C1822 C 0.40886 0.95874 0.76535 0.0
H1823 H 0.38667 0.96813 0.83149 0.0
H1824 H 0.3839 0.93452 0.79294 0.0
C1825 C 0.4252 0.983 0.76328 0.0
C1826 C 0.01533 0.16478 0.53697 0.0
C1827 C 0.99294 0.14602 0.53382 0.0
H1828 H 0.0562 0.17601 0.52323 0.0
C1829 C 0.99391 0.12538 0.51251 0.0
H1830 H 0.01522 0.18064 0.55343 0.0
C1831 C 0.01724 0.1223 0.49581 0.0
C1832 C 0.04025 0.14 0.4997 0.0
H1833 H 0.97685 0.11072 0.50946 0.0
H1834 H 0.01734 0.10568 0.48011 0.0
C1835 C 0.03884 0.16184 0.51991 0.0
C1836 C 0.50596 0.86011 0.98503 0.0
C1837 C 0.52816 0.87915 0.98799 0.0
H1838 H 0.46524 0.84846 0.99897 0.0
C1839 C 0.52699 0.8999 1.0092 0.0
H1840 H 0.50621 0.84414 0.96867 0.0
C1841 C 0.50366 0.9028 0.02594 0.0
C1842 C 0.48084 0.8848 0.02224 0.0
H1843 H 0.5439 0.91478 0.01213 0.0
H1844 H 0.50342 0.91952 0.04152 0.0
C1845 C 0.48246 0.86286 1.00215 0.0
C1846 C 0.77895 0.89107 0.50632 0.0
C1847 C 0.7625 0.86782 0.49824 0.0
H1848 H 0.81132 0.90809 0.53022 0.0
C1849 C 0.76703 0.84309 0.50826 0.0
H1850 H 0.77618 0.91038 0.49873 0.0
C1851 C 0.78736 0.84168 0.52614 0.0
C1852 C 0.80367 0.86499 0.53456 0.0
H1853 H 0.75492 0.82474 0.50218 0.0
H1854 H 0.79007 0.82229 0.53358 0.0
C1855 C 0.79922 0.8897 0.52429 0.0
C1856 C 0.12283 0.55191 0.20879 0.0
C1857 C 0.10867 0.52654 0.21148 0.0
H1858 H 0.13728 0.58979 0.22854 0.0
C1859 C 0.09403 0.52205 0.23614 0.0
H1860 H 0.13414 0.55616 0.19003 0.0
C1861 C 0.09572 0.54163 0.25837 0.0
C1862 C 0.1122 0.5658 0.25622 0.0
H1863 H 0.08313 0.50265 0.23894 0.0
H1864 H 0.0859 0.53693 0.2777 0.0
C1865 C 0.12471 0.5712 0.2309 0.0
C1866 C 0.48594 0.88079 0.79314 0.0
C1867 C 0.48332 0.85731 0.77512 0.0
H1868 H 0.50226 0.89922 0.82991 0.0
C1869 C 0.49385 0.83355 0.78159 0.0
H1870 H 0.47769 0.89934 0.78874 0.0
C1871 C 0.50748 0.83337 0.80511 0.0
C1872 C 0.51107 0.85701 0.82279 0.0
H1873 H 0.49176 0.81503 0.76835 0.0
H1874 H 0.51571 0.81469 0.80913 0.0
C1875 C 0.49973 0.88066 0.81682 0.0
C1876 C 0.11788 0.24529 0.53301 0.0
C1877 C 0.13186 0.27035 0.52845 0.0
H1878 H 0.10128 0.20745 0.5147 0.0
C1879 C 0.13284 0.27953 0.50247 0.0
H1880 H 0.11633 0.23794 0.55299 0.0
C1881 C 0.12297 0.2625 0.48082 0.0
C1882 C 0.11296 0.23582 0.48465 0.0
H1883 H 0.1428 0.29912 0.49852 0.0
H1884 H 0.12628 0.26892 0.46053 0.0
C1885 C 0.10854 0.22808 0.51119 0.0
C1886 C 0.12389 0.53446 0.04521 0.0
C1887 C 0.10448 0.51263 0.04803 0.0
H1888 H 0.13838 0.56772 0.02235 0.0
C1889 C 0.085 0.5071 0.02863 0.0
H1890 H 0.13919 0.53924 0.05973 0.0
C1891 C 0.08456 0.52341 1.00727 0.0
C1892 C 0.10356 0.54553 1.00489 0.0
H1893 H 0.06984 0.49032 0.03006 0.0
H1894 H 0.06916 0.51889 0.99282 0.0
C1895 C 0.12344 0.55075 0.0238 0.0
C1896 C 0.02093 0.47232 0.88081 0.0
C1897 C 0.03391 0.46758 0.90403 0.0
H1898 H 0.99492 0.4977 0.86324 0.0
C1899 C 0.03162 0.4864 0.92697 0.0
H1900 H 0.02208 0.45824 0.86287 0.0
C1901 C 0.01679 0.50897 0.92698 0.0
C1902 C 1.0031 0.51331 0.9043 0.0
H1903 H 0.04114 0.48372 0.94538 0.0
H1904 H 0.0153 0.52257 0.94526 0.0
C1905 C 1.00547 0.49493 0.88103 0.0
C1906 C 0.49513 0.77222 0.90734 0.0
C1907 C 0.51797 0.76642 0.89009 0.0
H1908 H 0.45439 0.75912 0.91991 0.0
C1909 C 0.51927 0.74059 0.87643 0.0
H1910 H 0.49375 0.792 0.91827 0.0
C1911 C 0.49699 0.72185 0.8777 0.0
C1912 C 0.47317 0.72866 0.89268 0.0
H1913 H 0.53677 0.73551 0.86333 0.0
H1914 H 0.49757 0.70281 0.86522 0.0
C1915 C 0.47273 0.75339 0.90858 0.0
C1916 C 0.22238 0.20444 0.6371 0.0
C1917 C 0.24269 0.20069 0.61621 0.0
H1918 H 0.18957 0.22795 0.65355 0.0
C1919 C 0.24419 0.21801 0.59502 0.0
H1920 H 0.22057 0.1917 0.65382 0.0
C1921 C 0.22655 0.23847 0.59476 0.0
C1922 C 0.20662 0.24276 0.61575 0.0
H1923 H 0.25936 0.21615 0.57845 0.0
H1924 H 0.22893 0.25125 0.57806 0.0
C1925 C 0.20459 0.22527 0.6369 0.0
C1926 C 0.50362 0.55601 0.64063 0.0
C1927 C 0.48331 0.55569 0.62232 0.0
H1928 H 0.53624 0.53535 0.65333 0.0
C1929 C 0.4784 0.5322 0.60469 0.0
H1930 H 0.50796 0.5738 0.65437 0.0
C1931 C 0.49448 0.51032 0.60406 0.0
C1932 C 0.51595 0.51134 0.621 0.0
H1933 H 0.46267 0.53112 0.59054 0.0
H1934 H 0.49078 0.49308 0.58947 0.0
C1935 C 0.51986 0.53404 0.63991 0.0
C1936 C 0.81587 0.29931 0.88617 0.0
C1937 C 0.8139 0.28206 0.90752 0.0
H1938 H 0.79987 0.33254 0.86882 0.0
C1939 C 0.794 0.28654 0.92853 0.0
H1940 H 0.83087 0.29652 0.86952 0.0
C1941 C 0.77637 0.30705 0.92808 0.0
C1942 C 0.77782 0.32402 0.90658 0.0
H1943 H 0.79174 0.27394 0.94536 0.0
H1944 H 0.7613 0.30933 0.94472 0.0
C1945 C 0.79807 0.32004 0.88572 0.0
C1946 C 0.02396 0.80285 0.14373 0.0
C1947 C 0.04777 0.79601 0.12876 0.0
H1948 H 0.98415 0.78926 0.15807 0.0
C1949 C 0.04819 0.77128 0.11288 0.0
H1950 H 0.02339 0.82191 0.1562 0.0
C1951 C 0.02577 0.75248 0.11411 0.0
C1952 C 1.00292 0.75831 0.13133 0.0
H1953 H 0.06652 0.76553 0.10154 0.0
H1954 H 0.02712 0.73269 0.10318 0.0
C1955 C 1.00165 0.78415 0.14499 0.0
C1956 C 0.98554 0.88088 0.29195 0.0
C1957 C 0.98283 0.85732 0.27405 0.0
H1958 H 1.00191 0.89941 0.32865 0.0
C1959 C 0.9932 0.83353 0.28067 0.0
H1960 H 0.97741 0.89945 0.28744 0.0
C1961 C 1.00678 0.8334 0.30421 0.0
C1962 C 0.01049 0.85712 0.32176 0.0
H1963 H 0.99101 0.81497 0.26752 0.0
H1964 H 0.0149 0.8147 0.30835 0.0
C1965 C 0.9993 0.88079 0.31566 0.0
C1966 C 0.64085 0.78195 0.49898 0.0
C1967 C 0.63479 0.77475 0.52547 0.0
H1968 H 0.64007 0.76903 0.4569 0.0
C1969 C 0.6172 0.75169 0.52974 0.0
H1970 H 0.65389 0.79989 0.49513 0.0
C1971 C 0.60879 0.73421 0.50769 0.0
C1972 C 0.61792 0.73968 0.48124 0.0
H1973 H 0.61182 0.74592 0.55005 0.0
H1974 H 0.59817 0.71488 0.51151 0.0
C1975 C 0.63233 0.76461 0.47705 0.0
C1976 C 0.78036 0.39191 0.75116 0.0
C1977 C 0.80142 0.37492 0.75291 0.0
H1978 H 0.74613 0.41058 0.77095 0.0
C1979 C 0.80116 0.36034 0.77594 0.0
H1980 H 0.78004 0.40364 0.73385 0.0
C1981 C 0.78148 0.36438 0.79752 0.0
C1982 C 0.76191 0.38337 0.79666 0.0
H1983 H 0.81741 0.34765 0.7783 0.0
H1984 H 0.78277 0.35403 0.81562 0.0
C1985 C 0.76104 0.39619 0.77267 0.0
C1986 C 0.14756 0.72689 0.23858 0.0
C1987 C 0.12467 0.72522 0.25706 0.0
H1988 H 0.1687 0.74769 0.20604 0.0
C1989 C 0.10608 0.74511 0.25702 0.0
H1990 H 0.16246 0.71207 0.23792 0.0
C1991 C 0.10974 0.76544 0.23898 0.0
C1992 C 0.13215 0.76692 0.22 0.0
H1993 H 0.08827 0.74487 0.2708 0.0
H1994 H 0.09451 0.77994 0.23976 0.0
C1995 C 0.15126 0.74746 0.22031 0.0
C1996 C 0.62239 0.5528 0.70892 0.0
C1997 C 0.60876 0.52718 0.71159 0.0
H1998 H 0.6361 0.59089 0.72875 0.0
C1999 C 0.59417 0.52239 0.7362 0.0
H2000 H 0.63364 0.55726 0.69018 0.0
C2001 C 0.59548 0.54194 0.75846 0.0
C2002 C 0.61152 0.56639 0.75637 0.0
H2003 H 0.58365 0.5028 0.73896 0.0
H2004 H 0.58581 0.53701 0.77778 0.0
C2005 C 0.62387 0.57208 0.73105 0.0
C2006 C 1.00517 0.35888 0.98429 0.0
C2007 C 0.0283 0.37623 0.989 0.0
H2008 H 0.96349 0.3492 0.99637 0.0
C2009 C 0.0278 0.3956 0.01149 0.0
H2010 H 1.00489 0.34412 0.96685 0.0
C2011 C 1.00421 0.39911 0.02769 0.0
C2012 C 0.98052 0.38301 0.02216 0.0
H2013 H 0.04541 0.40922 0.01565 0.0
H2014 H 1.00443 0.41488 0.04425 0.0
C2015 C 0.98143 0.36214 1.00092 0.0
C2016 C 0.51646 0.66578 0.53829 0.0
C2017 C 0.49377 0.64755 0.53433 0.0
H2018 H 0.55766 0.67669 0.52524 0.0
C2019 C 0.49455 0.62772 0.51229 0.0
H2020 H 0.5165 0.681 0.55535 0.0
C2021 C 0.51795 0.62481 0.49566 0.0
C2022 C 0.54126 0.64187 0.50036 0.0
H2023 H 0.47728 0.61347 0.50865 0.0
H2024 H 0.51786 0.60875 0.47938 0.0
C2025 C 0.54006 0.66303 0.52129 0.0
C2026 C 0.86973 0.27835 0.80061 0.0
C2027 C 0.88888 0.25892 0.80104 0.0
H2028 H 0.85855 0.31372 0.78292 0.0
C2029 C 0.91139 0.26052 0.78219 0.0
H2030 H 0.85221 0.27806 0.81478 0.0
C2031 C 0.9151 0.28088 0.76416 0.0
C2032 C 0.89647 0.30072 0.76397 0.0
H2033 H 0.92666 0.24608 0.78149 0.0
H2034 H 0.93299 0.28117 0.75048 0.0
C2035 C 0.87349 0.29896 0.78236 0.0
C2036 C 0.90242 0.9735 0.31151 0.0
C2037 C 0.91366 0.99994 0.30806 0.0
H2038 H 0.89022 0.93452 0.29243 0.0
C2039 C 0.92567 1.00573 0.28254 0.0
H2040 H 0.89312 0.96839 0.33094 0.0
C2041 C 0.92413 0.9861 0.26036 0.0
C2042 C 0.91044 0.96057 0.26348 0.0
H2043 H 0.9341 0.02603 0.27916 0.0
H2044 H 0.93157 0.99165 0.24045 0.0
C2045 C 0.90069 0.95411 0.28946 0.0
C2046 C 0.52677 0.69171 0.74114 0.0
C2047 C 0.53755 0.66801 0.7474 0.0
H2048 H 0.5048 0.7106 0.71372 0.0
C2049 C 0.53526 0.64466 0.72916 0.0
H2050 H 0.52861 0.71012 0.75456 0.0
C2051 C 0.52154 0.64487 0.70544 0.0
C2052 C 0.50998 0.66846 0.69967 0.0
H2053 H 0.54371 0.62617 0.7334 0.0
H2054 H 0.51928 0.62641 0.69216 0.0
C2055 C 0.51323 0.69196 0.71758 0.0
C2056 C 0.89766 0.26166 0.04246 0.0
C2057 C 0.90766 0.28831 0.03843 0.0
H2058 H 0.87803 0.22484 0.02493 0.0
C2059 C 0.91234 0.29577 0.01182 0.0
H2060 H 0.89423 0.25545 0.06282 0.0
C2061 C 0.90313 0.27838 0.9901 0.0
C2062 C 0.88909 0.25336 0.9948 0.0
H2063 H 0.91967 0.31634 1.00816 0.0
H2064 H 0.90484 0.28557 0.97005 0.0
C2065 C 0.88799 0.24439 0.02087 0.0
C2066 C 0.21955 0.66555 0.24482 0.0
C2067 C 0.21982 0.65178 0.26832 0.0
H2068 H 0.23742 0.67091 0.20476 0.0
C2069 C 0.24128 0.6354 0.27046 0.0
H2070 H 0.20298 0.67772 0.24217 0.0
C2071 C 0.26043 0.63077 0.24888 0.0
C2072 C 0.25905 0.64273 0.22448 0.0
H2073 H 0.242 0.62433 0.28817 0.0
H2074 H 0.2756 0.61675 0.25094 0.0
C2075 C 0.23912 0.66124 0.2232 0.0
C2076 C 1.00309 0.05593 0.64038 0.0
C2077 C 0.9828 0.05557 0.62204 0.0
H2078 H 0.03577 0.03537 0.65311 0.0
C2079 C 0.97808 0.03212 0.6043 0.0
H2080 H 1.0073 0.07367 0.65421 0.0
C2081 C 0.99428 1.01033 0.60363 0.0
C2082 C 0.01568 1.01137 0.62065 0.0
H2083 H 0.96238 0.03099 0.59011 0.0
H2084 H 0.9907 0.99312 0.58897 0.0
C2085 C 0.01945 0.03403 0.63963 0.0
C2086 C 0.5261 0.75311 0.61503 0.0
C2087 C 0.50319 0.75894 0.63217 0.0
H2088 H 0.56689 0.76617 0.60263 0.0
C2089 C 0.50184 0.78478 0.64578 0.0
H2090 H 0.5275 0.73332 0.60412 0.0
C2091 C 0.52415 0.80351 0.6446 0.0
C2092 C 0.54802 0.79666 0.62976 0.0
H2093 H 0.4843 0.78989 0.65879 0.0
H2094 H 0.52352 0.82256 0.65705 0.0
C2095 C 0.54851 0.77193 0.61388 0.0
C2096 C 0.26029 0.51631 0.12954 0.0
C2097 C 0.26317 0.54185 0.11943 0.0
H2098 H 0.23398 0.48123 0.13645 0.0
C2099 C 0.24241 0.55012 0.10492 0.0
H2100 H 0.27605 0.50953 0.14073 0.0
C2101 C 0.21795 0.5341 0.10301 0.0
C2102 C 0.21437 0.50945 0.11509 0.0
H2103 H 0.24424 0.56993 0.09713 0.0
H2104 H 0.20118 0.54204 0.09431 0.0
C2105 C 0.23627 0.50011 0.127 0.0
C2106 C 0.52673 0.01504 0.91799 0.0
C2107 C 0.50522 0.01379 0.90107 0.0
H2108 H 0.5588 0.99459 0.93149 0.0
C2109 C 0.50146 0.99103 0.88221 0.0
H2110 H 0.53031 0.03233 0.93254 0.0
C2111 C 0.51792 0.96923 0.8815 0.0
C2112 C 0.5383 0.96978 0.89976 0.0
H2113 H 0.48506 0.98954 0.86881 0.0
H2114 H 0.51371 0.9514 0.86778 0.0
C2115 C 0.54303 0.99333 0.91736 0.0
C2116 C 0.75976 0.50848 0.89252 0.0
C2117 C 0.75712 0.48282 0.90237 0.0
H2118 H 0.78595 0.54361 0.88541 0.0
C2119 C 0.77815 0.47438 0.91637 0.0
H2120 H 0.7438 0.51535 0.88166 0.0
C2121 C 0.80263 0.49039 0.91799 0.0
C2122 C 0.80595 0.51515 0.9061 0.0
H2123 H 0.77652 0.45446 0.9239 0.0
H2124 H 0.81959 0.48235 0.92627 0.0
C2125 C 0.78383 0.52465 0.89474 0.0
C2126 C 0.99461 0.77215 0.40614 0.0
C2127 C 0.0175 0.76644 0.38892 0.0
H2128 H 0.95388 0.75895 0.4186 0.0
C2129 C 0.01887 0.74065 0.37518 0.0
H2130 H 0.9932 0.79189 0.41714 0.0
C2131 C 0.99661 0.72188 0.37633 0.0
C2132 C 0.97275 0.72861 0.39127 0.0
H2133 H 0.0364 0.73563 0.36211 0.0
H2134 H 0.99725 0.70287 0.3638 0.0
C2135 C 0.97225 0.75328 0.40726 0.0
C2136 C 0.02153 0.14447 0.70491 0.0
C2137 C 0.0107 0.1683 0.6987 0.0
H2138 H 0.043 0.12555 0.73329 0.0
C2139 C 0.01467 0.19202 0.71619 0.0
H2140 H 0.0187 0.12585 0.69197 0.0
C2141 C 0.02813 0.19175 0.7398 0.0
C2142 C 0.03811 0.1678 0.74655 0.0
H2143 H 1.00683 0.21083 0.71198 0.0
H2144 H 0.03051 0.21032 0.75291 0.0
C2145 C 0.03516 0.14424 0.72869 0.0
C2146 C 0.40372 0.28035 0.48955 0.0
C2147 C 0.38945 0.25538 0.49392 0.0
H2148 H 0.42046 0.318 0.50814 0.0
C2149 C 0.38809 0.2461 0.51987 0.0
H2150 H 0.40554 0.28777 0.4696 0.0
C2151 C 0.39792 0.26294 0.54166 0.0
C2152 C 0.40823 0.28957 0.538 0.0
H2153 H 0.37791 0.22657 0.52367 0.0
H2154 H 0.39434 0.25646 0.5619 0.0
C2155 C 0.41298 0.2974 0.51151 0.0
C2156 C 0.42685 0.50415 0.2841 0.0
C2157 C 0.41319 0.49912 0.3091 0.0
H2158 H 0.4341 0.48961 0.2423 0.0
C2159 C 0.40023 0.47324 0.31213 0.0
H2160 H 0.43676 0.52396 0.28104 0.0
C2161 C 0.39835 0.45394 0.29005 0.0
C2162 C 0.40973 0.45982 0.26443 0.0
H2163 H 0.38966 0.46862 0.33116 0.0
H2164 H 0.38656 0.43494 0.29266 0.0
C2165 C 0.42521 0.48454 0.26189 0.0
C2166 C 0.01553 0.6643 0.0367 0.0
C2167 C 0.99266 0.64623 0.03322 0.0
H2168 H 0.05669 0.67464 0.0231 0.0
C2169 C 0.99307 0.62605 0.01145 0.0
H2170 H 0.01586 0.67977 0.05352 0.0
C2171 C 0.0163 0.62265 0.99467 0.0
C2172 C 0.03978 0.63956 0.9989 0.0
H2173 H 0.97565 0.61191 1.00817 0.0
H2174 H 0.01594 0.60632 0.97866 0.0
C2175 C 0.03895 0.66106 0.01952 0.0
C2176 C 0.48207 0.36347 0.50179 0.0
C2177 C 0.48098 0.38508 0.52228 0.0
H2178 H 0.50531 0.34488 0.46786 0.0
C2179 C 0.50419 0.40246 0.52627 0.0
H2180 H 0.46454 0.34955 0.49837 0.0
C2181 C 0.5274 0.39934 0.5094 0.0
C2182 C 0.52805 0.37898 0.4878 0.0
H2183 H 0.50433 0.41888 0.54218 0.0
H2184 H 0.54462 0.41378 0.51252 0.0
C2185 C 0.50546 0.3605 0.48454 0.0
C2186 C 0.12395 0.07126 0.73111 0.0
C2187 C 0.11156 0.06568 0.75644 0.0
H2188 H 0.13356 0.05634 0.69024 0.0
C2189 C 0.09534 0.04135 0.75857 0.0
H2190 H 0.13632 0.08997 0.72878 0.0
C2191 C 0.09386 0.02178 0.73633 0.0
C2192 C 0.10846 0.02644 0.71169 0.0
H2193 H 0.08563 0.03651 0.77791 0.0
H2194 H 0.0832 1.00226 0.73912 0.0
C2195 C 0.12229 0.05197 0.70899 0.0
C2196 C 0.49921 0.38078 0.31635 0.0
C2197 C 0.51056 0.35713 0.32231 0.0
H2198 H 0.4772 0.39947 0.28825 0.0
C2199 C 0.50703 0.33351 0.30459 0.0
H2200 H 0.50169 0.39932 0.32948 0.0
C2201 C 0.49347 0.33371 0.28104 0.0
C2202 C 0.48292 0.35747 0.27457 0.0
H2203 H 0.51528 0.31483 0.30858 0.0
H2204 H 0.49143 0.31522 0.26776 0.0
C2205 C 0.48547 0.38093 0.29264 0.0
C2206 C 0.12214 0.76161 0.97903 0.0
C2207 C 0.11253 0.73491 0.98331 0.0
H2208 H 0.14146 0.79878 0.99616 0.0
C2209 C 0.10831 0.72758 1.01 0.0
H2210 H 0.12528 0.7677 0.95861 0.0
C2211 C 0.11755 0.74523 0.03152 0.0
C2212 C 0.13116 0.77038 0.02655 0.0
H2213 H 0.10132 0.70696 0.01384 0.0
H2214 H 0.11619 0.73817 0.05162 0.0
C2215 C 0.13182 0.77915 1.00043 0.0
C2216 C 1.00131 0.99157 0.38106 0.0
C2217 C 1.00539 0.0144 0.39976 0.0
H2218 H 0.01314 0.95175 0.36676 0.0
C2219 C 0.02709 0.01561 0.41644 0.0
H2220 H 0.98475 0.9901 0.36785 0.0
C2221 C 0.04324 0.99378 0.41577 0.0
C2222 C 0.03817 0.97015 0.39837 0.0
H2223 H 0.03092 0.03297 0.43085 0.0
H2224 H 0.05916 0.995 0.42974 0.0
C2225 C 0.01762 0.96964 0.38031 0.0
C2226 C 0.51899 0.24056 0.37701 0.0
C2227 C 0.51748 0.26656 0.39025 0.0
H2228 H 0.49749 0.20257 0.36614 0.0
C2229 C 0.49449 0.27248 0.40723 0.0
H2230 H 0.5366 0.23537 0.36414 0.0
C2231 C 0.47216 0.2536 0.40854 0.0
C2232 C 0.4728 0.22867 0.393 0.0
H2233 H 0.49296 0.2924 0.41784 0.0
H2234 H 0.4537 0.25942 0.41959 0.0
C2235 C 0.49676 0.22175 0.37837 0.0
C2236 C 0.49346 1.00951 0.10491 0.0
C2237 C 0.5151 1.01087 0.12168 0.0
H2238 H 0.46124 0.02985 0.09154 0.0
C2239 C 0.51896 0.03371 0.14041 0.0
H2240 H 0.4898 0.99215 0.09047 0.0
C2241 C 0.50246 0.05549 0.14114 0.0
C2242 C 0.48194 0.05483 0.12302 0.0
H2243 H 0.53546 0.03529 0.1537 0.0
H2244 H 0.50676 0.07339 0.15474 0.0
C2245 C 0.47711 0.0312 0.10556 0.0
C2246 C 0.04957 0.27203 0.61323 0.0
C2247 C 0.04885 0.29699 0.62871 0.0
H2248 H 0.02882 0.23321 0.60387 0.0
C2249 C 0.02483 0.30389 0.64325 0.0
H2250 H 0.06808 0.26621 0.60227 0.0
C2251 C 1.00261 0.28507 0.64453 0.0
C2252 C 1.00416 0.25906 0.63131 0.0
H2253 H 0.02405 0.32308 0.65545 0.0
H2254 H 0.98494 0.29025 0.65732 0.0
C2255 C 0.02723 0.25313 0.61446 0.0
C2256 C 0.62304 0.03647 0.04844 0.0
C2257 C 0.60484 0.01345 0.04982 0.0
H2258 H 0.63687 0.07079 0.02676 0.0
C2259 C 0.58696 1.00693 0.02908 0.0
H2260 H 0.63711 0.04205 0.06404 0.0
C2261 C 0.5869 0.02334 1.00772 0.0
C2262 C 0.60463 0.04664 1.00676 0.0
H2263 H 0.57281 0.98922 0.02938 0.0
H2264 H 0.57274 0.01798 0.99217 0.0
C2265 C 0.62289 0.05294 0.02712 0.0
C2266 C 0.28118 0.86366 0.79783 0.0
C2267 C 0.26151 0.8825 0.79673 0.0
H2268 H 0.31721 0.84699 0.77883 0.0
C2269 C 0.26049 0.89496 0.77257 0.0
H2270 H 0.28258 0.85358 0.81609 0.0
C2271 C 0.2798 0.89053 0.75109 0.0
C2272 C 0.30099 0.87376 0.75308 0.0
H2273 H 0.24549 0.90922 0.77069 0.0
H2274 H 0.2794 0.90202 0.73362 0.0
C2275 C 0.30086 0.85949 0.7763 0.0
C2276 C 0.6058 0.24445 0.2574 0.0
C2277 C 0.62445 0.22463 0.25758 0.0
H2278 H 0.59416 0.27921 0.24004 0.0
C2279 C 0.6474 0.2264 0.23916 0.0
H2280 H 0.58792 0.24415 0.2711 0.0
C2281 C 0.65111 0.24699 0.22088 0.0
C2282 C 0.63195 0.2664 0.22046 0.0
H2283 H 0.66237 0.21166 0.2386 0.0
H2284 H 0.66862 0.24729 0.2067 0.0
C2285 C 0.60946 0.26479 0.23934 0.0
C2286 C 0.27944 0.39329 0.50658 0.0
C2287 C 0.2658 0.36946 0.49542 0.0
H2288 H 0.30922 0.41075 0.53342 0.0
C2289 C 0.27252 0.34433 0.50277 0.0
H2290 H 0.27481 0.41295 0.50107 0.0
C2291 C 0.29227 0.34301 0.52115 0.0
C2292 C 0.30581 0.36684 0.53265 0.0
H2293 H 0.26245 0.32562 0.49438 0.0
H2294 H 0.29674 0.32325 0.5265 0.0
C2295 C 0.29926 0.392 0.525 0.0
C2296 C 0.41496 0.78012 0.76426 0.0
C2297 C 0.39635 0.79999 0.76429 0.0
H2298 H 0.42661 0.7453 0.78147 0.0
C2299 C 0.37351 0.79832 0.78283 0.0
H2300 H 0.43274 0.78036 0.75042 0.0
C2301 C 0.36989 0.77776 0.80109 0.0
C2302 C 0.38902 0.75831 0.80133 0.0
H2303 H 0.3586 0.81313 0.78353 0.0
H2304 H 0.35248 0.77752 0.81541 0.0
C2305 C 0.41137 0.75978 0.7823 0.0
C2306 C 0.73319 0.18246 0.99717 0.0
C2307 C 0.71734 0.15904 0.98814 0.0
H2308 H 0.76514 0.19939 0.0217 0.0
C2309 C 0.72211 0.13413 0.99769 0.0
H2310 H 0.73017 0.20202 0.99028 0.0
C2311 C 0.7423 0.13269 0.01565 0.0
C2312 C 0.75822 0.15607 0.02441 0.0
H2313 H 0.71034 0.11569 0.99122 0.0
H2314 H 0.74539 0.11323 0.02275 0.0
C2315 C 0.7534 0.18098 0.01506 0.0
C2316 C 0.71969 0.16504 0.24542 0.0
C2317 C 0.71957 0.1506 0.26853 0.0
H2318 H 0.73793 0.17119 0.20564 0.0
C2319 C 0.74071 0.13373 0.27032 0.0
H2320 H 0.70337 0.17763 0.24303 0.0
C2321 C 0.75996 0.1294 0.24877 0.0
C2322 C 0.75897 0.14206 0.22471 0.0
H2323 H 0.74112 0.1221 0.2877 0.0
H2324 H 0.77489 0.11505 0.25056 0.0
C2325 C 0.73933 0.16097 0.2238 0.0
C2326 C 0.39975 0.47207 0.49537 0.0
C2327 C 0.41825 0.47819 0.51553 0.0
H2328 H 0.38522 0.48313 0.45871 0.0
C2329 C 0.43625 0.50127 0.51435 0.0
H2330 H 0.38557 0.45439 0.4959 0.0
C2331 C 0.43613 0.51772 0.49302 0.0
C2332 C 0.41791 0.51142 0.47254 0.0
H2333 H 0.45061 0.50647 0.52973 0.0
H2334 H 0.45044 0.53529 0.49254 0.0
C2335 C 0.39954 0.48855 0.47409 0.0
C2336 C 0.31624 0.79926 0.88639 0.0
C2337 C 0.31434 0.78207 0.90778 0.0
H2338 H 0.30013 0.8324 0.86896 0.0
C2339 C 0.29446 0.78657 0.9288 0.0
H2340 H 0.33122 0.79644 0.86972 0.0
C2341 C 0.27678 0.80705 0.92832 0.0
C2342 C 0.27815 0.82396 0.90679 0.0
H2343 H 0.29224 0.77402 0.94567 0.0
H2344 H 0.26173 0.80934 0.94499 0.0
C2345 C 0.29839 0.81995 0.8859 0.0
C2346 C 0.718 0.03399 0.10334 0.0
C2347 C 0.71445 1.00956 0.11581 0.0
H2348 H 0.74431 0.06967 0.09686 0.0
C2349 C 0.7364 1.00034 0.1277 0.0
H2350 H 0.70118 0.04183 0.09461 0.0
C2351 C 0.76048 0.01648 0.12985 0.0
C2352 C 0.76335 0.04186 0.11939 0.0
H2353 H 0.73413 0.98163 0.13746 0.0
H2354 H 0.77629 1.00984 0.14108 0.0
C2355 C 0.74252 0.04997 0.10488 0.0
C2356 C 0.74256 0.7179 0.59185 0.0
C2357 C 0.74181 0.70115 0.61343 0.0
H2358 H 0.72697 0.75122 0.57521 0.0
C2359 C 0.72244 0.70549 0.63506 0.0
H2360 H 0.75692 0.71524 0.57462 0.0
C2361 C 0.70492 0.72653 0.63533 0.0
C2362 C 0.70635 0.7437 0.61397 0.0
H2363 H 0.72127 0.69314 0.65206 0.0
H2364 H 0.69065 0.72969 0.65257 0.0
C2365 C 0.72523 0.73874 0.59212 0.0
C2366 C 0.28405 0.02441 0.89499 0.0
C2367 C 0.30604 0.0149 0.9066 0.0
H2368 H 0.2442 0.01512 0.88139 0.0
C2369 C 0.30259 0.99005 0.9183 0.0
H2370 H 0.28626 0.04345 0.8858 0.0
C2371 C 0.27815 0.97401 0.91632 0.0
C2372 C 0.25729 0.98248 0.9021 0.0
H2373 H 0.31944 0.98198 0.92674 0.0
H2374 H 0.27642 0.95407 0.9238 0.0
C2375 C 0.26004 1.0082 0.89237 0.0
C2376 C 0.43336 1.0015 0.01493 0.0
C2377 C 0.41606 0.97788 0.01559 0.0
H2378 H 0.44695 0.03599 0.99361 0.0
C2379 C 0.39798 0.97138 0.9951 0.0
H2380 H 0.44735 1.00702 0.03061 0.0
C2381 C 0.39762 0.98798 0.97391 0.0
C2382 C 0.41544 1.01129 0.97281 0.0
H2383 H 0.38432 0.95329 0.99523 0.0
H2384 H 0.38375 0.98223 0.95817 0.0
C2385 C 0.43311 0.01803 0.99371 0.0
C2386 C 0.73343 0.68361 0.49521 0.0
C2387 C 0.71695 0.66036 0.48693 0.0
H2388 H 0.76599 0.70044 0.51904 0.0
C2389 C 0.72123 0.63567 0.49734 0.0
H2390 H 0.73085 0.70297 0.48766 0.0
C2391 C 0.74151 0.63426 0.5153 0.0
C2392 C 0.75813 0.65743 0.52322 0.0
H2393 H 0.709 0.61733 0.49152 0.0
H2394 H 0.74415 0.61497 0.523 0.0
C2395 C 0.75376 0.68214 0.51307 0.0
C2396 C 0.29896 0.89071 0.02351 0.0
C2397 C 0.30358 0.86582 0.0332 0.0
H2398 H 0.2758 0.91162 0.99833 0.0
C2399 C 0.28759 0.84244 0.02427 0.0
H2400 H 0.31083 0.9091 0.0299 0.0
C2401 C 0.2674 0.84396 1.00637 0.0
C2402 C 0.26272 0.86885 0.9969 0.0
H2403 H 0.29049 0.82289 0.03125 0.0
H2404 H 0.25555 0.82558 0.99983 0.0
C2405 C 0.27878 0.89218 1.00553 0.0
C2406 C 0.58641 0.52421 0.5071 0.0
C2407 C 0.60408 0.54756 0.50623 0.0
H2408 H 0.5726 0.48983 0.52852 0.0
C2409 C 0.62251 0.55369 0.52645 0.0
H2410 H 0.57213 0.51898 0.49165 0.0
C2411 C 0.62291 0.537 0.54754 0.0
C2412 C 0.60478 0.51393 0.54884 0.0
H2413 H 0.63646 0.57157 0.52615 0.0
H2414 H 0.63711 0.54247 0.56303 0.0
C2415 C 0.5867 0.50757 0.52825 0.0
C2416 C 0.70469 0.22572 0.13522 0.0
C2417 C 0.70656 0.24287 0.1138 0.0
H2418 H 0.72077 0.19255 0.1526 0.0
C2419 C 0.72631 0.23826 0.09268 0.0
H2420 H 0.6898 0.22861 0.15196 0.0
C2421 C 0.74392 0.21773 0.0931 0.0
C2422 C 0.7426 0.20087 0.11467 0.0
H2423 H 0.72848 0.25078 0.07578 0.0
H2424 H 0.75889 0.21536 0.07637 0.0
C2425 C 0.72247 0.20497 0.13564 0.0
C2426 C 0.27765 0.30814 0.42676 0.0
C2427 C 0.27901 0.32526 0.40541 0.0
H2428 H 0.29299 0.27506 0.4439 0.0
C2429 C 0.29917 0.32132 0.38441 0.0
H2430 H 0.26259 0.31013 0.44342 0.0
C2431 C 0.31695 0.30049 0.38467 0.0
C2432 C 0.31504 0.28321 0.40598 0.0
H2433 H 0.30087 0.33391 0.36758 0.0
H2434 H 0.33186 0.29765 0.36794 0.0
C2435 C 0.29527 0.28769 0.42708 0.0
C2436 C 0.28042 0.36406 0.2977 0.0
C2437 C 0.26055 0.38263 0.29627 0.0
H2438 H 0.3168 0.34766 0.27918 0.0
C2439 C 0.25975 0.39498 0.272 0.0
H2440 H 0.28172 0.35409 0.31604 0.0
C2441 C 0.27936 0.39067 0.25076 0.0
C2442 C 0.30066 0.3741 0.25304 0.0
H2443 H 0.24466 0.40906 0.26984 0.0
H2444 H 0.27905 0.40205 0.2332 0.0
C2445 C 0.30038 0.35999 0.27638 0.0
C2446 C 0.64742 0.72707 0.73956 0.0
C2447 C 0.62447 0.72524 0.75796 0.0
H2448 H 0.66866 0.74813 0.70724 0.0
C2449 C 0.60583 0.74509 0.75793 0.0
H2450 H 0.66236 0.71229 0.73889 0.0
C2451 C 0.60952 0.76555 0.74001 0.0
C2452 C 0.63201 0.76721 0.72116 0.0
H2453 H 0.58795 0.74473 0.77164 0.0
H2454 H 0.59425 0.78 0.7408 0.0
C2455 C 0.65116 0.74777 0.72144 0.0
C2456 C 0.41527 0.28028 0.26372 0.0
C2457 C 0.39638 0.29987 0.26356 0.0
H2458 H 0.42721 0.24559 0.28101 0.0
C2459 C 0.37337 0.29781 0.28184 0.0
H2460 H 0.43321 0.28083 0.25012 0.0
C2461 C 0.36981 0.27713 0.29997 0.0
C2462 C 0.38919 0.25794 0.30038 0.0
H2463 H 0.35824 0.31239 0.28241 0.0
H2464 H 0.35223 0.27658 0.31407 0.0
C2465 C 0.41176 0.25984 0.28166 0.0
C2466 C 0.74035 0.63367 0.76896 0.0
C2467 C 0.71913 0.65051 0.76738 0.0
H2468 H 0.77442 0.615 0.74887 0.0
C2469 C 0.71887 0.66472 0.74416 0.0
H2470 H 0.74103 0.62218 0.7864 0.0
C2471 C 0.73821 0.6605 0.72229 0.0
C2472 C 0.75797 0.64168 0.72305 0.0
H2473 H 0.70248 0.67727 0.74192 0.0
H2474 H 0.73653 0.6706 0.70411 0.0
C2475 C 0.75935 0.62923 0.74719 0.0
C2476 C 0.71791 0.53542 0.60214 0.0
C2477 C 0.71475 0.51062 0.61396 0.0
H2478 H 0.74384 0.57147 0.59619 0.0
C2479 C 0.737 0.50121 0.62519 0.0
H2480 H 0.70085 0.54341 0.59399 0.0
C2481 C 0.76104 0.51746 0.62729 0.0
C2482 C 0.76354 0.54315 0.61748 0.0
H2483 H 0.735 0.48224 0.63451 0.0
H2484 H 0.7771 0.51063 0.63803 0.0
C2485 C 0.74236 0.55153 0.60366 0.0
C2486 C 0.29711 0.50747 0.37343 0.0
C2487 C 0.31082 0.51049 0.39738 0.0
H2488 H 0.26258 0.49199 0.35302 0.0
C2489 C 0.29785 0.50023 0.42083 0.0
H2490 H 0.30642 0.51444 0.3548 0.0
C2491 C 0.2723 0.48568 0.41947 0.0
C2492 C 0.25947 0.4818 0.39478 0.0
H2493 H 0.30801 0.50203 0.43955 0.0
H2494 H 0.26331 0.47642 0.43719 0.0
C2495 C 0.27181 0.49402 0.37229 0.0
C2496 C 0.14344 1.00524 0.45037 0.0
C2497 C 0.13309 0.98877 0.42841 0.0
H2498 H 0.15809 0.04533 0.46502 0.0
C2499 C 0.13339 0.99919 0.40304 0.0
H2500 H 0.14334 0.99763 0.47014 0.0
C2501 C 0.14129 0.02639 0.40032 0.0
C2502 C 0.14973 0.04336 0.42269 0.0
H2503 H 0.12543 0.98696 0.38581 0.0
H2504 H 0.13886 0.03467 0.38125 0.0
C2505 C 0.15211 0.03237 0.44739 0.0
C2506 C 0.03913 0.3864 0.63462 0.0
C2507 C 0.05852 0.39476 0.65354 0.0
H2508 H 0.99694 0.38107 0.62713 0.0
C2509 C 0.0499 0.40968 0.67769 0.0
H2510 H 0.04469 0.37383 0.61644 0.0
C2511 C 0.02246 0.4141 0.68373 0.0
C2512 C 1.00278 0.40341 0.66596 0.0
H2513 H 0.06399 0.41542 0.69323 0.0
H2514 H 0.01636 0.42328 0.7036 0.0
C2515 C 0.01161 0.3904 0.64088 0.0
C2516 C 0.67502 0.29914 0.87923 0.0
C2517 C 0.6762 0.31974 0.90051 0.0
H2518 H 0.67243 0.25618 0.86833 0.0
C2519 C 0.67498 0.31281 0.92738 0.0
H2520 H 0.67647 0.3041 0.85836 0.0
C2521 C 0.67427 0.28598 0.93284 0.0
C2522 C 0.67328 0.26538 0.91175 0.0
H2523 H 0.6765 0.32808 0.94428 0.0
H2524 H 0.67484 0.28144 0.95371 0.0
C2525 C 0.67306 0.27194 0.88488 0.0
C2526 C 0.74491 0.96609 0.20904 0.0
C2527 C 0.73148 0.95355 0.18683 0.0
H2528 H 0.78139 0.97066 0.22979 0.0
C2529 C 0.74486 0.93545 0.16817 0.0
H2530 H 0.73496 0.98009 0.22371 0.0
C2531 C 0.77146 0.93026 0.17149 0.0
C2532 C 0.78497 0.94301 0.19358 0.0
H2533 H 0.73492 0.92561 0.1508 0.0
H2534 H 0.78142 0.91629 0.1568 0.0
C2535 C 0.77146 0.96082 0.21241 0.0
C2536 C 0.09853 0.22797 0.89059 0.0
C2537 C 0.11959 0.22297 0.87046 0.0
H2538 H 0.07815 0.25735 0.91754 0.0
C2539 C 0.1395 0.24418 0.86661 0.0
H2540 H 0.08258 0.21231 0.89411 0.0
C2541 C 0.13689 0.27013 0.88032 0.0
C2542 C 0.11449 0.27574 0.89856 0.0
H2543 H 0.15569 0.24155 0.85111 0.0
H2544 H 0.15119 0.28658 0.87469 0.0
C2545 C 0.09605 0.25386 0.90444 0.0
C2546 C 0.76795 0.38414 0.12218 0.0
C2547 C 0.78619 0.37037 0.13516 0.0
H2548 H 0.72755 0.38419 0.1099 0.0
C2549 C 0.77585 0.3495 0.15131 0.0
H2550 H 0.7753 0.39977 0.10903 0.0
C2551 C 0.74836 0.34058 0.15195 0.0
C2552 C 0.73083 0.35205 0.13601 0.0
H2553 H 0.78952 0.33813 0.16108 0.0
H2554 H 0.74154 0.32286 0.16249 0.0
C2555 C 0.74061 0.37489 0.12236 0.0
C2556 C 0.62084 0.01651 0.35796 0.0
C2557 C 0.63044 0.04189 0.37025 0.0
H2558 H 0.62377 0.97319 0.35319 0.0
C2559 C 0.64877 0.04131 0.39067 0.0
H2560 H 0.60797 0.01585 0.34117 0.0
C2561 C 0.65788 0.01658 0.39769 0.0
C2562 C 0.64923 0.99133 0.38446 0.0
H2563 H 0.65791 0.06021 0.39966 0.0
H2564 H 0.67356 0.01747 0.41187 0.0
C2565 C 0.63006 0.99183 0.36485 0.0
C2566 C 0.98915 0.88244 0.62312 0.0
C2567 C 0.96946 0.90135 0.62724 0.0
H2568 H 0.03038 0.87482 0.62736 0.0
C2569 C 0.9752 0.92519 0.64436 0.0
H2570 H 0.98576 0.86414 0.60982 0.0
C2571 C 1.00076 0.93121 0.65472 0.0
C2572 C 0.02132 0.91359 0.64815 0.0
H2573 H 0.9606 0.94037 0.64793 0.0
H2574 H 1.00523 0.95091 0.66534 0.0
C2575 C 0.01479 0.88859 0.63329 0.0
C2576 C 0.37394 0.11883 0.01322 0.0
C2577 C 0.39329 0.13898 0.02279 0.0
H2578 H 0.36266 0.08972 0.98064 0.0
C2579 C 0.41273 0.14966 1.00397 0.0
H2580 H 0.35922 0.10962 0.02737 0.0
C2581 C 0.41542 0.13756 0.97739 0.0
C2582 C 0.39822 0.115 0.96883 0.0
H2583 H 0.42843 0.16457 0.01082 0.0
H2584 H 0.43254 0.14426 0.96436 0.0
C2585 C 0.37623 0.10708 0.98644 0.0
C2586 C 0.89074 0.66454 0.22137 0.0
C2587 C 0.91185 0.65021 0.20843 0.0
H2588 H 0.87254 0.68032 0.25915 0.0
C2589 C 0.92777 0.63618 0.22392 0.0
H2590 H 0.87834 0.67561 0.20979 0.0
C2591 C 0.92501 0.63953 0.25211 0.0
C2592 C 0.90587 0.65635 0.26502 0.0
H2593 H 0.94444 0.6253 0.21447 0.0
H2594 H 0.93923 0.63073 0.2637 0.0
C2595 C 0.88756 0.66734 0.24957 0.0
C2596 C 0.38157 0.12816 0.48747 0.0
C2597 C 0.3698 0.15194 0.48154 0.0
H2598 H 0.38434 0.09835 0.51675 0.0
C2599 C 0.35117 0.16272 0.50134 0.0
H2600 H 0.39585 0.11882 0.47282 0.0
C2601 C 0.34488 0.15132 0.52571 0.0
C2602 C 0.35572 0.12759 0.53215 0.0
H2603 H 0.34117 0.18065 0.49838 0.0
H2604 H 0.33189 0.16221 0.54023 0.0
C2605 C 0.37449 0.11602 0.51249 0.0
C2606 C 0.85457 0.61825 0.75924 0.0
C2607 C 0.86094 0.60041 0.73645 0.0
H2608 H 0.86031 0.62939 0.80136 0.0
C2609 C 0.88241 0.58387 0.73748 0.0
H2610 H 0.83815 0.63127 0.7591 0.0
C2611 C 0.89568 0.58351 0.76143 0.0
C2612 C 0.88774 0.59955 0.78497 0.0
H2613 H 0.88794 0.57001 0.72027 0.0
H2614 H 0.91023 0.56855 0.76235 0.0
C2615 C 0.86771 0.61766 0.78331 0.0
C2616 C 0.39102 0.16518 0.22261 0.0
C2617 C 0.41201 0.15074 0.20961 0.0
H2618 H 0.37299 0.18098 0.26047 0.0
C2619 C 0.42789 0.13658 0.22502 0.0
H2620 H 0.37867 0.17636 0.21109 0.0
C2621 C 0.42522 0.13988 0.2532 0.0
C2622 C 0.40618 0.15677 0.26618 0.0
H2623 H 0.44447 0.1256 0.2155 0.0
H2624 H 0.43941 0.13098 0.26473 0.0
C2625 C 0.38791 0.16792 0.25082 0.0
C2626 C 0.84886 0.62951 0.48265 0.0
C2627 C 0.87294 0.64586 0.47742 0.0
H2628 H 0.82342 0.60758 0.51138 0.0
C2629 C 0.89184 0.64874 0.49744 0.0
H2630 H 0.83352 0.62711 0.46801 0.0
C2631 C 0.88583 0.6375 0.5226 0.0
C2632 C 0.86108 0.6224 0.52835 0.0
H2633 H 0.91022 0.66164 0.49466 0.0
H2634 H 0.89972 0.64248 0.53845 0.0
C2635 C 0.84312 0.61788 0.50752 0.0
C2636 C 0.35545 0.1177 0.76042 0.0
C2637 C 0.36185 0.09972 0.73778 0.0
H2638 H 0.36126 0.12921 0.80246 0.0
C2639 C 0.38353 0.08346 0.73882 0.0
H2640 H 0.33889 0.13055 0.76025 0.0
C2641 C 0.39693 0.08343 0.76272 0.0
C2642 C 0.38888 0.09951 0.78619 0.0
H2643 H 0.38909 0.06952 0.72167 0.0
H2644 H 0.41161 0.06861 0.76371 0.0
C2645 C 0.36871 0.11745 0.78445 0.0
C2646 C 0.91208 0.6503 1.00299 0.0
C2647 C 0.89293 0.63932 0.0219 0.0
H2648 H 0.93157 0.64532 0.9632 0.0
C2649 C 0.87368 0.61903 0.01239 0.0
H2650 H 0.9277 0.66532 1.00978 0.0
C2651 C 0.87584 0.60746 0.98553 0.0
C2652 C 0.89758 0.61569 0.96779 0.0
H2653 H 0.85919 0.6096 0.0266 0.0
H2654 H 0.86239 0.58998 0.97976 0.0
C2655 C 0.91463 0.63838 0.97632 0.0
C2656 C 0.98797 0.38271 0.1246 0.0
C2657 C 0.96866 0.40204 0.12796 0.0
H2658 H 0.02899 0.37466 0.12926 0.0
C2659 C 0.97466 0.42625 0.1444 0.0
H2660 H 0.98434 0.3641 0.11182 0.0
C2661 C 1.00023 0.43219 0.15473 0.0
C2662 C 0.02047 0.41411 0.14875 0.0
H2663 H 0.96035 0.44174 0.14734 0.0
H2664 H 1.005 0.45213 0.16473 0.0
C2665 C 0.01362 0.38878 0.13471 0.0
C2666 C 0.54914 0.40835 0.17786 0.0
C2667 C 0.55774 0.39365 0.15359 0.0
H2668 H 0.51564 0.42195 0.2038 0.0
C2669 C 0.53841 0.38571 0.1345 0.0
H2670 H 0.5632 0.4138 0.19349 0.0
C2671 C 0.51093 0.38989 0.14072 0.0
C2672 C 0.5021 0.40268 0.1659 0.0
H2673 H 0.54396 0.37334 0.11618 0.0
H2674 H 0.49625 0.38087 0.12682 0.0
C2675 C 0.52176 0.41298 0.18385 0.0
C2676 C 0.6532 0.80056 0.39686 0.0
C2677 C 0.67806 0.81137 0.38604 0.0
H2678 H 0.63012 0.76475 0.40835 0.0
C2679 C 0.69681 0.79378 0.37345 0.0
H2680 H 0.63851 0.81379 0.40665 0.0
C2681 C 0.69255 0.76599 0.37545 0.0
C2682 C 0.6691 0.7555 0.38916 0.0
H2683 H 0.71626 0.80159 0.36511 0.0
H2684 H 0.70861 0.75306 0.36849 0.0
C2685 C 0.6485 0.77258 0.39789 0.0
C2686 C 0.24569 0.96722 0.70752 0.0
C2687 C 0.232 0.95404 0.68577 0.0
H2688 H 0.28232 0.97216 0.72805 0.0
C2689 C 0.24513 0.93533 0.66758 0.0
H2690 H 0.23596 0.98173 0.7218 0.0
C2691 C 0.2717 0.93005 0.67099 0.0
C2692 C 0.28542 0.94333 0.69269 0.0
H2693 H 0.235 0.92501 0.65055 0.0
H2694 H 0.28142 0.91554 0.65671 0.0
C2695 C 0.27221 0.96187 0.71099 0.0
C2696 C 0.63366 0.49904 0.40345 0.0
C2697 C 0.63318 0.48871 0.42887 0.0
H2698 H 0.6392 0.53447 0.38157 0.0
C2699 C 0.64333 0.50526 0.45087 0.0
H2700 H 0.62585 0.48674 0.38619 0.0
C2701 C 0.65195 0.53239 0.44788 0.0
C2702 C 0.64975 0.54329 0.4231 0.0
H2703 H 0.64309 0.49771 0.47069 0.0
H2704 H 0.65772 0.54542 0.46554 0.0
C2705 C 0.64153 0.52624 0.40069 0.0
C2706 C 0.24095 0.87455 0.12182 0.0
C2707 C 0.23099 0.85175 0.13543 0.0
H2708 H 0.2758 0.89932 0.10873 0.0
C2709 C 0.24837 0.84014 0.15143 0.0
H2710 H 0.22801 0.88394 0.10931 0.0
C2711 C 0.27589 0.84892 0.15093 0.0
C2712 C 0.28639 0.8698 0.13489 0.0
H2713 H 0.24141 0.82244 0.16193 0.0
H2714 H 0.28944 0.83746 0.16076 0.0
C2715 C 0.26831 0.88369 0.1218 0.0
C2716 C 0.8867 0.02643 0.61823 0.0
C2717 C 0.88725 0.03675 0.59279 0.0
H2718 H 0.88105 0.99102 0.64013 0.0
C2719 C 0.87708 0.0202 0.5708 0.0
H2720 H 0.89451 0.03873 0.63549 0.0
C2721 C 0.86839 0.99308 0.5738 0.0
C2722 C 0.87054 0.98218 0.59859 0.0
H2723 H 0.87736 0.02773 0.55096 0.0
H2724 H 0.86262 0.98006 0.55614 0.0
C2725 C 0.87876 0.99924 0.621 0.0
C2726 C 0.97158 0.61615 0.34284 0.0
C2727 C 0.96298 0.63093 0.36706 0.0
H2728 H 1.0051 0.6027 0.31686 0.0
C2729 C 0.98231 0.63913 0.38606 0.0
H2730 H 0.95748 0.6105 0.32728 0.0
C2731 C 1.00982 0.63517 0.37978 0.0
C2732 C 0.01864 0.62235 0.35461 0.0
H2733 H 0.97673 0.65156 0.40434 0.0
H2734 H 0.02449 0.64438 0.39358 0.0
C2735 C 0.99899 0.61174 0.33678 0.0
C2736 C 0.34522 0.71184 0.09316 0.0
C2737 C 0.3443 0.70474 0.11995 0.0
H2738 H 0.34518 0.74345 0.06713 0.0
C2739 C 0.34585 0.72518 0.14135 0.0
H2740 H 0.34339 0.69667 0.0762 0.0
C2741 C 0.34785 0.75243 0.1359 0.0
C2742 C 0.34729 0.75919 0.10914 0.0
H2743 H 0.34462 0.72007 0.16217 0.0
H2744 H 0.34875 0.76808 0.15255 0.0
C2745 C 0.34597 0.73873 0.08792 0.0
C2746 C 0.27459 0.05646 0.81472 0.0
C2747 C 0.28862 0.0703 0.83592 0.0
H2748 H 0.23769 0.051 0.79468 0.0
C2749 C 0.2758 0.08962 0.85364 0.0
H2750 H 0.28407 0.04145 0.80083 0.0
C2751 C 0.24923 0.09491 0.85029 0.0
C2752 C 0.23518 0.081 0.82912 0.0
H2753 H 0.28619 0.10045 0.87025 0.0
H2754 H 0.23976 0.10993 0.86417 0.0
C2755 C 0.24806 0.06181 0.81132 0.0
C2756 C 0.92456 0.77095 0.11641 0.0
C2757 C 0.90625 0.74897 0.12227 0.0
H2758 H 0.93783 0.81255 0.12677 0.0
C2759 C 0.88387 0.75446 0.14059 0.0
H2760 H 0.94246 0.76758 0.10327 0.0
C2761 C 0.88115 0.78038 0.15437 0.0
C2762 C 0.90093 0.8017 0.15052 0.0
H2763 H 0.86965 0.73794 0.14622 0.0
H2764 H 0.86499 0.78289 0.16992 0.0
C2765 C 0.92196 0.79682 0.13031 0.0
C2766 C 0.28009 0.65052 0.89785 0.0
C2767 C 0.2901 0.67371 0.88492 0.0
H2768 H 0.24516 0.62546 0.91017 0.0
C2769 C 0.27281 0.6859 0.8693 0.0
H2770 H 0.29297 0.6407 0.91006 0.0
C2771 C 0.2453 0.67725 0.86957 0.0
C2772 C 0.23474 0.6559 0.88496 0.0
H2773 H 0.27986 0.70392 0.85933 0.0
H2774 H 0.23179 0.68909 0.86013 0.0
C2775 C 0.25273 0.64149 0.89759 0.0
C2776 C 0.37327 0.98312 0.6315 0.0
C2777 C 0.39119 0.98244 0.65224 0.0
H2778 H 0.3488 1.00713 0.6102 0.0
C2779 C 0.40063 1.00767 0.66492 0.0
H2780 H 0.36433 0.96427 0.6222 0.0
C2781 C 0.39147 0.03237 0.65817 0.0
C2782 C 0.3726 0.03295 0.63834 0.0
H2783 H 0.41322 1.00815 0.68192 0.0
H2784 H 0.39752 0.05092 0.67011 0.0
C2785 C 0.36425 1.00788 0.62461 0.0
C2786 C 0.04496 0.09982 0.37647 0.0
C2787 C 0.05103 0.12366 0.39345 0.0
H2788 H 0.01459 0.07446 0.35564 0.0
C2789 C 0.03163 0.14289 0.39753 0.0
H2790 H 0.05932 0.0844 0.373 0.0
C2791 C 1.00592 0.13706 0.38747 0.0
C2792 C 0.99906 0.11209 0.37273 0.0
H2793 H 0.03528 0.16118 0.41076 0.0
H2794 H 0.99053 0.15105 0.3934 0.0
C2795 C 0.01935 0.09415 0.36617 0.0
C2796 C 0.60503 0.88727 0.04504 0.0
C2797 C 0.62221 0.90982 0.05366 0.0
H2798 H 0.59218 0.86023 0.01158 0.0
C2799 C 0.64428 0.91772 0.03614 0.0
H2800 H 0.58786 0.88059 0.058 0.0
C2801 C 0.64669 0.90595 1.00936 0.0
C2802 C 0.62738 0.88579 0.99972 0.0
H2803 H 0.65784 0.93507 0.042 0.0
H2804 H 0.66148 0.91515 0.99528 0.0
C2805 C 0.60786 0.87514 0.01848 0.0
C2806 C 0.09474 0.38538 0.76913 0.0
C2807 C 0.11422 0.36895 0.75621 0.0
H2808 H 0.07524 0.39946 0.8068 0.0
C2809 C 0.13291 0.35852 0.77166 0.0
H2810 H 0.08022 0.39374 0.75755 0.0
C2811 C 0.12989 0.36152 0.79987 0.0
C2812 C 0.10854 0.37548 0.81284 0.0
H2813 H 0.14818 0.34584 0.76208 0.0
H2814 H 0.14262 0.35083 0.81145 0.0
C2815 C 0.09213 0.38893 0.79732 0.0
C2816 C 0.67807 0.90738 0.51382 0.0
C2817 C 0.66003 0.90302 0.49305 0.0
H2818 H 0.68771 0.898 0.55327 0.0
C2819 C 0.63522 0.88805 0.49885 0.0
H2820 H 0.69781 0.91758 0.50991 0.0
C2821 C 0.6292 0.87679 0.524 0.0
C2822 C 0.64818 0.8795 0.54395 0.0
H2823 H 0.62126 0.8832 0.48304 0.0
H2824 H 0.61076 0.864 0.52681 0.0
C2825 C 0.67232 0.89572 0.53868 0.0
C2826 C 0.13432 0.4381 0.28208 0.0
C2827 C 0.15638 0.42231 0.28298 0.0
H2828 H 0.10651 0.45323 0.25709 0.0
C2829 C 0.16368 0.4052 0.25997 0.0
H2830 H 0.12812 0.45139 0.2995 0.0
C2831 C 0.1509 0.40592 0.23578 0.0
C2832 C 0.13043 0.42354 0.23422 0.0
H2833 H 0.18056 0.39274 0.26005 0.0
H2834 H 0.15897 0.39489 0.21759 0.0
C2835 C 0.12147 0.43867 0.25794 0.0
C2836 C 0.59303 0.8886 0.7974 0.0
C2837 C 0.60893 0.87449 0.81284 0.0
H2838 H 0.58156 0.89418 0.75767 0.0
C2839 C 0.62999 0.86012 0.79986 0.0
H2840 H 0.5764 0.89951 0.8069 0.0
C2841 C 0.63315 0.85738 0.77165 0.0
C2842 C 0.61487 0.86847 0.75625 0.0
H2843 H 0.64237 0.84899 0.81139 0.0
H2844 H 0.64812 0.84438 0.76202 0.0
C2845 C 0.59576 0.88531 0.76922 0.0
C2846 C 0.14045 0.39838 0.53469 0.0
C2847 C 0.15234 0.37469 0.54075 0.0
H2848 H 0.13772 0.42821 0.50541 0.0
C2849 C 0.17134 0.36422 0.52114 0.0
H2850 H 0.12583 0.40747 0.54914 0.0
C2851 C 0.1779 0.37584 0.49689 0.0
C2852 C 0.16698 0.39949 0.49034 0.0
H2853 H 0.18136 0.34629 0.5241 0.0
H2854 H 0.19104 0.36506 0.48246 0.0
C2855 C 0.14776 0.4107 0.50978 0.0
C2856 C 0.63704 0.9393 0.2841 0.0
C2857 C 0.65954 0.924 0.28468 0.0
H2858 H 0.60831 0.95379 0.25964 0.0
C2859 C 0.6669 0.90722 0.26143 0.0
H2860 H 0.63074 0.95234 0.30168 0.0
C2861 C 0.6536 0.90768 0.23744 0.0
C2862 C 0.6325 0.92468 0.23623 0.0
H2863 H 0.6841 0.89515 0.26119 0.0
H2864 H 0.66166 0.89686 0.21911 0.0
C2865 C 0.6237 0.93962 0.26017 0.0
C2866 C 0.10577 0.38662 0.04419 0.0
C2867 C 0.12271 0.40935 0.05281 0.0
H2868 H 0.09341 0.35926 0.01079 0.0
C2869 C 0.14491 0.41726 0.03545 0.0
H2870 H 0.08853 0.37991 0.05705 0.0
C2871 C 0.14763 0.40536 1.00875 0.0
C2872 C 0.12848 0.38508 0.99903 0.0
H2873 H 0.15833 0.43472 0.04133 0.0
H2874 H 0.16245 0.4146 0.99472 0.0
C2875 C 0.10894 0.37432 0.01773 0.0
C2876 C 0.04447 0.59905 0.87545 0.0
C2877 C 0.05052 0.62288 0.89243 0.0
H2878 H 0.0141 0.57368 0.85463 0.0
C2879 C 0.03121 0.64219 0.89641 0.0
H2880 H 0.05879 0.58358 0.8721 0.0
C2881 C 1.00552 0.63639 0.88629 0.0
C2882 C 0.99864 0.61137 0.87165 0.0
H2883 H 0.03487 0.66046 0.90966 0.0
H2884 H 0.99015 0.65042 0.89215 0.0
C2885 C 0.01888 0.5934 0.86511 0.0
C2886 C 0.47145 0.61624 0.84389 0.0
C2887 C 0.4629 0.631 0.86815 0.0
H2888 H 0.50493 0.60274 0.81786 0.0
C2889 C 0.48228 0.6391 0.88714 0.0
H2890 H 0.45734 0.61068 0.82833 0.0
C2891 C 0.50977 0.63505 0.88082 0.0
C2892 C 0.51854 0.62225 0.85563 0.0
H2893 H 0.47675 0.65151 0.90544 0.0
H2894 H 0.52447 0.64419 0.89463 0.0
C2895 C 0.49886 0.61176 0.8378 0.0
C2896 C 0.34649 0.25354 0.63751 0.0
C2897 C 0.34665 0.26025 0.61065 0.0
H2898 H 0.34286 0.22121 0.66386 0.0
C2899 C 0.34591 0.23975 0.58946 0.0
H2900 H 0.34693 0.26923 0.65414 0.0
C2901 C 0.3452 0.2129 0.59479 0.0
C2902 C 0.34372 0.20581 0.62162 0.0
H2903 H 0.34563 0.24439 0.56859 0.0
H2904 H 0.34402 0.19772 0.57778 0.0
C2905 C 0.3445 0.22629 0.64303 0.0
C2906 C 0.74784 0.06126 0.31166 0.0
C2907 C 0.73515 0.08064 0.3294 0.0
H2908 H 0.78367 0.04057 0.30119 0.0
C2909 C 0.74931 0.09446 0.35053 0.0
H2910 H 0.73737 0.05049 0.29506 0.0
C2911 C 0.77581 0.08895 0.35388 0.0
C2912 C 0.78846 0.06949 0.33619 0.0
H2913 H 0.73998 0.10961 0.36438 0.0
H2914 H 0.7863 0.09977 0.37044 0.0
C2915 C 0.77431 0.05568 0.31506 0.0
C2916 C 0.38076 0.49933 0.62118 0.0
C2917 C 0.37228 0.48218 0.59896 0.0
H2918 H 0.39668 0.53886 0.63532 0.0
C2919 C 0.37005 0.49288 0.57408 0.0
H2920 H 0.38309 0.49126 0.64038 0.0
C2921 C 0.37882 0.51994 0.57083 0.0
C2922 C 0.3891 0.53662 0.59268 0.0
H2923 H 0.36406 0.47976 0.55657 0.0
H2924 H 0.37897 0.52735 0.55095 0.0
C2925 C 0.38874 0.52647 0.61818 0.0
C2926 C 0.7524 0.14115 0.89854 0.0
C2927 C 0.73414 0.1553 0.88598 0.0
H2928 H 0.79288 0.14063 0.91045 0.0
C2929 C 0.74448 0.17643 0.87016 0.0
H2930 H 0.74505 0.12531 0.91143 0.0
C2931 C 0.77201 0.18518 0.86943 0.0
C2932 C 0.7896 0.17327 0.88496 0.0
H2933 H 0.7308 0.18808 0.86073 0.0
H2934 H 0.77885 0.20307 0.85918 0.0
C2935 C 0.77979 0.15024 0.89828 0.0
C2936 C 0.10527 0.5092 0.92105 0.0
C2937 C 0.12187 0.49338 0.93354 0.0
H2938 H 0.10029 0.54698 0.90601 0.0
C2939 C 0.14784 0.504 0.94003 0.0
H2940 H 0.08548 0.50121 0.91526 0.0
C2941 C 0.15647 0.53089 0.93511 0.0
C2942 C 0.13927 0.54693 0.92322 0.0
H2943 H 0.16097 0.49188 0.94959 0.0
H2944 H 0.17613 0.53923 0.94107 0.0
C2945 C 0.11394 0.53544 0.91562 0.0
C2946 C 0.04908 0.90849 0.17686 0.0
C2947 C 0.05767 0.89356 0.15272 0.0
H2948 H 0.01557 0.92219 0.20273 0.0
C2949 C 0.03831 0.88525 0.13377 0.0
H2950 H 0.06317 0.91422 0.1924 0.0
C2951 C 0.0108 0.8893 0.14001 0.0
C2952 C 1.002 0.90234 0.16508 0.0
H2953 H 0.04386 0.87269 0.11558 0.0
H2954 H 0.99612 0.88002 0.12625 0.0
C2955 C 0.02167 0.913 0.18287 0.0
C2956 C 0.74675 0.46924 0.70617 0.0
C2957 C 0.73271 0.45548 0.68494 0.0
H2958 H 0.78362 0.47448 0.72628 0.0
C2959 C 0.74546 0.43613 0.6672 0.0
H2960 H 0.73731 0.48427 0.72008 0.0
C2961 C 0.77198 0.43071 0.67059 0.0
C2962 C 0.78603 0.4445 0.69181 0.0
H2963 H 0.73505 0.42537 0.65057 0.0
H2964 H 0.7814 0.41565 0.6567 0.0
C2965 C 0.77323 0.46375 0.70961 0.0
C2966 C 0.13884 0.74473 0.36677 0.0
C2967 C 0.11883 0.72352 0.37019 0.0
H2968 H 0.15055 0.78706 0.37533 0.0
C2969 C 0.09753 0.72842 0.39009 0.0
H2970 H 0.15522 0.74219 0.35148 0.0
C2971 C 0.09494 0.75423 0.40411 0.0
C2972 C 0.11352 0.77613 0.39864 0.0
H2973 H 0.08151 0.71276 0.3933 0.0
H2974 H 0.07689 0.75765 0.417 0.0
C2975 C 0.13613 0.77059 0.38065 0.0
C2976 C 0.74817 0.8428 0.65407 0.0
C2977 C 0.73069 0.85411 0.63797 0.0
H2978 H 0.78932 0.84034 0.66314 0.0
C2979 C 0.74047 0.87687 0.62417 0.0
H2980 H 0.74135 0.82517 0.66472 0.0
C2981 C 0.76783 0.88603 0.62382 0.0
C2982 C 0.78602 0.87228 0.63687 0.0
H2983 H 0.72742 0.88608 0.61163 0.0
H2984 H 0.77522 0.90144 0.61046 0.0
C2985 C 0.77565 0.85169 0.65334 0.0
C2986 C 0.62957 0.49196 0.86387 0.0
C2987 C 0.64857 0.49139 0.88361 0.0
H2988 H 0.60773 0.51609 0.84009 0.0
C2989 C 0.65715 0.51657 0.89702 0.0
H2990 H 0.62337 0.47336 0.85209 0.0
C2991 C 0.64816 0.54133 0.89 0.0
C2992 C 0.63003 0.54199 0.86943 0.0
H2993 H 0.67273 0.51737 0.9113 0.0
H2994 H 0.65725 0.5602 0.89913 0.0
C2995 C 0.62046 0.51667 0.85699 0.0
C2996 C 0.37433 0.61884 0.51353 0.0
C2997 C 0.39346 0.63939 0.52275 0.0
H2998 H 0.36323 0.58923 0.48129 0.0
C2999 C 0.4124 0.65033 0.50362 0.0
H3000 H 0.35998 0.60947 0.52791 0.0
C3001 C 0.41498 0.63808 0.4771 0.0
C3002 C 0.39815 0.61509 0.46893 0.0
H3003 H 0.42791 0.6656 0.51019 0.0
H3004 H 0.4318 0.64502 0.46383 0.0
C3005 C 0.37652 0.6069 0.48681 0.0
C3006 C 0.88847 0.1689 0.75018 0.0
C3007 C 0.90663 0.15781 0.76573 0.0
H3008 H 0.87945 0.17719 0.71034 0.0
C3009 C 0.9258 0.14097 0.75289 0.0
H3010 H 0.87345 0.18191 0.7597 0.0
C3011 C 0.92867 0.13761 0.7247 0.0
C3012 C 0.91284 0.15165 0.70913 0.0
H3013 H 0.93991 0.13211 0.76454 0.0
H3014 H 0.94533 0.12667 0.71531 0.0
C3015 C 0.89176 0.16609 0.72198 0.0
C3016 C 0.38568 0.63411 0.02238 0.0
C3017 C 0.36046 0.61981 0.02814 0.0
H3018 H 0.41054 0.65857 0.99503 0.0
C3019 C 0.34211 0.61703 1.00761 0.0
H3020 H 0.39991 0.63794 0.03805 0.0
C3021 C 0.34791 0.62961 0.98324 0.0
C3022 C 0.37245 0.64525 0.97814 0.0
H3023 H 0.32205 0.60752 0.01151 0.0
H3024 H 0.33228 0.62851 0.96897 0.0
C3025 C 0.39174 0.64631 0.99769 0.0
C3026 C 0.89759 0.09119 0.26314 0.0
C3027 C 0.88592 0.10249 0.28775 0.0
H3028 H 0.89327 0.08102 0.22061 0.0
C3029 C 0.86208 0.11577 0.28718 0.0
H3030 H 0.91526 0.0798 0.26308 0.0
C3031 C 0.84894 0.11565 0.2631 0.0
C3032 C 0.85945 0.10239 0.23893 0.0
H3033 H 0.85203 0.1237 0.30594 0.0
H3034 H 0.82972 0.12456 0.26378 0.0
C3035 C 0.88459 0.09133 0.23892 0.0
C3036 C 0.42853 0.63697 0.72495 0.0
C3037 C 0.41245 0.65081 0.70944 0.0
H3038 H 0.4401 0.63169 0.76473 0.0
C3039 C 0.39129 0.66505 0.72238 0.0
H3040 H 0.44526 0.62617 0.71549 0.0
C3041 C 0.38816 0.66793 0.7506 0.0
C3042 C 0.40655 0.65708 0.76606 0.0
H3043 H 0.37879 0.67601 0.7108 0.0
H3044 H 0.37306 0.68082 0.76017 0.0
C3045 C 0.42581 0.64038 0.75314 0.0
C3046 C 0.89163 0.14664 0.99741 0.0
C3047 C 0.87228 0.1455 0.97791 0.0
H3048 H 0.89995 0.13845 0.03778 0.0
C3049 C 0.84774 0.1299 0.98317 0.0
H3050 H 0.91044 0.15888 0.99463 0.0
C3051 C 0.84202 0.11743 1.00763 0.0
C3052 C 0.86045 0.12028 0.02809 0.0
H3053 H 0.83206 0.12873 0.96896 0.0
H3054 H 0.82197 0.10794 0.01163 0.0
C3055 C 0.88565 0.13456 0.02218 0.0
C3056 C 0.39726 0.59048 0.26351 0.0
C3057 C 0.38603 0.60263 0.28793 0.0
H3058 H 0.39253 0.57943 0.22118 0.0
C3059 C 0.36262 0.61656 0.28709 0.0
H3060 H 0.41454 0.57856 0.26367 0.0
C3061 C 0.34947 0.61631 0.26299 0.0
C3062 C 0.35948 0.60221 0.23906 0.0
H3063 H 0.35285 0.62516 0.30571 0.0
H3064 H 0.33057 0.6258 0.2635 0.0
C3065 C 0.38422 0.59041 0.23928 0.0
C3066 C 0.91271 0.15011 0.50345 0.0
C3067 C 0.89337 0.1394 0.52236 0.0
H3068 H 0.93248 0.14468 0.46383 0.0
C3069 C 0.87412 0.11909 0.51287 0.0
H3070 H 0.92833 0.16515 0.51022 0.0
C3071 C 0.87645 0.10724 0.48611 0.0
C3072 C 0.89835 0.11522 0.46844 0.0
H3073 H 0.85948 0.10985 0.52707 0.0
H3074 H 0.86296 0.08978 0.48039 0.0
C3075 C 0.91543 0.13792 0.4769 0.0
C3076 C 0.51107 0.89002 0.6415 0.0
C3077 C 0.50227 0.90283 0.66668 0.0
H3078 H 0.54414 0.87365 0.61692 0.0
C3079 C 0.52192 0.91346 0.68449 0.0
H3080 H 0.49639 0.8808 0.62771 0.0
C3081 C 0.54933 0.90908 0.67841 0.0
C3082 C 0.55792 0.89429 0.65419 0.0
H3083 H 0.51581 0.92251 0.70441 0.0
H3084 H 0.56344 0.91473 0.69396 0.0
C3085 C 0.53857 0.88608 0.6352 0.0
C3086 C 0.27164 0.46165 0.21113 0.0
C3087 C 0.28498 0.44324 0.19279 0.0
H3088 H 0.23525 0.48128 0.22195 0.0
C3089 C 0.27133 0.42994 0.17105 0.0
H3090 H 0.28168 0.47196 0.22822 0.0
C3091 C 0.24472 0.43508 0.16764 0.0
C3092 C 0.23146 0.45366 0.18585 0.0
H3093 H 0.28115 0.41552 0.15674 0.0
H3094 H 0.23466 0.42475 0.15056 0.0
C3095 C 0.24507 0.46686 0.20765 0.0
C3096 C 0.64395 1.00534 0.9509 0.0
C3097 C 0.63359 0.98877 0.92901 0.0
H3098 H 0.65858 0.04549 0.96538 0.0
C3099 C 0.63385 0.99907 0.90359 0.0
H3100 H 0.64389 0.99782 0.97071 0.0
C3101 C 0.64173 0.02626 0.90075 0.0
C3102 C 0.65018 0.04332 0.92304 0.0
H3103 H 0.62588 0.98676 0.88642 0.0
H3104 H 0.63926 0.03445 0.88164 0.0
C3105 C 0.6526 0.03246 0.9478 0.0
C3106 C 0.24136 0.37498 0.62346 0.0
C3107 C 0.23161 0.35214 0.63712 0.0
H3108 H 0.27601 0.3999 0.61011 0.0
C3109 C 0.2492 0.34061 0.65295 0.0
H3110 H 0.22826 0.38429 0.61105 0.0
C3111 C 0.2767 0.34953 0.65224 0.0
C3112 C 0.28699 0.37046 0.63615 0.0
H3113 H 0.24241 0.32288 0.66346 0.0
H3114 H 0.2904 0.33812 0.66193 0.0
C3115 C 0.26871 0.38424 0.62323 0.0
C3116 C 0.87737 0.51967 0.06949 0.0
C3117 C 0.8875 0.53618 0.09153 0.0
H3118 H 0.86295 0.47955 0.05474 0.0
C3119 C 0.88699 0.52578 0.11693 0.0
H3120 H 0.87763 0.52727 0.04969 0.0
C3121 C 0.8791 0.49857 0.11962 0.0
C3122 C 0.87088 0.48158 0.09718 0.0
H3123 H 0.89478 0.53804 0.13423 0.0
H3124 H 0.88138 0.4903 0.13873 0.0
C3125 C 0.86873 0.49253 0.07242 0.0
C3126 C 1.00964 0.13486 0.88042 0.0
C3127 C 0.01839 0.12215 0.85517 0.0
H3128 H 0.97671 0.15145 0.90507 0.0
C3129 C 0.99869 0.11202 0.83721 0.0
H3130 H 0.02436 0.14376 0.89432 0.0
C3131 C 0.97133 0.11672 0.84327 0.0
C3132 C 0.96282 0.13136 0.86762 0.0
H3133 H 1.00475 0.1031 0.81722 0.0
H3134 H 0.95724 0.11141 0.82765 0.0
C3135 C 0.98219 0.13913 0.8867 0.0
C3136 C 0.25178 0.56957 0.30814 0.0
C3137 C 0.23579 0.58217 0.32923 0.0
H3138 H 0.29013 0.55462 0.29554 0.0
C3139 C 0.24664 0.5896 0.35438 0.0
H3140 H 0.24393 0.56387 0.28847 0.0
C3141 C 0.27312 0.58436 0.3584 0.0
C3142 C 0.28907 0.57171 0.33728 0.0
H3143 H 0.23471 0.59946 0.37091 0.0
H3144 H 0.28103 0.59006 0.37804 0.0
C3145 C 0.27822 0.56441 0.31213 0.0
C3146 C 0.92316 0.29735 0.63077 0.0
C3147 C 0.90197 0.30224 0.65079 0.0
H3148 H 0.94373 0.26813 0.60378 0.0
C3149 C 0.88202 0.28099 0.65434 0.0
H3150 H 0.93914 0.31303 0.62746 0.0
C3151 C 0.88472 0.25512 0.64046 0.0
C3152 C 0.90723 0.2496 0.62233 0.0
H3153 H 0.86573 0.28351 0.66974 0.0
H3154 H 0.87037 0.23862 0.64589 0.0
C3155 C 0.92573 0.27153 0.61676 0.0
C3156 C 0.24463 0.17644 0.37025 0.0
C3157 C 0.2344 0.15548 0.38633 0.0
H3158 H 0.27887 0.20311 0.35895 0.0
C3159 C 0.25274 0.1417 0.3992 0.0
H3160 H 0.23087 0.18783 0.36061 0.0
C3161 C 0.28008 0.15098 0.3989 0.0
C3162 C 0.28978 0.17382 0.38521 0.0
H3163 H 0.24548 0.12603 0.41231 0.0
H3164 H 0.29323 0.14167 0.41125 0.0
C3165 C 0.27212 0.18536 0.36946 0.0
C3166 C 0.39926 0.50837 0.16568 0.0
C3167 C 0.39072 0.48317 0.15228 0.0
H3168 H 0.39542 0.55148 0.17134 0.0
C3169 C 0.37363 0.48396 0.13083 0.0
H3170 H 0.41115 0.50879 0.18318 0.0
C3171 C 0.36458 0.50873 0.12388 0.0
C3172 C 0.37205 0.53374 0.13827 0.0
H3173 H 0.36533 0.46512 0.1209 0.0
H3174 H 0.34977 0.508 0.10882 0.0
C3175 C 0.39008 0.53305 0.15889 0.0
C3176 C 0.60811 0.37511 0.51781 0.0
C3177 C 0.62748 0.38575 0.49889 0.0
H3178 H 0.58837 0.38066 0.55743 0.0
C3179 C 0.64684 0.40595 0.50835 0.0
H3180 H 0.59242 0.36015 0.51105 0.0
C3181 C 0.64457 0.41782 0.53509 0.0
C3182 C 0.62263 0.40996 0.55277 0.0
H3183 H 0.66151 0.41513 0.49413 0.0
H3184 H 0.65813 0.43522 0.5408 0.0
C3185 C 0.60545 0.38733 0.54434 0.0
C3186 C 0.09524 0.88489 0.2679 0.0
C3187 C 0.11443 0.86808 0.25504 0.0
H3188 H 0.07576 0.8992 0.30549 0.0
C3189 C 0.13268 0.85709 0.27057 0.0
H3190 H 0.08106 0.89367 0.25626 0.0
C3191 C 0.12946 0.85996 0.29877 0.0
C3192 C 0.10836 0.87434 0.31165 0.0
H3193 H 0.14772 0.84411 0.26103 0.0
H3194 H 0.14184 0.84892 0.31039 0.0
C3195 C 0.09245 0.8883 0.29609 0.0
C3196 C 0.62873 0.3781 0.02381 0.0
C3197 C 0.6481 0.37932 0.0433 0.0
H3198 H 0.62038 0.38619 0.98342 0.0
C3199 C 0.67261 0.39496 0.03802 0.0
H3200 H 0.60996 0.36582 0.02661 0.0
C3201 C 0.67829 0.40739 0.01354 0.0
C3202 C 0.65985 0.40446 0.99309 0.0
H3203 H 0.68829 0.39618 0.05223 0.0
H3204 H 0.69832 0.41692 1.00953 0.0
C3205 C 0.63467 0.39014 0.99902 0.0
C3206 C 0.12394 0.94102 0.75893 0.0
C3207 C 0.13187 0.92494 0.7354 0.0
H3208 H 0.13191 0.95484 0.79997 0.0
C3209 C 0.15203 0.90697 0.73705 0.0
H3210 H 0.10929 0.95587 0.75801 0.0
C3211 C 0.16537 0.90664 0.76103 0.0
C3212 C 0.15906 0.92459 0.78375 0.0
H3213 H 0.15941 0.89521 0.71901 0.0
H3214 H 0.18191 0.89375 0.76113 0.0
C3215 C 0.13741 0.94091 0.78279 0.0
C3216 C 0.59508 0.3846 0.26841 0.0
C3217 C 0.6143 0.36781 0.25557 0.0
H3218 H 0.57561 0.39896 0.30599 0.0
C3219 C 0.63261 0.35692 0.27111 0.0
H3220 H 0.58086 0.39332 0.25676 0.0
C3221 C 0.62942 0.35986 0.29931 0.0
C3222 C 0.60829 0.37422 0.31217 0.0
H3223 H 0.64767 0.34396 0.26159 0.0
H3224 H 0.64184 0.34889 0.31095 0.0
C3225 C 0.59232 0.38809 0.29659 0.0
C3226 C 0.17257 0.89498 0.03786 0.0
C3227 C 0.14808 0.87926 0.04297 0.0
H3228 H 0.19834 0.91707 1.00954 0.0
C3229 C 0.12877 0.87807 0.02343 0.0
H3230 H 0.18819 0.89618 0.05214 0.0
C3231 C 0.13478 0.89021 0.99872 0.0
C3232 C 0.15996 0.90457 0.99294 0.0
H3233 H 0.11001 0.86575 0.02612 0.0
H3234 H 0.12056 0.88629 0.98305 0.0
C3235 C 0.17831 0.9075 0.01346 0.0
C3236 C 0.66597 0.40738 0.76099 0.0
C3237 C 0.65959 0.42531 0.78369 0.0
H3238 H 0.66025 0.39609 0.71889 0.0
C3239 C 0.63808 0.44178 0.78263 0.0
H3240 H 0.68241 0.39439 0.76117 0.0
C3241 C 0.62481 0.44204 0.75868 0.0
C3242 C 0.63281 0.42595 0.73519 0.0
H3243 H 0.63254 0.45569 0.79981 0.0
H3244 H 0.61024 0.45696 0.7577 0.0
C3245 C 0.65283 0.40786 0.73692 0.0
C3246 C 0.10754 0.87523 0.51762 0.0
C3247 C 0.1268 0.88598 0.49867 0.0
H3248 H 0.08806 0.88053 0.55738 0.0
C3249 C 0.14618 0.90617 0.5081 0.0
H3250 H 0.09182 0.86029 0.51088 0.0
C3251 C 0.14408 0.91787 0.53492 0.0
C3252 C 0.12227 0.90987 0.55268 0.0
H3253 H 0.16075 0.91543 0.49385 0.0
H3254 H 0.15765 0.93527 0.54063 0.0
C3255 C 0.10505 0.88728 0.54423 0.0
C3256 C 0.50977 0.13524 0.3811 0.0
C3257 C 0.5185 0.12214 0.35603 0.0
H3258 H 0.4768 0.15195 0.4056 0.0
C3259 C 0.49874 0.11143 0.33835 0.0
H3260 H 0.5245 0.14457 0.39477 0.0
C3261 C 0.47133 0.11593 0.34446 0.0
C3262 C 0.46281 0.13094 0.36859 0.0
H3263 H 0.50476 0.10218 0.31849 0.0
H3264 H 0.45718 0.11017 0.32898 0.0
C3265 C 0.48227 0.13931 0.38743 0.0
C3266 C 0.74918 0.59518 0.84965 0.0
C3267 C 0.73497 0.58117 0.82866 0.0
H3268 H 0.78626 0.60073 0.86937 0.0
C3269 C 0.74763 0.56176 0.81094 0.0
H3270 H 0.73986 0.61037 0.86346 0.0
C3271 C 0.77414 0.55631 0.81426 0.0
C3272 C 0.78834 0.57028 0.83527 0.0
H3273 H 0.73711 0.55086 0.79445 0.0
H3274 H 0.78348 0.54114 0.80044 0.0
C3275 C 0.77573 0.5898 0.8529 0.0
C3276 C 0.3783 0.99845 0.12114 0.0
C3277 C 0.37028 0.98145 0.09863 0.0
H3278 H 0.39358 0.03801 0.1359 0.0
C3279 C 0.36788 0.99247 0.07395 0.0
H3280 H 0.38073 0.99013 0.1402 0.0
C3281 C 0.3762 0.01971 0.07114 0.0
C3282 C 0.38624 0.03621 0.09322 0.0
H3283 H 0.36222 0.9795 0.05622 0.0
H3284 H 0.37636 0.02736 0.05137 0.0
C3285 C 0.38586 0.02574 0.11857 0.0
C3286 C 0.75295 0.63921 0.39807 0.0
C3287 C 0.7348 0.65275 0.38477 0.0
H3288 H 0.79331 0.63935 0.41045 0.0
C3289 C 0.74521 0.67316 0.36809 0.0
H3290 H 0.74552 0.62396 0.41161 0.0
C3291 C 0.77268 0.68207 0.36738 0.0
C3292 C 0.79013 0.67099 0.3837 0.0
H3293 H 0.73157 0.68436 0.3581 0.0
H3294 H 0.77952 0.69958 0.35653 0.0
C3295 C 0.78031 0.64839 0.39773 0.0
C3296 C 0.17586 0.29938 0.38007 0.0
C3297 C 0.17697 0.31982 0.40151 0.0
H3298 H 0.17323 0.25647 0.36889 0.0
C3299 C 0.17561 0.31271 0.42832 0.0
H3300 H 0.17741 0.3045 0.35925 0.0
C3301 C 0.17483 0.28584 0.43359 0.0
C3302 C 0.1739 0.26539 0.41236 0.0
H3303 H 0.17704 0.32789 0.44533 0.0
H3304 H 0.17528 0.28116 0.45443 0.0
C3305 C 0.17381 0.27213 0.38554 0.0
C3306 C 0.59555 0.254 0.40471 0.0
C3307 C 0.61396 0.27594 0.39894 0.0
H3308 H 0.5822 0.21244 0.39427 0.0
C3309 C 0.63644 0.27038 0.38077 0.0
H3310 H 0.57759 0.25743 0.41774 0.0
C3311 C 0.63915 0.24446 0.36701 0.0
C3312 C 0.61926 0.2232 0.37075 0.0
H3313 H 0.65073 0.28688 0.37522 0.0
H3314 H 0.65539 0.2419 0.35157 0.0
C3315 C 0.59813 0.22813 0.39082 0.0
C3316 C 0.1479 0.04099 0.89008 0.0
C3317 C 0.12983 0.04167 0.86946 0.0
H3318 H 0.17249 0.01704 0.91136 0.0
C3319 C 0.12037 0.01637 0.85691 0.0
H3320 H 0.15692 0.05986 0.89928 0.0
C3321 C 0.12955 0.99166 0.86372 0.0
C3322 C 0.1485 0.99108 0.8835 0.0
H3323 H 0.10769 0.01581 0.83998 0.0
H3324 H 0.12342 0.97308 0.85187 0.0
C3325 C 0.15696 0.01624 0.89703 0.0
C3326 C 0.5008 0.93199 0.15591 0.0
C3327 C 0.52111 0.914 0.14983 0.0
H3328 H 0.46089 0.94151 0.14857 0.0
C3329 C 0.51435 0.88879 0.1355 0.0
H3330 H 0.50549 0.95185 0.16612 0.0
C3331 C 0.48873 0.88273 0.12531 0.0
C3332 C 0.46932 0.90197 0.12886 0.0
H3333 H 0.52978 0.87475 0.12995 0.0
H3334 H 0.48517 0.86422 0.11236 0.0
C3335 C 0.47526 0.92608 0.1455 0.0
C3336 C 0.47587 0.42601 0.64593 0.0
C3337 C 0.46991 0.40208 0.62905 0.0
H3338 H 0.50624 0.45173 0.66639 0.0
C3339 C 0.48942 0.38298 0.62497 0.0
H3340 H 0.46141 0.44132 0.64943 0.0
C3341 C 0.51517 0.38906 0.63484 0.0
C3342 C 0.52194 0.41417 0.64934 0.0
H3343 H 0.48583 0.36461 0.61183 0.0
H3344 H 0.53065 0.37517 0.62888 0.0
C3345 C 0.50155 0.43195 0.65601 0.0
C3346 C 0.17289 0.77177 0.88494 0.0
C3347 C 0.17312 0.76503 0.91175 0.0
H3348 H 0.17639 0.80411 0.85864 0.0
C3349 C 0.17415 0.78551 0.93296 0.0
H3350 H 0.17224 0.75611 0.8683 0.0
C3351 C 0.17493 0.8124 0.92767 0.0
C3352 C 0.17617 0.81949 0.90086 0.0
H3353 H 0.17473 0.78083 0.95378 0.0
H3354 H 0.17651 0.82758 0.94466 0.0
C3355 C 0.17492 0.79902 0.87947 0.0
C3356 C 0.82814 0.75925 0.6456 0.0
C3357 C 0.85162 0.76972 0.63193 0.0
H3358 H 0.8044 0.72368 0.65599 0.0
C3359 C 0.87224 0.75262 0.62331 0.0
H3360 H 0.81206 0.77219 0.65248 0.0
C3361 C 0.86755 0.72464 0.62444 0.0
C3362 C 0.84267 0.71385 0.63524 0.0
H3363 H 0.89066 0.76042 0.61291 0.0
H3364 H 0.88228 0.7114 0.61475 0.0
C3365 C 0.82388 0.73147 0.64769 0.0
C3366 C 0.38435 0.75481 0.6409 0.0
C3367 C 0.40687 0.74926 0.62279 0.0
H3368 H 0.36542 0.78322 0.67016 0.0
C3369 C 0.4254 0.77115 0.61718 0.0
H3370 H 0.36997 0.73834 0.64631 0.0
C3371 C 0.42289 0.79696 0.63119 0.0
C3372 C 0.40172 0.80186 0.65121 0.0
H3373 H 0.44337 0.76771 0.60417 0.0
H3374 H 0.4389 0.81262 0.62787 0.0
C3375 C 0.38171 0.78067 0.65477 0.0
C3376 C 0.89925 1.00825 0.1653 0.0
C3377 C 0.89066 0.98308 0.1519 0.0
H3378 H 0.89548 0.05137 0.17104 0.0
C3379 C 0.87353 0.98392 0.13049 0.0
H3380 H 0.91117 1.00864 0.18279 0.0
C3381 C 0.86451 1.00873 0.12359 0.0
C3382 C 0.87205 0.03372 0.13798 0.0
H3383 H 0.86519 0.96511 0.12055 0.0
H3384 H 0.84968 1.00804 0.10855 0.0
C3385 C 0.8901 0.03297 0.15857 0.0
C3386 C 0.54535 0.098 0.87696 0.0
C3387 C 0.55142 0.12219 0.89343 0.0
H3388 H 0.51499 0.07223 0.85655 0.0
C3389 C 0.53211 0.14154 0.89686 0.0
H3390 H 0.55965 0.0825 0.87396 0.0
C3391 C 0.50646 0.13553 0.88674 0.0
C3392 C 0.49957 0.11025 0.8726 0.0
H3393 H 0.53578 0.16013 0.90965 0.0
H3394 H 0.49111 0.14967 0.89221 0.0
C3395 C 0.51978 0.09214 0.86661 0.0
C3396 C 0.53131 0.6436 0.39844 0.0
C3397 C 0.55104 0.62473 0.39412 0.0
H3398 H 0.49005 0.65121 0.39437 0.0
C3399 C 0.54529 0.60098 0.37688 0.0
H3400 H 0.5347 0.66181 0.41185 0.0
C3401 C 0.51971 0.59501 0.36655 0.0
C3402 C 0.49913 0.61258 0.3733 0.0
H3403 H 0.55991 0.58583 0.37319 0.0
H3404 H 0.51524 0.57537 0.35581 0.0
C3405 C 0.50565 0.63749 0.38831 0.0
C3406 C 0.84535 0.23899 0.08839 0.0
C3407 C 0.84664 0.25952 0.10954 0.0
H3408 H 0.84318 0.19691 0.07678 0.0
C3409 C 0.84742 0.25287 0.13632 0.0
H3410 H 0.8444 0.2436 0.06759 0.0
C3411 C 0.8457 0.22565 0.14185 0.0
C3412 C 0.84424 0.20513 0.12051 0.0
H3413 H 0.8483 0.26857 0.15291 0.0
H3414 H 0.84464 0.22061 0.16268 0.0
C3415 C 0.84492 0.21214 0.0937 0.0
C3416 C 0.63682 0.77048 0.88099 0.0
C3417 C 0.6144 0.776 0.89927 0.0
H3418 H 0.65567 0.74209 0.85162 0.0
C3419 C 0.59599 0.75405 0.905 0.0
H3420 H 0.65111 0.78698 0.87547 0.0
C3421 C 0.59853 0.72821 0.89101 0.0
C3422 C 0.6196 0.72333 0.87085 0.0
H3423 H 0.57808 0.75744 0.91811 0.0
H3424 H 0.5826 0.71252 0.89446 0.0
C3425 C 0.63948 0.7446 0.86713 0.0
C3426 C 0.12955 0.49267 0.36213 0.0
C3427 C 0.14779 0.49172 0.3825 0.0
H3428 H 0.10845 0.51726 0.33824 0.0
C3429 C 0.15561 0.51656 0.39697 0.0
H3430 H 0.12385 0.47431 0.34973 0.0
C3431 C 0.14679 0.54148 0.3902 0.0
C3432 C 0.12951 0.54252 0.36895 0.0
H3433 H 0.17053 0.51705 0.41189 0.0
H3434 H 0.15538 0.56021 0.40008 0.0
C3435 C 0.12053 0.51748 0.35558 0.0
C3436 C 0.38149 0.28049 0.15436 0.0
C3437 C 0.4014 0.30175 0.15076 0.0
H3438 H 0.3699 0.2381 0.14603 0.0
C3439 C 0.42263 0.29683 0.13078 0.0
H3440 H 0.36517 0.28303 0.16973 0.0
C3441 C 0.42526 0.27097 0.11687 0.0
C3442 C 0.40679 0.24903 0.1225 0.0
H3443 H 0.43859 0.31252 0.12743 0.0
H3444 H 0.44328 0.26755 0.10392 0.0
C3445 C 0.38424 0.25458 0.14057 0.0
C3446 C 0.86346 0.50885 0.62372 0.0
C3447 C 0.87191 0.53412 0.63705 0.0
H3448 H 0.86361 0.46522 0.62169 0.0
C3449 C 0.8909 0.53365 0.65684 0.0
H3450 H 0.8479 0.50792 0.60941 0.0
C3451 C 0.90016 0.509 0.66378 0.0
C3452 C 0.89076 0.4836 0.65137 0.0
H3453 H 0.89704 0.5523 0.66857 0.0
H3454 H 0.91288 0.50969 0.68069 0.0
C3455 C 0.87261 0.48415 0.63078 0.0
loop_
_geom_bond_atom_site_label_1
_geom_bond_atom_site_label_2
_geom_bond_distance
_geom_bond_site_symmetry_2
_ccdc_geom_bond_type
Co0 H3 2.400 . S
Co0 O4 2.009 . S
Co0 O12 2.115 . S
Co0 O13 2.315 . S
Co0 O24 2.053 . S
Co0 O27 2.094 . S
Co0 O30 2.122 . S
Co1 O4 2.126 . S
Co1 H5 2.388 . S
Co1 O6 2.053 . S
Co1 O9 2.047 . S
Co1 O15 2.113 . S
Co1 O26 2.063 . S
Co2 H3 2.388 . S
Co2 O4 2.053 . S
Co2 O6 2.126 . S
Co2 O11 2.063 . S
Co2 O25 2.047 . S
Co2 O31 2.113 . S
H3 Co0 2.400 . S
H3 Co2 2.388 . S
H3 O4 0.760 . S
O4 Co0 2.009 . S
O4 Co1 2.126 . S
O4 Co2 2.053 . S
O4 H3 0.760 . S
H5 Co1 2.388 . S
H5 O6 0.760 . S
H5 Co7 2.400 . S
O6 Co1 2.053 . S
O6 Co2 2.126 . S
O6 H5 0.760 . S
O6 Co7 2.009 . S
Co7 H5 2.400 . S
Co7 O6 2.009 . S
Co7 O8 2.053 . S
Co7 O10 2.094 . S
Co7 O14 2.122 . S
Co7 O28 2.115 . S
Co7 O29 2.315 . S
O8 Co7 2.053 . S
O8 C20 1.259 . S
O9 Co1 2.047 . S
O9 C20 1.257 . S
O10 Co7 2.094 . S
O10 C21 1.253 . S
O11 Co2 2.063 . S
O11 C21 1.268 . S
O12 Co0 2.115 . S
O12 C22 1.281 . S
O13 Co0 2.315 . S
O13 C22 1.252 . S
O14 Co7 2.122 . S
O14 C23 1.272 . S
O15 Co1 2.113 . S
O15 C23 1.245 . S
C16 O24 1.259 . S
C16 O25 1.257 . S
C17 O26 1.268 . S
C17 O27 1.253 . S
C18 O28 1.281 . S
C18 O29 1.252 . S
C19 O30 1.272 . S
C19 O31 1.245 . S
C20 O8 1.259 . S
C20 O9 1.257 . S
C21 O10 1.253 . S
C21 O11 1.268 . S
C22 O12 1.281 . S
C22 O13 1.252 . S
C23 O14 1.272 . S
C23 O15 1.245 . S
O24 Co0 2.053 . S
O24 C16 1.259 . S
O25 Co2 2.047 . S
O25 C16 1.257 . S
O26 Co1 2.063 . S
O26 C17 1.268 . S
O27 Co0 2.094 . S
O27 C17 1.253 . S
O28 Co7 2.115 . S
O28 C18 1.281 . S
O29 Co7 2.315 . S
O29 C18 1.252 . S
O30 Co0 2.122 . S
O30 C19 1.272 . S
O31 Co2 2.113 . S
O31 C19 1.245 . S
Co32 H35 2.400 . S
Co32 O36 2.009 . S
Co32 O44 2.115 . S
Co32 O45 2.315 . S
Co32 O56 2.053 . S
Co32 O59 2.094 . S
Co32 O62 2.122 . S
Co33 O36 2.126 . S
Co33 H37 2.388 . S
Co33 O38 2.053 . S
Co33 O41 2.047 . S
Co33 O47 2.113 . S
Co33 O58 2.063 . S
Co34 H35 2.388 . S
Co34 O36 2.053 . S
Co34 O38 2.126 . S
Co34 O43 2.063 . S
Co34 O57 2.047 . S
Co34 O63 2.113 . S
H35 Co32 2.400 . S
H35 Co34 2.388 . S
H35 O36 0.760 . S
O36 Co32 2.009 . S
O36 Co33 2.126 . S
O36 Co34 2.053 . S
O36 H35 0.760 . S
H37 Co33 2.388 . S
H37 O38 0.760 . S
H37 Co39 2.400 . S
O38 Co33 2.053 . S
O38 Co34 2.126 . S
O38 H37 0.760 . S
O38 Co39 2.009 . S
Co39 H37 2.400 . S
Co39 O38 2.009 . S
Co39 O40 2.053 . S
Co39 O42 2.094 . S
Co39 O46 2.122 . S
Co39 O60 2.115 . S
Co39 O61 2.315 . S
O40 Co39 2.053 . S
O40 C52 1.259 . S
O41 Co33 2.047 . S
O41 C52 1.257 . S
O42 Co39 2.094 . S
O42 C53 1.253 . S
O43 Co34 2.063 . S
O43 C53 1.268 . S
O44 Co32 2.115 . S
O44 C54 1.281 . S
O45 Co32 2.315 . S
O45 C54 1.252 . S
O46 Co39 2.122 . S
O46 C55 1.272 . S
O47 Co33 2.113 . S
O47 C55 1.245 . S
C48 O56 1.259 . S
C48 O57 1.257 . S
C49 O58 1.268 . S
C49 O59 1.253 . S
C50 O60 1.281 . S
C50 O61 1.252 . S
C51 O62 1.272 . S
C51 O63 1.245 . S
C52 O40 1.259 . S
C52 O41 1.257 . S
C53 O42 1.253 . S
C53 O43 1.268 . S
C54 O44 1.281 . S
C54 O45 1.252 . S
C55 O46 1.272 . S
C55 O47 1.245 . S
O56 Co32 2.053 . S
O56 C48 1.259 . S
O57 Co34 2.047 . S
O57 C48 1.257 . S
O58 Co33 2.063 . S
O58 C49 1.268 . S
O59 Co32 2.094 . S
O59 C49 1.253 . S
O60 Co39 2.115 . S
O60 C50 1.281 . S
O61 Co39 2.315 . S
O61 C50 1.252 . S
O62 Co32 2.122 . S
O62 C51 1.272 . S
O63 Co34 2.113 . S
O63 C51 1.245 . S
Co64 H67 2.400 . S
Co64 O68 2.009 . S
Co64 O76 2.115 . S
Co64 O77 2.315 . S
Co64 O88 2.053 . S
Co64 O91 2.094 . S
Co64 O94 2.122 . S
Co65 O68 2.126 . S
Co65 H69 2.388 . S
Co65 O70 2.053 . S
Co65 O73 2.047 . S
Co65 O79 2.113 . S
Co65 O90 2.063 . S
Co66 H67 2.388 . S
Co66 O68 2.053 . S
Co66 O70 2.126 . S
Co66 O75 2.063 . S
Co66 O89 2.047 . S
Co66 O95 2.113 . S
H67 Co64 2.400 . S
H67 Co66 2.388 . S
H67 O68 0.760 . S
O68 Co64 2.009 . S
O68 Co65 2.126 . S
O68 Co66 2.053 . S
O68 H67 0.760 . S
H69 Co65 2.388 . S
H69 O70 0.760 . S
H69 Co71 2.400 . S
O70 Co65 2.053 . S
O70 Co66 2.126 . S
O70 H69 0.760 . S
O70 Co71 2.009 . S
Co71 H69 2.400 . S
Co71 O70 2.009 . S
Co71 O72 2.053 . S
Co71 O74 2.094 . S
Co71 O78 2.122 . S
Co71 O92 2.115 . S
Co71 O93 2.315 . S
O72 Co71 2.053 . S
O72 C84 1.259 . S
O73 Co65 2.047 . S
O73 C84 1.257 . S
O74 Co71 2.094 . S
O74 C85 1.253 . S
O75 Co66 2.063 . S
O75 C85 1.268 . S
O76 Co64 2.115 . S
O76 C86 1.281 . S
O77 Co64 2.315 . S
O77 C86 1.252 . S
O78 Co71 2.122 . S
O78 C87 1.272 . S
O79 Co65 2.113 . S
O79 C87 1.245 . S
C80 O88 1.259 . S
C80 O89 1.257 . S
C81 O90 1.268 . S
C81 O91 1.253 . S
C82 O92 1.281 . S
C82 O93 1.252 . S
C83 O94 1.272 . S
C83 O95 1.245 . S
C84 O72 1.259 . S
C84 O73 1.257 . S
C85 O74 1.253 . S
C85 O75 1.268 . S
C86 O76 1.281 . S
C86 O77 1.252 . S
C87 O78 1.272 . S
C87 O79 1.245 . S
O88 Co64 2.053 . S
O88 C80 1.259 . S
O89 Co66 2.047 . S
O89 C80 1.257 . S
O90 Co65 2.063 . S
O90 C81 1.268 . S
O91 Co64 2.094 . S
O91 C81 1.253 . S
O92 Co71 2.115 . S
O92 C82 1.281 . S
O93 Co71 2.315 . S
O93 C82 1.252 . S
O94 Co64 2.122 . S
O94 C83 1.272 . S
O95 Co66 2.113 . S
O95 C83 1.245 . S
Co96 H99 2.400 . S
Co96 O100 2.009 . S
Co96 O108 2.115 . S
Co96 O109 2.315 . S
Co96 O120 2.053 . S
Co96 O123 2.094 . S
Co96 O126 2.122 . S
Co97 O100 2.126 . S
Co97 H101 2.388 . S
Co97 O102 2.053 . S
Co97 O105 2.047 . S
Co97 O111 2.113 . S
Co97 O122 2.063 . S
Co98 H99 2.388 . S
Co98 O100 2.053 . S
Co98 O102 2.126 . S
Co98 O107 2.063 . S
Co98 O121 2.047 . S
Co98 O127 2.113 . S
H99 Co96 2.400 . S
H99 Co98 2.388 . S
H99 O100 0.760 . S
O100 Co96 2.009 . S
O100 Co97 2.126 . S
O100 Co98 2.053 . S
O100 H99 0.760 . S
H101 Co97 2.388 . S
H101 O102 0.760 . S
H101 Co103 2.400 . S
O102 Co97 2.053 . S
O102 Co98 2.126 . S
O102 H101 0.760 . S
O102 Co103 2.009 . S
Co103 H101 2.400 . S
Co103 O102 2.009 . S
Co103 O104 2.053 . S
Co103 O106 2.094 . S
Co103 O110 2.122 . S
Co103 O124 2.115 . S
Co103 O125 2.315 . S
O104 Co103 2.053 . S
O104 C116 1.259 . S
O105 Co97 2.047 . S
O105 C116 1.257 . S
O106 Co103 2.094 . S
O106 C117 1.253 . S
O107 Co98 2.063 . S
O107 C117 1.268 . S
O108 Co96 2.115 . S
O108 C118 1.281 . S
O109 Co96 2.315 . S
O109 C118 1.252 . S
O110 Co103 2.122 . S
O110 C119 1.272 . S
O111 Co97 2.113 . S
O111 C119 1.245 . S
C112 O120 1.259 . S
C112 O121 1.257 . S
C113 O122 1.268 . S
C113 O123 1.253 . S
C114 O124 1.281 . S
C114 O125 1.252 . S
C115 O126 1.272 . S
C115 O127 1.245 . S
C116 O104 1.259 . S
C116 O105 1.257 . S
C117 O106 1.253 . S
C117 O107 1.268 . S
C118 O108 1.281 . S
C118 O109 1.252 . S
C119 O110 1.272 . S
C119 O111 1.245 . S
O120 Co96 2.053 . S
O120 C112 1.259 . S
O121 Co98 2.047 . S
O121 C112 1.257 . S
O122 Co97 2.063 . S
O122 C113 1.268 . S
O123 Co96 2.094 . S
O123 C113 1.253 . S
O124 Co103 2.115 . S
O124 C114 1.281 . S
O125 Co103 2.315 . S
O125 C114 1.252 . S
O126 Co96 2.122 . S
O126 C115 1.272 . S
O127 Co98 2.113 . S
O127 C115 1.245 . S
Co128 H131 2.400 . S
Co128 O132 2.009 . S
Co128 O140 2.115 . S
Co128 O141 2.315 . S
Co128 O152 2.053 . S
Co128 O155 2.094 . S
Co128 O158 2.122 . S
Co129 O132 2.126 . S
Co129 H133 2.388 . S
Co129 O134 2.053 . S
Co129 O137 2.047 . S
Co129 O143 2.113 . S
Co129 O154 2.063 . S
Co130 H131 2.388 . S
Co130 O132 2.053 . S
Co130 O134 2.126 . S
Co130 O139 2.063 . S
Co130 O153 2.047 . S
Co130 O159 2.113 . S
H131 Co128 2.400 . S
H131 Co130 2.388 . S
H131 O132 0.760 . S
O132 Co128 2.009 . S
O132 Co129 2.126 . S
O132 Co130 2.053 . S
O132 H131 0.760 . S
H133 Co129 2.388 . S
H133 O134 0.760 . S
H133 Co135 2.400 . S
O134 Co129 2.053 . S
O134 Co130 2.126 . S
O134 H133 0.760 . S
O134 Co135 2.009 . S
Co135 H133 2.400 . S
Co135 O134 2.009 . S
Co135 O136 2.053 . S
Co135 O138 2.094 . S
Co135 O142 2.122 . S
Co135 O156 2.115 . S
Co135 O157 2.315 . S
O136 Co135 2.053 . S
O136 C148 1.259 . S
O137 Co129 2.047 . S
O137 C148 1.257 . S
O138 Co135 2.094 . S
O138 C149 1.253 . S
O139 Co130 2.063 . S
O139 C149 1.268 . S
O140 Co128 2.115 . S
O140 C150 1.281 . S
O141 Co128 2.315 . S
O141 C150 1.252 . S
O142 Co135 2.122 . S
O142 C151 1.272 . S
O143 Co129 2.113 . S
O143 C151 1.245 . S
C144 O152 1.259 . S
C144 O153 1.257 . S
C145 O154 1.268 . S
C145 O155 1.253 . S
C146 O156 1.281 . S
C146 O157 1.252 . S
C147 O158 1.272 . S
C147 O159 1.245 . S
C148 O136 1.259 . S
C148 O137 1.257 . S
C149 O138 1.253 . S
C149 O139 1.268 . S
C150 O140 1.281 . S
C150 O141 1.252 . S
C151 O142 1.272 . S
C151 O143 1.245 . S
O152 Co128 2.053 . S
O152 C144 1.259 . S
O153 Co130 2.047 . S
O153 C144 1.257 . S
O154 Co129 2.063 . S
O154 C145 1.268 . S
O155 Co128 2.094 . S
O155 C145 1.253 . S
O156 Co135 2.115 . S
O156 C146 1.281 . S
O157 Co135 2.315 . S
O157 C146 1.252 . S
O158 Co128 2.122 . S
O158 C147 1.272 . S
O159 Co130 2.113 . S
O159 C147 1.245 . S
Co160 H163 2.400 . S
Co160 O164 2.009 . S
Co160 O172 2.115 . S
Co160 O173 2.315 . S
Co160 O184 2.053 . S
Co160 O187 2.094 . S
Co160 O190 2.122 . S
Co161 O164 2.126 . S
Co161 H165 2.388 . S
Co161 O166 2.053 . S
Co161 O169 2.047 . S
Co161 O175 2.113 . S
Co161 O186 2.063 . S
Co162 H163 2.388 . S
Co162 O164 2.053 . S
Co162 O166 2.126 . S
Co162 O171 2.063 . S
Co162 O185 2.047 . S
Co162 O191 2.113 . S
H163 Co160 2.400 . S
H163 Co162 2.388 . S
H163 O164 0.760 . S
O164 Co160 2.009 . S
O164 Co161 2.126 . S
O164 Co162 2.053 . S
O164 H163 0.760 . S
H165 Co161 2.388 . S
H165 O166 0.760 . S
H165 Co167 2.400 . S
O166 Co161 2.053 . S
O166 Co162 2.126 . S
O166 H165 0.760 . S
O166 Co167 2.009 . S
Co167 H165 2.400 . S
Co167 O166 2.009 . S
Co167 O168 2.053 . S
Co167 O170 2.094 . S
Co167 O174 2.122 . S
Co167 O188 2.115 . S
Co167 O189 2.315 . S
O168 Co167 2.053 . S
O168 C180 1.259 . S
O169 Co161 2.047 . S
O169 C180 1.257 . S
O170 Co167 2.094 . S
O170 C181 1.253 . S
O171 Co162 2.063 . S
O171 C181 1.268 . S
O172 Co160 2.115 . S
O172 C182 1.281 . S
O173 Co160 2.315 . S
O173 C182 1.252 . S
O174 Co167 2.122 . S
O174 C183 1.272 . S
O175 Co161 2.113 . S
O175 C183 1.245 . S
C176 O184 1.259 . S
C176 O185 1.257 . S
C177 O186 1.268 . S
C177 O187 1.253 . S
C178 O188 1.281 . S
C178 O189 1.252 . S
C179 O190 1.272 . S
C179 O191 1.245 . S
C180 O168 1.259 . S
C180 O169 1.257 . S
C181 O170 1.253 . S
C181 O171 1.268 . S
C182 O172 1.281 . S
C182 O173 1.252 . S
C183 O174 1.272 . S
C183 O175 1.245 . S
O184 Co160 2.053 . S
O184 C176 1.259 . S
O185 Co162 2.047 . S
O185 C176 1.257 . S
O186 Co161 2.063 . S
O186 C177 1.268 . S
O187 Co160 2.094 . S
O187 C177 1.253 . S
O188 Co167 2.115 . S
O188 C178 1.281 . S
O189 Co167 2.315 . S
O189 C178 1.252 . S
O190 Co160 2.122 . S
O190 C179 1.272 . S
O191 Co162 2.113 . S
O191 C179 1.245 . S
Co192 H195 2.400 . S
Co192 O196 2.009 . S
Co192 O204 2.115 . S
Co192 O205 2.315 . S
Co192 O216 2.053 . S
Co192 O219 2.094 . S
Co192 O222 2.122 . S
Co193 O196 2.126 . S
Co193 H197 2.388 . S
Co193 O198 2.053 . S
Co193 O201 2.047 . S
Co193 O207 2.113 . S
Co193 O218 2.063 . S
Co194 H195 2.388 . S
Co194 O196 2.053 . S
Co194 O198 2.126 . S
Co194 O203 2.063 . S
Co194 O217 2.047 . S
Co194 O223 2.113 . S
H195 Co192 2.400 . S
H195 Co194 2.388 . S
H195 O196 0.760 . S
O196 Co192 2.009 . S
O196 Co193 2.126 . S
O196 Co194 2.053 . S
O196 H195 0.760 . S
H197 Co193 2.388 . S
H197 O198 0.760 . S
H197 Co199 2.400 . S
O198 Co193 2.053 . S
O198 Co194 2.126 . S
O198 H197 0.760 . S
O198 Co199 2.009 . S
Co199 H197 2.400 . S
Co199 O198 2.009 . S
Co199 O200 2.053 . S
Co199 O202 2.094 . S
Co199 O206 2.122 . S
Co199 O220 2.115 . S
Co199 O221 2.315 . S
O200 Co199 2.053 . S
O200 C212 1.259 . S
O201 Co193 2.047 . S
O201 C212 1.257 . S
O202 Co199 2.094 . S
O202 C213 1.253 . S
O203 Co194 2.063 . S
O203 C213 1.268 . S
O204 Co192 2.115 . S
O204 C214 1.281 . S
O205 Co192 2.315 . S
O205 C214 1.252 . S
O206 Co199 2.122 . S
O206 C215 1.272 . S
O207 Co193 2.113 . S
O207 C215 1.245 . S
C208 O216 1.259 . S
C208 O217 1.257 . S
C209 O218 1.268 . S
C209 O219 1.253 . S
C210 O220 1.281 . S
C210 O221 1.252 . S
C211 O222 1.272 . S
C211 O223 1.245 . S
C212 O200 1.259 . S
C212 O201 1.257 . S
C213 O202 1.253 . S
C213 O203 1.268 . S
C214 O204 1.281 . S
C214 O205 1.252 . S
C215 O206 1.272 . S
C215 O207 1.245 . S
O216 Co192 2.053 . S
O216 C208 1.259 . S
O217 Co194 2.047 . S
O217 C208 1.257 . S
O218 Co193 2.063 . S
O218 C209 1.268 . S
O219 Co192 2.094 . S
O219 C209 1.253 . S
O220 Co199 2.115 . S
O220 C210 1.281 . S
O221 Co199 2.315 . S
O221 C210 1.252 . S
O222 Co192 2.122 . S
O222 C211 1.272 . S
O223 Co194 2.113 . S
O223 C211 1.245 . S
Co224 H227 2.400 . S
Co224 O228 2.009 . S
Co224 O236 2.115 . S
Co224 O237 2.315 . S
Co224 O248 2.053 . S
Co224 O251 2.094 . S
Co224 O254 2.122 . S
Co225 O228 2.126 . S
Co225 H229 2.388 . S
Co225 O230 2.053 . S
Co225 O233 2.047 . S
Co225 O239 2.113 . S
Co225 O250 2.063 . S
Co226 H227 2.388 . S
Co226 O228 2.053 . S
Co226 O230 2.126 . S
Co226 O235 2.063 . S
Co226 O249 2.047 . S
Co226 O255 2.113 . S
H227 Co224 2.400 . S
H227 Co226 2.388 . S
H227 O228 0.760 . S
O228 Co224 2.009 . S
O228 Co225 2.126 . S
O228 Co226 2.053 . S
O228 H227 0.760 . S
H229 Co225 2.388 . S
H229 O230 0.760 . S
H229 Co231 2.400 . S
O230 Co225 2.053 . S
O230 Co226 2.126 . S
O230 H229 0.760 . S
O230 Co231 2.009 . S
Co231 H229 2.400 . S
Co231 O230 2.009 . S
Co231 O232 2.053 . S
Co231 O234 2.094 . S
Co231 O238 2.122 . S
Co231 O252 2.115 . S
Co231 O253 2.315 . S
O232 Co231 2.053 . S
O232 C244 1.259 . S
O233 Co225 2.047 . S
O233 C244 1.257 . S
O234 Co231 2.094 . S
O234 C245 1.253 . S
O235 Co226 2.063 . S
O235 C245 1.268 . S
O236 Co224 2.115 . S
O236 C246 1.281 . S
O237 Co224 2.315 . S
O237 C246 1.252 . S
O238 Co231 2.122 . S
O238 C247 1.272 . S
O239 Co225 2.113 . S
O239 C247 1.245 . S
C240 O248 1.259 . S
C240 O249 1.257 . S
C241 O250 1.268 . S
C241 O251 1.253 . S
C242 O252 1.281 . S
C242 O253 1.252 . S
C243 O254 1.272 . S
C243 O255 1.245 . S
C244 O232 1.259 . S
C244 O233 1.257 . S
C245 O234 1.253 . S
C245 O235 1.268 . S
C246 O236 1.281 . S
C246 O237 1.252 . S
C247 O238 1.272 . S
C247 O239 1.245 . S
O248 Co224 2.053 . S
O248 C240 1.259 . S
O249 Co226 2.047 . S
O249 C240 1.257 . S
O250 Co225 2.063 . S
O250 C241 1.268 . S
O251 Co224 2.094 . S
O251 C241 1.253 . S
O252 Co231 2.115 . S
O252 C242 1.281 . S
O253 Co231 2.315 . S
O253 C242 1.252 . S
O254 Co224 2.122 . S
O254 C243 1.272 . S
O255 Co226 2.113 . S
O255 C243 1.245 . S
Co256 H259 2.400 . S
Co256 O260 2.009 . S
Co256 O268 2.115 . S
Co256 O269 2.315 . S
Co256 O280 2.053 . S
Co256 O283 2.094 . S
Co256 O286 2.122 . S
Co257 O260 2.126 . S
Co257 H261 2.388 . S
Co257 O262 2.053 . S
Co257 O265 2.047 . S
Co257 O271 2.113 . S
Co257 O282 2.063 . S
Co258 H259 2.388 . S
Co258 O260 2.053 . S
Co258 O262 2.126 . S
Co258 O267 2.063 . S
Co258 O281 2.047 . S
Co258 O287 2.113 . S
H259 Co256 2.400 . S
H259 Co258 2.388 . S
H259 O260 0.760 . S
O260 Co256 2.009 . S
O260 Co257 2.126 . S
O260 Co258 2.053 . S
O260 H259 0.760 . S
H261 Co257 2.388 . S
H261 O262 0.760 . S
H261 Co263 2.400 . S
O262 Co257 2.053 . S
O262 Co258 2.126 . S
O262 H261 0.760 . S
O262 Co263 2.009 . S
Co263 H261 2.400 . S
Co263 O262 2.009 . S
Co263 O264 2.053 . S
Co263 O266 2.094 . S
Co263 O270 2.122 . S
Co263 O284 2.115 . S
Co263 O285 2.315 . S
O264 Co263 2.053 . S
O264 C276 1.259 . S
O265 Co257 2.047 . S
O265 C276 1.257 . S
O266 Co263 2.094 . S
O266 C277 1.253 . S
O267 Co258 2.063 . S
O267 C277 1.268 . S
O268 Co256 2.115 . S
O268 C278 1.281 . S
O269 Co256 2.315 . S
O269 C278 1.252 . S
O270 Co263 2.122 . S
O270 C279 1.272 . S
O271 Co257 2.113 . S
O271 C279 1.245 . S
C272 O280 1.259 . S
C272 O281 1.257 . S
C273 O282 1.268 . S
C273 O283 1.253 . S
C274 O284 1.281 . S
C274 O285 1.252 . S
C275 O286 1.272 . S
C275 O287 1.245 . S
C276 O264 1.259 . S
C276 O265 1.257 . S
C277 O266 1.253 . S
C277 O267 1.268 . S
C278 O268 1.281 . S
C278 O269 1.252 . S
C279 O270 1.272 . S
C279 O271 1.245 . S
O280 Co256 2.053 . S
O280 C272 1.259 . S
O281 Co258 2.047 . S
O281 C272 1.257 . S
O282 Co257 2.063 . S
O282 C273 1.268 . S
O283 Co256 2.094 . S
O283 C273 1.253 . S
O284 Co263 2.115 . S
O284 C274 1.281 . S
O285 Co263 2.315 . S
O285 C274 1.252 . S
O286 Co256 2.122 . S
O286 C275 1.272 . S
O287 Co258 2.113 . S
O287 C275 1.245 . S
Co288 H291 2.400 . S
Co288 O292 2.009 . S
Co288 O300 2.115 . S
Co288 O301 2.315 . S
Co288 O312 2.053 . S
Co288 O315 2.094 . S
Co288 O318 2.122 . S
Co289 O292 2.126 . S
Co289 H293 2.388 . S
Co289 O294 2.053 . S
Co289 O297 2.047 . S
Co289 O303 2.113 . S
Co289 O314 2.063 . S
Co290 H291 2.388 . S
Co290 O292 2.053 . S
Co290 O294 2.126 . S
Co290 O299 2.063 . S
Co290 O313 2.047 . S
Co290 O319 2.113 . S
H291 Co288 2.400 . S
H291 Co290 2.388 . S
H291 O292 0.760 . S
O292 Co288 2.009 . S
O292 Co289 2.126 . S
O292 Co290 2.053 . S
O292 H291 0.760 . S
H293 Co289 2.388 . S
H293 O294 0.760 . S
H293 Co295 2.400 . S
O294 Co289 2.053 . S
O294 Co290 2.126 . S
O294 H293 0.760 . S
O294 Co295 2.009 . S
Co295 H293 2.400 . S
Co295 O294 2.009 . S
Co295 O296 2.053 . S
Co295 O298 2.094 . S
Co295 O302 2.122 . S
Co295 O316 2.115 . S
Co295 O317 2.315 . S
O296 Co295 2.053 . S
O296 C308 1.259 . S
O297 Co289 2.047 . S
O297 C308 1.257 . S
O298 Co295 2.094 . S
O298 C309 1.253 . S
O299 Co290 2.063 . S
O299 C309 1.268 . S
O300 Co288 2.115 . S
O300 C310 1.281 . S
O301 Co288 2.315 . S
O301 C310 1.252 . S
O302 Co295 2.122 . S
O302 C311 1.272 . S
O303 Co289 2.113 . S
O303 C311 1.245 . S
C304 O312 1.259 . S
C304 O313 1.257 . S
C305 O314 1.268 . S
C305 O315 1.253 . S
C306 O316 1.281 . S
C306 O317 1.252 . S
C307 O318 1.272 . S
C307 O319 1.245 . S
C308 O296 1.259 . S
C308 O297 1.257 . S
C309 O298 1.253 . S
C309 O299 1.268 . S
C310 O300 1.281 . S
C310 O301 1.252 . S
C311 O302 1.272 . S
C311 O303 1.245 . S
O312 Co288 2.053 . S
O312 C304 1.259 . S
O313 Co290 2.047 . S
O313 C304 1.257 . S
O314 Co289 2.063 . S
O314 C305 1.268 . S
O315 Co288 2.094 . S
O315 C305 1.253 . S
O316 Co295 2.115 . S
O316 C306 1.281 . S
O317 Co295 2.315 . S
O317 C306 1.252 . S
O318 Co288 2.122 . S
O318 C307 1.272 . S
O319 Co290 2.113 . S
O319 C307 1.245 . S
Co320 H323 2.400 . S
Co320 O324 2.009 . S
Co320 O332 2.115 . S
Co320 O333 2.315 . S
Co320 O344 2.053 . S
Co320 O347 2.094 . S
Co320 O350 2.122 . S
Co321 O324 2.126 . S
Co321 H325 2.388 . S
Co321 O326 2.053 . S
Co321 O329 2.047 . S
Co321 O335 2.113 . S
Co321 O346 2.063 . S
Co322 H323 2.388 . S
Co322 O324 2.053 . S
Co322 O326 2.126 . S
Co322 O331 2.063 . S
Co322 O345 2.047 . S
Co322 O351 2.113 . S
H323 Co320 2.400 . S
H323 Co322 2.388 . S
H323 O324 0.760 . S
O324 Co320 2.009 . S
O324 Co321 2.126 . S
O324 Co322 2.053 . S
O324 H323 0.760 . S
H325 Co321 2.388 . S
H325 O326 0.760 . S
H325 Co327 2.400 . S
O326 Co321 2.053 . S
O326 Co322 2.126 . S
O326 H325 0.760 . S
O326 Co327 2.009 . S
Co327 H325 2.400 . S
Co327 O326 2.009 . S
Co327 O328 2.053 . S
Co327 O330 2.094 . S
Co327 O334 2.122 . S
Co327 O348 2.115 . S
Co327 O349 2.315 . S
O328 Co327 2.053 . S
O328 C340 1.259 . S
O329 Co321 2.047 . S
O329 C340 1.257 . S
O330 Co327 2.094 . S
O330 C341 1.253 . S
O331 Co322 2.063 . S
O331 C341 1.268 . S
O332 Co320 2.115 . S
O332 C342 1.281 . S
O333 Co320 2.315 . S
O333 C342 1.252 . S
O334 Co327 2.122 . S
O334 C343 1.272 . S
O335 Co321 2.113 . S
O335 C343 1.245 . S
C336 O344 1.259 . S
C336 O345 1.257 . S
C337 O346 1.268 . S
C337 O347 1.253 . S
C338 O348 1.281 . S
C338 O349 1.252 . S
C339 O350 1.272 . S
C339 O351 1.245 . S
C340 O328 1.259 . S
C340 O329 1.257 . S
C341 O330 1.253 . S
C341 O331 1.268 . S
C342 O332 1.281 . S
C342 O333 1.252 . S
C343 O334 1.272 . S
C343 O335 1.245 . S
O344 Co320 2.053 . S
O344 C336 1.259 . S
O345 Co322 2.047 . S
O345 C336 1.257 . S
O346 Co321 2.063 . S
O346 C337 1.268 . S
O347 Co320 2.094 . S
O347 C337 1.253 . S
O348 Co327 2.115 . S
O348 C338 1.281 . S
O349 Co327 2.315 . S
O349 C338 1.252 . S
O350 Co320 2.122 . S
O350 C339 1.272 . S
O351 Co322 2.113 . S
O351 C339 1.245 . S
Co352 H355 2.400 . S
Co352 O356 2.009 . S
Co352 O364 2.115 . S
Co352 O365 2.315 . S
Co352 O376 2.053 . S
Co352 O379 2.094 . S
Co352 O382 2.122 . S
Co353 O356 2.126 . S
Co353 H357 2.388 . S
Co353 O358 2.053 . S
Co353 O361 2.047 . S
Co353 O367 2.113 . S
Co353 O378 2.063 . S
Co354 H355 2.388 . S
Co354 O356 2.053 . S
Co354 O358 2.126 . S
Co354 O363 2.063 . S
Co354 O377 2.047 . S
Co354 O383 2.113 . S
H355 Co352 2.400 . S
H355 Co354 2.388 . S
H355 O356 0.760 . S
O356 Co352 2.009 . S
O356 Co353 2.126 . S
O356 Co354 2.053 . S
O356 H355 0.760 . S
H357 Co353 2.388 . S
H357 O358 0.760 . S
H357 Co359 2.400 . S
O358 Co353 2.053 . S
O358 Co354 2.126 . S
O358 H357 0.760 . S
O358 Co359 2.009 . S
Co359 H357 2.400 . S
Co359 O358 2.009 . S
Co359 O360 2.053 . S
Co359 O362 2.094 . S
Co359 O366 2.122 . S
Co359 O380 2.115 . S
Co359 O381 2.315 . S
O360 Co359 2.053 . S
O360 C372 1.259 . S
O361 Co353 2.047 . S
O361 C372 1.257 . S
O362 Co359 2.094 . S
O362 C373 1.253 . S
O363 Co354 2.063 . S
O363 C373 1.268 . S
O364 Co352 2.115 . S
O364 C374 1.281 . S
O365 Co352 2.315 . S
O365 C374 1.252 . S
O366 Co359 2.122 . S
O366 C375 1.272 . S
O367 Co353 2.113 . S
O367 C375 1.245 . S
C368 O376 1.259 . S
C368 O377 1.257 . S
C369 O378 1.268 . S
C369 O379 1.253 . S
C370 O380 1.281 . S
C370 O381 1.252 . S
C371 O382 1.272 . S
C371 O383 1.245 . S
C372 O360 1.259 . S
C372 O361 1.257 . S
C373 O362 1.253 . S
C373 O363 1.268 . S
C374 O364 1.281 . S
C374 O365 1.252 . S
C375 O366 1.272 . S
C375 O367 1.245 . S
O376 Co352 2.053 . S
O376 C368 1.259 . S
O377 Co354 2.047 . S
O377 C368 1.257 . S
O378 Co353 2.063 . S
O378 C369 1.268 . S
O379 Co352 2.094 . S
O379 C369 1.253 . S
O380 Co359 2.115 . S
O380 C370 1.281 . S
O381 Co359 2.315 . S
O381 C370 1.252 . S
O382 Co352 2.122 . S
O382 C371 1.272 . S
O383 Co354 2.113 . S
O383 C371 1.245 . S
Co384 H387 2.400 . S
Co384 O388 2.009 . S
Co384 O396 2.115 . S
Co384 O397 2.315 . S
Co384 O408 2.053 . S
Co384 O411 2.094 . S
Co384 O414 2.122 . S
Co385 O388 2.126 . S
Co385 H389 2.388 . S
Co385 O390 2.053 . S
Co385 O393 2.047 . S
Co385 O399 2.113 . S
Co385 O410 2.063 . S
Co386 H387 2.388 . S
Co386 O388 2.053 . S
Co386 O390 2.126 . S
Co386 O395 2.063 . S
Co386 O409 2.047 . S
Co386 O415 2.113 . S
H387 Co384 2.400 . S
H387 Co386 2.388 . S
H387 O388 0.760 . S
O388 Co384 2.009 . S
O388 Co385 2.126 . S
O388 Co386 2.053 . S
O388 H387 0.760 . S
H389 Co385 2.388 . S
H389 O390 0.760 . S
H389 Co391 2.400 . S
O390 Co385 2.053 . S
O390 Co386 2.126 . S
O390 H389 0.760 . S
O390 Co391 2.009 . S
Co391 H389 2.400 . S
Co391 O390 2.009 . S
Co391 O392 2.053 . S
Co391 O394 2.094 . S
Co391 O398 2.122 . S
Co391 O412 2.115 . S
Co391 O413 2.315 . S
O392 Co391 2.053 . S
O392 C404 1.259 . S
O393 Co385 2.047 . S
O393 C404 1.257 . S
O394 Co391 2.094 . S
O394 C405 1.253 . S
O395 Co386 2.063 . S
O395 C405 1.268 . S
O396 Co384 2.115 . S
O396 C406 1.281 . S
O397 Co384 2.315 . S
O397 C406 1.252 . S
O398 Co391 2.122 . S
O398 C407 1.272 . S
O399 Co385 2.113 . S
O399 C407 1.245 . S
C400 O408 1.259 . S
C400 O409 1.257 . S
C401 O410 1.268 . S
C401 O411 1.253 . S
C402 O412 1.281 . S
C402 O413 1.252 . S
C403 O414 1.272 . S
C403 O415 1.245 . S
C404 O392 1.259 . S
C404 O393 1.257 . S
C405 O394 1.253 . S
C405 O395 1.268 . S
C406 O396 1.281 . S
C406 O397 1.252 . S
C407 O398 1.272 . S
C407 O399 1.245 . S
O408 Co384 2.053 . S
O408 C400 1.259 . S
O409 Co386 2.047 . S
O409 C400 1.257 . S
O410 Co385 2.063 . S
O410 C401 1.268 . S
O411 Co384 2.094 . S
O411 C401 1.253 . S
O412 Co391 2.115 . S
O412 C402 1.281 . S
O413 Co391 2.315 . S
O413 C402 1.252 . S
O414 Co384 2.122 . S
O414 C403 1.272 . S
O415 Co386 2.113 . S
O415 C403 1.245 . S
Co416 H419 2.400 . S
Co416 O420 2.009 . S
Co416 O428 2.115 . S
Co416 O429 2.315 . S
Co416 O440 2.053 . S
Co416 O443 2.094 . S
Co416 O446 2.122 . S
Co417 O420 2.126 . S
Co417 H421 2.388 . S
Co417 O422 2.053 . S
Co417 O425 2.047 . S
Co417 O431 2.113 . S
Co417 O442 2.063 . S
Co418 H419 2.388 . S
Co418 O420 2.053 . S
Co418 O422 2.126 . S
Co418 O427 2.063 . S
Co418 O441 2.047 . S
Co418 O447 2.113 . S
H419 Co416 2.400 . S
H419 Co418 2.388 . S
H419 O420 0.760 . S
O420 Co416 2.009 . S
O420 Co417 2.126 . S
O420 Co418 2.053 . S
O420 H419 0.760 . S
H421 Co417 2.388 . S
H421 O422 0.760 . S
H421 Co423 2.400 . S
O422 Co417 2.053 . S
O422 Co418 2.126 . S
O422 H421 0.760 . S
O422 Co423 2.009 . S
Co423 H421 2.400 . S
Co423 O422 2.009 . S
Co423 O424 2.053 . S
Co423 O426 2.094 . S
Co423 O430 2.122 . S
Co423 O444 2.115 . S
Co423 O445 2.315 . S
O424 Co423 2.053 . S
O424 C436 1.259 . S
O425 Co417 2.047 . S
O425 C436 1.257 . S
O426 Co423 2.094 . S
O426 C437 1.253 . S
O427 Co418 2.063 . S
O427 C437 1.268 . S
O428 Co416 2.115 . S
O428 C438 1.281 . S
O429 Co416 2.315 . S
O429 C438 1.252 . S
O430 Co423 2.122 . S
O430 C439 1.272 . S
O431 Co417 2.113 . S
O431 C439 1.245 . S
C432 O440 1.259 . S
C432 O441 1.257 . S
C433 O442 1.268 . S
C433 O443 1.253 . S
C434 O444 1.281 . S
C434 O445 1.252 . S
C435 O446 1.272 . S
C435 O447 1.245 . S
C436 O424 1.259 . S
C436 O425 1.257 . S
C437 O426 1.253 . S
C437 O427 1.268 . S
C438 O428 1.281 . S
C438 O429 1.252 . S
C439 O430 1.272 . S
C439 O431 1.245 . S
O440 Co416 2.053 . S
O440 C432 1.259 . S
O441 Co418 2.047 . S
O441 C432 1.257 . S
O442 Co417 2.063 . S
O442 C433 1.268 . S
O443 Co416 2.094 . S
O443 C433 1.253 . S
O444 Co423 2.115 . S
O444 C434 1.281 . S
O445 Co423 2.315 . S
O445 C434 1.252 . S
O446 Co416 2.122 . S
O446 C435 1.272 . S
O447 Co418 2.113 . S
O447 C435 1.245 . S
Co448 H451 2.400 . S
Co448 O452 2.009 . S
Co448 O460 2.115 . S
Co448 O461 2.315 . S
Co448 O472 2.053 . S
Co448 O475 2.094 . S
Co448 O478 2.122 . S
Co449 O452 2.126 . S
Co449 H453 2.388 . S
Co449 O454 2.053 . S
Co449 O457 2.047 . S
Co449 O463 2.113 . S
Co449 O474 2.063 . S
Co450 H451 2.388 . S
Co450 O452 2.053 . S
Co450 O454 2.126 . S
Co450 O459 2.063 . S
Co450 O473 2.047 . S
Co450 O479 2.113 . S
H451 Co448 2.400 . S
H451 Co450 2.388 . S
H451 O452 0.760 . S
O452 Co448 2.009 . S
O452 Co449 2.126 . S
O452 Co450 2.053 . S
O452 H451 0.760 . S
H453 Co449 2.388 . S
H453 O454 0.760 . S
H453 Co455 2.400 . S
O454 Co449 2.053 . S
O454 Co450 2.126 . S
O454 H453 0.760 . S
O454 Co455 2.009 . S
Co455 H453 2.400 . S
Co455 O454 2.009 . S
Co455 O456 2.053 . S
Co455 O458 2.094 . S
Co455 O462 2.122 . S
Co455 O476 2.115 . S
Co455 O477 2.315 . S
O456 Co455 2.053 . S
O456 C468 1.259 . S
O457 Co449 2.047 . S
O457 C468 1.257 . S
O458 Co455 2.094 . S
O458 C469 1.253 . S
O459 Co450 2.063 . S
O459 C469 1.268 . S
O460 Co448 2.115 . S
O460 C470 1.281 . S
O461 Co448 2.315 . S
O461 C470 1.252 . S
O462 Co455 2.122 . S
O462 C471 1.272 . S
O463 Co449 2.113 . S
O463 C471 1.245 . S
C464 O472 1.259 . S
C464 O473 1.257 . S
C465 O474 1.268 . S
C465 O475 1.253 . S
C466 O476 1.281 . S
C466 O477 1.252 . S
C467 O478 1.272 . S
C467 O479 1.245 . S
C468 O456 1.259 . S
C468 O457 1.257 . S
C469 O458 1.253 . S
C469 O459 1.268 . S
C470 O460 1.281 . S
C470 O461 1.252 . S
C471 O462 1.272 . S
C471 O463 1.245 . S
O472 Co448 2.053 . S
O472 C464 1.259 . S
O473 Co450 2.047 . S
O473 C464 1.257 . S
O474 Co449 2.063 . S
O474 C465 1.268 . S
O475 Co448 2.094 . S
O475 C465 1.253 . S
O476 Co455 2.115 . S
O476 C466 1.281 . S
O477 Co455 2.315 . S
O477 C466 1.252 . S
O478 Co448 2.122 . S
O478 C467 1.272 . S
O479 Co450 2.113 . S
O479 C467 1.245 . S
Co480 H483 2.400 . S
Co480 O484 2.009 . S
Co480 O492 2.115 . S
Co480 O493 2.315 . S
Co480 O504 2.053 . S
Co480 O507 2.094 . S
Co480 O510 2.122 . S
Co481 O484 2.126 . S
Co481 H485 2.388 . S
Co481 O486 2.053 . S
Co481 O489 2.047 . S
Co481 O495 2.113 . S
Co481 O506 2.063 . S
Co482 H483 2.388 . S
Co482 O484 2.053 . S
Co482 O486 2.126 . S
Co482 O491 2.063 . S
Co482 O505 2.047 . S
Co482 O511 2.113 . S
H483 Co480 2.400 . S
H483 Co482 2.388 . S
H483 O484 0.760 . S
O484 Co480 2.009 . S
O484 Co481 2.126 . S
O484 Co482 2.053 . S
O484 H483 0.760 . S
H485 Co481 2.388 . S
H485 O486 0.760 . S
H485 Co487 2.400 . S
O486 Co481 2.053 . S
O486 Co482 2.126 . S
O486 H485 0.760 . S
O486 Co487 2.009 . S
Co487 H485 2.400 . S
Co487 O486 2.009 . S
Co487 O488 2.053 . S
Co487 O490 2.094 . S
Co487 O494 2.122 . S
Co487 O508 2.115 . S
Co487 O509 2.315 . S
O488 Co487 2.053 . S
O488 C500 1.259 . S
O489 Co481 2.047 . S
O489 C500 1.257 . S
O490 Co487 2.094 . S
O490 C501 1.253 . S
O491 Co482 2.063 . S
O491 C501 1.268 . S
O492 Co480 2.115 . S
O492 C502 1.281 . S
O493 Co480 2.315 . S
O493 C502 1.252 . S
O494 Co487 2.122 . S
O494 C503 1.272 . S
O495 Co481 2.113 . S
O495 C503 1.245 . S
C496 O504 1.259 . S
C496 O505 1.257 . S
C497 O506 1.268 . S
C497 O507 1.253 . S
C498 O508 1.281 . S
C498 O509 1.252 . S
C499 O510 1.272 . S
C499 O511 1.245 . S
C500 O488 1.259 . S
C500 O489 1.257 . S
C501 O490 1.253 . S
C501 O491 1.268 . S
C502 O492 1.281 . S
C502 O493 1.252 . S
C503 O494 1.272 . S
C503 O495 1.245 . S
O504 Co480 2.053 . S
O504 C496 1.259 . S
O505 Co482 2.047 . S
O505 C496 1.257 . S
O506 Co481 2.063 . S
O506 C497 1.268 . S
O507 Co480 2.094 . S
O507 C497 1.253 . S
O508 Co487 2.115 . S
O508 C498 1.281 . S
O509 Co487 2.315 . S
O509 C498 1.252 . S
O510 Co480 2.122 . S
O510 C499 1.272 . S
O511 Co482 2.113 . S
O511 C499 1.245 . S
Co512 H515 2.400 . S
Co512 O516 2.009 . S
Co512 O524 2.115 . S
Co512 O525 2.315 . S
Co512 O536 2.053 . S
Co512 O539 2.094 . S
Co512 O542 2.122 . S
Co513 O516 2.126 . S
Co513 H517 2.388 . S
Co513 O518 2.053 . S
Co513 O521 2.047 . S
Co513 O527 2.113 . S
Co513 O538 2.063 . S
Co514 H515 2.388 . S
Co514 O516 2.053 . S
Co514 O518 2.126 . S
Co514 O523 2.063 . S
Co514 O537 2.047 . S
Co514 O543 2.113 . S
H515 Co512 2.400 . S
H515 Co514 2.388 . S
H515 O516 0.760 . S
O516 Co512 2.009 . S
O516 Co513 2.126 . S
O516 Co514 2.053 . S
O516 H515 0.760 . S
H517 Co513 2.388 . S
H517 O518 0.760 . S
H517 Co519 2.400 . S
O518 Co513 2.053 . S
O518 Co514 2.126 . S
O518 H517 0.760 . S
O518 Co519 2.009 . S
Co519 H517 2.400 . S
Co519 O518 2.009 . S
Co519 O520 2.053 . S
Co519 O522 2.094 . S
Co519 O526 2.122 . S
Co519 O540 2.115 . S
Co519 O541 2.315 . S
O520 Co519 2.053 . S
O520 C532 1.259 . S
O521 Co513 2.047 . S
O521 C532 1.257 . S
O522 Co519 2.094 . S
O522 C533 1.253 . S
O523 Co514 2.063 . S
O523 C533 1.268 . S
O524 Co512 2.115 . S
O524 C534 1.281 . S
O525 Co512 2.315 . S
O525 C534 1.252 . S
O526 Co519 2.122 . S
O526 C535 1.272 . S
O527 Co513 2.113 . S
O527 C535 1.245 . S
C528 O536 1.259 . S
C528 O537 1.257 . S
C529 O538 1.268 . S
C529 O539 1.253 . S
C530 O540 1.281 . S
C530 O541 1.252 . S
C531 O542 1.272 . S
C531 O543 1.245 . S
C532 O520 1.259 . S
C532 O521 1.257 . S
C533 O522 1.253 . S
C533 O523 1.268 . S
C534 O524 1.281 . S
C534 O525 1.252 . S
C535 O526 1.272 . S
C535 O527 1.245 . S
O536 Co512 2.053 . S
O536 C528 1.259 . S
O537 Co514 2.047 . S
O537 C528 1.257 . S
O538 Co513 2.063 . S
O538 C529 1.268 . S
O539 Co512 2.094 . S
O539 C529 1.253 . S
O540 Co519 2.115 . S
O540 C530 1.281 . S
O541 Co519 2.315 . S
O541 C530 1.252 . S
O542 Co512 2.122 . S
O542 C531 1.272 . S
O543 Co514 2.113 . S
O543 C531 1.245 . S
Co544 H547 2.400 . S
Co544 O548 2.009 . S
Co544 O556 2.115 . S
Co544 O557 2.315 . S
Co544 O568 2.053 . S
Co544 O571 2.094 . S
Co544 O574 2.122 . S
Co545 O548 2.126 . S
Co545 H549 2.388 . S
Co545 O550 2.053 . S
Co545 O553 2.047 . S
Co545 O559 2.113 . S
Co545 O570 2.063 . S
Co546 H547 2.388 . S
Co546 O548 2.053 . S
Co546 O550 2.126 . S
Co546 O555 2.063 . S
Co546 O569 2.047 . S
Co546 O575 2.113 . S
H547 Co544 2.400 . S
H547 Co546 2.388 . S
H547 O548 0.760 . S
O548 Co544 2.009 . S
O548 Co545 2.126 . S
O548 Co546 2.053 . S
O548 H547 0.760 . S
H549 Co545 2.388 . S
H549 O550 0.760 . S
H549 Co551 2.400 . S
O550 Co545 2.053 . S
O550 Co546 2.126 . S
O550 H549 0.760 . S
O550 Co551 2.009 . S
Co551 H549 2.400 . S
Co551 O550 2.009 . S
Co551 O552 2.053 . S
Co551 O554 2.094 . S
Co551 O558 2.122 . S
Co551 O572 2.115 . S
Co551 O573 2.315 . S
O552 Co551 2.053 . S
O552 C564 1.259 . S
O553 Co545 2.047 . S
O553 C564 1.257 . S
O554 Co551 2.094 . S
O554 C565 1.253 . S
O555 Co546 2.063 . S
O555 C565 1.268 . S
O556 Co544 2.115 . S
O556 C566 1.281 . S
O557 Co544 2.315 . S
O557 C566 1.252 . S
O558 Co551 2.122 . S
O558 C567 1.272 . S
O559 Co545 2.113 . S
O559 C567 1.245 . S
C560 O568 1.259 . S
C560 O569 1.257 . S
C561 O570 1.268 . S
C561 O571 1.253 . S
C562 O572 1.281 . S
C562 O573 1.252 . S
C563 O574 1.272 . S
C563 O575 1.245 . S
C564 O552 1.259 . S
C564 O553 1.257 . S
C565 O554 1.253 . S
C565 O555 1.268 . S
C566 O556 1.281 . S
C566 O557 1.252 . S
C567 O558 1.272 . S
C567 O559 1.245 . S
O568 Co544 2.053 . S
O568 C560 1.259 . S
O569 Co546 2.047 . S
O569 C560 1.257 . S
O570 Co545 2.063 . S
O570 C561 1.268 . S
O571 Co544 2.094 . S
O571 C561 1.253 . S
O572 Co551 2.115 . S
O572 C562 1.281 . S
O573 Co551 2.315 . S
O573 C562 1.252 . S
O574 Co544 2.122 . S
O574 C563 1.272 . S
O575 Co546 2.113 . S
O575 C563 1.245 . S
Co576 H579 2.400 . S
Co576 O580 2.009 . S
Co576 O588 2.115 . S
Co576 O589 2.315 . S
Co576 O600 2.053 . S
Co576 O603 2.094 . S
Co576 O606 2.122 . S
Co577 O580 2.126 . S
Co577 H581 2.388 . S
Co577 O582 2.053 . S
Co577 O585 2.047 . S
Co577 O591 2.113 . S
Co577 O602 2.063 . S
Co578 H579 2.388 . S
Co578 O580 2.053 . S
Co578 O582 2.126 . S
Co578 O587 2.063 . S
Co578 O601 2.047 . S
Co578 O607 2.113 . S
H579 Co576 2.400 . S
H579 Co578 2.388 . S
H579 O580 0.760 . S
O580 Co576 2.009 . S
O580 Co577 2.126 . S
O580 Co578 2.053 . S
O580 H579 0.760 . S
H581 Co577 2.388 . S
H581 O582 0.760 . S
H581 Co583 2.400 . S
O582 Co577 2.053 . S
O582 Co578 2.126 . S
O582 H581 0.760 . S
O582 Co583 2.009 . S
Co583 H581 2.400 . S
Co583 O582 2.009 . S
Co583 O584 2.053 . S
Co583 O586 2.094 . S
Co583 O590 2.122 . S
Co583 O604 2.115 . S
Co583 O605 2.315 . S
O584 Co583 2.053 . S
O584 C596 1.259 . S
O585 Co577 2.047 . S
O585 C596 1.257 . S
O586 Co583 2.094 . S
O586 C597 1.253 . S
O587 Co578 2.063 . S
O587 C597 1.268 . S
O588 Co576 2.115 . S
O588 C598 1.281 . S
O589 Co576 2.315 . S
O589 C598 1.252 . S
O590 Co583 2.122 . S
O590 C599 1.272 . S
O591 Co577 2.113 . S
O591 C599 1.245 . S
C592 O600 1.259 . S
C592 O601 1.257 . S
C593 O602 1.268 . S
C593 O603 1.253 . S
C594 O604 1.281 . S
C594 O605 1.252 . S
C595 O606 1.272 . S
C595 O607 1.245 . S
C596 O584 1.259 . S
C596 O585 1.257 . S
C597 O586 1.253 . S
C597 O587 1.268 . S
C598 O588 1.281 . S
C598 O589 1.252 . S
C599 O590 1.272 . S
C599 O591 1.245 . S
O600 Co576 2.053 . S
O600 C592 1.259 . S
O601 Co578 2.047 . S
O601 C592 1.257 . S
O602 Co577 2.063 . S
O602 C593 1.268 . S
O603 Co576 2.094 . S
O603 C593 1.253 . S
O604 Co583 2.115 . S
O604 C594 1.281 . S
O605 Co583 2.315 . S
O605 C594 1.252 . S
O606 Co576 2.122 . S
O606 C595 1.272 . S
O607 Co578 2.113 . S
O607 C595 1.245 . S
Co608 H611 2.400 . S
Co608 O612 2.009 . S
Co608 O620 2.115 . S
Co608 O621 2.315 . S
Co608 O632 2.053 . S
Co608 O635 2.094 . S
Co608 O638 2.122 . S
Co609 O612 2.126 . S
Co609 H613 2.388 . S
Co609 O614 2.053 . S
Co609 O617 2.047 . S
Co609 O623 2.113 . S
Co609 O634 2.063 . S
Co610 H611 2.388 . S
Co610 O612 2.053 . S
Co610 O614 2.126 . S
Co610 O619 2.063 . S
Co610 O633 2.047 . S
Co610 O639 2.113 . S
H611 Co608 2.400 . S
H611 Co610 2.388 . S
H611 O612 0.760 . S
O612 Co608 2.009 . S
O612 Co609 2.126 . S
O612 Co610 2.053 . S
O612 H611 0.760 . S
H613 Co609 2.388 . S
H613 O614 0.760 . S
H613 Co615 2.400 . S
O614 Co609 2.053 . S
O614 Co610 2.126 . S
O614 H613 0.760 . S
O614 Co615 2.009 . S
Co615 H613 2.400 . S
Co615 O614 2.009 . S
Co615 O616 2.053 . S
Co615 O618 2.094 . S
Co615 O622 2.122 . S
Co615 O636 2.115 . S
Co615 O637 2.315 . S
O616 Co615 2.053 . S
O616 C628 1.259 . S
O617 Co609 2.047 . S
O617 C628 1.257 . S
O618 Co615 2.094 . S
O618 C629 1.253 . S
O619 Co610 2.063 . S
O619 C629 1.268 . S
O620 Co608 2.115 . S
O620 C630 1.281 . S
O621 Co608 2.315 . S
O621 C630 1.252 . S
O622 Co615 2.122 . S
O622 C631 1.272 . S
O623 Co609 2.113 . S
O623 C631 1.245 . S
C624 O632 1.259 . S
C624 O633 1.257 . S
C625 O634 1.268 . S
C625 O635 1.253 . S
C626 O636 1.281 . S
C626 O637 1.252 . S
C627 O638 1.272 . S
C627 O639 1.245 . S
C628 O616 1.259 . S
C628 O617 1.257 . S
C629 O618 1.253 . S
C629 O619 1.268 . S
C630 O620 1.281 . S
C630 O621 1.252 . S
C631 O622 1.272 . S
C631 O623 1.245 . S
O632 Co608 2.053 . S
O632 C624 1.259 . S
O633 Co610 2.047 . S
O633 C624 1.257 . S
O634 Co609 2.063 . S
O634 C625 1.268 . S
O635 Co608 2.094 . S
O635 C625 1.253 . S
O636 Co615 2.115 . S
O636 C626 1.281 . S
O637 Co615 2.315 . S
O637 C626 1.252 . S
O638 Co608 2.122 . S
O638 C627 1.272 . S
O639 Co610 2.113 . S
O639 C627 1.245 . S
Co640 H643 2.400 . S
Co640 O644 2.009 . S
Co640 O652 2.115 . S
Co640 O653 2.315 . S
Co640 O664 2.053 . S
Co640 O667 2.094 . S
Co640 O670 2.122 . S
Co641 O644 2.126 . S
Co641 H645 2.388 . S
Co641 O646 2.053 . S
Co641 O649 2.047 . S
Co641 O655 2.113 . S
Co641 O666 2.063 . S
Co642 H643 2.388 . S
Co642 O644 2.053 . S
Co642 O646 2.126 . S
Co642 O651 2.063 . S
Co642 O665 2.047 . S
Co642 O671 2.113 . S
H643 Co640 2.400 . S
H643 Co642 2.388 . S
H643 O644 0.760 . S
O644 Co640 2.009 . S
O644 Co641 2.126 . S
O644 Co642 2.053 . S
O644 H643 0.760 . S
H645 Co641 2.388 . S
H645 O646 0.760 . S
H645 Co647 2.400 . S
O646 Co641 2.053 . S
O646 Co642 2.126 . S
O646 H645 0.760 . S
O646 Co647 2.009 . S
Co647 H645 2.400 . S
Co647 O646 2.009 . S
Co647 O648 2.053 . S
Co647 O650 2.094 . S
Co647 O654 2.122 . S
Co647 O668 2.115 . S
Co647 O669 2.315 . S
O648 Co647 2.053 . S
O648 C660 1.259 . S
O649 Co641 2.047 . S
O649 C660 1.257 . S
O650 Co647 2.094 . S
O650 C661 1.253 . S
O651 Co642 2.063 . S
O651 C661 1.268 . S
O652 Co640 2.115 . S
O652 C662 1.281 . S
O653 Co640 2.315 . S
O653 C662 1.252 . S
O654 Co647 2.122 . S
O654 C663 1.272 . S
O655 Co641 2.113 . S
O655 C663 1.245 . S
C656 O664 1.259 . S
C656 O665 1.257 . S
C657 O666 1.268 . S
C657 O667 1.253 . S
C658 O668 1.281 . S
C658 O669 1.252 . S
C659 O670 1.272 . S
C659 O671 1.245 . S
C660 O648 1.259 . S
C660 O649 1.257 . S
C661 O650 1.253 . S
C661 O651 1.268 . S
C662 O652 1.281 . S
C662 O653 1.252 . S
C663 O654 1.272 . S
C663 O655 1.245 . S
O664 Co640 2.053 . S
O664 C656 1.259 . S
O665 Co642 2.047 . S
O665 C656 1.257 . S
O666 Co641 2.063 . S
O666 C657 1.268 . S
O667 Co640 2.094 . S
O667 C657 1.253 . S
O668 Co647 2.115 . S
O668 C658 1.281 . S
O669 Co647 2.315 . S
O669 C658 1.252 . S
O670 Co640 2.122 . S
O670 C659 1.272 . S
O671 Co642 2.113 . S
O671 C659 1.245 . S
Co672 H675 2.400 . S
Co672 O676 2.009 . S
Co672 O684 2.115 . S
Co672 O685 2.315 . S
Co672 O696 2.053 . S
Co672 O699 2.094 . S
Co672 O702 2.122 . S
Co673 O676 2.126 . S
Co673 H677 2.388 . S
Co673 O678 2.053 . S
Co673 O681 2.047 . S
Co673 O687 2.113 . S
Co673 O698 2.063 . S
Co674 H675 2.388 . S
Co674 O676 2.053 . S
Co674 O678 2.126 . S
Co674 O683 2.063 . S
Co674 O697 2.047 . S
Co674 O703 2.113 . S
H675 Co672 2.400 . S
H675 Co674 2.388 . S
H675 O676 0.760 . S
O676 Co672 2.009 . S
O676 Co673 2.126 . S
O676 Co674 2.053 . S
O676 H675 0.760 . S
H677 Co673 2.388 . S
H677 O678 0.760 . S
H677 Co679 2.400 . S
O678 Co673 2.053 . S
O678 Co674 2.126 . S
O678 H677 0.760 . S
O678 Co679 2.009 . S
Co679 H677 2.400 . S
Co679 O678 2.009 . S
Co679 O680 2.053 . S
Co679 O682 2.094 . S
Co679 O686 2.122 . S
Co679 O700 2.115 . S
Co679 O701 2.315 . S
O680 Co679 2.053 . S
O680 C692 1.259 . S
O681 Co673 2.047 . S
O681 C692 1.257 . S
O682 Co679 2.094 . S
O682 C693 1.253 . S
O683 Co674 2.063 . S
O683 C693 1.268 . S
O684 Co672 2.115 . S
O684 C694 1.281 . S
O685 Co672 2.315 . S
O685 C694 1.252 . S
O686 Co679 2.122 . S
O686 C695 1.272 . S
O687 Co673 2.113 . S
O687 C695 1.245 . S
C688 O696 1.259 . S
C688 O697 1.257 . S
C689 O698 1.268 . S
C689 O699 1.253 . S
C690 O700 1.281 . S
C690 O701 1.252 . S
C691 O702 1.272 . S
C691 O703 1.245 . S
C692 O680 1.259 . S
C692 O681 1.257 . S
C693 O682 1.253 . S
C693 O683 1.268 . S
C694 O684 1.281 . S
C694 O685 1.252 . S
C695 O686 1.272 . S
C695 O687 1.245 . S
O696 Co672 2.053 . S
O696 C688 1.259 . S
O697 Co674 2.047 . S
O697 C688 1.257 . S
O698 Co673 2.063 . S
O698 C689 1.268 . S
O699 Co672 2.094 . S
O699 C689 1.253 . S
O700 Co679 2.115 . S
O700 C690 1.281 . S
O701 Co679 2.315 . S
O701 C690 1.252 . S
O702 Co672 2.122 . S
O702 C691 1.272 . S
O703 Co674 2.113 . S
O703 C691 1.245 . S
Co704 H707 2.400 . S
Co704 O708 2.009 . S
Co704 O716 2.115 . S
Co704 O717 2.315 . S
Co704 O728 2.053 . S
Co704 O731 2.094 . S
Co704 O734 2.122 . S
Co705 O708 2.126 . S
Co705 H709 2.388 . S
Co705 O710 2.053 . S
Co705 O713 2.047 . S
Co705 O719 2.113 . S
Co705 O730 2.063 . S
Co706 H707 2.388 . S
Co706 O708 2.053 . S
Co706 O710 2.126 . S
Co706 O715 2.063 . S
Co706 O729 2.047 . S
Co706 O735 2.113 . S
H707 Co704 2.400 . S
H707 Co706 2.388 . S
H707 O708 0.760 . S
O708 Co704 2.009 . S
O708 Co705 2.126 . S
O708 Co706 2.053 . S
O708 H707 0.760 . S
H709 Co705 2.388 . S
H709 O710 0.760 . S
H709 Co711 2.400 . S
O710 Co705 2.053 . S
O710 Co706 2.126 . S
O710 H709 0.760 . S
O710 Co711 2.009 . S
Co711 H709 2.400 . S
Co711 O710 2.009 . S
Co711 O712 2.053 . S
Co711 O714 2.094 . S
Co711 O718 2.122 . S
Co711 O732 2.115 . S
Co711 O733 2.315 . S
O712 Co711 2.053 . S
O712 C724 1.259 . S
O713 Co705 2.047 . S
O713 C724 1.257 . S
O714 Co711 2.094 . S
O714 C725 1.253 . S
O715 Co706 2.063 . S
O715 C725 1.268 . S
O716 Co704 2.115 . S
O716 C726 1.281 . S
O717 Co704 2.315 . S
O717 C726 1.252 . S
O718 Co711 2.122 . S
O718 C727 1.272 . S
O719 Co705 2.113 . S
O719 C727 1.245 . S
C720 O728 1.259 . S
C720 O729 1.257 . S
C721 O730 1.268 . S
C721 O731 1.253 . S
C722 O732 1.281 . S
C722 O733 1.252 . S
C723 O734 1.272 . S
C723 O735 1.245 . S
C724 O712 1.259 . S
C724 O713 1.257 . S
C725 O714 1.253 . S
C725 O715 1.268 . S
C726 O716 1.281 . S
C726 O717 1.252 . S
C727 O718 1.272 . S
C727 O719 1.245 . S
O728 Co704 2.053 . S
O728 C720 1.259 . S
O729 Co706 2.047 . S
O729 C720 1.257 . S
O730 Co705 2.063 . S
O730 C721 1.268 . S
O731 Co704 2.094 . S
O731 C721 1.253 . S
O732 Co711 2.115 . S
O732 C722 1.281 . S
O733 Co711 2.315 . S
O733 C722 1.252 . S
O734 Co704 2.122 . S
O734 C723 1.272 . S
O735 Co706 2.113 . S
O735 C723 1.245 . S
Co736 H739 2.400 . S
Co736 O740 2.009 . S
Co736 O748 2.115 . S
Co736 O749 2.315 . S
Co736 O760 2.053 . S
Co736 O763 2.094 . S
Co736 O766 2.122 . S
Co737 O740 2.126 . S
Co737 H741 2.388 . S
Co737 O742 2.053 . S
Co737 O745 2.047 . S
Co737 O751 2.113 . S
Co737 O762 2.063 . S
Co738 H739 2.388 . S
Co738 O740 2.053 . S
Co738 O742 2.126 . S
Co738 O747 2.063 . S
Co738 O761 2.047 . S
Co738 O767 2.113 . S
H739 Co736 2.400 . S
H739 Co738 2.388 . S
H739 O740 0.760 . S
O740 Co736 2.009 . S
O740 Co737 2.126 . S
O740 Co738 2.053 . S
O740 H739 0.760 . S
H741 Co737 2.388 . S
H741 O742 0.760 . S
H741 Co743 2.400 . S
O742 Co737 2.053 . S
O742 Co738 2.126 . S
O742 H741 0.760 . S
O742 Co743 2.009 . S
Co743 H741 2.400 . S
Co743 O742 2.009 . S
Co743 O744 2.053 . S
Co743 O746 2.094 . S
Co743 O750 2.122 . S
Co743 O764 2.115 . S
Co743 O765 2.315 . S
O744 Co743 2.053 . S
O744 C756 1.259 . S
O745 Co737 2.047 . S
O745 C756 1.257 . S
O746 Co743 2.094 . S
O746 C757 1.253 . S
O747 Co738 2.063 . S
O747 C757 1.268 . S
O748 Co736 2.115 . S
O748 C758 1.281 . S
O749 Co736 2.315 . S
O749 C758 1.252 . S
O750 Co743 2.122 . S
O750 C759 1.272 . S
O751 Co737 2.113 . S
O751 C759 1.245 . S
C752 O760 1.259 . S
C752 O761 1.257 . S
C753 O762 1.268 . S
C753 O763 1.253 . S
C754 O764 1.281 . S
C754 O765 1.252 . S
C755 O766 1.272 . S
C755 O767 1.245 . S
C756 O744 1.259 . S
C756 O745 1.257 . S
C757 O746 1.253 . S
C757 O747 1.268 . S
C758 O748 1.281 . S
C758 O749 1.252 . S
C759 O750 1.272 . S
C759 O751 1.245 . S
O760 Co736 2.053 . S
O760 C752 1.259 . S
O761 Co738 2.047 . S
O761 C752 1.257 . S
O762 Co737 2.063 . S
O762 C753 1.268 . S
O763 Co736 2.094 . S
O763 C753 1.253 . S
O764 Co743 2.115 . S
O764 C754 1.281 . S
O765 Co743 2.315 . S
O765 C754 1.252 . S
O766 Co736 2.122 . S
O766 C755 1.272 . S
O767 Co738 2.113 . S
O767 C755 1.245 . S
Co768 H771 2.400 . S
Co768 O772 2.009 . S
Co768 O780 2.115 . S
Co768 O781 2.315 . S
Co768 O792 2.053 . S
Co768 O795 2.094 . S
Co768 O798 2.122 . S
Co769 O772 2.126 . S
Co769 H773 2.388 . S
Co769 O774 2.053 . S
Co769 O777 2.047 . S
Co769 O783 2.113 . S
Co769 O794 2.063 . S
Co770 H771 2.388 . S
Co770 O772 2.053 . S
Co770 O774 2.126 . S
Co770 O779 2.063 . S
Co770 O793 2.047 . S
Co770 O799 2.113 . S
H771 Co768 2.400 . S
H771 Co770 2.388 . S
H771 O772 0.760 . S
O772 Co768 2.009 . S
O772 Co769 2.126 . S
O772 Co770 2.053 . S
O772 H771 0.760 . S
H773 Co769 2.388 . S
H773 O774 0.760 . S
H773 Co775 2.400 . S
O774 Co769 2.053 . S
O774 Co770 2.126 . S
O774 H773 0.760 . S
O774 Co775 2.009 . S
Co775 H773 2.400 . S
Co775 O774 2.009 . S
Co775 O776 2.053 . S
Co775 O778 2.094 . S
Co775 O782 2.122 . S
Co775 O796 2.115 . S
Co775 O797 2.315 . S
O776 Co775 2.053 . S
O776 C788 1.259 . S
O777 Co769 2.047 . S
O777 C788 1.257 . S
O778 Co775 2.094 . S
O778 C789 1.253 . S
O779 Co770 2.063 . S
O779 C789 1.268 . S
O780 Co768 2.115 . S
O780 C790 1.281 . S
O781 Co768 2.315 . S
O781 C790 1.252 . S
O782 Co775 2.122 . S
O782 C791 1.272 . S
O783 Co769 2.113 . S
O783 C791 1.245 . S
C784 O792 1.259 . S
C784 O793 1.257 . S
C785 O794 1.268 . S
C785 O795 1.253 . S
C786 O796 1.281 . S
C786 O797 1.252 . S
C787 O798 1.272 . S
C787 O799 1.245 . S
C788 O776 1.259 . S
C788 O777 1.257 . S
C789 O778 1.253 . S
C789 O779 1.268 . S
C790 O780 1.281 . S
C790 O781 1.252 . S
C791 O782 1.272 . S
C791 O783 1.245 . S
O792 Co768 2.053 . S
O792 C784 1.259 . S
O793 Co770 2.047 . S
O793 C784 1.257 . S
O794 Co769 2.063 . S
O794 C785 1.268 . S
O795 Co768 2.094 . S
O795 C785 1.253 . S
O796 Co775 2.115 . S
O796 C786 1.281 . S
O797 Co775 2.315 . S
O797 C786 1.252 . S
O798 Co768 2.122 . S
O798 C787 1.272 . S
O799 Co770 2.113 . S
O799 C787 1.245 . S
Co800 H803 2.400 . S
Co800 O804 2.009 . S
Co800 O812 2.115 . S
Co800 O813 2.315 . S
Co800 O824 2.053 . S
Co800 O827 2.094 . S
Co800 O830 2.122 . S
Co801 O804 2.126 . S
Co801 H805 2.388 . S
Co801 O806 2.053 . S
Co801 O809 2.047 . S
Co801 O815 2.113 . S
Co801 O826 2.063 . S
Co802 H803 2.388 . S
Co802 O804 2.053 . S
Co802 O806 2.126 . S
Co802 O811 2.063 . S
Co802 O825 2.047 . S
Co802 O831 2.113 . S
H803 Co800 2.400 . S
H803 Co802 2.388 . S
H803 O804 0.760 . S
O804 Co800 2.009 . S
O804 Co801 2.126 . S
O804 Co802 2.053 . S
O804 H803 0.760 . S
H805 Co801 2.388 . S
H805 O806 0.760 . S
H805 Co807 2.400 . S
O806 Co801 2.053 . S
O806 Co802 2.126 . S
O806 H805 0.760 . S
O806 Co807 2.009 . S
Co807 H805 2.400 . S
Co807 O806 2.009 . S
Co807 O808 2.053 . S
Co807 O810 2.094 . S
Co807 O814 2.122 . S
Co807 O828 2.115 . S
Co807 O829 2.315 . S
O808 Co807 2.053 . S
O808 C820 1.259 . S
O809 Co801 2.047 . S
O809 C820 1.257 . S
O810 Co807 2.094 . S
O810 C821 1.253 . S
O811 Co802 2.063 . S
O811 C821 1.268 . S
O812 Co800 2.115 . S
O812 C822 1.281 . S
O813 Co800 2.315 . S
O813 C822 1.252 . S
O814 Co807 2.122 . S
O814 C823 1.272 . S
O815 Co801 2.113 . S
O815 C823 1.245 . S
C816 O824 1.259 . S
C816 O825 1.257 . S
C817 O826 1.268 . S
C817 O827 1.253 . S
C818 O828 1.281 . S
C818 O829 1.252 . S
C819 O830 1.272 . S
C819 O831 1.245 . S
C820 O808 1.259 . S
C820 O809 1.257 . S
C821 O810 1.253 . S
C821 O811 1.268 . S
C822 O812 1.281 . S
C822 O813 1.252 . S
C823 O814 1.272 . S
C823 O815 1.245 . S
O824 Co800 2.053 . S
O824 C816 1.259 . S
O825 Co802 2.047 . S
O825 C816 1.257 . S
O826 Co801 2.063 . S
O826 C817 1.268 . S
O827 Co800 2.094 . S
O827 C817 1.253 . S
O828 Co807 2.115 . S
O828 C818 1.281 . S
O829 Co807 2.315 . S
O829 C818 1.252 . S
O830 Co800 2.122 . S
O830 C819 1.272 . S
O831 Co802 2.113 . S
O831 C819 1.245 . S
Co832 H835 2.400 . S
Co832 O836 2.009 . S
Co832 O844 2.115 . S
Co832 O845 2.315 . S
Co832 O856 2.053 . S
Co832 O859 2.094 . S
Co832 O862 2.122 . S
Co833 O836 2.126 . S
Co833 H837 2.388 . S
Co833 O838 2.053 . S
Co833 O841 2.047 . S
Co833 O847 2.113 . S
Co833 O858 2.063 . S
Co834 H835 2.388 . S
Co834 O836 2.053 . S
Co834 O838 2.126 . S
Co834 O843 2.063 . S
Co834 O857 2.047 . S
Co834 O863 2.113 . S
H835 Co832 2.400 . S
H835 Co834 2.388 . S
H835 O836 0.760 . S
O836 Co832 2.009 . S
O836 Co833 2.126 . S
O836 Co834 2.053 . S
O836 H835 0.760 . S
H837 Co833 2.388 . S
H837 O838 0.760 . S
H837 Co839 2.400 . S
O838 Co833 2.053 . S
O838 Co834 2.126 . S
O838 H837 0.760 . S
O838 Co839 2.009 . S
Co839 H837 2.400 . S
Co839 O838 2.009 . S
Co839 O840 2.053 . S
Co839 O842 2.094 . S
Co839 O846 2.122 . S
Co839 O860 2.115 . S
Co839 O861 2.315 . S
O840 Co839 2.053 . S
O840 C852 1.259 . S
O841 Co833 2.047 . S
O841 C852 1.257 . S
O842 Co839 2.094 . S
O842 C853 1.253 . S
O843 Co834 2.063 . S
O843 C853 1.268 . S
O844 Co832 2.115 . S
O844 C854 1.281 . S
O845 Co832 2.315 . S
O845 C854 1.252 . S
O846 Co839 2.122 . S
O846 C855 1.272 . S
O847 Co833 2.113 . S
O847 C855 1.245 . S
C848 O856 1.259 . S
C848 O857 1.257 . S
C849 O858 1.268 . S
C849 O859 1.253 . S
C850 O860 1.281 . S
C850 O861 1.252 . S
C851 O862 1.272 . S
C851 O863 1.245 . S
C852 O840 1.259 . S
C852 O841 1.257 . S
C853 O842 1.253 . S
C853 O843 1.268 . S
C854 O844 1.281 . S
C854 O845 1.252 . S
C855 O846 1.272 . S
C855 O847 1.245 . S
O856 Co832 2.053 . S
O856 C848 1.259 . S
O857 Co834 2.047 . S
O857 C848 1.257 . S
O858 Co833 2.063 . S
O858 C849 1.268 . S
O859 Co832 2.094 . S
O859 C849 1.253 . S
O860 Co839 2.115 . S
O860 C850 1.281 . S
O861 Co839 2.315 . S
O861 C850 1.252 . S
O862 Co832 2.122 . S
O862 C851 1.272 . S
O863 Co834 2.113 . S
O863 C851 1.245 . S
Co864 H867 2.400 . S
Co864 O868 2.009 . S
Co864 O876 2.115 . S
Co864 O877 2.315 . S
Co864 O888 2.053 . S
Co864 O891 2.094 . S
Co864 O894 2.122 . S
Co865 O868 2.126 . S
Co865 H869 2.388 . S
Co865 O870 2.053 . S
Co865 O873 2.047 . S
Co865 O879 2.113 . S
Co865 O890 2.063 . S
Co866 H867 2.388 . S
Co866 O868 2.053 . S
Co866 O870 2.126 . S
Co866 O875 2.063 . S
Co866 O889 2.047 . S
Co866 O895 2.113 . S
H867 Co864 2.400 . S
H867 Co866 2.388 . S
H867 O868 0.760 . S
O868 Co864 2.009 . S
O868 Co865 2.126 . S
O868 Co866 2.053 . S
O868 H867 0.760 . S
H869 Co865 2.388 . S
H869 O870 0.760 . S
H869 Co871 2.400 . S
O870 Co865 2.053 . S
O870 Co866 2.126 . S
O870 H869 0.760 . S
O870 Co871 2.009 . S
Co871 H869 2.400 . S
Co871 O870 2.009 . S
Co871 O872 2.053 . S
Co871 O874 2.094 . S
Co871 O878 2.122 . S
Co871 O892 2.115 . S
Co871 O893 2.315 . S
O872 Co871 2.053 . S
O872 C884 1.259 . S
O873 Co865 2.047 . S
O873 C884 1.257 . S
O874 Co871 2.094 . S
O874 C885 1.253 . S
O875 Co866 2.063 . S
O875 C885 1.268 . S
O876 Co864 2.115 . S
O876 C886 1.281 . S
O877 Co864 2.315 . S
O877 C886 1.252 . S
O878 Co871 2.122 . S
O878 C887 1.272 . S
O879 Co865 2.113 . S
O879 C887 1.245 . S
C880 O888 1.259 . S
C880 O889 1.257 . S
C881 O890 1.268 . S
C881 O891 1.253 . S
C882 O892 1.281 . S
C882 O893 1.252 . S
C883 O894 1.272 . S
C883 O895 1.245 . S
C884 O872 1.259 . S
C884 O873 1.257 . S
C885 O874 1.253 . S
C885 O875 1.268 . S
C886 O876 1.281 . S
C886 O877 1.252 . S
C887 O878 1.272 . S
C887 O879 1.245 . S
O888 Co864 2.053 . S
O888 C880 1.259 . S
O889 Co866 2.047 . S
O889 C880 1.257 . S
O890 Co865 2.063 . S
O890 C881 1.268 . S
O891 Co864 2.094 . S
O891 C881 1.253 . S
O892 Co871 2.115 . S
O892 C882 1.281 . S
O893 Co871 2.315 . S
O893 C882 1.252 . S
O894 Co864 2.122 . S
O894 C883 1.272 . S
O895 Co866 2.113 . S
O895 C883 1.245 . S
Co896 H899 2.400 . S
Co896 O900 2.009 . S
Co896 O908 2.115 . S
Co896 O909 2.315 . S
Co896 O920 2.053 . S
Co896 O923 2.094 . S
Co896 O926 2.122 . S
Co897 O900 2.126 . S
Co897 H901 2.388 . S
Co897 O902 2.053 . S
Co897 O905 2.047 . S
Co897 O911 2.113 . S
Co897 O922 2.063 . S
Co898 H899 2.388 . S
Co898 O900 2.053 . S
Co898 O902 2.126 . S
Co898 O907 2.063 . S
Co898 O921 2.047 . S
Co898 O927 2.113 . S
H899 Co896 2.400 . S
H899 Co898 2.388 . S
H899 O900 0.760 . S
O900 Co896 2.009 . S
O900 Co897 2.126 . S
O900 Co898 2.053 . S
O900 H899 0.760 . S
H901 Co897 2.388 . S
H901 O902 0.760 . S
H901 Co903 2.400 . S
O902 Co897 2.053 . S
O902 Co898 2.126 . S
O902 H901 0.760 . S
O902 Co903 2.009 . S
Co903 H901 2.400 . S
Co903 O902 2.009 . S
Co903 O904 2.053 . S
Co903 O906 2.094 . S
Co903 O910 2.122 . S
Co903 O924 2.115 . S
Co903 O925 2.315 . S
O904 Co903 2.053 . S
O904 C916 1.259 . S
O905 Co897 2.047 . S
O905 C916 1.257 . S
O906 Co903 2.094 . S
O906 C917 1.253 . S
O907 Co898 2.063 . S
O907 C917 1.268 . S
O908 Co896 2.115 . S
O908 C918 1.281 . S
O909 Co896 2.315 . S
O909 C918 1.252 . S
O910 Co903 2.122 . S
O910 C919 1.272 . S
O911 Co897 2.113 . S
O911 C919 1.245 . S
C912 O920 1.259 . S
C912 O921 1.257 . S
C913 O922 1.268 . S
C913 O923 1.253 . S
C914 O924 1.281 . S
C914 O925 1.252 . S
C915 O926 1.272 . S
C915 O927 1.245 . S
C916 O904 1.259 . S
C916 O905 1.257 . S
C917 O906 1.253 . S
C917 O907 1.268 . S
C918 O908 1.281 . S
C918 O909 1.252 . S
C919 O910 1.272 . S
C919 O911 1.245 . S
O920 Co896 2.053 . S
O920 C912 1.259 . S
O921 Co898 2.047 . S
O921 C912 1.257 . S
O922 Co897 2.063 . S
O922 C913 1.268 . S
O923 Co896 2.094 . S
O923 C913 1.253 . S
O924 Co903 2.115 . S
O924 C914 1.281 . S
O925 Co903 2.315 . S
O925 C914 1.252 . S
O926 Co896 2.122 . S
O926 C915 1.272 . S
O927 Co898 2.113 . S
O927 C915 1.245 . S
Co928 H931 2.400 . S
Co928 O932 2.009 . S
Co928 O940 2.115 . S
Co928 O941 2.315 . S
Co928 O952 2.053 . S
Co928 O955 2.094 . S
Co928 O958 2.122 . S
Co929 O932 2.126 . S
Co929 H933 2.388 . S
Co929 O934 2.053 . S
Co929 O937 2.047 . S
Co929 O943 2.113 . S
Co929 O954 2.063 . S
Co930 H931 2.388 . S
Co930 O932 2.053 . S
Co930 O934 2.126 . S
Co930 O939 2.063 . S
Co930 O953 2.047 . S
Co930 O959 2.113 . S
H931 Co928 2.400 . S
H931 Co930 2.388 . S
H931 O932 0.760 . S
O932 Co928 2.009 . S
O932 Co929 2.126 . S
O932 Co930 2.053 . S
O932 H931 0.760 . S
H933 Co929 2.388 . S
H933 O934 0.760 . S
H933 Co935 2.400 . S
O934 Co929 2.053 . S
O934 Co930 2.126 . S
O934 H933 0.760 . S
O934 Co935 2.009 . S
Co935 H933 2.400 . S
Co935 O934 2.009 . S
Co935 O936 2.053 . S
Co935 O938 2.094 . S
Co935 O942 2.122 . S
Co935 O956 2.115 . S
Co935 O957 2.315 . S
O936 Co935 2.053 . S
O936 C948 1.259 . S
O937 Co929 2.047 . S
O937 C948 1.257 . S
O938 Co935 2.094 . S
O938 C949 1.253 . S
O939 Co930 2.063 . S
O939 C949 1.268 . S
O940 Co928 2.115 . S
O940 C950 1.281 . S
O941 Co928 2.315 . S
O941 C950 1.252 . S
O942 Co935 2.122 . S
O942 C951 1.272 . S
O943 Co929 2.113 . S
O943 C951 1.245 . S
C944 O952 1.259 . S
C944 O953 1.257 . S
C945 O954 1.268 . S
C945 O955 1.253 . S
C946 O956 1.281 . S
C946 O957 1.252 . S
C947 O958 1.272 . S
C947 O959 1.245 . S
C948 O936 1.259 . S
C948 O937 1.257 . S
C949 O938 1.253 . S
C949 O939 1.268 . S
C950 O940 1.281 . S
C950 O941 1.252 . S
C951 O942 1.272 . S
C951 O943 1.245 . S
O952 Co928 2.053 . S
O952 C944 1.259 . S
O953 Co930 2.047 . S
O953 C944 1.257 . S
O954 Co929 2.063 . S
O954 C945 1.268 . S
O955 Co928 2.094 . S
O955 C945 1.253 . S
O956 Co935 2.115 . S
O956 C946 1.281 . S
O957 Co935 2.315 . S
O957 C946 1.252 . S
O958 Co928 2.122 . S
O958 C947 1.272 . S
O959 Co930 2.113 . S
O959 C947 1.245 . S
Co960 H963 2.400 . S
Co960 O964 2.009 . S
Co960 O972 2.115 . S
Co960 O973 2.315 . S
Co960 O984 2.053 . S
Co960 O987 2.094 . S
Co960 O990 2.122 . S
Co961 O964 2.126 . S
Co961 H965 2.388 . S
Co961 O966 2.053 . S
Co961 O969 2.047 . S
Co961 O975 2.113 . S
Co961 O986 2.063 . S
Co962 H963 2.388 . S
Co962 O964 2.053 . S
Co962 O966 2.126 . S
Co962 O971 2.063 . S
Co962 O985 2.047 . S
Co962 O991 2.113 . S
H963 Co960 2.400 . S
H963 Co962 2.388 . S
H963 O964 0.760 . S
O964 Co960 2.009 . S
O964 Co961 2.126 . S
O964 Co962 2.053 . S
O964 H963 0.760 . S
H965 Co961 2.388 . S
H965 O966 0.760 . S
H965 Co967 2.400 . S
O966 Co961 2.053 . S
O966 Co962 2.126 . S
O966 H965 0.760 . S
O966 Co967 2.009 . S
Co967 H965 2.400 . S
Co967 O966 2.009 . S
Co967 O968 2.053 . S
Co967 O970 2.094 . S
Co967 O974 2.122 . S
Co967 O988 2.115 . S
Co967 O989 2.315 . S
O968 Co967 2.053 . S
O968 C980 1.259 . S
O969 Co961 2.047 . S
O969 C980 1.257 . S
O970 Co967 2.094 . S
O970 C981 1.253 . S
O971 Co962 2.063 . S
O971 C981 1.268 . S
O972 Co960 2.115 . S
O972 C982 1.281 . S
O973 Co960 2.315 . S
O973 C982 1.252 . S
O974 Co967 2.122 . S
O974 C983 1.272 . S
O975 Co961 2.113 . S
O975 C983 1.245 . S
C976 O984 1.259 . S
C976 O985 1.257 . S
C977 O986 1.268 . S
C977 O987 1.253 . S
C978 O988 1.281 . S
C978 O989 1.252 . S
C979 O990 1.272 . S
C979 O991 1.245 . S
C980 O968 1.259 . S
C980 O969 1.257 . S
C981 O970 1.253 . S
C981 O971 1.268 . S
C982 O972 1.281 . S
C982 O973 1.252 . S
C983 O974 1.272 . S
C983 O975 1.245 . S
O984 Co960 2.053 . S
O984 C976 1.259 . S
O985 Co962 2.047 . S
O985 C976 1.257 . S
O986 Co961 2.063 . S
O986 C977 1.268 . S
O987 Co960 2.094 . S
O987 C977 1.253 . S
O988 Co967 2.115 . S
O988 C978 1.281 . S
O989 Co967 2.315 . S
O989 C978 1.252 . S
O990 Co960 2.122 . S
O990 C979 1.272 . S
O991 Co962 2.113 . S
O991 C979 1.245 . S
Co992 H995 2.400 . S
Co992 O996 2.009 . S
Co992 O1004 2.115 . S
Co992 O1005 2.315 . S
Co992 O1016 2.053 . S
Co992 O1019 2.094 . S
Co992 O1022 2.122 . S
Co993 O996 2.126 . S
Co993 H997 2.388 . S
Co993 O998 2.053 . S
Co993 O1001 2.047 . S
Co993 O1007 2.113 . S
Co993 O1018 2.063 . S
Co994 H995 2.388 . S
Co994 O996 2.053 . S
Co994 O998 2.126 . S
Co994 O1003 2.063 . S
Co994 O1017 2.047 . S
Co994 O1023 2.113 . S
H995 Co992 2.400 . S
H995 Co994 2.388 . S
H995 O996 0.760 . S
O996 Co992 2.009 . S
O996 Co993 2.126 . S
O996 Co994 2.053 . S
O996 H995 0.760 . S
H997 Co993 2.388 . S
H997 O998 0.760 . S
H997 Co999 2.400 . S
O998 Co993 2.053 . S
O998 Co994 2.126 . S
O998 H997 0.760 . S
O998 Co999 2.009 . S
Co999 H997 2.400 . S
Co999 O998 2.009 . S
Co999 O1000 2.053 . S
Co999 O1002 2.094 . S
Co999 O1006 2.122 . S
Co999 O1020 2.115 . S
Co999 O1021 2.315 . S
O1000 Co999 2.053 . S
O1000 C1012 1.259 . S
O1001 Co993 2.047 . S
O1001 C1012 1.257 . S
O1002 Co999 2.094 . S
O1002 C1013 1.253 . S
O1003 Co994 2.063 . S
O1003 C1013 1.268 . S
O1004 Co992 2.115 . S
O1004 C1014 1.281 . S
O1005 Co992 2.315 . S
O1005 C1014 1.252 . S
O1006 Co999 2.122 . S
O1006 C1015 1.272 . S
O1007 Co993 2.113 . S
O1007 C1015 1.245 . S
C1008 O1016 1.259 . S
C1008 O1017 1.257 . S
C1009 O1018 1.268 . S
C1009 O1019 1.253 . S
C1010 O1020 1.281 . S
C1010 O1021 1.252 . S
C1011 O1022 1.272 . S
C1011 O1023 1.245 . S
C1012 O1000 1.259 . S
C1012 O1001 1.257 . S
C1013 O1002 1.253 . S
C1013 O1003 1.268 . S
C1014 O1004 1.281 . S
C1014 O1005 1.252 . S
C1015 O1006 1.272 . S
C1015 O1007 1.245 . S
O1016 Co992 2.053 . S
O1016 C1008 1.259 . S
O1017 Co994 2.047 . S
O1017 C1008 1.257 . S
O1018 Co993 2.063 . S
O1018 C1009 1.268 . S
O1019 Co992 2.094 . S
O1019 C1009 1.253 . S
O1020 Co999 2.115 . S
O1020 C1010 1.281 . S
O1021 Co999 2.315 . S
O1021 C1010 1.252 . S
O1022 Co992 2.122 . S
O1022 C1011 1.272 . S
O1023 Co994 2.113 . S
O1023 C1011 1.245 . S
Co1024 H1027 2.400 . S
Co1024 O1028 2.009 . S
Co1024 O1036 2.115 . S
Co1024 O1037 2.315 . S
Co1024 O1048 2.053 . S
Co1024 O1051 2.094 . S
Co1024 O1054 2.122 . S
Co1025 O1028 2.126 . S
Co1025 H1029 2.388 . S
Co1025 O1030 2.053 . S
Co1025 O1033 2.047 . S
Co1025 O1039 2.113 . S
Co1025 O1050 2.063 . S
Co1026 H1027 2.388 . S
Co1026 O1028 2.053 . S
Co1026 O1030 2.126 . S
Co1026 O1035 2.063 . S
Co1026 O1049 2.047 . S
Co1026 O1055 2.113 . S
H1027 Co1024 2.400 . S
H1027 Co1026 2.388 . S
H1027 O1028 0.760 . S
O1028 Co1024 2.009 . S
O1028 Co1025 2.126 . S
O1028 Co1026 2.053 . S
O1028 H1027 0.760 . S
H1029 Co1025 2.388 . S
H1029 O1030 0.760 . S
H1029 Co1031 2.400 . S
O1030 Co1025 2.053 . S
O1030 Co1026 2.126 . S
O1030 H1029 0.760 . S
O1030 Co1031 2.009 . S
Co1031 H1029 2.400 . S
Co1031 O1030 2.009 . S
Co1031 O1032 2.053 . S
Co1031 O1034 2.094 . S
Co1031 O1038 2.122 . S
Co1031 O1052 2.115 . S
Co1031 O1053 2.315 . S
O1032 Co1031 2.053 . S
O1032 C1044 1.259 . S
O1033 Co1025 2.047 . S
O1033 C1044 1.257 . S
O1034 Co1031 2.094 . S
O1034 C1045 1.253 . S
O1035 Co1026 2.063 . S
O1035 C1045 1.268 . S
O1036 Co1024 2.115 . S
O1036 C1046 1.281 . S
O1037 Co1024 2.315 . S
O1037 C1046 1.252 . S
O1038 Co1031 2.122 . S
O1038 C1047 1.272 . S
O1039 Co1025 2.113 . S
O1039 C1047 1.245 . S
C1040 O1048 1.259 . S
C1040 O1049 1.257 . S
C1041 O1050 1.268 . S
C1041 O1051 1.253 . S
C1042 O1052 1.281 . S
C1042 O1053 1.252 . S
C1043 O1054 1.272 . S
C1043 O1055 1.245 . S
C1044 O1032 1.259 . S
C1044 O1033 1.257 . S
C1045 O1034 1.253 . S
C1045 O1035 1.268 . S
C1046 O1036 1.281 . S
C1046 O1037 1.252 . S
C1047 O1038 1.272 . S
C1047 O1039 1.245 . S
O1048 Co1024 2.053 . S
O1048 C1040 1.259 . S
O1049 Co1026 2.047 . S
O1049 C1040 1.257 . S
O1050 Co1025 2.063 . S
O1050 C1041 1.268 . S
O1051 Co1024 2.094 . S
O1051 C1041 1.253 . S
O1052 Co1031 2.115 . S
O1052 C1042 1.281 . S
O1053 Co1031 2.315 . S
O1053 C1042 1.252 . S
O1054 Co1024 2.122 . S
O1054 C1043 1.272 . S
O1055 Co1026 2.113 . S
O1055 C1043 1.245 . S
Co1056 H1059 2.400 . S
Co1056 O1060 2.009 . S
Co1056 O1068 2.115 . S
Co1056 O1069 2.315 . S
Co1056 O1080 2.053 . S
Co1056 O1083 2.094 . S
Co1056 O1086 2.122 . S
Co1057 O1060 2.126 . S
Co1057 H1061 2.388 . S
Co1057 O1062 2.053 . S
Co1057 O1065 2.047 . S
Co1057 O1071 2.113 . S
Co1057 O1082 2.063 . S
Co1058 H1059 2.388 . S
Co1058 O1060 2.053 . S
Co1058 O1062 2.126 . S
Co1058 O1067 2.063 . S
Co1058 O1081 2.047 . S
Co1058 O1087 2.113 . S
H1059 Co1056 2.400 . S
H1059 Co1058 2.388 . S
H1059 O1060 0.760 . S
O1060 Co1056 2.009 . S
O1060 Co1057 2.126 . S
O1060 Co1058 2.053 . S
O1060 H1059 0.760 . S
H1061 Co1057 2.388 . S
H1061 O1062 0.760 . S
H1061 Co1063 2.400 . S
O1062 Co1057 2.053 . S
O1062 Co1058 2.126 . S
O1062 H1061 0.760 . S
O1062 Co1063 2.009 . S
Co1063 H1061 2.400 . S
Co1063 O1062 2.009 . S
Co1063 O1064 2.053 . S
Co1063 O1066 2.094 . S
Co1063 O1070 2.122 . S
Co1063 O1084 2.115 . S
Co1063 O1085 2.315 . S
O1064 Co1063 2.053 . S
O1064 C1076 1.259 . S
O1065 Co1057 2.047 . S
O1065 C1076 1.257 . S
O1066 Co1063 2.094 . S
O1066 C1077 1.253 . S
O1067 Co1058 2.063 . S
O1067 C1077 1.268 . S
O1068 Co1056 2.115 . S
O1068 C1078 1.281 . S
O1069 Co1056 2.315 . S
O1069 C1078 1.252 . S
O1070 Co1063 2.122 . S
O1070 C1079 1.272 . S
O1071 Co1057 2.113 . S
O1071 C1079 1.245 . S
C1072 O1080 1.259 . S
C1072 O1081 1.257 . S
C1073 O1082 1.268 . S
C1073 O1083 1.253 . S
C1074 O1084 1.281 . S
C1074 O1085 1.252 . S
C1075 O1086 1.272 . S
C1075 O1087 1.245 . S
C1076 O1064 1.259 . S
C1076 O1065 1.257 . S
C1077 O1066 1.253 . S
C1077 O1067 1.268 . S
C1078 O1068 1.281 . S
C1078 O1069 1.252 . S
C1079 O1070 1.272 . S
C1079 O1071 1.245 . S
O1080 Co1056 2.053 . S
O1080 C1072 1.259 . S
O1081 Co1058 2.047 . S
O1081 C1072 1.257 . S
O1082 Co1057 2.063 . S
O1082 C1073 1.268 . S
O1083 Co1056 2.094 . S
O1083 C1073 1.253 . S
O1084 Co1063 2.115 . S
O1084 C1074 1.281 . S
O1085 Co1063 2.315 . S
O1085 C1074 1.252 . S
O1086 Co1056 2.122 . S
O1086 C1075 1.272 . S
O1087 Co1058 2.113 . S
O1087 C1075 1.245 . S
Co1088 H1091 2.400 . S
Co1088 O1092 2.009 . S
Co1088 O1100 2.115 . S
Co1088 O1101 2.315 . S
Co1088 O1112 2.053 . S
Co1088 O1115 2.094 . S
Co1088 O1118 2.122 . S
Co1089 O1092 2.126 . S
Co1089 H1093 2.388 . S
Co1089 O1094 2.053 . S
Co1089 O1097 2.047 . S
Co1089 O1103 2.113 . S
Co1089 O1114 2.063 . S
Co1090 H1091 2.388 . S
Co1090 O1092 2.053 . S
Co1090 O1094 2.126 . S
Co1090 O1099 2.063 . S
Co1090 O1113 2.047 . S
Co1090 O1119 2.113 . S
H1091 Co1088 2.400 . S
H1091 Co1090 2.388 . S
H1091 O1092 0.760 . S
O1092 Co1088 2.009 . S
O1092 Co1089 2.126 . S
O1092 Co1090 2.053 . S
O1092 H1091 0.760 . S
H1093 Co1089 2.388 . S
H1093 O1094 0.760 . S
H1093 Co1095 2.400 . S
O1094 Co1089 2.053 . S
O1094 Co1090 2.126 . S
O1094 H1093 0.760 . S
O1094 Co1095 2.009 . S
Co1095 H1093 2.400 . S
Co1095 O1094 2.009 . S
Co1095 O1096 2.053 . S
Co1095 O1098 2.094 . S
Co1095 O1102 2.122 . S
Co1095 O1116 2.115 . S
Co1095 O1117 2.315 . S
O1096 Co1095 2.053 . S
O1096 C1108 1.259 . S
O1097 Co1089 2.047 . S
O1097 C1108 1.257 . S
O1098 Co1095 2.094 . S
O1098 C1109 1.253 . S
O1099 Co1090 2.063 . S
O1099 C1109 1.268 . S
O1100 Co1088 2.115 . S
O1100 C1110 1.281 . S
O1101 Co1088 2.315 . S
O1101 C1110 1.252 . S
O1102 Co1095 2.122 . S
O1102 C1111 1.272 . S
O1103 Co1089 2.113 . S
O1103 C1111 1.245 . S
C1104 O1112 1.259 . S
C1104 O1113 1.257 . S
C1105 O1114 1.268 . S
C1105 O1115 1.253 . S
C1106 O1116 1.281 . S
C1106 O1117 1.252 . S
C1107 O1118 1.272 . S
C1107 O1119 1.245 . S
C1108 O1096 1.259 . S
C1108 O1097 1.257 . S
C1109 O1098 1.253 . S
C1109 O1099 1.268 . S
C1110 O1100 1.281 . S
C1110 O1101 1.252 . S
C1111 O1102 1.272 . S
C1111 O1103 1.245 . S
O1112 Co1088 2.053 . S
O1112 C1104 1.259 . S
O1113 Co1090 2.047 . S
O1113 C1104 1.257 . S
O1114 Co1089 2.063 . S
O1114 C1105 1.268 . S
O1115 Co1088 2.094 . S
O1115 C1105 1.253 . S
O1116 Co1095 2.115 . S
O1116 C1106 1.281 . S
O1117 Co1095 2.315 . S
O1117 C1106 1.252 . S
O1118 Co1088 2.122 . S
O1118 C1107 1.272 . S
O1119 Co1090 2.113 . S
O1119 C1107 1.245 . S
Co1120 H1123 2.400 . S
Co1120 O1124 2.009 . S
Co1120 O1132 2.115 . S
Co1120 O1133 2.315 . S
Co1120 O1144 2.053 . S
Co1120 O1147 2.094 . S
Co1120 O1150 2.122 . S
Co1121 O1124 2.126 . S
Co1121 H1125 2.388 . S
Co1121 O1126 2.053 . S
Co1121 O1129 2.047 . S
Co1121 O1135 2.113 . S
Co1121 O1146 2.063 . S
Co1122 H1123 2.388 . S
Co1122 O1124 2.053 . S
Co1122 O1126 2.126 . S
Co1122 O1131 2.063 . S
Co1122 O1145 2.047 . S
Co1122 O1151 2.113 . S
H1123 Co1120 2.400 . S
H1123 Co1122 2.388 . S
H1123 O1124 0.760 . S
O1124 Co1120 2.009 . S
O1124 Co1121 2.126 . S
O1124 Co1122 2.053 . S
O1124 H1123 0.760 . S
H1125 Co1121 2.388 . S
H1125 O1126 0.760 . S
H1125 Co1127 2.400 . S
O1126 Co1121 2.053 . S
O1126 Co1122 2.126 . S
O1126 H1125 0.760 . S
O1126 Co1127 2.009 . S
Co1127 H1125 2.400 . S
Co1127 O1126 2.009 . S
Co1127 O1128 2.053 . S
Co1127 O1130 2.094 . S
Co1127 O1134 2.122 . S
Co1127 O1148 2.115 . S
Co1127 O1149 2.315 . S
O1128 Co1127 2.053 . S
O1128 C1140 1.259 . S
O1129 Co1121 2.047 . S
O1129 C1140 1.257 . S
O1130 Co1127 2.094 . S
O1130 C1141 1.253 . S
O1131 Co1122 2.063 . S
O1131 C1141 1.268 . S
O1132 Co1120 2.115 . S
O1132 C1142 1.281 . S
O1133 Co1120 2.315 . S
O1133 C1142 1.252 . S
O1134 Co1127 2.122 . S
O1134 C1143 1.272 . S
O1135 Co1121 2.113 . S
O1135 C1143 1.245 . S
C1136 O1144 1.259 . S
C1136 O1145 1.257 . S
C1137 O1146 1.268 . S
C1137 O1147 1.253 . S
C1138 O1148 1.281 . S
C1138 O1149 1.252 . S
C1139 O1150 1.272 . S
C1139 O1151 1.245 . S
C1140 O1128 1.259 . S
C1140 O1129 1.257 . S
C1141 O1130 1.253 . S
C1141 O1131 1.268 . S
C1142 O1132 1.281 . S
C1142 O1133 1.252 . S
C1143 O1134 1.272 . S
C1143 O1135 1.245 . S
O1144 Co1120 2.053 . S
O1144 C1136 1.259 . S
O1145 Co1122 2.047 . S
O1145 C1136 1.257 . S
O1146 Co1121 2.063 . S
O1146 C1137 1.268 . S
O1147 Co1120 2.094 . S
O1147 C1137 1.253 . S
O1148 Co1127 2.115 . S
O1148 C1138 1.281 . S
O1149 Co1127 2.315 . S
O1149 C1138 1.252 . S
O1150 Co1120 2.122 . S
O1150 C1139 1.272 . S
O1151 Co1122 2.113 . S
O1151 C1139 1.245 . S
Co1152 H1155 2.400 . S
Co1152 O1156 2.009 . S
Co1152 O1164 2.115 . S
Co1152 O1165 2.315 . S
Co1152 O1176 2.053 . S
Co1152 O1179 2.094 . S
Co1152 O1182 2.122 . S
Co1153 O1156 2.126 . S
Co1153 H1157 2.388 . S
Co1153 O1158 2.053 . S
Co1153 O1161 2.047 . S
Co1153 O1167 2.113 . S
Co1153 O1178 2.063 . S
Co1154 H1155 2.388 . S
Co1154 O1156 2.053 . S
Co1154 O1158 2.126 . S
Co1154 O1163 2.063 . S
Co1154 O1177 2.047 . S
Co1154 O1183 2.113 . S
H1155 Co1152 2.400 . S
H1155 Co1154 2.388 . S
H1155 O1156 0.760 . S
O1156 Co1152 2.009 . S
O1156 Co1153 2.126 . S
O1156 Co1154 2.053 . S
O1156 H1155 0.760 . S
H1157 Co1153 2.388 . S
H1157 O1158 0.760 . S
H1157 Co1159 2.400 . S
O1158 Co1153 2.053 . S
O1158 Co1154 2.126 . S
O1158 H1157 0.760 . S
O1158 Co1159 2.009 . S
Co1159 H1157 2.400 . S
Co1159 O1158 2.009 . S
Co1159 O1160 2.053 . S
Co1159 O1162 2.094 . S
Co1159 O1166 2.122 . S
Co1159 O1180 2.115 . S
Co1159 O1181 2.315 . S
O1160 Co1159 2.053 . S
O1160 C1172 1.259 . S
O1161 Co1153 2.047 . S
O1161 C1172 1.257 . S
O1162 Co1159 2.094 . S
O1162 C1173 1.253 . S
O1163 Co1154 2.063 . S
O1163 C1173 1.268 . S
O1164 Co1152 2.115 . S
O1164 C1174 1.281 . S
O1165 Co1152 2.315 . S
O1165 C1174 1.252 . S
O1166 Co1159 2.122 . S
O1166 C1175 1.272 . S
O1167 Co1153 2.113 . S
O1167 C1175 1.245 . S
C1168 O1176 1.259 . S
C1168 O1177 1.257 . S
C1169 O1178 1.268 . S
C1169 O1179 1.253 . S
C1170 O1180 1.281 . S
C1170 O1181 1.252 . S
C1171 O1182 1.272 . S
C1171 O1183 1.245 . S
C1172 O1160 1.259 . S
C1172 O1161 1.257 . S
C1173 O1162 1.253 . S
C1173 O1163 1.268 . S
C1174 O1164 1.281 . S
C1174 O1165 1.252 . S
C1175 O1166 1.272 . S
C1175 O1167 1.245 . S
O1176 Co1152 2.053 . S
O1176 C1168 1.259 . S
O1177 Co1154 2.047 . S
O1177 C1168 1.257 . S
O1178 Co1153 2.063 . S
O1178 C1169 1.268 . S
O1179 Co1152 2.094 . S
O1179 C1169 1.253 . S
O1180 Co1159 2.115 . S
O1180 C1170 1.281 . S
O1181 Co1159 2.315 . S
O1181 C1170 1.252 . S
O1182 Co1152 2.122 . S
O1182 C1171 1.272 . S
O1183 Co1154 2.113 . S
O1183 C1171 1.245 . S
Co1184 H1187 2.400 . S
Co1184 O1188 2.009 . S
Co1184 O1196 2.115 . S
Co1184 O1197 2.315 . S
Co1184 O1208 2.053 . S
Co1184 O1211 2.094 . S
Co1184 O1214 2.122 . S
Co1185 O1188 2.126 . S
Co1185 H1189 2.388 . S
Co1185 O1190 2.053 . S
Co1185 O1193 2.047 . S
Co1185 O1199 2.113 . S
Co1185 O1210 2.063 . S
Co1186 H1187 2.388 . S
Co1186 O1188 2.053 . S
Co1186 O1190 2.126 . S
Co1186 O1195 2.063 . S
Co1186 O1209 2.047 . S
Co1186 O1215 2.113 . S
H1187 Co1184 2.400 . S
H1187 Co1186 2.388 . S
H1187 O1188 0.760 . S
O1188 Co1184 2.009 . S
O1188 Co1185 2.126 . S
O1188 Co1186 2.053 . S
O1188 H1187 0.760 . S
H1189 Co1185 2.388 . S
H1189 O1190 0.760 . S
H1189 Co1191 2.400 . S
O1190 Co1185 2.053 . S
O1190 Co1186 2.126 . S
O1190 H1189 0.760 . S
O1190 Co1191 2.009 . S
Co1191 H1189 2.400 . S
Co1191 O1190 2.009 . S
Co1191 O1192 2.053 . S
Co1191 O1194 2.094 . S
Co1191 O1198 2.122 . S
Co1191 O1212 2.115 . S
Co1191 O1213 2.315 . S
O1192 Co1191 2.053 . S
O1192 C1204 1.259 . S
O1193 Co1185 2.047 . S
O1193 C1204 1.257 . S
O1194 Co1191 2.094 . S
O1194 C1205 1.253 . S
O1195 Co1186 2.063 . S
O1195 C1205 1.268 . S
O1196 Co1184 2.115 . S
O1196 C1206 1.281 . S
O1197 Co1184 2.315 . S
O1197 C1206 1.252 . S
O1198 Co1191 2.122 . S
O1198 C1207 1.272 . S
O1199 Co1185 2.113 . S
O1199 C1207 1.245 . S
C1200 O1208 1.259 . S
C1200 O1209 1.257 . S
C1201 O1210 1.268 . S
C1201 O1211 1.253 . S
C1202 O1212 1.281 . S
C1202 O1213 1.252 . S
C1203 O1214 1.272 . S
C1203 O1215 1.245 . S
C1204 O1192 1.259 . S
C1204 O1193 1.257 . S
C1205 O1194 1.253 . S
C1205 O1195 1.268 . S
C1206 O1196 1.281 . S
C1206 O1197 1.252 . S
C1207 O1198 1.272 . S
C1207 O1199 1.245 . S
O1208 Co1184 2.053 . S
O1208 C1200 1.259 . S
O1209 Co1186 2.047 . S
O1209 C1200 1.257 . S
O1210 Co1185 2.063 . S
O1210 C1201 1.268 . S
O1211 Co1184 2.094 . S
O1211 C1201 1.253 . S
O1212 Co1191 2.115 . S
O1212 C1202 1.281 . S
O1213 Co1191 2.315 . S
O1213 C1202 1.252 . S
O1214 Co1184 2.122 . S
O1214 C1203 1.272 . S
O1215 Co1186 2.113 . S
O1215 C1203 1.245 . S
Co1216 H1219 2.400 . S
Co1216 O1220 2.009 . S
Co1216 O1228 2.115 . S
Co1216 O1229 2.315 . S
Co1216 O1240 2.053 . S
Co1216 O1243 2.094 . S
Co1216 O1246 2.122 . S
Co1217 O1220 2.126 . S
Co1217 H1221 2.388 . S
Co1217 O1222 2.053 . S
Co1217 O1225 2.047 . S
Co1217 O1231 2.113 . S
Co1217 O1242 2.063 . S
Co1218 H1219 2.388 . S
Co1218 O1220 2.053 . S
Co1218 O1222 2.126 . S
Co1218 O1227 2.063 . S
Co1218 O1241 2.047 . S
Co1218 O1247 2.113 . S
H1219 Co1216 2.400 . S
H1219 Co1218 2.388 . S
H1219 O1220 0.760 . S
O1220 Co1216 2.009 . S
O1220 Co1217 2.126 . S
O1220 Co1218 2.053 . S
O1220 H1219 0.760 . S
H1221 Co1217 2.388 . S
H1221 O1222 0.760 . S
H1221 Co1223 2.400 . S
O1222 Co1217 2.053 . S
O1222 Co1218 2.126 . S
O1222 H1221 0.760 . S
O1222 Co1223 2.009 . S
Co1223 H1221 2.400 . S
Co1223 O1222 2.009 . S
Co1223 O1224 2.053 . S
Co1223 O1226 2.094 . S
Co1223 O1230 2.122 . S
Co1223 O1244 2.115 . S
Co1223 O1245 2.315 . S
O1224 Co1223 2.053 . S
O1224 C1236 1.259 . S
O1225 Co1217 2.047 . S
O1225 C1236 1.257 . S
O1226 Co1223 2.094 . S
O1226 C1237 1.253 . S
O1227 Co1218 2.063 . S
O1227 C1237 1.268 . S
O1228 Co1216 2.115 . S
O1228 C1238 1.281 . S
O1229 Co1216 2.315 . S
O1229 C1238 1.252 . S
O1230 Co1223 2.122 . S
O1230 C1239 1.272 . S
O1231 Co1217 2.113 . S
O1231 C1239 1.245 . S
C1232 O1240 1.259 . S
C1232 O1241 1.257 . S
C1233 O1242 1.268 . S
C1233 O1243 1.253 . S
C1234 O1244 1.281 . S
C1234 O1245 1.252 . S
C1235 O1246 1.272 . S
C1235 O1247 1.245 . S
C1236 O1224 1.259 . S
C1236 O1225 1.257 . S
C1237 O1226 1.253 . S
C1237 O1227 1.268 . S
C1238 O1228 1.281 . S
C1238 O1229 1.252 . S
C1239 O1230 1.272 . S
C1239 O1231 1.245 . S
O1240 Co1216 2.053 . S
O1240 C1232 1.259 . S
O1241 Co1218 2.047 . S
O1241 C1232 1.257 . S
O1242 Co1217 2.063 . S
O1242 C1233 1.268 . S
O1243 Co1216 2.094 . S
O1243 C1233 1.253 . S
O1244 Co1223 2.115 . S
O1244 C1234 1.281 . S
O1245 Co1223 2.315 . S
O1245 C1234 1.252 . S
O1246 Co1216 2.122 . S
O1246 C1235 1.272 . S
O1247 Co1218 2.113 . S
O1247 C1235 1.245 . S
Co1248 H1251 2.400 . S
Co1248 O1252 2.009 . S
Co1248 O1260 2.115 . S
Co1248 O1261 2.315 . S
Co1248 O1272 2.053 . S
Co1248 O1275 2.094 . S
Co1248 O1278 2.122 . S
Co1249 O1252 2.126 . S
Co1249 H1253 2.388 . S
Co1249 O1254 2.053 . S
Co1249 O1257 2.047 . S
Co1249 O1263 2.113 . S
Co1249 O1274 2.063 . S
Co1250 H1251 2.388 . S
Co1250 O1252 2.053 . S
Co1250 O1254 2.126 . S
Co1250 O1259 2.063 . S
Co1250 O1273 2.047 . S
Co1250 O1279 2.113 . S
H1251 Co1248 2.400 . S
H1251 Co1250 2.388 . S
H1251 O1252 0.760 . S
O1252 Co1248 2.009 . S
O1252 Co1249 2.126 . S
O1252 Co1250 2.053 . S
O1252 H1251 0.760 . S
H1253 Co1249 2.388 . S
H1253 O1254 0.760 . S
H1253 Co1255 2.400 . S
O1254 Co1249 2.053 . S
O1254 Co1250 2.126 . S
O1254 H1253 0.760 . S
O1254 Co1255 2.009 . S
Co1255 H1253 2.400 . S
Co1255 O1254 2.009 . S
Co1255 O1256 2.053 . S
Co1255 O1258 2.094 . S
Co1255 O1262 2.122 . S
Co1255 O1276 2.115 . S
Co1255 O1277 2.315 . S
O1256 Co1255 2.053 . S
O1256 C1268 1.259 . S
O1257 Co1249 2.047 . S
O1257 C1268 1.257 . S
O1258 Co1255 2.094 . S
O1258 C1269 1.253 . S
O1259 Co1250 2.063 . S
O1259 C1269 1.268 . S
O1260 Co1248 2.115 . S
O1260 C1270 1.281 . S
O1261 Co1248 2.315 . S
O1261 C1270 1.252 . S
O1262 Co1255 2.122 . S
O1262 C1271 1.272 . S
O1263 Co1249 2.113 . S
O1263 C1271 1.245 . S
C1264 O1272 1.259 . S
C1264 O1273 1.257 . S
C1265 O1274 1.268 . S
C1265 O1275 1.253 . S
C1266 O1276 1.281 . S
C1266 O1277 1.252 . S
C1267 O1278 1.272 . S
C1267 O1279 1.245 . S
C1268 O1256 1.259 . S
C1268 O1257 1.257 . S
C1269 O1258 1.253 . S
C1269 O1259 1.268 . S
C1270 O1260 1.281 . S
C1270 O1261 1.252 . S
C1271 O1262 1.272 . S
C1271 O1263 1.245 . S
O1272 Co1248 2.053 . S
O1272 C1264 1.259 . S
O1273 Co1250 2.047 . S
O1273 C1264 1.257 . S
O1274 Co1249 2.063 . S
O1274 C1265 1.268 . S
O1275 Co1248 2.094 . S
O1275 C1265 1.253 . S
O1276 Co1255 2.115 . S
O1276 C1266 1.281 . S
O1277 Co1255 2.315 . S
O1277 C1266 1.252 . S
O1278 Co1248 2.122 . S
O1278 C1267 1.272 . S
O1279 Co1250 2.113 . S
O1279 C1267 1.245 . S
Co1280 H1283 2.400 . S
Co1280 O1284 2.009 . S
Co1280 O1292 2.115 . S
Co1280 O1293 2.315 . S
Co1280 O1304 2.053 . S
Co1280 O1307 2.094 . S
Co1280 O1310 2.122 . S
Co1281 O1284 2.126 . S
Co1281 H1285 2.388 . S
Co1281 O1286 2.053 . S
Co1281 O1289 2.047 . S
Co1281 O1295 2.113 . S
Co1281 O1306 2.063 . S
Co1282 H1283 2.388 . S
Co1282 O1284 2.053 . S
Co1282 O1286 2.126 . S
Co1282 O1291 2.063 . S
Co1282 O1305 2.047 . S
Co1282 O1311 2.113 . S
H1283 Co1280 2.400 . S
H1283 Co1282 2.388 . S
H1283 O1284 0.760 . S
O1284 Co1280 2.009 . S
O1284 Co1281 2.126 . S
O1284 Co1282 2.053 . S
O1284 H1283 0.760 . S
H1285 Co1281 2.388 . S
H1285 O1286 0.760 . S
H1285 Co1287 2.400 . S
O1286 Co1281 2.053 . S
O1286 Co1282 2.126 . S
O1286 H1285 0.760 . S
O1286 Co1287 2.009 . S
Co1287 H1285 2.400 . S
Co1287 O1286 2.009 . S
Co1287 O1288 2.053 . S
Co1287 O1290 2.094 . S
Co1287 O1294 2.122 . S
Co1287 O1308 2.115 . S
Co1287 O1309 2.315 . S
O1288 Co1287 2.053 . S
O1288 C1300 1.259 . S
O1289 Co1281 2.047 . S
O1289 C1300 1.257 . S
O1290 Co1287 2.094 . S
O1290 C1301 1.253 . S
O1291 Co1282 2.063 . S
O1291 C1301 1.268 . S
O1292 Co1280 2.115 . S
O1292 C1302 1.281 . S
O1293 Co1280 2.315 . S
O1293 C1302 1.252 . S
O1294 Co1287 2.122 . S
O1294 C1303 1.272 . S
O1295 Co1281 2.113 . S
O1295 C1303 1.245 . S
C1296 O1304 1.259 . S
C1296 O1305 1.257 . S
C1297 O1306 1.268 . S
C1297 O1307 1.253 . S
C1298 O1308 1.281 . S
C1298 O1309 1.252 . S
C1299 O1310 1.272 . S
C1299 O1311 1.245 . S
C1300 O1288 1.259 . S
C1300 O1289 1.257 . S
C1301 O1290 1.253 . S
C1301 O1291 1.268 . S
C1302 O1292 1.281 . S
C1302 O1293 1.252 . S
C1303 O1294 1.272 . S
C1303 O1295 1.245 . S
O1304 Co1280 2.053 . S
O1304 C1296 1.259 . S
O1305 Co1282 2.047 . S
O1305 C1296 1.257 . S
O1306 Co1281 2.063 . S
O1306 C1297 1.268 . S
O1307 Co1280 2.094 . S
O1307 C1297 1.253 . S
O1308 Co1287 2.115 . S
O1308 C1298 1.281 . S
O1309 Co1287 2.315 . S
O1309 C1298 1.252 . S
O1310 Co1280 2.122 . S
O1310 C1299 1.272 . S
O1311 Co1282 2.113 . S
O1311 C1299 1.245 . S
Co1312 H1315 2.400 . S
Co1312 O1316 2.009 . S
Co1312 O1324 2.115 . S
Co1312 O1325 2.315 . S
Co1312 O1336 2.053 . S
Co1312 O1339 2.094 . S
Co1312 O1342 2.122 . S
Co1313 O1316 2.126 . S
Co1313 H1317 2.388 . S
Co1313 O1318 2.053 . S
Co1313 O1321 2.047 . S
Co1313 O1327 2.113 . S
Co1313 O1338 2.063 . S
Co1314 H1315 2.388 . S
Co1314 O1316 2.053 . S
Co1314 O1318 2.126 . S
Co1314 O1323 2.063 . S
Co1314 O1337 2.047 . S
Co1314 O1343 2.113 . S
H1315 Co1312 2.400 . S
H1315 Co1314 2.388 . S
H1315 O1316 0.760 . S
O1316 Co1312 2.009 . S
O1316 Co1313 2.126 . S
O1316 Co1314 2.053 . S
O1316 H1315 0.760 . S
H1317 Co1313 2.388 . S
H1317 O1318 0.760 . S
H1317 Co1319 2.400 . S
O1318 Co1313 2.053 . S
O1318 Co1314 2.126 . S
O1318 H1317 0.760 . S
O1318 Co1319 2.009 . S
Co1319 H1317 2.400 . S
Co1319 O1318 2.009 . S
Co1319 O1320 2.053 . S
Co1319 O1322 2.094 . S
Co1319 O1326 2.122 . S
Co1319 O1340 2.115 . S
Co1319 O1341 2.315 . S
O1320 Co1319 2.053 . S
O1320 C1332 1.259 . S
O1321 Co1313 2.047 . S
O1321 C1332 1.257 . S
O1322 Co1319 2.094 . S
O1322 C1333 1.253 . S
O1323 Co1314 2.063 . S
O1323 C1333 1.268 . S
O1324 Co1312 2.115 . S
O1324 C1334 1.281 . S
O1325 Co1312 2.315 . S
O1325 C1334 1.252 . S
O1326 Co1319 2.122 . S
O1326 C1335 1.272 . S
O1327 Co1313 2.113 . S
O1327 C1335 1.245 . S
C1328 O1336 1.259 . S
C1328 O1337 1.257 . S
C1329 O1338 1.268 . S
C1329 O1339 1.253 . S
C1330 O1340 1.281 . S
C1330 O1341 1.252 . S
C1331 O1342 1.272 . S
C1331 O1343 1.245 . S
C1332 O1320 1.259 . S
C1332 O1321 1.257 . S
C1333 O1322 1.253 . S
C1333 O1323 1.268 . S
C1334 O1324 1.281 . S
C1334 O1325 1.252 . S
C1335 O1326 1.272 . S
C1335 O1327 1.245 . S
O1336 Co1312 2.053 . S
O1336 C1328 1.259 . S
O1337 Co1314 2.047 . S
O1337 C1328 1.257 . S
O1338 Co1313 2.063 . S
O1338 C1329 1.268 . S
O1339 Co1312 2.094 . S
O1339 C1329 1.253 . S
O1340 Co1319 2.115 . S
O1340 C1330 1.281 . S
O1341 Co1319 2.315 . S
O1341 C1330 1.252 . S
O1342 Co1312 2.122 . S
O1342 C1331 1.272 . S
O1343 Co1314 2.113 . S
O1343 C1331 1.245 . S
Co1344 H1347 2.400 . S
Co1344 O1348 2.009 . S
Co1344 O1356 2.115 . S
Co1344 O1357 2.315 . S
Co1344 O1368 2.053 . S
Co1344 O1371 2.094 . S
Co1344 O1374 2.122 . S
Co1345 O1348 2.126 . S
Co1345 H1349 2.388 . S
Co1345 O1350 2.053 . S
Co1345 O1353 2.047 . S
Co1345 O1359 2.113 . S
Co1345 O1370 2.063 . S
Co1346 H1347 2.388 . S
Co1346 O1348 2.053 . S
Co1346 O1350 2.126 . S
Co1346 O1355 2.063 . S
Co1346 O1369 2.047 . S
Co1346 O1375 2.113 . S
H1347 Co1344 2.400 . S
H1347 Co1346 2.388 . S
H1347 O1348 0.760 . S
O1348 Co1344 2.009 . S
O1348 Co1345 2.126 . S
O1348 Co1346 2.053 . S
O1348 H1347 0.760 . S
H1349 Co1345 2.388 . S
H1349 O1350 0.760 . S
H1349 Co1351 2.400 . S
O1350 Co1345 2.053 . S
O1350 Co1346 2.126 . S
O1350 H1349 0.760 . S
O1350 Co1351 2.009 . S
Co1351 H1349 2.400 . S
Co1351 O1350 2.009 . S
Co1351 O1352 2.053 . S
Co1351 O1354 2.094 . S
Co1351 O1358 2.122 . S
Co1351 O1372 2.115 . S
Co1351 O1373 2.315 . S
O1352 Co1351 2.053 . S
O1352 C1364 1.259 . S
O1353 Co1345 2.047 . S
O1353 C1364 1.257 . S
O1354 Co1351 2.094 . S
O1354 C1365 1.253 . S
O1355 Co1346 2.063 . S
O1355 C1365 1.268 . S
O1356 Co1344 2.115 . S
O1356 C1366 1.281 . S
O1357 Co1344 2.315 . S
O1357 C1366 1.252 . S
O1358 Co1351 2.122 . S
O1358 C1367 1.272 . S
O1359 Co1345 2.113 . S
O1359 C1367 1.245 . S
C1360 O1368 1.259 . S
C1360 O1369 1.257 . S
C1361 O1370 1.268 . S
C1361 O1371 1.253 . S
C1362 O1372 1.281 . S
C1362 O1373 1.252 . S
C1363 O1374 1.272 . S
C1363 O1375 1.245 . S
C1364 O1352 1.259 . S
C1364 O1353 1.257 . S
C1365 O1354 1.253 . S
C1365 O1355 1.268 . S
C1366 O1356 1.281 . S
C1366 O1357 1.252 . S
C1367 O1358 1.272 . S
C1367 O1359 1.245 . S
O1368 Co1344 2.053 . S
O1368 C1360 1.259 . S
O1369 Co1346 2.047 . S
O1369 C1360 1.257 . S
O1370 Co1345 2.063 . S
O1370 C1361 1.268 . S
O1371 Co1344 2.094 . S
O1371 C1361 1.253 . S
O1372 Co1351 2.115 . S
O1372 C1362 1.281 . S
O1373 Co1351 2.315 . S
O1373 C1362 1.252 . S
O1374 Co1344 2.122 . S
O1374 C1363 1.272 . S
O1375 Co1346 2.113 . S
O1375 C1363 1.245 . S
Co1376 H1379 2.400 . S
Co1376 O1380 2.009 . S
Co1376 O1388 2.115 . S
Co1376 O1389 2.315 . S
Co1376 O1400 2.053 . S
Co1376 O1403 2.094 . S
Co1376 O1406 2.122 . S
Co1377 O1380 2.126 . S
Co1377 H1381 2.388 . S
Co1377 O1382 2.053 . S
Co1377 O1385 2.047 . S
Co1377 O1391 2.113 . S
Co1377 O1402 2.063 . S
Co1378 H1379 2.388 . S
Co1378 O1380 2.053 . S
Co1378 O1382 2.126 . S
Co1378 O1387 2.063 . S
Co1378 O1401 2.047 . S
Co1378 O1407 2.113 . S
H1379 Co1376 2.400 . S
H1379 Co1378 2.388 . S
H1379 O1380 0.760 . S
O1380 Co1376 2.009 . S
O1380 Co1377 2.126 . S
O1380 Co1378 2.053 . S
O1380 H1379 0.760 . S
H1381 Co1377 2.388 . S
H1381 O1382 0.760 . S
H1381 Co1383 2.400 . S
O1382 Co1377 2.053 . S
O1382 Co1378 2.126 . S
O1382 H1381 0.760 . S
O1382 Co1383 2.009 . S
Co1383 H1381 2.400 . S
Co1383 O1382 2.009 . S
Co1383 O1384 2.053 . S
Co1383 O1386 2.094 . S
Co1383 O1390 2.122 . S
Co1383 O1404 2.115 . S
Co1383 O1405 2.315 . S
O1384 Co1383 2.053 . S
O1384 C1396 1.259 . S
O1385 Co1377 2.047 . S
O1385 C1396 1.257 . S
O1386 Co1383 2.094 . S
O1386 C1397 1.253 . S
O1387 Co1378 2.063 . S
O1387 C1397 1.268 . S
O1388 Co1376 2.115 . S
O1388 C1398 1.281 . S
O1389 Co1376 2.315 . S
O1389 C1398 1.252 . S
O1390 Co1383 2.122 . S
O1390 C1399 1.272 . S
O1391 Co1377 2.113 . S
O1391 C1399 1.245 . S
C1392 O1400 1.259 . S
C1392 O1401 1.257 . S
C1393 O1402 1.268 . S
C1393 O1403 1.253 . S
C1394 O1404 1.281 . S
C1394 O1405 1.252 . S
C1395 O1406 1.272 . S
C1395 O1407 1.245 . S
C1396 O1384 1.259 . S
C1396 O1385 1.257 . S
C1397 O1386 1.253 . S
C1397 O1387 1.268 . S
C1398 O1388 1.281 . S
C1398 O1389 1.252 . S
C1399 O1390 1.272 . S
C1399 O1391 1.245 . S
O1400 Co1376 2.053 . S
O1400 C1392 1.259 . S
O1401 Co1378 2.047 . S
O1401 C1392 1.257 . S
O1402 Co1377 2.063 . S
O1402 C1393 1.268 . S
O1403 Co1376 2.094 . S
O1403 C1393 1.253 . S
O1404 Co1383 2.115 . S
O1404 C1394 1.281 . S
O1405 Co1383 2.315 . S
O1405 C1394 1.252 . S
O1406 Co1376 2.122 . S
O1406 C1395 1.272 . S
O1407 Co1378 2.113 . S
O1407 C1395 1.245 . S
Co1408 H1411 2.400 . S
Co1408 O1412 2.009 . S
Co1408 O1420 2.115 . S
Co1408 O1421 2.315 . S
Co1408 O1432 2.053 . S
Co1408 O1435 2.094 . S
Co1408 O1438 2.122 . S
Co1409 O1412 2.126 . S
Co1409 H1413 2.388 . S
Co1409 O1414 2.053 . S
Co1409 O1417 2.047 . S
Co1409 O1423 2.113 . S
Co1409 O1434 2.063 . S
Co1410 H1411 2.388 . S
Co1410 O1412 2.053 . S
Co1410 O1414 2.126 . S
Co1410 O1419 2.063 . S
Co1410 O1433 2.047 . S
Co1410 O1439 2.113 . S
H1411 Co1408 2.400 . S
H1411 Co1410 2.388 . S
H1411 O1412 0.760 . S
O1412 Co1408 2.009 . S
O1412 Co1409 2.126 . S
O1412 Co1410 2.053 . S
O1412 H1411 0.760 . S
H1413 Co1409 2.388 . S
H1413 O1414 0.760 . S
H1413 Co1415 2.400 . S
O1414 Co1409 2.053 . S
O1414 Co1410 2.126 . S
O1414 H1413 0.760 . S
O1414 Co1415 2.009 . S
Co1415 H1413 2.400 . S
Co1415 O1414 2.009 . S
Co1415 O1416 2.053 . S
Co1415 O1418 2.094 . S
Co1415 O1422 2.122 . S
Co1415 O1436 2.115 . S
Co1415 O1437 2.315 . S
O1416 Co1415 2.053 . S
O1416 C1428 1.259 . S
O1417 Co1409 2.047 . S
O1417 C1428 1.257 . S
O1418 Co1415 2.094 . S
O1418 C1429 1.253 . S
O1419 Co1410 2.063 . S
O1419 C1429 1.268 . S
O1420 Co1408 2.115 . S
O1420 C1430 1.281 . S
O1421 Co1408 2.315 . S
O1421 C1430 1.252 . S
O1422 Co1415 2.122 . S
O1422 C1431 1.272 . S
O1423 Co1409 2.113 . S
O1423 C1431 1.245 . S
C1424 O1432 1.259 . S
C1424 O1433 1.257 . S
C1425 O1434 1.268 . S
C1425 O1435 1.253 . S
C1426 O1436 1.281 . S
C1426 O1437 1.252 . S
C1427 O1438 1.272 . S
C1427 O1439 1.245 . S
C1428 O1416 1.259 . S
C1428 O1417 1.257 . S
C1429 O1418 1.253 . S
C1429 O1419 1.268 . S
C1430 O1420 1.281 . S
C1430 O1421 1.252 . S
C1431 O1422 1.272 . S
C1431 O1423 1.245 . S
O1432 Co1408 2.053 . S
O1432 C1424 1.259 . S
O1433 Co1410 2.047 . S
O1433 C1424 1.257 . S
O1434 Co1409 2.063 . S
O1434 C1425 1.268 . S
O1435 Co1408 2.094 . S
O1435 C1425 1.253 . S
O1436 Co1415 2.115 . S
O1436 C1426 1.281 . S
O1437 Co1415 2.315 . S
O1437 C1426 1.252 . S
O1438 Co1408 2.122 . S
O1438 C1427 1.272 . S
O1439 Co1410 2.113 . S
O1439 C1427 1.245 . S
Co1440 H1443 2.400 . S
Co1440 O1444 2.009 . S
Co1440 O1452 2.115 . S
Co1440 O1453 2.315 . S
Co1440 O1464 2.053 . S
Co1440 O1467 2.094 . S
Co1440 O1470 2.122 . S
Co1441 O1444 2.126 . S
Co1441 H1445 2.388 . S
Co1441 O1446 2.053 . S
Co1441 O1449 2.047 . S
Co1441 O1455 2.113 . S
Co1441 O1466 2.063 . S
Co1442 H1443 2.388 . S
Co1442 O1444 2.053 . S
Co1442 O1446 2.126 . S
Co1442 O1451 2.063 . S
Co1442 O1465 2.047 . S
Co1442 O1471 2.113 . S
H1443 Co1440 2.400 . S
H1443 Co1442 2.388 . S
H1443 O1444 0.760 . S
O1444 Co1440 2.009 . S
O1444 Co1441 2.126 . S
O1444 Co1442 2.053 . S
O1444 H1443 0.760 . S
H1445 Co1441 2.388 . S
H1445 O1446 0.760 . S
H1445 Co1447 2.400 . S
O1446 Co1441 2.053 . S
O1446 Co1442 2.126 . S
O1446 H1445 0.760 . S
O1446 Co1447 2.009 . S
Co1447 H1445 2.400 . S
Co1447 O1446 2.009 . S
Co1447 O1448 2.053 . S
Co1447 O1450 2.094 . S
Co1447 O1454 2.122 . S
Co1447 O1468 2.115 . S
Co1447 O1469 2.315 . S
O1448 Co1447 2.053 . S
O1448 C1460 1.259 . S
O1449 Co1441 2.047 . S
O1449 C1460 1.257 . S
O1450 Co1447 2.094 . S
O1450 C1461 1.253 . S
O1451 Co1442 2.063 . S
O1451 C1461 1.268 . S
O1452 Co1440 2.115 . S
O1452 C1462 1.281 . S
O1453 Co1440 2.315 . S
O1453 C1462 1.252 . S
O1454 Co1447 2.122 . S
O1454 C1463 1.272 . S
O1455 Co1441 2.113 . S
O1455 C1463 1.245 . S
C1456 O1464 1.259 . S
C1456 O1465 1.257 . S
C1457 O1466 1.268 . S
C1457 O1467 1.253 . S
C1458 O1468 1.281 . S
C1458 O1469 1.252 . S
C1459 O1470 1.272 . S
C1459 O1471 1.245 . S
C1460 O1448 1.259 . S
C1460 O1449 1.257 . S
C1461 O1450 1.253 . S
C1461 O1451 1.268 . S
C1462 O1452 1.281 . S
C1462 O1453 1.252 . S
C1463 O1454 1.272 . S
C1463 O1455 1.245 . S
O1464 Co1440 2.053 . S
O1464 C1456 1.259 . S
O1465 Co1442 2.047 . S
O1465 C1456 1.257 . S
O1466 Co1441 2.063 . S
O1466 C1457 1.268 . S
O1467 Co1440 2.094 . S
O1467 C1457 1.253 . S
O1468 Co1447 2.115 . S
O1468 C1458 1.281 . S
O1469 Co1447 2.315 . S
O1469 C1458 1.252 . S
O1470 Co1440 2.122 . S
O1470 C1459 1.272 . S
O1471 Co1442 2.113 . S
O1471 C1459 1.245 . S
Co1472 H1475 2.400 . S
Co1472 O1476 2.009 . S
Co1472 O1484 2.115 . S
Co1472 O1485 2.315 . S
Co1472 O1496 2.053 . S
Co1472 O1499 2.094 . S
Co1472 O1502 2.122 . S
Co1473 O1476 2.126 . S
Co1473 H1477 2.388 . S
Co1473 O1478 2.053 . S
Co1473 O1481 2.047 . S
Co1473 O1487 2.113 . S
Co1473 O1498 2.063 . S
Co1474 H1475 2.388 . S
Co1474 O1476 2.053 . S
Co1474 O1478 2.126 . S
Co1474 O1483 2.063 . S
Co1474 O1497 2.047 . S
Co1474 O1503 2.113 . S
H1475 Co1472 2.400 . S
H1475 Co1474 2.388 . S
H1475 O1476 0.760 . S
O1476 Co1472 2.009 . S
O1476 Co1473 2.126 . S
O1476 Co1474 2.053 . S
O1476 H1475 0.760 . S
H1477 Co1473 2.388 . S
H1477 O1478 0.760 . S
H1477 Co1479 2.400 . S
O1478 Co1473 2.053 . S
O1478 Co1474 2.126 . S
O1478 H1477 0.760 . S
O1478 Co1479 2.009 . S
Co1479 H1477 2.400 . S
Co1479 O1478 2.009 . S
Co1479 O1480 2.053 . S
Co1479 O1482 2.094 . S
Co1479 O1486 2.122 . S
Co1479 O1500 2.115 . S
Co1479 O1501 2.315 . S
O1480 Co1479 2.053 . S
O1480 C1492 1.259 . S
O1481 Co1473 2.047 . S
O1481 C1492 1.257 . S
O1482 Co1479 2.094 . S
O1482 C1493 1.253 . S
O1483 Co1474 2.063 . S
O1483 C1493 1.268 . S
O1484 Co1472 2.115 . S
O1484 C1494 1.281 . S
O1485 Co1472 2.315 . S
O1485 C1494 1.252 . S
O1486 Co1479 2.122 . S
O1486 C1495 1.272 . S
O1487 Co1473 2.113 . S
O1487 C1495 1.245 . S
C1488 O1496 1.259 . S
C1488 O1497 1.257 . S
C1489 O1498 1.268 . S
C1489 O1499 1.253 . S
C1490 O1500 1.281 . S
C1490 O1501 1.252 . S
C1491 O1502 1.272 . S
C1491 O1503 1.245 . S
C1492 O1480 1.259 . S
C1492 O1481 1.257 . S
C1493 O1482 1.253 . S
C1493 O1483 1.268 . S
C1494 O1484 1.281 . S
C1494 O1485 1.252 . S
C1495 O1486 1.272 . S
C1495 O1487 1.245 . S
O1496 Co1472 2.053 . S
O1496 C1488 1.259 . S
O1497 Co1474 2.047 . S
O1497 C1488 1.257 . S
O1498 Co1473 2.063 . S
O1498 C1489 1.268 . S
O1499 Co1472 2.094 . S
O1499 C1489 1.253 . S
O1500 Co1479 2.115 . S
O1500 C1490 1.281 . S
O1501 Co1479 2.315 . S
O1501 C1490 1.252 . S
O1502 Co1472 2.122 . S
O1502 C1491 1.272 . S
O1503 Co1474 2.113 . S
O1503 C1491 1.245 . S
Co1504 H1507 2.400 . S
Co1504 O1508 2.009 . S
Co1504 O1516 2.115 . S
Co1504 O1517 2.315 . S
Co1504 O1528 2.053 . S
Co1504 O1531 2.094 . S
Co1504 O1534 2.122 . S
Co1505 O1508 2.126 . S
Co1505 H1509 2.388 . S
Co1505 O1510 2.053 . S
Co1505 O1513 2.047 . S
Co1505 O1519 2.113 . S
Co1505 O1530 2.063 . S
Co1506 H1507 2.388 . S
Co1506 O1508 2.053 . S
Co1506 O1510 2.126 . S
Co1506 O1515 2.063 . S
Co1506 O1529 2.047 . S
Co1506 O1535 2.113 . S
H1507 Co1504 2.400 . S
H1507 Co1506 2.388 . S
H1507 O1508 0.760 . S
O1508 Co1504 2.009 . S
O1508 Co1505 2.126 . S
O1508 Co1506 2.053 . S
O1508 H1507 0.760 . S
H1509 Co1505 2.388 . S
H1509 O1510 0.760 . S
H1509 Co1511 2.400 . S
O1510 Co1505 2.053 . S
O1510 Co1506 2.126 . S
O1510 H1509 0.760 . S
O1510 Co1511 2.009 . S
Co1511 H1509 2.400 . S
Co1511 O1510 2.009 . S
Co1511 O1512 2.053 . S
Co1511 O1514 2.094 . S
Co1511 O1518 2.122 . S
Co1511 O1532 2.115 . S
Co1511 O1533 2.315 . S
O1512 Co1511 2.053 . S
O1512 C1524 1.259 . S
O1513 Co1505 2.047 . S
O1513 C1524 1.257 . S
O1514 Co1511 2.094 . S
O1514 C1525 1.253 . S
O1515 Co1506 2.063 . S
O1515 C1525 1.268 . S
O1516 Co1504 2.115 . S
O1516 C1526 1.281 . S
O1517 Co1504 2.315 . S
O1517 C1526 1.252 . S
O1518 Co1511 2.122 . S
O1518 C1527 1.272 . S
O1519 Co1505 2.113 . S
O1519 C1527 1.245 . S
C1520 O1528 1.259 . S
C1520 O1529 1.257 . S
C1521 O1530 1.268 . S
C1521 O1531 1.253 . S
C1522 O1532 1.281 . S
C1522 O1533 1.252 . S
C1523 O1534 1.272 . S
C1523 O1535 1.245 . S
C1524 O1512 1.259 . S
C1524 O1513 1.257 . S
C1525 O1514 1.253 . S
C1525 O1515 1.268 . S
C1526 O1516 1.281 . S
C1526 O1517 1.252 . S
C1527 O1518 1.272 . S
C1527 O1519 1.245 . S
O1528 Co1504 2.053 . S
O1528 C1520 1.259 . S
O1529 Co1506 2.047 . S
O1529 C1520 1.257 . S
O1530 Co1505 2.063 . S
O1530 C1521 1.268 . S
O1531 Co1504 2.094 . S
O1531 C1521 1.253 . S
O1532 Co1511 2.115 . S
O1532 C1522 1.281 . S
O1533 Co1511 2.315 . S
O1533 C1522 1.252 . S
O1534 Co1504 2.122 . S
O1534 C1523 1.272 . S
O1535 Co1506 2.113 . S
O1535 C1523 1.245 . S
C1536 C1537 1.387 1_565 S
C1536 H1540 0.950 . S
C1536 C1545 1.390 . S
C1537 C1536 1.387 1_545 S
C1537 C1539 1.387 . S
H1538 C1545 0.950 . S
C1539 C1537 1.387 . S
C1539 C1541 1.390 . S
C1539 H1543 0.950 . S
H1540 C1536 0.950 . S
C1541 C1539 1.390 . S
C1541 C1542 1.387 . S
C1541 H1544 0.950 . S
C1542 C1541 1.387 . S
C1542 C1545 1.387 1_545 S
H1543 C1539 0.950 . S
H1544 C1541 0.950 . S
C1545 C1536 1.390 . S
C1545 H1538 0.950 . S
C1545 C1542 1.387 1_565 S
C1546 C1547 1.387 . S
C1546 H1550 0.950 . S
C1546 C1555 1.390 . S
C1547 C1546 1.387 . S
C1547 C1549 1.387 . S
H1548 C1555 0.950 1_655 S
C1549 C1547 1.387 . S
C1549 C1551 1.390 1_455 S
C1549 H1553 0.950 . S
H1550 C1546 0.950 . S
C1551 C1549 1.390 1_655 S
C1551 C1552 1.387 . S
C1551 H1554 0.950 . S
C1552 C1551 1.387 . S
C1552 C1555 1.387 1_655 S
H1553 C1549 0.950 . S
H1554 C1551 0.950 . S
C1555 C1546 1.390 . S
C1555 H1548 0.950 1_455 S
C1555 C1552 1.387 1_455 S
C1556 C1557 1.387 . S
C1556 H1560 0.950 . S
C1556 C1565 1.390 . S
C1557 C1556 1.387 . S
C1557 C1559 1.387 . S
H1558 C1565 0.950 . S
C1559 C1557 1.387 . S
C1559 C1561 1.390 1_556 S
C1559 H1563 0.957 . S
H1560 C1556 0.950 . S
C1561 C1559 1.390 1_554 S
C1561 C1562 1.387 . S
C1561 H1564 0.950 . S
C1562 C1561 1.387 . S
C1562 C1565 1.387 1_554 S
H1563 C1559 0.957 . S
H1564 C1561 0.950 . S
C1565 C1556 1.390 . S
C1565 H1558 0.950 . S
C1565 C1562 1.387 1_556 S
C1566 C1567 1.387 . S
C1566 H1570 0.950 . S
C1566 C1575 1.390 . S
C1567 C1566 1.387 . S
C1567 C1569 1.387 . S
H1568 C1575 0.950 . S
C1569 C1567 1.387 . S
C1569 C1571 1.390 . S
C1569 H1573 0.950 . S
H1570 C1566 0.950 . S
C1571 C1569 1.390 . S
C1571 C1572 1.387 . S
C1571 H1574 0.950 . S
C1572 C1571 1.387 . S
C1572 C1575 1.387 . S
H1573 C1569 0.950 . S
H1574 C1571 0.950 . S
C1575 C1566 1.390 . S
C1575 H1568 0.950 . S
C1575 C1572 1.387 . S
C1576 C1577 1.387 . S
C1576 H1580 0.950 . S
C1576 C1585 1.390 . S
C1577 C1576 1.387 . S
C1577 C1579 1.387 . S
H1578 C1585 0.950 . S
C1579 C1577 1.387 . S
C1579 C1581 1.390 . S
C1579 H1583 0.950 . S
H1580 C1576 0.950 . S
C1581 C1579 1.390 . S
C1581 C1582 1.387 . S
C1581 H1584 0.950 . S
C1582 C1581 1.387 . S
C1582 C1585 1.387 . S
H1583 C1579 0.950 . S
H1584 C1581 0.950 . S
C1585 C1576 1.390 . S
C1585 H1578 0.950 . S
C1585 C1582 1.387 . S
C1586 C1587 1.387 . S
C1586 H1590 0.950 . S
C1586 C1595 1.390 . S
C1587 C1586 1.387 . S
C1587 C1589 1.387 . S
H1588 C1595 0.950 . S
C1589 C1587 1.387 . S
C1589 C1591 1.390 . S
C1589 H1593 0.950 . S
H1590 C1586 0.950 . S
C1591 C1589 1.390 . S
C1591 C1592 1.387 . S
C1591 H1594 0.950 . S
C1592 C1591 1.387 . S
C1592 C1595 1.387 . S
H1593 C1589 0.950 . S
H1594 C1591 0.950 . S
C1595 C1586 1.390 . S
C1595 H1588 0.950 . S
C1595 C1592 1.387 . S
C1596 C1597 1.387 . S
C1596 H1600 0.950 . S
C1596 C1605 1.390 . S
C1597 C1596 1.387 . S
C1597 C1599 1.387 . S
H1598 C1605 0.950 . S
C1599 C1597 1.387 . S
C1599 C1601 1.390 . S
C1599 H1603 0.950 . S
H1600 C1596 0.950 . S
C1601 C1599 1.390 . S
C1601 C1602 1.387 1_545 S
C1601 H1604 0.950 1_545 S
C1602 C1601 1.387 1_565 S
C1602 C1605 1.387 1_565 S
H1603 C1599 0.950 . S
H1604 C1601 0.950 1_565 S
C1605 C1596 1.390 . S
C1605 H1598 0.950 . S
C1605 C1602 1.387 1_545 S
C1606 C1607 1.387 . S
C1606 H1610 0.950 . S
C1606 C1615 1.390 1_455 S
C1607 C1606 1.387 . S
C1607 C1609 1.387 . S
H1608 C1615 0.950 . S
C1609 C1607 1.387 . S
C1609 C1611 1.390 1_455 S
C1609 H1613 0.950 . S
H1610 C1606 0.950 . S
C1611 C1609 1.390 1_655 S
C1611 C1612 1.387 . S
C1611 H1614 0.950 . S
C1612 C1611 1.387 . S
C1612 C1615 1.387 . S
H1613 C1609 0.950 . S
H1614 C1611 0.950 . S
C1615 C1606 1.390 1_655 S
C1615 H1608 0.950 . S
C1615 C1612 1.387 . S
C1616 C1617 1.387 . S
C1616 H1620 0.950 . S
C1616 C1625 1.390 . S
C1617 C1616 1.387 . S
C1617 C1619 1.387 . S
H1618 C1625 0.950 . S
C1619 C1617 1.387 . S
C1619 C1621 1.390 1_554 S
C1619 H1623 0.950 . S
H1620 C1616 0.950 . S
C1621 C1619 1.390 1_556 S
C1621 C1622 1.387 . S
C1621 H1624 0.950 . S
C1622 C1621 1.387 . S
C1622 C1625 1.387 1_556 S
H1623 C1619 0.950 . S
H1624 C1621 0.950 . S
C1625 C1616 1.390 . S
C1625 H1618 0.950 . S
C1625 C1622 1.387 1_554 S
C1626 C1627 1.387 . S
C1626 H1630 0.950 . S
C1626 C1635 1.390 . S
C1627 C1626 1.387 . S
C1627 C1629 1.387 . S
H1628 C1635 0.950 . S
C1629 C1627 1.387 . S
C1629 C1631 1.390 . S
C1629 H1633 0.950 . S
H1630 C1626 0.950 . S
C1631 C1629 1.390 . S
C1631 C1632 1.387 . S
C1631 H1634 0.950 . S
C1632 C1631 1.387 . S
C1632 C1635 1.387 . S
H1633 C1629 0.950 . S
H1634 C1631 0.950 . S
C1635 C1626 1.390 . S
C1635 H1628 0.950 . S
C1635 C1632 1.387 . S
C1636 C1637 1.387 . S
C1636 H1640 0.950 . S
C1636 C1645 1.390 . S
C1637 C1636 1.387 . S
C1637 C1639 1.387 . S
H1638 C1645 0.950 . S
C1639 C1637 1.387 . S
C1639 C1641 1.390 . S
C1639 H1643 0.950 . S
H1640 C1636 0.950 . S
C1641 C1639 1.390 . S
C1641 C1642 1.387 . S
C1641 H1644 0.950 . S
C1642 C1641 1.387 . S
C1642 C1645 1.387 . S
H1643 C1639 0.950 . S
H1644 C1641 0.950 . S
C1645 C1636 1.390 . S
C1645 H1638 0.950 . S
C1645 C1642 1.387 . S
C1646 C1647 1.387 . S
C1646 H1650 0.950 . S
C1646 C1655 1.390 . S
C1647 C1646 1.387 . S
C1647 C1649 1.387 . S
H1648 C1655 0.950 . S
C1649 C1647 1.387 . S
C1649 C1651 1.390 . S
C1649 H1653 0.950 . S
H1650 C1646 0.950 . S
C1651 C1649 1.390 . S
C1651 C1652 1.387 . S
C1651 H1654 0.950 . S
C1652 C1651 1.387 . S
C1652 C1655 1.387 . S
H1653 C1649 0.950 . S
H1654 C1651 0.950 . S
C1655 C1646 1.390 . S
C1655 H1648 0.950 . S
C1655 C1652 1.387 . S
C1656 C1657 1.387 . S
C1656 H1660 0.950 . S
C1656 C1665 1.390 . S
C1657 C1656 1.387 . S
C1657 C1659 1.387 . S
H1658 C1665 0.950 . S
C1659 C1657 1.387 . S
C1659 C1661 1.390 . S
C1659 H1663 0.950 . S
H1660 C1656 0.950 . S
C1661 C1659 1.390 . S
C1661 C1662 1.387 . S
C1661 H1664 0.950 . S
C1662 C1661 1.387 . S
C1662 C1665 1.387 . S
H1663 C1659 0.950 . S
H1664 C1661 0.950 . S
C1665 C1656 1.390 . S
C1665 H1658 0.950 . S
C1665 C1662 1.387 . S
C1666 C1667 1.387 . S
C1666 H1670 0.950 . S
C1666 C1675 1.390 . S
C1667 C1666 1.387 . S
C1667 C1669 1.387 . S
H1668 C1675 0.950 . S
C1669 C1667 1.387 . S
C1669 C1671 1.390 . S
C1669 H1673 0.950 . S
H1670 C1666 0.950 . S
C1671 C1669 1.390 . S
C1671 C1672 1.387 . S
C1671 H1674 0.950 . S
C1672 C1671 1.387 . S
C1672 C1675 1.387 . S
H1673 C1669 0.950 . S
H1674 C1671 0.950 . S
C1675 C1666 1.390 . S
C1675 H1668 0.950 . S
C1675 C1672 1.387 . S
C1676 C1677 1.387 . S
C1676 H1680 0.950 . S
C1676 C1685 1.390 . S
C1677 C1676 1.387 . S
C1677 C1679 1.387 . S
H1678 C1685 0.950 . S
C1679 C1677 1.387 . S
C1679 C1681 1.390 . S
C1679 H1683 0.950 . S
H1680 C1676 0.950 . S
C1681 C1679 1.390 . S
C1681 C1682 1.387 . S
C1681 H1684 0.950 . S
C1682 C1681 1.387 . S
C1682 C1685 1.387 . S
H1683 C1679 0.950 . S
H1684 C1681 0.950 . S
C1685 C1676 1.390 . S
C1685 H1678 0.950 . S
C1685 C1682 1.387 . S
C1686 C1687 1.386 1_556 S
C1686 H1690 0.949 1_556 S
C1686 C1695 1.392 . S
C1687 C1686 1.386 1_554 S
C1687 C1689 1.387 . S
H1688 C1695 0.950 . S
C1689 C1687 1.387 . S
C1689 C1691 1.390 1_554 S
C1689 H1693 0.950 . S
H1690 C1686 0.949 1_554 S
C1691 C1689 1.390 1_556 S
C1691 C1692 1.387 . S
C1691 H1694 0.950 . S
C1692 C1691 1.387 . S
C1692 C1695 1.387 . S
H1693 C1689 0.950 . S
H1694 C1691 0.950 . S
C1695 C1686 1.392 . S
C1695 H1688 0.950 . S
C1695 C1692 1.387 . S
C1696 C1697 1.387 . S
C1696 H1700 0.950 . S
C1696 C1705 1.390 . S
C1697 C1696 1.387 . S
C1697 C1699 1.387 . S
H1698 C1705 0.950 . S
C1699 C1697 1.387 . S
C1699 C1701 1.390 . S
C1699 H1703 0.950 . S
H1700 C1696 0.950 . S
C1701 C1699 1.390 . S
C1701 C1702 1.387 . S
C1701 H1704 0.950 . S
C1702 C1701 1.387 . S
C1702 C1705 1.387 . S
H1703 C1699 0.950 . S
H1704 C1701 0.950 . S
C1705 C1696 1.390 . S
C1705 H1698 0.950 . S
C1705 C1702 1.387 . S
C1706 C1707 1.387 . S
C1706 H1710 0.950 . S
C1706 C1715 1.390 . S
C1707 C1706 1.387 . S
C1707 C1709 1.387 . S
H1708 C1715 0.950 . S
C1709 C1707 1.387 . S
C1709 C1711 1.390 . S
C1709 H1713 0.950 . S
H1710 C1706 0.950 . S
C1711 C1709 1.390 . S
C1711 C1712 1.387 . S
C1711 H1714 0.950 . S
C1712 C1711 1.387 . S
C1712 C1715 1.387 . S
H1713 C1709 0.950 . S
H1714 C1711 0.950 . S
C1715 C1706 1.390 . S
C1715 H1708 0.950 . S
C1715 C1712 1.387 . S
C1716 C1717 1.387 . S
C1716 H1720 0.950 . S
C1716 C1725 1.390 . S
C1717 C1716 1.387 . S
C1717 C1719 1.387 . S
H1718 C1725 0.950 . S
C1719 C1717 1.387 . S
C1719 C1721 1.390 . S
C1719 H1723 0.950 . S
H1720 C1716 0.950 . S
C1721 C1719 1.390 . S
C1721 C1722 1.387 . S
C1721 H1724 0.950 . S
C1722 C1721 1.387 . S
C1722 C1725 1.387 . S
H1723 C1719 0.950 . S
H1724 C1721 0.950 . S
C1725 C1716 1.390 . S
C1725 H1718 0.950 . S
C1725 C1722 1.387 . S
C1726 C1727 1.387 . S
C1726 H1730 0.950 . S
C1726 C1735 1.397 . S
C1727 C1726 1.387 . S
C1727 C1729 1.387 . S
H1728 C1735 0.947 1_565 S
C1729 C1727 1.387 . S
C1729 C1731 1.363 1_545 S
C1729 H1733 0.950 . S
H1730 C1726 0.950 . S
C1731 C1729 1.363 1_565 S
C1731 C1732 1.398 . S
C1731 H1734 0.969 . S
C1732 C1731 1.398 . S
C1732 C1735 1.383 1_565 S
H1733 C1729 0.950 . S
H1734 C1731 0.969 . S
C1735 C1726 1.397 . S
C1735 H1728 0.947 1_545 S
C1735 C1732 1.383 1_545 S
C1736 C1737 1.387 . S
C1736 H1740 0.950 . S
C1736 C1745 1.390 . S
C1737 C1736 1.387 . S
C1737 C1739 1.387 . S
H1738 C1745 0.950 . S
C1739 C1737 1.387 . S
C1739 C1741 1.390 . S
C1739 H1743 0.950 . S
H1740 C1736 0.950 . S
C1741 C1739 1.390 . S
C1741 C1742 1.387 . S
C1741 H1744 0.950 . S
C1742 C1741 1.387 . S
C1742 C1745 1.387 . S
H1743 C1739 0.950 . S
H1744 C1741 0.950 . S
C1745 C1736 1.390 . S
C1745 H1738 0.950 . S
C1745 C1742 1.387 . S
C1746 C1747 1.387 . S
C1746 H1750 0.950 . S
C1746 C1755 1.390 . S
C1747 C1746 1.387 . S
C1747 C1749 1.387 . S
H1748 C1755 0.950 . S
C1749 C1747 1.387 . S
C1749 C1751 1.390 . S
C1749 H1753 0.950 . S
H1750 C1746 0.950 . S
C1751 C1749 1.390 . S
C1751 C1752 1.387 . S
C1751 H1754 0.950 . S
C1752 C1751 1.387 . S
C1752 C1755 1.387 . S
H1753 C1749 0.950 . S
H1754 C1751 0.950 . S
C1755 C1746 1.390 . S
C1755 H1748 0.950 . S
C1755 C1752 1.387 . S
C1756 C1757 1.387 . S
C1756 H1760 0.949 . S
C1756 C1765 1.391 1_545 S
C1757 C1756 1.387 . S
C1757 C1759 1.390 . S
H1758 C1765 0.950 . S
C1759 C1757 1.390 . S
C1759 C1761 1.384 1_545 S
C1759 H1763 0.954 . S
H1760 C1756 0.949 . S
C1761 C1759 1.384 1_565 S
C1761 C1762 1.387 . S
C1761 H1764 0.950 . S
C1762 C1761 1.387 . S
C1762 C1765 1.387 . S
H1763 C1759 0.954 . S
H1764 C1761 0.950 . S
C1765 C1756 1.391 1_565 S
C1765 H1758 0.950 . S
C1765 C1762 1.387 . S
C1766 C1767 1.387 . S
C1766 H1770 0.950 . S
C1766 C1775 1.429 . S
C1767 C1766 1.387 . S
C1767 C1769 1.387 . S
H1768 C1775 0.945 1_455 S
C1769 C1767 1.387 . S
C1769 C1771 1.390 1_655 S
C1769 H1773 0.950 . S
H1770 C1766 0.950 . S
C1771 C1769 1.390 1_455 S
C1771 C1772 1.387 . S
C1771 H1774 0.950 . S
C1772 C1771 1.387 . S
C1772 C1775 1.354 1_455 S
H1773 C1769 0.950 . S
H1774 C1771 0.950 . S
C1775 C1766 1.429 . S
C1775 H1768 0.945 1_655 S
C1775 C1772 1.354 1_655 S
C1776 C1777 1.387 1_545 S
C1776 H1780 0.950 . S
C1776 C1785 1.390 1_545 S
C1777 C1776 1.387 1_565 S
C1777 C1779 1.387 . S
H1778 C1785 0.950 1_545 S
C1779 C1777 1.387 . S
C1779 C1781 1.390 . S
C1779 H1783 0.950 . S
H1780 C1776 0.950 . S
C1781 C1779 1.390 . S
C1781 C1782 1.387 . S
C1781 H1784 0.950 . S
C1782 C1781 1.387 . S
C1782 C1785 1.387 . S
H1783 C1779 0.950 . S
H1784 C1781 0.950 . S
C1785 C1776 1.390 1_565 S
C1785 H1778 0.950 1_565 S
C1785 C1782 1.387 . S
C1786 C1787 1.387 . S
C1786 H1790 0.950 . S
C1786 C1795 1.390 . S
C1787 C1786 1.387 . S
C1787 C1789 1.387 . S
H1788 C1795 0.950 . S
C1789 C1787 1.387 . S
C1789 C1791 1.390 1_655 S
C1789 H1793 0.950 . S
H1790 C1786 0.950 . S
C1791 C1789 1.390 1_455 S
C1791 C1792 1.387 . S
C1791 H1794 0.950 . S
C1792 C1791 1.387 . S
C1792 C1795 1.387 1_455 S
H1793 C1789 0.950 . S
H1794 C1791 0.950 . S
C1795 C1786 1.390 . S
C1795 H1788 0.950 . S
C1795 C1792 1.387 1_655 S
C1796 C1797 1.387 1_554 S
C1796 H1800 0.950 . S
C1796 C1805 1.390 . S
C1797 C1796 1.387 1_556 S
C1797 C1799 1.387 . S
H1798 C1805 0.950 . S
C1799 C1797 1.387 . S
C1799 C1801 1.390 1_556 S
C1799 H1803 0.950 . S
H1800 C1796 0.950 . S
C1801 C1799 1.390 1_554 S
C1801 C1802 1.387 . S
C1801 H1804 0.950 1_554 S
C1802 C1801 1.387 . S
C1802 C1805 1.387 . S
H1803 C1799 0.950 . S
H1804 C1801 0.950 1_556 S
C1805 C1796 1.390 . S
C1805 H1798 0.950 . S
C1805 C1802 1.387 . S
C1806 C1807 1.387 . S
C1806 H1810 0.950 . S
C1806 C1815 1.390 . S
C1807 C1806 1.387 . S
C1807 C1809 1.387 . S
H1808 C1815 0.950 . S
C1809 C1807 1.387 . S
C1809 C1811 1.390 . S
C1809 H1813 0.950 . S
H1810 C1806 0.950 . S
C1811 C1809 1.390 . S
C1811 C1812 1.387 . S
C1811 H1814 0.947 1_556 S
C1812 C1811 1.387 . S
C1812 C1815 1.387 . S
H1813 C1809 0.950 . S
H1814 C1811 0.947 1_554 S
C1815 C1806 1.390 . S
C1815 H1808 0.950 . S
C1815 C1812 1.387 . S
C1816 C1817 1.387 1_565 S
C1816 H1820 0.950 1_565 S
C1816 C1825 1.390 . S
C1817 C1816 1.387 1_545 S
C1817 C1819 1.387 1_545 S
H1818 C1825 0.950 . S
C1819 C1817 1.387 1_565 S
C1819 C1821 1.390 . S
C1819 H1823 0.950 . S
H1820 C1816 0.950 1_545 S
C1821 C1819 1.390 . S
C1821 C1822 1.387 . S
C1821 H1824 0.950 . S
C1822 C1821 1.387 . S
C1822 C1825 1.387 . S
H1823 C1819 0.950 . S
H1824 C1821 0.950 . S
C1825 C1816 1.390 . S
C1825 H1818 0.950 . S
C1825 C1822 1.387 . S
C1826 C1827 1.387 . S
C1826 H1830 0.950 . S
C1826 C1835 1.390 1_655 S
C1827 C1826 1.387 . S
C1827 C1829 1.387 . S
H1828 C1835 0.950 . S
C1829 C1827 1.387 . S
C1829 C1831 1.390 1_655 S
C1829 H1833 0.950 . S
H1830 C1826 0.950 . S
C1831 C1829 1.390 1_455 S
C1831 C1832 1.387 . S
C1831 H1834 0.950 . S
C1832 C1831 1.387 . S
C1832 C1835 1.387 . S
H1833 C1829 0.950 . S
H1834 C1831 0.950 . S
C1835 C1826 1.390 1_455 S
C1835 H1828 0.950 . S
C1835 C1832 1.387 . S
C1836 C1837 1.387 . S
C1836 H1840 0.950 . S
C1836 C1845 1.399 . S
C1837 C1836 1.387 . S
C1837 C1839 1.387 . S
H1838 C1845 0.942 1_554 S
C1839 C1837 1.387 . S
C1839 C1841 1.390 . S
C1839 H1843 0.950 . S
H1840 C1836 0.950 . S
C1841 C1839 1.390 . S
C1841 C1842 1.387 1_556 S
C1841 H1844 0.950 . S
C1842 C1841 1.387 1_554 S
C1842 C1845 1.387 1_554 S
H1843 C1839 0.950 . S
H1844 C1841 0.950 . S
C1845 C1836 1.399 . S
C1845 H1838 0.942 1_556 S
C1845 C1842 1.387 1_556 S
C1846 C1847 1.387 . S
C1846 H1850 0.950 . S
C1846 C1855 1.390 . S
C1847 C1846 1.387 . S
C1847 C1849 1.387 . S
H1848 C1855 0.950 . S
C1849 C1847 1.387 . S
C1849 C1851 1.390 . S
C1849 H1853 0.950 . S
H1850 C1846 0.950 . S
C1851 C1849 1.390 . S
C1851 C1852 1.387 . S
C1851 H1854 0.950 . S
C1852 C1851 1.387 . S
C1852 C1855 1.387 . S
H1853 C1849 0.950 . S
H1854 C1851 0.950 . S
C1855 C1846 1.390 . S
C1855 H1848 0.950 . S
C1855 C1852 1.387 . S
C1856 C1857 1.387 . S
C1856 H1860 0.950 . S
C1856 C1865 1.390 . S
C1857 C1856 1.387 . S
C1857 C1859 1.387 . S
H1858 C1865 0.950 . S
C1859 C1857 1.387 . S
C1859 C1861 1.390 . S
C1859 H1863 0.950 . S
H1860 C1856 0.950 . S
C1861 C1859 1.390 . S
C1861 C1862 1.387 . S
C1861 H1864 0.950 . S
C1862 C1861 1.387 . S
C1862 C1865 1.387 . S
H1863 C1859 0.950 . S
H1864 C1861 0.950 . S
C1865 C1856 1.390 . S
C1865 H1858 0.950 . S
C1865 C1862 1.387 . S
C1866 C1867 1.387 . S
C1866 H1870 0.950 . S
C1866 C1875 1.390 . S
C1867 C1866 1.387 . S
C1867 C1869 1.387 . S
H1868 C1875 0.950 . S
C1869 C1867 1.387 . S
C1869 C1871 1.390 . S
C1869 H1873 0.950 . S
H1870 C1866 0.950 . S
C1871 C1869 1.390 . S
C1871 C1872 1.387 . S
C1871 H1874 0.950 . S
C1872 C1871 1.387 . S
C1872 C1875 1.387 . S
H1873 C1869 0.950 . S
H1874 C1871 0.950 . S
C1875 C1866 1.390 . S
C1875 H1868 0.950 . S
C1875 C1872 1.387 . S
C1876 C1877 1.387 . S
C1876 H1880 0.950 . S
C1876 C1885 1.390 . S
C1877 C1876 1.387 . S
C1877 C1879 1.387 . S
H1878 C1885 0.950 . S
C1879 C1877 1.387 . S
C1879 C1881 1.390 . S
C1879 H1883 0.950 . S
H1880 C1876 0.950 . S
C1881 C1879 1.390 . S
C1881 C1882 1.387 . S
C1881 H1884 0.950 . S
C1882 C1881 1.387 . S
C1882 C1885 1.387 . S
H1883 C1879 0.950 . S
H1884 C1881 0.950 . S
C1885 C1876 1.390 . S
C1885 H1878 0.950 . S
C1885 C1882 1.387 . S
C1886 C1887 1.387 . S
C1886 H1890 0.950 . S
C1886 C1895 1.390 . S
C1887 C1886 1.387 . S
C1887 C1889 1.387 . S
H1888 C1895 0.950 . S
C1889 C1887 1.387 . S
C1889 C1891 1.390 1_554 S
C1889 H1893 0.950 . S
H1890 C1886 0.950 . S
C1891 C1889 1.390 1_556 S
C1891 C1892 1.387 . S
C1891 H1894 0.950 . S
C1892 C1891 1.387 . S
C1892 C1895 1.387 1_556 S
H1893 C1889 0.950 . S
H1894 C1891 0.950 . S
C1895 C1886 1.390 . S
C1895 H1888 0.950 . S
C1895 C1892 1.387 1_554 S
C1896 C1897 1.387 . S
C1896 H1900 0.950 . S
C1896 C1905 1.390 . S
C1897 C1896 1.387 . S
C1897 C1899 1.387 . S
H1898 C1905 0.950 . S
C1899 C1897 1.387 . S
C1899 C1901 1.390 . S
C1899 H1903 0.950 . S
H1900 C1896 0.950 . S
C1901 C1899 1.390 . S
C1901 C1902 1.387 . S
C1901 H1904 0.950 . S
C1902 C1901 1.387 . S
C1902 C1905 1.387 . S
H1903 C1899 0.950 . S
H1904 C1901 0.950 . S
C1905 C1896 1.390 . S
C1905 H1898 0.950 . S
C1905 C1902 1.387 . S
C1906 C1907 1.387 . S
C1906 H1910 0.950 . S
C1906 C1915 1.390 . S
C1907 C1906 1.387 . S
C1907 C1909 1.387 . S
H1908 C1915 0.950 . S
C1909 C1907 1.387 . S
C1909 C1911 1.390 . S
C1909 H1913 0.950 . S
H1910 C1906 0.950 . S
C1911 C1909 1.390 . S
C1911 C1912 1.387 . S
C1911 H1914 0.950 . S
C1912 C1911 1.387 . S
C1912 C1915 1.387 . S
H1913 C1909 0.950 . S
H1914 C1911 0.950 . S
C1915 C1906 1.390 . S
C1915 H1908 0.950 . S
C1915 C1912 1.387 . S
C1916 C1917 1.387 . S
C1916 H1920 0.950 . S
C1916 C1925 1.390 . S
C1917 C1916 1.387 . S
C1917 C1919 1.387 . S
H1918 C1925 0.950 . S
C1919 C1917 1.387 . S
C1919 C1921 1.390 . S
C1919 H1923 0.950 . S
H1920 C1916 0.950 . S
C1921 C1919 1.390 . S
C1921 C1922 1.387 . S
C1921 H1924 0.950 . S
C1922 C1921 1.387 . S
C1922 C1925 1.387 . S
H1923 C1919 0.950 . S
H1924 C1921 0.950 . S
C1925 C1916 1.390 . S
C1925 H1918 0.950 . S
C1925 C1922 1.387 . S
C1926 C1927 1.387 . S
C1926 H1930 0.950 . S
C1926 C1935 1.390 . S
C1927 C1926 1.387 . S
C1927 C1929 1.387 . S
H1928 C1935 0.950 . S
C1929 C1927 1.387 . S
C1929 C1931 1.390 . S
C1929 H1933 0.950 . S
H1930 C1926 0.950 . S
C1931 C1929 1.390 . S
C1931 C1932 1.387 . S
C1931 H1934 0.950 . S
C1932 C1931 1.387 . S
C1932 C1935 1.387 . S
H1933 C1929 0.950 . S
H1934 C1931 0.950 . S
C1935 C1926 1.390 . S
C1935 H1928 0.950 . S
C1935 C1932 1.387 . S
C1936 C1937 1.387 . S
C1936 H1940 0.950 . S
C1936 C1945 1.390 . S
C1937 C1936 1.387 . S
C1937 C1939 1.387 . S
H1938 C1945 0.950 . S
C1939 C1937 1.387 . S
C1939 C1941 1.390 . S
C1939 H1943 0.950 . S
H1940 C1936 0.950 . S
C1941 C1939 1.390 . S
C1941 C1942 1.387 . S
C1941 H1944 0.950 . S
C1942 C1941 1.387 . S
C1942 C1945 1.387 . S
H1943 C1939 0.950 . S
H1944 C1941 0.950 . S
C1945 C1936 1.390 . S
C1945 H1938 0.950 . S
C1945 C1942 1.387 . S
C1946 C1947 1.387 . S
C1946 H1950 0.950 . S
C1946 C1955 1.390 1_455 S
C1947 C1946 1.387 . S
C1947 C1949 1.387 . S
H1948 C1955 0.950 . S
C1949 C1947 1.387 . S
C1949 C1951 1.390 1_455 S
C1949 H1953 0.950 . S
H1950 C1946 0.950 . S
C1951 C1949 1.390 1_655 S
C1951 C1952 1.387 . S
C1951 H1954 0.950 . S
C1952 C1951 1.387 . S
C1952 C1955 1.387 . S
H1953 C1949 0.950 . S
H1954 C1951 0.950 . S
C1955 C1946 1.390 1_655 S
C1955 H1948 0.950 . S
C1955 C1952 1.387 . S
C1956 C1957 1.387 1_455 S
C1956 H1960 0.950 . S
C1956 C1965 1.390 . S
C1957 C1956 1.387 1_655 S
C1957 C1959 1.387 . S
H1958 C1965 0.950 . S
C1959 C1957 1.387 . S
C1959 C1961 1.390 1_655 S
C1959 H1963 0.950 . S
H1960 C1956 0.950 . S
C1961 C1959 1.390 1_455 S
C1961 C1962 1.387 . S
C1961 H1964 0.950 . S
C1962 C1961 1.387 . S
C1962 C1965 1.387 . S
H1963 C1959 0.950 . S
H1964 C1961 0.950 . S
C1965 C1956 1.390 . S
C1965 H1958 0.950 . S
C1965 C1962 1.387 . S
C1966 C1967 1.387 . S
C1966 H1970 0.950 . S
C1966 C1975 1.390 . S
C1967 C1966 1.387 . S
C1967 C1969 1.387 . S
H1968 C1975 0.950 . S
C1969 C1967 1.387 . S
C1969 C1971 1.390 . S
C1969 H1973 0.950 . S
H1970 C1966 0.950 . S
C1971 C1969 1.390 . S
C1971 C1972 1.387 . S
C1971 H1974 0.950 . S
C1972 C1971 1.387 . S
C1972 C1975 1.387 . S
H1973 C1969 0.950 . S
H1974 C1971 0.950 . S
C1975 C1966 1.390 . S
C1975 H1968 0.950 . S
C1975 C1972 1.387 . S
C1976 C1977 1.387 . S
C1976 H1980 0.950 . S
C1976 C1985 1.390 . S
C1977 C1976 1.387 . S
C1977 C1979 1.387 . S
H1978 C1985 0.950 . S
C1979 C1977 1.387 . S
C1979 C1981 1.390 . S
C1979 H1983 0.950 . S
H1980 C1976 0.950 . S
C1981 C1979 1.390 . S
C1981 C1982 1.387 . S
C1981 H1984 0.950 . S
C1982 C1981 1.387 . S
C1982 C1985 1.387 . S
H1983 C1979 0.950 . S
H1984 C1981 0.950 . S
C1985 C1976 1.390 . S
C1985 H1978 0.950 . S
C1985 C1982 1.387 . S
C1986 C1987 1.387 . S
C1986 H1990 0.950 . S
C1986 C1995 1.390 . S
C1987 C1986 1.387 . S
C1987 C1989 1.387 . S
H1988 C1995 0.950 . S
C1989 C1987 1.387 . S
C1989 C1991 1.390 . S
C1989 H1993 0.950 . S
H1990 C1986 0.950 . S
C1991 C1989 1.390 . S
C1991 C1992 1.387 . S
C1991 H1994 0.950 . S
C1992 C1991 1.387 . S
C1992 C1995 1.387 . S
H1993 C1989 0.950 . S
H1994 C1991 0.950 . S
C1995 C1986 1.390 . S
C1995 H1988 0.950 . S
C1995 C1992 1.387 . S
C1996 C1997 1.387 . S
C1996 H2000 0.950 . S
C1996 C2005 1.390 . S
C1997 C1996 1.387 . S
C1997 C1999 1.387 . S
H1998 C2005 0.950 . S
C1999 C1997 1.387 . S
C1999 C2001 1.390 . S
C1999 H2003 0.950 . S
H2000 C1996 0.950 . S
C2001 C1999 1.390 . S
C2001 C2002 1.387 . S
C2001 H2004 0.950 . S
C2002 C2001 1.387 . S
C2002 C2005 1.387 . S
H2003 C1999 0.950 . S
H2004 C2001 0.950 . S
C2005 C1996 1.390 . S
C2005 H1998 0.950 . S
C2005 C2002 1.387 . S
C2006 C2007 1.387 1_655 S
C2006 H2010 0.950 . S
C2006 C2015 1.390 . S
C2007 C2006 1.387 1_455 S
C2007 C2009 1.387 1_556 S
H2008 C2015 0.950 . S
C2009 C2007 1.387 1_554 S
C2009 C2011 1.390 1_455 S
C2009 H2013 0.950 . S
H2010 C2006 0.950 . S
C2011 C2009 1.390 1_655 S
C2011 C2012 1.387 . S
C2011 H2014 0.950 . S
C2012 C2011 1.387 . S
C2012 C2015 1.387 1_554 S
H2013 C2009 0.950 . S
H2014 C2011 0.950 . S
C2015 C2006 1.390 . S
C2015 H2008 0.950 . S
C2015 C2012 1.387 1_556 S
C2016 C2017 1.387 . S
C2016 H2020 0.950 . S
C2016 C2025 1.390 . S
C2017 C2016 1.387 . S
C2017 C2019 1.387 . S
H2018 C2025 0.950 . S
C2019 C2017 1.387 . S
C2019 C2021 1.390 . S
C2019 H2023 0.950 . S
H2020 C2016 0.950 . S
C2021 C2019 1.390 . S
C2021 C2022 1.387 . S
C2021 H2024 0.950 . S
C2022 C2021 1.387 . S
C2022 C2025 1.387 . S
H2023 C2019 0.950 . S
H2024 C2021 0.950 . S
C2025 C2016 1.390 . S
C2025 H2018 0.950 . S
C2025 C2022 1.387 . S
C2026 C2027 1.387 . S
C2026 H2030 0.950 . S
C2026 C2035 1.390 . S
C2027 C2026 1.387 . S
C2027 C2029 1.387 . S
H2028 C2035 0.950 . S
C2029 C2027 1.387 . S
C2029 C2031 1.390 . S
C2029 H2033 0.950 . S
H2030 C2026 0.950 . S
C2031 C2029 1.390 . S
C2031 C2032 1.387 . S
C2031 H2034 0.950 . S
C2032 C2031 1.387 . S
C2032 C2035 1.387 . S
H2033 C2029 0.950 . S
H2034 C2031 0.950 . S
C2035 C2026 1.390 . S
C2035 H2028 0.950 . S
C2035 C2032 1.387 . S
C2036 C2037 1.387 1_565 S
C2036 H2040 0.950 . S
C2036 C2045 1.390 . S
C2037 C2036 1.387 1_545 S
C2037 C2039 1.387 1_545 S
H2038 C2045 0.950 . S
C2039 C2037 1.387 1_565 S
C2039 C2041 1.390 . S
C2039 H2043 0.950 1_565 S
H2040 C2036 0.950 . S
C2041 C2039 1.390 . S
C2041 C2042 1.387 . S
C2041 H2044 0.950 . S
C2042 C2041 1.387 . S
C2042 C2045 1.387 . S
H2043 C2039 0.950 1_545 S
H2044 C2041 0.950 . S
C2045 C2036 1.390 . S
C2045 H2038 0.950 . S
C2045 C2042 1.387 . S
C2046 C2047 1.387 . S
C2046 H2050 0.950 . S
C2046 C2055 1.390 . S
C2047 C2046 1.387 . S
C2047 C2049 1.387 . S
H2048 C2055 0.950 . S
C2049 C2047 1.387 . S
C2049 C2051 1.390 . S
C2049 H2053 0.950 . S
H2050 C2046 0.950 . S
C2051 C2049 1.390 . S
C2051 C2052 1.387 . S
C2051 H2054 0.950 . S
C2052 C2051 1.387 . S
C2052 C2055 1.387 . S
H2053 C2049 0.950 . S
H2054 C2051 0.950 . S
C2055 C2046 1.390 . S
C2055 H2048 0.950 . S
C2055 C2052 1.387 . S
C2056 C2057 1.387 . S
C2056 H2060 0.950 . S
C2056 C2065 1.390 . S
C2057 C2056 1.387 . S
C2057 C2059 1.387 . S
H2058 C2065 0.950 . S
C2059 C2057 1.387 . S
C2059 C2061 1.390 1_554 S
C2059 H2063 0.950 . S
H2060 C2056 0.950 . S
C2061 C2059 1.390 1_556 S
C2061 C2062 1.387 . S
C2061 H2064 0.950 . S
C2062 C2061 1.387 . S
C2062 C2065 1.387 1_556 S
H2063 C2059 0.950 . S
H2064 C2061 0.950 . S
C2065 C2056 1.390 . S
C2065 H2058 0.950 . S
C2065 C2062 1.387 1_554 S
C2066 C2067 1.387 . S
C2066 H2070 0.950 . S
C2066 C2075 1.390 . S
C2067 C2066 1.387 . S
C2067 C2069 1.387 . S
H2068 C2075 0.950 . S
C2069 C2067 1.387 . S
C2069 C2071 1.390 . S
C2069 H2073 0.950 . S
H2070 C2066 0.950 . S
C2071 C2069 1.390 . S
C2071 C2072 1.387 . S
C2071 H2074 0.950 . S
C2072 C2071 1.387 . S
C2072 C2075 1.387 . S
H2073 C2069 0.950 . S
H2074 C2071 0.950 . S
C2075 C2066 1.390 . S
C2075 H2068 0.950 . S
C2075 C2072 1.387 . S
C2076 C2077 1.387 . S
C2076 H2080 0.950 . S
C2076 C2085 1.390 1_545 S
C2077 C2076 1.387 . S
C2077 C2079 1.387 . S
H2078 C2085 0.950 . S
C2079 C2077 1.387 . S
C2079 C2081 1.390 . S
C2079 H2083 0.950 . S
H2080 C2076 0.950 . S
C2081 C2079 1.390 . S
C2081 C2082 1.387 1_545 S
C2081 H2084 0.950 1_655 S
C2082 C2081 1.387 1_565 S
C2082 C2085 1.387 . S
H2083 C2079 0.950 . S
H2084 C2081 0.950 1_455 S
C2085 C2076 1.390 1_565 S
C2085 H2078 0.950 . S
C2085 C2082 1.387 . S
C2086 C2087 1.387 . S
C2086 H2090 0.950 . S
C2086 C2095 1.390 . S
C2087 C2086 1.387 . S
C2087 C2089 1.387 . S
H2088 C2095 0.950 . S
C2089 C2087 1.387 . S
C2089 C2091 1.390 . S
C2089 H2093 0.950 . S
H2090 C2086 0.950 . S
C2091 C2089 1.390 . S
C2091 C2092 1.387 . S
C2091 H2094 0.950 . S
C2092 C2091 1.387 . S
C2092 C2095 1.387 . S
H2093 C2089 0.950 . S
H2094 C2091 0.950 . S
C2095 C2086 1.390 . S
C2095 H2088 0.950 . S
C2095 C2092 1.387 . S
C2096 C2097 1.387 . S
C2096 H2100 0.950 . S
C2096 C2105 1.390 . S
C2097 C2096 1.387 . S
C2097 C2099 1.387 . S
H2098 C2105 0.950 . S
C2099 C2097 1.387 . S
C2099 C2101 1.390 . S
C2099 H2103 0.950 . S
H2100 C2096 0.950 . S
C2101 C2099 1.390 . S
C2101 C2102 1.387 . S
C2101 H2104 0.950 . S
C2102 C2101 1.387 . S
C2102 C2105 1.387 . S
H2103 C2099 0.950 . S
H2104 C2101 0.950 . S
C2105 C2096 1.390 . S
C2105 H2098 0.950 . S
C2105 C2102 1.387 . S
C2106 C2107 1.387 1_565 S
C2106 H2110 0.950 . S
C2106 C2115 1.390 . S
C2107 C2106 1.387 1_545 S
C2107 C2109 1.387 . S
H2108 C2115 0.950 . S
C2109 C2107 1.387 . S
C2109 C2111 1.390 1_545 S
C2109 H2113 0.950 . S
H2110 C2106 0.950 . S
C2111 C2109 1.390 1_565 S
C2111 C2112 1.387 . S
C2111 H2114 0.950 . S
C2112 C2111 1.387 . S
C2112 C2115 1.387 . S
H2113 C2109 0.950 . S
H2114 C2111 0.950 . S
C2115 C2106 1.390 . S
C2115 H2108 0.950 . S
C2115 C2112 1.387 . S
C2116 C2117 1.387 . S
C2116 H2120 0.950 . S
C2116 C2125 1.390 . S
C2117 C2116 1.387 . S
C2117 C2119 1.387 . S
H2118 C2125 0.950 . S
C2119 C2117 1.387 . S
C2119 C2121 1.390 . S
C2119 H2123 0.950 . S
H2120 C2116 0.950 . S
C2121 C2119 1.390 . S
C2121 C2122 1.387 . S
C2121 H2124 0.950 . S
C2122 C2121 1.387 . S
C2122 C2125 1.387 . S
H2123 C2119 0.950 . S
H2124 C2121 0.950 . S
C2125 C2116 1.390 . S
C2125 H2118 0.950 . S
C2125 C2122 1.387 . S
C2126 C2127 1.387 . S
C2126 H2130 0.950 . S
C2126 C2135 1.390 1_455 S
C2127 C2126 1.387 . S
C2127 C2129 1.387 . S
H2128 C2135 0.950 . S
C2129 C2127 1.387 . S
C2129 C2131 1.390 1_455 S
C2129 H2133 0.950 . S
H2130 C2126 0.950 . S
C2131 C2129 1.390 1_655 S
C2131 C2132 1.387 . S
C2131 H2134 0.950 . S
C2132 C2131 1.387 . S
C2132 C2135 1.387 . S
H2133 C2129 0.950 . S
H2134 C2131 0.950 . S
C2135 C2126 1.390 1_655 S
C2135 H2128 0.950 . S
C2135 C2132 1.387 . S
C2136 C2137 1.387 . S
C2136 H2140 0.950 . S
C2136 C2145 1.390 . S
C2137 C2136 1.387 . S
C2137 C2139 1.387 . S
H2138 C2145 0.956 . S
C2139 C2137 1.387 . S
C2139 C2141 1.390 1_655 S
C2139 H2143 0.950 . S
H2140 C2136 0.950 . S
C2141 C2139 1.390 1_455 S
C2141 C2142 1.387 . S
C2141 H2144 0.950 . S
C2142 C2141 1.387 . S
C2142 C2145 1.387 1_455 S
H2143 C2139 0.950 . S
H2144 C2141 0.950 . S
C2145 C2136 1.390 . S
C2145 H2138 0.956 . S
C2145 C2142 1.387 1_655 S
C2146 C2147 1.387 . S
C2146 H2150 0.950 . S
C2146 C2155 1.390 . S
C2147 C2146 1.387 . S
C2147 C2149 1.387 . S
H2148 C2155 0.950 . S
C2149 C2147 1.387 . S
C2149 C2151 1.390 . S
C2149 H2153 0.950 . S
H2150 C2146 0.950 . S
C2151 C2149 1.390 . S
C2151 C2152 1.387 . S
C2151 H2154 0.950 . S
C2152 C2151 1.387 . S
C2152 C2155 1.387 . S
H2153 C2149 0.950 . S
H2154 C2151 0.950 . S
C2155 C2146 1.390 . S
C2155 H2148 0.950 . S
C2155 C2152 1.387 . S
C2156 C2157 1.387 . S
C2156 H2160 0.950 . S
C2156 C2165 1.390 . S
C2157 C2156 1.387 . S
C2157 C2159 1.387 . S
H2158 C2165 0.950 . S
C2159 C2157 1.387 . S
C2159 C2161 1.390 . S
C2159 H2163 0.950 . S
H2160 C2156 0.950 . S
C2161 C2159 1.390 . S
C2161 C2162 1.387 . S
C2161 H2164 0.950 . S
C2162 C2161 1.387 . S
C2162 C2165 1.387 . S
H2163 C2159 0.950 . S
H2164 C2161 0.950 . S
C2165 C2156 1.390 . S
C2165 H2158 0.950 . S
C2165 C2162 1.387 . S
C2166 C2167 1.387 . S
C2166 H2170 0.950 . S
C2166 C2175 1.390 1_655 S
C2167 C2166 1.387 . S
C2167 C2169 1.387 . S
H2168 C2175 0.950 1_556 S
C2169 C2167 1.387 . S
C2169 C2171 1.390 1_655 S
C2169 H2173 0.950 . S
H2170 C2166 0.950 . S
C2171 C2169 1.390 1_455 S
C2171 C2172 1.387 1_554 S
C2171 H2174 0.950 . S
C2172 C2171 1.387 1_556 S
C2172 C2175 1.387 1_556 S
H2173 C2169 0.950 . S
H2174 C2171 0.950 . S
C2175 C2166 1.390 1_455 S
C2175 H2168 0.950 1_554 S
C2175 C2172 1.387 1_554 S
C2176 C2177 1.387 . S
C2176 H2180 0.950 . S
C2176 C2185 1.390 . S
C2177 C2176 1.387 . S
C2177 C2179 1.387 . S
H2178 C2185 0.950 . S
C2179 C2177 1.387 . S
C2179 C2181 1.390 . S
C2179 H2183 0.950 . S
H2180 C2176 0.950 . S
C2181 C2179 1.390 . S
C2181 C2182 1.387 . S
C2181 H2184 0.950 . S
C2182 C2181 1.387 . S
C2182 C2185 1.387 . S
H2183 C2179 0.950 . S
H2184 C2181 0.950 . S
C2185 C2176 1.390 . S
C2185 H2178 0.950 . S
C2185 C2182 1.387 . S
C2186 C2187 1.387 . S
C2186 H2190 0.950 . S
C2186 C2195 1.390 . S
C2187 C2186 1.387 . S
C2187 C2189 1.387 . S
H2188 C2195 0.933 1_565 S
C2189 C2187 1.387 . S
C2189 C2191 1.390 . S
C2189 H2193 0.950 . S
H2190 C2186 0.950 . S
C2191 C2189 1.390 . S
C2191 C2192 1.387 1_545 S
C2191 H2194 0.953 . S
C2192 C2191 1.387 1_565 S
C2192 C2195 1.387 1_565 S
H2193 C2189 0.950 . S
H2194 C2191 0.953 . S
C2195 C2186 1.390 . S
C2195 H2188 0.933 1_545 S
C2195 C2192 1.387 1_545 S
C2196 C2197 1.387 . S
C2196 H2200 0.950 . S
C2196 C2205 1.390 . S
C2197 C2196 1.387 . S
C2197 C2199 1.387 . S
H2198 C2205 0.950 . S
C2199 C2197 1.387 . S
C2199 C2201 1.390 . S
C2199 H2203 0.950 . S
H2200 C2196 0.950 . S
C2201 C2199 1.390 . S
C2201 C2202 1.387 . S
C2201 H2204 0.950 . S
C2202 C2201 1.387 . S
C2202 C2205 1.387 . S
H2203 C2199 0.950 . S
H2204 C2201 0.950 . S
C2205 C2196 1.390 . S
C2205 H2198 0.950 . S
C2205 C2202 1.387 . S
C2206 C2207 1.387 . S
C2206 H2210 0.950 . S
C2206 C2215 1.390 . S
C2207 C2206 1.387 . S
C2207 C2209 1.387 . S
H2208 C2215 0.950 . S
C2209 C2207 1.387 . S
C2209 C2211 1.390 1_556 S
C2209 H2213 0.950 . S
H2210 C2206 0.950 . S
C2211 C2209 1.390 1_554 S
C2211 C2212 1.387 . S
C2211 H2214 0.950 . S
C2212 C2211 1.387 . S
C2212 C2215 1.387 1_554 S
H2213 C2209 0.950 . S
H2214 C2211 0.950 . S
C2215 C2206 1.390 . S
C2215 H2208 0.950 . S
C2215 C2212 1.387 1_556 S
C2216 C2217 1.387 . S
C2216 H2220 0.950 . S
C2216 C2225 1.390 1_545 S
C2217 C2216 1.387 . S
C2217 C2219 1.387 1_545 S
H2218 C2225 0.950 . S
C2219 C2217 1.387 1_565 S
C2219 C2221 1.390 . S
C2219 H2223 0.950 . S
H2220 C2216 0.950 . S
C2221 C2219 1.390 . S
C2221 C2222 1.387 . S
C2221 H2224 0.950 . S
C2222 C2221 1.387 . S
C2222 C2225 1.387 . S
H2223 C2219 0.950 . S
H2224 C2221 0.950 . S
C2225 C2216 1.390 1_565 S
C2225 H2218 0.950 . S
C2225 C2222 1.387 . S
C2226 C2227 1.387 . S
C2226 H2230 0.950 . S
C2226 C2235 1.390 . S
C2227 C2226 1.387 . S
C2227 C2229 1.387 . S
H2228 C2235 0.950 . S
C2229 C2227 1.387 . S
C2229 C2231 1.390 . S
C2229 H2233 0.950 . S
H2230 C2226 0.950 . S
C2231 C2229 1.390 . S
C2231 C2232 1.387 . S
C2231 H2234 0.950 . S
C2232 C2231 1.387 . S
C2232 C2235 1.387 . S
H2233 C2229 0.950 . S
H2234 C2231 0.950 . S
C2235 C2226 1.390 . S
C2235 H2228 0.950 . S
C2235 C2232 1.387 . S
C2236 C2237 1.387 1_545 S
C2236 H2240 0.943 1_545 S
C2236 C2245 1.390 . S
C2237 C2236 1.387 1_565 S
C2237 C2239 1.387 . S
H2238 C2245 0.950 . S
C2239 C2237 1.387 . S
C2239 C2241 1.390 1_565 S
C2239 H2243 0.950 . S
H2240 C2236 0.943 1_565 S
C2241 C2239 1.390 1_545 S
C2241 C2242 1.387 . S
C2241 H2244 0.950 . S
C2242 C2241 1.387 . S
C2242 C2245 1.387 . S
H2243 C2239 0.950 . S
H2244 C2241 0.950 . S
C2245 C2236 1.390 . S
C2245 H2238 0.950 . S
C2245 C2242 1.387 . S
C2246 C2247 1.387 . S
C2246 H2250 0.950 . S
C2246 C2255 1.390 1_455 S
C2247 C2246 1.387 . S
C2247 C2249 1.387 . S
H2248 C2255 0.950 . S
C2249 C2247 1.387 . S
C2249 C2251 1.390 1_455 S
C2249 H2253 0.950 . S
H2250 C2246 0.950 . S
C2251 C2249 1.390 1_655 S
C2251 C2252 1.387 . S
C2251 H2254 0.950 . S
C2252 C2251 1.387 . S
C2252 C2255 1.387 . S
H2253 C2249 0.950 . S
H2254 C2251 0.950 . S
C2255 C2246 1.390 1_655 S
C2255 H2248 0.950 . S
C2255 C2252 1.387 . S
C2256 C2257 1.387 . S
C2256 H2260 0.950 . S
C2256 C2265 1.390 . S
C2257 C2256 1.387 . S
C2257 C2259 1.387 1_545 S
H2258 C2265 0.950 . S
C2259 C2257 1.387 1_565 S
C2259 C2261 1.390 1_554 S
C2259 H2263 0.950 . S
H2260 C2256 0.950 . S
C2261 C2259 1.390 1_556 S
C2261 C2262 1.387 1_565 S
C2261 H2264 0.950 . S
C2262 C2261 1.387 1_545 S
C2262 C2265 1.387 1_556 S
H2263 C2259 0.950 . S
H2264 C2261 0.950 . S
C2265 C2256 1.390 . S
C2265 H2258 0.950 . S
C2265 C2262 1.387 1_554 S
C2266 C2267 1.387 . S
C2266 H2270 0.950 . S
C2266 C2275 1.390 . S
C2267 C2266 1.387 . S
C2267 C2269 1.387 . S
H2268 C2275 0.950 . S
C2269 C2267 1.387 . S
C2269 C2271 1.390 . S
C2269 H2273 0.950 . S
H2270 C2266 0.950 . S
C2271 C2269 1.390 . S
C2271 C2272 1.387 . S
C2271 H2274 0.950 . S
C2272 C2271 1.387 . S
C2272 C2275 1.387 . S
H2273 C2269 0.950 . S
H2274 C2271 0.950 . S
C2275 C2266 1.390 . S
C2275 H2268 0.950 . S
C2275 C2272 1.387 . S
C2276 C2277 1.387 . S
C2276 H2280 0.950 . S
C2276 C2285 1.390 . S
C2277 C2276 1.387 . S
C2277 C2279 1.387 . S
H2278 C2285 0.950 . S
C2279 C2277 1.387 . S
C2279 C2281 1.390 . S
C2279 H2283 0.950 . S
H2280 C2276 0.950 . S
C2281 C2279 1.390 . S
C2281 C2282 1.387 . S
C2281 H2284 0.950 . S
C2282 C2281 1.387 . S
C2282 C2285 1.387 . S
H2283 C2279 0.950 . S
H2284 C2281 0.950 . S
C2285 C2276 1.390 . S
C2285 H2278 0.950 . S
C2285 C2282 1.387 . S
C2286 C2287 1.387 . S
C2286 H2290 0.950 . S
C2286 C2295 1.390 . S
C2287 C2286 1.387 . S
C2287 C2289 1.387 . S
H2288 C2295 0.950 . S
C2289 C2287 1.387 . S
C2289 C2291 1.390 . S
C2289 H2293 0.950 . S
H2290 C2286 0.950 . S
C2291 C2289 1.390 . S
C2291 C2292 1.387 . S
C2291 H2294 0.950 . S
C2292 C2291 1.387 . S
C2292 C2295 1.387 . S
H2293 C2289 0.950 . S
H2294 C2291 0.950 . S
C2295 C2286 1.390 . S
C2295 H2288 0.950 . S
C2295 C2292 1.387 . S
C2296 C2297 1.387 . S
C2296 H2300 0.950 . S
C2296 C2305 1.390 . S
C2297 C2296 1.387 . S
C2297 C2299 1.387 . S
H2298 C2305 0.950 . S
C2299 C2297 1.387 . S
C2299 C2301 1.390 . S
C2299 H2303 0.950 . S
H2300 C2296 0.950 . S
C2301 C2299 1.390 . S
C2301 C2302 1.387 . S
C2301 H2304 0.950 . S
C2302 C2301 1.387 . S
C2302 C2305 1.387 . S
H2303 C2299 0.950 . S
H2304 C2301 0.950 . S
C2305 C2296 1.390 . S
C2305 H2298 0.950 . S
C2305 C2302 1.387 . S
C2306 C2307 1.387 . S
C2306 H2310 0.950 . S
C2306 C2315 1.390 . S
C2307 C2306 1.387 . S
C2307 C2309 1.387 . S
H2308 C2315 0.950 . S
C2309 C2307 1.387 . S
C2309 C2311 1.390 . S
C2309 H2313 0.950 . S
H2310 C2306 0.950 . S
C2311 C2309 1.390 . S
C2311 C2312 1.387 . S
C2311 H2314 0.950 1_556 S
C2312 C2311 1.387 . S
C2312 C2315 1.387 . S
H2313 C2309 0.950 . S
H2314 C2311 0.950 1_554 S
C2315 C2306 1.390 . S
C2315 H2308 0.950 . S
C2315 C2312 1.387 . S
C2316 C2317 1.387 . S
C2316 H2320 0.950 . S
C2316 C2325 1.390 . S
C2317 C2316 1.387 . S
C2317 C2319 1.387 . S
H2318 C2325 0.950 . S
C2319 C2317 1.387 . S
C2319 C2321 1.390 . S
C2319 H2323 0.950 . S
H2320 C2316 0.950 . S
C2321 C2319 1.390 . S
C2321 C2322 1.387 . S
C2321 H2324 0.950 . S
C2322 C2321 1.387 . S
C2322 C2325 1.387 . S
H2323 C2319 0.950 . S
H2324 C2321 0.950 . S
C2325 C2316 1.390 . S
C2325 H2318 0.950 . S
C2325 C2322 1.387 . S
C2326 C2327 1.387 . S
C2326 H2330 0.950 . S
C2326 C2335 1.390 . S
C2327 C2326 1.387 . S
C2327 C2329 1.387 . S
H2328 C2335 0.950 . S
C2329 C2327 1.387 . S
C2329 C2331 1.390 . S
C2329 H2333 0.950 . S
H2330 C2326 0.950 . S
C2331 C2329 1.390 . S
C2331 C2332 1.387 . S
C2331 H2334 0.950 . S
C2332 C2331 1.387 . S
C2332 C2335 1.387 . S
H2333 C2329 0.950 . S
H2334 C2331 0.950 . S
C2335 C2326 1.390 . S
C2335 H2328 0.950 . S
C2335 C2332 1.387 . S
C2336 C2337 1.387 . S
C2336 H2340 0.950 . S
C2336 C2345 1.390 . S
C2337 C2336 1.387 . S
C2337 C2339 1.387 . S
H2338 C2345 0.950 . S
C2339 C2337 1.387 . S
C2339 C2341 1.390 . S
C2339 H2343 0.950 . S
H2340 C2336 0.950 . S
C2341 C2339 1.390 . S
C2341 C2342 1.387 . S
C2341 H2344 0.950 . S
C2342 C2341 1.387 . S
C2342 C2345 1.387 . S
H2343 C2339 0.950 . S
H2344 C2341 0.950 . S
C2345 C2336 1.390 . S
C2345 H2338 0.950 . S
C2345 C2342 1.387 . S
C2346 C2347 1.387 1_545 S
C2346 H2350 0.950 1_545 S
C2346 C2355 1.390 . S
C2347 C2346 1.387 1_565 S
C2347 C2349 1.387 . S
H2348 C2355 0.950 . S
C2349 C2347 1.387 . S
C2349 C2351 1.390 1_565 S
C2349 H2353 0.950 . S
H2350 C2346 0.950 1_565 S
C2351 C2349 1.390 1_545 S
C2351 C2352 1.387 . S
C2351 H2354 0.950 . S
C2352 C2351 1.387 . S
C2352 C2355 1.387 . S
H2353 C2349 0.950 . S
H2354 C2351 0.950 . S
C2355 C2346 1.390 . S
C2355 H2348 0.950 . S
C2355 C2352 1.387 . S
C2356 C2357 1.387 . S
C2356 H2360 0.950 . S
C2356 C2365 1.390 . S
C2357 C2356 1.387 . S
C2357 C2359 1.387 . S
H2358 C2365 0.950 . S
C2359 C2357 1.387 . S
C2359 C2361 1.390 . S
C2359 H2363 0.950 . S
H2360 C2356 0.950 . S
C2361 C2359 1.390 . S
C2361 C2362 1.387 . S
C2361 H2364 0.950 . S
C2362 C2361 1.387 . S
C2362 C2365 1.387 . S
H2363 C2359 0.950 . S
H2364 C2361 0.950 . S
C2365 C2356 1.390 . S
C2365 H2358 0.950 . S
C2365 C2362 1.387 . S
C2366 C2367 1.394 . S
C2366 H2370 0.962 . S
C2366 C2375 1.372 1_545 S
C2367 C2366 1.394 . S
C2367 C2369 1.389 1_545 S
H2368 C2375 0.950 . S
C2369 C2367 1.389 1_565 S
C2369 C2371 1.388 . S
C2369 H2373 0.951 1_565 S
H2370 C2366 0.962 . S
C2371 C2369 1.388 . S
C2371 C2372 1.387 . S
C2371 H2374 0.950 . S
C2372 C2371 1.387 . S
C2372 C2375 1.387 . S
H2373 C2369 0.951 1_545 S
H2374 C2371 0.950 . S
C2375 C2366 1.372 1_565 S
C2375 H2368 0.950 . S
C2375 C2372 1.387 . S
C2376 C2377 1.387 1_545 S
C2376 H2380 0.950 . S
C2376 C2385 1.390 1_554 S
C2377 C2376 1.387 1_565 S
C2377 C2379 1.387 . S
H2378 C2385 0.950 . S
C2379 C2377 1.387 . S
C2379 C2381 1.391 1_554 S
C2379 H2383 0.949 . S
H2380 C2376 0.950 . S
C2381 C2379 1.391 1_556 S
C2381 C2382 1.387 . S
C2381 H2384 0.950 . S
C2382 C2381 1.387 . S
C2382 C2385 1.387 1_565 S
H2383 C2379 0.949 . S
H2384 C2381 0.950 . S
C2385 C2376 1.390 1_556 S
C2385 H2378 0.950 . S
C2385 C2382 1.387 1_545 S
C2386 C2387 1.387 . S
C2386 H2390 0.950 . S
C2386 C2395 1.390 . S
C2387 C2386 1.387 . S
C2387 C2389 1.387 . S
H2388 C2395 0.950 . S
C2389 C2387 1.387 . S
C2389 C2391 1.390 . S
C2389 H2393 0.950 . S
H2390 C2386 0.950 . S
C2391 C2389 1.390 . S
C2391 C2392 1.387 . S
C2391 H2394 0.950 . S
C2392 C2391 1.387 . S
C2392 C2395 1.387 . S
H2393 C2389 0.950 . S
H2394 C2391 0.950 . S
C2395 C2386 1.390 . S
C2395 H2388 0.950 . S
C2395 C2392 1.387 . S
C2396 C2397 1.387 . S
C2396 H2400 0.950 . S
C2396 C2405 1.390 . S
C2397 C2396 1.387 . S
C2397 C2399 1.387 . S
H2398 C2405 0.952 1_556 S
C2399 C2397 1.387 . S
C2399 C2401 1.390 . S
C2399 H2403 0.950 . S
H2400 C2396 0.950 . S
C2401 C2399 1.390 . S
C2401 C2402 1.387 . S
C2401 H2404 0.950 . S
C2402 C2401 1.387 . S
C2402 C2405 1.387 . S
H2403 C2399 0.950 . S
H2404 C2401 0.950 . S
C2405 C2396 1.390 . S
C2405 H2398 0.952 1_554 S
C2405 C2402 1.387 . S
C2406 C2407 1.387 . S
C2406 H2410 0.950 . S
C2406 C2415 1.390 . S
C2407 C2406 1.387 . S
C2407 C2409 1.387 . S
H2408 C2415 0.950 . S
C2409 C2407 1.387 . S
C2409 C2411 1.390 . S
C2409 H2413 0.950 . S
H2410 C2406 0.950 . S
C2411 C2409 1.390 . S
C2411 C2412 1.387 . S
C2411 H2414 0.950 . S
C2412 C2411 1.387 . S
C2412 C2415 1.387 . S
H2413 C2409 0.950 . S
H2414 C2411 0.950 . S
C2415 C2406 1.390 . S
C2415 H2408 0.950 . S
C2415 C2412 1.387 . S
C2416 C2417 1.387 . S
C2416 H2420 0.950 . S
C2416 C2425 1.390 . S
C2417 C2416 1.387 . S
C2417 C2419 1.387 . S
H2418 C2425 0.950 . S
C2419 C2417 1.387 . S
C2419 C2421 1.390 . S
C2419 H2423 0.950 . S
H2420 C2416 0.950 . S
C2421 C2419 1.390 . S
C2421 C2422 1.387 . S
C2421 H2424 0.950 . S
C2422 C2421 1.387 . S
C2422 C2425 1.387 . S
H2423 C2419 0.950 . S
H2424 C2421 0.950 . S
C2425 C2416 1.390 . S
C2425 H2418 0.950 . S
C2425 C2422 1.387 . S
C2426 C2427 1.387 . S
C2426 H2430 0.950 . S
C2426 C2435 1.390 . S
C2427 C2426 1.387 . S
C2427 C2429 1.387 . S
H2428 C2435 0.950 . S
C2429 C2427 1.387 . S
C2429 C2431 1.390 . S
C2429 H2433 0.950 . S
H2430 C2426 0.950 . S
C2431 C2429 1.390 . S
C2431 C2432 1.387 . S
C2431 H2434 0.950 . S
C2432 C2431 1.387 . S
C2432 C2435 1.387 . S
H2433 C2429 0.950 . S
H2434 C2431 0.950 . S
C2435 C2426 1.390 . S
C2435 H2428 0.950 . S
C2435 C2432 1.387 . S
C2436 C2437 1.387 . S
C2436 H2440 0.950 . S
C2436 C2445 1.390 . S
C2437 C2436 1.387 . S
C2437 C2439 1.387 . S
H2438 C2445 0.950 . S
C2439 C2437 1.387 . S
C2439 C2441 1.390 . S
C2439 H2443 0.950 . S
H2440 C2436 0.950 . S
C2441 C2439 1.390 . S
C2441 C2442 1.387 . S
C2441 H2444 0.950 . S
C2442 C2441 1.387 . S
C2442 C2445 1.387 . S
H2443 C2439 0.950 . S
H2444 C2441 0.950 . S
C2445 C2436 1.390 . S
C2445 H2438 0.950 . S
C2445 C2442 1.387 . S
C2446 C2447 1.387 . S
C2446 H2450 0.950 . S
C2446 C2455 1.390 . S
C2447 C2446 1.387 . S
C2447 C2449 1.387 . S
H2448 C2455 0.950 . S
C2449 C2447 1.387 . S
C2449 C2451 1.390 . S
C2449 H2453 0.950 . S
H2450 C2446 0.950 . S
C2451 C2449 1.390 . S
C2451 C2452 1.387 . S
C2451 H2454 0.950 . S
C2452 C2451 1.387 . S
C2452 C2455 1.387 . S
H2453 C2449 0.950 . S
H2454 C2451 0.950 . S
C2455 C2446 1.390 . S
C2455 H2448 0.950 . S
C2455 C2452 1.387 . S
C2456 C2457 1.387 . S
C2456 H2460 0.950 . S
C2456 C2465 1.390 . S
C2457 C2456 1.387 . S
C2457 C2459 1.387 . S
H2458 C2465 0.950 . S
C2459 C2457 1.387 . S
C2459 C2461 1.390 . S
C2459 H2463 0.950 . S
H2460 C2456 0.950 . S
C2461 C2459 1.390 . S
C2461 C2462 1.387 . S
C2461 H2464 0.950 . S
C2462 C2461 1.387 . S
C2462 C2465 1.387 . S
H2463 C2459 0.950 . S
H2464 C2461 0.950 . S
C2465 C2456 1.390 . S
C2465 H2458 0.950 . S
C2465 C2462 1.387 . S
C2466 C2467 1.387 . S
C2466 H2470 0.950 . S
C2466 C2475 1.390 . S
C2467 C2466 1.387 . S
C2467 C2469 1.387 . S
H2468 C2475 0.950 . S
C2469 C2467 1.387 . S
C2469 C2471 1.390 . S
C2469 H2473 0.950 . S
H2470 C2466 0.950 . S
C2471 C2469 1.390 . S
C2471 C2472 1.387 . S
C2471 H2474 0.950 . S
C2472 C2471 1.387 . S
C2472 C2475 1.387 . S
H2473 C2469 0.950 . S
H2474 C2471 0.950 . S
C2475 C2466 1.390 . S
C2475 H2468 0.950 . S
C2475 C2472 1.387 . S
C2476 C2477 1.387 . S
C2476 H2480 0.950 . S
C2476 C2485 1.390 . S
C2477 C2476 1.387 . S
C2477 C2479 1.387 . S
H2478 C2485 0.950 . S
C2479 C2477 1.387 . S
C2479 C2481 1.390 . S
C2479 H2483 0.950 . S
H2480 C2476 0.950 . S
C2481 C2479 1.390 . S
C2481 C2482 1.387 . S
C2481 H2484 0.950 . S
C2482 C2481 1.387 . S
C2482 C2485 1.387 . S
H2483 C2479 0.950 . S
H2484 C2481 0.950 . S
C2485 C2476 1.390 . S
C2485 H2478 0.950 . S
C2485 C2482 1.387 . S
C2486 C2487 1.387 . S
C2486 H2490 0.950 . S
C2486 C2495 1.390 . S
C2487 C2486 1.387 . S
C2487 C2489 1.387 . S
H2488 C2495 0.950 . S
C2489 C2487 1.387 . S
C2489 C2491 1.390 . S
C2489 H2493 0.950 . S
H2490 C2486 0.950 . S
C2491 C2489 1.390 . S
C2491 C2492 1.387 . S
C2491 H2494 0.950 . S
C2492 C2491 1.387 . S
C2492 C2495 1.387 . S
H2493 C2489 0.950 . S
H2494 C2491 0.950 . S
C2495 C2486 1.390 . S
C2495 H2488 0.950 . S
C2495 C2492 1.387 . S
C2496 C2497 1.387 1_545 S
C2496 H2500 0.950 1_545 S
C2496 C2505 1.390 . S
C2497 C2496 1.387 1_565 S
C2497 C2499 1.387 . S
H2498 C2505 0.950 . S
C2499 C2497 1.387 . S
C2499 C2501 1.390 1_565 S
C2499 H2503 0.950 . S
H2500 C2496 0.950 1_565 S
C2501 C2499 1.390 1_545 S
C2501 C2502 1.387 . S
C2501 H2504 0.950 . S
C2502 C2501 1.387 . S
C2502 C2505 1.387 . S
H2503 C2499 0.950 . S
H2504 C2501 0.950 . S
C2505 C2496 1.390 . S
C2505 H2498 0.950 . S
C2505 C2502 1.387 . S
C2506 C2507 1.387 . S
C2506 H2510 0.950 . S
C2506 C2515 1.390 . S
C2507 C2506 1.387 . S
C2507 C2509 1.387 . S
H2508 C2515 0.950 1_655 S
C2509 C2507 1.387 . S
C2509 C2511 1.390 . S
C2509 H2513 0.950 . S
H2510 C2506 0.950 . S
C2511 C2509 1.390 . S
C2511 C2512 1.387 1_455 S
C2511 H2514 0.950 1_455 S
C2512 C2511 1.387 1_655 S
C2512 C2515 1.387 1_655 S
H2513 C2509 0.950 . S
H2514 C2511 0.950 1_655 S
C2515 C2506 1.390 . S
C2515 H2508 0.950 1_455 S
C2515 C2512 1.387 1_455 S
C2516 C2517 1.387 . S
C2516 H2520 0.950 . S
C2516 C2525 1.390 . S
C2517 C2516 1.387 . S
C2517 C2519 1.387 . S
H2518 C2525 0.950 . S
C2519 C2517 1.387 . S
C2519 C2521 1.390 . S
C2519 H2523 0.950 . S
H2520 C2516 0.950 . S
C2521 C2519 1.390 . S
C2521 C2522 1.387 . S
C2521 H2524 0.950 . S
C2522 C2521 1.387 . S
C2522 C2525 1.387 . S
H2523 C2519 0.950 . S
H2524 C2521 0.950 . S
C2525 C2516 1.390 . S
C2525 H2518 0.950 . S
C2525 C2522 1.387 . S
C2526 C2527 1.387 . S
C2526 H2530 0.950 . S
C2526 C2535 1.390 . S
C2527 C2526 1.387 . S
C2527 C2529 1.387 . S
H2528 C2535 0.950 . S
C2529 C2527 1.387 . S
C2529 C2531 1.390 . S
C2529 H2533 0.950 . S
H2530 C2526 0.950 . S
C2531 C2529 1.390 . S
C2531 C2532 1.387 . S
C2531 H2534 0.950 . S
C2532 C2531 1.387 . S
C2532 C2535 1.387 . S
H2533 C2529 0.950 . S
H2534 C2531 0.950 . S
C2535 C2526 1.390 . S
C2535 H2528 0.950 . S
C2535 C2532 1.387 . S
C2536 C2537 1.387 . S
C2536 H2540 0.950 . S
C2536 C2545 1.390 . S
C2537 C2536 1.387 . S
C2537 C2539 1.387 . S
H2538 C2545 0.950 . S
C2539 C2537 1.387 . S
C2539 C2541 1.390 . S
C2539 H2543 0.950 . S
H2540 C2536 0.950 . S
C2541 C2539 1.390 . S
C2541 C2542 1.387 . S
C2541 H2544 0.950 . S
C2542 C2541 1.387 . S
C2542 C2545 1.387 . S
H2543 C2539 0.950 . S
H2544 C2541 0.950 . S
C2545 C2536 1.390 . S
C2545 H2538 0.950 . S
C2545 C2542 1.387 . S
C2546 C2547 1.387 . S
C2546 H2550 0.950 . S
C2546 C2555 1.390 . S
C2547 C2546 1.387 . S
C2547 C2549 1.387 . S
H2548 C2555 0.950 . S
C2549 C2547 1.387 . S
C2549 C2551 1.390 . S
C2549 H2553 0.950 . S
H2550 C2546 0.950 . S
C2551 C2549 1.390 . S
C2551 C2552 1.387 . S
C2551 H2554 0.950 . S
C2552 C2551 1.387 . S
C2552 C2555 1.387 . S
H2553 C2549 0.950 . S
H2554 C2551 0.950 . S
C2555 C2546 1.390 . S
C2555 H2548 0.950 . S
C2555 C2552 1.387 . S
C2556 C2557 1.387 . S
C2556 H2560 0.950 . S
C2556 C2565 1.390 1_545 S
C2557 C2556 1.387 . S
C2557 C2559 1.387 . S
H2558 C2565 0.950 . S
C2559 C2557 1.387 . S
C2559 C2561 1.390 1_545 S
C2559 H2563 0.950 . S
H2560 C2556 0.950 . S
C2561 C2559 1.390 1_565 S
C2561 C2562 1.387 . S
C2561 H2564 0.950 . S
C2562 C2561 1.387 . S
C2562 C2565 1.387 . S
H2563 C2559 0.950 . S
H2564 C2561 0.950 . S
C2565 C2556 1.390 1_565 S
C2565 H2558 0.950 . S
C2565 C2562 1.387 . S
C2566 C2567 1.387 . S
C2566 H2570 0.950 . S
C2566 C2575 1.390 . S
C2567 C2566 1.387 . S
C2567 C2569 1.387 . S
H2568 C2575 0.950 1_455 S
C2569 C2567 1.387 . S
C2569 C2571 1.390 . S
C2569 H2573 0.950 . S
H2570 C2566 0.950 . S
C2571 C2569 1.390 . S
C2571 C2572 1.387 1_655 S
C2571 H2574 0.950 . S
C2572 C2571 1.387 1_455 S
C2572 C2575 1.387 1_455 S
H2573 C2569 0.950 . S
H2574 C2571 0.950 . S
C2575 C2566 1.390 . S
C2575 H2568 0.950 1_655 S
C2575 C2572 1.387 1_655 S
C2576 C2577 1.387 . S
C2576 H2580 0.950 . S
C2576 C2585 1.390 1_554 S
C2577 C2576 1.387 . S
C2577 C2579 1.387 . S
H2578 C2585 0.950 . S
C2579 C2577 1.387 . S
C2579 C2581 1.390 1_554 S
C2579 H2583 0.950 . S
H2580 C2576 0.950 . S
C2581 C2579 1.390 1_556 S
C2581 C2582 1.387 . S
C2581 H2584 0.950 . S
C2582 C2581 1.387 . S
C2582 C2585 1.387 . S
H2583 C2579 0.950 . S
H2584 C2581 0.950 . S
C2585 C2576 1.390 1_556 S
C2585 H2578 0.950 . S
C2585 C2582 1.387 . S
C2586 C2587 1.387 . S
C2586 H2590 0.950 . S
C2586 C2595 1.390 . S
C2587 C2586 1.387 . S
C2587 C2589 1.387 . S
H2588 C2595 0.950 . S
C2589 C2587 1.387 . S
C2589 C2591 1.390 . S
C2589 H2593 0.950 . S
H2590 C2586 0.950 . S
C2591 C2589 1.390 . S
C2591 C2592 1.387 . S
C2591 H2594 0.950 . S
C2592 C2591 1.387 . S
C2592 C2595 1.387 . S
H2593 C2589 0.950 . S
H2594 C2591 0.950 . S
C2595 C2586 1.390 . S
C2595 H2588 0.950 . S
C2595 C2592 1.387 . S
C2596 C2597 1.387 . S
C2596 H2600 0.950 . S
C2596 C2605 1.390 . S
C2597 C2596 1.387 . S
C2597 C2599 1.387 . S
H2598 C2605 0.950 . S
C2599 C2597 1.387 . S
C2599 C2601 1.390 . S
C2599 H2603 0.950 . S
H2600 C2596 0.950 . S
C2601 C2599 1.390 . S
C2601 C2602 1.387 . S
C2601 H2604 0.950 . S
C2602 C2601 1.387 . S
C2602 C2605 1.387 . S
H2603 C2599 0.950 . S
H2604 C2601 0.950 . S
C2605 C2596 1.390 . S
C2605 H2598 0.950 . S
C2605 C2602 1.387 . S
C2606 C2607 1.387 . S
C2606 H2610 0.950 . S
C2606 C2615 1.390 . S
C2607 C2606 1.387 . S
C2607 C2609 1.387 . S
H2608 C2615 0.950 . S
C2609 C2607 1.387 . S
C2609 C2611 1.390 . S
C2609 H2613 0.950 . S
H2610 C2606 0.950 . S
C2611 C2609 1.390 . S
C2611 C2612 1.387 . S
C2611 H2614 0.950 . S
C2612 C2611 1.387 . S
C2612 C2615 1.387 . S
H2613 C2609 0.950 . S
H2614 C2611 0.950 . S
C2615 C2606 1.390 . S
C2615 H2608 0.950 . S
C2615 C2612 1.387 . S
C2616 C2617 1.387 . S
C2616 H2620 0.950 . S
C2616 C2625 1.390 . S
C2617 C2616 1.387 . S
C2617 C2619 1.387 . S
H2618 C2625 0.950 . S
C2619 C2617 1.387 . S
C2619 C2621 1.390 . S
C2619 H2623 0.950 . S
H2620 C2616 0.950 . S
C2621 C2619 1.390 . S
C2621 C2622 1.387 . S
C2621 H2624 0.950 . S
C2622 C2621 1.387 . S
C2622 C2625 1.387 . S
H2623 C2619 0.950 . S
H2624 C2621 0.950 . S
C2625 C2616 1.390 . S
C2625 H2618 0.950 . S
C2625 C2622 1.387 . S
C2626 C2627 1.387 . S
C2626 H2630 0.950 . S
C2626 C2635 1.390 . S
C2627 C2626 1.387 . S
C2627 C2629 1.387 . S
H2628 C2635 0.950 . S
C2629 C2627 1.387 . S
C2629 C2631 1.390 . S
C2629 H2633 0.950 . S
H2630 C2626 0.950 . S
C2631 C2629 1.390 . S
C2631 C2632 1.387 . S
C2631 H2634 0.950 . S
C2632 C2631 1.387 . S
C2632 C2635 1.387 . S
H2633 C2629 0.950 . S
H2634 C2631 0.950 . S
C2635 C2626 1.390 . S
C2635 H2628 0.950 . S
C2635 C2632 1.387 . S
C2636 C2637 1.387 . S
C2636 H2640 0.950 . S
C2636 C2645 1.390 . S
C2637 C2636 1.387 . S
C2637 C2639 1.387 . S
H2638 C2645 0.950 . S
C2639 C2637 1.387 . S
C2639 C2641 1.390 . S
C2639 H2643 0.950 . S
H2640 C2636 0.950 . S
C2641 C2639 1.390 . S
C2641 C2642 1.387 . S
C2641 H2644 0.950 . S
C2642 C2641 1.387 . S
C2642 C2645 1.387 . S
H2643 C2639 0.950 . S
H2644 C2641 0.950 . S
C2645 C2636 1.390 . S
C2645 H2638 0.950 . S
C2645 C2642 1.387 . S
C2646 C2647 1.387 . S
C2646 H2650 0.950 . S
C2646 C2655 1.390 1_554 S
C2647 C2646 1.387 . S
C2647 C2649 1.387 . S
H2648 C2655 0.950 . S
C2649 C2647 1.387 . S
C2649 C2651 1.390 1_554 S
C2649 H2653 0.950 . S
H2650 C2646 0.950 . S
C2651 C2649 1.390 1_556 S
C2651 C2652 1.387 . S
C2651 H2654 0.950 . S
C2652 C2651 1.387 . S
C2652 C2655 1.387 . S
H2653 C2649 0.950 . S
H2654 C2651 0.950 . S
C2655 C2646 1.390 1_556 S
C2655 H2648 0.950 . S
C2655 C2652 1.387 . S
C2656 C2657 1.387 . S
C2656 H2660 0.950 . S
C2656 C2665 1.390 . S
C2657 C2656 1.387 . S
C2657 C2659 1.387 . S
H2658 C2665 0.938 1_455 S
C2659 C2657 1.387 . S
C2659 C2661 1.390 . S
C2659 H2663 0.950 . S
H2660 C2656 0.950 . S
C2661 C2659 1.390 . S
C2661 C2662 1.387 1_655 S
C2661 H2664 0.950 . S
C2662 C2661 1.387 1_455 S
C2662 C2665 1.387 1_455 S
H2663 C2659 0.950 . S
H2664 C2661 0.950 . S
C2665 C2656 1.390 . S
C2665 H2658 0.938 1_655 S
C2665 C2662 1.387 1_655 S
C2666 C2667 1.387 . S
C2666 H2670 0.950 . S
C2666 C2675 1.390 . S
C2667 C2666 1.387 . S
C2667 C2669 1.387 . S
H2668 C2675 0.950 . S
C2669 C2667 1.387 . S
C2669 C2671 1.390 . S
C2669 H2673 0.950 . S
H2670 C2666 0.950 . S
C2671 C2669 1.390 . S
C2671 C2672 1.387 . S
C2671 H2674 0.950 . S
C2672 C2671 1.387 . S
C2672 C2675 1.387 . S
H2673 C2669 0.950 . S
H2674 C2671 0.950 . S
C2675 C2666 1.390 . S
C2675 H2668 0.950 . S
C2675 C2672 1.387 . S
C2676 C2677 1.387 . S
C2676 H2680 0.950 . S
C2676 C2685 1.390 . S
C2677 C2676 1.387 . S
C2677 C2679 1.387 . S
H2678 C2685 0.950 . S
C2679 C2677 1.387 . S
C2679 C2681 1.390 . S
C2679 H2683 0.950 . S
H2680 C2676 0.950 . S
C2681 C2679 1.390 . S
C2681 C2682 1.387 . S
C2681 H2684 0.950 . S
C2682 C2681 1.387 . S
C2682 C2685 1.387 . S
H2683 C2679 0.950 . S
H2684 C2681 0.950 . S
C2685 C2676 1.390 . S
C2685 H2678 0.950 . S
C2685 C2682 1.387 . S
C2686 C2687 1.387 . S
C2686 H2690 0.950 . S
C2686 C2695 1.390 . S
C2687 C2686 1.387 . S
C2687 C2689 1.387 . S
H2688 C2695 0.950 . S
C2689 C2687 1.387 . S
C2689 C2691 1.390 . S
C2689 H2693 0.950 . S
H2690 C2686 0.950 . S
C2691 C2689 1.390 . S
C2691 C2692 1.387 . S
C2691 H2694 0.950 . S
C2692 C2691 1.387 . S
C2692 C2695 1.387 . S
H2693 C2689 0.950 . S
H2694 C2691 0.950 . S
C2695 C2686 1.390 . S
C2695 H2688 0.950 . S
C2695 C2692 1.387 . S
C2696 C2697 1.387 . S
C2696 H2700 0.950 . S
C2696 C2705 1.390 . S
C2697 C2696 1.387 . S
C2697 C2699 1.387 . S
H2698 C2705 0.950 . S
C2699 C2697 1.387 . S
C2699 C2701 1.390 . S
C2699 H2703 0.950 . S
H2700 C2696 0.950 . S
C2701 C2699 1.390 . S
C2701 C2702 1.387 . S
C2701 H2704 0.950 . S
C2702 C2701 1.387 . S
C2702 C2705 1.387 . S
H2703 C2699 0.950 . S
H2704 C2701 0.950 . S
C2705 C2696 1.390 . S
C2705 H2698 0.950 . S
C2705 C2702 1.387 . S
C2706 C2707 1.387 . S
C2706 H2710 0.950 . S
C2706 C2715 1.390 . S
C2707 C2706 1.387 . S
C2707 C2709 1.387 . S
H2708 C2715 0.950 . S
C2709 C2707 1.387 . S
C2709 C2711 1.390 . S
C2709 H2713 0.950 . S
H2710 C2706 0.950 . S
C2711 C2709 1.390 . S
C2711 C2712 1.387 . S
C2711 H2714 0.950 . S
C2712 C2711 1.387 . S
C2712 C2715 1.387 . S
H2713 C2709 0.950 . S
H2714 C2711 0.950 . S
C2715 C2706 1.390 . S
C2715 H2708 0.950 . S
C2715 C2712 1.387 . S
C2716 C2717 1.387 . S
C2716 H2720 0.950 . S
C2716 C2725 1.390 1_545 S
C2717 C2716 1.387 . S
C2717 C2719 1.387 1_545 S
H2718 C2725 0.950 . S
C2719 C2717 1.387 1_565 S
C2719 C2721 1.390 . S
C2719 H2723 0.950 . S
H2720 C2716 0.950 . S
C2721 C2719 1.390 . S
C2721 C2722 1.387 . S
C2721 H2724 0.950 . S
C2722 C2721 1.387 . S
C2722 C2725 1.387 . S
H2723 C2719 0.950 . S
H2724 C2721 0.950 . S
C2725 C2716 1.390 1_565 S
C2725 H2718 0.950 . S
C2725 C2722 1.387 . S
C2726 C2727 1.387 . S
C2726 H2730 0.950 . S
C2726 C2735 1.390 . S
C2727 C2726 1.387 . S
C2727 C2729 1.387 . S
H2728 C2735 0.950 1_455 S
C2729 C2727 1.387 . S
C2729 C2731 1.390 . S
C2729 H2733 0.950 . S
H2730 C2726 0.950 . S
C2731 C2729 1.390 . S
C2731 C2732 1.387 1_655 S
C2731 H2734 0.950 1_655 S
C2732 C2731 1.387 1_455 S
C2732 C2735 1.387 1_455 S
H2733 C2729 0.950 . S
H2734 C2731 0.950 1_455 S
C2735 C2726 1.390 . S
C2735 H2728 0.950 1_655 S
C2735 C2732 1.387 1_655 S
C2736 C2737 1.387 . S
C2736 H2740 0.950 . S
C2736 C2745 1.390 . S
C2737 C2736 1.387 . S
C2737 C2739 1.387 . S
H2738 C2745 0.950 . S
C2739 C2737 1.387 . S
C2739 C2741 1.390 . S
C2739 H2743 0.950 . S
H2740 C2736 0.950 . S
C2741 C2739 1.390 . S
C2741 C2742 1.387 . S
C2741 H2744 0.950 . S
C2742 C2741 1.387 . S
C2742 C2745 1.387 . S
H2743 C2739 0.950 . S
H2744 C2741 0.950 . S
C2745 C2736 1.390 . S
C2745 H2738 0.950 . S
C2745 C2742 1.387 . S
C2746 C2747 1.387 . S
C2746 H2750 0.950 . S
C2746 C2755 1.390 . S
C2747 C2746 1.387 . S
C2747 C2749 1.387 . S
H2748 C2755 0.950 . S
C2749 C2747 1.387 . S
C2749 C2751 1.390 . S
C2749 H2753 0.950 . S
H2750 C2746 0.950 . S
C2751 C2749 1.390 . S
C2751 C2752 1.387 . S
C2751 H2754 0.950 . S
C2752 C2751 1.387 . S
C2752 C2755 1.387 . S
H2753 C2749 0.950 . S
H2754 C2751 0.950 . S
C2755 C2746 1.390 . S
C2755 H2748 0.950 . S
C2755 C2752 1.387 . S
C2756 C2757 1.387 . S
C2756 H2760 0.950 . S
C2756 C2765 1.390 . S
C2757 C2756 1.387 . S
C2757 C2759 1.387 . S
H2758 C2765 0.950 . S
C2759 C2757 1.387 . S
C2759 C2761 1.390 . S
C2759 H2763 0.950 . S
H2760 C2756 0.950 . S
C2761 C2759 1.390 . S
C2761 C2762 1.387 . S
C2761 H2764 0.950 . S
C2762 C2761 1.387 . S
C2762 C2765 1.387 . S
H2763 C2759 0.950 . S
H2764 C2761 0.950 . S
C2765 C2756 1.390 . S
C2765 H2758 0.950 . S
C2765 C2762 1.387 . S
C2766 C2767 1.387 . S
C2766 H2770 0.950 . S
C2766 C2775 1.390 . S
C2767 C2766 1.387 . S
C2767 C2769 1.387 . S
H2768 C2775 0.950 . S
C2769 C2767 1.387 . S
C2769 C2771 1.390 . S
C2769 H2773 0.950 . S
H2770 C2766 0.950 . S
C2771 C2769 1.390 . S
C2771 C2772 1.387 . S
C2771 H2774 0.950 . S
C2772 C2771 1.387 . S
C2772 C2775 1.387 . S
H2773 C2769 0.950 . S
H2774 C2771 0.950 . S
C2775 C2766 1.390 . S
C2775 H2768 0.950 . S
C2775 C2772 1.387 . S
C2776 C2777 1.387 . S
C2776 H2780 0.950 . S
C2776 C2785 1.390 1_565 S
C2777 C2776 1.387 . S
C2777 C2779 1.387 . S
H2778 C2785 0.950 . S
C2779 C2777 1.387 . S
C2779 C2781 1.390 1_565 S
C2779 H2783 0.950 . S
H2780 C2776 0.950 . S
C2781 C2779 1.390 1_545 S
C2781 C2782 1.387 . S
C2781 H2784 0.950 . S
C2782 C2781 1.387 . S
C2782 C2785 1.387 . S
H2783 C2779 0.950 . S
H2784 C2781 0.950 . S
C2785 C2776 1.390 1_545 S
C2785 H2778 0.950 . S
C2785 C2782 1.387 . S
C2786 C2787 1.387 . S
C2786 H2790 0.950 . S
C2786 C2795 1.390 . S
C2787 C2786 1.387 . S
C2787 C2789 1.387 . S
H2788 C2795 0.950 . S
C2789 C2787 1.387 . S
C2789 C2791 1.390 1_455 S
C2789 H2793 0.950 . S
H2790 C2786 0.950 . S
C2791 C2789 1.390 1_655 S
C2791 C2792 1.387 . S
C2791 H2794 0.950 . S
C2792 C2791 1.387 . S
C2792 C2795 1.387 1_655 S
H2793 C2789 0.950 . S
H2794 C2791 0.950 . S
C2795 C2786 1.390 . S
C2795 H2788 0.950 . S
C2795 C2792 1.387 1_455 S
C2796 C2797 1.387 . S
C2796 H2800 0.950 . S
C2796 C2805 1.390 1_554 S
C2797 C2796 1.387 . S
C2797 C2799 1.387 . S
H2798 C2805 0.950 . S
C2799 C2797 1.387 . S
C2799 C2801 1.390 1_554 S
C2799 H2803 0.950 . S
H2800 C2796 0.950 . S
C2801 C2799 1.390 1_556 S
C2801 C2802 1.387 . S
C2801 H2804 0.950 . S
C2802 C2801 1.387 . S
C2802 C2805 1.387 . S
H2803 C2799 0.950 . S
H2804 C2801 0.950 . S
C2805 C2796 1.390 1_556 S
C2805 H2798 0.950 . S
C2805 C2802 1.387 . S
C2806 C2807 1.387 . S
C2806 H2810 0.950 . S
C2806 C2815 1.390 . S
C2807 C2806 1.387 . S
C2807 C2809 1.387 . S
H2808 C2815 0.950 . S
C2809 C2807 1.387 . S
C2809 C2811 1.390 . S
C2809 H2813 0.950 . S
H2810 C2806 0.950 . S
C2811 C2809 1.390 . S
C2811 C2812 1.387 . S
C2811 H2814 0.950 . S
C2812 C2811 1.387 . S
C2812 C2815 1.387 . S
H2813 C2809 0.950 . S
H2814 C2811 0.950 . S
C2815 C2806 1.390 . S
C2815 H2808 0.950 . S
C2815 C2812 1.387 . S
C2816 C2817 1.387 . S
C2816 H2820 0.950 . S
C2816 C2825 1.390 . S
C2817 C2816 1.387 . S
C2817 C2819 1.387 . S
H2818 C2825 0.950 . S
C2819 C2817 1.387 . S
C2819 C2821 1.390 . S
C2819 H2823 0.950 . S
H2820 C2816 0.950 . S
C2821 C2819 1.390 . S
C2821 C2822 1.387 . S
C2821 H2824 0.950 . S
C2822 C2821 1.387 . S
C2822 C2825 1.387 . S
H2823 C2819 0.950 . S
H2824 C2821 0.950 . S
C2825 C2816 1.390 . S
C2825 H2818 0.950 . S
C2825 C2822 1.387 . S
C2826 C2827 1.387 . S
C2826 H2830 0.950 . S
C2826 C2835 1.390 . S
C2827 C2826 1.387 . S
C2827 C2829 1.387 . S
H2828 C2835 0.950 . S
C2829 C2827 1.387 . S
C2829 C2831 1.390 . S
C2829 H2833 0.950 . S
H2830 C2826 0.950 . S
C2831 C2829 1.390 . S
C2831 C2832 1.387 . S
C2831 H2834 0.950 . S
C2832 C2831 1.387 . S
C2832 C2835 1.387 . S
H2833 C2829 0.950 . S
H2834 C2831 0.950 . S
C2835 C2826 1.390 . S
C2835 H2828 0.950 . S
C2835 C2832 1.387 . S
C2836 C2837 1.387 . S
C2836 H2840 0.950 . S
C2836 C2845 1.390 . S
C2837 C2836 1.387 . S
C2837 C2839 1.387 . S
H2838 C2845 0.950 . S
C2839 C2837 1.387 . S
C2839 C2841 1.390 . S
C2839 H2843 0.950 . S
H2840 C2836 0.950 . S
C2841 C2839 1.390 . S
C2841 C2842 1.387 . S
C2841 H2844 0.950 . S
C2842 C2841 1.387 . S
C2842 C2845 1.387 . S
H2843 C2839 0.950 . S
H2844 C2841 0.950 . S
C2845 C2836 1.390 . S
C2845 H2838 0.950 . S
C2845 C2842 1.387 . S
C2846 C2847 1.387 . S
C2846 H2850 0.950 . S
C2846 C2855 1.390 . S
C2847 C2846 1.387 . S
C2847 C2849 1.387 . S
H2848 C2855 0.950 . S
C2849 C2847 1.387 . S
C2849 C2851 1.390 . S
C2849 H2853 0.950 . S
H2850 C2846 0.950 . S
C2851 C2849 1.390 . S
C2851 C2852 1.387 . S
C2851 H2854 0.950 . S
C2852 C2851 1.387 . S
C2852 C2855 1.387 . S
H2853 C2849 0.950 . S
H2854 C2851 0.950 . S
C2855 C2846 1.390 . S
C2855 H2848 0.950 . S
C2855 C2852 1.387 . S
C2856 C2857 1.387 . S
C2856 H2860 0.950 . S
C2856 C2865 1.390 . S
C2857 C2856 1.387 . S
C2857 C2859 1.387 . S
H2858 C2865 0.950 . S
C2859 C2857 1.387 . S
C2859 C2861 1.390 . S
C2859 H2863 0.950 . S
H2860 C2856 0.950 . S
C2861 C2859 1.390 . S
C2861 C2862 1.387 . S
C2861 H2864 0.950 . S
C2862 C2861 1.387 . S
C2862 C2865 1.387 . S
H2863 C2859 0.950 . S
H2864 C2861 0.950 . S
C2865 C2856 1.390 . S
C2865 H2858 0.950 . S
C2865 C2862 1.387 . S
C2866 C2867 1.387 . S
C2866 H2870 0.950 . S
C2866 C2875 1.390 1_554 S
C2867 C2866 1.387 . S
C2867 C2869 1.387 . S
H2868 C2875 0.950 . S
C2869 C2867 1.387 . S
C2869 C2871 1.390 1_554 S
C2869 H2873 0.950 . S
H2870 C2866 0.950 . S
C2871 C2869 1.390 1_556 S
C2871 C2872 1.387 . S
C2871 H2874 0.950 . S
C2872 C2871 1.387 . S
C2872 C2875 1.387 . S
H2873 C2869 0.950 . S
H2874 C2871 0.950 . S
C2875 C2866 1.390 1_556 S
C2875 H2868 0.950 . S
C2875 C2872 1.387 . S
C2876 C2877 1.387 . S
C2876 H2880 0.950 . S
C2876 C2885 1.390 . S
C2877 C2876 1.387 . S
C2877 C2879 1.387 . S
H2878 C2885 0.950 . S
C2879 C2877 1.387 . S
C2879 C2881 1.390 . S
C2879 H2883 0.950 . S
H2880 C2876 0.950 . S
C2881 C2879 1.390 . S
C2881 C2882 1.387 1_455 S
C2881 H2884 0.950 1_455 S
C2882 C2881 1.387 1_655 S
C2882 C2885 1.387 1_655 S
H2883 C2879 0.950 . S
H2884 C2881 0.950 1_655 S
C2885 C2876 1.390 . S
C2885 H2878 0.950 . S
C2885 C2882 1.387 1_455 S
C2886 C2887 1.387 . S
C2886 H2890 0.950 . S
C2886 C2895 1.390 . S
C2887 C2886 1.387 . S
C2887 C2889 1.387 . S
H2888 C2895 0.950 . S
C2889 C2887 1.387 . S
C2889 C2891 1.390 . S
C2889 H2893 0.950 . S
H2890 C2886 0.950 . S
C2891 C2889 1.390 . S
C2891 C2892 1.387 . S
C2891 H2894 0.950 . S
C2892 C2891 1.387 . S
C2892 C2895 1.387 . S
H2893 C2889 0.950 . S
H2894 C2891 0.950 . S
C2895 C2886 1.390 . S
C2895 H2888 0.950 . S
C2895 C2892 1.387 . S
C2896 C2897 1.387 . S
C2896 H2900 0.950 . S
C2896 C2905 1.390 . S
C2897 C2896 1.387 . S
C2897 C2899 1.387 . S
H2898 C2905 0.950 . S
C2899 C2897 1.387 . S
C2899 C2901 1.390 . S
C2899 H2903 0.950 . S
H2900 C2896 0.950 . S
C2901 C2899 1.390 . S
C2901 C2902 1.387 . S
C2901 H2904 0.950 . S
C2902 C2901 1.387 . S
C2902 C2905 1.387 . S
H2903 C2899 0.950 . S
H2904 C2901 0.950 . S
C2905 C2896 1.390 . S
C2905 H2898 0.950 . S
C2905 C2902 1.387 . S
C2906 C2907 1.387 . S
C2906 H2910 0.950 . S
C2906 C2915 1.390 . S
C2907 C2906 1.387 . S
C2907 C2909 1.387 . S
H2908 C2915 0.950 . S
C2909 C2907 1.387 . S
C2909 C2911 1.390 . S
C2909 H2913 0.950 . S
H2910 C2906 0.950 . S
C2911 C2909 1.390 . S
C2911 C2912 1.387 . S
C2911 H2914 0.950 . S
C2912 C2911 1.387 . S
C2912 C2915 1.387 . S
H2913 C2909 0.950 . S
H2914 C2911 0.950 . S
C2915 C2906 1.390 . S
C2915 H2908 0.950 . S
C2915 C2912 1.387 . S
C2916 C2917 1.387 . S
C2916 H2920 0.950 . S
C2916 C2925 1.390 . S
C2917 C2916 1.387 . S
C2917 C2919 1.387 . S
H2918 C2925 0.950 . S
C2919 C2917 1.387 . S
C2919 C2921 1.390 . S
C2919 H2923 0.950 . S
H2920 C2916 0.950 . S
C2921 C2919 1.390 . S
C2921 C2922 1.387 . S
C2921 H2924 0.950 . S
C2922 C2921 1.387 . S
C2922 C2925 1.387 . S
H2923 C2919 0.950 . S
H2924 C2921 0.950 . S
C2925 C2916 1.390 . S
C2925 H2918 0.950 . S
C2925 C2922 1.387 . S
C2926 C2927 1.387 . S
C2926 H2930 0.950 . S
C2926 C2935 1.390 . S
C2927 C2926 1.387 . S
C2927 C2929 1.387 . S
H2928 C2935 0.950 . S
C2929 C2927 1.387 . S
C2929 C2931 1.390 . S
C2929 H2933 0.950 . S
H2930 C2926 0.950 . S
C2931 C2929 1.390 . S
C2931 C2932 1.387 . S
C2931 H2934 0.950 . S
C2932 C2931 1.387 . S
C2932 C2935 1.387 . S
H2933 C2929 0.950 . S
H2934 C2931 0.950 . S
C2935 C2926 1.390 . S
C2935 H2928 0.950 . S
C2935 C2932 1.387 . S
C2936 C2937 1.387 . S
C2936 H2940 0.950 . S
C2936 C2945 1.390 . S
C2937 C2936 1.387 . S
C2937 C2939 1.387 . S
H2938 C2945 0.950 . S
C2939 C2937 1.387 . S
C2939 C2941 1.390 . S
C2939 H2943 0.950 . S
H2940 C2936 0.950 . S
C2941 C2939 1.390 . S
C2941 C2942 1.387 . S
C2941 H2944 0.950 . S
C2942 C2941 1.387 . S
C2942 C2945 1.387 . S
H2943 C2939 0.950 . S
H2944 C2941 0.950 . S
C2945 C2936 1.390 . S
C2945 H2938 0.950 . S
C2945 C2942 1.387 . S
C2946 C2947 1.387 . S
C2946 H2950 0.950 . S
C2946 C2955 1.390 . S
C2947 C2946 1.387 . S
C2947 C2949 1.387 . S
H2948 C2955 0.950 1_655 S
C2949 C2947 1.387 . S
C2949 C2951 1.390 . S
C2949 H2953 0.950 . S
H2950 C2946 0.950 . S
C2951 C2949 1.390 . S
C2951 C2952 1.387 1_455 S
C2951 H2954 0.950 1_455 S
C2952 C2951 1.387 1_655 S
C2952 C2955 1.387 1_655 S
H2953 C2949 0.950 . S
H2954 C2951 0.950 1_655 S
C2955 C2946 1.390 . S
C2955 H2948 0.950 1_455 S
C2955 C2952 1.387 1_455 S
C2956 C2957 1.387 . S
C2956 H2960 0.950 . S
C2956 C2965 1.390 . S
C2957 C2956 1.387 . S
C2957 C2959 1.387 . S
H2958 C2965 0.950 . S
C2959 C2957 1.387 . S
C2959 C2961 1.390 . S
C2959 H2963 0.950 . S
H2960 C2956 0.950 . S
C2961 C2959 1.390 . S
C2961 C2962 1.387 . S
C2961 H2964 0.950 . S
C2962 C2961 1.387 . S
C2962 C2965 1.387 . S
H2963 C2959 0.950 . S
H2964 C2961 0.950 . S
C2965 C2956 1.390 . S
C2965 H2958 0.950 . S
C2965 C2962 1.387 . S
C2966 C2967 1.387 . S
C2966 H2970 0.950 . S
C2966 C2975 1.390 . S
C2967 C2966 1.387 . S
C2967 C2969 1.387 . S
H2968 C2975 0.950 . S
C2969 C2967 1.387 . S
C2969 C2971 1.390 . S
C2969 H2973 0.950 . S
H2970 C2966 0.950 . S
C2971 C2969 1.390 . S
C2971 C2972 1.387 . S
C2971 H2974 0.950 . S
C2972 C2971 1.387 . S
C2972 C2975 1.387 . S
H2973 C2969 0.950 . S
H2974 C2971 0.950 . S
C2975 C2966 1.390 . S
C2975 H2968 0.950 . S
C2975 C2972 1.387 . S
C2976 C2977 1.387 . S
C2976 H2980 0.950 . S
C2976 C2985 1.390 . S
C2977 C2976 1.387 . S
C2977 C2979 1.387 . S
H2978 C2985 0.950 . S
C2979 C2977 1.387 . S
C2979 C2981 1.390 . S
C2979 H2983 0.950 . S
H2980 C2976 0.950 . S
C2981 C2979 1.390 . S
C2981 C2982 1.387 . S
C2981 H2984 0.950 . S
C2982 C2981 1.387 . S
C2982 C2985 1.387 . S
H2983 C2979 0.950 . S
H2984 C2981 0.950 . S
C2985 C2976 1.390 . S
C2985 H2978 0.950 . S
C2985 C2982 1.387 . S
C2986 C2987 1.387 . S
C2986 H2990 0.950 . S
C2986 C2995 1.390 . S
C2987 C2986 1.387 . S
C2987 C2989 1.387 . S
H2988 C2995 0.950 . S
C2989 C2987 1.387 . S
C2989 C2991 1.390 . S
C2989 H2993 0.950 . S
H2990 C2986 0.950 . S
C2991 C2989 1.390 . S
C2991 C2992 1.387 . S
C2991 H2994 0.950 . S
C2992 C2991 1.387 . S
C2992 C2995 1.387 . S
H2993 C2989 0.950 . S
H2994 C2991 0.950 . S
C2995 C2986 1.390 . S
C2995 H2988 0.950 . S
C2995 C2992 1.387 . S
C2996 C2997 1.387 . S
C2996 H3000 0.950 . S
C2996 C3005 1.390 . S
C2997 C2996 1.387 . S
C2997 C2999 1.387 . S
H2998 C3005 0.950 . S
C2999 C2997 1.387 . S
C2999 C3001 1.390 . S
C2999 H3003 0.950 . S
H3000 C2996 0.950 . S
C3001 C2999 1.390 . S
C3001 C3002 1.387 . S
C3001 H3004 0.950 . S
C3002 C3001 1.387 . S
C3002 C3005 1.387 . S
H3003 C2999 0.950 . S
H3004 C3001 0.950 . S
C3005 C2996 1.390 . S
C3005 H2998 0.950 . S
C3005 C3002 1.387 . S
C3006 C3007 1.387 . S
C3006 H3010 0.950 . S
C3006 C3015 1.390 . S
C3007 C3006 1.387 . S
C3007 C3009 1.387 . S
H3008 C3015 0.950 . S
C3009 C3007 1.387 . S
C3009 C3011 1.390 . S
C3009 H3013 0.950 . S
H3010 C3006 0.950 . S
C3011 C3009 1.390 . S
C3011 C3012 1.387 . S
C3011 H3014 0.950 . S
C3012 C3011 1.387 . S
C3012 C3015 1.387 . S
H3013 C3009 0.950 . S
H3014 C3011 0.950 . S
C3015 C3006 1.390 . S
C3015 H3008 0.950 . S
C3015 C3012 1.387 . S
C3016 C3017 1.387 . S
C3016 H3020 0.950 . S
C3016 C3025 1.390 1_554 S
C3017 C3016 1.387 . S
C3017 C3019 1.387 1_554 S
H3018 C3025 0.950 . S
C3019 C3017 1.387 1_556 S
C3019 C3021 1.390 . S
C3019 H3023 0.950 . S
H3020 C3016 0.950 . S
C3021 C3019 1.390 . S
C3021 C3022 1.387 . S
C3021 H3024 0.950 . S
C3022 C3021 1.387 . S
C3022 C3025 1.387 . S
H3023 C3019 0.950 . S
H3024 C3021 0.950 . S
C3025 C3016 1.390 1_556 S
C3025 H3018 0.950 . S
C3025 C3022 1.387 . S
C3026 C3027 1.387 . S
C3026 H3030 0.950 . S
C3026 C3035 1.390 . S
C3027 C3026 1.387 . S
C3027 C3029 1.387 . S
H3028 C3035 0.950 . S
C3029 C3027 1.387 . S
C3029 C3031 1.390 . S
C3029 H3033 0.950 . S
H3030 C3026 0.950 . S
C3031 C3029 1.390 . S
C3031 C3032 1.387 . S
C3031 H3034 0.950 . S
C3032 C3031 1.387 . S
C3032 C3035 1.387 . S
H3033 C3029 0.950 . S
H3034 C3031 0.950 . S
C3035 C3026 1.390 . S
C3035 H3028 0.950 . S
C3035 C3032 1.387 . S
C3036 C3037 1.387 . S
C3036 H3040 0.950 . S
C3036 C3045 1.390 . S
C3037 C3036 1.387 . S
C3037 C3039 1.387 . S
H3038 C3045 0.950 . S
C3039 C3037 1.387 . S
C3039 C3041 1.390 . S
C3039 H3043 0.950 . S
H3040 C3036 0.950 . S
C3041 C3039 1.390 . S
C3041 C3042 1.387 . S
C3041 H3044 0.950 . S
C3042 C3041 1.387 . S
C3042 C3045 1.387 . S
H3043 C3039 0.950 . S
H3044 C3041 0.950 . S
C3045 C3036 1.390 . S
C3045 H3038 0.950 . S
C3045 C3042 1.387 . S
C3046 C3047 1.387 . S
C3046 H3050 0.950 . S
C3046 C3055 1.390 1_556 S
C3047 C3046 1.387 . S
C3047 C3049 1.387 . S
H3048 C3055 0.950 . S
C3049 C3047 1.387 . S
C3049 C3051 1.390 . S
C3049 H3053 0.950 . S
H3050 C3046 0.950 . S
C3051 C3049 1.390 . S
C3051 C3052 1.387 1_556 S
C3051 H3054 0.950 . S
C3052 C3051 1.387 1_554 S
C3052 C3055 1.387 . S
H3053 C3049 0.950 . S
H3054 C3051 0.950 . S
C3055 C3046 1.390 1_554 S
C3055 H3048 0.950 . S
C3055 C3052 1.387 . S
C3056 C3057 1.387 . S
C3056 H3060 0.950 . S
C3056 C3065 1.390 . S
C3057 C3056 1.387 . S
C3057 C3059 1.387 . S
H3058 C3065 0.950 . S
C3059 C3057 1.387 . S
C3059 C3061 1.390 . S
C3059 H3063 0.950 . S
H3060 C3056 0.950 . S
C3061 C3059 1.390 . S
C3061 C3062 1.387 . S
C3061 H3064 0.950 . S
C3062 C3061 1.387 . S
C3062 C3065 1.387 . S
H3063 C3059 0.950 . S
H3064 C3061 0.950 . S
C3065 C3056 1.390 . S
C3065 H3058 0.950 . S
C3065 C3062 1.387 . S
C3066 C3067 1.387 . S
C3066 H3070 0.950 . S
C3066 C3075 1.390 . S
C3067 C3066 1.387 . S
C3067 C3069 1.387 . S
H3068 C3075 0.950 . S
C3069 C3067 1.387 . S
C3069 C3071 1.390 . S
C3069 H3073 0.950 . S
H3070 C3066 0.950 . S
C3071 C3069 1.390 . S
C3071 C3072 1.387 . S
C3071 H3074 0.950 . S
C3072 C3071 1.387 . S
C3072 C3075 1.387 . S
H3073 C3069 0.950 . S
H3074 C3071 0.950 . S
C3075 C3066 1.390 . S
C3075 H3068 0.950 . S
C3075 C3072 1.387 . S
C3076 C3077 1.387 . S
C3076 H3080 0.950 . S
C3076 C3085 1.390 . S
C3077 C3076 1.387 . S
C3077 C3079 1.387 . S
H3078 C3085 0.950 . S
C3079 C3077 1.387 . S
C3079 C3081 1.390 . S
C3079 H3083 0.950 . S
H3080 C3076 0.950 . S
C3081 C3079 1.390 . S
C3081 C3082 1.387 . S
C3081 H3084 0.950 . S
C3082 C3081 1.387 . S
C3082 C3085 1.387 . S
H3083 C3079 0.950 . S
H3084 C3081 0.950 . S
C3085 C3076 1.390 . S
C3085 H3078 0.950 . S
C3085 C3082 1.387 . S
C3086 C3087 1.387 . S
C3086 H3090 0.950 . S
C3086 C3095 1.390 . S
C3087 C3086 1.387 . S
C3087 C3089 1.387 . S
H3088 C3095 0.950 . S
C3089 C3087 1.387 . S
C3089 C3091 1.390 . S
C3089 H3093 0.950 . S
H3090 C3086 0.950 . S
C3091 C3089 1.390 . S
C3091 C3092 1.387 . S
C3091 H3094 0.950 . S
C3092 C3091 1.387 . S
C3092 C3095 1.387 . S
H3093 C3089 0.950 . S
H3094 C3091 0.950 . S
C3095 C3086 1.390 . S
C3095 H3088 0.950 . S
C3095 C3092 1.387 . S
C3096 C3097 1.387 1_545 S
C3096 H3100 0.950 . S
C3096 C3105 1.390 . S
C3097 C3096 1.387 1_565 S
C3097 C3099 1.387 . S
H3098 C3105 0.950 . S
C3099 C3097 1.387 . S
C3099 C3101 1.390 1_565 S
C3099 H3103 0.950 . S
H3100 C3096 0.950 . S
C3101 C3099 1.390 1_545 S
C3101 C3102 1.387 . S
C3101 H3104 0.950 . S
C3102 C3101 1.387 . S
C3102 C3105 1.387 . S
H3103 C3099 0.950 . S
H3104 C3101 0.950 . S
C3105 C3096 1.390 . S
C3105 H3098 0.950 . S
C3105 C3102 1.387 . S
C3106 C3107 1.387 . S
C3106 H3110 0.950 . S
C3106 C3115 1.390 . S
C3107 C3106 1.387 . S
C3107 C3109 1.387 . S
H3108 C3115 0.950 . S
C3109 C3107 1.387 . S
C3109 C3111 1.390 . S
C3109 H3113 0.950 . S
H3110 C3106 0.950 . S
C3111 C3109 1.390 . S
C3111 C3112 1.387 . S
C3111 H3114 0.950 . S
C3112 C3111 1.387 . S
C3112 C3115 1.387 . S
H3113 C3109 0.950 . S
H3114 C3111 0.950 . S
C3115 C3106 1.390 . S
C3115 H3108 0.950 . S
C3115 C3112 1.387 . S
C3116 C3117 1.387 . S
C3116 H3120 0.950 . S
C3116 C3125 1.390 . S
C3117 C3116 1.387 . S
C3117 C3119 1.387 . S
H3118 C3125 0.950 . S
C3119 C3117 1.387 . S
C3119 C3121 1.390 . S
C3119 H3123 0.950 . S
H3120 C3116 0.950 . S
C3121 C3119 1.390 . S
C3121 C3122 1.387 . S
C3121 H3124 0.950 . S
C3122 C3121 1.387 . S
C3122 C3125 1.387 . S
H3123 C3119 0.950 . S
H3124 C3121 0.950 . S
C3125 C3116 1.390 . S
C3125 H3118 0.950 . S
C3125 C3122 1.387 . S
C3126 C3127 1.387 1_655 S
C3126 H3130 0.950 1_655 S
C3126 C3135 1.390 . S
C3127 C3126 1.387 1_455 S
C3127 C3129 1.387 1_455 S
H3128 C3135 0.950 . S
C3129 C3127 1.387 1_655 S
C3129 C3131 1.390 . S
C3129 H3133 0.950 1_655 S
H3130 C3126 0.950 1_455 S
C3131 C3129 1.390 . S
C3131 C3132 1.387 . S
C3131 H3134 0.950 . S
C3132 C3131 1.387 . S
C3132 C3135 1.387 . S
H3133 C3129 0.950 1_455 S
H3134 C3131 0.950 . S
C3135 C3126 1.390 . S
C3135 H3128 0.950 . S
C3135 C3132 1.387 . S
C3136 C3137 1.387 . S
C3136 H3140 0.950 . S
C3136 C3145 1.390 . S
C3137 C3136 1.387 . S
C3137 C3139 1.387 . S
H3138 C3145 0.950 . S
C3139 C3137 1.387 . S
C3139 C3141 1.390 . S
C3139 H3143 0.950 . S
H3140 C3136 0.950 . S
C3141 C3139 1.390 . S
C3141 C3142 1.387 . S
C3141 H3144 0.950 . S
C3142 C3141 1.387 . S
C3142 C3145 1.387 . S
H3143 C3139 0.950 . S
H3144 C3141 0.950 . S
C3145 C3136 1.390 . S
C3145 H3138 0.950 . S
C3145 C3142 1.387 . S
C3146 C3147 1.387 . S
C3146 H3150 0.950 . S
C3146 C3155 1.390 . S
C3147 C3146 1.387 . S
C3147 C3149 1.387 . S
H3148 C3155 0.950 . S
C3149 C3147 1.387 . S
C3149 C3151 1.390 . S
C3149 H3153 0.950 . S
H3150 C3146 0.950 . S
C3151 C3149 1.390 . S
C3151 C3152 1.387 . S
C3151 H3154 0.950 . S
C3152 C3151 1.387 . S
C3152 C3155 1.387 . S
H3153 C3149 0.950 . S
H3154 C3151 0.950 . S
C3155 C3146 1.390 . S
C3155 H3148 0.950 . S
C3155 C3152 1.387 . S
C3156 C3157 1.387 . S
C3156 H3160 0.950 . S
C3156 C3165 1.390 . S
C3157 C3156 1.387 . S
C3157 C3159 1.387 . S
H3158 C3165 0.950 . S
C3159 C3157 1.387 . S
C3159 C3161 1.390 . S
C3159 H3163 0.950 . S
H3160 C3156 0.950 . S
C3161 C3159 1.390 . S
C3161 C3162 1.387 . S
C3161 H3164 0.950 . S
C3162 C3161 1.387 . S
C3162 C3165 1.387 . S
H3163 C3159 0.950 . S
H3164 C3161 0.950 . S
C3165 C3156 1.390 . S
C3165 H3158 0.950 . S
C3165 C3162 1.387 . S
C3166 C3167 1.387 . S
C3166 H3170 0.950 . S
C3166 C3175 1.390 . S
C3167 C3166 1.387 . S
C3167 C3169 1.387 . S
H3168 C3175 0.950 . S
C3169 C3167 1.387 . S
C3169 C3171 1.390 . S
C3169 H3173 0.950 . S
H3170 C3166 0.950 . S
C3171 C3169 1.390 . S
C3171 C3172 1.387 . S
C3171 H3174 0.950 . S
C3172 C3171 1.387 . S
C3172 C3175 1.387 . S
H3173 C3169 0.950 . S
H3174 C3171 0.950 . S
C3175 C3166 1.390 . S
C3175 H3168 0.950 . S
C3175 C3172 1.387 . S
C3176 C3177 1.387 . S
C3176 H3180 0.950 . S
C3176 C3185 1.390 . S
C3177 C3176 1.387 . S
C3177 C3179 1.387 . S
H3178 C3185 0.950 . S
C3179 C3177 1.387 . S
C3179 C3181 1.390 . S
C3179 H3183 0.950 . S
H3180 C3176 0.950 . S
C3181 C3179 1.390 . S
C3181 C3182 1.387 . S
C3181 H3184 0.950 . S
C3182 C3181 1.387 . S
C3182 C3185 1.387 . S
H3183 C3179 0.950 . S
H3184 C3181 0.950 . S
C3185 C3176 1.390 . S
C3185 H3178 0.950 . S
C3185 C3182 1.387 . S
C3186 C3187 1.387 . S
C3186 H3190 0.950 . S
C3186 C3195 1.390 . S
C3187 C3186 1.387 . S
C3187 C3189 1.387 . S
H3188 C3195 0.950 . S
C3189 C3187 1.387 . S
C3189 C3191 1.390 . S
C3189 H3193 0.950 . S
H3190 C3186 0.950 . S
C3191 C3189 1.390 . S
C3191 C3192 1.387 . S
C3191 H3194 0.950 . S
C3192 C3191 1.387 . S
C3192 C3195 1.387 . S
H3193 C3189 0.950 . S
H3194 C3191 0.950 . S
C3195 C3186 1.390 . S
C3195 H3188 0.950 . S
C3195 C3192 1.387 . S
C3196 C3197 1.387 . S
C3196 H3200 0.950 . S
C3196 C3205 1.390 . S
C3197 C3196 1.387 . S
C3197 C3199 1.387 . S
H3198 C3205 0.950 1_556 S
C3199 C3197 1.387 . S
C3199 C3201 1.390 . S
C3199 H3203 0.950 . S
H3200 C3196 0.950 . S
C3201 C3199 1.390 . S
C3201 C3202 1.387 1_554 S
C3201 H3204 0.950 1_554 S
C3202 C3201 1.387 1_556 S
C3202 C3205 1.387 1_556 S
H3203 C3199 0.950 . S
H3204 C3201 0.950 1_556 S
C3205 C3196 1.390 . S
C3205 H3198 0.950 1_554 S
C3205 C3202 1.387 1_554 S
C3206 C3207 1.387 . S
C3206 H3210 0.950 . S
C3206 C3215 1.390 . S
C3207 C3206 1.387 . S
C3207 C3209 1.387 . S
H3208 C3215 0.950 . S
C3209 C3207 1.387 . S
C3209 C3211 1.390 . S
C3209 H3213 0.950 . S
H3210 C3206 0.950 . S
C3211 C3209 1.390 . S
C3211 C3212 1.387 . S
C3211 H3214 0.950 . S
C3212 C3211 1.387 . S
C3212 C3215 1.387 . S
H3213 C3209 0.950 . S
H3214 C3211 0.950 . S
C3215 C3206 1.390 . S
C3215 H3208 0.950 . S
C3215 C3212 1.387 . S
C3216 C3217 1.387 . S
C3216 H3220 0.950 . S
C3216 C3225 1.390 . S
C3217 C3216 1.387 . S
C3217 C3219 1.387 . S
H3218 C3225 0.950 . S
C3219 C3217 1.387 . S
C3219 C3221 1.390 . S
C3219 H3223 0.950 . S
H3220 C3216 0.950 . S
C3221 C3219 1.390 . S
C3221 C3222 1.387 . S
C3221 H3224 0.950 . S
C3222 C3221 1.387 . S
C3222 C3225 1.387 . S
H3223 C3219 0.950 . S
H3224 C3221 0.950 . S
C3225 C3216 1.390 . S
C3225 H3218 0.950 . S
C3225 C3222 1.387 . S
C3226 C3227 1.387 . S
C3226 H3230 0.950 . S
C3226 C3235 1.390 . S
C3227 C3226 1.387 . S
C3227 C3229 1.387 . S
H3228 C3235 0.950 . S
C3229 C3227 1.387 . S
C3229 C3231 1.390 1_554 S
C3229 H3233 0.950 . S
H3230 C3226 0.950 . S
C3231 C3229 1.390 1_556 S
C3231 C3232 1.387 . S
C3231 H3234 0.950 . S
C3232 C3231 1.387 . S
C3232 C3235 1.387 1_556 S
H3233 C3229 0.950 . S
H3234 C3231 0.950 . S
C3235 C3226 1.390 . S
C3235 H3228 0.950 . S
C3235 C3232 1.387 1_554 S
C3236 C3237 1.387 . S
C3236 H3240 0.950 . S
C3236 C3245 1.390 . S
C3237 C3236 1.387 . S
C3237 C3239 1.387 . S
H3238 C3245 0.950 . S
C3239 C3237 1.387 . S
C3239 C3241 1.390 . S
C3239 H3243 0.950 . S
H3240 C3236 0.950 . S
C3241 C3239 1.390 . S
C3241 C3242 1.387 . S
C3241 H3244 0.950 . S
C3242 C3241 1.387 . S
C3242 C3245 1.387 . S
H3243 C3239 0.950 . S
H3244 C3241 0.950 . S
C3245 C3236 1.390 . S
C3245 H3238 0.950 . S
C3245 C3242 1.387 . S
C3246 C3247 1.387 . S
C3246 H3250 0.950 . S
C3246 C3255 1.390 . S
C3247 C3246 1.387 . S
C3247 C3249 1.387 . S
H3248 C3255 0.950 . S
C3249 C3247 1.387 . S
C3249 C3251 1.390 . S
C3249 H3253 0.950 . S
H3250 C3246 0.950 . S
C3251 C3249 1.390 . S
C3251 C3252 1.387 . S
C3251 H3254 0.950 . S
C3252 C3251 1.387 . S
C3252 C3255 1.387 . S
H3253 C3249 0.950 . S
H3254 C3251 0.950 . S
C3255 C3246 1.390 . S
C3255 H3248 0.950 . S
C3255 C3252 1.387 . S
C3256 C3257 1.387 . S
C3256 H3260 0.950 . S
C3256 C3265 1.390 . S
C3257 C3256 1.387 . S
C3257 C3259 1.387 . S
H3258 C3265 0.950 . S
C3259 C3257 1.387 . S
C3259 C3261 1.390 . S
C3259 H3263 0.950 . S
H3260 C3256 0.950 . S
C3261 C3259 1.390 . S
C3261 C3262 1.387 . S
C3261 H3264 0.950 . S
C3262 C3261 1.387 . S
C3262 C3265 1.387 . S
H3263 C3259 0.950 . S
H3264 C3261 0.950 . S
C3265 C3256 1.390 . S
C3265 H3258 0.950 . S
C3265 C3262 1.387 . S
C3266 C3267 1.387 . S
C3266 H3270 0.950 . S
C3266 C3275 1.390 . S
C3267 C3266 1.387 . S
C3267 C3269 1.387 . S
H3268 C3275 0.950 . S
C3269 C3267 1.387 . S
C3269 C3271 1.390 . S
C3269 H3273 0.950 . S
H3270 C3266 0.950 . S
C3271 C3269 1.390 . S
C3271 C3272 1.387 . S
C3271 H3274 0.950 . S
C3272 C3271 1.387 . S
C3272 C3275 1.387 . S
H3273 C3269 0.950 . S
H3274 C3271 0.950 . S
C3275 C3266 1.390 . S
C3275 H3268 0.950 . S
C3275 C3272 1.387 . S
C3276 C3277 1.387 . S
C3276 H3280 0.950 . S
C3276 C3285 1.390 1_565 S
C3277 C3276 1.387 . S
C3277 C3279 1.387 . S
H3278 C3285 0.950 . S
C3279 C3277 1.387 . S
C3279 C3281 1.390 . S
C3279 H3283 0.950 . S
H3280 C3276 0.950 . S
C3281 C3279 1.390 . S
C3281 C3282 1.387 1_565 S
C3281 H3284 0.950 . S
C3282 C3281 1.387 1_545 S
C3282 C3285 1.387 . S
H3283 C3279 0.950 . S
H3284 C3281 0.950 . S
C3285 C3276 1.390 1_545 S
C3285 H3278 0.950 . S
C3285 C3282 1.387 . S
C3286 C3287 1.387 . S
C3286 H3290 0.950 . S
C3286 C3295 1.390 . S
C3287 C3286 1.387 . S
C3287 C3289 1.387 . S
H3288 C3295 0.950 . S
C3289 C3287 1.387 . S
C3289 C3291 1.390 . S
C3289 H3293 0.950 . S
H3290 C3286 0.950 . S
C3291 C3289 1.390 . S
C3291 C3292 1.387 . S
C3291 H3294 0.950 . S
C3292 C3291 1.387 . S
C3292 C3295 1.387 . S
H3293 C3289 0.950 . S
H3294 C3291 0.950 . S
C3295 C3286 1.390 . S
C3295 H3288 0.950 . S
C3295 C3292 1.387 . S
C3296 C3297 1.387 . S
C3296 H3300 0.950 . S
C3296 C3305 1.390 . S
C3297 C3296 1.387 . S
C3297 C3299 1.387 . S
H3298 C3305 0.950 . S
C3299 C3297 1.387 . S
C3299 C3301 1.390 . S
C3299 H3303 0.950 . S
H3300 C3296 0.950 . S
C3301 C3299 1.390 . S
C3301 C3302 1.387 . S
C3301 H3304 0.950 . S
C3302 C3301 1.387 . S
C3302 C3305 1.387 . S
H3303 C3299 0.950 . S
H3304 C3301 0.950 . S
C3305 C3296 1.390 . S
C3305 H3298 0.950 . S
C3305 C3302 1.387 . S
C3306 C3307 1.387 . S
C3306 H3310 0.950 . S
C3306 C3315 1.390 . S
C3307 C3306 1.387 . S
C3307 C3309 1.387 . S
H3308 C3315 0.950 . S
C3309 C3307 1.387 . S
C3309 C3311 1.390 . S
C3309 H3313 0.950 . S
H3310 C3306 0.950 . S
C3311 C3309 1.390 . S
C3311 C3312 1.387 . S
C3311 H3314 0.950 . S
C3312 C3311 1.387 . S
C3312 C3315 1.387 . S
H3313 C3309 0.950 . S
H3314 C3311 0.950 . S
C3315 C3306 1.390 . S
C3315 H3308 0.950 . S
C3315 C3312 1.387 . S
C3316 C3317 1.387 . S
C3316 H3320 0.950 . S
C3316 C3325 1.390 1_545 S
C3317 C3316 1.387 . S
C3317 C3319 1.387 . S
H3318 C3325 0.950 . S
C3319 C3317 1.387 . S
C3319 C3321 1.390 1_545 S
C3319 H3323 0.950 . S
H3320 C3316 0.950 . S
C3321 C3319 1.390 1_565 S
C3321 C3322 1.387 . S
C3321 H3324 0.950 . S
C3322 C3321 1.387 . S
C3322 C3325 1.387 . S
H3323 C3319 0.950 . S
H3324 C3321 0.950 . S
C3325 C3316 1.390 1_565 S
C3325 H3318 0.950 . S
C3325 C3322 1.387 . S
C3326 C3327 1.387 . S
C3326 H3330 0.950 . S
C3326 C3335 1.390 . S
C3327 C3326 1.387 . S
C3327 C3329 1.387 . S
H3328 C3335 0.950 . S
C3329 C3327 1.387 . S
C3329 C3331 1.390 . S
C3329 H3333 0.950 . S
H3330 C3326 0.950 . S
C3331 C3329 1.390 . S
C3331 C3332 1.387 . S
C3331 H3334 0.950 . S
C3332 C3331 1.387 . S
C3332 C3335 1.387 . S
H3333 C3329 0.950 . S
H3334 C3331 0.950 . S
C3335 C3326 1.390 . S
C3335 H3328 0.950 . S
C3335 C3332 1.387 . S
C3336 C3337 1.387 . S
C3336 H3340 0.950 . S
C3336 C3345 1.390 . S
C3337 C3336 1.387 . S
C3337 C3339 1.387 . S
H3338 C3345 0.950 . S
C3339 C3337 1.387 . S
C3339 C3341 1.390 . S
C3339 H3343 0.950 . S
H3340 C3336 0.950 . S
C3341 C3339 1.390 . S
C3341 C3342 1.387 . S
C3341 H3344 0.950 . S
C3342 C3341 1.387 . S
C3342 C3345 1.387 . S
H3343 C3339 0.950 . S
H3344 C3341 0.950 . S
C3345 C3336 1.390 . S
C3345 H3338 0.950 . S
C3345 C3342 1.387 . S
C3346 C3347 1.387 . S
C3346 H3350 0.950 . S
C3346 C3355 1.390 . S
C3347 C3346 1.387 . S
C3347 C3349 1.387 . S
H3348 C3355 0.950 . S
C3349 C3347 1.387 . S
C3349 C3351 1.390 . S
C3349 H3353 0.950 . S
H3350 C3346 0.950 . S
C3351 C3349 1.390 . S
C3351 C3352 1.387 . S
C3351 H3354 0.950 . S
C3352 C3351 1.387 . S
C3352 C3355 1.387 . S
H3353 C3349 0.950 . S
H3354 C3351 0.950 . S
C3355 C3346 1.390 . S
C3355 H3348 0.950 . S
C3355 C3352 1.387 . S
C3356 C3357 1.387 . S
C3356 H3360 0.950 . S
C3356 C3365 1.390 . S
C3357 C3356 1.387 . S
C3357 C3359 1.387 . S
H3358 C3365 0.950 . S
C3359 C3357 1.387 . S
C3359 C3361 1.390 . S
C3359 H3363 0.950 . S
H3360 C3356 0.950 . S
C3361 C3359 1.390 . S
C3361 C3362 1.387 . S
C3361 H3364 0.950 . S
C3362 C3361 1.387 . S
C3362 C3365 1.387 . S
H3363 C3359 0.950 . S
H3364 C3361 0.950 . S
C3365 C3356 1.390 . S
C3365 H3358 0.950 . S
C3365 C3362 1.387 . S
C3366 C3367 1.387 . S
C3366 H3370 0.950 . S
C3366 C3375 1.390 . S
C3367 C3366 1.387 . S
C3367 C3369 1.387 . S
H3368 C3375 0.950 . S
C3369 C3367 1.387 . S
C3369 C3371 1.390 . S
C3369 H3373 0.950 . S
H3370 C3366 0.950 . S
C3371 C3369 1.390 . S
C3371 C3372 1.387 . S
C3371 H3374 0.950 . S
C3372 C3371 1.387 . S
C3372 C3375 1.387 . S
H3373 C3369 0.950 . S
H3374 C3371 0.950 . S
C3375 C3366 1.390 . S
C3375 H3368 0.950 . S
C3375 C3372 1.387 . S
C3376 C3377 1.387 . S
C3376 H3380 0.950 . S
C3376 C3385 1.390 1_565 S
C3377 C3376 1.387 . S
C3377 C3379 1.387 . S
H3378 C3385 0.950 . S
C3379 C3377 1.387 . S
C3379 C3381 1.390 1_565 S
C3379 H3383 0.950 . S
H3380 C3376 0.950 . S
C3381 C3379 1.390 1_545 S
C3381 C3382 1.387 . S
C3381 H3384 0.950 . S
C3382 C3381 1.387 . S
C3382 C3385 1.387 . S
H3383 C3379 0.950 . S
H3384 C3381 0.950 . S
C3385 C3376 1.390 1_545 S
C3385 H3378 0.950 . S
C3385 C3382 1.387 . S
C3386 C3387 1.387 . S
C3386 H3390 0.950 . S
C3386 C3395 1.390 . S
C3387 C3386 1.387 . S
C3387 C3389 1.387 . S
H3388 C3395 0.950 . S
C3389 C3387 1.387 . S
C3389 C3391 1.390 . S
C3389 H3393 0.950 . S
H3390 C3386 0.950 . S
C3391 C3389 1.390 . S
C3391 C3392 1.387 . S
C3391 H3394 0.950 . S
C3392 C3391 1.387 . S
C3392 C3395 1.387 . S
H3393 C3389 0.950 . S
H3394 C3391 0.950 . S
C3395 C3386 1.390 . S
C3395 H3388 0.950 . S
C3395 C3392 1.387 . S
C3396 C3397 1.387 . S
C3396 H3400 0.950 . S
C3396 C3405 1.390 . S
C3397 C3396 1.387 . S
C3397 C3399 1.387 . S
H3398 C3405 0.950 . S
C3399 C3397 1.387 . S
C3399 C3401 1.390 . S
C3399 H3403 0.950 . S
H3400 C3396 0.950 . S
C3401 C3399 1.390 . S
C3401 C3402 1.387 . S
C3401 H3404 0.950 . S
C3402 C3401 1.387 . S
C3402 C3405 1.387 . S
H3403 C3399 0.950 . S
H3404 C3401 0.950 . S
C3405 C3396 1.390 . S
C3405 H3398 0.950 . S
C3405 C3402 1.387 . S
C3406 C3407 1.387 . S
C3406 H3410 0.950 . S
C3406 C3415 1.390 . S
C3407 C3406 1.387 . S
C3407 C3409 1.387 . S
H3408 C3415 0.950 . S
C3409 C3407 1.387 . S
C3409 C3411 1.390 . S
C3409 H3413 0.950 . S
H3410 C3406 0.950 . S
C3411 C3409 1.390 . S
C3411 C3412 1.387 . S
C3411 H3414 0.950 . S
C3412 C3411 1.387 . S
C3412 C3415 1.387 . S
H3413 C3409 0.950 . S
H3414 C3411 0.950 . S
C3415 C3406 1.390 . S
C3415 H3408 0.950 . S
C3415 C3412 1.387 . S
C3416 C3417 1.387 . S
C3416 H3420 0.950 . S
C3416 C3425 1.390 . S
C3417 C3416 1.387 . S
C3417 C3419 1.387 . S
H3418 C3425 0.950 . S
C3419 C3417 1.387 . S
C3419 C3421 1.390 . S
C3419 H3423 0.950 . S
H3420 C3416 0.950 . S
C3421 C3419 1.390 . S
C3421 C3422 1.387 . S
C3421 H3424 0.950 . S
C3422 C3421 1.387 . S
C3422 C3425 1.387 . S
H3423 C3419 0.950 . S
H3424 C3421 0.950 . S
C3425 C3416 1.390 . S
C3425 H3418 0.950 . S
C3425 C3422 1.387 . S
C3426 C3427 1.387 . S
C3426 H3430 0.950 . S
C3426 C3435 1.390 . S
C3427 C3426 1.387 . S
C3427 C3429 1.387 . S
H3428 C3435 0.950 . S
C3429 C3427 1.387 . S
C3429 C3431 1.390 . S
C3429 H3433 0.950 . S
H3430 C3426 0.950 . S
C3431 C3429 1.390 . S
C3431 C3432 1.387 . S
C3431 H3434 0.950 . S
C3432 C3431 1.387 . S
C3432 C3435 1.387 . S
H3433 C3429 0.950 . S
H3434 C3431 0.950 . S
C3435 C3426 1.390 . S
C3435 H3428 0.950 . S
C3435 C3432 1.387 . S
C3436 C3437 1.387 . S
C3436 H3440 0.950 . S
C3436 C3445 1.390 . S
C3437 C3436 1.387 . S
C3437 C3439 1.387 . S
H3438 C3445 0.950 . S
C3439 C3437 1.387 . S
C3439 C3441 1.390 . S
C3439 H3443 0.950 . S
H3440 C3436 0.950 . S
C3441 C3439 1.390 . S
C3441 C3442 1.387 . S
C3441 H3444 0.950 . S
C3442 C3441 1.387 . S
C3442 C3445 1.387 . S
H3443 C3439 0.950 . S
H3444 C3441 0.950 . S
C3445 C3436 1.390 . S
C3445 H3438 0.950 . S
C3445 C3442 1.387 . S
C3446 C3447 1.387 . S
C3446 H3450 0.950 . S
C3446 C3455 1.390 . S
C3447 C3446 1.387 . S
C3447 C3449 1.387 . S
H3448 C3455 0.950 . S
C3449 C3447 1.387 . S
C3449 C3451 1.390 . S
C3449 H3453 0.950 . S
H3450 C3446 0.950 . S
C3451 C3449 1.390 . S
C3451 C3452 1.387 . S
C3451 H3454 0.950 . S
C3452 C3451 1.387 . S
C3452 C3455 1.387 . S
H3453 C3449 0.950 . S
H3454 C3451 0.950 . S
C3455 C3446 1.390 . S
C3455 H3448 0.950 . S
C3455 C3452 1.387 . S
C1537 C500 2.075 1_545 S
C1542 C18 1.877 . S
C1547 C596 2.077 . S
C1552 C50 1.843 . S
C1557 C81 2.081 . S
C1562 C438 2.121 . S
C1567 C469 2.209 . S
C1572 C113 2.194 . S
C1577 C789 2.145 . S
C1582 C144 2.344 . S
C1587 C1110 1.828 1_554 S
C1592 C183 1.946 . S
C1597 C215 2.048 . S
C1602 C1427 2.034 . S
C1607 C1139 1.930 . S
C1612 C240 1.992 . S
C1617 C279 1.929 . S
C1622 C84 1.991 . S
C1627 C305 2.144 . S
C1632 C116 2.344 . S
C1637 C338 1.828 . S
C1642 C19 1.946 . S
C1647 C375 2.034 . S
C1652 C51 2.048 . S
C1657 C214 1.848 . S
C1662 C272 2.079 . S
C1667 C245 2.083 . S
C1672 C306 2.121 . S
C1677 C337 2.209 . S
C1682 C149 2.194 . S
C1687 C182 1.877 . S
C1692 C368 2.075 . S
C1697 C402 2.012 1_655 S
C1702 C949 2.093 . S
C1707 C278 1.825 . S
C1712 C439 1.972 . S
C1717 C308 2.029 . S
C1722 C464 2.036 . S
C1727 C339 2.112 . S
C1732 C497 2.039 . S
C1737 C1334 2.016 . S
C1742 C529 2.092 . S
C1747 C560 2.029 . S
C1752 C1044 2.036 . S
C1757 C853 2.037 . S
C1762 C471 2.112 . S
C1767 C915 1.971 . S
C1772 C594 1.824 . S
C1777 C848 2.073 1_565 S
C1782 C246 1.875 . S
C1787 C944 2.077 . S
C1792 C630 1.843 . S
C1797 C818 2.123 . S
C1802 C661 2.085 . S
C1807 C691 1.945 . S
C1812 C1042 1.825 1_556 S
C1817 C1463 2.034 . S
C1822 C723 2.048 . S
C1827 C1271 1.930 . S
C1832 C20 1.992 . S
C1837 C755 1.929 . S
C1842 C656 1.991 . S
C1847 C470 1.825 . S
C1852 C247 1.945 . S
C1857 C403 2.034 . S
C1862 C631 2.048 . S
C1867 C722 1.847 . S
C1872 C756 2.079 . S
C1877 C790 2.123 . S
C1882 C17 2.084 . S
C1887 C404 2.073 . S
C1892 C690 1.876 . S
C1897 C593 2.092 . S
C1902 C374 2.012 1_455 S
C1907 C754 1.825 . S
C1912 C819 1.972 . S
C1917 C340 2.036 . S
C1922 C784 2.029 . S
C1927 C885 2.092 . S
C1932 C1362 2.016 . S
C1937 C916 2.029 . S
C1942 C1104 2.036 . S
C1947 C567 1.972 . S
C1952 C950 1.825 . S
C1957 C114 1.848 . S
C1962 C1140 2.079 . S
C1967 C1078 2.122 . S
C1972 C977 2.081 . S
C1977 C49 2.192 . S
C1982 C1109 2.211 . S
C1987 C624 2.344 . S
C1992 C565 2.145 . S
C1997 C1363 2.034 . S
C2002 C1015 2.048 . S
C2007 C595 1.928 . S
C2012 C176 1.991 . S
C2017 C887 1.930 . S
C2022 C980 1.992 . S
C2027 C913 2.146 . S
C2032 C52 2.345 . S
C2037 C855 2.034 . S
C2042 C115 2.048 . S
C2047 C1014 1.848 . S
C2052 C880 2.079 . S
C2057 C181 2.083 . S
C2062 C914 2.124 . S
C2067 C629 2.192 . S
C2072 C1041 2.211 . S
C2077 C1269 2.093 . S
C2082 C498 2.015 1_655 S
C2087 C886 1.822 . S
C2092 C1079 1.972 . S
C2097 C1043 2.112 . S
C2102 C401 2.037 . S
C2107 C1462 2.016 . S
C2112 C753 2.093 . S
C2117 C1111 2.112 . S
C2122 C373 2.039 . S
C2127 C1138 1.825 . S
C2132 C307 1.972 . S
C2137 C1264 2.077 . S
C2142 C150 1.843 . S
C2147 C1234 2.121 . S
C2152 C1173 2.082 . S
C2157 C1335 2.033 . S
C2162 C1203 2.049 . S
C2167 C951 1.930 . S
C2172 C692 1.992 . S
C2177 C1168 1.991 . S
C2182 C531 1.928 . S
C2187 C151 2.048 . S
C2192 C499 2.034 . S
C2197 C532 2.079 . S
C2202 C1202 1.848 . S
C2207 C689 2.082 . S
C2212 C566 2.121 . S
C2217 C854 2.012 1_455 S
C2222 C1137 2.093 . S
C2227 C530 1.822 . S
C2232 C1235 1.972 . S
C2237 C1426 2.013 . S
C2242 C277 2.093 . S
C2247 C791 1.971 . S
C2252 C1270 1.821 . S
C2257 C1428 2.073 1_545 S
C2262 C82 1.875 . S
C2267 C1397 2.209 . S
C2272 C721 2.194 . S
C2277 C208 2.344 . S
C2282 C437 2.145 . S
C2287 C1526 1.825 . S
C2292 C1175 1.945 . S
C2297 C724 2.343 . S
C2302 C817 2.143 . S
C2307 C83 1.946 . S
C2312 C1298 1.825 1_556 S
C2317 C213 2.192 . S
C2322 C1297 2.211 . S
C2327 C1174 1.875 . S
C2332 C1328 2.074 . S
C2337 C820 2.029 . S
C2342 C1392 2.036 . S
C2347 C1425 2.039 . S
C2352 C1299 2.112 . S
C2357 C1492 2.036 . S
C2362 C1072 2.029 . S
C2367 C1461 2.039 . S
C2372 C1399 2.112 . S
C2377 C662 1.876 . S
C2382 C1456 2.073 1_565 S
C2387 C979 1.945 . S
C2392 C1490 1.825 . S
C2397 C663 1.945 . S
C2402 C1398 1.825 1_554 S
C2407 C978 1.876 . S
C2412 C1364 2.074 . S
C2417 C432 2.029 . S
C2422 C1300 2.036 . S
C2427 C1520 2.036 . S
C2432 C1236 2.029 . S
C2437 C1525 2.210 . S
C2442 C1201 2.194 . S
C2447 C1008 2.344 . S
C2452 C1077 2.144 . S
C2457 C1204 2.344 . S
C2462 C1233 2.144 . S
C2467 C1013 2.194 . S
C2472 C1489 2.209 . S
C2477 C1361 2.039 . S
C2482 C1491 2.112 . S
C2487 C1333 2.039 . S
C2492 C1527 2.112 . S
C2497 C1142 1.551 . S
C2502 C21 1.444 . S
C2507 C788 1.556 . S
C2512 C53 1.641 . S
C2517 C1107 0.903 . S
C2522 C86 1.044 . S
C2527 C1430 0.984 . S
C2532 C118 0.982 . S
C2537 C147 1.461 . S
C2542 C597 1.398 . S
C2547 C180 1.528 . S
C2552 C435 1.486 . S
C2557 C212 2.195 . S
C2562 C468 2.180 . S
C2567 C243 1.480 . S
C2572 C501 1.503 . S
C2577 C276 1.460 . S
C2582 C1459 1.650 . S
C2587 C947 1.018 . S
C2592 C310 1.116 . S
C2597 C1237 1.591 . S
C2602 C341 1.587 . S
C2607 C1494 1.885 . S
C2612 C372 1.677 . S
C2617 C275 1.018 . S
C2622 C1238 1.116 . S
C2627 C309 1.593 . S
C2632 C1493 1.590 . S
C2637 C342 1.885 . S
C2642 C1460 1.676 . S
C2647 C948 1.464 . S
C2652 C371 1.649 . S
C2657 C179 1.480 . S
C2662 C405 1.504 . S
C2667 C436 1.555 . S
C2672 C1205 1.643 . S
C2677 C467 0.895 . S
C2682 C982 1.040 . S
C2687 C502 0.984 . S
C2692 C726 0.982 . S
C2697 C534 1.549 . S
C2702 C981 1.440 . S
C2707 C563 1.485 . S
C2712 C660 1.529 . S
C2717 C1266 1.550 . S
C2722 C241 1.444 . S
C2727 C304 1.556 . S
C2732 C625 1.641 . S
C2737 C1047 0.904 . S
C2742 C658 1.044 . S
C2747 C1458 0.984 . S
C2752 C146 0.982 . S
C2757 C945 1.401 . S
C2762 C119 1.463 . S
C2767 C823 1.489 . S
C2772 C688 1.529 . S
C2777 C720 2.194 . S
C2782 C336 2.180 . S
C2787 C23 1.481 . S
C2792 C849 1.502 . S
C2797 C1431 1.651 . S
C2802 C752 1.460 . S
C2807 C786 1.116 . S
C2812 C599 1.018 . S
C2817 C465 1.588 . S
C2822 C1073 1.595 . S
C2827 C1522 1.885 . S
C2832 C400 1.677 . S
C2837 C759 1.018 . S
C2842 C1074 1.116 . S
C2847 C785 1.595 . S
C2852 C1521 1.589 . S
C2857 C466 1.884 . S
C2862 C1424 1.675 . S
C2867 C407 1.650 . S
C2872 C592 1.460 . S
C2877 C695 1.481 . S
C2882 C369 1.503 . S
C2887 C816 1.556 . S
C2892 C1009 1.641 . S
C2897 C1170 1.039 . S
C2902 C343 0.896 . S
C2907 C210 0.982 . S
C2912 C850 0.984 . S
C2917 C1169 1.442 . S
C2922 C882 1.549 . S
C2927 C80 1.528 . S
C2932 C919 1.489 . S
C2937 C598 1.548 . S
C2942 C693 1.440 . S
C2947 C564 1.554 . S
C2952 C117 1.643 . S
C2957 C1366 0.984 . S
C2962 C54 0.982 . S
C2967 C627 1.464 . S
C2972 C1141 1.400 . S
C2977 C1075 1.489 . S
C2982 C244 1.530 . S
C2987 C1108 2.179 . S
C2992 C1012 2.195 . S
C2997 C884 1.460 . S
C3002 C1331 1.650 . S
C3007 C918 1.116 . S
C3012 C1267 1.018 . S
C3017 C1045 1.586 . S
C3022 C821 1.594 . S
C3027 C852 1.679 . S
C3032 C1302 1.886 . S
C3037 C883 1.024 . S
C3042 C822 1.120 . S
C3047 C917 1.595 . S
C3052 C1301 1.588 . S
C3057 C1332 1.680 . S
C3062 C1046 1.886 . S
C3067 C1268 1.465 . S
C3072 C851 1.650 . S
C3077 C725 1.641 . S
C3082 C1076 1.556 . S
C3087 C1206 0.982 . S
C3092 C406 0.984 . S
C3097 C758 1.550 . S
C3102 C85 1.444 . S
C3107 C787 1.485 . S
C3112 C1172 1.531 . S
C3117 C946 1.550 . S
C3122 C177 1.441 . S
C3127 C145 1.643 . S
C3132 C912 1.554 . S
C3137 C626 0.982 . S
C3142 C1330 0.984 . S
C3147 C55 1.464 . S
C3152 C1265 1.400 . S
C3157 C16 1.531 . S
C3162 C1239 1.488 . S
C3167 C1200 2.194 . S
C3172 C1040 2.181 . S
C3177 C528 1.460 . S
C3182 C1367 1.651 . S
C3187 C562 1.116 . S
C3192 C1143 1.018 . S
C3197 C433 1.594 . S
C3202 C1105 1.590 . S
C3207 C496 1.677 . S
C3212 C1394 1.885 . S
C3217 C434 1.117 . S
C3222 C535 1.018 . S
C3227 C561 1.595 . S
C3232 C1393 1.588 . S
C3237 C1106 1.886 . S
C3242 C1360 1.678 . S
C3247 C1136 1.460 . S
C3252 C503 1.650 . S
C3257 C209 1.643 . S
C3262 C1232 1.553 . S
C3267 C1010 0.982 . S
C3272 C370 0.984 . S
C3277 C657 1.444 . S
C3282 C274 1.551 . S
C3287 C976 1.529 . S
C3292 C311 1.489 . S
C3297 C1523 0.905 . S
C3302 C22 1.044 . S
C3307 C533 1.398 . S
C3312 C211 1.461 . S
C3317 C148 2.194 . S
C3322 C1396 2.181 . S
C3327 C1429 1.504 . S
C3332 C659 1.480 . S
C3337 C1171 1.479 . S
C3342 C1365 1.500 . S
C3347 C694 1.044 . S
C3352 C1395 0.905 . S
C3357 C242 1.039 . S
C3362 C1495 0.896 . S
C3367 C881 1.400 . S
C3372 C727 1.460 . S
C3377 C112 2.194 . S
C3382 C1296 2.181 . S
C3387 C87 1.481 . S
C3392 C1457 1.503 . S
C3397 C983 1.478 . S
C3402 C1329 1.504 . S
C3407 C178 1.044 . S
C3412 C1303 0.904 . S
C3417 C757 1.401 . S
C3422 C1011 1.463 . S
C3427 C1524 2.179 . S
C3432 C628 2.195 . S
C3437 C1207 1.460 . S
C3442 C273 1.399 . S
C3447 C1488 2.179 . S
C3452 C48 2.195 . S
