# Generated by pormake.
# Topology wne, (6)-cn, num edge types: 1
# Building blocks:
#     Node 0, Type 0, BuildingBlock: IZENUY_clean_sbu_0, # of connection points: 6
#     Node 1, Type 0, BuildingBlock: IZENUY_clean_sbu_0, # of connection points: 6
#     Node 2, Type 0, BuildingBlock: IZENUY_clean_sbu_0, # of connection points: 6
#     Node 3, Type 0, BuildingBlock: IZENUY_clean_sbu_0, # of connection points: 6
#     Node 4, Type 0, BuildingBlock: IZENUY_clean_sbu_0, # of connection points: 6
#     Node 5, Type 0, BuildingBlock: IZENUY_clean_sbu_0, # of connection points: 6
#     Node 6, Type 0, BuildingBlock: IZENUY_clean_sbu_0, # of connection points: 6
#     Node 7, Type 0, BuildingBlock: IZENUY_clean_sbu_0, # of connection points: 6
#     Node 8, Type 0, BuildingBlock: IZENUY_clean_sbu_0, # of connection points: 6
#     Node 9, Type 0, BuildingBlock: IZENUY_clean_sbu_0, # of connection points: 6
#     Node 10, Type 0, BuildingBlock: IZENUY_clean_sbu_0, # of connection points: 6
#     Node 11, Type 0, BuildingBlock: IZENUY_clean_sbu_0, # of connection points: 6
#     Node 12, Type 0, BuildingBlock: IZENUY_clean_sbu_0, # of connection points: 6
#     Node 13, Type 0, BuildingBlock: IZENUY_clean_sbu_0, # of connection points: 6
#     Node 14, Type 0, BuildingBlock: IZENUY_clean_sbu_0, # of connection points: 6
#     Node 15, Type 0, BuildingBlock: IZENUY_clean_sbu_0, # of connection points: 6
#     Node 16, Type 0, BuildingBlock: IZENUY_clean_sbu_0, # of connection points: 6
#     Node 17, Type 0, BuildingBlock: IZENUY_clean_sbu_0, # of connection points: 6
#     Node 18, Type 0, BuildingBlock: IZENUY_clean_sbu_0, # of connection points: 6
#     Node 19, Type 0, BuildingBlock: IZENUY_clean_sbu_0, # of connection points: 6
#     Node 20, Type 0, BuildingBlock: IZENUY_clean_sbu_0, # of connection points: 6
#     Node 21, Type 0, BuildingBlock: IZENUY_clean_sbu_0, # of connection points: 6
#     Node 22, Type 0, BuildingBlock: IZENUY_clean_sbu_0, # of connection points: 6
#     Node 23, Type 0, BuildingBlock: IZENUY_clean_sbu_0, # of connection points: 6
#     Node 24, Type 0, BuildingBlock: IZENUY_clean_sbu_0, # of connection points: 6
#     Node 25, Type 0, BuildingBlock: IZENUY_clean_sbu_0, # of connection points: 6
#     Node 26, Type 0, BuildingBlock: IZENUY_clean_sbu_0, # of connection points: 6
#     Node 27, Type 0, BuildingBlock: IZENUY_clean_sbu_0, # of connection points: 6
#     Node 28, Type 0, BuildingBlock: IZENUY_clean_sbu_0, # of connection points: 6
#     Node 29, Type 0, BuildingBlock: IZENUY_clean_sbu_0, # of connection points: 6
#     Node 30, Type 0, BuildingBlock: IZENUY_clean_sbu_0, # of connection points: 6
#     Node 31, Type 0, BuildingBlock: IZENUY_clean_sbu_0, # of connection points: 6
#     Node 32, Type 0, BuildingBlock: IZENUY_clean_sbu_0, # of connection points: 6
#     Node 33, Type 0, BuildingBlock: IZENUY_clean_sbu_0, # of connection points: 6
#     Node 34, Type 0, BuildingBlock: IZENUY_clean_sbu_0, # of connection points: 6
#     Node 35, Type 0, BuildingBlock: IZENUY_clean_sbu_0, # of connection points: 6
#     Edge 36, Type (0, 0), None
#     Edge 37, Type (0, 0), None
#     Edge 38, Type (0, 0), None
#     Edge 39, Type (0, 0), None
#     Edge 40, Type (0, 0), None
#     Edge 41, Type (0, 0), None
#     Edge 42, Type (0, 0), None
#     Edge 43, Type (0, 0), None
#     Edge 44, Type (0, 0), None
#     Edge 45, Type (0, 0), None
#     Edge 46, Type (0, 0), None
#     Edge 47, Type (0, 0), None
#     Edge 48, Type (0, 0), None
#     Edge 49, Type (0, 0), None
#     Edge 50, Type (0, 0), None
#     Edge 51, Type (0, 0), None
#     Edge 52, Type (0, 0), None
#     Edge 53, Type (0, 0), None
#     Edge 54, Type (0, 0), None
#     Edge 55, Type (0, 0), None
#     Edge 56, Type (0, 0), None
#     Edge 57, Type (0, 0), None
#     Edge 58, Type (0, 0), None
#     Edge 59, Type (0, 0), None
#     Edge 60, Type (0, 0), None
#     Edge 61, Type (0, 0), None
#     Edge 62, Type (0, 0), None
#     Edge 63, Type (0, 0), None
#     Edge 64, Type (0, 0), None
#     Edge 65, Type (0, 0), None
#     Edge 66, Type (0, 0), None
#     Edge 67, Type (0, 0), None
#     Edge 68, Type (0, 0), None
#     Edge 69, Type (0, 0), None
#     Edge 70, Type (0, 0), None
#     Edge 71, Type (0, 0), None
#     Edge 72, Type (0, 0), None
#     Edge 73, Type (0, 0), None
#     Edge 74, Type (0, 0), None
#     Edge 75, Type (0, 0), None
#     Edge 76, Type (0, 0), None
#     Edge 77, Type (0, 0), None
#     Edge 78, Type (0, 0), None
#     Edge 79, Type (0, 0), None
#     Edge 80, Type (0, 0), None
#     Edge 81, Type (0, 0), None
#     Edge 82, Type (0, 0), None
#     Edge 83, Type (0, 0), None
#     Edge 84, Type (0, 0), None
#     Edge 85, Type (0, 0), None
#     Edge 86, Type (0, 0), None
#     Edge 87, Type (0, 0), None
#     Edge 88, Type (0, 0), None
#     Edge 89, Type (0, 0), None
#     Edge 90, Type (0, 0), None
#     Edge 91, Type (0, 0), None
#     Edge 92, Type (0, 0), None
#     Edge 93, Type (0, 0), None
#     Edge 94, Type (0, 0), None
#     Edge 95, Type (0, 0), None
#     Edge 96, Type (0, 0), None
#     Edge 97, Type (0, 0), None
#     Edge 98, Type (0, 0), None
#     Edge 99, Type (0, 0), None
#     Edge 100, Type (0, 0), None
#     Edge 101, Type (0, 0), None
#     Edge 102, Type (0, 0), None
#     Edge 103, Type (0, 0), None
#     Edge 104, Type (0, 0), None
#     Edge 105, Type (0, 0), None
#     Edge 106, Type (0, 0), None
#     Edge 107, Type (0, 0), None
#     Edge 108, Type (0, 0), None
#     Edge 109, Type (0, 0), None
#     Edge 110, Type (0, 0), None
#     Edge 111, Type (0, 0), None
#     Edge 112, Type (0, 0), None
#     Edge 113, Type (0, 0), None
#     Edge 114, Type (0, 0), None
#     Edge 115, Type (0, 0), None
#     Edge 116, Type (0, 0), None
#     Edge 117, Type (0, 0), None
#     Edge 118, Type (0, 0), None
#     Edge 119, Type (0, 0), None
#     Edge 120, Type (0, 0), None
#     Edge 121, Type (0, 0), None
#     Edge 122, Type (0, 0), None
#     Edge 123, Type (0, 0), None
#     Edge 124, Type (0, 0), None
#     Edge 125, Type (0, 0), None
#     Edge 126, Type (0, 0), None
#     Edge 127, Type (0, 0), None
#     Edge 128, Type (0, 0), None
#     Edge 129, Type (0, 0), None
#     Edge 130, Type (0, 0), None
#     Edge 131, Type (0, 0), None
#     Edge 132, Type (0, 0), None
#     Edge 133, Type (0, 0), None
#     Edge 134, Type (0, 0), None
#     Edge 135, Type (0, 0), None
#     Edge 136, Type (0, 0), None
#     Edge 137, Type (0, 0), None
#     Edge 138, Type (0, 0), None
#     Edge 139, Type (0, 0), None
#     Edge 140, Type (0, 0), None
#     Edge 141, Type (0, 0), None
#     Edge 142, Type (0, 0), None
#     Edge 143, Type (0, 0), None
# Relax obj value: 0.281
# Max RMSD: 0.273
# Mean RMSD: 0.273
data_MOF--net-wne--node1-IZENUY_clean_sbu_0--edge1-none
_symmetry_space_group_name_H-M    P1
_symmetry_Int_Tables_number       1
_symmetry_cell_setting            triclinic
loop_
_symmetry_equiv_pos_as_xyz
'x, y, z'
_cell_length_a     28.087898
_cell_length_b     28.08769
_cell_length_c     18.778553
_cell_angle_alpha  90.000401
_cell_angle_beta   89.999696
_cell_angle_gamma 119.99957
loop_
_atom_site_label
_atom_site_type_symbol
_atom_site_fract_x
_atom_site_fract_y
_atom_site_fract_z
_atom_type_partial_charge
Fe0 Fe 0.30329 0.27417 1.0146 0.0
Fe1 Fe 0.3948 0.30118 0.12044 0.0
O2 O 0.32937 0.25492 0.08495 0.0
Fe3 Fe 0.28312 0.19446 0.13207 0.0
O4 O 0.28025 0.15248 0.06088 0.0
O5 O 0.26344 0.19944 0.97919 0.0
O6 O 0.3577 0.28494 0.95262 0.0
C7 C 0.40856 0.31509 0.96584 0.0
C8 C 0.21016 0.23084 0.0834 0.0
O9 O 0.42604 0.3273 0.03031 0.0
C10 C 0.3217 0.27206 0.23318 0.0
O11 O 0.33776 0.34653 0.03987 0.0
O12 O 0.37959 0.35248 0.13746 0.0
O13 O 0.21523 0.18892 0.09663 0.0
O14 O 0.25425 0.27256 0.07718 0.0
C15 C 0.39764 0.21602 0.15963 0.0
O16 O 0.37048 0.28517 0.21433 0.0
O17 O 0.28091 0.23455 0.20223 0.0
C18 C 0.35019 0.36459 0.10335 0.0
O19 O 0.41506 0.25117 0.11178 0.0
O20 O 0.34503 0.19111 0.17477 0.0
C21 C 0.26073 0.15398 1.00032 0.0
Fe22 Fe 0.88014 1.06003 1.01456 0.0
Fe23 Fe 0.85313 0.12452 0.12042 0.0
O24 O 0.89939 0.10537 0.08491 0.0
Fe25 Fe 0.95986 0.11959 0.13203 0.0
O26 O 1.00183 0.1587 0.06083 0.0
O27 O 0.95487 0.09492 0.97915 0.0
O28 O 0.86937 0.10368 0.9526 0.0
C29 C 0.83921 0.12438 0.96583 0.0
C30 C 0.9235 1.01025 0.08336 0.0
O31 O 0.82698 0.12962 0.0303 0.0
C32 C 0.88227 0.08055 0.23315 0.0
O33 O 0.80779 1.02213 0.03983 0.0
O34 O 0.80184 1.058 0.13744 0.0
O35 O 0.96541 1.05725 0.09658 0.0
O36 O 0.88177 1.01261 0.07713 0.0
C37 C 0.93827 0.21253 0.1596 0.0
O38 O 0.86915 0.11621 0.2143 0.0
O39 O 0.91978 0.07729 0.2022 0.0
C40 C 0.78973 1.01649 0.10332 0.0
O41 O 0.90311 0.19479 0.11175 0.0
O42 O 0.96319 0.18484 0.17473 0.0
C43 C 1.00033 0.13767 1.00028 0.0
Fe44 Fe 0.09427 0.85098 1.01459 0.0
Fe45 Fe 1.02977 0.75946 0.12043 0.0
O46 O 1.04893 0.82488 0.08493 0.0
Fe47 Fe 1.0347 0.87112 0.13205 0.0
O48 O 0.9956 0.87399 0.06084 0.0
O49 O 1.05939 0.89082 0.97918 0.0
O50 O 1.05064 0.79656 0.95261 0.0
C51 C 1.02993 0.7457 0.96583 0.0
C52 C 0.14404 0.94411 0.08341 0.0
O53 O 1.02467 0.72822 0.03029 0.0
C54 C 1.07373 0.83255 0.23317 0.0
O55 O 0.13217 0.81652 0.03986 0.0
O56 O 0.09628 0.77467 0.13745 0.0
O57 O 0.09704 0.93902 0.09663 0.0
O58 O 0.14169 0.90002 0.07718 0.0
C59 C 0.94176 0.7566 0.15961 0.0
O60 O 1.03807 0.78377 0.21431 0.0
O61 O 1.07699 0.87334 0.20223 0.0
C62 C 0.1378 0.80409 0.10335 0.0
O63 O 0.9595 0.73918 0.11176 0.0
O64 O 0.96945 0.8092 0.17474 0.0
C65 C 1.01664 0.89352 1.0003 0.0
Fe66 Fe 0.23165 0.25832 0.40346 0.0
Fe67 Fe 0.30478 0.26889 0.52596 0.0
O68 O 0.29068 0.29845 0.45303 0.0
Fe69 Fe 0.34571 0.35602 0.41624 0.0
O70 O 0.31248 0.39576 0.41455 0.0
O71 O 0.23863 0.32619 0.36377 0.0
O72 O 0.19087 0.25936 0.47546 0.0
C73 C 0.18715 0.23416 0.53339 0.0
C74 C 0.30839 0.28817 0.29927 0.0
O75 O 0.22853 0.22935 0.55405 0.0
C76 C 0.40192 0.30974 0.45282 0.0
O77 O 0.22078 0.18749 0.43654 0.0
O78 O 0.30406 0.22088 0.46136 0.0
O79 O 0.33172 0.33716 0.32141 0.0
O80 O 0.26831 0.25105 0.33163 0.0
C81 C 0.34562 0.37202 0.5719 0.0
O82 O 0.3813 0.30413 0.51428 0.0
O83 O 0.3743 0.31246 0.40622 0.0
C84 C 0.26085 0.17878 0.4499 0.0
O85 O 0.31152 0.32216 0.58553 0.0
O86 O 0.369 0.38587 0.5098 0.0
C87 C 0.27197 0.37947 0.37377 0.0
Fe88 Fe 0.88544 0.06681 0.52591 0.0
Fe89 Fe 0.7983 1.0206 0.4162 0.0
O90 O 0.85588 1.02315 0.453 0.0
Fe91 Fe 0.896 1.00424 0.40343 0.0
O92 O 0.89496 0.96242 0.47543 0.0
O93 O 0.92498 1.0301 0.55401 0.0
O94 O 0.83217 1.0203 0.58549 0.0
C95 C 0.78231 1.00455 0.57187 0.0
C96 C 0.97554 0.11299 0.44986 0.0
O97 O 0.76846 1.01406 0.50976 0.0
C98 C 0.86615 1.05111 0.29923 0.0
O99 O 0.85022 0.1081 0.51421 0.0
O100 O 0.84185 0.09275 0.40615 0.0
O101 O 0.96684 0.0642 0.43651 0.0
O102 O 0.93343 0.11408 0.46129 0.0
C103 C 0.77485 0.9234 0.37376 0.0
O104 O 0.81716 1.02545 0.32137 0.0
O105 O 0.90328 1.04817 0.33159 0.0
C106 C 0.8446 0.12311 0.45276 0.0
O107 O 0.75857 0.94764 0.41453 0.0
O108 O 0.82814 0.94335 0.36374 0.0
C109 C 0.92016 0.9839 0.53335 0.0
Fe110 Fe 1.08749 0.84949 0.52592 0.0
Fe111 Fe 0.13368 0.80854 0.41622 0.0
O112 O 0.13115 0.86357 0.45301 0.0
Fe113 Fe 0.15007 0.92261 0.40344 0.0
O114 O 0.19188 0.96338 0.47545 0.0
O115 O 0.12419 0.92573 0.55402 0.0
O116 O 0.13399 0.84273 0.58551 0.0
C117 C 0.14975 0.80863 0.57189 0.0
C118 C 1.04133 0.89343 0.44984 0.0
O119 O 0.14023 0.78525 0.50978 0.0
C120 C 0.10318 0.84588 0.29924 0.0
O121 O 1.04619 0.77297 0.51424 0.0
O122 O 1.06153 0.77996 0.40619 0.0
O123 O 1.09011 0.93349 0.4365 0.0
O124 O 1.04022 0.85022 0.46129 0.0
C125 C 0.23089 0.88226 0.37377 0.0
O126 O 0.12882 0.82253 0.32139 0.0
O127 O 0.10614 0.88596 0.33159 0.0
C128 C 1.03118 0.75234 0.45279 0.0
O129 O 0.20664 0.84174 0.41453 0.0
O130 O 0.21096 0.91561 0.36376 0.0
C131 C 0.1704 0.96711 0.53336 0.0
Fe132 Fe 0.89603 0.92264 0.90341 0.0
Fe133 Fe 0.8854 0.84948 0.02593 0.0
O134 O 0.85588 0.86361 0.95298 0.0
Fe135 Fe 0.79829 0.8086 0.91619 0.0
O136 O 0.75859 0.84186 0.91448 0.0
O137 O 0.82818 0.91569 0.8637 0.0
O138 O 0.89501 0.96344 0.97541 0.0
C139 C 0.92018 0.96712 0.03334 0.0
C140 C 0.86616 0.84589 0.79923 0.0
O141 O 0.92498 0.92573 0.05401 0.0
C142 C 0.8445 0.75232 0.9528 0.0
O143 O 0.96685 0.93348 0.93649 0.0
O144 O 0.93339 0.85014 0.96136 0.0
O145 O 0.81717 0.82258 0.82136 0.0
O146 O 0.90329 0.88596 0.83158 0.0
C147 C 0.78229 0.8087 0.07185 0.0
O148 O 0.85011 0.77295 1.01425 0.0
O149 O 0.84182 0.77996 0.90619 0.0
C150 C 0.97547 0.89335 0.94989 0.0
O151 O 0.83215 0.84279 0.08548 0.0
O152 O 0.76843 0.78533 1.00975 0.0
C153 C 0.77489 0.88237 0.8737 0.0
Fe154 Fe 0.23164 1.00425 0.90345 0.0
Fe155 Fe 0.3048 0.06678 0.02598 0.0
O156 O 0.29067 1.02314 0.95302 0.0
Fe157 Fe 0.34568 1.02056 0.91623 0.0
O158 O 0.31243 0.94761 0.91451 0.0
O159 O 0.23859 0.94336 0.86374 0.0
O160 O 0.19085 0.96243 0.97545 0.0
C161 C 0.18716 0.98392 0.03338 0.0
C162 C 0.30839 1.05114 0.79927 0.0
O163 O 0.22855 1.03012 0.05405 0.0
C164 C 0.40196 0.12304 0.95284 0.0
O165 O 0.2208 0.06424 0.93653 0.0
O166 O 0.30414 0.11412 0.96142 0.0
O167 O 0.3317 1.02546 0.82139 0.0
O168 O 0.26831 1.0482 0.83162 0.0
C169 C 0.34557 1.00444 0.07188 0.0
O170 O 0.38133 0.10801 1.0143 0.0
O171 O 0.3743 0.09272 0.90623 0.0
C172 C 0.26092 0.11298 0.94993 0.0
O173 O 0.31149 1.02021 0.08551 0.0
O174 O 0.36895 1.01397 1.00978 0.0
C175 C 0.27192 0.92339 0.87373 0.0
Fe176 Fe 0.1337 0.35604 0.91622 0.0
Fe177 Fe 0.15005 0.25833 0.90343 0.0
O178 O 0.13114 0.29846 0.95301 0.0
Fe179 Fe 1.08749 0.26892 0.02595 0.0
O180 O 0.13403 0.32217 0.0855 0.0
O181 O 0.14028 0.38589 1.00978 0.0
O182 O 0.20665 0.39577 0.9145 0.0
C183 C 0.23089 0.37948 0.87374 0.0
C184 C 1.03122 0.3098 0.95283 0.0
O185 O 0.21094 0.32619 0.86375 0.0
C186 C 1.04132 0.17886 0.94988 0.0
O187 O 0.1288 0.33717 0.82138 0.0
O188 O 0.10612 0.25106 0.83159 0.0
O189 O 1.04624 0.3042 1.01428 0.0
O190 O 1.06154 0.31248 0.90622 0.0
C191 C 0.17036 0.23417 0.03337 0.0
O192 O 1.09007 0.18749 0.93649 0.0
O193 O 1.04017 0.22093 0.96136 0.0
C194 C 0.10315 0.28818 0.79925 0.0
O195 O 0.19186 0.25936 0.97545 0.0
O196 O 0.12415 0.22934 0.05402 0.0
C197 C 0.14981 0.37203 0.07188 0.0
Fe198 Fe 0.95989 0.87117 0.63204 0.0
Fe199 Fe 0.88014 0.85095 0.51456 0.0
O200 O 0.89942 0.8249 0.58492 0.0
Fe201 Fe 0.85319 0.75947 0.62041 0.0
O202 O 0.90322 0.73925 0.61173 0.0
O203 O 0.96326 0.80928 0.67475 0.0
O204 O 1.00187 0.87405 0.56083 0.0
C205 C 1.00033 0.89356 0.50029 0.0
C206 C 0.88228 0.83257 0.73314 0.0
O207 O 0.95487 0.89083 0.47915 0.0
C208 C 0.78974 0.80403 0.60333 0.0
O209 O 0.96541 0.93905 0.59661 0.0
O210 O 0.88172 0.89999 0.57711 0.0
O211 O 0.86919 0.7838 0.7143 0.0
O212 O 0.9198 0.87337 0.70221 0.0
C213 C 0.83928 0.7457 0.46581 0.0
O214 O 0.80778 0.81645 0.53984 0.0
O215 O 0.80185 0.77462 0.63744 0.0
C216 C 0.92346 0.94405 0.58333 0.0
O217 O 0.86941 0.79655 0.4526 0.0
O218 O 0.82707 0.72822 0.53029 0.0
C219 C 0.93836 0.75667 0.65961 0.0
Fe220 Fe 0.28309 0.11957 0.63208 0.0
Fe221 Fe 0.30333 1.06005 0.51459 0.0
O222 O 0.32937 0.10538 0.58495 0.0
Fe223 Fe 0.3948 0.12458 0.62045 0.0
O224 O 0.41502 0.19483 0.61177 0.0
O225 O 0.34498 0.18483 0.67478 0.0
O226 O 0.28022 0.15868 0.56088 0.0
C227 C 0.26071 0.13763 0.50033 0.0
C228 C 0.32169 0.08056 0.73317 0.0
O229 O 0.26344 0.0949 0.47918 0.0
C230 C 0.35027 1.01657 0.60334 0.0
O231 O 0.21522 1.0572 0.59664 0.0
O232 O 0.2543 1.01259 0.57714 0.0
O233 O 0.37047 0.11625 0.71433 0.0
O234 O 0.2809 0.07728 0.70224 0.0
C235 C 0.40857 0.12445 0.46585 0.0
O236 O 0.33784 1.0222 0.53985 0.0
O237 O 0.37964 1.05808 0.63747 0.0
C238 C 0.21023 1.01026 0.58335 0.0
O239 O 0.35772 0.10373 0.45263 0.0
O240 O 0.42605 0.12971 0.53032 0.0
C241 C 0.39759 0.21255 0.65964 0.0
Fe242 Fe 0.09423 0.27419 0.51459 0.0
Fe243 Fe 1.02969 0.30114 0.62043 0.0
O244 O 1.04889 0.2549 0.58494 0.0
Fe245 Fe 1.03469 0.19444 0.63206 0.0
O246 O 0.99559 0.15245 0.56085 0.0
O247 O 1.05939 0.19946 0.47918 0.0
O248 O 1.05056 0.28491 0.45261 0.0
C249 C 1.02984 0.31504 0.46582 0.0
C250 C 0.14401 0.23087 0.58337 0.0
O251 O 1.02456 0.32725 0.53029 0.0
C252 C 1.07371 0.27205 0.73316 0.0
O253 O 0.13208 0.34654 0.53986 0.0
O254 O 0.09618 0.35248 0.63745 0.0
O255 O 0.09706 0.18892 0.59665 0.0
O256 O 0.14169 0.27261 0.57714 0.0
C257 C 0.94172 0.21597 0.65962 0.0
O258 O 1.03802 0.28514 0.71432 0.0
O259 O 1.07698 0.23453 0.70223 0.0
C260 C 0.1377 0.36459 0.60335 0.0
O261 O 0.95944 0.25111 0.61175 0.0
O262 O 0.96943 0.19107 0.67476 0.0
C263 C 1.01667 0.154 0.50031 0.0
Fe264 Fe 0.96998 0.60754 0.34787 0.0
Fe265 Fe 1.06152 0.63454 0.4537 0.0
O266 O 0.99608 0.58829 0.41821 0.0
Fe267 Fe 0.94984 0.52783 0.46534 0.0
O268 O 0.94698 0.48585 0.39414 0.0
O269 O 0.93016 0.53281 0.31245 0.0
O270 O 1.0244 0.61835 0.28588 0.0
C271 C 1.07526 0.64848 0.2991 0.0
C272 C 0.87684 0.56415 0.41667 0.0
O273 O 0.09275 0.66067 0.36357 0.0
C274 C 0.98843 0.60543 0.56646 0.0
O275 O 1.0044 0.67989 0.37317 0.0
O276 O 1.04635 0.68587 0.47073 0.0
O277 O 0.88194 0.52225 0.42991 0.0
O278 O 0.92091 0.60589 0.41044 0.0
C279 C 1.06436 0.5494 0.4929 0.0
O280 O 1.03721 0.61854 0.54759 0.0
O281 O 0.94763 0.56792 0.53551 0.0
C282 C 1.01686 0.69788 0.43667 0.0
O283 O 1.08177 0.58453 0.44501 0.0
O284 O 1.01176 0.5245 0.50804 0.0
C285 C 0.92745 0.48735 0.33359 0.0
Fe286 Fe 0.54673 0.39331 0.34789 0.0
Fe287 Fe 0.51974 0.45787 0.45371 0.0
O288 O 0.56598 0.43866 0.41823 0.0
Fe289 Fe 0.62644 0.45288 0.46537 0.0
O290 O 0.66842 0.49199 0.39418 0.0
O291 O 0.62146 0.42823 0.31247 0.0
O292 O 0.53593 0.43693 0.2859 0.0
C293 C 0.50581 0.45768 0.29911 0.0
C294 C 0.5901 0.34355 0.41669 0.0
O295 O 0.49363 0.46299 0.36357 0.0
C296 C 0.54883 0.41387 0.56648 0.0
O297 O 0.47437 0.35539 0.37319 0.0
O298 O 0.4684 0.39139 0.47073 0.0
O299 O 0.632 0.39055 0.42993 0.0
O300 O 0.54837 0.34589 0.41046 0.0
C301 C 0.60489 0.54584 0.49292 0.0
O302 O 0.53573 0.44955 0.54761 0.0
O303 O 0.58633 0.41057 0.53552 0.0
C304 C 0.45638 0.34987 0.4367 0.0
O305 O 0.56977 0.52812 0.44503 0.0
O306 O 0.62978 0.51813 0.50807 0.0
C307 C 0.66692 0.47097 0.33361 0.0
Fe308 Fe 0.76098 0.18432 0.34786 0.0
Fe309 Fe 0.69648 0.09277 0.4537 0.0
O310 O 0.71563 0.1582 0.41821 0.0
Fe311 Fe 0.70139 0.20442 0.46534 0.0
O312 O 0.66227 0.20727 0.39415 0.0
O313 O 0.72604 0.22411 0.31245 0.0
O314 O 0.71737 0.12989 0.28588 0.0
C315 C 0.69666 0.07903 0.2991 0.0
C316 C 0.81071 0.27745 0.41667 0.0
O317 O 0.69139 1.06155 0.36357 0.0
C318 C 0.74041 0.16586 0.56647 0.0
O319 O 0.79893 0.14991 0.37315 0.0
O320 O 0.76298 0.10799 0.47074 0.0
O321 O 0.76371 0.27233 0.4299 0.0
O322 O 0.80838 0.23338 0.41044 0.0
C323 C 0.60847 0.08989 0.49288 0.0
O324 O 0.70477 0.11708 0.54759 0.0
O325 O 0.7437 0.20665 0.5355 0.0
C326 C 0.80448 0.13746 0.43665 0.0
O327 O 0.62621 0.07248 0.44501 0.0
O328 O 0.63616 0.1425 0.50803 0.0
C329 C 0.68328 0.2268 0.33359 0.0
Fe330 Fe 0.97146 0.60223 0.85928 0.0
Fe331 Fe 1.01242 0.68936 0.74956 0.0
O332 O 0.95738 0.63178 0.78634 0.0
Fe333 Fe 0.89836 0.59166 0.73675 0.0
O334 O 0.85756 0.59268 0.80873 0.0
O335 O 0.89521 0.56267 0.88735 0.0
O336 O 0.9782 0.6555 0.91885 0.0
C337 C 1.01231 0.70536 0.90522 0.0
C338 C 0.92757 0.51212 0.78321 0.0
O339 O 1.03569 0.7192 0.84312 0.0
C340 C 0.97512 0.62152 0.63257 0.0
O341 O 1.04799 0.63747 0.84762 0.0
O342 O 1.04101 0.6458 0.73956 0.0
O343 O 0.88749 0.52082 0.76983 0.0
O344 O 0.97077 0.55423 0.79469 0.0
C345 C 0.93868 0.7128 0.70708 0.0
O346 O 0.99845 0.67051 0.65472 0.0
O347 O 0.93505 0.58439 0.66493 0.0
C348 C 1.06863 0.64308 0.78618 0.0
O349 O 0.97919 0.72909 0.74785 0.0
O350 O 0.90534 0.65952 0.69706 0.0
C351 C 0.85383 0.56748 0.86666 0.0
Fe352 Fe 0.5626 0.33759 0.73677 0.0
Fe353 Fe 0.55203 0.40012 0.8593 0.0
O354 O 0.52247 0.35648 0.78636 0.0
Fe355 Fe 0.46489 0.35393 0.74958 0.0
O356 O 0.42516 0.28097 0.74787 0.0
O357 O 0.49474 0.2767 0.69708 0.0
O358 O 0.56157 0.29576 0.80875 0.0
C359 C 0.58676 0.31722 0.86669 0.0
C360 C 0.53273 0.38447 0.63259 0.0
O361 O 0.59158 0.36342 0.88736 0.0
C362 C 0.51117 0.45642 0.78619 0.0
O363 O 0.63343 0.39755 0.76984 0.0
O364 O 0.60003 0.44742 0.79471 0.0
O365 O 0.48374 0.35881 0.65474 0.0
O366 O 0.56986 0.38153 0.66494 0.0
C367 C 0.4489 0.33782 0.90524 0.0
O368 O 0.51678 0.4414 0.84764 0.0
O369 O 0.50845 0.42608 0.73957 0.0
C370 C 0.64214 0.44633 0.78322 0.0
O371 O 0.49876 0.35358 0.91886 0.0
O372 O 0.43505 0.34736 0.84314 0.0
C373 C 0.44145 0.25675 0.7071 0.0
Fe374 Fe 0.75417 0.18282 0.85931 0.0
Fe375 Fe 0.80036 0.14189 0.74958 0.0
O376 O 0.7978 0.19691 0.78636 0.0
Fe377 Fe 0.81668 0.25593 0.73677 0.0
O378 O 0.85851 0.29673 0.80875 0.0
O379 O 0.79086 0.25907 0.88738 0.0
O380 O 0.80071 0.1761 0.91886 0.0
C381 C 0.81647 0.14199 0.90523 0.0
C382 C 0.70794 0.22671 0.78324 0.0
O383 O 0.80693 0.11861 0.84313 0.0
C384 C 0.76981 0.17918 0.63259 0.0
O385 O 0.71289 0.1063 0.84764 0.0
O386 O 0.7282 0.11329 0.73957 0.0
O387 O 0.75671 0.26679 0.76986 0.0
O388 O 0.70685 0.18351 0.79473 0.0
C389 C 0.89753 0.21564 0.70709 0.0
O390 O 0.79548 0.15586 0.65474 0.0
O391 O 0.77273 0.21924 0.66495 0.0
C392 C 0.69786 0.08566 0.78619 0.0
O393 O 0.87331 0.17512 0.74787 0.0
O394 O 0.87757 0.24897 0.69707 0.0
C395 C 0.83705 0.30046 0.86669 0.0
Fe396 Fe 0.46489 0.14189 0.24957 0.0
Fe397 Fe 0.56264 0.25592 0.23675 0.0
O398 O 0.52249 0.1969 0.28635 0.0
Fe399 Fe 0.55201 0.18279 0.3593 0.0
O400 O 0.49877 0.17612 0.41885 0.0
O401 O 0.43504 0.11864 0.34314 0.0
O402 O 0.42519 0.17516 0.24786 0.0
C403 C 0.4415 0.21567 0.20708 0.0
C404 C 0.51111 0.08563 0.28619 0.0
O405 O 0.49479 0.24898 0.19705 0.0
C406 C 0.64208 0.22663 0.28322 0.0
O407 O 0.48374 0.15584 0.15473 0.0
O408 O 0.56988 0.21921 0.16493 0.0
O409 O 0.51672 0.10626 0.34764 0.0
O410 O 0.50841 0.11326 0.23958 0.0
C411 C 0.58681 0.30043 0.36667 0.0
O412 O 0.63347 0.26675 0.26981 0.0
O413 O 0.6 0.18342 0.29474 0.0
C414 C 0.53273 0.17914 0.13258 0.0
O415 O 0.56164 0.29674 0.30873 0.0
O416 O 0.59161 0.25904 0.38735 0.0
C417 C 0.4489 0.14203 0.40523 0.0
Fe418 Fe 1.01238 0.3539 0.24955 0.0
Fe419 Fe 0.89834 0.33761 0.23672 0.0
O420 O 0.95736 0.35648 0.28632 0.0
Fe421 Fe 0.97147 0.40012 0.35928 0.0
O422 O 0.97815 0.35355 0.41882 0.0
O423 O 1.03563 0.3473 0.34312 0.0
O424 O 0.97912 0.28094 0.24783 0.0
C425 C 0.93861 0.25673 0.20705 0.0
C426 C 1.06864 0.45638 0.28618 0.0
O427 O 0.90529 0.2767 0.19703 0.0
C428 C 0.92763 0.44634 0.2832 0.0
O429 O 0.99842 0.3588 0.15471 0.0
O430 O 0.93505 0.38156 0.16491 0.0
O431 O 1.048 0.44135 0.34762 0.0
O432 O 1.04101 0.42606 0.23955 0.0
C433 C 0.85383 0.31727 0.36664 0.0
O434 O 0.8875 0.3976 0.26979 0.0
O435 O 0.97083 0.44746 0.29471 0.0
C436 C 0.97512 0.38449 0.13257 0.0
O437 O 0.85752 0.29579 0.30871 0.0
O438 O 0.89523 0.36346 0.38732 0.0
C439 C 1.01224 0.33777 0.40521 0.0
Fe440 Fe 0.75417 0.60225 0.3593 0.0
Fe441 Fe 0.80039 0.68935 0.24955 0.0
O442 O 0.7978 0.63175 0.28633 0.0
Fe443 Fe 0.81666 0.5916 0.23674 0.0
O444 O 0.85849 0.5926 0.30871 0.0
O445 O 0.79082 0.56265 0.38734 0.0
O446 O 0.80075 0.65549 0.41883 0.0
C447 C 0.81653 0.70536 0.4052 0.0
C448 C 0.70794 0.51217 0.28324 0.0
O449 O 0.807 0.71921 0.34311 0.0
C450 C 0.76979 0.6215 0.13257 0.0
O451 O 0.71294 0.63754 0.34764 0.0
O452 O 0.72823 0.64583 0.23957 0.0
O453 O 0.75667 0.52078 0.26981 0.0
O454 O 0.70681 0.55425 0.29475 0.0
C455 C 0.89755 0.71273 0.20705 0.0
O456 O 0.79548 0.67049 0.15472 0.0
O457 O 0.77271 0.58436 0.16492 0.0
C458 C 0.69791 0.64315 0.28619 0.0
O459 O 0.87335 0.72904 0.24783 0.0
O460 O 0.87757 0.65944 0.19703 0.0
C461 C 0.83701 0.56744 0.36666 0.0
Fe462 Fe 0.54673 0.18426 0.84789 0.0
Fe463 Fe 0.5198 0.09273 0.95371 0.0
O464 O 0.56601 0.1582 0.91824 0.0
Fe465 Fe 0.62646 0.20447 0.9654 0.0
O466 O 0.66847 0.20736 0.89421 0.0
O467 O 0.62147 0.22412 0.81249 0.0
O468 O 0.536 0.12987 0.7859 0.0
C469 C 0.50591 0.07901 0.7991 0.0
C470 C 0.59005 0.27736 0.91666 0.0
O471 O 0.49373 1.0615 0.86356 0.0
C472 C 0.54882 0.16583 0.06645 0.0
O473 O 0.47438 0.14978 0.87318 0.0
O474 O 0.4684 0.10779 0.97071 0.0
O475 O 0.63199 0.27236 0.92996 0.0
O476 O 0.54831 0.2333 0.91043 0.0
C477 C 0.60499 0.08999 0.99296 0.0
O478 O 0.53576 0.11706 0.04761 0.0
O479 O 0.58633 0.20665 0.03553 0.0
C480 C 0.45639 0.13731 0.93669 0.0
O481 O 0.56989 0.07258 0.94504 0.0
O482 O 0.62984 0.14259 1.00813 0.0
C483 C 0.66692 0.22686 0.83365 0.0
Fe484 Fe 0.94981 0.45291 0.96538 0.0
Fe485 Fe 0.97001 0.39336 0.84788 0.0
O486 O 0.99608 0.43871 0.91823 0.0
Fe487 Fe 1.06153 0.45795 0.95371 0.0
O488 O 1.08171 0.52819 0.94503 0.0
O489 O 1.0117 0.51816 1.0081 0.0
O490 O 0.94693 0.49202 0.89418 0.0
C491 C 0.92743 0.47097 0.83363 0.0
C492 C 0.98843 0.4139 0.06645 0.0
O493 O 0.93015 0.42824 0.81247 0.0
C494 C 1.01693 0.34996 0.93668 0.0
O495 O 0.88192 0.39056 0.92995 0.0
O496 O 0.92096 0.34591 0.91042 0.0
O497 O 1.03721 0.44959 0.04761 0.0
O498 O 0.94762 0.41061 0.03552 0.0
C499 C 1.07526 0.45777 0.7991 0.0
O500 O 1.00448 0.35548 0.87317 0.0
O501 O 1.04644 0.39148 0.97072 0.0
C502 C 0.87691 0.3436 0.91666 0.0
O503 O 1.0244 0.43701 0.7859 0.0
O504 O 0.09277 0.46309 0.86357 0.0
C505 C 1.0643 0.54589 0.99294 0.0
Fe506 Fe 0.76092 0.60753 0.84787 0.0
Fe507 Fe 0.69636 0.63449 0.95371 0.0
O508 O 0.71558 0.58826 0.91823 0.0
Fe509 Fe 0.70138 0.5278 0.96537 0.0
O510 O 0.66226 0.48581 0.89418 0.0
O511 O 0.72603 0.5328 0.81246 0.0
O512 O 0.71727 0.61828 0.7859 0.0
C513 C 0.69653 0.6484 0.7991 0.0
C514 C 0.81069 0.56419 0.91664 0.0
O515 O 0.69123 0.66059 0.86357 0.0
C516 C 0.74039 0.60542 0.06645 0.0
O517 O 0.79881 0.67989 0.87316 0.0
O518 O 0.76283 0.68585 0.97073 0.0
O519 O 0.76373 0.52225 0.92992 0.0
O520 O 0.80837 0.60594 0.91041 0.0
C521 C 0.60841 0.54933 0.99293 0.0
O522 O 0.70471 0.61851 0.04761 0.0
O523 O 0.74369 0.56791 0.03551 0.0
C524 C 0.80435 0.69788 0.93667 0.0
O525 O 0.62611 0.58444 0.94503 0.0
O526 O 0.63613 0.52445 1.00809 0.0
C527 C 0.6833 0.48735 0.83363 0.0
Fe528 Fe 0.63667 0.94088 0.68122 0.0
Fe529 Fe 0.7282 0.96786 0.78706 0.0
O530 O 0.66277 0.92162 0.75156 0.0
Fe531 Fe 0.61652 0.86114 0.79866 0.0
O532 O 0.61368 0.81918 0.72745 0.0
O533 O 0.59686 0.86615 0.64577 0.0
O534 O 0.6911 0.9517 0.61924 0.0
C535 C 0.74196 0.98182 0.63247 0.0
C536 C 0.54352 0.89747 0.75 0.0
O537 O 0.75945 0.994 0.69694 0.0
C538 C 0.65507 0.93874 0.89978 0.0
O539 O 0.67108 1.01323 0.70655 0.0
O540 O 0.71305 1.01919 0.8041 0.0
O541 O 0.54863 0.85557 0.76321 0.0
O542 O 0.58759 0.93921 0.74379 0.0
C543 C 0.73103 0.88271 0.82624 0.0
O544 O 0.70386 0.95184 0.88094 0.0
O545 O 0.61429 0.90121 0.86883 0.0
C546 C 0.68355 1.03121 0.77006 0.0
O547 O 0.74845 0.91785 0.77837 0.0
O548 O 0.67842 0.85779 0.84138 0.0
C549 C 0.59415 0.82069 0.6669 0.0
Fe550 Fe 0.21342 0.72667 0.68124 0.0
Fe551 Fe 0.18643 0.79121 0.78708 0.0
O552 O 0.23268 0.77203 0.75157 0.0
Fe553 Fe 0.29316 0.78627 0.79868 0.0
O554 O 0.33512 0.82538 0.72746 0.0
O555 O 0.28815 0.76159 0.6458 0.0
O556 O 0.2026 0.77028 0.61926 0.0
C557 C 0.17248 0.79102 0.63249 0.0
C558 C 0.25682 0.67693 0.75003 0.0
O559 O 0.1603 0.79632 0.69696 0.0
C560 C 0.21557 0.74722 0.8998 0.0
O561 O 0.14107 0.68874 0.70656 0.0
O562 O 0.13511 0.72472 0.80412 0.0
O563 O 0.29873 0.72393 0.76323 0.0
O564 O 0.21509 0.67927 0.74383 0.0
C565 C 0.27158 0.8792 0.82626 0.0
O566 O 0.20246 0.78289 0.88096 0.0
O567 O 0.2531 0.74397 0.86885 0.0
C568 C 0.12308 0.68321 0.77006 0.0
O569 O 0.23644 0.86147 0.7784 0.0
O570 O 0.2965 0.85151 0.84139 0.0
C571 C 0.33361 0.80434 0.66691 0.0
Fe572 Fe 0.42762 0.51766 0.68124 0.0
Fe573 Fe 0.36305 0.42614 0.78709 0.0
O574 O 0.38226 0.49158 0.75158 0.0
Fe575 Fe 0.36805 0.53784 0.79869 0.0
O576 O 0.32894 0.5407 0.72749 0.0
O577 O 0.39271 0.55748 0.6458 0.0
O578 O 0.38399 0.46323 0.61927 0.0
C579 C 0.36324 0.41237 0.6325 0.0
C580 C 0.47739 0.61081 0.75001 0.0
O581 O 0.35793 0.39489 0.69697 0.0
C582 C 0.40708 0.49927 0.89979 0.0
O583 O 0.46553 0.48323 0.70656 0.0
O584 O 0.42953 0.44127 0.80411 0.0
O585 O 0.43039 0.60573 0.76323 0.0
O586 O 0.47503 0.56673 0.74381 0.0
C587 C 0.27509 0.42335 0.82628 0.0
O588 O 0.37139 0.45049 0.88096 0.0
O589 O 0.41035 0.54006 0.86885 0.0
C590 C 0.47105 0.47076 0.77007 0.0
O591 O 0.2928 0.40592 0.7784 0.0
O592 O 0.3028 0.47595 0.84142 0.0
C593 C 0.34997 0.56021 0.66693 0.0
Fe594 Fe 0.63817 0.93556 0.19256 0.0
Fe595 Fe 0.67907 1.0227 0.08282 0.0
O596 O 0.62406 0.96511 0.11963 0.0
Fe597 Fe 0.56502 0.92498 0.07007 0.0
O598 O 0.52425 0.92602 0.14207 0.0
O599 O 0.56192 0.89601 0.22066 0.0
O600 O 0.64493 0.98883 0.25212 0.0
C601 C 0.67904 1.03869 0.23849 0.0
C602 C 0.59424 0.84544 0.1165 0.0
O603 O 0.7024 1.05254 0.17638 0.0
C604 C 0.64174 0.95485 0.96586 0.0
O605 O 0.71468 0.97078 0.18086 0.0
O606 O 0.70772 0.9792 0.07271 0.0
O607 O 0.55416 0.85415 0.10314 0.0
O608 O 0.63744 0.88755 0.12794 0.0
C609 C 0.6053 1.04612 0.04043 0.0
O610 O 0.66504 1.00384 0.98799 0.0
O611 O 0.60169 0.91771 0.99823 0.0
C612 C 0.73526 0.97639 0.11937 0.0
O613 O 0.64581 0.0624 0.0812 0.0
O614 O 0.57198 0.99283 0.03038 0.0
C615 C 0.52053 0.90082 0.19999 0.0
Fe616 Fe 0.21874 0.73347 0.19258 0.0
Fe617 Fe 0.13161 0.68725 0.08283 0.0
O618 O 0.1892 0.68983 0.11964 0.0
Fe619 Fe 0.22932 0.67091 0.07007 0.0
O620 O 0.22828 0.6291 0.14208 0.0
O621 O 0.25829 0.69678 0.22067 0.0
O622 O 0.16547 0.68695 0.25213 0.0
C623 C 0.11561 0.6712 0.23849 0.0
C624 C 0.30886 0.77966 0.11651 0.0
O625 O 0.10176 0.68072 0.17639 0.0
C626 C 0.19946 0.71777 0.96587 0.0
O627 O 0.18352 0.77477 0.18089 0.0
O628 O 0.17512 0.7594 0.07275 0.0
O629 O 0.30015 0.73088 0.10315 0.0
O630 O 0.26675 0.78076 0.12797 0.0
C631 C 0.10818 0.59006 0.04042 0.0
O632 O 0.15046 0.69209 0.988 0.0
O633 O 0.23659 0.71485 0.99824 0.0
C634 C 0.17791 0.78974 0.11941 0.0
O635 O 1.09189 0.61429 0.0812 0.0
O636 O 0.16146 0.61002 0.03039 0.0
C637 C 0.25348 0.65058 0.2 0.0
Fe638 Fe 0.48338 0.58931 0.07008 0.0
Fe639 Fe 0.42083 0.51617 0.19258 0.0
O640 O 0.46447 0.53027 0.11964 0.0
Fe641 Fe 0.46706 0.47526 0.08283 0.0
O642 O 0.54002 0.50853 0.08121 0.0
O643 O 0.54428 0.58235 0.03038 0.0
O644 O 0.5252 0.63009 0.14207 0.0
C645 C 0.50373 0.63381 0.2 0.0
C646 C 0.43652 0.51259 0.96588 0.0
O647 O 0.45753 0.59242 0.22067 0.0
C648 C 0.36457 0.41907 0.1194 0.0
O649 O 0.42341 0.60017 0.10317 0.0
O650 O 0.37354 0.51688 0.12797 0.0
O651 O 0.46221 0.48929 0.988 0.0
O652 O 0.43944 0.55265 0.99825 0.0
C653 C 0.4831 0.47531 0.23849 0.0
O654 O 0.37954 0.43965 0.18088 0.0
O655 O 0.39491 0.4466 0.07274 0.0
C656 C 0.37463 0.56009 0.11652 0.0
O657 O 0.46735 0.50942 0.25213 0.0
O658 O 0.47358 0.45194 0.17639 0.0
C659 C 0.56424 0.54903 0.04042 0.0
Fe660 Fe 0.21871 0.51616 0.69258 0.0
Fe661 Fe 0.13159 0.47531 0.58282 0.0
O662 O 0.1892 0.53029 0.61963 0.0
Fe663 Fe 0.22936 0.58933 0.57006 0.0
O664 O 0.22834 0.63013 0.64206 0.0
O665 O 0.2583 0.5924 0.72066 0.0
O666 O 0.16545 0.50947 0.75211 0.0
C667 C 0.11559 0.47538 0.73848 0.0
C668 C 0.30879 0.56003 0.61653 0.0
O669 O 0.10174 0.45201 0.67638 0.0
C670 C 0.19947 0.51259 0.46587 0.0
O671 O 0.18343 0.43964 0.6809 0.0
O672 O 0.17505 0.44661 0.57275 0.0
O673 O 0.30017 0.60016 0.60313 0.0
O674 O 0.2667 0.51682 0.62802 0.0
C675 C 0.10823 0.5491 0.54038 0.0
O676 O 0.15047 0.48931 0.48799 0.0
O677 O 0.23661 0.55265 0.49823 0.0
C678 C 0.17782 0.41906 0.61942 0.0
O679 O 1.09193 0.5086 0.58118 0.0
O680 O 0.16152 0.58241 0.53035 0.0
C681 C 0.25351 0.63381 0.69999 0.0
Fe682 Fe 0.56499 0.67093 0.57005 0.0
Fe683 Fe 0.63817 0.73346 0.69256 0.0
O684 O 0.62403 0.68982 0.61961 0.0
Fe685 Fe 0.67901 0.68718 0.58282 0.0
O686 O 0.6457 0.61422 0.58119 0.0
O687 O 0.57191 0.61001 0.53035 0.0
O688 O 0.52419 0.62912 0.64205 0.0
C689 C 0.52052 0.65062 0.69998 0.0
C690 C 0.64174 0.71778 0.46586 0.0
O691 O 0.56192 0.69681 0.72064 0.0
C692 C 0.73527 0.78966 0.6194 0.0
O693 O 0.55417 0.73094 0.60311 0.0
O694 O 0.63751 0.78079 0.62797 0.0
O695 O 0.66501 0.69205 0.48798 0.0
O696 O 0.60168 0.71487 0.49822 0.0
C697 C 0.67893 0.67112 0.73848 0.0
O698 O 0.71469 0.7747 0.68088 0.0
O699 O 0.70772 0.75934 0.57273 0.0
C700 C 0.59431 0.77968 0.6165 0.0
O701 O 0.64485 0.68691 0.75211 0.0
O702 O 0.7023 0.68063 0.67638 0.0
C703 C 0.6052 0.59002 0.54039 0.0
Fe704 Fe 0.48337 0.9249 0.57004 0.0
Fe705 Fe 0.42086 0.93558 0.69255 0.0
O706 O 0.4645 0.96507 0.6196 0.0
Fe707 Fe 0.46715 1.0227 0.5828 0.0
O708 O 0.54011 0.06233 0.58118 0.0
O709 O 0.54429 0.99273 0.53031 0.0
O710 O 0.52519 0.92591 0.64202 0.0
C711 C 0.5037 0.90076 0.69997 0.0
C712 C 0.43653 0.95481 0.46586 0.0
O713 O 0.45751 0.89598 0.72063 0.0
C714 C 0.36467 0.97649 0.61939 0.0
O715 O 0.42337 0.85409 0.60312 0.0
O716 O 0.37353 0.8876 0.62798 0.0
O717 O 0.46227 1.00381 0.48797 0.0
O718 O 0.43943 0.91766 0.49822 0.0
C719 C 0.48321 1.03869 0.73847 0.0
O720 O 0.37963 0.97087 0.68087 0.0
O721 O 0.39499 0.97929 0.57271 0.0
C722 C 0.37463 0.8455 0.61651 0.0
O723 O 0.46743 0.98883 0.75209 0.0
O724 O 0.47371 1.05256 0.67636 0.0
C725 C 0.56429 1.04602 0.54036 0.0
Fe726 Fe 0.29319 0.53784 0.2987 0.0
Fe727 Fe 0.21343 0.51763 0.18124 0.0
O728 O 0.23271 0.49157 0.25159 0.0
Fe729 Fe 0.18649 0.42612 0.28709 0.0
O730 O 0.23654 0.40592 0.2784 0.0
O731 O 0.29655 0.47595 0.34143 0.0
O732 O 0.33516 0.5407 0.2275 0.0
C733 C 0.33361 0.5602 0.16695 0.0
C734 C 0.21557 0.49926 0.39978 0.0
O735 O 0.28815 0.55748 0.14581 0.0
C736 C 0.12309 0.47071 0.27006 0.0
O737 O 0.29872 0.60572 0.26326 0.0
O738 O 0.21504 0.56668 0.24379 0.0
O739 O 0.20249 0.45048 0.38097 0.0
O740 O 0.2531 0.54005 0.36886 0.0
C741 C 0.17255 0.41237 0.13249 0.0
O742 O 0.14108 0.48317 0.20655 0.0
O743 O 0.13513 0.44124 0.30411 0.0
C744 C 0.25678 0.61074 0.24999 0.0
O745 O 0.20266 0.46322 0.11927 0.0
O746 O 0.16037 0.39487 0.19696 0.0
C747 C 0.27166 0.42335 0.3263 0.0
Fe748 Fe 0.61649 0.78626 0.29869 0.0
Fe749 Fe 0.63669 0.72669 0.18122 0.0
O750 O 0.66275 0.77205 0.25157 0.0
Fe751 Fe 0.7282 0.79127 0.28706 0.0
O752 O 0.7484 0.86152 0.27838 0.0
O753 O 0.67838 0.85151 0.34143 0.0
O754 O 0.61363 0.82537 0.22748 0.0
C755 C 0.59412 0.80431 0.16694 0.0
C756 C 0.65507 0.74721 0.39977 0.0
O757 O 0.59684 0.76157 0.1458 0.0
C758 C 0.68361 0.68329 0.27005 0.0
O759 O 0.5486 0.72391 0.26325 0.0
O760 O 0.58763 0.67925 0.24377 0.0
O761 O 0.70385 0.78291 0.38095 0.0
O762 O 0.61428 0.74396 0.36885 0.0
C763 C 0.74195 0.79109 0.13247 0.0
O764 O 0.67115 0.68881 0.20654 0.0
O765 O 0.71311 0.72481 0.30409 0.0
C766 C 0.54358 0.67695 0.24999 0.0
O767 O 0.6911 0.77033 0.11925 0.0
O768 O 0.75945 0.79641 0.19693 0.0
C769 C 0.73098 0.87922 0.32628 0.0
Fe770 Fe 0.4276 0.94085 0.18122 0.0
Fe771 Fe 0.363 0.96776 0.28708 0.0
O772 O 0.38225 0.92155 0.25158 0.0
Fe773 Fe 0.36806 0.86108 0.2987 0.0
O774 O 0.32895 0.8191 0.22749 0.0
O775 O 0.39273 0.86613 0.14579 0.0
O776 O 0.38394 0.95161 0.11926 0.0
C777 C 0.36317 0.9817 0.13249 0.0
C778 C 0.47738 0.89751 0.24997 0.0
O779 O 0.35785 0.99387 0.19696 0.0
C780 C 0.4071 0.93871 0.39977 0.0
O781 O 0.46547 1.0132 0.20655 0.0
O782 O 0.42946 1.01914 0.3041 0.0
O783 O 0.43042 0.85556 0.26324 0.0
O784 O 0.47505 0.93925 0.24376 0.0
C785 C 0.27508 0.88258 0.3263 0.0
O786 O 0.37138 0.95177 0.38096 0.0
O787 O 0.41036 0.90118 0.36884 0.0
C788 C 0.47099 1.03118 0.27006 0.0
O789 O 0.29277 0.91769 0.2784 0.0
O790 O 0.3028 0.8577 0.34144 0.0
C791 C 0.35 0.82066 0.16694 0.0
loop_
_geom_bond_atom_site_label_1
_geom_bond_atom_site_label_2
_geom_bond_distance
_geom_bond_site_symmetry_2
_ccdc_geom_bond_type
Fe0 O2 1.918 1_556 S
Fe0 O5 1.997 . S
Fe0 O6 2.002 . S
Fe0 O11 1.976 . S
Fe0 O14 1.996 . S
Fe1 O2 1.918 . S
Fe1 O9 1.997 . S
Fe1 O12 1.996 . S
Fe1 O16 1.976 . S
Fe1 O19 2.002 . S
O2 Fe0 1.918 1_554 S
O2 Fe1 1.918 . S
O2 Fe3 1.918 . S
Fe3 O2 1.918 . S
Fe3 O4 2.002 . S
Fe3 O13 1.976 . S
Fe3 O17 1.996 . S
Fe3 O20 1.997 . S
O4 Fe3 2.002 . S
O4 C21 1.295 1_554 S
O5 Fe0 1.997 . S
O5 C21 1.235 . S
O6 Fe0 2.002 . S
O6 C7 1.295 . S
C7 O6 1.295 . S
C7 O9 1.235 1_556 S
C8 O13 1.287 . S
C8 O14 1.255 1_554 S
O9 Fe1 1.997 . S
O9 C7 1.235 1_554 S
C10 O16 1.287 . S
C10 O17 1.255 . S
O11 Fe0 1.976 . S
O11 C18 1.287 1_556 S
O12 Fe1 1.996 . S
O12 C18 1.255 . S
O13 Fe3 1.976 . S
O13 C8 1.287 . S
O14 Fe0 1.996 . S
O14 C8 1.255 1_556 S
C15 O19 1.295 . S
C15 O20 1.235 . S
O16 Fe1 1.976 . S
O16 C10 1.287 . S
O17 Fe3 1.996 . S
O17 C10 1.255 . S
C18 O11 1.287 1_554 S
C18 O12 1.255 . S
O19 Fe1 2.002 . S
O19 C15 1.295 . S
O20 Fe3 1.997 . S
O20 C15 1.235 . S
C21 O4 1.295 1_556 S
C21 O5 1.235 . S
Fe22 O24 1.918 1_556 S
Fe22 O27 1.997 . S
Fe22 O28 2.002 . S
Fe22 O33 1.976 1_545 S
Fe22 O36 1.996 1_545 S
Fe23 O24 1.918 . S
Fe23 O31 1.997 . S
Fe23 O34 1.996 1_545 S
Fe23 O38 1.976 . S
Fe23 O41 2.002 . S
O24 Fe22 1.918 1_554 S
O24 Fe23 1.918 . S
O24 Fe25 1.918 . S
Fe25 O24 1.918 . S
Fe25 O26 2.002 . S
Fe25 O35 1.976 1_545 S
Fe25 O39 1.996 . S
Fe25 O42 1.997 . S
O26 Fe25 2.002 . S
O26 C43 1.295 1_554 S
O27 Fe22 1.997 . S
O27 C43 1.235 . S
O28 Fe22 2.002 . S
O28 C29 1.295 . S
C29 O28 1.295 . S
C29 O31 1.235 1_556 S
C30 O35 1.287 . S
C30 O36 1.255 1_554 S
O31 Fe23 1.997 . S
O31 C29 1.235 1_554 S
C32 O38 1.287 . S
C32 O39 1.255 . S
O33 Fe22 1.976 1_565 S
O33 C40 1.287 1_556 S
O34 Fe23 1.996 1_565 S
O34 C40 1.255 . S
O35 Fe25 1.976 1_565 S
O35 C30 1.287 . S
O36 Fe22 1.996 1_565 S
O36 C30 1.255 1_556 S
C37 O41 1.295 . S
C37 O42 1.235 . S
O38 Fe23 1.976 . S
O38 C32 1.287 . S
O39 Fe25 1.996 . S
O39 C32 1.255 . S
C40 O33 1.287 1_554 S
C40 O34 1.255 . S
O41 Fe23 2.002 . S
O41 C37 1.295 . S
O42 Fe25 1.997 . S
O42 C37 1.235 . S
C43 O26 1.295 1_556 S
C43 O27 1.235 . S
Fe44 O46 1.918 1_556 S
Fe44 O49 1.997 . S
Fe44 O50 2.002 . S
Fe44 O55 1.976 1_655 S
Fe44 O58 1.996 1_655 S
Fe45 O46 1.918 . S
Fe45 O53 1.997 . S
Fe45 O56 1.996 1_655 S
Fe45 O60 1.976 . S
Fe45 O63 2.002 . S
O46 Fe44 1.918 1_554 S
O46 Fe45 1.918 . S
O46 Fe47 1.918 . S
Fe47 O46 1.918 . S
Fe47 O48 2.002 . S
Fe47 O57 1.976 1_655 S
Fe47 O61 1.996 . S
Fe47 O64 1.997 . S
O48 Fe47 2.002 . S
O48 C65 1.295 1_554 S
O49 Fe44 1.997 . S
O49 C65 1.235 . S
O50 Fe44 2.002 . S
O50 C51 1.295 . S
C51 O50 1.295 . S
C51 O53 1.235 1_556 S
C52 O57 1.287 . S
C52 O58 1.255 1_554 S
O53 Fe45 1.997 . S
O53 C51 1.235 1_554 S
C54 O60 1.287 . S
C54 O61 1.255 . S
O55 Fe44 1.976 1_455 S
O55 C62 1.287 1_556 S
O56 Fe45 1.996 1_455 S
O56 C62 1.255 . S
O57 Fe47 1.976 1_455 S
O57 C52 1.287 . S
O58 Fe44 1.996 1_455 S
O58 C52 1.255 1_556 S
C59 O63 1.295 . S
C59 O64 1.235 . S
O60 Fe45 1.976 . S
O60 C54 1.287 . S
O61 Fe47 1.996 . S
O61 C54 1.255 . S
C62 O55 1.287 1_554 S
C62 O56 1.255 . S
O63 Fe45 2.002 . S
O63 C59 1.295 . S
O64 Fe47 1.997 . S
O64 C59 1.235 . S
C65 O48 1.295 1_556 S
C65 O49 1.235 . S
Fe66 O68 1.918 . S
Fe66 O71 1.997 . S
Fe66 O72 2.002 . S
Fe66 O77 1.976 . S
Fe66 O80 1.996 . S
Fe67 O68 1.918 . S
Fe67 O75 1.997 . S
Fe67 O78 1.996 . S
Fe67 O82 1.976 . S
Fe67 O85 2.002 . S
O68 Fe66 1.918 . S
O68 Fe67 1.918 . S
O68 Fe69 1.918 . S
Fe69 O68 1.918 . S
Fe69 O70 2.002 . S
Fe69 O79 1.976 . S
Fe69 O83 1.996 . S
Fe69 O86 1.997 . S
O70 Fe69 2.002 . S
O70 C87 1.295 . S
O71 Fe66 1.997 . S
O71 C87 1.235 . S
O72 Fe66 2.002 . S
O72 C73 1.295 . S
C73 O72 1.295 . S
C73 O75 1.235 . S
C74 O79 1.287 . S
C74 O80 1.255 . S
O75 Fe67 1.997 . S
O75 C73 1.235 . S
C76 O82 1.287 . S
C76 O83 1.255 . S
O77 Fe66 1.976 . S
O77 C84 1.287 . S
O78 Fe67 1.996 . S
O78 C84 1.255 . S
O79 Fe69 1.976 . S
O79 C74 1.287 . S
O80 Fe66 1.996 . S
O80 C74 1.255 . S
C81 O85 1.295 . S
C81 O86 1.235 . S
O82 Fe67 1.976 . S
O82 C76 1.287 . S
O83 Fe69 1.996 . S
O83 C76 1.255 . S
C84 O77 1.287 . S
C84 O78 1.255 . S
O85 Fe67 2.002 . S
O85 C81 1.295 . S
O86 Fe69 1.997 . S
O86 C81 1.235 . S
C87 O70 1.295 . S
C87 O71 1.235 . S
Fe88 O90 1.918 . S
Fe88 O93 1.997 . S
Fe88 O94 2.002 . S
Fe88 O99 1.976 1_565 S
Fe88 O102 1.996 1_565 S
Fe89 O90 1.918 . S
Fe89 O97 1.997 . S
Fe89 O100 1.996 1_565 S
Fe89 O104 1.976 . S
Fe89 O107 2.002 . S
O90 Fe88 1.918 . S
O90 Fe89 1.918 . S
O90 Fe91 1.918 . S
Fe91 O90 1.918 . S
Fe91 O92 2.002 . S
Fe91 O101 1.976 1_565 S
Fe91 O105 1.996 . S
Fe91 O108 1.997 . S
O92 Fe91 2.002 . S
O92 C109 1.295 . S
O93 Fe88 1.997 . S
O93 C109 1.235 . S
O94 Fe88 2.002 . S
O94 C95 1.295 . S
C95 O94 1.295 . S
C95 O97 1.235 . S
C96 O101 1.287 . S
C96 O102 1.255 . S
O97 Fe89 1.997 . S
O97 C95 1.235 . S
C98 O104 1.287 . S
C98 O105 1.255 . S
O99 Fe88 1.976 1_545 S
O99 C106 1.287 . S
O100 Fe89 1.996 1_545 S
O100 C106 1.255 . S
O101 Fe91 1.976 1_545 S
O101 C96 1.287 . S
O102 Fe88 1.996 1_545 S
O102 C96 1.255 . S
C103 O107 1.295 . S
C103 O108 1.235 . S
O104 Fe89 1.976 . S
O104 C98 1.287 . S
O105 Fe91 1.996 . S
O105 C98 1.255 . S
C106 O99 1.287 . S
C106 O100 1.255 . S
O107 Fe89 2.002 . S
O107 C103 1.295 . S
O108 Fe91 1.997 . S
O108 C103 1.235 . S
C109 O92 1.295 . S
C109 O93 1.235 . S
Fe110 O112 1.918 . S
Fe110 O115 1.997 . S
Fe110 O116 2.002 . S
Fe110 O121 1.976 1_455 S
Fe110 O124 1.996 1_455 S
Fe111 O112 1.918 . S
Fe111 O119 1.997 . S
Fe111 O122 1.996 1_455 S
Fe111 O126 1.976 . S
Fe111 O129 2.002 . S
O112 Fe110 1.918 . S
O112 Fe111 1.918 . S
O112 Fe113 1.918 . S
Fe113 O112 1.918 . S
Fe113 O114 2.002 . S
Fe113 O123 1.976 1_455 S
Fe113 O127 1.996 . S
Fe113 O130 1.997 . S
O114 Fe113 2.002 . S
O114 C131 1.295 . S
O115 Fe110 1.997 . S
O115 C131 1.235 . S
O116 Fe110 2.002 . S
O116 C117 1.295 . S
C117 O116 1.295 . S
C117 O119 1.235 . S
C118 O123 1.287 . S
C118 O124 1.255 . S
O119 Fe111 1.997 . S
O119 C117 1.235 . S
C120 O126 1.287 . S
C120 O127 1.255 . S
O121 Fe110 1.976 1_655 S
O121 C128 1.287 . S
O122 Fe111 1.996 1_655 S
O122 C128 1.255 . S
O123 Fe113 1.976 1_655 S
O123 C118 1.287 . S
O124 Fe110 1.996 1_655 S
O124 C118 1.255 . S
C125 O129 1.295 . S
C125 O130 1.235 . S
O126 Fe111 1.976 . S
O126 C120 1.287 . S
O127 Fe113 1.996 . S
O127 C120 1.255 . S
C128 O121 1.287 . S
C128 O122 1.255 . S
O129 Fe111 2.002 . S
O129 C125 1.295 . S
O130 Fe113 1.997 . S
O130 C125 1.235 . S
C131 O114 1.295 . S
C131 O115 1.235 . S
Fe132 O134 1.918 . S
Fe132 O137 1.997 . S
Fe132 O138 2.002 . S
Fe132 O143 1.976 . S
Fe132 O146 1.996 . S
Fe133 O134 1.918 1_554 S
Fe133 O141 1.997 . S
Fe133 O144 1.996 . S
Fe133 O148 1.976 . S
Fe133 O151 2.002 . S
O134 Fe132 1.918 . S
O134 Fe133 1.918 1_556 S
O134 Fe135 1.918 . S
Fe135 O134 1.918 . S
Fe135 O136 2.002 . S
Fe135 O145 1.976 . S
Fe135 O149 1.996 . S
Fe135 O152 1.997 . S
O136 Fe135 2.002 . S
O136 C153 1.295 . S
O137 Fe132 1.997 . S
O137 C153 1.235 . S
O138 Fe132 2.002 . S
O138 C139 1.295 1_556 S
C139 O138 1.295 1_554 S
C139 O141 1.235 . S
C140 O145 1.287 . S
C140 O146 1.255 . S
O141 Fe133 1.997 . S
O141 C139 1.235 . S
C142 O148 1.287 1_556 S
C142 O149 1.255 . S
O143 Fe132 1.976 . S
O143 C150 1.287 . S
O144 Fe133 1.996 . S
O144 C150 1.255 1_554 S
O145 Fe135 1.976 . S
O145 C140 1.287 . S
O146 Fe132 1.996 . S
O146 C140 1.255 . S
C147 O151 1.295 . S
C147 O152 1.235 1_554 S
O148 Fe133 1.976 . S
O148 C142 1.287 1_554 S
O149 Fe135 1.996 . S
O149 C142 1.255 . S
C150 O143 1.287 . S
C150 O144 1.255 1_556 S
O151 Fe133 2.002 . S
O151 C147 1.295 . S
O152 Fe135 1.997 . S
O152 C147 1.235 1_556 S
C153 O136 1.295 . S
C153 O137 1.235 . S
Fe154 O156 1.918 . S
Fe154 O159 1.997 . S
Fe154 O160 2.002 . S
Fe154 O165 1.976 1_565 S
Fe154 O168 1.996 . S
Fe155 O156 1.918 1_554 S
Fe155 O163 1.997 . S
Fe155 O166 1.996 1_565 S
Fe155 O170 1.976 1_565 S
Fe155 O173 2.002 . S
O156 Fe154 1.918 . S
O156 Fe155 1.918 1_556 S
O156 Fe157 1.918 . S
Fe157 O156 1.918 . S
Fe157 O158 2.002 . S
Fe157 O167 1.976 . S
Fe157 O171 1.996 1_565 S
Fe157 O174 1.997 . S
O158 Fe157 2.002 . S
O158 C175 1.295 . S
O159 Fe154 1.997 . S
O159 C175 1.235 . S
O160 Fe154 2.002 . S
O160 C161 1.295 1_556 S
C161 O160 1.295 1_554 S
C161 O163 1.235 . S
C162 O167 1.287 . S
C162 O168 1.255 . S
O163 Fe155 1.997 . S
O163 C161 1.235 . S
C164 O170 1.287 1_556 S
C164 O171 1.255 . S
O165 Fe154 1.976 1_545 S
O165 C172 1.287 . S
O166 Fe155 1.996 1_545 S
O166 C172 1.255 1_554 S
O167 Fe157 1.976 . S
O167 C162 1.287 . S
O168 Fe154 1.996 . S
O168 C162 1.255 . S
C169 O173 1.295 . S
C169 O174 1.235 1_554 S
O170 Fe155 1.976 1_545 S
O170 C164 1.287 1_554 S
O171 Fe157 1.996 1_545 S
O171 C164 1.255 . S
C172 O165 1.287 . S
C172 O166 1.255 1_556 S
O173 Fe155 2.002 . S
O173 C169 1.295 . S
O174 Fe157 1.997 . S
O174 C169 1.235 1_556 S
C175 O158 1.295 . S
C175 O159 1.235 . S
Fe176 O178 1.918 . S
Fe176 O181 1.997 . S
Fe176 O182 2.002 . S
Fe176 O187 1.976 . S
Fe176 O190 1.996 1_455 S
Fe177 O178 1.918 . S
Fe177 O185 1.997 . S
Fe177 O188 1.996 . S
Fe177 O192 1.976 1_455 S
Fe177 O195 2.002 . S
O178 Fe176 1.918 . S
O178 Fe177 1.918 . S
O178 Fe179 1.918 1_556 S
Fe179 O178 1.918 1_554 S
Fe179 O180 2.002 . S
Fe179 O189 1.976 1_455 S
Fe179 O193 1.996 1_455 S
Fe179 O196 1.997 . S
O180 Fe179 2.002 . S
O180 C197 1.295 . S
O181 Fe176 1.997 . S
O181 C197 1.235 1_556 S
O182 Fe176 2.002 . S
O182 C183 1.295 . S
C183 O182 1.295 . S
C183 O185 1.235 . S
C184 O189 1.287 1_556 S
C184 O190 1.255 . S
O185 Fe177 1.997 . S
O185 C183 1.235 . S
C186 O192 1.287 . S
C186 O193 1.255 1_556 S
O187 Fe176 1.976 . S
O187 C194 1.287 . S
O188 Fe177 1.996 . S
O188 C194 1.255 . S
O189 Fe179 1.976 1_655 S
O189 C184 1.287 1_554 S
O190 Fe176 1.996 1_655 S
O190 C184 1.255 . S
C191 O195 1.295 1_554 S
C191 O196 1.235 . S
O192 Fe177 1.976 1_655 S
O192 C186 1.287 . S
O193 Fe179 1.996 1_655 S
O193 C186 1.255 1_554 S
C194 O187 1.287 . S
C194 O188 1.255 . S
O195 Fe177 2.002 . S
O195 C191 1.295 1_556 S
O196 Fe179 1.997 . S
O196 C191 1.235 . S
C197 O180 1.295 . S
C197 O181 1.235 1_554 S
Fe198 O200 1.918 . S
Fe198 O203 1.997 . S
Fe198 O204 2.002 . S
Fe198 O209 1.976 . S
Fe198 O212 1.996 . S
Fe199 O200 1.918 . S
Fe199 O207 1.997 . S
Fe199 O210 1.996 . S
Fe199 O214 1.976 . S
Fe199 O217 2.002 . S
O200 Fe198 1.918 . S
O200 Fe199 1.918 . S
O200 Fe201 1.918 . S
Fe201 O200 1.918 . S
Fe201 O202 2.002 . S
Fe201 O211 1.976 . S
Fe201 O215 1.996 . S
Fe201 O218 1.997 . S
O202 Fe201 2.002 . S
O202 C219 1.295 . S
O203 Fe198 1.997 . S
O203 C219 1.235 . S
O204 Fe198 2.002 . S
O204 C205 1.295 . S
C205 O204 1.295 . S
C205 O207 1.235 . S
C206 O211 1.287 . S
C206 O212 1.255 . S
O207 Fe199 1.997 . S
O207 C205 1.235 . S
C208 O214 1.287 . S
C208 O215 1.255 . S
O209 Fe198 1.976 . S
O209 C216 1.287 . S
O210 Fe199 1.996 . S
O210 C216 1.255 . S
O211 Fe201 1.976 . S
O211 C206 1.287 . S
O212 Fe198 1.996 . S
O212 C206 1.255 . S
C213 O217 1.295 . S
C213 O218 1.235 . S
O214 Fe199 1.976 . S
O214 C208 1.287 . S
O215 Fe201 1.996 . S
O215 C208 1.255 . S
C216 O209 1.287 . S
C216 O210 1.255 . S
O217 Fe199 2.002 . S
O217 C213 1.295 . S
O218 Fe201 1.997 . S
O218 C213 1.235 . S
C219 O202 1.295 . S
C219 O203 1.235 . S
Fe220 O222 1.918 . S
Fe220 O225 1.997 . S
Fe220 O226 2.002 . S
Fe220 O231 1.976 1_545 S
Fe220 O234 1.996 . S
Fe221 O222 1.918 . S
Fe221 O229 1.997 . S
Fe221 O232 1.996 1_545 S
Fe221 O236 1.976 1_545 S
Fe221 O239 2.002 . S
O222 Fe220 1.918 . S
O222 Fe221 1.918 . S
O222 Fe223 1.918 . S
Fe223 O222 1.918 . S
Fe223 O224 2.002 . S
Fe223 O233 1.976 . S
Fe223 O237 1.996 1_545 S
Fe223 O240 1.997 . S
O224 Fe223 2.002 . S
O224 C241 1.295 . S
O225 Fe220 1.997 . S
O225 C241 1.235 . S
O226 Fe220 2.002 . S
O226 C227 1.295 . S
C227 O226 1.295 . S
C227 O229 1.235 . S
C228 O233 1.287 . S
C228 O234 1.255 . S
O229 Fe221 1.997 . S
O229 C227 1.235 . S
C230 O236 1.287 . S
C230 O237 1.255 . S
O231 Fe220 1.976 1_565 S
O231 C238 1.287 . S
O232 Fe221 1.996 1_565 S
O232 C238 1.255 . S
O233 Fe223 1.976 . S
O233 C228 1.287 . S
O234 Fe220 1.996 . S
O234 C228 1.255 . S
C235 O239 1.295 . S
C235 O240 1.235 . S
O236 Fe221 1.976 1_565 S
O236 C230 1.287 . S
O237 Fe223 1.996 1_565 S
O237 C230 1.255 . S
C238 O231 1.287 . S
C238 O232 1.255 . S
O239 Fe221 2.002 . S
O239 C235 1.295 . S
O240 Fe223 1.997 . S
O240 C235 1.235 . S
C241 O224 1.295 . S
C241 O225 1.235 . S
Fe242 O244 1.918 . S
Fe242 O247 1.997 . S
Fe242 O248 2.002 . S
Fe242 O253 1.976 1_655 S
Fe242 O256 1.996 1_655 S
Fe243 O244 1.918 . S
Fe243 O251 1.997 . S
Fe243 O254 1.996 1_655 S
Fe243 O258 1.976 . S
Fe243 O261 2.002 . S
O244 Fe242 1.918 . S
O244 Fe243 1.918 . S
O244 Fe245 1.918 . S
Fe245 O244 1.918 . S
Fe245 O246 2.002 . S
Fe245 O255 1.976 1_655 S
Fe245 O259 1.996 . S
Fe245 O262 1.997 . S
O246 Fe245 2.002 . S
O246 C263 1.295 . S
O247 Fe242 1.997 . S
O247 C263 1.235 . S
O248 Fe242 2.002 . S
O248 C249 1.295 . S
C249 O248 1.295 . S
C249 O251 1.235 . S
C250 O255 1.287 . S
C250 O256 1.255 . S
O251 Fe243 1.997 . S
O251 C249 1.235 . S
C252 O258 1.287 . S
C252 O259 1.255 . S
O253 Fe242 1.976 1_455 S
O253 C260 1.287 . S
O254 Fe243 1.996 1_455 S
O254 C260 1.255 . S
O255 Fe245 1.976 1_455 S
O255 C250 1.287 . S
O256 Fe242 1.996 1_455 S
O256 C250 1.255 . S
C257 O261 1.295 . S
C257 O262 1.235 . S
O258 Fe243 1.976 . S
O258 C252 1.287 . S
O259 Fe245 1.996 . S
O259 C252 1.255 . S
C260 O253 1.287 . S
C260 O254 1.255 . S
O261 Fe243 2.002 . S
O261 C257 1.295 . S
O262 Fe245 1.997 . S
O262 C257 1.235 . S
C263 O246 1.295 . S
C263 O247 1.235 . S
Fe264 O266 1.918 . S
Fe264 O269 1.997 . S
Fe264 O270 2.002 . S
Fe264 O275 1.976 . S
Fe264 O278 1.996 . S
Fe265 O266 1.918 . S
Fe265 O273 1.997 1_655 S
Fe265 O276 1.996 . S
Fe265 O280 1.976 . S
Fe265 O283 2.002 . S
O266 Fe264 1.918 . S
O266 Fe265 1.918 . S
O266 Fe267 1.918 . S
Fe267 O266 1.918 . S
Fe267 O268 2.002 . S
Fe267 O277 1.976 . S
Fe267 O281 1.996 . S
Fe267 O284 1.997 . S
O268 Fe267 2.002 . S
O268 C285 1.295 . S
O269 Fe264 1.997 . S
O269 C285 1.235 . S
O270 Fe264 2.002 . S
O270 C271 1.311 . S
C271 O270 1.311 . S
C271 O273 1.235 1_655 S
C272 O277 1.287 . S
C272 O278 1.255 . S
O273 Fe265 1.997 1_455 S
O273 C271 1.235 1_455 S
C274 O280 1.287 . S
C274 O281 1.255 . S
O275 Fe264 1.976 . S
O275 C282 1.287 . S
O276 Fe265 1.996 . S
O276 C282 1.255 . S
O277 Fe267 1.976 . S
O277 C272 1.287 . S
O278 Fe264 1.996 . S
O278 C272 1.255 . S
C279 O283 1.295 . S
C279 O284 1.235 . S
O280 Fe265 1.976 . S
O280 C274 1.287 . S
O281 Fe267 1.996 . S
O281 C274 1.255 . S
C282 O275 1.287 . S
C282 O276 1.255 . S
O283 Fe265 2.002 . S
O283 C279 1.295 . S
O284 Fe267 1.997 . S
O284 C279 1.235 . S
C285 O268 1.295 . S
C285 O269 1.235 . S
Fe286 O288 1.918 . S
Fe286 O291 1.997 . S
Fe286 O292 2.002 . S
Fe286 O297 1.976 . S
Fe286 O300 1.996 . S
Fe287 O288 1.918 . S
Fe287 O295 1.997 . S
Fe287 O298 1.996 . S
Fe287 O302 1.976 . S
Fe287 O305 2.002 . S
O288 Fe286 1.918 . S
O288 Fe287 1.918 . S
O288 Fe289 1.918 . S
Fe289 O288 1.918 . S
Fe289 O290 2.002 . S
Fe289 O299 1.976 . S
Fe289 O303 1.996 . S
Fe289 O306 1.997 . S
O290 Fe289 2.002 . S
O290 C307 1.295 . S
O291 Fe286 1.997 . S
O291 C307 1.235 . S
O292 Fe286 2.002 . S
O292 C293 1.295 . S
C293 O292 1.295 . S
C293 O295 1.235 . S
C294 O299 1.287 . S
C294 O300 1.255 . S
O295 Fe287 1.997 . S
O295 C293 1.235 . S
C296 O302 1.287 . S
C296 O303 1.255 . S
O297 Fe286 1.976 . S
O297 C304 1.287 . S
O298 Fe287 1.996 . S
O298 C304 1.255 . S
O299 Fe289 1.976 . S
O299 C294 1.287 . S
O300 Fe286 1.996 . S
O300 C294 1.255 . S
C301 O305 1.295 . S
C301 O306 1.235 . S
O302 Fe287 1.976 . S
O302 C296 1.287 . S
O303 Fe289 1.996 . S
O303 C296 1.255 . S
C304 O297 1.287 . S
C304 O298 1.255 . S
O305 Fe287 2.002 . S
O305 C301 1.295 . S
O306 Fe289 1.997 . S
O306 C301 1.235 . S
C307 O290 1.295 . S
C307 O291 1.235 . S
Fe308 O310 1.918 . S
Fe308 O313 1.997 . S
Fe308 O314 2.002 . S
Fe308 O319 1.976 . S
Fe308 O322 1.996 . S
Fe309 O310 1.918 . S
Fe309 O317 1.997 1_545 S
Fe309 O320 1.996 . S
Fe309 O324 1.976 . S
Fe309 O327 2.002 . S
O310 Fe308 1.918 . S
O310 Fe309 1.918 . S
O310 Fe311 1.918 . S
Fe311 O310 1.918 . S
Fe311 O312 2.002 . S
Fe311 O321 1.976 . S
Fe311 O325 1.996 . S
Fe311 O328 1.997 . S
O312 Fe311 2.002 . S
O312 C329 1.295 . S
O313 Fe308 1.997 . S
O313 C329 1.235 . S
O314 Fe308 2.002 . S
O314 C315 1.308 . S
C315 O314 1.308 . S
C315 O317 1.232 1_545 S
C316 O321 1.287 . S
C316 O322 1.255 . S
O317 Fe309 1.997 1_565 S
O317 C315 1.232 1_565 S
C318 O324 1.287 . S
C318 O325 1.255 . S
O319 Fe308 1.976 . S
O319 C326 1.287 . S
O320 Fe309 1.996 . S
O320 C326 1.255 . S
O321 Fe311 1.976 . S
O321 C316 1.287 . S
O322 Fe308 1.996 . S
O322 C316 1.255 . S
C323 O327 1.295 . S
C323 O328 1.235 . S
O324 Fe309 1.976 . S
O324 C318 1.287 . S
O325 Fe311 1.996 . S
O325 C318 1.255 . S
C326 O319 1.287 . S
C326 O320 1.255 . S
O327 Fe309 2.002 . S
O327 C323 1.295 . S
O328 Fe311 1.997 . S
O328 C323 1.235 . S
C329 O312 1.295 . S
C329 O313 1.235 . S
Fe330 O332 1.918 . S
Fe330 O335 1.997 . S
Fe330 O336 2.002 . S
Fe330 O341 1.976 . S
Fe330 O344 1.996 . S
Fe331 O332 1.918 . S
Fe331 O339 1.997 . S
Fe331 O342 1.996 . S
Fe331 O346 1.976 . S
Fe331 O349 2.002 . S
O332 Fe330 1.918 . S
O332 Fe331 1.918 . S
O332 Fe333 1.918 . S
Fe333 O332 1.918 . S
Fe333 O334 2.002 . S
Fe333 O343 1.976 . S
Fe333 O347 1.996 . S
Fe333 O350 1.997 . S
O334 Fe333 2.002 . S
O334 C351 1.295 . S
O335 Fe330 1.997 . S
O335 C351 1.235 . S
O336 Fe330 2.002 . S
O336 C337 1.295 . S
C337 O336 1.295 . S
C337 O339 1.235 . S
C338 O343 1.287 . S
C338 O344 1.255 . S
O339 Fe331 1.997 . S
O339 C337 1.235 . S
C340 O346 1.287 . S
C340 O347 1.255 . S
O341 Fe330 1.976 . S
O341 C348 1.287 . S
O342 Fe331 1.996 . S
O342 C348 1.255 . S
O343 Fe333 1.976 . S
O343 C338 1.287 . S
O344 Fe330 1.996 . S
O344 C338 1.255 . S
C345 O349 1.295 . S
C345 O350 1.235 . S
O346 Fe331 1.976 . S
O346 C340 1.287 . S
O347 Fe333 1.996 . S
O347 C340 1.255 . S
C348 O341 1.287 . S
C348 O342 1.255 . S
O349 Fe331 2.002 . S
O349 C345 1.295 . S
O350 Fe333 1.997 . S
O350 C345 1.235 . S
C351 O334 1.295 . S
C351 O335 1.235 . S
Fe352 O354 1.918 . S
Fe352 O357 1.997 . S
Fe352 O358 2.002 . S
Fe352 O363 1.976 . S
Fe352 O366 1.996 . S
Fe353 O354 1.918 . S
Fe353 O361 1.997 . S
Fe353 O364 1.996 . S
Fe353 O368 1.976 . S
Fe353 O371 2.002 . S
O354 Fe352 1.918 . S
O354 Fe353 1.918 . S
O354 Fe355 1.918 . S
Fe355 O354 1.918 . S
Fe355 O356 2.002 . S
Fe355 O365 1.976 . S
Fe355 O369 1.996 . S
Fe355 O372 1.997 . S
O356 Fe355 2.002 . S
O356 C373 1.295 . S
O357 Fe352 1.997 . S
O357 C373 1.235 . S
O358 Fe352 2.002 . S
O358 C359 1.295 . S
C359 O358 1.295 . S
C359 O361 1.235 . S
C360 O365 1.287 . S
C360 O366 1.255 . S
O361 Fe353 1.997 . S
O361 C359 1.235 . S
C362 O368 1.287 . S
C362 O369 1.255 . S
O363 Fe352 1.976 . S
O363 C370 1.287 . S
O364 Fe353 1.996 . S
O364 C370 1.255 . S
O365 Fe355 1.976 . S
O365 C360 1.287 . S
O366 Fe352 1.996 . S
O366 C360 1.255 . S
C367 O371 1.295 . S
C367 O372 1.235 . S
O368 Fe353 1.976 . S
O368 C362 1.287 . S
O369 Fe355 1.996 . S
O369 C362 1.255 . S
C370 O363 1.287 . S
C370 O364 1.255 . S
O371 Fe353 2.002 . S
O371 C367 1.295 . S
O372 Fe355 1.997 . S
O372 C367 1.235 . S
C373 O356 1.295 . S
C373 O357 1.235 . S
Fe374 O376 1.918 . S
Fe374 O379 1.997 . S
Fe374 O380 2.002 . S
Fe374 O385 1.976 . S
Fe374 O388 1.996 . S
Fe375 O376 1.918 . S
Fe375 O383 1.997 . S
Fe375 O386 1.996 . S
Fe375 O390 1.976 . S
Fe375 O393 2.002 . S
O376 Fe374 1.918 . S
O376 Fe375 1.918 . S
O376 Fe377 1.918 . S
Fe377 O376 1.918 . S
Fe377 O378 2.002 . S
Fe377 O387 1.976 . S
Fe377 O391 1.996 . S
Fe377 O394 1.997 . S
O378 Fe377 2.002 . S
O378 C395 1.295 . S
O379 Fe374 1.997 . S
O379 C395 1.235 . S
O380 Fe374 2.002 . S
O380 C381 1.295 . S
C381 O380 1.295 . S
C381 O383 1.235 . S
C382 O387 1.287 . S
C382 O388 1.255 . S
O383 Fe375 1.997 . S
O383 C381 1.235 . S
C384 O390 1.287 . S
C384 O391 1.255 . S
O385 Fe374 1.976 . S
O385 C392 1.287 . S
O386 Fe375 1.996 . S
O386 C392 1.255 . S
O387 Fe377 1.976 . S
O387 C382 1.287 . S
O388 Fe374 1.996 . S
O388 C382 1.255 . S
C389 O393 1.295 . S
C389 O394 1.235 . S
O390 Fe375 1.976 . S
O390 C384 1.287 . S
O391 Fe377 1.996 . S
O391 C384 1.255 . S
C392 O385 1.287 . S
C392 O386 1.255 . S
O393 Fe375 2.002 . S
O393 C389 1.295 . S
O394 Fe377 1.997 . S
O394 C389 1.235 . S
C395 O378 1.295 . S
C395 O379 1.235 . S
Fe396 O398 1.918 . S
Fe396 O401 1.997 . S
Fe396 O402 2.002 . S
Fe396 O407 1.976 . S
Fe396 O410 1.996 . S
Fe397 O398 1.918 . S
Fe397 O405 1.997 . S
Fe397 O408 1.996 . S
Fe397 O412 1.976 . S
Fe397 O415 2.002 . S
O398 Fe396 1.918 . S
O398 Fe397 1.918 . S
O398 Fe399 1.918 . S
Fe399 O398 1.918 . S
Fe399 O400 2.002 . S
Fe399 O409 1.976 . S
Fe399 O413 1.996 . S
Fe399 O416 1.997 . S
O400 Fe399 2.002 . S
O400 C417 1.295 . S
O401 Fe396 1.997 . S
O401 C417 1.235 . S
O402 Fe396 2.002 . S
O402 C403 1.295 . S
C403 O402 1.295 . S
C403 O405 1.235 . S
C404 O409 1.287 . S
C404 O410 1.255 . S
O405 Fe397 1.997 . S
O405 C403 1.235 . S
C406 O412 1.287 . S
C406 O413 1.255 . S
O407 Fe396 1.976 . S
O407 C414 1.287 . S
O408 Fe397 1.996 . S
O408 C414 1.255 . S
O409 Fe399 1.976 . S
O409 C404 1.287 . S
O410 Fe396 1.996 . S
O410 C404 1.255 . S
C411 O415 1.295 . S
C411 O416 1.235 . S
O412 Fe397 1.976 . S
O412 C406 1.287 . S
O413 Fe399 1.996 . S
O413 C406 1.255 . S
C414 O407 1.287 . S
C414 O408 1.255 . S
O415 Fe397 2.002 . S
O415 C411 1.295 . S
O416 Fe399 1.997 . S
O416 C411 1.235 . S
C417 O400 1.295 . S
C417 O401 1.235 . S
Fe418 O420 1.918 . S
Fe418 O423 1.997 . S
Fe418 O424 2.002 . S
Fe418 O429 1.976 . S
Fe418 O432 1.996 . S
Fe419 O420 1.918 . S
Fe419 O427 1.997 . S
Fe419 O430 1.996 . S
Fe419 O434 1.976 . S
Fe419 O437 2.002 . S
O420 Fe418 1.918 . S
O420 Fe419 1.918 . S
O420 Fe421 1.918 . S
Fe421 O420 1.918 . S
Fe421 O422 2.002 . S
Fe421 O431 1.976 . S
Fe421 O435 1.996 . S
Fe421 O438 1.997 . S
O422 Fe421 2.002 . S
O422 C439 1.295 . S
O423 Fe418 1.997 . S
O423 C439 1.235 . S
O424 Fe418 2.002 . S
O424 C425 1.295 . S
C425 O424 1.295 . S
C425 O427 1.235 . S
C426 O431 1.287 . S
C426 O432 1.255 . S
O427 Fe419 1.997 . S
O427 C425 1.235 . S
C428 O434 1.287 . S
C428 O435 1.255 . S
O429 Fe418 1.976 . S
O429 C436 1.287 . S
O430 Fe419 1.996 . S
O430 C436 1.255 . S
O431 Fe421 1.976 . S
O431 C426 1.287 . S
O432 Fe418 1.996 . S
O432 C426 1.255 . S
C433 O437 1.295 . S
C433 O438 1.235 . S
O434 Fe419 1.976 . S
O434 C428 1.287 . S
O435 Fe421 1.996 . S
O435 C428 1.255 . S
C436 O429 1.287 . S
C436 O430 1.255 . S
O437 Fe419 2.002 . S
O437 C433 1.295 . S
O438 Fe421 1.997 . S
O438 C433 1.235 . S
C439 O422 1.295 . S
C439 O423 1.235 . S
Fe440 O442 1.918 . S
Fe440 O445 1.997 . S
Fe440 O446 2.002 . S
Fe440 O451 1.976 . S
Fe440 O454 1.996 . S
Fe441 O442 1.918 . S
Fe441 O449 1.997 . S
Fe441 O452 1.996 . S
Fe441 O456 1.976 . S
Fe441 O459 2.002 . S
O442 Fe440 1.918 . S
O442 Fe441 1.918 . S
O442 Fe443 1.918 . S
Fe443 O442 1.918 . S
Fe443 O444 2.002 . S
Fe443 O453 1.976 . S
Fe443 O457 1.996 . S
Fe443 O460 1.997 . S
O444 Fe443 2.002 . S
O444 C461 1.295 . S
O445 Fe440 1.997 . S
O445 C461 1.235 . S
O446 Fe440 2.002 . S
O446 C447 1.295 . S
C447 O446 1.295 . S
C447 O449 1.235 . S
C448 O453 1.287 . S
C448 O454 1.255 . S
O449 Fe441 1.997 . S
O449 C447 1.235 . S
C450 O456 1.287 . S
C450 O457 1.255 . S
O451 Fe440 1.976 . S
O451 C458 1.287 . S
O452 Fe441 1.996 . S
O452 C458 1.255 . S
O453 Fe443 1.976 . S
O453 C448 1.287 . S
O454 Fe440 1.996 . S
O454 C448 1.255 . S
C455 O459 1.295 . S
C455 O460 1.235 . S
O456 Fe441 1.976 . S
O456 C450 1.287 . S
O457 Fe443 1.996 . S
O457 C450 1.255 . S
C458 O451 1.287 . S
C458 O452 1.255 . S
O459 Fe441 2.002 . S
O459 C455 1.295 . S
O460 Fe443 1.997 . S
O460 C455 1.235 . S
C461 O444 1.295 . S
C461 O445 1.235 . S
Fe462 O464 1.918 . S
Fe462 O467 1.997 . S
Fe462 O468 2.002 . S
Fe462 O473 1.976 . S
Fe462 O476 1.996 . S
Fe463 O464 1.918 . S
Fe463 O471 1.997 1_545 S
Fe463 O474 1.996 . S
Fe463 O478 1.976 1_556 S
Fe463 O481 2.002 . S
O464 Fe462 1.918 . S
O464 Fe463 1.918 . S
O464 Fe465 1.918 . S
Fe465 O464 1.918 . S
Fe465 O466 2.002 . S
Fe465 O475 1.976 . S
Fe465 O479 1.996 1_556 S
Fe465 O482 1.997 . S
O466 Fe465 2.002 . S
O466 C483 1.295 . S
O467 Fe462 1.997 . S
O467 C483 1.235 . S
O468 Fe462 2.002 . S
O468 C469 1.311 . S
C469 O468 1.311 . S
C469 O471 1.235 1_545 S
C470 O475 1.287 . S
C470 O476 1.255 . S
O471 Fe463 1.997 1_565 S
O471 C469 1.235 1_565 S
C472 O478 1.287 . S
C472 O479 1.255 . S
O473 Fe462 1.976 . S
O473 C480 1.287 . S
O474 Fe463 1.996 . S
O474 C480 1.255 . S
O475 Fe465 1.976 . S
O475 C470 1.287 . S
O476 Fe462 1.996 . S
O476 C470 1.255 . S
C477 O481 1.295 . S
C477 O482 1.235 . S
O478 Fe463 1.976 1_554 S
O478 C472 1.287 . S
O479 Fe465 1.996 1_554 S
O479 C472 1.255 . S
C480 O473 1.287 . S
C480 O474 1.255 . S
O481 Fe463 2.002 . S
O481 C477 1.295 . S
O482 Fe465 1.997 . S
O482 C477 1.235 . S
C483 O466 1.295 . S
C483 O467 1.235 . S
Fe484 O486 1.918 . S
Fe484 O489 1.997 . S
Fe484 O490 2.002 . S
Fe484 O495 1.976 . S
Fe484 O498 1.996 1_556 S
Fe485 O486 1.918 . S
Fe485 O493 1.997 . S
Fe485 O496 1.996 . S
Fe485 O500 1.976 . S
Fe485 O503 2.002 . S
O486 Fe484 1.918 . S
O486 Fe485 1.918 . S
O486 Fe487 1.918 . S
Fe487 O486 1.918 . S
Fe487 O488 2.002 . S
Fe487 O497 1.976 1_556 S
Fe487 O501 1.996 . S
Fe487 O504 1.997 1_655 S
O488 Fe487 2.002 . S
O488 C505 1.295 . S
O489 Fe484 1.997 . S
O489 C505 1.235 . S
O490 Fe484 2.002 . S
O490 C491 1.295 . S
C491 O490 1.295 . S
C491 O493 1.235 . S
C492 O497 1.287 . S
C492 O498 1.255 . S
O493 Fe485 1.997 . S
O493 C491 1.235 . S
C494 O500 1.287 . S
C494 O501 1.255 . S
O495 Fe484 1.976 . S
O495 C502 1.287 . S
O496 Fe485 1.996 . S
O496 C502 1.255 . S
O497 Fe487 1.976 1_554 S
O497 C492 1.287 . S
O498 Fe484 1.996 1_554 S
O498 C492 1.255 . S
C499 O503 1.308 . S
C499 O504 1.232 1_655 S
O500 Fe485 1.976 . S
O500 C494 1.287 . S
O501 Fe487 1.996 . S
O501 C494 1.255 . S
C502 O495 1.287 . S
C502 O496 1.255 . S
O503 Fe485 2.002 . S
O503 C499 1.308 . S
O504 Fe487 1.997 1_455 S
O504 C499 1.232 1_455 S
C505 O488 1.295 . S
C505 O489 1.235 . S
Fe506 O508 1.918 . S
Fe506 O511 1.997 . S
Fe506 O512 2.002 . S
Fe506 O517 1.976 . S
Fe506 O520 1.996 . S
Fe507 O508 1.918 . S
Fe507 O515 1.997 . S
Fe507 O518 1.996 . S
Fe507 O522 1.976 1_556 S
Fe507 O525 2.002 . S
O508 Fe506 1.918 . S
O508 Fe507 1.918 . S
O508 Fe509 1.918 . S
Fe509 O508 1.918 . S
Fe509 O510 2.002 . S
Fe509 O519 1.976 . S
Fe509 O523 1.996 1_556 S
Fe509 O526 1.997 . S
O510 Fe509 2.002 . S
O510 C527 1.295 . S
O511 Fe506 1.997 . S
O511 C527 1.235 . S
O512 Fe506 2.002 . S
O512 C513 1.295 . S
C513 O512 1.295 . S
C513 O515 1.235 . S
C514 O519 1.287 . S
C514 O520 1.255 . S
O515 Fe507 1.997 . S
O515 C513 1.235 . S
C516 O522 1.287 . S
C516 O523 1.255 . S
O517 Fe506 1.976 . S
O517 C524 1.287 . S
O518 Fe507 1.996 . S
O518 C524 1.255 . S
O519 Fe509 1.976 . S
O519 C514 1.287 . S
O520 Fe506 1.996 . S
O520 C514 1.255 . S
C521 O525 1.295 . S
C521 O526 1.235 . S
O522 Fe507 1.976 1_554 S
O522 C516 1.287 . S
O523 Fe509 1.996 1_554 S
O523 C516 1.255 . S
C524 O517 1.287 . S
C524 O518 1.255 . S
O525 Fe507 2.002 . S
O525 C521 1.295 . S
O526 Fe509 1.997 . S
O526 C521 1.235 . S
C527 O510 1.295 . S
C527 O511 1.235 . S
Fe528 O530 1.918 . S
Fe528 O533 1.997 . S
Fe528 O534 2.002 . S
Fe528 O539 1.976 . S
Fe528 O542 1.996 . S
Fe529 O530 1.918 . S
Fe529 O537 1.997 . S
Fe529 O540 1.996 . S
Fe529 O544 1.976 . S
Fe529 O547 2.002 . S
O530 Fe528 1.918 . S
O530 Fe529 1.918 . S
O530 Fe531 1.918 . S
Fe531 O530 1.918 . S
Fe531 O532 2.002 . S
Fe531 O541 1.976 . S
Fe531 O545 1.996 . S
Fe531 O548 1.997 . S
O532 Fe531 2.002 . S
O532 C549 1.295 . S
O533 Fe528 1.997 . S
O533 C549 1.235 . S
O534 Fe528 2.002 . S
O534 C535 1.295 . S
C535 O534 1.295 . S
C535 O537 1.235 . S
C536 O541 1.287 . S
C536 O542 1.255 . S
O537 Fe529 1.997 . S
O537 C535 1.235 . S
C538 O544 1.287 . S
C538 O545 1.255 . S
O539 Fe528 1.976 . S
O539 C546 1.287 . S
O540 Fe529 1.996 . S
O540 C546 1.255 . S
O541 Fe531 1.976 . S
O541 C536 1.287 . S
O542 Fe528 1.996 . S
O542 C536 1.255 . S
C543 O547 1.295 . S
C543 O548 1.235 . S
O544 Fe529 1.976 . S
O544 C538 1.287 . S
O545 Fe531 1.996 . S
O545 C538 1.255 . S
C546 O539 1.287 . S
C546 O540 1.255 . S
O547 Fe529 2.002 . S
O547 C543 1.295 . S
O548 Fe531 1.997 . S
O548 C543 1.235 . S
C549 O532 1.295 . S
C549 O533 1.235 . S
Fe550 O552 1.918 . S
Fe550 O555 1.997 . S
Fe550 O556 2.002 . S
Fe550 O561 1.976 . S
Fe550 O564 1.996 . S
Fe551 O552 1.918 . S
Fe551 O559 1.997 . S
Fe551 O562 1.996 . S
Fe551 O566 1.976 . S
Fe551 O569 2.002 . S
O552 Fe550 1.918 . S
O552 Fe551 1.918 . S
O552 Fe553 1.918 . S
Fe553 O552 1.918 . S
Fe553 O554 2.002 . S
Fe553 O563 1.976 . S
Fe553 O567 1.996 . S
Fe553 O570 1.997 . S
O554 Fe553 2.002 . S
O554 C571 1.295 . S
O555 Fe550 1.997 . S
O555 C571 1.235 . S
O556 Fe550 2.002 . S
O556 C557 1.295 . S
C557 O556 1.295 . S
C557 O559 1.235 . S
C558 O563 1.287 . S
C558 O564 1.255 . S
O559 Fe551 1.997 . S
O559 C557 1.235 . S
C560 O566 1.287 . S
C560 O567 1.255 . S
O561 Fe550 1.976 . S
O561 C568 1.287 . S
O562 Fe551 1.996 . S
O562 C568 1.255 . S
O563 Fe553 1.976 . S
O563 C558 1.287 . S
O564 Fe550 1.996 . S
O564 C558 1.255 . S
C565 O569 1.295 . S
C565 O570 1.235 . S
O566 Fe551 1.976 . S
O566 C560 1.287 . S
O567 Fe553 1.996 . S
O567 C560 1.255 . S
C568 O561 1.287 . S
C568 O562 1.255 . S
O569 Fe551 2.002 . S
O569 C565 1.295 . S
O570 Fe553 1.997 . S
O570 C565 1.235 . S
C571 O554 1.295 . S
C571 O555 1.235 . S
Fe572 O574 1.918 . S
Fe572 O577 1.997 . S
Fe572 O578 2.002 . S
Fe572 O583 1.976 . S
Fe572 O586 1.996 . S
Fe573 O574 1.918 . S
Fe573 O581 1.997 . S
Fe573 O584 1.996 . S
Fe573 O588 1.976 . S
Fe573 O591 2.002 . S
O574 Fe572 1.918 . S
O574 Fe573 1.918 . S
O574 Fe575 1.918 . S
Fe575 O574 1.918 . S
Fe575 O576 2.002 . S
Fe575 O585 1.976 . S
Fe575 O589 1.996 . S
Fe575 O592 1.997 . S
O576 Fe575 2.002 . S
O576 C593 1.295 . S
O577 Fe572 1.997 . S
O577 C593 1.235 . S
O578 Fe572 2.002 . S
O578 C579 1.295 . S
C579 O578 1.295 . S
C579 O581 1.235 . S
C580 O585 1.287 . S
C580 O586 1.255 . S
O581 Fe573 1.997 . S
O581 C579 1.235 . S
C582 O588 1.287 . S
C582 O589 1.255 . S
O583 Fe572 1.976 . S
O583 C590 1.287 . S
O584 Fe573 1.996 . S
O584 C590 1.255 . S
O585 Fe575 1.976 . S
O585 C580 1.287 . S
O586 Fe572 1.996 . S
O586 C580 1.255 . S
C587 O591 1.295 . S
C587 O592 1.235 . S
O588 Fe573 1.976 . S
O588 C582 1.287 . S
O589 Fe575 1.996 . S
O589 C582 1.255 . S
C590 O583 1.287 . S
C590 O584 1.255 . S
O591 Fe573 2.002 . S
O591 C587 1.295 . S
O592 Fe575 1.997 . S
O592 C587 1.235 . S
C593 O576 1.295 . S
C593 O577 1.235 . S
Fe594 O596 1.918 . S
Fe594 O599 1.997 . S
Fe594 O600 2.002 . S
Fe594 O605 1.976 . S
Fe594 O608 1.996 . S
Fe595 O596 1.918 . S
Fe595 O603 1.997 1_565 S
Fe595 O606 1.996 . S
Fe595 O610 1.976 1_554 S
Fe595 O613 2.002 . S
O596 Fe594 1.918 . S
O596 Fe595 1.918 . S
O596 Fe597 1.918 . S
Fe597 O596 1.918 . S
Fe597 O598 2.002 . S
Fe597 O607 1.976 . S
Fe597 O611 1.996 1_554 S
Fe597 O614 1.997 . S
O598 Fe597 2.002 . S
O598 C615 1.295 . S
O599 Fe594 1.997 . S
O599 C615 1.235 . S
O600 Fe594 2.002 . S
O600 C601 1.311 . S
C601 O600 1.311 . S
C601 O603 1.235 1_565 S
C602 O607 1.287 . S
C602 O608 1.255 . S
O603 Fe595 1.997 1_545 S
O603 C601 1.235 1_545 S
C604 O610 1.287 . S
C604 O611 1.255 . S
O605 Fe594 1.976 . S
O605 C612 1.287 . S
O606 Fe595 1.996 . S
O606 C612 1.255 . S
O607 Fe597 1.976 . S
O607 C602 1.287 . S
O608 Fe594 1.996 . S
O608 C602 1.255 . S
C609 O613 1.295 . S
C609 O614 1.235 . S
O610 Fe595 1.976 1_556 S
O610 C604 1.287 . S
O611 Fe597 1.996 1_556 S
O611 C604 1.255 . S
C612 O605 1.287 . S
C612 O606 1.255 . S
O613 Fe595 2.002 . S
O613 C609 1.295 . S
O614 Fe597 1.997 . S
O614 C609 1.235 . S
C615 O598 1.295 . S
C615 O599 1.235 . S
Fe616 O618 1.918 . S
Fe616 O621 1.997 . S
Fe616 O622 2.002 . S
Fe616 O627 1.976 . S
Fe616 O630 1.996 . S
Fe617 O618 1.918 . S
Fe617 O625 1.997 1_455 S
Fe617 O628 1.996 . S
Fe617 O632 1.976 1_554 S
Fe617 O635 2.002 . S
O618 Fe616 1.918 . S
O618 Fe617 1.918 . S
O618 Fe619 1.918 . S
Fe619 O618 1.918 . S
Fe619 O620 2.002 . S
Fe619 O629 1.976 . S
Fe619 O633 1.996 1_554 S
Fe619 O636 1.997 . S
O620 Fe619 2.002 . S
O620 C637 1.295 . S
O621 Fe616 1.997 . S
O621 C637 1.235 . S
O622 Fe616 2.002 . S
O622 C623 1.308 . S
C623 O622 1.308 . S
C623 O625 1.232 1_455 S
C624 O629 1.287 . S
C624 O630 1.255 . S
O625 Fe617 1.997 1_655 S
O625 C623 1.232 1_655 S
C626 O632 1.287 . S
C626 O633 1.255 . S
O627 Fe616 1.976 . S
O627 C634 1.287 . S
O628 Fe617 1.996 . S
O628 C634 1.255 . S
O629 Fe619 1.976 . S
O629 C624 1.287 . S
O630 Fe616 1.996 . S
O630 C624 1.255 . S
C631 O635 1.295 . S
C631 O636 1.235 . S
O632 Fe617 1.976 1_556 S
O632 C626 1.287 . S
O633 Fe619 1.996 1_556 S
O633 C626 1.255 . S
C634 O627 1.287 . S
C634 O628 1.255 . S
O635 Fe617 2.002 . S
O635 C631 1.295 . S
O636 Fe619 1.997 . S
O636 C631 1.235 . S
C637 O620 1.295 . S
C637 O621 1.235 . S
Fe638 O640 1.918 . S
Fe638 O643 1.997 . S
Fe638 O644 2.002 . S
Fe638 O649 1.976 . S
Fe638 O652 1.996 1_554 S
Fe639 O640 1.918 . S
Fe639 O647 1.997 . S
Fe639 O650 1.996 . S
Fe639 O654 1.976 . S
Fe639 O657 2.002 . S
O640 Fe638 1.918 . S
O640 Fe639 1.918 . S
O640 Fe641 1.918 . S
Fe641 O640 1.918 . S
Fe641 O642 2.002 . S
Fe641 O651 1.976 1_554 S
Fe641 O655 1.996 . S
Fe641 O658 1.997 . S
O642 Fe641 2.002 . S
O642 C659 1.295 . S
O643 Fe638 1.997 . S
O643 C659 1.235 . S
O644 Fe638 2.002 . S
O644 C645 1.295 . S
C645 O644 1.295 . S
C645 O647 1.235 . S
C646 O651 1.287 . S
C646 O652 1.255 . S
O647 Fe639 1.997 . S
O647 C645 1.235 . S
C648 O654 1.287 . S
C648 O655 1.255 . S
O649 Fe638 1.976 . S
O649 C656 1.287 . S
O650 Fe639 1.996 . S
O650 C656 1.255 . S
O651 Fe641 1.976 1_556 S
O651 C646 1.287 . S
O652 Fe638 1.996 1_556 S
O652 C646 1.255 . S
C653 O657 1.295 . S
C653 O658 1.235 . S
O654 Fe639 1.976 . S
O654 C648 1.287 . S
O655 Fe641 1.996 . S
O655 C648 1.255 . S
C656 O649 1.287 . S
C656 O650 1.255 . S
O657 Fe639 2.002 . S
O657 C653 1.295 . S
O658 Fe641 1.997 . S
O658 C653 1.235 . S
C659 O642 1.295 . S
C659 O643 1.235 . S
Fe660 O662 1.918 . S
Fe660 O665 1.997 . S
Fe660 O666 2.002 . S
Fe660 O671 1.976 . S
Fe660 O674 1.996 . S
Fe661 O662 1.918 . S
Fe661 O669 1.997 1_455 S
Fe661 O672 1.996 . S
Fe661 O676 1.976 . S
Fe661 O679 2.002 . S
O662 Fe660 1.918 . S
O662 Fe661 1.918 . S
O662 Fe663 1.918 . S
Fe663 O662 1.918 . S
Fe663 O664 2.002 . S
Fe663 O673 1.976 . S
Fe663 O677 1.996 . S
Fe663 O680 1.997 . S
O664 Fe663 2.002 . S
O664 C681 1.295 . S
O665 Fe660 1.997 . S
O665 C681 1.235 . S
O666 Fe660 2.002 . S
O666 C667 1.311 . S
C667 O666 1.311 . S
C667 O669 1.235 1_455 S
C668 O673 1.287 . S
C668 O674 1.255 . S
O669 Fe661 1.997 1_655 S
O669 C667 1.235 1_655 S
C670 O676 1.287 . S
C670 O677 1.255 . S
O671 Fe660 1.976 . S
O671 C678 1.287 . S
O672 Fe661 1.996 . S
O672 C678 1.255 . S
O673 Fe663 1.976 . S
O673 C668 1.287 . S
O674 Fe660 1.996 . S
O674 C668 1.255 . S
C675 O679 1.295 . S
C675 O680 1.235 . S
O676 Fe661 1.976 . S
O676 C670 1.287 . S
O677 Fe663 1.996 . S
O677 C670 1.255 . S
C678 O671 1.287 . S
C678 O672 1.255 . S
O679 Fe661 2.002 . S
O679 C675 1.295 . S
O680 Fe663 1.997 . S
O680 C675 1.235 . S
C681 O664 1.295 . S
C681 O665 1.235 . S
Fe682 O684 1.918 . S
Fe682 O687 1.997 . S
Fe682 O688 2.002 . S
Fe682 O693 1.976 . S
Fe682 O696 1.996 . S
Fe683 O684 1.918 . S
Fe683 O691 1.997 . S
Fe683 O694 1.996 . S
Fe683 O698 1.976 . S
Fe683 O701 2.002 . S
O684 Fe682 1.918 . S
O684 Fe683 1.918 . S
O684 Fe685 1.918 . S
Fe685 O684 1.918 . S
Fe685 O686 2.002 . S
Fe685 O695 1.976 . S
Fe685 O699 1.996 . S
Fe685 O702 1.997 . S
O686 Fe685 2.002 . S
O686 C703 1.295 . S
O687 Fe682 1.997 . S
O687 C703 1.235 . S
O688 Fe682 2.002 . S
O688 C689 1.295 . S
C689 O688 1.295 . S
C689 O691 1.235 . S
C690 O695 1.287 . S
C690 O696 1.255 . S
O691 Fe683 1.997 . S
O691 C689 1.235 . S
C692 O698 1.287 . S
C692 O699 1.255 . S
O693 Fe682 1.976 . S
O693 C700 1.287 . S
O694 Fe683 1.996 . S
O694 C700 1.255 . S
O695 Fe685 1.976 . S
O695 C690 1.287 . S
O696 Fe682 1.996 . S
O696 C690 1.255 . S
C697 O701 1.295 . S
C697 O702 1.235 . S
O698 Fe683 1.976 . S
O698 C692 1.287 . S
O699 Fe685 1.996 . S
O699 C692 1.255 . S
C700 O693 1.287 . S
C700 O694 1.255 . S
O701 Fe683 2.002 . S
O701 C697 1.295 . S
O702 Fe685 1.997 . S
O702 C697 1.235 . S
C703 O686 1.295 . S
C703 O687 1.235 . S
Fe704 O706 1.918 . S
Fe704 O709 1.997 . S
Fe704 O710 2.002 . S
Fe704 O715 1.976 . S
Fe704 O718 1.996 . S
Fe705 O706 1.918 . S
Fe705 O713 1.997 . S
Fe705 O716 1.996 . S
Fe705 O720 1.976 . S
Fe705 O723 2.002 . S
O706 Fe704 1.918 . S
O706 Fe705 1.918 . S
O706 Fe707 1.918 . S
Fe707 O706 1.918 . S
Fe707 O708 2.002 . S
Fe707 O717 1.976 . S
Fe707 O721 1.996 . S
Fe707 O724 1.997 1_565 S
O708 Fe707 2.002 . S
O708 C725 1.295 . S
O709 Fe704 1.997 . S
O709 C725 1.235 . S
O710 Fe704 2.002 . S
O710 C711 1.295 . S
C711 O710 1.295 . S
C711 O713 1.235 . S
C712 O717 1.287 . S
C712 O718 1.255 . S
O713 Fe705 1.997 . S
O713 C711 1.235 . S
C714 O720 1.287 . S
C714 O721 1.255 . S
O715 Fe704 1.976 . S
O715 C722 1.287 . S
O716 Fe705 1.996 . S
O716 C722 1.255 . S
O717 Fe707 1.976 . S
O717 C712 1.287 . S
O718 Fe704 1.996 . S
O718 C712 1.255 . S
C719 O723 1.308 . S
C719 O724 1.232 1_565 S
O720 Fe705 1.976 . S
O720 C714 1.287 . S
O721 Fe707 1.996 . S
O721 C714 1.255 . S
C722 O715 1.287 . S
C722 O716 1.255 . S
O723 Fe705 2.002 . S
O723 C719 1.308 . S
O724 Fe707 1.997 1_545 S
O724 C719 1.232 1_545 S
C725 O708 1.295 . S
C725 O709 1.235 . S
Fe726 O728 1.918 . S
Fe726 O731 1.997 . S
Fe726 O732 2.002 . S
Fe726 O737 1.976 . S
Fe726 O740 1.996 . S
Fe727 O728 1.918 . S
Fe727 O735 1.997 . S
Fe727 O738 1.996 . S
Fe727 O742 1.976 . S
Fe727 O745 2.002 . S
O728 Fe726 1.918 . S
O728 Fe727 1.918 . S
O728 Fe729 1.918 . S
Fe729 O728 1.918 . S
Fe729 O730 2.002 . S
Fe729 O739 1.976 . S
Fe729 O743 1.996 . S
Fe729 O746 1.997 . S
O730 Fe729 2.002 . S
O730 C747 1.295 . S
O731 Fe726 1.997 . S
O731 C747 1.235 . S
O732 Fe726 2.002 . S
O732 C733 1.295 . S
C733 O732 1.295 . S
C733 O735 1.235 . S
C734 O739 1.287 . S
C734 O740 1.255 . S
O735 Fe727 1.997 . S
O735 C733 1.235 . S
C736 O742 1.287 . S
C736 O743 1.255 . S
O737 Fe726 1.976 . S
O737 C744 1.287 . S
O738 Fe727 1.996 . S
O738 C744 1.255 . S
O739 Fe729 1.976 . S
O739 C734 1.287 . S
O740 Fe726 1.996 . S
O740 C734 1.255 . S
C741 O745 1.295 . S
C741 O746 1.235 . S
O742 Fe727 1.976 . S
O742 C736 1.287 . S
O743 Fe729 1.996 . S
O743 C736 1.255 . S
C744 O737 1.287 . S
C744 O738 1.255 . S
O745 Fe727 2.002 . S
O745 C741 1.295 . S
O746 Fe729 1.997 . S
O746 C741 1.235 . S
C747 O730 1.295 . S
C747 O731 1.235 . S
Fe748 O750 1.918 . S
Fe748 O753 1.997 . S
Fe748 O754 2.002 . S
Fe748 O759 1.976 . S
Fe748 O762 1.996 . S
Fe749 O750 1.918 . S
Fe749 O757 1.997 . S
Fe749 O760 1.996 . S
Fe749 O764 1.976 . S
Fe749 O767 2.002 . S
O750 Fe748 1.918 . S
O750 Fe749 1.918 . S
O750 Fe751 1.918 . S
Fe751 O750 1.918 . S
Fe751 O752 2.002 . S
Fe751 O761 1.976 . S
Fe751 O765 1.996 . S
Fe751 O768 1.997 . S
O752 Fe751 2.002 . S
O752 C769 1.295 . S
O753 Fe748 1.997 . S
O753 C769 1.235 . S
O754 Fe748 2.002 . S
O754 C755 1.295 . S
C755 O754 1.295 . S
C755 O757 1.235 . S
C756 O761 1.287 . S
C756 O762 1.255 . S
O757 Fe749 1.997 . S
O757 C755 1.235 . S
C758 O764 1.287 . S
C758 O765 1.255 . S
O759 Fe748 1.976 . S
O759 C766 1.287 . S
O760 Fe749 1.996 . S
O760 C766 1.255 . S
O761 Fe751 1.976 . S
O761 C756 1.287 . S
O762 Fe748 1.996 . S
O762 C756 1.255 . S
C763 O767 1.295 . S
C763 O768 1.235 . S
O764 Fe749 1.976 . S
O764 C758 1.287 . S
O765 Fe751 1.996 . S
O765 C758 1.255 . S
C766 O759 1.287 . S
C766 O760 1.255 . S
O767 Fe749 2.002 . S
O767 C763 1.295 . S
O768 Fe751 1.997 . S
O768 C763 1.235 . S
C769 O752 1.295 . S
C769 O753 1.235 . S
Fe770 O772 1.918 . S
Fe770 O775 1.997 . S
Fe770 O776 2.002 . S
Fe770 O781 1.976 . S
Fe770 O784 1.996 . S
Fe771 O772 1.918 . S
Fe771 O779 1.997 . S
Fe771 O782 1.996 . S
Fe771 O786 1.976 . S
Fe771 O789 2.002 . S
O772 Fe770 1.918 . S
O772 Fe771 1.918 . S
O772 Fe773 1.918 . S
Fe773 O772 1.918 . S
Fe773 O774 2.002 . S
Fe773 O783 1.976 . S
Fe773 O787 1.996 . S
Fe773 O790 1.997 . S
O774 Fe773 2.002 . S
O774 C791 1.295 . S
O775 Fe770 1.997 . S
O775 C791 1.235 . S
O776 Fe770 2.002 . S
O776 C777 1.295 . S
C777 O776 1.295 . S
C777 O779 1.235 . S
C778 O783 1.287 . S
C778 O784 1.255 . S
O779 Fe771 1.997 . S
O779 C777 1.235 . S
C780 O786 1.287 . S
C780 O787 1.255 . S
O781 Fe770 1.976 . S
O781 C788 1.287 . S
O782 Fe771 1.996 . S
O782 C788 1.255 . S
O783 Fe773 1.976 . S
O783 C778 1.287 . S
O784 Fe770 1.996 . S
O784 C778 1.255 . S
C785 O789 1.295 . S
C785 O790 1.235 . S
O786 Fe771 1.976 . S
O786 C780 1.287 . S
O787 Fe773 1.996 . S
O787 C780 1.255 . S
C788 O781 1.287 . S
C788 O782 1.255 . S
O789 Fe771 2.002 . S
O789 C785 1.295 . S
O790 Fe773 1.997 . S
O790 C785 1.235 . S
C791 O774 1.295 . S
C791 O775 1.235 . S
C21 C172 1.615 . S
C186 C43 1.615 . S
C150 C65 1.614 . S
C250 C73 1.615 . S
C109 C216 1.614 . S
C131 C238 1.615 . S
C30 C139 1.615 . S
C161 C52 1.615 . S
C8 C191 1.614 . S
C118 C205 1.615 . S
C227 C84 1.614 . S
C263 C96 1.615 . S
C285 C428 1.615 . S
C448 C307 1.615 . S
C406 C329 1.615 . S
C351 C514 1.615 . S
C470 C359 1.614 . S
C395 C502 1.615 . S
C411 C294 1.615 . S
C316 C433 1.615 . S
C461 C272 1.614 . S
C382 C483 1.615 . S
C338 C491 1.615 . S
C527 C370 1.615 . S
C549 C700 1.615 . S
C571 C722 1.615 . S
C668 C593 1.614 . S
C778 C615 1.615 . S
C637 C744 1.615 . S
C766 C645 1.615 . S
C558 C681 1.615 . S
C689 C580 1.615 . S
C536 C711 1.615 . S
C733 C656 1.615 . S
C755 C602 1.614 . S
C791 C624 1.615 . S
C15 C403 2.649 . S
C37 C425 2.649 . S
C455 C59 2.649 . S
C747 C87 2.649 . S
C769 C103 2.649 . S
C785 C125 2.649 . S
C153 C543 2.649 . S
C565 C175 2.649 . S
C183 C587 2.649 . S
C219 C345 2.649 . S
C241 C373 2.649 . S
C257 C389 2.649 . S
C279 C675 2.649 1_655 S
C703 C301 2.648 . S
C323 C725 2.649 1_545 S
C609 C477 2.649 1_564 S
C505 C631 2.649 1_656 S
C659 C521 2.648 1_554 S
C7 C367 2.163 . S
C29 C381 2.163 . S
C337 C51 2.163 . S
C81 C579 2.163 . S
C535 C95 2.163 . S
C117 C557 2.163 . S
C763 C147 2.163 . S
C169 C777 2.163 . S
C741 C197 2.163 . S
C213 C447 2.163 . S
C235 C417 2.163 . S
C249 C439 2.163 . S
C623 C271 2.162 1_455 S
C293 C653 2.163 . S
C315 C601 2.162 1_545 S
C719 C469 2.162 1_565 S
C667 C499 2.162 1_455 S
C697 C513 2.163 . S
C74 C10 1.043 . S
C32 C98 1.044 1_545 S
C54 C120 1.044 1_655 S
C206 C140 1.043 . S
C162 C228 1.044 1_565 S
C252 C194 1.044 1_655 S
C340 C274 1.043 . S
C296 C360 1.044 . S
C318 C384 1.044 . S
C414 C472 1.043 . S
C436 C492 1.044 . S
C450 C516 1.044 . S
C538 C604 1.043 . S
C626 C560 1.044 . S
C646 C582 1.044 . S
C670 C734 1.043 . S
C756 C690 1.044 . S
C712 C780 1.044 . S
C18 C648 2.236 . S
C612 C40 2.236 . S
C62 C634 2.236 . S
C304 C76 2.236 . S
C106 C326 2.236 . S
C128 C282 2.236 . S
C524 C142 2.236 . S
C164 C480 2.236 . S
C494 C184 2.236 . S
C208 C692 2.236 . S
C714 C230 2.236 . S
C678 C260 2.236 . S
C348 C568 2.236 1_655 S
C362 C590 2.236 . S
C392 C546 2.236 1_545 S
C404 C788 2.236 1_545 S
C426 C736 2.236 1_655 S
C758 C458 2.236 . S
