# Generated by pormake.
# Topology rob, (6)-cn, num edge types: 1
# Building blocks:
#     Node 0, Type 0, BuildingBlock: JUFBIX_clean_sbu_0, # of connection points: 6
#     Node 1, Type 0, BuildingBlock: JUFBIX_clean_sbu_0, # of connection points: 6
#     Node 2, Type 0, BuildingBlock: JUFBIX_clean_sbu_0, # of connection points: 6
#     Node 3, Type 0, BuildingBlock: JUFBIX_clean_sbu_0, # of connection points: 6
#     Edge 4, Type (0, 0), BuildingBlock: XUDNAN_clean_linker_2, # of connection points: 2
#     Edge 5, Type (0, 0), BuildingBlock: XUDNAN_clean_linker_2, # of connection points: 2
#     Edge 6, Type (0, 0), BuildingBlock: XUDNAN_clean_linker_2, # of connection points: 2
#     Edge 7, Type (0, 0), BuildingBlock: XUDNAN_clean_linker_2, # of connection points: 2
#     Edge 8, Type (0, 0), BuildingBlock: XUDNAN_clean_linker_2, # of connection points: 2
#     Edge 9, Type (0, 0), BuildingBlock: XUDNAN_clean_linker_2, # of connection points: 2
#     Edge 10, Type (0, 0), BuildingBlock: XUDNAN_clean_linker_2, # of connection points: 2
#     Edge 11, Type (0, 0), BuildingBlock: XUDNAN_clean_linker_2, # of connection points: 2
#     Edge 12, Type (0, 0), BuildingBlock: XUDNAN_clean_linker_2, # of connection points: 2
#     Edge 13, Type (0, 0), BuildingBlock: XUDNAN_clean_linker_2, # of connection points: 2
#     Edge 14, Type (0, 0), BuildingBlock: XUDNAN_clean_linker_2, # of connection points: 2
#     Edge 15, Type (0, 0), BuildingBlock: XUDNAN_clean_linker_2, # of connection points: 2
# Relax obj value: 0.350
# Max RMSD: 0.258
# Mean RMSD: 0.258
data_MOF--net-rob--node1-JUFBIX_clean_sbu_0--edge1-XUDNAN_clean_linker_2
_symmetry_space_group_name_H-M    P1
_symmetry_Int_Tables_number       1
_symmetry_cell_setting            triclinic
loop_
_symmetry_equiv_pos_as_xyz
'x, y, z'
_cell_length_a     17.129655
_cell_length_b     24.127446
_cell_length_c     28.210536
_cell_angle_alpha  94.632558
_cell_angle_beta   90.018726
_cell_angle_gamma 90.007231
loop_
_atom_site_label
_atom_site_type_symbol
_atom_site_fract_x
_atom_site_fract_y
_atom_site_fract_z
_atom_type_partial_charge
Co0 Co 0.21963 0.2875 0.97478 0.0
C1 C 0.15143 0.18429 0.9818 0.0
Co2 Co 0.28823 0.23298 0.01846 0.0
C3 C 0.13127 0.31918 0.89423 0.0
C4 C 0.15246 0.38843 0.94494 0.0
N5 N 0.16406 0.33316 0.93709 0.0
N6 N 0.10043 0.36359 0.87481 0.0
C7 C 0.1137 0.4073 0.9066 0.0
H8 H 0.13259 0.27752 0.87682 0.0
H9 H 0.17241 0.41357 0.97609 0.0
C10 C 0.35654 0.33615 0.0114 0.0
N11 N 0.34373 0.18723 0.0561 0.0
C12 C 0.37711 0.20117 0.0988 0.0
C13 C 0.35413 0.1318 0.04851 0.0
N14 N 0.40704 0.15656 0.11837 0.0
C15 C 0.39263 0.11279 0.08688 0.0
C16 C 0.32949 0.22203 0.92344 0.0
O17 O 0.2965 0.34379 0.98626 0.0
O18 O 0.36489 0.28993 0.02952 0.0
O19 O 0.34431 0.20408 0.96364 0.0
O20 O 0.2767 0.2586 0.92045 0.0
O21 O 0.21137 0.17678 0.00704 0.0
H22 H 0.33332 0.10664 0.0176 0.0
H23 H 0.37667 0.24291 0.11607 0.0
O24 O 0.14302 0.23047 0.96364 0.0
O25 O 0.16345 0.31633 0.02962 0.0
O26 O 0.23124 0.26191 0.07282 0.0
C27 C 0.17833 0.29839 0.06983 0.0
H28 H 0.09695 0.44987 0.90232 0.0
H29 H 0.40825 0.07007 0.09147 0.0
Co30 Co 0.70158 0.7732 0.97881 0.0
C31 C 0.69317 0.66592 0.00862 0.0
Co32 Co 0.80885 0.74593 0.01375 0.0
C33 C 0.60285 0.81226 0.90579 0.0
C34 C 0.5369 0.78943 0.96559 0.0
N35 N 0.61059 0.79409 0.94953 0.0
N36 N 0.5273 0.81848 0.8936 0.0
C37 C 0.48557 0.80423 0.93123 0.0
H38 H 0.65174 0.81812 0.88241 0.0
H39 H 0.52144 0.77443 0.99947 0.0
C40 C 0.81733 0.85318 0.98393 0.0
N41 N 0.89978 0.72497 0.04332 0.0
C42 C 0.9094 0.70896 0.08781 0.0
C43 C 0.97238 0.72541 0.02491 0.0
N44 N 0.98512 0.6993 0.09772 0.0
C45 C 0.02478 0.70949 0.05811 0.0
C46 C 0.80758 0.72068 0.91598 0.0
O47 O 0.74877 0.84269 0.96829 0.0
O48 O 0.85331 0.81665 0.0056 0.0
O49 O 0.84951 0.71837 0.95293 0.0
O50 O 0.74005 0.74215 0.91968 0.0
O51 O 0.76336 0.67515 0.02178 0.0
H52 H 0.98667 0.7379 0.98998 0.0
H53 H 0.86189 0.70488 0.11257 0.0
O54 O 0.65561 0.7037 0.98948 0.0
O55 O 0.66344 0.80383 0.03814 0.0
O56 O 0.76707 0.77383 0.07376 0.0
C57 C 0.70144 0.79846 0.07613 0.0
H58 H 0.4225 0.80346 0.93341 0.0
H59 H 0.08757 0.70764 0.05399 0.0
Co60 Co 0.19817 0.74508 0.51371 0.0
C61 C 0.18954 0.8523 0.48384 0.0
Co62 Co 0.30536 0.7724 0.47874 0.0
C63 C 0.09762 0.7083 0.58786 0.0
C64 C 0.03469 0.72434 0.52482 0.0
N65 N 0.10728 0.72407 0.5433 0.0
N66 N 0.02191 0.69862 0.59775 0.0
C67 C 0.98228 0.70855 0.55804 0.0
H68 H 0.1451 0.70443 0.6127 0.0
H69 H 0.02041 0.73664 0.48982 0.0
C70 C 0.31394 0.66514 0.50858 0.0
N71 N 0.39629 0.79333 0.44944 0.0
C72 C 0.40393 0.81154 0.40571 0.0
C73 C 0.47001 0.78869 0.46547 0.0
N74 N 0.47946 0.8178 0.3935 0.0
C75 C 0.52127 0.80354 0.43111 0.0
C76 C 0.30561 0.79773 0.57605 0.0
O77 O 0.24377 0.67433 0.52178 0.0
O78 O 0.35141 0.70294 0.48941 0.0
O79 O 0.34356 0.80307 0.53805 0.0
O80 O 0.23999 0.77306 0.5737 0.0
O81 O 0.25809 0.84185 0.46821 0.0
H82 H 0.48554 0.77367 0.49934 0.0
H83 H 0.355 0.8174 0.38235 0.0
O84 O 0.15361 0.81576 0.50552 0.0
O85 O 0.15747 0.71744 0.4529 0.0
O86 O 0.26684 0.74131 0.41962 0.0
C87 C 0.19933 0.71978 0.41594 0.0
H88 H 0.91949 0.70664 0.55388 0.0
H89 H 0.58434 0.80281 0.43328 0.0
Co90 Co 0.7192 0.23246 0.5185 0.0
C91 C 0.65106 0.33566 0.51136 0.0
Co92 Co 0.78784 0.28687 0.47476 0.0
C93 C 0.63075 0.2008 0.59899 0.0
C94 C 0.65194 0.13157 0.54827 0.0
N95 N 0.66356 0.18684 0.55615 0.0
N96 N 0.59992 0.15636 0.61838 0.0
C97 C 0.61319 0.11267 0.58659 0.0
H98 H 0.63208 0.24245 0.61643 0.0
H99 H 0.67191 0.10645 0.51713 0.0
C100 C 0.85582 0.18359 0.48186 0.0
N101 N 0.84349 0.33246 0.43706 0.0
C102 C 0.8761 0.31853 0.39415 0.0
C103 C 0.85528 0.3877 0.44499 0.0
N104 N 0.90699 0.36297 0.37477 0.0
C105 C 0.89396 0.40662 0.40665 0.0
C106 C 0.82923 0.29785 0.56982 0.0
O107 O 0.79583 0.17612 0.50705 0.0
O108 O 0.86437 0.22979 0.46373 0.0
O109 O 0.84401 0.31577 0.5296 0.0
O110 O 0.77639 0.26131 0.57283 0.0
O111 O 0.71099 0.34322 0.48612 0.0
H112 H 0.83549 0.4128 0.47619 0.0
H113 H 0.87461 0.27691 0.37666 0.0
O114 O 0.64278 0.2895 0.52958 0.0
O115 O 0.66289 0.20368 0.46369 0.0
O116 O 0.73083 0.2579 0.42042 0.0
C117 C 0.67783 0.22148 0.42344 0.0
H118 H 0.59647 0.0701 0.59087 0.0
H119 H 0.91082 0.44918 0.40244 0.0
H120 H 0.54893 0.63095 0.97698 0.0
H121 H 0.75075 0.57891 0.05528 0.0
H122 H 0.6857 0.48925 0.06624 0.0
H123 H 0.40267 0.5688 0.04718 0.0
H124 H 0.34128 0.5487 0.9968 0.0
H125 H 0.40346 0.60881 0.9959 0.0
H126 H 0.46689 0.56716 0.91755 0.0
H127 H 0.40484 0.50699 0.91815 0.0
H128 H 0.50933 0.49862 0.91525 0.0
H129 H 0.59763 0.40477 0.06823 0.0
H130 H 0.49586 0.33195 0.05929 0.0
H131 H 0.35343 0.4401 0.97892 0.0
C132 C 0.57956 0.60084 0.99657 0.0
C133 C 0.65497 0.61202 0.01535 0.0
C134 C 0.69299 0.57127 0.04053 0.0
C135 C 0.65645 0.52028 0.04701 0.0
C136 C 0.58204 0.51068 0.028 0.0
C137 C 0.54419 0.54983 0.00318 0.0
C138 C 0.4651 0.52916 0.98555 0.0
C139 C 0.39925 0.56606 0.0077 0.0
C140 C 0.46137 0.52524 0.93089 0.0
C141 C 0.46425 0.47213 0.00424 0.0
C142 C 0.532 0.46222 0.02879 0.0
C143 C 0.54438 0.41213 0.04907 0.0
C144 C 0.4862 0.37103 0.04384 0.0
C145 C 0.41666 0.38022 0.01837 0.0
C146 C 0.40583 0.43167 0.9986 0.0
H147 H 0.45796 0.63017 0.47664 0.0
H148 H 0.25682 0.57823 0.55555 0.0
H149 H 0.32209 0.48867 0.56655 0.0
H150 H 0.49727 0.49766 0.41509 0.0
H151 H 0.60177 0.50611 0.41772 0.0
H152 H 0.53962 0.56623 0.41712 0.0
H153 H 0.60361 0.60818 0.49522 0.0
H154 H 0.66588 0.54813 0.49612 0.0
H155 H 0.60486 0.56836 0.54662 0.0
H156 H 0.4103 0.40431 0.56856 0.0
H157 H 0.51212 0.33155 0.55958 0.0
H158 H 0.6538 0.43948 0.47857 0.0
C159 C 0.42753 0.6001 0.49637 0.0
C160 C 0.35225 0.61128 0.51531 0.0
C161 C 0.31447 0.57059 0.54067 0.0
C162 C 0.35114 0.51965 0.54718 0.0
C163 C 0.42543 0.51004 0.52801 0.0
C164 C 0.46302 0.54914 0.503 0.0
C165 C 0.542 0.52847 0.48523 0.0
C166 C 0.54531 0.52437 0.43055 0.0
C167 C 0.60797 0.56549 0.50712 0.0
C168 C 0.5431 0.47151 0.50405 0.0
C169 C 0.47555 0.46164 0.52879 0.0
C170 C 0.46341 0.41163 0.54925 0.0
C171 C 0.52161 0.37057 0.54399 0.0
C172 C 0.59095 0.37972 0.51833 0.0
C173 C 0.60155 0.43109 0.49839 0.0
H174 H 0.15405 0.08109 0.01559 0.0
H175 H 0.01353 0.1872 0.93221 0.0
H176 H 0.91269 0.11373 0.92269 0.0
H177 H 0.10861 0.95159 0.94811 0.0
H178 H 0.10674 0.9124 0.99985 0.0
H179 H 0.16793 0.97304 0.99913 0.0
H180 H 0.10159 0.01544 0.0763 0.0
H181 H 0.04006 0.95503 0.07719 0.0
H182 H 0.99692 0.02323 0.07795 0.0
H183 H 0.82557 0.02866 0.92413 0.0
H184 H 0.76098 0.93889 0.9352 0.0
H185 H 0.96012 0.88947 0.01723 0.0
C186 C 0.10227 0.08894 0.99514 0.0
C187 C 0.09169 0.13998 0.97467 0.0
C188 C 0.02295 0.14844 0.94822 0.0
C189 C 0.96534 0.10696 0.94263 0.0
C190 C 0.97747 0.05726 0.96359 0.0
C191 C 0.04442 0.0481 0.98917 0.0
C192 C 0.04334 0.99141 0.00853 0.0
C193 C 0.11064 0.95496 0.98764 0.0
C194 C 0.04559 0.99662 0.06323 0.0
C195 C 0.96508 0.97009 0.99009 0.0
C196 C 0.92786 1.00857 0.96424 0.0
C197 C 0.85433 0.99818 0.9442 0.0
C198 C 0.81806 0.94711 0.95073 0.0
C199 C 0.85541 0.90709 0.97706 0.0
C200 C 0.92995 0.91904 0.99683 0.0
H201 H 0.85298 0.08031 0.51554 0.0
H202 H 0.9937 0.18644 0.43231 0.0
H203 H 0.09438 0.1129 0.42274 0.0
H204 H 0.01 0.02223 0.57787 0.0
H205 H 0.96677 0.95404 0.57702 0.0
H206 H 0.90533 0.01449 0.57617 0.0
H207 H 0.83894 0.97222 0.49894 0.0
H208 H 0.90005 0.91155 0.49962 0.0
H209 H 0.89824 0.95083 0.44792 0.0
H210 H 0.18135 0.02781 0.42411 0.0
H211 H 0.24588 0.93803 0.43516 0.0
H212 H 0.04671 0.88855 0.51707 0.0
C213 C 0.90478 0.08815 0.49511 0.0
C214 C 0.91545 0.13922 0.47471 0.0
C215 C 0.9842 0.14766 0.44828 0.0
C216 C 0.04172 0.10614 0.44266 0.0
C217 C 0.02949 0.05641 0.46355 0.0
C218 C 0.96254 0.04726 0.4891 0.0
C219 C 0.96355 0.99053 0.5084 0.0
C220 C 0.96131 0.99566 0.5631 0.0
C221 C 0.8962 0.95414 0.48745 0.0
C222 C 0.04179 0.96919 0.48997 0.0
C223 C 0.07904 1.00769 0.46416 0.0
C224 C 0.15256 0.99731 0.44414 0.0
C225 C 0.1888 0.94624 0.45067 0.0
C226 C 0.15143 0.9062 0.47696 0.0
C227 C 0.07689 0.91813 0.4967 0.0
H228 H 0.6658 0.26991 0.33924 0.0
H229 H 0.58806 0.12742 0.4112 0.0
H230 H 0.51253 0.09399 0.33978 0.0
H231 H 0.4842 0.29348 0.28162 0.0
H232 H 0.5287 0.31421 0.22792 0.0
H233 H 0.57945 0.3254 0.28378 0.0
H234 H 0.69815 0.27001 0.24814 0.0
H235 H 0.64777 0.25869 0.19213 0.0
H236 H 0.68404 0.20026 0.22151 0.0
H237 H 0.44703 0.07556 0.25993 0.0
H238 H 0.38924 0.07682 0.17962 0.0
H239 H 0.50417 0.23374 0.16161 0.0
C240 C 0.63332 0.23145 0.33988 0.0
C241 C 0.63318 0.20101 0.38065 0.0
C242 C 0.58904 0.15134 0.38032 0.0
C243 C 0.54615 0.13197 0.3399 0.0
C244 C 0.54741 0.16308 0.30034 0.0
C245 C 0.58935 0.21199 0.30016 0.0
C246 C 0.57866 0.23872 0.2538 0.0
C247 C 0.54046 0.29636 0.26231 0.0
C248 C 0.6568 0.2421 0.22734 0.0
C249 C 0.5239 0.19729 0.22793 0.0
C250 C 0.50736 0.1536 0.25515 0.0
C251 C 0.45938 0.10964 0.23839 0.0
C252 C 0.42715 0.11055 0.19272 0.0
C253 C 0.44215 0.15543 0.16463 0.0
C254 C 0.49115 0.19928 0.18262 0.0
H255 H 0.74589 0.7703 0.16451 0.0
H256 H 0.57688 0.86798 0.09239 0.0
H257 H 0.50985 0.89196 0.16864 0.0
H258 H 0.61305 0.7109 0.23779 0.0
H259 H 0.67581 0.7116 0.28915 0.0
H260 H 0.71765 0.70878 0.23056 0.0
H261 H 0.79904 0.79706 0.25422 0.0
H262 H 0.75827 0.79964 0.31324 0.0
H263 H 0.75077 0.85924 0.27885 0.0
H264 H 0.45303 0.89712 0.25019 0.0
H265 H 0.40995 0.88271 0.3318 0.0
H266 H 0.61402 0.7804 0.35085 0.0
C267 C 0.69598 0.7979 0.16499 0.0
C268 C 0.66688 0.81761 0.12258 0.0
C269 C 0.60034 0.85257 0.12447 0.0
C270 C 0.56202 0.86659 0.16764 0.0
C271 C 0.59101 0.8454 0.20862 0.0
C272 C 0.65664 0.81198 0.20777 0.0
C273 C 0.67165 0.79069 0.25603 0.0
C274 C 0.66934 0.72671 0.25318 0.0
C275 C 0.74954 0.81302 0.27683 0.0
C276 C 0.6028 0.81601 0.28371 0.0
C277 C 0.55764 0.84799 0.25585 0.0
C278 C 0.48839 0.87275 0.27257 0.0
C279 C 0.46408 0.86402 0.31881 0.0
C280 C 0.50864 0.8306 0.34775 0.0
C281 C 0.57954 0.80712 0.33003 0.0
H282 H 0.39282 0.78083 0.85099 0.0
H283 H 0.59661 0.88336 0.83183 0.0
H284 H 0.55359 0.89739 0.75012 0.0
H285 H 0.39471 0.71096 0.739 0.0
H286 H 0.29025 0.70826 0.73126 0.0
H287 H 0.33132 0.71212 0.79009 0.0
H288 H 0.24884 0.79991 0.81334 0.0
H289 H 0.20786 0.79664 0.75433 0.0
H290 H 0.25585 0.85915 0.77846 0.0
H291 H 0.49693 0.8918 0.6685 0.0
H292 H 0.43009 0.86738 0.59222 0.0
H293 H 0.26122 0.76977 0.66451 0.0
C294 C 0.42718 0.80756 0.83013 0.0
C295 C 0.49803 0.83118 0.84783 0.0
C296 C 0.5425 0.86458 0.81885 0.0
C297 C 0.51821 0.87311 0.77256 0.0
C298 C 0.44902 0.84822 0.75585 0.0
C299 C 0.40378 0.81639 0.78381 0.0
C300 C 0.33523 0.79066 0.75601 0.0
C301 C 0.33814 0.72672 0.75396 0.0
C302 C 0.25734 0.81296 0.7768 0.0
C303 C 0.35051 0.81157 0.70767 0.0
C304 C 0.41592 0.84521 0.70853 0.0
C305 C 0.4449 0.86629 0.66751 0.0
C306 C 0.40666 0.85204 0.62433 0.0
C307 C 0.34017 0.817 0.62248 0.0
C308 C 0.3111 0.7974 0.66492 0.0
H309 H 0.50761 0.23573 0.66297 0.0
H310 H 0.61226 0.0746 0.67827 0.0
H311 H 0.55379 0.07329 0.75833 0.0
H312 H 0.53138 0.2915 0.78381 0.0
H313 H 0.43871 0.327 0.78646 0.0
H314 H 0.48903 0.31517 0.73051 0.0
H315 H 0.36697 0.26507 0.69352 0.0
H316 H 0.31624 0.27676 0.74935 0.0
H317 H 0.32582 0.20718 0.72153 0.0
H318 H 0.48859 0.09178 0.83826 0.0
H319 H 0.41395 0.12569 0.90989 0.0
H320 H 0.34634 0.27254 0.84058 0.0
C321 C 0.51833 0.20034 0.68333 0.0
C322 C 0.56456 0.15531 0.6646 0.0
C323 C 0.57648 0.10927 0.69189 0.0
C324 C 0.54386 0.10832 0.73743 0.0
C325 C 0.49867 0.15345 0.75493 0.0
C326 C 0.48519 0.19836 0.72853 0.0
C327 C 0.43307 0.241 0.75514 0.0
C328 C 0.47561 0.29697 0.76454 0.0
C329 C 0.35596 0.24788 0.72828 0.0
C330 C 0.41997 0.21333 0.80079 0.0
C331 C 0.45877 0.16307 0.80015 0.0
C332 C 0.45742 0.13085 0.83901 0.0
C333 C 0.41507 0.15048 0.87955 0.0
C334 C 0.37394 0.20148 0.88064 0.0
C335 C 0.37643 0.23306 0.84059 0.0
H336 H 0.93139 0.72942 0.1871 0.0
H337 H 0.11591 0.63919 0.10902 0.0
H338 H 0.18294 0.62489 0.18437 0.0
H339 H 0.05113 0.80165 0.26988 0.0
H340 H 0.9857 0.79888 0.31968 0.0
H341 H 0.94738 0.7957 0.26016 0.0
H342 H 0.87776 0.70291 0.27426 0.0
H343 H 0.91671 0.70602 0.33379 0.0
H344 H 0.93406 0.64559 0.2933 0.0
H345 H 0.23959 0.63263 0.2652 0.0
H346 H 0.27969 0.65801 0.34823 0.0
H347 H 0.0565 0.73856 0.37645 0.0
C348 C 0.98463 0.7052 0.18603 0.0
C349 C 0.01855 0.68542 0.14214 0.0
C350 C 0.08935 0.65515 0.14216 0.0
C351 C 0.12753 0.64646 0.1848 0.0
C352 C 0.09386 0.66785 0.22733 0.0
C353 C 0.02363 0.69613 0.22847 0.0
C354 C 1.00356 0.71867 0.2788 0.0
C355 C 0.99656 0.78249 0.28231 0.0
C356 C 0.92857 0.69166 0.29605 0.0
C357 C 0.07473 0.70009 0.30543 0.0
C358 C 0.12582 0.67063 0.27492 0.0
C359 C 0.19932 0.6543 0.28975 0.0
C360 C 0.2217 0.669 0.33682 0.0
C361 C 0.17047 0.69905 0.36865 0.0
C362 C 0.09553 0.71391 0.35305 0.0
H363 H 0.99829 0.28326 0.32969 0.0
H364 H 0.89557 0.44521 0.31527 0.0
H365 H 0.9543 0.44681 0.23531 0.0
H366 H 0.18048 0.31107 0.27166 0.0
H367 H 0.18931 0.24167 0.24334 0.0
H368 H 0.13834 0.25311 0.29911 0.0
H369 H 0.01586 0.2042 0.2615 0.0
H370 H 0.06643 0.1926 0.20562 0.0
H371 H 0.97423 0.22872 0.20833 0.0
H372 H 0.01988 0.42872 0.15545 0.0
H373 H 0.09479 0.3951 0.08382 0.0
H374 H 0.16019 0.24714 0.15221 0.0
C375 C 0.988 0.31888 0.30954 0.0
C376 C 0.94229 0.36408 0.32853 0.0
C377 C 0.93095 0.4104 0.30148 0.0
C378 C 0.96372 0.41153 0.25599 0.0
C379 C 0.00844 0.36626 0.23827 0.0
C380 C 0.02127 0.32103 0.26438 0.0
C381 C 0.07302 0.27829 0.23758 0.0
C382 C 0.14984 0.27061 0.26453 0.0
C383 C 0.02978 0.22267 0.22767 0.0
C384 C 0.08682 0.30636 0.19219 0.0
C385 C 0.04855 0.35684 0.19309 0.0
C386 C 0.05062 0.38946 0.15449 0.0
C387 C 0.09311 0.37 0.11395 0.0
C388 C 0.13373 0.31878 0.11262 0.0
C389 C 0.13052 0.2868 0.15241 0.0
H390 H 0.84708 0.247 0.65243 0.0
H391 H 0.91289 0.39454 0.58357 0.0
H392 H 0.98764 0.42848 0.65519 0.0
H393 H 0.82633 0.31159 0.77137 0.0
H394 H 0.8679 0.25367 0.79911 0.0
H395 H 0.81751 0.24212 0.74313 0.0
H396 H 0.93991 0.19284 0.70583 0.0
H397 H 0.99068 0.20426 0.76168 0.0
H398 H 0.0324 0.22864 0.70852 0.0
H399 H 0.05314 0.44693 0.73508 0.0
H400 H 0.1119 0.44561 0.81508 0.0
H401 H 0.00879 0.28388 0.82998 0.0
C402 C 0.87682 0.28663 0.65253 0.0
C403 C 0.87378 0.3184 0.61261 0.0
C404 C 0.91445 0.3696 0.61381 0.0
C405 C 0.95685 0.38924 0.65435 0.0
C406 C 0.95875 0.35684 0.69309 0.0
C407 C 0.92041 0.30638 0.69233 0.0
C408 C 0.93409 0.27857 0.7379 0.0
C409 C 0.85686 0.27107 0.76444 0.0
C410 C 0.97682 0.22278 0.72786 0.0
C411 C 0.9859 0.32138 0.76454 0.0
C412 C 0.99882 0.36646 0.73828 0.0
C413 C 0.04363 0.41176 0.75587 0.0
C414 C 0.07641 0.4108 0.80139 0.0
C415 C 0.065 0.36461 0.82858 0.0
C416 C 0.01915 0.3194 0.80973 0.0
H417 H 0.07559 0.7292 0.6871 0.0
H418 H 0.89102 0.63865 0.60922 0.0
H419 H 0.82386 0.62486 0.6846 0.0
H420 H 0.07263 0.64599 0.79366 0.0
H421 H 0.09009 0.70661 0.83393 0.0
H422 H 0.12907 0.70313 0.77441 0.0
H423 H 0.05962 0.79589 0.75991 0.0
H424 H 0.02128 0.7994 0.81941 0.0
H425 H 0.95588 0.80195 0.76956 0.0
H426 H 0.7671 0.63312 0.76538 0.0
H427 H 0.72705 0.65883 0.84835 0.0
H428 H 0.95038 0.73933 0.87643 0.0
C429 C 0.02231 0.70503 0.68608 0.0
C430 C 0.98842 0.68501 0.64223 0.0
C431 C 0.91756 0.6548 0.64232 0.0
C432 C 0.8793 0.6464 0.68498 0.0
C433 C 0.91294 0.66802 0.72746 0.0
C434 C 0.98323 0.69624 0.72854 0.0
C435 C 1.0033 0.71902 0.77882 0.0
C436 C 0.07822 0.69206 0.79623 0.0
C437 C 0.01041 0.78283 0.7821 0.0
C438 C 0.93207 0.70063 0.80548 0.0
C439 C 0.88093 0.67108 0.77504 0.0
C440 C 0.80741 0.65487 0.78989 0.0
C441 C 0.78505 0.66976 0.83693 0.0
C442 C 0.83634 0.69988 0.8687 0.0
C443 C 0.9113 0.71464 0.85307 0.0
loop_
_geom_bond_atom_site_label_1
_geom_bond_atom_site_label_2
_geom_bond_distance
_geom_bond_site_symmetry_2
_ccdc_geom_bond_type
Co0 N5 2.057 . S
Co0 O17 2.021 . S
Co0 O20 2.062 . S
Co0 O24 2.117 . S
Co0 O25 2.020 1_556 S
C1 O21 1.272 . S
C1 O24 1.245 1_554 S
Co2 N11 2.057 . S
Co2 O18 2.117 . S
Co2 O19 2.020 1_554 S
Co2 O21 2.021 . S
Co2 O26 2.062 . S
C3 N5 1.316 . S
C3 N6 1.347 . S
C3 H8 0.931 . S
C4 N5 1.375 . S
C4 C7 1.350 . S
C4 H9 0.930 . S
N5 Co0 2.057 . S
N5 C3 1.316 . S
N5 C4 1.375 . S
N6 C3 1.347 . S
N6 C7 1.373 . S
C7 C4 1.350 . S
C7 N6 1.373 . S
C7 H28 0.931 1_455 S
H8 C3 0.931 . S
H9 C4 0.930 . S
C10 O17 1.269 . S
C10 O18 1.249 1_556 S
N11 Co2 2.057 . S
N11 C12 1.316 . S
N11 C13 1.375 . S
C12 N11 1.316 . S
C12 N14 1.347 . S
C12 H23 0.931 . S
C13 N11 1.375 . S
C13 C15 1.350 . S
C13 H22 0.930 . S
N14 C12 1.347 . S
N14 C15 1.373 . S
C15 C13 1.350 . S
C15 N14 1.373 . S
C15 H29 0.931 . S
C16 O19 1.256 . S
C16 O20 1.255 . S
O17 Co0 2.021 . S
O17 C10 1.269 . S
O18 Co2 2.117 . S
O18 C10 1.249 1_554 S
O19 Co2 2.020 1_556 S
O19 C16 1.256 . S
O20 Co0 2.062 . S
O20 C16 1.255 . S
O21 C1 1.272 . S
O21 Co2 2.021 . S
H22 C13 0.930 . S
H23 C12 0.931 . S
O24 Co0 2.117 . S
O24 C1 1.245 1_556 S
O25 Co0 2.020 1_554 S
O25 C27 1.256 . S
O26 Co2 2.062 . S
O26 C27 1.255 . S
C27 O25 1.256 . S
C27 O26 1.255 . S
H28 C7 0.931 1_655 S
H29 C15 0.931 . S
Co30 N35 2.057 . S
Co30 O47 2.021 . S
Co30 O50 2.062 . S
Co30 O54 2.117 . S
Co30 O55 2.020 1_556 S
C31 O51 1.272 . S
C31 O54 1.245 1_554 S
Co32 N41 2.057 . S
Co32 O48 2.117 . S
Co32 O49 2.020 1_554 S
Co32 O51 2.021 . S
Co32 O56 2.062 . S
C33 N35 1.316 . S
C33 N36 1.347 . S
C33 H38 0.931 . S
C34 N35 1.375 . S
C34 C37 1.350 . S
C34 H39 0.930 . S
N35 Co30 2.057 . S
N35 C33 1.316 . S
N35 C34 1.375 . S
N36 C33 1.347 . S
N36 C37 1.373 . S
C37 C34 1.350 . S
C37 N36 1.373 . S
C37 H58 0.931 . S
H38 C33 0.931 . S
H39 C34 0.930 . S
C40 O47 1.269 . S
C40 O48 1.249 1_556 S
N41 Co32 2.057 . S
N41 C42 1.316 . S
N41 C43 1.375 . S
C42 N41 1.316 . S
C42 N44 1.347 . S
C42 H53 0.931 . S
C43 N41 1.375 . S
C43 C45 1.350 . S
C43 H52 0.930 . S
N44 C42 1.347 . S
N44 C45 1.373 . S
C45 C43 1.350 . S
C45 N44 1.373 . S
C45 H59 0.931 1_655 S
C46 O49 1.256 . S
C46 O50 1.255 . S
O47 Co30 2.021 . S
O47 C40 1.269 . S
O48 Co32 2.117 . S
O48 C40 1.249 1_554 S
O49 Co32 2.020 1_556 S
O49 C46 1.256 . S
O50 Co30 2.062 . S
O50 C46 1.255 . S
O51 C31 1.272 . S
O51 Co32 2.021 . S
H52 C43 0.930 . S
H53 C42 0.931 . S
O54 Co30 2.117 . S
O54 C31 1.245 1_556 S
O55 Co30 2.020 1_554 S
O55 C57 1.256 . S
O56 Co32 2.062 . S
O56 C57 1.255 . S
C57 O55 1.256 . S
C57 O56 1.255 . S
H58 C37 0.931 . S
H59 C45 0.931 1_455 S
Co60 N65 2.057 . S
Co60 O77 2.021 . S
Co60 O80 2.062 . S
Co60 O84 2.117 . S
Co60 O85 2.020 . S
C61 O81 1.259 . S
C61 O84 1.258 . S
Co62 N71 2.057 . S
Co62 O78 2.117 . S
Co62 O79 2.020 . S
Co62 O81 2.021 . S
Co62 O86 2.062 . S
C63 N65 1.316 . S
C63 N66 1.347 . S
C63 H68 0.931 . S
C64 N65 1.375 . S
C64 C67 1.350 . S
C64 H69 0.930 . S
N65 Co60 2.057 . S
N65 C63 1.316 . S
N65 C64 1.375 . S
N66 C63 1.347 . S
N66 C67 1.373 . S
C67 C64 1.350 . S
C67 N66 1.373 . S
C67 H88 0.931 1_455 S
H68 C63 0.931 . S
H69 C64 0.930 . S
C70 O77 1.259 . S
C70 O78 1.258 . S
N71 Co62 2.057 . S
N71 C72 1.316 . S
N71 C73 1.375 . S
C72 N71 1.316 . S
C72 N74 1.347 . S
C72 H83 0.931 . S
C73 N71 1.375 . S
C73 C75 1.350 . S
C73 H82 0.930 . S
N74 C72 1.347 . S
N74 C75 1.373 . S
C75 C73 1.350 . S
C75 N74 1.373 . S
C75 H89 0.931 . S
C76 O79 1.256 . S
C76 O80 1.255 . S
O77 Co60 2.021 . S
O77 C70 1.259 . S
O78 Co62 2.117 . S
O78 C70 1.258 . S
O79 Co62 2.020 . S
O79 C76 1.256 . S
O80 Co60 2.062 . S
O80 C76 1.255 . S
O81 C61 1.259 . S
O81 Co62 2.021 . S
H82 C73 0.930 . S
H83 C72 0.931 . S
O84 Co60 2.117 . S
O84 C61 1.258 . S
O85 Co60 2.020 . S
O85 C87 1.256 . S
O86 Co62 2.062 . S
O86 C87 1.255 . S
C87 O85 1.256 . S
C87 O86 1.255 . S
H88 C67 0.931 1_655 S
H89 C75 0.931 . S
Co90 N95 2.057 . S
Co90 O107 2.021 . S
Co90 O110 2.062 . S
Co90 O114 2.117 . S
Co90 O115 2.020 . S
C91 O111 1.259 . S
C91 O114 1.258 . S
Co92 N101 2.057 . S
Co92 O108 2.117 . S
Co92 O109 2.020 . S
Co92 O111 2.021 . S
Co92 O116 2.062 . S
C93 N95 1.316 . S
C93 N96 1.347 . S
C93 H98 0.931 . S
C94 N95 1.375 . S
C94 C97 1.350 . S
C94 H99 0.930 . S
N95 Co90 2.057 . S
N95 C93 1.316 . S
N95 C94 1.375 . S
N96 C93 1.347 . S
N96 C97 1.373 . S
C97 C94 1.350 . S
C97 N96 1.373 . S
C97 H118 0.931 . S
H98 C93 0.931 . S
H99 C94 0.930 . S
C100 O107 1.259 . S
C100 O108 1.258 . S
N101 Co92 2.057 . S
N101 C102 1.316 . S
N101 C103 1.375 . S
C102 N101 1.316 . S
C102 N104 1.347 . S
C102 H113 0.931 . S
C103 N101 1.375 . S
C103 C105 1.350 . S
C103 H112 0.930 . S
N104 C102 1.347 . S
N104 C105 1.373 . S
C105 C103 1.350 . S
C105 N104 1.373 . S
C105 H119 0.931 1_655 S
C106 O109 1.256 . S
C106 O110 1.255 . S
O107 Co90 2.021 . S
O107 C100 1.259 . S
O108 Co92 2.117 . S
O108 C100 1.258 . S
O109 Co92 2.020 . S
O109 C106 1.256 . S
O110 Co90 2.062 . S
O110 C106 1.255 . S
O111 C91 1.259 . S
O111 Co92 2.021 . S
H112 C103 0.930 . S
H113 C102 0.931 . S
O114 Co90 2.117 . S
O114 C91 1.258 . S
O115 Co90 2.020 . S
O115 C117 1.256 . S
O116 Co92 2.062 . S
O116 C117 1.255 . S
C117 O115 1.256 . S
C117 O116 1.255 . S
H118 C97 0.931 . S
H119 C105 0.931 1_455 S
H120 C132 0.930 . S
H121 C134 0.930 . S
H122 C135 0.930 . S
H123 C139 0.959 . S
H124 C139 0.959 . S
H125 C139 0.961 . S
H126 C140 0.960 . S
H127 C140 0.961 . S
H128 C140 0.959 . S
H129 C143 0.929 . S
H130 C144 0.931 . S
H131 C146 0.930 . S
C132 H120 0.930 . S
C132 C133 1.399 1_556 S
C132 C137 1.399 . S
C133 C132 1.399 1_554 S
C133 C134 1.376 . S
C134 H121 0.930 . S
C134 C133 1.376 . S
C134 C135 1.388 . S
C135 H122 0.930 . S
C135 C134 1.388 . S
C135 C136 1.390 . S
C136 C135 1.390 . S
C136 C137 1.394 1_554 S
C136 C142 1.465 . S
C137 C132 1.399 . S
C137 C136 1.394 1_556 S
C137 C138 1.516 . S
C138 C137 1.516 . S
C138 C139 1.502 . S
C138 C140 1.561 . S
C138 C141 1.526 . S
C139 H123 0.959 . S
C139 H124 0.959 . S
C139 H125 0.961 . S
C139 C138 1.502 . S
C140 H126 0.960 . S
C140 H127 0.961 . S
C140 H128 0.959 . S
C140 C138 1.561 . S
C141 C138 1.526 . S
C141 C142 1.396 1_556 S
C141 C146 1.390 . S
C142 C136 1.465 . S
C142 C141 1.396 1_554 S
C142 C143 1.399 . S
C143 H129 0.929 . S
C143 C142 1.399 . S
C143 C144 1.385 . S
C144 H130 0.931 . S
C144 C143 1.385 . S
C144 C145 1.389 . S
C145 C144 1.389 . S
C145 C146 1.387 1_554 S
C146 H131 0.930 . S
C146 C141 1.390 . S
C146 C145 1.387 1_556 S
H147 C159 0.930 . S
H148 C161 0.930 . S
H149 C162 0.930 . S
H150 C166 0.959 . S
H151 C166 0.959 . S
H152 C166 0.961 . S
H153 C167 0.960 . S
H154 C167 0.961 . S
H155 C167 0.959 . S
H156 C170 0.929 . S
H157 C171 0.931 . S
H158 C173 0.930 . S
C159 H147 0.930 . S
C159 C160 1.399 . S
C159 C164 1.399 . S
C160 C159 1.399 . S
C160 C161 1.376 . S
C161 H148 0.930 . S
C161 C160 1.376 . S
C161 C162 1.388 . S
C162 H149 0.930 . S
C162 C161 1.388 . S
C162 C163 1.390 . S
C163 C162 1.390 . S
C163 C164 1.394 . S
C163 C169 1.465 . S
C164 C159 1.399 . S
C164 C163 1.394 . S
C164 C165 1.516 . S
C165 C164 1.516 . S
C165 C166 1.502 . S
C165 C167 1.561 . S
C165 C168 1.526 . S
C166 H150 0.959 . S
C166 H151 0.959 . S
C166 H152 0.961 . S
C166 C165 1.502 . S
C167 H153 0.960 . S
C167 H154 0.961 . S
C167 H155 0.959 . S
C167 C165 1.561 . S
C168 C165 1.526 . S
C168 C169 1.396 . S
C168 C173 1.390 . S
C169 C163 1.465 . S
C169 C168 1.396 . S
C169 C170 1.399 . S
C170 H156 0.929 . S
C170 C169 1.399 . S
C170 C171 1.385 . S
C171 H157 0.931 . S
C171 C170 1.385 . S
C171 C172 1.389 . S
C172 C171 1.389 . S
C172 C173 1.387 . S
C173 H158 0.930 . S
C173 C168 1.390 . S
C173 C172 1.387 . S
H174 C186 0.930 . S
H175 C188 0.930 . S
H176 C189 0.930 . S
H177 C193 0.959 1_465 S
H178 C193 0.959 . S
H179 C193 0.961 1_455 S
H180 C194 0.960 . S
H181 C194 0.961 . S
H182 C194 0.959 . S
H183 C197 0.929 . S
H184 C198 0.931 . S
H185 C200 0.930 . S
C186 H174 0.930 . S
C186 C187 1.399 1_554 S
C186 C191 1.399 . S
C187 C186 1.399 1_556 S
C187 C188 1.376 . S
C188 H175 0.930 . S
C188 C187 1.376 . S
C188 C189 1.388 . S
C189 H176 0.930 . S
C189 C188 1.388 . S
C189 C190 1.390 . S
C190 C189 1.390 . S
C190 C191 1.394 1_556 S
C190 C196 1.465 1_445 S
C191 C186 1.399 . S
C191 C190 1.394 1_554 S
C191 C192 1.516 1_455 S
C192 C191 1.516 1_655 S
C192 C193 1.502 . S
C192 C194 1.561 . S
C192 C195 1.526 1_545 S
C193 H177 0.959 1_645 S
C193 H178 0.959 . S
C193 H179 0.961 1_655 S
C193 C192 1.502 . S
C194 H180 0.960 . S
C194 H181 0.961 . S
C194 H182 0.959 . S
C194 C192 1.561 . S
C195 C192 1.526 1_565 S
C195 C196 1.396 1_554 S
C195 C200 1.390 . S
C196 C190 1.465 1_665 S
C196 C195 1.396 1_556 S
C196 C197 1.399 . S
C197 H183 0.929 . S
C197 C196 1.399 . S
C197 C198 1.385 . S
C198 H184 0.931 . S
C198 C197 1.385 . S
C198 C199 1.389 . S
C199 C198 1.389 . S
C199 C200 1.387 1_556 S
C200 H185 0.930 . S
C200 C195 1.390 . S
C200 C199 1.387 1_554 S
H201 C213 0.930 . S
H202 C215 0.930 . S
H203 C216 0.930 1_455 S
H204 C220 0.959 . S
H205 C220 0.959 . S
H206 C220 0.961 . S
H207 C221 0.960 . S
H208 C221 0.961 . S
H209 C221 0.959 1_455 S
H210 C224 0.929 1_545 S
H211 C225 0.931 . S
H212 C227 0.930 . S
C213 H201 0.930 . S
C213 C214 1.399 . S
C213 C218 1.399 . S
C214 C213 1.399 . S
C214 C215 1.376 . S
C215 H202 0.930 . S
C215 C214 1.376 . S
C215 C216 1.388 . S
C216 H203 0.930 1_655 S
C216 C215 1.388 . S
C216 C217 1.390 . S
C217 C216 1.390 . S
C217 C218 1.394 . S
C217 C223 1.465 1_645 S
C218 C213 1.399 . S
C218 C217 1.394 . S
C218 C219 1.516 1_545 S
C219 C218 1.516 1_565 S
C219 C220 1.502 . S
C219 C221 1.561 . S
C219 C222 1.526 1_655 S
C220 H204 0.959 . S
C220 H205 0.959 . S
C220 H206 0.961 . S
C220 C219 1.502 . S
C221 H207 0.960 . S
C221 H208 0.961 . S
C221 H209 0.959 1_655 S
C221 C219 1.561 . S
C222 C219 1.526 1_455 S
C222 C223 1.396 . S
C222 C227 1.390 . S
C223 C217 1.465 1_465 S
C223 C222 1.396 . S
C223 C224 1.399 . S
C224 H210 0.929 1_565 S
C224 C223 1.399 . S
C224 C225 1.385 . S
C225 H211 0.931 . S
C225 C224 1.385 . S
C225 C226 1.389 . S
C226 C225 1.389 . S
C226 C227 1.387 . S
C227 H212 0.930 . S
C227 C222 1.390 . S
C227 C226 1.387 . S
H228 C240 0.930 . S
H229 C242 0.930 . S
H230 C243 0.930 . S
H231 C247 0.959 . S
H232 C247 0.959 . S
H233 C247 0.961 . S
H234 C248 0.960 . S
H235 C248 0.961 . S
H236 C248 0.959 . S
H237 C251 0.929 . S
H238 C252 0.931 . S
H239 C254 0.930 . S
C240 H228 0.930 . S
C240 C241 1.399 . S
C240 C245 1.399 . S
C241 C240 1.399 . S
C241 C242 1.376 . S
C242 H229 0.930 . S
C242 C241 1.376 . S
C242 C243 1.388 . S
C243 H230 0.930 . S
C243 C242 1.388 . S
C243 C244 1.390 . S
C244 C243 1.390 . S
C244 C245 1.394 . S
C244 C250 1.465 . S
C245 C240 1.399 . S
C245 C244 1.394 . S
C245 C246 1.516 . S
C246 C245 1.516 . S
C246 C247 1.502 . S
C246 C248 1.561 . S
C246 C249 1.526 . S
C247 H231 0.959 . S
C247 H232 0.959 . S
C247 H233 0.961 . S
C247 C246 1.502 . S
C248 H234 0.960 . S
C248 H235 0.961 . S
C248 H236 0.959 . S
C248 C246 1.561 . S
C249 C246 1.526 . S
C249 C250 1.396 . S
C249 C254 1.390 . S
C250 C244 1.465 . S
C250 C249 1.396 . S
C250 C251 1.399 . S
C251 H237 0.929 . S
C251 C250 1.399 . S
C251 C252 1.385 . S
C252 H238 0.931 . S
C252 C251 1.385 . S
C252 C253 1.389 . S
C253 C252 1.389 . S
C253 C254 1.387 . S
C254 H239 0.930 . S
C254 C249 1.390 . S
C254 C253 1.387 . S
H255 C267 0.930 . S
H256 C269 0.930 . S
H257 C270 0.930 . S
H258 C274 0.959 . S
H259 C274 0.959 . S
H260 C274 0.961 . S
H261 C275 0.960 . S
H262 C275 0.961 . S
H263 C275 0.959 . S
H264 C278 0.929 . S
H265 C279 0.931 . S
H266 C281 0.930 . S
C267 H255 0.930 . S
C267 C268 1.399 . S
C267 C272 1.399 . S
C268 C267 1.399 . S
C268 C269 1.376 . S
C269 H256 0.930 . S
C269 C268 1.376 . S
C269 C270 1.388 . S
C270 H257 0.930 . S
C270 C269 1.388 . S
C270 C271 1.390 . S
C271 C270 1.390 . S
C271 C272 1.394 . S
C271 C277 1.465 . S
C272 C267 1.399 . S
C272 C271 1.394 . S
C272 C273 1.516 . S
C273 C272 1.516 . S
C273 C274 1.502 . S
C273 C275 1.561 . S
C273 C276 1.526 . S
C274 H258 0.959 . S
C274 H259 0.959 . S
C274 H260 0.961 . S
C274 C273 1.502 . S
C275 H261 0.960 . S
C275 H262 0.961 . S
C275 H263 0.959 . S
C275 C273 1.561 . S
C276 C273 1.526 . S
C276 C277 1.396 . S
C276 C281 1.390 . S
C277 C271 1.465 . S
C277 C276 1.396 . S
C277 C278 1.399 . S
C278 H264 0.929 . S
C278 C277 1.399 . S
C278 C279 1.385 . S
C279 H265 0.931 . S
C279 C278 1.385 . S
C279 C280 1.389 . S
C280 C279 1.389 . S
C280 C281 1.387 . S
C281 H266 0.930 . S
C281 C276 1.390 . S
C281 C280 1.387 . S
H282 C294 0.930 . S
H283 C296 0.930 . S
H284 C297 0.930 . S
H285 C301 0.959 . S
H286 C301 0.959 . S
H287 C301 0.961 . S
H288 C302 0.960 . S
H289 C302 0.961 . S
H290 C302 0.959 . S
H291 C305 0.929 . S
H292 C306 0.931 . S
H293 C308 0.930 . S
C294 H282 0.930 . S
C294 C295 1.399 . S
C294 C299 1.399 . S
C295 C294 1.399 . S
C295 C296 1.376 . S
C296 H283 0.930 . S
C296 C295 1.376 . S
C296 C297 1.388 . S
C297 H284 0.930 . S
C297 C296 1.388 . S
C297 C298 1.390 . S
C298 C297 1.390 . S
C298 C299 1.394 . S
C298 C304 1.465 . S
C299 C294 1.399 . S
C299 C298 1.394 . S
C299 C300 1.516 . S
C300 C299 1.516 . S
C300 C301 1.502 . S
C300 C302 1.561 . S
C300 C303 1.526 . S
C301 H285 0.959 . S
C301 H286 0.959 . S
C301 H287 0.961 . S
C301 C300 1.502 . S
C302 H288 0.960 . S
C302 H289 0.961 . S
C302 H290 0.959 . S
C302 C300 1.561 . S
C303 C300 1.526 . S
C303 C304 1.396 . S
C303 C308 1.390 . S
C304 C298 1.465 . S
C304 C303 1.396 . S
C304 C305 1.399 . S
C305 H291 0.929 . S
C305 C304 1.399 . S
C305 C306 1.385 . S
C306 H292 0.931 . S
C306 C305 1.385 . S
C306 C307 1.389 . S
C307 C306 1.389 . S
C307 C308 1.387 . S
C308 H293 0.930 . S
C308 C303 1.390 . S
C308 C307 1.387 . S
H309 C321 0.930 . S
H310 C323 0.930 . S
H311 C324 0.930 . S
H312 C328 0.959 . S
H313 C328 0.959 . S
H314 C328 0.961 . S
H315 C329 0.960 . S
H316 C329 0.961 . S
H317 C329 0.959 . S
H318 C332 0.929 . S
H319 C333 0.931 . S
H320 C335 0.930 . S
C321 H309 0.930 . S
C321 C322 1.399 . S
C321 C326 1.399 . S
C322 C321 1.399 . S
C322 C323 1.376 . S
C323 H310 0.930 . S
C323 C322 1.376 . S
C323 C324 1.388 . S
C324 H311 0.930 . S
C324 C323 1.388 . S
C324 C325 1.390 . S
C325 C324 1.390 . S
C325 C326 1.394 . S
C325 C331 1.465 . S
C326 C321 1.399 . S
C326 C325 1.394 . S
C326 C327 1.516 . S
C327 C326 1.516 . S
C327 C328 1.502 . S
C327 C329 1.561 . S
C327 C330 1.526 . S
C328 H312 0.959 . S
C328 H313 0.959 . S
C328 H314 0.961 . S
C328 C327 1.502 . S
C329 H315 0.960 . S
C329 H316 0.961 . S
C329 H317 0.959 . S
C329 C327 1.561 . S
C330 C327 1.526 . S
C330 C331 1.396 . S
C330 C335 1.390 . S
C331 C325 1.465 . S
C331 C330 1.396 . S
C331 C332 1.399 . S
C332 H318 0.929 . S
C332 C331 1.399 . S
C332 C333 1.385 . S
C333 H319 0.931 . S
C333 C332 1.385 . S
C333 C334 1.389 . S
C334 C333 1.389 . S
C334 C335 1.387 . S
C335 H320 0.930 . S
C335 C330 1.390 . S
C335 C334 1.387 . S
H336 C348 0.930 . S
H337 C350 0.930 . S
H338 C351 0.930 . S
H339 C355 0.959 . S
H340 C355 0.959 . S
H341 C355 0.961 . S
H342 C356 0.960 . S
H343 C356 0.961 . S
H344 C356 0.959 . S
H345 C359 0.929 . S
H346 C360 0.931 . S
H347 C362 0.930 . S
C348 H336 0.930 . S
C348 C349 1.399 . S
C348 C353 1.399 1_655 S
C349 C348 1.399 . S
C349 C350 1.376 1_655 S
C350 H337 0.930 . S
C350 C349 1.376 1_455 S
C350 C351 1.388 . S
C351 H338 0.930 . S
C351 C350 1.388 . S
C351 C352 1.390 . S
C352 C351 1.390 . S
C352 C353 1.394 . S
C352 C358 1.465 . S
C353 C348 1.399 1_455 S
C353 C352 1.394 . S
C353 C354 1.516 . S
C354 C353 1.516 . S
C354 C355 1.502 1_455 S
C354 C356 1.561 . S
C354 C357 1.526 . S
C355 H339 0.959 . S
C355 H340 0.959 . S
C355 H341 0.961 . S
C355 C354 1.502 1_655 S
C356 H342 0.960 . S
C356 H343 0.961 . S
C356 H344 0.959 . S
C356 C354 1.561 . S
C357 C354 1.526 . S
C357 C358 1.396 . S
C357 C362 1.390 . S
C358 C352 1.465 . S
C358 C357 1.396 . S
C358 C359 1.399 . S
C359 H345 0.929 . S
C359 C358 1.399 . S
C359 C360 1.385 . S
C360 H346 0.931 . S
C360 C359 1.385 . S
C360 C361 1.389 . S
C361 C360 1.389 . S
C361 C362 1.387 . S
C362 H347 0.930 . S
C362 C357 1.390 . S
C362 C361 1.387 . S
H363 C375 0.930 . S
H364 C377 0.930 . S
H365 C378 0.930 1_455 S
H366 C382 0.959 . S
H367 C382 0.959 . S
H368 C382 0.961 . S
H369 C383 0.960 . S
H370 C383 0.961 . S
H371 C383 0.959 . S
H372 C386 0.929 . S
H373 C387 0.931 . S
H374 C389 0.930 . S
C375 H363 0.930 . S
C375 C376 1.399 . S
C375 C380 1.399 1_655 S
C376 C375 1.399 . S
C376 C377 1.376 . S
C377 H364 0.930 . S
C377 C376 1.376 . S
C377 C378 1.388 . S
C378 H365 0.930 1_655 S
C378 C377 1.388 . S
C378 C379 1.390 1_655 S
C379 C378 1.390 1_455 S
C379 C380 1.394 . S
C379 C385 1.465 . S
C380 C375 1.399 1_455 S
C380 C379 1.394 . S
C380 C381 1.516 . S
C381 C380 1.516 . S
C381 C382 1.502 . S
C381 C383 1.561 1_455 S
C381 C384 1.526 . S
C382 H366 0.959 . S
C382 H367 0.959 . S
C382 H368 0.961 . S
C382 C381 1.502 . S
C383 H369 0.960 . S
C383 H370 0.961 . S
C383 H371 0.959 . S
C383 C381 1.561 1_655 S
C384 C381 1.526 . S
C384 C385 1.396 . S
C384 C389 1.390 . S
C385 C379 1.465 . S
C385 C384 1.396 . S
C385 C386 1.399 . S
C386 H372 0.929 . S
C386 C385 1.399 . S
C386 C387 1.385 . S
C387 H373 0.931 . S
C387 C386 1.385 . S
C387 C388 1.389 . S
C388 C387 1.389 . S
C388 C389 1.387 . S
C389 H374 0.930 . S
C389 C384 1.390 . S
C389 C388 1.387 . S
H390 C402 0.930 . S
H391 C404 0.930 . S
H392 C405 0.930 1_455 S
H393 C409 0.959 . S
H394 C409 0.959 . S
H395 C409 0.961 . S
H396 C410 0.960 . S
H397 C410 0.961 . S
H398 C410 0.959 . S
H399 C413 0.929 . S
H400 C414 0.931 . S
H401 C416 0.930 . S
C402 H390 0.930 . S
C402 C403 1.399 . S
C402 C407 1.399 . S
C403 C402 1.399 . S
C403 C404 1.376 . S
C404 H391 0.930 . S
C404 C403 1.376 . S
C404 C405 1.388 . S
C405 H392 0.930 1_655 S
C405 C404 1.388 . S
C405 C406 1.390 . S
C406 C405 1.390 . S
C406 C407 1.394 . S
C406 C412 1.465 . S
C407 C402 1.399 . S
C407 C406 1.394 . S
C407 C408 1.516 . S
C408 C407 1.516 . S
C408 C409 1.502 . S
C408 C410 1.561 . S
C408 C411 1.526 . S
C409 H393 0.959 . S
C409 H394 0.959 . S
C409 H395 0.961 . S
C409 C408 1.502 . S
C410 H396 0.960 . S
C410 H397 0.961 . S
C410 H398 0.959 . S
C410 C408 1.561 . S
C411 C408 1.526 . S
C411 C412 1.396 . S
C411 C416 1.390 . S
C412 C406 1.465 . S
C412 C411 1.396 . S
C412 C413 1.399 1_655 S
C413 H399 0.929 . S
C413 C412 1.399 1_455 S
C413 C414 1.385 . S
C414 H400 0.931 . S
C414 C413 1.385 . S
C414 C415 1.389 . S
C415 C414 1.389 . S
C415 C416 1.387 1_455 S
C416 H401 0.930 . S
C416 C411 1.390 . S
C416 C415 1.387 1_655 S
H417 C429 0.930 . S
H418 C431 0.930 . S
H419 C432 0.930 . S
H420 C436 0.959 . S
H421 C436 0.959 . S
H422 C436 0.961 . S
H423 C437 0.960 . S
H424 C437 0.961 . S
H425 C437 0.959 . S
H426 C440 0.929 . S
H427 C441 0.931 . S
H428 C443 0.930 . S
C429 H417 0.930 . S
C429 C430 1.399 . S
C429 C434 1.399 1_455 S
C430 C429 1.399 . S
C430 C431 1.376 1_455 S
C431 H418 0.930 . S
C431 C430 1.376 1_655 S
C431 C432 1.388 . S
C432 H419 0.930 . S
C432 C431 1.388 . S
C432 C433 1.390 . S
C433 C432 1.390 . S
C433 C434 1.394 . S
C433 C439 1.465 . S
C434 C429 1.399 1_655 S
C434 C433 1.394 . S
C434 C435 1.516 . S
C435 C434 1.516 . S
C435 C436 1.502 1_655 S
C435 C437 1.561 . S
C435 C438 1.526 . S
C436 H420 0.959 . S
C436 H421 0.959 . S
C436 H422 0.961 . S
C436 C435 1.502 1_455 S
C437 H423 0.960 . S
C437 H424 0.961 . S
C437 H425 0.959 . S
C437 C435 1.561 . S
C438 C435 1.526 . S
C438 C439 1.396 . S
C438 C443 1.390 . S
C439 C433 1.465 . S
C439 C438 1.396 . S
C439 C440 1.399 . S
C440 H426 0.929 . S
C440 C439 1.399 . S
C440 C441 1.385 . S
C441 H427 0.931 . S
C441 C440 1.385 . S
C441 C442 1.389 . S
C442 C441 1.389 . S
C442 C443 1.387 . S
C443 H428 0.930 . S
C443 C438 1.390 . S
C443 C442 1.387 . S
C133 C31 1.664 . S
C145 C10 1.647 1_554 S
C160 C70 1.636 . S
C172 C91 1.663 . S
C187 C1 1.655 1_556 S
C199 C40 1.644 . S
C214 C100 1.632 . S
C226 C61 1.669 . S
C241 C117 0.999 . S
C253 N14 0.916 . S
C268 C57 1.003 . S
C280 N74 0.921 . S
C295 N36 0.954 . S
C307 C76 1.003 . S
C322 N96 0.930 . S
C334 C16 0.990 . S
C349 N44 0.920 . S
C361 C87 0.958 . S
C376 N104 1.026 . S
C388 C27 1.014 . S
C403 C106 1.025 . S
C415 N6 1.018 . S
C430 N66 1.004 . S
C442 C46 0.996 . S
