# Generated by pormake.
# Topology ukb, (4)-cn, num edge types: 1
# Building blocks:
#     Node 0, Type 0, BuildingBlock: GALJAG_clean_sbu_0, # of connection points: 4
#     Node 1, Type 0, BuildingBlock: GALJAG_clean_sbu_0, # of connection points: 4
#     Node 2, Type 0, BuildingBlock: GALJAG_clean_sbu_0, # of connection points: 4
#     Node 3, Type 0, BuildingBlock: GALJAG_clean_sbu_0, # of connection points: 4
#     Node 4, Type 0, BuildingBlock: GALJAG_clean_sbu_0, # of connection points: 4
#     Node 5, Type 0, BuildingBlock: GALJAG_clean_sbu_0, # of connection points: 4
#     Node 6, Type 0, BuildingBlock: GALJAG_clean_sbu_0, # of connection points: 4
#     Node 7, Type 0, BuildingBlock: GALJAG_clean_sbu_0, # of connection points: 4
#     Node 8, Type 0, BuildingBlock: GALJAG_clean_sbu_0, # of connection points: 4
#     Node 9, Type 0, BuildingBlock: GALJAG_clean_sbu_0, # of connection points: 4
#     Node 10, Type 0, BuildingBlock: GALJAG_clean_sbu_0, # of connection points: 4
#     Node 11, Type 0, BuildingBlock: GALJAG_clean_sbu_0, # of connection points: 4
#     Node 12, Type 0, BuildingBlock: GALJAG_clean_sbu_0, # of connection points: 4
#     Node 13, Type 0, BuildingBlock: GALJAG_clean_sbu_0, # of connection points: 4
#     Node 14, Type 0, BuildingBlock: GALJAG_clean_sbu_0, # of connection points: 4
#     Node 15, Type 0, BuildingBlock: GALJAG_clean_sbu_0, # of connection points: 4
#     Edge 16, Type (0, 0), BuildingBlock: AJUNOK_clean_linker_0, # of connection points: 2
#     Edge 17, Type (0, 0), BuildingBlock: AJUNOK_clean_linker_0, # of connection points: 2
#     Edge 18, Type (0, 0), BuildingBlock: AJUNOK_clean_linker_0, # of connection points: 2
#     Edge 19, Type (0, 0), BuildingBlock: AJUNOK_clean_linker_0, # of connection points: 2
#     Edge 20, Type (0, 0), BuildingBlock: AJUNOK_clean_linker_0, # of connection points: 2
#     Edge 21, Type (0, 0), BuildingBlock: AJUNOK_clean_linker_0, # of connection points: 2
#     Edge 22, Type (0, 0), BuildingBlock: AJUNOK_clean_linker_0, # of connection points: 2
#     Edge 23, Type (0, 0), BuildingBlock: AJUNOK_clean_linker_0, # of connection points: 2
#     Edge 24, Type (0, 0), BuildingBlock: AJUNOK_clean_linker_0, # of connection points: 2
#     Edge 25, Type (0, 0), BuildingBlock: AJUNOK_clean_linker_0, # of connection points: 2
#     Edge 26, Type (0, 0), BuildingBlock: AJUNOK_clean_linker_0, # of connection points: 2
#     Edge 27, Type (0, 0), BuildingBlock: AJUNOK_clean_linker_0, # of connection points: 2
#     Edge 28, Type (0, 0), BuildingBlock: AJUNOK_clean_linker_0, # of connection points: 2
#     Edge 29, Type (0, 0), BuildingBlock: AJUNOK_clean_linker_0, # of connection points: 2
#     Edge 30, Type (0, 0), BuildingBlock: AJUNOK_clean_linker_0, # of connection points: 2
#     Edge 31, Type (0, 0), BuildingBlock: AJUNOK_clean_linker_0, # of connection points: 2
#     Edge 32, Type (0, 0), BuildingBlock: AJUNOK_clean_linker_0, # of connection points: 2
#     Edge 33, Type (0, 0), BuildingBlock: AJUNOK_clean_linker_0, # of connection points: 2
#     Edge 34, Type (0, 0), BuildingBlock: AJUNOK_clean_linker_0, # of connection points: 2
#     Edge 35, Type (0, 0), BuildingBlock: AJUNOK_clean_linker_0, # of connection points: 2
#     Edge 36, Type (0, 0), BuildingBlock: AJUNOK_clean_linker_0, # of connection points: 2
#     Edge 37, Type (0, 0), BuildingBlock: AJUNOK_clean_linker_0, # of connection points: 2
#     Edge 38, Type (0, 0), BuildingBlock: AJUNOK_clean_linker_0, # of connection points: 2
#     Edge 39, Type (0, 0), BuildingBlock: AJUNOK_clean_linker_0, # of connection points: 2
#     Edge 40, Type (0, 0), BuildingBlock: AJUNOK_clean_linker_0, # of connection points: 2
#     Edge 41, Type (0, 0), BuildingBlock: AJUNOK_clean_linker_0, # of connection points: 2
#     Edge 42, Type (0, 0), BuildingBlock: AJUNOK_clean_linker_0, # of connection points: 2
#     Edge 43, Type (0, 0), BuildingBlock: AJUNOK_clean_linker_0, # of connection points: 2
#     Edge 44, Type (0, 0), BuildingBlock: AJUNOK_clean_linker_0, # of connection points: 2
#     Edge 45, Type (0, 0), BuildingBlock: AJUNOK_clean_linker_0, # of connection points: 2
#     Edge 46, Type (0, 0), BuildingBlock: AJUNOK_clean_linker_0, # of connection points: 2
#     Edge 47, Type (0, 0), BuildingBlock: AJUNOK_clean_linker_0, # of connection points: 2
# Relax obj value: 0.140
# Max RMSD: 0.093
# Mean RMSD: 0.093
data_MOF--net-ukb--node1-GALJAG_clean_sbu_0--edge1-AJUNOK_clean_linker_0
_symmetry_space_group_name_H-M    P1
_symmetry_Int_Tables_number       1
_symmetry_cell_setting            triclinic
loop_
_symmetry_equiv_pos_as_xyz
'x, y, z'
_cell_length_a     32.848382
_cell_length_b     32.856563
_cell_length_c     27.989439
_cell_angle_alpha  89.943111
_cell_angle_beta   90.052375
_cell_angle_gamma 90.054197
loop_
_atom_site_label
_atom_site_type_symbol
_atom_site_fract_x
_atom_site_fract_y
_atom_site_fract_z
_atom_type_partial_charge
In0 In 0.52892 0.19207 0.186 0.0
O1 O 0.57864 0.14493 0.17294 0.0
O2 O 0.57367 0.17053 0.24239 0.0
C3 C 0.51856 0.21264 0.09361 0.0
C4 C 0.4661 0.14433 0.21314 0.0
C5 C 0.55302 0.26432 0.22235 0.0
O6 O 0.54969 0.19455 0.10919 0.0
O7 O 0.49113 0.2188 0.12441 0.0
O8 O 0.52741 0.24209 0.2438 0.0
O9 O 0.56499 0.25042 0.18293 0.0
C10 C 0.59215 0.14619 0.21515 0.0
O11 O 0.46557 0.18237 0.21993 0.0
O12 O 0.49705 0.13146 0.1914 0.0
In13 In 0.30745 0.53389 0.68111 0.0
O14 O 0.32592 0.48723 0.73795 0.0
O15 O 0.35176 0.48188 0.66871 0.0
C16 C 0.23783 0.54676 0.73076 0.0
C17 C 0.35698 0.59951 0.69062 0.0
C18 C 0.28375 0.52706 0.58907 0.0
O19 O 0.23898 0.52702 0.69227 0.0
O20 O 0.27228 0.55765 0.74599 0.0
O21 O 0.29835 0.55947 0.60614 0.0
O22 O 0.28224 0.49769 0.61805 0.0
C23 C 0.34984 0.4681 0.71071 0.0
O24 O 0.3194 0.6022 0.68217 0.0
O25 O 0.37005 0.5635 0.69289 0.0
In26 In 0.9575 0.3113 0.18264 0.0
O27 O 0.01463 0.32084 0.22799 0.0
O28 O 0.00467 0.36084 0.16947 0.0
C29 C 0.93095 0.2389 0.21557 0.0
C30 C 0.90083 0.36199 0.21957 0.0
C31 C 0.96393 0.28904 0.09042 0.0
O32 O 0.96398 0.2544 0.22995 0.0
O33 O 0.9122 0.25965 0.18477 0.0
O34 O 0.93611 0.3121 0.10565 0.0
O35 O 0.98975 0.27838 0.12152 0.0
C36 C 0.02691 0.35124 0.20446 0.0
O37 O 0.90894 0.36122 0.17552 0.0
O38 O 0.92182 0.33794 0.24446 0.0
In39 In 0.20114 0.97068 0.69839 0.0
O40 O 0.18682 0.02342 0.74922 0.0
O41 O 0.15274 0.01892 0.68493 0.0
C42 C 0.27144 0.95059 0.74341 0.0
C43 C 0.14732 0.91063 0.71729 0.0
C44 C 0.22831 0.97356 0.60753 0.0
O45 O 0.26883 0.98134 0.71661 0.0
O46 O 0.23856 0.93163 0.74886 0.0
O47 O 0.21908 0.94061 0.62818 0.0
O48 O 0.2231 0.00509 0.63249 0.0
C49 C 0.15892 0.03793 0.72333 0.0
O50 O 0.15759 0.91939 0.67499 0.0
O51 O 0.16287 0.93315 0.74884 0.0
In52 In 0.53186 0.30678 0.81207 0.0
O53 O 0.56693 0.367 0.80198 0.0
O54 O 0.60067 0.31266 0.81025 0.0
C55 C 0.52164 0.2838 0.90382 0.0
C56 C 0.46762 0.35043 0.78001 0.0
C57 C 0.54613 0.23776 0.76236 0.0
O58 O 0.55346 0.30111 0.88883 0.0
O59 O 0.49409 0.27924 0.87283 0.0
O60 O 0.55257 0.27269 0.74522 0.0
O61 O 0.52968 0.2379 0.80303 0.0
C62 C 0.60157 0.35046 0.8032 0.0
O63 O 0.48459 0.32325 0.75521 0.0
O64 O 0.48264 0.355 0.82114 0.0
In65 In 0.19063 0.52947 0.30619 0.0
O66 O 0.1728 0.48496 0.24716 0.0
O67 O 0.14654 0.47627 0.31561 0.0
C68 C 0.25994 0.54303 0.25679 0.0
C69 C 0.14447 0.59702 0.29566 0.0
C70 C 0.21373 0.52361 0.39846 0.0
O71 O 0.25955 0.52589 0.2971 0.0
O72 O 0.22517 0.55081 0.24013 0.0
O73 O 0.1957 0.55437 0.38172 0.0
O74 O 0.21887 0.49501 0.36899 0.0
C75 C 0.14862 0.46464 0.27276 0.0
O76 O 0.18268 0.5976 0.29905 0.0
O77 O 0.12886 0.56205 0.29931 0.0
In78 In 0.97217 0.20003 0.80517 0.0
O79 O 0.92027 0.15563 0.82462 0.0
O80 O 0.93001 0.17012 0.75175 0.0
C81 C 0.96877 0.22513 0.8967 0.0
C82 C 0.03986 0.15694 0.78298 0.0
C83 C 0.9588 0.27201 0.76015 0.0
O84 O 0.93739 0.21861 0.87171 0.0
O85 O 0.00209 0.21812 0.87571 0.0
O86 O 0.94739 0.23826 0.74375 0.0
O87 O 0.97884 0.26952 0.79846 0.0
C88 C 0.90889 0.15103 0.78186 0.0
O89 O 0.03017 0.18923 0.76149 0.0
O90 O 0.01615 0.14704 0.81635 0.0
In91 In 0.30584 0.96262 0.31936 0.0
O92 O 0.34987 0.90887 0.32748 0.0
O93 O 0.32293 0.91939 0.25966 0.0
C94 C 0.2912 0.97234 0.41342 0.0
C95 C 0.35285 0.02608 0.29202 0.0
C96 C 0.23051 0.94421 0.28723 0.0
O97 O 0.30742 0.94072 0.39634 0.0
O98 O 0.28393 -5e-05 0.38315 0.0
O99 O 0.25504 0.96526 0.26275 0.0
O100 O 0.24382 0.93353 0.32748 0.0
C101 C 0.34659 0.89778 0.28444 0.0
O102 O 0.31452 0.02718 0.28855 0.0
O103 O 0.36671 0.99391 0.31035 0.0
In104 In 0.47518 0.80518 0.80751 0.0
O105 O 0.52733 0.81928 0.75528 0.0
O106 O 0.52395 0.85251 0.8202 0.0
C107 C 0.4443 0.74168 0.75788 0.0
C108 C 0.41568 0.86071 0.79528 0.0
C109 C 0.48884 0.77632 0.89648 0.0
O110 O 0.48204 0.74523 0.76577 0.0
O111 O 0.42291 0.77027 0.77413 0.0
O112 O 0.47475 0.8113 0.88849 0.0
O113 O 0.49619 0.75572 0.85956 0.0
C114 C 0.54202 0.8471 0.78114 0.0
O115 O 0.41642 0.83638 0.83028 0.0
O116 O 0.44482 0.8567 0.76627 0.0
In117 In 0.6849 0.46818 0.32706 0.0
O118 O 0.64257 0.41392 0.34083 0.0
O119 O 0.65837 0.428 0.26911 0.0
C120 C 0.70814 0.48603 0.41674 0.0
C121 C 0.63797 0.53102 0.29921 0.0
C122 C 0.75691 0.44154 0.29393 0.0
O123 O 0.68034 0.4606 0.40776 0.0
O124 O 0.72272 0.50386 0.38065 0.0
O125 O 0.73762 0.46991 0.27336 0.0
O126 O 0.73952 0.42675 0.33016 0.0
C127 C 0.63864 0.40525 0.29711 0.0
O128 O 0.67461 0.52801 0.28601 0.0
O129 O 0.62635 0.50382 0.32783 0.0
In130 In 0.03713 0.69117 0.81178 0.0
O131 O 0.09349 0.6539 0.83232 0.0
O132 O 0.06827 0.64455 0.76362 0.0
C133 C 0.01921 0.71845 0.89968 0.0
C134 C 0.96625 0.656 0.78579 0.0
C135 C 0.06921 0.75987 0.7745 0.0
O136 O 0.03494 0.68391 0.8926 0.0
O137 O 0.01094 0.73835 0.86234 0.0
O138 O 0.03812 0.74321 0.75643 0.0
O139 O 0.08407 0.7414 0.80989 0.0
C140 C 0.09558 0.63512 0.7932 0.0
O141 O 0.98436 0.68162 0.75969 0.0
O142 O 0.98351 0.64898 0.82519 0.0
In143 In 0.80608 0.02938 0.31445 0.0
O144 O 0.81305 0.96873 0.27433 0.0
O145 O 0.865 0.99512 0.30771 0.0
C146 C 0.73569 0.06042 0.28217 0.0
C147 C 0.85164 0.09278 0.28539 0.0
C148 C 0.78376 0.00916 0.40367 0.0
O149 O 0.75283 0.03064 0.2618 0.0
O150 O 0.75402 0.07381 0.31855 0.0
O151 O 0.81336 0.03266 0.39534 0.0
O152 O 0.76684 0.9945 0.3671 0.0
C153 C 0.8508 0.96678 0.2825 0.0
O154 O 0.84946 0.08256 0.3289 0.0
O155 O 0.83102 0.07099 0.25723 0.0
In156 In 0.46214 0.68566 0.17499 0.0
O157 O 0.4072 0.64753 0.1525 0.0
O158 O 0.42421 0.64754 0.22584 0.0
C159 C 0.48607 0.70979 0.08751 0.0
C160 C 0.52541 0.6425 0.20864 0.0
C161 C 0.42786 0.75383 0.21027 0.0
O162 O 0.46491 0.67824 0.09417 0.0
O163 O 0.4968 0.72797 0.12513 0.0
O164 O 0.45713 0.73633 0.23127 0.0
O165 O 0.4161 0.73658 0.17254 0.0
C166 C 0.40026 0.6344 0.19413 0.0
O167 O 0.52043 0.67935 0.22007 0.0
O168 O 0.50002 0.62874 0.17906 0.0
In169 In 0.80963 0.47113 0.69408 0.0
O170 O 0.8253 0.51866 0.75101 0.0
O171 O 0.8443 0.52981 0.67986 0.0
C172 C 0.74706 0.43538 0.74059 0.0
C173 C 0.86965 0.41548 0.70452 0.0
C174 C 0.77832 0.48432 0.60637 0.0
O175 O 0.75048 0.47366 0.73799 0.0
O176 O 0.7751 0.41588 0.72024 0.0
O177 O 0.81512 0.47485 0.61306 0.0
O178 O 0.75737 0.48735 0.64392 0.0
C179 C 0.84416 0.54178 0.72256 0.0
O180 O 0.84779 0.41765 0.66749 0.0
O181 O 0.8617 0.44196 0.73575 0.0
In182 In 0.03174 0.80765 0.18265 0.0
O183 O 0.0874 0.8483 0.17127 0.0
O184 O 0.06144 0.84535 0.24078 0.0
C185 C 0.02023 0.78245 0.09205 0.0
C186 C 0.96542 0.8519 0.20383 0.0
C187 C 0.0621 0.7408 0.22512 0.0
O188 O 0.04023 0.81403 0.1023 0.0
O189 O 0.00591 0.76356 0.12748 0.0
O190 O 0.02474 0.74979 0.22809 0.0
O191 O 0.08326 0.76516 0.20069 0.0
C192 C 0.08886 0.86001 0.21427 0.0
O193 O 0.97278 0.81865 0.22485 0.0
O194 O 0.99012 0.86109 0.17122 0.0
In195 In 0.69252 0.03768 0.68126 0.0
O196 O 0.68573 0.97721 0.72226 0.0
O197 O 0.63575 0.99946 0.68152 0.0
C198 C 0.76052 0.07065 0.71886 0.0
C199 C 0.64095 0.0993 0.70063 0.0
C200 C 0.71728 0.01463 0.59384 0.0
O201 O 0.74172 0.04206 0.73968 0.0
O202 O 0.7446 0.08234 0.68022 0.0
O203 O 0.68526 0.03501 0.60052 0.0
O204 O 0.73638 0.00513 0.63129 0.0
C205 C 0.6492 0.97241 0.70917 0.0
O206 O 0.65534 0.09346 0.65937 0.0
O207 O 0.65314 0.07447 0.73196 0.0
C208 C 0.4474 0.07527 0.24136 0.0
C209 C 0.43561 0.11576 0.23292 0.0
C210 C 0.42046 0.04704 0.26119 0.0
C211 C 0.38024 0.05781 0.2726 0.0
H212 H 0.47804 0.06525 0.2332 0.0
H213 H 0.43123 0.01626 0.26695 0.0
S214 S 0.33384 0.15986 0.25707 0.0
N215 N 0.38104 0.16551 0.23777 0.0
N216 N 0.32965 0.1118 0.2739 0.0
C217 C 0.36773 0.09812 0.26405 0.0
C218 C 0.39562 0.12728 0.24459 0.0
C219 C 0.38409 0.43006 0.7768 0.0
C220 C 0.3764 0.43468 0.72766 0.0
C221 C 0.41286 0.40191 0.79345 0.0
C222 C 0.4346 0.37689 0.76166 0.0
H223 H 0.36892 0.44939 0.80255 0.0
H224 H 0.41865 0.40034 0.83152 0.0
S225 S 0.423 0.37455 0.62976 0.0
N226 N 0.391 0.41017 0.64752 0.0
N227 N 0.4446 0.35685 0.67884 0.0
C228 C 0.42581 0.37986 0.71258 0.0
C229 C 0.39686 0.40888 0.69558 0.0
C230 C 0.07356 0.37705 0.26801 0.0
C231 C 0.06195 0.37637 0.21964 0.0
C232 C 0.10269 0.40485 0.28467 0.0
C233 C 0.12187 0.43236 0.25339 0.0
H234 H 0.05869 0.3573 0.29364 0.0
H235 H 0.10953 0.40543 0.32254 0.0
S236 S 0.10509 0.43997 0.12252 0.0
N237 N 0.07367 0.40369 0.14011 0.0
N238 N 0.12915 0.45526 0.17113 0.0
C239 C 0.11215 0.43042 0.20448 0.0
C240 C 0.08196 0.40262 0.18768 0.0
C241 C 0.1218 0.07589 0.78686 0.0
C242 C 0.13277 0.07201 0.73856 0.0
C243 C 0.09246 0.10436 0.80122 0.0
C244 C 0.07401 0.13067 0.76796 0.0
H245 H 0.13448 0.05548 0.8134 0.0
H246 H 0.0836 0.10524 0.83848 0.0
S247 S 0.0951 0.13498 0.63787 0.0
N248 N 0.12465 0.09805 0.65787 0.0
N249 N 0.07065 0.15262 0.68505 0.0
C250 C 0.08638 0.12852 0.71996 0.0
C251 C 0.11545 0.09886 0.70519 0.0
C252 C 0.61077 0.86953 0.75224 0.0
C253 C 0.56979 0.87814 0.76235 0.0
C254 C 0.63701 0.90038 0.73575 0.0
C255 C 0.62246 0.94009 0.72773 0.0
H256 H 0.62261 0.83913 0.75776 0.0
H257 H 0.66855 0.89304 0.7285 0.0
S258 S 0.51743 0.9773 0.7491 0.0
N259 N 0.51604 0.92871 0.76406 0.0
N260 N 0.56461 0.98616 0.73168 0.0
C261 C 0.5814 0.94864 0.73746 0.0
C262 C 0.55521 0.91772 0.75514 0.0
C263 C 0.59508 0.62615 0.24017 0.0
C264 C 0.55411 0.61529 0.23322 0.0
C265 C 0.62246 0.59881 0.26177 0.0
C266 C 0.60917 0.56059 0.27842 0.0
H267 H 0.60618 0.65534 0.22773 0.0
H268 H 0.65408 0.60761 0.26557 0.0
S269 S 0.50414 0.5192 0.27056 0.0
N270 N 0.50133 0.56456 0.24543 0.0
N271 N 0.55205 0.51392 0.28726 0.0
C272 C 0.56793 0.55013 0.27275 0.0
C273 C 0.54056 0.57734 0.24981 0.0
C274 C 0.91004 0.60694 0.80259 0.0
C275 C 0.93018 0.63258 0.76993 0.0
C276 C 0.88005 0.57951 0.78739 0.0
C277 C 0.86938 0.5764 0.73889 0.0
H278 H 0.9186 0.60686 0.83997 0.0
H279 H 0.86682 0.55908 0.81354 0.0
S280 S 0.90913 0.64033 0.63994 0.0
N281 N 0.93426 0.65605 0.68759 0.0
N282 N 0.87818 0.60417 0.65895 0.0
C283 C 0.88733 0.60368 0.70632 0.0
C284 C 0.91766 0.63188 0.72187 0.0
C285 C 0.87037 0.89523 0.26196 0.0
C286 C 0.87785 0.93728 0.25941 0.0
C287 C 0.89862 0.8673 0.24333 0.0
C288 C 0.93425 0.88088 0.22035 0.0
H289 H 0.84342 0.88393 0.2799 0.0
H290 H 0.89271 0.83502 0.24715 0.0
S291 S 0.966 0.98833 0.20257 0.0
N292 N 0.92234 0.99127 0.23146 0.0
N293 N 0.97459 0.93927 0.19507 0.0
C294 C 0.94104 0.923 0.21623 0.0
C295 C 0.913 0.95112 0.23616 0.0
C296 C 0.59488 0.32678 0.21261 0.0
C297 C 0.5707 0.3021 0.24235 0.0
C298 C 0.6159 0.3604 0.23068 0.0
C299 C 0.61392 0.37071 0.27934 0.0
H300 H 0.59829 0.3197 0.17505 0.0
H301 H 0.6346 0.37792 0.20626 0.0
S302 S 0.55293 0.31748 0.37193 0.0
N303 N 0.54435 0.29135 0.32253 0.0
N304 N 0.58417 0.35472 0.35673 0.0
C305 C 0.58889 0.34708 0.30938 0.0
C306 C 0.56717 0.31279 0.29078 0.0
C307 C 0.20052 0.58737 0.79221 0.0
C308 C 0.19934 0.5624 0.75139 0.0
C309 C 0.16609 0.60915 0.80707 0.0
C310 C 0.12935 0.60712 0.78133 0.0
H311 H 0.22874 0.59162 0.81167 0.0
H312 H 0.16896 0.6293 0.83749 0.0
S313 S 0.10848 0.54182 0.67606 0.0
N314 N 0.15686 0.53345 0.68867 0.0
N315 N 0.09246 0.57484 0.71626 0.0
C316 C 0.12697 0.58031 0.74233 0.0
C317 C 0.16187 0.55778 0.72749 0.0
C318 C 0.86616 0.14414 0.22246 0.0
C319 C 0.87461 0.12864 0.26824 0.0
C320 C 0.8853 0.17932 0.20563 0.0
C321 C 0.91416 0.20011 0.23354 0.0
H322 H 0.84378 0.12958 0.1997 0.0
H323 H 0.87707 0.19051 0.17049 0.0
S324 S 0.94886 0.17101 0.35496 0.0
N325 N 0.91481 0.136 0.34078 0.0
N326 N 0.95147 0.20203 0.30857 0.0
C327 C 0.92398 0.18434 0.2788 0.0
C328 C 0.90397 0.14867 0.29634 0.0
C329 C 0.30927 0.90436 0.79803 0.0
C330 C 0.31025 0.93407 0.76182 0.0
C331 C 0.34416 0.8823 0.81038 0.0
C332 C 0.38123 0.88868 0.78647 0.0
H333 H 0.28091 0.89693 0.81579 0.0
H334 H 0.34146 0.8587 0.83725 0.0
S335 S 0.40107 0.96603 0.69258 0.0
N336 N 0.35224 0.97131 0.70514 0.0
N337 N 0.41782 0.92935 0.72785 0.0
C338 C 0.38324 0.91987 0.75205 0.0
C339 C 0.34775 0.94276 0.7399 0.0
C340 C 0.56788 0.1655 0.7704 0.0
C341 C 0.56408 0.20043 0.74162 0.0
C342 C 0.5919 0.13254 0.7561 0.0
C343 C 0.61269 0.13293 0.71221 0.0
H344 H 0.55391 0.16433 0.80541 0.0
H345 H 0.59501 0.10696 0.78031 0.0
S346 S 0.60879 0.21496 0.62108 0.0
N347 N 0.58032 0.23201 0.66534 0.0
N348 N 0.62502 0.16964 0.63809 0.0
C349 C 0.60709 0.16651 0.68167 0.0
C350 C 0.58289 0.20035 0.69648 0.0
C351 C 0.36652 0.58553 0.24942 0.0
C352 C 0.36622 0.6067 0.20574 0.0
C353 C 0.33298 0.56236 0.264 0.0
C354 C 0.29763 0.55994 0.23574 0.0
H355 H 0.39247 0.58771 0.27321 0.0
H356 H 0.33407 0.54805 0.29886 0.0
S357 S 0.28302 0.60641 0.11603 0.0
N358 N 0.32908 0.62101 0.13244 0.0
N359 N 0.26564 0.57793 0.16018 0.0
C360 C 0.29778 0.57914 0.19077 0.0
C361 C 0.33218 0.60242 0.17568 0.0
C362 C 0.92022 0.38029 0.75697 0.0
C363 C 0.89859 0.38174 0.71353 0.0
C364 C 0.94238 0.34564 0.77027 0.0
C365 C 0.94349 0.31103 0.74079 0.0
H366 H 0.91853 0.40537 0.78198 0.0
H367 H 0.95664 0.34514 0.80519 0.0
S368 S 0.8974 0.30153 0.62023 0.0
N369 N 0.88383 0.34729 0.63855 0.0
N370 N 0.92514 0.28206 0.66381 0.0
C371 C 0.92453 0.31317 0.69578 0.0
C372 C 0.90217 0.34856 0.68207 0.0
C373 C 0.15168 0.90201 0.20183 0.0
C374 C 0.12192 0.88626 0.23299 0.0
C375 C 0.1857 0.92313 0.21938 0.0
C376 C 0.19132 0.9288 0.26872 0.0
H377 H 0.14938 0.89692 0.16369 0.0
H378 H 0.20872 0.93322 0.19432 0.0
S379 S 0.12018 0.89778 0.36498 0.0
N380 N 0.09863 0.88123 0.31537 0.0
N381 N 0.16274 0.92033 0.34816 0.0
C382 C 0.16082 0.9151 0.30003 0.0
C383 C 0.12605 0.89399 0.28221 0.0
C384 C 0.36396 0.6744 0.70194 0.0
C385 C 0.38225 0.63572 0.70168 0.0
C386 C 0.38503 0.70869 0.7183 0.0
C387 C 0.4254 0.70585 0.73471 0.0
H388 H 0.33253 0.67814 0.69102 0.0
H389 H 0.36907 0.73752 0.71927 0.0
S390 S 0.48843 0.61227 0.73801 0.0
N391 N 0.44408 0.59696 0.7167 0.0
N392 N 0.48382 0.66171 0.74714 0.0
C393 C 0.44488 0.66781 0.73242 0.0
C394 C 0.42326 0.63267 0.716 0.0
C395 C 0.84128 0.40895 0.20984 0.0
C396 C 0.86708 0.38626 0.23998 0.0
C397 C 0.80644 0.42834 0.22781 0.0
C398 C 0.79606 0.42534 0.2764 0.0
H399 H 0.84731 0.41074 0.17186 0.0
H400 H 0.78668 0.44437 0.20315 0.0
S401 S 0.85606 0.37408 0.3713 0.0
N402 N 0.88173 0.36535 0.32171 0.0
N403 N 0.81621 0.40137 0.35512 0.0
C404 C 0.8226 0.40448 0.30726 0.0
C405 C 0.85815 0.38506 0.28913 0.0
C406 C 0.10666 0.82368 0.79162 0.0
C407 C 0.08601 0.79924 0.75833 0.0
C408 C 0.12472 0.86039 0.77806 0.0
C409 C 0.12359 0.87393 0.73037 0.0
H410 H 0.10908 0.81429 0.82865 0.0
H411 H 0.14082 0.87763 0.80512 0.0
S412 S 0.07189 0.82183 0.62959 0.0
N413 N 0.06375 0.79175 0.67598 0.0
N414 N 0.09887 0.86061 0.64992 0.0
C415 C 0.10229 0.85024 0.69674 0.0
C416 C 0.08316 0.81296 0.71087 0.0
C417 C 0.64405 0.12982 0.277 0.0
C418 C 0.62752 0.12213 0.23156 0.0
C419 C 0.67856 0.1091 0.29312 0.0
C420 C 0.69784 0.07964 0.26462 0.0
H421 H 0.63067 0.15255 0.30017 0.0
H422 H 0.6904 0.11661 0.32817 0.0
S423 S 0.66556 0.04675 0.1436 0.0
N424 N 0.63221 0.08203 0.15871 0.0
N425 N 0.69716 0.0428 0.18928 0.0
C426 C 0.68113 0.07085 0.21953 0.0
C427 C 0.64598 0.0922 0.20291 0.0
C428 C 0.4136 0.80368 0.27594 0.0
C429 C 0.40838 0.79143 0.2282 0.0
C430 C 0.39375 0.83828 0.29387 0.0
C431 C 0.36822 0.86203 0.26456 0.0
H432 H 0.43257 0.78601 0.29991 0.0
H433 H 0.3982 0.84623 0.33104 0.0
S434 S 0.34693 0.84453 0.13582 0.0
N435 N 0.37743 0.80689 0.15129 0.0
N436 N 0.34041 0.87177 0.1847 0.0
C437 C 0.3636 0.8506 0.21641 0.0
C438 C 0.38359 0.81535 0.19829 0.0
C439 C 0.6747 0.43543 0.76904 0.0
C440 C 0.7116 0.41454 0.76226 0.0
C441 C 0.63942 0.4148 0.78389 0.0
C442 C 0.63994 0.37263 0.79292 0.0
H443 H 0.6726 0.46763 0.76102 0.0
H444 H 0.61134 0.43182 0.78702 0.0
S445 S 0.73016 0.3048 0.7852 0.0
N446 N 0.7473 0.34998 0.76907 0.0
N447 N 0.68145 0.31135 0.79728 0.0
C448 C 0.67722 0.35185 0.78852 0.0
C449 C 0.71293 0.37276 0.7731 0.0
C450 C 0.14259 0.67031 0.274 0.0
C451 C 0.12114 0.6341 0.28332 0.0
C452 C 0.1228 0.7048 0.25642 0.0
C453 C 0.08065 0.70477 0.24794 0.0
H454 H 0.17529 0.67179 0.2788 0.0
H455 H 0.14093 0.73157 0.24866 0.0
S456 S 0.00978 0.61883 0.26957 0.0
N457 N 0.05489 0.60087 0.28495 0.0
N458 N 0.01749 0.66635 0.25244 0.0
C459 C 0.05834 0.6695 0.2591 0.0
C460 C 0.07866 0.63399 0.27663 0.0
C461 C 0.85829 0.13136 0.72001 0.0
C462 C 0.87208 0.128 0.76742 0.0
C463 C 0.8224 0.11245 0.70504 0.0
C464 C 0.79885 0.08893 0.73663 0.0
H465 H 0.87493 0.14943 0.69416 0.0
H466 H 0.81305 0.11646 0.6682 0.0
S467 S 0.82205 0.06925 0.86431 0.0
N468 N 0.85975 0.09867 0.84595 0.0
N469 N 0.79224 0.06243 0.81741 0.0
C470 C 0.81258 0.08445 0.78396 0.0
C471 C 0.84917 0.10418 0.79947 0.0
C472 C 0.55437 0.23728 0.0211 0.0
C473 C 0.51738 0.22974 0.04479 0.0
C474 C 0.55521 0.25564 0.97606 0.0
C475 C 0.51907 0.26641 0.95239 0.0
H476 H 0.58312 0.22964 0.03784 0.0
H477 H 0.58452 0.26081 0.95936 0.0
S478 S 0.41413 0.25277 0.99851 0.0
N479 N 0.44359 0.23469 0.04144 0.0
N480 N 0.44512 0.26807 0.95562 0.0
C481 C 0.48176 0.25868 0.97527 0.0
C482 C 0.48093 0.24068 0.02181 0.0
C483 C 0.23702 0.55998 0.47159 0.0
C484 C 0.23069 0.523 0.44741 0.0
C485 C 0.25502 0.56093 0.51692 0.0
C486 C 0.26673 0.52487 0.54023 0.0
H487 H 0.22859 0.5886 0.45508 0.0
H488 H 0.25924 0.59017 0.53408 0.0
S489 S 0.25639 0.42001 0.49268 0.0
N490 N 0.23766 0.44935 0.45006 0.0
N491 N 0.27063 0.45106 0.53597 0.0
C492 C 0.26028 0.48761 0.51673 0.0
C493 C 0.24251 0.48669 0.47013 0.0
C494 C 0.00069 0.25714 0.0217 0.0
C495 C 0.96474 0.27371 0.04072 0.0
C496 C 0.00177 0.24154 0.97506 0.0
C497 C 0.96674 0.2413 0.94604 0.0
H498 H 0.0283 0.25641 0.04288 0.0
H499 H 0.03022 0.22934 0.9618 0.0
S500 S 0.8646 0.28022 0.97956 0.0
N501 N 0.89311 0.28857 0.02714 0.0
N502 N 0.89495 0.25877 0.93996 0.0
C503 C 0.9305 0.25748 0.96483 0.0
C504 C 0.92955 0.27385 0.01202 0.0
C505 C 0.27634 0.9388 0.49147 0.0
C506 C 0.27759 0.97456 0.46379 0.0
C507 C 0.26021 0.93885 0.53776 0.0
C508 C 0.24517 0.97475 0.55851 0.0
H509 H 0.28703 0.91021 0.47692 0.0
H510 H 0.25959 0.91043 0.55743 0.0
S511 S 0.24267 0.07691 0.50183 0.0
N512 N 0.26306 0.0471 0.46087 0.0
N513 N 0.23333 0.04732 0.54828 0.0
C514 C 0.247 0.01096 0.53169 0.0
C515 C 0.26305 0.01083 0.48425 0.0
C516 C 0.49166 0.71753 0.95281 0.0
C517 C 0.49343 0.75981 0.94522 0.0
C518 C 0.49088 0.70135 -0.00085 0.0
C519 C 0.49284 0.72685 0.03939 0.0
H520 H 0.48901 0.69687 0.92282 0.0
H521 H 0.48773 0.66873 0.00349 0.0
S522 S 0.50126 0.83949 0.03857 0.0
N523 N 0.49938 0.82672 0.98157 0.0
N524 N 0.49894 0.7963 0.06865 0.0
C525 C 0.49678 0.76904 0.03223 0.0
C526 C 0.49677 0.78554 0.9851 0.0
C527 C 0.71864 0.48195 0.55131 0.0
C528 C 0.76049 0.48897 0.55825 0.0
C529 C 0.70158 0.48222 0.50539 0.0
C530 C 0.72558 0.4906 0.46502 0.0
H531 H 0.69918 0.47463 0.58136 0.0
H532 H 0.66953 0.47518 0.5014 0.0
S533 S 0.83623 0.51343 0.4643 0.0
N534 N 0.82522 0.50596 0.52119 0.0
N535 N 0.79297 0.50758 0.435 0.0
C536 C 0.76711 0.49935 0.47166 0.0
C537 C 0.78464 0.49821 0.51828 0.0
C538 C 0.01117 0.72546 0.03428 0.0
C539 C 0.01605 0.76738 0.04268 0.0
C540 C 0.01114 0.70987 0.9877 0.0
C541 C 0.01491 0.73579 0.94798 0.0
H542 H 0.00892 0.70436 0.06394 0.0
H543 H 0.00875 0.67725 0.98279 0.0
S544 S 0.0257 0.84819 0.95079 0.0
N545 N 0.02314 0.8347 0.00756 0.0
N546 N 0.02193 0.80555 0.91993 0.0
C547 C 0.01806 0.77794 0.95584 0.0
C548 C 0.01897 0.7937 0.00326 0.0
C549 C 0.77599 0.00769 0.53838 0.0
C550 C 0.73365 0.00694 0.54576 0.0
C551 C 0.79226 0.0069 0.49212 0.0
C552 C 0.76674 0.00406 0.45196 0.0
H553 H 0.79661 0.01113 0.56835 0.0
H554 H 0.82492 0.00952 0.48771 0.0
S555 S 0.65396 0.99764 0.45264 0.0
N556 N 0.66667 0.00116 0.50959 0.0
N557 N 0.69722 0.99813 0.42265 0.0
C558 C 0.72448 0.00093 0.45908 0.0
C559 C 0.70791 0.0028 0.50605 0.0
loop_
_geom_bond_atom_site_label_1
_geom_bond_atom_site_label_2
_geom_bond_distance
_geom_bond_site_symmetry_2
_ccdc_geom_bond_type
In0 O1 2.294 . S
In0 O2 2.326 . S
In0 O6 2.266 . S
In0 O7 2.326 . S
In0 O8 2.266 . S
In0 O9 2.326 . S
In0 O11 2.294 . S
In0 O12 2.326 . S
O1 In0 2.294 . S
O1 C10 1.240 . S
O2 In0 2.326 . S
O2 C10 1.252 . S
C3 O6 1.252 . S
C3 O7 1.260 . S
C4 O11 1.240 . S
C4 O12 1.252 . S
C5 O8 1.252 . S
C5 O9 1.260 . S
O6 In0 2.266 . S
O6 C3 1.252 . S
O7 In0 2.326 . S
O7 C3 1.260 . S
O8 In0 2.266 . S
O8 C5 1.252 . S
O9 In0 2.326 . S
O9 C5 1.260 . S
C10 O1 1.240 . S
C10 O2 1.252 . S
O11 In0 2.294 . S
O11 C4 1.240 . S
O12 In0 2.326 . S
O12 C4 1.252 . S
In13 O14 2.294 . S
In13 O15 2.326 . S
In13 O19 2.266 . S
In13 O20 2.326 . S
In13 O21 2.266 . S
In13 O22 2.326 . S
In13 O24 2.294 . S
In13 O25 2.326 . S
O14 In13 2.294 . S
O14 C23 1.240 . S
O15 In13 2.326 . S
O15 C23 1.252 . S
C16 O19 1.252 . S
C16 O20 1.260 . S
C17 O24 1.240 . S
C17 O25 1.252 . S
C18 O21 1.252 . S
C18 O22 1.260 . S
O19 In13 2.266 . S
O19 C16 1.252 . S
O20 In13 2.326 . S
O20 C16 1.260 . S
O21 In13 2.266 . S
O21 C18 1.252 . S
O22 In13 2.326 . S
O22 C18 1.260 . S
C23 O14 1.240 . S
C23 O15 1.252 . S
O24 In13 2.294 . S
O24 C17 1.240 . S
O25 In13 2.326 . S
O25 C17 1.252 . S
In26 O27 2.294 1_655 S
In26 O28 2.326 1_655 S
In26 O32 2.266 . S
In26 O33 2.326 . S
In26 O34 2.266 . S
In26 O35 2.326 1_655 S
In26 O37 2.294 . S
In26 O38 2.326 . S
O27 In26 2.294 1_455 S
O27 C36 1.240 . S
O28 In26 2.326 1_455 S
O28 C36 1.252 . S
C29 O32 1.252 . S
C29 O33 1.260 . S
C30 O37 1.240 . S
C30 O38 1.252 . S
C31 O34 1.252 . S
C31 O35 1.260 1_655 S
O32 In26 2.266 . S
O32 C29 1.252 . S
O33 In26 2.326 . S
O33 C29 1.260 . S
O34 In26 2.266 . S
O34 C31 1.252 . S
O35 In26 2.326 1_455 S
O35 C31 1.260 1_455 S
C36 O27 1.240 . S
C36 O28 1.252 . S
O37 In26 2.294 . S
O37 C30 1.240 . S
O38 In26 2.326 . S
O38 C30 1.252 . S
In39 O40 2.294 1_565 S
In39 O41 2.326 1_565 S
In39 O45 2.266 . S
In39 O46 2.326 . S
In39 O47 2.266 . S
In39 O48 2.326 1_565 S
In39 O50 2.294 . S
In39 O51 2.326 . S
O40 In39 2.294 1_545 S
O40 C49 1.240 . S
O41 In39 2.326 1_545 S
O41 C49 1.252 . S
C42 O45 1.252 . S
C42 O46 1.260 . S
C43 O50 1.240 . S
C43 O51 1.252 . S
C44 O47 1.252 . S
C44 O48 1.260 1_565 S
O45 In39 2.266 . S
O45 C42 1.252 . S
O46 In39 2.326 . S
O46 C42 1.260 . S
O47 In39 2.266 . S
O47 C44 1.252 . S
O48 In39 2.326 1_545 S
O48 C44 1.260 1_545 S
C49 O40 1.240 . S
C49 O41 1.252 . S
O50 In39 2.294 . S
O50 C43 1.240 . S
O51 In39 2.326 . S
O51 C43 1.252 . S
In52 O53 2.294 . S
In52 O54 2.326 . S
In52 O58 2.266 . S
In52 O59 2.326 . S
In52 O60 2.266 . S
In52 O61 2.326 . S
In52 O63 2.294 . S
In52 O64 2.326 . S
O53 In52 2.294 . S
O53 C62 1.240 . S
O54 In52 2.326 . S
O54 C62 1.252 . S
C55 O58 1.252 . S
C55 O59 1.260 . S
C56 O63 1.240 . S
C56 O64 1.252 . S
C57 O60 1.252 . S
C57 O61 1.260 . S
O58 In52 2.266 . S
O58 C55 1.252 . S
O59 In52 2.326 . S
O59 C55 1.260 . S
O60 In52 2.266 . S
O60 C57 1.252 . S
O61 In52 2.326 . S
O61 C57 1.260 . S
C62 O53 1.240 . S
C62 O54 1.252 . S
O63 In52 2.294 . S
O63 C56 1.240 . S
O64 In52 2.326 . S
O64 C56 1.252 . S
In65 O66 2.294 . S
In65 O67 2.326 . S
In65 O71 2.266 . S
In65 O72 2.326 . S
In65 O73 2.266 . S
In65 O74 2.326 . S
In65 O76 2.294 . S
In65 O77 2.326 . S
O66 In65 2.294 . S
O66 C75 1.240 . S
O67 In65 2.326 . S
O67 C75 1.252 . S
C68 O71 1.252 . S
C68 O72 1.260 . S
C69 O76 1.240 . S
C69 O77 1.252 . S
C70 O73 1.252 . S
C70 O74 1.260 . S
O71 In65 2.266 . S
O71 C68 1.252 . S
O72 In65 2.326 . S
O72 C68 1.260 . S
O73 In65 2.266 . S
O73 C70 1.252 . S
O74 In65 2.326 . S
O74 C70 1.260 . S
C75 O66 1.240 . S
C75 O67 1.252 . S
O76 In65 2.294 . S
O76 C69 1.240 . S
O77 In65 2.326 . S
O77 C69 1.252 . S
In78 O79 2.294 . S
In78 O80 2.326 . S
In78 O84 2.266 . S
In78 O85 2.326 1_655 S
In78 O86 2.266 . S
In78 O87 2.326 . S
In78 O89 2.294 1_655 S
In78 O90 2.326 1_655 S
O79 In78 2.294 . S
O79 C88 1.240 . S
O80 In78 2.326 . S
O80 C88 1.252 . S
C81 O84 1.252 . S
C81 O85 1.260 1_655 S
C82 O89 1.240 . S
C82 O90 1.252 . S
C83 O86 1.252 . S
C83 O87 1.260 . S
O84 In78 2.266 . S
O84 C81 1.252 . S
O85 In78 2.326 1_455 S
O85 C81 1.260 1_455 S
O86 In78 2.266 . S
O86 C83 1.252 . S
O87 In78 2.326 . S
O87 C83 1.260 . S
C88 O79 1.240 . S
C88 O80 1.252 . S
O89 In78 2.294 1_455 S
O89 C82 1.240 . S
O90 In78 2.326 1_455 S
O90 C82 1.252 . S
In91 O92 2.294 . S
In91 O93 2.326 . S
In91 O97 2.266 . S
In91 O98 2.326 1_565 S
In91 O99 2.266 . S
In91 O100 2.326 . S
In91 O102 2.294 1_565 S
In91 O103 2.326 1_565 S
O92 In91 2.294 . S
O92 C101 1.240 . S
O93 In91 2.326 . S
O93 C101 1.252 . S
C94 O97 1.252 . S
C94 O98 1.260 1_565 S
C95 O102 1.240 . S
C95 O103 1.252 . S
C96 O99 1.252 . S
C96 O100 1.260 . S
O97 In91 2.266 . S
O97 C94 1.252 . S
O98 In91 2.326 1_545 S
O98 C94 1.260 1_545 S
O99 In91 2.266 . S
O99 C96 1.252 . S
O100 In91 2.326 . S
O100 C96 1.260 . S
C101 O92 1.240 . S
C101 O93 1.252 . S
O102 In91 2.294 1_545 S
O102 C95 1.240 . S
O103 In91 2.326 1_545 S
O103 C95 1.252 . S
In104 O105 2.294 . S
In104 O106 2.326 . S
In104 O110 2.266 . S
In104 O111 2.326 . S
In104 O112 2.266 . S
In104 O113 2.326 . S
In104 O115 2.294 . S
In104 O116 2.326 . S
O105 In104 2.294 . S
O105 C114 1.240 . S
O106 In104 2.326 . S
O106 C114 1.252 . S
C107 O110 1.252 . S
C107 O111 1.260 . S
C108 O115 1.240 . S
C108 O116 1.252 . S
C109 O112 1.252 . S
C109 O113 1.260 . S
O110 In104 2.266 . S
O110 C107 1.252 . S
O111 In104 2.326 . S
O111 C107 1.260 . S
O112 In104 2.266 . S
O112 C109 1.252 . S
O113 In104 2.326 . S
O113 C109 1.260 . S
C114 O105 1.240 . S
C114 O106 1.252 . S
O115 In104 2.294 . S
O115 C108 1.240 . S
O116 In104 2.326 . S
O116 C108 1.252 . S
In117 O118 2.294 . S
In117 O119 2.326 . S
In117 O123 2.266 . S
In117 O124 2.326 . S
In117 O125 2.266 . S
In117 O126 2.326 . S
In117 O128 2.294 . S
In117 O129 2.326 . S
O118 In117 2.294 . S
O118 C127 1.240 . S
O119 In117 2.326 . S
O119 C127 1.252 . S
C120 O123 1.252 . S
C120 O124 1.260 . S
C121 O128 1.240 . S
C121 O129 1.252 . S
C122 O125 1.252 . S
C122 O126 1.260 . S
O123 In117 2.266 . S
O123 C120 1.252 . S
O124 In117 2.326 . S
O124 C120 1.260 . S
O125 In117 2.266 . S
O125 C122 1.252 . S
O126 In117 2.326 . S
O126 C122 1.260 . S
C127 O118 1.240 . S
C127 O119 1.252 . S
O128 In117 2.294 . S
O128 C121 1.240 . S
O129 In117 2.326 . S
O129 C121 1.252 . S
In130 O131 2.294 . S
In130 O132 2.326 . S
In130 O136 2.266 . S
In130 O137 2.326 1_455 S
In130 O138 2.266 . S
In130 O139 2.326 . S
In130 O141 2.294 1_455 S
In130 O142 2.326 1_455 S
O131 In130 2.294 . S
O131 C140 1.240 . S
O132 In130 2.326 . S
O132 C140 1.252 . S
C133 O136 1.252 . S
C133 O137 1.260 1_455 S
C134 O141 1.240 . S
C134 O142 1.252 . S
C135 O138 1.252 . S
C135 O139 1.260 . S
O136 In130 2.266 . S
O136 C133 1.252 . S
O137 In130 2.326 1_655 S
O137 C133 1.260 1_655 S
O138 In130 2.266 . S
O138 C135 1.252 . S
O139 In130 2.326 . S
O139 C135 1.260 . S
C140 O131 1.240 . S
C140 O132 1.252 . S
O141 In130 2.294 1_655 S
O141 C134 1.240 . S
O142 In130 2.326 1_655 S
O142 C134 1.252 . S
In143 O144 2.294 1_545 S
In143 O145 2.326 1_545 S
In143 O149 2.266 . S
In143 O150 2.326 . S
In143 O151 2.266 . S
In143 O152 2.326 1_545 S
In143 O154 2.294 . S
In143 O155 2.326 . S
O144 In143 2.294 1_565 S
O144 C153 1.240 . S
O145 In143 2.326 1_565 S
O145 C153 1.252 . S
C146 O149 1.252 . S
C146 O150 1.260 . S
C147 O154 1.240 . S
C147 O155 1.252 . S
C148 O151 1.252 . S
C148 O152 1.260 1_545 S
O149 In143 2.266 . S
O149 C146 1.252 . S
O150 In143 2.326 . S
O150 C146 1.260 . S
O151 In143 2.266 . S
O151 C148 1.252 . S
O152 In143 2.326 1_565 S
O152 C148 1.260 1_565 S
C153 O144 1.240 . S
C153 O145 1.252 . S
O154 In143 2.294 . S
O154 C147 1.240 . S
O155 In143 2.326 . S
O155 C147 1.252 . S
In156 O157 2.294 . S
In156 O158 2.326 . S
In156 O162 2.266 . S
In156 O163 2.326 . S
In156 O164 2.266 . S
In156 O165 2.326 . S
In156 O167 2.294 . S
In156 O168 2.326 . S
O157 In156 2.294 . S
O157 C166 1.240 . S
O158 In156 2.326 . S
O158 C166 1.252 . S
C159 O162 1.252 . S
C159 O163 1.260 . S
C160 O167 1.240 . S
C160 O168 1.252 . S
C161 O164 1.252 . S
C161 O165 1.260 . S
O162 In156 2.266 . S
O162 C159 1.252 . S
O163 In156 2.326 . S
O163 C159 1.260 . S
O164 In156 2.266 . S
O164 C161 1.252 . S
O165 In156 2.326 . S
O165 C161 1.260 . S
C166 O157 1.240 . S
C166 O158 1.252 . S
O167 In156 2.294 . S
O167 C160 1.240 . S
O168 In156 2.326 . S
O168 C160 1.252 . S
In169 O170 2.294 . S
In169 O171 2.326 . S
In169 O175 2.266 . S
In169 O176 2.326 . S
In169 O177 2.266 . S
In169 O178 2.326 . S
In169 O180 2.294 . S
In169 O181 2.326 . S
O170 In169 2.294 . S
O170 C179 1.240 . S
O171 In169 2.326 . S
O171 C179 1.252 . S
C172 O175 1.252 . S
C172 O176 1.260 . S
C173 O180 1.240 . S
C173 O181 1.252 . S
C174 O177 1.252 . S
C174 O178 1.260 . S
O175 In169 2.266 . S
O175 C172 1.252 . S
O176 In169 2.326 . S
O176 C172 1.260 . S
O177 In169 2.266 . S
O177 C174 1.252 . S
O178 In169 2.326 . S
O178 C174 1.260 . S
C179 O170 1.240 . S
C179 O171 1.252 . S
O180 In169 2.294 . S
O180 C173 1.240 . S
O181 In169 2.326 . S
O181 C173 1.252 . S
In182 O183 2.294 . S
In182 O184 2.326 . S
In182 O188 2.266 . S
In182 O189 2.326 1_455 S
In182 O190 2.266 . S
In182 O191 2.326 . S
In182 O193 2.294 1_455 S
In182 O194 2.326 1_455 S
O183 In182 2.294 . S
O183 C192 1.240 . S
O184 In182 2.326 . S
O184 C192 1.252 . S
C185 O188 1.252 . S
C185 O189 1.260 1_455 S
C186 O193 1.240 . S
C186 O194 1.252 . S
C187 O190 1.252 . S
C187 O191 1.260 . S
O188 In182 2.266 . S
O188 C185 1.252 . S
O189 In182 2.326 1_655 S
O189 C185 1.260 1_655 S
O190 In182 2.266 . S
O190 C187 1.252 . S
O191 In182 2.326 . S
O191 C187 1.260 . S
C192 O183 1.240 . S
C192 O184 1.252 . S
O193 In182 2.294 1_655 S
O193 C186 1.240 . S
O194 In182 2.326 1_655 S
O194 C186 1.252 . S
In195 O196 2.294 1_545 S
In195 O197 2.326 1_545 S
In195 O201 2.266 . S
In195 O202 2.326 . S
In195 O203 2.266 . S
In195 O204 2.326 1_545 S
In195 O206 2.294 . S
In195 O207 2.326 . S
O196 In195 2.294 1_565 S
O196 C205 1.240 . S
O197 In195 2.326 1_565 S
O197 C205 1.252 . S
C198 O201 1.252 . S
C198 O202 1.260 . S
C199 O206 1.240 . S
C199 O207 1.252 . S
C200 O203 1.252 . S
C200 O204 1.260 1_545 S
O201 In195 2.266 . S
O201 C198 1.252 . S
O202 In195 2.326 . S
O202 C198 1.260 . S
O203 In195 2.266 . S
O203 C200 1.252 . S
O204 In195 2.326 1_565 S
O204 C200 1.260 1_565 S
C205 O196 1.240 . S
C205 O197 1.252 . S
O206 In195 2.294 . S
O206 C199 1.240 . S
O207 In195 2.326 . S
O207 C199 1.252 . S
C208 C209 1.369 . S
C208 C210 1.419 . S
C208 H212 0.930 . S
C209 C208 1.369 . S
C209 C218 1.429 . S
C210 C208 1.419 . S
C210 C211 1.363 . S
C210 H213 0.929 . S
C211 C210 1.363 . S
C211 C217 1.428 . S
H212 C208 0.930 . S
H213 C210 0.929 . S
S214 N215 1.613 . S
S214 N216 1.610 . S
N215 S214 1.613 . S
N215 C218 1.350 . S
N216 S214 1.610 . S
N216 C217 1.351 . S
C217 C211 1.428 . S
C217 N216 1.351 . S
C217 C218 1.434 . S
C218 C209 1.429 . S
C218 N215 1.350 . S
C218 C217 1.434 . S
C219 C220 1.369 . S
C219 C221 1.419 . S
C219 H223 0.930 . S
C220 C219 1.369 . S
C220 C229 1.429 . S
C221 C219 1.419 . S
C221 C222 1.363 . S
C221 H224 0.929 . S
C222 C221 1.363 . S
C222 C228 1.428 . S
H223 C219 0.930 . S
H224 C221 0.929 . S
S225 N226 1.613 . S
S225 N227 1.610 . S
N226 S225 1.613 . S
N226 C229 1.350 . S
N227 S225 1.610 . S
N227 C228 1.351 . S
C228 C222 1.428 . S
C228 N227 1.351 . S
C228 C229 1.434 . S
C229 C220 1.429 . S
C229 N226 1.350 . S
C229 C228 1.434 . S
C230 C231 1.369 . S
C230 C232 1.419 . S
C230 H234 0.930 . S
C231 C230 1.369 . S
C231 C240 1.429 . S
C232 C230 1.419 . S
C232 C233 1.363 . S
C232 H235 0.929 . S
C233 C232 1.363 . S
C233 C239 1.428 . S
H234 C230 0.930 . S
H235 C232 0.929 . S
S236 N237 1.613 . S
S236 N238 1.610 . S
N237 S236 1.613 . S
N237 C240 1.350 . S
N238 S236 1.610 . S
N238 C239 1.351 . S
C239 C233 1.428 . S
C239 N238 1.351 . S
C239 C240 1.434 . S
C240 C231 1.429 . S
C240 N237 1.350 . S
C240 C239 1.434 . S
C241 C242 1.369 . S
C241 C243 1.419 . S
C241 H245 0.930 . S
C242 C241 1.369 . S
C242 C251 1.429 . S
C243 C241 1.419 . S
C243 C244 1.363 . S
C243 H246 0.929 . S
C244 C243 1.363 . S
C244 C250 1.428 . S
H245 C241 0.930 . S
H246 C243 0.929 . S
S247 N248 1.613 . S
S247 N249 1.610 . S
N248 S247 1.613 . S
N248 C251 1.350 . S
N249 S247 1.610 . S
N249 C250 1.351 . S
C250 C244 1.428 . S
C250 N249 1.351 . S
C250 C251 1.434 . S
C251 C242 1.429 . S
C251 N248 1.350 . S
C251 C250 1.434 . S
C252 C253 1.369 . S
C252 C254 1.419 . S
C252 H256 0.930 . S
C253 C252 1.369 . S
C253 C262 1.429 . S
C254 C252 1.419 . S
C254 C255 1.363 . S
C254 H257 0.929 . S
C255 C254 1.363 . S
C255 C261 1.428 . S
H256 C252 0.930 . S
H257 C254 0.929 . S
S258 N259 1.613 . S
S258 N260 1.610 . S
N259 S258 1.613 . S
N259 C262 1.350 . S
N260 S258 1.610 . S
N260 C261 1.351 . S
C261 C255 1.428 . S
C261 N260 1.351 . S
C261 C262 1.434 . S
C262 C253 1.429 . S
C262 N259 1.350 . S
C262 C261 1.434 . S
C263 C264 1.369 . S
C263 C265 1.419 . S
C263 H267 0.930 . S
C264 C263 1.369 . S
C264 C273 1.429 . S
C265 C263 1.419 . S
C265 C266 1.363 . S
C265 H268 0.929 . S
C266 C265 1.363 . S
C266 C272 1.428 . S
H267 C263 0.930 . S
H268 C265 0.929 . S
S269 N270 1.613 . S
S269 N271 1.610 . S
N270 S269 1.613 . S
N270 C273 1.350 . S
N271 S269 1.610 . S
N271 C272 1.351 . S
C272 C266 1.428 . S
C272 N271 1.351 . S
C272 C273 1.434 . S
C273 C264 1.429 . S
C273 N270 1.350 . S
C273 C272 1.434 . S
C274 C275 1.369 . S
C274 C276 1.419 . S
C274 H278 0.930 . S
C275 C274 1.369 . S
C275 C284 1.429 . S
C276 C274 1.419 . S
C276 C277 1.363 . S
C276 H279 0.929 . S
C277 C276 1.363 . S
C277 C283 1.428 . S
H278 C274 0.930 . S
H279 C276 0.929 . S
S280 N281 1.613 . S
S280 N282 1.610 . S
N281 S280 1.613 . S
N281 C284 1.350 . S
N282 S280 1.610 . S
N282 C283 1.351 . S
C283 C277 1.428 . S
C283 N282 1.351 . S
C283 C284 1.434 . S
C284 C275 1.429 . S
C284 N281 1.350 . S
C284 C283 1.434 . S
C285 C286 1.369 . S
C285 C287 1.419 . S
C285 H289 0.930 . S
C286 C285 1.369 . S
C286 C295 1.429 . S
C287 C285 1.419 . S
C287 C288 1.363 . S
C287 H290 0.929 . S
C288 C287 1.363 . S
C288 C294 1.428 . S
H289 C285 0.930 . S
H290 C287 0.929 . S
S291 N292 1.613 . S
S291 N293 1.610 . S
N292 S291 1.613 . S
N292 C295 1.350 . S
N293 S291 1.610 . S
N293 C294 1.351 . S
C294 C288 1.428 . S
C294 N293 1.351 . S
C294 C295 1.434 . S
C295 C286 1.429 . S
C295 N292 1.350 . S
C295 C294 1.434 . S
C296 C297 1.369 . S
C296 C298 1.419 . S
C296 H300 0.930 . S
C297 C296 1.369 . S
C297 C306 1.429 . S
C298 C296 1.419 . S
C298 C299 1.363 . S
C298 H301 0.929 . S
C299 C298 1.363 . S
C299 C305 1.428 . S
H300 C296 0.930 . S
H301 C298 0.929 . S
S302 N303 1.613 . S
S302 N304 1.610 . S
N303 S302 1.613 . S
N303 C306 1.350 . S
N304 S302 1.610 . S
N304 C305 1.351 . S
C305 C299 1.428 . S
C305 N304 1.351 . S
C305 C306 1.434 . S
C306 C297 1.429 . S
C306 N303 1.350 . S
C306 C305 1.434 . S
C307 C308 1.369 . S
C307 C309 1.419 . S
C307 H311 0.930 . S
C308 C307 1.369 . S
C308 C317 1.429 . S
C309 C307 1.419 . S
C309 C310 1.363 . S
C309 H312 0.929 . S
C310 C309 1.363 . S
C310 C316 1.428 . S
H311 C307 0.930 . S
H312 C309 0.929 . S
S313 N314 1.613 . S
S313 N315 1.610 . S
N314 S313 1.613 . S
N314 C317 1.350 . S
N315 S313 1.610 . S
N315 C316 1.351 . S
C316 C310 1.428 . S
C316 N315 1.351 . S
C316 C317 1.434 . S
C317 C308 1.429 . S
C317 N314 1.350 . S
C317 C316 1.434 . S
C318 C319 1.369 . S
C318 C320 1.419 . S
C318 H322 0.930 . S
C319 C318 1.369 . S
C319 C328 1.429 . S
C320 C318 1.419 . S
C320 C321 1.363 . S
C320 H323 0.929 . S
C321 C320 1.363 . S
C321 C327 1.428 . S
H322 C318 0.930 . S
H323 C320 0.929 . S
S324 N325 1.613 . S
S324 N326 1.610 . S
N325 S324 1.613 . S
N325 C328 1.350 . S
N326 S324 1.610 . S
N326 C327 1.351 . S
C327 C321 1.428 . S
C327 N326 1.351 . S
C327 C328 1.434 . S
C328 C319 1.429 . S
C328 N325 1.350 . S
C328 C327 1.434 . S
C329 C330 1.369 . S
C329 C331 1.419 . S
C329 H333 0.930 . S
C330 C329 1.369 . S
C330 C339 1.429 . S
C331 C329 1.419 . S
C331 C332 1.363 . S
C331 H334 0.929 . S
C332 C331 1.363 . S
C332 C338 1.428 . S
H333 C329 0.930 . S
H334 C331 0.929 . S
S335 N336 1.613 . S
S335 N337 1.610 . S
N336 S335 1.613 . S
N336 C339 1.350 . S
N337 S335 1.610 . S
N337 C338 1.351 . S
C338 C332 1.428 . S
C338 N337 1.351 . S
C338 C339 1.434 . S
C339 C330 1.429 . S
C339 N336 1.350 . S
C339 C338 1.434 . S
C340 C341 1.369 . S
C340 C342 1.419 . S
C340 H344 0.930 . S
C341 C340 1.369 . S
C341 C350 1.429 . S
C342 C340 1.419 . S
C342 C343 1.363 . S
C342 H345 0.929 . S
C343 C342 1.363 . S
C343 C349 1.428 . S
H344 C340 0.930 . S
H345 C342 0.929 . S
S346 N347 1.613 . S
S346 N348 1.610 . S
N347 S346 1.613 . S
N347 C350 1.350 . S
N348 S346 1.610 . S
N348 C349 1.351 . S
C349 C343 1.428 . S
C349 N348 1.351 . S
C349 C350 1.434 . S
C350 C341 1.429 . S
C350 N347 1.350 . S
C350 C349 1.434 . S
C351 C352 1.369 . S
C351 C353 1.419 . S
C351 H355 0.930 . S
C352 C351 1.369 . S
C352 C361 1.429 . S
C353 C351 1.419 . S
C353 C354 1.363 . S
C353 H356 0.929 . S
C354 C353 1.363 . S
C354 C360 1.428 . S
H355 C351 0.930 . S
H356 C353 0.929 . S
S357 N358 1.613 . S
S357 N359 1.610 . S
N358 S357 1.613 . S
N358 C361 1.350 . S
N359 S357 1.610 . S
N359 C360 1.351 . S
C360 C354 1.428 . S
C360 N359 1.351 . S
C360 C361 1.434 . S
C361 C352 1.429 . S
C361 N358 1.350 . S
C361 C360 1.434 . S
C362 C363 1.369 . S
C362 C364 1.419 . S
C362 H366 0.930 . S
C363 C362 1.369 . S
C363 C372 1.429 . S
C364 C362 1.419 . S
C364 C365 1.363 . S
C364 H367 0.929 . S
C365 C364 1.363 . S
C365 C371 1.428 . S
H366 C362 0.930 . S
H367 C364 0.929 . S
S368 N369 1.613 . S
S368 N370 1.610 . S
N369 S368 1.613 . S
N369 C372 1.350 . S
N370 S368 1.610 . S
N370 C371 1.351 . S
C371 C365 1.428 . S
C371 N370 1.351 . S
C371 C372 1.434 . S
C372 C363 1.429 . S
C372 N369 1.350 . S
C372 C371 1.434 . S
C373 C374 1.369 . S
C373 C375 1.419 . S
C373 H377 0.930 . S
C374 C373 1.369 . S
C374 C383 1.429 . S
C375 C373 1.419 . S
C375 C376 1.363 . S
C375 H378 0.929 . S
C376 C375 1.363 . S
C376 C382 1.428 . S
H377 C373 0.930 . S
H378 C375 0.929 . S
S379 N380 1.613 . S
S379 N381 1.610 . S
N380 S379 1.613 . S
N380 C383 1.350 . S
N381 S379 1.610 . S
N381 C382 1.351 . S
C382 C376 1.428 . S
C382 N381 1.351 . S
C382 C383 1.434 . S
C383 C374 1.429 . S
C383 N380 1.350 . S
C383 C382 1.434 . S
C384 C385 1.369 . S
C384 C386 1.419 . S
C384 H388 0.930 . S
C385 C384 1.369 . S
C385 C394 1.429 . S
C386 C384 1.419 . S
C386 C387 1.363 . S
C386 H389 0.929 . S
C387 C386 1.363 . S
C387 C393 1.428 . S
H388 C384 0.930 . S
H389 C386 0.929 . S
S390 N391 1.613 . S
S390 N392 1.610 . S
N391 S390 1.613 . S
N391 C394 1.350 . S
N392 S390 1.610 . S
N392 C393 1.351 . S
C393 C387 1.428 . S
C393 N392 1.351 . S
C393 C394 1.434 . S
C394 C385 1.429 . S
C394 N391 1.350 . S
C394 C393 1.434 . S
C395 C396 1.369 . S
C395 C397 1.419 . S
C395 H399 0.930 . S
C396 C395 1.369 . S
C396 C405 1.429 . S
C397 C395 1.419 . S
C397 C398 1.363 . S
C397 H400 0.929 . S
C398 C397 1.363 . S
C398 C404 1.428 . S
H399 C395 0.930 . S
H400 C397 0.929 . S
S401 N402 1.613 . S
S401 N403 1.610 . S
N402 S401 1.613 . S
N402 C405 1.350 . S
N403 S401 1.610 . S
N403 C404 1.351 . S
C404 C398 1.428 . S
C404 N403 1.351 . S
C404 C405 1.434 . S
C405 C396 1.429 . S
C405 N402 1.350 . S
C405 C404 1.434 . S
C406 C407 1.369 . S
C406 C408 1.419 . S
C406 H410 0.930 . S
C407 C406 1.369 . S
C407 C416 1.429 . S
C408 C406 1.419 . S
C408 C409 1.363 . S
C408 H411 0.929 . S
C409 C408 1.363 . S
C409 C415 1.428 . S
H410 C406 0.930 . S
H411 C408 0.929 . S
S412 N413 1.613 . S
S412 N414 1.610 . S
N413 S412 1.613 . S
N413 C416 1.350 . S
N414 S412 1.610 . S
N414 C415 1.351 . S
C415 C409 1.428 . S
C415 N414 1.351 . S
C415 C416 1.434 . S
C416 C407 1.429 . S
C416 N413 1.350 . S
C416 C415 1.434 . S
C417 C418 1.369 . S
C417 C419 1.419 . S
C417 H421 0.930 . S
C418 C417 1.369 . S
C418 C427 1.429 . S
C419 C417 1.419 . S
C419 C420 1.363 . S
C419 H422 0.929 . S
C420 C419 1.363 . S
C420 C426 1.428 . S
H421 C417 0.930 . S
H422 C419 0.929 . S
S423 N424 1.613 . S
S423 N425 1.610 . S
N424 S423 1.613 . S
N424 C427 1.350 . S
N425 S423 1.610 . S
N425 C426 1.351 . S
C426 C420 1.428 . S
C426 N425 1.351 . S
C426 C427 1.434 . S
C427 C418 1.429 . S
C427 N424 1.350 . S
C427 C426 1.434 . S
C428 C429 1.369 . S
C428 C430 1.419 . S
C428 H432 0.930 . S
C429 C428 1.369 . S
C429 C438 1.429 . S
C430 C428 1.419 . S
C430 C431 1.363 . S
C430 H433 0.929 . S
C431 C430 1.363 . S
C431 C437 1.428 . S
H432 C428 0.930 . S
H433 C430 0.929 . S
S434 N435 1.613 . S
S434 N436 1.610 . S
N435 S434 1.613 . S
N435 C438 1.350 . S
N436 S434 1.610 . S
N436 C437 1.351 . S
C437 C431 1.428 . S
C437 N436 1.351 . S
C437 C438 1.434 . S
C438 C429 1.429 . S
C438 N435 1.350 . S
C438 C437 1.434 . S
C439 C440 1.369 . S
C439 C441 1.419 . S
C439 H443 0.930 . S
C440 C439 1.369 . S
C440 C449 1.429 . S
C441 C439 1.419 . S
C441 C442 1.363 . S
C441 H444 0.929 . S
C442 C441 1.363 . S
C442 C448 1.428 . S
H443 C439 0.930 . S
H444 C441 0.929 . S
S445 N446 1.613 . S
S445 N447 1.610 . S
N446 S445 1.613 . S
N446 C449 1.350 . S
N447 S445 1.610 . S
N447 C448 1.351 . S
C448 C442 1.428 . S
C448 N447 1.351 . S
C448 C449 1.434 . S
C449 C440 1.429 . S
C449 N446 1.350 . S
C449 C448 1.434 . S
C450 C451 1.369 . S
C450 C452 1.419 . S
C450 H454 0.930 . S
C451 C450 1.369 . S
C451 C460 1.429 . S
C452 C450 1.419 . S
C452 C453 1.363 . S
C452 H455 0.929 . S
C453 C452 1.363 . S
C453 C459 1.428 . S
H454 C450 0.930 . S
H455 C452 0.929 . S
S456 N457 1.613 . S
S456 N458 1.610 . S
N457 S456 1.613 . S
N457 C460 1.350 . S
N458 S456 1.610 . S
N458 C459 1.351 . S
C459 C453 1.428 . S
C459 N458 1.351 . S
C459 C460 1.434 . S
C460 C451 1.429 . S
C460 N457 1.350 . S
C460 C459 1.434 . S
C461 C462 1.369 . S
C461 C463 1.419 . S
C461 H465 0.930 . S
C462 C461 1.369 . S
C462 C471 1.429 . S
C463 C461 1.419 . S
C463 C464 1.363 . S
C463 H466 0.929 . S
C464 C463 1.363 . S
C464 C470 1.428 . S
H465 C461 0.930 . S
H466 C463 0.929 . S
S467 N468 1.613 . S
S467 N469 1.610 . S
N468 S467 1.613 . S
N468 C471 1.350 . S
N469 S467 1.610 . S
N469 C470 1.351 . S
C470 C464 1.428 . S
C470 N469 1.351 . S
C470 C471 1.434 . S
C471 C462 1.429 . S
C471 N468 1.350 . S
C471 C470 1.434 . S
C472 C473 1.369 . S
C472 C474 1.419 1_554 S
C472 H476 0.930 . S
C473 C472 1.369 . S
C473 C482 1.429 . S
C474 C472 1.419 1_556 S
C474 C475 1.363 . S
C474 H477 0.929 . S
C475 C474 1.363 . S
C475 C481 1.428 . S
H476 C472 0.930 . S
H477 C474 0.929 . S
S478 N479 1.613 . S
S478 N480 1.610 1_554 S
N479 S478 1.613 . S
N479 C482 1.350 . S
N480 S478 1.610 1_556 S
N480 C481 1.351 . S
C481 C475 1.428 . S
C481 N480 1.351 . S
C481 C482 1.434 1_556 S
C482 C473 1.429 . S
C482 N479 1.350 . S
C482 C481 1.434 1_554 S
C483 C484 1.369 . S
C483 C485 1.419 . S
C483 H487 0.930 . S
C484 C483 1.369 . S
C484 C493 1.429 . S
C485 C483 1.419 . S
C485 C486 1.363 . S
C485 H488 0.929 . S
C486 C485 1.363 . S
C486 C492 1.428 . S
H487 C483 0.930 . S
H488 C485 0.929 . S
S489 N490 1.613 . S
S489 N491 1.610 . S
N490 S489 1.613 . S
N490 C493 1.350 . S
N491 S489 1.610 . S
N491 C492 1.351 . S
C492 C486 1.428 . S
C492 N491 1.351 . S
C492 C493 1.434 . S
C493 C484 1.429 . S
C493 N490 1.350 . S
C493 C492 1.434 . S
C494 C495 1.369 1_455 S
C494 C496 1.419 1_554 S
C494 H498 0.930 . S
C495 C494 1.369 1_655 S
C495 C504 1.429 . S
C496 C494 1.419 1_556 S
C496 C497 1.363 1_455 S
C496 H499 0.929 . S
C497 C496 1.363 1_655 S
C497 C503 1.428 . S
H498 C494 0.930 . S
H499 C496 0.929 . S
S500 N501 1.613 . S
S500 N502 1.610 1_554 S
N501 S500 1.613 . S
N501 C504 1.350 . S
N502 S500 1.610 1_556 S
N502 C503 1.351 . S
C503 C497 1.428 . S
C503 N502 1.351 . S
C503 C504 1.434 1_556 S
C504 C495 1.429 . S
C504 N501 1.350 . S
C504 C503 1.434 1_554 S
C505 C506 1.379 . S
C505 C507 1.419 . S
C505 H509 0.930 . S
C506 C505 1.379 . S
C506 C515 1.419 1_565 S
C507 C505 1.419 . S
C507 C508 1.376 . S
C507 H510 0.929 . S
C508 C507 1.376 . S
C508 C514 1.415 1_565 S
H509 C505 0.930 . S
H510 C507 0.929 . S
S511 N512 1.613 . S
S511 N513 1.610 . S
N512 S511 1.613 . S
N512 C515 1.350 . S
N513 S511 1.610 . S
N513 C514 1.351 . S
C514 C508 1.415 1_545 S
C514 N513 1.351 . S
C514 C515 1.434 . S
C515 C506 1.419 1_545 S
C515 N512 1.350 . S
C515 C514 1.434 . S
C516 C517 1.369 . S
C516 C518 1.419 1_556 S
C516 H520 0.930 . S
C517 C516 1.369 . S
C517 C526 1.429 . S
C518 C516 1.419 1_554 S
C518 C519 1.363 . S
C518 H521 0.929 . S
C519 C518 1.363 . S
C519 C525 1.428 . S
H520 C516 0.930 . S
H521 C518 0.929 . S
S522 N523 1.613 1_554 S
S522 N524 1.610 . S
N523 S522 1.613 1_556 S
N523 C526 1.350 . S
N524 S522 1.610 . S
N524 C525 1.351 . S
C525 C519 1.428 . S
C525 N524 1.351 . S
C525 C526 1.434 1_554 S
C526 C517 1.429 . S
C526 N523 1.350 . S
C526 C525 1.434 1_556 S
C527 C528 1.369 . S
C527 C529 1.419 . S
C527 H531 0.930 . S
C528 C527 1.369 . S
C528 C537 1.429 . S
C529 C527 1.419 . S
C529 C530 1.363 . S
C529 H532 0.929 . S
C530 C529 1.363 . S
C530 C536 1.428 . S
H531 C527 0.930 . S
H532 C529 0.929 . S
S533 N534 1.613 . S
S533 N535 1.610 . S
N534 S533 1.613 . S
N534 C537 1.350 . S
N535 S533 1.610 . S
N535 C536 1.351 . S
C536 C530 1.428 . S
C536 N535 1.351 . S
C536 C537 1.434 . S
C537 C528 1.429 . S
C537 N534 1.350 . S
C537 C536 1.434 . S
C538 C539 1.369 1_655 S
C538 C540 1.419 1_554 S
C538 H542 0.930 . S
C539 C538 1.369 1_455 S
C539 C548 1.429 . S
C540 C538 1.419 1_556 S
C540 C541 1.363 1_655 S
C540 H543 0.929 . S
C541 C540 1.363 1_455 S
C541 C547 1.428 . S
H542 C538 0.930 . S
H543 C540 0.929 . S
S544 N545 1.613 1_556 S
S544 N546 1.610 . S
N545 S544 1.613 1_554 S
N545 C548 1.350 . S
N546 S544 1.610 . S
N546 C547 1.351 . S
C547 C541 1.428 . S
C547 N546 1.351 . S
C547 C548 1.434 1_556 S
C548 C539 1.429 . S
C548 N545 1.350 . S
C548 C547 1.434 1_554 S
C549 C550 1.369 1_565 S
C549 C551 1.419 . S
C549 H553 0.930 . S
C550 C549 1.369 1_545 S
C550 C559 1.429 . S
C551 C549 1.419 . S
C551 C552 1.363 1_565 S
C551 H554 0.929 . S
C552 C551 1.363 1_545 S
C552 C558 1.428 . S
H553 C549 0.930 . S
H554 C551 0.929 . S
S555 N556 1.613 . S
S555 N557 1.610 . S
N556 S555 1.613 . S
N556 C559 1.350 . S
N557 S555 1.610 . S
N557 C558 1.351 . S
C558 C552 1.428 . S
C558 N557 1.351 . S
C558 C559 1.434 . S
C559 C550 1.429 . S
C559 N556 1.350 . S
C559 C558 1.434 . S
C209 C4 1.325 . S
C211 C95 1.324 . S
C220 C23 1.323 . S
C222 C56 1.322 . S
C231 C36 1.323 . S
C233 C75 1.322 . S
C242 C49 1.325 . S
C244 C82 1.324 . S
C253 C114 1.322 . S
C255 C205 1.322 . S
C264 C160 1.322 . S
C266 C121 1.322 . S
C275 C134 1.323 . S
C277 C179 1.324 . S
C286 C153 1.322 . S
C288 C186 1.322 . S
C297 C5 1.598 . S
C299 C127 1.606 . S
C308 C16 1.597 . S
C310 C140 1.607 . S
C319 C147 1.605 . S
C321 C29 1.597 . S
C330 C42 1.596 . S
C332 C108 1.607 . S
C341 C57 1.596 . S
C343 C199 1.604 . S
C352 C166 1.605 . S
C354 C68 1.594 . S
C363 C173 1.604 . S
C365 C83 1.595 . S
C374 C192 1.607 . S
C376 C96 1.595 . S
C385 C17 1.607 . S
C387 C107 1.597 . S
C396 C30 1.606 . S
C398 C122 1.594 . S
C407 C135 1.595 . S
C409 C43 1.604 . S
C418 C10 1.606 . S
C420 C146 1.597 . S
C429 C161 1.595 . S
C431 C101 1.606 . S
C440 C172 1.593 . S
C442 C62 1.605 . S
C451 C69 1.607 . S
C453 C187 1.597 . S
C462 C88 1.604 . S
C464 C198 1.595 . S
C473 C3 1.626 . S
C475 C55 1.625 . S
C484 C70 1.625 . S
C486 C18 1.626 . S
C495 C31 1.623 . S
C497 C81 1.623 . S
C506 C94 1.627 . S
C508 C44 1.627 . S
C517 C109 1.623 . S
C519 C159 1.625 . S
C528 C174 1.625 . S
C530 C120 1.626 . S
C539 C185 1.622 . S
C541 C133 1.625 . S
C550 C200 1.623 . S
C552 C148 1.625 . S
