# Generated by pormake.
# Topology fnt, (5)-cn, num edge types: 1
# Building blocks:
#     Node 0, Type 0, BuildingBlock: XOMCOT_clean_sbu_0, # of connection points: 5
#     Node 1, Type 0, BuildingBlock: XOMCOT_clean_sbu_0, # of connection points: 5
#     Node 2, Type 0, BuildingBlock: XOMCOT_clean_sbu_0, # of connection points: 5
#     Node 3, Type 0, BuildingBlock: XOMCOT_clean_sbu_0, # of connection points: 5
#     Node 4, Type 0, BuildingBlock: XOMCOT_clean_sbu_0, # of connection points: 5
#     Node 5, Type 0, BuildingBlock: XOMCOT_clean_sbu_0, # of connection points: 5
#     Edge 6, Type (0, 0), BuildingBlock: TEMPAE_clean_linker_10, # of connection points: 2
#     Edge 7, Type (0, 0), BuildingBlock: TEMPAE_clean_linker_10, # of connection points: 2
#     Edge 8, Type (0, 0), BuildingBlock: TEMPAE_clean_linker_10, # of connection points: 2
#     Edge 9, Type (0, 0), BuildingBlock: TEMPAE_clean_linker_10, # of connection points: 2
#     Edge 10, Type (0, 0), BuildingBlock: TEMPAE_clean_linker_10, # of connection points: 2
#     Edge 11, Type (0, 0), BuildingBlock: TEMPAE_clean_linker_10, # of connection points: 2
#     Edge 12, Type (0, 0), BuildingBlock: TEMPAE_clean_linker_10, # of connection points: 2
#     Edge 13, Type (0, 0), BuildingBlock: TEMPAE_clean_linker_10, # of connection points: 2
#     Edge 14, Type (0, 0), BuildingBlock: TEMPAE_clean_linker_10, # of connection points: 2
#     Edge 15, Type (0, 0), BuildingBlock: TEMPAE_clean_linker_10, # of connection points: 2
#     Edge 16, Type (0, 0), BuildingBlock: TEMPAE_clean_linker_10, # of connection points: 2
#     Edge 17, Type (0, 0), BuildingBlock: TEMPAE_clean_linker_10, # of connection points: 2
#     Edge 18, Type (0, 0), BuildingBlock: TEMPAE_clean_linker_10, # of connection points: 2
#     Edge 19, Type (0, 0), BuildingBlock: TEMPAE_clean_linker_10, # of connection points: 2
#     Edge 20, Type (0, 0), BuildingBlock: TEMPAE_clean_linker_10, # of connection points: 2
# Relax obj value: 0.137
# Max RMSD: 0.163
# Mean RMSD: 0.163
data_MOF--net-fnt--node1-XOMCOT_clean_sbu_0--edge1-TEMPAE_clean_linker_10
_symmetry_space_group_name_H-M    P1
_symmetry_Int_Tables_number       1
_symmetry_cell_setting            triclinic
loop_
_symmetry_equiv_pos_as_xyz
'x, y, z'
_cell_length_a     27.996348
_cell_length_b     27.917776
_cell_length_c     48.69308
_cell_angle_alpha  90.78697
_cell_angle_beta   89.481016
_cell_angle_gamma 120.07711
loop_
_atom_site_label
_atom_site_type_symbol
_atom_site_fract_x
_atom_site_fract_y
_atom_site_fract_z
_atom_type_partial_charge
Co0 Co 0.17016 0.26715 0.04434 0.0
C1 C 0.13565 0.24619 0.10324 0.0
C2 C 0.22302 0.2817 0.09942 0.0
C3 C 0.20944 0.27453 0.12691 0.0
N4 N 0.17702 0.26652 0.08444 0.0
N5 N 0.15449 0.25215 0.12913 0.0
H6 H 0.09228 0.22721 0.09836 0.0
H7 H 0.2638 0.2956 0.09131 0.0
C8 C 0.287 0.35999 0.0497 0.0
O9 O 0.2694 0.38507 0.06651 0.0
N10 N 0.16317 0.26517 1.00481 0.0
C11 C 0.12733 0.27298 0.98991 0.0
C12 C 0.13229 0.26183 0.96269 0.0
C13 C 0.18845 0.2482 0.98666 0.0
N14 N 0.17042 0.24589 0.96076 0.0
C15 C 0.1215 0.32986 0.06256 0.0
C16 C 0.17839 0.4202 1.02895 0.0
C17 C 0.13716 0.41776 0.04651 0.0
C18 C 0.10877 0.37175 0.06337 0.0
C19 C 0.19023 0.37692 1.02895 0.0
N20 N 0.16265 0.33292 0.04621 0.0
H21 H 0.09537 0.29335 0.07398 0.0
H22 H 0.22051 0.37806 1.01462 0.0
H23 H 0.09842 0.28431 0.99833 0.0
H24 H 0.21845 0.23652 0.99242 0.0
O25 O 0.0932 0.21429 0.04691 0.0
O26 O 0.15923 0.19271 0.0428 0.0
O27 O 0.25337 0.31192 0.0399 0.0
C28 C 0.10669 0.17624 0.04509 0.0
H29 H 0.23752 0.284 0.14393 0.0
H30 H 0.10802 0.26295 0.94579 0.0
H31 H 0.20039 0.45448 1.01506 0.0
H32 H 0.07451 0.36637 0.0761 0.0
Co33 Co 0.88628 0.19211 0.37643 0.0
C34 C 0.86936 0.15862 0.43496 0.0
C35 C 0.90862 0.24677 0.43159 0.0
C36 C 0.90127 0.23332 0.45908 0.0
N37 N 0.88853 0.1998 0.41637 0.0
N38 N 0.87617 0.17789 0.46097 0.0
H39 H 0.85006 0.11507 0.42976 0.0
H40 H 0.92641 0.28812 0.4236 0.0
C41 C 0.97309 0.31015 0.37181 0.0
O42 O 0.00955 0.29413 0.37469 0.0
N43 N 0.88499 0.18439 0.33683 0.0
C44 C 0.84116 0.15276 0.3206 0.0
C45 C 0.85943 0.15567 0.29396 0.0
C46 C 0.92934 0.2047 0.32004 0.0
N47 N 0.91476 0.18799 0.29382 0.0
C48 C 0.77302 0.14233 0.39028 0.0
C49 C 0.7469 0.20261 0.35502 0.0
C50 C 0.70468 0.15736 0.3689 0.0
C51 C 0.7183 0.12832 0.38734 0.0
C52 C 0.80185 0.21664 0.35932 0.0
N53 N 0.81394 0.18523 0.37607 0.0
H54 H 0.78188 0.11622 0.40273 0.0
H55 H 0.83409 0.24985 0.34757 0.0
H56 H 0.79907 0.12787 0.3277 0.0
H57 H 0.97152 0.22997 0.32693 0.0
O58 O 0.86275 0.11488 0.37923 0.0
O59 O 0.95013 0.182 0.37746 0.0
O60 O 0.9217 0.27453 0.37243 0.0
C61 C 0.91449 0.1292 0.37898 0.0
H62 H 0.91166 0.26179 0.47627 0.0
H63 H 0.83444 0.13378 0.27628 0.0
H64 H 0.73736 0.22538 0.34034 0.0
H65 H 0.68646 0.09249 0.39797 0.0
Co66 Co 0.69288 0.89225 0.7066 0.0
C67 C 0.70254 0.85887 0.7629 0.0
C68 C 0.68191 0.92336 0.76295 0.0
C69 C 0.68865 0.91264 0.78972 0.0
N70 N 0.69058 0.88964 0.74623 0.0
N71 N 0.70151 0.87209 0.78962 0.0
H72 H 0.71346 0.82879 0.75561 0.0
H73 H 0.67271 0.95454 0.75611 0.0
C74 C 0.58236 0.87946 0.69379 0.0
O75 O 0.57125 0.83709 0.67768 0.0
N76 N 0.69573 0.89706 0.66633 0.0
C77 C 0.66948 0.8565 0.64723 0.0
C78 C 0.68549 0.87835 0.62141 0.0
C79 C 0.72584 0.94349 0.6514 0.0
N80 N 0.72079 0.93292 0.62415 0.0
C81 C 0.67396 0.78569 0.6934 0.0
C82 C 0.57781 0.72531 0.72306 0.0
C83 C 0.6032 0.69793 0.71068 0.0
C84 C 0.6512 0.72891 0.69525 0.0
C85 C 0.60183 0.7828 0.72035 0.0
N86 N 0.64905 0.81208 0.70533 0.0
H87 H 0.71221 0.80881 0.68222 0.0
H88 H 0.58401 0.80406 0.73131 0.0
H89 H 0.63963 0.81379 0.65125 0.0
H90 H 0.75166 0.98437 0.66005 0.0
O91 O 0.76307 0.89631 0.70711 0.0
O92 O 0.75107 0.96925 0.70931 0.0
O93 O 0.62764 0.90398 0.70709 0.0
C94 C 0.78447 0.94941 0.70908 0.0
H95 H 0.68467 0.93323 0.80786 0.0
H96 H 0.67148 0.85614 0.60207 0.0
H97 H 0.54111 0.70296 0.73557 0.0
H98 H 0.67174 0.7096 0.6849 0.0
Co99 Co 0.79814 0.68304 0.03434 0.0
C100 C 0.84187 0.69771 0.09108 0.0
C101 C 0.75432 0.66576 0.09048 0.0
C102 C 0.77155 0.67407 0.11737 0.0
N103 N 0.79833 0.68046 0.07404 0.0
N104 N 0.82661 0.69435 0.11777 0.0
H105 H 0.88398 0.71428 0.08406 0.0
H106 H 0.71275 0.65139 0.08342 0.0
C107 C 0.69735 0.57463 1.01841 0.0
O108 O 0.72373 0.56806 0.99765 0.0
N109 N 0.79709 0.6863 0.99402 0.0
C110 C 0.81403 0.66181 0.97516 0.0
C111 C 0.80845 0.67722 0.94929 0.0
C112 C 0.78024 0.71546 0.97882 0.0
N113 N 0.78734 0.71098 0.95161 0.0
C114 C 0.8873 0.66648 1.02241 0.0
C115 C 0.84908 0.56711 0.04901 0.0
C116 C 0.90296 0.59408 0.03809 0.0
C117 C 0.92104 0.6436 1.02403 0.0
C118 C 0.81566 0.59104 0.04627 0.0
N119 N 0.83507 0.6401 0.03296 0.0
H120 H 0.90319 0.7057 1.01222 0.0
H121 H 0.77546 0.57166 0.05594 0.0
H122 H 0.82772 0.63277 0.97932 0.0
H123 H 0.76386 0.74026 0.98733 0.0
O124 O 0.86352 0.75415 0.03561 0.0
O125 O 0.77814 0.74037 0.03731 0.0
O126 O 0.72161 0.61627 0.03459 0.0
C127 C 0.83123 0.77468 0.03775 0.0
H128 H 0.7455 0.66619 0.13525 0.0
H129 H 0.81804 0.66364 0.93015 0.0
H130 H 0.83365 0.52912 0.06041 0.0
H131 H 0.96146 0.66527 1.01452 0.0
Co132 Co 0.10249 0.82204 0.36761 0.0
C133 C 0.12827 0.85924 0.42576 0.0
C134 C 0.07257 0.77178 0.42246 0.0
C135 C 0.07976 0.78664 0.4499 0.0
N136 N 0.10329 0.8173 0.40732 0.0
N137 N 0.11489 0.84165 0.45189 0.0
H138 H 0.15336 0.90224 0.42034 0.0
H139 H 0.04525 0.7309 0.41416 0.0
C140 C 0.08958 0.7137 0.34494 0.0
O141 O 0.10577 0.73515 0.32047 0.0
N142 N 0.10094 0.82803 0.32787 0.0
C143 C 0.14209 0.86458 0.31163 0.0
C144 C 0.12277 0.85883 0.28524 0.0
C145 C 0.05674 0.80125 0.31106 0.0
N146 N 0.06915 0.81901 0.28485 0.0
C147 C 0.21227 0.91209 0.37246 0.0
C148 C 0.26826 0.85919 0.35528 0.0
C149 C 0.29765 0.91674 0.35945 0.0
C150 C 0.26899 0.94257 0.36905 0.0
C151 C 0.21085 0.82968 0.35926 0.0
N152 N 0.18307 0.85651 0.3669 0.0
H153 H 0.19216 0.93465 0.37874 0.0
H154 H 0.18961 0.78588 0.35554 0.0
H155 H 0.18326 0.89436 0.3183 0.0
H156 H 0.01622 0.76993 0.31795 0.0
O157 O 0.09859 0.88844 0.37112 0.0
O158 O 0.02557 0.80398 0.36964 0.0
O159 O 0.08945 0.74357 0.36512 0.0
C160 C 0.04557 0.8572 0.37192 0.0
H161 H 0.06017 0.7592 0.46703 0.0
H162 H 0.14653 0.8822 0.26765 0.0
H163 H 0.2891 0.83741 0.34827 0.0
H164 H 0.29013 0.98658 0.37356 0.0
Co165 Co 0.27602 0.10235 0.70558 0.0
C166 C 0.25095 0.1058 0.76516 0.0
C167 C 0.3234 0.09932 0.75877 0.0
C168 C 0.31893 0.10784 0.78635 0.0
N169 N 0.28096 0.09833 0.74533 0.0
N170 N 0.27356 0.11222 0.7903 0.0
H171 H 0.21606 0.1113 0.7612 0.0
H172 H 0.3576 0.09795 0.7491 0.0
C173 C 0.34639 0.05674 0.68128 0.0
O174 O 0.34729 0.07752 0.65715 0.0
N175 N 0.26985 0.1059 0.66607 0.0
C176 C 0.28315 0.1508 0.65078 0.0
C177 C 0.2669 0.13382 0.62402 0.0
C178 C 0.24402 0.06224 0.64865 0.0
N179 N 0.24276 0.07816 0.62273 0.0
C180 C 0.33483 0.21253 0.72383 0.0
C181 C 0.43154 0.24892 0.69456 0.0
C182 C 0.42517 0.28632 0.71159 0.0
C183 C 0.37617 0.26722 0.72641 0.0
C184 C 0.38884 0.19356 0.69283 0.0
N185 N 0.34086 0.1761 0.70724 0.0
H186 H 0.29711 0.19972 0.7351 0.0
H187 H 0.39434 0.16603 0.67939 0.0
H188 H 0.30252 0.19287 0.65853 0.0
H189 H 0.22691 0.01962 0.65484 0.0
O190 O 0.22268 0.12558 0.70932 0.0
O191 O 0.20197 0.03797 0.70612 0.0
O192 O 0.32117 0.06383 0.70164 0.0
C193 C 0.18504 0.07378 0.70842 0.0
H194 H 0.34821 0.11301 0.80212 0.0
H195 H 0.273 0.16042 0.60679 0.0
H196 H 0.46881 0.26242 0.68256 0.0
H197 H 0.36876 0.29486 0.73925 0.0
C198 C 0.37297 0.35614 0.03979 0.0
C199 C 0.34646 0.38714 0.04311 0.0
C200 C 0.43032 0.38246 0.03531 0.0
C201 C 0.4613 0.44091 0.03322 0.0
C202 C 0.43414 0.47206 0.0356 0.0
C203 C 0.37724 0.44486 0.04098 0.0
C204 C 0.45797 0.34796 0.03368 0.0
C205 C 0.46525 0.53425 0.03269 0.0
C206 C 0.61472 0.52501 0.04868 0.0
C207 C 0.63776 0.53561 1.02225 0.0
C208 C 0.55752 0.49172 0.05258 0.0
C209 C 0.52238 0.47008 1.02944 0.0
C210 C 0.54562 0.47983 1.00271 0.0
C211 C 0.60318 0.51182 0.99947 0.0
C212 C 0.53461 0.48103 0.08145 0.0
C213 C 0.50957 0.4589 0.9775 0.0
H214 H 0.34919 0.31149 0.04165 0.0
H215 H 0.35662 0.4688 0.04328 0.0
H216 H 0.48108 0.35565 1.0141 0.0
H217 H 0.48837 0.36012 0.05058 0.0
H218 H 0.42793 0.30295 0.03519 0.0
H219 H 0.43737 0.55184 0.03308 0.0
H220 H 0.49545 0.55349 0.04964 0.0
H221 H 0.48886 0.54598 1.01313 0.0
H222 H 0.64149 0.54307 0.06633 0.0
H223 H 0.62093 0.52045 0.979 0.0
H224 H 0.50583 0.43612 0.08435 0.0
H225 H 0.51082 0.50253 0.08501 0.0
H226 H 0.56766 0.49571 0.09717 0.0
H227 H 0.48066 0.4137 0.97887 0.0
H228 H 0.53409 0.46735 0.95829 0.0
H229 H 0.48422 0.47916 0.97621 0.0
C230 C 0.04749 0.41012 0.36905 0.0
C231 C 0.99125 0.36978 0.36845 0.0
C232 C 0.06497 0.46657 0.3658 0.0
C233 C 0.02534 0.48318 0.36175 0.0
C234 C 0.96854 0.44269 0.36119 0.0
C235 C 0.95221 0.38662 0.36459 0.0
C236 C 0.12591 0.50843 0.36658 0.0
C237 C 0.92493 0.45855 0.35683 0.0
C238 C 0.06369 0.63292 0.37599 0.0
C239 C 0.07432 0.65509 0.34945 0.0
C240 C 0.04833 0.57728 0.38033 0.0
C241 C 0.0432 0.54278 0.35761 0.0
C242 C 0.05416 0.56498 0.33081 0.0
C243 C 0.06965 0.62076 0.32707 0.0
C244 C 0.03723 0.55531 0.40924 0.0
C245 C 0.04895 0.52961 0.30601 0.0
H246 H 0.07801 0.39766 0.37206 0.0
H247 H 0.90866 0.35591 0.36408 0.0
H248 H 0.13898 0.53073 0.3468 0.0
H249 H 0.13445 0.53977 0.38293 0.0
H250 H 0.15143 0.48898 0.3704 0.0
H251 H 0.88249 0.42216 0.35717 0.0
H252 H 0.92805 0.48835 0.37301 0.0
H253 H 0.93167 0.47948 0.33679 0.0
H254 H 0.06737 0.65902 0.39345 0.0
H255 H 0.07756 0.63728 0.30646 0.0
H256 H 0.06438 0.53824 0.41415 0.0
H257 H -0.00603 0.52094 0.41102 0.0
H258 H 0.04413 0.58771 0.42475 0.0
H259 H 0.07638 0.51187 0.30825 0.0
H260 H 0.05967 0.55328 0.28659 0.0
H261 H 0.00604 0.49441 0.30442 0.0
C262 C 0.372 -0.00245 0.70894 0.0
C263 C 0.37793 0.02764 0.68505 0.0
C264 C 0.40213 0.97012 0.71241 0.0
C265 C 0.43954 0.97356 0.69168 0.0
C266 C 0.4457 0.00396 0.6676 0.0
C267 C 0.41464 0.03027 0.66451 0.0
C268 C 0.39401 0.93752 0.73822 0.0
C269 C 0.48566 0.00929 0.64515 0.0
C270 C 0.56052 0.95305 0.70758 0.0
C271 C 0.54357 0.90097 0.69558 0.0
C272 C 0.52623 0.97632 0.70735 0.0
C273 C 0.47337 0.94653 0.69514 0.0
C274 C 0.455 0.89289 0.68412 0.0
C275 C 0.49048 0.8709 0.6843 0.0
C276 C 0.54764 0.03388 0.71903 0.0
C277 C 0.39861 0.85951 0.67128 0.0
H278 H 0.34357 0.99512 0.72485 0.0
H279 H 0.41978 0.05359 0.64603 0.0
H280 H 0.38138 0.89402 0.73283 0.0
H281 H 0.43349 0.95503 0.7496 0.0
H282 H 0.36228 0.93766 0.75203 0.0
H283 H 0.4857 0.03461 0.62774 0.0
H284 H 0.52811 0.02864 0.65356 0.0
H285 H 0.47496 0.9677 0.63715 0.0
H286 H 0.60146 0.97663 0.71638 0.0
H287 H 0.47685 0.83043 0.67521 0.0
H288 H 0.51757 0.0343 0.73389 0.0
H289 H 0.55276 0.06259 0.70225 0.0
H290 H 0.58797 0.04991 0.72953 0.0
H291 H 0.36648 0.85796 0.68536 0.0
H292 H 0.38838 0.81649 0.6662 0.0
H293 H 0.39693 0.87969 0.65214 0.0
C294 C 0.61789 0.61759 0.71739 0.0
C295 C 0.5813 0.63769 0.71389 0.0
C296 C 0.59896 0.56071 0.71759 0.0
C297 C 0.54189 0.52294 0.71479 0.0
C298 C 0.50441 0.54281 0.71239 0.0
C299 C 0.52462 0.60005 0.71185 0.0
C300 C 0.64011 0.54106 0.72017 0.0
C301 C 0.44306 0.50355 0.70982 0.0
C302 C 0.48577 0.37619 0.68833 0.0
C303 C 0.46617 0.34618 0.71265 0.0
C304 C 0.51341 0.43427 0.68884 0.0
C305 C 0.52109 0.46253 0.71425 0.0
C306 C 0.50509 0.4325 0.73901 0.0
C307 C 0.4782 0.37464 0.7379 0.0
C308 C 0.53111 0.46514 0.66207 0.0
C309 C 0.51268 0.4611 0.76651 0.0
H310 H 0.66169 0.6465 0.71965 0.0
H311 H 0.49622 0.61528 0.70901 0.0
H312 H 0.62958 0.51326 0.73803 0.0
H313 H 0.63836 0.51673 0.70161 0.0
H314 H 0.68307 0.5759 0.72266 0.0
H315 H 0.41932 0.52563 0.70917 0.0
H316 H 0.43434 0.47816 0.69082 0.0
H317 H 0.42799 0.47469 0.7274 0.0
H318 H 0.47629 0.35432 0.66878 0.0
H319 H 0.4637 0.35138 0.75678 0.0
H320 H 0.57428 0.49987 0.66347 0.0
H321 H 0.50459 0.48319 0.6577 0.0
H322 H 0.52797 0.43779 0.64456 0.0
H323 H 0.55558 0.49595 0.76877 0.0
H324 H 0.5032 0.43235 0.78392 0.0
H325 H 0.48492 0.47871 0.76788 0.0
C326 C -0.00188 0.60935 0.04524 0.0
C327 C 0.94139 0.57237 0.04146 0.0
C328 C 0.03608 0.59067 0.04578 0.0
C329 C 0.01674 0.53337 0.04352 0.0
C330 C 0.95942 0.49549 0.04087 0.0
C331 C 0.92242 0.5155 0.03961 0.0
C332 C 0.09692 0.63232 0.0483 0.0
C333 C 0.93725 0.43385 0.0391 0.0
C334 C 0.10734 0.47506 1.02059 0.0
C335 C 0.11822 0.45868 0.04574 0.0
C336 C 0.07688 0.50247 1.01963 0.0
C337 C 0.05627 0.51272 0.04435 0.0
C338 C 0.07058 0.49987 0.06986 0.0
C339 C 0.10216 0.47381 0.07024 0.0
C340 C 0.06392 0.51738 0.99209 0.0
C341 C 0.04915 0.50979 0.09667 0.0
H342 H 0.01315 0.65329 0.04755 0.0
H343 H 0.87885 0.48667 0.03654 0.0
H344 H 0.11394 0.62431 0.06703 0.0
H345 H 0.11957 0.62809 0.03048 0.0
H346 H 0.10524 0.67562 0.04926 0.0
H347 H 0.89144 0.40986 0.03821 0.0
H348 H 0.9539 0.42383 1.02051 0.0
H349 H 0.95099 0.42012 0.05716 0.0
H350 H 0.11947 0.46337 1.00159 0.0
H351 H 0.11147 0.46213 0.08976 0.0
H352 H 0.07186 0.56052 0.99251 0.0
H353 H 0.01952 0.48982 0.98739 0.0
H354 H 0.08866 0.51317 0.97526 0.0
H355 H 0.05761 0.55302 0.09807 0.0
H356 H 0.06774 0.50156 0.11477 0.0
H357 H 0.0037 0.48227 0.09764 0.0
C358 C 0.37892 0.00311 0.34201 0.0
C359 C 0.35778 0.95092 0.35412 0.0
C360 C 0.4358 0.04019 0.34076 0.0
C361 C 0.47251 0.0243 0.3514 0.0
C362 C 0.4517 0.9702 0.3618 0.0
C363 C 0.39441 0.93412 0.36316 0.0
C364 C 0.45634 0.09747 0.32957 0.0
C365 C 0.48982 0.95146 0.37283 0.0
C366 C 0.62628 0.10705 0.3369 0.0
C367 C 0.64613 0.13457 0.36206 0.0
C368 C 0.56946 0.07225 0.33265 0.0
C369 C 0.5321 0.06568 0.35402 0.0
C370 C 0.55201 0.0965 0.37878 0.0
C371 C 0.609 0.13017 0.38262 0.0
C372 C 0.54984 0.03969 0.3061 0.0
C373 C 0.51335 0.09154 0.40181 0.0
H374 H 0.35075 0.01576 0.33432 0.0
H375 H 0.37834 0.89389 0.37251 0.0
H376 H 0.47391 0.12833 0.34656 0.0
H377 H 0.48981 0.10804 0.31435 0.0
H378 H 0.42293 0.10148 0.31968 0.0
H379 H 0.46766 0.90651 0.37741 0.0
H380 H 0.52331 0.96036 0.35786 0.0
H381 H 0.50951 0.97474 0.392 0.0
H382 H 0.6554 0.10974 0.32129 0.0
H383 H 0.62478 0.15106 0.40218 0.0
H384 H 0.51473 0.04243 0.29754 0.0
H385 H 0.53488 0.99535 0.31013 0.0
H386 H 0.5832 0.05431 0.29044 0.0
H387 H 0.47984 0.09781 0.39394 0.0
H388 H 0.53503 0.12199 0.41863 0.0
H389 H 0.49375 0.0493 0.41049 0.0
C390 C 0.00951 0.1037 0.05356 0.0
C391 C 0.06318 0.11754 0.04554 0.0
C392 C 0.96636 0.04874 0.0532 0.0
C393 C 0.97707 0.0066 0.04446 0.0
C394 C 0.03125 0.02016 0.03648 0.0
C395 C 0.07389 0.07566 0.03724 0.0
C396 C 0.90934 0.03577 0.06217 0.0
C397 C 0.04403 0.97606 1.027 0.0
C398 C 0.88524 0.85802 0.0658 0.0
C399 C 0.85581 0.83425 0.04162 0.0
C400 C 0.92294 0.91485 0.0675 0.0
C401 C 0.93188 0.94809 0.0442 0.0
C402 C 0.89983 0.92457 1.02019 0.0
C403 C 0.86192 0.86752 1.01919 0.0
C404 C 0.95573 0.9385 0.09358 0.0
C405 C 0.90828 0.95882 0.99497 0.0
H406 H 0.00107 0.13597 0.06019 0.0
H407 H 0.11526 0.08634 0.03092 0.0
H408 H 0.87949 0.01474 0.04523 0.0
H409 H 0.89534 0.00695 0.07976 0.0
H410 H 0.90796 0.0735 0.06838 0.0
H411 H 0.08806 0.99356 1.0211 0.0
H412 H 0.03418 0.94561 0.04359 0.0
H413 H 0.01788 0.95321 1.0091 0.0
H414 H 0.88099 0.83153 0.08286 0.0
H415 H 0.84001 0.84838 1.0003 0.0
H416 H 0.95478 0.97619 0.1002 0.0
H417 H -0.00047 0.95084 0.08975 0.0
H418 H 0.93988 0.90828 0.11062 0.0
H419 H 0.90682 0.99676 1.00046 0.0
H420 H 0.87675 0.93543 0.97896 0.0
H421 H 0.94971 0.97221 0.98613 0.0
C422 C 0.97956 0.88427 0.35464 0.0
C423 C 0.01165 0.8829 0.37608 0.0
C424 C 0.95955 0.92146 0.35561 0.0
C425 C 0.97175 0.95724 0.3787 0.0
C426 C 0.00113 0.95305 0.40116 0.0
C427 C 0.02136 0.91633 0.39938 0.0
C428 C 0.92869 0.92508 0.33121 0.0
C429 C 0.01407 0.98962 0.42635 0.0
C430 C 0.98203 0.09712 0.36986 0.0
C431 C 0.93064 0.08649 0.37981 0.0
C432 C -0.0044 0.05503 0.36898 0.0
C433 C 0.95715 0.00156 0.37873 0.0
C434 C 0.90557 0.99101 0.38921 0.0
C435 C 0.89278 0.03352 0.38943 0.0
C436 C 0.05089 0.06763 0.35743 0.0
C437 C 0.864 0.93492 0.40026 0.0
H438 H 0.97344 0.85917 0.33637 0.0
H439 H 0.04703 0.9155 0.41573 0.0
H440 H 0.88989 0.9233 0.33794 0.0
H441 H 0.95427 0.96537 0.3209 0.0
H442 H 0.91852 0.89131 0.31599 0.0
H443 H 0.0321 0.97706 0.44309 0.0
H444 H 0.04393 0.03312 0.42091 0.0
H445 H 0.9762 0.9885 0.43419 0.0
H446 H 0.01106 0.1379 0.36218 0.0
H447 H 0.85302 0.02527 0.39727 0.0
H448 H 0.04491 0.03872 0.3402 0.0
H449 H 0.07515 0.06138 0.37343 0.0
H450 H 0.07533 0.11074 0.34987 0.0
H451 H 0.85276 0.90275 0.38405 0.0
H452 H 0.82573 0.93356 0.40774 0.0
H453 H 0.88237 0.92397 0.41745 0.0
C454 C 0.08416 0.00332 0.7065 0.0
C455 C 0.12641 0.05821 0.71 0.0
C456 C 0.02859 0.9898 0.70708 0.0
C457 C 0.01547 0.03229 0.71128 0.0
C458 C 0.05802 0.08758 0.71516 0.0
C459 C 0.11292 0.09985 0.71449 0.0
C460 C 0.98396 0.93026 0.70293 0.0
C461 C 0.04559 0.13388 0.71978 0.0
C462 C 0.87492 0.00145 0.68652 0.0
C463 C 0.8442 0.98385 0.71078 0.0
C464 C 0.93146 0.01927 0.68652 0.0
C465 C 0.95717 0.01899 0.7114 0.0
C466 C 0.9266 0.00402 0.73622 0.0
C467 C 0.87009 0.98609 0.73554 0.0
C468 C 0.96281 0.03507 0.65968 0.0
C469 C 0.95276 0.0038 0.76317 0.0
H470 H 0.09448 0.97113 0.70303 0.0
H471 H 0.1454 0.14246 0.71734 0.0
H472 H 0.95549 0.91624 0.72081 0.0
H473 H 0.95915 0.92655 0.68454 0.0
H474 H 0.00103 0.90213 0.70023 0.0
H475 H 0.08358 0.17464 0.72289 0.0
H476 H 0.02293 0.13675 0.70189 0.0
H477 H 0.01855 0.12509 0.73804 0.0
H478 H 0.85402 -0.00209 0.66731 0.0
H479 H 0.84544 0.97082 0.75408 0.0
H480 H 0.97547 0.00432 0.65419 0.0
H481 H 0.00099 0.07594 0.6617 0.0
H482 H 0.93774 0.03691 0.6426 0.0
H483 H 0.96461 0.97137 0.76253 0.0
H484 H 0.92445 0.99563 0.78087 0.0
H485 H 0.991 0.04408 0.76666 0.0
C486 C 0.19451 0.18143 0.93777 0.0
C487 C 0.18521 0.22622 0.93643 0.0
C488 C 0.20737 0.16083 0.91405 0.0
C489 C 0.21218 0.1864 0.88844 0.0
C490 C 0.20326 0.23199 0.88703 0.0
C491 C 0.18931 0.25094 0.91099 0.0
C492 C 0.21552 0.11152 0.91636 0.0
C493 C 0.20912 0.26119 0.86028 0.0
C494 C 0.29853 0.16864 0.8328 0.0
C495 C 0.25794 0.12958 0.81517 0.0
C496 C 0.28419 0.18762 0.8566 0.0
C497 C 0.2278 0.16633 0.86323 0.0
C498 C 0.18658 0.12635 0.84566 0.0
C499 C 0.20217 0.10892 0.82168 0.0
C500 C 0.32945 0.23112 0.87441 0.0
C501 C 0.12603 0.10192 0.85224 0.0
H502 H 0.19053 0.16173 0.95734 0.0
H503 H 0.18249 0.2858 0.90999 0.0
H504 H 0.18684 0.07792 0.90229 0.0
H505 H 0.2581 0.12313 0.91003 0.0
H506 H 0.20844 0.09518 0.93759 0.0
H507 H 0.20117 0.29622 0.86269 0.0
H508 H 0.2514 0.27731 0.85192 0.0
H509 H 0.17992 0.23161 0.84488 0.0
H510 H 0.34167 0.18549 0.82758 0.0
H511 H 0.1708 0.07858 0.80812 0.0
H512 H 0.32619 0.21527 0.89551 0.0
H513 H 0.32481 0.26828 0.87599 0.0
H514 H 0.37127 0.24382 0.86624 0.0
H515 H 0.11696 0.08266 0.87282 0.0
H516 H 0.09916 0.07017 0.83688 0.0
H517 H 0.11521 0.13509 0.85296 0.0
C518 C 0.0726 0.19122 0.15676 0.0
C519 C 0.12257 0.24096 0.15392 0.0
C520 C 0.03965 0.18105 0.18031 0.0
C521 C 0.05627 0.22252 0.20101 0.0
C522 C 0.10686 0.27288 0.19817 0.0
C523 C 0.13982 0.2811 0.17482 0.0
C524 C 0.98689 0.12617 0.18293 0.0
C525 C 0.12528 0.31879 0.21932 0.0
C526 C 0.9426 0.21783 0.24628 0.0
C527 C 0.95091 0.19775 0.27086 0.0
C528 C 0.97728 0.2271 0.22354 0.0
C529 C 0.01996 0.21397 0.22521 0.0
C530 C 0.02786 0.19281 0.24998 0.0
C531 C -0.00624 0.18586 0.2727 0.0
C532 C 0.96852 0.25132 0.19783 0.0
C533 C 0.07165 0.17664 0.25234 0.0
H534 H 0.0596 0.16023 0.14055 0.0
H535 H 0.17817 0.31983 0.17232 0.0
H536 H 0.98616 0.10681 0.2028 0.0
H537 H 0.95091 0.13264 0.18279 0.0
H538 H 0.98191 0.09694 0.166 0.0
H539 H 0.16576 0.35535 0.21406 0.0
H540 H 0.09407 0.33209 0.22109 0.0
H541 H 0.12858 0.30373 0.23977 0.0
H542 H 0.90942 0.22708 0.24511 0.0
H543 H -0.00056 0.16966 0.29174 0.0
H544 H 0.95782 0.22164 0.18044 0.0
H545 H 0.00724 0.28955 0.19222 0.0
H546 H 0.93511 0.26151 0.20032 0.0
H547 H 0.06527 0.1454 0.23628 0.0
H548 H 0.07132 0.15923 0.27277 0.0
H549 H 0.11307 0.21317 0.24884 0.0
C550 C 0.80202 0.10004 0.48607 0.0
C551 C 0.85581 0.14535 0.48542 0.0
C552 C 0.78115 0.0677 0.50971 0.0
C553 C 0.81557 0.08 0.53297 0.0
C554 C 0.87019 0.12563 0.53232 0.0
C555 C 0.88937 0.15836 0.50865 0.0
C556 C 0.72225 0.02039 0.50976 0.0
C557 C 0.90866 0.13909 0.55638 0.0
C558 C 0.74652 0.02116 0.60174 0.0
C559 C 0.74749 0.97155 0.6023 0.0
C560 C 0.76901 0.05728 0.57941 0.0
C561 C 0.79454 0.0441 0.55763 0.0
C562 C 0.79749 0.99496 0.55875 0.0
C563 C 0.77309 0.95884 0.58087 0.0
C564 C 0.76362 0.1084 0.57863 0.0
C565 C 0.8257 0.98012 0.5364 0.0
H566 H 0.77601 0.09057 0.46814 0.0
H567 H 0.93108 0.19329 0.50793 0.0
H568 H 0.72153 0.98056 0.51205 0.0
H569 H 0.69952 0.02471 0.52752 0.0
H570 H 0.70002 0.01837 0.4906 0.0
H571 H 0.9499 0.17584 0.55257 0.0
H572 H 0.89064 0.14703 0.57506 0.0
H573 H 0.91404 0.10316 0.56073 0.0
H574 H 0.72625 0.0305 0.6183 0.0
H575 H 0.77415 0.9206 0.58159 0.0
H576 H 0.7385 0.10604 0.56061 0.0
H577 H 0.8048 0.14585 0.57619 0.0
H578 H 0.74385 0.11341 0.59749 0.0
H579 H 0.80262 0.97187 0.51688 0.0
H580 H 0.82851 0.94296 0.54151 0.0
H581 H 0.86798 0.01529 0.53279 0.0
C582 C 0.69676 0.79301 0.81408 0.0
C583 C 0.71362 0.84943 0.81319 0.0
C584 C 0.70737 0.77029 0.83723 0.0
C585 C 0.73654 0.80513 0.85978 0.0
C586 C 0.75409 0.86228 0.85885 0.0
C587 C 0.74198 0.88361 0.83567 0.0
C588 C 0.68727 0.70902 0.83759 0.0
C589 C 0.78638 0.90105 0.88215 0.0
C590 C 0.72781 0.74114 0.9296 0.0
C591 C 0.77551 0.73674 0.9293 0.0
C592 C 0.71438 0.76311 0.90706 0.0
C593 C 0.75017 0.78214 0.88399 0.0
C594 C 0.79913 0.77906 0.88397 0.0
C595 C 0.81089 0.75594 0.90651 0.0
C596 C 0.66143 0.76497 0.90769 0.0
C597 C 0.83904 0.80003 0.86011 0.0
H598 H 0.67436 0.7665 0.79682 0.0
H599 H 0.75566 0.92738 0.83486 0.0
H600 H 0.7229 0.70217 0.8392 0.0
H601 H 0.66073 0.69001 0.85586 0.0
H602 H 0.66344 0.68731 0.81886 0.0
H603 H 0.79686 0.94437 0.87826 0.0
H604 H 0.76231 0.88715 0.90152 0.0
H605 H 0.82523 0.90038 0.88534 0.0
H606 H 0.70024 0.72583 0.94712 0.0
H607 H 0.84813 0.75318 0.90644 0.0
H608 H 0.63477 0.74038 0.89025 0.0
H609 H 0.67047 0.80816 0.90522 0.0
H610 H 0.63808 0.74851 0.92713 0.0
H611 H 0.81834 0.7764 0.84118 0.0
H612 H 0.87619 0.79635 0.86372 0.0
H613 H 0.8525 0.84411 0.85629 0.0
C614 C 0.84722 0.73124 0.16527 0.0
C615 C 0.8616 0.71154 0.14176 0.0
C616 C 0.88036 0.74781 0.18889 0.0
C617 C 0.92918 0.74451 0.18915 0.0
C618 C 0.94397 0.72457 0.16552 0.0
C619 C 0.91013 0.70856 0.14208 0.0
C620 C 0.86338 0.76945 0.21348 0.0
C621 C -0.00445 0.72017 0.16501 0.0
C622 C 0.04155 0.83692 0.23983 0.0
C623 C 0.03322 0.80028 0.26121 0.0
C624 C 0.00817 0.81926 0.21629 0.0
C625 C 0.96541 0.76342 0.21392 0.0
C626 C 0.95663 0.72618 0.23545 0.0
C627 C 0.99048 0.74512 0.25889 0.0
C628 C 0.01852 0.86053 0.19402 0.0
C629 C 0.91164 0.66626 0.23365 0.0
H630 H 0.81034 0.73461 0.16508 0.0
H631 H 0.92121 0.6929 0.12411 0.0
H632 H 0.85897 0.74436 0.23181 0.0
H633 H 0.89586 0.81266 0.21817 0.0
H634 H 0.82379 0.76864 0.21013 0.0
H635 H 0.00064 0.7027 0.14529 0.0
H636 H 0.03235 0.76168 0.16827 0.0
H637 H -0.00562 0.69356 0.18202 0.0
H638 H 0.07392 0.87978 0.24165 0.0
H639 H 0.98423 0.71649 0.27518 0.0
H640 H 0.98105 0.86382 0.19094 0.0
H641 H 0.02736 0.84619 0.17427 0.0
H642 H 0.05365 0.90237 0.19893 0.0
H643 H 0.87087 0.66347 0.23167 0.0
H644 H 0.91066 0.64241 0.25193 0.0
H645 H 0.91772 0.64653 0.21504 0.0
C646 C 0.22809 0.99622 0.59585 0.0
C647 C 0.22248 0.04326 0.59854 0.0
C648 C 0.21035 0.96285 0.57203 0.0
C649 C 0.18558 0.9763 0.55049 0.0
C650 C 0.17907 0.02332 0.55327 0.0
C651 C 0.19803 0.05647 0.57715 0.0
C652 C 0.21888 0.91365 0.56976 0.0
C653 C 0.15209 0.03862 0.531 0.0
C654 C 0.18551 0.92188 0.47826 0.0
C655 C 0.13248 0.87527 0.47659 0.0
C656 C 0.2034 0.95491 0.50219 0.0
C657 C 0.1671 0.94155 0.52492 0.0
C658 C 0.1133 0.89479 0.52326 0.0
C659 C 0.09682 0.86201 0.49921 0.0
C660 C 0.26136 0.00385 0.50324 0.0
C661 C 0.07302 0.87957 0.54683 0.0
H662 H 0.24768 0.9863 0.61215 0.0
H663 H 0.19315 0.09246 0.57926 0.0
H664 H 0.17868 0.87518 0.56666 0.0
H665 H 0.245 0.91818 0.5516 0.0
H666 H 0.23887 0.90885 0.58831 0.0
H667 H 0.1487 0.0755 0.53664 0.0
H668 H 0.17623 0.04736 0.51169 0.0
H669 H 0.11013 0.00339 0.52673 0.0
H670 H 0.2134 0.93194 0.46095 0.0
H671 H 0.05556 0.82649 0.4979 0.0
H672 H 0.28419 -0.00069 0.52057 0.0
H673 H 0.26013 0.0425 0.50696 0.0
H674 H 0.28466 0.00833 0.48394 0.0
H675 H 0.09016 0.87118 0.56541 0.0
H676 H 0.03242 0.84252 0.54212 0.0
H677 H 0.06646 0.91474 0.55189 0.0
loop_
_geom_bond_atom_site_label_1
_geom_bond_atom_site_label_2
_geom_bond_distance
_geom_bond_site_symmetry_2
_ccdc_geom_bond_type
Co0 N4 2.148 . S
Co0 N10 2.128 1_554 S
Co0 N20 2.194 . S
Co0 O25 2.351 . S
Co0 O26 2.155 . S
Co0 O27 2.096 . S
C1 N4 1.301 . S
C1 N5 1.328 . S
C1 H6 0.930 . S
C2 C3 1.333 . S
C2 N4 1.317 . S
C2 H7 0.930 . S
C3 C2 1.333 . S
C3 N5 1.350 . S
C3 H29 0.931 . S
N4 Co0 2.148 . S
N4 C1 1.301 . S
N4 C2 1.317 . S
N5 C1 1.328 . S
N5 C3 1.350 . S
H6 C1 0.930 . S
H7 C2 0.930 . S
C8 O9 1.224 . S
C8 O27 1.247 . S
O9 C8 1.224 . S
N10 Co0 2.128 1_556 S
N10 C11 1.355 . S
N10 C13 1.311 . S
C11 N10 1.355 . S
C11 C12 1.363 . S
C11 H23 0.929 . S
C12 C11 1.363 . S
C12 N14 1.375 . S
C12 H30 0.931 . S
C13 N10 1.311 . S
C13 N14 1.347 . S
C13 H24 0.929 . S
N14 C12 1.375 . S
N14 C13 1.347 . S
C15 C18 1.365 . S
C15 N20 1.328 . S
C15 H21 0.929 . S
C16 C17 1.362 . S
C16 C19 1.378 1_556 S
C16 H31 0.929 . S
C17 C16 1.362 . S
C17 C18 1.366 1_556 S
C18 C15 1.365 . S
C18 C17 1.366 1_554 S
C18 H32 0.930 . S
C19 C16 1.378 1_554 S
C19 N20 1.315 . S
C19 H22 0.930 . S
N20 Co0 2.194 . S
N20 C15 1.328 . S
N20 C19 1.315 . S
H21 C15 0.929 . S
H22 C19 0.930 . S
H23 C11 0.929 . S
H24 C13 0.929 . S
O25 Co0 2.351 . S
O25 C28 1.244 . S
O26 Co0 2.155 . S
O26 C28 1.240 . S
O27 Co0 2.096 . S
O27 C8 1.247 . S
C28 O25 1.244 . S
C28 O26 1.240 . S
H29 C3 0.931 . S
H30 C12 0.931 . S
H31 C16 0.929 . S
H32 C18 0.930 . S
Co33 N37 2.148 . S
Co33 N43 2.128 . S
Co33 N53 2.194 . S
Co33 O58 2.351 . S
Co33 O59 2.155 . S
Co33 O60 2.096 . S
C34 N37 1.301 . S
C34 N38 1.328 . S
C34 H39 0.930 . S
C35 C36 1.333 . S
C35 N37 1.317 . S
C35 H40 0.930 . S
C36 C35 1.333 . S
C36 N38 1.350 . S
C36 H62 0.931 . S
N37 Co33 2.148 . S
N37 C34 1.301 . S
N37 C35 1.317 . S
N38 C34 1.328 . S
N38 C36 1.350 . S
H39 C34 0.930 . S
H40 C35 0.930 . S
C41 O42 1.224 . S
C41 O60 1.247 . S
O42 C41 1.224 . S
N43 Co33 2.128 . S
N43 C44 1.355 . S
N43 C46 1.311 . S
C44 N43 1.355 . S
C44 C45 1.363 . S
C44 H56 0.929 . S
C45 C44 1.363 . S
C45 N47 1.375 . S
C45 H63 0.931 . S
C46 N43 1.311 . S
C46 N47 1.347 . S
C46 H57 0.929 . S
N47 C45 1.375 . S
N47 C46 1.347 . S
C48 C51 1.365 . S
C48 N53 1.328 . S
C48 H54 0.929 . S
C49 C50 1.362 . S
C49 C52 1.378 . S
C49 H64 0.929 . S
C50 C49 1.362 . S
C50 C51 1.366 . S
C51 C48 1.365 . S
C51 C50 1.366 . S
C51 H65 0.930 . S
C52 C49 1.378 . S
C52 N53 1.315 . S
C52 H55 0.930 . S
N53 Co33 2.194 . S
N53 C48 1.328 . S
N53 C52 1.315 . S
H54 C48 0.929 . S
H55 C52 0.930 . S
H56 C44 0.929 . S
H57 C46 0.929 . S
O58 Co33 2.351 . S
O58 C61 1.244 . S
O59 Co33 2.155 . S
O59 C61 1.240 . S
O60 Co33 2.096 . S
O60 C41 1.247 . S
C61 O58 1.244 . S
C61 O59 1.240 . S
H62 C36 0.931 . S
H63 C45 0.931 . S
H64 C49 0.929 . S
H65 C51 0.930 . S
Co66 N70 2.148 . S
Co66 N76 2.128 . S
Co66 N86 2.194 . S
Co66 O91 2.351 . S
Co66 O92 2.155 . S
Co66 O93 2.096 . S
C67 N70 1.301 . S
C67 N71 1.328 . S
C67 H72 0.930 . S
C68 C69 1.333 . S
C68 N70 1.317 . S
C68 H73 0.930 . S
C69 C68 1.333 . S
C69 N71 1.350 . S
C69 H95 0.931 . S
N70 Co66 2.148 . S
N70 C67 1.301 . S
N70 C68 1.317 . S
N71 C67 1.328 . S
N71 C69 1.350 . S
H72 C67 0.930 . S
H73 C68 0.930 . S
C74 O75 1.224 . S
C74 O93 1.247 . S
O75 C74 1.224 . S
N76 Co66 2.128 . S
N76 C77 1.355 . S
N76 C79 1.311 . S
C77 N76 1.355 . S
C77 C78 1.363 . S
C77 H89 0.929 . S
C78 C77 1.363 . S
C78 N80 1.375 . S
C78 H96 0.931 . S
C79 N76 1.311 . S
C79 N80 1.347 . S
C79 H90 0.929 . S
N80 C78 1.375 . S
N80 C79 1.347 . S
C81 C84 1.365 . S
C81 N86 1.328 . S
C81 H87 0.929 . S
C82 C83 1.362 . S
C82 C85 1.378 . S
C82 H97 0.929 . S
C83 C82 1.362 . S
C83 C84 1.366 . S
C84 C81 1.365 . S
C84 C83 1.366 . S
C84 H98 0.930 . S
C85 C82 1.378 . S
C85 N86 1.315 . S
C85 H88 0.930 . S
N86 Co66 2.194 . S
N86 C81 1.328 . S
N86 C85 1.315 . S
H87 C81 0.929 . S
H88 C85 0.930 . S
H89 C77 0.929 . S
H90 C79 0.929 . S
O91 Co66 2.351 . S
O91 C94 1.244 . S
O92 Co66 2.155 . S
O92 C94 1.240 . S
O93 Co66 2.096 . S
O93 C74 1.247 . S
C94 O91 1.244 . S
C94 O92 1.240 . S
H95 C69 0.931 . S
H96 C78 0.931 . S
H97 C82 0.929 . S
H98 C84 0.930 . S
Co99 N103 2.148 . S
Co99 N109 2.128 1_554 S
Co99 N119 2.194 . S
Co99 O124 2.351 . S
Co99 O125 2.155 . S
Co99 O126 2.096 . S
C100 N103 1.301 . S
C100 N104 1.328 . S
C100 H105 0.930 . S
C101 C102 1.333 . S
C101 N103 1.317 . S
C101 H106 0.930 . S
C102 C101 1.333 . S
C102 N104 1.350 . S
C102 H128 0.931 . S
N103 Co99 2.148 . S
N103 C100 1.301 . S
N103 C101 1.317 . S
N104 C100 1.328 . S
N104 C102 1.350 . S
H105 C100 0.930 . S
H106 C101 0.930 . S
C107 O108 1.224 . S
C107 O126 1.247 . S
O108 C107 1.224 . S
N109 Co99 2.128 1_556 S
N109 C110 1.355 . S
N109 C112 1.311 . S
C110 N109 1.355 . S
C110 C111 1.363 . S
C110 H122 0.929 . S
C111 C110 1.363 . S
C111 N113 1.375 . S
C111 H129 0.931 . S
C112 N109 1.311 . S
C112 N113 1.347 . S
C112 H123 0.929 . S
N113 C111 1.375 . S
N113 C112 1.347 . S
C114 C117 1.365 . S
C114 N119 1.328 . S
C114 H120 0.929 . S
C115 C116 1.362 . S
C115 C118 1.378 1_556 S
C115 H130 0.929 . S
C116 C115 1.362 . S
C116 C117 1.366 1_556 S
C117 C114 1.365 . S
C117 C116 1.366 1_554 S
C117 H131 0.930 . S
C118 C115 1.378 1_554 S
C118 N119 1.315 . S
C118 H121 0.930 . S
N119 Co99 2.194 . S
N119 C114 1.328 . S
N119 C118 1.315 . S
H120 C114 0.929 . S
H121 C118 0.930 . S
H122 C110 0.929 . S
H123 C112 0.929 . S
O124 Co99 2.351 . S
O124 C127 1.244 . S
O125 Co99 2.155 . S
O125 C127 1.240 . S
O126 Co99 2.096 . S
O126 C107 1.247 . S
C127 O124 1.244 . S
C127 O125 1.240 . S
H128 C102 0.931 . S
H129 C111 0.931 . S
H130 C115 0.929 . S
H131 C117 0.930 . S
Co132 N136 2.148 . S
Co132 N142 2.128 . S
Co132 N152 2.194 . S
Co132 O157 2.351 . S
Co132 O158 2.155 . S
Co132 O159 2.096 . S
C133 N136 1.301 . S
C133 N137 1.328 . S
C133 H138 0.930 . S
C134 C135 1.333 . S
C134 N136 1.317 . S
C134 H139 0.930 . S
C135 C134 1.333 . S
C135 N137 1.350 . S
C135 H161 0.931 . S
N136 Co132 2.148 . S
N136 C133 1.301 . S
N136 C134 1.317 . S
N137 C133 1.328 . S
N137 C135 1.350 . S
H138 C133 0.930 . S
H139 C134 0.930 . S
C140 O141 1.224 . S
C140 O159 1.247 . S
O141 C140 1.224 . S
N142 Co132 2.128 . S
N142 C143 1.355 . S
N142 C145 1.311 . S
C143 N142 1.355 . S
C143 C144 1.363 . S
C143 H155 0.929 . S
C144 C143 1.363 . S
C144 N146 1.375 . S
C144 H162 0.931 . S
C145 N142 1.311 . S
C145 N146 1.347 . S
C145 H156 0.929 . S
N146 C144 1.375 . S
N146 C145 1.347 . S
C147 C150 1.365 . S
C147 N152 1.328 . S
C147 H153 0.929 . S
C148 C149 1.362 . S
C148 C151 1.378 . S
C148 H163 0.929 . S
C149 C148 1.362 . S
C149 C150 1.366 . S
C150 C147 1.365 . S
C150 C149 1.366 . S
C150 H164 0.930 . S
C151 C148 1.378 . S
C151 N152 1.315 . S
C151 H154 0.930 . S
N152 Co132 2.194 . S
N152 C147 1.328 . S
N152 C151 1.315 . S
H153 C147 0.929 . S
H154 C151 0.930 . S
H155 C143 0.929 . S
H156 C145 0.929 . S
O157 Co132 2.351 . S
O157 C160 1.244 . S
O158 Co132 2.155 . S
O158 C160 1.240 . S
O159 Co132 2.096 . S
O159 C140 1.247 . S
C160 O157 1.244 . S
C160 O158 1.240 . S
H161 C135 0.931 . S
H162 C144 0.931 . S
H163 C148 0.929 . S
H164 C150 0.930 . S
Co165 N169 2.148 . S
Co165 N175 2.128 . S
Co165 N185 2.194 . S
Co165 O190 2.351 . S
Co165 O191 2.155 . S
Co165 O192 2.096 . S
C166 N169 1.301 . S
C166 N170 1.328 . S
C166 H171 0.930 . S
C167 C168 1.333 . S
C167 N169 1.317 . S
C167 H172 0.930 . S
C168 C167 1.333 . S
C168 N170 1.350 . S
C168 H194 0.931 . S
N169 Co165 2.148 . S
N169 C166 1.301 . S
N169 C167 1.317 . S
N170 C166 1.328 . S
N170 C168 1.350 . S
H171 C166 0.930 . S
H172 C167 0.930 . S
C173 O174 1.224 . S
C173 O192 1.247 . S
O174 C173 1.224 . S
N175 Co165 2.128 . S
N175 C176 1.355 . S
N175 C178 1.311 . S
C176 N175 1.355 . S
C176 C177 1.363 . S
C176 H188 0.929 . S
C177 C176 1.363 . S
C177 N179 1.375 . S
C177 H195 0.931 . S
C178 N175 1.311 . S
C178 N179 1.347 . S
C178 H189 0.929 . S
N179 C177 1.375 . S
N179 C178 1.347 . S
C180 C183 1.365 . S
C180 N185 1.328 . S
C180 H186 0.929 . S
C181 C182 1.362 . S
C181 C184 1.378 . S
C181 H196 0.929 . S
C182 C181 1.362 . S
C182 C183 1.366 . S
C183 C180 1.365 . S
C183 C182 1.366 . S
C183 H197 0.930 . S
C184 C181 1.378 . S
C184 N185 1.315 . S
C184 H187 0.930 . S
N185 Co165 2.194 . S
N185 C180 1.328 . S
N185 C184 1.315 . S
H186 C180 0.929 . S
H187 C184 0.930 . S
H188 C176 0.929 . S
H189 C178 0.929 . S
O190 Co165 2.351 . S
O190 C193 1.244 . S
O191 Co165 2.155 . S
O191 C193 1.240 . S
O192 Co165 2.096 . S
O192 C173 1.247 . S
C193 O190 1.244 . S
C193 O191 1.240 . S
H194 C168 0.931 . S
H195 C177 0.931 . S
H196 C181 0.929 . S
H197 C183 0.930 . S
C198 C199 1.391 . S
C198 C200 1.394 . S
C198 H214 0.931 . S
C199 C198 1.391 . S
C199 C203 1.376 . S
C200 C198 1.394 . S
C200 C201 1.369 . S
C200 C204 1.531 . S
C201 C200 1.369 . S
C201 C202 1.399 1_554 S
C201 C209 1.503 . S
C202 C201 1.399 1_556 S
C202 C203 1.390 1_556 S
C202 C205 1.526 . S
C203 C199 1.376 . S
C203 C202 1.390 1_554 S
C203 H215 0.929 1_554 S
C204 C200 1.531 . S
C204 H216 0.960 . S
C204 H217 0.962 . S
C204 H218 0.960 . S
C205 C202 1.526 . S
C205 H219 0.961 . S
C205 H220 0.961 . S
C205 H221 0.961 . S
C206 C207 1.370 . S
C206 C208 1.363 . S
C206 H222 0.931 . S
C207 C206 1.370 . S
C207 C211 1.408 1_554 S
C208 C206 1.363 . S
C208 C209 1.370 . S
C208 C212 1.524 . S
C209 C201 1.503 . S
C209 C208 1.370 . S
C209 C210 1.403 1_554 S
C210 C209 1.403 1_556 S
C210 C211 1.404 . S
C210 C213 1.539 . S
C211 C207 1.408 1_556 S
C211 C210 1.404 . S
C211 H223 0.930 . S
C212 C208 1.524 . S
C212 H224 0.956 . S
C212 H225 0.961 . S
C212 H226 0.961 . S
C213 C210 1.539 . S
C213 H227 0.958 . S
C213 H228 0.961 . S
C213 H229 0.960 . S
H214 C198 0.931 . S
H215 C203 0.929 1_556 S
H216 C204 0.960 . S
H217 C204 0.962 . S
H218 C204 0.960 . S
H219 C205 0.961 . S
H220 C205 0.961 . S
H221 C205 0.961 . S
H222 C206 0.931 . S
H223 C211 0.930 . S
H224 C212 0.956 . S
H225 C212 0.961 . S
H226 C212 0.961 . S
H227 C213 0.958 . S
H228 C213 0.961 . S
H229 C213 0.960 . S
C230 C231 1.391 1_455 S
C230 C232 1.394 . S
C230 H246 0.931 . S
C231 C230 1.391 1_655 S
C231 C235 1.376 . S
C232 C230 1.394 . S
C232 C233 1.369 1_455 S
C232 C236 1.531 . S
C233 C232 1.369 1_655 S
C233 C234 1.410 . S
C233 C241 1.503 1_655 S
C234 C233 1.410 . S
C234 C235 1.392 . S
C234 C237 1.511 . S
C235 C231 1.376 . S
C235 C234 1.392 . S
C235 H247 0.929 . S
C236 C232 1.531 . S
C236 H248 0.960 . S
C236 H249 0.962 . S
C236 H250 0.960 . S
C237 C234 1.511 . S
C237 H251 0.961 . S
C237 H252 0.961 . S
C237 H253 0.961 . S
C238 C239 1.370 . S
C238 C240 1.363 . S
C238 H254 0.931 . S
C239 C238 1.370 . S
C239 C243 1.408 . S
C240 C238 1.363 . S
C240 C241 1.370 . S
C240 C244 1.524 . S
C241 C233 1.503 1_455 S
C241 C240 1.370 . S
C241 C242 1.403 . S
C242 C241 1.403 . S
C242 C243 1.404 . S
C242 C245 1.539 1_455 S
C243 C239 1.408 . S
C243 C242 1.404 . S
C243 H255 0.930 . S
C244 C240 1.524 . S
C244 H256 0.956 . S
C244 H257 0.975 . S
C244 H258 0.961 . S
C245 C242 1.539 1_655 S
C245 H259 0.961 . S
C245 H260 0.961 . S
C245 H261 0.960 . S
H246 C230 0.931 . S
H247 C235 0.929 . S
H248 C236 0.960 . S
H249 C236 0.962 . S
H250 C236 0.960 . S
H251 C237 0.961 . S
H252 C237 0.961 . S
H253 C237 0.961 . S
H254 C238 0.931 . S
H255 C243 0.930 . S
H256 C244 0.956 . S
H257 C244 0.975 . S
H258 C244 0.961 . S
H259 C245 0.961 . S
H260 C245 0.961 . S
H261 C245 0.960 . S
C262 C263 1.391 1_565 S
C262 C264 1.394 . S
C262 H278 0.931 . S
C263 C262 1.391 1_545 S
C263 C267 1.376 . S
C264 C262 1.394 . S
C264 C265 1.369 1_565 S
C264 C268 1.531 . S
C265 C264 1.369 1_545 S
C265 C266 1.410 . S
C265 C273 1.503 1_545 S
C266 C265 1.410 . S
C266 C267 1.392 . S
C266 C269 1.511 . S
C267 C263 1.376 . S
C267 C266 1.392 . S
C267 H279 0.929 . S
C268 C264 1.531 . S
C268 H280 0.960 . S
C268 H281 0.962 . S
C268 H282 0.960 . S
C269 C266 1.511 . S
C269 H283 0.961 . S
C269 H284 0.961 . S
C269 H285 0.961 . S
C270 C271 1.370 . S
C270 C272 1.363 . S
C270 H286 0.931 . S
C271 C270 1.370 . S
C271 C275 1.408 . S
C272 C270 1.363 . S
C272 C273 1.370 . S
C272 C276 1.524 . S
C273 C265 1.503 1_565 S
C273 C272 1.370 . S
C273 C274 1.403 . S
C274 C273 1.403 . S
C274 C275 1.404 . S
C274 C277 1.539 1_565 S
C275 C271 1.408 . S
C275 C274 1.404 . S
C275 H287 0.930 . S
C276 C272 1.524 . S
C276 H288 0.956 . S
C276 H289 0.940 1_565 S
C276 H290 0.961 . S
C277 C274 1.539 1_545 S
C277 H291 0.958 1_545 S
C277 H292 0.961 . S
C277 H293 0.960 . S
H278 C262 0.931 . S
H279 C267 0.929 . S
H280 C268 0.960 . S
H281 C268 0.962 . S
H282 C268 0.960 . S
H283 C269 0.961 . S
H284 C269 0.961 . S
H285 C269 0.961 . S
H286 C270 0.931 . S
H287 C275 0.930 . S
H288 C276 0.956 . S
H289 C276 0.940 1_545 S
H290 C276 0.961 . S
H291 C277 0.958 1_565 S
H292 C277 0.961 . S
H293 C277 0.960 . S
C294 C295 1.391 . S
C294 C296 1.394 . S
C294 H310 0.931 . S
C295 C294 1.391 . S
C295 C299 1.376 . S
C296 C294 1.394 . S
C296 C297 1.369 . S
C296 C300 1.531 . S
C297 C296 1.369 . S
C297 C298 1.410 . S
C297 C305 1.503 . S
C298 C297 1.410 . S
C298 C299 1.392 . S
C298 C301 1.511 . S
C299 C295 1.376 . S
C299 C298 1.392 . S
C299 H311 0.929 . S
C300 C296 1.531 . S
C300 H312 0.960 . S
C300 H313 0.962 . S
C300 H314 0.960 . S
C301 C298 1.511 . S
C301 H315 0.961 . S
C301 H316 0.961 . S
C301 H317 0.961 . S
C302 C303 1.370 . S
C302 C304 1.363 . S
C302 H318 0.931 . S
C303 C302 1.370 . S
C303 C307 1.408 . S
C304 C302 1.363 . S
C304 C305 1.370 . S
C304 C308 1.524 . S
C305 C297 1.503 . S
C305 C304 1.370 . S
C305 C306 1.403 . S
C306 C305 1.403 . S
C306 C307 1.404 . S
C306 C309 1.539 . S
C307 C303 1.408 . S
C307 C306 1.404 . S
C307 H319 0.930 . S
C308 C304 1.524 . S
C308 H320 0.956 . S
C308 H321 0.961 . S
C308 H322 0.961 . S
C309 C306 1.539 . S
C309 H323 0.958 . S
C309 H324 0.961 . S
C309 H325 0.960 . S
H310 C294 0.931 . S
H311 C299 0.929 . S
H312 C300 0.960 . S
H313 C300 0.962 . S
H314 C300 0.960 . S
H315 C301 0.961 . S
H316 C301 0.961 . S
H317 C301 0.961 . S
H318 C302 0.931 . S
H319 C307 0.930 . S
H320 C308 0.956 . S
H321 C308 0.961 . S
H322 C308 0.961 . S
H323 C309 0.958 . S
H324 C309 0.961 . S
H325 C309 0.960 . S
C326 C327 1.391 1_554 S
C326 C328 1.394 1_655 S
C326 H342 0.931 . S
C327 C326 1.391 1_556 S
C327 C331 1.376 . S
C328 C326 1.394 1_455 S
C328 C329 1.369 1_454 S
C328 C332 1.531 . S
C329 C328 1.369 1_656 S
C329 C330 1.410 . S
C329 C337 1.503 1_655 S
C330 C329 1.410 . S
C330 C331 1.392 . S
C330 C333 1.511 . S
C331 C327 1.376 . S
C331 C330 1.392 . S
C331 H343 0.929 . S
C332 C328 1.531 . S
C332 H344 0.960 . S
C332 H345 0.962 . S
C332 H346 0.960 . S
C333 C330 1.511 . S
C333 H347 0.961 . S
C333 H348 0.961 . S
C333 H349 0.961 . S
C334 C335 1.370 . S
C334 C336 1.363 . S
C334 H350 0.931 . S
C335 C334 1.370 . S
C335 C339 1.408 1_556 S
C336 C334 1.363 . S
C336 C337 1.370 . S
C336 C340 1.524 . S
C337 C329 1.503 1_455 S
C337 C336 1.370 . S
C337 C338 1.403 1_456 S
C338 C337 1.403 1_654 S
C338 C339 1.404 1_655 S
C338 C341 1.539 . S
C339 C335 1.408 1_554 S
C339 C338 1.404 1_455 S
C339 H351 0.930 . S
C340 C336 1.524 . S
C340 H352 0.956 . S
C340 H353 0.961 . S
C340 H354 0.961 . S
C341 C338 1.539 . S
C341 H355 0.958 . S
C341 H356 0.961 . S
C341 H357 0.960 . S
H342 C326 0.931 . S
H343 C331 0.929 . S
H344 C332 0.960 . S
H345 C332 0.962 . S
H346 C332 0.960 . S
H347 C333 0.961 . S
H348 C333 0.961 . S
H349 C333 0.961 . S
H350 C334 0.931 . S
H351 C339 0.930 . S
H352 C340 0.956 . S
H353 C340 0.961 . S
H354 C340 0.961 . S
H355 C341 0.958 . S
H356 C341 0.961 . S
H357 C341 0.960 . S
C358 C359 1.404 . S
C358 C360 1.396 1_565 S
C358 H374 0.916 1_565 S
C359 C358 1.404 . S
C359 C363 1.376 . S
C360 C358 1.396 1_545 S
C360 C361 1.369 1_545 S
C360 C364 1.531 . S
C361 C360 1.369 1_565 S
C361 C362 1.410 . S
C361 C369 1.503 1_565 S
C362 C361 1.410 . S
C362 C363 1.392 . S
C362 C365 1.511 . S
C363 C359 1.376 . S
C363 C362 1.392 . S
C363 H375 0.929 . S
C364 C360 1.531 . S
C364 H376 0.960 . S
C364 H377 0.962 . S
C364 H378 0.960 . S
C365 C362 1.511 . S
C365 H379 0.961 . S
C365 H380 0.961 . S
C365 H381 0.961 . S
C366 C367 1.370 . S
C366 C368 1.363 . S
C366 H382 0.931 . S
C367 C366 1.370 . S
C367 C371 1.408 . S
C368 C366 1.363 . S
C368 C369 1.370 . S
C368 C372 1.524 . S
C369 C361 1.503 1_545 S
C369 C368 1.370 . S
C369 C370 1.403 . S
C370 C369 1.403 . S
C370 C371 1.404 . S
C370 C373 1.539 . S
C371 C367 1.408 . S
C371 C370 1.404 . S
C371 H383 0.930 . S
C372 C368 1.524 . S
C372 H384 0.956 . S
C372 H385 0.961 1_545 S
C372 H386 0.961 . S
C373 C370 1.539 . S
C373 H387 0.958 . S
C373 H388 0.961 1_545 S
C373 H389 0.960 1_545 S
H374 C358 0.916 1_545 S
H375 C363 0.929 . S
H376 C364 0.960 . S
H377 C364 0.962 . S
H378 C364 0.960 . S
H379 C365 0.961 . S
H380 C365 0.961 . S
H381 C365 0.961 . S
H382 C366 0.931 . S
H383 C371 0.930 . S
H384 C372 0.956 . S
H385 C372 0.961 1_565 S
H386 C372 0.961 . S
H387 C373 0.958 . S
H388 C373 0.961 1_565 S
H389 C373 0.960 1_565 S
C390 C391 1.391 . S
C390 C392 1.394 1_455 S
C390 H406 0.932 . S
C391 C390 1.391 . S
C391 C395 1.376 . S
C392 C390 1.394 1_655 S
C392 C393 1.369 1_655 S
C392 C396 1.531 . S
C393 C392 1.369 1_455 S
C393 C394 1.410 . S
C393 C401 1.503 1_445 S
C394 C393 1.410 . S
C394 C395 1.392 . S
C394 C397 1.511 . S
C395 C391 1.376 . S
C395 C394 1.392 . S
C395 H407 0.929 . S
C396 C392 1.531 . S
C396 H408 0.960 1_545 S
C396 H409 0.962 . S
C396 H410 0.960 . S
C397 C394 1.511 . S
C397 H411 0.961 . S
C397 H412 0.961 1_545 S
C397 H413 0.961 1_554 S
C398 C399 1.370 . S
C398 C400 1.363 . S
C398 H414 0.931 . S
C399 C398 1.370 . S
C399 C403 1.408 1_554 S
C400 C398 1.363 . S
C400 C401 1.370 . S
C400 C404 1.524 . S
C401 C393 1.503 1_665 S
C401 C400 1.370 . S
C401 C402 1.403 1_554 S
C402 C401 1.403 1_556 S
C402 C403 1.404 . S
C402 C405 1.539 . S
C403 C399 1.408 1_556 S
C403 C402 1.404 . S
C403 H415 0.930 . S
C404 C400 1.524 . S
C404 H416 0.956 . S
C404 H417 0.961 1_665 S
C404 H418 0.961 . S
C405 C402 1.539 . S
C405 H419 0.958 . S
C405 H420 0.961 . S
C405 H421 0.960 1_655 S
H406 C390 0.932 . S
H407 C395 0.929 . S
H408 C396 0.960 1_565 S
H409 C396 0.962 . S
H410 C396 0.960 . S
H411 C397 0.961 . S
H412 C397 0.961 1_565 S
H413 C397 0.961 1_556 S
H414 C398 0.931 . S
H415 C403 0.930 . S
H416 C404 0.956 . S
H417 C404 0.961 1_445 S
H418 C404 0.961 . S
H419 C405 0.958 . S
H420 C405 0.961 . S
H421 C405 0.960 1_455 S
C422 C423 1.391 . S
C422 C424 1.394 1_455 S
C422 H438 0.931 1_455 S
C423 C422 1.391 . S
C423 C427 1.376 . S
C424 C422 1.394 1_655 S
C424 C425 1.369 1_655 S
C424 C428 1.531 . S
C425 C424 1.369 1_455 S
C425 C426 1.410 1_565 S
C425 C433 1.503 1_465 S
C426 C425 1.410 1_545 S
C426 C427 1.392 1_545 S
C426 C429 1.511 . S
C427 C423 1.376 . S
C427 C426 1.392 1_565 S
C427 H439 0.929 . S
C428 C424 1.531 . S
C428 H440 0.960 . S
C428 H441 0.962 . S
C428 H442 0.960 . S
C429 C426 1.511 . S
C429 H443 0.961 . S
C429 H444 0.961 . S
C429 H445 0.961 . S
C430 C431 1.370 . S
C430 C432 1.363 . S
C430 H446 0.931 . S
C431 C430 1.370 . S
C431 C435 1.408 . S
C432 C430 1.363 . S
C432 C433 1.370 . S
C432 C436 1.512 1_655 S
C433 C425 1.503 1_645 S
C433 C432 1.370 . S
C433 C434 1.403 . S
C434 C433 1.403 . S
C434 C435 1.404 . S
C434 C437 1.539 . S
C435 C431 1.408 . S
C435 C434 1.404 . S
C435 H447 0.930 . S
C436 C432 1.512 1_455 S
C436 H448 0.956 1_445 S
C436 H449 0.984 . S
C436 H450 0.951 1_455 S
C437 C434 1.539 . S
C437 H451 0.958 1_545 S
C437 H452 0.961 . S
C437 H453 0.960 1_655 S
H438 C422 0.931 1_655 S
H439 C427 0.929 . S
H440 C428 0.960 . S
H441 C428 0.962 . S
H442 C428 0.960 . S
H443 C429 0.961 . S
H444 C429 0.961 . S
H445 C429 0.961 . S
H446 C430 0.931 . S
H447 C435 0.930 . S
H448 C436 0.956 1_665 S
H449 C436 0.984 . S
H450 C436 0.951 1_655 S
H451 C437 0.958 1_565 S
H452 C437 0.961 . S
H453 C437 0.960 1_455 S
C454 C455 1.391 . S
C454 C456 1.394 . S
C454 H470 0.931 . S
C455 C454 1.391 . S
C455 C459 1.376 . S
C456 C454 1.394 . S
C456 C457 1.369 . S
C456 C460 1.531 1_545 S
C457 C456 1.369 . S
C457 C458 1.410 . S
C457 C465 1.503 1_445 S
C458 C457 1.410 . S
C458 C459 1.392 . S
C458 C461 1.511 . S
C459 C455 1.376 . S
C459 C458 1.392 . S
C459 H471 0.929 . S
C460 C456 1.531 1_565 S
C460 H472 0.960 1_455 S
C460 H473 0.962 . S
C460 H474 0.960 . S
C461 C458 1.511 . S
C461 H475 0.961 . S
C461 H476 0.961 1_455 S
C461 H477 0.961 . S
C462 C463 1.370 . S
C462 C464 1.363 . S
C462 H478 0.931 . S
C463 C462 1.370 . S
C463 C467 1.408 . S
C464 C462 1.363 . S
C464 C465 1.370 . S
C464 C468 1.524 . S
C465 C457 1.503 1_665 S
C465 C464 1.370 . S
C465 C466 1.403 1_565 S
C466 C465 1.403 1_545 S
C466 C467 1.404 1_545 S
C466 C469 1.539 . S
C467 C463 1.408 . S
C467 C466 1.404 1_565 S
C467 H479 0.930 . S
C468 C464 1.524 . S
C468 H480 0.956 . S
C468 H481 0.961 1_655 S
C468 H482 0.961 . S
C469 C466 1.539 . S
C469 H483 0.958 . S
C469 H484 0.961 . S
C469 H485 0.960 1_655 S
H470 C454 0.931 . S
H471 C459 0.929 . S
H472 C460 0.960 1_655 S
H473 C460 0.962 . S
H474 C460 0.960 . S
H475 C461 0.961 . S
H476 C461 0.961 1_655 S
H477 C461 0.961 . S
H478 C462 0.931 . S
H479 C467 0.930 . S
H480 C468 0.956 . S
H481 C468 0.961 1_455 S
H482 C468 0.961 . S
H483 C469 0.958 . S
H484 C469 0.961 . S
H485 C469 0.960 1_455 S
C486 C487 1.391 . S
C486 C488 1.394 . S
C486 H502 0.931 . S
C487 C486 1.391 . S
C487 C491 1.376 . S
C488 C486 1.394 . S
C488 C489 1.369 . S
C488 C492 1.531 . S
C489 C488 1.369 . S
C489 C490 1.410 . S
C489 C497 1.503 . S
C490 C489 1.410 . S
C490 C491 1.392 . S
C490 C493 1.511 . S
C491 C487 1.376 . S
C491 C490 1.392 . S
C491 H503 0.929 . S
C492 C488 1.531 . S
C492 H504 0.960 . S
C492 H505 0.962 . S
C492 H506 0.960 . S
C493 C490 1.511 . S
C493 H507 0.961 . S
C493 H508 0.961 . S
C493 H509 0.961 . S
C494 C495 1.370 . S
C494 C496 1.363 . S
C494 H510 0.931 . S
C495 C494 1.370 . S
C495 C499 1.408 . S
C496 C494 1.363 . S
C496 C497 1.370 . S
C496 C500 1.524 . S
C497 C489 1.503 . S
C497 C496 1.370 . S
C497 C498 1.403 . S
C498 C497 1.403 . S
C498 C499 1.404 . S
C498 C501 1.539 . S
C499 C495 1.408 . S
C499 C498 1.404 . S
C499 H511 0.930 . S
C500 C496 1.524 . S
C500 H512 0.956 . S
C500 H513 0.961 . S
C500 H514 0.961 . S
C501 C498 1.539 . S
C501 H515 0.958 . S
C501 H516 0.961 . S
C501 H517 0.960 . S
H502 C486 0.931 . S
H503 C491 0.929 . S
H504 C492 0.960 . S
H505 C492 0.962 . S
H506 C492 0.960 . S
H507 C493 0.961 . S
H508 C493 0.961 . S
H509 C493 0.961 . S
H510 C494 0.931 . S
H511 C499 0.930 . S
H512 C500 0.956 . S
H513 C500 0.961 . S
H514 C500 0.961 . S
H515 C501 0.958 . S
H516 C501 0.961 . S
H517 C501 0.960 . S
C518 C519 1.391 . S
C518 C520 1.394 . S
C518 H534 0.931 . S
C519 C518 1.391 . S
C519 C523 1.376 . S
C520 C518 1.394 . S
C520 C521 1.369 . S
C520 C524 1.531 1_455 S
C521 C520 1.369 . S
C521 C522 1.410 . S
C521 C529 1.503 1_455 S
C522 C521 1.410 . S
C522 C523 1.392 . S
C522 C525 1.511 . S
C523 C519 1.376 . S
C523 C522 1.392 . S
C523 H535 0.929 . S
C524 C520 1.531 1_655 S
C524 H536 0.960 . S
C524 H537 0.962 . S
C524 H538 0.960 . S
C525 C522 1.511 . S
C525 H539 0.961 . S
C525 H540 0.961 . S
C525 H541 0.961 . S
C526 C527 1.370 . S
C526 C528 1.363 . S
C526 H542 0.931 . S
C527 C526 1.370 . S
C527 C531 1.408 . S
C528 C526 1.363 . S
C528 C529 1.370 . S
C528 C532 1.524 . S
C529 C521 1.503 1_655 S
C529 C528 1.370 . S
C529 C530 1.403 1_655 S
C530 C529 1.403 1_455 S
C530 C531 1.404 1_455 S
C530 C533 1.539 . S
C531 C527 1.408 . S
C531 C530 1.404 1_655 S
C531 H543 0.930 . S
C532 C528 1.524 . S
C532 H544 0.956 . S
C532 H545 0.961 . S
C532 H546 0.961 . S
C533 C530 1.539 . S
C533 H547 0.958 . S
C533 H548 0.961 . S
C533 H549 0.960 . S
H534 C518 0.931 . S
H535 C523 0.929 . S
H536 C524 0.960 . S
H537 C524 0.962 . S
H538 C524 0.960 . S
H539 C525 0.961 . S
H540 C525 0.961 . S
H541 C525 0.961 . S
H542 C526 0.931 . S
H543 C531 0.930 . S
H544 C532 0.956 . S
H545 C532 0.961 . S
H546 C532 0.961 . S
H547 C533 0.958 . S
H548 C533 0.961 . S
H549 C533 0.960 . S
C550 C551 1.391 . S
C550 C552 1.394 . S
C550 H566 0.931 . S
C551 C550 1.391 . S
C551 C555 1.376 . S
C552 C550 1.394 . S
C552 C553 1.369 . S
C552 C556 1.531 1_545 S
C553 C552 1.369 . S
C553 C554 1.410 . S
C553 C561 1.503 1_545 S
C554 C553 1.410 . S
C554 C555 1.392 . S
C554 C557 1.511 . S
C555 C551 1.376 . S
C555 C554 1.392 . S
C555 H567 0.929 . S
C556 C552 1.531 1_565 S
C556 H568 0.960 . S
C556 H569 0.962 . S
C556 H570 0.960 . S
C557 C554 1.511 . S
C557 H571 0.961 . S
C557 H572 0.961 . S
C557 H573 0.961 . S
C558 C559 1.370 . S
C558 C560 1.363 1_565 S
C558 H574 0.941 . S
C559 C558 1.370 . S
C559 C563 1.408 . S
C560 C558 1.363 1_545 S
C560 C561 1.370 1_545 S
C560 C564 1.524 . S
C561 C553 1.503 1_565 S
C561 C560 1.370 1_565 S
C561 C562 1.403 . S
C562 C561 1.403 . S
C562 C563 1.404 . S
C562 C565 1.539 . S
C563 C559 1.408 . S
C563 C562 1.404 . S
C563 H575 0.930 . S
C564 C560 1.524 . S
C564 H576 0.956 . S
C564 H577 0.961 . S
C564 H578 0.961 . S
C565 C562 1.539 . S
C565 H579 0.958 . S
C565 H580 0.961 . S
C565 H581 0.960 . S
H566 C550 0.931 . S
H567 C555 0.929 . S
H568 C556 0.960 . S
H569 C556 0.962 . S
H570 C556 0.960 . S
H571 C557 0.961 . S
H572 C557 0.961 . S
H573 C557 0.961 . S
H574 C558 0.941 . S
H575 C563 0.930 . S
H576 C564 0.956 . S
H577 C564 0.961 . S
H578 C564 0.961 . S
H579 C565 0.958 . S
H580 C565 0.961 . S
H581 C565 0.960 . S
C582 C583 1.391 . S
C582 C584 1.394 . S
C582 H598 0.931 . S
C583 C582 1.391 . S
C583 C587 1.376 . S
C584 C582 1.394 . S
C584 C585 1.369 . S
C584 C588 1.531 . S
C585 C584 1.369 . S
C585 C586 1.410 . S
C585 C593 1.503 . S
C586 C585 1.410 . S
C586 C587 1.392 . S
C586 C589 1.511 . S
C587 C583 1.376 . S
C587 C586 1.392 . S
C587 H599 0.929 . S
C588 C584 1.531 . S
C588 H600 0.960 . S
C588 H601 0.962 . S
C588 H602 0.960 . S
C589 C586 1.511 . S
C589 H603 0.961 . S
C589 H604 0.961 . S
C589 H605 0.961 . S
C590 C591 1.370 . S
C590 C592 1.363 . S
C590 H606 0.931 . S
C591 C590 1.370 . S
C591 C595 1.408 . S
C592 C590 1.363 . S
C592 C593 1.370 . S
C592 C596 1.524 . S
C593 C585 1.503 . S
C593 C592 1.370 . S
C593 C594 1.403 . S
C594 C593 1.403 . S
C594 C595 1.404 . S
C594 C597 1.539 . S
C595 C591 1.408 . S
C595 C594 1.404 . S
C595 H607 0.930 . S
C596 C592 1.524 . S
C596 H608 0.956 . S
C596 H609 0.961 . S
C596 H610 0.961 . S
C597 C594 1.539 . S
C597 H611 0.958 . S
C597 H612 0.961 . S
C597 H613 0.960 . S
H598 C582 0.931 . S
H599 C587 0.929 . S
H600 C588 0.960 . S
H601 C588 0.962 . S
H602 C588 0.960 . S
H603 C589 0.961 . S
H604 C589 0.961 . S
H605 C589 0.961 . S
H606 C590 0.931 . S
H607 C595 0.930 . S
H608 C596 0.956 . S
H609 C596 0.961 . S
H610 C596 0.961 . S
H611 C597 0.958 . S
H612 C597 0.961 . S
H613 C597 0.960 . S
C614 C615 1.391 . S
C614 C616 1.394 . S
C614 H630 0.931 . S
C615 C614 1.391 . S
C615 C619 1.376 . S
C616 C614 1.394 . S
C616 C617 1.369 . S
C616 C620 1.531 . S
C617 C616 1.369 . S
C617 C618 1.410 . S
C617 C625 1.503 1_655 S
C618 C617 1.410 . S
C618 C619 1.392 . S
C618 C621 1.511 1_655 S
C619 C615 1.376 . S
C619 C618 1.392 . S
C619 H631 0.929 . S
C620 C616 1.531 . S
C620 H632 0.960 . S
C620 H633 0.962 . S
C620 H634 0.960 . S
C621 C618 1.511 1_455 S
C621 H635 0.961 . S
C621 H636 0.961 . S
C621 H637 0.961 . S
C622 C623 1.370 . S
C622 C624 1.363 . S
C622 H638 0.931 . S
C623 C622 1.370 . S
C623 C627 1.408 . S
C624 C622 1.363 . S
C624 C625 1.370 . S
C624 C628 1.524 . S
C625 C617 1.503 1_455 S
C625 C624 1.370 . S
C625 C626 1.403 . S
C626 C625 1.403 . S
C626 C627 1.404 . S
C626 C629 1.539 1_455 S
C627 C623 1.408 . S
C627 C626 1.404 . S
C627 H639 0.930 . S
C628 C624 1.524 . S
C628 H640 0.956 1_455 S
C628 H641 0.961 . S
C628 H642 0.961 . S
C629 C626 1.539 1_655 S
C629 H643 0.958 . S
C629 H644 0.961 1_655 S
C629 H645 0.960 . S
H630 C614 0.931 . S
H631 C619 0.929 . S
H632 C620 0.960 . S
H633 C620 0.962 . S
H634 C620 0.960 . S
H635 C621 0.961 . S
H636 C621 0.961 . S
H637 C621 0.961 . S
H638 C622 0.931 . S
H639 C627 0.930 . S
H640 C628 0.956 1_655 S
H641 C628 0.961 . S
H642 C628 0.961 . S
H643 C629 0.958 . S
H644 C629 0.961 1_455 S
H645 C629 0.960 . S
C646 C647 1.391 . S
C646 C648 1.394 . S
C646 H662 0.931 . S
C647 C646 1.391 . S
C647 C651 1.376 . S
C648 C646 1.394 . S
C648 C649 1.369 1_545 S
C648 C652 1.531 1_545 S
C649 C648 1.369 1_565 S
C649 C650 1.410 1_565 S
C649 C657 1.503 . S
C650 C649 1.410 1_545 S
C650 C651 1.392 . S
C650 C653 1.515 1_545 S
C651 C647 1.376 . S
C651 C650 1.392 . S
C651 H663 0.929 . S
C652 C648 1.531 1_565 S
C652 H664 0.960 . S
C652 H665 0.962 1_565 S
C652 H666 0.960 . S
C653 C650 1.515 1_565 S
C653 H667 0.947 1_565 S
C653 H668 0.962 . S
C653 H669 0.969 . S
C654 C655 1.370 . S
C654 C656 1.363 . S
C654 H670 0.931 . S
C655 C654 1.370 . S
C655 C659 1.408 . S
C656 C654 1.363 . S
C656 C657 1.370 . S
C656 C660 1.524 1_565 S
C657 C649 1.503 . S
C657 C656 1.370 . S
C657 C658 1.403 . S
C658 C657 1.403 . S
C658 C659 1.404 . S
C658 C661 1.539 . S
C659 C655 1.408 . S
C659 C658 1.404 . S
C659 H671 0.930 . S
C660 C656 1.524 1_545 S
C660 H672 0.956 . S
C660 H673 0.961 . S
C660 H674 0.961 . S
C661 C658 1.539 . S
C661 H675 0.958 . S
C661 H676 0.961 . S
C661 H677 0.960 . S
H662 C646 0.931 . S
H663 C651 0.929 . S
H664 C652 0.960 . S
H665 C652 0.962 1_545 S
H666 C652 0.960 . S
H667 C653 0.947 1_545 S
H668 C653 0.962 . S
H669 C653 0.969 . S
H670 C654 0.931 . S
H671 C659 0.930 . S
H672 C660 0.956 . S
H673 C660 0.961 . S
H674 C660 0.961 . S
H675 C661 0.958 . S
H676 C661 0.961 . S
H677 C661 0.960 . S
C199 C8 1.911 . S
C207 C107 1.914 . S
C231 C41 1.904 . S
C239 C140 1.917 . S
C263 C173 1.904 . S
C271 C74 1.917 . S
C295 C83 0.701 . S
C303 C182 0.722 . S
C327 C116 0.705 . S
C335 C17 0.727 . S
C359 C149 0.701 . S
C367 C50 0.720 . S
C391 C28 0.734 . S
C399 C127 0.743 . S
C423 C160 0.762 . S
C431 C61 0.755 . S
C455 C193 0.765 . S
C463 C94 0.748 . S
C487 N14 1.649 . S
C495 N170 1.778 . S
C519 N5 1.772 . S
C527 N47 1.667 . S
C551 N38 1.778 . S
C559 N80 1.670 . S
C583 N71 1.777 . S
C591 N113 1.665 . S
C615 N104 1.765 . S
C623 N146 1.693 . S
C647 N179 1.670 . S
C655 N137 1.773 . S
