# Generated by pormake.
# Topology ecs, (8)-cn, num edge types: 1
# Building blocks:
#     Node 0, Type 0, BuildingBlock: TAGTUT_clean_sbu_3, # of connection points: 8
#     Node 1, Type 0, BuildingBlock: TAGTUT_clean_sbu_3, # of connection points: 8
#     Node 2, Type 0, BuildingBlock: TAGTUT_clean_sbu_3, # of connection points: 8
#     Node 3, Type 0, BuildingBlock: TAGTUT_clean_sbu_3, # of connection points: 8
#     Node 4, Type 0, BuildingBlock: TAGTUT_clean_sbu_3, # of connection points: 8
#     Node 5, Type 0, BuildingBlock: TAGTUT_clean_sbu_3, # of connection points: 8
#     Node 6, Type 0, BuildingBlock: TAGTUT_clean_sbu_3, # of connection points: 8
#     Node 7, Type 0, BuildingBlock: TAGTUT_clean_sbu_3, # of connection points: 8
#     Node 8, Type 0, BuildingBlock: TAGTUT_clean_sbu_3, # of connection points: 8
#     Node 9, Type 0, BuildingBlock: TAGTUT_clean_sbu_3, # of connection points: 8
#     Node 10, Type 0, BuildingBlock: TAGTUT_clean_sbu_3, # of connection points: 8
#     Node 11, Type 0, BuildingBlock: TAGTUT_clean_sbu_3, # of connection points: 8
#     Edge 12, Type (0, 0), BuildingBlock: UVAHIK_clean_linker_0, # of connection points: 2
#     Edge 13, Type (0, 0), BuildingBlock: UVAHIK_clean_linker_0, # of connection points: 2
#     Edge 14, Type (0, 0), BuildingBlock: UVAHIK_clean_linker_0, # of connection points: 2
#     Edge 15, Type (0, 0), BuildingBlock: UVAHIK_clean_linker_0, # of connection points: 2
#     Edge 16, Type (0, 0), BuildingBlock: UVAHIK_clean_linker_0, # of connection points: 2
#     Edge 17, Type (0, 0), BuildingBlock: UVAHIK_clean_linker_0, # of connection points: 2
#     Edge 18, Type (0, 0), BuildingBlock: UVAHIK_clean_linker_0, # of connection points: 2
#     Edge 19, Type (0, 0), BuildingBlock: UVAHIK_clean_linker_0, # of connection points: 2
#     Edge 20, Type (0, 0), BuildingBlock: UVAHIK_clean_linker_0, # of connection points: 2
#     Edge 21, Type (0, 0), BuildingBlock: UVAHIK_clean_linker_0, # of connection points: 2
#     Edge 22, Type (0, 0), BuildingBlock: UVAHIK_clean_linker_0, # of connection points: 2
#     Edge 23, Type (0, 0), BuildingBlock: UVAHIK_clean_linker_0, # of connection points: 2
#     Edge 24, Type (0, 0), BuildingBlock: UVAHIK_clean_linker_0, # of connection points: 2
#     Edge 25, Type (0, 0), BuildingBlock: UVAHIK_clean_linker_0, # of connection points: 2
#     Edge 26, Type (0, 0), BuildingBlock: UVAHIK_clean_linker_0, # of connection points: 2
#     Edge 27, Type (0, 0), BuildingBlock: UVAHIK_clean_linker_0, # of connection points: 2
#     Edge 28, Type (0, 0), BuildingBlock: UVAHIK_clean_linker_0, # of connection points: 2
#     Edge 29, Type (0, 0), BuildingBlock: UVAHIK_clean_linker_0, # of connection points: 2
#     Edge 30, Type (0, 0), BuildingBlock: UVAHIK_clean_linker_0, # of connection points: 2
#     Edge 31, Type (0, 0), BuildingBlock: UVAHIK_clean_linker_0, # of connection points: 2
#     Edge 32, Type (0, 0), BuildingBlock: UVAHIK_clean_linker_0, # of connection points: 2
#     Edge 33, Type (0, 0), BuildingBlock: UVAHIK_clean_linker_0, # of connection points: 2
#     Edge 34, Type (0, 0), BuildingBlock: UVAHIK_clean_linker_0, # of connection points: 2
#     Edge 35, Type (0, 0), BuildingBlock: UVAHIK_clean_linker_0, # of connection points: 2
#     Edge 36, Type (0, 0), BuildingBlock: UVAHIK_clean_linker_0, # of connection points: 2
#     Edge 37, Type (0, 0), BuildingBlock: UVAHIK_clean_linker_0, # of connection points: 2
#     Edge 38, Type (0, 0), BuildingBlock: UVAHIK_clean_linker_0, # of connection points: 2
#     Edge 39, Type (0, 0), BuildingBlock: UVAHIK_clean_linker_0, # of connection points: 2
#     Edge 40, Type (0, 0), BuildingBlock: UVAHIK_clean_linker_0, # of connection points: 2
#     Edge 41, Type (0, 0), BuildingBlock: UVAHIK_clean_linker_0, # of connection points: 2
#     Edge 42, Type (0, 0), BuildingBlock: UVAHIK_clean_linker_0, # of connection points: 2
#     Edge 43, Type (0, 0), BuildingBlock: UVAHIK_clean_linker_0, # of connection points: 2
#     Edge 44, Type (0, 0), BuildingBlock: UVAHIK_clean_linker_0, # of connection points: 2
#     Edge 45, Type (0, 0), BuildingBlock: UVAHIK_clean_linker_0, # of connection points: 2
#     Edge 46, Type (0, 0), BuildingBlock: UVAHIK_clean_linker_0, # of connection points: 2
#     Edge 47, Type (0, 0), BuildingBlock: UVAHIK_clean_linker_0, # of connection points: 2
#     Edge 48, Type (0, 0), BuildingBlock: UVAHIK_clean_linker_0, # of connection points: 2
#     Edge 49, Type (0, 0), BuildingBlock: UVAHIK_clean_linker_0, # of connection points: 2
#     Edge 50, Type (0, 0), BuildingBlock: UVAHIK_clean_linker_0, # of connection points: 2
#     Edge 51, Type (0, 0), BuildingBlock: UVAHIK_clean_linker_0, # of connection points: 2
#     Edge 52, Type (0, 0), BuildingBlock: UVAHIK_clean_linker_0, # of connection points: 2
#     Edge 53, Type (0, 0), BuildingBlock: UVAHIK_clean_linker_0, # of connection points: 2
#     Edge 54, Type (0, 0), BuildingBlock: UVAHIK_clean_linker_0, # of connection points: 2
#     Edge 55, Type (0, 0), BuildingBlock: UVAHIK_clean_linker_0, # of connection points: 2
#     Edge 56, Type (0, 0), BuildingBlock: UVAHIK_clean_linker_0, # of connection points: 2
#     Edge 57, Type (0, 0), BuildingBlock: UVAHIK_clean_linker_0, # of connection points: 2
#     Edge 58, Type (0, 0), BuildingBlock: UVAHIK_clean_linker_0, # of connection points: 2
#     Edge 59, Type (0, 0), BuildingBlock: UVAHIK_clean_linker_0, # of connection points: 2
# Relax obj value: 0.345
# Max RMSD: 0.276
# Mean RMSD: 0.276
data_MOF--net-ecs--node1-TAGTUT_clean_sbu_3--edge1-UVAHIK_clean_linker_0
_symmetry_space_group_name_H-M    P1
_symmetry_Int_Tables_number       1
_symmetry_cell_setting            triclinic
loop_
_symmetry_equiv_pos_as_xyz
'x, y, z'
_cell_length_a     64.40398
_cell_length_b     64.425625
_cell_length_c     34.106261
_cell_angle_alpha  89.975085
_cell_angle_beta   90.021538
_cell_angle_gamma 120.02623
loop_
_atom_site_label
_atom_site_type_symbol
_atom_site_fract_x
_atom_site_fract_y
_atom_site_fract_z
_atom_type_partial_charge
C0 C 0.44729 0.30439 0.07391 0.0
C1 C 0.46847 0.38953 0.00944 0.0
C2 C 0.46711 0.40873 0.12339 0.0
Mg3 Mg 0.45846 0.29484 0.16281 0.0
Mg4 Mg 0.50528 0.33531 0.21254 0.0
O5 O 0.47787 0.32844 0.18382 0.0
Mg6 Mg 0.47983 0.34674 0.13529 0.0
O7 O 0.47869 0.36257 0.08526 0.0
Mg8 Mg 0.44356 0.3529 0.08559 0.0
Mg9 Mg 0.49915 0.39557 0.08444 0.0
C10 C 0.51321 0.38788 0.2016 0.0
O11 O 0.51916 0.35804 0.11926 0.0
O12 O 0.45598 0.28204 0.22743 0.0
O13 O 0.53186 0.39461 0.09291 0.0
O14 O 0.49214 0.29117 0.15296 0.0
O15 O 0.48717 0.31125 0.26048 0.0
O16 O 0.52441 0.32194 0.17999 0.0
O17 O 0.44162 0.33773 0.14776 0.0
O18 O 0.42624 0.30056 0.1714 0.0
C19 C 0.42398 0.31861 0.16197 0.0
C20 C 0.46788 0.29078 0.25932 0.0
O21 O 0.49757 0.38134 0.17385 0.0
O22 O 0.45051 0.37037 0.02338 0.0
O23 O 0.51942 0.37364 0.21721 0.0
O24 O 0.45013 0.38954 0.10839 0.0
O25 O 0.48816 0.40192 0.02823 0.0
O26 O 0.4876 0.4108 0.12841 0.0
O27 O 0.46308 0.31171 0.10122 0.0
O28 O 0.43826 0.31715 0.06242 0.0
C29 C 0.51472 0.30274 0.15974 0.0
C30 C 0.5358 0.37796 0.10474 0.0
C31 C 0.68916 0.14002 0.06683 0.0
C32 C 0.60278 0.07995 0.00522 0.0
C33 C 0.58471 0.05943 0.12214 0.0
Mg34 Mg 0.70132 0.16124 0.15533 0.0
Mg35 Mg 0.66236 0.16724 0.21003 0.0
O36 O 0.66861 0.14675 0.1799 0.0
Mg37 Mg 0.64905 0.13134 0.13206 0.0
O38 O 0.63186 0.11544 0.0824 0.0
Mg39 Mg 0.63992 0.08897 0.08054 0.0
Mg40 Mg 0.59933 0.10541 0.08099 0.0
C41 C 0.61006 0.12218 0.2036 0.0
O42 O 0.6393 0.16068 0.12029 0.0
O43 O 0.71665 0.17246 0.21898 0.0
O44 O 0.60319 0.14043 0.09045 0.0
O45 O 0.70356 0.19799 0.1457 0.0
O46 O 0.68844 0.17461 0.25472 0.0
O47 O 0.67338 0.19897 0.17623 0.0
O48 O 0.65743 0.10159 0.14167 0.0
O49 O 0.6954 0.12307 0.16274 0.0
C50 C 0.67687 0.10285 0.15401 0.0
C51 C 0.70895 0.17607 0.25167 0.0
O52 O 0.61532 0.11448 0.17247 0.0
O53 O 0.62099 0.07924 0.01921 0.0
O54 O 0.62481 0.14201 0.22041 0.0
O55 O 0.60338 0.06059 0.10673 0.0
O56 O 0.59178 0.08876 0.02411 0.0
O57 O 0.58245 0.07795 0.12383 0.0
O58 O 0.68291 0.14881 0.09517 0.0
O59 O 0.67557 0.11833 0.05539 0.0
C60 C 0.69157 0.20843 0.15362 0.0
C61 C 0.6206 0.15968 0.10496 0.0
C62 C 0.8884 0.56835 0.16047 0.0
C63 C 0.81483 0.5241 0.25488 0.0
C64 C 0.78233 0.47776 0.15309 0.0
Mg65 Mg 0.9036 0.54898 0.08443 0.0
Mg66 Mg 0.88873 0.49265 0.07936 0.0
O67 O 0.87757 0.51412 0.08288 0.0
Mg68 Mg 0.86047 0.51282 0.13269 0.0
O69 O 0.84403 0.51479 0.18098 0.0
Mg70 Mg 0.83005 0.53416 0.15896 0.0
Mg71 Mg 0.82322 0.48729 0.20918 0.0
C72 C 0.83425 0.45704 0.0997 0.0
O73 O 0.87688 0.49467 0.17117 0.0
O74 O 0.91446 0.5427 0.02201 0.0
O75 O 0.84736 0.47313 0.21473 0.0
O76 O 0.93243 0.54085 0.10869 0.0
O77 O 0.90605 0.50421 0.02338 0.0
O78 O 0.91554 0.50218 0.12281 0.0
O79 O 0.84308 0.53021 0.09798 0.0
O80 O 0.87408 0.55561 0.06082 0.0
C81 C 0.85213 0.54653 0.07154 0.0
C82 C 0.91453 0.52457 0.0063 0.0
O83 O 0.83185 0.47367 0.11638 0.0
O84 O 0.81847 0.53605 0.22292 0.0
O85 O 0.85436 0.46053 0.08619 0.0
O86 O 0.79305 0.50037 0.14665 0.0
O87 O 0.81625 0.50497 0.25658 0.0
O88 O 0.79153 0.46839 0.17481 0.0
O89 O 0.88978 0.55068 0.14615 0.0
O90 O 0.86806 0.56628 0.1693 0.0
C91 C 0.93385 0.52312 0.12247 0.0
C92 C 0.86777 0.47917 0.19909 0.0
C93 C 0.30162 0.44739 0.43017 0.0
C94 C 0.38563 0.46791 0.49814 0.0
C95 C 0.40673 0.46904 0.38198 0.0
Mg96 Mg 0.29385 0.46082 0.34168 0.0
Mg97 Mg 0.33559 0.50844 0.29461 0.0
O98 O 0.32776 0.48028 0.32199 0.0
Mg99 Mg 0.34495 0.48114 0.37118 0.0
O100 O 0.3598 0.47907 0.42159 0.0
Mg101 Mg 0.35048 0.44412 0.41962 0.0
Mg102 Mg 0.39267 0.49984 0.42447 0.0
C103 C 0.38764 0.51594 0.30876 0.0
O104 O 0.35574 0.52018 0.38849 0.0
O105 O 0.28207 0.46027 0.27656 0.0
O106 O 0.39136 0.53245 0.41819 0.0
O107 O 0.29079 0.49451 0.35427 0.0
O108 O 0.31256 0.49138 0.24528 0.0
O109 O 0.32128 0.52681 0.32679 0.0
O110 O 0.33604 0.44319 0.3571 0.0
O111 O 0.29939 0.4286 0.33144 0.0
C112 C 0.31713 0.42595 0.34154 0.0
C113 C 0.2917 0.47258 0.24528 0.0
O114 O 0.38011 0.49934 0.33491 0.0
O115 O 0.36701 0.45003 0.48266 0.0
O116 O 0.37421 0.52303 0.29273 0.0
O117 O 0.38762 0.45162 0.39653 0.0
O118 O 0.39808 0.48798 0.48042 0.0
O119 O 0.40937 0.48994 0.38044 0.0
O120 O 0.30958 0.46369 0.40365 0.0
O121 O 0.31411 0.4381 0.442 0.0
C122 C 0.30248 0.51711 0.34795 0.0
C123 C 0.37497 0.53645 0.40528 0.0
C124 C 0.57108 0.88942 0.33882 0.0
C125 C 0.52249 0.81637 0.24217 0.0
C126 C 0.47931 0.78428 0.34687 0.0
Mg127 Mg 0.55241 0.90344 0.41788 0.0
Mg128 Mg 0.49594 0.88839 0.4244 0.0
O129 O 0.51759 0.87747 0.41932 0.0
Mg130 Mg 0.51599 0.86167 0.36804 0.0
O131 O 0.51692 0.84618 0.318 0.0
Mg132 Mg 0.536 0.8313 0.33758 0.0
Mg133 Mg 0.48776 0.82537 0.29302 0.0
C134 C 0.46044 0.83456 0.40142 0.0
O135 O 0.49794 0.87919 0.33289 0.0
O136 O 0.54626 0.91315 0.48152 0.0
O137 O 0.47379 0.84987 0.29071 0.0
O138 O 0.54414 0.93263 0.39589 0.0
O139 O 0.50779 0.9048 0.48085 0.0
O140 O 0.50538 0.91598 0.38225 0.0
O141 O 0.53339 0.84347 0.39993 0.0
O142 O 0.55886 0.87325 0.43897 0.0
C143 C 0.54965 0.8516 0.42654 0.0
C144 C 0.52814 0.91297 0.49789 0.0
O145 O 0.47717 0.83293 0.38367 0.0
O146 O 0.53608 0.82051 0.27227 0.0
O147 O 0.4636 0.85408 0.41693 0.0
O148 O 0.50212 0.79464 0.35053 0.0
O149 O 0.50306 0.81729 0.24341 0.0
O150 O 0.46925 0.79377 0.32767 0.0
O151 O 0.55385 0.89092 0.3548 0.0
O152 O 0.56835 0.86911 0.32793 0.0
C153 C 0.52637 0.93423 0.38274 0.0
C154 C 0.48126 0.87042 0.30685 0.0
C155 C 0.10441 0.67867 0.34122 0.0
C156 C 0.17721 0.70451 0.24515 0.0
C157 C 0.21093 0.69494 0.34882 0.0
Mg158 Mg 0.08972 0.64534 0.41932 0.0
Mg159 Mg 0.1037 0.60351 0.42376 0.0
O160 O 0.11562 0.63638 0.42118 0.0
Mg161 Mg 0.13244 0.6515 0.37081 0.0
O162 O 0.14859 0.66874 0.32162 0.0
Mg163 Mg 0.16276 0.70271 0.34096 0.0
Mg164 Mg 0.16942 0.66098 0.29584 0.0
C165 C 0.15792 0.62136 0.4037 0.0
O166 O 0.11547 0.61646 0.33459 0.0
O167 O 0.07923 0.62861 0.48229 0.0
O168 O 0.14548 0.62234 0.29346 0.0
O169 O 0.06026 0.60826 0.39602 0.0
O170 O 0.08657 0.59785 0.47985 0.0
O171 O 0.07688 0.58657 0.38003 0.0
O172 O 0.15039 0.68705 0.40336 0.0
O173 O 0.11989 0.68154 0.44175 0.0
C174 C 0.14168 0.69445 0.43018 0.0
C175 C 0.07875 0.6101 0.49768 0.0
O176 O 0.16078 0.64068 0.38742 0.0
O177 O 0.17379 0.71414 0.27574 0.0
O178 O 0.13763 0.60489 0.41686 0.0
O179 O 0.20005 0.70683 0.35324 0.0
O180 O 0.17587 0.68397 0.24615 0.0
O181 O 0.20154 0.67531 0.32977 0.0
O182 O 0.1032 0.66005 0.35701 0.0
O183 O 0.12463 0.69656 0.33078 0.0
C184 C 0.05859 0.58917 0.38151 0.0
C185 C 0.12475 0.60893 0.30886 0.0
C186 C 0.5476 0.69161 0.92907 0.0
C187 C 0.5257 0.60759 0.99702 0.0
C188 C 0.5252 0.58659 0.87945 0.0
Mg189 Mg 0.53479 0.70003 0.84022 0.0
Mg190 Mg 0.48727 0.65831 0.79298 0.0
O191 O 0.51552 0.66618 0.82008 0.0
Mg192 Mg 0.51416 0.64882 0.86925 0.0
O193 O 0.51559 0.63363 0.9196 0.0
Mg194 Mg 0.55042 0.64257 0.9182 0.0
Mg195 Mg 0.49434 0.60084 0.92287 0.0
C196 C 0.47987 0.6063 0.80659 0.0
O197 O 0.47491 0.63803 0.88524 0.0
O198 O 0.53567 0.7119 0.77505 0.0
O199 O 0.46192 0.60241 0.91541 0.0
O200 O 0.50109 0.70318 0.85233 0.0
O201 O 0.50431 0.68159 0.74389 0.0
O202 O 0.4688 0.67213 0.82609 0.0
O203 O 0.55219 0.65766 0.85597 0.0
O204 O 0.56703 0.69445 0.83074 0.0
C205 C 0.56959 0.67666 0.8409 0.0
C206 C 0.52326 0.70235 0.74382 0.0
O207 O 0.49635 0.61382 0.83291 0.0
O208 O 0.54387 0.62577 0.98121 0.0
O209 O 0.47276 0.6197 0.79054 0.0
O210 O 0.54278 0.60562 0.89391 0.0
O211 O 0.50555 0.59542 0.97937 0.0
O212 O 0.50409 0.58349 0.87979 0.0
O213 O 0.53148 0.68412 0.90223 0.0
O214 O 0.55647 0.67873 0.94082 0.0
C215 C 0.47842 0.69117 0.84665 0.0
C216 C 0.45829 0.61889 0.90171 0.0
C217 C 0.31984 0.88988 0.83953 0.0
C218 C 0.29489 0.81749 0.74264 0.0
C219 C 0.30618 0.78429 0.84498 0.0
Mg220 Mg 0.35325 0.90474 0.91743 0.0
Mg221 Mg 0.39615 0.89221 0.91986 0.0
O222 O 0.36308 0.87946 0.91858 0.0
Mg223 Mg 0.34807 0.86269 0.86823 0.0
O224 O 0.33095 0.84654 0.81881 0.0
Mg225 Mg 0.29703 0.83178 0.83852 0.0
Mg226 Mg 0.33903 0.82611 0.7922 0.0
C227 C 0.37929 0.83821 0.8995 0.0
O228 O 0.38315 0.88012 0.83192 0.0
O229 O 0.37027 0.91515 0.98019 0.0
O230 O 0.37756 0.85062 0.7898 0.0
O231 O 0.38986 0.93494 0.89404 0.0
O232 O 0.40175 0.90895 0.97638 0.0
O233 O 0.41216 0.91933 0.87632 0.0
O234 O 0.31268 0.8441 0.90083 0.0
O235 O 0.31724 0.87394 0.93991 0.0
C236 C 0.30481 0.85221 0.92784 0.0
C237 C 0.38917 0.91611 0.99495 0.0
O238 O 0.35938 0.83482 0.88484 0.0
O239 O 0.28562 0.82125 0.77333 0.0
O240 O 0.39581 0.85883 0.91148 0.0
O241 O 0.29398 0.79481 0.85001 0.0
O242 O 0.31535 0.81863 0.74304 0.0
O243 O 0.32573 0.79405 0.82566 0.0
O244 O 0.33873 0.89148 0.85496 0.0
O245 O 0.30219 0.86952 0.8291 0.0
C246 C 0.40903 0.93726 0.8787 0.0
C247 C 0.39081 0.8712 0.80577 0.0
C248 C 0.14165 0.44852 0.92974 0.0
C249 C 0.07917 0.47057 0.99714 0.0
C250 C 0.05756 0.46915 0.88107 0.0
Mg251 Mg 0.16177 0.46044 0.84035 0.0
Mg252 Mg 0.16738 0.50757 0.79193 0.0
O253 O 0.14724 0.47972 0.82026 0.0
Mg254 Mg 0.1315 0.48134 0.86962 0.0
O255 O 0.11516 0.48019 0.92012 0.0
Mg256 Mg 0.08949 0.4452 0.91971 0.0
Mg257 Mg 0.10304 0.50101 0.92161 0.0
C258 C 0.12295 0.51521 0.80624 0.0
O259 O 0.15999 0.52059 0.88521 0.0
O260 O 0.17224 0.45895 0.77515 0.0
O261 O 0.13671 0.53367 0.91246 0.0
O262 O 0.19868 0.49423 0.85124 0.0
O263 O 0.17282 0.48982 0.74309 0.0
O264 O 0.20039 0.5264 0.82336 0.0
O265 O 0.10221 0.44321 0.85714 0.0
O266 O 0.12381 0.42813 0.83156 0.0
C267 C 0.10357 0.42572 0.84199 0.0
C268 C 0.17472 0.47093 0.74354 0.0
O269 O 0.11418 0.499 0.83303 0.0
O270 O 0.07964 0.45238 0.98244 0.0
O271 O 0.1433 0.52209 0.78972 0.0
O272 O 0.05961 0.45214 0.89641 0.0
O273 O 0.0866 0.49032 0.97844 0.0
O274 O 0.07568 0.49011 0.87858 0.0
O275 O 0.14973 0.46434 0.90246 0.0
O276 O 0.12 0.43952 0.94213 0.0
C277 C 0.20966 0.51677 0.84435 0.0
C278 C 0.1571 0.5374 0.89991 0.0
C279 C 0.67722 0.5718 0.65869 0.0
C280 C 0.7055 0.52659 0.75367 0.0
C281 C 0.69056 0.47977 0.65293 0.0
Mg282 Mg 0.64096 0.55189 0.58406 0.0
Mg283 Mg 0.59832 0.49641 0.58644 0.0
O284 O 0.63132 0.51679 0.58397 0.0
Mg285 Mg 0.64806 0.51594 0.63291 0.0
O286 O 0.66691 0.51781 0.68052 0.0
Mg287 Mg 0.70001 0.53649 0.65758 0.0
Mg288 Mg 0.65969 0.49004 0.70871 0.0
C289 C 0.61589 0.45964 0.60488 0.0
O290 O 0.6145 0.49927 0.67283 0.0
O291 O 0.62151 0.54409 0.52295 0.0
O292 O 0.62138 0.47641 0.71524 0.0
O293 O 0.60498 0.54566 0.60985 0.0
O294 O 0.59056 0.50643 0.53076 0.0
O295 O 0.58403 0.50846 0.63134 0.0
O296 O 0.68218 0.53222 0.59698 0.0
O297 O 0.67634 0.55708 0.55878 0.0
C298 C 0.6892 0.54804 0.56975 0.0
C299 C 0.60203 0.52572 0.51059 0.0
O300 O 0.63629 0.4764 0.61764 0.0
O301 O 0.71395 0.53846 0.72161 0.0
O302 O 0.59898 0.46358 0.59462 0.0
O303 O 0.70229 0.50228 0.64569 0.0
O304 O 0.68472 0.50773 0.75553 0.0
O305 O 0.67219 0.47052 0.67516 0.0
O306 O 0.65778 0.55427 0.6451 0.0
O307 O 0.69519 0.56923 0.66751 0.0
C308 C 0.58628 0.52905 0.62664 0.0
C309 C 0.60769 0.48356 0.70038 0.0
C310 C 0.42462 0.1069 0.66198 0.0
C311 C 0.4727 0.17932 0.76031 0.0
C312 C 0.51495 0.21288 0.65518 0.0
Mg313 Mg 0.44285 0.09455 0.581 0.0
Mg314 Mg 0.50005 0.11344 0.56623 0.0
O315 O 0.47711 0.12164 0.57859 0.0
Mg316 Mg 0.47918 0.13637 0.63095 0.0
O317 O 0.47828 0.1507 0.68227 0.0
Mg318 Mg 0.45852 0.1653 0.66484 0.0
Mg319 Mg 0.50733 0.17132 0.70735 0.0
C320 C 0.53417 0.1665 0.59373 0.0
O321 O 0.49815 0.11879 0.66359 0.0
O322 O 0.44762 0.08596 0.51564 0.0
O323 O 0.52141 0.14692 0.70802 0.0
O324 O 0.45371 0.06664 0.60037 0.0
O325 O 0.48732 0.10008 0.50855 0.0
O326 O 0.49355 0.08467 0.60405 0.0
O327 O 0.46049 0.15408 0.60155 0.0
O328 O 0.43444 0.12395 0.5634 0.0
C329 C 0.44341 0.14549 0.5763 0.0
C330 C 0.46592 0.08976 0.49499 0.0
O331 O 0.51752 0.16643 0.6146 0.0
O332 O 0.45883 0.17522 0.73064 0.0
O333 O 0.5314 0.14809 0.57484 0.0
O334 O 0.49207 0.20265 0.65233 0.0
O335 O 0.49229 0.17876 0.75813 0.0
O336 O 0.5251 0.20298 0.67299 0.0
O337 O 0.44199 0.10618 0.6449 0.0
O338 O 0.42683 0.12685 0.67393 0.0
C339 C 0.4729 0.06629 0.609 0.0
C340 C 0.51439 0.12685 0.69041 0.0
C341 C 0.88909 0.31892 0.65773 0.0
C342 C 0.8131 0.28974 0.74934 0.0
C343 C 0.78285 0.30278 0.64487 0.0
Mg344 Mg 0.9053 0.35451 0.58218 0.0
Mg345 Mg 0.89012 0.39556 0.57957 0.0
O346 O 0.8789 0.3628 0.57986 0.0
Mg347 Mg 0.86125 0.34633 0.62894 0.0
O348 O 0.8443 0.32781 0.67677 0.0
Mg349 Mg 0.8307 0.2945 0.6548 0.0
Mg350 Mg 0.82266 0.33485 0.70161 0.0
C351 C 0.83551 0.37653 0.59716 0.0
O352 O 0.87719 0.38026 0.66774 0.0
O353 O 0.91724 0.3732 0.52049 0.0
O354 O 0.8467 0.37326 0.70844 0.0
O355 O 0.93363 0.39123 0.60802 0.0
O356 O 0.9086 0.403 0.5247 0.0
O357 O 0.91602 0.41186 0.62474 0.0
O358 O 0.8445 0.31173 0.59373 0.0
O359 O 0.87623 0.31848 0.55735 0.0
C360 C 0.85423 0.30503 0.5675 0.0
C361 C 0.91756 0.39194 0.5064 0.0
O362 O 0.83281 0.35702 0.61241 0.0
O363 O 0.81835 0.28136 0.71902 0.0
O364 O 0.85584 0.39353 0.58517 0.0
O365 O 0.79347 0.29059 0.6409 0.0
O366 O 0.81365 0.30991 0.74916 0.0
O367 O 0.79208 0.32211 0.66469 0.0
O368 O 0.89051 0.33793 0.64312 0.0
O369 O 0.86871 0.30067 0.66649 0.0
C370 C 0.93468 0.4099 0.62316 0.0
C371 C 0.86773 0.38707 0.69433 0.0
C372 C 0.55482 0.30585 0.15056 0.0
C373 C 0.5298 0.29294 0.14553 0.0
C374 C 0.56887 0.29591 0.13948 0.0
C375 C 0.56596 0.24367 0.08614 0.0
H376 H 0.6193 0.25658 0.15418 0.0
C377 C 0.62036 0.1936 0.13928 0.0
C378 C 0.61849 0.1813 0.10445 0.0
C379 C 0.61427 0.2116 0.13981 0.0
C380 C 0.60434 0.25257 0.13504 0.0
H381 H 0.49993 0.25944 0.12474 0.0
H382 H 0.52404 0.24158 0.10773 0.0
H383 H 0.5981 0.27842 0.16354 0.0
H384 H 0.61097 0.17914 0.04233 0.0
H385 H 0.60203 0.21166 0.04237 0.0
H386 H 0.5706 0.21631 0.06005 0.0
C387 C 0.53313 0.2598 0.11862 0.0
C388 C 0.59239 0.26548 0.13994 0.0
C389 C 0.51917 0.26997 0.12879 0.0
C390 C 0.61222 0.18831 0.06962 0.0
C391 C 0.60685 0.20677 0.06984 0.0
C392 C 0.57748 0.23036 0.08191 0.0
C393 C 0.55817 0.27253 0.12414 0.0
C394 C 0.57267 0.26083 0.11609 0.0
C395 C 0.60674 0.21796 0.10524 0.0
C396 C 0.59656 0.23427 0.10679 0.0
H397 H 0.56361 0.32354 0.1636 0.0
H398 H 0.58809 0.30651 0.14349 0.0
H399 H 0.55132 0.23998 0.06645 0.0
H400 H 0.625 0.18826 0.16653 0.0
H401 H 0.61419 0.21946 0.1678 0.0
C402 C 0.79549 0.42297 0.12482 0.0
C403 C 0.81346 0.43261 0.09604 0.0
C404 C 0.77785 0.39869 0.12373 0.0
C405 C 0.77282 0.34276 0.09191 0.0
H406 H 0.70517 0.31403 0.11618 0.0
C407 C 0.71565 0.24122 0.10584 0.0
C408 C 0.69986 0.23268 0.13785 0.0
C409 C 0.7257 0.26504 0.09384 0.0
C410 C 0.72406 0.32179 0.10959 0.0
H411 H 0.8262 0.42496 0.04212 0.0
H412 H 0.7956 0.38272 0.04033 0.0
H413 H 0.72969 0.35761 0.1087 0.0
H414 H 0.68104 0.24194 0.18091 0.0
H415 H 0.69939 0.28373 0.1612 0.0
H416 H 0.76792 0.30759 0.09471 0.0
C417 C 0.79522 0.39378 0.06393 0.0
C418 C 0.73803 0.3467 0.1052 0.0
C419 C 0.81273 0.41793 0.06501 0.0
C420 C 0.69329 0.24806 0.15625 0.0
C421 C 0.70369 0.27202 0.14471 0.0
C422 C 0.75903 0.31804 0.09673 0.0
C423 C 0.77809 0.38373 0.09394 0.0
C424 C 0.76256 0.35738 0.09646 0.0
C425 C 0.72058 0.281 0.1141 0.0
C426 C 0.73449 0.30718 0.10586 0.0
H427 H 0.79595 0.43373 0.14943 0.0
H428 H 0.76496 0.39133 0.14743 0.0
H429 H 0.79181 0.35054 0.08599 0.0
H430 H 0.72067 0.22964 0.09056 0.0
H431 H 0.73806 0.27111 0.06935 0.0
C432 C 0.74667 0.47197 0.11463 0.0
C433 C 0.75812 0.46213 0.13658 0.0
C434 C 0.72289 0.45762 0.10272 0.0
C435 C 0.66824 0.40362 0.13388 0.0
H436 H 0.64241 0.41603 0.0398 0.0
C437 C 0.5663 0.36453 0.11023 0.0
C438 C 0.56061 0.38238 0.10122 0.0
C439 C 0.59004 0.3694 0.10788 0.0
C440 C 0.64939 0.41223 0.06607 0.0
H441 H 0.75398 0.42913 0.1611 0.0
H442 H 0.71263 0.40411 0.13981 0.0
H443 H 0.68571 0.43351 0.04673 0.0
H444 H 0.57539 0.41918 0.08126 0.0
H445 H 0.61636 0.42752 0.0772 0.0
H446 H 0.63194 0.38307 0.15381 0.0
C447 C 0.72191 0.42301 0.13248 0.0
C448 C 0.67415 0.42229 0.07009 0.0
C449 C 0.74567 0.43737 0.14452 0.0
C450 C 0.57901 0.40494 0.08858 0.0
C451 C 0.60256 0.40971 0.0859 0.0
C452 C 0.64346 0.39347 0.12978 0.0
C453 C 0.71006 0.43309 0.11232 0.0
C454 C 0.68389 0.41885 0.10469 0.0
C455 C 0.60839 0.39212 0.09589 0.0
C456 C 0.63388 0.39847 0.0965 0.0
H457 H 0.75576 0.49093 0.1078 0.0
H458 H 0.71424 0.46604 0.08761 0.0
H459 H 0.67515 0.40075 0.16106 0.0
H460 H 0.55245 0.34688 0.11914 0.0
H461 H 0.59409 0.35548 0.1155 0.0
C462 C 0.17879 0.60293 0.43797 0.0
C463 C 0.17833 0.61714 0.40711 0.0
C464 C 0.19606 0.59595 0.4389 0.0
C465 C 0.25346 0.60642 0.39893 0.0
H466 H 0.22369 0.53727 0.40624 0.0
C467 C 0.29978 0.55448 0.34668 0.0
C468 C 0.29321 0.53221 0.36388 0.0
C469 C 0.28881 0.56745 0.35848 0.0
C470 C 0.23254 0.55664 0.40513 0.0
H471 H 0.19578 0.63553 0.35353 0.0
H472 H 0.22649 0.62375 0.35548 0.0
H473 H 0.19954 0.55605 0.41536 0.0
H474 H 0.27161 0.50704 0.40923 0.0
H475 H 0.25321 0.53008 0.431 0.0
H476 H 0.28655 0.60701 0.38869 0.0
C477 C 0.21361 0.6183 0.37919 0.0
C478 C 0.21859 0.56739 0.41015 0.0
C479 C 0.19617 0.62518 0.37816 0.0
C480 C 0.27667 0.52392 0.3949 0.0
C481 C 0.26604 0.5371 0.4072 0.0
C482 C 0.26757 0.59567 0.39444 0.0
C483 C 0.21324 0.60304 0.40898 0.0
C484 C 0.22883 0.59232 0.40661 0.0
C485 C 0.27133 0.55861 0.38822 0.0
C486 C 0.25718 0.57057 0.3969 0.0
H487 H 0.16533 0.59659 0.46087 0.0
H488 H 0.19554 0.58437 0.46239 0.0
H489 H 0.26176 0.62572 0.39628 0.0
H490 H 0.31255 0.56138 0.32277 0.0
H491 H 0.29323 0.58378 0.34288 0.0
C492 C 0.36902 0.57045 0.38382 0.0
C493 C 0.37911 0.56103 0.40983 0.0
C494 C 0.3759 0.59477 0.38533 0.0
C495 C 0.42902 0.6507 0.41014 0.0
H496 H 0.38945 0.67983 0.39617 0.0
C497 C 0.47341 0.752 0.39375 0.0
C498 C 0.46432 0.76022 0.36391 0.0
C499 C 0.46023 0.7284 0.40702 0.0
C500 C 0.40074 0.67194 0.39987 0.0
H501 H 0.40281 0.56919 0.45987 0.0
H502 H 0.41482 0.61145 0.46233 0.0
H503 H 0.37046 0.63633 0.40474 0.0
H504 H 0.43373 0.75069 0.32615 0.0
H505 H 0.41121 0.70921 0.34791 0.0
H506 H 0.45924 0.68563 0.4033 0.0
C507 C 0.40188 0.60018 0.44044 0.0
C508 C 0.38984 0.64709 0.40489 0.0
C509 C 0.39502 0.57599 0.43893 0.0
C510 C 0.44126 0.74478 0.34905 0.0
C511 C 0.42825 0.72103 0.36179 0.0
C512 C 0.43986 0.67535 0.4047 0.0
C513 C 0.39304 0.60998 0.41282 0.0
C514 C 0.40394 0.63629 0.4099 0.0
C515 C 0.43789 0.71236 0.39015 0.0
C516 C 0.42592 0.68633 0.39924 0.0
H517 H 0.35697 0.55946 0.36094 0.0
H518 H 0.36894 0.60193 0.36353 0.0
H519 H 0.44034 0.64279 0.41311 0.0
H520 H 0.49093 0.76365 0.40636 0.0
H521 H 0.4679 0.72256 0.42977 0.0
C522 C 0.24675 0.69086 0.36451 0.0
C523 C 0.23555 0.70481 0.3643 0.0
C524 C 0.27068 0.70082 0.376 0.0
C525 C 0.32124 0.75515 0.42253 0.0
H526 H 0.3603 0.73763 0.35981 0.0
C527 C 0.42517 0.80062 0.36901 0.0
C528 C 0.43625 0.81356 0.40312 0.0
C529 C 0.40086 0.78319 0.36943 0.0
C530 C 0.3497 0.74285 0.37749 0.0
H531 H 0.24054 0.74001 0.37698 0.0
H532 H 0.28238 0.75765 0.3953 0.0
H533 H 0.31707 0.7161 0.35132 0.0
H534 H 0.43155 0.81755 0.46491 0.0
H535 H 0.38949 0.78623 0.46641 0.0
H536 H 0.35384 0.78314 0.44637 0.0
C537 C 0.27261 0.73881 0.38775 0.0
C538 C 0.32479 0.7302 0.37308 0.0
C539 C 0.24859 0.72873 0.3769 0.0
C540 C 0.4232 0.80785 0.43818 0.0
C541 C 0.39908 0.79007 0.43887 0.0
C542 C 0.34613 0.76806 0.42641 0.0
C543 C 0.28409 0.72509 0.38691 0.0
C544 C 0.31027 0.73656 0.39493 0.0
C545 C 0.38732 0.77814 0.40418 0.0
C546 C 0.36076 0.76241 0.40337 0.0
H547 H 0.2372 0.67234 0.35514 0.0
H548 H 0.27873 0.68956 0.37574 0.0
H549 H 0.31065 0.76023 0.44053 0.0
H550 H 0.43486 0.80507 0.3415 0.0
H551 H 0.39248 0.77471 0.34198 0.0
C552 C 0.47325 0.72158 0.88437 0.0
C553 C 0.46305 0.70004 0.86308 0.0
C554 C 0.45911 0.73112 0.89673 0.0
C555 C 0.40443 0.73131 0.86843 0.0
H556 H 0.41896 0.77061 0.96167 0.0
C557 C 0.36576 0.79422 0.89533 0.0
C558 C 0.38389 0.81794 0.90264 0.0
C559 C 0.37075 0.77544 0.89716 0.0
C560 C 0.41457 0.75953 0.93568 0.0
H561 H 0.42969 0.67092 0.84005 0.0
H562 H 0.405 0.68747 0.86214 0.0
H563 H 0.43619 0.74466 0.95384 0.0
H564 H 0.42133 0.84039 0.91898 0.0
H565 H 0.42985 0.80784 0.92241 0.0
H566 H 0.38347 0.74686 0.84974 0.0
C567 C 0.42401 0.69718 0.86862 0.0
C568 C 0.42448 0.74476 0.93112 0.0
C569 C 0.43818 0.68766 0.85611 0.0
C570 C 0.40687 0.82237 0.9131 0.0
C571 C 0.41177 0.80367 0.91536 0.0
C572 C 0.3944 0.746 0.87312 0.0
C573 C 0.43442 0.71929 0.88828 0.0
C574 C 0.42029 0.73122 0.89673 0.0
C575 C 0.39386 0.78007 0.90705 0.0
C576 C 0.40016 0.76094 0.90606 0.0
H577 H 0.49231 0.73153 0.89046 0.0
H578 H 0.46779 0.74835 0.91137 0.0
H579 H 0.40098 0.72125 0.84144 0.0
H580 H 0.34779 0.79019 0.88829 0.0
H581 H 0.3566 0.75734 0.89086 0.0
C582 C 0.20093 0.5678 0.89137 0.0
C583 C 0.17765 0.56221 0.9023 0.0
C584 C 0.21984 0.59156 0.89215 0.0
C585 C 0.2376 0.65146 0.93273 0.0
H586 H 0.27243 0.67584 0.83527 0.0
C587 C 0.27584 0.7487 0.88305 0.0
C588 C 0.2969 0.75975 0.86047 0.0
C589 C 0.26596 0.72484 0.8947 0.0
C590 C 0.26332 0.66931 0.86307 0.0
H591 H 0.15626 0.57725 0.92415 0.0
H592 H 0.18899 0.61826 0.92563 0.0
H593 H 0.24675 0.63276 0.84419 0.0
H594 H 0.32474 0.75467 0.83407 0.0
H595 H 0.3076 0.71312 0.85488 0.0
H596 H 0.25348 0.68803 0.95111 0.0
C597 C 0.19273 0.60435 0.91655 0.0
C598 C 0.2486 0.64461 0.86814 0.0
C599 C 0.1739 0.58077 0.91538 0.0
C600 C 0.3084 0.74668 0.85123 0.0
C601 C 0.29854 0.72282 0.863 0.0
C602 C 0.25237 0.67614 0.92774 0.0
C603 C 0.21583 0.61006 0.90455 0.0
C604 C 0.23494 0.63553 0.90244 0.0
C605 C 0.27695 0.71149 0.88415 0.0
C606 C 0.26471 0.68537 0.89229 0.0
H607 H 0.20454 0.55392 0.88206 0.0
H608 H 0.23754 0.59547 0.88295 0.0
H609 H 0.22755 0.64488 0.95976 0.0
H610 H 0.26658 0.75826 0.89084 0.0
H611 H 0.24914 0.71657 0.91057 0.0
C612 C 0.24224 0.52387 0.89152 0.0
C613 C 0.23414 0.53186 0.85989 0.0
C614 C 0.26607 0.53698 0.90375 0.0
C615 C 0.32355 0.59492 0.88996 0.0
H616 H 0.35107 0.55477 0.9129 0.0
C617 C 0.42429 0.62335 0.87579 0.0
C618 C 0.43374 0.61496 0.90479 0.0
C619 C 0.40005 0.61682 0.87653 0.0
C620 C 0.34362 0.56627 0.90717 0.0
H621 H 0.24426 0.56048 0.81758 0.0
H622 H 0.28609 0.58281 0.83765 0.0
H623 H 0.30821 0.53641 0.90325 0.0
H624 H 0.42567 0.59424 0.95844 0.0
H625 H 0.38339 0.58265 0.95949 0.0
H626 H 0.35959 0.62469 0.89192 0.0
C627 C 0.27401 0.56673 0.85371 0.0
C628 C 0.31897 0.55577 0.9018 0.0
C629 C 0.25004 0.55382 0.84195 0.0
C630 C 0.41881 0.60081 0.93547 0.0
C631 C 0.39465 0.5942 0.93613 0.0
C632 C 0.34838 0.60544 0.89485 0.0
C633 C 0.28248 0.55813 0.88409 0.0
C634 C 0.30857 0.56989 0.89287 0.0
C635 C 0.38489 0.60158 0.9061 0.0
C636 C 0.35861 0.59115 0.90332 0.0
H637 H 0.23027 0.50726 0.90646 0.0
H638 H 0.27176 0.53017 0.92804 0.0
H639 H 0.31615 0.60639 0.88359 0.0
H640 H 0.43518 0.63365 0.85131 0.0
H641 H 0.39289 0.6225 0.85274 0.0
C642 C 0.71499 0.47191 0.60458 0.0
C643 C 0.69936 0.46431 0.63682 0.0
C644 C 0.72538 0.45855 0.59209 0.0
C645 C 0.72494 0.40065 0.60737 0.0
H646 H 0.79229 0.44032 0.58147 0.0
C647 C 0.79764 0.37301 0.62358 0.0
C648 C 0.81484 0.38029 0.59369 0.0
C649 C 0.77995 0.37955 0.62237 0.0
C650 C 0.77341 0.42894 0.58805 0.0
H651 H 0.6813 0.4361 0.67995 0.0
H652 H 0.70025 0.4134 0.65949 0.0
H653 H 0.76792 0.45885 0.59059 0.0
H654 H 0.82668 0.39933 0.53845 0.0
H655 H 0.79599 0.41097 0.53655 0.0
H656 H 0.73122 0.37089 0.60697 0.0
C657 C 0.70413 0.42933 0.64309 0.0
C658 C 0.75933 0.43954 0.59309 0.0
C659 C 0.69338 0.44247 0.65508 0.0
C660 C 0.81362 0.39352 0.56193 0.0
C661 C 0.79609 0.40016 0.56081 0.0
C662 C 0.7392 0.39006 0.60287 0.0
C663 C 0.72079 0.43755 0.61211 0.0
C664 C 0.73495 0.42562 0.60319 0.0
C665 C 0.77946 0.39375 0.59149 0.0
C666 C 0.76361 0.40419 0.59345 0.0
H667 H 0.71958 0.48844 0.58944 0.0
H668 H 0.73753 0.46507 0.56735 0.0
H669 H 0.70617 0.3893 0.61457 0.0
H670 H 0.79872 0.36356 0.64897 0.0
H671 H 0.76756 0.3747 0.6467 0.0
C672 C 0.58825 0.41638 0.59032 0.0
C673 C 0.61117 0.43472 0.60159 0.0
C674 C 0.58314 0.39274 0.58773 0.0
C675 C 0.59986 0.3516 0.62941 0.0
H676 H 0.55687 0.30918 0.54912 0.0
C677 C 0.55517 0.24923 0.64385 0.0
C678 C 0.53012 0.23717 0.63873 0.0
C679 C 0.56936 0.27294 0.63155 0.0
C680 C 0.56894 0.3208 0.57166 0.0
H681 H 0.64695 0.44253 0.61736 0.0
H682 H 0.63778 0.40081 0.61396 0.0
H683 H 0.57494 0.3525 0.54163 0.0
H684 H 0.50054 0.24017 0.61467 0.0
H685 H 0.52523 0.28164 0.59379 0.0
H686 H 0.59298 0.31992 0.66038 0.0
C687 C 0.62383 0.40497 0.60723 0.0
C688 C 0.57932 0.34556 0.56734 0.0
C689 C 0.62903 0.42881 0.60946 0.0
C690 C 0.51973 0.24897 0.61934 0.0
C691 C 0.53394 0.27269 0.60703 0.0
C692 C 0.58946 0.32681 0.63375 0.0
C693 C 0.60076 0.38672 0.59644 0.0
C694 C 0.59411 0.36115 0.59691 0.0
C695 C 0.55882 0.28509 0.61379 0.0
C696 C 0.57319 0.31115 0.60561 0.0
H697 H 0.57397 0.42013 0.58395 0.0
H698 H 0.56507 0.37903 0.58008 0.0
H699 H 0.61107 0.36317 0.65277 0.0
H700 H 0.56382 0.24063 0.65841 0.0
H701 H 0.58852 0.28194 0.6367 0.0
C702 C 0.57046 0.19533 0.55685 0.0
C703 C 0.55799 0.18806 0.59249 0.0
C704 C 0.59458 0.21308 0.55616 0.0
C705 C 0.64502 0.25763 0.61852 0.0
H706 H 0.68269 0.2407 0.55092 0.0
C707 C 0.74776 0.30793 0.62892 0.0
C708 C 0.75855 0.2936 0.62839 0.0
C709 C 0.72393 0.29856 0.61747 0.0
C710 C 0.67247 0.24566 0.57009 0.0
H711 H 0.56044 0.19384 0.65517 0.0
H712 H 0.60278 0.22438 0.65442 0.0
H713 H 0.63933 0.21875 0.54584 0.0
H714 H 0.75296 0.25839 0.61393 0.0
H715 H 0.71116 0.24172 0.5954 0.0
H716 H 0.67812 0.28333 0.64479 0.0
C717 C 0.59391 0.21704 0.62672 0.0
C718 C 0.64754 0.23332 0.56674 0.0
C719 C 0.56962 0.19955 0.62727 0.0
C720 C 0.74522 0.26993 0.61466 0.0
C721 C 0.72125 0.26043 0.60375 0.0
C722 C 0.66997 0.26978 0.62223 0.0
C723 C 0.60688 0.22346 0.59126 0.0
C724 C 0.63345 0.2388 0.59148 0.0
C725 C 0.71015 0.27449 0.6058 0.0
C726 C 0.68397 0.26357 0.59863 0.0
H727 H 0.56171 0.18672 0.52963 0.0
H728 H 0.60381 0.218 0.52823 0.0
H729 H 0.63479 0.2626 0.63761 0.0
H730 H 0.75749 0.32625 0.6392 0.0
H731 H 0.71617 0.31008 0.6186 0.0
C732 C 0.50657 0.54301 0.86651 0.0
C733 C 0.52707 0.56465 0.87732 0.0
C734 C 0.50068 0.52199 0.88695 0.0
C735 C 0.48278 0.50102 0.96651 0.0
H736 H 0.52091 0.4796 0.02263 0.0
C737 C 0.48854 0.45314 0.11918 0.0
C738 C 0.46691 0.43124 0.11532 0.0
C739 C 0.49475 0.47112 0.0912 0.0
C740 C 0.51023 0.48582 0.00757 0.0
H741 H 0.56098 0.57973 0.90835 0.0
H742 H 0.5508 0.54336 0.94378 0.0
H743 H 0.53576 0.50122 0.96085 0.0
H744 H 0.43203 0.41408 0.08695 0.0
H745 H 0.44272 0.4454 0.03873 0.0
H746 H 0.45741 0.48593 0.01342 0.0
C747 C 0.53862 0.54258 0.92115 0.0
C748 C 0.51857 0.49783 0.97191 0.0
C749 C 0.54453 0.56355 0.90058 0.0
C750 C 0.44929 0.43029 0.08973 0.0
C751 C 0.45548 0.44826 0.06173 0.0
C752 C 0.47444 0.48901 0.00212 0.0
C753 C 0.51552 0.52249 0.91758 0.0
C754 C 0.50507 0.50582 0.9512 0.0
C755 C 0.47905 0.46769 0.06009 0.0
C756 C 0.48825 0.48162 0.02335 0.0
H757 H 0.49321 0.54308 0.84726 0.0
H758 H 0.48318 0.50634 0.88237 0.0
H759 H 0.47219 0.5075 0.95186 0.0
H760 H 0.50217 0.45493 0.13976 0.0
H761 H 0.51269 0.48655 0.09165 0.0
C762 C 0.56168 0.01761 0.09839 0.0
C763 C 0.56218 0.036 0.12133 0.0
C764 C 0.54216 0.00407 0.07378 0.0
C765 C 0.50432 0.02074 0.02055 0.0
H766 H 0.48202 0.96039 0.96657 0.0
C767 C 0.43054 0.97883 0.90413 0.0
C768 C 0.43096 0.96115 0.88047 0.0
C769 C 0.44999 0.99295 0.92852 0.0
C770 C 0.48859 0.97756 0.98093 0.0
H771 H 0.53983 0.04885 0.14687 0.0
H772 H 0.50554 0.02475 0.10481 0.0
H773 H 0.50258 0.96714 0.0293 0.0
H774 H 0.45444 0.95001 0.85396 0.0
H775 H 0.4885 0.97497 0.89596 0.0
H776 H 0.49016 0.03107 0.9722 0.0
C777 C 0.52088 0.02214 0.10333 0.0
C778 C 0.5 0.98122 0.01713 0.0
C779 C 0.54044 0.03569 0.12785 0.0
C780 C 0.4532 0.96263 0.87342 0.0
C781 C 0.47265 0.97673 0.89781 0.0
C782 C 0.49285 0.01705 0.98437 0.0
C783 C 0.52274 0.00824 0.07329 0.0
C784 C 0.50796 0.00283 0.03738 0.0
C785 C 0.47015 0.98996 0.92829 0.0
C786 C 0.48495 0.99546 0.96412 0.0
H787 H 0.57778 0.01652 0.09404 0.0
H788 H 0.54384 0.99291 0.05173 0.0
H789 H 0.5109 0.03792 0.03486 0.0
H790 H 0.41398 0.97895 0.909 0.0
H791 H 0.44781 0.00356 0.95103 0.0
C792 C 0.97548 0.54236 0.09766 0.0
C793 C 0.95744 0.52441 0.1211 0.0
C794 C 0.9892 0.5366 0.07312 0.0
C795 C 0.97361 0.48208 0.02094 0.0
H796 H 0.03403 0.52047 0.96724 0.0
C797 C 0.01603 0.44966 0.90665 0.0
C798 C 0.03383 0.46754 0.88281 0.0
C799 C 0.00194 0.45526 0.93058 0.0
C800 C 0.01684 0.50977 0.98149 0.0
H801 H 0.94526 0.48945 0.14709 0.0
H802 H 0.96974 0.47971 0.1052 0.0
H803 H 0.02673 0.53455 0.02925 0.0
H804 H 0.04538 0.50211 0.85572 0.0
H805 H 0.02042 0.51164 0.89686 0.0
H806 H 0.96377 0.45725 0.97323 0.0
C807 C 0.97196 0.4975 0.10342 0.0
C808 C 0.01287 0.51768 0.01729 0.0
C809 C 0.9582 0.50325 0.12785 0.0
C810 C 0.03262 0.48839 0.8753 0.0
C811 C 0.01854 0.49401 0.89921 0.0
C812 C 0.97759 0.47416 0.98515 0.0
C813 C 0.98557 0.51321 0.07311 0.0
C814 C 0.99125 0.50387 0.03749 0.0
C815 C 0.00508 0.47846 0.92976 0.0
C816 C -0.00076 0.48794 0.96502 0.0
H817 H 0.97615 0.55932 0.09298 0.0
H818 H 0.00011 0.5494 0.05079 0.0
H819 H 0.95643 0.47136 0.0352 0.0
H820 H 0.01573 0.43293 0.91194 0.0
H821 H 0.99116 0.4426 0.95316 0.0
C822 C 0.45091 0.48865 0.37494 0.0
C823 C 0.42906 0.46781 0.3837 0.0
C824 C 0.47107 0.49486 0.39809 0.0
C825 C 0.49365 0.4768 0.48458 0.0
H826 H 0.50558 0.53807 0.52553 0.0
C827 C 0.54184 0.50838 0.62827 0.0
C828 C 0.56373 0.5297 0.62201 0.0
C829 C 0.52277 0.50199 0.6024 0.0
C830 C 0.50243 0.52098 0.51443 0.0
H831 H 0.41323 0.43386 0.41477 0.0
H832 H 0.44822 0.44457 0.45471 0.0
H833 H 0.48361 0.52289 0.46427 0.0
H834 H 0.58008 0.56417 0.59242 0.0
H835 H 0.54692 0.55317 0.54786 0.0
H836 H 0.51238 0.47485 0.53491 0.0
C837 C 0.44965 0.45674 0.43158 0.0
C838 C 0.49019 0.51242 0.47903 0.0
C839 C 0.42951 0.45053 0.40837 0.0
C840 C 0.56385 0.5471 0.59686 0.0
C841 C 0.54481 0.54073 0.57097 0.0
C842 C 0.5059 0.48536 0.52 0.0
C843 C 0.46964 0.47996 0.42929 0.0
C844 C 0.48561 0.49021 0.46376 0.0
C845 C 0.52519 0.51724 0.57114 0.0
C846 C 0.51026 0.50746 0.53545 0.0
H847 H 0.45142 0.50193 0.35482 0.0
H848 H 0.48672 0.51248 0.3946 0.0
H849 H 0.49037 0.45965 0.47357 0.0
H850 H 0.54072 0.49498 0.64872 0.0
H851 H 0.50727 0.48414 0.6043 0.0
C852 C 0.50676 0.95884 0.37794 0.0
C853 C 0.52781 0.95785 0.38461 0.0
C854 C 0.50146 0.97315 0.40183 0.0
C855 C 0.48687 0.97719 0.48393 0.0
H856 H 0.52606 0.03938 0.53191 0.0
C857 C 0.49341 0.04295 0.6196 0.0
C858 C 0.47213 0.04303 0.61068 0.0
C859 C 0.49923 0.02786 0.59897 0.0
C860 C 0.51514 0.0217 0.51939 0.0
H861 H 0.56281 0.97626 0.41249 0.0
H862 H 0.5537 0.00127 0.45364 0.0
H863 H 0.5398 0.02945 0.472 0.0
H864 H 0.4375 0.02306 0.58212 0.0
H865 H 0.44755 0.99686 0.5464 0.0
H866 H 0.46217 0.96944 0.53123 0.0
C867 C 0.54069 0.99017 0.4317 0.0
C868 C 0.52287 0.01622 0.48472 0.0
C869 C 0.54598 0.97586 0.40777 0.0
C870 C 0.45439 0.02394 0.58868 0.0
C871 C 0.46024 0.00892 0.56788 0.0
C872 C 0.47915 0.98265 0.51864 0.0
C873 C 0.5175 0.98707 0.43156 0.0
C874 C 0.50869 0.99401 0.46641 0.0
C875 C 0.48362 0.01253 0.56992 0.0
C876 C 0.49313 0.00502 0.53665 0.0
H877 H 0.49277 0.94586 0.35898 0.0
H878 H 0.48381 0.97128 0.39999 0.0
H879 H 0.4759 0.95958 0.47117 0.0
H880 H 0.50711 0.05697 0.63761 0.0
H881 H 0.51703 0.03024 0.60234 0.0
C882 C 0.97623 0.43313 0.59796 0.0
C883 C 0.95791 0.43262 0.62117 0.0
C884 C 0.98966 0.45262 0.57324 0.0
C885 C 0.97374 0.49115 0.52003 0.0
H886 H 0.03493 0.51421 0.46834 0.0
C887 C 0.01697 0.56674 0.40672 0.0
C888 C 0.03499 0.56688 0.38321 0.0
C889 C 0.0028 0.54695 0.43045 0.0
C890 C 0.01754 0.50744 0.48202 0.0
H891 H 0.94483 0.45484 0.6464 0.0
H892 H 0.96874 0.48907 0.60408 0.0
H893 H 0.02711 0.49252 0.53014 0.0
H894 H 0.04704 0.54413 0.35666 0.0
H895 H 0.02195 0.50946 0.39744 0.0
H896 H 0.96425 0.50623 0.47196 0.0
C897 C 0.97142 0.47377 0.60265 0.0
C898 C 0.01326 0.49536 0.51771 0.0
C899 C 0.95798 0.45426 0.62732 0.0
C900 C 0.03407 0.54493 0.37592 0.0
C901 C 0.01991 0.52513 0.39963 0.0
C902 C 0.97805 0.50328 0.48436 0.0
C903 C 0.98545 0.47201 0.57274 0.0
C904 C 0.99134 0.48716 0.53718 0.0
C905 C 0.0061 0.52699 0.4298 0.0
C906 C -2e-05 0.51151 0.46495 0.0
H907 H 0.97744 0.4171 0.59374 0.0
H908 H 0.0009 0.45101 0.55124 0.0
H909 H 0.95636 0.4844 0.53372 0.0
H910 H 0.01648 0.58309 0.41188 0.0
H911 H 0.99178 0.54866 0.45274 0.0
C912 C 0.46596 0.38333 0.93742 0.0
C913 C 0.46749 0.39752 0.96954 0.0
C914 C 0.472 0.39341 0.89992 0.0
C915 C 0.48579 0.4172 0.82085 0.0
H916 H 0.54199 0.48058 0.82717 0.0
C917 C 0.571 0.45004 0.73039 0.0
C918 C 0.58351 0.47387 0.71724 0.0
C919 C 0.54978 0.44161 0.75162 0.0
C920 C 0.526 0.46312 0.82459 0.0
H921 H 0.47399 0.43238 0.9879 0.0
H922 H 0.48289 0.44967 0.92222 0.0
H923 H 0.51641 0.46398 0.88398 0.0
H924 H 0.5832 0.50732 0.7143 0.0
H925 H 0.54627 0.49269 0.75276 0.0
H926 H 0.49714 0.41582 0.76224 0.0
C927 C 0.47821 0.43112 0.92574 0.0
C928 C 0.51114 0.45351 0.85727 0.0
C929 C 0.47281 0.4212 0.96333 0.0
C930 C 0.57379 0.48881 0.72393 0.0
C931 C 0.55275 0.48049 0.74596 0.0
C932 C 0.50096 0.42668 0.78839 0.0
C933 C 0.47928 0.4178 0.89384 0.0
C934 C 0.4914 0.42995 0.85648 0.0
C935 C 0.54089 0.45697 0.76079 0.0
C936 C 0.5217 0.44935 0.79055 0.0
H937 H 0.46217 0.3651 0.94177 0.0
H938 H 0.47278 0.38249 0.87652 0.0
H939 H 0.47036 0.39935 0.81856 0.0
H940 H 0.57809 0.43815 0.7254 0.0
H941 H 0.54117 0.42349 0.76306 0.0
C942 C 0.60939 0.08318 0.9332 0.0
C943 C 0.59445 0.07148 0.96518 0.0
C944 C 0.59981 0.07953 0.89535 0.0
C945 C 0.54084 0.06106 0.84911 0.0
H946 H 0.58011 0.08146 0.75534 0.0
C947 C 0.50879 0.08712 0.71106 0.0
C948 C 0.52406 0.11178 0.70476 0.0
C949 C 0.51655 0.07415 0.73376 0.0
C950 C 0.56879 0.07531 0.78114 0.0
H951 H 0.55847 0.04521 0.98303 0.0
H952 H 0.54198 0.03735 0.91683 0.0
H953 H 0.59487 0.07146 0.81422 0.0
H954 H 0.55998 0.14167 0.71348 0.0
H955 H 0.57373 0.11894 0.75196 0.0
H956 H 0.51498 0.06527 0.81598 0.0
C957 C 0.56082 0.05028 0.92065 0.0
C958 C 0.57732 0.06985 0.81511 0.0
C959 C 0.57028 0.0545 0.95859 0.0
C960 C 0.54785 0.12269 0.71811 0.0
C961 C 0.55575 0.10964 0.73992 0.0
C962 C 0.53214 0.06599 0.81495 0.0
C963 C 0.57514 0.0637 0.88868 0.0
C964 C 0.56399 0.06385 0.85022 0.0
C965 C 0.53986 0.08556 0.74951 0.0
C966 C 0.54647 0.07422 0.78121 0.0
H967 H 0.62804 0.09657 0.93781 0.0
H968 H 0.61152 0.09049 0.87197 0.0
H969 H 0.52997 0.05682 0.87528 0.0
H970 H 0.49034 0.07833 0.70116 0.0
H971 H 0.50398 0.0556 0.74077 0.0
C972 C 0.90669 0.42142 0.71756 0.0
C973 C 0.88192 0.41127 0.7113 0.0
C974 C 0.91924 0.44242 0.73968 0.0
C975 C 0.91651 0.49335 0.78397 0.0
H976 H 0.93979 0.47782 0.87789 0.0
C977 C 0.94157 0.52091 0.95871 0.0
C978 C 0.92327 0.52615 0.96611 0.0
C979 C 0.94563 0.51576 0.92064 0.0
C980 C 0.9342 0.48313 0.85164 0.0
H981 H 0.85123 0.41597 0.72034 0.0
H982 H 0.87319 0.45281 0.75834 0.0
H983 H 0.93039 0.45258 0.82065 0.0
H984 H 0.89574 0.5315 0.94006 0.0
H985 H 0.9017 0.52131 0.87404 0.0
H986 H 0.91989 0.5237 0.81505 0.0
C987 C 0.88291 0.44455 0.7464 0.0
C988 C 0.9287 0.46846 0.81871 0.0
C989 C 0.8703 0.42337 0.72499 0.0
C990 C 0.91018 0.52782 0.93475 0.0
C991 C 0.91373 0.52201 0.8968 0.0
C992 C 0.9225 0.50838 0.81669 0.0
C993 C 0.90729 0.45381 0.75515 0.0
C994 C 0.91877 0.47278 0.78526 0.0
C995 C 0.93077 0.51479 0.88949 0.0
C996 C 0.93025 0.50278 0.85172 0.0
H997 H 0.91604 0.41234 0.70755 0.0
H998 H 0.93803 0.4492 0.74613 0.0
H999 H 0.90909 0.49717 0.75829 0.0
H1000 H 0.95186 0.51952 0.9827 0.0
H1001 H 0.95945 0.51112 0.91617 0.0
C1002 C 0.44392 0.5664 0.79607 0.0
C1003 C 0.46878 0.5814 0.79303 0.0
C1004 C 0.4325 0.54444 0.77643 0.0
C1005 C 0.41142 0.51343 0.70585 0.0
H1006 H 0.44344 0.48069 0.66476 0.0
C1007 C 0.41691 0.47897 0.54923 0.0
C1008 C 0.39252 0.46657 0.53887 0.0
C1009 C 0.42377 0.48337 0.58852 0.0
C1010 C 0.4341 0.48941 0.67643 0.0
H1011 H 0.50158 0.58503 0.7695 0.0
H1012 H 0.48173 0.5475 0.733 0.0
H1013 H 0.45996 0.50665 0.72209 0.0
H1014 H 0.35623 0.44716 0.56123 0.0
H1015 H 0.36822 0.45527 0.63031 0.0
H1016 H 0.38597 0.49672 0.65972 0.0
C1017 C 0.47086 0.55193 0.75151 0.0
C1018 C 0.44367 0.50449 0.70905 0.0
C1019 C 0.48233 0.57358 0.7722 0.0
C1020 C 0.37514 0.45672 0.56853 0.0
C1021 C 0.382 0.46146 0.60796 0.0
C1022 C 0.40169 0.49809 0.67382 0.0
C1023 C 0.44563 0.53751 0.752 0.0
C1024 C 0.43303 0.51755 0.72317 0.0
C1025 C 0.40635 0.47577 0.61818 0.0
C1026 C 0.41343 0.4867 0.65773 0.0
H1027 H 0.43322 0.57209 0.81244 0.0
H1028 H 0.41321 0.53351 0.77886 0.0
H1029 H 0.40276 0.52332 0.71501 0.0
H1030 H 0.43066 0.4866 0.52681 0.0
H1031 H 0.44264 0.49454 0.59535 0.0
C1032 C 0.43087 0.87534 0.79662 0.0
C1033 C 0.41579 0.88503 0.79252 0.0
C1034 C 0.45286 0.88567 0.7771 0.0
C1035 C 0.48372 0.89467 0.70649 0.0
H1036 H 0.51676 0.95908 0.66387 0.0
C1037 C 0.53948 0.91357 0.56819 0.0
C1038 C 0.52972 0.92124 0.53861 0.0
C1039 C 0.53501 0.91592 0.60767 0.0
C1040 C 0.50796 0.94112 0.67595 0.0
H1041 H 0.41204 0.91373 0.76719 0.0
H1042 H 0.44972 0.9311 0.73106 0.0
H1043 H 0.49089 0.95026 0.72117 0.0
H1044 H 0.51005 0.93971 0.52662 0.0
H1045 H 0.50258 0.94415 0.59518 0.0
H1046 H 0.50015 0.88538 0.66069 0.0
C1047 C 0.44528 0.91607 0.75028 0.0
C1048 C 0.49294 0.93597 0.70858 0.0
C1049 C 0.42357 0.90608 0.77077 0.0
C1050 C 0.51763 0.9335 0.54901 0.0
C1051 C 0.5135 0.9362 0.58831 0.0
C1052 C 0.49895 0.89991 0.67439 0.0
C1053 C 0.45977 0.90538 0.75184 0.0
C1054 C 0.47976 0.9124 0.7232 0.0
C1055 C 0.52105 0.92632 0.61797 0.0
C1056 C 0.51042 0.92291 0.65771 0.0
H1057 H 0.42518 0.85917 0.81368 0.0
H1058 H 0.46383 0.87739 0.78024 0.0
H1059 H 0.47374 0.87621 0.71614 0.0
H1060 H 0.5488 0.904 0.56081 0.0
H1061 H 0.54115 0.90828 0.63 0.0
C1062 C 0.08792 0.51271 0.77125 0.0
C1063 C 0.10909 0.52623 0.79262 0.0
C1064 C 0.0778 0.52419 0.75041 0.0
C1065 C 0.09868 0.58369 0.70527 0.0
H1066 H 0.03397 0.55172 0.66378 0.0
C1067 C 0.07824 0.62036 0.56822 0.0
C1068 C 0.0706 0.60307 0.5384 0.0
C1069 C 0.07621 0.61337 0.60758 0.0
C1070 C 0.05201 0.56103 0.67554 0.0
H1071 H 0.13509 0.56173 0.81265 0.0
H1072 H 0.11664 0.58175 0.77868 0.0
H1073 H 0.04334 0.53504 0.721 0.0
H1074 H 0.05245 0.56499 0.52601 0.0
H1075 H 0.04856 0.55279 0.59442 0.0
H1076 H 0.10748 0.60927 0.65933 0.0
C1077 C 0.10835 0.56248 0.77607 0.0
C1078 C 0.05748 0.55138 0.70811 0.0
C1079 C 0.11882 0.55105 0.79593 0.0
C1080 C 0.05863 0.57867 0.54855 0.0
C1081 C 0.05626 0.57168 0.58777 0.0
C1082 C 0.09311 0.59349 0.67327 0.0
C1083 C 0.08847 0.54939 0.75124 0.0
C1084 C 0.08116 0.56203 0.72239 0.0
C1085 C 0.06617 0.589 0.61757 0.0
C1086 C 0.06999 0.58177 0.65704 0.0
H1087 H 0.08025 0.4935 0.76827 0.0
H1088 H 0.06265 0.51337 0.73154 0.0
H1089 H 0.11721 0.59235 0.71459 0.0
H1090 H 0.08758 0.63929 0.56108 0.0
H1091 H 0.08385 0.62708 0.63003 0.0
C1092 C 0.42725 0.55202 0.29668 0.0
C1093 C 0.41254 0.52707 0.295 0.0
C1094 C 0.449 0.56335 0.27642 0.0
C1095 C 0.48895 0.55172 0.20972 0.0
H1096 H 0.49575 0.60835 0.15785 0.0
C1097 C 0.51416 0.57675 0.04902 0.0
C1098 C 0.52677 0.60102 0.03807 0.0
C1099 C 0.50958 0.57026 0.08845 0.0
C1100 C 0.49462 0.59293 0.17264 0.0
H1101 H 0.40928 0.49409 0.27319 0.0
H1102 H 0.44644 0.51373 0.23566 0.0
H1103 H 0.46938 0.5921 0.2136 0.0
H1104 H 0.5462 0.6375 0.05957 0.0
H1105 H 0.53769 0.62616 0.12888 0.0
H1106 H 0.51274 0.55165 0.16568 0.0
C1107 C 0.44194 0.52477 0.25359 0.0
C1108 C 0.47943 0.58352 0.20494 0.0
C1109 C 0.42051 0.51341 0.27492 0.0
C1110 C 0.53652 0.61867 0.06734 0.0
C1111 C 0.53155 0.61218 0.10689 0.0
C1112 C 0.50385 0.56094 0.17682 0.0
C1113 C 0.45602 0.55001 0.2527 0.0
C1114 C 0.47571 0.56231 0.22326 0.0
C1115 C 0.51715 0.58795 0.11765 0.0
C1116 C 0.50623 0.58123 0.15726 0.0
H1117 H 0.42144 0.56284 0.31242 0.0
H1118 H 0.45968 0.5827 0.27783 0.0
H1119 H 0.4871 0.53575 0.22351 0.0
H1120 H 0.50655 0.56281 0.02692 0.0
H1121 H 0.49832 0.55147 0.09573 0.0
C1122 C 0.42061 0.93563 0.04612 0.0
C1123 C 0.39622 0.92398 0.03582 0.0
C1124 C 0.4275 0.93791 0.0854 0.0
C1125 C 0.43783 0.94224 0.1734 0.0
H1126 H 0.40555 0.87718 0.21304 0.0
C1127 C 0.4458 0.87511 0.29563 0.0
C1128 C 0.47064 0.88464 0.29312 0.0
C1129 C 0.43478 0.8858 0.27523 0.0
C1130 C 0.41447 0.89569 0.20356 0.0
H1131 H 0.35997 0.90749 0.05833 0.0
H1132 H 0.372 0.91105 0.12733 0.0
H1133 H 0.38926 0.88702 0.15706 0.0
H1134 H 0.50378 0.91336 0.26965 0.0
H1135 H 0.48462 0.93129 0.23194 0.0
H1136 H 0.46342 0.95078 0.21949 0.0
C1137 C 0.38577 0.91849 0.10495 0.0
C1138 C 0.40504 0.90131 0.17112 0.0
C1139 C 0.37889 0.91656 0.06555 0.0
C1140 C 0.48456 0.90585 0.27206 0.0
C1141 C 0.47348 0.91616 0.25062 0.0
C1142 C 0.4471 0.93672 0.20642 0.0
C1143 C 0.41009 0.92823 0.1151 0.0
C1144 C 0.41709 0.92437 0.15473 0.0
C1145 C 0.44828 0.90566 0.25057 0.0
C1146 C 0.43609 0.91308 0.22099 0.0
H1147 H 0.43434 0.9417 0.02367 0.0
H1148 H 0.44635 0.94539 0.09218 0.0
H1149 H 0.4474 0.96024 0.1615 0.0
H1150 H 0.43481 0.85881 0.31208 0.0
H1151 H 0.41548 0.87766 0.27725 0.0
C1152 C 0.07887 0.46003 0.06779 0.0
C1153 C 0.07148 0.46996 0.03804 0.0
C1154 C 0.07705 0.46506 0.10717 0.0
C1155 C 0.05349 0.49334 0.17572 0.0
H1156 H 0.11878 0.5268 0.21438 0.0
C1157 C 0.08951 0.5765 0.27409 0.0
C1158 C 0.11092 0.58414 0.29474 0.0
C1159 C 0.07935 0.55511 0.25269 0.0
C1160 C 0.10022 0.51703 0.2052 0.0
H1161 H 0.05396 0.49053 0.02584 0.0
H1162 H 0.05042 0.49896 0.09436 0.0
H1163 H 0.10883 0.50051 0.15862 0.0
H1164 H 0.13727 0.57472 0.3131 0.0
H1165 H 0.11869 0.53652 0.27839 0.0
H1166 H 0.04495 0.51028 0.22193 0.0
C1167 C 0.0578 0.48752 0.08757 0.0
C1168 C 0.09454 0.50189 0.17288 0.0
C1169 C 0.05999 0.48284 0.04831 0.0
C1170 C 0.12083 0.56917 0.29689 0.0
C1171 C 0.11029 0.54744 0.27657 0.0
C1172 C 0.05906 0.50819 0.20866 0.0
C1173 C 0.06742 0.47973 0.11728 0.0
C1174 C 0.07138 0.49064 0.15683 0.0
C1175 C 0.09019 0.54074 0.25232 0.0
C1176 C 0.08277 0.52106 0.22287 0.0
H1177 H 0.08782 0.45008 0.06058 0.0
H1178 H 0.08448 0.45873 0.12957 0.0
H1179 H 0.03542 0.48474 0.16405 0.0
H1180 H 0.08167 0.58793 0.27202 0.0
H1181 H 0.06402 0.55086 0.23434 0.0
C1182 C 0.54671 0.42215 0.23657 0.0
C1183 C 0.52447 0.41255 0.21752 0.0
C1184 C 0.55631 0.44388 0.25652 0.0
C1185 C 0.53613 0.48067 0.30807 0.0
H1186 H 0.60385 0.51586 0.33337 0.0
C1187 C 0.6075 0.53969 0.44034 0.0
C1188 C 0.59252 0.52561 0.471 0.0
C1189 C 0.59908 0.53543 0.40156 0.0
C1190 C 0.58494 0.50689 0.3263 0.0
H1191 H 0.49529 0.41881 0.20313 0.0
H1192 H 0.51249 0.45739 0.23694 0.0
H1193 H 0.59049 0.49116 0.27517 0.0
H1194 H 0.55624 0.49813 0.48577 0.0
H1195 H 0.54195 0.49017 0.41924 0.0
H1196 H 0.53059 0.49665 0.35893 0.0
C1197 C 0.52236 0.44786 0.23691 0.0
C1198 C 0.5772 0.49228 0.29306 0.0
C1199 C 0.51263 0.42589 0.21702 0.0
C1200 C 0.56843 0.50894 0.46268 0.0
C1201 C 0.56009 0.5046 0.42421 0.0
C1202 C 0.54393 0.49576 0.34082 0.0
C1203 C 0.54405 0.45682 0.25786 0.0
C1204 C 0.55257 0.47764 0.28513 0.0
C1205 C 0.57558 0.51696 0.39281 0.0
C1206 C 0.56826 0.5077 0.35199 0.0
H1207 H 0.5564 0.41242 0.23733 0.0
H1208 H 0.57277 0.44973 0.27276 0.0
H1209 H 0.51703 0.46997 0.30282 0.0
H1210 H 0.62607 0.5529 0.44594 0.0
H1211 H 0.61138 0.54579 0.37832 0.0
C1212 C 0.45719 0.05895 0.44402 0.0
C1213 C 0.46309 0.08242 0.45373 0.0
C1214 C 0.46249 0.05385 0.40663 0.0
C1215 C 0.48819 0.08142 0.30856 0.0
H1216 H 0.5276 0.05238 0.3254 0.0
C1217 C 0.58636 0.10453 0.26388 0.0
C1218 C 0.58678 0.10726 0.22306 0.0
C1219 C 0.56467 0.09272 0.28398 0.0
C1220 C 0.51637 0.06017 0.3199 0.0
H1221 H 0.47754 0.11857 0.43203 0.0
H1222 H 0.48668 0.10988 0.36701 0.0
H1223 H 0.49843 0.04782 0.37476 0.0
H1224 H 0.56495 0.09946 0.1709 0.0
H1225 H 0.52653 0.079 0.20646 0.0
H1226 H 0.50781 0.0955 0.25512 0.0
C1227 C 0.47763 0.09518 0.3875 0.0
C1228 C 0.49943 0.05739 0.34807 0.0
C1229 C 0.47243 0.10024 0.4248 0.0
C1230 C 0.56502 0.09729 0.20237 0.0
C1231 C 0.54313 0.08575 0.22269 0.0
C1232 C 0.50518 0.08421 0.28034 0.0
C1233 C 0.47392 0.07222 0.37858 0.0
C1234 C 0.48607 0.0691 0.34378 0.0
C1235 C 0.54279 0.08365 0.26382 0.0
C1236 C 0.52035 0.07473 0.28685 0.0
H1237 H 0.45038 0.04506 0.46624 0.0
H1238 H 0.45918 0.03594 0.40061 0.0
H1239 H 0.47788 0.09031 0.30402 0.0
H1240 H 0.60292 0.11205 0.28046 0.0
H1241 H 0.56509 0.0918 0.31566 0.0
C1242 C 0.86861 0.44593 0.23489 0.0
C1243 C 0.88116 0.46791 0.21507 0.0
C1244 C 0.88084 0.43629 0.2544 0.0
C1245 C 0.93861 0.45618 0.3032 0.0
H1246 H 0.90565 0.38871 0.33017 0.0
C1247 C 0.9353 0.42519 0.45808 0.0
C1248 C 0.92746 0.40109 0.46696 0.0
C1249 C 0.9394 0.4332 0.41944 0.0
C1250 C 0.91572 0.40754 0.32258 0.0
H1251 H 0.91653 0.49662 0.19903 0.0
H1252 H 0.93808 0.47934 0.23206 0.0
H1253 H 0.89367 0.40181 0.27234 0.0
H1254 H 0.92062 0.36715 0.44289 0.0
H1255 H 0.92835 0.38127 0.3749 0.0
H1256 H 0.96084 0.46188 0.35321 0.0
C1257 C 0.91867 0.46969 0.23293 0.0
C1258 C 0.90849 0.41514 0.28957 0.0
C1259 C 0.90632 0.47947 0.21352 0.0
C1260 C 0.92635 0.38576 0.43679 0.0
C1261 C 0.93057 0.39384 0.39782 0.0
C1262 C 0.94625 0.44851 0.33569 0.0
C1263 C 0.90607 0.44825 0.25451 0.0
C1264 C 0.91864 0.43971 0.28117 0.0
C1265 C 0.9359 0.41735 0.38846 0.0
C1266 C 0.93371 0.42431 0.34751 0.0
H1267 H 0.8492 0.43647 0.2365 0.0
H1268 H 0.87037 0.42005 0.27121 0.0
H1269 H 0.94717 0.47524 0.29753 0.0
H1270 H 0.93685 0.43762 0.48086 0.0
H1271 H 0.94337 0.45138 0.41399 0.0
C1272 C 0.29935 0.38711 0.30489 0.0
C1273 C 0.31704 0.40373 0.33039 0.0
C1274 C 0.30174 0.36856 0.2884 0.0
C1275 C 0.33745 0.33772 0.29196 0.0
H1276 H 0.33573 0.341 0.17852 0.0
C1277 C 0.39848 0.33775 0.16137 0.0
C1278 C 0.40169 0.31856 0.17249 0.0
C1279 C 0.37987 0.34016 0.17737 0.0
C1280 C 0.336 0.33961 0.21015 0.0
H1281 H 0.34984 0.41255 0.36141 0.0
H1282 H 0.3541 0.38044 0.33256 0.0
H1283 H 0.318 0.35956 0.21819 0.0
H1284 H 0.38658 0.28564 0.20642 0.0
H1285 H 0.3541 0.28995 0.23443 0.0
H1286 H 0.35703 0.31933 0.28393 0.0
C1287 C 0.33837 0.38165 0.32525 0.0
C1288 C 0.32564 0.35004 0.23292 0.0
C1289 C 0.33605 0.40023 0.34157 0.0
C1290 C 0.38474 0.30078 0.1975 0.0
C1291 C 0.36618 0.30326 0.21367 0.0
C1292 C 0.34776 0.32725 0.26919 0.0
C1293 C 0.32173 0.36619 0.29737 0.0
C1294 C 0.32724 0.35014 0.27404 0.0
C1295 C 0.3641 0.32344 0.20487 0.0
C1296 C 0.34809 0.32905 0.22808 0.0
H1297 H 0.28434 0.38915 0.2959 0.0
H1298 H 0.2885 0.35672 0.26735 0.0
H1299 H 0.33867 0.33727 0.3236 0.0
H1300 H 0.41104 0.35162 0.14188 0.0
H1301 H 0.37889 0.35603 0.17018 0.0
C1302 C 0.5964 0.93414 0.33796 0.0
C1303 C 0.59311 0.91164 0.32721 0.0
C1304 C 0.6146 0.95502 0.32083 0.0
C1305 C 0.65802 0.99799 0.28552 0.0
H1306 H 0.65288 0.99169 0.17228 0.0
C1307 C 0.69478 0.08113 0.18825 0.0
C1308 C 0.67666 0.08045 0.16428 0.0
C1309 C 0.6921 0.06008 0.20477 0.0
C1310 C 0.6548 0.9937 0.20383 0.0
H1311 H 0.60776 0.89361 0.29276 0.0
H1312 H 0.63947 0.93013 0.2628 0.0
H1313 H 0.63492 0.95584 0.21315 0.0
H1314 H 0.64272 0.05694 0.13573 0.0
H1315 H 0.63804 0.02034 0.16455 0.0
H1316 H 0.67646 0.03587 0.27625 0.0
C1317 C 0.62777 0.93152 0.28412 0.0
C1318 C 0.6447 0.97318 0.22726 0.0
C1319 C 0.60963 0.91063 0.30142 0.0
C1320 C 0.65688 0.05811 0.15439 0.0
C1321 C 0.65429 0.03709 0.17069 0.0
C1322 C 0.66821 0.01851 0.26208 0.0
C1323 C 0.62986 0.95381 0.29257 0.0
C1324 C 0.64533 0.97516 0.26836 0.0
C1325 C 0.6714 0.03798 0.1973 0.0
C1326 C 0.66579 0.01655 0.22106 0.0
H1327 H 0.58414 0.93557 0.35799 0.0
H1328 H 0.61564 0.97192 0.32778 0.0
H1329 H 0.65897 1e-05 0.31711 0.0
H1330 H 0.71036 0.09803 0.19622 0.0
H1331 H 0.70569 0.06123 0.22482 0.0
C1332 C 0.08247 0.69513 0.30343 0.0
C1333 C 0.08196 0.67811 0.32988 0.0
C1334 C 0.06125 0.69194 0.28676 0.0
C1335 C 0.99469 0.65508 0.29135 0.0
H1336 H -0.00085 0.65587 0.17789 0.0
C1337 C 0.90998 0.6072 0.19712 0.0
C1338 C 0.91073 0.59038 0.17173 0.0
C1339 C 0.93107 0.62556 0.21361 0.0
C1340 C -0.00237 0.65582 0.20952 0.0
H1341 H 0.05861 0.64571 0.36235 0.0
H1342 H 0.02175 0.64006 0.33318 0.0
H1343 H 0.03566 0.67437 0.21711 0.0
H1344 H 0.93437 0.58097 0.14105 0.0
H1345 H 0.971 0.61279 0.16987 0.0
H1346 H 0.95666 0.63503 0.28378 0.0
C1347 C 0.03848 0.65587 0.32525 0.0
C1348 C 0.01854 0.66662 0.23203 0.0
C1349 C 0.05967 0.65899 0.34176 0.0
C1350 C 0.93312 0.59346 0.16078 0.0
C1351 C 0.95418 0.61187 0.17708 0.0
C1352 C 0.97378 0.64432 0.26883 0.0
C1353 C 0.03912 0.67181 0.29646 0.0
C1354 C 0.01727 0.66547 0.2732 0.0
C1355 C 0.95331 0.62758 0.20475 0.0
C1356 C 0.97506 0.64369 0.22773 0.0
H1357 H 0.09934 0.71019 0.29387 0.0
H1358 H 0.06224 0.70468 0.26503 0.0
H1359 H 0.99318 0.65418 0.32302 0.0
H1360 H 0.89302 0.60544 0.20598 0.0
H1361 H 0.9299 0.6376 0.2345 0.0
C1362 C 0.60907 0.69509 0.80604 0.0
C1363 C 0.59195 0.67687 0.83026 0.0
C1364 C 0.62783 0.69297 0.7898 0.0
C1365 C 0.65826 0.65686 0.79174 0.0
H1366 H 0.65641 0.66096 0.67843 0.0
C1367 C 0.65872 0.59787 0.65873 0.0
C1368 C 0.67765 0.59419 0.66972 0.0
C1369 C 0.65651 0.61643 0.67538 0.0
C1370 C 0.65742 0.66005 0.71004 0.0
H1371 H 0.58244 0.64334 0.85939 0.0
H1372 H 0.61495 0.63955 0.83093 0.0
H1373 H 0.63761 0.67813 0.71888 0.0
H1374 H 0.71036 0.60848 0.70408 0.0
H1375 H 0.70637 0.64087 0.73329 0.0
H1376 H 0.67649 0.6372 0.7828 0.0
C1377 C 0.61395 0.65549 0.82445 0.0
C1378 C 0.64685 0.67007 0.73326 0.0
C1379 C 0.59515 0.65755 0.84054 0.0
C1380 C 0.69543 0.61069 0.69523 0.0
C1381 C 0.69313 0.6292 0.71209 0.0
C1382 C 0.66889 0.6469 0.76851 0.0
C1383 C 0.62992 0.6727 0.79772 0.0
C1384 C 0.64621 0.66759 0.77428 0.0
C1385 C 0.67317 0.63168 0.70344 0.0
C1386 C 0.66758 0.64744 0.7274 0.0
H1387 H 0.60728 0.71036 0.79782 0.0
H1388 H 0.64006 0.70664 0.76967 0.0
H1389 H 0.65828 0.65496 0.8233 0.0
H1390 H 0.64488 0.58566 0.63885 0.0
H1391 H 0.64081 0.61774 0.66829 0.0
C1392 C 0.30244 0.91119 0.8025 0.0
C1393 C 0.31979 0.91207 0.82859 0.0
C1394 C 0.30501 0.93226 0.78621 0.0
C1395 C 0.34046 -0.00118 0.79159 0.0
H1396 H 0.33923 0.995 0.67803 0.0
C1397 C 0.38599 0.08418 0.69892 0.0
C1398 C 0.40294 0.08416 0.67293 0.0
C1399 C 0.36804 0.06273 0.71512 0.0
C1400 C 0.3394 0.99633 0.7097 0.0
H1401 H 0.35216 0.93585 0.8608 0.0
H1402 H 0.35674 0.97244 0.83227 0.0
H1403 H 0.3218 0.95831 0.71674 0.0
H1404 H 0.41299 0.06143 0.64088 0.0
H1405 H 0.38191 0.02418 0.66927 0.0
H1406 H 0.35959 0.03688 0.78457 0.0
C1407 C 0.34114 0.95554 0.82435 0.0
C1408 C 0.3292 0.97531 0.73192 0.0
C1409 C 0.33863 0.93451 0.84048 0.0
C1410 C 0.40037 0.06212 0.66107 0.0
C1411 C 0.3824 0.0407 0.67714 0.0
C1412 C 0.35062 0.01984 0.76937 0.0
C1413 C 0.32485 0.95458 0.79593 0.0
C1414 C 0.33053 0.97638 0.77309 0.0
C1415 C 0.3666 0.04086 0.70544 0.0
C1416 C 0.35109 0.01882 0.72821 0.0
H1417 H 0.28758 0.89419 0.79293 0.0
H1418 H 0.29202 0.93101 0.76477 0.0
H1419 H 0.34147 0.00017 0.82327 0.0
H1420 H 0.38731 0.10084 0.70843 0.0
H1421 H 0.35591 0.06336 0.73645 0.0
C1422 C 0.93381 0.33863 0.65905 0.0
C1423 C 0.91135 0.31928 0.66964 0.0
C1424 C 0.95474 0.34133 0.67599 0.0
C1425 C 0.97352 0.32875 0.7687 0.0
H1426 H 0.03585 0.36034 0.71844 0.0
C1427 C 0.08189 0.38686 0.80547 0.0
C1428 C 0.08121 0.40363 0.83105 0.0
C1429 C 0.06078 0.36863 0.78881 0.0
C1430 C 0.0186 0.35103 0.73297 0.0
H1431 H 0.89339 0.28651 0.70391 0.0
H1432 H 0.93003 0.29135 0.73359 0.0
H1433 H -0.00031 0.3422 0.67834 0.0
H1434 H 0.05764 0.41295 0.86216 0.0
H1435 H 0.02097 0.3814 0.833 0.0
H1436 H 0.99243 0.33853 0.82334 0.0
C1437 C 0.93136 0.30452 0.71247 0.0
C1438 C -0.0021 0.34085 0.70995 0.0
C1439 C 0.9104 0.30173 0.69532 0.0
C1440 C 0.05884 0.40053 0.84223 0.0
C1441 C 0.03776 0.38226 0.82573 0.0
C1442 C 0.99422 0.33899 0.79173 0.0
C1443 C 0.95364 0.32477 0.70396 0.0
C1444 C 0.97517 0.33049 0.7276 0.0
C1445 C 0.0386 0.36672 0.79767 0.0
C1446 C 0.01696 0.3511 0.77408 0.0
H1447 H 0.9352 0.35234 0.63911 0.0
H1448 H 0.97161 0.35725 0.66904 0.0
H1449 H 0.95627 0.32099 0.78321 0.0
H1450 H 0.09882 0.38859 0.79648 0.0
H1451 H 0.06192 0.3567 0.76767 0.0
C1452 C 0.44206 0.17558 0.80925 0.0
C1453 C 0.46618 0.18539 0.79829 0.0
C1454 C 0.43607 0.18169 0.84515 0.0
C1455 C 0.46353 0.21473 0.93929 0.0
H1456 H 0.40714 0.22159 0.94027 0.0
C1457 C 0.45002 0.26718 0.06332 0.0
C1458 C 0.44203 0.28281 0.05096 0.0
C1459 C 0.44805 0.24898 0.03845 0.0
C1460 C 0.4231 0.21999 0.9405 0.0
H1461 H 0.50293 0.20928 0.81593 0.0
H1462 H 0.49267 0.22123 0.87696 0.0
H1463 H 0.41457 0.20314 0.88448 0.0
H1464 H 0.42458 0.29077 0.00357 0.0
H1465 H 0.42221 0.26028 0.96004 0.0
H1466 H 0.4733 0.23378 0.99346 0.0
C1467 C 0.47822 0.20794 0.85916 0.0
C1468 C 0.42716 0.20892 0.9086 0.0
C1469 C 0.48418 0.20131 0.82384 0.0
C1470 C 0.43091 0.27906 0.01417 0.0
C1471 C 0.42934 0.26127 0.98914 0.0
C1472 C 0.45982 0.22643 0.97067 0.0
C1473 C 0.45406 0.19829 0.87039 0.0
C1474 C 0.44786 0.20682 0.9069 0.0
C1475 C 0.43841 0.24631 1.00044 0.0
C1476 C 0.43997 0.22997 0.97107 0.0
H1477 H 0.42784 0.16299 0.79022 0.0
H1478 H 0.4173 0.17342 0.85292 0.0
H1479 H 0.47922 0.2127 0.93993 0.0
H1480 H 0.45843 0.26943 0.0917 0.0
H1481 H 0.45471 0.23749 0.04867 0.0
C1482 C 0.71342 0.14789 0.00601 0.0
C1483 C 0.71043 0.15587 0.04277 0.0
C1484 C 0.73083 0.16364 0.97995 0.0
C1485 C 0.76567 0.22865 0.95875 0.0
H1486 H 0.78727 0.20542 0.87202 0.0
C1487 C 0.78959 0.27726 0.81132 0.0
C1488 C 0.8059 0.27569 0.78599 0.0
C1489 C 0.78268 0.26427 0.84622 0.0
C1490 C 0.78192 0.21254 0.89625 0.0
H1491 H 0.7248 0.18627 0.08231 0.0
H1492 H 0.75606 0.21367 0.03744 0.0
H1493 H 0.76954 0.1802 0.92892 0.0
H1494 H 0.82828 0.25981 0.77758 0.0
H1495 H 0.81717 0.2379 0.83958 0.0
H1496 H 0.77908 0.2614 0.92698 0.0
C1497 C 0.74426 0.19538 0.02808 0.0
C1498 C 0.77128 0.19781 0.92881 0.0
C1499 C 0.72646 0.17963 0.05401 0.0
C1500 C 0.81546 0.2611 0.79646 0.0
C1501 C 0.80899 0.2485 0.83198 0.0
C1502 C 0.77689 0.24362 0.92669 0.0
C1503 C 0.74614 0.1878 0.99012 0.0
C1504 C 0.76197 0.20521 0.95969 0.0
C1505 C 0.79238 0.2498 0.85731 0.0
C1506 C 0.78418 0.23538 0.89415 0.0
H1507 H 0.70142 0.12971 0.99625 0.0
H1508 H 0.73123 0.15702 0.95097 0.0
H1509 H 0.7588 0.23516 0.98171 0.0
H1510 H 0.78175 0.28821 0.80377 0.0
H1511 H 0.7693 0.26526 0.86403 0.0
C1512 C 0.8465 0.57217 0.02265 0.0
C1513 C 0.8364 0.55268 0.04878 0.0
C1514 C 0.83217 0.57527 0.99531 0.0
C1515 C 0.76927 0.55387 0.96416 0.0
H1516 H 0.79634 0.56232 0.85983 0.0
C1517 C 0.71153 0.52147 0.82478 0.0
C1518 C 0.72023 0.53466 0.78984 0.0
C1519 C 0.72563 0.52825 0.85856 0.0
C1520 C 0.78863 0.56045 0.88874 0.0
H1521 H 0.80302 0.52231 0.06886 0.0
H1522 H 0.77804 0.52753 0.02074 0.0
H1523 H 0.82094 0.56673 0.91659 0.0
H1524 H 0.75036 0.56589 0.76355 0.0
H1525 H 0.77495 0.57781 0.82275 0.0
H1526 H 0.73666 0.54683 0.93595 0.0
C1527 C 0.79704 0.54052 0.02153 0.0
C1528 C 0.80277 0.563 0.92138 0.0
C1529 C 0.81138 0.53748 0.04909 0.0
C1530 C 0.74316 0.55521 0.78984 0.0
C1531 C 0.75728 0.56201 0.82374 0.0
C1532 C 0.75511 0.55136 0.93143 0.0
C1533 C 0.80743 0.5589 0.99334 0.0
C1534 C 0.79313 0.55925 0.95943 0.0
C1535 C 0.74878 0.54843 0.85835 0.0
C1536 C 0.76449 0.55409 0.8933 0.0
H1537 H 0.86568 0.58442 0.02207 0.0
H1538 H 0.84063 0.58994 0.97459 0.0
H1539 H 0.76142 0.55117 0.99311 0.0
H1540 H 0.69395 0.50556 0.82598 0.0
H1541 H 0.71866 0.51716 0.88449 0.0
C1542 C 0.26711 0.45411 0.44319 0.0
C1543 C 0.2796 0.44199 0.452 0.0
C1544 C 0.24936 0.45263 0.4685 0.0
C1545 C 0.21299 0.42148 0.5571 0.0
H1546 H 0.22398 0.48488 0.58227 0.0
C1547 C 0.18779 0.44591 0.70591 0.0
C1548 C 0.18048 0.46313 0.70627 0.0
C1549 C 0.19501 0.4401 0.67089 0.0
C1550 C 0.22026 0.46695 0.57521 0.0
H1551 H 0.28171 0.41709 0.49251 0.0
H1552 H 0.25115 0.41484 0.53677 0.0
H1553 H 0.24417 0.47966 0.52641 0.0
H1554 H 0.17365 0.48667 0.66968 0.0
H1555 H 0.18589 0.47632 0.60883 0.0
H1556 H 0.18965 0.40902 0.60702 0.0
C1557 C 0.25491 0.42541 0.51028 0.0
C1558 C 0.23183 0.46393 0.54302 0.0
C1559 C 0.2726 0.42683 0.48495 0.0
C1560 C 0.17953 0.4736 0.67062 0.0
C1561 C 0.1866 0.46771 0.63569 0.0
C1562 C 0.20139 0.42451 0.58942 0.0
C1563 C 0.24376 0.43902 0.50315 0.0
C1564 C 0.2287 0.44126 0.53398 0.0
C1565 C 0.19494 0.45131 0.63551 0.0
C1566 C 0.20525 0.44737 0.59922 0.0
H1567 H 0.27181 0.46568 0.41782 0.0
H1568 H 0.24074 0.46296 0.46176 0.0
H1569 H 0.21 0.40374 0.55064 0.0
H1570 H 0.1887 0.43747 0.73283 0.0
H1571 H 0.20156 0.42755 0.67184 0.0
C1572 C 0.51966 0.70419 0.67102 0.0
C1573 C 0.53077 0.7157 0.70629 0.0
C1574 C 0.52557 0.71688 0.63578 0.0
C1575 C 0.57007 0.77371 0.58781 0.0
H1576 H 0.51535 0.76263 0.52473 0.0
C1577 C 0.57014 0.84282 0.48103 0.0
C1578 C 0.55477 0.83477 0.44834 0.0
C1579 C 0.57108 0.82647 0.50678 0.0
C1580 C 0.53094 0.76563 0.54138 0.0
H1581 H 0.55746 0.74947 0.73185 0.0
H1582 H 0.56743 0.77179 0.67034 0.0
H1583 H 0.50936 0.73765 0.58158 0.0
H1584 H 0.53027 0.80329 0.41489 0.0
H1585 H 0.5321 0.77473 0.45962 0.0
H1586 H 0.59151 0.80232 0.54806 0.0
C1587 C 0.55436 0.75282 0.66992 0.0
C1588 C 0.52749 0.7513 0.57414 0.0
C1589 C 0.54853 0.74007 0.70525 0.0
C1590 C 0.54201 0.81009 0.44008 0.0
C1591 C 0.54297 0.79371 0.46584 0.0
C1592 C 0.57354 0.78809 0.55493 0.0
C1593 C 0.54264 0.74144 0.6349 0.0
C1594 C 0.54692 0.75542 0.59817 0.0
C1595 C 0.55674 0.80169 0.50034 0.0
C1596 C 0.55393 0.78449 0.53177 0.0
H1597 H 0.50614 0.68536 0.67057 0.0
H1598 H 0.51653 0.70747 0.60923 0.0
H1599 H 0.58546 0.7771 0.6054 0.0
H1600 H 0.58041 0.86173 0.48815 0.0
H1601 H 0.58181 0.83326 0.53311 0.0
C1602 C 0.28323 0.79556 0.67908 0.0
C1603 C 0.28144 0.81128 0.70544 0.0
C1604 C 0.27012 0.78905 0.64425 0.0
C1605 C 0.21753 0.78833 0.59712 0.0
H1606 H 0.23842 0.76469 0.51005 0.0
C1607 C 0.1506 0.71955 0.49021 0.0
C1608 C 0.15791 0.71606 0.4532 0.0
C1609 C 0.1669 0.73715 0.51547 0.0
C1610 C 0.23238 0.77171 0.53348 0.0
H1611 H 0.26537 0.83336 0.71555 0.0
H1612 H 0.24346 0.82314 0.65368 0.0
H1613 H 0.2657 0.78511 0.56357 0.0
H1614 H 0.1876 0.72981 0.41225 0.0
H1615 H 0.21591 0.76145 0.45564 0.0
H1616 H 0.18467 0.77606 0.56607 0.0
C1617 C 0.25416 0.81495 0.66043 0.0
C1618 C 0.24796 0.78301 0.56486 0.0
C1619 C 0.26679 0.82093 0.69588 0.0
C1620 C 0.1815 0.73184 0.44081 0.0
C1621 C 0.19778 0.74986 0.4659 0.0
C1622 C 0.20222 0.77767 0.56521 0.0
C1623 C 0.25537 0.79864 0.63428 0.0
C1624 C 0.24037 0.79047 0.598 0.0
C1625 C 0.19093 0.75218 0.50419 0.0
C1626 C 0.20897 0.76813 0.5338 0.0
H1627 H 0.29425 0.78771 0.68593 0.0
H1628 H 0.27114 0.77595 0.62576 0.0
H1629 H 0.21085 0.79378 0.62183 0.0
H1630 H 0.13259 0.70772 0.50084 0.0
H1631 H 0.16081 0.73786 0.54474 0.0
C1632 C 0.54522 0.72904 0.93913 0.0
C1633 C 0.55333 0.71351 0.95146 0.0
C1634 C 0.54748 0.74745 0.96376 0.0
C1635 C 0.57299 0.77684 0.06134 0.0
H1636 H 0.51641 0.78335 0.06299 0.0
C1637 C 0.55338 0.82012 0.19375 0.0
C1638 C 0.52923 0.81007 0.20461 0.0
C1639 C 0.55952 0.81419 0.1578 0.0
C1640 C 0.53224 0.78154 0.06333 0.0
H1641 H 0.57144 0.70603 0.99839 0.0
H1642 H 0.57429 0.73686 0.04154 0.0
H1643 H 0.52244 0.76264 0.00905 0.0
H1644 H 0.49256 0.78584 0.18693 0.0
H1645 H 0.50308 0.77417 0.1259 0.0
H1646 H 0.58152 0.7935 0.11753 0.0
C1647 C 0.56682 0.73564 0.01265 0.0
C1648 C 0.53601 0.77006 0.0317 0.0
C1649 C 0.56496 0.71763 0.98785 0.0
C1650 C 0.51134 0.79399 0.17908 0.0
C1651 C 0.51745 0.78754 0.14374 0.0
C1652 C 0.56885 0.78768 0.09351 0.0
C1653 C 0.55752 0.75043 0.00151 0.0
C1654 C 0.55601 0.76676 0.03093 0.0
C1655 C 0.54163 0.79755 0.13245 0.0
C1656 C 0.54796 0.78943 0.09564 0.0
H1657 H 0.53644 0.72652 0.91103 0.0
H1658 H 0.54065 0.75882 0.95363 0.0
H1659 H 0.58906 0.77546 0.06127 0.0
H1660 H 0.5675 0.83284 0.21278 0.0
H1661 H 0.5783 0.82269 0.15003 0.0
C1662 C 0.27135 0.81062 0.94255 0.0
C1663 C 0.28298 0.83539 0.94997 0.0
C1664 C 0.25381 0.79443 0.96827 0.0
C1665 C 0.21619 0.78948 0.05491 0.0
H1666 H 0.22914 0.73906 0.08524 0.0
C1667 C 0.19002 0.74196 0.20565 0.0
C1668 C 0.18342 0.71762 0.20736 0.0
C1669 C 0.19759 0.75458 0.17026 0.0
C1670 C 0.22489 0.75271 0.07675 0.0
H1671 H 0.28376 0.86265 0.98835 0.0
H1672 H 0.25355 0.83452 0.0333 0.0
H1673 H 0.24937 0.76381 0.02871 0.0
H1674 H 0.17826 0.68712 0.17268 0.0
H1675 H 0.1911 0.709 0.11118 0.0
H1676 H 0.19223 0.77872 0.10401 0.0
C1677 C 0.25784 0.82752 0.0076 0.0
C1678 C 0.23648 0.7669 0.04417 0.0
C1679 C 0.27533 0.84368 0.98189 0.0
C1680 C 0.18357 0.70595 0.17261 0.0
C1681 C 0.19099 0.7185 0.1373 0.0
C1682 C 0.20456 0.77524 0.0876 0.0
C1683 C 0.24754 0.80269 0.00191 0.0
C1684 C 0.23261 0.78573 0.03324 0.0
C1685 C 0.19858 0.74308 0.13584 0.0
C1686 C 0.2091 0.75694 0.09926 0.0
H1687 H 0.27662 0.8036 0.91805 0.0
H1688 H 0.24585 0.77541 0.96264 0.0
H1689 H 0.21263 0.80369 0.04699 0.0
H1690 H 0.19008 0.75148 0.23185 0.0
H1691 H 0.20353 0.77356 0.17023 0.0
C1692 C 0.18313 0.45606 0.94343 0.0
C1693 C 0.15845 0.44348 0.95181 0.0
C1694 C 0.19947 0.45492 0.96905 0.0
C1695 C 0.22787 0.46641 0.04424 0.0
H1696 H 0.21586 0.41141 0.10738 0.0
C1697 C 0.25376 0.44773 0.20704 0.0
C1698 C 0.27822 0.46521 0.20786 0.0
C1699 C 0.24085 0.44214 0.17189 0.0
C1700 C 0.21941 0.42693 0.09004 0.0
H1701 H 0.13144 0.41811 0.99185 0.0
H1702 H 0.15986 0.4164 0.0366 0.0
H1703 H 0.19042 0.40597 0.05062 0.0
H1704 H 0.30858 0.48958 0.17192 0.0
H1705 H 0.28618 0.47962 0.11086 0.0
H1706 H 0.25625 0.48752 0.08413 0.0
C1707 C 0.16666 0.4271 0.01024 0.0
C1708 C 0.20489 0.42381 0.0575 0.0
C1709 C 0.15034 0.42822 0.98463 0.0
C1710 C 0.28968 0.47627 0.17252 0.0
C1711 C 0.27683 0.47061 0.13746 0.0
C1712 C 0.24234 0.46952 0.07667 0.0
C1713 C 0.19146 0.44115 0.00355 0.0
C1714 C 0.2087 0.4436 0.03466 0.0
C1715 C 0.25216 0.45385 0.13683 0.0
C1716 C 0.23803 0.44991 0.10038 0.0
H1717 H 0.18996 0.46775 0.91819 0.0
H1718 H 0.21845 0.46559 0.96267 0.0
H1719 H 0.23103 0.48212 0.02783 0.0
H1720 H 0.24438 0.43884 0.2337 0.0
H1721 H 0.22181 0.42932 0.17251 0.0
C1722 C 0.80695 0.55348 0.29077 0.0
C1723 C 0.80853 0.53249 0.29099 0.0
C1724 C 0.7999 0.56068 0.32444 0.0
C1725 C 0.79069 0.55051 0.43191 0.0
H1726 H 0.74105 0.56683 0.41512 0.0
C1727 C 0.72064 0.53852 0.54807 0.0
C1728 C 0.71091 0.55376 0.54688 0.0
C1729 C 0.73806 0.54121 0.5209 0.0
C1730 C 0.75528 0.56287 0.42046 0.0
H1731 H 0.80466 0.50305 0.3273 0.0
H1732 H 0.79199 0.51538 0.38559 0.0
H1733 H 0.76121 0.56165 0.35913 0.0
H1734 H 0.71352 0.58525 0.51895 0.0
H1735 H 0.74423 0.59024 0.47216 0.0
H1736 H 0.78406 0.55094 0.49339 0.0
C1737 C 0.79652 0.52647 0.35959 0.0
C1738 C 0.76684 0.55986 0.38826 0.0
C1739 C 0.80358 0.51928 0.32598 0.0
C1740 C 0.72037 0.57296 0.52019 0.0
C1741 C 0.7379 0.57576 0.49326 0.0
C1742 C 0.77911 0.55354 0.46422 0.0
C1743 C 0.79427 0.54706 0.35906 0.0
C1744 C 0.7843 0.55314 0.39355 0.0
C1745 C 0.74619 0.55932 0.49223 0.0
C1746 C 0.76092 0.55927 0.45879 0.0
H1747 H 0.81084 0.56422 0.26445 0.0
H1748 H 0.7986 0.5768 0.32326 0.0
H1749 H 0.80434 0.54568 0.43692 0.0
H1750 H 0.71375 0.52358 0.56831 0.0
H1751 H 0.74396 0.52815 0.52083 0.0
C1752 C 0.43754 0.25475 0.29693 0.0
C1753 C 0.45918 0.27678 0.29611 0.0
C1754 C 0.4299 0.24124 0.33141 0.0
C1755 C 0.44073 0.24407 0.43909 0.0
H1756 H 0.42065 0.17684 0.42647 0.0
C1757 C 0.4526 0.18661 0.55629 0.0
C1758 C 0.43683 0.1617 0.55615 0.0
C1759 C 0.44949 0.20129 0.52959 0.0
C1760 C 0.42565 0.19543 0.43069 0.0
H1761 H 0.48938 0.30215 0.33135 0.0
H1762 H 0.47633 0.27841 0.39098 0.0
H1763 H 0.42637 0.20124 0.36896 0.0
H1764 H 0.40385 0.13307 0.5314 0.0
H1765 H 0.39815 0.15875 0.4855 0.0
H1766 H 0.44093 0.23831 0.50097 0.0
C1767 C 0.46504 0.27174 0.36521 0.0
C1768 C 0.42897 0.20946 0.39759 0.0
C1769 C 0.47265 0.28525 0.33082 0.0
C1770 C 0.41656 0.15215 0.53171 0.0
C1771 C 0.41335 0.16684 0.50528 0.0
C1772 C 0.43742 0.22999 0.47231 0.0
C1773 C 0.44374 0.24943 0.36581 0.0
C1774 C 0.43712 0.23406 0.40131 0.0
C1775 C 0.43044 0.19135 0.50253 0.0
C1776 C 0.43037 0.20563 0.46839 0.0
H1777 H 0.4266 0.24778 0.27085 0.0
H1778 H 0.41326 0.22425 0.33104 0.0
H1779 H 0.44664 0.2629 0.44295 0.0
H1780 H 0.46838 0.19454 0.57483 0.0
H1781 H 0.46303 0.2201 0.52823 0.0
C1782 C 0.71549 0.18588 0.32311 0.0
C1783 C 0.72417 0.18251 0.28724 0.0
C1784 C 0.72995 0.19319 0.35642 0.0
C1785 C 0.79316 0.22635 0.3846 0.0
H1786 H 0.76701 0.20692 0.48935 0.0
C1787 C 0.85027 0.27454 0.51837 0.0
C1788 C 0.8393 0.28303 0.54446 0.0
C1789 C 0.8366 0.25681 0.491 0.0
C1790 C 0.77457 0.21248 0.46029 0.0
H1791 H 0.7547 0.18334 0.25877 0.0
H1792 H 0.78004 0.19608 0.31729 0.0
H1793 H 0.7425 0.18562 0.43247 0.0
H1794 H 0.80515 0.27814 0.56443 0.0
H1795 H 0.78129 0.24733 0.5163 0.0
H1796 H 0.82491 0.25364 0.41216 0.0
C1797 C 0.76203 0.19328 0.31933 0.0
C1798 C 0.76056 0.20032 0.42772 0.0
C1799 C 0.7475 0.18593 0.28584 0.0
C1800 C 0.81416 0.27205 0.54467 0.0
C1801 C 0.80047 0.25432 0.51714 0.0
C1802 C 0.80718 0.23843 0.41711 0.0
C1803 C 0.7535 0.1973 0.35487 0.0
C1804 C 0.76947 0.20756 0.38947 0.0
C1805 C 0.81167 0.24719 0.48905 0.0
C1806 C 0.79784 0.23202 0.45528 0.0
H1807 H 0.69759 0.18335 0.32544 0.0
H1808 H 0.72291 0.19649 0.38306 0.0
H1809 H 0.80049 0.23263 0.35561 0.0
H1810 H 0.86958 0.28236 0.51785 0.0
H1811 H 0.84568 0.25131 0.47029 0.0
loop_
_geom_bond_atom_site_label_1
_geom_bond_atom_site_label_2
_geom_bond_distance
_geom_bond_site_symmetry_2
_ccdc_geom_bond_type
C0 O27 1.312 . S
C0 O28 1.208 . S
C1 O22 1.331 . S
C1 O25 1.244 1_556 S
C2 O24 1.264 . S
C2 O26 1.273 . S
Mg3 O5 1.936 . S
Mg3 O12 2.081 . S
Mg3 O14 2.023 . S
Mg3 O18 2.031 . S
Mg3 O27 2.291 . S
Mg4 O5 1.963 . S
Mg4 O15 1.942 . S
Mg4 O16 1.955 . S
Mg4 O23 1.986 . S
O5 Mg3 1.936 . S
O5 Mg4 1.963 . S
O5 Mg6 1.915 . S
Mg6 O5 1.915 . S
Mg6 O7 1.915 . S
Mg6 O11 2.013 . S
Mg6 O17 2.114 . S
Mg6 O21 2.013 . S
Mg6 O27 2.114 . S
O7 Mg6 1.915 . S
O7 Mg8 1.936 . S
O7 Mg9 1.963 . S
Mg8 O7 1.936 . S
Mg8 O17 2.291 . S
Mg8 O22 2.081 1_554 S
Mg8 O24 2.023 . S
Mg8 O28 2.031 . S
Mg9 O7 1.963 . S
Mg9 O13 1.986 . S
Mg9 O25 1.942 . S
Mg9 O26 1.955 . S
C10 O21 1.191 . S
C10 O23 1.307 . S
O11 Mg6 2.013 . S
O11 C30 1.191 . S
O12 Mg3 2.081 . S
O12 C20 1.331 . S
O13 Mg9 1.986 . S
O13 C30 1.307 . S
O14 Mg3 2.023 . S
O14 C29 1.264 . S
O15 Mg4 1.942 . S
O15 C20 1.244 . S
O16 Mg4 1.955 . S
O16 C29 1.273 . S
O17 Mg6 2.114 . S
O17 Mg8 2.291 . S
O17 C19 1.312 . S
O18 Mg3 2.031 . S
O18 C19 1.208 . S
C19 O17 1.312 . S
C19 O18 1.208 . S
C20 O12 1.331 . S
C20 O15 1.244 . S
O21 Mg6 2.013 . S
O21 C10 1.191 . S
O22 C1 1.331 . S
O22 Mg8 2.081 1_556 S
O23 Mg4 1.986 . S
O23 C10 1.307 . S
O24 C2 1.264 . S
O24 Mg8 2.023 . S
O25 C1 1.244 1_554 S
O25 Mg9 1.942 . S
O26 C2 1.273 . S
O26 Mg9 1.955 . S
O27 C0 1.312 . S
O27 Mg3 2.291 . S
O27 Mg6 2.114 . S
O28 C0 1.208 . S
O28 Mg8 2.031 . S
C29 O14 1.264 . S
C29 O16 1.273 . S
C30 O11 1.191 . S
C30 O13 1.307 . S
C31 O58 1.312 . S
C31 O59 1.208 . S
C32 O53 1.331 . S
C32 O56 1.244 1_556 S
C33 O55 1.264 . S
C33 O57 1.273 . S
Mg34 O36 1.936 . S
Mg34 O43 2.081 . S
Mg34 O45 2.023 . S
Mg34 O49 2.031 . S
Mg34 O58 2.291 . S
Mg35 O36 1.963 . S
Mg35 O46 1.942 . S
Mg35 O47 1.955 . S
Mg35 O54 1.986 . S
O36 Mg34 1.936 . S
O36 Mg35 1.963 . S
O36 Mg37 1.915 . S
Mg37 O36 1.915 . S
Mg37 O38 1.915 . S
Mg37 O42 2.013 . S
Mg37 O48 2.114 . S
Mg37 O52 2.013 . S
Mg37 O58 2.114 . S
O38 Mg37 1.915 . S
O38 Mg39 1.936 . S
O38 Mg40 1.963 . S
Mg39 O38 1.936 . S
Mg39 O48 2.291 . S
Mg39 O53 2.081 1_554 S
Mg39 O55 2.023 . S
Mg39 O59 2.031 . S
Mg40 O38 1.963 . S
Mg40 O44 1.986 . S
Mg40 O56 1.942 . S
Mg40 O57 1.955 . S
C41 O52 1.191 . S
C41 O54 1.307 . S
O42 Mg37 2.013 . S
O42 C61 1.191 . S
O43 Mg34 2.081 . S
O43 C51 1.331 . S
O44 Mg40 1.986 . S
O44 C61 1.307 . S
O45 Mg34 2.023 . S
O45 C60 1.264 . S
O46 Mg35 1.942 . S
O46 C51 1.244 . S
O47 Mg35 1.955 . S
O47 C60 1.273 . S
O48 Mg37 2.114 . S
O48 Mg39 2.291 . S
O48 C50 1.312 . S
O49 Mg34 2.031 . S
O49 C50 1.208 . S
C50 O48 1.312 . S
C50 O49 1.208 . S
C51 O43 1.331 . S
C51 O46 1.244 . S
O52 Mg37 2.013 . S
O52 C41 1.191 . S
O53 C32 1.331 . S
O53 Mg39 2.081 1_556 S
O54 Mg35 1.986 . S
O54 C41 1.307 . S
O55 C33 1.264 . S
O55 Mg39 2.023 . S
O56 C32 1.244 1_554 S
O56 Mg40 1.942 . S
O57 C33 1.273 . S
O57 Mg40 1.955 . S
O58 C31 1.312 . S
O58 Mg34 2.291 . S
O58 Mg37 2.114 . S
O59 C31 1.208 . S
O59 Mg39 2.031 . S
C60 O45 1.264 . S
C60 O47 1.273 . S
C61 O42 1.191 . S
C61 O44 1.307 . S
C62 O89 1.312 . S
C62 O90 1.208 . S
C63 O84 1.331 . S
C63 O87 1.244 . S
C64 O86 1.264 . S
C64 O88 1.273 . S
Mg65 O67 1.936 . S
Mg65 O74 2.081 1_554 S
Mg65 O76 2.023 . S
Mg65 O80 2.031 . S
Mg65 O89 2.291 . S
Mg66 O67 1.963 . S
Mg66 O77 1.942 . S
Mg66 O78 1.955 . S
Mg66 O85 1.986 . S
O67 Mg65 1.936 . S
O67 Mg66 1.963 . S
O67 Mg68 1.915 . S
Mg68 O67 1.915 . S
Mg68 O69 1.915 . S
Mg68 O73 2.013 . S
Mg68 O79 2.114 . S
Mg68 O83 2.013 . S
Mg68 O89 2.114 . S
O69 Mg68 1.915 . S
O69 Mg70 1.936 . S
O69 Mg71 1.963 . S
Mg70 O69 1.936 . S
Mg70 O79 2.291 . S
Mg70 O84 2.081 . S
Mg70 O86 2.023 . S
Mg70 O90 2.031 . S
Mg71 O69 1.963 . S
Mg71 O75 1.986 . S
Mg71 O87 1.942 . S
Mg71 O88 1.955 . S
C72 O83 1.191 . S
C72 O85 1.307 . S
O73 Mg68 2.013 . S
O73 C92 1.191 . S
O74 Mg65 2.081 1_556 S
O74 C82 1.331 . S
O75 Mg71 1.986 . S
O75 C92 1.307 . S
O76 Mg65 2.023 . S
O76 C91 1.264 . S
O77 Mg66 1.942 . S
O77 C82 1.244 1_554 S
O78 Mg66 1.955 . S
O78 C91 1.273 . S
O79 Mg68 2.114 . S
O79 Mg70 2.291 . S
O79 C81 1.312 . S
O80 Mg65 2.031 . S
O80 C81 1.208 . S
C81 O79 1.312 . S
C81 O80 1.208 . S
C82 O74 1.331 . S
C82 O77 1.244 1_556 S
O83 Mg68 2.013 . S
O83 C72 1.191 . S
O84 C63 1.331 . S
O84 Mg70 2.081 . S
O85 Mg66 1.986 . S
O85 C72 1.307 . S
O86 C64 1.264 . S
O86 Mg70 2.023 . S
O87 C63 1.244 . S
O87 Mg71 1.942 . S
O88 C64 1.273 . S
O88 Mg71 1.955 . S
O89 C62 1.312 . S
O89 Mg65 2.291 . S
O89 Mg68 2.114 . S
O90 C62 1.208 . S
O90 Mg70 2.031 . S
C91 O76 1.264 . S
C91 O78 1.273 . S
C92 O73 1.191 . S
C92 O75 1.307 . S
C93 O120 1.312 . S
C93 O121 1.208 . S
C94 O115 1.331 . S
C94 O118 1.244 . S
C95 O117 1.264 . S
C95 O119 1.273 . S
Mg96 O98 1.936 . S
Mg96 O105 2.081 . S
Mg96 O107 2.023 . S
Mg96 O111 2.031 . S
Mg96 O120 2.291 . S
Mg97 O98 1.963 . S
Mg97 O108 1.942 . S
Mg97 O109 1.955 . S
Mg97 O116 1.986 . S
O98 Mg96 1.936 . S
O98 Mg97 1.963 . S
O98 Mg99 1.915 . S
Mg99 O98 1.915 . S
Mg99 O100 1.915 . S
Mg99 O104 2.013 . S
Mg99 O110 2.114 . S
Mg99 O114 2.013 . S
Mg99 O120 2.114 . S
O100 Mg99 1.915 . S
O100 Mg101 1.936 . S
O100 Mg102 1.963 . S
Mg101 O100 1.936 . S
Mg101 O110 2.291 . S
Mg101 O115 2.081 . S
Mg101 O117 2.023 . S
Mg101 O121 2.031 . S
Mg102 O100 1.963 . S
Mg102 O106 1.986 . S
Mg102 O118 1.942 . S
Mg102 O119 1.955 . S
C103 O114 1.191 . S
C103 O116 1.307 . S
O104 Mg99 2.013 . S
O104 C123 1.191 . S
O105 Mg96 2.081 . S
O105 C113 1.331 . S
O106 Mg102 1.986 . S
O106 C123 1.307 . S
O107 Mg96 2.023 . S
O107 C122 1.264 . S
O108 Mg97 1.942 . S
O108 C113 1.244 . S
O109 Mg97 1.955 . S
O109 C122 1.273 . S
O110 Mg99 2.114 . S
O110 Mg101 2.291 . S
O110 C112 1.312 . S
O111 Mg96 2.031 . S
O111 C112 1.208 . S
C112 O110 1.312 . S
C112 O111 1.208 . S
C113 O105 1.331 . S
C113 O108 1.244 . S
O114 Mg99 2.013 . S
O114 C103 1.191 . S
O115 C94 1.331 . S
O115 Mg101 2.081 . S
O116 Mg97 1.986 . S
O116 C103 1.307 . S
O117 C95 1.264 . S
O117 Mg101 2.023 . S
O118 C94 1.244 . S
O118 Mg102 1.942 . S
O119 C95 1.273 . S
O119 Mg102 1.955 . S
O120 C93 1.312 . S
O120 Mg96 2.291 . S
O120 Mg99 2.114 . S
O121 C93 1.208 . S
O121 Mg101 2.031 . S
C122 O107 1.264 . S
C122 O109 1.273 . S
C123 O104 1.191 . S
C123 O106 1.307 . S
C124 O151 1.312 . S
C124 O152 1.208 . S
C125 O146 1.331 . S
C125 O149 1.244 . S
C126 O148 1.264 . S
C126 O150 1.273 . S
Mg127 O129 1.936 . S
Mg127 O136 2.081 . S
Mg127 O138 2.023 . S
Mg127 O142 2.031 . S
Mg127 O151 2.291 . S
Mg128 O129 1.963 . S
Mg128 O139 1.942 . S
Mg128 O140 1.955 . S
Mg128 O147 1.986 . S
O129 Mg127 1.936 . S
O129 Mg128 1.963 . S
O129 Mg130 1.915 . S
Mg130 O129 1.915 . S
Mg130 O131 1.915 . S
Mg130 O135 2.013 . S
Mg130 O141 2.114 . S
Mg130 O145 2.013 . S
Mg130 O151 2.114 . S
O131 Mg130 1.915 . S
O131 Mg132 1.936 . S
O131 Mg133 1.963 . S
Mg132 O131 1.936 . S
Mg132 O141 2.291 . S
Mg132 O146 2.081 . S
Mg132 O148 2.023 . S
Mg132 O152 2.031 . S
Mg133 O131 1.963 . S
Mg133 O137 1.986 . S
Mg133 O149 1.942 . S
Mg133 O150 1.955 . S
C134 O145 1.191 . S
C134 O147 1.307 . S
O135 Mg130 2.013 . S
O135 C154 1.191 . S
O136 Mg127 2.081 . S
O136 C144 1.331 . S
O137 Mg133 1.986 . S
O137 C154 1.307 . S
O138 Mg127 2.023 . S
O138 C153 1.264 . S
O139 Mg128 1.942 . S
O139 C144 1.244 . S
O140 Mg128 1.955 . S
O140 C153 1.273 . S
O141 Mg130 2.114 . S
O141 Mg132 2.291 . S
O141 C143 1.312 . S
O142 Mg127 2.031 . S
O142 C143 1.208 . S
C143 O141 1.312 . S
C143 O142 1.208 . S
C144 O136 1.331 . S
C144 O139 1.244 . S
O145 Mg130 2.013 . S
O145 C134 1.191 . S
O146 C125 1.331 . S
O146 Mg132 2.081 . S
O147 Mg128 1.986 . S
O147 C134 1.307 . S
O148 C126 1.264 . S
O148 Mg132 2.023 . S
O149 C125 1.244 . S
O149 Mg133 1.942 . S
O150 C126 1.273 . S
O150 Mg133 1.955 . S
O151 C124 1.312 . S
O151 Mg127 2.291 . S
O151 Mg130 2.114 . S
O152 C124 1.208 . S
O152 Mg132 2.031 . S
C153 O138 1.264 . S
C153 O140 1.273 . S
C154 O135 1.191 . S
C154 O137 1.307 . S
C155 O182 1.312 . S
C155 O183 1.208 . S
C156 O177 1.331 . S
C156 O180 1.244 . S
C157 O179 1.264 . S
C157 O181 1.273 . S
Mg158 O160 1.936 . S
Mg158 O167 2.081 . S
Mg158 O169 2.023 . S
Mg158 O173 2.031 . S
Mg158 O182 2.291 . S
Mg159 O160 1.963 . S
Mg159 O170 1.942 . S
Mg159 O171 1.955 . S
Mg159 O178 1.986 . S
O160 Mg158 1.936 . S
O160 Mg159 1.963 . S
O160 Mg161 1.915 . S
Mg161 O160 1.915 . S
Mg161 O162 1.915 . S
Mg161 O166 2.013 . S
Mg161 O172 2.114 . S
Mg161 O176 2.013 . S
Mg161 O182 2.114 . S
O162 Mg161 1.915 . S
O162 Mg163 1.936 . S
O162 Mg164 1.963 . S
Mg163 O162 1.936 . S
Mg163 O172 2.291 . S
Mg163 O177 2.081 . S
Mg163 O179 2.023 . S
Mg163 O183 2.031 . S
Mg164 O162 1.963 . S
Mg164 O168 1.986 . S
Mg164 O180 1.942 . S
Mg164 O181 1.955 . S
C165 O176 1.191 . S
C165 O178 1.307 . S
O166 Mg161 2.013 . S
O166 C185 1.191 . S
O167 Mg158 2.081 . S
O167 C175 1.331 . S
O168 Mg164 1.986 . S
O168 C185 1.307 . S
O169 Mg158 2.023 . S
O169 C184 1.264 . S
O170 Mg159 1.942 . S
O170 C175 1.244 . S
O171 Mg159 1.955 . S
O171 C184 1.273 . S
O172 Mg161 2.114 . S
O172 Mg163 2.291 . S
O172 C174 1.312 . S
O173 Mg158 2.031 . S
O173 C174 1.208 . S
C174 O172 1.312 . S
C174 O173 1.208 . S
C175 O167 1.331 . S
C175 O170 1.244 . S
O176 Mg161 2.013 . S
O176 C165 1.191 . S
O177 C156 1.331 . S
O177 Mg163 2.081 . S
O178 Mg159 1.986 . S
O178 C165 1.307 . S
O179 C157 1.264 . S
O179 Mg163 2.023 . S
O180 C156 1.244 . S
O180 Mg164 1.942 . S
O181 C157 1.273 . S
O181 Mg164 1.955 . S
O182 C155 1.312 . S
O182 Mg158 2.291 . S
O182 Mg161 2.114 . S
O183 C155 1.208 . S
O183 Mg163 2.031 . S
C184 O169 1.264 . S
C184 O171 1.273 . S
C185 O166 1.191 . S
C185 O168 1.307 . S
C186 O213 1.312 . S
C186 O214 1.208 . S
C187 O208 1.331 . S
C187 O211 1.244 1_554 S
C188 O210 1.264 . S
C188 O212 1.273 . S
Mg189 O191 1.936 . S
Mg189 O198 2.081 . S
Mg189 O200 2.023 . S
Mg189 O204 2.031 . S
Mg189 O213 2.291 . S
Mg190 O191 1.963 . S
Mg190 O201 1.942 . S
Mg190 O202 1.955 . S
Mg190 O209 1.986 . S
O191 Mg189 1.936 . S
O191 Mg190 1.963 . S
O191 Mg192 1.915 . S
Mg192 O191 1.915 . S
Mg192 O193 1.915 . S
Mg192 O197 2.013 . S
Mg192 O203 2.114 . S
Mg192 O207 2.013 . S
Mg192 O213 2.114 . S
O193 Mg192 1.915 . S
O193 Mg194 1.936 . S
O193 Mg195 1.963 . S
Mg194 O193 1.936 . S
Mg194 O203 2.291 . S
Mg194 O208 2.081 1_556 S
Mg194 O210 2.023 . S
Mg194 O214 2.031 . S
Mg195 O193 1.963 . S
Mg195 O199 1.986 . S
Mg195 O211 1.942 . S
Mg195 O212 1.955 . S
C196 O207 1.191 . S
C196 O209 1.307 . S
O197 Mg192 2.013 . S
O197 C216 1.191 . S
O198 Mg189 2.081 . S
O198 C206 1.331 . S
O199 Mg195 1.986 . S
O199 C216 1.307 . S
O200 Mg189 2.023 . S
O200 C215 1.264 . S
O201 Mg190 1.942 . S
O201 C206 1.244 . S
O202 Mg190 1.955 . S
O202 C215 1.273 . S
O203 Mg192 2.114 . S
O203 Mg194 2.291 . S
O203 C205 1.312 . S
O204 Mg189 2.031 . S
O204 C205 1.208 . S
C205 O203 1.312 . S
C205 O204 1.208 . S
C206 O198 1.331 . S
C206 O201 1.244 . S
O207 Mg192 2.013 . S
O207 C196 1.191 . S
O208 C187 1.331 . S
O208 Mg194 2.081 1_554 S
O209 Mg190 1.986 . S
O209 C196 1.307 . S
O210 C188 1.264 . S
O210 Mg194 2.023 . S
O211 C187 1.244 1_556 S
O211 Mg195 1.942 . S
O212 C188 1.273 . S
O212 Mg195 1.955 . S
O213 C186 1.312 . S
O213 Mg189 2.291 . S
O213 Mg192 2.114 . S
O214 C186 1.208 . S
O214 Mg194 2.031 . S
C215 O200 1.264 . S
C215 O202 1.273 . S
C216 O197 1.191 . S
C216 O199 1.307 . S
C217 O244 1.312 . S
C217 O245 1.208 . S
C218 O239 1.331 . S
C218 O242 1.244 . S
C219 O241 1.264 . S
C219 O243 1.273 . S
Mg220 O222 1.936 . S
Mg220 O229 2.081 1_556 S
Mg220 O231 2.023 . S
Mg220 O235 2.031 . S
Mg220 O244 2.291 . S
Mg221 O222 1.963 . S
Mg221 O232 1.942 . S
Mg221 O233 1.955 . S
Mg221 O240 1.986 . S
O222 Mg220 1.936 . S
O222 Mg221 1.963 . S
O222 Mg223 1.915 . S
Mg223 O222 1.915 . S
Mg223 O224 1.915 . S
Mg223 O228 2.013 . S
Mg223 O234 2.114 . S
Mg223 O238 2.013 . S
Mg223 O244 2.114 . S
O224 Mg223 1.915 . S
O224 Mg225 1.936 . S
O224 Mg226 1.963 . S
Mg225 O224 1.936 . S
Mg225 O234 2.291 . S
Mg225 O239 2.081 . S
Mg225 O241 2.023 . S
Mg225 O245 2.031 . S
Mg226 O224 1.963 . S
Mg226 O230 1.986 . S
Mg226 O242 1.942 . S
Mg226 O243 1.955 . S
C227 O238 1.191 . S
C227 O240 1.307 . S
O228 Mg223 2.013 . S
O228 C247 1.191 . S
O229 Mg220 2.081 1_554 S
O229 C237 1.331 . S
O230 Mg226 1.986 . S
O230 C247 1.307 . S
O231 Mg220 2.023 . S
O231 C246 1.264 . S
O232 Mg221 1.942 . S
O232 C237 1.244 1_556 S
O233 Mg221 1.955 . S
O233 C246 1.273 . S
O234 Mg223 2.114 . S
O234 Mg225 2.291 . S
O234 C236 1.312 . S
O235 Mg220 2.031 . S
O235 C236 1.208 . S
C236 O234 1.312 . S
C236 O235 1.208 . S
C237 O229 1.331 . S
C237 O232 1.244 1_554 S
O238 Mg223 2.013 . S
O238 C227 1.191 . S
O239 C218 1.331 . S
O239 Mg225 2.081 . S
O240 Mg221 1.986 . S
O240 C227 1.307 . S
O241 C219 1.264 . S
O241 Mg225 2.023 . S
O242 C218 1.244 . S
O242 Mg226 1.942 . S
O243 C219 1.273 . S
O243 Mg226 1.955 . S
O244 C217 1.312 . S
O244 Mg220 2.291 . S
O244 Mg223 2.114 . S
O245 C217 1.208 . S
O245 Mg225 2.031 . S
C246 O231 1.264 . S
C246 O233 1.273 . S
C247 O228 1.191 . S
C247 O230 1.307 . S
C248 O275 1.312 . S
C248 O276 1.208 . S
C249 O270 1.331 . S
C249 O273 1.244 1_554 S
C250 O272 1.264 . S
C250 O274 1.273 . S
Mg251 O253 1.936 . S
Mg251 O260 2.081 . S
Mg251 O262 2.023 . S
Mg251 O266 2.031 . S
Mg251 O275 2.291 . S
Mg252 O253 1.963 . S
Mg252 O263 1.942 . S
Mg252 O264 1.955 . S
Mg252 O271 1.986 . S
O253 Mg251 1.936 . S
O253 Mg252 1.963 . S
O253 Mg254 1.915 . S
Mg254 O253 1.915 . S
Mg254 O255 1.915 . S
Mg254 O259 2.013 . S
Mg254 O265 2.114 . S
Mg254 O269 2.013 . S
Mg254 O275 2.114 . S
O255 Mg254 1.915 . S
O255 Mg256 1.936 . S
O255 Mg257 1.963 . S
Mg256 O255 1.936 . S
Mg256 O265 2.291 . S
Mg256 O270 2.081 1_556 S
Mg256 O272 2.023 . S
Mg256 O276 2.031 . S
Mg257 O255 1.963 . S
Mg257 O261 1.986 . S
Mg257 O273 1.942 . S
Mg257 O274 1.955 . S
C258 O269 1.191 . S
C258 O271 1.307 . S
O259 Mg254 2.013 . S
O259 C278 1.191 . S
O260 Mg251 2.081 . S
O260 C268 1.331 . S
O261 Mg257 1.986 . S
O261 C278 1.307 . S
O262 Mg251 2.023 . S
O262 C277 1.264 . S
O263 Mg252 1.942 . S
O263 C268 1.244 . S
O264 Mg252 1.955 . S
O264 C277 1.273 . S
O265 Mg254 2.114 . S
O265 Mg256 2.291 . S
O265 C267 1.312 . S
O266 Mg251 2.031 . S
O266 C267 1.208 . S
C267 O265 1.312 . S
C267 O266 1.208 . S
C268 O260 1.331 . S
C268 O263 1.244 . S
O269 Mg254 2.013 . S
O269 C258 1.191 . S
O270 C249 1.331 . S
O270 Mg256 2.081 1_554 S
O271 Mg252 1.986 . S
O271 C258 1.307 . S
O272 C250 1.264 . S
O272 Mg256 2.023 . S
O273 C249 1.244 1_556 S
O273 Mg257 1.942 . S
O274 C250 1.273 . S
O274 Mg257 1.955 . S
O275 C248 1.312 . S
O275 Mg251 2.291 . S
O275 Mg254 2.114 . S
O276 C248 1.208 . S
O276 Mg256 2.031 . S
C277 O262 1.264 . S
C277 O264 1.273 . S
C278 O259 1.191 . S
C278 O261 1.307 . S
C279 O306 1.312 . S
C279 O307 1.208 . S
C280 O301 1.331 . S
C280 O304 1.244 . S
C281 O303 1.264 . S
C281 O305 1.273 . S
Mg282 O284 1.936 . S
Mg282 O291 2.081 . S
Mg282 O293 2.023 . S
Mg282 O297 2.031 . S
Mg282 O306 2.291 . S
Mg283 O284 1.963 . S
Mg283 O294 1.942 . S
Mg283 O295 1.955 . S
Mg283 O302 1.986 . S
O284 Mg282 1.936 . S
O284 Mg283 1.963 . S
O284 Mg285 1.915 . S
Mg285 O284 1.915 . S
Mg285 O286 1.915 . S
Mg285 O290 2.013 . S
Mg285 O296 2.114 . S
Mg285 O300 2.013 . S
Mg285 O306 2.114 . S
O286 Mg285 1.915 . S
O286 Mg287 1.936 . S
O286 Mg288 1.963 . S
Mg287 O286 1.936 . S
Mg287 O296 2.291 . S
Mg287 O301 2.081 . S
Mg287 O303 2.023 . S
Mg287 O307 2.031 . S
Mg288 O286 1.963 . S
Mg288 O292 1.986 . S
Mg288 O304 1.942 . S
Mg288 O305 1.955 . S
C289 O300 1.191 . S
C289 O302 1.307 . S
O290 Mg285 2.013 . S
O290 C309 1.191 . S
O291 Mg282 2.081 . S
O291 C299 1.331 . S
O292 Mg288 1.986 . S
O292 C309 1.307 . S
O293 Mg282 2.023 . S
O293 C308 1.264 . S
O294 Mg283 1.942 . S
O294 C299 1.244 . S
O295 Mg283 1.955 . S
O295 C308 1.273 . S
O296 Mg285 2.114 . S
O296 Mg287 2.291 . S
O296 C298 1.312 . S
O297 Mg282 2.031 . S
O297 C298 1.208 . S
C298 O296 1.312 . S
C298 O297 1.208 . S
C299 O291 1.331 . S
C299 O294 1.244 . S
O300 Mg285 2.013 . S
O300 C289 1.191 . S
O301 C280 1.331 . S
O301 Mg287 2.081 . S
O302 Mg283 1.986 . S
O302 C289 1.307 . S
O303 C281 1.264 . S
O303 Mg287 2.023 . S
O304 C280 1.244 . S
O304 Mg288 1.942 . S
O305 C281 1.273 . S
O305 Mg288 1.955 . S
O306 C279 1.312 . S
O306 Mg282 2.291 . S
O306 Mg285 2.114 . S
O307 C279 1.208 . S
O307 Mg287 2.031 . S
C308 O293 1.264 . S
C308 O295 1.273 . S
C309 O290 1.191 . S
C309 O292 1.307 . S
C310 O337 1.312 . S
C310 O338 1.208 . S
C311 O332 1.331 . S
C311 O335 1.244 . S
C312 O334 1.264 . S
C312 O336 1.273 . S
Mg313 O315 1.936 . S
Mg313 O322 2.081 . S
Mg313 O324 2.023 . S
Mg313 O328 2.031 . S
Mg313 O337 2.291 . S
Mg314 O315 1.963 . S
Mg314 O325 1.942 . S
Mg314 O326 1.955 . S
Mg314 O333 1.986 . S
O315 Mg313 1.936 . S
O315 Mg314 1.963 . S
O315 Mg316 1.915 . S
Mg316 O315 1.915 . S
Mg316 O317 1.915 . S
Mg316 O321 2.013 . S
Mg316 O327 2.114 . S
Mg316 O331 2.013 . S
Mg316 O337 2.114 . S
O317 Mg316 1.915 . S
O317 Mg318 1.936 . S
O317 Mg319 1.963 . S
Mg318 O317 1.936 . S
Mg318 O327 2.291 . S
Mg318 O332 2.081 . S
Mg318 O334 2.023 . S
Mg318 O338 2.031 . S
Mg319 O317 1.963 . S
Mg319 O323 1.986 . S
Mg319 O335 1.942 . S
Mg319 O336 1.955 . S
C320 O331 1.191 . S
C320 O333 1.307 . S
O321 Mg316 2.013 . S
O321 C340 1.191 . S
O322 Mg313 2.081 . S
O322 C330 1.331 . S
O323 Mg319 1.986 . S
O323 C340 1.307 . S
O324 Mg313 2.023 . S
O324 C339 1.264 . S
O325 Mg314 1.942 . S
O325 C330 1.244 . S
O326 Mg314 1.955 . S
O326 C339 1.273 . S
O327 Mg316 2.114 . S
O327 Mg318 2.291 . S
O327 C329 1.312 . S
O328 Mg313 2.031 . S
O328 C329 1.208 . S
C329 O327 1.312 . S
C329 O328 1.208 . S
C330 O322 1.331 . S
C330 O325 1.244 . S
O331 Mg316 2.013 . S
O331 C320 1.191 . S
O332 C311 1.331 . S
O332 Mg318 2.081 . S
O333 Mg314 1.986 . S
O333 C320 1.307 . S
O334 C312 1.264 . S
O334 Mg318 2.023 . S
O335 C311 1.244 . S
O335 Mg319 1.942 . S
O336 C312 1.273 . S
O336 Mg319 1.955 . S
O337 C310 1.312 . S
O337 Mg313 2.291 . S
O337 Mg316 2.114 . S
O338 C310 1.208 . S
O338 Mg318 2.031 . S
C339 O324 1.264 . S
C339 O326 1.273 . S
C340 O321 1.191 . S
C340 O323 1.307 . S
C341 O368 1.312 . S
C341 O369 1.208 . S
C342 O363 1.331 . S
C342 O366 1.244 . S
C343 O365 1.264 . S
C343 O367 1.273 . S
Mg344 O346 1.936 . S
Mg344 O353 2.081 . S
Mg344 O355 2.023 . S
Mg344 O359 2.031 . S
Mg344 O368 2.291 . S
Mg345 O346 1.963 . S
Mg345 O356 1.942 . S
Mg345 O357 1.955 . S
Mg345 O364 1.986 . S
O346 Mg344 1.936 . S
O346 Mg345 1.963 . S
O346 Mg347 1.915 . S
Mg347 O346 1.915 . S
Mg347 O348 1.915 . S
Mg347 O352 2.013 . S
Mg347 O358 2.114 . S
Mg347 O362 2.013 . S
Mg347 O368 2.114 . S
O348 Mg347 1.915 . S
O348 Mg349 1.936 . S
O348 Mg350 1.963 . S
Mg349 O348 1.936 . S
Mg349 O358 2.291 . S
Mg349 O363 2.081 . S
Mg349 O365 2.023 . S
Mg349 O369 2.031 . S
Mg350 O348 1.963 . S
Mg350 O354 1.986 . S
Mg350 O366 1.942 . S
Mg350 O367 1.955 . S
C351 O362 1.191 . S
C351 O364 1.307 . S
O352 Mg347 2.013 . S
O352 C371 1.191 . S
O353 Mg344 2.081 . S
O353 C361 1.331 . S
O354 Mg350 1.986 . S
O354 C371 1.307 . S
O355 Mg344 2.023 . S
O355 C370 1.264 . S
O356 Mg345 1.942 . S
O356 C361 1.244 . S
O357 Mg345 1.955 . S
O357 C370 1.273 . S
O358 Mg347 2.114 . S
O358 Mg349 2.291 . S
O358 C360 1.312 . S
O359 Mg344 2.031 . S
O359 C360 1.208 . S
C360 O358 1.312 . S
C360 O359 1.208 . S
C361 O353 1.331 . S
C361 O356 1.244 . S
O362 Mg347 2.013 . S
O362 C351 1.191 . S
O363 C342 1.331 . S
O363 Mg349 2.081 . S
O364 Mg345 1.986 . S
O364 C351 1.307 . S
O365 C343 1.264 . S
O365 Mg349 2.023 . S
O366 C342 1.244 . S
O366 Mg350 1.942 . S
O367 C343 1.273 . S
O367 Mg350 1.955 . S
O368 C341 1.312 . S
O368 Mg344 2.291 . S
O368 Mg347 2.114 . S
O369 C341 1.208 . S
O369 Mg349 2.031 . S
C370 O355 1.264 . S
C370 O357 1.273 . S
C371 O352 1.191 . S
C371 O354 1.307 . S
C372 C373 1.349 . S
C372 C374 1.327 . S
C372 H397 0.950 . S
C373 C372 1.349 . S
C373 C389 1.349 . S
C374 C372 1.327 . S
C374 C393 1.429 . S
C374 H398 0.950 . S
C375 C392 1.574 . S
C375 C394 1.368 . S
C375 H399 0.949 . S
H376 C380 0.949 . S
C377 C378 1.349 . S
C377 C379 1.327 . S
C377 H400 0.950 . S
C378 C377 1.349 . S
C378 C390 1.349 . S
C379 C377 1.327 . S
C379 C395 1.429 . S
C379 H401 0.950 . S
C380 H376 0.949 . S
C380 C388 1.574 . S
C380 C396 1.368 . S
H381 C389 0.950 . S
H382 C387 0.950 . S
H383 C388 0.949 . S
H384 C390 0.950 . S
H385 C391 0.950 . S
H386 C392 0.949 . S
C387 H382 0.950 . S
C387 C389 1.327 . S
C387 C393 1.429 . S
C388 C380 1.574 . S
C388 H383 0.949 . S
C388 C394 1.368 . S
C389 C373 1.349 . S
C389 H381 0.950 . S
C389 C387 1.327 . S
C390 C378 1.349 . S
C390 H384 0.950 . S
C390 C391 1.327 . S
C391 H385 0.950 . S
C391 C390 1.327 . S
C391 C395 1.429 . S
C392 C375 1.574 . S
C392 H386 0.949 . S
C392 C396 1.368 . S
C393 C374 1.429 . S
C393 C387 1.429 . S
C393 C394 1.523 . S
C394 C375 1.368 . S
C394 C388 1.368 . S
C394 C393 1.523 . S
C395 C379 1.429 . S
C395 C391 1.429 . S
C395 C396 1.523 . S
C396 C380 1.368 . S
C396 C392 1.368 . S
C396 C395 1.523 . S
H397 C372 0.950 . S
H398 C374 0.950 . S
H399 C375 0.949 . S
H400 C377 0.950 . S
H401 C379 0.950 . S
C402 C403 1.349 . S
C402 C404 1.327 . S
C402 H427 0.950 . S
C403 C402 1.349 . S
C403 C419 1.349 . S
C404 C402 1.327 . S
C404 C423 1.429 . S
C404 H428 0.950 . S
C405 C422 1.574 . S
C405 C424 1.368 . S
C405 H429 0.949 . S
H406 C410 0.949 . S
C407 C408 1.349 . S
C407 C409 1.327 . S
C407 H430 0.950 . S
C408 C407 1.349 . S
C408 C420 1.349 . S
C409 C407 1.327 . S
C409 C425 1.429 . S
C409 H431 0.950 . S
C410 H406 0.949 . S
C410 C418 1.574 . S
C410 C426 1.368 . S
H411 C419 0.950 . S
H412 C417 0.950 . S
H413 C418 0.949 . S
H414 C420 0.950 . S
H415 C421 0.950 . S
H416 C422 0.949 . S
C417 H412 0.950 . S
C417 C419 1.327 . S
C417 C423 1.429 . S
C418 C410 1.574 . S
C418 H413 0.949 . S
C418 C424 1.368 . S
C419 C403 1.349 . S
C419 H411 0.950 . S
C419 C417 1.327 . S
C420 C408 1.349 . S
C420 H414 0.950 . S
C420 C421 1.327 . S
C421 H415 0.950 . S
C421 C420 1.327 . S
C421 C425 1.429 . S
C422 C405 1.574 . S
C422 H416 0.949 . S
C422 C426 1.368 . S
C423 C404 1.429 . S
C423 C417 1.429 . S
C423 C424 1.523 . S
C424 C405 1.368 . S
C424 C418 1.368 . S
C424 C423 1.523 . S
C425 C409 1.429 . S
C425 C421 1.429 . S
C425 C426 1.523 . S
C426 C410 1.368 . S
C426 C422 1.368 . S
C426 C425 1.523 . S
H427 C402 0.950 . S
H428 C404 0.950 . S
H429 C405 0.949 . S
H430 C407 0.950 . S
H431 C409 0.950 . S
C432 C433 1.349 . S
C432 C434 1.327 . S
C432 H457 0.950 . S
C433 C432 1.349 . S
C433 C449 1.349 . S
C434 C432 1.327 . S
C434 C453 1.429 . S
C434 H458 0.950 . S
C435 C452 1.574 . S
C435 C454 1.368 . S
C435 H459 0.949 . S
H436 C440 0.949 . S
C437 C438 1.349 . S
C437 C439 1.327 . S
C437 H460 0.950 . S
C438 C437 1.349 . S
C438 C450 1.349 . S
C439 C437 1.327 . S
C439 C455 1.429 . S
C439 H461 0.950 . S
C440 H436 0.949 . S
C440 C448 1.574 . S
C440 C456 1.368 . S
H441 C449 0.950 . S
H442 C447 0.950 . S
H443 C448 0.949 . S
H444 C450 0.950 . S
H445 C451 0.950 . S
H446 C452 0.949 . S
C447 H442 0.950 . S
C447 C449 1.327 . S
C447 C453 1.429 . S
C448 C440 1.574 . S
C448 H443 0.949 . S
C448 C454 1.368 . S
C449 C433 1.349 . S
C449 H441 0.950 . S
C449 C447 1.327 . S
C450 C438 1.349 . S
C450 H444 0.950 . S
C450 C451 1.327 . S
C451 H445 0.950 . S
C451 C450 1.327 . S
C451 C455 1.429 . S
C452 C435 1.574 . S
C452 H446 0.949 . S
C452 C456 1.368 . S
C453 C434 1.429 . S
C453 C447 1.429 . S
C453 C454 1.523 . S
C454 C435 1.368 . S
C454 C448 1.368 . S
C454 C453 1.523 . S
C455 C439 1.429 . S
C455 C451 1.429 . S
C455 C456 1.523 . S
C456 C440 1.368 . S
C456 C452 1.368 . S
C456 C455 1.523 . S
H457 C432 0.950 . S
H458 C434 0.950 . S
H459 C435 0.949 . S
H460 C437 0.950 . S
H461 C439 0.950 . S
C462 C463 1.349 . S
C462 C464 1.327 . S
C462 H487 0.950 . S
C463 C462 1.349 . S
C463 C479 1.349 . S
C464 C462 1.327 . S
C464 C483 1.429 . S
C464 H488 0.950 . S
C465 C482 1.574 . S
C465 C484 1.368 . S
C465 H489 0.949 . S
H466 C470 0.949 . S
C467 C468 1.349 . S
C467 C469 1.327 . S
C467 H490 0.950 . S
C468 C467 1.349 . S
C468 C480 1.349 . S
C469 C467 1.327 . S
C469 C485 1.429 . S
C469 H491 0.950 . S
C470 H466 0.949 . S
C470 C478 1.574 . S
C470 C486 1.368 . S
H471 C479 0.950 . S
H472 C477 0.950 . S
H473 C478 0.949 . S
H474 C480 0.950 . S
H475 C481 0.950 . S
H476 C482 0.949 . S
C477 H472 0.950 . S
C477 C479 1.327 . S
C477 C483 1.429 . S
C478 C470 1.574 . S
C478 H473 0.949 . S
C478 C484 1.368 . S
C479 C463 1.349 . S
C479 H471 0.950 . S
C479 C477 1.327 . S
C480 C468 1.349 . S
C480 H474 0.950 . S
C480 C481 1.327 . S
C481 H475 0.950 . S
C481 C480 1.327 . S
C481 C485 1.429 . S
C482 C465 1.574 . S
C482 H476 0.949 . S
C482 C486 1.368 . S
C483 C464 1.429 . S
C483 C477 1.429 . S
C483 C484 1.523 . S
C484 C465 1.368 . S
C484 C478 1.368 . S
C484 C483 1.523 . S
C485 C469 1.429 . S
C485 C481 1.429 . S
C485 C486 1.523 . S
C486 C470 1.368 . S
C486 C482 1.368 . S
C486 C485 1.523 . S
H487 C462 0.950 . S
H488 C464 0.950 . S
H489 C465 0.949 . S
H490 C467 0.950 . S
H491 C469 0.950 . S
C492 C493 1.349 . S
C492 C494 1.327 . S
C492 H517 0.950 . S
C493 C492 1.349 . S
C493 C509 1.349 . S
C494 C492 1.327 . S
C494 C513 1.429 . S
C494 H518 0.950 . S
C495 C512 1.574 . S
C495 C514 1.368 . S
C495 H519 0.949 . S
H496 C500 0.949 . S
C497 C498 1.349 . S
C497 C499 1.327 . S
C497 H520 0.950 . S
C498 C497 1.349 . S
C498 C510 1.349 . S
C499 C497 1.327 . S
C499 C515 1.429 . S
C499 H521 0.950 . S
C500 H496 0.949 . S
C500 C508 1.574 . S
C500 C516 1.368 . S
H501 C509 0.950 . S
H502 C507 0.950 . S
H503 C508 0.949 . S
H504 C510 0.950 . S
H505 C511 0.950 . S
H506 C512 0.949 . S
C507 H502 0.950 . S
C507 C509 1.327 . S
C507 C513 1.429 . S
C508 C500 1.574 . S
C508 H503 0.949 . S
C508 C514 1.368 . S
C509 C493 1.349 . S
C509 H501 0.950 . S
C509 C507 1.327 . S
C510 C498 1.349 . S
C510 H504 0.950 . S
C510 C511 1.327 . S
C511 H505 0.950 . S
C511 C510 1.327 . S
C511 C515 1.429 . S
C512 C495 1.574 . S
C512 H506 0.949 . S
C512 C516 1.368 . S
C513 C494 1.429 . S
C513 C507 1.429 . S
C513 C514 1.523 . S
C514 C495 1.368 . S
C514 C508 1.368 . S
C514 C513 1.523 . S
C515 C499 1.429 . S
C515 C511 1.429 . S
C515 C516 1.523 . S
C516 C500 1.368 . S
C516 C512 1.368 . S
C516 C515 1.523 . S
H517 C492 0.950 . S
H518 C494 0.950 . S
H519 C495 0.949 . S
H520 C497 0.950 . S
H521 C499 0.950 . S
C522 C523 1.349 . S
C522 C524 1.327 . S
C522 H547 0.950 . S
C523 C522 1.349 . S
C523 C539 1.349 . S
C524 C522 1.327 . S
C524 C543 1.429 . S
C524 H548 0.950 . S
C525 C542 1.574 . S
C525 C544 1.368 . S
C525 H549 0.949 . S
H526 C530 0.949 . S
C527 C528 1.349 . S
C527 C529 1.327 . S
C527 H550 0.950 . S
C528 C527 1.349 . S
C528 C540 1.349 . S
C529 C527 1.327 . S
C529 C545 1.429 . S
C529 H551 0.950 . S
C530 H526 0.949 . S
C530 C538 1.574 . S
C530 C546 1.368 . S
H531 C539 0.950 . S
H532 C537 0.950 . S
H533 C538 0.949 . S
H534 C540 0.950 . S
H535 C541 0.950 . S
H536 C542 0.949 . S
C537 H532 0.950 . S
C537 C539 1.327 . S
C537 C543 1.429 . S
C538 C530 1.574 . S
C538 H533 0.949 . S
C538 C544 1.368 . S
C539 C523 1.349 . S
C539 H531 0.950 . S
C539 C537 1.327 . S
C540 C528 1.349 . S
C540 H534 0.950 . S
C540 C541 1.327 . S
C541 H535 0.950 . S
C541 C540 1.327 . S
C541 C545 1.429 . S
C542 C525 1.574 . S
C542 H536 0.949 . S
C542 C546 1.368 . S
C543 C524 1.429 . S
C543 C537 1.429 . S
C543 C544 1.523 . S
C544 C525 1.368 . S
C544 C538 1.368 . S
C544 C543 1.523 . S
C545 C529 1.429 . S
C545 C541 1.429 . S
C545 C546 1.523 . S
C546 C530 1.368 . S
C546 C542 1.368 . S
C546 C545 1.523 . S
H547 C522 0.950 . S
H548 C524 0.950 . S
H549 C525 0.949 . S
H550 C527 0.950 . S
H551 C529 0.950 . S
C552 C553 1.349 . S
C552 C554 1.327 . S
C552 H577 0.950 . S
C553 C552 1.349 . S
C553 C569 1.349 . S
C554 C552 1.327 . S
C554 C573 1.429 . S
C554 H578 0.950 . S
C555 C572 1.574 . S
C555 C574 1.368 . S
C555 H579 0.949 . S
H556 C560 0.949 . S
C557 C558 1.349 . S
C557 C559 1.327 . S
C557 H580 0.950 . S
C558 C557 1.349 . S
C558 C570 1.349 . S
C559 C557 1.327 . S
C559 C575 1.429 . S
C559 H581 0.950 . S
C560 H556 0.949 . S
C560 C568 1.574 . S
C560 C576 1.368 . S
H561 C569 0.950 . S
H562 C567 0.950 . S
H563 C568 0.949 . S
H564 C570 0.950 . S
H565 C571 0.950 . S
H566 C572 0.949 . S
C567 H562 0.950 . S
C567 C569 1.327 . S
C567 C573 1.429 . S
C568 C560 1.574 . S
C568 H563 0.949 . S
C568 C574 1.368 . S
C569 C553 1.349 . S
C569 H561 0.950 . S
C569 C567 1.327 . S
C570 C558 1.349 . S
C570 H564 0.950 . S
C570 C571 1.327 . S
C571 H565 0.950 . S
C571 C570 1.327 . S
C571 C575 1.429 . S
C572 C555 1.574 . S
C572 H566 0.949 . S
C572 C576 1.368 . S
C573 C554 1.429 . S
C573 C567 1.429 . S
C573 C574 1.523 . S
C574 C555 1.368 . S
C574 C568 1.368 . S
C574 C573 1.523 . S
C575 C559 1.429 . S
C575 C571 1.429 . S
C575 C576 1.523 . S
C576 C560 1.368 . S
C576 C572 1.368 . S
C576 C575 1.523 . S
H577 C552 0.950 . S
H578 C554 0.950 . S
H579 C555 0.949 . S
H580 C557 0.950 . S
H581 C559 0.950 . S
C582 C583 1.349 . S
C582 C584 1.327 . S
C582 H607 0.950 . S
C583 C582 1.349 . S
C583 C599 1.349 . S
C584 C582 1.327 . S
C584 C603 1.429 . S
C584 H608 0.950 . S
C585 C602 1.574 . S
C585 C604 1.368 . S
C585 H609 0.949 . S
H586 C590 0.949 . S
C587 C588 1.349 . S
C587 C589 1.327 . S
C587 H610 0.950 . S
C588 C587 1.349 . S
C588 C600 1.349 . S
C589 C587 1.327 . S
C589 C605 1.429 . S
C589 H611 0.950 . S
C590 H586 0.949 . S
C590 C598 1.574 . S
C590 C606 1.368 . S
H591 C599 0.950 . S
H592 C597 0.950 . S
H593 C598 0.949 . S
H594 C600 0.950 . S
H595 C601 0.950 . S
H596 C602 0.949 . S
C597 H592 0.950 . S
C597 C599 1.327 . S
C597 C603 1.429 . S
C598 C590 1.574 . S
C598 H593 0.949 . S
C598 C604 1.368 . S
C599 C583 1.349 . S
C599 H591 0.950 . S
C599 C597 1.327 . S
C600 C588 1.349 . S
C600 H594 0.950 . S
C600 C601 1.327 . S
C601 H595 0.950 . S
C601 C600 1.327 . S
C601 C605 1.429 . S
C602 C585 1.574 . S
C602 H596 0.949 . S
C602 C606 1.368 . S
C603 C584 1.429 . S
C603 C597 1.429 . S
C603 C604 1.523 . S
C604 C585 1.368 . S
C604 C598 1.368 . S
C604 C603 1.523 . S
C605 C589 1.429 . S
C605 C601 1.429 . S
C605 C606 1.523 . S
C606 C590 1.368 . S
C606 C602 1.368 . S
C606 C605 1.523 . S
H607 C582 0.950 . S
H608 C584 0.950 . S
H609 C585 0.949 . S
H610 C587 0.950 . S
H611 C589 0.950 . S
C612 C613 1.349 . S
C612 C614 1.327 . S
C612 H637 0.950 . S
C613 C612 1.349 . S
C613 C629 1.349 . S
C614 C612 1.327 . S
C614 C633 1.429 . S
C614 H638 0.950 . S
C615 C632 1.574 . S
C615 C634 1.368 . S
C615 H639 0.949 . S
H616 C620 0.949 . S
C617 C618 1.349 . S
C617 C619 1.327 . S
C617 H640 0.950 . S
C618 C617 1.349 . S
C618 C630 1.349 . S
C619 C617 1.327 . S
C619 C635 1.429 . S
C619 H641 0.950 . S
C620 H616 0.949 . S
C620 C628 1.574 . S
C620 C636 1.368 . S
H621 C629 0.950 . S
H622 C627 0.950 . S
H623 C628 0.949 . S
H624 C630 0.950 . S
H625 C631 0.950 . S
H626 C632 0.949 . S
C627 H622 0.950 . S
C627 C629 1.327 . S
C627 C633 1.429 . S
C628 C620 1.574 . S
C628 H623 0.949 . S
C628 C634 1.368 . S
C629 C613 1.349 . S
C629 H621 0.950 . S
C629 C627 1.327 . S
C630 C618 1.349 . S
C630 H624 0.950 . S
C630 C631 1.327 . S
C631 H625 0.950 . S
C631 C630 1.327 . S
C631 C635 1.429 . S
C632 C615 1.574 . S
C632 H626 0.949 . S
C632 C636 1.368 . S
C633 C614 1.429 . S
C633 C627 1.429 . S
C633 C634 1.523 . S
C634 C615 1.368 . S
C634 C628 1.368 . S
C634 C633 1.523 . S
C635 C619 1.429 . S
C635 C631 1.429 . S
C635 C636 1.523 . S
C636 C620 1.368 . S
C636 C632 1.368 . S
C636 C635 1.523 . S
H637 C612 0.950 . S
H638 C614 0.950 . S
H639 C615 0.949 . S
H640 C617 0.950 . S
H641 C619 0.950 . S
C642 C643 1.349 . S
C642 C644 1.327 . S
C642 H667 0.950 . S
C643 C642 1.349 . S
C643 C659 1.349 . S
C644 C642 1.327 . S
C644 C663 1.429 . S
C644 H668 0.950 . S
C645 C662 1.574 . S
C645 C664 1.368 . S
C645 H669 0.949 . S
H646 C650 0.949 . S
C647 C648 1.349 . S
C647 C649 1.327 . S
C647 H670 0.950 . S
C648 C647 1.349 . S
C648 C660 1.349 . S
C649 C647 1.327 . S
C649 C665 1.429 . S
C649 H671 0.950 . S
C650 H646 0.949 . S
C650 C658 1.574 . S
C650 C666 1.368 . S
H651 C659 0.950 . S
H652 C657 0.950 . S
H653 C658 0.949 . S
H654 C660 0.950 . S
H655 C661 0.950 . S
H656 C662 0.949 . S
C657 H652 0.950 . S
C657 C659 1.327 . S
C657 C663 1.429 . S
C658 C650 1.574 . S
C658 H653 0.949 . S
C658 C664 1.368 . S
C659 C643 1.349 . S
C659 H651 0.950 . S
C659 C657 1.327 . S
C660 C648 1.349 . S
C660 H654 0.950 . S
C660 C661 1.327 . S
C661 H655 0.950 . S
C661 C660 1.327 . S
C661 C665 1.429 . S
C662 C645 1.574 . S
C662 H656 0.949 . S
C662 C666 1.368 . S
C663 C644 1.429 . S
C663 C657 1.429 . S
C663 C664 1.523 . S
C664 C645 1.368 . S
C664 C658 1.368 . S
C664 C663 1.523 . S
C665 C649 1.429 . S
C665 C661 1.429 . S
C665 C666 1.523 . S
C666 C650 1.368 . S
C666 C662 1.368 . S
C666 C665 1.523 . S
H667 C642 0.950 . S
H668 C644 0.950 . S
H669 C645 0.949 . S
H670 C647 0.950 . S
H671 C649 0.950 . S
C672 C673 1.349 . S
C672 C674 1.327 . S
C672 H697 0.950 . S
C673 C672 1.349 . S
C673 C689 1.349 . S
C674 C672 1.327 . S
C674 C693 1.429 . S
C674 H698 0.950 . S
C675 C692 1.574 . S
C675 C694 1.368 . S
C675 H699 0.949 . S
H676 C680 0.949 . S
C677 C678 1.349 . S
C677 C679 1.327 . S
C677 H700 0.950 . S
C678 C677 1.349 . S
C678 C690 1.349 . S
C679 C677 1.327 . S
C679 C695 1.429 . S
C679 H701 0.950 . S
C680 H676 0.949 . S
C680 C688 1.574 . S
C680 C696 1.368 . S
H681 C689 0.950 . S
H682 C687 0.950 . S
H683 C688 0.949 . S
H684 C690 0.950 . S
H685 C691 0.950 . S
H686 C692 0.949 . S
C687 H682 0.950 . S
C687 C689 1.327 . S
C687 C693 1.429 . S
C688 C680 1.574 . S
C688 H683 0.949 . S
C688 C694 1.368 . S
C689 C673 1.349 . S
C689 H681 0.950 . S
C689 C687 1.327 . S
C690 C678 1.349 . S
C690 H684 0.950 . S
C690 C691 1.327 . S
C691 H685 0.950 . S
C691 C690 1.327 . S
C691 C695 1.429 . S
C692 C675 1.574 . S
C692 H686 0.949 . S
C692 C696 1.368 . S
C693 C674 1.429 . S
C693 C687 1.429 . S
C693 C694 1.523 . S
C694 C675 1.368 . S
C694 C688 1.368 . S
C694 C693 1.523 . S
C695 C679 1.429 . S
C695 C691 1.429 . S
C695 C696 1.523 . S
C696 C680 1.368 . S
C696 C692 1.368 . S
C696 C695 1.523 . S
H697 C672 0.950 . S
H698 C674 0.950 . S
H699 C675 0.949 . S
H700 C677 0.950 . S
H701 C679 0.950 . S
C702 C703 1.349 . S
C702 C704 1.327 . S
C702 H727 0.950 . S
C703 C702 1.349 . S
C703 C719 1.349 . S
C704 C702 1.327 . S
C704 C723 1.429 . S
C704 H728 0.950 . S
C705 C722 1.574 . S
C705 C724 1.368 . S
C705 H729 0.949 . S
H706 C710 0.949 . S
C707 C708 1.349 . S
C707 C709 1.327 . S
C707 H730 0.950 . S
C708 C707 1.349 . S
C708 C720 1.349 . S
C709 C707 1.327 . S
C709 C725 1.429 . S
C709 H731 0.950 . S
C710 H706 0.949 . S
C710 C718 1.574 . S
C710 C726 1.368 . S
H711 C719 0.950 . S
H712 C717 0.950 . S
H713 C718 0.949 . S
H714 C720 0.950 . S
H715 C721 0.950 . S
H716 C722 0.949 . S
C717 H712 0.950 . S
C717 C719 1.327 . S
C717 C723 1.429 . S
C718 C710 1.574 . S
C718 H713 0.949 . S
C718 C724 1.368 . S
C719 C703 1.349 . S
C719 H711 0.950 . S
C719 C717 1.327 . S
C720 C708 1.349 . S
C720 H714 0.950 . S
C720 C721 1.327 . S
C721 H715 0.950 . S
C721 C720 1.327 . S
C721 C725 1.429 . S
C722 C705 1.574 . S
C722 H716 0.949 . S
C722 C726 1.368 . S
C723 C704 1.429 . S
C723 C717 1.429 . S
C723 C724 1.523 . S
C724 C705 1.368 . S
C724 C718 1.368 . S
C724 C723 1.523 . S
C725 C709 1.429 . S
C725 C721 1.429 . S
C725 C726 1.523 . S
C726 C710 1.368 . S
C726 C722 1.368 . S
C726 C725 1.523 . S
H727 C702 0.950 . S
H728 C704 0.950 . S
H729 C705 0.949 . S
H730 C707 0.950 . S
H731 C709 0.950 . S
C732 C733 1.349 . S
C732 C734 1.327 . S
C732 H757 0.950 . S
C733 C732 1.349 . S
C733 C749 1.349 . S
C734 C732 1.327 . S
C734 C753 1.429 . S
C734 H758 0.950 . S
C735 C752 1.574 . S
C735 C754 1.368 1_554 S
C735 H759 0.949 . S
H736 C740 0.949 . S
C737 C738 1.349 . S
C737 C739 1.327 . S
C737 H760 0.950 . S
C738 C737 1.349 . S
C738 C750 1.349 . S
C739 C737 1.327 . S
C739 C755 1.429 . S
C739 H761 0.950 . S
C740 H736 0.949 . S
C740 C748 1.574 . S
C740 C756 1.368 1_556 S
H741 C749 0.950 . S
H742 C747 0.976 . S
H743 C748 0.949 . S
H744 C750 0.950 . S
H745 C751 0.976 . S
H746 C752 0.949 . S
C747 H742 0.976 . S
C747 C749 1.327 . S
C747 C753 1.429 . S
C748 C740 1.574 . S
C748 H743 0.949 . S
C748 C754 1.368 . S
C749 C733 1.349 . S
C749 H741 0.950 . S
C749 C747 1.327 . S
C750 C738 1.349 . S
C750 H744 0.950 . S
C750 C751 1.327 . S
C751 H745 0.976 . S
C751 C750 1.327 . S
C751 C755 1.429 . S
C752 C735 1.574 . S
C752 H746 0.949 . S
C752 C756 1.368 . S
C753 C734 1.429 . S
C753 C747 1.429 . S
C753 C754 1.523 . S
C754 C735 1.368 1_556 S
C754 C748 1.368 . S
C754 C753 1.523 . S
C755 C739 1.429 . S
C755 C751 1.429 . S
C755 C756 1.523 . S
C756 C740 1.368 1_554 S
C756 C752 1.368 . S
C756 C755 1.523 . S
H757 C732 0.950 . S
H758 C734 0.950 . S
H759 C735 0.949 . S
H760 C737 0.950 . S
H761 C739 0.950 . S
C762 C763 1.349 . S
C762 C764 1.327 . S
C762 H787 0.950 . S
C763 C762 1.349 . S
C763 C779 1.349 . S
C764 C762 1.327 . S
C764 C783 1.429 . S
C764 H788 0.950 . S
C765 C782 1.574 1_554 S
C765 C784 1.368 . S
C765 H789 0.949 . S
H766 C770 0.949 . S
C767 C768 1.349 . S
C767 C769 1.327 . S
C767 H790 0.950 . S
C768 C767 1.349 . S
C768 C780 1.349 . S
C769 C767 1.327 . S
C769 C785 1.429 . S
C769 H791 0.950 . S
C770 H766 0.949 . S
C770 C778 1.574 1_556 S
C770 C786 1.368 . S
H771 C779 0.950 . S
H772 C777 0.950 . S
H773 C778 0.949 . S
H774 C780 0.950 . S
H775 C781 0.950 . S
H776 C782 0.949 . S
C777 H772 0.950 . S
C777 C779 1.327 . S
C777 C783 1.429 . S
C778 C770 1.574 1_554 S
C778 H773 0.949 . S
C778 C784 1.368 1_565 S
C779 C763 1.349 . S
C779 H771 0.950 . S
C779 C777 1.327 . S
C780 C768 1.349 . S
C780 H774 0.950 . S
C780 C781 1.327 . S
C781 H775 0.950 . S
C781 C780 1.327 . S
C781 C785 1.429 . S
C782 C765 1.574 1_556 S
C782 H776 0.949 . S
C782 C786 1.368 1_545 S
C783 C764 1.429 . S
C783 C777 1.429 . S
C783 C784 1.523 . S
C784 C765 1.368 . S
C784 C778 1.368 1_545 S
C784 C783 1.523 . S
C785 C769 1.429 . S
C785 C781 1.429 . S
C785 C786 1.523 . S
C786 C770 1.368 . S
C786 C782 1.368 1_565 S
C786 C785 1.523 . S
H787 C762 0.950 . S
H788 C764 0.950 . S
H789 C765 0.949 . S
H790 C767 0.950 . S
H791 C769 0.950 . S
C792 C793 1.349 . S
C792 C794 1.327 . S
C792 H817 0.950 . S
C793 C792 1.349 . S
C793 C809 1.349 . S
C794 C792 1.327 . S
C794 C813 1.429 . S
C794 H818 0.950 . S
C795 C812 1.574 1_554 S
C795 C814 1.368 . S
C795 H819 0.949 . S
H796 C800 0.949 . S
C797 C798 1.349 . S
C797 C799 1.327 . S
C797 H820 0.950 . S
C798 C797 1.349 . S
C798 C810 1.349 . S
C799 C797 1.327 . S
C799 C815 1.429 . S
C799 H821 0.950 . S
C800 H796 0.949 . S
C800 C808 1.574 1_556 S
C800 C816 1.368 . S
H801 C809 0.950 . S
H802 C807 0.950 . S
H803 C808 0.949 . S
H804 C810 0.950 . S
H805 C811 0.950 . S
H806 C812 0.949 . S
C807 H802 0.950 . S
C807 C809 1.327 . S
C807 C813 1.429 . S
C808 C800 1.574 1_554 S
C808 H803 0.949 . S
C808 C814 1.368 1_455 S
C809 C793 1.349 . S
C809 H801 0.950 . S
C809 C807 1.327 . S
C810 C798 1.349 . S
C810 H804 0.950 . S
C810 C811 1.327 . S
C811 H805 0.950 . S
C811 C810 1.327 . S
C811 C815 1.429 . S
C812 C795 1.574 1_556 S
C812 H806 0.949 . S
C812 C816 1.368 1_655 S
C813 C794 1.429 . S
C813 C807 1.429 . S
C813 C814 1.523 . S
C814 C795 1.368 . S
C814 C808 1.368 1_655 S
C814 C813 1.523 . S
C815 C799 1.429 . S
C815 C811 1.429 . S
C815 C816 1.523 . S
C816 C800 1.368 . S
C816 C812 1.368 1_455 S
C816 C815 1.523 . S
H817 C792 0.950 . S
H818 C794 0.950 . S
H819 C795 0.949 . S
H820 C797 0.950 . S
H821 C799 0.950 . S
C822 C823 1.349 . S
C822 C824 1.327 . S
C822 H847 0.950 . S
C823 C822 1.349 . S
C823 C839 1.349 . S
C824 C822 1.327 . S
C824 C843 1.429 . S
C824 H848 0.950 . S
C825 C842 1.574 . S
C825 C844 1.368 . S
C825 H849 0.949 . S
H826 C830 0.949 . S
C827 C828 1.349 . S
C827 C829 1.327 . S
C827 H850 0.950 . S
C828 C827 1.349 . S
C828 C840 1.349 . S
C829 C827 1.327 . S
C829 C845 1.429 . S
C829 H851 0.950 . S
C830 H826 0.949 . S
C830 C838 1.574 . S
C830 C846 1.368 . S
H831 C839 0.950 . S
H832 C837 0.950 . S
H833 C838 0.949 . S
H834 C840 0.950 . S
H835 C841 0.950 . S
H836 C842 0.949 . S
C837 H832 0.950 . S
C837 C839 1.327 . S
C837 C843 1.429 . S
C838 C830 1.574 . S
C838 H833 0.949 . S
C838 C844 1.368 . S
C839 C823 1.349 . S
C839 H831 0.950 . S
C839 C837 1.327 . S
C840 C828 1.349 . S
C840 H834 0.950 . S
C840 C841 1.327 . S
C841 H835 0.950 . S
C841 C840 1.327 . S
C841 C845 1.429 . S
C842 C825 1.574 . S
C842 H836 0.949 . S
C842 C846 1.368 . S
C843 C824 1.429 . S
C843 C837 1.429 . S
C843 C844 1.523 . S
C844 C825 1.368 . S
C844 C838 1.368 . S
C844 C843 1.523 . S
C845 C829 1.429 . S
C845 C841 1.429 . S
C845 C846 1.523 . S
C846 C830 1.368 . S
C846 C842 1.368 . S
C846 C845 1.523 . S
H847 C822 0.950 . S
H848 C824 0.950 . S
H849 C825 0.949 . S
H850 C827 0.950 . S
H851 C829 0.950 . S
C852 C853 1.349 . S
C852 C854 1.327 . S
C852 H877 0.950 . S
C853 C852 1.349 . S
C853 C869 1.349 . S
C854 C852 1.327 . S
C854 C873 1.429 . S
C854 H878 0.950 . S
C855 C872 1.574 . S
C855 C874 1.368 . S
C855 H879 0.949 . S
H856 C860 0.949 . S
C857 C858 1.349 . S
C857 C859 1.327 . S
C857 H880 0.950 . S
C858 C857 1.349 . S
C858 C870 1.349 . S
C859 C857 1.327 . S
C859 C875 1.429 . S
C859 H881 0.950 . S
C860 H856 0.949 . S
C860 C868 1.574 . S
C860 C876 1.368 . S
H861 C869 0.950 . S
H862 C867 0.950 . S
H863 C868 0.949 . S
H864 C870 0.950 . S
H865 C871 0.950 . S
H866 C872 0.949 . S
C867 H862 0.950 . S
C867 C869 1.327 . S
C867 C873 1.429 . S
C868 C860 1.574 . S
C868 H863 0.949 . S
C868 C874 1.368 1_545 S
C869 C853 1.349 . S
C869 H861 0.950 . S
C869 C867 1.327 . S
C870 C858 1.349 . S
C870 H864 0.950 . S
C870 C871 1.327 . S
C871 H865 0.950 . S
C871 C870 1.327 . S
C871 C875 1.429 . S
C872 C855 1.574 . S
C872 H866 0.949 . S
C872 C876 1.368 1_565 S
C873 C854 1.429 . S
C873 C867 1.429 . S
C873 C874 1.523 . S
C874 C855 1.368 . S
C874 C868 1.368 1_565 S
C874 C873 1.523 . S
C875 C859 1.429 . S
C875 C871 1.429 . S
C875 C876 1.523 . S
C876 C860 1.368 . S
C876 C872 1.368 1_545 S
C876 C875 1.523 . S
H877 C852 0.950 . S
H878 C854 0.950 . S
H879 C855 0.949 . S
H880 C857 0.950 . S
H881 C859 0.950 . S
C882 C883 1.349 . S
C882 C884 1.327 . S
C882 H907 0.950 . S
C883 C882 1.349 . S
C883 C899 1.349 . S
C884 C882 1.327 . S
C884 C903 1.429 . S
C884 H908 0.950 . S
C885 C902 1.574 . S
C885 C904 1.368 . S
C885 H909 0.949 . S
H886 C890 0.949 . S
C887 C888 1.349 . S
C887 C889 1.327 . S
C887 H910 0.950 . S
C888 C887 1.349 . S
C888 C900 1.349 . S
C889 C887 1.327 . S
C889 C905 1.429 . S
C889 H911 0.950 . S
C890 H886 0.949 . S
C890 C898 1.574 . S
C890 C906 1.368 . S
H891 C899 0.950 . S
H892 C897 0.950 . S
H893 C898 0.949 . S
H894 C900 0.950 . S
H895 C901 0.950 . S
H896 C902 0.949 . S
C897 H892 0.950 . S
C897 C899 1.327 . S
C897 C903 1.429 . S
C898 C890 1.574 . S
C898 H893 0.949 . S
C898 C904 1.368 1_455 S
C899 C883 1.349 . S
C899 H891 0.950 . S
C899 C897 1.327 . S
C900 C888 1.349 . S
C900 H894 0.950 . S
C900 C901 1.327 . S
C901 H895 0.950 . S
C901 C900 1.327 . S
C901 C905 1.429 . S
C902 C885 1.574 . S
C902 H896 0.949 . S
C902 C906 1.368 1_655 S
C903 C884 1.429 . S
C903 C897 1.429 . S
C903 C904 1.523 . S
C904 C885 1.368 . S
C904 C898 1.368 1_655 S
C904 C903 1.523 . S
C905 C889 1.429 . S
C905 C901 1.429 . S
C905 C906 1.523 . S
C906 C890 1.368 . S
C906 C902 1.368 1_455 S
C906 C905 1.523 . S
H907 C882 0.950 . S
H908 C884 0.950 . S
H909 C885 0.949 . S
H910 C887 0.950 . S
H911 C889 0.950 . S
C912 C913 1.349 . S
C912 C914 1.327 . S
C912 H937 0.950 . S
C913 C912 1.349 . S
C913 C929 1.349 . S
C914 C912 1.327 . S
C914 C933 1.429 . S
C914 H938 0.950 . S
C915 C932 1.574 . S
C915 C934 1.368 . S
C915 H939 0.949 . S
H916 C920 0.949 . S
C917 C918 1.349 . S
C917 C919 1.327 . S
C917 H940 0.950 . S
C918 C917 1.349 . S
C918 C930 1.349 . S
C919 C917 1.327 . S
C919 C935 1.429 . S
C919 H941 0.950 . S
C920 H916 0.949 . S
C920 C928 1.574 . S
C920 C936 1.368 . S
H921 C929 0.950 . S
H922 C927 0.950 . S
H923 C928 0.949 . S
H924 C930 0.950 . S
H925 C931 0.950 . S
H926 C932 0.949 . S
C927 H922 0.950 . S
C927 C929 1.327 . S
C927 C933 1.429 . S
C928 C920 1.574 . S
C928 H923 0.949 . S
C928 C934 1.368 . S
C929 C913 1.349 . S
C929 H921 0.950 . S
C929 C927 1.327 . S
C930 C918 1.349 . S
C930 H924 0.950 . S
C930 C931 1.327 . S
C931 H925 0.950 . S
C931 C930 1.327 . S
C931 C935 1.429 . S
C932 C915 1.574 . S
C932 H926 0.949 . S
C932 C936 1.368 . S
C933 C914 1.429 . S
C933 C927 1.429 . S
C933 C934 1.523 . S
C934 C915 1.368 . S
C934 C928 1.368 . S
C934 C933 1.523 . S
C935 C919 1.429 . S
C935 C931 1.429 . S
C935 C936 1.523 . S
C936 C920 1.368 . S
C936 C932 1.368 . S
C936 C935 1.523 . S
H937 C912 0.950 . S
H938 C914 0.950 . S
H939 C915 0.949 . S
H940 C917 0.950 . S
H941 C919 0.950 . S
C942 C943 1.349 . S
C942 C944 1.327 . S
C942 H967 0.950 . S
C943 C942 1.349 . S
C943 C959 1.349 . S
C944 C942 1.327 . S
C944 C963 1.429 . S
C944 H968 0.950 . S
C945 C962 1.574 . S
C945 C964 1.368 . S
C945 H969 0.949 . S
H946 C950 0.949 . S
C947 C948 1.349 . S
C947 C949 1.327 . S
C947 H970 0.950 . S
C948 C947 1.349 . S
C948 C960 1.349 . S
C949 C947 1.327 . S
C949 C965 1.429 . S
C949 H971 0.950 . S
C950 H946 0.949 . S
C950 C958 1.574 . S
C950 C966 1.368 . S
H951 C959 0.950 . S
H952 C957 0.950 . S
H953 C958 0.949 . S
H954 C960 0.950 . S
H955 C961 0.950 . S
H956 C962 0.949 . S
C957 H952 0.950 . S
C957 C959 1.327 . S
C957 C963 1.429 . S
C958 C950 1.574 . S
C958 H953 0.949 . S
C958 C964 1.368 . S
C959 C943 1.349 . S
C959 H951 0.950 . S
C959 C957 1.327 . S
C960 C948 1.349 . S
C960 H954 0.950 . S
C960 C961 1.327 . S
C961 H955 0.950 . S
C961 C960 1.327 . S
C961 C965 1.429 . S
C962 C945 1.574 . S
C962 H956 0.949 . S
C962 C966 1.368 . S
C963 C944 1.429 . S
C963 C957 1.429 . S
C963 C964 1.523 . S
C964 C945 1.368 . S
C964 C958 1.368 . S
C964 C963 1.523 . S
C965 C949 1.429 . S
C965 C961 1.429 . S
C965 C966 1.523 . S
C966 C950 1.368 . S
C966 C962 1.368 . S
C966 C965 1.523 . S
H967 C942 0.950 . S
H968 C944 0.950 . S
H969 C945 0.949 . S
H970 C947 0.950 . S
H971 C949 0.950 . S
C972 C973 1.349 . S
C972 C974 1.327 . S
C972 H997 0.950 . S
C973 C972 1.349 . S
C973 C989 1.349 . S
C974 C972 1.327 . S
C974 C993 1.429 . S
C974 H998 0.950 . S
C975 C992 1.574 . S
C975 C994 1.368 . S
C975 H999 0.949 . S
H976 C980 0.949 . S
C977 C978 1.349 . S
C977 C979 1.327 . S
C977 H1000 0.950 . S
C978 C977 1.349 . S
C978 C990 1.349 . S
C979 C977 1.327 . S
C979 C995 1.429 . S
C979 H1001 0.950 . S
C980 H976 0.949 . S
C980 C988 1.574 . S
C980 C996 1.368 . S
H981 C989 0.950 . S
H982 C987 0.950 . S
H983 C988 0.949 . S
H984 C990 0.950 . S
H985 C991 0.950 . S
H986 C992 0.949 . S
C987 H982 0.950 . S
C987 C989 1.327 . S
C987 C993 1.429 . S
C988 C980 1.574 . S
C988 H983 0.949 . S
C988 C994 1.368 . S
C989 C973 1.349 . S
C989 H981 0.950 . S
C989 C987 1.327 . S
C990 C978 1.349 . S
C990 H984 0.950 . S
C990 C991 1.327 . S
C991 H985 0.950 . S
C991 C990 1.327 . S
C991 C995 1.429 . S
C992 C975 1.574 . S
C992 H986 0.949 . S
C992 C996 1.368 . S
C993 C974 1.429 . S
C993 C987 1.429 . S
C993 C994 1.523 . S
C994 C975 1.368 . S
C994 C988 1.368 . S
C994 C993 1.523 . S
C995 C979 1.429 . S
C995 C991 1.429 . S
C995 C996 1.523 . S
C996 C980 1.368 . S
C996 C992 1.368 . S
C996 C995 1.523 . S
H997 C972 0.950 . S
H998 C974 0.950 . S
H999 C975 0.949 . S
H1000 C977 0.950 . S
H1001 C979 0.950 . S
C1002 C1003 1.349 . S
C1002 C1004 1.327 . S
C1002 H1027 0.950 . S
C1003 C1002 1.349 . S
C1003 C1019 1.349 . S
C1004 C1002 1.327 . S
C1004 C1023 1.429 . S
C1004 H1028 0.950 . S
C1005 C1022 1.574 . S
C1005 C1024 1.368 . S
C1005 H1029 0.949 . S
H1006 C1010 0.949 . S
C1007 C1008 1.349 . S
C1007 C1009 1.327 . S
C1007 H1030 0.950 . S
C1008 C1007 1.349 . S
C1008 C1020 1.349 . S
C1009 C1007 1.327 . S
C1009 C1025 1.429 . S
C1009 H1031 0.950 . S
C1010 H1006 0.949 . S
C1010 C1018 1.574 . S
C1010 C1026 1.368 . S
H1011 C1019 0.950 . S
H1012 C1017 0.950 . S
H1013 C1018 0.949 . S
H1014 C1020 0.950 . S
H1015 C1021 0.950 . S
H1016 C1022 0.949 . S
C1017 H1012 0.950 . S
C1017 C1019 1.327 . S
C1017 C1023 1.429 . S
C1018 C1010 1.574 . S
C1018 H1013 0.949 . S
C1018 C1024 1.368 . S
C1019 C1003 1.349 . S
C1019 H1011 0.950 . S
C1019 C1017 1.327 . S
C1020 C1008 1.349 . S
C1020 H1014 0.950 . S
C1020 C1021 1.327 . S
C1021 H1015 0.950 . S
C1021 C1020 1.327 . S
C1021 C1025 1.429 . S
C1022 C1005 1.574 . S
C1022 H1016 0.949 . S
C1022 C1026 1.368 . S
C1023 C1004 1.429 . S
C1023 C1017 1.429 . S
C1023 C1024 1.523 . S
C1024 C1005 1.368 . S
C1024 C1018 1.368 . S
C1024 C1023 1.523 . S
C1025 C1009 1.429 . S
C1025 C1021 1.429 . S
C1025 C1026 1.523 . S
C1026 C1010 1.368 . S
C1026 C1022 1.368 . S
C1026 C1025 1.523 . S
H1027 C1002 0.950 . S
H1028 C1004 0.950 . S
H1029 C1005 0.949 . S
H1030 C1007 0.950 . S
H1031 C1009 0.950 . S
C1032 C1033 1.349 . S
C1032 C1034 1.327 . S
C1032 H1057 0.950 . S
C1033 C1032 1.349 . S
C1033 C1049 1.349 . S
C1034 C1032 1.327 . S
C1034 C1053 1.429 . S
C1034 H1058 0.950 . S
C1035 C1052 1.574 . S
C1035 C1054 1.368 . S
C1035 H1059 0.949 . S
H1036 C1040 0.949 . S
C1037 C1038 1.349 . S
C1037 C1039 1.327 . S
C1037 H1060 0.950 . S
C1038 C1037 1.349 . S
C1038 C1050 1.349 . S
C1039 C1037 1.327 . S
C1039 C1055 1.429 . S
C1039 H1061 0.950 . S
C1040 H1036 0.949 . S
C1040 C1048 1.574 . S
C1040 C1056 1.368 . S
H1041 C1049 0.950 . S
H1042 C1047 0.950 . S
H1043 C1048 0.949 . S
H1044 C1050 0.950 . S
H1045 C1051 0.950 . S
H1046 C1052 0.949 . S
C1047 H1042 0.950 . S
C1047 C1049 1.327 . S
C1047 C1053 1.429 . S
C1048 C1040 1.574 . S
C1048 H1043 0.949 . S
C1048 C1054 1.368 . S
C1049 C1033 1.349 . S
C1049 H1041 0.950 . S
C1049 C1047 1.327 . S
C1050 C1038 1.349 . S
C1050 H1044 0.950 . S
C1050 C1051 1.327 . S
C1051 H1045 0.950 . S
C1051 C1050 1.327 . S
C1051 C1055 1.429 . S
C1052 C1035 1.574 . S
C1052 H1046 0.949 . S
C1052 C1056 1.368 . S
C1053 C1034 1.429 . S
C1053 C1047 1.429 . S
C1053 C1054 1.523 . S
C1054 C1035 1.368 . S
C1054 C1048 1.368 . S
C1054 C1053 1.523 . S
C1055 C1039 1.429 . S
C1055 C1051 1.429 . S
C1055 C1056 1.523 . S
C1056 C1040 1.368 . S
C1056 C1052 1.368 . S
C1056 C1055 1.523 . S
H1057 C1032 0.950 . S
H1058 C1034 0.950 . S
H1059 C1035 0.949 . S
H1060 C1037 0.950 . S
H1061 C1039 0.950 . S
C1062 C1063 1.349 . S
C1062 C1064 1.327 . S
C1062 H1087 0.950 . S
C1063 C1062 1.349 . S
C1063 C1079 1.349 . S
C1064 C1062 1.327 . S
C1064 C1083 1.429 . S
C1064 H1088 0.950 . S
C1065 C1082 1.574 . S
C1065 C1084 1.368 . S
C1065 H1089 0.949 . S
H1066 C1070 0.949 . S
C1067 C1068 1.349 . S
C1067 C1069 1.327 . S
C1067 H1090 0.950 . S
C1068 C1067 1.349 . S
C1068 C1080 1.349 . S
C1069 C1067 1.327 . S
C1069 C1085 1.429 . S
C1069 H1091 0.950 . S
C1070 H1066 0.949 . S
C1070 C1078 1.574 . S
C1070 C1086 1.368 . S
H1071 C1079 0.950 . S
H1072 C1077 0.950 . S
H1073 C1078 0.949 . S
H1074 C1080 0.950 . S
H1075 C1081 0.950 . S
H1076 C1082 0.949 . S
C1077 H1072 0.950 . S
C1077 C1079 1.327 . S
C1077 C1083 1.429 . S
C1078 C1070 1.574 . S
C1078 H1073 0.949 . S
C1078 C1084 1.368 . S
C1079 C1063 1.349 . S
C1079 H1071 0.950 . S
C1079 C1077 1.327 . S
C1080 C1068 1.349 . S
C1080 H1074 0.950 . S
C1080 C1081 1.327 . S
C1081 H1075 0.950 . S
C1081 C1080 1.327 . S
C1081 C1085 1.429 . S
C1082 C1065 1.574 . S
C1082 H1076 0.949 . S
C1082 C1086 1.368 . S
C1083 C1064 1.429 . S
C1083 C1077 1.429 . S
C1083 C1084 1.523 . S
C1084 C1065 1.368 . S
C1084 C1078 1.368 . S
C1084 C1083 1.523 . S
C1085 C1069 1.429 . S
C1085 C1081 1.429 . S
C1085 C1086 1.523 . S
C1086 C1070 1.368 . S
C1086 C1082 1.368 . S
C1086 C1085 1.523 . S
H1087 C1062 0.950 . S
H1088 C1064 0.950 . S
H1089 C1065 0.949 . S
H1090 C1067 0.950 . S
H1091 C1069 0.950 . S
C1092 C1093 1.349 . S
C1092 C1094 1.327 . S
C1092 H1117 0.950 . S
C1093 C1092 1.349 . S
C1093 C1109 1.349 . S
C1094 C1092 1.327 . S
C1094 C1113 1.429 . S
C1094 H1118 0.950 . S
C1095 C1112 1.574 . S
C1095 C1114 1.368 . S
C1095 H1119 0.949 . S
H1096 C1100 0.949 . S
C1097 C1098 1.349 . S
C1097 C1099 1.327 . S
C1097 H1120 0.950 . S
C1098 C1097 1.349 . S
C1098 C1110 1.349 . S
C1099 C1097 1.327 . S
C1099 C1115 1.429 . S
C1099 H1121 0.950 . S
C1100 H1096 0.949 . S
C1100 C1108 1.574 . S
C1100 C1116 1.368 . S
H1101 C1109 0.950 . S
H1102 C1107 0.950 . S
H1103 C1108 0.949 . S
H1104 C1110 0.950 . S
H1105 C1111 0.950 . S
H1106 C1112 0.949 . S
C1107 H1102 0.950 . S
C1107 C1109 1.327 . S
C1107 C1113 1.429 . S
C1108 C1100 1.574 . S
C1108 H1103 0.949 . S
C1108 C1114 1.368 . S
C1109 C1093 1.349 . S
C1109 H1101 0.950 . S
C1109 C1107 1.327 . S
C1110 C1098 1.349 . S
C1110 H1104 0.950 . S
C1110 C1111 1.327 . S
C1111 H1105 0.950 . S
C1111 C1110 1.327 . S
C1111 C1115 1.429 . S
C1112 C1095 1.574 . S
C1112 H1106 0.949 . S
C1112 C1116 1.368 . S
C1113 C1094 1.429 . S
C1113 C1107 1.429 . S
C1113 C1114 1.523 . S
C1114 C1095 1.368 . S
C1114 C1108 1.368 . S
C1114 C1113 1.523 . S
C1115 C1099 1.429 . S
C1115 C1111 1.429 . S
C1115 C1116 1.523 . S
C1116 C1100 1.368 . S
C1116 C1112 1.368 . S
C1116 C1115 1.523 . S
H1117 C1092 0.950 . S
H1118 C1094 0.950 . S
H1119 C1095 0.949 . S
H1120 C1097 0.950 . S
H1121 C1099 0.950 . S
C1122 C1123 1.349 . S
C1122 C1124 1.327 . S
C1122 H1147 0.950 . S
C1123 C1122 1.349 . S
C1123 C1139 1.349 . S
C1124 C1122 1.327 . S
C1124 C1143 1.429 . S
C1124 H1148 0.950 . S
C1125 C1142 1.574 . S
C1125 C1144 1.368 . S
C1125 H1149 0.949 . S
H1126 C1130 0.949 . S
C1127 C1128 1.349 . S
C1127 C1129 1.327 . S
C1127 H1150 0.950 . S
C1128 C1127 1.349 . S
C1128 C1140 1.349 . S
C1129 C1127 1.327 . S
C1129 C1145 1.429 . S
C1129 H1151 0.950 . S
C1130 H1126 0.949 . S
C1130 C1138 1.574 . S
C1130 C1146 1.368 . S
H1131 C1139 0.950 . S
H1132 C1137 0.950 . S
H1133 C1138 0.949 . S
H1134 C1140 0.950 . S
H1135 C1141 0.950 . S
H1136 C1142 0.949 . S
C1137 H1132 0.950 . S
C1137 C1139 1.327 . S
C1137 C1143 1.429 . S
C1138 C1130 1.574 . S
C1138 H1133 0.949 . S
C1138 C1144 1.368 . S
C1139 C1123 1.349 . S
C1139 H1131 0.950 . S
C1139 C1137 1.327 . S
C1140 C1128 1.349 . S
C1140 H1134 0.950 . S
C1140 C1141 1.327 . S
C1141 H1135 0.950 . S
C1141 C1140 1.327 . S
C1141 C1145 1.429 . S
C1142 C1125 1.574 . S
C1142 H1136 0.949 . S
C1142 C1146 1.368 . S
C1143 C1124 1.429 . S
C1143 C1137 1.429 . S
C1143 C1144 1.523 . S
C1144 C1125 1.368 . S
C1144 C1138 1.368 . S
C1144 C1143 1.523 . S
C1145 C1129 1.429 . S
C1145 C1141 1.429 . S
C1145 C1146 1.523 . S
C1146 C1130 1.368 . S
C1146 C1142 1.368 . S
C1146 C1145 1.523 . S
H1147 C1122 0.950 . S
H1148 C1124 0.950 . S
H1149 C1125 0.949 . S
H1150 C1127 0.950 . S
H1151 C1129 0.950 . S
C1152 C1153 1.349 . S
C1152 C1154 1.327 . S
C1152 H1177 0.950 . S
C1153 C1152 1.349 . S
C1153 C1169 1.349 . S
C1154 C1152 1.327 . S
C1154 C1173 1.429 . S
C1154 H1178 0.950 . S
C1155 C1172 1.574 . S
C1155 C1174 1.368 . S
C1155 H1179 0.949 . S
H1156 C1160 0.949 . S
C1157 C1158 1.349 . S
C1157 C1159 1.327 . S
C1157 H1180 0.950 . S
C1158 C1157 1.349 . S
C1158 C1170 1.349 . S
C1159 C1157 1.327 . S
C1159 C1175 1.429 . S
C1159 H1181 0.950 . S
C1160 H1156 0.949 . S
C1160 C1168 1.574 . S
C1160 C1176 1.368 . S
H1161 C1169 0.950 . S
H1162 C1167 0.950 . S
H1163 C1168 0.949 . S
H1164 C1170 0.950 . S
H1165 C1171 0.950 . S
H1166 C1172 0.949 . S
C1167 H1162 0.950 . S
C1167 C1169 1.327 . S
C1167 C1173 1.429 . S
C1168 C1160 1.574 . S
C1168 H1163 0.949 . S
C1168 C1174 1.368 . S
C1169 C1153 1.349 . S
C1169 H1161 0.950 . S
C1169 C1167 1.327 . S
C1170 C1158 1.349 . S
C1170 H1164 0.950 . S
C1170 C1171 1.327 . S
C1171 H1165 0.950 . S
C1171 C1170 1.327 . S
C1171 C1175 1.429 . S
C1172 C1155 1.574 . S
C1172 H1166 0.949 . S
C1172 C1176 1.368 . S
C1173 C1154 1.429 . S
C1173 C1167 1.429 . S
C1173 C1174 1.523 . S
C1174 C1155 1.368 . S
C1174 C1168 1.368 . S
C1174 C1173 1.523 . S
C1175 C1159 1.429 . S
C1175 C1171 1.429 . S
C1175 C1176 1.523 . S
C1176 C1160 1.368 . S
C1176 C1172 1.368 . S
C1176 C1175 1.523 . S
H1177 C1152 0.950 . S
H1178 C1154 0.950 . S
H1179 C1155 0.949 . S
H1180 C1157 0.950 . S
H1181 C1159 0.950 . S
C1182 C1183 1.349 . S
C1182 C1184 1.327 . S
C1182 H1207 0.950 . S
C1183 C1182 1.349 . S
C1183 C1199 1.349 . S
C1184 C1182 1.327 . S
C1184 C1203 1.429 . S
C1184 H1208 0.950 . S
C1185 C1202 1.574 . S
C1185 C1204 1.368 . S
C1185 H1209 0.949 . S
H1186 C1190 0.949 . S
C1187 C1188 1.349 . S
C1187 C1189 1.327 . S
C1187 H1210 0.950 . S
C1188 C1187 1.349 . S
C1188 C1200 1.349 . S
C1189 C1187 1.327 . S
C1189 C1205 1.429 . S
C1189 H1211 0.950 . S
C1190 H1186 0.949 . S
C1190 C1198 1.574 . S
C1190 C1206 1.368 . S
H1191 C1199 0.950 . S
H1192 C1197 0.950 . S
H1193 C1198 0.949 . S
H1194 C1200 0.950 . S
H1195 C1201 0.950 . S
H1196 C1202 0.949 . S
C1197 H1192 0.950 . S
C1197 C1199 1.327 . S
C1197 C1203 1.429 . S
C1198 C1190 1.574 . S
C1198 H1193 0.949 . S
C1198 C1204 1.368 . S
C1199 C1183 1.349 . S
C1199 H1191 0.950 . S
C1199 C1197 1.327 . S
C1200 C1188 1.349 . S
C1200 H1194 0.950 . S
C1200 C1201 1.327 . S
C1201 H1195 0.950 . S
C1201 C1200 1.327 . S
C1201 C1205 1.429 . S
C1202 C1185 1.574 . S
C1202 H1196 0.949 . S
C1202 C1206 1.368 . S
C1203 C1184 1.429 . S
C1203 C1197 1.429 . S
C1203 C1204 1.523 . S
C1204 C1185 1.368 . S
C1204 C1198 1.368 . S
C1204 C1203 1.523 . S
C1205 C1189 1.429 . S
C1205 C1201 1.429 . S
C1205 C1206 1.523 . S
C1206 C1190 1.368 . S
C1206 C1202 1.368 . S
C1206 C1205 1.523 . S
H1207 C1182 0.950 . S
H1208 C1184 0.950 . S
H1209 C1185 0.949 . S
H1210 C1187 0.950 . S
H1211 C1189 0.950 . S
C1212 C1213 1.349 . S
C1212 C1214 1.327 . S
C1212 H1237 0.950 . S
C1213 C1212 1.349 . S
C1213 C1229 1.349 . S
C1214 C1212 1.327 . S
C1214 C1233 1.429 . S
C1214 H1238 0.950 . S
C1215 C1232 1.574 . S
C1215 C1234 1.368 . S
C1215 H1239 0.949 . S
H1216 C1220 0.949 . S
C1217 C1218 1.349 . S
C1217 C1219 1.327 . S
C1217 H1240 0.950 . S
C1218 C1217 1.349 . S
C1218 C1230 1.349 . S
C1219 C1217 1.327 . S
C1219 C1235 1.429 . S
C1219 H1241 0.950 . S
C1220 H1216 0.949 . S
C1220 C1228 1.574 . S
C1220 C1236 1.368 . S
H1221 C1229 0.950 . S
H1222 C1227 0.950 . S
H1223 C1228 0.949 . S
H1224 C1230 0.950 . S
H1225 C1231 0.950 . S
H1226 C1232 0.949 . S
C1227 H1222 0.950 . S
C1227 C1229 1.327 . S
C1227 C1233 1.429 . S
C1228 C1220 1.574 . S
C1228 H1223 0.949 . S
C1228 C1234 1.368 . S
C1229 C1213 1.349 . S
C1229 H1221 0.950 . S
C1229 C1227 1.327 . S
C1230 C1218 1.349 . S
C1230 H1224 0.950 . S
C1230 C1231 1.327 . S
C1231 H1225 0.950 . S
C1231 C1230 1.327 . S
C1231 C1235 1.429 . S
C1232 C1215 1.574 . S
C1232 H1226 0.949 . S
C1232 C1236 1.368 . S
C1233 C1214 1.429 . S
C1233 C1227 1.429 . S
C1233 C1234 1.523 . S
C1234 C1215 1.368 . S
C1234 C1228 1.368 . S
C1234 C1233 1.523 . S
C1235 C1219 1.429 . S
C1235 C1231 1.429 . S
C1235 C1236 1.523 . S
C1236 C1220 1.368 . S
C1236 C1232 1.368 . S
C1236 C1235 1.523 . S
H1237 C1212 0.950 . S
H1238 C1214 0.950 . S
H1239 C1215 0.949 . S
H1240 C1217 0.950 . S
H1241 C1219 0.950 . S
C1242 C1243 1.349 . S
C1242 C1244 1.327 . S
C1242 H1267 0.950 . S
C1243 C1242 1.349 . S
C1243 C1259 1.349 . S
C1244 C1242 1.327 . S
C1244 C1263 1.429 . S
C1244 H1268 0.950 . S
C1245 C1262 1.574 . S
C1245 C1264 1.368 . S
C1245 H1269 0.949 . S
H1246 C1250 0.949 . S
C1247 C1248 1.349 . S
C1247 C1249 1.327 . S
C1247 H1270 0.950 . S
C1248 C1247 1.349 . S
C1248 C1260 1.349 . S
C1249 C1247 1.327 . S
C1249 C1265 1.429 . S
C1249 H1271 0.950 . S
C1250 H1246 0.949 . S
C1250 C1258 1.574 . S
C1250 C1266 1.368 . S
H1251 C1259 0.950 . S
H1252 C1257 0.950 . S
H1253 C1258 0.949 . S
H1254 C1260 0.950 . S
H1255 C1261 0.950 . S
H1256 C1262 0.949 . S
C1257 H1252 0.950 . S
C1257 C1259 1.327 . S
C1257 C1263 1.429 . S
C1258 C1250 1.574 . S
C1258 H1253 0.949 . S
C1258 C1264 1.368 . S
C1259 C1243 1.349 . S
C1259 H1251 0.950 . S
C1259 C1257 1.327 . S
C1260 C1248 1.349 . S
C1260 H1254 0.950 . S
C1260 C1261 1.327 . S
C1261 H1255 0.950 . S
C1261 C1260 1.327 . S
C1261 C1265 1.429 . S
C1262 C1245 1.574 . S
C1262 H1256 0.949 . S
C1262 C1266 1.368 . S
C1263 C1244 1.429 . S
C1263 C1257 1.429 . S
C1263 C1264 1.523 . S
C1264 C1245 1.368 . S
C1264 C1258 1.368 . S
C1264 C1263 1.523 . S
C1265 C1249 1.429 . S
C1265 C1261 1.429 . S
C1265 C1266 1.523 . S
C1266 C1250 1.368 . S
C1266 C1262 1.368 . S
C1266 C1265 1.523 . S
H1267 C1242 0.950 . S
H1268 C1244 0.950 . S
H1269 C1245 0.949 . S
H1270 C1247 0.950 . S
H1271 C1249 0.950 . S
C1272 C1273 1.349 . S
C1272 C1274 1.327 . S
C1272 H1297 0.950 . S
C1273 C1272 1.349 . S
C1273 C1289 1.349 . S
C1274 C1272 1.327 . S
C1274 C1293 1.429 . S
C1274 H1298 0.950 . S
C1275 C1292 1.574 . S
C1275 C1294 1.368 . S
C1275 H1299 0.949 . S
H1276 C1280 0.949 . S
C1277 C1278 1.349 . S
C1277 C1279 1.327 . S
C1277 H1300 0.950 . S
C1278 C1277 1.349 . S
C1278 C1290 1.349 . S
C1279 C1277 1.327 . S
C1279 C1295 1.429 . S
C1279 H1301 0.950 . S
C1280 H1276 0.949 . S
C1280 C1288 1.574 . S
C1280 C1296 1.368 . S
H1281 C1289 0.950 . S
H1282 C1287 0.950 . S
H1283 C1288 0.949 . S
H1284 C1290 0.950 . S
H1285 C1291 0.950 . S
H1286 C1292 0.949 . S
C1287 H1282 0.950 . S
C1287 C1289 1.327 . S
C1287 C1293 1.429 . S
C1288 C1280 1.574 . S
C1288 H1283 0.949 . S
C1288 C1294 1.368 . S
C1289 C1273 1.349 . S
C1289 H1281 0.950 . S
C1289 C1287 1.327 . S
C1290 C1278 1.349 . S
C1290 H1284 0.950 . S
C1290 C1291 1.327 . S
C1291 H1285 0.950 . S
C1291 C1290 1.327 . S
C1291 C1295 1.429 . S
C1292 C1275 1.574 . S
C1292 H1286 0.949 . S
C1292 C1296 1.368 . S
C1293 C1274 1.429 . S
C1293 C1287 1.429 . S
C1293 C1294 1.523 . S
C1294 C1275 1.368 . S
C1294 C1288 1.368 . S
C1294 C1293 1.523 . S
C1295 C1279 1.429 . S
C1295 C1291 1.429 . S
C1295 C1296 1.523 . S
C1296 C1280 1.368 . S
C1296 C1292 1.368 . S
C1296 C1295 1.523 . S
H1297 C1272 0.950 . S
H1298 C1274 0.950 . S
H1299 C1275 0.949 . S
H1300 C1277 0.950 . S
H1301 C1279 0.950 . S
C1302 C1303 1.349 . S
C1302 C1304 1.327 . S
C1302 H1327 0.950 . S
C1303 C1302 1.349 . S
C1303 C1319 1.349 . S
C1304 C1302 1.327 . S
C1304 C1323 1.429 . S
C1304 H1328 0.950 . S
C1305 C1322 1.574 1_565 S
C1305 C1324 1.368 . S
C1305 H1329 0.949 . S
H1306 C1310 0.949 . S
C1307 C1308 1.349 . S
C1307 C1309 1.327 . S
C1307 H1330 0.950 . S
C1308 C1307 1.349 . S
C1308 C1320 1.349 . S
C1309 C1307 1.327 . S
C1309 C1325 1.429 . S
C1309 H1331 0.950 . S
C1310 H1306 0.949 . S
C1310 C1318 1.574 1_545 S
C1310 C1326 1.368 . S
H1311 C1319 0.950 . S
H1312 C1317 0.950 . S
H1313 C1318 0.949 . S
H1314 C1320 0.950 . S
H1315 C1321 0.950 . S
H1316 C1322 0.949 . S
C1317 H1312 0.950 . S
C1317 C1319 1.327 . S
C1317 C1323 1.429 . S
C1318 C1310 1.574 1_565 S
C1318 H1313 0.949 . S
C1318 C1324 1.368 . S
C1319 C1303 1.349 . S
C1319 H1311 0.950 . S
C1319 C1317 1.327 . S
C1320 C1308 1.349 . S
C1320 H1314 0.950 . S
C1320 C1321 1.327 . S
C1321 H1315 0.950 . S
C1321 C1320 1.327 . S
C1321 C1325 1.429 . S
C1322 C1305 1.574 1_545 S
C1322 H1316 0.949 . S
C1322 C1326 1.368 . S
C1323 C1304 1.429 . S
C1323 C1317 1.429 . S
C1323 C1324 1.523 . S
C1324 C1305 1.368 . S
C1324 C1318 1.368 . S
C1324 C1323 1.523 . S
C1325 C1309 1.429 . S
C1325 C1321 1.429 . S
C1325 C1326 1.523 . S
C1326 C1310 1.368 . S
C1326 C1322 1.368 . S
C1326 C1325 1.523 . S
H1327 C1302 0.950 . S
H1328 C1304 0.950 . S
H1329 C1305 0.949 . S
H1330 C1307 0.950 . S
H1331 C1309 0.950 . S
C1332 C1333 1.349 . S
C1332 C1334 1.327 . S
C1332 H1357 0.950 . S
C1333 C1332 1.349 . S
C1333 C1349 1.349 . S
C1334 C1332 1.327 . S
C1334 C1353 1.429 . S
C1334 H1358 0.950 . S
C1335 C1352 1.613 . S
C1335 C1354 1.339 1_655 S
C1335 H1359 0.943 . S
H1336 C1340 0.943 . S
C1337 C1338 1.349 . S
C1337 C1339 1.327 . S
C1337 H1360 0.950 . S
C1338 C1337 1.349 . S
C1338 C1350 1.349 . S
C1339 C1337 1.327 . S
C1339 C1355 1.429 . S
C1339 H1361 0.950 . S
C1340 H1336 0.943 . S
C1340 C1348 1.613 . S
C1340 C1356 1.339 1_455 S
H1341 C1349 0.950 . S
H1342 C1347 0.950 . S
H1343 C1348 0.949 . S
H1344 C1350 0.950 . S
H1345 C1351 0.950 . S
H1346 C1352 0.949 . S
C1347 H1342 0.950 . S
C1347 C1349 1.327 . S
C1347 C1353 1.429 . S
C1348 C1340 1.613 . S
C1348 H1343 0.949 . S
C1348 C1354 1.368 . S
C1349 C1333 1.349 . S
C1349 H1341 0.950 . S
C1349 C1347 1.327 . S
C1350 C1338 1.349 . S
C1350 H1344 0.950 . S
C1350 C1351 1.327 . S
C1351 H1345 0.950 . S
C1351 C1350 1.327 . S
C1351 C1355 1.429 . S
C1352 C1335 1.613 . S
C1352 H1346 0.949 . S
C1352 C1356 1.368 . S
C1353 C1334 1.429 . S
C1353 C1347 1.429 . S
C1353 C1354 1.523 . S
C1354 C1335 1.339 1_455 S
C1354 C1348 1.368 . S
C1354 C1353 1.523 . S
C1355 C1339 1.429 . S
C1355 C1351 1.429 . S
C1355 C1356 1.523 . S
C1356 C1340 1.339 1_655 S
C1356 C1352 1.368 . S
C1356 C1355 1.523 . S
H1357 C1332 0.950 . S
H1358 C1334 0.950 . S
H1359 C1335 0.943 . S
H1360 C1337 0.950 . S
H1361 C1339 0.950 . S
C1362 C1363 1.349 . S
C1362 C1364 1.327 . S
C1362 H1387 0.950 . S
C1363 C1362 1.349 . S
C1363 C1379 1.349 . S
C1364 C1362 1.327 . S
C1364 C1383 1.429 . S
C1364 H1388 0.950 . S
C1365 C1382 1.574 . S
C1365 C1384 1.368 . S
C1365 H1389 0.949 . S
H1366 C1370 0.949 . S
C1367 C1368 1.349 . S
C1367 C1369 1.327 . S
C1367 H1390 0.950 . S
C1368 C1367 1.349 . S
C1368 C1380 1.349 . S
C1369 C1367 1.327 . S
C1369 C1385 1.429 . S
C1369 H1391 0.950 . S
C1370 H1366 0.949 . S
C1370 C1378 1.574 . S
C1370 C1386 1.368 . S
H1371 C1379 0.950 . S
H1372 C1377 0.950 . S
H1373 C1378 0.949 . S
H1374 C1380 0.950 . S
H1375 C1381 0.950 . S
H1376 C1382 0.949 . S
C1377 H1372 0.950 . S
C1377 C1379 1.327 . S
C1377 C1383 1.429 . S
C1378 C1370 1.574 . S
C1378 H1373 0.949 . S
C1378 C1384 1.368 . S
C1379 C1363 1.349 . S
C1379 H1371 0.950 . S
C1379 C1377 1.327 . S
C1380 C1368 1.349 . S
C1380 H1374 0.950 . S
C1380 C1381 1.327 . S
C1381 H1375 0.950 . S
C1381 C1380 1.327 . S
C1381 C1385 1.429 . S
C1382 C1365 1.574 . S
C1382 H1376 0.949 . S
C1382 C1386 1.368 . S
C1383 C1364 1.429 . S
C1383 C1377 1.429 . S
C1383 C1384 1.523 . S
C1384 C1365 1.368 . S
C1384 C1378 1.368 . S
C1384 C1383 1.523 . S
C1385 C1369 1.429 . S
C1385 C1381 1.429 . S
C1385 C1386 1.523 . S
C1386 C1370 1.368 . S
C1386 C1382 1.368 . S
C1386 C1385 1.523 . S
H1387 C1362 0.950 . S
H1388 C1364 0.950 . S
H1389 C1365 0.949 . S
H1390 C1367 0.950 . S
H1391 C1369 0.950 . S
C1392 C1393 1.349 . S
C1392 C1394 1.327 . S
C1392 H1417 0.950 . S
C1393 C1392 1.349 . S
C1393 C1409 1.349 . S
C1394 C1392 1.327 . S
C1394 C1413 1.429 . S
C1394 H1418 0.950 . S
C1395 C1412 1.595 . S
C1395 C1414 1.354 1_545 S
C1395 H1419 0.948 . S
H1396 C1400 0.948 . S
C1397 C1398 1.349 . S
C1397 C1399 1.327 . S
C1397 H1420 0.950 . S
C1398 C1397 1.349 . S
C1398 C1410 1.349 . S
C1399 C1397 1.327 . S
C1399 C1415 1.429 . S
C1399 H1421 0.950 . S
C1400 H1396 0.948 . S
C1400 C1408 1.595 . S
C1400 C1416 1.354 1_565 S
H1401 C1409 0.950 . S
H1402 C1407 0.950 . S
H1403 C1408 0.949 . S
H1404 C1410 0.950 . S
H1405 C1411 0.950 . S
H1406 C1412 0.949 . S
C1407 H1402 0.950 . S
C1407 C1409 1.327 . S
C1407 C1413 1.429 . S
C1408 C1400 1.595 . S
C1408 H1403 0.949 . S
C1408 C1414 1.368 . S
C1409 C1393 1.349 . S
C1409 H1401 0.950 . S
C1409 C1407 1.327 . S
C1410 C1398 1.349 . S
C1410 H1404 0.950 . S
C1410 C1411 1.327 . S
C1411 H1405 0.950 . S
C1411 C1410 1.327 . S
C1411 C1415 1.429 . S
C1412 C1395 1.595 . S
C1412 H1406 0.949 . S
C1412 C1416 1.368 . S
C1413 C1394 1.429 . S
C1413 C1407 1.429 . S
C1413 C1414 1.523 . S
C1414 C1395 1.354 1_565 S
C1414 C1408 1.368 . S
C1414 C1413 1.523 . S
C1415 C1399 1.429 . S
C1415 C1411 1.429 . S
C1415 C1416 1.523 . S
C1416 C1400 1.354 1_545 S
C1416 C1412 1.368 . S
C1416 C1415 1.523 . S
H1417 C1392 0.950 . S
H1418 C1394 0.950 . S
H1419 C1395 0.948 . S
H1420 C1397 0.950 . S
H1421 C1399 0.950 . S
C1422 C1423 1.349 . S
C1422 C1424 1.327 . S
C1422 H1447 0.950 . S
C1423 C1422 1.349 . S
C1423 C1439 1.349 . S
C1424 C1422 1.327 . S
C1424 C1443 1.429 . S
C1424 H1448 0.950 . S
C1425 C1442 1.574 1_655 S
C1425 C1444 1.368 . S
C1425 H1449 0.949 . S
H1426 C1430 0.949 . S
C1427 C1428 1.349 . S
C1427 C1429 1.327 . S
C1427 H1450 0.950 . S
C1428 C1427 1.349 . S
C1428 C1440 1.349 . S
C1429 C1427 1.327 . S
C1429 C1445 1.429 . S
C1429 H1451 0.950 . S
C1430 H1426 0.949 . S
C1430 C1438 1.574 1_455 S
C1430 C1446 1.368 . S
H1431 C1439 0.950 . S
H1432 C1437 0.950 . S
H1433 C1438 0.949 . S
H1434 C1440 0.950 . S
H1435 C1441 0.950 . S
H1436 C1442 0.949 . S
C1437 H1432 0.950 . S
C1437 C1439 1.327 . S
C1437 C1443 1.429 . S
C1438 C1430 1.574 1_655 S
C1438 H1433 0.949 . S
C1438 C1444 1.368 . S
C1439 C1423 1.349 . S
C1439 H1431 0.950 . S
C1439 C1437 1.327 . S
C1440 C1428 1.349 . S
C1440 H1434 0.950 . S
C1440 C1441 1.327 . S
C1441 H1435 0.950 . S
C1441 C1440 1.327 . S
C1441 C1445 1.429 . S
C1442 C1425 1.574 1_455 S
C1442 H1436 0.949 . S
C1442 C1446 1.368 . S
C1443 C1424 1.429 . S
C1443 C1437 1.429 . S
C1443 C1444 1.523 . S
C1444 C1425 1.368 . S
C1444 C1438 1.368 . S
C1444 C1443 1.523 . S
C1445 C1429 1.429 . S
C1445 C1441 1.429 . S
C1445 C1446 1.523 . S
C1446 C1430 1.368 . S
C1446 C1442 1.368 . S
C1446 C1445 1.523 . S
H1447 C1422 0.950 . S
H1448 C1424 0.950 . S
H1449 C1425 0.949 . S
H1450 C1427 0.950 . S
H1451 C1429 0.950 . S
C1452 C1453 1.349 . S
C1452 C1454 1.327 . S
C1452 H1477 0.950 . S
C1453 C1452 1.349 . S
C1453 C1469 1.349 . S
C1454 C1452 1.327 . S
C1454 C1473 1.429 . S
C1454 H1478 0.950 . S
C1455 C1472 1.574 . S
C1455 C1474 1.368 . S
C1455 H1479 0.949 . S
H1456 C1460 0.949 . S
C1457 C1458 1.349 . S
C1457 C1459 1.327 1_554 S
C1457 H1480 0.950 . S
C1458 C1457 1.349 . S
C1458 C1470 1.349 1_554 S
C1459 C1457 1.327 1_556 S
C1459 C1475 1.429 . S
C1459 H1481 0.950 . S
C1460 H1456 0.949 . S
C1460 C1468 1.574 . S
C1460 C1476 1.368 . S
H1461 C1469 0.950 . S
H1462 C1467 0.950 . S
H1463 C1468 0.949 . S
H1464 C1470 0.950 . S
H1465 C1471 0.950 . S
H1466 C1472 0.949 . S
C1467 H1462 0.950 . S
C1467 C1469 1.327 . S
C1467 C1473 1.429 . S
C1468 C1460 1.574 . S
C1468 H1463 0.949 . S
C1468 C1474 1.368 . S
C1469 C1453 1.349 . S
C1469 H1461 0.950 . S
C1469 C1467 1.327 . S
C1470 C1458 1.349 1_556 S
C1470 H1464 0.950 . S
C1470 C1471 1.327 . S
C1471 H1465 0.950 . S
C1471 C1470 1.327 . S
C1471 C1475 1.429 . S
C1472 C1455 1.574 . S
C1472 H1466 0.949 . S
C1472 C1476 1.368 . S
C1473 C1454 1.429 . S
C1473 C1467 1.429 . S
C1473 C1474 1.523 . S
C1474 C1455 1.368 . S
C1474 C1468 1.368 . S
C1474 C1473 1.523 . S
C1475 C1459 1.429 . S
C1475 C1471 1.429 . S
C1475 C1476 1.523 . S
C1476 C1460 1.368 . S
C1476 C1472 1.368 . S
C1476 C1475 1.523 . S
H1477 C1452 0.950 . S
H1478 C1454 0.950 . S
H1479 C1455 0.949 . S
H1480 C1457 0.950 . S
H1481 C1459 0.950 . S
C1482 C1483 1.349 1_556 S
C1482 C1484 1.327 . S
C1482 H1507 0.950 . S
C1483 C1482 1.349 1_554 S
C1483 C1499 1.349 . S
C1484 C1482 1.327 . S
C1484 C1503 1.429 . S
C1484 H1508 0.950 . S
C1485 C1502 1.574 . S
C1485 C1504 1.368 . S
C1485 H1509 0.949 . S
H1486 C1490 0.949 . S
C1487 C1488 1.349 . S
C1487 C1489 1.327 . S
C1487 H1510 0.950 . S
C1488 C1487 1.349 . S
C1488 C1500 1.349 . S
C1489 C1487 1.327 . S
C1489 C1505 1.429 . S
C1489 H1511 0.950 . S
C1490 H1486 0.949 . S
C1490 C1498 1.574 . S
C1490 C1506 1.368 . S
H1491 C1499 0.950 . S
H1492 C1497 0.950 . S
H1493 C1498 0.949 . S
H1494 C1500 0.950 . S
H1495 C1501 0.950 . S
H1496 C1502 0.949 . S
C1497 H1492 0.950 . S
C1497 C1499 1.327 1_556 S
C1497 C1503 1.429 . S
C1498 C1490 1.574 . S
C1498 H1493 0.949 . S
C1498 C1504 1.368 . S
C1499 C1483 1.349 . S
C1499 H1491 0.950 . S
C1499 C1497 1.327 1_554 S
C1500 C1488 1.349 . S
C1500 H1494 0.950 . S
C1500 C1501 1.327 . S
C1501 H1495 0.950 . S
C1501 C1500 1.327 . S
C1501 C1505 1.429 . S
C1502 C1485 1.574 . S
C1502 H1496 0.949 . S
C1502 C1506 1.368 . S
C1503 C1484 1.429 . S
C1503 C1497 1.429 . S
C1503 C1504 1.523 . S
C1504 C1485 1.368 . S
C1504 C1498 1.368 . S
C1504 C1503 1.523 . S
C1505 C1489 1.429 . S
C1505 C1501 1.429 . S
C1505 C1506 1.523 . S
C1506 C1490 1.368 . S
C1506 C1502 1.368 . S
C1506 C1505 1.523 . S
H1507 C1482 0.950 . S
H1508 C1484 0.950 . S
H1509 C1485 0.949 . S
H1510 C1487 0.950 . S
H1511 C1489 0.950 . S
C1512 C1513 1.349 1_556 S
C1512 C1514 1.327 . S
C1512 H1537 0.950 . S
C1513 C1512 1.349 1_554 S
C1513 C1529 1.349 . S
C1514 C1512 1.327 . S
C1514 C1533 1.429 . S
C1514 H1538 0.950 . S
C1515 C1532 1.574 . S
C1515 C1534 1.368 . S
C1515 H1539 0.949 . S
H1516 C1520 0.949 . S
C1517 C1518 1.349 . S
C1517 C1519 1.327 . S
C1517 H1540 0.950 . S
C1518 C1517 1.349 . S
C1518 C1530 1.349 . S
C1519 C1517 1.327 . S
C1519 C1535 1.429 . S
C1519 H1541 0.950 . S
C1520 H1516 0.949 . S
C1520 C1528 1.574 . S
C1520 C1536 1.368 . S
H1521 C1529 0.950 . S
H1522 C1527 0.950 . S
H1523 C1528 0.949 . S
H1524 C1530 0.950 . S
H1525 C1531 0.950 . S
H1526 C1532 0.949 . S
C1527 H1522 0.950 . S
C1527 C1529 1.327 1_556 S
C1527 C1533 1.429 . S
C1528 C1520 1.574 . S
C1528 H1523 0.949 . S
C1528 C1534 1.368 . S
C1529 C1513 1.349 . S
C1529 H1521 0.950 . S
C1529 C1527 1.327 1_554 S
C1530 C1518 1.349 . S
C1530 H1524 0.950 . S
C1530 C1531 1.327 . S
C1531 H1525 0.950 . S
C1531 C1530 1.327 . S
C1531 C1535 1.429 . S
C1532 C1515 1.574 . S
C1532 H1526 0.949 . S
C1532 C1536 1.368 . S
C1533 C1514 1.429 . S
C1533 C1527 1.429 . S
C1533 C1534 1.523 . S
C1534 C1515 1.368 . S
C1534 C1528 1.368 . S
C1534 C1533 1.523 . S
C1535 C1519 1.429 . S
C1535 C1531 1.429 . S
C1535 C1536 1.523 . S
C1536 C1520 1.368 . S
C1536 C1532 1.368 . S
C1536 C1535 1.523 . S
H1537 C1512 0.950 . S
H1538 C1514 0.950 . S
H1539 C1515 0.949 . S
H1540 C1517 0.950 . S
H1541 C1519 0.950 . S
C1542 C1543 1.349 . S
C1542 C1544 1.327 . S
C1542 H1567 0.950 . S
C1543 C1542 1.349 . S
C1543 C1559 1.349 . S
C1544 C1542 1.327 . S
C1544 C1563 1.429 . S
C1544 H1568 0.950 . S
C1545 C1562 1.574 . S
C1545 C1564 1.368 . S
C1545 H1569 0.949 . S
H1546 C1550 0.949 . S
C1547 C1548 1.349 . S
C1547 C1549 1.327 . S
C1547 H1570 0.950 . S
C1548 C1547 1.349 . S
C1548 C1560 1.349 . S
C1549 C1547 1.327 . S
C1549 C1565 1.429 . S
C1549 H1571 0.950 . S
C1550 H1546 0.949 . S
C1550 C1558 1.574 . S
C1550 C1566 1.368 . S
H1551 C1559 0.950 . S
H1552 C1557 0.950 . S
H1553 C1558 0.949 . S
H1554 C1560 0.950 . S
H1555 C1561 0.950 . S
H1556 C1562 0.949 . S
C1557 H1552 0.950 . S
C1557 C1559 1.327 . S
C1557 C1563 1.429 . S
C1558 C1550 1.574 . S
C1558 H1553 0.949 . S
C1558 C1564 1.368 . S
C1559 C1543 1.349 . S
C1559 H1551 0.950 . S
C1559 C1557 1.327 . S
C1560 C1548 1.349 . S
C1560 H1554 0.950 . S
C1560 C1561 1.327 . S
C1561 H1555 0.950 . S
C1561 C1560 1.327 . S
C1561 C1565 1.429 . S
C1562 C1545 1.574 . S
C1562 H1556 0.949 . S
C1562 C1566 1.368 . S
C1563 C1544 1.429 . S
C1563 C1557 1.429 . S
C1563 C1564 1.523 . S
C1564 C1545 1.368 . S
C1564 C1558 1.368 . S
C1564 C1563 1.523 . S
C1565 C1549 1.429 . S
C1565 C1561 1.429 . S
C1565 C1566 1.523 . S
C1566 C1550 1.368 . S
C1566 C1562 1.368 . S
C1566 C1565 1.523 . S
H1567 C1542 0.950 . S
H1568 C1544 0.950 . S
H1569 C1545 0.949 . S
H1570 C1547 0.950 . S
H1571 C1549 0.950 . S
C1572 C1573 1.349 . S
C1572 C1574 1.327 . S
C1572 H1597 0.950 . S
C1573 C1572 1.349 . S
C1573 C1589 1.349 . S
C1574 C1572 1.327 . S
C1574 C1593 1.429 . S
C1574 H1598 0.950 . S
C1575 C1592 1.574 . S
C1575 C1594 1.368 . S
C1575 H1599 0.949 . S
H1576 C1580 0.949 . S
C1577 C1578 1.349 . S
C1577 C1579 1.327 . S
C1577 H1600 0.950 . S
C1578 C1577 1.349 . S
C1578 C1590 1.349 . S
C1579 C1577 1.327 . S
C1579 C1595 1.429 . S
C1579 H1601 0.950 . S
C1580 H1576 0.949 . S
C1580 C1588 1.574 . S
C1580 C1596 1.368 . S
H1581 C1589 0.950 . S
H1582 C1587 0.950 . S
H1583 C1588 0.949 . S
H1584 C1590 0.950 . S
H1585 C1591 0.950 . S
H1586 C1592 0.949 . S
C1587 H1582 0.950 . S
C1587 C1589 1.327 . S
C1587 C1593 1.429 . S
C1588 C1580 1.574 . S
C1588 H1583 0.949 . S
C1588 C1594 1.368 . S
C1589 C1573 1.349 . S
C1589 H1581 0.950 . S
C1589 C1587 1.327 . S
C1590 C1578 1.349 . S
C1590 H1584 0.950 . S
C1590 C1591 1.327 . S
C1591 H1585 0.950 . S
C1591 C1590 1.327 . S
C1591 C1595 1.429 . S
C1592 C1575 1.574 . S
C1592 H1586 0.949 . S
C1592 C1596 1.368 . S
C1593 C1574 1.429 . S
C1593 C1587 1.429 . S
C1593 C1594 1.523 . S
C1594 C1575 1.368 . S
C1594 C1588 1.368 . S
C1594 C1593 1.523 . S
C1595 C1579 1.429 . S
C1595 C1591 1.429 . S
C1595 C1596 1.523 . S
C1596 C1580 1.368 . S
C1596 C1592 1.368 . S
C1596 C1595 1.523 . S
H1597 C1572 0.950 . S
H1598 C1574 0.950 . S
H1599 C1575 0.949 . S
H1600 C1577 0.950 . S
H1601 C1579 0.950 . S
C1602 C1603 1.349 . S
C1602 C1604 1.327 . S
C1602 H1627 0.950 . S
C1603 C1602 1.349 . S
C1603 C1619 1.349 . S
C1604 C1602 1.327 . S
C1604 C1623 1.429 . S
C1604 H1628 0.950 . S
C1605 C1622 1.574 . S
C1605 C1624 1.368 . S
C1605 H1629 0.949 . S
H1606 C1610 0.949 . S
C1607 C1608 1.349 . S
C1607 C1609 1.327 . S
C1607 H1630 0.950 . S
C1608 C1607 1.349 . S
C1608 C1620 1.349 . S
C1609 C1607 1.327 . S
C1609 C1625 1.429 . S
C1609 H1631 0.950 . S
C1610 H1606 0.949 . S
C1610 C1618 1.574 . S
C1610 C1626 1.368 . S
H1611 C1619 0.950 . S
H1612 C1617 0.950 . S
H1613 C1618 0.949 . S
H1614 C1620 0.950 . S
H1615 C1621 0.950 . S
H1616 C1622 0.949 . S
C1617 H1612 0.950 . S
C1617 C1619 1.327 . S
C1617 C1623 1.429 . S
C1618 C1610 1.574 . S
C1618 H1613 0.949 . S
C1618 C1624 1.368 . S
C1619 C1603 1.349 . S
C1619 H1611 0.950 . S
C1619 C1617 1.327 . S
C1620 C1608 1.349 . S
C1620 H1614 0.950 . S
C1620 C1621 1.327 . S
C1621 H1615 0.950 . S
C1621 C1620 1.327 . S
C1621 C1625 1.429 . S
C1622 C1605 1.574 . S
C1622 H1616 0.949 . S
C1622 C1626 1.368 . S
C1623 C1604 1.429 . S
C1623 C1617 1.429 . S
C1623 C1624 1.523 . S
C1624 C1605 1.368 . S
C1624 C1618 1.368 . S
C1624 C1623 1.523 . S
C1625 C1609 1.429 . S
C1625 C1621 1.429 . S
C1625 C1626 1.523 . S
C1626 C1610 1.368 . S
C1626 C1622 1.368 . S
C1626 C1625 1.523 . S
H1627 C1602 0.950 . S
H1628 C1604 0.950 . S
H1629 C1605 0.949 . S
H1630 C1607 0.950 . S
H1631 C1609 0.950 . S
C1632 C1633 1.349 . S
C1632 C1634 1.327 1_556 S
C1632 H1657 0.950 . S
C1633 C1632 1.349 . S
C1633 C1649 1.349 1_556 S
C1634 C1632 1.327 1_554 S
C1634 C1653 1.429 . S
C1634 H1658 0.950 . S
C1635 C1652 1.574 . S
C1635 C1654 1.368 . S
C1635 H1659 0.949 . S
H1636 C1640 0.949 . S
C1637 C1638 1.349 . S
C1637 C1639 1.327 . S
C1637 H1660 0.950 . S
C1638 C1637 1.349 . S
C1638 C1650 1.349 . S
C1639 C1637 1.327 . S
C1639 C1655 1.429 . S
C1639 H1661 0.950 . S
C1640 H1636 0.949 . S
C1640 C1648 1.574 . S
C1640 C1656 1.368 . S
H1641 C1649 0.950 . S
H1642 C1647 0.950 . S
H1643 C1648 0.949 . S
H1644 C1650 0.950 . S
H1645 C1651 0.950 . S
H1646 C1652 0.949 . S
C1647 H1642 0.950 . S
C1647 C1649 1.327 . S
C1647 C1653 1.429 . S
C1648 C1640 1.574 . S
C1648 H1643 0.949 . S
C1648 C1654 1.368 . S
C1649 C1633 1.349 1_554 S
C1649 H1641 0.950 . S
C1649 C1647 1.327 . S
C1650 C1638 1.349 . S
C1650 H1644 0.950 . S
C1650 C1651 1.327 . S
C1651 H1645 0.950 . S
C1651 C1650 1.327 . S
C1651 C1655 1.429 . S
C1652 C1635 1.574 . S
C1652 H1646 0.949 . S
C1652 C1656 1.368 . S
C1653 C1634 1.429 . S
C1653 C1647 1.429 . S
C1653 C1654 1.523 . S
C1654 C1635 1.368 . S
C1654 C1648 1.368 . S
C1654 C1653 1.523 . S
C1655 C1639 1.429 . S
C1655 C1651 1.429 . S
C1655 C1656 1.523 . S
C1656 C1640 1.368 . S
C1656 C1652 1.368 . S
C1656 C1655 1.523 . S
H1657 C1632 0.950 . S
H1658 C1634 0.950 . S
H1659 C1635 0.949 . S
H1660 C1637 0.950 . S
H1661 C1639 0.950 . S
C1662 C1663 1.349 1_554 S
C1662 C1664 1.327 . S
C1662 H1687 0.950 1_554 S
C1663 C1662 1.349 1_556 S
C1663 C1679 1.349 1_556 S
C1664 C1662 1.327 . S
C1664 C1683 1.429 . S
C1664 H1688 0.950 . S
C1665 C1682 1.574 . S
C1665 C1684 1.368 . S
C1665 H1689 0.949 . S
H1666 C1670 0.949 . S
C1667 C1668 1.349 . S
C1667 C1669 1.327 . S
C1667 H1690 0.950 . S
C1668 C1667 1.349 . S
C1668 C1680 1.349 . S
C1669 C1667 1.327 . S
C1669 C1685 1.429 . S
C1669 H1691 0.950 . S
C1670 H1666 0.949 . S
C1670 C1678 1.574 . S
C1670 C1686 1.368 . S
H1671 C1679 0.950 1_556 S
H1672 C1677 0.950 . S
H1673 C1678 0.949 . S
H1674 C1680 0.950 . S
H1675 C1681 0.950 . S
H1676 C1682 0.949 . S
C1677 H1672 0.950 . S
C1677 C1679 1.327 . S
C1677 C1683 1.429 . S
C1678 C1670 1.574 . S
C1678 H1673 0.949 . S
C1678 C1684 1.368 . S
C1679 C1663 1.349 1_554 S
C1679 H1671 0.950 1_554 S
C1679 C1677 1.327 . S
C1680 C1668 1.349 . S
C1680 H1674 0.950 . S
C1680 C1681 1.327 . S
C1681 H1675 0.950 . S
C1681 C1680 1.327 . S
C1681 C1685 1.429 . S
C1682 C1665 1.574 . S
C1682 H1676 0.949 . S
C1682 C1686 1.368 . S
C1683 C1664 1.429 . S
C1683 C1677 1.429 . S
C1683 C1684 1.523 . S
C1684 C1665 1.368 . S
C1684 C1678 1.368 . S
C1684 C1683 1.523 . S
C1685 C1669 1.429 . S
C1685 C1681 1.429 . S
C1685 C1686 1.523 . S
C1686 C1670 1.368 . S
C1686 C1682 1.368 . S
C1686 C1685 1.523 . S
H1687 C1662 0.950 1_556 S
H1688 C1664 0.950 . S
H1689 C1665 0.949 . S
H1690 C1667 0.950 . S
H1691 C1669 0.950 . S
C1692 C1693 1.349 . S
C1692 C1694 1.327 1_556 S
C1692 H1717 0.950 . S
C1693 C1692 1.349 . S
C1693 C1709 1.349 1_556 S
C1694 C1692 1.327 1_554 S
C1694 C1713 1.429 . S
C1694 H1718 0.950 . S
C1695 C1712 1.574 . S
C1695 C1714 1.368 . S
C1695 H1719 0.949 . S
H1696 C1700 0.949 . S
C1697 C1698 1.349 . S
C1697 C1699 1.327 . S
C1697 H1720 0.950 . S
C1698 C1697 1.349 . S
C1698 C1710 1.349 . S
C1699 C1697 1.327 . S
C1699 C1715 1.429 . S
C1699 H1721 0.950 . S
C1700 H1696 0.949 . S
C1700 C1708 1.574 . S
C1700 C1716 1.368 . S
H1701 C1709 0.950 . S
H1702 C1707 0.950 . S
H1703 C1708 0.949 . S
H1704 C1710 0.950 . S
H1705 C1711 0.950 . S
H1706 C1712 0.949 . S
C1707 H1702 0.950 . S
C1707 C1709 1.327 . S
C1707 C1713 1.429 . S
C1708 C1700 1.574 . S
C1708 H1703 0.949 . S
C1708 C1714 1.368 . S
C1709 C1693 1.349 1_554 S
C1709 H1701 0.950 . S
C1709 C1707 1.327 . S
C1710 C1698 1.349 . S
C1710 H1704 0.950 . S
C1710 C1711 1.327 . S
C1711 H1705 0.950 . S
C1711 C1710 1.327 . S
C1711 C1715 1.429 . S
C1712 C1695 1.574 . S
C1712 H1706 0.949 . S
C1712 C1716 1.368 . S
C1713 C1694 1.429 . S
C1713 C1707 1.429 . S
C1713 C1714 1.523 . S
C1714 C1695 1.368 . S
C1714 C1708 1.368 . S
C1714 C1713 1.523 . S
C1715 C1699 1.429 . S
C1715 C1711 1.429 . S
C1715 C1716 1.523 . S
C1716 C1700 1.368 . S
C1716 C1712 1.368 . S
C1716 C1715 1.523 . S
H1717 C1692 0.950 . S
H1718 C1694 0.950 . S
H1719 C1695 0.949 . S
H1720 C1697 0.950 . S
H1721 C1699 0.950 . S
C1722 C1723 1.349 . S
C1722 C1724 1.327 . S
C1722 H1747 0.950 . S
C1723 C1722 1.349 . S
C1723 C1739 1.349 . S
C1724 C1722 1.327 . S
C1724 C1743 1.429 . S
C1724 H1748 0.950 . S
C1725 C1742 1.574 . S
C1725 C1744 1.368 . S
C1725 H1749 0.949 . S
H1726 C1730 0.949 . S
C1727 C1728 1.349 . S
C1727 C1729 1.327 . S
C1727 H1750 0.950 . S
C1728 C1727 1.349 . S
C1728 C1740 1.349 . S
C1729 C1727 1.327 . S
C1729 C1745 1.429 . S
C1729 H1751 0.950 . S
C1730 H1726 0.949 . S
C1730 C1738 1.574 . S
C1730 C1746 1.368 . S
H1731 C1739 0.950 . S
H1732 C1737 0.950 . S
H1733 C1738 0.949 . S
H1734 C1740 0.950 . S
H1735 C1741 0.950 . S
H1736 C1742 0.949 . S
C1737 H1732 0.950 . S
C1737 C1739 1.327 . S
C1737 C1743 1.429 . S
C1738 C1730 1.574 . S
C1738 H1733 0.949 . S
C1738 C1744 1.368 . S
C1739 C1723 1.349 . S
C1739 H1731 0.950 . S
C1739 C1737 1.327 . S
C1740 C1728 1.349 . S
C1740 H1734 0.950 . S
C1740 C1741 1.327 . S
C1741 H1735 0.950 . S
C1741 C1740 1.327 . S
C1741 C1745 1.429 . S
C1742 C1725 1.574 . S
C1742 H1736 0.949 . S
C1742 C1746 1.368 . S
C1743 C1724 1.429 . S
C1743 C1737 1.429 . S
C1743 C1744 1.523 . S
C1744 C1725 1.368 . S
C1744 C1738 1.368 . S
C1744 C1743 1.523 . S
C1745 C1729 1.429 . S
C1745 C1741 1.429 . S
C1745 C1746 1.523 . S
C1746 C1730 1.368 . S
C1746 C1742 1.368 . S
C1746 C1745 1.523 . S
H1747 C1722 0.950 . S
H1748 C1724 0.950 . S
H1749 C1725 0.949 . S
H1750 C1727 0.950 . S
H1751 C1729 0.950 . S
C1752 C1753 1.349 . S
C1752 C1754 1.327 . S
C1752 H1777 0.950 . S
C1753 C1752 1.349 . S
C1753 C1769 1.349 . S
C1754 C1752 1.327 . S
C1754 C1773 1.429 . S
C1754 H1778 0.950 . S
C1755 C1772 1.574 . S
C1755 C1774 1.368 . S
C1755 H1779 0.949 . S
H1756 C1760 0.949 . S
C1757 C1758 1.349 . S
C1757 C1759 1.327 . S
C1757 H1780 0.950 . S
C1758 C1757 1.349 . S
C1758 C1770 1.349 . S
C1759 C1757 1.327 . S
C1759 C1775 1.429 . S
C1759 H1781 0.950 . S
C1760 H1756 0.949 . S
C1760 C1768 1.574 . S
C1760 C1776 1.368 . S
H1761 C1769 0.950 . S
H1762 C1767 0.950 . S
H1763 C1768 0.949 . S
H1764 C1770 0.950 . S
H1765 C1771 0.950 . S
H1766 C1772 0.949 . S
C1767 H1762 0.950 . S
C1767 C1769 1.327 . S
C1767 C1773 1.429 . S
C1768 C1760 1.574 . S
C1768 H1763 0.949 . S
C1768 C1774 1.368 . S
C1769 C1753 1.349 . S
C1769 H1761 0.950 . S
C1769 C1767 1.327 . S
C1770 C1758 1.349 . S
C1770 H1764 0.950 . S
C1770 C1771 1.327 . S
C1771 H1765 0.950 . S
C1771 C1770 1.327 . S
C1771 C1775 1.429 . S
C1772 C1755 1.574 . S
C1772 H1766 0.949 . S
C1772 C1776 1.368 . S
C1773 C1754 1.429 . S
C1773 C1767 1.429 . S
C1773 C1774 1.523 . S
C1774 C1755 1.368 . S
C1774 C1768 1.368 . S
C1774 C1773 1.523 . S
C1775 C1759 1.429 . S
C1775 C1771 1.429 . S
C1775 C1776 1.523 . S
C1776 C1760 1.368 . S
C1776 C1772 1.368 . S
C1776 C1775 1.523 . S
H1777 C1752 0.950 . S
H1778 C1754 0.950 . S
H1779 C1755 0.949 . S
H1780 C1757 0.950 . S
H1781 C1759 0.950 . S
C1782 C1783 1.349 . S
C1782 C1784 1.327 . S
C1782 H1807 0.950 . S
C1783 C1782 1.349 . S
C1783 C1799 1.349 . S
C1784 C1782 1.327 . S
C1784 C1803 1.429 . S
C1784 H1808 0.950 . S
C1785 C1802 1.574 . S
C1785 C1804 1.368 . S
C1785 H1809 0.949 . S
H1786 C1790 0.949 . S
C1787 C1788 1.349 . S
C1787 C1789 1.327 . S
C1787 H1810 0.950 . S
C1788 C1787 1.349 . S
C1788 C1800 1.349 . S
C1789 C1787 1.327 . S
C1789 C1805 1.429 . S
C1789 H1811 0.950 . S
C1790 H1786 0.949 . S
C1790 C1798 1.574 . S
C1790 C1806 1.368 . S
H1791 C1799 0.950 . S
H1792 C1797 0.950 . S
H1793 C1798 0.949 . S
H1794 C1800 0.950 . S
H1795 C1801 0.950 . S
H1796 C1802 0.949 . S
C1797 H1792 0.950 . S
C1797 C1799 1.327 . S
C1797 C1803 1.429 . S
C1798 C1790 1.574 . S
C1798 H1793 0.949 . S
C1798 C1804 1.368 . S
C1799 C1783 1.349 . S
C1799 H1791 0.950 . S
C1799 C1797 1.327 . S
C1800 C1788 1.349 . S
C1800 H1794 0.950 . S
C1800 C1801 1.327 . S
C1801 H1795 0.950 . S
C1801 C1800 1.327 . S
C1801 C1805 1.429 . S
C1802 C1785 1.574 . S
C1802 H1796 0.949 . S
C1802 C1806 1.368 . S
C1803 C1784 1.429 . S
C1803 C1797 1.429 . S
C1803 C1804 1.523 . S
C1804 C1785 1.368 . S
C1804 C1798 1.368 . S
C1804 C1803 1.523 . S
C1805 C1789 1.429 . S
C1805 C1801 1.429 . S
C1805 C1806 1.523 . S
C1806 C1790 1.368 . S
C1806 C1802 1.368 . S
C1806 C1805 1.523 . S
H1807 C1782 0.950 . S
H1808 C1784 0.950 . S
H1809 C1785 0.949 . S
H1810 C1787 0.950 . S
H1811 C1789 0.950 . S
C373 C29 1.345 . S
C378 C61 1.236 . S
C403 C72 1.236 . S
C408 C60 1.345 . S
C433 C64 1.345 . S
C438 C30 1.236 . S
C463 C165 1.236 . S
C468 C122 1.345 . S
C493 C123 1.236 . S
C498 C126 1.345 . S
C523 C157 1.345 . S
C528 C134 1.236 . S
C553 C215 1.345 . S
C558 C227 1.236 . S
C583 C278 1.236 . S
C588 C219 1.345 . S
C613 C277 1.345 . S
C618 C216 1.236 . S
C643 C281 1.345 . S
C648 C351 1.236 . S
C673 C289 1.236 . S
C678 C312 1.345 . S
C703 C320 1.236 . S
C708 C343 1.345 . S
C733 C188 0.945 . S
C738 C2 0.945 . S
C763 C33 0.945 . S
C768 C246 0.945 . S
C793 C91 0.945 . S
C798 C250 0.945 . S
C823 C95 0.945 . S
C828 C308 0.945 . S
C853 C153 0.945 . S
C858 C339 0.945 . S
C883 C370 0.945 . S
C888 C184 0.945 . S
C913 C1 0.862 . S
C918 C309 0.851 . S
C943 C32 0.862 . S
C948 C340 0.851 . S
C973 C371 0.851 . S
C978 C82 0.862 . S
C1003 C196 0.851 . S
C1008 C94 0.862 . S
C1033 C247 0.851 . S
C1038 C144 0.862 . S
C1063 C258 0.851 . S
C1068 C175 0.862 . S
C1093 C103 0.851 . S
C1098 C187 0.862 . S
C1123 C237 0.862 . S
C1128 C154 0.851 . S
C1153 C249 0.862 . S
C1158 C185 0.851 . S
C1183 C10 0.851 . S
C1188 C299 0.862 . S
C1213 C330 0.862 . S
C1218 C41 0.851 . S
C1243 C92 0.851 . S
C1248 C361 0.862 . S
C1273 C112 2.060 . S
C1278 C19 2.060 . S
C1303 C124 2.060 . S
C1308 C50 2.060 . S
C1333 C155 2.060 . S
C1338 C62 2.060 . S
C1363 C205 2.060 . S
C1368 C279 2.060 . S
C1393 C217 2.060 . S
C1398 C310 2.060 . S
C1423 C341 2.060 . S
C1428 C267 2.060 . S
C1453 C311 1.358 . S
C1458 C0 1.501 . S
C1483 C31 1.501 . S
C1488 C342 1.358 . S
C1513 C81 1.501 . S
C1518 C280 1.358 . S
C1543 C93 1.501 . S
C1548 C268 1.358 . S
C1573 C206 1.358 . S
C1578 C143 1.501 . S
C1603 C218 1.358 . S
C1608 C174 1.501 . S
C1633 C186 1.501 . S
C1638 C125 1.358 . S
C1663 C236 1.501 . S
C1668 C156 1.358 . S
C1693 C248 1.501 . S
C1698 C113 1.358 . S
C1723 C63 1.358 . S
C1728 C298 1.501 . S
C1753 C20 1.358 . S
C1758 C329 1.501 . S
C1783 C51 1.358 . S
C1788 C360 1.501 . S
