# Generated by pormake.
# Topology qtz-e, (6)-cn, num edge types: 1
# Building blocks:
#     Node 0, Type 0, BuildingBlock: KUMBUR_clean_sbu_1, # of connection points: 6
#     Node 1, Type 0, BuildingBlock: KUMBUR_clean_sbu_1, # of connection points: 6
#     Node 2, Type 0, BuildingBlock: KUMBUR_clean_sbu_1, # of connection points: 6
#     Node 3, Type 0, BuildingBlock: KUMBUR_clean_sbu_1, # of connection points: 6
#     Node 4, Type 0, BuildingBlock: KUMBUR_clean_sbu_1, # of connection points: 6
#     Node 5, Type 0, BuildingBlock: KUMBUR_clean_sbu_1, # of connection points: 6
#     Edge 6, Type (0, 0), BuildingBlock: CIFDUS_clean_linker_0, # of connection points: 2
#     Edge 7, Type (0, 0), BuildingBlock: CIFDUS_clean_linker_0, # of connection points: 2
#     Edge 8, Type (0, 0), BuildingBlock: CIFDUS_clean_linker_0, # of connection points: 2
#     Edge 9, Type (0, 0), BuildingBlock: CIFDUS_clean_linker_0, # of connection points: 2
#     Edge 10, Type (0, 0), BuildingBlock: CIFDUS_clean_linker_0, # of connection points: 2
#     Edge 11, Type (0, 0), BuildingBlock: CIFDUS_clean_linker_0, # of connection points: 2
#     Edge 12, Type (0, 0), BuildingBlock: CIFDUS_clean_linker_0, # of connection points: 2
#     Edge 13, Type (0, 0), BuildingBlock: CIFDUS_clean_linker_0, # of connection points: 2
#     Edge 14, Type (0, 0), BuildingBlock: CIFDUS_clean_linker_0, # of connection points: 2
#     Edge 15, Type (0, 0), BuildingBlock: CIFDUS_clean_linker_0, # of connection points: 2
#     Edge 16, Type (0, 0), BuildingBlock: CIFDUS_clean_linker_0, # of connection points: 2
#     Edge 17, Type (0, 0), BuildingBlock: CIFDUS_clean_linker_0, # of connection points: 2
#     Edge 18, Type (0, 0), BuildingBlock: CIFDUS_clean_linker_0, # of connection points: 2
#     Edge 19, Type (0, 0), BuildingBlock: CIFDUS_clean_linker_0, # of connection points: 2
#     Edge 20, Type (0, 0), BuildingBlock: CIFDUS_clean_linker_0, # of connection points: 2
#     Edge 21, Type (0, 0), BuildingBlock: CIFDUS_clean_linker_0, # of connection points: 2
#     Edge 22, Type (0, 0), BuildingBlock: CIFDUS_clean_linker_0, # of connection points: 2
#     Edge 23, Type (0, 0), BuildingBlock: CIFDUS_clean_linker_0, # of connection points: 2
# Relax obj value: 0.150
# Max RMSD: 0.214
# Mean RMSD: 0.214
data_MOF--net-qtz-e--node1-KUMBUR_clean_sbu_1--edge1-CIFDUS_clean_linker_0
_symmetry_space_group_name_H-M    P1
_symmetry_Int_Tables_number       1
_symmetry_cell_setting            triclinic
loop_
_symmetry_equiv_pos_as_xyz
'x, y, z'
_cell_length_a     24.810342
_cell_length_b     24.83309
_cell_length_c     44.314718
_cell_angle_alpha  89.967151
_cell_angle_beta   89.902704
_cell_angle_gamma 119.89572
loop_
_atom_site_label
_atom_site_type_symbol
_atom_site_fract_x
_atom_site_fract_y
_atom_site_fract_z
_atom_type_partial_charge
Tb0 Tb 0.18693 0.36167 0.98514 0.0
C1 C 0.32698 0.6437 0.01053 0.0
N2 N 0.3356 0.59744 0.02132 0.0
C3 C 0.44465 0.65782 0.01013 0.0
C4 C 0.37637 0.69787 0.99776 0.0
C5 C 0.39398 0.60493 0.02252 0.0
C6 C 0.43568 0.70418 0.9973 0.0
C7 C 0.25739 0.68426 0.0029 0.0
C8 C 0.26861 0.63696 0.01312 0.0
C9 C 0.30543 0.73699 0.98863 0.0
C10 C 0.36494 0.7439 0.98616 0.0
Tb11 Tb 0.25001 0.51241 0.04091 0.0
N12 N 0.22404 0.58592 0.02756 0.0
C13 C 0.19906 0.67818 0.00844 0.0
C14 C 0.16945 0.583 0.03559 0.0
C15 C 0.15532 0.62788 0.02544 0.0
H16 H 0.40143 0.57067 0.03354 0.0
H17 H 0.11123 0.62426 0.03126 0.0
H18 H 0.04231 0.32865 0.96556 0.0
H19 H 0.27047 0.21832 0.03366 0.0
H20 H 0.13729 0.54685 0.05047 0.0
H21 H 0.18843 0.7134 0.00096 0.0
H22 H 0.2801 0.31205 0.00899 0.0
H23 H 0.49062 0.663 0.01073 0.0
H24 H 0.29757 0.77352 0.98029 0.0
H25 H 0.40199 0.78544 0.97577 0.0
H26 H 0.93554 0.24652 0.97602 0.0
H27 H 0.47492 0.74507 0.98768 0.0
H28 H 0.16641 0.13051 0.04659 0.0
N29 N 0.0844 0.2872 0.99175 0.0
C30 C 0.07432 0.23494 0.00653 0.0
C31 C 0.97417 0.24307 0.98513 0.0
C32 C 0.01366 0.18537 0.0119 0.0
C33 C 0.03523 0.2905 0.97986 0.0
C34 C 0.96327 0.19061 0.00155 0.0
N35 N 0.18279 0.27862 0.00928 0.0
C36 C 0.23462 0.27442 0.01502 0.0
C37 C 0.11738 0.17535 0.02885 0.0
C38 C 0.12522 0.22986 0.01499 0.0
C39 C 0.17041 0.17164 0.03595 0.0
C40 C 0.22926 0.22121 0.02876 0.0
H41 H 0.91592 0.1536 0.00524 0.0
H42 H 0.95909 0.09314 0.03106 0.0
H43 H 0.05002 0.08435 0.04587 0.0
O44 O 0.24463 0.35022 0.95344 0.0
O45 O 0.18393 0.34835 0.03498 0.0
O46 O 0.16794 0.42546 0.05409 0.0
O47 O 0.14816 0.31456 0.94454 0.0
O48 O 0.28788 0.41595 0.99451 0.0
O49 O 0.28742 0.44932 0.04276 0.0
O50 O 0.24081 0.55554 0.07965 0.0
O51 O 0.28589 0.51927 0.99508 0.0
O52 O 0.20479 0.45006 0.96586 0.0
O53 O 0.30477 0.52102 0.07893 0.0
O54 O 0.15014 0.46235 0.03018 0.0
O55 O 0.13456 0.41314 0.98353 0.0
C56 C 0.16257 0.37024 0.0562 0.0
C57 C 0.19302 0.25822 0.92374 0.0
C58 C 0.21911 0.20052 0.88678 0.0
C59 C 0.17431 0.14485 0.90065 0.0
C60 C 0.14939 0.20165 0.93694 0.0
C61 C 0.14034 0.1456 0.92553 0.0
C62 C 0.22801 0.25753 0.89857 0.0
C63 C 0.3158 0.43855 0.02058 0.0
C64 C 0.19903 0.31722 0.93513 0.0
C65 C 0.00535 0.13157 0.02661 0.0
C66 C 0.05711 0.12649 0.03499 0.0
C67 C 0.25172 0.506 0.9708 0.0
C68 C 0.32655 0.60509 0.11162 0.0
C69 C 0.34798 0.66368 0.15824 0.0
C70 C 0.40118 0.71294 0.14493 0.0
C71 C 0.37976 0.65442 0.09849 0.0
C72 C 0.31129 0.60972 0.14151 0.0
C73 C 0.41717 0.70797 0.11522 0.0
C74 C 0.11862 0.44017 0.00484 0.0
C75 C 0.28282 0.55019 0.09449 0.0
H76 H 0.16428 0.10009 0.89193 0.0
H77 H 0.12098 0.20047 0.95566 0.0
H78 H 0.10597 0.1023 0.93574 0.0
H79 H 0.26176 0.30107 0.88828 0.0
H80 H 0.43019 0.75506 0.15749 0.0
H81 H 0.39194 0.6522 0.07539 0.0
H82 H 0.26932 0.5721 0.15142 0.0
H83 H 0.45811 0.74605 0.10499 0.0
Tb84 Tb 0.82859 0.19103 0.32694 0.0
C85 C 0.78756 0.4004 0.38689 0.0
N86 N 0.81242 0.3693 0.40107 0.0
C87 C 0.88559 0.46255 0.42644 0.0
C88 C 0.81194 0.46455 0.3914 0.0
C89 C 0.85965 0.39879 0.42128 0.0
C90 C 0.86203 0.4957 0.41123 0.0
C91 C 0.70972 0.39792 0.35286 0.0
C92 C 0.73705 0.36758 0.3679 0.0
C93 C 0.73439 0.46207 0.35695 0.0
C94 C 0.78537 0.4953 0.37615 0.0
Tb95 Tb 0.76784 0.26666 0.38969 0.0
N96 N 0.71591 0.30599 0.36358 0.0
C97 C 0.65848 0.36278 0.33417 0.0
C98 C 0.66403 0.27083 0.34665 0.0
C99 C 0.63514 0.29886 0.33133 0.0
H100 H 0.87719 0.37302 0.43345 0.0
H101 H 0.59498 0.27119 0.31731 0.0
H102 H 0.70764 0.0616 0.30014 0.0
H103 H 0.0412 0.23467 0.38173 0.0
H104 H 0.64573 0.22156 0.34446 0.0
H105 H 0.63621 0.38438 0.32213 0.0
H106 H 0.96845 0.26367 0.35982 0.0
H107 H 0.92365 0.48603 0.44216 0.0
H108 H 0.71424 0.48636 0.34547 0.0
H109 H 0.80365 0.54468 0.37922 0.0
H110 H 0.67442 0.95022 0.29836 0.0
H111 H 0.88225 0.54507 0.41527 0.0
H112 H 0.01562 0.12484 0.38178 0.0
N113 N 0.79208 0.08686 0.32338 0.0
C114 C 0.8302 0.06714 0.33471 0.0
C115 C 0.7182 0.9826 0.30879 0.0
C116 C 0.81351 0.00398 0.33363 0.0
C117 C 0.73686 0.04578 0.31023 0.0
C118 C 0.7566 0.96156 0.32058 0.0
N119 N 0.89962 0.1708 0.34918 0.0
C120 C 0.95533 0.2154 0.36046 0.0
C121 C 0.92684 0.09194 0.35974 0.0
C122 C 0.88599 0.1105 0.3478 0.0
C123 C 0.98289 0.13717 0.37241 0.0
C124 C 0.99735 0.19918 0.37256 0.0
H125 H 0.74205 0.9126 0.31934 0.0
H126 H 0.84196 0.93688 0.34499 0.0
H127 H 0.9413 0.01392 0.36767 0.0
O128 O 0.89989 0.24985 0.29704 0.0
O129 O 0.81466 0.15282 0.37366 0.0
O130 O 0.82087 0.22574 0.40872 0.0
O131 O 0.83135 0.15815 0.28332 0.0
O132 O 0.8898 0.28861 0.34134 0.0
O133 O 0.86661 0.29701 0.3911 0.0
O134 O 0.67736 0.22083 0.40668 0.0
O135 O 0.79456 0.30945 0.3448 0.0
O136 O 0.77073 0.22925 0.31199 0.0
O137 O 0.75456 0.28001 0.43548 0.0
O138 O 0.71909 0.16927 0.37652 0.0
O139 O 0.72669 0.15474 0.32653 0.0
C140 C 0.81944 0.17329 0.40175 0.0
C141 C 0.93067 0.20237 0.25983 0.0
C142 C 1.00025 0.22697 0.21607 0.0
C143 C 0.02838 0.19683 0.23064 0.0
C144 C 0.95927 0.17227 0.27352 0.0
C145 C 0.00766 0.16941 0.25896 0.0
C146 C 0.95077 0.22898 0.23101 0.0
C147 C 0.90291 0.31883 0.3673 0.0
C148 C 0.88159 0.20877 0.27558 0.0
C149 C 0.85396 0.98522 0.34564 0.0
C150 C 0.91052 0.02909 0.35859 0.0
C151 C 0.78436 0.28648 0.3174 0.0
C152 C 0.66879 0.19256 0.45733 0.0
C153 C 0.60379 0.15072 0.50196 0.0
C154 C 0.6125 0.0989 0.50091 0.0
C155 C 0.67664 0.14047 0.45631 0.0
C156 C 0.63203 0.19721 0.47988 0.0
C157 C 0.64872 0.0939 0.47811 0.0
C158 C 0.6923 0.14511 0.35089 0.0
C159 C 0.6951 0.24066 0.43404 0.0
H160 H 0.06746 0.19548 0.22057 0.0
H161 H 0.94479 0.15149 0.29551 0.0
H162 H 0.02988 0.14658 0.26988 0.0
H163 H 0.9277 0.2513 0.22038 0.0
H164 H 0.59221 0.06284 0.51793 0.0
H165 H 0.70324 0.13535 0.43835 0.0
H166 H 0.62484 0.23686 0.47996 0.0
H167 H 0.65518 0.05391 0.47734 0.0
Tb168 Tb 0.63865 0.80995 0.65799 0.0
C169 C 0.36431 0.68815 0.69532 0.0
N170 N 0.41182 0.74451 0.7036 0.0
C171 C 0.34969 0.79127 0.69216 0.0
C172 C 0.30878 0.68162 0.68337 0.0
C173 C 0.4038 0.79518 0.70394 0.0
C174 C 0.30245 0.73447 0.68122 0.0
C175 C 0.32089 0.57668 0.69404 0.0
C176 C 0.37035 0.63663 0.70061 0.0
C177 C 0.26681 0.56998 0.68036 0.0
C178 C 0.26073 0.6224 0.67506 0.0
Tb179 Tb 0.50019 0.74624 0.7202 0.0
N180 N 0.42266 0.64505 0.7145 0.0
C181 C 0.32631 0.5253 0.70258 0.0
C182 C 0.42562 0.59495 0.72532 0.0
C183 C 0.37842 0.5345 0.71881 0.0
H184 H 0.44033 0.83902 0.71203 0.0
H185 H 0.38206 0.49507 0.72654 0.0
H186 H 0.64535 0.68212 0.63858 0.0
H187 H 0.81427 0.0325 0.69958 0.0
H188 H 0.46486 0.60145 0.73868 0.0
H189 H 0.28948 0.47844 0.69786 0.0
H190 H 0.71121 0.95648 0.67919 0.0
H191 H 0.34462 0.8321 0.6914 0.0
H192 H 0.22859 0.52435 0.67479 0.0
H193 H 0.21795 0.61642 0.66546 0.0
H194 H 0.71691 0.64221 0.64631 0.0
H195 H 0.26054 0.73149 0.67212 0.0
H196 H 0.89286 1.00085 0.7092 0.0
N197 N 0.70174 0.76718 0.66209 0.0
C198 C 0.75864 0.80482 0.67442 0.0
C199 C 0.72888 0.68774 0.65471 0.0
C200 C 0.80228 0.78471 0.67809 0.0
C201 C 0.6876 0.71021 0.65102 0.0
C202 C 0.78618 0.72484 0.66862 0.0
N203 N 0.73068 0.88225 0.6785 0.0
C204 C 0.74491 0.9421 0.68372 0.0
C205 C 0.83351 0.90649 0.69379 0.0
C206 C 0.77418 0.86482 0.68226 0.0
C207 C 0.84768 0.96731 0.70038 0.0
C208 C 0.80335 0.9853 0.69506 0.0
H209 H 0.81833 0.70755 0.6711 0.0
H210 H 0.89504 0.8107 0.69349 0.0
H211 H 0.92245 0.91746 0.70713 0.0
O212 O 0.65265 0.87753 0.62513 0.0
O213 O 0.66141 0.82328 0.70723 0.0
O214 O 0.5819 0.7377 0.73088 0.0
O215 O 0.6786 0.80878 0.61624 0.0
O216 O 0.59959 0.87082 0.66787 0.0
O217 O 0.57297 0.84339 0.71689 0.0
O218 O 0.45528 0.70937 0.76173 0.0
O219 O 0.48463 0.77417 0.67531 0.0
O220 O 0.54231 0.74928 0.6437 0.0
O221 O 0.51787 0.80721 0.75639 0.0
O222 O 0.53925 0.68731 0.70761 0.0
O223 O 0.57265 0.70794 0.65792 0.0
C224 C 0.64039 0.78254 0.72966 0.0
C225 C 0.73874 0.90676 0.59244 0.0
C226 C 0.79338 0.9876 0.55428 0.0
C227 C 0.85009 0.99481 0.56448 0.0
C228 C 0.79619 0.91494 0.60224 0.0
C229 C 0.8514 0.95882 0.58838 0.0
C230 C 0.73763 0.94364 0.56844 0.0
C231 C 0.58095 0.88016 0.69419 0.0
C232 C 0.67984 0.85861 0.60628 0.0
C233 C 0.861 0.82544 0.69039 0.0
C234 C 0.87667 0.88627 0.69812 0.0
C235 C 0.49572 0.75907 0.64858 0.0
C236 C 0.43985 0.77636 0.79381 0.0
C237 C 0.38782 0.75934 0.84229 0.0
C238 C 0.36473 0.79833 0.83356 0.0
C239 C 0.41827 0.81687 0.78549 0.0
C240 C 0.42485 0.74832 0.8222 0.0
C241 C 0.38044 0.82738 0.80528 0.0
C242 C 0.54787 0.66929 0.681 0.0
C243 C 0.48012 0.76352 0.77447 0.0
H244 H 0.89341 0.02845 0.55394 0.0
H245 H 0.7985 0.88696 0.62033 0.0
H246 H 0.89539 0.96467 0.59607 0.0
H247 H 0.69364 0.9377 0.56058 0.0
H248 H 0.33541 0.8068 0.84868 0.0
H249 H 0.43085 0.84062 0.76402 0.0
H250 H 0.44174 0.71716 0.82862 0.0
H251 H 0.36348 0.85827 0.79873 0.0
Tb252 Tb 0.82479 0.63802 0.99871 0.0
C253 C 0.64417 0.35899 0.02029 0.0
N254 N 0.63633 0.40637 0.02999 0.0
C255 C 0.53042 0.35203 0.01315 0.0
C256 C 0.597 0.30829 0.00445 0.0
C257 C 0.57896 0.40124 0.02879 0.0
C258 C 0.54012 0.30627 1.00009 0.0
C259 C 0.70526 0.30791 0.02231 0.0
C260 C 0.69717 0.35884 0.02917 0.0
C261 C 0.6612 0.25967 0.00413 0.0
C262 C 0.60697 0.2598 0.99523 0.0
Tb263 Tb 0.71966 0.48726 0.05322 0.0
N264 N 0.73682 0.40504 0.04769 0.0
C265 C 0.75513 0.30529 0.03549 0.0
C266 C 0.78102 0.39892 0.06324 0.0
C267 C 0.79223 0.35023 0.05667 0.0
H268 H 0.57137 0.43576 0.0394 0.0
H269 H 0.82892 0.34698 0.06821 0.0
H270 H 0.95745 0.63378 0.98981 0.0
H271 H 0.78133 0.8132 0.0453 0.0
H272 H 0.80816 0.43215 0.08049 0.0
H273 H 0.76317 0.26705 0.0308 0.0
H274 H 0.75519 0.71724 0.01712 0.0
H275 H 0.48571 0.34945 0.0112 0.0
H276 H 0.66702 0.22055 0.99817 0.0
H277 H 0.57182 0.22083 0.98255 0.0
H278 H 0.06401 0.69074 0.00945 0.0
H279 H 0.50251 0.26809 0.98806 0.0
H280 H 0.88619 0.87635 0.06741 0.0
N281 N 0.92713 0.68911 0.01316 0.0
C282 C 0.94547 0.74208 0.02925 0.0
C283 C 0.03085 0.70513 0.01559 0.0
C284 C 0.00668 0.77724 0.04025 0.0
C285 C 0.96969 0.67201 0.00503 0.0
C286 C 0.04922 0.75745 0.03366 0.0
N287 N 0.84386 0.72564 0.02396 0.0
C288 C 0.80096 0.7445 0.02676 0.0
C289 C 0.91961 0.81625 0.0508 0.0
C290 C 0.90276 0.76158 0.0344 0.0
C291 C 0.87506 0.83452 0.05499 0.0
C292 C 0.81571 0.79886 0.04261 0.0
H293 H 0.09668 0.78308 0.04173 0.0
H294 H 0.07018 0.85847 0.06607 0.0
H295 H 0.99392 0.89262 0.0753 0.0
O296 O 0.79004 0.66696 0.96143 0.0
O297 O 0.81326 0.64522 0.04805 0.0
O298 O 0.80787 0.56023 0.07165 0.0
O299 O 0.88583 0.68758 0.96341 0.0
O300 O 0.72497 0.60716 0.99985 0.0
O301 O 0.70043 0.56434 0.04723 0.0
O302 O 0.69017 0.43016 0.09185 0.0
O303 O 0.69234 0.48416 0.00629 0.0
O304 O 0.78459 0.54361 0.98078 0.0
O305 O 0.66699 0.50177 0.08592 0.0
O306 O 0.81891 0.51761 0.04697 0.0
O307 O 0.85024 0.56386 0.99959 0.0
C308 C 0.83134 0.62074 0.06938 0.0
C309 C 0.85949 0.72669 0.91878 0.0
C310 C 0.83106 0.75536 0.87035 0.0
C311 C 0.8948 0.78966 0.86308 0.0
C312 C 0.92243 0.76242 0.9106 0.0
C313 C 0.93974 0.79343 0.88307 0.0
C314 C 0.81361 0.72345 0.89854 0.0
C315 C 0.68478 0.58154 0.02214 0.0
C316 C 0.84405 0.69282 0.94818 0.0
C317 C 0.02352 0.83117 0.05719 0.0
C318 C 0.98012 0.85068 0.06242 0.0
C319 C 0.72534 0.50136 0.98137 0.0
C320 C 0.68367 0.48023 0.13602 0.0
C321 C 0.70558 0.45714 0.18669 0.0
C322 C 0.7105 0.51308 0.19698 0.0
C323 C 0.68932 0.53607 0.14679 0.0
C324 C 0.69205 0.4412 0.15608 0.0
C325 C 0.7028 0.55228 0.17709 0.0
C326 C 0.85432 0.5319 0.02262 0.0
C327 C 0.66642 0.46086 0.10435 0.0
H328 H 0.91038 0.81294 0.84152 0.0
H329 H 0.95877 0.76623 0.92549 0.0
H330 H 0.98845 0.82013 0.87702 0.0
H331 H 0.76497 0.69638 0.90469 0.0
H332 H 0.7195 0.52633 0.22049 0.0
H333 H 0.68284 0.56703 0.13194 0.0
H334 H 0.68848 0.39856 0.14771 0.0
H335 H 0.70671 0.59516 0.18525 0.0
Tb336 Tb 0.18688 0.82113 0.31847 0.0
C337 C 0.34972 0.69055 0.37063 0.0
N338 N 0.28961 0.67767 0.37079 0.0
C339 C 0.25481 0.57031 0.36093 0.0
C340 C 0.36493 0.64425 0.36408 0.0
C341 C 0.24212 0.618 0.36747 0.0
C342 C 0.31651 0.5836 0.35886 0.0
C343 C 0.4587 0.76627 0.37719 0.0
C344 C 0.39575 0.75064 0.37706 0.0
C345 C 0.47451 0.72078 0.36986 0.0
C346 C 0.4277 0.65986 0.36338 0.0
Tb347 Tb 0.27433 0.75865 0.38271 0.0
N348 N 0.37851 0.79298 0.3845 0.0
C349 C 0.50361 0.82669 0.3854 0.0
C350 C 0.42168 0.85059 0.39443 0.0
C351 C 0.4849 0.86879 0.39444 0.0
H352 H 0.19474 0.60773 0.36927 0.0
H353 H 0.51902 0.91486 0.40195 0.0
H354 H 0.30346 0.97035 0.3152 0.0
H355 H 0.94423 0.7201 0.34567 0.0
H356 H 0.40707 0.88172 0.40328 0.0
H357 H 0.55253 0.84065 0.38574 0.0
H358 H 0.03954 0.71902 0.33046 0.0
H359 H 0.21704 0.52334 0.35758 0.0
H360 H 0.52266 0.73193 0.36968 0.0
H361 H 0.44049 0.62503 0.35823 0.0
H362 H 0.31752 0.07253 0.32708 0.0
H363 H 0.3262 0.54658 0.3538 0.0
H364 H 0.94881 0.81989 0.35708 0.0
N365 N 0.20805 0.92036 0.32882 0.0
C366 C 0.15813 0.92565 0.3373 0.0
C367 C 0.27256 0.03147 0.33044 0.0
C368 C 0.16387 0.98399 0.34346 0.0
C369 C 0.26447 0.97264 0.32431 0.0
C370 C 0.22222 0.03719 0.3403 0.0
N371 N 0.09751 0.81694 0.33401 0.0
C372 C 0.04216 0.7627 0.33574 0.0
C373 C 0.04761 0.87515 0.34816 0.0
C374 C 0.10071 0.87221 0.33946 0.0
C375 C 0.99076 0.81966 0.35048 0.0
C376 C 0.98804 0.7632 0.34416 0.0
H377 H 0.22862 0.0829 0.34481 0.0
H378 H 0.1147 0.03181 0.35705 0.0
H379 H 0.01289 0.93642 0.36126 0.0
O380 O 0.12746 0.77189 0.28201 0.0
O381 O 0.16528 0.82248 0.36663 0.0
O382 O 0.25717 0.8371 0.38559 0.0
O383 O 0.20802 0.86104 0.27518 0.0
O384 O 0.1407 0.71962 0.32635 0.0
O385 O 0.17208 0.70379 0.37433 0.0
O386 O 0.31213 0.76643 0.42611 0.0
O387 O 0.28358 0.72674 0.3377 0.0
O388 O 0.23854 0.77797 0.32917 0.0
O389 O 0.21434 0.70757 0.41835 0.0
O390 O 0.31968 0.85837 0.36769 0.0
O391 O 0.29096 0.87126 0.31872 0.0
C392 C 0.20289 0.83339 0.38975 0.0
C393 C 0.11856 0.83933 0.24683 0.0
C394 C 0.04117 0.82491 0.20819 0.0
C395 C 0.04914 0.88339 0.21607 0.0
C396 C 0.12405 0.89686 0.25431 0.0
C397 C 0.08984 0.91865 0.23897 0.0
C398 C 0.07685 0.8033 0.22364 0.0
C399 C 0.13581 0.68408 0.35001 0.0
C400 C 0.15664 0.81781 0.26327 0.0
C401 C 0.11115 0.98739 0.35219 0.0
C402 C 0.05313 0.93309 0.35451 0.0
C403 C 0.26225 0.74702 0.31704 0.0
C404 C 0.246 0.74922 0.46788 0.0
C405 C 0.27407 0.77272 0.52123 0.0
C406 C 0.22145 0.77942 0.52544 0.0
C407 C 0.19314 0.75487 0.47284 0.0
C408 C 0.28628 0.75848 0.4921 0.0
C409 C 0.18157 0.77076 0.50138 0.0
C410 C 0.33352 0.88442 0.3402 0.0
C411 C 0.25855 0.72995 0.43838 0.0
H412 H 0.02415 0.90245 0.20432 0.0
H413 H 0.15536 0.9256 0.27191 0.0
H414 H 0.09509 0.96335 0.24478 0.0
H415 H 0.07165 0.7585 0.21803 0.0
H416 H 0.21005 0.78977 0.54748 0.0
H417 H 0.16091 0.74727 0.4547 0.0
H418 H 0.32702 0.75405 0.48816 0.0
H419 H 0.14101 0.77558 0.50497 0.0
Tb420 Tb 0.34962 0.1586 0.65745 0.0
C421 C 0.62808 0.23395 0.7183 0.0
N422 N 0.56926 0.20158 0.72951 0.0
C423 C 0.59488 0.13206 0.75493 0.0
C424 C 0.67151 0.21409 0.72348 0.0
C425 C 0.55343 0.15358 0.74912 0.0
C426 C 0.65351 0.16128 0.74133 0.0
C427 C 0.70855 0.32807 0.69453 0.0
C428 C 0.64667 0.2906 0.70431 0.0
C429 C 0.75083 0.30638 0.69775 0.0
C430 C 0.73236 0.24953 0.71222 0.0
Tb431 Tb 0.5068 0.24201 0.71877 0.0
N432 N 0.60462 0.31036 0.70176 0.0
C433 C 0.72657 0.3871 0.68284 0.0
C434 C 0.62315 0.36974 0.69258 0.0
C435 C 0.68396 0.40839 0.68233 0.0
H436 H 0.50896 0.13229 0.76048 0.0
H437 H 0.69799 0.45463 0.67417 0.0
H438 H 0.30221 0.25744 0.64157 0.0
H439 H 0.23162 0.92815 0.70768 0.0
H440 H 0.59049 0.38638 0.69221 0.0
H441 H 0.77374 0.41733 0.67508 0.0
H442 H 0.31783 0.01689 0.68285 0.0
H443 H 0.58193 0.09357 0.77024 0.0
H444 H 0.79847 0.3342 0.69009 0.0
H445 H 0.76617 0.23461 0.71564 0.0
H446 H 0.20688 0.26426 0.64793 0.0
H447 H 0.68561 0.14471 0.74604 0.0
H448 H 0.13336 0.92761 0.71778 0.0
N449 N 0.26404 0.1689 0.66257 0.0
C450 C 0.21339 0.12075 0.6755 0.0
C451 C 0.20816 0.22371 0.6559 0.0
C452 C 0.15784 0.12234 0.67947 0.0
C453 C 0.26223 0.21989 0.65251 0.0
C454 C 0.15572 0.17477 0.6695 0.0
N455 N 0.27253 0.07087 0.68058 0.0
C456 C 0.27707 0.01977 0.68796 0.0
C457 C 0.16627 0.01894 0.69857 0.0
C458 C 0.21785 0.0701 0.68498 0.0
C459 C 0.17186 0.96786 0.70727 0.0
C460 C 0.22734 0.96813 0.70172 0.0
H461 H 0.11389 0.17781 0.6721 0.0
H462 H 0.0633 0.07198 0.69644 0.0
H463 H 0.0706 0.98126 0.71312 0.0
O464 O 0.33054 0.09478 0.62264 0.0
O465 O 0.33194 0.1861 0.70143 0.0
O466 O 0.40708 0.17486 0.72493 0.0
O467 O 0.34157 0.18436 0.6128 0.0
O468 O 0.4033 0.11009 0.66664 0.0
O469 O 0.45156 0.13864 0.71416 0.0
O470 O 0.48488 0.29218 0.75021 0.0
O471 O 0.54164 0.25754 0.67217 0.0
O472 O 0.44442 0.20392 0.66707 0.0
O473 O 0.55505 0.26837 0.75963 0.0
O474 O 0.47587 0.30283 0.69761 0.0
O475 O 0.40128 0.26271 0.65754 0.0
C476 C 0.36409 0.19138 0.72582 0.0
C477 C 0.27334 0.09815 0.58186 0.0
C478 C 0.22423 0.0259 0.5396 0.0
C479 C 0.16678 0.01996 0.54834 0.0
C480 C 0.21581 0.09194 0.58967 0.0
C481 C 0.16299 0.05337 0.57283 0.0
C482 C 0.27759 0.06622 0.55655 0.0
C483 C 0.43569 0.10412 0.68918 0.0
C484 C 0.32752 0.13016 0.60195 0.0
C485 C 0.10647 0.07174 0.69318 0.0
C486 C 0.11069 0.02013 0.70272 0.0
C487 C 0.49729 0.23117 0.65311 0.0
C488 C 0.49583 0.26659 0.80019 0.0
C489 C 0.49956 0.2854 0.8539 0.0
C490 C 0.46188 0.22144 0.85913 0.0
C491 C 0.46072 0.20244 0.80556 0.0
C492 C 0.51469 0.30781 0.82432 0.0
C493 C 0.44282 0.18007 0.83492 0.0
C494 C 0.44145 0.30823 0.67591 0.0
C495 C 0.52187 0.29063 0.77044 0.0
H496 H 0.1241 0.9884 0.53687 0.0
H497 H 0.21126 0.11545 0.60918 0.0
H498 H 0.11846 0.048 0.57928 0.0
H499 H 0.32265 0.07227 0.55064 0.0
H500 H 0.4504 0.20339 0.88193 0.0
H501 H 0.44821 0.16983 0.78712 0.0
H502 H 0.5447 0.35716 0.82026 0.0
H503 H 0.41592 0.13057 0.839 0.0
H504 H 0.26133 0.64771 0.29316 0.0
H505 H 0.28188 0.82504 0.2693 0.0
H506 H 0.30794 0.81373 0.21783 0.0
H507 H 0.33337 0.7569 0.18036 0.0
H508 H 0.31732 0.58125 0.20444 0.0
H509 H 0.28245 0.58871 0.25518 0.0
C510 C 0.27032 0.68325 0.27646 0.0
C511 C 0.2675 0.73631 0.28483 0.0
C512 C 0.28778 0.67732 0.24713 0.0
C513 C 0.2803 0.78246 0.26325 0.0
C514 C 0.29683 0.7766 0.23385 0.0
C515 C 0.32255 0.72056 0.19685 0.0
C516 C 0.32854 0.66907 0.18902 0.0
C517 C 0.30201 0.72487 0.22574 0.0
C518 C 0.31321 0.62145 0.21019 0.0
C519 C 0.29319 0.62562 0.23909 0.0
H520 H 0.44223 0.13503 0.61407 0.0
H521 H 0.58344 0.32725 0.62071 0.0
H522 H 0.6262 0.32077 0.57202 0.0
H523 H 0.63296 0.25604 0.5325 0.0
H524 H 0.49397 0.0618 0.52698 0.0
H525 H 0.44043 0.07291 0.57089 0.0
C526 C 0.48034 0.17596 0.60432 0.0
C527 C 0.50907 0.23148 0.6207 0.0
C528 C 0.50611 0.17087 0.57709 0.0
C529 C 0.56028 0.28404 0.60821 0.0
C530 C 0.58509 0.28016 0.58061 0.0
C531 C 0.59009 0.21641 0.54038 0.0
C532 C 0.56781 0.15805 0.52671 0.0
C533 C 0.55994 0.22307 0.56557 0.0
C534 C 0.51274 0.10694 0.53753 0.0
C535 C 0.4819 0.11337 0.56245 0.0
H536 H 0.36558 0.59735 0.95444 0.0
H537 H 0.17064 0.52105 0.93579 0.0
H538 H 0.19508 0.59935 0.89657 0.0
H539 H 0.27294 0.68444 0.86503 0.0
H540 H 0.46782 0.76038 0.88416 0.0
H541 H 0.44258 0.6892 0.92678 0.0
C542 C 0.32857 0.59889 0.94219 0.0
C543 C 0.2666 0.55415 0.94794 0.0
C544 C 0.34302 0.64427 0.92004 0.0
C545 C 0.2188 0.55513 0.93149 0.0
C546 C 0.23272 0.60005 0.90927 0.0
C547 C 0.30959 0.68639 0.87913 0.0
C548 C 0.37196 0.727 0.8716 0.0
C549 C 0.29476 0.64433 0.90306 0.0
C550 C 0.41942 0.729 0.88965 0.0
C551 C 0.40507 0.68815 0.9138 0.0
H552 H 0.71136 0.24892 0.26716 0.0
H553 H 0.84675 0.41177 0.31497 0.0
H554 H 0.8366 0.47863 0.27805 0.0
H555 H 0.78783 0.49124 0.23306 0.0
H556 H 0.64379 0.32934 0.18789 0.0
H557 H 0.65963 0.26199 0.22244 0.0
C558 C 0.73922 0.29903 0.26912 0.0
C559 C 0.78053 0.3254 0.29337 0.0
C560 C 0.73148 0.33746 0.24835 0.0
C561 C 0.8153 0.39037 0.2962 0.0
C562 C 0.80927 0.4287 0.27521 0.0
C563 C 0.75917 0.44126 0.23092 0.0
C564 C 0.71474 0.41572 0.2078 0.0
C565 C 0.76706 0.40277 0.25139 0.0
C566 C 0.67916 0.35061 0.20511 0.0
C567 C 0.68782 0.3119 0.22502 0.0
H568 H 0.43715 0.82539 0.63932 0.0
H569 H 0.46427 0.68148 0.60047 0.0
H570 H 0.39751 0.67242 0.55796 0.0
H571 H 0.33093 0.70461 0.53218 0.0
H572 H 0.309 0.85343 0.56923 0.0
H573 H 0.37298 0.86023 0.61248 0.0
C574 C 0.42787 0.79166 0.62168 0.0
C575 C 0.45505 0.75373 0.62311 0.0
C576 C 0.39024 0.78744 0.59707 0.0
C577 C 0.44392 0.71123 0.59978 0.0
C578 C 0.40567 0.70596 0.57553 0.0
C579 C 0.3408 0.73931 0.54939 0.0
C580 C 0.31483 0.77836 0.54725 0.0
C581 C 0.37875 0.74396 0.57389 0.0
C582 C 0.32733 0.82199 0.57034 0.0
C583 C 0.36432 0.82625 0.59505 0.0
H584 H 0.60278 0.44651 0.97062 0.0
H585 H 0.77696 0.48904 0.9291 0.0
H586 H 0.72109 0.42831 0.88467 0.0
H587 H 0.62259 0.35674 0.85997 0.0
H588 H 0.44847 0.30713 0.90368 0.0
H589 H 0.50464 0.37601 0.94604 0.0
C590 C 0.62849 0.44165 0.95212 0.0
C591 C 0.69357 0.47048 0.9534 0.0
C592 C 0.59611 0.40518 0.92745 0.0
C593 C 0.7267 0.46667 0.92862 0.0
C594 C 0.69482 0.43176 0.9034 0.0
C595 C 0.59712 0.36169 0.87869 0.0
C596 C 0.53187 0.32778 0.87896 0.0
C597 C 0.62957 0.3999 0.90293 0.0
C598 C 0.49883 0.33314 0.90331 0.0
C599 C 0.53083 0.37237 0.92732 0.0
H600 H 0.40737 0.47568 0.97768 0.0
H601 H 0.37427 0.44809 0.07356 0.0
H602 H 0.48553 0.49562 0.08272 0.0
H603 H 0.59262 0.54686 0.06392 0.0
H604 H 0.62706 0.57105 0.96809 0.0
H605 H 0.51574 0.52525 0.95865 0.0
C606 C 0.42452 0.47899 1.00049 0.0
C607 C 0.3824 0.45812 0.02487 0.0
C608 C 0.48909 0.50731 0.00573 0.0
C609 C 0.40555 0.46372 0.05436 0.0
C610 C 0.4693 0.4914 0.05968 0.0
C611 C 0.57588 0.54252 0.04097 0.0
C612 C 0.6183 0.56188 0.0168 0.0
C613 C 0.51157 0.51413 0.03561 0.0
C614 C 0.59563 0.55656 0.98721 0.0
C615 C 0.53176 0.52965 0.98173 0.0
H616 H 0.09926 0.59798 0.39533 0.0
H617 H 0.06297 0.61874 0.30199 0.0
H618 H 0.9907 0.50724 0.29865 0.0
H619 H 0.93961 0.40309 0.32181 0.0
H620 H 0.97783 0.38221 0.41458 0.0
H621 H 0.04975 0.49414 0.41814 0.0
C622 C 0.07566 0.57834 0.3742 0.0
C623 C 0.08729 0.61713 0.3489 0.0
C624 C 0.03549 0.51383 0.37213 0.0
C625 C 0.05533 0.59042 0.32188 0.0
C626 C 0.01428 0.52642 0.31984 0.0
C627 C 0.96412 0.42305 0.34271 0.0
C628 C 0.95297 0.38463 0.36802 0.0
C629 C 0.00462 0.48757 0.34469 0.0
C630 C 0.98533 0.411 0.39489 0.0
C631 C 0.02616 0.47499 0.39696 0.0
H632 H 0.4607 0.04125 0.73258 0.0
H633 H 0.45378 0.05876 0.63622 0.0
H634 H 0.49986 0.9932 0.62885 0.0
H635 H 0.54701 0.93414 0.6499 0.0
H636 H 0.56441 0.92716 0.74653 0.0
H637 H 0.51206 0.98692 0.75365 0.0
C638 C 0.47154 0.03286 0.71003 0.0
C639 C 0.45685 0.05807 0.68515 0.0
C640 C 0.5008 0.99732 0.70596 0.0
C641 C 0.46599 0.04167 0.65594 0.0
C642 C 0.49282 0.00431 0.65165 0.0
C643 C 0.54071 0.94702 0.67247 0.0
C644 C 0.55921 0.92563 0.69761 0.0
C645 C 0.5118 0.98302 0.6765 0.0
C646 C 0.55014 0.94236 0.72673 0.0
C647 C 0.52017 0.97668 0.73088 0.0
H648 H 0.4812 0.57506 0.64048 0.0
H649 H 0.59573 0.62271 0.72009 0.0
H650 H 0.57076 0.51533 0.72583 0.0
H651 H 0.51225 0.40848 0.71083 0.0
H652 H 0.40062 0.35568 0.62996 0.0
H653 H 0.42678 0.46419 0.62271 0.0
C654 C 0.50165 0.56179 0.65856 0.0
C655 C 0.54046 0.60658 0.67981 0.0
C656 C 0.48639 0.49908 0.66198 0.0
C657 C 0.56586 0.58896 0.7035 0.0
C658 C 0.55128 0.52754 0.70691 0.0
C659 C 0.49405 0.42002 0.69117 0.0
C660 C 0.45465 0.37322 0.67087 0.0
C661 C 0.51078 0.48217 0.68667 0.0
C662 C 0.43079 0.39023 0.64612 0.0
C663 C 0.44617 0.4525 0.64183 0.0
H664 H 0.04766 0.44465 0.04943 0.0
H665 H 0.06272 0.44918 0.9525 0.0
H666 H 0.98108 0.47768 0.94887 0.0
H667 H 0.90996 0.50838 0.97421 0.0
H668 H 0.91017 0.5168 0.07155 0.0
H669 H 0.98289 0.47868 0.07405 0.0
C670 C 0.0335 0.45221 0.0274 0.0
C671 C 0.06244 0.44642 0.00132 0.0
C672 C 0.98978 0.47202 0.02566 0.0
C673 C 0.04171 0.45402 0.97299 0.0
C674 C 0.99548 0.47095 0.97095 0.0
C675 C 0.92634 0.50217 0.99588 0.0
C676 C 0.9032 0.51398 0.0227 0.0
C677 C 0.97021 0.48164 0.99724 0.0
C678 C 0.92549 0.50636 0.05059 0.0
C679 C 0.96735 0.48467 0.05209 0.0
H680 H 0.40981 0.96601 0.38134 0.0
H681 H 0.40027 0.92056 0.2871 0.0
H682 H 0.51067 0.99952 0.28089 0.0
H683 H 0.61251 0.07775 0.30387 0.0
H684 H 0.61847 0.10542 0.40034 0.0
H685 H 0.50855 0.03617 0.40419 0.0
C686 C 0.43212 0.97224 0.35954 0.0
C687 C 0.39759 0.93621 0.33502 0.0
C688 C 0.49563 0.01468 0.3566 0.0
C689 C 0.42621 0.94753 0.30649 0.0
C690 C 0.48943 0.99226 0.303 0.0
C691 C 0.5897 0.0684 0.32567 0.0
C692 C 0.62452 0.09873 0.35164 0.0
C693 C 0.52519 0.02543 0.32813 0.0
C694 C 0.59371 0.08517 0.37972 0.0
C695 C 0.53026 0.04485 0.38211 0.0
H696 H 0.33735 0.12679 0.77855 0.0
H697 H 0.33878 0.28392 0.7368 0.0
H698 H 0.29725 0.30374 0.78314 0.0
H699 H 0.2563 0.27331 0.83522 0.0
H700 H 0.26182 0.11928 0.87739 0.0
H701 H 0.30378 0.10116 0.83148 0.0
C702 C 0.33011 0.16633 0.77995 0.0
C703 C 0.34283 0.20493 0.75467 0.0
C704 C 0.30662 0.17762 0.80675 0.0
C705 C 0.3303 0.25418 0.75622 0.0
C706 C 0.30658 0.26551 0.78272 0.0
C707 C 0.26808 0.23675 0.8347 0.0
C708 C 0.25425 0.19702 0.85986 0.0
C709 C 0.29426 0.22736 0.80819 0.0
C710 C 0.26983 0.14966 0.85832 0.0
C711 C 0.29453 0.13943 0.83204 0.0
H712 H 0.05033 0.19207 0.16954 0.0
H713 H 0.00582 0.33367 0.19473 0.0
H714 H 0.04779 0.38674 0.14707 0.0
H715 H 0.10106 0.39626 0.09934 0.0
H716 H 0.15726 0.26264 0.07632 0.0
H717 H 0.10723 0.20363 0.12209 0.0
C718 C 0.05027 0.23488 0.16492 0.0
C719 C 0.02431 0.25822 0.1861 0.0
C720 C 0.07667 0.26679 0.13773 0.0
C721 C 0.02388 0.31328 0.17895 0.0
C722 C 0.04862 0.3443 0.1517 0.0
C723 C 0.10251 0.35418 0.10417 0.0
C724 C 0.13199 0.3333 0.08384 0.0
C725 C 0.07561 0.32182 0.13108 0.0
C726 C 0.13335 0.27882 0.09086 0.0
C727 C 0.10531 0.24545 0.11731 0.0
H728 H 0.79723 0.96753 0.49437 0.0
H729 H 0.79282 0.09639 0.55786 0.0
H730 H 0.80491 0.16745 0.51652 0.0
H731 H 0.81897 0.19361 0.46249 0.0
H732 H 0.81358 0.05986 0.39861 0.0
H733 H 0.80537 0.99133 0.43974 0.0
C734 C 0.79825 0.01092 0.49897 0.0
C735 C 0.79372 0.02679 0.52895 0.0
C736 C 0.80499 0.05131 0.47507 0.0
C737 C 0.79562 0.0832 0.53486 0.0
C738 C 0.80303 0.12392 0.51127 0.0
C739 C 0.81642 0.14968 0.45743 0.0
C740 C 0.81825 0.13299 0.42714 0.0
C741 C 0.80839 0.10875 0.48129 0.0
C742 C 0.81393 0.07522 0.42141 0.0
C743 C 0.80833 0.03533 0.44505 0.0
H744 H 0.62266 0.69389 0.77139 0.0
H745 H 0.75077 0.88377 0.74635 0.0
H746 H 0.81838 0.89285 0.78836 0.0
H747 H 0.84122 0.84731 0.83225 0.0
H748 H 0.71561 0.65609 0.8565 0.0
H749 H 0.64562 0.64825 0.81576 0.0
C750 C 0.66536 0.73737 0.7751 0.0
C751 C 0.68194 0.7879 0.75524 0.0
C752 C 0.70398 0.74237 0.79958 0.0
C753 C 0.73744 0.84371 0.76062 0.0
C754 C 0.77585 0.84911 0.78493 0.0
C755 C 0.79888 0.80351 0.8286 0.0
C756 C 0.78453 0.75213 0.84757 0.0
C757 C 0.75972 0.79871 0.8045 0.0
C758 C 0.7281 0.69669 0.84272 0.0
C759 C 0.68824 0.69194 0.81912 0.0
H760 H 0.05121 0.75406 0.16296 0.0
H761 H 0.92629 0.81186 0.199 0.0
H762 H 0.85398 0.76003 0.15782 0.0
H763 H 0.82423 0.6964 0.11155 0.0
H764 H 0.94388 0.6309 0.07769 0.0
H765 H 0.01986 0.6875 0.11744 0.0
C766 C 0.00791 0.75477 0.16202 0.0
C767 C 0.99509 0.78782 0.18406 0.0
C768 C 0.96552 0.72381 0.13831 0.0
C769 C 0.93851 0.78817 0.18215 0.0
C770 C 0.89674 0.75827 0.15858 0.0
C771 C 0.86734 0.69531 0.1128 0.0
C772 C 0.87901 0.66028 0.09166 0.0
C773 C 0.90977 0.7262 0.13641 0.0
C774 C 0.93423 0.65785 0.09377 0.0
C775 C 0.97754 0.69006 0.11654 0.0
H776 H 0.14972 0.98331 0.48909 0.0
H777 H 0.30641 0.98224 0.53126 0.0
H778 H 0.31433 0.92509 0.48868 0.0
H779 H 0.27782 0.87591 0.43918 0.0
H780 H 0.11107 0.86192 0.40142 0.0
H781 H 0.10559 0.92322 0.44293 0.0
C782 C 0.18504 0.96985 0.48957 0.0
C783 C 0.22797 0.98881 0.51364 0.0
C784 C 0.18771 0.93407 0.46562 0.0
C785 C 0.27384 0.971 0.51291 0.0
C786 C 0.27809 0.93739 0.4886 0.0
C787 C 0.2399 0.88578 0.44007 0.0
C788 C 0.19562 0.86511 0.41666 0.0
C789 C 0.2355 0.91899 0.46475 0.0
C790 C 0.14656 0.87798 0.41859 0.0
C791 C 0.14322 0.91294 0.4425 0.0
loop_
_geom_bond_atom_site_label_1
_geom_bond_atom_site_label_2
_geom_bond_distance
_geom_bond_site_symmetry_2
_ccdc_geom_bond_type
Tb0 N29 2.618 . S
Tb0 N35 2.572 1_556 S
Tb0 O44 2.465 . S
Tb0 O45 2.387 1_556 S
Tb0 O47 2.428 . S
Tb0 O48 2.308 1_556 S
Tb0 O52 2.349 . S
Tb0 O55 2.393 . S
Tb0 C64 2.802 . S
C1 N2 1.379 . S
C1 C4 1.416 . S
C1 C8 1.424 . S
N2 C1 1.379 . S
N2 C5 1.334 . S
N2 Tb11 2.617 . S
C3 C5 1.390 . S
C3 C6 1.339 . S
C3 H23 0.930 . S
C4 C1 1.416 . S
C4 C6 1.416 . S
C4 C10 1.448 . S
C5 N2 1.334 . S
C5 C3 1.390 . S
C5 H16 0.930 . S
C6 C3 1.339 . S
C6 C4 1.416 . S
C6 H27 0.930 . S
C7 C8 1.413 . S
C7 C9 1.427 . S
C7 C13 1.408 1_554 S
C8 C1 1.424 . S
C8 C7 1.413 . S
C8 N12 1.361 . S
C9 C7 1.427 . S
C9 C10 1.328 . S
C9 H24 0.929 1_554 S
C10 C4 1.448 . S
C10 C9 1.328 . S
C10 H25 0.930 . S
Tb11 N2 2.617 . S
Tb11 N12 2.572 . S
Tb11 O46 2.349 . S
Tb11 O49 2.393 . S
Tb11 O50 2.465 . S
Tb11 O51 2.387 1_554 S
Tb11 O53 2.428 . S
Tb11 O54 2.308 . S
Tb11 C75 2.802 . S
N12 C8 1.361 . S
N12 Tb11 2.572 . S
N12 C14 1.340 . S
C13 C7 1.408 1_556 S
C13 C15 1.327 1_556 S
C13 H21 0.945 . S
C14 N12 1.340 . S
C14 C15 1.407 . S
C14 H20 0.930 . S
C15 C13 1.327 1_554 S
C15 C14 1.407 . S
C15 H17 0.921 1_554 S
H16 C5 0.930 . S
H17 C15 0.921 1_556 S
H18 C33 0.930 . S
H19 C40 0.929 . S
H20 C14 0.930 . S
H21 C13 0.945 . S
H22 C36 0.930 . S
H23 C3 0.930 . S
H24 C9 0.929 1_556 S
H25 C10 0.930 . S
H26 C31 0.930 . S
H27 C6 0.930 . S
H28 C39 0.931 . S
N29 Tb0 2.618 . S
N29 C30 1.372 1_556 S
N29 C33 1.340 . S
C30 N29 1.372 1_554 S
C30 C32 1.416 1_455 S
C30 C38 1.424 . S
C31 H26 0.930 . S
C31 C33 1.390 1_655 S
C31 C34 1.339 1_556 S
C32 C30 1.416 1_655 S
C32 C34 1.416 . S
C32 C65 1.448 . S
C33 H18 0.930 . S
C33 N29 1.340 . S
C33 C31 1.390 1_455 S
C34 C31 1.339 1_554 S
C34 C32 1.416 . S
C34 H41 0.930 . S
N35 Tb0 2.572 1_554 S
N35 C36 1.340 . S
N35 C38 1.361 . S
C36 H22 0.930 . S
C36 N35 1.340 . S
C36 C40 1.407 . S
C37 C38 1.413 . S
C37 C39 1.416 . S
C37 C66 1.427 . S
C38 C30 1.424 . S
C38 N35 1.361 . S
C38 C37 1.413 . S
C39 H28 0.931 . S
C39 C37 1.416 . S
C39 C40 1.332 . S
C40 H19 0.929 . S
C40 C36 1.407 . S
C40 C39 1.332 . S
H41 C34 0.930 . S
H42 C65 0.930 . S
H43 C66 0.929 . S
O44 Tb0 2.465 . S
O44 C64 1.264 . S
O45 Tb0 2.387 1_554 S
O45 C56 1.264 . S
O46 Tb11 2.349 . S
O46 C56 1.243 . S
O47 Tb0 2.428 . S
O47 C64 1.256 . S
O48 Tb0 2.308 1_554 S
O48 C63 1.266 . S
O49 Tb11 2.393 . S
O49 C63 1.248 . S
O50 Tb11 2.465 . S
O50 C75 1.264 . S
O51 Tb11 2.387 1_556 S
O51 C67 1.264 . S
O52 Tb0 2.349 . S
O52 C67 1.243 . S
O53 Tb11 2.428 . S
O53 C75 1.256 . S
O54 Tb11 2.308 . S
O54 C74 1.266 . S
O55 Tb0 2.393 . S
O55 C74 1.248 1_556 S
C56 O45 1.264 . S
C56 O46 1.243 . S
C57 C60 1.399 . S
C57 C62 1.383 . S
C57 C64 1.496 . S
C58 C59 1.399 . S
C58 C62 1.389 . S
C59 C58 1.399 . S
C59 C61 1.380 . S
C59 H76 0.929 . S
C60 C57 1.399 . S
C60 C61 1.392 . S
C60 H77 0.929 . S
C61 C59 1.380 . S
C61 C60 1.392 . S
C61 H78 0.929 . S
C62 C57 1.383 . S
C62 C58 1.389 . S
C62 H79 0.931 . S
C63 O48 1.266 . S
C63 O49 1.248 . S
C64 Tb0 2.802 . S
C64 O44 1.264 . S
C64 O47 1.256 . S
C64 C57 1.496 . S
C65 C32 1.448 . S
C65 H42 0.930 . S
C65 C66 1.328 1_655 S
C66 C37 1.427 . S
C66 H43 0.929 . S
C66 C65 1.328 1_455 S
C67 O51 1.264 . S
C67 O52 1.243 . S
C68 C71 1.399 . S
C68 C72 1.383 . S
C68 C75 1.496 . S
C69 C70 1.399 . S
C69 C72 1.389 . S
C70 C69 1.399 . S
C70 C73 1.380 . S
C70 H80 0.929 . S
C71 C68 1.399 . S
C71 C73 1.392 . S
C71 H81 0.929 . S
C72 C68 1.383 . S
C72 C69 1.389 . S
C72 H82 0.931 . S
C73 C70 1.380 . S
C73 C71 1.392 . S
C73 H83 0.929 . S
C74 O54 1.266 . S
C74 O55 1.248 1_554 S
C75 Tb11 2.802 . S
C75 O50 1.264 . S
C75 O53 1.256 . S
C75 C68 1.496 . S
H76 C59 0.929 . S
H77 C60 0.929 . S
H78 C61 0.929 . S
H79 C62 0.931 . S
H80 C70 0.929 . S
H81 C71 0.929 . S
H82 C72 0.931 . S
H83 C73 0.929 . S
Tb84 N113 2.617 . S
Tb84 N119 2.572 . S
Tb84 O128 2.465 . S
Tb84 O129 2.387 . S
Tb84 O131 2.428 . S
Tb84 O132 2.308 . S
Tb84 O136 2.349 . S
Tb84 O139 2.393 . S
Tb84 C148 2.802 . S
C85 N86 1.379 . S
C85 C88 1.416 . S
C85 C92 1.424 . S
N86 C85 1.379 . S
N86 C89 1.334 . S
N86 Tb95 2.617 . S
C87 C89 1.390 . S
C87 C90 1.339 . S
C87 H107 0.930 . S
C88 C85 1.416 . S
C88 C90 1.416 . S
C88 C94 1.448 . S
C89 N86 1.334 . S
C89 C87 1.390 . S
C89 H100 0.930 . S
C90 C87 1.339 . S
C90 C88 1.416 . S
C90 H111 0.930 . S
C91 C92 1.413 . S
C91 C93 1.427 . S
C91 C97 1.416 . S
C92 C85 1.424 . S
C92 C91 1.413 . S
C92 N96 1.361 . S
C93 C91 1.427 . S
C93 C94 1.328 . S
C93 H108 0.929 . S
C94 C88 1.448 . S
C94 C93 1.328 . S
C94 H109 0.930 . S
Tb95 N86 2.617 . S
Tb95 N96 2.572 . S
Tb95 O130 2.349 . S
Tb95 O133 2.393 . S
Tb95 O134 2.465 . S
Tb95 O135 2.387 . S
Tb95 O137 2.428 . S
Tb95 O138 2.308 . S
Tb95 C159 2.802 . S
N96 C92 1.361 . S
N96 Tb95 2.572 . S
N96 C98 1.340 . S
C97 C91 1.416 . S
C97 C99 1.332 . S
C97 H105 0.931 . S
C98 N96 1.340 . S
C98 C99 1.407 . S
C98 H104 0.930 . S
C99 C97 1.332 . S
C99 C98 1.407 . S
C99 H101 0.929 . S
H100 C89 0.930 . S
H101 C99 0.929 . S
H102 C117 0.930 . S
H103 C124 0.929 . S
H104 C98 0.930 . S
H105 C97 0.931 . S
H106 C120 0.930 . S
H107 C87 0.930 . S
H108 C93 0.929 . S
H109 C94 0.930 . S
H110 C115 0.930 . S
H111 C90 0.930 . S
H112 C123 0.931 . S
N113 Tb84 2.617 . S
N113 C114 1.379 . S
N113 C117 1.334 . S
C114 N113 1.379 . S
C114 C116 1.416 1_545 S
C114 C122 1.424 . S
C115 H110 0.930 . S
C115 C117 1.390 1_565 S
C115 C118 1.339 . S
C116 C114 1.416 1_565 S
C116 C118 1.416 . S
C116 C149 1.448 . S
C117 H102 0.930 . S
C117 N113 1.334 . S
C117 C115 1.390 1_545 S
C118 C115 1.339 . S
C118 C116 1.416 . S
C118 H125 0.930 . S
N119 Tb84 2.572 . S
N119 C120 1.340 . S
N119 C122 1.361 . S
C120 H106 0.930 . S
C120 N119 1.340 . S
C120 C124 1.407 1_655 S
C121 C122 1.413 . S
C121 C123 1.416 1_655 S
C121 C150 1.427 . S
C122 C114 1.424 . S
C122 N119 1.361 . S
C122 C121 1.413 . S
C123 H112 0.931 . S
C123 C121 1.416 1_455 S
C123 C124 1.332 . S
C124 H103 0.929 . S
C124 C120 1.407 1_455 S
C124 C123 1.332 . S
H125 C118 0.930 . S
H126 C149 0.930 . S
H127 C150 0.929 . S
O128 Tb84 2.465 . S
O128 C148 1.264 . S
O129 Tb84 2.387 . S
O129 C140 1.264 . S
O130 Tb95 2.349 . S
O130 C140 1.243 . S
O131 Tb84 2.428 . S
O131 C148 1.256 . S
O132 Tb84 2.308 . S
O132 C147 1.266 . S
O133 Tb95 2.393 . S
O133 C147 1.248 . S
O134 Tb95 2.465 . S
O134 C159 1.264 . S
O135 Tb95 2.387 . S
O135 C151 1.264 . S
O136 Tb84 2.349 . S
O136 C151 1.243 . S
O137 Tb95 2.428 . S
O137 C159 1.256 . S
O138 Tb95 2.308 . S
O138 C158 1.266 . S
O139 Tb84 2.393 . S
O139 C158 1.248 . S
C140 O129 1.264 . S
C140 O130 1.243 . S
C141 C144 1.399 . S
C141 C146 1.383 . S
C141 C148 1.496 . S
C142 C143 1.399 1_455 S
C142 C146 1.389 1_455 S
C143 C142 1.399 1_655 S
C143 C145 1.380 . S
C143 H160 0.929 1_655 S
C144 C141 1.399 . S
C144 C145 1.392 . S
C144 H161 0.929 . S
C145 C143 1.380 . S
C145 C144 1.392 . S
C145 H162 0.929 . S
C146 C141 1.383 . S
C146 C142 1.389 1_655 S
C146 H163 0.931 1_655 S
C147 O132 1.266 . S
C147 O133 1.248 . S
C148 Tb84 2.802 . S
C148 O128 1.264 . S
C148 O131 1.256 . S
C148 C141 1.496 . S
C149 C116 1.448 . S
C149 H126 0.930 . S
C149 C150 1.328 1_565 S
C150 C121 1.427 . S
C150 H127 0.929 . S
C150 C149 1.328 1_545 S
C151 O135 1.264 . S
C151 O136 1.243 . S
C152 C155 1.399 . S
C152 C156 1.383 . S
C152 C159 1.496 . S
C153 C154 1.399 . S
C153 C156 1.389 . S
C154 C153 1.399 . S
C154 C157 1.380 . S
C154 H164 0.929 . S
C155 C152 1.399 . S
C155 C157 1.392 . S
C155 H165 0.929 . S
C156 C152 1.383 . S
C156 C153 1.389 . S
C156 H166 0.931 . S
C157 C154 1.380 . S
C157 C155 1.392 . S
C157 H167 0.929 . S
C158 O138 1.266 . S
C158 O139 1.248 . S
C159 Tb95 2.802 . S
C159 O134 1.264 . S
C159 O137 1.256 . S
C159 C152 1.496 . S
H160 C143 0.929 1_455 S
H161 C144 0.929 . S
H162 C145 0.929 . S
H163 C146 0.931 1_455 S
H164 C154 0.929 . S
H165 C155 0.929 . S
H166 C156 0.931 . S
H167 C157 0.929 . S
Tb168 N197 2.617 . S
Tb168 N203 2.572 . S
Tb168 O212 2.465 . S
Tb168 O213 2.387 . S
Tb168 O215 2.428 . S
Tb168 O216 2.308 . S
Tb168 O220 2.349 . S
Tb168 O223 2.393 . S
Tb168 C232 2.802 . S
C169 N170 1.379 . S
C169 C172 1.416 . S
C169 C176 1.424 . S
N170 C169 1.379 . S
N170 C173 1.334 . S
N170 Tb179 2.617 . S
C171 C173 1.390 . S
C171 C174 1.339 . S
C171 H191 0.930 . S
C172 C169 1.416 . S
C172 C174 1.416 . S
C172 C178 1.448 . S
C173 N170 1.334 . S
C173 C171 1.390 . S
C173 H184 0.930 . S
C174 C171 1.339 . S
C174 C172 1.416 . S
C174 H195 0.930 . S
C175 C176 1.413 . S
C175 C177 1.427 . S
C175 C181 1.416 . S
C176 C169 1.424 . S
C176 C175 1.413 . S
C176 N180 1.361 . S
C177 C175 1.427 . S
C177 C178 1.328 . S
C177 H192 0.929 . S
C178 C172 1.448 . S
C178 C177 1.328 . S
C178 H193 0.930 . S
Tb179 N170 2.617 . S
Tb179 N180 2.572 . S
Tb179 O214 2.349 . S
Tb179 O217 2.393 . S
Tb179 O218 2.465 . S
Tb179 O219 2.387 . S
Tb179 O221 2.428 . S
Tb179 O222 2.308 . S
Tb179 C243 2.802 . S
N180 C176 1.361 . S
N180 Tb179 2.572 . S
N180 C182 1.340 . S
C181 C175 1.416 . S
C181 C183 1.332 . S
C181 H189 0.931 . S
C182 N180 1.340 . S
C182 C183 1.407 . S
C182 H188 0.930 . S
C183 C181 1.332 . S
C183 C182 1.407 . S
C183 H185 0.929 . S
H184 C173 0.930 . S
H185 C183 0.929 . S
H186 C201 0.930 . S
H187 C208 0.929 . S
H188 C182 0.930 . S
H189 C181 0.931 . S
H190 C204 0.930 . S
H191 C171 0.930 . S
H192 C177 0.929 . S
H193 C178 0.930 . S
H194 C199 0.930 . S
H195 C174 0.930 . S
H196 C207 0.931 . S
N197 Tb168 2.617 . S
N197 C198 1.379 . S
N197 C201 1.334 . S
C198 N197 1.379 . S
C198 C200 1.416 . S
C198 C206 1.424 . S
C199 H194 0.930 . S
C199 C201 1.390 . S
C199 C202 1.339 . S
C200 C198 1.416 . S
C200 C202 1.416 . S
C200 C233 1.448 . S
C201 H186 0.930 . S
C201 N197 1.334 . S
C201 C199 1.390 . S
C202 C199 1.339 . S
C202 C200 1.416 . S
C202 H209 0.930 . S
N203 Tb168 2.572 . S
N203 C204 1.340 . S
N203 C206 1.361 . S
C204 H190 0.930 . S
C204 N203 1.340 . S
C204 C208 1.407 1_565 S
C205 C206 1.413 . S
C205 C207 1.416 1_565 S
C205 C234 1.427 . S
C206 C198 1.424 . S
C206 N203 1.361 . S
C206 C205 1.413 . S
C207 H196 0.931 . S
C207 C205 1.416 1_545 S
C207 C208 1.332 . S
C208 H187 0.929 . S
C208 C204 1.407 1_545 S
C208 C207 1.332 . S
H209 C202 0.930 . S
H210 C233 0.930 . S
H211 C234 0.929 . S
O212 Tb168 2.465 . S
O212 C232 1.264 . S
O213 Tb168 2.387 . S
O213 C224 1.264 . S
O214 Tb179 2.349 . S
O214 C224 1.243 . S
O215 Tb168 2.428 . S
O215 C232 1.256 . S
O216 Tb168 2.308 . S
O216 C231 1.266 . S
O217 Tb179 2.393 . S
O217 C231 1.248 . S
O218 Tb179 2.465 . S
O218 C243 1.264 . S
O219 Tb179 2.387 . S
O219 C235 1.264 . S
O220 Tb168 2.349 . S
O220 C235 1.243 . S
O221 Tb179 2.428 . S
O221 C243 1.256 . S
O222 Tb179 2.308 . S
O222 C242 1.266 . S
O223 Tb168 2.393 . S
O223 C242 1.248 . S
C224 O213 1.264 . S
C224 O214 1.243 . S
C225 C228 1.399 . S
C225 C230 1.383 . S
C225 C232 1.496 . S
C226 C227 1.399 1_545 S
C226 C230 1.389 1_545 S
C227 C226 1.399 1_565 S
C227 C229 1.380 . S
C227 H244 0.929 1_565 S
C228 C225 1.399 . S
C228 C229 1.392 . S
C228 H245 0.929 . S
C229 C227 1.380 . S
C229 C228 1.392 . S
C229 H246 0.929 . S
C230 C225 1.383 . S
C230 C226 1.389 1_565 S
C230 H247 0.931 1_565 S
C231 O216 1.266 . S
C231 O217 1.248 . S
C232 Tb168 2.802 . S
C232 O212 1.264 . S
C232 O215 1.256 . S
C232 C225 1.496 . S
C233 C200 1.448 . S
C233 H210 0.930 . S
C233 C234 1.328 . S
C234 C205 1.427 . S
C234 H211 0.929 . S
C234 C233 1.328 . S
C235 O219 1.264 . S
C235 O220 1.243 . S
C236 C239 1.399 . S
C236 C240 1.383 . S
C236 C243 1.496 . S
C237 C238 1.399 . S
C237 C240 1.389 . S
C238 C237 1.399 . S
C238 C241 1.380 . S
C238 H248 0.929 . S
C239 C236 1.399 . S
C239 C241 1.392 . S
C239 H249 0.929 . S
C240 C236 1.383 . S
C240 C237 1.389 . S
C240 H250 0.931 . S
C241 C238 1.380 . S
C241 C239 1.392 . S
C241 H251 0.929 . S
C242 O222 1.266 . S
C242 O223 1.248 . S
C243 Tb179 2.802 . S
C243 O218 1.264 . S
C243 O221 1.256 . S
C243 C236 1.496 . S
H244 C227 0.929 1_545 S
H245 C228 0.929 . S
H246 C229 0.929 . S
H247 C230 0.931 1_545 S
H248 C238 0.929 . S
H249 C239 0.929 . S
H250 C240 0.931 . S
H251 C241 0.929 . S
Tb252 N281 2.618 . S
Tb252 N287 2.572 1_556 S
Tb252 O296 2.465 . S
Tb252 O297 2.387 1_556 S
Tb252 O299 2.428 . S
Tb252 O300 2.308 1_556 S
Tb252 O304 2.349 . S
Tb252 O307 2.393 . S
Tb252 C316 2.802 . S
C253 N254 1.379 . S
C253 C256 1.416 . S
C253 C260 1.424 . S
N254 C253 1.379 . S
N254 C257 1.334 . S
N254 Tb263 2.617 . S
C255 C257 1.390 . S
C255 C258 1.339 . S
C255 H275 0.930 . S
C256 C253 1.416 . S
C256 C258 1.416 . S
C256 C262 1.448 . S
C257 N254 1.334 . S
C257 C255 1.390 . S
C257 H268 0.930 . S
C258 C255 1.339 . S
C258 C256 1.416 . S
C258 H279 0.930 . S
C259 C260 1.413 . S
C259 C261 1.427 . S
C259 C265 1.408 1_554 S
C260 C253 1.424 . S
C260 C259 1.413 . S
C260 N264 1.361 . S
C261 C259 1.427 . S
C261 C262 1.328 . S
C261 H276 0.929 1_554 S
C262 C256 1.448 . S
C262 C261 1.328 . S
C262 H277 0.930 . S
Tb263 N254 2.617 . S
Tb263 N264 2.572 . S
Tb263 O298 2.349 . S
Tb263 O301 2.393 . S
Tb263 O302 2.465 . S
Tb263 O303 2.387 1_554 S
Tb263 O305 2.428 . S
Tb263 O306 2.308 . S
Tb263 C327 2.802 . S
N264 C260 1.361 . S
N264 Tb263 2.572 . S
N264 C266 1.340 . S
C265 C259 1.408 1_556 S
C265 C267 1.327 1_556 S
C265 H273 0.945 . S
C266 N264 1.340 . S
C266 C267 1.407 . S
C266 H272 0.930 . S
C267 C265 1.327 1_554 S
C267 C266 1.407 . S
C267 H269 0.921 1_554 S
H268 C257 0.930 . S
H269 C267 0.921 1_556 S
H270 C285 0.930 . S
H271 C292 0.929 . S
H272 C266 0.930 . S
H273 C265 0.945 . S
H274 C288 0.930 . S
H275 C255 0.930 . S
H276 C261 0.929 1_556 S
H277 C262 0.930 . S
H278 C283 0.930 . S
H279 C258 0.930 . S
H280 C291 0.931 . S
N281 Tb252 2.618 . S
N281 C282 1.372 1_556 S
N281 C285 1.340 . S
C282 N281 1.372 1_554 S
C282 C284 1.416 1_655 S
C282 C290 1.424 . S
C283 H278 0.930 . S
C283 C285 1.390 1_455 S
C283 C286 1.339 1_556 S
C284 C282 1.416 1_455 S
C284 C286 1.416 . S
C284 C317 1.448 . S
C285 H270 0.930 . S
C285 N281 1.340 . S
C285 C283 1.390 1_655 S
C286 C283 1.339 1_554 S
C286 C284 1.416 . S
C286 H293 0.930 . S
N287 Tb252 2.572 1_554 S
N287 C288 1.340 . S
N287 C290 1.361 . S
C288 H274 0.930 . S
C288 N287 1.340 . S
C288 C292 1.407 . S
C289 C290 1.413 . S
C289 C291 1.416 . S
C289 C318 1.427 . S
C290 C282 1.424 . S
C290 N287 1.361 . S
C290 C289 1.413 . S
C291 H280 0.931 . S
C291 C289 1.416 . S
C291 C292 1.332 . S
C292 H271 0.929 . S
C292 C288 1.407 . S
C292 C291 1.332 . S
H293 C286 0.930 . S
H294 C317 0.930 . S
H295 C318 0.929 . S
O296 Tb252 2.465 . S
O296 C316 1.264 . S
O297 Tb252 2.387 1_554 S
O297 C308 1.264 . S
O298 Tb263 2.349 . S
O298 C308 1.243 . S
O299 Tb252 2.428 . S
O299 C316 1.256 . S
O300 Tb252 2.308 1_554 S
O300 C315 1.266 . S
O301 Tb263 2.393 . S
O301 C315 1.248 . S
O302 Tb263 2.465 . S
O302 C327 1.264 . S
O303 Tb263 2.387 1_556 S
O303 C319 1.264 . S
O304 Tb252 2.349 . S
O304 C319 1.243 . S
O305 Tb263 2.428 . S
O305 C327 1.256 . S
O306 Tb263 2.308 . S
O306 C326 1.266 . S
O307 Tb252 2.393 . S
O307 C326 1.248 1_556 S
C308 O297 1.264 . S
C308 O298 1.243 . S
C309 C312 1.399 . S
C309 C314 1.383 . S
C309 C316 1.496 . S
C310 C311 1.399 . S
C310 C314 1.389 . S
C311 C310 1.399 . S
C311 C313 1.380 . S
C311 H328 0.929 . S
C312 C309 1.399 . S
C312 C313 1.392 . S
C312 H329 0.929 . S
C313 C311 1.380 . S
C313 C312 1.392 . S
C313 H330 0.929 . S
C314 C309 1.383 . S
C314 C310 1.389 . S
C314 H331 0.931 . S
C315 O300 1.266 . S
C315 O301 1.248 . S
C316 Tb252 2.802 . S
C316 O296 1.264 . S
C316 O299 1.256 . S
C316 C309 1.496 . S
C317 C284 1.448 . S
C317 H294 0.930 . S
C317 C318 1.328 1_455 S
C318 C289 1.427 . S
C318 H295 0.929 . S
C318 C317 1.328 1_655 S
C319 O303 1.264 . S
C319 O304 1.243 . S
C320 C323 1.399 . S
C320 C324 1.383 . S
C320 C327 1.496 . S
C321 C322 1.399 . S
C321 C324 1.389 . S
C322 C321 1.399 . S
C322 C325 1.380 . S
C322 H332 0.929 . S
C323 C320 1.399 . S
C323 C325 1.392 . S
C323 H333 0.929 . S
C324 C320 1.383 . S
C324 C321 1.389 . S
C324 H334 0.931 . S
C325 C322 1.380 . S
C325 C323 1.392 . S
C325 H335 0.929 . S
C326 O306 1.266 . S
C326 O307 1.248 1_554 S
C327 Tb263 2.802 . S
C327 O302 1.264 . S
C327 O305 1.256 . S
C327 C320 1.496 . S
H328 C311 0.929 . S
H329 C312 0.929 . S
H330 C313 0.929 . S
H331 C314 0.931 . S
H332 C322 0.929 . S
H333 C323 0.929 . S
H334 C324 0.931 . S
H335 C325 0.929 . S
Tb336 N365 2.617 . S
Tb336 N371 2.572 . S
Tb336 O380 2.465 . S
Tb336 O381 2.387 . S
Tb336 O383 2.428 . S
Tb336 O384 2.308 . S
Tb336 O388 2.349 . S
Tb336 O391 2.393 . S
Tb336 C400 2.802 . S
C337 N338 1.379 . S
C337 C340 1.416 . S
C337 C344 1.424 . S
N338 C337 1.379 . S
N338 C341 1.334 . S
N338 Tb347 2.617 . S
C339 C341 1.390 . S
C339 C342 1.339 . S
C339 H359 0.930 . S
C340 C337 1.416 . S
C340 C342 1.416 . S
C340 C346 1.448 . S
C341 N338 1.334 . S
C341 C339 1.390 . S
C341 H352 0.930 . S
C342 C339 1.339 . S
C342 C340 1.416 . S
C342 H363 0.930 . S
C343 C344 1.413 . S
C343 C345 1.427 . S
C343 C349 1.416 . S
C344 C337 1.424 . S
C344 C343 1.413 . S
C344 N348 1.361 . S
C345 C343 1.427 . S
C345 C346 1.328 . S
C345 H360 0.929 . S
C346 C340 1.448 . S
C346 C345 1.328 . S
C346 H361 0.930 . S
Tb347 N338 2.617 . S
Tb347 N348 2.572 . S
Tb347 O382 2.349 . S
Tb347 O385 2.393 . S
Tb347 O386 2.465 . S
Tb347 O387 2.387 . S
Tb347 O389 2.428 . S
Tb347 O390 2.308 . S
Tb347 C411 2.802 . S
N348 C344 1.361 . S
N348 Tb347 2.572 . S
N348 C350 1.340 . S
C349 C343 1.416 . S
C349 C351 1.332 . S
C349 H357 0.931 . S
C350 N348 1.340 . S
C350 C351 1.407 . S
C350 H356 0.930 . S
C351 C349 1.332 . S
C351 C350 1.407 . S
C351 H353 0.929 . S
H352 C341 0.930 . S
H353 C351 0.929 . S
H354 C369 0.930 . S
H355 C376 0.929 . S
H356 C350 0.930 . S
H357 C349 0.931 . S
H358 C372 0.930 . S
H359 C339 0.930 . S
H360 C345 0.929 . S
H361 C346 0.930 . S
H362 C367 0.930 . S
H363 C342 0.930 . S
H364 C375 0.931 . S
N365 Tb336 2.617 . S
N365 C366 1.379 . S
N365 C369 1.334 . S
C366 N365 1.379 . S
C366 C368 1.416 1_565 S
C366 C374 1.424 . S
C367 H362 0.930 . S
C367 C369 1.390 1_545 S
C367 C370 1.339 . S
C368 C366 1.416 1_545 S
C368 C370 1.416 . S
C368 C401 1.448 . S
C369 H354 0.930 . S
C369 N365 1.334 . S
C369 C367 1.390 1_565 S
C370 C367 1.339 . S
C370 C368 1.416 . S
C370 H377 0.930 . S
N371 Tb336 2.572 . S
N371 C372 1.340 . S
N371 C374 1.361 . S
C372 H358 0.930 . S
C372 N371 1.340 . S
C372 C376 1.407 1_455 S
C373 C374 1.413 . S
C373 C375 1.416 1_455 S
C373 C402 1.427 . S
C374 C366 1.424 . S
C374 N371 1.361 . S
C374 C373 1.413 . S
C375 H364 0.931 . S
C375 C373 1.416 1_655 S
C375 C376 1.332 . S
C376 H355 0.929 . S
C376 C372 1.407 1_655 S
C376 C375 1.332 . S
H377 C370 0.930 . S
H378 C401 0.930 . S
H379 C402 0.929 . S
O380 Tb336 2.465 . S
O380 C400 1.264 . S
O381 Tb336 2.387 . S
O381 C392 1.264 . S
O382 Tb347 2.349 . S
O382 C392 1.243 . S
O383 Tb336 2.428 . S
O383 C400 1.256 . S
O384 Tb336 2.308 . S
O384 C399 1.266 . S
O385 Tb347 2.393 . S
O385 C399 1.248 . S
O386 Tb347 2.465 . S
O386 C411 1.264 . S
O387 Tb347 2.387 . S
O387 C403 1.264 . S
O388 Tb336 2.349 . S
O388 C403 1.243 . S
O389 Tb347 2.428 . S
O389 C411 1.256 . S
O390 Tb347 2.308 . S
O390 C410 1.266 . S
O391 Tb336 2.393 . S
O391 C410 1.248 . S
C392 O381 1.264 . S
C392 O382 1.243 . S
C393 C396 1.399 . S
C393 C398 1.383 . S
C393 C400 1.496 . S
C394 C395 1.399 1_655 S
C394 C398 1.389 1_655 S
C395 C394 1.399 1_455 S
C395 C397 1.380 . S
C395 H412 0.929 1_455 S
C396 C393 1.399 . S
C396 C397 1.392 . S
C396 H413 0.929 . S
C397 C395 1.380 . S
C397 C396 1.392 . S
C397 H414 0.929 . S
C398 C393 1.383 . S
C398 C394 1.389 1_455 S
C398 H415 0.931 1_455 S
C399 O384 1.266 . S
C399 O385 1.248 . S
C400 Tb336 2.802 . S
C400 O380 1.264 . S
C400 O383 1.256 . S
C400 C393 1.496 . S
C401 C368 1.448 . S
C401 H378 0.930 . S
C401 C402 1.328 1_545 S
C402 C373 1.427 . S
C402 H379 0.929 . S
C402 C401 1.328 1_565 S
C403 O387 1.264 . S
C403 O388 1.243 . S
C404 C407 1.399 . S
C404 C408 1.383 . S
C404 C411 1.496 . S
C405 C406 1.399 . S
C405 C408 1.389 . S
C406 C405 1.399 . S
C406 C409 1.380 . S
C406 H416 0.929 . S
C407 C404 1.399 . S
C407 C409 1.392 . S
C407 H417 0.929 . S
C408 C404 1.383 . S
C408 C405 1.389 . S
C408 H418 0.931 . S
C409 C406 1.380 . S
C409 C407 1.392 . S
C409 H419 0.929 . S
C410 O390 1.266 . S
C410 O391 1.248 . S
C411 Tb347 2.802 . S
C411 O386 1.264 . S
C411 O389 1.256 . S
C411 C404 1.496 . S
H412 C395 0.929 1_655 S
H413 C396 0.929 . S
H414 C397 0.929 . S
H415 C398 0.931 1_655 S
H416 C406 0.929 . S
H417 C407 0.929 . S
H418 C408 0.931 . S
H419 C409 0.929 . S
Tb420 N449 2.617 . S
Tb420 N455 2.572 . S
Tb420 O464 2.465 . S
Tb420 O465 2.387 . S
Tb420 O467 2.428 . S
Tb420 O468 2.308 . S
Tb420 O472 2.349 . S
Tb420 O475 2.393 . S
Tb420 C484 2.802 . S
C421 N422 1.379 . S
C421 C424 1.416 . S
C421 C428 1.424 . S
N422 C421 1.379 . S
N422 C425 1.334 . S
N422 Tb431 2.617 . S
C423 C425 1.390 . S
C423 C426 1.339 . S
C423 H443 0.930 . S
C424 C421 1.416 . S
C424 C426 1.416 . S
C424 C430 1.448 . S
C425 N422 1.334 . S
C425 C423 1.390 . S
C425 H436 0.930 . S
C426 C423 1.339 . S
C426 C424 1.416 . S
C426 H447 0.930 . S
C427 C428 1.413 . S
C427 C429 1.427 . S
C427 C433 1.416 . S
C428 C421 1.424 . S
C428 C427 1.413 . S
C428 N432 1.361 . S
C429 C427 1.427 . S
C429 C430 1.328 . S
C429 H444 0.929 . S
C430 C424 1.448 . S
C430 C429 1.328 . S
C430 H445 0.930 . S
Tb431 N422 2.617 . S
Tb431 N432 2.572 . S
Tb431 O466 2.349 . S
Tb431 O469 2.393 . S
Tb431 O470 2.465 . S
Tb431 O471 2.387 . S
Tb431 O473 2.428 . S
Tb431 O474 2.308 . S
Tb431 C495 2.802 . S
N432 C428 1.361 . S
N432 Tb431 2.572 . S
N432 C434 1.340 . S
C433 C427 1.416 . S
C433 C435 1.332 . S
C433 H441 0.931 . S
C434 N432 1.340 . S
C434 C435 1.407 . S
C434 H440 0.930 . S
C435 C433 1.332 . S
C435 C434 1.407 . S
C435 H437 0.929 . S
H436 C425 0.930 . S
H437 C435 0.929 . S
H438 C453 0.930 . S
H439 C460 0.929 . S
H440 C434 0.930 . S
H441 C433 0.931 . S
H442 C456 0.930 . S
H443 C423 0.930 . S
H444 C429 0.929 . S
H445 C430 0.930 . S
H446 C451 0.930 . S
H447 C426 0.930 . S
H448 C459 0.931 . S
N449 Tb420 2.617 . S
N449 C450 1.379 . S
N449 C453 1.334 . S
C450 N449 1.379 . S
C450 C452 1.416 . S
C450 C458 1.424 . S
C451 H446 0.930 . S
C451 C453 1.390 . S
C451 C454 1.339 . S
C452 C450 1.416 . S
C452 C454 1.416 . S
C452 C485 1.448 . S
C453 H438 0.930 . S
C453 N449 1.334 . S
C453 C451 1.390 . S
C454 C451 1.339 . S
C454 C452 1.416 . S
C454 H461 0.930 . S
N455 Tb420 2.572 . S
N455 C456 1.340 . S
N455 C458 1.361 . S
C456 H442 0.930 . S
C456 N455 1.340 . S
C456 C460 1.407 1_545 S
C457 C458 1.413 . S
C457 C459 1.416 1_545 S
C457 C486 1.427 . S
C458 C450 1.424 . S
C458 N455 1.361 . S
C458 C457 1.413 . S
C459 H448 0.931 . S
C459 C457 1.416 1_565 S
C459 C460 1.332 . S
C460 H439 0.929 . S
C460 C456 1.407 1_565 S
C460 C459 1.332 . S
H461 C454 0.930 . S
H462 C485 0.930 . S
H463 C486 0.929 . S
O464 Tb420 2.465 . S
O464 C484 1.264 . S
O465 Tb420 2.387 . S
O465 C476 1.264 . S
O466 Tb431 2.349 . S
O466 C476 1.243 . S
O467 Tb420 2.428 . S
O467 C484 1.256 . S
O468 Tb420 2.308 . S
O468 C483 1.266 . S
O469 Tb431 2.393 . S
O469 C483 1.248 . S
O470 Tb431 2.465 . S
O470 C495 1.264 . S
O471 Tb431 2.387 . S
O471 C487 1.264 . S
O472 Tb420 2.349 . S
O472 C487 1.243 . S
O473 Tb431 2.428 . S
O473 C495 1.256 . S
O474 Tb431 2.308 . S
O474 C494 1.266 . S
O475 Tb420 2.393 . S
O475 C494 1.248 . S
C476 O465 1.264 . S
C476 O466 1.243 . S
C477 C480 1.399 . S
C477 C482 1.383 . S
C477 C484 1.496 . S
C478 C479 1.399 1_565 S
C478 C482 1.389 1_565 S
C479 C478 1.399 1_545 S
C479 C481 1.380 . S
C479 H496 0.929 1_545 S
C480 C477 1.399 . S
C480 C481 1.392 . S
C480 H497 0.929 . S
C481 C479 1.380 . S
C481 C480 1.392 . S
C481 H498 0.929 . S
C482 C477 1.383 . S
C482 C478 1.389 1_545 S
C482 H499 0.931 1_545 S
C483 O468 1.266 . S
C483 O469 1.248 . S
C484 Tb420 2.802 . S
C484 O464 1.264 . S
C484 O467 1.256 . S
C484 C477 1.496 . S
C485 C452 1.448 . S
C485 H462 0.930 . S
C485 C486 1.328 . S
C486 C457 1.427 . S
C486 H463 0.929 . S
C486 C485 1.328 . S
C487 O471 1.264 . S
C487 O472 1.243 . S
C488 C491 1.399 . S
C488 C492 1.383 . S
C488 C495 1.496 . S
C489 C490 1.399 . S
C489 C492 1.389 . S
C490 C489 1.399 . S
C490 C493 1.380 . S
C490 H500 0.929 . S
C491 C488 1.399 . S
C491 C493 1.392 . S
C491 H501 0.929 . S
C492 C488 1.383 . S
C492 C489 1.389 . S
C492 H502 0.931 . S
C493 C490 1.380 . S
C493 C491 1.392 . S
C493 H503 0.929 . S
C494 O474 1.266 . S
C494 O475 1.248 . S
C495 Tb431 2.802 . S
C495 O470 1.264 . S
C495 O473 1.256 . S
C495 C488 1.496 . S
H496 C479 0.929 1_565 S
H497 C480 0.929 . S
H498 C481 0.929 . S
H499 C482 0.931 1_565 S
H500 C490 0.929 . S
H501 C491 0.929 . S
H502 C492 0.931 . S
H503 C493 0.929 . S
H504 C510 0.930 . S
H505 C513 0.930 . S
H506 C514 0.930 . S
H507 C515 0.930 . S
H508 C518 0.930 . S
H509 C519 0.930 . S
C510 H504 0.930 . S
C510 C511 1.355 . S
C510 C512 1.415 . S
C511 C510 1.355 . S
C511 C513 1.419 . S
C512 C510 1.415 . S
C512 C517 1.425 . S
C512 C519 1.409 . S
C513 H505 0.930 . S
C513 C511 1.419 . S
C513 C514 1.362 . S
C514 H506 0.930 . S
C514 C513 1.362 . S
C514 C517 1.409 . S
C515 H507 0.930 . S
C515 C516 1.355 . S
C515 C517 1.415 . S
C516 C515 1.355 . S
C516 C518 1.419 . S
C517 C512 1.425 . S
C517 C514 1.409 . S
C517 C515 1.415 . S
C518 H508 0.930 . S
C518 C516 1.419 . S
C518 C519 1.362 . S
C519 H509 0.930 . S
C519 C512 1.409 . S
C519 C518 1.362 . S
H520 C526 0.930 . S
H521 C529 0.930 . S
H522 C530 0.930 . S
H523 C531 0.930 . S
H524 C534 0.930 . S
H525 C535 0.930 . S
C526 H520 0.930 . S
C526 C527 1.355 . S
C526 C528 1.415 . S
C527 C526 1.355 . S
C527 C529 1.419 . S
C528 C526 1.415 . S
C528 C533 1.425 . S
C528 C535 1.409 . S
C529 H521 0.930 . S
C529 C527 1.419 . S
C529 C530 1.362 . S
C530 H522 0.930 . S
C530 C529 1.362 . S
C530 C533 1.409 . S
C531 H523 0.930 . S
C531 C532 1.355 . S
C531 C533 1.415 . S
C532 C531 1.355 . S
C532 C534 1.419 . S
C533 C528 1.425 . S
C533 C530 1.409 . S
C533 C531 1.415 . S
C534 H524 0.930 . S
C534 C532 1.419 . S
C534 C535 1.362 . S
C535 H525 0.930 . S
C535 C528 1.409 . S
C535 C534 1.362 . S
H536 C542 0.930 . S
H537 C545 0.930 . S
H538 C546 0.930 . S
H539 C547 0.930 . S
H540 C550 0.930 . S
H541 C551 0.930 . S
C542 H536 0.930 . S
C542 C543 1.355 . S
C542 C544 1.415 . S
C543 C542 1.355 . S
C543 C545 1.419 . S
C544 C542 1.415 . S
C544 C549 1.425 . S
C544 C551 1.409 . S
C545 H537 0.930 . S
C545 C543 1.419 . S
C545 C546 1.362 . S
C546 H538 0.930 . S
C546 C545 1.362 . S
C546 C549 1.409 . S
C547 H539 0.930 . S
C547 C548 1.355 . S
C547 C549 1.415 . S
C548 C547 1.355 . S
C548 C550 1.419 . S
C549 C544 1.425 . S
C549 C546 1.409 . S
C549 C547 1.415 . S
C550 H540 0.930 . S
C550 C548 1.419 . S
C550 C551 1.362 . S
C551 H541 0.930 . S
C551 C544 1.409 . S
C551 C550 1.362 . S
H552 C558 0.930 . S
H553 C561 0.930 . S
H554 C562 0.930 . S
H555 C563 0.930 . S
H556 C566 0.930 . S
H557 C567 0.930 . S
C558 H552 0.930 . S
C558 C559 1.355 . S
C558 C560 1.415 . S
C559 C558 1.355 . S
C559 C561 1.419 . S
C560 C558 1.415 . S
C560 C565 1.425 . S
C560 C567 1.409 . S
C561 H553 0.930 . S
C561 C559 1.419 . S
C561 C562 1.362 . S
C562 H554 0.930 . S
C562 C561 1.362 . S
C562 C565 1.409 . S
C563 H555 0.930 . S
C563 C564 1.355 . S
C563 C565 1.415 . S
C564 C563 1.355 . S
C564 C566 1.419 . S
C565 C560 1.425 . S
C565 C562 1.409 . S
C565 C563 1.415 . S
C566 H556 0.930 . S
C566 C564 1.419 . S
C566 C567 1.362 . S
C567 H557 0.930 . S
C567 C560 1.409 . S
C567 C566 1.362 . S
H568 C574 0.930 . S
H569 C577 0.930 . S
H570 C578 0.930 . S
H571 C579 0.930 . S
H572 C582 0.930 . S
H573 C583 0.930 . S
C574 H568 0.930 . S
C574 C575 1.355 . S
C574 C576 1.415 . S
C575 C574 1.355 . S
C575 C577 1.419 . S
C576 C574 1.415 . S
C576 C581 1.425 . S
C576 C583 1.409 . S
C577 H569 0.930 . S
C577 C575 1.419 . S
C577 C578 1.362 . S
C578 H570 0.930 . S
C578 C577 1.362 . S
C578 C581 1.409 . S
C579 H571 0.930 . S
C579 C580 1.355 . S
C579 C581 1.415 . S
C580 C579 1.355 . S
C580 C582 1.419 . S
C581 C576 1.425 . S
C581 C578 1.409 . S
C581 C579 1.415 . S
C582 H572 0.930 . S
C582 C580 1.419 . S
C582 C583 1.362 . S
C583 H573 0.930 . S
C583 C576 1.409 . S
C583 C582 1.362 . S
H584 C590 0.930 . S
H585 C593 0.930 . S
H586 C594 0.930 . S
H587 C595 0.930 . S
H588 C598 0.930 . S
H589 C599 0.930 . S
C590 H584 0.930 . S
C590 C591 1.355 . S
C590 C592 1.415 . S
C591 C590 1.355 . S
C591 C593 1.419 . S
C592 C590 1.415 . S
C592 C597 1.425 . S
C592 C599 1.409 . S
C593 H585 0.930 . S
C593 C591 1.419 . S
C593 C594 1.362 . S
C594 H586 0.930 . S
C594 C593 1.362 . S
C594 C597 1.409 . S
C595 H587 0.930 . S
C595 C596 1.355 . S
C595 C597 1.415 . S
C596 C595 1.355 . S
C596 C598 1.419 . S
C597 C592 1.425 . S
C597 C594 1.409 . S
C597 C595 1.415 . S
C598 H588 0.930 . S
C598 C596 1.419 . S
C598 C599 1.362 . S
C599 H589 0.930 . S
C599 C592 1.409 . S
C599 C598 1.362 . S
H600 C606 0.930 . S
H601 C609 0.930 . S
H602 C610 0.930 . S
H603 C611 0.930 . S
H604 C614 0.930 . S
H605 C615 0.932 . S
C606 H600 0.930 . S
C606 C607 1.355 . S
C606 C608 1.415 . S
C607 C606 1.355 . S
C607 C609 1.419 . S
C608 C606 1.415 . S
C608 C613 1.425 . S
C608 C615 1.409 . S
C609 H601 0.930 . S
C609 C607 1.419 . S
C609 C610 1.362 . S
C610 H602 0.930 . S
C610 C609 1.362 . S
C610 C613 1.409 . S
C611 H603 0.930 . S
C611 C612 1.355 . S
C611 C613 1.415 . S
C612 C611 1.355 . S
C612 C614 1.419 . S
C613 C608 1.425 . S
C613 C610 1.409 . S
C613 C611 1.415 . S
C614 H604 0.930 . S
C614 C612 1.419 . S
C614 C615 1.362 . S
C615 H605 0.932 . S
C615 C608 1.409 . S
C615 C614 1.362 . S
H616 C622 0.930 . S
H617 C625 0.930 . S
H618 C626 0.930 . S
H619 C627 0.930 . S
H620 C630 0.930 . S
H621 C631 0.930 . S
C622 H616 0.930 . S
C622 C623 1.355 1_655 S
C622 C624 1.415 . S
C623 C622 1.355 1_455 S
C623 C625 1.419 . S
C624 C622 1.415 . S
C624 C629 1.425 1_655 S
C624 C631 1.409 . S
C625 H617 0.930 . S
C625 C623 1.419 . S
C625 C626 1.362 . S
C626 H618 0.930 . S
C626 C625 1.362 . S
C626 C629 1.409 . S
C627 H619 0.930 . S
C627 C628 1.355 1_455 S
C627 C629 1.415 . S
C628 C627 1.355 1_655 S
C628 C630 1.419 . S
C629 C624 1.425 1_455 S
C629 C626 1.409 . S
C629 C627 1.415 . S
C630 H620 0.930 . S
C630 C628 1.419 . S
C630 C631 1.362 . S
C631 H621 0.930 . S
C631 C624 1.409 . S
C631 C630 1.362 . S
H632 C638 0.930 . S
H633 C641 0.927 . S
H634 C642 0.930 . S
H635 C643 0.930 . S
H636 C646 0.927 . S
H637 C647 0.930 . S
C638 H632 0.930 . S
C638 C639 1.355 . S
C638 C640 1.415 . S
C639 C638 1.355 . S
C639 C641 1.412 1_545 S
C640 C638 1.415 . S
C640 C645 1.425 1_545 S
C640 C647 1.409 . S
C641 H633 0.927 . S
C641 C639 1.412 1_565 S
C641 C642 1.372 . S
C642 H634 0.930 . S
C642 C641 1.372 . S
C642 C645 1.409 . S
C643 H635 0.930 . S
C643 C644 1.355 . S
C643 C645 1.415 . S
C644 C643 1.355 . S
C644 C646 1.412 1_565 S
C645 C640 1.425 1_565 S
C645 C642 1.409 . S
C645 C643 1.415 . S
C646 H636 0.927 . S
C646 C644 1.412 1_545 S
C646 C647 1.372 . S
C647 H637 0.930 . S
C647 C640 1.409 . S
C647 C646 1.372 . S
H648 C654 0.930 . S
H649 C657 0.930 . S
H650 C658 0.930 . S
H651 C659 0.930 . S
H652 C662 0.930 . S
H653 C663 0.930 . S
C654 H648 0.930 . S
C654 C655 1.355 . S
C654 C656 1.415 . S
C655 C654 1.355 . S
C655 C657 1.419 . S
C656 C654 1.415 . S
C656 C661 1.425 . S
C656 C663 1.409 . S
C657 H649 0.930 . S
C657 C655 1.419 . S
C657 C658 1.362 . S
C658 H650 0.930 . S
C658 C657 1.362 . S
C658 C661 1.409 . S
C659 H651 0.930 . S
C659 C660 1.355 . S
C659 C661 1.415 . S
C660 C659 1.355 . S
C660 C662 1.419 . S
C661 C656 1.425 . S
C661 C658 1.409 . S
C661 C659 1.415 . S
C662 H652 0.930 . S
C662 C660 1.419 . S
C662 C663 1.362 . S
C663 H653 0.930 . S
C663 C656 1.409 . S
C663 C662 1.362 . S
H664 C670 0.930 . S
H665 C673 0.930 . S
H666 C674 0.930 . S
H667 C675 0.930 . S
H668 C678 0.930 . S
H669 C679 0.930 . S
C670 H664 0.930 . S
C670 C671 1.355 . S
C670 C672 1.415 . S
C671 C670 1.355 . S
C671 C673 1.419 1_554 S
C672 C670 1.415 . S
C672 C677 1.425 1_455 S
C672 C679 1.409 . S
C673 H665 0.930 . S
C673 C671 1.419 1_556 S
C673 C674 1.362 1_455 S
C674 H666 0.930 . S
C674 C673 1.362 1_655 S
C674 C677 1.409 1_556 S
C675 H667 0.930 . S
C675 C676 1.355 1_556 S
C675 C677 1.415 1_556 S
C676 C675 1.355 1_554 S
C676 C678 1.419 . S
C677 C672 1.425 1_655 S
C677 C674 1.409 1_554 S
C677 C675 1.415 1_554 S
C678 H668 0.930 . S
C678 C676 1.419 . S
C678 C679 1.362 1_655 S
C679 H669 0.930 . S
C679 C672 1.409 . S
C679 C678 1.362 1_455 S
H680 C686 0.930 . S
H681 C689 0.930 . S
H682 C690 0.930 . S
H683 C691 0.930 . S
H684 C694 0.930 . S
H685 C695 0.930 . S
C686 H680 0.930 . S
C686 C687 1.355 . S
C686 C688 1.415 1_565 S
C687 C686 1.355 . S
C687 C689 1.419 . S
C688 C686 1.415 1_545 S
C688 C693 1.425 1_545 S
C688 C695 1.409 . S
C689 H681 0.930 . S
C689 C687 1.419 . S
C689 C690 1.362 . S
C690 H682 0.930 . S
C690 C689 1.362 . S
C690 C693 1.409 . S
C691 H683 0.930 . S
C691 C692 1.355 . S
C691 C693 1.415 1_545 S
C692 C691 1.355 . S
C692 C694 1.419 . S
C693 C688 1.425 1_565 S
C693 C690 1.409 . S
C693 C691 1.415 1_565 S
C694 H684 0.930 . S
C694 C692 1.419 . S
C694 C695 1.362 . S
C695 H685 0.930 . S
C695 C688 1.409 . S
C695 C694 1.362 . S
H696 C702 0.930 . S
H697 C705 0.930 . S
H698 C706 0.930 . S
H699 C707 0.930 . S
H700 C710 0.930 . S
H701 C711 0.930 . S
C702 H696 0.930 . S
C702 C703 1.355 . S
C702 C704 1.415 . S
C703 C702 1.355 . S
C703 C705 1.419 . S
C704 C702 1.415 . S
C704 C709 1.425 . S
C704 C711 1.409 . S
C705 H697 0.930 . S
C705 C703 1.419 . S
C705 C706 1.362 . S
C706 H698 0.930 . S
C706 C705 1.362 . S
C706 C709 1.409 . S
C707 H699 0.930 . S
C707 C708 1.355 . S
C707 C709 1.415 . S
C708 C707 1.355 . S
C708 C710 1.419 . S
C709 C704 1.425 . S
C709 C706 1.409 . S
C709 C707 1.415 . S
C710 H700 0.930 . S
C710 C708 1.419 . S
C710 C711 1.362 . S
C711 H701 0.930 . S
C711 C704 1.409 . S
C711 C710 1.362 . S
H712 C718 0.930 1_655 S
H713 C721 0.930 . S
H714 C722 0.930 . S
H715 C723 0.930 . S
H716 C726 0.930 . S
H717 C727 0.930 1_655 S
C718 H712 0.930 1_455 S
C718 C719 1.355 . S
C718 C720 1.415 . S
C719 C718 1.355 . S
C719 C721 1.419 . S
C720 C718 1.415 . S
C720 C725 1.425 . S
C720 C727 1.409 . S
C721 H713 0.930 . S
C721 C719 1.419 . S
C721 C722 1.362 . S
C722 H714 0.930 . S
C722 C721 1.362 . S
C722 C725 1.409 . S
C723 H715 0.930 . S
C723 C724 1.355 . S
C723 C725 1.415 . S
C724 C723 1.355 . S
C724 C726 1.419 . S
C725 C720 1.425 . S
C725 C722 1.409 . S
C725 C723 1.415 . S
C726 H716 0.930 . S
C726 C724 1.419 . S
C726 C727 1.362 . S
C727 H717 0.930 1_455 S
C727 C720 1.409 . S
C727 C726 1.362 . S
H728 C734 0.930 1_565 S
H729 C737 0.930 . S
H730 C738 0.930 . S
H731 C739 0.930 . S
H732 C742 0.930 . S
H733 C743 0.930 . S
C734 H728 0.930 1_545 S
C734 C735 1.355 . S
C734 C736 1.415 . S
C735 C734 1.355 . S
C735 C737 1.419 . S
C736 C734 1.415 . S
C736 C741 1.425 . S
C736 C743 1.409 . S
C737 H729 0.930 . S
C737 C735 1.419 . S
C737 C738 1.362 . S
C738 H730 0.930 . S
C738 C737 1.362 . S
C738 C741 1.409 . S
C739 H731 0.930 . S
C739 C740 1.355 . S
C739 C741 1.415 . S
C740 C739 1.355 . S
C740 C742 1.419 . S
C741 C736 1.425 . S
C741 C738 1.409 . S
C741 C739 1.415 . S
C742 H732 0.930 . S
C742 C740 1.419 . S
C742 C743 1.362 . S
C743 H733 0.930 . S
C743 C736 1.409 . S
C743 C742 1.362 . S
H744 C750 0.930 . S
H745 C753 0.930 . S
H746 C754 0.930 . S
H747 C755 0.930 . S
H748 C758 0.930 . S
H749 C759 0.930 . S
C750 H744 0.930 . S
C750 C751 1.355 . S
C750 C752 1.415 . S
C751 C750 1.355 . S
C751 C753 1.419 . S
C752 C750 1.415 . S
C752 C757 1.425 . S
C752 C759 1.409 . S
C753 H745 0.930 . S
C753 C751 1.419 . S
C753 C754 1.362 . S
C754 H746 0.930 . S
C754 C753 1.362 . S
C754 C757 1.409 . S
C755 H747 0.930 . S
C755 C756 1.355 . S
C755 C757 1.415 . S
C756 C755 1.355 . S
C756 C758 1.419 . S
C757 C752 1.425 . S
C757 C754 1.409 . S
C757 C755 1.415 . S
C758 H748 0.930 . S
C758 C756 1.419 . S
C758 C759 1.362 . S
C759 H749 0.930 . S
C759 C752 1.409 . S
C759 C758 1.362 . S
H760 C766 0.930 . S
H761 C769 0.930 . S
H762 C770 0.930 . S
H763 C771 0.930 . S
H764 C774 0.930 . S
H765 C775 0.930 . S
C766 H760 0.930 . S
C766 C767 1.355 . S
C766 C768 1.415 . S
C767 C766 1.355 . S
C767 C769 1.419 . S
C768 C766 1.415 . S
C768 C773 1.425 . S
C768 C775 1.409 . S
C769 H761 0.930 . S
C769 C767 1.419 . S
C769 C770 1.362 . S
C770 H762 0.930 . S
C770 C769 1.362 . S
C770 C773 1.409 . S
C771 H763 0.930 . S
C771 C772 1.355 . S
C771 C773 1.415 . S
C772 C771 1.355 . S
C772 C774 1.419 . S
C773 C768 1.425 . S
C773 C770 1.409 . S
C773 C771 1.415 . S
C774 H764 0.930 . S
C774 C772 1.419 . S
C774 C775 1.362 . S
C775 H765 0.930 . S
C775 C768 1.409 . S
C775 C774 1.362 . S
H776 C782 0.920 1_545 S
H777 C785 0.930 . S
H778 C786 0.930 . S
H779 C787 0.930 . S
H780 C790 0.930 . S
H781 C791 0.930 . S
C782 H776 0.920 1_565 S
C782 C783 1.355 . S
C782 C784 1.415 . S
C783 C782 1.355 . S
C783 C785 1.419 . S
C784 C782 1.415 . S
C784 C789 1.425 . S
C784 C791 1.409 . S
C785 H777 0.930 . S
C785 C783 1.419 . S
C785 C786 1.362 . S
C786 H778 0.930 . S
C786 C785 1.362 . S
C786 C789 1.409 . S
C787 H779 0.930 . S
C787 C788 1.355 . S
C787 C789 1.415 . S
C788 C787 1.355 . S
C788 C790 1.419 . S
C789 C784 1.425 . S
C789 C786 1.409 . S
C789 C787 1.415 . S
C790 H780 0.930 . S
C790 C788 1.419 . S
C790 C791 1.362 . S
C791 H781 0.930 . S
C791 C784 1.409 . S
C791 C790 1.362 . S
C511 C403 1.212 . S
C516 C69 1.007 . S
C527 C487 1.236 . S
C532 C153 1.093 . S
C543 C67 1.166 . S
C548 C237 0.905 . S
C559 C151 1.160 . S
C564 C321 0.923 . S
C575 C235 1.237 . S
C580 C405 1.089 . S
C591 C319 1.232 . S
C596 C489 1.065 . S
C607 C63 1.568 . S
C612 C315 1.590 . S
C623 C399 1.562 . S
C628 C147 1.569 . S
C639 C483 1.636 . S
C644 C231 1.607 . S
C655 C242 1.747 . S
C660 C494 1.731 . S
C671 C74 1.753 . S
C676 C326 1.773 . S
C687 C410 1.734 . S
C692 C158 1.759 . S
C703 C476 1.132 . S
C708 C58 1.115 . S
C719 C142 1.088 . S
C724 C56 1.110 . S
C735 C226 1.062 . S
C740 C140 1.100 . S
C751 C224 1.174 . S
C756 C310 1.053 . S
C767 C394 1.118 . S
C772 C308 1.140 . S
C783 C478 1.114 . S
C788 C392 1.131 . S
