# Generated by pormake.
# Topology sml, (6)-cn, num edge types: 1
# Building blocks:
#     Node 0, Type 0, BuildingBlock: KUMBOL_clean_sbu_1, # of connection points: 6
#     Node 1, Type 0, BuildingBlock: KUMBOL_clean_sbu_1, # of connection points: 6
#     Node 2, Type 0, BuildingBlock: KUMBOL_clean_sbu_1, # of connection points: 6
#     Node 3, Type 0, BuildingBlock: KUMBOL_clean_sbu_1, # of connection points: 6
#     Node 4, Type 0, BuildingBlock: KUMBOL_clean_sbu_1, # of connection points: 6
#     Node 5, Type 0, BuildingBlock: KUMBOL_clean_sbu_1, # of connection points: 6
#     Edge 6, Type (0, 0), BuildingBlock: TEMPAE_clean_linker_10, # of connection points: 2
#     Edge 7, Type (0, 0), BuildingBlock: TEMPAE_clean_linker_10, # of connection points: 2
#     Edge 8, Type (0, 0), BuildingBlock: TEMPAE_clean_linker_10, # of connection points: 2
#     Edge 9, Type (0, 0), BuildingBlock: TEMPAE_clean_linker_10, # of connection points: 2
#     Edge 10, Type (0, 0), BuildingBlock: TEMPAE_clean_linker_10, # of connection points: 2
#     Edge 11, Type (0, 0), BuildingBlock: TEMPAE_clean_linker_10, # of connection points: 2
#     Edge 12, Type (0, 0), BuildingBlock: TEMPAE_clean_linker_10, # of connection points: 2
#     Edge 13, Type (0, 0), BuildingBlock: TEMPAE_clean_linker_10, # of connection points: 2
#     Edge 14, Type (0, 0), BuildingBlock: TEMPAE_clean_linker_10, # of connection points: 2
#     Edge 15, Type (0, 0), BuildingBlock: TEMPAE_clean_linker_10, # of connection points: 2
#     Edge 16, Type (0, 0), BuildingBlock: TEMPAE_clean_linker_10, # of connection points: 2
#     Edge 17, Type (0, 0), BuildingBlock: TEMPAE_clean_linker_10, # of connection points: 2
#     Edge 18, Type (0, 0), BuildingBlock: TEMPAE_clean_linker_10, # of connection points: 2
#     Edge 19, Type (0, 0), BuildingBlock: TEMPAE_clean_linker_10, # of connection points: 2
#     Edge 20, Type (0, 0), BuildingBlock: TEMPAE_clean_linker_10, # of connection points: 2
#     Edge 21, Type (0, 0), BuildingBlock: TEMPAE_clean_linker_10, # of connection points: 2
#     Edge 22, Type (0, 0), BuildingBlock: TEMPAE_clean_linker_10, # of connection points: 2
#     Edge 23, Type (0, 0), BuildingBlock: TEMPAE_clean_linker_10, # of connection points: 2
# Relax obj value: 0.062
# Max RMSD: 0.174
# Mean RMSD: 0.174
data_MOF--net-sml--node1-KUMBOL_clean_sbu_1--edge1-TEMPAE_clean_linker_10
_symmetry_space_group_name_H-M    P1
_symmetry_Int_Tables_number       1
_symmetry_cell_setting            triclinic
loop_
_symmetry_equiv_pos_as_xyz
'x, y, z'
_cell_length_a     33.755203
_cell_length_b     33.744857
_cell_length_c     24.497006
_cell_angle_alpha  89.981941
_cell_angle_beta   89.916413
_cell_angle_gamma 119.93786
loop_
_atom_site_label
_atom_site_type_symbol
_atom_site_fract_x
_atom_site_fract_y
_atom_site_fract_z
_atom_type_partial_charge
C0 C 0.34648 0.44492 0.0621 0.0
C1 C 0.39025 0.52606 0.08236 0.0
C2 C 0.34796 0.4852 0.07769 0.0
C3 C 0.4309 0.52599 0.07007 0.0
C4 C 0.3872 0.44456 0.05028 0.0
C5 C 0.42937 0.48537 0.05404 0.0
N6 N 0.30513 0.40615 0.05812 0.0
C7 C 0.30209 0.36553 0.04464 0.0
C8 C 0.38425 0.40315 0.03514 0.0
C9 C 0.34151 0.3634 0.03282 0.0
Gd10 Gd 0.16752 0.42779 0.95112 0.0
Gd11 Gd 0.24077 0.41345 0.07563 0.0
N12 N 0.30787 0.48437 0.08783 0.0
C13 C 0.39039 0.56566 0.09968 0.0
C14 C 0.30808 0.52207 0.108 0.0
C15 C 0.34914 0.56346 0.11331 0.0
H16 H 0.2769 0.52013 0.1214 0.0
H17 H 0.34897 0.59349 0.12854 0.0
H18 H 0.13871 0.31949 0.91443 0.0
H19 H 0.26922 0.3346 0.04393 0.0
H20 H 0.0695 0.24407 0.9094 0.0
H21 H 0.42216 0.59776 0.10387 0.0
H22 H 0.46371 0.55711 0.07317 0.0
H23 H 0.1328 0.50033 0.98984 0.0
H24 H 0.41472 0.4014 0.02578 0.0
H25 H 0.3389 0.33106 0.0223 0.0
H26 H 0.94808 0.27214 0.95856 0.0
H27 H 0.46103 0.48582 0.04495 0.0
H28 H 0.98682 0.42539 1.00438 0.0
H29 H 0.06011 0.49824 0.0112 0.0
N30 N 0.10066 0.4295 0.97118 0.0
C31 C 0.06082 0.38911 0.96678 0.0
C32 C 0.10091 0.46838 0.98694 0.0
C33 C 0.01854 0.42613 0.99481 0.0
C34 C 0.05986 0.46732 0.99884 0.0
C35 C 0.01863 0.3863 0.9789 0.0
H36 H 0.94535 0.34104 0.98478 0.0
N37 N 0.10397 0.35362 0.94268 0.0
C38 C 0.06249 0.35008 0.95219 0.0
C39 C 0.02457 0.26891 0.9341 0.0
C40 C 0.02177 0.30747 0.94892 0.0
C41 C 0.1066 0.31644 0.92592 0.0
C42 C 0.06712 0.27353 0.92209 0.0
O43 O 0.28004 0.45312 1.00046 0.0
O44 O 0.23816 0.48525 0.97018 0.0
O45 O 0.17475 0.42162 0.8627 0.0
O46 O 0.15639 0.47079 0.89504 0.0
O47 O 0.20326 0.45268 0.0926 0.0
O48 O 0.19953 0.48642 0.01118 0.0
O49 O 0.13177 0.39364 0.02969 0.0
O50 O 0.17029 0.35687 0.05401 0.0
O51 O 0.2289 0.41813 0.16343 0.0
O52 O 0.24857 0.36939 0.13305 0.0
O53 O 0.2095 0.39415 0.93265 0.0
O54 O 0.21038 0.35756 0.01202 0.0
C55 C 0.27519 0.482 0.96915 0.0
C56 C 0.19747 0.48301 0.06495 0.0
C57 C 0.16211 0.46901 0.79623 0.0
C58 C 0.17369 0.47094 0.69705 0.0
C59 C 0.14404 0.51642 0.73851 0.0
C60 C 0.1464 0.50025 0.78995 0.0
C61 C 0.15754 0.502 0.6925 0.0
C62 C 0.17545 0.45398 0.74933 0.0
C63 C 0.16451 0.45331 0.85207 0.0
C64 C 0.97965 0.30462 0.96065 0.0
C65 C 0.97809 0.3439 0.97555 0.0
H66 H 0.99409 0.23558 0.93114 0.0
C67 C 0.13475 0.36234 0.05796 0.0
C68 C 0.21806 0.36536 0.95925 0.0
C69 C 0.23715 0.36828 0.2309 0.0
C70 C 0.23213 0.37158 0.33062 0.0
C71 C 0.24327 0.31272 0.28817 0.0
C72 C 0.24305 0.33009 0.23675 0.0
C73 C 0.23796 0.33324 0.33469 0.0
C74 C 0.23111 0.3888 0.27823 0.0
C75 C 0.23824 0.38596 0.17512 0.0
H76 H 0.13169 0.54033 0.73427 0.0
H77 H 0.13576 0.5123 0.82493 0.0
H78 H 0.15498 0.51496 0.65298 0.0
H79 H 0.18791 0.4301 0.75349 0.0
H80 H 0.24777 0.28325 0.29201 0.0
H81 H 0.24758 0.31344 0.20143 0.0
H82 H 0.2382 0.31889 0.37418 0.0
H83 H 0.22679 0.41842 0.27451 0.0
C84 C 0.65238 0.11081 0.31065 0.0
C85 C 0.61358 0.15369 0.2935 0.0
C86 C 0.6541 0.15133 0.29556 0.0
C87 C 0.57172 0.11525 0.30815 0.0
C88 C 0.61034 0.0718 0.32403 0.0
C89 C 0.5701 0.07441 0.32332 0.0
N90 N 0.69196 0.10962 0.3123 0.0
C91 C 0.69173 0.06982 0.32271 0.0
C92 C 0.61006 0.0313 0.33745 0.0
C93 C 0.65088 0.03018 0.33611 0.0
Gd94 Gd 0.8397 0.25316 0.42202 0.0
Gd95 Gd 0.75907 0.17819 0.29354 0.0
N96 N 0.69525 0.18808 0.28208 0.0
C97 C 0.61625 0.19445 0.27608 0.0
C98 C 0.69758 0.22697 0.26217 0.0
C99 C 0.65834 0.23101 0.25965 0.0
H100 H 0.72929 0.25475 0.24715 0.0
H101 H 0.66055 0.26221 0.24458 0.0
H102 H 0.87962 0.18614 0.46338 0.0
H103 H 0.72306 0.0686 0.32095 0.0
H104 H 0.95362 0.18719 0.46646 0.0
H105 H 0.58591 0.19767 0.27393 0.0
H106 H 0.5403 0.11657 0.3072 0.0
H107 H 0.86671 0.36264 0.39234 0.0
H108 H 0.57848 0.00058 0.34803 0.0
H109 H 0.65091 0.99884 0.34542 0.0
H110 H 0.06095 0.33271 0.38854 0.0
H111 H 0.5375 0.04491 0.33389 0.0
H112 H 0.00724 0.4362 0.34513 0.0
H113 H 0.93281 0.43266 0.35741 0.0
N114 N 0.90132 0.32423 0.39367 0.0
C115 C 0.9427 0.32654 0.3907 0.0
C116 C 0.89809 0.36248 0.3845 0.0
C117 C 0.97789 0.40473 0.35906 0.0
C118 C 0.93591 0.40282 0.36579 0.0
C119 C 0.98201 0.36674 0.37295 0.0
H120 H 0.05473 0.39865 0.35697 0.0
N121 N 0.90797 0.25121 0.42525 0.0
C122 C 0.94635 0.2894 0.40825 0.0
C123 C 0.9915 0.254 0.42959 0.0
C124 C 0.98911 0.29147 0.40892 0.0
C125 C 0.91027 0.21542 0.44786 0.0
C126 C 0.95198 0.21601 0.44968 0.0
O127 O 0.72566 0.1718 0.37579 0.0
O128 O 0.76957 0.24419 0.41019 0.0
O129 O 0.82496 0.22745 0.5054 0.0
O130 O 0.86352 0.30012 0.49062 0.0
O131 O 0.7957 0.25557 0.28464 0.0
O132 O 0.80807 0.28767 0.37177 0.0
O133 O 0.86702 0.22401 0.35819 0.0
O134 O 0.83147 0.23393 0.28642 0.0
O135 O 0.74339 0.17236 0.20656 0.0
O136 O 0.77634 0.1363 0.24225 0.0
O137 O 0.79595 0.17722 0.43335 0.0
O138 O 0.78919 0.14501 0.34775 0.0
C139 C 0.73122 0.20491 0.4087 0.0
C140 C 0.8034 0.28931 0.31828 0.0
C141 C 0.81929 0.27505 0.57178 0.0
C142 C 0.79895 0.26773 0.66846 0.0
C143 C 0.77448 0.3077 0.60669 0.0
C144 C 0.7959 0.29916 0.56312 0.0
C145 C 0.7763 0.29247 0.65916 0.0
C146 C 0.82008 0.25872 0.62442 0.0
C147 C 0.84435 0.26794 0.52711 0.0
C148 C 0.02793 0.33077 0.38929 0.0
C149 C 0.02436 0.36826 0.37121 0.0
H150 H 0.02372 0.25427 0.43076 0.0
C151 C 0.86497 0.22968 0.30567 0.0
C152 C 0.78756 0.14255 0.40158 0.0
C153 C 0.76297 0.12858 0.14401 0.0
C154 C 0.77592 0.13904 0.04545 0.0
C155 C 0.76829 0.07115 0.08993 0.0
C156 C 0.76253 0.08687 0.14027 0.0
C157 C 0.77529 0.09713 0.04291 0.0
C158 C 0.76896 0.15439 0.09619 0.0
C159 C 0.76156 0.14667 0.19835 0.0
H160 H 0.75678 0.32658 0.5999 0.0
H161 H 0.79471 0.31185 0.5229 0.0
H162 H 0.7597 0.29966 0.69249 0.0
H163 H 0.83804 0.24003 0.63138 0.0
H164 H 0.76792 0.03894 0.08744 0.0
H165 H 0.75819 0.06661 0.17645 0.0
H166 H 0.78009 0.0844 1.00431 0.0
H167 H 0.77024 0.18708 0.09874 0.0
C168 C 0.54512 0.89151 0.72972 0.0
C169 C 0.46283 0.84953 0.7434 0.0
C170 C 0.50486 0.85029 0.73841 0.0
C171 C 0.4616 0.89033 0.7377 0.0
C172 C 0.54405 0.93264 0.72491 0.0
C173 C 0.50206 0.93172 0.72833 0.0
N174 N 0.58539 0.89157 0.72731 0.0
C175 C 0.62584 0.93153 0.72251 0.0
C176 C 0.58537 0.97361 0.7177 0.0
C177 C 0.62648 0.97307 0.71695 0.0
Gd178 Gd 0.57857 0.74008 0.61175 0.0
Gd179 Gd 0.58058 0.82026 0.73696 0.0
N180 N 0.50691 0.81105 0.74246 0.0
C181 C 0.42334 0.80785 0.7547 0.0
C182 C 0.46884 0.77077 0.75574 0.0
C183 C 0.42647 0.76841 0.76143 0.0
H184 H 0.47094 0.74059 0.76334 0.0
H185 H 0.39632 0.73622 0.77147 0.0
H186 H 0.68937 0.81945 0.59279 0.0
H187 H 0.6576 0.93139 0.72537 0.0
H188 H 0.76411 0.82314 0.59231 0.0
H189 H 0.39045 0.80586 0.75904 0.0
H190 H 0.42957 0.8903 0.74102 0.0
H191 H 0.50022 0.63029 0.63526 0.0
H192 H 0.58598 0.0059 0.71389 0.0
H193 H 0.6587 0.0047 0.71301 0.0
H194 H 0.72784 0.66843 0.62603 0.0
H195 H 0.50057 0.96296 0.7246 0.0
H196 H 0.57057 0.55483 0.65182 0.0
H197 H 0.49855 0.5573 0.65219 0.0
N198 N 0.57251 0.66881 0.62697 0.0
C199 C 0.61246 0.66814 0.6255 0.0
C200 C 0.5319 0.62972 0.636 0.0
C201 C 0.57154 0.58698 0.64456 0.0
C202 C 0.53081 0.58826 0.64503 0.0
C203 C 0.61303 0.62717 0.63471 0.0
H204 H 0.65591 0.59659 0.64212 0.0
N205 N 0.65182 0.74839 0.61054 0.0
C206 C 0.6532 0.70894 0.61666 0.0
C207 C 0.7355 0.75114 0.60813 0.0
C208 C 0.69524 0.70946 0.61659 0.0
C209 C 0.69077 0.78881 0.60049 0.0
C210 C 0.7332 0.79089 0.59966 0.0
O211 O 0.54179 0.81855 0.66016 0.0
O212 O 0.51653 0.74734 0.62222 0.0
O213 O 0.59333 0.76235 0.52706 0.0
O214 O 0.54794 0.69094 0.54632 0.0
O215 O 0.54874 0.74377 0.74799 0.0
O216 O 0.51652 0.70751 0.66653 0.0
O217 O 0.61432 0.74165 0.68991 0.0
O218 O 0.64363 0.81376 0.72607 0.0
O219 O 0.56784 0.79496 0.82086 0.0
O220 O 0.60988 0.8673 0.80457 0.0
O221 O 0.61096 0.81624 0.59869 0.0
O222 O 0.64103 0.85598 0.67941 0.0
C223 C 0.51683 0.78625 0.62486 0.0
C224 C 0.51875 0.7079 0.72023 0.0
C225 C 0.53473 0.71863 0.46365 0.0
C226 C 0.52383 0.72993 0.36744 0.0
C227 C 0.45841 0.69197 0.4286 0.0
C228 C 0.48735 0.69758 0.47208 0.0
C229 C 0.47636 0.70787 0.37667 0.0
C230 C 0.55285 0.73512 0.41146 0.0
C231 C 0.56552 0.72168 0.50798 0.0
C232 C 0.69584 0.66864 0.62557 0.0
C233 C 0.65488 0.62767 0.63463 0.0
H234 H 0.76847 0.75295 0.60775 0.0
C235 C 0.6425 0.77431 0.72275 0.0
C236 C 0.63876 0.85383 0.62553 0.0
C237 C 0.62541 0.8395 0.88566 0.0
C238 C 0.63796 0.82946 0.98177 0.0
C239 C 0.70259 0.87158 0.92075 0.0
C240 C 0.67292 0.86444 0.87756 0.0
C241 C 0.68537 0.85411 0.9724 0.0
C242 C 0.60803 0.82169 0.93783 0.0
C243 C 0.59383 0.83543 0.84162 0.0
H244 H 0.42184 0.67462 0.43498 0.0
H245 H 0.47263 0.68486 0.51201 0.0
H246 H 0.45292 0.70226 0.34355 0.0
H247 H 0.58952 0.75187 0.40527 0.0
H248 H 0.73915 0.89144 0.91444 0.0
H249 H 0.68715 0.87928 0.83814 0.0
H250 H 0.7092 0.86032 1.00529 0.0
H251 H 0.57139 0.80358 0.94468 0.0
C252 C 0.90423 0.56472 0.98732 0.0
C253 C 0.86941 0.48242 0.97646 0.0
C254 C 0.86572 0.52223 0.97771 0.0
C255 C 0.91211 0.4858 0.98529 0.0
C256 C 0.94717 0.56821 0.9959 0.0
C257 C 0.95084 0.52853 0.99502 0.0
N258 N 0.89975 0.6026 0.98805 0.0
C259 C 0.93692 0.64502 0.99495 0.0
C260 C 0.98523 0.61155 1.00484 0.0
C261 C 0.98011 0.65015 1.00396 0.0
Gd262 Gd 0.74097 0.5802 0.09826 0.0
Gd263 Gd 0.82579 0.59002 0.97355 0.0
N264 N 0.82447 0.51979 0.97084 0.0
C265 C 0.83004 0.44037 0.96632 0.0
C266 C 0.78637 0.47916 0.95905 0.0
C267 C 0.78846 0.43882 0.95712 0.0
H268 H 0.75434 0.47761 0.95126 0.0
H269 H 0.75798 0.40654 0.94851 0.0
H270 H 0.82244 0.68781 0.13532 0.0
H271 H 0.93334 0.67496 0.99174 0.0
H272 H 0.83031 0.76366 0.14312 0.0
H273 H 0.83146 0.40901 0.96501 0.0
H274 H 0.91558 0.45556 0.98458 0.0
H275 H 0.63036 0.50837 0.07437 0.0
H276 H 0.01879 0.61565 0.01167 0.0
H277 H 0.00947 0.68388 0.00959 0.0
H278 H 0.67977 0.73821 0.10786 0.0
H279 H 0.98354 0.53054 1.00159 0.0
H280 H 0.56081 0.58517 0.07048 0.0
H281 H 0.55928 0.51136 0.06174 0.0
N282 N 0.67163 0.57955 0.08819 0.0
C283 C 0.67313 0.62025 0.09433 0.0
C284 C 0.63145 0.54073 0.07697 0.0
C285 C 0.59208 0.58399 0.07574 0.0
C286 C 0.5911 0.54231 0.07053 0.0
C287 C 0.63337 0.62364 0.08782 0.0
H288 H 0.60604 0.66972 0.0877 0.0
N289 N 0.75276 0.65468 0.11064 0.0
C290 C 0.71484 0.65893 0.10572 0.0
C291 C 0.75985 0.74002 0.12361 0.0
C292 C 0.71757 0.70187 0.1112 0.0
C293 C 0.7934 0.69139 0.12594 0.0
C294 C 0.79776 0.73461 0.13172 0.0
O295 O 0.82364 0.55062 0.04997 0.0
O296 O 0.74952 0.52012 0.07817 0.0
O297 O 0.75984 0.58552 0.18514 0.0
O298 O 0.69014 0.53796 0.15764 0.0
O299 O 0.74964 0.55191 0.95723 0.0
O300 O 0.70793 0.52194 0.03734 0.0
O301 O 0.73955 0.61631 0.02128 0.0
O302 O 0.8129 0.64891 0.98719 0.0
O303 O 0.80355 0.57978 0.88832 0.0
O304 O 0.87513 0.62116 0.90838 0.0
O305 O 0.81742 0.61367 0.11196 0.0
O306 O 0.85358 0.64955 0.03173 0.0
C307 C 0.78895 0.52192 0.08011 0.0
C308 C 0.71216 0.52276 0.98354 0.0
C309 C 0.70337 0.53675 0.25439 0.0
C310 C 0.7167 0.53886 0.35264 0.0
C311 C 0.64684 0.47765 0.31354 0.0
C312 C 0.6611 0.49652 0.26176 0.0
C313 C 0.67449 0.49848 0.35867 0.0
C314 C 0.73112 0.55824 0.30029 0.0
C315 C 0.71848 0.55395 0.19834 0.0
C316 C 0.67815 0.70542 0.10431 0.0
C317 C 0.63614 0.6664 0.09288 0.0
H318 H 0.76336 0.77357 0.12817 0.0
C319 C 0.77228 0.64541 0.98885 0.0
C320 C 0.85386 0.64394 0.0849 0.0
C321 C 0.85145 0.63789 0.82478 0.0
C322 C 0.84434 0.65039 0.72777 0.0
C323 C 0.89082 0.71477 0.78715 0.0
C324 C 0.88019 0.68524 0.83151 0.0
C325 C 0.87316 0.69757 0.73562 0.0
C326 C 0.83309 0.62064 0.7728 0.0
C327 C 0.84482 0.6059 0.86969 0.0
H328 H 0.61432 0.44655 0.31867 0.0
H329 H 0.63916 0.47912 0.22732 0.0
H330 H 0.66274 0.48321 0.39861 0.0
H331 H 0.76391 0.58916 0.29535 0.0
H332 H 0.91317 0.75117 0.79264 0.0
H333 H 0.8951 0.69944 0.87086 0.0
H334 H 0.88212 0.72118 0.70174 0.0
H335 H 0.81182 0.58405 0.76693 0.0
C336 C 0.10282 0.67725 0.38212 0.0
C337 C 0.12828 0.62378 0.40549 0.0
C338 C 0.1368 0.6689 0.39957 0.0
C339 C 0.08535 0.58708 0.39073 0.0
C340 C 0.05878 0.64055 0.37056 0.0
C341 C 0.05061 0.59546 0.37333 0.0
N342 N 0.11182 0.72118 0.38108 0.0
C343 C 0.07713 0.73045 0.37445 0.0
C344 C 0.02388 0.65025 0.35914 0.0
C345 C 0.03292 0.69535 0.36234 0.0
Gd346 Gd 0.26694 0.84741 0.2641 0.0
Gd347 Gd 0.18793 0.77835 0.39802 0.0
N348 N 0.17754 0.70514 0.41402 0.0
C349 C 0.16262 0.61701 0.42789 0.0
C350 C 0.20979 0.69877 0.43973 0.0
C351 C 0.20327 0.65468 0.44601 0.0
H352 H 0.24087 0.72795 0.45422 0.0
H353 H 0.22949 0.64978 0.46489 0.0
H354 H 0.18266 0.86367 0.2096 0.0
H355 H 0.08349 0.76501 0.37862 0.0
H356 H 0.16586 0.92606 0.20105 0.0
H357 H 0.1575 0.58287 0.43305 0.0
H358 H 0.07819 0.55211 0.39436 0.0
H359 H 0.37476 0.89533 0.30425 0.0
H360 H 0.9895 0.62307 0.35023 0.0
H361 H 0.0058 0.70312 0.35625 0.0
H362 H 0.30208 0.05845 0.26378 0.0
H363 H 0.01714 0.5668 0.36398 0.0
H364 H 0.42889 0.04012 0.31603 0.0
H365 H 0.43925 0.97274 0.32476 0.0
N366 N 0.32899 0.91917 0.28466 0.0
C367 C 0.32296 0.9557 0.27752 0.0
C368 C 0.37022 0.92472 0.3003 0.0
C369 C 0.40074 0.00637 0.30656 0.0
C370 C 0.40669 0.9684 0.31175 0.0
C371 C 0.35847 0.00032 0.2894 0.0
H372 H 0.3769 0.07154 0.29485 0.0
N373 N 0.24721 0.90448 0.24825 0.0
C374 C 0.28053 0.94803 0.26013 0.0
C375 C 0.2306 0.97685 0.23404 0.0
C376 C 0.27285 0.98523 0.25406 0.0
C377 C 0.20724 0.89682 0.22497 0.0
C378 C 0.19797 0.93258 0.21863 0.0
O379 O 0.2118 0.74016 0.34249 0.0
O380 O 0.21593 0.77223 0.25812 0.0
O381 O 0.27715 0.86353 0.17731 0.0
O382 O 0.31816 0.84028 0.21905 0.0
O383 O 0.26479 0.81044 0.40631 0.0
O384 O 0.29789 0.81644 0.32014 0.0
O385 O 0.27872 0.88215 0.34566 0.0
O386 O 0.20468 0.84807 0.36997 0.0
O387 O 0.21641 0.80047 0.47974 0.0
O388 O 0.1454 0.7777 0.46443 0.0
O389 O 0.19021 0.80399 0.25184 0.0
O390 O 0.15986 0.8074 0.33494 0.0
C391 C 0.2119 0.73855 0.28884 0.0
C392 C 0.29726 0.81278 0.37396 0.0
C393 C 0.30153 0.81961 0.12572 0.0
C394 C 0.27835 0.79431 0.03151 0.0
C395 C 0.31705 0.76309 0.08502 0.0
C396 C 0.31926 0.78982 0.12942 0.0
C397 C 0.29666 0.76508 0.03656 0.0
C398 C 0.28125 0.8219 0.07629 0.0
C399 C 0.30705 0.85012 0.17214 0.0
C400 C 0.30767 0.02961 0.26742 0.0
C401 C 0.3504 0.03714 0.28485 0.0
H402 H 0.22336 0.0045 0.22877 0.0
C403 C 0.24642 0.88171 0.37542 0.0
C404 C 0.15526 0.79734 0.2826 0.0
C405 C 0.16371 0.76248 0.55151 0.0
C406 C 0.16679 0.75826 0.65058 0.0
C407 C 0.11424 0.69112 0.59862 0.0
C408 C 0.1299 0.716 0.55023 0.0
C409 C 0.13224 0.71217 0.64859 0.0
C410 C 0.18273 0.78337 0.60183 0.0
C411 C 0.17708 0.78993 0.50113 0.0
H412 H 0.33172 0.74106 0.08798 0.0
H413 H 0.33565 0.78763 0.16637 0.0
H414 H 0.29612 0.74433 1.00252 0.0
H415 H 0.26776 0.84497 0.07266 0.0
H416 H 0.08785 0.65548 0.59741 0.0
H417 H 0.115 0.69913 0.51192 0.0
H418 H 0.11967 0.6923 0.68579 0.0
H419 H 0.20898 0.81915 0.60317 0.0
C420 C 0.44357 0.34334 0.64682 0.0
C421 C 0.52582 0.3891 0.63404 0.0
C422 C 0.48547 0.34615 0.6361 0.0
C423 C 0.52354 0.42907 0.64272 0.0
C424 C 0.44123 0.38342 0.65566 0.0
C425 C 0.48141 0.42624 0.65353 0.0
N426 N 0.40529 0.30141 0.64971 0.0
C427 C 0.36351 0.29713 0.65918 0.0
C428 C 0.39855 0.37923 0.66668 0.0
C429 C 0.35951 0.3359 0.6681 0.0
Gd430 Gd 0.42752 0.16631 0.76357 0.0
Gd431 Gd 0.41601 0.23885 0.63535 0.0
N432 N 0.48695 0.3067 0.63028 0.0
C433 C 0.56735 0.39055 0.62385 0.0
C434 C 0.52708 0.30798 0.61863 0.0
C435 C 0.5679 0.34985 0.61572 0.0
H436 H 0.52786 0.27694 0.61152 0.0
H437 H 0.59978 0.3507 0.60712 0.0
H438 H 0.3213 0.14334 0.80415 0.0
H439 H 0.33316 0.26378 0.65865 0.0
H440 H 0.24499 0.07665 0.81449 0.0
H441 H 0.59911 0.42289 0.62192 0.0
H442 H 0.55422 0.46237 0.64142 0.0
H443 H 0.49668 0.12491 0.73593 0.0
H444 H 0.39533 0.40919 0.67375 0.0
H445 H 0.32629 0.33234 0.67564 0.0
H446 H 0.26633 0.94888 0.77903 0.0
H447 H 0.4803 0.45741 0.66031 0.0
H448 H 0.41726 0.97873 0.73599 0.0
H449 H 0.49155 0.04978 0.72382 0.0
N450 N 0.42622 0.09666 0.75408 0.0
C451 C 0.38523 0.05815 0.76181 0.0
C452 C 0.46413 0.09411 0.74077 0.0
C453 C 0.4194 0.01161 0.74142 0.0
C454 C 0.46136 0.05163 0.73431 0.0
C455 C 0.38064 0.0145 0.75524 0.0
H456 H 0.3333 0.94147 0.75626 0.0
N457 N 0.3527 0.1051 0.77878 0.0
C458 C 0.34735 0.06245 0.77415 0.0
C459 C 0.26679 0.02836 0.79454 0.0
C460 C 0.30409 0.02299 0.78101 0.0
C461 C 0.31684 0.11028 0.79508 0.0
C462 C 0.27335 0.07218 0.80229 0.0
O463 O 0.4552 0.27812 0.71045 0.0
O464 O 0.48511 0.23449 0.73826 0.0
O465 O 0.42491 0.1811 0.85052 0.0
O466 O 0.47289 0.16017 0.82047 0.0
O467 O 0.45349 0.19998 0.62004 0.0
O468 O 0.48427 0.18997 0.70056 0.0
O469 O 0.39182 0.12744 0.68783 0.0
O470 O 0.35849 0.16691 0.65193 0.0
O471 O 0.427 0.22917 0.5496 0.0
O472 O 0.38024 0.25282 0.57183 0.0
O473 O 0.39413 0.20944 0.77624 0.0
O474 O 0.35786 0.20758 0.69556 0.0
C475 C 0.48272 0.27172 0.74216 0.0
C476 C 0.48174 0.19051 0.64661 0.0
C477 C 0.47698 0.17647 0.91704 0.0
C478 C 0.47638 0.18789 0.01542 0.0
C479 C 0.53953 0.18398 0.97343 0.0
C480 C 0.51903 0.1777 0.92246 0.0
C481 C 0.51852 0.18926 0.01961 0.0
C482 C 0.45541 0.18122 0.96393 0.0
C483 C 0.45775 0.17273 0.86195 0.0
C484 C 0.29938 0.97949 0.77436 0.0
C485 C 0.33754 0.97525 0.76156 0.0
H486 H 0.23303 0.99892 0.8002 0.0
C487 C 0.36301 0.13038 0.65442 0.0
C488 C 0.36486 0.21634 0.74812 0.0
C489 C 0.36704 0.21435 0.48694 0.0
C490 C 0.35705 0.19494 0.38984 0.0
C491 C 0.29089 0.17366 0.4477 0.0
C492 C 0.31935 0.1935 0.49265 0.0
C493 C 0.30952 0.17443 0.39662 0.0
C494 C 0.38573 0.21442 0.43542 0.0
C495 C 0.39773 0.2408 0.53224 0.0
H496 H 0.57198 0.18501 0.97712 0.0
H497 H 0.53653 0.17447 0.88711 0.0
H498 H 0.53502 0.19403 0.05889 0.0
H499 H 0.42307 0.18055 0.96039 0.0
H500 H 0.25422 0.15796 0.45237 0.0
H501 H 0.30402 0.19325 0.53161 0.0
H502 H 0.28674 0.15908 0.36223 0.0
H503 H 0.42254 0.23143 0.43028 0.0
C504 C 0.36284 0.26535 0.82227 0.0
C505 C 0.3412 0.23676 0.77753 0.0
C506 C 0.34174 0.28539 0.85154 0.0
C507 C 0.29768 0.27638 0.83594 0.0
C508 C 0.27559 0.24756 0.79069 0.0
C509 C 0.29764 0.22794 0.762 0.0
C510 C 0.36655 0.31586 0.89948 0.0
C511 C 0.22875 0.23753 0.77266 0.0
C512 C 0.22883 0.29795 0.94286 0.0
C513 C 0.23686 0.34133 0.9275 0.0
C514 C 0.24777 0.27594 0.91282 0.0
C515 C 0.27532 0.29796 0.86653 0.0
C516 C 0.28319 0.34165 0.85076 0.0
C517 C 0.26364 0.36263 0.88124 0.0
C518 C 0.23881 0.22942 0.93093 0.0
C519 C 0.31281 0.36657 0.80213 0.0
H520 H 0.39672 0.27252 0.8342 0.0
H521 H 0.28074 0.20552 0.7277 0.0
H522 H 0.36691 0.34884 0.89633 0.0
H523 H 0.34828 0.2989 0.93766 0.0
H524 H 0.40238 0.3231 0.90276 0.0
H525 H 0.21598 0.21393 0.73719 0.0
H526 H 0.20406 0.22209 0.80683 0.0
H527 H 0.22973 0.26985 0.76134 0.0
H528 H 0.20775 0.28127 0.9783 0.0
H529 H 0.27011 0.39631 0.86938 0.0
H530 H 0.27148 0.23136 0.94262 0.0
H531 H 0.22417 0.20469 0.89676 0.0
H532 H 0.21499 0.21604 0.96624 0.0
H533 H 0.34737 0.37077 0.80712 0.0
H534 H 0.3165 0.40091 0.79623 0.0
H535 H 0.29775 0.34614 0.76463 0.0
C536 C 0.07076 0.29006 0.09499 0.0
C537 C 0.0999 0.33725 0.09938 0.0
C538 C 0.03327 0.26728 0.13049 0.0
C539 C 0.02542 0.29261 0.17098 0.0
C540 C 0.05637 0.34001 0.17687 0.0
C541 C 0.09316 0.36173 0.14071 0.0
C542 C 0.0008 0.21679 0.12281 0.0
C543 C 0.0495 0.36822 0.21971 0.0
C544 C 0.90584 0.25835 0.21729 0.0
C545 C 0.90455 0.24116 0.26984 0.0
C546 C 0.94425 0.27318 0.18377 0.0
C547 C 0.98257 0.27112 0.2034 0.0
C548 C 0.98084 0.25196 0.25538 0.0
C549 C 0.94145 0.23658 0.28775 0.0
C550 C 0.94449 0.29289 0.12824 0.0
C551 C 0.02116 0.24935 0.2776 0.0
H552 H 0.07608 0.27148 0.06237 0.0
H553 H 0.11637 0.39814 0.14404 0.0
H554 H 0.99343 0.19862 0.16253 0.0
H555 H 0.96786 0.21146 0.10644 0.0
H556 H 0.01459 0.20115 0.0941 0.0
H557 H 0.07863 0.40386 0.22154 0.0
H558 H 0.01788 0.3694 0.21078 0.0
H559 H 0.04513 0.35221 0.26042 0.0
H560 H 0.8772 0.2614 0.20259 0.0
H561 H 0.93987 0.22166 0.32734 0.0
H562 H 0.95458 0.27635 0.09626 0.0
H563 H 0.97003 0.32996 0.12766 0.0
H564 H 0.91059 0.28854 0.11737 0.0
H565 H 0.03409 0.23445 0.24681 0.0
H566 H 0.01247 0.22863 0.31556 0.0
H567 H 0.04941 0.28435 0.28677 0.0
C568 C 0.79198 0.07501 0.43508 0.0
C569 C 0.76714 0.09764 0.42827 0.0
C570 C 0.77435 0.03508 0.4671 0.0
C571 C 0.73073 0.0174 0.49195 0.0
C572 C 0.70525 0.03987 0.4838 0.0
C573 C 0.72415 0.08009 0.45275 0.0
C574 C 0.80266 0.01232 0.47523 0.0
C575 C 0.65833 0.02191 0.50856 0.0
C576 C 0.66023 0.89317 0.53476 0.0
C577 C 0.66639 0.89558 0.59173 0.0
C578 C 0.68264 0.93216 0.50168 0.0
C579 C 0.71118 0.97517 0.52599 0.0
C580 C 0.71878 0.97791 0.58311 0.0
C581 C 0.69731 0.93786 0.61504 0.0
C582 C 0.67444 0.92743 0.44081 0.0
C583 C 0.74834 0.02334 0.61072 0.0
H584 H 0.82571 0.08939 0.41695 0.0
H585 H 0.70539 0.09816 0.44781 0.0
H586 H 0.81054 0.01247 0.51921 0.0
H587 H 0.78308 0.97605 0.46216 0.0
H588 H 0.83535 0.02969 0.45211 0.0
H589 H 0.6429 0.04324 0.49765 0.0
H590 H 0.63512 0.98644 0.49445 0.0
H591 H 0.66043 0.0208 0.55368 0.0
H592 H 0.63718 0.86078 0.51559 0.0
H593 H 0.70448 0.93994 0.65819 0.0
H594 H 0.70748 0.9441 0.41849 0.0
H595 H 0.65544 0.94494 0.42849 0.0
H596 H 0.65453 0.8911 0.42778 0.0
H597 H 0.75163 0.01964 0.65529 0.0
H598 H 0.73342 0.04579 0.6045 0.0
H599 H 0.78295 0.04087 0.59216 0.0
C600 C 0.70361 0.79593 0.79449 0.0
C601 C 0.6709 0.76341 0.7592 0.0
C602 C 0.72709 0.78346 0.83204 0.0
C603 C 0.71793 0.73768 0.83365 0.0
C604 C 0.68724 0.7056 0.79571 0.0
C605 C 0.66362 0.71859 0.75986 0.0
C606 C 0.76063 0.81876 0.87102 0.0
C607 C 0.67806 0.65694 0.79419 0.0
C608 C 0.79074 0.69846 0.90884 0.0
C609 C 0.76215 0.67468 0.95291 0.0
C610 C 0.77822 0.72149 0.87082 0.0
C611 C 0.73658 0.72152 0.87785 0.0
C612 C 0.70923 0.70034 0.92435 0.0
C613 C 0.72186 0.67648 0.96053 0.0
C614 C 0.80844 0.74303 0.8217 0.0
C615 C 0.66522 0.70074 0.93436 0.0
H616 H 0.71032 0.8308 0.79342 0.0
H617 H 0.63832 0.69279 0.73338 0.0
H618 H 0.74505 0.81233 0.91233 0.0
H619 H 0.79211 0.81628 0.87415 0.0
H620 H 0.77036 0.85402 0.85815 0.0
H621 H 0.65615 0.63735 0.75917 0.0
H622 H 0.71079 0.65675 0.79139 0.0
H623 H 0.66076 0.63898 0.83244 0.0
H624 H 0.82195 0.69746 0.9026 0.0
H625 H 0.69918 0.6581 0.99385 0.0
H626 H 0.80307 0.76963 0.80221 0.0
H627 H 0.80103 0.71599 0.79105 0.0
H628 H 0.84497 0.75876 0.83337 0.0
H629 H 0.67109 0.73606 0.93063 0.0
H630 H 0.65059 0.68719 0.97532 0.0
H631 H 0.63956 0.67947 0.90316 0.0
C632 C 0.09755 0.7419 0.21862 0.0
C633 C 0.10998 0.77723 0.25639 0.0
C634 C 0.05522 0.72189 0.19216 0.0
C635 C 0.02464 0.7381 0.20321 0.0
C636 C 0.03693 0.77387 0.24153 0.0
C637 C 0.07955 0.79297 0.26796 0.0
C638 C 0.04325 0.68327 0.15247 0.0
C639 C 0.00518 0.79202 0.2543 0.0
C640 C 0.93371 0.7107 0.09513 0.0
C641 C 0.89671 0.67074 0.11634 0.0
C642 C 0.97539 0.73365 0.12351 0.0
C643 C 0.97966 0.71689 0.17492 0.0
C644 C 0.94169 0.67784 0.1976 0.0
C645 C 0.90075 0.65543 0.16819 0.0
C646 C 0.01527 0.77499 0.09777 0.0
C647 C 0.94444 0.65909 0.25254 0.0
H648 H 0.12082 0.7294 0.2103 0.0
H649 H 0.08934 0.82048 0.29709 0.0
H650 H 0.01126 0.65234 0.16552 0.0
H651 H 0.03703 0.69292 0.11142 0.0
H652 H 0.0707 0.67433 0.14908 0.0
H653 H 0.02001 0.82026 0.28457 0.0
H654 H 0.99727 0.8047 0.21639 0.0
H655 H 0.97235 0.76412 0.27056 0.0
H656 H 0.93031 0.72379 0.05611 0.0
H657 H 0.8721 0.6252 0.18563 0.0
H658 H 0.0431 0.76745 0.08896 0.0
H659 H 0.02917 0.8043 0.12646 0.0
H660 H 0.00571 0.78524 0.05909 0.0
H661 H 0.97346 0.65242 0.25333 0.0
H662 H 0.9126 0.6269 0.26299 0.0
H663 H 0.95062 0.68473 0.28454 0.0
C664 C 0.31093 0.09427 0.57427 0.0
C665 C 0.33603 0.09106 0.61782 0.0
C666 C 0.29039 0.05899 0.53558 0.0
C667 C 0.29479 0.01959 0.54117 0.0
C668 C 0.31747 0.01491 0.58698 0.0
C669 C 0.33827 0.05088 0.62419 0.0
C670 C 0.26671 0.06561 0.48722 0.0
C671 C 0.322 0.97294 0.59523 0.0
C672 C 0.225 0.9135 0.45522 0.0
C673 C 0.25781 0.91726 0.4172 0.0
C674 C 0.23621 0.94697 0.49556 0.0
C675 C 0.28072 0.98559 0.49657 0.0
C676 C 0.31342 0.99021 0.45719 0.0
C677 C 0.30192 0.95535 0.41908 0.0
C678 C 0.20084 0.94071 0.53764 0.0
C679 C 0.36087 0.03163 0.45584 0.0
H680 H 0.30886 0.12503 0.56908 0.0
H681 H 0.35769 0.04788 0.65721 0.0
H682 H 0.2925 0.08459 0.455 0.0
H683 H 0.24012 0.03275 0.46964 0.0
H684 H 0.25045 0.08599 0.49889 0.0
H685 H 0.33583 0.9723 0.63614 0.0
H686 H 0.28832 0.94142 0.59034 0.0
H687 H 0.34532 0.97211 0.56386 0.0
H688 H 0.19087 0.884 0.4542 0.0
H689 H 0.32777 0.95798 0.39096 0.0
H690 H 0.19561 0.97066 0.53725 0.0
H691 H 0.21317 0.93873 0.57898 0.0
H692 H 0.16746 0.90924 0.53049 0.0
H693 H 0.35867 0.06337 0.45497 0.0
H694 H 0.3809 0.03164 0.41981 0.0
H695 H 0.37978 0.03263 0.49329 0.0
C696 C 0.21579 0.49089 0.60811 0.0
C697 C 0.18827 0.45726 0.64632 0.0
C698 C 0.22454 0.4792 0.55629 0.0
C699 C 0.20562 0.43258 0.5421 0.0
C700 C 0.17928 0.39835 0.58124 0.0
C701 C 0.17102 0.4111 0.63302 0.0
C702 C 0.2529 0.51682 0.51611 0.0
C703 C 0.15867 0.34826 0.56774 0.0
C704 C 0.19071 0.39964 0.39104 0.0
C705 C 0.22786 0.39276 0.38202 0.0
C706 C 0.18327 0.41314 0.44277 0.0
C707 C 0.21368 0.41984 0.48637 0.0
C708 C 0.25216 0.41462 0.47666 0.0
C709 C 0.25878 0.4013 0.42475 0.0
C710 C 0.14188 0.41848 0.45121 0.0
C711 C 0.2858 0.42194 0.52152 0.0
H712 H 0.22968 0.52666 0.6184 0.0
H713 H 0.1495 0.38494 0.66218 0.0
H714 H 0.2822 0.51342 0.50158 0.0
H715 H 0.23189 0.51386 0.47988 0.0
H716 H 0.26628 0.55142 0.53404 0.0
H717 H 0.14046 0.32588 0.60313 0.0
H718 H 0.13415 0.3393 0.53352 0.0
H719 H 0.18573 0.34096 0.55407 0.0
H720 H 0.16645 0.39265 0.35837 0.0
H721 H 0.28781 0.39645 0.41779 0.0
H722 H 0.1509 0.45004 0.47454 0.0
H723 H 0.11592 0.38906 0.4753 0.0
H724 H 0.12628 0.41976 0.41187 0.0
H725 H 0.2998 0.4567 0.53903 0.0
H726 H 0.3147 0.41783 0.50685 0.0
H727 H 0.26813 0.39711 0.55502 0.0
C728 C 0.7527 0.17802 0.97574 0.0
C729 C 0.78458 0.16619 0.99465 0.0
C730 C 0.75721 0.19727 0.92352 0.0
C731 C 0.79488 0.20548 0.88999 0.0
C732 C 0.82849 0.19597 0.91036 0.0
C733 C 0.82277 0.17619 0.96227 0.0
C734 C 0.72054 0.20676 0.90321 0.0
C735 C 0.86971 0.20522 0.8766 0.0
C736 C 0.78053 0.2051 0.73575 0.0
C737 C 0.80059 0.25187 0.72438 0.0
C738 C 0.7784 0.18955 0.78952 0.0
C739 C 0.79784 0.22168 0.83263 0.0
C740 C 0.81959 0.26906 0.82086 0.0
C741 C 0.82018 0.28355 0.76693 0.0
C742 C 0.75441 0.13873 0.80037 0.0
C743 C 0.84177 0.30442 0.86529 0.0
H744 H 0.7231 0.17014 1.00069 0.0
H745 H 0.8477 0.16748 0.9772 0.0
H746 H 0.736 0.24267 0.88899 0.0
H747 H 0.70288 0.18444 0.86773 0.0
H748 H 0.69469 0.20065 0.93515 0.0
H749 H 0.89385 0.19804 0.89946 0.0
H750 H 0.8586 0.18366 0.83937 0.0
H751 H 0.8882 0.24143 0.86305 0.0
H752 H 0.7652 0.18067 0.70276 0.0
H753 H 0.83595 0.31976 0.75787 0.0
H754 H 0.72547 0.12907 0.82899 0.0
H755 H 0.77824 0.12948 0.82015 0.0
H756 H 0.741 0.11827 0.76244 0.0
H757 H 0.81559 0.30095 0.8953 0.0
H758 H 0.85926 0.33987 0.84893 0.0
H759 H 0.86715 0.29885 0.88767 0.0
C760 C 0.52355 0.7665 0.27843 0.0
C761 C 0.54247 0.74632 0.31165 0.0
C762 C 0.53845 0.77943 0.2245 0.0
C763 C 0.5737 0.77272 0.20333 0.0
C764 C 0.59389 0.75353 0.23703 0.0
C765 C 0.57788 0.74034 0.29068 0.0
C766 C 0.5162 0.8 0.19005 0.0
C767 C 0.63166 0.74594 0.21603 0.0
C768 C 0.58489 0.76998 0.04878 0.0
C769 C 0.62044 0.81453 0.03812 0.0
C770 C 0.56957 0.75564 0.10249 0.0
C771 C 0.59002 0.78678 0.14629 0.0
C772 C 0.62562 0.83186 0.13556 0.0
C773 C 0.64031 0.84515 0.0817 0.0
C774 C 0.53166 0.70719 0.11242 0.0
C775 C 0.6484 0.86607 0.18104 0.0
H776 H 0.4969 0.77217 0.29464 0.0
H777 H 0.5924 0.72432 0.31575 0.0
H778 H 0.54223 0.83472 0.17625 0.0
H779 H 0.50104 0.77892 0.15298 0.0
H780 H 0.48891 0.80252 0.2125 0.0
H781 H 0.64711 0.7354 0.24893 0.0
H782 H 0.61764 0.71876 0.18453 0.0
H783 H 0.659 0.77744 0.19644 0.0
H784 H 0.56965 0.74614 0.01524 0.0
H785 H 0.66733 0.87984 0.07355 0.0
H786 H 0.50237 0.7074 0.13275 0.0
H787 H 0.54374 0.68951 0.14026 0.0
H788 H 0.51941 0.68717 0.07404 0.0
H789 H 0.62269 0.87133 0.20317 0.0
H790 H 0.67581 0.89971 0.16581 0.0
H791 H 0.66351 0.85272 0.21098 0.0
C792 C 0.78158 0.60373 0.66121 0.0
C793 C 0.82815 0.63275 0.6719 0.0
C794 C 0.76604 0.5897 0.60758 0.0
C795 C 0.79794 0.60466 0.56389 0.0
C796 C 0.84509 0.63295 0.57483 0.0
C797 C 0.85957 0.64681 0.62863 0.0
C798 C 0.71545 0.55961 0.59748 0.0
C799 C 0.88024 0.64888 0.52967 0.0
C800 C 0.75765 0.53383 0.43426 0.0
C801 C 0.74463 0.55969 0.402 0.0
C802 C 0.77656 0.54886 0.48626 0.0
C803 C 0.78195 0.59049 0.50679 0.0
C804 C 0.77053 0.61767 0.47338 0.0
C805 C 0.75224 0.60203 0.42106 0.0
C806 C 0.78889 0.51918 0.5201 0.0
C807 C 0.7754 0.66205 0.49399 0.0
H808 H 0.75724 0.59305 0.69458 0.0
H809 H 0.89567 0.66879 0.63698 0.0
H810 H 0.70306 0.57799 0.57127 0.0
H811 H 0.70875 0.52821 0.5753 0.0
H812 H 0.69533 0.5494 0.63599 0.0
H813 H 0.9157 0.66974 0.54524 0.0
H814 H 0.87753 0.61899 0.50741 0.0
H815 H 0.87371 0.66963 0.49975 0.0
H816 H 0.75157 0.501 0.41935 0.0
H817 H 0.74158 0.62166 0.39627 0.0
H818 H 0.76586 0.5058 0.55604 0.0
H819 H 0.82433 0.5396 0.53568 0.0
H820 H 0.78601 0.48972 0.49656 0.0
H821 H 0.75118 0.65488 0.52823 0.0
H822 H 0.76833 0.68079 0.46169 0.0
H823 H 0.81037 0.68453 0.51001 0.0
C824 C 0.23096 0.79004 0.71718 0.0
C825 C 0.18627 0.77894 0.70404 0.0
C826 C 0.24655 0.79987 0.77131 0.0
C827 C 0.21684 0.79925 0.81275 0.0
C828 C 0.17312 0.79212 0.79848 0.0
C829 C 0.1581 0.7814 0.7443 0.0
C830 C 0.29329 0.80694 0.78475 0.0
C831 C 0.14089 0.79246 0.84101 0.0
C832 C 0.22987 0.75557 0.95016 0.0
C833 C 0.25772 0.79621 0.97862 0.0
C834 C 0.21556 0.75626 0.89673 0.0
C835 C 0.22861 0.79871 0.87121 0.0
C836 C 0.25425 0.83986 0.90084 0.0
C837 C 0.26875 0.83816 0.95424 0.0
C838 C 0.18804 0.71147 0.86684 0.0
C839 C 0.2679 0.88566 0.87541 0.0
H840 H 0.25254 0.78789 0.68586 0.0
H841 H 0.12357 0.77297 0.73377 0.0
H842 H 0.31232 0.83736 0.81118 0.0
H843 H 0.28949 0.77686 0.8077 0.0
H844 H 0.31393 0.81137 0.74749 0.0
H845 H 0.11215 0.79475 0.82223 0.0
H846 H 0.12638 0.76051 0.86538 0.0
H847 H 0.15931 0.82156 0.86952 0.0
H848 H 0.22031 0.72302 0.96929 0.0
H849 H 0.2903 0.86974 0.97594 0.0
H850 H 0.20721 0.71078 0.83035 0.0
H851 H 0.15533 0.70798 0.85235 0.0
H852 H 0.18024 0.68146 0.89285 0.0
H853 H 0.29422 0.8935 0.84361 0.0
H854 H 0.28212 0.91371 0.90594 0.0
H855 H 0.23815 0.88489 0.85515 0.0
C856 C 0.36212 0.21497 0.29106 0.0
C857 C 0.37612 0.19775 0.33444 0.0
C858 C 0.37739 0.21565 0.23761 0.0
C859 C 0.40698 0.19813 0.22712 0.0
C860 C 0.42181 0.18125 0.27094 0.0
C861 C 0.40649 0.18164 0.32428 0.0
C862 C 0.36142 0.23463 0.19226 0.0
C863 C 0.45332 0.1622 0.26132 0.0
C864 C 0.41283 0.15778 0.08373 0.0
C865 C 0.45511 0.19325 0.06563 0.0
C866 C 0.39623 0.15926 0.13593 0.0
C867 C 0.42237 0.19741 0.17026 0.0
C868 C 0.46393 0.23439 0.15075 0.0
C869 C 0.47996 0.23167 0.09882 0.0
C870 C 0.35221 0.11874 0.15548 0.0
C871 C 0.4923 0.27616 0.18538 0.0
H872 H 0.33905 0.22794 0.29905 0.0
H873 H 0.41718 0.16817 0.35781 0.0
H874 H 0.39127 0.26209 0.17024 0.0
H875 H 0.34122 0.20731 0.16222 0.0
H876 H 0.33998 0.24873 0.20761 0.0
H877 H 0.46024 0.14875 0.29934 0.0
H878 H 0.43811 0.13422 0.2308 0.0
H879 H 0.48634 0.18921 0.24435 0.0
H880 H 0.39393 0.12785 0.05822 0.0
H881 H 0.51263 0.25914 0.08454 0.0
H882 H 0.32997 0.12995 0.17555 0.0
H883 H 0.36034 0.09975 0.1862 0.0
H884 H 0.33286 0.09496 0.1217 0.0
H885 H 0.47091 0.29022 0.20088 0.0
H886 H 0.52172 0.30345 0.16246 0.0
H887 H 0.50565 0.2666 0.22136 0.0
C888 C 0.23032 0.56383 0.09351 0.0
C889 C 0.19482 0.5185 0.09668 0.0
C890 C 0.23153 0.59705 0.12888 0.0
C891 C 0.19507 0.58504 0.16611 0.0
C892 C 0.15801 0.53957 0.16753 0.0
C893 C 0.15877 0.50659 0.13333 0.0
C894 C 0.27213 0.64484 0.12701 0.0
C895 C 0.11748 0.52588 0.2047 0.0
C896 C 0.217 0.66689 0.28413 0.0
C897 C 0.20364 0.69633 0.26085 0.0
C898 C 0.21346 0.6296 0.25431 0.0
C899 C 0.19476 0.62097 0.20092 0.0
C900 C 0.1789 0.64918 0.17873 0.0
C901 C 0.18457 0.68702 0.20839 0.0
C902 C 0.23193 0.60101 0.27871 0.0
C903 C 0.15748 0.64056 0.1227 0.0
H904 H 0.25819 0.57277 0.06505 0.0
H905 H 0.13088 0.47164 0.1347 0.0
H906 H 0.26064 0.66937 0.11621 0.0
H907 H 0.28825 0.65458 0.16792 0.0
H908 H 0.29832 0.64828 0.09689 0.0
H909 H 0.09086 0.4894 0.19964 0.0
H910 H 0.12872 0.53165 0.24791 0.0
H911 H 0.10194 0.54749 0.19624 0.0
H912 H 0.23227 0.6743 0.32441 0.0
H913 H 0.17461 0.7098 0.1898 0.0
H914 H 0.26212 0.60615 0.25483 0.0
H915 H 0.20604 0.56415 0.27642 0.0
H916 H 0.24232 0.61004 0.322 0.0
H917 H 0.18419 0.64957 0.09106 0.0
H918 H 0.14062 0.66114 0.11519 0.0
H919 H 0.13176 0.60384 0.11758 0.0
C920 C 0.65467 0.15531 0.45186 0.0
C921 C 0.69308 0.1987 0.44402 0.0
C922 C 0.61895 0.14932 0.48652 0.0
C923 C 0.62153 0.18779 0.51311 0.0
C924 C 0.66009 0.23168 0.50499 0.0
C925 C 0.69543 0.23654 0.47074 0.0
C926 C 0.57857 0.10192 0.49469 0.0
C927 C 0.66375 0.27373 0.53177 0.0
C928 C 0.51375 0.18745 0.55578 0.0
C929 C 0.51555 0.18541 0.61297 0.0
C930 C 0.54736 0.18698 0.52277 0.0
C931 C 0.58308 0.18301 0.5473 0.0
C932 C 0.58407 0.17864 0.6047 0.0
C933 C 0.5507 0.18071 0.63699 0.0
C934 C 0.54581 0.19306 0.4618 0.0
C935 C 0.62121 0.1733 0.63206 0.0
H936 H 0.65259 0.12592 0.43134 0.0
H937 H 0.72473 0.27027 0.46437 0.0
H938 H 0.5736 0.09347 0.53886 0.0
H939 H 0.54696 0.10058 0.47961 0.0
H940 H 0.58286 0.07538 0.47302 0.0
H941 H 0.69551 0.3055 0.51993 0.0
H942 H 0.63395 0.27744 0.52041 0.0
H943 H 0.66331 0.2702 0.57681 0.0
H944 H 0.48679 0.19093 0.53647 0.0
H945 H 0.55298 0.17978 0.68098 0.0
H946 H 0.54733 0.16522 0.43961 0.0
H947 H 0.57604 0.22577 0.44905 0.0
H948 H 0.51447 0.19349 0.44894 0.0
H949 H 0.62537 0.14632 0.61141 0.0
H950 H 0.61386 0.16439 0.67598 0.0
H951 H 0.65431 0.2057 0.62868 0.0
C952 C 0.31756 0.55439 0.91654 0.0
C953 C 0.31266 0.51229 0.93231 0.0
C954 C 0.35187 0.58294 0.87983 0.0
C955 C 0.3812 0.56843 0.85733 0.0
C956 C 0.37605 0.52564 0.87268 0.0
C957 C 0.34224 0.49835 0.91081 0.0
C958 C 0.35703 0.62888 0.86562 0.0
C959 C 0.40597 0.50857 0.84861 0.0
C960 C 0.44392 0.63451 0.73014 0.0
C961 C 0.48561 0.66778 0.75244 0.0
C962 C 0.41028 0.60011 0.76332 0.0
C963 C 0.4186 0.59943 0.81993 0.0
C964 C 0.46149 0.63154 0.84194 0.0
C965 C 0.49449 0.66506 0.80788 0.0
C966 C 0.36507 0.56589 0.73841 0.0
C967 C 0.47165 0.63232 0.90213 0.0
H968 H 0.29483 0.56529 0.93344 0.0
H969 H 0.33817 0.46556 0.92272 0.0
H970 H 0.39178 0.65661 0.87676 0.0
H971 H 0.35312 0.63123 0.82098 0.0
H972 H 0.33152 0.63504 0.88693 0.0
H973 H 0.3957 0.47334 0.8624 0.0
H974 H 0.40435 0.50881 0.80338 0.0
H975 H 0.4421 0.53167 0.86036 0.0
H976 H 0.4368 0.63643 0.68739 0.0
H977 H 0.52689 0.69022 0.82537 0.0
H978 H 0.33797 0.57287 0.75281 0.0
H979 H 0.35525 0.53069 0.75159 0.0
H980 H 0.36602 0.56733 0.69309 0.0
H981 H 0.44924 0.64137 0.92583 0.0
H982 H 0.50781 0.65744 0.91197 0.0
H983 H 0.46424 0.59801 0.91605 0.0
C984 C 0.84093 0.35305 0.25256 0.0
C985 C 0.80795 0.33088 0.29322 0.0
C986 C 0.84117 0.38769 0.22075 0.0
C987 C 0.80672 0.39938 0.22895 0.0
C988 C 0.77428 0.37811 0.2715 0.0
C989 C 0.77561 0.3443 0.30369 0.0
C990 C 0.87681 0.41 0.17649 0.0
C991 C 0.73663 0.38916 0.28091 0.0
C992 C 0.82224 0.5082 0.16297 0.0
C993 C 0.7945 0.4908 0.11685 0.0
C994 C 0.82606 0.47883 0.20044 0.0
C995 C 0.80259 0.43116 0.19034 0.0
C996 C 0.77529 0.41366 0.14283 0.0
C997 C 0.77094 0.44376 0.10705 0.0
C998 C 0.85464 0.49872 0.25109 0.0
C999 C 0.75071 0.36319 0.12984 0.0
H1000 H 0.86577 0.34226 0.24466 0.0
H1001 H 0.74969 0.32635 0.33464 0.0
H1002 H 0.86021 0.39986 0.13588 0.0
H1003 H 0.89343 0.44778 0.17925 0.0
H1004 H 0.90364 0.40016 0.17891 0.0
H1005 H 0.71664 0.37267 0.31846 0.0
H1006 H 0.75104 0.42668 0.28409 0.0
H1007 H 0.71294 0.37716 0.24559 0.0
H1008 H 0.84002 0.5447 0.17035 0.0
H1009 H 0.74945 0.43062 0.0712 0.0
H1010 H 0.88163 0.48915 0.25313 0.0
H1011 H 0.83286 0.48437 0.28791 0.0
H1012 H 0.87111 0.5366 0.25245 0.0
H1013 H 0.77564 0.35092 0.1272 0.0
H1014 H 0.73163 0.35531 0.09072 0.0
H1015 H 0.72631 0.34368 0.16307 0.0
C1016 C 0.33276 0.77008 0.41226 0.0
C1017 C 0.33557 0.81201 0.40109 0.0
C1018 C 0.36426 0.76754 0.44731 0.0
C1019 C 0.40017 0.80817 0.47033 0.0
C1020 C 0.4044 0.85095 0.45669 0.0
C1021 C 0.37148 0.85226 0.42282 0.0
C1022 C 0.3575 0.72114 0.46204 0.0
C1023 C 0.44252 0.89508 0.47958 0.0
C1024 C 0.44978 0.79569 0.60423 0.0
C1025 C 0.48819 0.79404 0.5862 0.0
C1026 C 0.42121 0.80113 0.56707 0.0
C1027 C 0.43181 0.80544 0.51057 0.0
C1028 C 0.47146 0.80496 0.49247 0.0
C1029 C 0.49903 0.79892 0.53059 0.0
C1030 C 0.37906 0.80097 0.58814 0.0
C1031 C 0.48455 0.8105 0.43287 0.0
H1032 H 0.30467 0.73902 0.39548 0.0
H1033 H 0.37303 0.88459 0.41458 0.0
H1034 H 0.39026 0.72121 0.45919 0.0
H1035 H 0.34555 0.71303 0.50497 0.0
H1036 H 0.33193 0.69365 0.4354 0.0
H1037 H 0.44396 0.92556 0.46022 0.0
H1038 H 0.43746 0.89648 0.52415 0.0
H1039 H 0.47596 0.89684 0.47369 0.0
H1040 H 0.44133 0.79133 0.64713 0.0
H1041 H 0.5292 0.79811 0.517 0.0
H1042 H 0.34804 0.77136 0.57086 0.0
H1043 H 0.37905 0.83236 0.57475 0.0
H1044 H 0.37665 0.79894 0.63341 0.0
H1045 H 0.45655 0.78313 0.40858 0.0
H1046 H 0.51642 0.80929 0.42554 0.0
H1047 H 0.48955 0.84365 0.41761 0.0
C1048 C 0.68202 0.48343 0.89418 0.0
C1049 C 0.67481 0.48668 0.95013 0.0
C1050 C 0.64893 0.44827 0.862 0.0
C1051 C 0.60666 0.41628 0.88565 0.0
C1052 C 0.59823 0.42005 0.9415 0.0
C1053 C 0.63288 0.45451 0.97342 0.0
C1054 C 0.65978 0.44472 0.80292 0.0
C1055 C 0.55296 0.38725 0.96772 0.0
C1056 C 0.51174 0.34886 0.78408 0.0
C1057 C 0.51306 0.30805 0.78041 0.0
C1058 C 0.54102 0.38391 0.81951 0.0
C1059 C 0.57228 0.37792 0.85204 0.0
C1060 C 0.57285 0.33629 0.84963 0.0
C1061 C 0.54321 0.30185 0.81384 0.0
C1062 C 0.539 0.42759 0.82147 0.0
C1063 C 0.6057 0.32857 0.88363 0.0
H1064 H 0.71425 0.50764 0.87545 0.0
H1065 H 0.6271 0.4557 0.0166 0.0
H1066 H 0.65796 0.41137 0.79582 0.0
H1067 H 0.63414 0.44605 0.77588 0.0
H1068 H 0.69432 0.4725 0.79076 0.0
H1069 H 0.5495 0.39862 1.00913 0.0
H1070 H 0.52424 0.38356 0.94207 0.0
H1071 H 0.5496 0.35293 0.97121 0.0
H1072 H 0.48803 0.35365 0.75902 0.0
H1073 H 0.54406 0.27019 0.81171 0.0
H1074 H 0.57164 0.45648 0.80621 0.0
H1075 H 0.53461 0.43557 0.86424 0.0
H1076 H 0.51062 0.42556 0.79641 0.0
H1077 H 0.64137 0.35337 0.87146 0.0
H1078 H 0.60014 0.2934 0.87899 0.0
H1079 H 0.60207 0.33451 0.92741 0.0
loop_
_geom_bond_atom_site_label_1
_geom_bond_atom_site_label_2
_geom_bond_distance
_geom_bond_site_symmetry_2
_ccdc_geom_bond_type
C0 C2 1.422 . S
C0 C4 1.415 . S
C0 N6 1.369 . S
C1 C2 1.421 . S
C1 C3 1.417 . S
C1 C13 1.422 . S
C2 C0 1.422 . S
C2 C1 1.421 . S
C2 N12 1.359 . S
C3 C1 1.417 . S
C3 C5 1.329 . S
C3 H22 0.930 . S
C4 C0 1.415 . S
C4 C5 1.437 . S
C4 C8 1.413 . S
C5 C3 1.329 . S
C5 C4 1.437 . S
C5 H27 0.929 . S
N6 C0 1.369 . S
N6 C7 1.338 . S
N6 Gd11 2.622 . S
C7 N6 1.338 . S
C7 C9 1.378 . S
C7 H19 0.929 . S
C8 C4 1.413 . S
C8 C9 1.348 . S
C8 H24 0.931 . S
C9 C7 1.378 . S
C9 C8 1.348 . S
C9 H25 0.930 . S
Gd10 N30 2.622 . S
Gd10 N37 2.570 . S
Gd10 O44 2.353 . S
Gd10 O45 2.468 . S
Gd10 O46 2.427 . S
Gd10 O48 2.399 . S
Gd10 O49 2.386 1_556 S
Gd10 O53 2.307 . S
Gd10 C63 2.805 . S
Gd11 N6 2.622 . S
Gd11 N12 2.570 . S
Gd11 O43 2.386 1_554 S
Gd11 O47 2.307 . S
Gd11 O50 2.353 . S
Gd11 O51 2.468 . S
Gd11 O52 2.427 . S
Gd11 O54 2.388 . S
Gd11 C75 2.805 . S
N12 C2 1.359 . S
N12 Gd11 2.570 . S
N12 C14 1.343 . S
C13 C1 1.422 . S
C13 C15 1.321 . S
C13 H21 0.931 . S
C14 N12 1.343 . S
C14 C15 1.390 . S
C14 H16 0.931 . S
C15 C13 1.321 . S
C15 C14 1.390 . S
C15 H17 0.930 . S
H16 C14 0.931 . S
H17 C15 0.930 . S
H18 C41 0.931 . S
H19 C7 0.929 . S
H20 C42 0.930 . S
H21 C13 0.931 . S
H22 C3 0.930 . S
H23 C32 0.929 . S
H24 C8 0.931 . S
H25 C9 0.930 . S
H26 C64 0.930 . S
H27 C5 0.929 . S
H28 C33 0.931 1_655 S
H29 C34 0.930 . S
N30 Gd10 2.622 . S
N30 C31 1.369 . S
N30 C32 1.338 . S
C31 N30 1.369 . S
C31 C35 1.415 . S
C31 C38 1.422 . S
C32 H23 0.929 . S
C32 N30 1.338 . S
C32 C34 1.378 . S
C33 H28 0.931 1_455 S
C33 C34 1.348 . S
C33 C35 1.413 . S
C34 H29 0.930 . S
C34 C32 1.378 . S
C34 C33 1.348 . S
C35 C31 1.415 . S
C35 C33 1.413 . S
C35 C65 1.437 1_455 S
H36 C65 0.929 . S
N37 Gd10 2.570 . S
N37 C38 1.359 . S
N37 C41 1.343 . S
C38 C31 1.422 . S
C38 N37 1.359 . S
C38 C40 1.421 . S
C39 C40 1.422 . S
C39 C42 1.321 . S
C39 H66 0.931 1_455 S
C40 C38 1.421 . S
C40 C39 1.422 . S
C40 C64 1.417 1_455 S
C41 H18 0.931 . S
C41 N37 1.343 . S
C41 C42 1.390 . S
C42 H20 0.930 . S
C42 C39 1.321 . S
C42 C41 1.390 . S
O43 Gd11 2.386 1_556 S
O43 C55 1.265 . S
O44 Gd10 2.353 . S
O44 C55 1.242 . S
O45 Gd10 2.468 . S
O45 C63 1.263 . S
O46 Gd10 2.427 . S
O46 C63 1.252 . S
O47 Gd11 2.307 . S
O47 C56 1.261 . S
O48 Gd10 2.399 . S
O48 C56 1.234 1_556 S
O49 Gd10 2.386 1_554 S
O49 C67 1.265 . S
O50 Gd11 2.353 . S
O50 C67 1.242 . S
O51 Gd11 2.468 . S
O51 C75 1.263 . S
O52 Gd11 2.427 . S
O52 C75 1.252 . S
O53 Gd10 2.307 . S
O53 C68 1.261 . S
O54 Gd11 2.388 . S
O54 C68 1.252 1_554 S
C55 O43 1.265 . S
C55 O44 1.242 . S
C56 O47 1.261 . S
C56 O48 1.234 1_554 S
C57 C60 1.394 . S
C57 C62 1.370 . S
C57 C63 1.500 . S
C58 C61 1.383 . S
C58 C62 1.395 . S
C59 C60 1.396 . S
C59 C61 1.365 . S
C59 H76 0.929 . S
C60 C57 1.394 . S
C60 C59 1.396 . S
C60 H77 0.930 . S
C61 C58 1.383 . S
C61 C59 1.365 . S
C61 H78 0.931 . S
C62 C57 1.370 . S
C62 C58 1.395 . S
C62 H79 0.930 . S
C63 Gd10 2.805 . S
C63 O45 1.263 . S
C63 O46 1.252 . S
C63 C57 1.500 . S
C64 H26 0.930 . S
C64 C40 1.417 1_655 S
C64 C65 1.329 . S
C65 C35 1.437 1_655 S
C65 H36 0.929 . S
C65 C64 1.329 . S
H66 C39 0.931 1_655 S
C67 O49 1.265 . S
C67 O50 1.242 . S
C68 O53 1.261 . S
C68 O54 1.252 1_556 S
C69 C72 1.394 . S
C69 C74 1.370 . S
C69 C75 1.500 . S
C70 C73 1.383 . S
C70 C74 1.395 . S
C71 C72 1.396 . S
C71 C73 1.365 . S
C71 H80 0.929 . S
C72 C69 1.394 . S
C72 C71 1.396 . S
C72 H81 0.930 . S
C73 C70 1.383 . S
C73 C71 1.365 . S
C73 H82 0.931 . S
C74 C69 1.370 . S
C74 C70 1.395 . S
C74 H83 0.930 . S
C75 Gd11 2.805 . S
C75 O51 1.263 . S
C75 O52 1.252 . S
C75 C69 1.500 . S
H76 C59 0.929 . S
H77 C60 0.930 . S
H78 C61 0.931 . S
H79 C62 0.930 . S
H80 C71 0.929 . S
H81 C72 0.930 . S
H82 C73 0.931 . S
H83 C74 0.930 . S
C84 C86 1.422 . S
C84 C88 1.415 . S
C84 N90 1.369 . S
C85 C86 1.421 . S
C85 C87 1.417 . S
C85 C97 1.422 . S
C86 C84 1.422 . S
C86 C85 1.421 . S
C86 N96 1.359 . S
C87 C85 1.417 . S
C87 C89 1.329 . S
C87 H106 0.930 . S
C88 C84 1.415 . S
C88 C89 1.437 . S
C88 C92 1.413 . S
C89 C87 1.329 . S
C89 C88 1.437 . S
C89 H111 0.929 . S
N90 C84 1.369 . S
N90 C91 1.338 . S
N90 Gd95 2.622 . S
C91 N90 1.338 . S
C91 C93 1.378 . S
C91 H103 0.929 . S
C92 C88 1.413 . S
C92 C93 1.348 . S
C92 H108 0.931 1_545 S
C93 C91 1.378 . S
C93 C92 1.348 . S
C93 H109 0.930 1_545 S
Gd94 N114 2.622 . S
Gd94 N121 2.570 . S
Gd94 O128 2.353 . S
Gd94 O129 2.468 . S
Gd94 O130 2.427 . S
Gd94 O132 2.388 . S
Gd94 O133 2.386 . S
Gd94 O137 2.307 . S
Gd94 C147 2.805 . S
Gd95 N90 2.622 . S
Gd95 N96 2.570 . S
Gd95 O127 2.386 . S
Gd95 O131 2.307 . S
Gd95 O134 2.353 . S
Gd95 O135 2.468 . S
Gd95 O136 2.427 . S
Gd95 O138 2.388 . S
Gd95 C159 2.805 . S
N96 C86 1.359 . S
N96 Gd95 2.570 . S
N96 C98 1.343 . S
C97 C85 1.422 . S
C97 C99 1.321 . S
C97 H105 0.931 . S
C98 N96 1.343 . S
C98 C99 1.390 . S
C98 H100 0.931 . S
C99 C97 1.321 . S
C99 C98 1.390 . S
C99 H101 0.930 . S
H100 C98 0.931 . S
H101 C99 0.930 . S
H102 C125 0.931 . S
H103 C91 0.929 . S
H104 C126 0.930 . S
H105 C97 0.931 . S
H106 C87 0.930 . S
H107 C116 0.929 . S
H108 C92 0.931 1_565 S
H109 C93 0.930 1_565 S
H110 C148 0.930 . S
H111 C89 0.929 . S
H112 C117 0.931 1_455 S
H113 C118 0.930 . S
N114 Gd94 2.622 . S
N114 C115 1.369 . S
N114 C116 1.338 . S
C115 N114 1.369 . S
C115 C119 1.415 . S
C115 C122 1.422 . S
C116 H107 0.929 . S
C116 N114 1.338 . S
C116 C118 1.378 . S
C117 H112 0.931 1_655 S
C117 C118 1.348 . S
C117 C119 1.413 . S
C118 H113 0.930 . S
C118 C116 1.378 . S
C118 C117 1.348 . S
C119 C115 1.415 . S
C119 C117 1.413 . S
C119 C149 1.437 1_655 S
H120 C149 0.929 . S
N121 Gd94 2.570 . S
N121 C122 1.359 . S
N121 C125 1.343 . S
C122 C115 1.422 . S
C122 N121 1.359 . S
C122 C124 1.421 . S
C123 C124 1.422 . S
C123 C126 1.321 . S
C123 H150 0.931 1_655 S
C124 C122 1.421 . S
C124 C123 1.422 . S
C124 C148 1.417 1_655 S
C125 H102 0.931 . S
C125 N121 1.343 . S
C125 C126 1.390 . S
C126 H104 0.930 . S
C126 C123 1.321 . S
C126 C125 1.390 . S
O127 Gd95 2.386 . S
O127 C139 1.265 . S
O128 Gd94 2.353 . S
O128 C139 1.242 . S
O129 Gd94 2.468 . S
O129 C147 1.263 . S
O130 Gd94 2.427 . S
O130 C147 1.252 . S
O131 Gd95 2.307 . S
O131 C140 1.261 . S
O132 Gd94 2.388 . S
O132 C140 1.252 . S
O133 Gd94 2.386 . S
O133 C151 1.265 . S
O134 Gd95 2.353 . S
O134 C151 1.242 . S
O135 Gd95 2.468 . S
O135 C159 1.263 . S
O136 Gd95 2.427 . S
O136 C159 1.252 . S
O137 Gd94 2.307 . S
O137 C152 1.261 . S
O138 Gd95 2.388 . S
O138 C152 1.252 . S
C139 O127 1.265 . S
C139 O128 1.242 . S
C140 O131 1.261 . S
C140 O132 1.252 . S
C141 C144 1.394 . S
C141 C146 1.370 . S
C141 C147 1.500 . S
C142 C145 1.383 . S
C142 C146 1.395 . S
C143 C144 1.396 . S
C143 C145 1.365 . S
C143 H160 0.929 . S
C144 C141 1.394 . S
C144 C143 1.396 . S
C144 H161 0.930 . S
C145 C142 1.383 . S
C145 C143 1.365 . S
C145 H162 0.931 . S
C146 C141 1.370 . S
C146 C142 1.395 . S
C146 H163 0.930 . S
C147 Gd94 2.805 . S
C147 O129 1.263 . S
C147 O130 1.252 . S
C147 C141 1.500 . S
C148 H110 0.930 . S
C148 C124 1.417 1_455 S
C148 C149 1.329 . S
C149 C119 1.437 1_455 S
C149 H120 0.929 . S
C149 C148 1.329 . S
H150 C123 0.931 1_455 S
C151 O133 1.265 . S
C151 O134 1.242 . S
C152 O137 1.261 . S
C152 O138 1.252 . S
C153 C156 1.394 . S
C153 C158 1.370 . S
C153 C159 1.500 . S
C154 C157 1.383 . S
C154 C158 1.395 . S
C155 C156 1.396 . S
C155 C157 1.365 . S
C155 H164 0.929 . S
C156 C153 1.394 . S
C156 C155 1.396 . S
C156 H165 0.930 . S
C157 C154 1.383 . S
C157 C155 1.365 . S
C157 H166 0.931 1_554 S
C158 C153 1.370 . S
C158 C154 1.395 . S
C158 H167 0.930 . S
C159 Gd95 2.805 . S
C159 O135 1.263 . S
C159 O136 1.252 . S
C159 C153 1.500 . S
H160 C143 0.929 . S
H161 C144 0.930 . S
H162 C145 0.931 . S
H163 C146 0.930 . S
H164 C155 0.929 . S
H165 C156 0.930 . S
H166 C157 0.931 1_556 S
H167 C158 0.930 . S
C168 C170 1.422 . S
C168 C172 1.415 . S
C168 N174 1.369 . S
C169 C170 1.421 . S
C169 C171 1.417 . S
C169 C181 1.422 . S
C170 C168 1.422 . S
C170 C169 1.421 . S
C170 N180 1.359 . S
C171 C169 1.417 . S
C171 C173 1.329 . S
C171 H190 0.930 . S
C172 C168 1.415 . S
C172 C173 1.437 . S
C172 C176 1.413 . S
C173 C171 1.329 . S
C173 C172 1.437 . S
C173 H195 0.929 . S
N174 C168 1.369 . S
N174 C175 1.338 . S
N174 Gd179 2.622 . S
C175 N174 1.338 . S
C175 C177 1.378 . S
C175 H187 0.929 . S
C176 C172 1.413 . S
C176 C177 1.348 . S
C176 H192 0.931 1_565 S
C177 C175 1.378 . S
C177 C176 1.348 . S
C177 H193 0.930 1_565 S
Gd178 N198 2.622 . S
Gd178 N205 2.570 . S
Gd178 O212 2.353 . S
Gd178 O213 2.468 . S
Gd178 O214 2.427 . S
Gd178 O216 2.388 . S
Gd178 O217 2.386 . S
Gd178 O221 2.307 . S
Gd178 C231 2.805 . S
Gd179 N174 2.622 . S
Gd179 N180 2.570 . S
Gd179 O211 2.386 . S
Gd179 O215 2.307 . S
Gd179 O218 2.353 . S
Gd179 O219 2.468 . S
Gd179 O220 2.427 . S
Gd179 O222 2.388 . S
Gd179 C243 2.805 . S
N180 C170 1.359 . S
N180 Gd179 2.570 . S
N180 C182 1.343 . S
C181 C169 1.422 . S
C181 C183 1.321 . S
C181 H189 0.931 . S
C182 N180 1.343 . S
C182 C183 1.390 . S
C182 H184 0.931 . S
C183 C181 1.321 . S
C183 C182 1.390 . S
C183 H185 0.930 . S
H184 C182 0.931 . S
H185 C183 0.930 . S
H186 C209 0.931 . S
H187 C175 0.929 . S
H188 C210 0.930 . S
H189 C181 0.931 . S
H190 C171 0.930 . S
H191 C200 0.929 . S
H192 C176 0.931 1_545 S
H193 C177 0.930 1_545 S
H194 C232 0.930 . S
H195 C173 0.929 . S
H196 C201 0.931 . S
H197 C202 0.930 . S
N198 Gd178 2.622 . S
N198 C199 1.369 . S
N198 C200 1.338 . S
C199 N198 1.369 . S
C199 C203 1.415 . S
C199 C206 1.422 . S
C200 H191 0.929 . S
C200 N198 1.338 . S
C200 C202 1.378 . S
C201 H196 0.931 . S
C201 C202 1.348 . S
C201 C203 1.413 . S
C202 H197 0.930 . S
C202 C200 1.378 . S
C202 C201 1.348 . S
C203 C199 1.415 . S
C203 C201 1.413 . S
C203 C233 1.437 . S
H204 C233 0.929 . S
N205 Gd178 2.570 . S
N205 C206 1.359 . S
N205 C209 1.343 . S
C206 C199 1.422 . S
C206 N205 1.359 . S
C206 C208 1.421 . S
C207 C208 1.422 . S
C207 C210 1.321 . S
C207 H234 0.931 . S
C208 C206 1.421 . S
C208 C207 1.422 . S
C208 C232 1.417 . S
C209 H186 0.931 . S
C209 N205 1.343 . S
C209 C210 1.390 . S
C210 H188 0.930 . S
C210 C207 1.321 . S
C210 C209 1.390 . S
O211 Gd179 2.386 . S
O211 C223 1.265 . S
O212 Gd178 2.353 . S
O212 C223 1.242 . S
O213 Gd178 2.468 . S
O213 C231 1.263 . S
O214 Gd178 2.427 . S
O214 C231 1.252 . S
O215 Gd179 2.307 . S
O215 C224 1.261 . S
O216 Gd178 2.388 . S
O216 C224 1.252 . S
O217 Gd178 2.386 . S
O217 C235 1.265 . S
O218 Gd179 2.353 . S
O218 C235 1.242 . S
O219 Gd179 2.468 . S
O219 C243 1.263 . S
O220 Gd179 2.427 . S
O220 C243 1.252 . S
O221 Gd178 2.307 . S
O221 C236 1.261 . S
O222 Gd179 2.388 . S
O222 C236 1.252 . S
C223 O211 1.265 . S
C223 O212 1.242 . S
C224 O215 1.261 . S
C224 O216 1.252 . S
C225 C228 1.394 . S
C225 C230 1.370 . S
C225 C231 1.500 . S
C226 C229 1.383 . S
C226 C230 1.395 . S
C227 C228 1.396 . S
C227 C229 1.365 . S
C227 H244 0.929 . S
C228 C225 1.394 . S
C228 C227 1.396 . S
C228 H245 0.930 . S
C229 C226 1.383 . S
C229 C227 1.365 . S
C229 H246 0.931 . S
C230 C225 1.370 . S
C230 C226 1.395 . S
C230 H247 0.930 . S
C231 Gd178 2.805 . S
C231 O213 1.263 . S
C231 O214 1.252 . S
C231 C225 1.500 . S
C232 H194 0.930 . S
C232 C208 1.417 . S
C232 C233 1.329 . S
C233 C203 1.437 . S
C233 H204 0.929 . S
C233 C232 1.329 . S
H234 C207 0.931 . S
C235 O217 1.265 . S
C235 O218 1.242 . S
C236 O221 1.261 . S
C236 O222 1.252 . S
C237 C240 1.394 . S
C237 C242 1.370 . S
C237 C243 1.500 . S
C238 C241 1.383 1_556 S
C238 C242 1.395 . S
C239 C240 1.396 . S
C239 C241 1.365 1_556 S
C239 H248 0.929 . S
C240 C237 1.394 . S
C240 C239 1.396 . S
C240 H249 0.930 . S
C241 C238 1.383 1_554 S
C241 C239 1.365 1_554 S
C241 H250 0.931 . S
C242 C237 1.370 . S
C242 C238 1.395 . S
C242 H251 0.930 . S
C243 Gd179 2.805 . S
C243 O219 1.263 . S
C243 O220 1.252 . S
C243 C237 1.500 . S
H244 C227 0.929 . S
H245 C228 0.930 . S
H246 C229 0.931 . S
H247 C230 0.930 . S
H248 C239 0.929 . S
H249 C240 0.930 . S
H250 C241 0.931 . S
H251 C242 0.930 . S
C252 C254 1.422 . S
C252 C256 1.415 . S
C252 N258 1.369 . S
C253 C254 1.421 . S
C253 C255 1.417 . S
C253 C265 1.422 . S
C254 C252 1.422 . S
C254 C253 1.421 . S
C254 N264 1.359 . S
C255 C253 1.417 . S
C255 C257 1.329 . S
C255 H274 0.930 . S
C256 C252 1.415 . S
C256 C257 1.437 . S
C256 C260 1.413 . S
C257 C255 1.329 . S
C257 C256 1.437 . S
C257 H279 0.929 . S
N258 C252 1.369 . S
N258 C259 1.338 . S
N258 Gd263 2.622 . S
C259 N258 1.338 . S
C259 C261 1.378 . S
C259 H271 0.929 . S
C260 C256 1.413 . S
C260 C261 1.348 . S
C260 H276 0.931 1_655 S
C261 C259 1.378 . S
C261 C260 1.348 . S
C261 H277 0.930 1_655 S
Gd262 N282 2.622 . S
Gd262 N289 2.570 . S
Gd262 O296 2.353 . S
Gd262 O297 2.468 . S
Gd262 O298 2.427 . S
Gd262 O300 2.388 . S
Gd262 O301 2.386 . S
Gd262 O305 2.307 . S
Gd262 C315 2.805 . S
Gd263 N258 2.622 . S
Gd263 N264 2.570 . S
Gd263 O295 2.386 1_556 S
Gd263 O299 2.307 . S
Gd263 O302 2.353 . S
Gd263 O303 2.468 . S
Gd263 O304 2.427 . S
Gd263 O306 2.388 1_556 S
Gd263 C327 2.805 . S
N264 C254 1.359 . S
N264 Gd263 2.570 . S
N264 C266 1.343 . S
C265 C253 1.422 . S
C265 C267 1.321 . S
C265 H273 0.931 . S
C266 N264 1.343 . S
C266 C267 1.390 . S
C266 H268 0.931 . S
C267 C265 1.321 . S
C267 C266 1.390 . S
C267 H269 0.930 . S
H268 C266 0.931 . S
H269 C267 0.930 . S
H270 C293 0.931 . S
H271 C259 0.929 . S
H272 C294 0.930 . S
H273 C265 0.931 . S
H274 C255 0.930 . S
H275 C284 0.929 . S
H276 C260 0.931 1_455 S
H277 C261 0.930 1_455 S
H278 C316 0.930 . S
H279 C257 0.929 . S
H280 C285 0.931 . S
H281 C286 0.930 . S
N282 Gd262 2.622 . S
N282 C283 1.369 . S
N282 C284 1.338 . S
C283 N282 1.369 . S
C283 C287 1.415 . S
C283 C290 1.422 . S
C284 H275 0.929 . S
C284 N282 1.338 . S
C284 C286 1.378 . S
C285 H280 0.931 . S
C285 C286 1.348 . S
C285 C287 1.413 . S
C286 H281 0.930 . S
C286 C284 1.378 . S
C286 C285 1.348 . S
C287 C283 1.415 . S
C287 C285 1.413 . S
C287 C317 1.437 . S
H288 C317 0.929 . S
N289 Gd262 2.570 . S
N289 C290 1.359 . S
N289 C293 1.343 . S
C290 C283 1.422 . S
C290 N289 1.359 . S
C290 C292 1.421 . S
C291 C292 1.422 . S
C291 C294 1.321 . S
C291 H318 0.931 . S
C292 C290 1.421 . S
C292 C291 1.422 . S
C292 C316 1.417 . S
C293 H270 0.931 . S
C293 N289 1.343 . S
C293 C294 1.390 . S
C294 H272 0.930 . S
C294 C291 1.321 . S
C294 C293 1.390 . S
O295 Gd263 2.386 1_554 S
O295 C307 1.265 . S
O296 Gd262 2.353 . S
O296 C307 1.242 . S
O297 Gd262 2.468 . S
O297 C315 1.263 . S
O298 Gd262 2.427 . S
O298 C315 1.252 . S
O299 Gd263 2.307 . S
O299 C308 1.261 . S
O300 Gd262 2.388 . S
O300 C308 1.252 1_554 S
O301 Gd262 2.386 . S
O301 C319 1.265 1_554 S
O302 Gd263 2.353 . S
O302 C319 1.242 . S
O303 Gd263 2.468 . S
O303 C327 1.263 . S
O304 Gd263 2.427 . S
O304 C327 1.252 . S
O305 Gd262 2.307 . S
O305 C320 1.261 . S
O306 Gd263 2.388 1_554 S
O306 C320 1.252 . S
C307 O295 1.265 . S
C307 O296 1.242 . S
C308 O299 1.261 . S
C308 O300 1.252 1_556 S
C309 C312 1.394 . S
C309 C314 1.370 . S
C309 C315 1.500 . S
C310 C313 1.383 . S
C310 C314 1.395 . S
C311 C312 1.396 . S
C311 C313 1.365 . S
C311 H328 0.929 . S
C312 C309 1.394 . S
C312 C311 1.396 . S
C312 H329 0.930 . S
C313 C310 1.383 . S
C313 C311 1.365 . S
C313 H330 0.931 . S
C314 C309 1.370 . S
C314 C310 1.395 . S
C314 H331 0.930 . S
C315 Gd262 2.805 . S
C315 O297 1.263 . S
C315 O298 1.252 . S
C315 C309 1.500 . S
C316 H278 0.930 . S
C316 C292 1.417 . S
C316 C317 1.329 . S
C317 C287 1.437 . S
C317 H288 0.929 . S
C317 C316 1.329 . S
H318 C291 0.931 . S
C319 O301 1.265 1_556 S
C319 O302 1.242 . S
C320 O305 1.261 . S
C320 O306 1.252 . S
C321 C324 1.394 . S
C321 C326 1.370 . S
C321 C327 1.500 . S
C322 C325 1.383 . S
C322 C326 1.395 . S
C323 C324 1.396 . S
C323 C325 1.365 . S
C323 H332 0.929 . S
C324 C321 1.394 . S
C324 C323 1.396 . S
C324 H333 0.930 . S
C325 C322 1.383 . S
C325 C323 1.365 . S
C325 H334 0.931 . S
C326 C321 1.370 . S
C326 C322 1.395 . S
C326 H335 0.930 . S
C327 Gd263 2.805 . S
C327 O303 1.263 . S
C327 O304 1.252 . S
C327 C321 1.500 . S
H328 C311 0.929 . S
H329 C312 0.930 . S
H330 C313 0.931 . S
H331 C314 0.930 . S
H332 C323 0.929 . S
H333 C324 0.930 . S
H334 C325 0.931 . S
H335 C326 0.930 . S
C336 C338 1.422 . S
C336 C340 1.415 . S
C336 N342 1.369 . S
C337 C338 1.421 . S
C337 C339 1.417 . S
C337 C349 1.422 . S
C338 C336 1.422 . S
C338 C337 1.421 . S
C338 N348 1.359 . S
C339 C337 1.417 . S
C339 C341 1.329 . S
C339 H358 0.930 . S
C340 C336 1.415 . S
C340 C341 1.437 . S
C340 C344 1.413 . S
C341 C339 1.329 . S
C341 C340 1.437 . S
C341 H363 0.929 . S
N342 C336 1.369 . S
N342 C343 1.338 . S
N342 Gd347 2.622 . S
C343 N342 1.338 . S
C343 C345 1.378 . S
C343 H355 0.929 . S
C344 C340 1.413 . S
C344 C345 1.348 . S
C344 H360 0.931 1_455 S
C345 C343 1.378 . S
C345 C344 1.348 . S
C345 H361 0.930 1_455 S
Gd346 N366 2.622 . S
Gd346 N373 2.570 . S
Gd346 O380 2.353 . S
Gd346 O381 2.468 . S
Gd346 O382 2.427 . S
Gd346 O384 2.388 . S
Gd346 O385 2.386 . S
Gd346 O389 2.307 . S
Gd346 C399 2.805 . S
Gd347 N342 2.622 . S
Gd347 N348 2.570 . S
Gd347 O379 2.386 . S
Gd347 O383 2.307 . S
Gd347 O386 2.353 . S
Gd347 O387 2.468 . S
Gd347 O388 2.427 . S
Gd347 O390 2.388 . S
Gd347 C411 2.805 . S
N348 C338 1.359 . S
N348 Gd347 2.570 . S
N348 C350 1.343 . S
C349 C337 1.422 . S
C349 C351 1.321 . S
C349 H357 0.931 . S
C350 N348 1.343 . S
C350 C351 1.390 . S
C350 H352 0.931 . S
C351 C349 1.321 . S
C351 C350 1.390 . S
C351 H353 0.930 . S
H352 C350 0.931 . S
H353 C351 0.930 . S
H354 C377 0.931 . S
H355 C343 0.929 . S
H356 C378 0.930 . S
H357 C349 0.931 . S
H358 C339 0.930 . S
H359 C368 0.929 . S
H360 C344 0.931 1_655 S
H361 C345 0.930 1_655 S
H362 C400 0.930 . S
H363 C341 0.929 . S
H364 C369 0.931 1_545 S
H365 C370 0.930 . S
N366 Gd346 2.622 . S
N366 C367 1.369 . S
N366 C368 1.338 . S
C367 N366 1.369 . S
C367 C371 1.415 . S
C367 C374 1.422 . S
C368 H359 0.929 . S
C368 N366 1.338 . S
C368 C370 1.378 . S
C369 H364 0.931 1_565 S
C369 C370 1.348 . S
C369 C371 1.413 . S
C370 H365 0.930 . S
C370 C368 1.378 . S
C370 C369 1.348 . S
C371 C367 1.415 . S
C371 C369 1.413 . S
C371 C401 1.437 1_565 S
H372 C401 0.929 . S
N373 Gd346 2.570 . S
N373 C374 1.359 . S
N373 C377 1.343 . S
C374 C367 1.422 . S
C374 N373 1.359 . S
C374 C376 1.421 . S
C375 C376 1.422 . S
C375 C378 1.321 . S
C375 H402 0.931 1_565 S
C376 C374 1.421 . S
C376 C375 1.422 . S
C376 C400 1.417 1_565 S
C377 H354 0.931 . S
C377 N373 1.343 . S
C377 C378 1.390 . S
C378 H356 0.930 . S
C378 C375 1.321 . S
C378 C377 1.390 . S
O379 Gd347 2.386 . S
O379 C391 1.265 . S
O380 Gd346 2.353 . S
O380 C391 1.242 . S
O381 Gd346 2.468 . S
O381 C399 1.263 . S
O382 Gd346 2.427 . S
O382 C399 1.252 . S
O383 Gd347 2.307 . S
O383 C392 1.261 . S
O384 Gd346 2.388 . S
O384 C392 1.252 . S
O385 Gd346 2.386 . S
O385 C403 1.265 . S
O386 Gd347 2.353 . S
O386 C403 1.242 . S
O387 Gd347 2.468 . S
O387 C411 1.263 . S
O388 Gd347 2.427 . S
O388 C411 1.252 . S
O389 Gd346 2.307 . S
O389 C404 1.261 . S
O390 Gd347 2.388 . S
O390 C404 1.252 . S
C391 O379 1.265 . S
C391 O380 1.242 . S
C392 O383 1.261 . S
C392 O384 1.252 . S
C393 C396 1.394 . S
C393 C398 1.370 . S
C393 C399 1.500 . S
C394 C397 1.383 1_554 S
C394 C398 1.395 . S
C395 C396 1.396 . S
C395 C397 1.365 1_554 S
C395 H412 0.929 . S
C396 C393 1.394 . S
C396 C395 1.396 . S
C396 H413 0.930 . S
C397 C394 1.383 1_556 S
C397 C395 1.365 1_556 S
C397 H414 0.931 . S
C398 C393 1.370 . S
C398 C394 1.395 . S
C398 H415 0.930 . S
C399 Gd346 2.805 . S
C399 O381 1.263 . S
C399 O382 1.252 . S
C399 C393 1.500 . S
C400 H362 0.930 . S
C400 C376 1.417 1_545 S
C400 C401 1.329 . S
C401 C371 1.437 1_545 S
C401 H372 0.929 . S
C401 C400 1.329 . S
H402 C375 0.931 1_545 S
C403 O385 1.265 . S
C403 O386 1.242 . S
C404 O389 1.261 . S
C404 O390 1.252 . S
C405 C408 1.394 . S
C405 C410 1.370 . S
C405 C411 1.500 . S
C406 C409 1.383 . S
C406 C410 1.395 . S
C407 C408 1.396 . S
C407 C409 1.365 . S
C407 H416 0.929 . S
C408 C405 1.394 . S
C408 C407 1.396 . S
C408 H417 0.930 . S
C409 C406 1.383 . S
C409 C407 1.365 . S
C409 H418 0.931 . S
C410 C405 1.370 . S
C410 C406 1.395 . S
C410 H419 0.930 . S
C411 Gd347 2.805 . S
C411 O387 1.263 . S
C411 O388 1.252 . S
C411 C405 1.500 . S
H412 C395 0.929 . S
H413 C396 0.930 . S
H414 C397 0.931 . S
H415 C398 0.930 . S
H416 C407 0.929 . S
H417 C408 0.930 . S
H418 C409 0.931 . S
H419 C410 0.930 . S
C420 C422 1.422 . S
C420 C424 1.415 . S
C420 N426 1.369 . S
C421 C422 1.421 . S
C421 C423 1.417 . S
C421 C433 1.422 . S
C422 C420 1.422 . S
C422 C421 1.421 . S
C422 N432 1.359 . S
C423 C421 1.417 . S
C423 C425 1.329 . S
C423 H442 0.930 . S
C424 C420 1.415 . S
C424 C425 1.437 . S
C424 C428 1.413 . S
C425 C423 1.329 . S
C425 C424 1.437 . S
C425 H447 0.929 . S
N426 C420 1.369 . S
N426 C427 1.338 . S
N426 Gd431 2.622 . S
C427 N426 1.338 . S
C427 C429 1.378 . S
C427 H439 0.929 . S
C428 C424 1.413 . S
C428 C429 1.348 . S
C428 H444 0.931 . S
C429 C427 1.378 . S
C429 C428 1.348 . S
C429 H445 0.930 . S
Gd430 N450 2.622 . S
Gd430 N457 2.570 . S
Gd430 O464 2.353 . S
Gd430 O465 2.468 . S
Gd430 O466 2.427 . S
Gd430 O468 2.388 . S
Gd430 O469 2.386 . S
Gd430 O473 2.307 . S
Gd430 C483 2.805 . S
Gd431 N426 2.622 . S
Gd431 N432 2.570 . S
Gd431 O463 2.386 . S
Gd431 O467 2.307 . S
Gd431 O470 2.353 . S
Gd431 O471 2.468 . S
Gd431 O472 2.427 . S
Gd431 O474 2.388 . S
Gd431 C495 2.805 . S
N432 C422 1.359 . S
N432 Gd431 2.570 . S
N432 C434 1.343 . S
C433 C421 1.422 . S
C433 C435 1.321 . S
C433 H441 0.931 . S
C434 N432 1.343 . S
C434 C435 1.390 . S
C434 H436 0.931 . S
C435 C433 1.321 . S
C435 C434 1.390 . S
C435 H437 0.930 . S
H436 C434 0.931 . S
H437 C435 0.930 . S
H438 C461 0.931 . S
H439 C427 0.929 . S
H440 C462 0.930 . S
H441 C433 0.931 . S
H442 C423 0.930 . S
H443 C452 0.929 . S
H444 C428 0.931 . S
H445 C429 0.930 . S
H446 C484 0.930 . S
H447 C425 0.929 . S
H448 C453 0.931 1_565 S
H449 C454 0.930 . S
N450 Gd430 2.622 . S
N450 C451 1.369 . S
N450 C452 1.338 . S
C451 N450 1.369 . S
C451 C455 1.415 . S
C451 C458 1.422 . S
C452 H443 0.929 . S
C452 N450 1.338 . S
C452 C454 1.378 . S
C453 H448 0.931 1_545 S
C453 C454 1.348 . S
C453 C455 1.413 . S
C454 H449 0.930 . S
C454 C452 1.378 . S
C454 C453 1.348 . S
C455 C451 1.415 . S
C455 C453 1.413 . S
C455 C485 1.437 1_545 S
H456 C485 0.929 . S
N457 Gd430 2.570 . S
N457 C458 1.359 . S
N457 C461 1.343 . S
C458 C451 1.422 . S
C458 N457 1.359 . S
C458 C460 1.421 . S
C459 C460 1.422 . S
C459 C462 1.321 . S
C459 H486 0.931 1_545 S
C460 C458 1.421 . S
C460 C459 1.422 . S
C460 C484 1.417 1_545 S
C461 H438 0.931 . S
C461 N457 1.343 . S
C461 C462 1.390 . S
C462 H440 0.930 . S
C462 C459 1.321 . S
C462 C461 1.390 . S
O463 Gd431 2.386 . S
O463 C475 1.265 . S
O464 Gd430 2.353 . S
O464 C475 1.242 . S
O465 Gd430 2.468 . S
O465 C483 1.263 . S
O466 Gd430 2.427 . S
O466 C483 1.252 . S
O467 Gd431 2.307 . S
O467 C476 1.261 . S
O468 Gd430 2.388 . S
O468 C476 1.252 . S
O469 Gd430 2.386 . S
O469 C487 1.265 . S
O470 Gd431 2.353 . S
O470 C487 1.242 . S
O471 Gd431 2.468 . S
O471 C495 1.263 . S
O472 Gd431 2.427 . S
O472 C495 1.252 . S
O473 Gd430 2.307 . S
O473 C488 1.261 . S
O474 Gd431 2.388 . S
O474 C488 1.252 . S
C475 O463 1.265 . S
C475 O464 1.242 . S
C476 O467 1.261 . S
C476 O468 1.252 . S
C477 C480 1.394 . S
C477 C482 1.370 . S
C477 C483 1.500 . S
C478 C481 1.383 . S
C478 C482 1.395 1_554 S
C479 C480 1.396 . S
C479 C481 1.365 1_556 S
C479 H496 0.929 1_556 S
C480 C477 1.394 . S
C480 C479 1.396 . S
C480 H497 0.930 . S
C481 C478 1.383 . S
C481 C479 1.365 1_554 S
C481 H498 0.931 . S
C482 C477 1.370 . S
C482 C478 1.395 1_556 S
C482 H499 0.930 . S
C483 Gd430 2.805 . S
C483 O465 1.263 . S
C483 O466 1.252 . S
C483 C477 1.500 . S
C484 H446 0.930 . S
C484 C460 1.417 1_565 S
C484 C485 1.329 . S
C485 C455 1.437 1_565 S
C485 H456 0.929 . S
C485 C484 1.329 . S
H486 C459 0.931 1_565 S
C487 O469 1.265 . S
C487 O470 1.242 . S
C488 O473 1.261 . S
C488 O474 1.252 . S
C489 C492 1.394 . S
C489 C494 1.370 . S
C489 C495 1.500 . S
C490 C493 1.383 . S
C490 C494 1.395 . S
C491 C492 1.396 . S
C491 C493 1.365 . S
C491 H500 0.929 . S
C492 C489 1.394 . S
C492 C491 1.396 . S
C492 H501 0.930 . S
C493 C490 1.383 . S
C493 C491 1.365 . S
C493 H502 0.931 . S
C494 C489 1.370 . S
C494 C490 1.395 . S
C494 H503 0.930 . S
C495 Gd431 2.805 . S
C495 O471 1.263 . S
C495 O472 1.252 . S
C495 C489 1.500 . S
H496 C479 0.929 1_554 S
H497 C480 0.930 . S
H498 C481 0.931 . S
H499 C482 0.930 . S
H500 C491 0.929 . S
H501 C492 0.930 . S
H502 C493 0.931 . S
H503 C494 0.930 . S
C504 C505 1.391 . S
C504 C506 1.394 . S
C504 H520 0.931 . S
C505 C504 1.391 . S
C505 C509 1.376 . S
C506 C504 1.394 . S
C506 C507 1.369 . S
C506 C510 1.531 . S
C507 C506 1.369 . S
C507 C508 1.410 . S
C507 C515 1.503 . S
C508 C507 1.410 . S
C508 C509 1.392 . S
C508 C511 1.511 . S
C509 C505 1.376 . S
C509 C508 1.392 . S
C509 H521 0.929 . S
C510 C506 1.531 . S
C510 H522 0.960 . S
C510 H523 0.962 . S
C510 H524 0.960 . S
C511 C508 1.511 . S
C511 H525 0.961 . S
C511 H526 0.961 . S
C511 H527 0.961 . S
C512 C513 1.370 . S
C512 C514 1.363 . S
C512 H528 0.931 . S
C513 C512 1.370 . S
C513 C517 1.408 . S
C514 C512 1.363 . S
C514 C515 1.370 . S
C514 C518 1.524 . S
C515 C507 1.503 . S
C515 C514 1.370 . S
C515 C516 1.403 . S
C516 C515 1.403 . S
C516 C517 1.404 . S
C516 C519 1.539 . S
C517 C513 1.408 . S
C517 C516 1.404 . S
C517 H529 0.930 . S
C518 C514 1.524 . S
C518 H530 0.956 . S
C518 H531 0.961 . S
C518 H532 0.961 . S
C519 C516 1.539 . S
C519 H533 0.958 . S
C519 H534 0.961 . S
C519 H535 0.960 . S
H520 C504 0.931 . S
H521 C509 0.929 . S
H522 C510 0.960 . S
H523 C510 0.962 . S
H524 C510 0.960 . S
H525 C511 0.961 . S
H526 C511 0.961 . S
H527 C511 0.961 . S
H528 C512 0.931 . S
H529 C517 0.930 . S
H530 C518 0.956 . S
H531 C518 0.961 . S
H532 C518 0.961 . S
H533 C519 0.958 . S
H534 C519 0.961 . S
H535 C519 0.960 . S
C536 C537 1.391 . S
C536 C538 1.394 . S
C536 H552 0.931 . S
C537 C536 1.391 . S
C537 C541 1.376 . S
C538 C536 1.394 . S
C538 C539 1.369 . S
C538 C542 1.531 1_455 S
C539 C538 1.369 . S
C539 C540 1.410 . S
C539 C547 1.503 1_455 S
C540 C539 1.410 . S
C540 C541 1.392 . S
C540 C543 1.511 . S
C541 C537 1.376 . S
C541 C540 1.392 . S
C541 H553 0.929 . S
C542 C538 1.531 1_655 S
C542 H554 0.960 . S
C542 H555 0.962 . S
C542 H556 0.960 1_655 S
C543 C540 1.511 . S
C543 H557 0.961 . S
C543 H558 0.961 . S
C543 H559 0.961 . S
C544 C545 1.370 . S
C544 C546 1.363 . S
C544 H560 0.931 . S
C545 C544 1.370 . S
C545 C549 1.408 . S
C546 C544 1.363 . S
C546 C547 1.370 . S
C546 C550 1.524 . S
C547 C539 1.503 1_655 S
C547 C546 1.370 . S
C547 C548 1.403 . S
C548 C547 1.403 . S
C548 C549 1.404 . S
C548 C551 1.539 1_655 S
C549 C545 1.408 . S
C549 C548 1.404 . S
C549 H561 0.930 . S
C550 C546 1.524 . S
C550 H562 0.956 . S
C550 H563 0.961 . S
C550 H564 0.961 . S
C551 C548 1.539 1_455 S
C551 H565 0.958 . S
C551 H566 0.961 . S
C551 H567 0.960 . S
H552 C536 0.931 . S
H553 C541 0.929 . S
H554 C542 0.960 . S
H555 C542 0.962 . S
H556 C542 0.960 1_455 S
H557 C543 0.961 . S
H558 C543 0.961 . S
H559 C543 0.961 . S
H560 C544 0.931 . S
H561 C549 0.930 . S
H562 C550 0.956 . S
H563 C550 0.961 . S
H564 C550 0.961 . S
H565 C551 0.958 . S
H566 C551 0.961 . S
H567 C551 0.960 . S
C568 C569 1.391 . S
C568 C570 1.394 . S
C568 H584 0.931 . S
C569 C568 1.391 . S
C569 C573 1.376 . S
C570 C568 1.394 . S
C570 C571 1.369 . S
C570 C574 1.531 . S
C571 C570 1.369 . S
C571 C572 1.410 . S
C571 C579 1.503 1_545 S
C572 C571 1.410 . S
C572 C573 1.392 . S
C572 C575 1.511 1_545 S
C573 C569 1.376 . S
C573 C572 1.392 . S
C573 H585 0.929 . S
C574 C570 1.531 . S
C574 H586 0.960 . S
C574 H587 0.962 . S
C574 H588 0.960 . S
C575 C572 1.511 1_565 S
C575 H589 0.961 . S
C575 H590 0.961 . S
C575 H591 0.961 1_565 S
C576 C577 1.370 . S
C576 C578 1.363 . S
C576 H592 0.931 . S
C577 C576 1.370 . S
C577 C581 1.408 . S
C578 C576 1.363 . S
C578 C579 1.370 . S
C578 C582 1.524 . S
C579 C571 1.503 1_565 S
C579 C578 1.370 . S
C579 C580 1.403 . S
C580 C579 1.403 . S
C580 C581 1.404 . S
C580 C583 1.539 1_565 S
C581 C577 1.408 . S
C581 C580 1.404 . S
C581 H593 0.930 . S
C582 C578 1.524 . S
C582 H594 0.956 . S
C582 H595 0.961 . S
C582 H596 0.961 . S
C583 C580 1.539 1_545 S
C583 H597 0.958 . S
C583 H598 0.961 . S
C583 H599 0.960 . S
H584 C568 0.931 . S
H585 C573 0.929 . S
H586 C574 0.960 . S
H587 C574 0.962 . S
H588 C574 0.960 . S
H589 C575 0.961 . S
H590 C575 0.961 . S
H591 C575 0.961 1_545 S
H592 C576 0.931 . S
H593 C581 0.930 . S
H594 C582 0.956 . S
H595 C582 0.961 . S
H596 C582 0.961 . S
H597 C583 0.958 . S
H598 C583 0.961 . S
H599 C583 0.960 . S
C600 C601 1.391 . S
C600 C602 1.394 . S
C600 H616 0.931 . S
C601 C600 1.391 . S
C601 C605 1.376 . S
C602 C600 1.394 . S
C602 C603 1.369 . S
C602 C606 1.531 . S
C603 C602 1.369 . S
C603 C604 1.410 . S
C603 C611 1.503 . S
C604 C603 1.410 . S
C604 C605 1.392 . S
C604 C607 1.511 . S
C605 C601 1.376 . S
C605 C604 1.392 . S
C605 H617 0.929 . S
C606 C602 1.531 . S
C606 H618 0.960 . S
C606 H619 0.962 . S
C606 H620 0.960 . S
C607 C604 1.511 . S
C607 H621 0.961 . S
C607 H622 0.961 . S
C607 H623 0.961 . S
C608 C609 1.370 . S
C608 C610 1.363 . S
C608 H624 0.931 . S
C609 C608 1.370 . S
C609 C613 1.408 . S
C610 C608 1.363 . S
C610 C611 1.370 . S
C610 C614 1.524 . S
C611 C603 1.503 . S
C611 C610 1.370 . S
C611 C612 1.403 . S
C612 C611 1.403 . S
C612 C613 1.404 . S
C612 C615 1.539 . S
C613 C609 1.408 . S
C613 C612 1.404 . S
C613 H625 0.930 . S
C614 C610 1.524 . S
C614 H626 0.956 . S
C614 H627 0.961 . S
C614 H628 0.961 . S
C615 C612 1.539 . S
C615 H629 0.958 . S
C615 H630 0.961 . S
C615 H631 0.960 . S
H616 C600 0.931 . S
H617 C605 0.929 . S
H618 C606 0.960 . S
H619 C606 0.962 . S
H620 C606 0.960 . S
H621 C607 0.961 . S
H622 C607 0.961 . S
H623 C607 0.961 . S
H624 C608 0.931 . S
H625 C613 0.930 . S
H626 C614 0.956 . S
H627 C614 0.961 . S
H628 C614 0.961 . S
H629 C615 0.958 . S
H630 C615 0.961 . S
H631 C615 0.960 . S
C632 C633 1.391 . S
C632 C634 1.394 . S
C632 H648 0.931 . S
C633 C632 1.391 . S
C633 C637 1.376 . S
C634 C632 1.394 . S
C634 C635 1.369 . S
C634 C638 1.531 . S
C635 C634 1.369 . S
C635 C636 1.410 . S
C635 C643 1.503 1_455 S
C636 C635 1.410 . S
C636 C637 1.392 . S
C636 C639 1.511 . S
C637 C633 1.376 . S
C637 C636 1.392 . S
C637 H649 0.929 . S
C638 C634 1.531 . S
C638 H650 0.960 1_455 S
C638 H651 0.962 . S
C638 H652 0.960 . S
C639 C636 1.511 . S
C639 H653 0.961 . S
C639 H654 0.961 . S
C639 H655 0.949 1_455 S
C640 C641 1.370 . S
C640 C642 1.363 . S
C640 H656 0.931 . S
C641 C640 1.370 . S
C641 C645 1.408 . S
C642 C640 1.363 . S
C642 C643 1.370 . S
C642 C646 1.524 1_655 S
C643 C635 1.503 1_655 S
C643 C642 1.370 . S
C643 C644 1.403 . S
C644 C643 1.403 . S
C644 C645 1.404 . S
C644 C647 1.539 . S
C645 C641 1.408 . S
C645 C644 1.404 . S
C645 H657 0.930 . S
C646 C642 1.524 1_455 S
C646 H658 0.956 . S
C646 H659 0.961 . S
C646 H660 0.961 . S
C647 C644 1.539 . S
C647 H661 0.958 . S
C647 H662 0.961 . S
C647 H663 0.960 . S
H648 C632 0.931 . S
H649 C637 0.929 . S
H650 C638 0.960 1_655 S
H651 C638 0.962 . S
H652 C638 0.960 . S
H653 C639 0.961 . S
H654 C639 0.961 . S
H655 C639 0.949 1_655 S
H656 C640 0.931 . S
H657 C645 0.930 . S
H658 C646 0.956 . S
H659 C646 0.961 . S
H660 C646 0.961 . S
H661 C647 0.958 . S
H662 C647 0.961 . S
H663 C647 0.960 . S
C664 C665 1.391 . S
C664 C666 1.394 . S
C664 H680 0.931 . S
C665 C664 1.391 . S
C665 C669 1.376 . S
C666 C664 1.394 . S
C666 C667 1.369 . S
C666 C670 1.531 . S
C667 C666 1.369 . S
C667 C668 1.410 . S
C667 C675 1.503 1_545 S
C668 C667 1.410 . S
C668 C669 1.392 . S
C668 C671 1.511 1_545 S
C669 C665 1.376 . S
C669 C668 1.392 . S
C669 H681 0.929 . S
C670 C666 1.531 . S
C670 H682 0.960 . S
C670 H683 0.962 . S
C670 H684 0.960 . S
C671 C668 1.511 1_565 S
C671 H685 0.961 . S
C671 H686 0.961 . S
C671 H687 0.961 1_565 S
C672 C673 1.370 . S
C672 C674 1.363 . S
C672 H688 0.931 . S
C673 C672 1.370 . S
C673 C677 1.408 . S
C674 C672 1.363 . S
C674 C675 1.370 . S
C674 C678 1.524 . S
C675 C667 1.503 1_565 S
C675 C674 1.370 . S
C675 C676 1.403 . S
C676 C675 1.403 . S
C676 C677 1.404 . S
C676 C679 1.539 1_565 S
C677 C673 1.408 . S
C677 C676 1.404 . S
C677 H689 0.930 . S
C678 C674 1.524 . S
C678 H690 0.956 . S
C678 H691 0.961 . S
C678 H692 0.961 . S
C679 C676 1.539 1_545 S
C679 H693 0.958 . S
C679 H694 0.961 . S
C679 H695 0.960 . S
H680 C664 0.931 . S
H681 C669 0.929 . S
H682 C670 0.960 . S
H683 C670 0.962 . S
H684 C670 0.960 . S
H685 C671 0.961 . S
H686 C671 0.961 . S
H687 C671 0.961 1_545 S
H688 C672 0.931 . S
H689 C677 0.930 . S
H690 C678 0.956 . S
H691 C678 0.961 . S
H692 C678 0.961 . S
H693 C679 0.958 . S
H694 C679 0.961 . S
H695 C679 0.960 . S
C696 C697 1.391 . S
C696 C698 1.394 . S
C696 H712 0.931 . S
C697 C696 1.391 . S
C697 C701 1.376 . S
C698 C696 1.394 . S
C698 C699 1.369 . S
C698 C702 1.531 . S
C699 C698 1.369 . S
C699 C700 1.410 . S
C699 C707 1.503 . S
C700 C699 1.410 . S
C700 C701 1.392 . S
C700 C703 1.511 . S
C701 C697 1.376 . S
C701 C700 1.392 . S
C701 H713 0.929 . S
C702 C698 1.531 . S
C702 H714 0.960 . S
C702 H715 0.962 . S
C702 H716 0.960 . S
C703 C700 1.511 . S
C703 H717 0.961 . S
C703 H718 0.961 . S
C703 H719 0.961 . S
C704 C705 1.370 . S
C704 C706 1.363 . S
C704 H720 0.931 . S
C705 C704 1.370 . S
C705 C709 1.408 . S
C706 C704 1.363 . S
C706 C707 1.370 . S
C706 C710 1.524 . S
C707 C699 1.503 . S
C707 C706 1.370 . S
C707 C708 1.403 . S
C708 C707 1.403 . S
C708 C709 1.404 . S
C708 C711 1.539 . S
C709 C705 1.408 . S
C709 C708 1.404 . S
C709 H721 0.930 . S
C710 C706 1.524 . S
C710 H722 0.956 . S
C710 H723 0.961 . S
C710 H724 0.961 . S
C711 C708 1.539 . S
C711 H725 0.958 . S
C711 H726 0.961 . S
C711 H727 0.960 . S
H712 C696 0.931 . S
H713 C701 0.929 . S
H714 C702 0.960 . S
H715 C702 0.962 . S
H716 C702 0.960 . S
H717 C703 0.961 . S
H718 C703 0.961 . S
H719 C703 0.961 . S
H720 C704 0.931 . S
H721 C709 0.930 . S
H722 C710 0.956 . S
H723 C710 0.961 . S
H724 C710 0.961 . S
H725 C711 0.958 . S
H726 C711 0.961 . S
H727 C711 0.960 . S
C728 C729 1.391 . S
C728 C730 1.394 . S
C728 H744 0.931 . S
C729 C728 1.391 . S
C729 C733 1.376 . S
C730 C728 1.394 . S
C730 C731 1.369 . S
C730 C734 1.531 . S
C731 C730 1.369 . S
C731 C732 1.410 . S
C731 C739 1.503 . S
C732 C731 1.410 . S
C732 C733 1.392 . S
C732 C735 1.511 . S
C733 C729 1.376 . S
C733 C732 1.392 . S
C733 H745 0.929 . S
C734 C730 1.531 . S
C734 H746 0.960 . S
C734 H747 0.962 . S
C734 H748 0.960 . S
C735 C732 1.511 . S
C735 H749 0.961 . S
C735 H750 0.961 . S
C735 H751 0.961 . S
C736 C737 1.370 . S
C736 C738 1.363 . S
C736 H752 0.931 . S
C737 C736 1.370 . S
C737 C741 1.408 . S
C738 C736 1.363 . S
C738 C739 1.370 . S
C738 C742 1.524 . S
C739 C731 1.503 . S
C739 C738 1.370 . S
C739 C740 1.403 . S
C740 C739 1.403 . S
C740 C741 1.404 . S
C740 C743 1.539 . S
C741 C737 1.408 . S
C741 C740 1.404 . S
C741 H753 0.930 . S
C742 C738 1.524 . S
C742 H754 0.956 . S
C742 H755 0.961 . S
C742 H756 0.961 . S
C743 C740 1.539 . S
C743 H757 0.958 . S
C743 H758 0.961 . S
C743 H759 0.960 . S
H744 C728 0.931 . S
H745 C733 0.929 . S
H746 C734 0.960 . S
H747 C734 0.962 . S
H748 C734 0.960 . S
H749 C735 0.961 . S
H750 C735 0.961 . S
H751 C735 0.961 . S
H752 C736 0.931 . S
H753 C741 0.930 . S
H754 C742 0.956 . S
H755 C742 0.961 . S
H756 C742 0.961 . S
H757 C743 0.958 . S
H758 C743 0.961 . S
H759 C743 0.960 . S
C760 C761 1.391 . S
C760 C762 1.394 . S
C760 H776 0.931 . S
C761 C760 1.391 . S
C761 C765 1.376 . S
C762 C760 1.394 . S
C762 C763 1.369 . S
C762 C766 1.531 . S
C763 C762 1.369 . S
C763 C764 1.410 . S
C763 C771 1.503 . S
C764 C763 1.410 . S
C764 C765 1.392 . S
C764 C767 1.511 . S
C765 C761 1.376 . S
C765 C764 1.392 . S
C765 H777 0.929 . S
C766 C762 1.531 . S
C766 H778 0.960 . S
C766 H779 0.962 . S
C766 H780 0.960 . S
C767 C764 1.511 . S
C767 H781 0.961 . S
C767 H782 0.961 . S
C767 H783 0.961 . S
C768 C769 1.370 . S
C768 C770 1.363 . S
C768 H784 0.931 . S
C769 C768 1.370 . S
C769 C773 1.408 . S
C770 C768 1.363 . S
C770 C771 1.370 . S
C770 C774 1.524 . S
C771 C763 1.503 . S
C771 C770 1.370 . S
C771 C772 1.403 . S
C772 C771 1.403 . S
C772 C773 1.404 . S
C772 C775 1.539 . S
C773 C769 1.408 . S
C773 C772 1.404 . S
C773 H785 0.930 . S
C774 C770 1.524 . S
C774 H786 0.956 . S
C774 H787 0.961 . S
C774 H788 0.961 . S
C775 C772 1.539 . S
C775 H789 0.958 . S
C775 H790 0.961 . S
C775 H791 0.960 . S
H776 C760 0.931 . S
H777 C765 0.929 . S
H778 C766 0.960 . S
H779 C766 0.962 . S
H780 C766 0.960 . S
H781 C767 0.961 . S
H782 C767 0.961 . S
H783 C767 0.961 . S
H784 C768 0.931 . S
H785 C773 0.930 . S
H786 C774 0.956 . S
H787 C774 0.961 . S
H788 C774 0.961 . S
H789 C775 0.958 . S
H790 C775 0.961 . S
H791 C775 0.960 . S
C792 C793 1.391 . S
C792 C794 1.394 . S
C792 H808 0.931 . S
C793 C792 1.391 . S
C793 C797 1.376 . S
C794 C792 1.394 . S
C794 C795 1.369 . S
C794 C798 1.531 . S
C795 C794 1.369 . S
C795 C796 1.410 . S
C795 C803 1.503 . S
C796 C795 1.410 . S
C796 C797 1.392 . S
C796 C799 1.511 . S
C797 C793 1.376 . S
C797 C796 1.392 . S
C797 H809 0.929 . S
C798 C794 1.531 . S
C798 H810 0.960 . S
C798 H811 0.962 . S
C798 H812 0.960 . S
C799 C796 1.511 . S
C799 H813 0.961 . S
C799 H814 0.961 . S
C799 H815 0.961 . S
C800 C801 1.370 . S
C800 C802 1.363 . S
C800 H816 0.931 . S
C801 C800 1.370 . S
C801 C805 1.408 . S
C802 C800 1.363 . S
C802 C803 1.370 . S
C802 C806 1.524 . S
C803 C795 1.503 . S
C803 C802 1.370 . S
C803 C804 1.403 . S
C804 C803 1.403 . S
C804 C805 1.404 . S
C804 C807 1.539 . S
C805 C801 1.408 . S
C805 C804 1.404 . S
C805 H817 0.930 . S
C806 C802 1.524 . S
C806 H818 0.956 . S
C806 H819 0.961 . S
C806 H820 0.961 . S
C807 C804 1.539 . S
C807 H821 0.958 . S
C807 H822 0.961 . S
C807 H823 0.960 . S
H808 C792 0.931 . S
H809 C797 0.929 . S
H810 C798 0.960 . S
H811 C798 0.962 . S
H812 C798 0.960 . S
H813 C799 0.961 . S
H814 C799 0.961 . S
H815 C799 0.961 . S
H816 C800 0.931 . S
H817 C805 0.930 . S
H818 C806 0.956 . S
H819 C806 0.961 . S
H820 C806 0.961 . S
H821 C807 0.958 . S
H822 C807 0.961 . S
H823 C807 0.960 . S
C824 C825 1.391 . S
C824 C826 1.394 . S
C824 H840 0.931 . S
C825 C824 1.391 . S
C825 C829 1.376 . S
C826 C824 1.394 . S
C826 C827 1.369 . S
C826 C830 1.531 . S
C827 C826 1.369 . S
C827 C828 1.410 . S
C827 C835 1.503 . S
C828 C827 1.410 . S
C828 C829 1.392 . S
C828 C831 1.511 . S
C829 C825 1.376 . S
C829 C828 1.392 . S
C829 H841 0.929 . S
C830 C826 1.531 . S
C830 H842 0.960 . S
C830 H843 0.962 . S
C830 H844 0.960 . S
C831 C828 1.511 . S
C831 H845 0.961 . S
C831 H846 0.961 . S
C831 H847 0.961 . S
C832 C833 1.370 . S
C832 C834 1.363 . S
C832 H848 0.931 . S
C833 C832 1.370 . S
C833 C837 1.408 . S
C834 C832 1.363 . S
C834 C835 1.370 . S
C834 C838 1.524 . S
C835 C827 1.503 . S
C835 C834 1.370 . S
C835 C836 1.403 . S
C836 C835 1.403 . S
C836 C837 1.404 . S
C836 C839 1.539 . S
C837 C833 1.408 . S
C837 C836 1.404 . S
C837 H849 0.930 . S
C838 C834 1.524 . S
C838 H850 0.956 . S
C838 H851 0.961 . S
C838 H852 0.961 . S
C839 C836 1.539 . S
C839 H853 0.958 . S
C839 H854 0.961 . S
C839 H855 0.960 . S
H840 C824 0.931 . S
H841 C829 0.929 . S
H842 C830 0.960 . S
H843 C830 0.962 . S
H844 C830 0.960 . S
H845 C831 0.961 . S
H846 C831 0.961 . S
H847 C831 0.961 . S
H848 C832 0.931 . S
H849 C837 0.930 . S
H850 C838 0.956 . S
H851 C838 0.961 . S
H852 C838 0.961 . S
H853 C839 0.958 . S
H854 C839 0.961 . S
H855 C839 0.960 . S
C856 C857 1.391 . S
C856 C858 1.394 . S
C856 H872 0.931 . S
C857 C856 1.391 . S
C857 C861 1.376 . S
C858 C856 1.394 . S
C858 C859 1.369 . S
C858 C862 1.531 . S
C859 C858 1.369 . S
C859 C860 1.410 . S
C859 C867 1.503 . S
C860 C859 1.410 . S
C860 C861 1.392 . S
C860 C863 1.511 . S
C861 C857 1.376 . S
C861 C860 1.392 . S
C861 H873 0.929 . S
C862 C858 1.531 . S
C862 H874 0.960 . S
C862 H875 0.962 . S
C862 H876 0.960 . S
C863 C860 1.511 . S
C863 H877 0.961 . S
C863 H878 0.961 . S
C863 H879 0.961 . S
C864 C865 1.370 . S
C864 C866 1.363 . S
C864 H880 0.931 . S
C865 C864 1.370 . S
C865 C869 1.408 . S
C866 C864 1.363 . S
C866 C867 1.370 . S
C866 C870 1.524 . S
C867 C859 1.503 . S
C867 C866 1.370 . S
C867 C868 1.403 . S
C868 C867 1.403 . S
C868 C869 1.404 . S
C868 C871 1.539 . S
C869 C865 1.408 . S
C869 C868 1.404 . S
C869 H881 0.930 . S
C870 C866 1.524 . S
C870 H882 0.956 . S
C870 H883 0.961 . S
C870 H884 0.961 . S
C871 C868 1.539 . S
C871 H885 0.958 . S
C871 H886 0.961 . S
C871 H887 0.960 . S
H872 C856 0.931 . S
H873 C861 0.929 . S
H874 C862 0.960 . S
H875 C862 0.962 . S
H876 C862 0.960 . S
H877 C863 0.961 . S
H878 C863 0.961 . S
H879 C863 0.961 . S
H880 C864 0.931 . S
H881 C869 0.930 . S
H882 C870 0.956 . S
H883 C870 0.961 . S
H884 C870 0.961 . S
H885 C871 0.958 . S
H886 C871 0.961 . S
H887 C871 0.960 . S
C888 C889 1.391 . S
C888 C890 1.394 . S
C888 H904 0.931 . S
C889 C888 1.391 . S
C889 C893 1.376 . S
C890 C888 1.394 . S
C890 C891 1.369 . S
C890 C894 1.531 . S
C891 C890 1.369 . S
C891 C892 1.410 . S
C891 C899 1.503 . S
C892 C891 1.410 . S
C892 C893 1.392 . S
C892 C895 1.511 . S
C893 C889 1.376 . S
C893 C892 1.392 . S
C893 H905 0.929 . S
C894 C890 1.531 . S
C894 H906 0.960 . S
C894 H907 0.962 . S
C894 H908 0.960 . S
C895 C892 1.511 . S
C895 H909 0.961 . S
C895 H910 0.961 . S
C895 H911 0.961 . S
C896 C897 1.370 . S
C896 C898 1.363 . S
C896 H912 0.931 . S
C897 C896 1.370 . S
C897 C901 1.408 . S
C898 C896 1.363 . S
C898 C899 1.370 . S
C898 C902 1.524 . S
C899 C891 1.503 . S
C899 C898 1.370 . S
C899 C900 1.403 . S
C900 C899 1.403 . S
C900 C901 1.404 . S
C900 C903 1.539 . S
C901 C897 1.408 . S
C901 C900 1.404 . S
C901 H913 0.930 . S
C902 C898 1.524 . S
C902 H914 0.956 . S
C902 H915 0.961 . S
C902 H916 0.961 . S
C903 C900 1.539 . S
C903 H917 0.958 . S
C903 H918 0.961 . S
C903 H919 0.960 . S
H904 C888 0.931 . S
H905 C893 0.929 . S
H906 C894 0.960 . S
H907 C894 0.962 . S
H908 C894 0.960 . S
H909 C895 0.961 . S
H910 C895 0.961 . S
H911 C895 0.961 . S
H912 C896 0.931 . S
H913 C901 0.930 . S
H914 C902 0.956 . S
H915 C902 0.961 . S
H916 C902 0.961 . S
H917 C903 0.958 . S
H918 C903 0.961 . S
H919 C903 0.960 . S
C920 C921 1.391 . S
C920 C922 1.394 . S
C920 H936 0.931 . S
C921 C920 1.391 . S
C921 C925 1.376 . S
C922 C920 1.394 . S
C922 C923 1.369 . S
C922 C926 1.531 . S
C923 C922 1.369 . S
C923 C924 1.410 . S
C923 C931 1.503 . S
C924 C923 1.410 . S
C924 C925 1.392 . S
C924 C927 1.511 . S
C925 C921 1.376 . S
C925 C924 1.392 . S
C925 H937 0.929 . S
C926 C922 1.531 . S
C926 H938 0.960 . S
C926 H939 0.962 . S
C926 H940 0.960 . S
C927 C924 1.511 . S
C927 H941 0.961 . S
C927 H942 0.961 . S
C927 H943 0.961 . S
C928 C929 1.370 . S
C928 C930 1.363 . S
C928 H944 0.931 . S
C929 C928 1.370 . S
C929 C933 1.408 . S
C930 C928 1.363 . S
C930 C931 1.370 . S
C930 C934 1.524 . S
C931 C923 1.503 . S
C931 C930 1.370 . S
C931 C932 1.403 . S
C932 C931 1.403 . S
C932 C933 1.404 . S
C932 C935 1.539 . S
C933 C929 1.408 . S
C933 C932 1.404 . S
C933 H945 0.930 . S
C934 C930 1.524 . S
C934 H946 0.956 . S
C934 H947 0.961 . S
C934 H948 0.961 . S
C935 C932 1.539 . S
C935 H949 0.958 . S
C935 H950 0.961 . S
C935 H951 0.960 . S
H936 C920 0.931 . S
H937 C925 0.929 . S
H938 C926 0.960 . S
H939 C926 0.962 . S
H940 C926 0.960 . S
H941 C927 0.961 . S
H942 C927 0.961 . S
H943 C927 0.961 . S
H944 C928 0.931 . S
H945 C933 0.930 . S
H946 C934 0.956 . S
H947 C934 0.961 . S
H948 C934 0.961 . S
H949 C935 0.958 . S
H950 C935 0.961 . S
H951 C935 0.960 . S
C952 C953 1.391 . S
C952 C954 1.394 . S
C952 H968 0.931 . S
C953 C952 1.391 . S
C953 C957 1.376 . S
C954 C952 1.394 . S
C954 C955 1.369 . S
C954 C958 1.531 . S
C955 C954 1.369 . S
C955 C956 1.410 . S
C955 C963 1.503 . S
C956 C955 1.410 . S
C956 C957 1.392 . S
C956 C959 1.511 . S
C957 C953 1.376 . S
C957 C956 1.392 . S
C957 H969 0.929 . S
C958 C954 1.531 . S
C958 H970 0.960 . S
C958 H971 0.962 . S
C958 H972 0.960 . S
C959 C956 1.511 . S
C959 H973 0.961 . S
C959 H974 0.961 . S
C959 H975 0.961 . S
C960 C961 1.370 . S
C960 C962 1.363 . S
C960 H976 0.931 . S
C961 C960 1.370 . S
C961 C965 1.408 . S
C962 C960 1.363 . S
C962 C963 1.370 . S
C962 C966 1.524 . S
C963 C955 1.503 . S
C963 C962 1.370 . S
C963 C964 1.403 . S
C964 C963 1.403 . S
C964 C965 1.404 . S
C964 C967 1.539 . S
C965 C961 1.408 . S
C965 C964 1.404 . S
C965 H977 0.930 . S
C966 C962 1.524 . S
C966 H978 0.956 . S
C966 H979 0.961 . S
C966 H980 0.961 . S
C967 C964 1.539 . S
C967 H981 0.958 . S
C967 H982 0.961 . S
C967 H983 0.960 . S
H968 C952 0.931 . S
H969 C957 0.929 . S
H970 C958 0.960 . S
H971 C958 0.962 . S
H972 C958 0.960 . S
H973 C959 0.961 . S
H974 C959 0.961 . S
H975 C959 0.961 . S
H976 C960 0.931 . S
H977 C965 0.930 . S
H978 C966 0.956 . S
H979 C966 0.961 . S
H980 C966 0.961 . S
H981 C967 0.958 . S
H982 C967 0.961 . S
H983 C967 0.960 . S
C984 C985 1.391 . S
C984 C986 1.394 . S
C984 H1000 0.931 . S
C985 C984 1.391 . S
C985 C989 1.376 . S
C986 C984 1.394 . S
C986 C987 1.369 . S
C986 C990 1.531 . S
C987 C986 1.369 . S
C987 C988 1.410 . S
C987 C995 1.503 . S
C988 C987 1.410 . S
C988 C989 1.392 . S
C988 C991 1.511 . S
C989 C985 1.376 . S
C989 C988 1.392 . S
C989 H1001 0.929 . S
C990 C986 1.531 . S
C990 H1002 0.960 . S
C990 H1003 0.962 . S
C990 H1004 0.960 . S
C991 C988 1.511 . S
C991 H1005 0.961 . S
C991 H1006 0.961 . S
C991 H1007 0.961 . S
C992 C993 1.370 . S
C992 C994 1.363 . S
C992 H1008 0.931 . S
C993 C992 1.370 . S
C993 C997 1.408 . S
C994 C992 1.363 . S
C994 C995 1.370 . S
C994 C998 1.524 . S
C995 C987 1.503 . S
C995 C994 1.370 . S
C995 C996 1.403 . S
C996 C995 1.403 . S
C996 C997 1.404 . S
C996 C999 1.539 . S
C997 C993 1.408 . S
C997 C996 1.404 . S
C997 H1009 0.930 . S
C998 C994 1.524 . S
C998 H1010 0.956 . S
C998 H1011 0.961 . S
C998 H1012 0.961 . S
C999 C996 1.539 . S
C999 H1013 0.958 . S
C999 H1014 0.961 . S
C999 H1015 0.960 . S
H1000 C984 0.931 . S
H1001 C989 0.929 . S
H1002 C990 0.960 . S
H1003 C990 0.962 . S
H1004 C990 0.960 . S
H1005 C991 0.961 . S
H1006 C991 0.961 . S
H1007 C991 0.961 . S
H1008 C992 0.931 . S
H1009 C997 0.930 . S
H1010 C998 0.956 . S
H1011 C998 0.961 . S
H1012 C998 0.961 . S
H1013 C999 0.958 . S
H1014 C999 0.961 . S
H1015 C999 0.960 . S
C1016 C1017 1.391 . S
C1016 C1018 1.394 . S
C1016 H1032 0.931 . S
C1017 C1016 1.391 . S
C1017 C1021 1.376 . S
C1018 C1016 1.394 . S
C1018 C1019 1.369 . S
C1018 C1022 1.531 . S
C1019 C1018 1.369 . S
C1019 C1020 1.410 . S
C1019 C1027 1.503 . S
C1020 C1019 1.410 . S
C1020 C1021 1.392 . S
C1020 C1023 1.511 . S
C1021 C1017 1.376 . S
C1021 C1020 1.392 . S
C1021 H1033 0.929 . S
C1022 C1018 1.531 . S
C1022 H1034 0.960 . S
C1022 H1035 0.962 . S
C1022 H1036 0.960 . S
C1023 C1020 1.511 . S
C1023 H1037 0.961 . S
C1023 H1038 0.961 . S
C1023 H1039 0.961 . S
C1024 C1025 1.370 . S
C1024 C1026 1.363 . S
C1024 H1040 0.931 . S
C1025 C1024 1.370 . S
C1025 C1029 1.408 . S
C1026 C1024 1.363 . S
C1026 C1027 1.370 . S
C1026 C1030 1.524 . S
C1027 C1019 1.503 . S
C1027 C1026 1.370 . S
C1027 C1028 1.403 . S
C1028 C1027 1.403 . S
C1028 C1029 1.404 . S
C1028 C1031 1.539 . S
C1029 C1025 1.408 . S
C1029 C1028 1.404 . S
C1029 H1041 0.930 . S
C1030 C1026 1.524 . S
C1030 H1042 0.956 . S
C1030 H1043 0.961 . S
C1030 H1044 0.961 . S
C1031 C1028 1.539 . S
C1031 H1045 0.958 . S
C1031 H1046 0.961 . S
C1031 H1047 0.960 . S
H1032 C1016 0.931 . S
H1033 C1021 0.929 . S
H1034 C1022 0.960 . S
H1035 C1022 0.962 . S
H1036 C1022 0.960 . S
H1037 C1023 0.961 . S
H1038 C1023 0.961 . S
H1039 C1023 0.961 . S
H1040 C1024 0.931 . S
H1041 C1029 0.930 . S
H1042 C1030 0.956 . S
H1043 C1030 0.961 . S
H1044 C1030 0.961 . S
H1045 C1031 0.958 . S
H1046 C1031 0.961 . S
H1047 C1031 0.960 . S
C1048 C1049 1.391 . S
C1048 C1050 1.394 . S
C1048 H1064 0.931 . S
C1049 C1048 1.391 . S
C1049 C1053 1.376 . S
C1050 C1048 1.394 . S
C1050 C1051 1.369 . S
C1050 C1054 1.531 . S
C1051 C1050 1.369 . S
C1051 C1052 1.410 . S
C1051 C1059 1.503 . S
C1052 C1051 1.410 . S
C1052 C1053 1.392 . S
C1052 C1055 1.511 . S
C1053 C1049 1.376 . S
C1053 C1052 1.392 . S
C1053 H1065 0.929 . S
C1054 C1050 1.531 . S
C1054 H1066 0.960 . S
C1054 H1067 0.962 . S
C1054 H1068 0.960 . S
C1055 C1052 1.511 . S
C1055 H1069 0.961 . S
C1055 H1070 0.961 . S
C1055 H1071 0.961 . S
C1056 C1057 1.370 . S
C1056 C1058 1.363 . S
C1056 H1072 0.931 . S
C1057 C1056 1.370 . S
C1057 C1061 1.408 . S
C1058 C1056 1.363 . S
C1058 C1059 1.370 . S
C1058 C1062 1.524 . S
C1059 C1051 1.503 . S
C1059 C1058 1.370 . S
C1059 C1060 1.403 . S
C1060 C1059 1.403 . S
C1060 C1061 1.404 . S
C1060 C1063 1.539 . S
C1061 C1057 1.408 . S
C1061 C1060 1.404 . S
C1061 H1073 0.930 . S
C1062 C1058 1.524 . S
C1062 H1074 0.956 . S
C1062 H1075 0.961 . S
C1062 H1076 0.961 . S
C1063 C1060 1.539 . S
C1063 H1077 0.958 . S
C1063 H1078 0.961 . S
C1063 H1079 0.960 . S
H1064 C1048 0.931 . S
H1065 C1053 0.929 . S
H1066 C1054 0.960 . S
H1067 C1054 0.962 . S
H1068 C1054 0.960 . S
H1069 C1055 0.961 . S
H1070 C1055 0.961 . S
H1071 C1055 0.961 . S
H1072 C1056 0.931 . S
H1073 C1061 0.930 . S
H1074 C1062 0.956 . S
H1075 C1062 0.961 . S
H1076 C1062 0.961 . S
H1077 C1063 0.958 . S
H1078 C1063 0.961 . S
H1079 C1063 0.960 . S
C505 C488 1.347 . S
C513 C68 1.365 . S
C537 C67 1.326 . S
C545 C151 1.335 . S
C569 C152 1.364 . S
C577 C236 1.359 . S
C601 C235 1.293 . S
C609 C319 1.320 . S
C633 C404 1.354 . S
C641 C320 1.372 . S
C665 C487 1.292 . S
C673 C403 1.320 . S
C697 C58 1.134 . S
C705 C70 1.101 . S
C729 C154 1.157 1_556 S
C737 C142 1.096 . S
C761 C226 1.162 . S
C769 C238 1.092 1_554 S
C793 C322 1.089 . S
C801 C310 1.126 . S
C825 C406 1.123 . S
C833 C394 1.113 1_556 S
C857 C490 1.134 . S
C865 C478 1.101 . S
C889 C56 1.615 . S
C897 C391 1.623 . S
C921 C139 1.612 . S
C929 C476 1.620 . S
C953 C55 1.631 . S
C961 C224 1.628 . S
C985 C140 1.626 . S
C993 C307 1.632 . S
C1017 C392 1.607 . S
C1025 C223 1.622 . S
C1049 C308 1.604 . S
C1057 C475 1.623 . S
