# Generated by pormake.
# Topology wir, (6)-cn, num edge types: 1
# Building blocks:
#     Node 0, Type 0, BuildingBlock: FUNLAD_clean_sbu_0, # of connection points: 6
#     Node 1, Type 0, BuildingBlock: FUNLAD_clean_sbu_0, # of connection points: 6
#     Node 2, Type 0, BuildingBlock: FUNLAD_clean_sbu_0, # of connection points: 6
#     Node 3, Type 0, BuildingBlock: FUNLAD_clean_sbu_0, # of connection points: 6
#     Node 4, Type 0, BuildingBlock: FUNLAD_clean_sbu_0, # of connection points: 6
#     Node 5, Type 0, BuildingBlock: FUNLAD_clean_sbu_0, # of connection points: 6
#     Node 6, Type 0, BuildingBlock: FUNLAD_clean_sbu_0, # of connection points: 6
#     Node 7, Type 0, BuildingBlock: FUNLAD_clean_sbu_0, # of connection points: 6
#     Node 8, Type 0, BuildingBlock: FUNLAD_clean_sbu_0, # of connection points: 6
#     Node 9, Type 0, BuildingBlock: FUNLAD_clean_sbu_0, # of connection points: 6
#     Node 10, Type 0, BuildingBlock: FUNLAD_clean_sbu_0, # of connection points: 6
#     Node 11, Type 0, BuildingBlock: FUNLAD_clean_sbu_0, # of connection points: 6
#     Node 12, Type 0, BuildingBlock: FUNLAD_clean_sbu_0, # of connection points: 6
#     Node 13, Type 0, BuildingBlock: FUNLAD_clean_sbu_0, # of connection points: 6
#     Node 14, Type 0, BuildingBlock: FUNLAD_clean_sbu_0, # of connection points: 6
#     Node 15, Type 0, BuildingBlock: FUNLAD_clean_sbu_0, # of connection points: 6
#     Node 16, Type 0, BuildingBlock: FUNLAD_clean_sbu_0, # of connection points: 6
#     Node 17, Type 0, BuildingBlock: FUNLAD_clean_sbu_0, # of connection points: 6
#     Node 18, Type 0, BuildingBlock: FUNLAD_clean_sbu_0, # of connection points: 6
#     Node 19, Type 0, BuildingBlock: FUNLAD_clean_sbu_0, # of connection points: 6
#     Node 20, Type 0, BuildingBlock: FUNLAD_clean_sbu_0, # of connection points: 6
#     Node 21, Type 0, BuildingBlock: FUNLAD_clean_sbu_0, # of connection points: 6
#     Node 22, Type 0, BuildingBlock: FUNLAD_clean_sbu_0, # of connection points: 6
#     Node 23, Type 0, BuildingBlock: FUNLAD_clean_sbu_0, # of connection points: 6
#     Node 24, Type 0, BuildingBlock: FUNLAD_clean_sbu_0, # of connection points: 6
#     Node 25, Type 0, BuildingBlock: FUNLAD_clean_sbu_0, # of connection points: 6
#     Node 26, Type 0, BuildingBlock: FUNLAD_clean_sbu_0, # of connection points: 6
#     Node 27, Type 0, BuildingBlock: FUNLAD_clean_sbu_0, # of connection points: 6
#     Node 28, Type 0, BuildingBlock: FUNLAD_clean_sbu_0, # of connection points: 6
#     Node 29, Type 0, BuildingBlock: FUNLAD_clean_sbu_0, # of connection points: 6
#     Node 30, Type 0, BuildingBlock: FUNLAD_clean_sbu_0, # of connection points: 6
#     Node 31, Type 0, BuildingBlock: FUNLAD_clean_sbu_0, # of connection points: 6
#     Edge 32, Type (0, 0), BuildingBlock: AJUNOK_clean_linker_0, # of connection points: 2
#     Edge 33, Type (0, 0), BuildingBlock: AJUNOK_clean_linker_0, # of connection points: 2
#     Edge 34, Type (0, 0), BuildingBlock: AJUNOK_clean_linker_0, # of connection points: 2
#     Edge 35, Type (0, 0), BuildingBlock: AJUNOK_clean_linker_0, # of connection points: 2
#     Edge 36, Type (0, 0), BuildingBlock: AJUNOK_clean_linker_0, # of connection points: 2
#     Edge 37, Type (0, 0), BuildingBlock: AJUNOK_clean_linker_0, # of connection points: 2
#     Edge 38, Type (0, 0), BuildingBlock: AJUNOK_clean_linker_0, # of connection points: 2
#     Edge 39, Type (0, 0), BuildingBlock: AJUNOK_clean_linker_0, # of connection points: 2
#     Edge 40, Type (0, 0), BuildingBlock: AJUNOK_clean_linker_0, # of connection points: 2
#     Edge 41, Type (0, 0), BuildingBlock: AJUNOK_clean_linker_0, # of connection points: 2
#     Edge 42, Type (0, 0), BuildingBlock: AJUNOK_clean_linker_0, # of connection points: 2
#     Edge 43, Type (0, 0), BuildingBlock: AJUNOK_clean_linker_0, # of connection points: 2
#     Edge 44, Type (0, 0), BuildingBlock: AJUNOK_clean_linker_0, # of connection points: 2
#     Edge 45, Type (0, 0), BuildingBlock: AJUNOK_clean_linker_0, # of connection points: 2
#     Edge 46, Type (0, 0), BuildingBlock: AJUNOK_clean_linker_0, # of connection points: 2
#     Edge 47, Type (0, 0), BuildingBlock: AJUNOK_clean_linker_0, # of connection points: 2
#     Edge 48, Type (0, 0), BuildingBlock: AJUNOK_clean_linker_0, # of connection points: 2
#     Edge 49, Type (0, 0), BuildingBlock: AJUNOK_clean_linker_0, # of connection points: 2
#     Edge 50, Type (0, 0), BuildingBlock: AJUNOK_clean_linker_0, # of connection points: 2
#     Edge 51, Type (0, 0), BuildingBlock: AJUNOK_clean_linker_0, # of connection points: 2
#     Edge 52, Type (0, 0), BuildingBlock: AJUNOK_clean_linker_0, # of connection points: 2
#     Edge 53, Type (0, 0), BuildingBlock: AJUNOK_clean_linker_0, # of connection points: 2
#     Edge 54, Type (0, 0), BuildingBlock: AJUNOK_clean_linker_0, # of connection points: 2
#     Edge 55, Type (0, 0), BuildingBlock: AJUNOK_clean_linker_0, # of connection points: 2
#     Edge 56, Type (0, 0), BuildingBlock: AJUNOK_clean_linker_0, # of connection points: 2
#     Edge 57, Type (0, 0), BuildingBlock: AJUNOK_clean_linker_0, # of connection points: 2
#     Edge 58, Type (0, 0), BuildingBlock: AJUNOK_clean_linker_0, # of connection points: 2
#     Edge 59, Type (0, 0), BuildingBlock: AJUNOK_clean_linker_0, # of connection points: 2
#     Edge 60, Type (0, 0), BuildingBlock: AJUNOK_clean_linker_0, # of connection points: 2
#     Edge 61, Type (0, 0), BuildingBlock: AJUNOK_clean_linker_0, # of connection points: 2
#     Edge 62, Type (0, 0), BuildingBlock: AJUNOK_clean_linker_0, # of connection points: 2
#     Edge 63, Type (0, 0), BuildingBlock: AJUNOK_clean_linker_0, # of connection points: 2
#     Edge 64, Type (0, 0), BuildingBlock: AJUNOK_clean_linker_0, # of connection points: 2
#     Edge 65, Type (0, 0), BuildingBlock: AJUNOK_clean_linker_0, # of connection points: 2
#     Edge 66, Type (0, 0), BuildingBlock: AJUNOK_clean_linker_0, # of connection points: 2
#     Edge 67, Type (0, 0), BuildingBlock: AJUNOK_clean_linker_0, # of connection points: 2
#     Edge 68, Type (0, 0), BuildingBlock: AJUNOK_clean_linker_0, # of connection points: 2
#     Edge 69, Type (0, 0), BuildingBlock: AJUNOK_clean_linker_0, # of connection points: 2
#     Edge 70, Type (0, 0), BuildingBlock: AJUNOK_clean_linker_0, # of connection points: 2
#     Edge 71, Type (0, 0), BuildingBlock: AJUNOK_clean_linker_0, # of connection points: 2
#     Edge 72, Type (0, 0), BuildingBlock: AJUNOK_clean_linker_0, # of connection points: 2
#     Edge 73, Type (0, 0), BuildingBlock: AJUNOK_clean_linker_0, # of connection points: 2
#     Edge 74, Type (0, 0), BuildingBlock: AJUNOK_clean_linker_0, # of connection points: 2
#     Edge 75, Type (0, 0), BuildingBlock: AJUNOK_clean_linker_0, # of connection points: 2
#     Edge 76, Type (0, 0), BuildingBlock: AJUNOK_clean_linker_0, # of connection points: 2
#     Edge 77, Type (0, 0), BuildingBlock: AJUNOK_clean_linker_0, # of connection points: 2
#     Edge 78, Type (0, 0), BuildingBlock: AJUNOK_clean_linker_0, # of connection points: 2
#     Edge 79, Type (0, 0), BuildingBlock: AJUNOK_clean_linker_0, # of connection points: 2
#     Edge 80, Type (0, 0), BuildingBlock: AJUNOK_clean_linker_0, # of connection points: 2
#     Edge 81, Type (0, 0), BuildingBlock: AJUNOK_clean_linker_0, # of connection points: 2
#     Edge 82, Type (0, 0), BuildingBlock: AJUNOK_clean_linker_0, # of connection points: 2
#     Edge 83, Type (0, 0), BuildingBlock: AJUNOK_clean_linker_0, # of connection points: 2
#     Edge 84, Type (0, 0), BuildingBlock: AJUNOK_clean_linker_0, # of connection points: 2
#     Edge 85, Type (0, 0), BuildingBlock: AJUNOK_clean_linker_0, # of connection points: 2
#     Edge 86, Type (0, 0), BuildingBlock: AJUNOK_clean_linker_0, # of connection points: 2
#     Edge 87, Type (0, 0), BuildingBlock: AJUNOK_clean_linker_0, # of connection points: 2
#     Edge 88, Type (0, 0), BuildingBlock: AJUNOK_clean_linker_0, # of connection points: 2
#     Edge 89, Type (0, 0), BuildingBlock: AJUNOK_clean_linker_0, # of connection points: 2
#     Edge 90, Type (0, 0), BuildingBlock: AJUNOK_clean_linker_0, # of connection points: 2
#     Edge 91, Type (0, 0), BuildingBlock: AJUNOK_clean_linker_0, # of connection points: 2
#     Edge 92, Type (0, 0), BuildingBlock: AJUNOK_clean_linker_0, # of connection points: 2
#     Edge 93, Type (0, 0), BuildingBlock: AJUNOK_clean_linker_0, # of connection points: 2
#     Edge 94, Type (0, 0), BuildingBlock: AJUNOK_clean_linker_0, # of connection points: 2
#     Edge 95, Type (0, 0), BuildingBlock: AJUNOK_clean_linker_0, # of connection points: 2
#     Edge 96, Type (0, 0), BuildingBlock: AJUNOK_clean_linker_0, # of connection points: 2
#     Edge 97, Type (0, 0), BuildingBlock: AJUNOK_clean_linker_0, # of connection points: 2
#     Edge 98, Type (0, 0), BuildingBlock: AJUNOK_clean_linker_0, # of connection points: 2
#     Edge 99, Type (0, 0), BuildingBlock: AJUNOK_clean_linker_0, # of connection points: 2
#     Edge 100, Type (0, 0), BuildingBlock: AJUNOK_clean_linker_0, # of connection points: 2
#     Edge 101, Type (0, 0), BuildingBlock: AJUNOK_clean_linker_0, # of connection points: 2
#     Edge 102, Type (0, 0), BuildingBlock: AJUNOK_clean_linker_0, # of connection points: 2
#     Edge 103, Type (0, 0), BuildingBlock: AJUNOK_clean_linker_0, # of connection points: 2
#     Edge 104, Type (0, 0), BuildingBlock: AJUNOK_clean_linker_0, # of connection points: 2
#     Edge 105, Type (0, 0), BuildingBlock: AJUNOK_clean_linker_0, # of connection points: 2
#     Edge 106, Type (0, 0), BuildingBlock: AJUNOK_clean_linker_0, # of connection points: 2
#     Edge 107, Type (0, 0), BuildingBlock: AJUNOK_clean_linker_0, # of connection points: 2
#     Edge 108, Type (0, 0), BuildingBlock: AJUNOK_clean_linker_0, # of connection points: 2
#     Edge 109, Type (0, 0), BuildingBlock: AJUNOK_clean_linker_0, # of connection points: 2
#     Edge 110, Type (0, 0), BuildingBlock: AJUNOK_clean_linker_0, # of connection points: 2
#     Edge 111, Type (0, 0), BuildingBlock: AJUNOK_clean_linker_0, # of connection points: 2
#     Edge 112, Type (0, 0), BuildingBlock: AJUNOK_clean_linker_0, # of connection points: 2
#     Edge 113, Type (0, 0), BuildingBlock: AJUNOK_clean_linker_0, # of connection points: 2
#     Edge 114, Type (0, 0), BuildingBlock: AJUNOK_clean_linker_0, # of connection points: 2
#     Edge 115, Type (0, 0), BuildingBlock: AJUNOK_clean_linker_0, # of connection points: 2
#     Edge 116, Type (0, 0), BuildingBlock: AJUNOK_clean_linker_0, # of connection points: 2
#     Edge 117, Type (0, 0), BuildingBlock: AJUNOK_clean_linker_0, # of connection points: 2
#     Edge 118, Type (0, 0), BuildingBlock: AJUNOK_clean_linker_0, # of connection points: 2
#     Edge 119, Type (0, 0), BuildingBlock: AJUNOK_clean_linker_0, # of connection points: 2
#     Edge 120, Type (0, 0), BuildingBlock: AJUNOK_clean_linker_0, # of connection points: 2
#     Edge 121, Type (0, 0), BuildingBlock: AJUNOK_clean_linker_0, # of connection points: 2
#     Edge 122, Type (0, 0), BuildingBlock: AJUNOK_clean_linker_0, # of connection points: 2
#     Edge 123, Type (0, 0), BuildingBlock: AJUNOK_clean_linker_0, # of connection points: 2
#     Edge 124, Type (0, 0), BuildingBlock: AJUNOK_clean_linker_0, # of connection points: 2
#     Edge 125, Type (0, 0), BuildingBlock: AJUNOK_clean_linker_0, # of connection points: 2
#     Edge 126, Type (0, 0), BuildingBlock: AJUNOK_clean_linker_0, # of connection points: 2
#     Edge 127, Type (0, 0), BuildingBlock: AJUNOK_clean_linker_0, # of connection points: 2
# Relax obj value: 1.060
# Max RMSD: 0.227
# Mean RMSD: 0.227
data_MOF--net-wir--node1-FUNLAD_clean_sbu_0--edge1-AJUNOK_clean_linker_0
_symmetry_space_group_name_H-M    P1
_symmetry_Int_Tables_number       1
_symmetry_cell_setting            triclinic
loop_
_symmetry_equiv_pos_as_xyz
'x, y, z'
_cell_length_a     35.552291
_cell_length_b     35.621657
_cell_length_c     48.786934
_cell_angle_alpha  90.182135
_cell_angle_beta   90.038159
_cell_angle_gamma 90.09409
loop_
_atom_site_label
_atom_site_type_symbol
_atom_site_fract_x
_atom_site_fract_y
_atom_site_fract_z
_atom_type_partial_charge
C0 C 0.21428 0.12951 0.31817 0.0
N1 N 0.26665 0.1894 0.38586 0.0
C2 C 0.26672 0.16083 0.40413 0.0
C3 C 0.2925 0.16111 0.4256 0.0
C4 C 0.31795 0.19134 0.4283 0.0
C5 C 0.31613 0.22102 0.40984 0.0
C6 C 0.29042 0.21933 0.38857 0.0
Zn7 Zn 0.22626 0.1951 0.35746 0.0
C8 C 0.25673 0.2416 0.31104 0.0
N9 N 0.14289 0.22319 0.30058 0.0
C10 C 0.1242 0.19596 0.28637 0.0
C11 C 0.14124 0.25969 0.29289 0.0
C12 C 0.11952 0.27026 0.27066 0.0
C13 C 0.09953 0.24302 0.25552 0.0
C14 C 0.10255 0.20526 0.26343 0.0
Zn15 Zn 0.1811 0.21105 0.32999 0.0
O16 O 0.23334 0.13767 0.33967 0.0
C17 C 0.14885 0.17548 0.3798 0.0
O18 O 0.1928 0.15523 0.30861 0.0
H19 H 0.15722 0.28078 0.30381 0.0
H20 H 0.24697 0.13788 0.40193 0.0
H21 H 0.12636 0.16694 0.29256 0.0
O22 O 0.18374 0.17487 0.3859 0.0
O23 O 0.13937 0.18525 0.35564 0.0
H24 H 0.28921 0.2426 0.37449 0.0
O25 O 0.16968 0.26493 0.35283 0.0
O26 O 0.21886 0.24772 0.37582 0.0
O27 O 0.22185 0.24102 0.30558 0.0
O28 O 0.2683 0.22005 0.33 0.0
C29 C 0.193 0.27126 0.3722 0.0
H30 H 0.29388 0.13693 0.43897 0.0
H31 H 0.3357 0.24433 0.41107 0.0
H32 H 0.11758 0.29993 0.26611 0.0
H33 H 0.08799 0.18325 0.25234 0.0
C34 C 0.22524 0.95447 0.57031 0.0
N35 N 0.17335 1.01304 0.63705 0.0
C36 C 0.20987 1.02299 0.64029 0.0
C37 C 0.21903 0.06067 0.64301 0.0
C38 C 0.19014 0.08753 0.6424 0.0
C39 C 0.15272 0.07618 0.64329 0.0
C40 C 0.14482 1.03818 0.64072 0.0
Zn41 Zn 0.16155 0.96978 0.61227 0.0
C42 C 0.11441 1.00197 0.56527 0.0
N43 N 0.12771 0.88858 0.55502 0.0
C44 C 0.13384 0.89829 0.52834 0.0
C45 C 0.1055 0.85909 0.5618 0.0
C46 C 0.08589 0.84002 0.54136 0.0
C47 C 0.08892 0.85201 0.51401 0.0
C48 C 0.11428 0.88034 0.50726 0.0
Zn49 Zn 0.14325 0.92668 0.58351 0.0
O50 O 0.21653 0.97677 0.58984 0.0
C51 C 0.17974 0.89385 0.63413 0.0
O52 O 0.2001 0.9308 0.56286 0.0
H53 H 0.10085 0.85221 0.58311 0.0
H54 H 0.23192 1.00245 0.63753 0.0
H55 H 0.15142 0.92216 0.52352 0.0
O56 O 0.18514 0.92852 0.63969 0.0
O57 O 0.16546 0.88489 0.61098 0.0
H58 H 0.11587 1.02992 0.63773 0.0
O59 O 0.08823 0.92168 0.60554 0.0
O60 O 0.11125 0.96238 0.63449 0.0
O61 O 0.11658 0.96817 0.55726 0.0
O62 O 0.13325 1.01103 0.58637 0.0
C63 C 0.08464 0.94073 0.62764 0.0
H64 H 0.24836 0.06898 0.64341 0.0
H65 H 0.13006 0.09647 0.64347 0.0
H66 H 0.06644 0.81789 0.54701 0.0
H67 H 0.11705 0.89004 0.48634 0.0
C68 C 0.40236 0.97139 0.81538 0.0
N69 N 0.34442 0.92395 0.88352 0.0
C70 C 0.33419 0.96049 0.8854 0.0
C71 C 0.29635 0.96944 0.88746 0.0
C72 C 0.26959 0.94034 0.88767 0.0
C73 C 0.28125 0.90322 0.8899 0.0
C74 C 0.31933 0.89554 0.88794 0.0
Zn75 Zn 0.38775 0.91066 0.85929 0.0
C76 C 0.35564 0.86032 0.81387 0.0
N77 N 0.46932 0.87214 0.80295 0.0
C78 C 0.48645 0.8959 0.78498 0.0
C79 C 0.46908 0.83452 0.79843 0.0
C80 C 0.486 0.81946 0.77535 0.0
C81 C 0.50255 0.8431 0.75565 0.0
C82 C 0.50303 0.88193 0.76097 0.0
Zn83 Zn 0.43126 0.89028 0.83142 0.0
O84 O 0.38077 0.964 0.83551 0.0
C85 C 0.46436 0.92998 0.88077 0.0
O86 O 0.42572 0.94572 0.80842 0.0
H87 H 0.45424 0.81587 0.81202 0.0
H88 H 0.35468 0.98248 0.88214 0.0
H89 H 0.4862 0.92582 0.78858 0.0
O90 O 0.42958 0.93558 0.88609 0.0
O91 O 0.47327 0.91474 0.85793 0.0
H92 H 0.32766 0.86654 0.88599 0.0
O93 O 0.43671 0.83748 0.85645 0.0
O94 O 0.39442 0.86212 0.88306 0.0
O95 O 0.38966 0.86159 0.80615 0.0
O96 O 0.34643 0.88095 0.83403 0.0
C97 C 0.4167 0.83544 0.87812 0.0
H98 H 0.28788 0.99864 0.88696 0.0
H99 H 0.26113 0.88038 0.89072 0.0
H100 H 0.48629 0.7892 0.77348 0.0
H101 H 0.51598 0.90135 0.74679 0.0
C102 C 0.37777 0.14495 0.06726 0.0
N103 N 0.42707 0.09034 0.13648 0.0
C104 C 0.39028 0.08042 0.13762 0.0
C105 C 0.38075 1.04264 0.13722 0.0
C106 C 0.40953 1.01567 0.13616 0.0
C107 C 0.44672 1.02663 0.14024 0.0
C108 C 0.45501 0.06468 0.1405 0.0
Zn109 Zn 0.44065 0.13234 0.11097 0.0
C110 C 0.48809 0.0967 0.06466 0.0
N111 N 0.47769 0.2083 0.05063 0.0
C112 C 0.45287 0.22617 1.03393 0.0
C113 C 0.5149 0.20683 0.04437 0.0
C114 C 0.52869 0.22479 1.02127 0.0
C115 C 0.50397 0.24385 1.00364 0.0
C116 C 0.46535 0.24354 1.00998 0.0
Zn117 Zn 0.45991 0.17235 0.08015 0.0
O118 O 0.38532 0.12676 0.08905 0.0
C119 C 0.42421 0.20966 0.13048 0.0
O120 O 0.40407 0.16562 0.05767 0.0
H121 H 0.53413 0.191 0.05693 0.0
H122 H 0.36856 0.10135 0.13519 0.0
H123 H 0.42325 0.22654 1.03882 0.0
O124 O 0.4187 0.1755 0.13733 0.0
O125 O 0.43728 0.21667 0.10656 0.0
H126 H 0.48423 0.07278 0.13952 0.0
O127 O 0.51389 0.17815 0.1034 0.0
O128 O 0.49073 0.13873 0.13298 0.0
O129 O 0.48635 0.12992 0.05569 0.0
O130 O 0.4685 0.08892 0.08569 0.0
C131 C 0.51748 0.15968 0.12563 0.0
H132 H 0.35138 1.03463 0.13586 0.0
H133 H 0.46926 1.00621 0.14072 0.0
H134 H 0.55882 0.22487 1.01816 0.0
H135 H 0.44505 0.25765 0.99708 0.0
C136 C 0.21201 0.97515 0.26673 0.0
N137 N 0.26243 0.91585 0.1979 0.0
C138 C 0.26358 0.94467 0.17987 0.0
C139 C 0.28987 0.94415 0.15872 0.0
C140 C 0.31462 0.91337 0.15608 0.0
C141 C 0.31138 0.88334 0.17409 0.0
C142 C 0.28534 0.88534 0.19508 0.0
Zn143 Zn 0.2224 0.91053 0.22675 0.0
C144 C 0.25558 0.86433 0.27317 0.0
N145 N 0.14188 0.87997 0.28552 0.0
C146 C 0.12178 0.90663 0.29919 0.0
C147 C 0.14108 0.84348 0.29336 0.0
C148 C 0.11849 0.83221 0.31492 0.0
C149 C 0.09668 0.85871 0.32928 0.0
C150 C 0.0991 0.89659 0.32147 0.0
Zn151 Zn 0.17962 0.89248 0.25578 0.0
O152 O 0.23016 0.96768 0.24472 0.0
C153 C 0.14488 0.92785 0.20574 0.0
O154 O 0.19103 0.94901 0.27646 0.0
H155 H 0.15815 0.82287 0.28292 0.0
H156 H 0.24449 0.96809 0.18212 0.0
H157 H 0.12341 0.93568 0.29296 0.0
O158 O 0.17939 0.93068 0.19894 0.0
O159 O 0.13703 0.91668 0.22992 0.0
H160 H 0.28338 0.86189 0.20894 0.0
O161 O 0.16869 0.83791 0.23391 0.0
O162 O 0.21416 0.8582 0.20838 0.0
O163 O 0.22124 0.86407 0.28013 0.0
O164 O 0.26509 0.88577 0.25355 0.0
C165 C 0.19023 0.83311 0.21333 0.0
H166 H 0.29231 0.96858 0.14567 0.0
H167 H 0.33033 0.85958 0.17292 0.0
H168 H 0.11717 0.80249 0.31945 0.0
H169 H 0.08321 0.91809 0.33204 0.0
C170 C 0.38101 0.95496 0.52139 0.0
N171 N 0.42865 1.01376 0.45386 0.0
C172 C 0.39186 1.02354 0.45281 0.0
C173 C 0.38225 0.06127 0.45279 0.0
C174 C 0.41096 0.08844 0.45355 0.0
C175 C 0.44824 0.07753 0.44992 0.0
C176 C 0.4566 1.03951 0.45 0.0
Zn177 Zn 0.44248 0.97037 0.47781 0.0
C178 C 0.49226 1.00291 0.52386 0.0
N179 N 0.47955 0.88884 0.53374 0.0
C180 C 0.45459 0.8676 0.54815 0.0
C181 C 0.51644 0.89027 0.5408 0.0
C182 C 0.52963 0.86992 0.56295 0.0
C183 C 0.50459 0.8484 0.5788 0.0
C184 C 0.46653 0.84727 0.57103 0.0
Zn185 Zn 0.4626 0.92762 0.5061 0.0
O186 O 0.38855 0.97658 0.50136 0.0
C187 C 0.42402 0.89402 0.45616 0.0
O188 O 0.40689 0.93213 0.52864 0.0
H189 H 0.53573 0.90799 0.52964 0.0
H190 H 0.37018 1.00251 0.45531 0.0
H191 H 0.42527 0.86694 0.54233 0.0
O192 O 0.41818 0.92855 0.45047 0.0
O193 O 0.43911 0.88585 0.47913 0.0
H194 H 0.4858 1.0314 0.45105 0.0
O195 O 0.51596 0.92262 0.48204 0.0
O196 O 0.49164 0.96405 0.45451 0.0
O197 O 0.49059 0.96912 0.53193 0.0
O198 O 0.47198 1.01177 0.50344 0.0
C199 C 0.51837 0.9421 0.46018 0.0
H200 H 0.35285 0.06912 0.45381 0.0
H201 H 0.47076 0.09804 0.44927 0.0
H202 H 0.55958 0.87039 0.56693 0.0
H203 H 0.44636 0.83047 0.58224 0.0
C204 C 0.40012 0.12648 0.7658 0.0
N205 N 0.35001 0.18668 0.6975 0.0
C206 C 0.34447 0.15557 0.68196 0.0
C207 C 0.31516 0.15498 0.66297 0.0
C208 C 0.29198 0.18683 0.66009 0.0
C209 C 0.30012 0.21923 0.67484 0.0
C210 C 0.32904 0.2184 0.69375 0.0
Zn211 Zn 0.38965 0.19144 0.72683 0.0
C212 C 0.35451 0.23831 0.77274 0.0
N213 N 0.46753 0.22085 0.78772 0.0
C214 C 0.5017 0.2367 0.78342 0.0
C215 C 0.45374 0.21567 0.81354 0.0
C216 C 0.47243 0.23073 0.83617 0.0
C217 C 0.50625 0.24969 0.83203 0.0
C218 C 0.52197 0.25096 0.80556 0.0
Zn219 Zn 0.43152 0.21013 0.75653 0.0
O220 O 0.37896 0.13505 0.7455 0.0
C221 C 0.4678 0.17394 0.70697 0.0
O222 O 0.42282 0.15191 0.77449 0.0
H223 H 0.42672 0.20232 0.81646 0.0
H224 H 0.36173 0.13097 0.68507 0.0
H225 H 0.51199 0.24052 0.76275 0.0
O226 O 0.43341 0.16894 0.70024 0.0
O227 O 0.47507 0.18802 0.73047 0.0
H228 H 0.3337 0.2432 0.70606 0.0
O229 O 0.44104 0.26653 0.73728 0.0
O230 O 0.40113 0.24311 0.70821 0.0
O231 O 0.38823 0.23707 0.78114 0.0
O232 O 0.34616 0.21826 0.75204 0.0
C233 C 0.42225 0.26993 0.71511 0.0
H234 H 0.30893 0.12905 0.6522 0.0
H235 H 0.28247 0.24391 0.67332 0.0
H236 H 0.45947 0.22981 0.85625 0.0
H237 H 0.54789 0.26613 0.80175 0.0
C238 C 0.22313 0.14368 1.01612 0.0
N239 N 0.16488 0.09224 0.94696 0.0
C240 C 0.19564 0.08883 0.93078 0.0
C241 C 0.19679 0.06044 0.91111 0.0
C242 C 0.16574 1.03603 0.90809 0.0
C243 C 0.13365 1.04183 0.92374 0.0
C244 C 0.13404 0.06978 0.94343 0.0
Zn245 Zn 0.15841 0.13247 0.97545 0.0
C246 C 0.11156 0.10007 1.02168 0.0
N247 N 0.12627 0.21146 1.03507 0.0
C248 C 0.15151 0.22787 0.05236 0.0
C249 C 0.089 0.21062 1.04121 0.0
C250 C 0.07555 0.22764 0.06473 0.0
C251 C 0.10053 0.24558 0.08288 0.0
C252 C 0.13921 0.24493 0.07663 0.0
Zn253 Zn 0.14147 0.17596 1.00439 0.0
O254 O 0.21527 0.12467 0.99451 0.0
C255 C 0.17841 0.21039 0.95529 0.0
O256 O 0.1973 0.16522 1.02555 0.0
H257 H 0.06935 0.19571 1.02831 0.0
H258 H 0.21943 0.10742 0.93365 0.0
H259 H 0.1812 0.22728 0.04767 0.0
O260 O 0.18024 0.17573 0.94862 0.0
O261 O 0.1667 0.21912 0.97925 0.0
H262 H 0.10936 0.07308 0.95607 0.0
O263 O 0.08757 0.1864 0.98182 0.0
O264 O 0.10675 0.14118 0.95554 0.0
O265 O 0.11296 0.13439 1.02818 0.0
O266 O 0.13189 0.08941 1.0017 0.0
C267 C 0.08213 0.16533 0.96106 0.0
H268 H 0.22254 0.05609 0.89968 0.0
H269 H 0.10953 1.02331 0.92206 0.0
H270 H 1.04541 0.22801 0.06774 0.0
H271 H 0.15958 0.25847 0.0899 0.0
C272 C 0.91656 0.83157 0.7139 0.0
N273 N 0.96334 0.87918 0.78682 0.0
C274 C 0.94994 0.88237 0.81294 0.0
C275 C 0.96802 0.86425 0.83453 0.0
C276 C 1.0007 0.84403 0.82905 0.0
C277 C 1.01617 0.84463 0.80252 0.0
C278 C 0.99661 0.86215 0.78142 0.0
Zn279 Zn 0.92674 0.89148 0.75638 0.0
C280 C 0.96039 0.92809 0.70713 0.0
N281 N 0.84252 0.91342 0.69934 0.0
C282 C 0.81938 0.883 0.6965 0.0
C283 C 0.84138 0.94239 0.68143 0.0
C284 C 0.81486 0.94213 0.6604 0.0
C285 C 0.7898 0.91156 0.65785 0.0
C286 C 0.79287 0.88143 0.67576 0.0
Zn287 Zn 0.88246 0.9081 0.72824 0.0
O288 O 0.9386 0.83722 0.7342 0.0
C289 C 0.85056 0.86087 0.77394 0.0
O290 O 0.89141 0.85568 0.70948 0.0
H291 H 0.86065 0.96573 0.68368 0.0
H292 H 0.92336 0.89616 0.81671 0.0
H293 H 0.82141 0.8594 0.71023 0.0
O294 O 0.88525 0.86124 0.77979 0.0
O295 O 0.83959 0.88252 0.75488 0.0
H296 H 1.00643 0.8597 0.76051 0.0
O297 O 0.87413 0.96524 0.74654 0.0
O298 O 0.91476 0.94751 0.77752 0.0
O299 O 0.9256 0.92929 0.70071 0.0
O300 O 0.96932 0.91734 0.73121 0.0
C301 C 0.8929 0.97317 0.76823 0.0
H302 H 0.95527 0.86379 0.85469 0.0
H303 H 1.04126 0.82865 0.79773 0.0
H304 H 0.8125 0.96658 0.64736 0.0
H305 H 0.77362 0.85785 0.67462 0.0
C306 C 1.02585 0.16481 0.46018 0.0
N307 N 0.98054 0.21365 0.53343 0.0
C308 C 1.01763 0.21277 0.54002 0.0
C309 C 1.03058 0.22938 0.5639 0.0
C310 C 1.00528 0.24666 0.58221 0.0
C311 C 0.96691 0.24705 0.57503 0.0
C312 C 0.95511 0.23048 0.55035 0.0
Zn313 Zn 0.96574 0.17749 0.50264 0.0
C314 C 0.9305 0.21092 0.45311 0.0
N315 N 0.94152 0.09286 0.44581 0.0
C316 C 0.97134 0.06935 0.44191 0.0
C317 C 0.91118 0.09212 0.429 0.0
C318 C 0.9094 0.06562 0.40801 0.0
C319 C 0.93935 1.04016 0.40435 0.0
C320 C 0.97094 1.04287 0.42111 0.0
Zn321 Zn 0.94901 0.13246 0.47459 0.0
O322 O 1.02052 0.18616 0.48082 0.0
C323 C 0.99479 0.10052 0.5208 0.0
O324 O 1.00086 0.14085 0.45466 0.0
H325 H 0.8883 0.11163 0.43215 0.0
H326 H 1.03746 0.19787 0.52734 0.0
H327 H 0.99588 0.07099 0.45491 0.0
O328 O 0.99291 0.13493 0.52739 0.0
O329 O 0.97516 0.08971 0.50048 0.0
H330 H 0.92554 0.23025 0.54521 0.0
O331 O 0.89254 0.12393 0.49431 0.0
O332 O 0.90855 0.16905 0.52246 0.0
O333 O 0.92735 0.176 0.44748 0.0
O334 O 0.94269 0.22051 0.47676 0.0
C335 C 0.88362 0.14543 0.51438 0.0
H336 H 0.06064 0.22924 0.56727 0.0
H337 H 0.94625 0.26026 0.58816 0.0
H338 H 0.88389 0.06355 0.39595 0.0
H339 H 0.9941 1.02331 0.41912 0.0
C340 C 0.69074 0.26475 0.20671 0.0
N341 N 0.64071 0.22353 0.2814 0.0
C342 C 0.65176 0.21839 0.30794 0.0
C343 C 0.63516 0.23887 0.32907 0.0
C344 C 0.60657 0.26399 0.32261 0.0
C345 C 0.59305 0.26596 0.29554 0.0
C346 C 0.61093 0.24554 0.27498 0.0
Zn347 Zn 0.67812 0.20727 0.25257 0.0
C348 C 0.6439 0.16934 0.20284 0.0
N349 N 0.76353 0.17608 0.19836 0.0
C350 C 0.78906 0.20438 0.19497 0.0
C351 C 0.77376 0.13951 0.1967 0.0
C352 C 0.81168 0.1304 0.19677 0.0
C353 C 0.83849 0.15938 0.19824 0.0
C354 C 0.82728 0.19652 0.19509 0.0
Zn355 Zn 0.72036 0.18894 0.22312 0.0
O356 O 0.67151 0.26131 0.22876 0.0
C357 C 0.75317 0.23782 0.26968 0.0
O358 O 0.71341 0.23878 0.20061 0.0
H359 H 0.75294 0.11756 0.19889 0.0
H360 H 0.67591 0.20112 0.31253 0.0
H361 H 0.78061 0.23339 0.1965 0.0
O362 O 0.71929 0.23561 0.27736 0.0
O363 O 0.76272 0.21805 0.2491 0.0
H364 H 0.60304 0.2495 0.25377 0.0
O365 O 0.72595 0.1338 0.24516 0.0
O366 O 0.68434 0.15163 0.27508 0.0
O367 O 0.67843 0.16521 0.19629 0.0
O368 O 0.63589 0.18305 0.22635 0.0
C369 C 0.706 0.12574 0.26608 0.0
H370 H 0.64621 0.2371 0.34972 0.0
H371 H 0.57089 0.28544 0.29009 0.0
H372 H 0.81996 0.10116 0.19773 0.0
H373 H 0.84759 0.21923 0.19524 0.0
C374 C 0.58725 0.94008 0.96148 0.0
N375 N 0.62855 0.8868 1.03503 0.0
C376 C 0.59144 0.88626 1.04144 0.0
C377 C 0.57871 0.86554 0.06353 0.0
C378 C 0.60435 0.84549 0.07989 0.0
C379 C 0.64264 0.84647 0.07285 0.0
C380 C 0.65415 0.86712 0.05 0.0
Zn381 Zn 0.64441 0.92667 1.00787 0.0
C382 C 0.68352 0.89398 0.9576 0.0
N383 N 0.67536 1.01347 0.95525 0.0
C384 C 0.64733 1.03935 0.95261 0.0
C385 C 0.71211 1.02317 0.95315 0.0
C386 C 0.7219 0.06087 0.95301 0.0
C387 C 0.69343 0.0881 0.95489 0.0
C388 C 0.65587 0.07738 0.95257 0.0
Zn389 Zn 0.66241 0.96917 0.97859 0.0
O390 O 0.59118 0.92009 0.98304 0.0
C391 C 0.61238 0.99948 1.02573 0.0
O392 O 0.61313 0.96294 0.95552 0.0
H393 H 0.73379 1.00206 0.95487 0.0
H394 H 0.57162 0.90296 1.02998 0.0
H395 H 0.61818 1.03119 0.95449 0.0
O396 O 0.6152 0.96573 1.03343 0.0
O397 O 0.63222 1.00956 1.00533 0.0
H398 H 0.68366 0.8682 0.04476 0.0
O399 O 0.71692 0.97507 1.00129 0.0
O400 O 0.69907 0.93417 1.03155 0.0
O401 O 0.687 0.92846 0.95089 0.0
O402 O 0.66991 0.88608 0.9811 0.0
C403 C 0.7248 0.95607 1.02264 0.0
H404 H 0.54872 0.8649 0.06736 0.0
H405 H 0.66343 0.83155 0.08479 0.0
H406 H 0.75138 0.06868 0.95324 0.0
H407 H 0.63348 0.09798 0.95298 0.0
C408 C 0.91715 0.26877 0.87413 0.0
N409 N 0.96106 0.22083 0.80043 0.0
C410 C 0.94693 0.21831 0.77447 0.0
C411 C 0.96596 0.23465 0.75257 0.0
C412 C 1.00037 0.25219 0.75753 0.0
C413 C 1.01631 0.25072 0.78392 0.0
C414 C 0.99575 0.23522 0.80538 0.0
Zn415 Zn 0.92479 0.20938 0.83122 0.0
C416 C 0.95919 0.17305 0.88054 0.0
N417 N 0.84231 0.18735 0.88949 0.0
C418 C 0.81981 0.21804 0.89292 0.0
C419 C 0.84083 0.15787 0.90694 0.0
C420 C 0.81456 0.15792 0.9281 0.0
C421 C 0.7901 0.18879 0.93125 0.0
C422 C 0.79353 0.21941 0.91379 0.0
Zn423 Zn 0.88163 0.19263 0.86021 0.0
O424 O 0.93788 0.26332 0.85312 0.0
C425 C 0.84822 0.24022 0.81499 0.0
O426 O 0.89186 0.24492 0.87908 0.0
H427 H 0.85958 0.13428 0.90418 0.0
H428 H 0.91942 0.20621 0.77103 0.0
H429 H 0.82211 0.24196 0.8795 0.0
O430 O 0.88259 0.24005 0.8081 0.0
O431 O 0.83843 0.21839 0.83428 0.0
H432 H 1.00626 0.23703 0.82615 0.0
O433 O 0.87268 0.13552 0.84201 0.0
O434 O 0.91232 0.15326 0.81036 0.0
O435 O 0.92456 0.17132 0.88714 0.0
O436 O 0.96769 0.18366 0.85634 0.0
C437 C 0.89103 0.12747 0.82016 0.0
H438 H 0.95286 0.23585 0.73254 0.0
H439 H 1.04273 0.26473 0.78835 0.0
H440 H 0.81188 0.13312 0.94075 0.0
H441 H 0.77472 0.24322 0.91538 0.0
C442 C 0.59159 0.16252 0.62692 0.0
N443 N 0.63298 0.21518 0.55353 0.0
C444 C 0.59621 0.21515 0.54615 0.0
C445 C 0.58413 0.23672 0.5243 0.0
C446 C 0.61015 0.25823 0.50922 0.0
C447 C 0.64817 0.2572 0.51697 0.0
C448 C 0.65895 0.23581 0.5396 0.0
Zn449 Zn 0.64835 0.17573 0.58095 0.0
C450 C 0.68749 0.20853 0.63075 0.0
N451 N 0.67944 0.08847 0.63308 0.0
C452 C 0.65089 0.06327 0.63656 0.0
C453 C 0.716 0.0779 0.63426 0.0
C454 C 0.72479 1.03998 0.63425 0.0
C455 C 0.69554 1.01341 0.63326 0.0
C456 C 0.65842 1.02505 0.63651 0.0
Zn457 Zn 0.66675 0.13239 0.6093 0.0
O458 O 0.59475 0.18195 0.60505 0.0
C459 C 0.61628 0.10165 0.56296 0.0
O460 O 0.61773 0.13992 0.63275 0.0
H461 H 0.73814 0.09848 0.63189 0.0
H462 H 0.57618 0.19775 0.55688 0.0
H463 H 0.62189 0.07207 0.63535 0.0
O464 O 0.61957 0.13537 0.55505 0.0
O465 O 0.63585 0.09174 0.58349 0.0
H466 H 0.68818 0.23524 0.54563 0.0
O467 O 0.72069 0.1247 0.5855 0.0
O468 O 0.70386 0.16983 0.55836 0.0
O469 O 0.69225 0.17392 0.63679 0.0
O470 O 0.67276 0.2167 0.6077 0.0
C471 C 0.72892 0.14607 0.56544 0.0
H472 H 0.55428 0.23718 0.51991 0.0
H473 H 0.66927 0.27305 0.50596 0.0
H474 H 0.75403 1.0315 0.63336 0.0
H475 H 0.63548 1.005 0.63684 0.0
C476 C 0.68931 0.83406 0.37832 0.0
N477 N 0.63628 0.8707 0.30231 0.0
C478 C 0.63291 0.83281 0.30031 0.0
C479 C 0.61623 0.8164 0.27759 0.0
C480 C 0.60368 0.83867 0.25561 0.0
C481 C 0.60687 0.87785 0.25825 0.0
C482 C 0.62285 0.89334 0.28202 0.0
Zn483 Zn 0.67479 0.88956 0.33074 0.0
C484 C 0.64133 0.9293 0.38 0.0
N485 N 0.76133 0.92336 0.38354 0.0
C486 C 0.78795 0.89609 0.38644 0.0
C487 C 0.77012 0.96031 0.38544 0.0
C488 C 0.80764 0.97102 0.38541 0.0
C489 C 0.83556 0.94324 0.38362 0.0
C490 C 0.8258 0.90556 0.38631 0.0
Zn491 Zn 0.71772 0.90887 0.35979 0.0
O492 O 0.66872 0.83739 0.35698 0.0
C493 C 0.74921 0.85892 0.31341 0.0
O494 O 0.71273 0.85983 0.38335 0.0
H495 H 0.74842 0.98138 0.38356 0.0
H496 H 0.64477 0.81462 0.31558 0.0
H497 H 0.78053 0.86678 0.38473 0.0
O498 O 0.71504 0.86028 0.30627 0.0
O499 O 0.7593 0.87961 0.33342 0.0
H500 H 0.62582 0.92342 0.28347 0.0
O501 O 0.72243 0.9633 0.33701 0.0
O502 O 0.68215 0.94403 0.30657 0.0
O503 O 0.67591 0.93277 0.38675 0.0
O504 O 0.63318 0.91534 0.35656 0.0
C505 C 0.70345 0.97039 0.31549 0.0
H506 H 0.61342 0.78614 0.27755 0.0
H507 H 0.59792 0.89647 0.24208 0.0
H508 H 0.81474 1.00061 0.3849 0.0
H509 H 0.84697 0.88371 0.38595 0.0
C510 C 1.02309 0.93574 0.1239 0.0
N511 N 0.97343 0.89035 0.05132 0.0
C512 C 0.96841 0.90448 1.0256 0.0
C513 C 0.98502 0.88714 1.00302 0.0
C514 C 1.00553 0.85434 1.00709 0.0
C515 C 1.00658 0.83798 1.03331 0.0
C516 C 0.99062 0.8569 0.05545 0.0
Zn517 Zn 0.96254 0.92617 0.0826 0.0
C518 C 0.92794 0.89099 0.13257 0.0
N519 N 0.94047 1.00819 0.14144 0.0
C520 C 0.97114 1.03099 0.14436 0.0
C521 C 0.91097 1.0102 0.15895 0.0
C522 C 0.91078 1.03756 0.17941 0.0
C523 C 0.94145 0.06258 0.18181 0.0
C524 C 0.97236 0.05822 0.16462 0.0
Zn525 Zn 0.94525 0.96874 0.11207 0.0
O526 O 1.01788 0.9148 0.10295 0.0
C527 C 0.99075 1.00268 0.06562 0.0
O528 O 0.99819 0.95963 0.12958 0.0
H529 H 0.88736 0.99127 0.15658 0.0
H530 H 0.95433 0.93107 1.02281 0.0
H531 H 0.99496 1.02852 0.13077 0.0
O532 O 0.99087 0.96839 0.05876 0.0
O533 O 0.96972 1.01219 0.08554 0.0
H534 H 0.99441 0.8464 0.07605 0.0
O535 O 0.8875 0.97674 0.09503 0.0
O536 O 0.9055 0.93726 0.06327 0.0
O537 O 0.92534 0.92543 0.13949 0.0
O538 O 0.93882 0.8831 0.10827 0.0
C539 C 0.87953 0.95814 0.07328 0.0
H540 H 0.98417 0.90053 0.98312 0.0
H541 H 1.02282 0.81277 1.03703 0.0
H542 H 0.88577 1.04079 0.19186 0.0
H543 H 0.99604 0.07737 0.16561 0.0
C544 C 0.70246 0.62961 0.81909 0.0
N545 N 0.76094 0.67881 0.88654 0.0
C546 C 0.76946 0.64193 0.8891 0.0
C547 C 0.80691 0.63114 0.88939 0.0
C548 C 0.83496 0.65883 0.88736 0.0
C549 C 0.82542 0.69658 0.8896 0.0
C550 C 0.78766 0.70612 0.88939 0.0
Zn551 Zn 0.71792 0.69234 0.86206 0.0
C552 C 0.75133 0.73963 0.81509 0.0
N553 N 0.63801 0.72986 0.80381 0.0
C554 C 0.62248 0.70581 0.78515 0.0
C555 C 0.63698 0.76752 0.79971 0.0
C556 C 0.6203 0.78227 0.77649 0.0
C557 C 0.60522 0.75838 0.75614 0.0
C558 C 0.60642 0.71947 0.76091 0.0
Zn559 Zn 0.67599 0.71224 0.83269 0.0
O560 O 0.72145 0.63666 0.84067 0.0
C561 C 0.64157 0.6764 0.88346 0.0
O562 O 0.6821 0.65636 0.80983 0.0
H563 H 0.6507 0.78656 0.81369 0.0
H564 H 0.74768 0.62085 0.88732 0.0
H565 H 0.62377 0.67587 0.7883 0.0
O566 O 0.67604 0.67127 0.88974 0.0
O567 O 0.6336 0.6892 0.85966 0.0
H568 H 0.78057 0.73539 0.88715 0.0
O569 O 0.67097 0.76586 0.8571 0.0
O570 O 0.71384 0.74273 0.88394 0.0
O571 O 0.71727 0.7394 0.80756 0.0
O572 O 0.76019 0.71896 0.8353 0.0
C573 C 0.69161 0.76918 0.8784 0.0
H574 H 0.81386 0.60153 0.88902 0.0
H575 H 0.84667 0.71838 0.88889 0.0
H576 H 0.61934 0.81254 0.77489 0.0
H577 H 0.59574 0.69955 0.74608 0.0
C578 C 0.72699 0.45371 0.0645 0.0
N579 N 0.68214 0.50804 0.13626 0.0
C580 C 0.71923 0.51685 0.13597 0.0
C581 C 0.72987 0.55432 0.13529 0.0
C582 C 0.70188 0.58215 0.13537 0.0
C583 C 0.66474 0.57226 0.14099 0.0
C584 C 0.65539 0.53446 0.14171 0.0
Zn585 Zn 0.66548 0.46796 0.10987 0.0
C586 C 0.61965 0.50816 0.06474 0.0
N587 N 0.62281 0.39556 0.04834 0.0
C588 C 0.63929 0.36329 1.03962 0.0
C589 C 0.59193 0.4093 1.03537 0.0
C590 C 0.57836 0.39265 1.0117 0.0
C591 C 0.59221 0.3576 1.0033 0.0
C592 C 0.62359 0.34306 1.0177 0.0
Zn593 Zn 0.64467 0.4302 0.07794 0.0
O594 O 0.71974 0.473 0.086 0.0
C595 C 0.67984 0.38938 0.12721 0.0
O596 O 0.70061 0.43236 0.05556 0.0
H597 H 0.57726 0.43352 0.04318 0.0
H598 H 0.74006 0.49527 0.1325 0.0
H599 H 0.66391 0.35272 0.0501 0.0
O600 O 0.68812 0.42297 0.13421 0.0
O601 O 0.66378 0.38386 0.10401 0.0
H602 H 0.62592 0.52716 0.14202 0.0
O603 O 0.58978 0.42844 0.10087 0.0
O604 O 0.61643 0.46165 0.13304 0.0
O605 O 0.6236 0.47628 0.05378 0.0
O606 O 0.63683 0.51376 0.08721 0.0
C607 C 0.58786 0.44407 0.12448 0.0
H608 H 0.75934 0.56141 0.13285 0.0
H609 H 0.64283 0.59328 0.14238 0.0
H610 H 0.5555 0.40656 1.00129 0.0
H611 H 0.63519 0.31574 1.01323 0.0
C612 C 0.89801 0.47189 0.31414 0.0
N613 N 0.84436 0.41998 0.38265 0.0
C614 C 0.83466 0.45628 0.38697 0.0
C615 C 0.79721 0.46514 0.39153 0.0
C616 C 0.77032 0.43619 0.39161 0.0
C617 C 0.78175 0.39889 0.39121 0.0
C618 C 0.81949 0.39127 0.38675 0.0
Zn619 Zn 0.88662 0.40875 0.35687 0.0
C620 C 0.85234 0.35991 0.31079 0.0
N621 N 0.9648 0.37574 0.29718 0.0
C622 C 0.99664 0.3565 0.30306 0.0
C623 C 0.95273 0.38031 0.27083 0.0
C624 C 0.97074 0.3619 0.2493 0.0
C625 C 1.00186 0.33964 0.25515 0.0
C626 C 1.01601 0.33837 0.28208 0.0
Zn627 Zn 0.92779 0.39032 0.32673 0.0
O628 O 0.87939 0.46412 0.33576 0.0
C629 C 0.96325 0.42841 0.37656 0.0
O630 O 0.91945 0.44603 0.30476 0.0
H631 H 0.92718 0.3957 0.26668 0.0
H632 H 0.85497 0.47847 0.38383 0.0
H633 H 1.0054 0.35302 0.32414 0.0
O634 O 0.92886 0.43216 0.38353 0.0
O635 O 0.97074 0.41502 0.35283 0.0
H636 H 0.82748 0.36253 0.38287 0.0
O637 O 0.93617 0.33621 0.34963 0.0
O638 O 0.89478 0.3584 0.37831 0.0
O639 O 0.886 0.36131 0.30242 0.0
O640 O 0.84389 0.38027 0.33132 0.0
C641 C 0.91718 0.3324 0.37173 0.0
H642 H 0.78887 0.49435 0.39279 0.0
H643 H 0.76146 0.37617 0.39179 0.0
H644 H 0.95911 0.36301 0.22879 0.0
H645 H 1.03999 0.32092 0.28711 0.0
C646 C 0.87761 0.63997 0.57261 0.0
N647 N 0.9371 0.59147 0.64227 0.0
C648 C 0.90801 0.59143 0.66019 0.0
C649 C 0.90829 0.56655 0.68216 0.0
C650 C 0.93916 0.54216 0.68579 0.0
C651 C 0.96945 0.54429 0.66778 0.0
C652 C 0.96758 0.56874 0.64587 0.0
Zn653 Zn 0.94299 0.63003 0.61262 0.0
C654 C 0.98859 0.59479 0.56655 0.0
N655 N 0.97305 0.708 0.55235 0.0
C656 C 0.94619 0.72823 0.53911 0.0
C657 C 1.00917 0.70743 0.54344 0.0
C658 C 1.01994 0.72888 0.52115 0.0
C659 C 0.99326 0.75103 0.50729 0.0
C660 C 0.95568 0.74986 0.51625 0.0
Zn661 Zn 0.96058 0.67189 0.58291 0.0
O662 O 0.88526 0.62222 0.59475 0.0
C663 C 0.92576 0.70843 0.63268 0.0
O664 O 0.90387 0.66045 0.56253 0.0
H665 H 1.0299 0.69042 0.55376 0.0
H666 H 0.88459 0.61036 0.65727 0.0
H667 H 0.91744 0.7278 0.54631 0.0
O668 O 0.92325 0.67411 0.63978 0.0
O669 O 0.93662 0.7159 0.60833 0.0
H670 H 0.99113 0.56972 0.63195 0.0
O671 O 1.01553 0.68328 0.6042 0.0
O672 O 0.99583 0.63874 0.63078 0.0
O673 O 0.98864 0.62889 0.55914 0.0
O674 O 0.96752 0.58593 0.58659 0.0
C675 C 1.02077 0.66261 0.62514 0.0
H676 H 0.88363 0.56495 0.69513 0.0
H677 H 0.99334 0.52561 0.6697 0.0
H678 H 1.04956 0.72957 0.51607 0.0
H679 H 0.93425 0.76671 0.50645 0.0
C680 C 0.70333 0.47406 0.76935 0.0
N681 N 0.76501 0.42486 0.70358 0.0
C682 C 0.77384 0.46182 0.70208 0.0
C683 C 0.81122 0.47269 0.70408 0.0
C684 C 0.83905 0.44504 0.70727 0.0
C685 C 0.82966 0.40731 0.70396 0.0
C686 C 0.79194 0.39769 0.70183 0.0
Zn687 Zn 0.72047 0.41092 0.72656 0.0
C688 C 0.75063 0.36301 0.77419 0.0
N689 N 0.63695 0.37542 0.78175 0.0
C690 C 0.61629 0.40024 0.79676 0.0
C691 C 0.63825 0.33849 0.78841 0.0
C692 C 0.61888 0.32523 0.81101 0.0
C693 C 0.59826 0.35018 0.8276 0.0
C694 C 0.59666 0.38814 0.81998 0.0
Zn695 Zn 0.67662 0.3924 0.75465 0.0
O696 O 0.72352 0.46629 0.74851 0.0
C697 C 0.64487 0.42935 0.70377 0.0
O698 O 0.6819 0.44782 0.77813 0.0
H699 H 0.65558 0.31929 0.77684 0.0
H700 H 0.75195 0.48283 0.70284 0.0
H701 H 0.61583 0.42961 0.79129 0.0
O702 O 0.6797 0.4331 0.69792 0.0
O703 O 0.6358 0.41652 0.72728 0.0
H704 H 0.78452 0.36835 0.70309 0.0
O705 O 0.67201 0.3386 0.72993 0.0
O706 O 0.71691 0.36067 0.70429 0.0
O707 O 0.71625 0.36457 0.78076 0.0
O708 O 0.76127 0.38325 0.75422 0.0
C709 C 0.69381 0.33463 0.70927 0.0
H710 H 0.81812 0.50233 0.70484 0.0
H711 H 0.85083 0.38553 0.70522 0.0
H712 H 0.6196 0.29536 0.81495 0.0
H713 H 0.58032 0.40813 0.83174 0.0
C714 C 0.88204 0.45801 1.01363 0.0
N715 N 0.93974 0.50659 0.94259 0.0
C716 C 0.90836 0.50855 0.92689 0.0
C717 C 0.90647 0.5351 0.90599 0.0
C718 C 0.93753 0.55895 0.90114 0.0
C719 C 0.97054 0.55367 0.91586 0.0
C720 C 0.9706 0.52826 0.93715 0.0
Zn721 Zn 0.94714 0.47043 0.97381 0.0
C722 C 0.98945 0.5115 1.01821 0.0
N723 N 0.98343 0.39724 1.03804 0.0
C724 C 0.96917 0.36241 0.04293 0.0
C725 C 1.00911 0.41254 0.05565 0.0
C726 C 1.0201 0.39411 0.07921 0.0
C727 C 1.00955 0.35678 0.08318 0.0
C728 C 0.98273 0.34112 0.06502 0.0
Zn729 Zn 0.96692 0.43043 1.00504 0.0
O730 O 0.88975 0.47705 0.99203 0.0
C731 C 0.9337 0.38998 0.95614 0.0
O732 O 0.90855 0.43782 1.02379 0.0
H733 H 1.0233 0.43838 0.05137 0.0
H734 H 0.88449 0.49069 0.93129 0.0
H735 H 0.94875 0.35035 1.02901 0.0
O736 O 0.92813 0.42396 0.94911 0.0
O737 O 0.94718 0.38333 0.98 0.0
H738 H 0.99549 0.52686 0.94976 0.0
O739 O 1.02364 0.42284 0.98533 0.0
O740 O 0.99956 0.46124 0.95582 0.0
O741 O 0.98867 0.47827 1.02706 0.0
O742 O 0.97048 0.51832 0.9968 0.0
C743 C 1.02664 0.44074 0.96282 0.0
H744 H 0.88007 0.53887 0.89525 0.0
H745 H 0.99482 0.57158 0.91272 0.0
H746 H 1.04001 0.40795 0.09269 0.0
H747 H 0.97408 0.31208 0.06658 0.0
C748 C 0.89566 0.62741 0.26538 0.0
N749 N 0.84715 0.6872 0.19635 0.0
C750 C 0.84708 0.65782 0.17865 0.0
C751 C 0.82148 0.65725 0.15704 0.0
C752 C 0.79623 0.68743 0.15365 0.0
C753 C 0.79864 0.71825 0.1712 0.0
C754 C 0.82405 0.71735 0.19268 0.0
Zn755 Zn 0.88532 0.69307 0.22643 0.0
C756 C 0.84936 0.73839 0.27214 0.0
N757 N 0.96239 0.72304 0.28779 0.0
C758 C 0.99603 0.73964 0.28277 0.0
C759 C 0.94833 0.72032 0.31373 0.0
C760 C 0.96609 0.7387 0.33549 0.0
C761 C 0.99915 0.75857 0.33034 0.0
C762 C 1.01528 0.75731 0.30404 0.0
Zn763 Zn 0.927 0.71054 0.25656 0.0
O764 O 0.87762 0.63559 0.24347 0.0
C765 C 0.96402 0.67629 0.20713 0.0
O766 O 0.916 0.65344 0.27608 0.0
H767 H 0.92161 0.70662 0.3172 0.0
H768 H 0.8663 0.63468 0.18163 0.0
H769 H 1.00642 0.74168 0.262 0.0
O770 O 0.92973 0.67358 0.19976 0.0
O771 O 0.97122 0.68709 0.23156 0.0
H772 H 0.82508 0.74111 0.20644 0.0
O773 O 0.93843 0.76559 0.236 0.0
O774 O 0.89422 0.74571 0.20885 0.0
O775 O 0.88346 0.7387 0.27971 0.0
O776 O 0.84068 0.71716 0.25209 0.0
C777 C 0.91802 0.77062 0.21481 0.0
H778 H 0.81975 0.63228 0.14436 0.0
H779 H 0.77928 0.74159 0.16946 0.0
H780 H 0.95288 0.73959 0.35548 0.0
H781 H 1.04068 0.77298 0.29948 0.0
C782 C 0.72403 0.64124 0.51915 0.0
N783 N 0.66556 0.59328 0.44908 0.0
C784 C 0.69705 0.58856 0.43386 0.0
C785 C 0.6987 0.55915 0.41503 0.0
C786 C 0.66757 0.5349 0.41209 0.0
C787 C 0.63474 0.54201 0.4266 0.0
C788 C 0.63441 0.57135 0.4452 0.0
Zn789 Zn 0.65992 0.63295 0.4781 0.0
C790 C 0.61125 0.59832 0.52305 0.0
N791 N 0.63064 0.71061 0.53892 0.0
C792 C 0.6173 0.74568 0.53442 0.0
C793 C 0.63351 0.6963 0.56476 0.0
C794 C 0.61867 0.71575 0.58708 0.0
C795 C 0.60234 0.75074 0.58266 0.0
C796 C 0.60334 0.76663 0.55629 0.0
Zn797 Zn 0.64184 0.67472 0.50781 0.0
O798 O 0.71678 0.6235 0.49688 0.0
C799 C 0.67955 0.71072 0.4588 0.0
O800 O 0.69787 0.6623 0.52872 0.0
H801 H 0.64494 0.66854 0.56788 0.0
H802 H 0.72115 0.60662 0.43708 0.0
H803 H 0.61535 0.75639 0.51375 0.0
O804 O 0.68203 0.67639 0.45145 0.0
O805 O 0.66769 0.71804 0.48295 0.0
H806 H 0.60926 0.57562 0.45717 0.0
O807 O 0.58754 0.68743 0.4861 0.0
O808 O 0.60811 0.64351 0.45903 0.0
O809 O 0.61132 0.63237 0.53064 0.0
O810 O 0.63314 0.58936 0.5035 0.0
C811 C 0.58313 0.6674 0.46456 0.0
H812 H 0.72492 0.55371 0.40444 0.0
H813 H 0.61064 0.52346 0.42503 0.0
H814 H 0.61776 0.70265 0.60708 0.0
H815 H 0.59016 0.79348 0.55225 0.0
C816 C 0.41882 0.3358 0.20928 0.0
N817 N 0.4672 0.38359 0.28182 0.0
C818 C 0.46846 0.34726 0.28996 0.0
C819 C 0.49088 0.3368 0.31183 0.0
C820 C 0.51207 0.36399 0.32613 0.0
C821 C 0.50932 0.40163 0.31787 0.0
C822 C 0.48684 0.41082 0.29532 0.0
Zn823 Zn 0.42851 0.39544 0.25272 0.0
C824 C 0.46169 0.43303 0.20233 0.0
N825 N 0.34407 0.41806 0.19594 0.0
C826 C 0.32229 0.38664 0.19298 0.0
C827 C 0.3383 0.44902 0.18046 0.0
C828 C 0.30818 0.4497 0.1622 0.0
C829 C 0.2844 0.4181 0.16001 0.0
C830 C 0.29236 0.38597 0.17493 0.0
Zn831 Zn 0.38579 0.41278 0.22342 0.0
O832 O 0.43912 0.34084 0.23057 0.0
C833 C 0.35385 0.36494 0.27029 0.0
O834 O 0.39543 0.36102 0.20336 0.0
H835 H 0.35627 0.47334 0.18291 0.0
H836 H 0.45175 0.32619 0.27961 0.0
H837 H 0.32741 0.36185 0.20507 0.0
O838 O 0.38798 0.36607 0.27777 0.0
O839 O 0.34432 0.38559 0.25027 0.0
H840 H 0.48492 0.43973 0.28881 0.0
O841 O 0.37721 0.46952 0.24279 0.0
O842 O 0.41744 0.45156 0.27393 0.0
O843 O 0.42706 0.43546 0.19576 0.0
O844 O 0.47018 0.42091 0.22617 0.0
C845 C 0.39598 0.4774 0.26451 0.0
H846 H 0.49253 0.3072 0.31664 0.0
H847 H 0.52487 0.42357 0.3283 0.0
H848 H 0.30203 0.47542 0.15129 0.0
H849 H 0.2742 0.36153 0.17394 0.0
C850 C 0.52287 0.67053 0.96731 0.0
N851 N 0.47277 0.71566 1.04001 0.0
C852 C 0.46838 0.70147 0.06578 0.0
C853 C 0.48401 0.71984 0.08833 0.0
C854 C 0.50291 0.75364 0.08419 0.0
C855 C 0.50339 0.76974 0.05786 0.0
C856 C 0.48843 0.74986 1.03577 0.0
Zn857 Zn 0.46224 0.67953 1.00889 0.0
C858 C 0.42646 0.71356 0.95938 0.0
N859 N 0.44155 0.59649 0.95056 0.0
C860 C 0.47205 0.57366 0.94731 0.0
C861 C 0.41193 0.59503 0.9331 0.0
C862 C 0.41156 0.56844 0.91213 0.0
C863 C 0.44217 0.54361 0.90918 0.0
C864 C 0.47303 0.5471 0.92658 0.0
Zn865 Zn 0.44665 0.63586 0.97984 0.0
O866 O 0.51689 0.69216 0.98778 0.0
C867 C 0.49376 0.60368 1.02591 0.0
O868 O 0.49896 0.64541 0.96212 0.0
H869 H 0.38846 0.61398 0.93577 0.0
H870 H 0.45549 0.67427 0.06865 0.0
H871 H 0.49597 0.57579 0.96086 0.0
O872 O 0.49241 0.63806 1.03252 0.0
O873 O 0.47266 0.59289 1.00631 0.0
H874 H 0.49173 0.76038 1.01514 0.0
O875 O 0.38912 0.62719 0.99691 0.0
O876 O 0.40567 0.66739 1.02864 0.0
O877 O 0.42574 0.67903 0.95239 0.0
O878 O 0.43684 0.722 0.98368 0.0
C879 C 0.38025 0.64602 1.01834 0.0
H880 H 0.4838 0.70652 0.10826 0.0
H881 H 0.51857 0.79561 0.05402 0.0
H882 H 0.38658 0.56575 0.89954 0.0
H883 H 0.49667 0.52801 0.92513 0.0
C884 C 0.19017 0.77006 0.71325 0.0
N885 N 0.14208 0.72233 0.78523 0.0
C886 C 0.14169 0.75883 0.79322 0.0
C887 C 0.11959 0.77025 0.81502 0.0
C888 C 0.09779 0.74388 0.82948 0.0
C889 C 0.09988 0.70595 0.82155 0.0
C890 C 0.12208 0.69578 0.79903 0.0
Zn891 Zn 0.17965 0.70968 0.75537 0.0
C892 C 0.14472 0.67418 0.7052 0.0
N893 N 0.26279 0.68716 0.69725 0.0
C894 C 0.28585 0.71767 0.69475 0.0
C895 C 0.26519 0.65762 0.67977 0.0
C896 C 0.29307 0.65736 0.65969 0.0
C897 C 0.31813 0.68799 0.65768 0.0
C898 C 0.31361 0.71876 0.67494 0.0
Zn899 Zn 0.22242 0.69276 0.72585 0.0
O900 O 0.16918 0.76437 0.734 0.0
C901 C 0.25551 0.73888 0.773 0.0
O902 O 0.21393 0.74518 0.70729 0.0
H903 H 0.24609 0.63413 0.68178 0.0
H904 H 0.15877 0.77937 0.78275 0.0
H905 H 0.28307 0.74159 0.70822 0.0
O906 O 0.22121 0.7378 0.77997 0.0
O907 O 0.26546 0.71839 0.75287 0.0
H908 H 0.12343 0.66669 0.79272 0.0
O909 O 0.23003 0.63532 0.74392 0.0
O910 O 0.19046 0.65331 0.77561 0.0
O911 O 0.1792 0.67196 0.6981 0.0
O912 O 0.13701 0.68548 0.72941 0.0
C913 C 0.21149 0.62739 0.76569 0.0
H914 H 0.11861 0.79998 0.81963 0.0
H915 H 0.08406 0.68453 0.8322 0.0
H916 H 0.29654 0.63246 0.64713 0.0
H917 H 0.33283 0.74239 0.67422 0.0
C918 C 0.08555 0.43888 0.45786 0.0
N919 N 0.12211 0.38195 0.53229 0.0
C920 C 0.08419 0.37771 0.53381 0.0
C921 C 0.06772 0.36094 0.5564 0.0
C922 C 0.08992 0.34914 0.57868 0.0
C923 C 0.12913 0.35267 0.57635 0.0
C924 C 0.14471 0.36872 0.55274 0.0
Zn925 Zn 0.14093 0.42171 0.5048 0.0
C926 C 0.18044 0.39145 0.45485 0.0
N927 N 0.17449 0.5116 0.45544 0.0
C928 C 0.14739 0.5384 0.4527 0.0
C929 C 0.21159 0.52005 0.45376 0.0
C930 C 0.22268 0.55738 0.45372 0.0
C931 C 0.19513 0.58557 0.45522 0.0
C932 C 0.15724 0.5761 0.45272 0.0
Zn933 Zn 0.15976 0.46715 0.47783 0.0
O934 O 0.08854 0.41783 0.4789 0.0
C935 C 0.10963 0.49577 0.52435 0.0
O936 O 0.11145 0.46231 0.45333 0.0
H937 H 0.23249 0.49819 0.45561 0.0
H938 H 0.06594 0.38898 0.51833 0.0
H939 H 0.11796 0.53112 0.45424 0.0
O940 O 0.11204 0.46148 0.53098 0.0
O941 O 0.12958 0.50679 0.50433 0.0
H942 H 0.17481 0.37198 0.55165 0.0
O943 O 0.213 0.47285 0.50215 0.0
O944 O 0.19629 0.4263 0.52808 0.0
O945 O 0.18484 0.42645 0.44991 0.0
O946 O 0.16568 0.38148 0.47757 0.0
C947 C 0.22127 0.45056 0.5216 0.0
H948 H 1.03745 0.35761 0.55619 0.0
H949 H 0.1477 0.34405 0.59271 0.0
H950 H 0.25241 0.56416 0.45405 0.0
H951 H 0.13556 0.59744 0.4528 0.0
C952 C 0.41692 0.7721 0.37435 0.0
N953 N 0.46622 0.72838 0.30072 0.0
C954 C 0.46634 0.76565 0.29505 0.0
C955 C 0.48338 0.77908 0.27156 0.0
C956 C 0.49999 0.75411 0.2527 0.0
C957 C 0.49953 0.71556 0.25898 0.0
C958 C 0.48255 0.70325 0.28329 0.0
Zn959 Zn 0.42973 0.71313 0.33099 0.0
C960 C 0.46405 0.67762 0.38043 0.0
N961 N 0.34556 0.68753 0.38738 0.0
C962 C 0.32136 0.71695 0.39053 0.0
C963 C 0.34541 0.65807 0.40489 0.0
C964 C 0.31899 0.65687 0.42592 0.0
C965 C 0.29307 0.68653 0.42893 0.0
C966 C 0.29502 0.71715 0.41135 0.0
Zn967 Zn 0.38561 0.69515 0.35899 0.0
O968 O 0.43952 0.76695 0.35441 0.0
C969 C 0.35341 0.74175 0.31311 0.0
O970 O 0.39226 0.74739 0.37851 0.0
H971 H 0.36547 0.63553 0.40235 0.0
H972 H 0.45191 0.78529 0.30818 0.0
H973 H 0.32254 0.74091 0.37707 0.0
O974 O 0.38808 0.74166 0.30727 0.0
O975 O 0.34253 0.72011 0.33223 0.0
H976 H 0.48159 0.67358 0.28775 0.0
O977 O 0.3791 0.63804 0.33994 0.0
O978 O 0.41916 0.65718 0.30904 0.0
O979 O 0.42928 0.67508 0.38673 0.0
O980 O 0.47266 0.68866 0.35634 0.0
C981 C 0.39783 0.63088 0.31812 0.0
H982 H 0.48406 0.8092 0.26887 0.0
H983 H 0.51234 0.69518 0.2454 0.0
H984 H 0.31749 0.63206 0.43867 0.0
H985 H 0.27511 0.74007 0.41287 0.0
C986 C 0.08593 0.66855 0.12562 0.0
N987 N 0.12941 0.72156 0.05308 0.0
C988 C 0.09256 0.72165 0.04585 0.0
C989 C 0.08049 0.74223 1.02353 0.0
C990 C 0.10651 0.76287 1.00791 0.0
C991 C 0.14442 0.76292 1.01604 0.0
C992 C 0.15537 0.74184 1.03887 0.0
Zn993 Zn 0.14369 0.6812 0.08026 0.0
C994 C 0.18208 0.71169 0.13144 0.0
N995 N 0.17064 0.59263 0.13222 0.0
C996 C 0.14121 0.56821 0.13491 0.0
C997 C 0.20664 0.58187 0.13671 0.0
C998 C 0.21448 0.54411 0.14044 0.0
C999 C 0.18486 0.51796 0.13941 0.0
C1000 C 0.14781 0.5302 0.13845 0.0
Zn1001 Zn 0.1606 0.63746 0.1088 0.0
O1002 O 0.09021 0.68918 0.10446 0.0
C1003 C 0.11142 0.60897 0.06074 0.0
O1004 O 0.11092 0.64456 0.13082 0.0
H1005 H 0.22942 0.6018 0.13454 0.0
H1006 H 0.07245 0.70465 0.05682 0.0
H1007 H 0.11272 0.57705 0.13086 0.0
O1008 O 0.11419 0.64302 0.05382 0.0
O1009 O 0.13091 0.5982 0.08111 0.0
H1010 H 0.18467 0.74102 0.04477 0.0
O1011 O 0.21576 0.63076 0.08734 0.0
O1012 O 0.19884 0.67269 0.05744 0.0
O1013 O 0.18487 0.67696 0.13752 0.0
O1014 O 0.16945 0.72065 0.10784 0.0
C1015 C 0.22411 0.65016 0.06626 0.0
H1016 H 1.05064 0.74258 1.01915 0.0
H1017 H 0.16519 0.77925 1.00504 0.0
H1018 H 0.24349 0.53505 0.14205 0.0
H1019 H 0.12459 0.51046 0.13812 0.0
C1020 C 0.19515 0.33463 0.87661 0.0
N1021 N 0.14197 0.3761 0.80345 0.0
C1022 C 0.14253 0.33926 0.7963 0.0
C1023 C 0.12093 0.32634 0.7746 0.0
C1024 C 0.09876 0.35156 0.75945 0.0
C1025 C 0.09861 0.38956 0.76725 0.0
C1026 C 0.12048 0.4013 0.78954 0.0
Zn1027 Zn 0.1818 0.39227 0.8307 0.0
C1028 C 0.14912 0.43041 0.88155 0.0
N1029 N 0.26837 0.4233 0.88371 0.0
C1030 C 0.29509 0.39606 0.88614 0.0
C1031 C 0.27685 0.46019 0.8866 0.0
C1032 C 0.31425 0.47116 0.8874 0.0
C1033 C 0.34243 0.44368 0.88534 0.0
C1034 C 0.3329 0.40579 0.88682 0.0
Zn1035 Zn 0.2244 0.40991 0.86014 0.0
O1036 O 0.17517 0.33926 0.85508 0.0
C1037 C 0.25538 0.36078 0.81276 0.0
O1038 O 0.21855 0.36002 0.88287 0.0
H1039 H 0.25503 0.48119 0.88499 0.0
H1040 H 0.16042 0.31978 0.8071 0.0
H1041 H 0.28774 0.3668 0.88368 0.0
O1042 O 0.2215 0.36335 0.805 0.0
O1043 O 0.26524 0.3805 0.83333 0.0
H1044 H 0.12072 0.43059 0.7954 0.0
O1045 O 0.22965 0.46488 0.83767 0.0
O1046 O 0.18874 0.44696 0.80722 0.0
O1047 O 0.18374 0.43387 0.88807 0.0
O1048 O 0.14094 0.41732 0.85786 0.0
C1049 C 0.21052 0.47277 0.8163 0.0
H1050 H 0.12081 0.29646 0.77048 0.0
H1051 H 0.08133 0.4098 0.75655 0.0
H1052 H 0.32114 0.50081 0.88774 0.0
H1053 H 0.35427 0.38415 0.88624 0.0
C1054 C 0.51951 0.43915 0.62533 0.0
N1055 N 0.47299 0.38623 0.55374 0.0
C1056 C 0.46582 0.39688 0.52739 0.0
C1057 C 0.48388 0.37926 0.50557 0.0
C1058 C 0.50846 0.34991 0.51118 0.0
C1059 C 0.51217 0.33671 0.53821 0.0
C1060 C 0.49436 0.35578 0.55948 0.0
Zn1061 Zn 0.45939 0.42442 0.58263 0.0
C1062 C 0.42516 0.39242 0.63424 0.0
N1063 N 0.43147 0.51197 0.63578 0.0
C1064 C 0.46035 0.53699 0.63877 0.0
C1065 C 0.39507 0.52265 0.63833 0.0
C1066 C 0.38651 0.5606 0.63915 0.0
C1067 C 0.41585 0.58698 0.63758 0.0
C1068 C 0.45304 0.57523 0.63956 0.0
Zn1069 Zn 0.44239 0.46822 0.61115 0.0
O1070 O 0.51515 0.4194 0.60361 0.0
C1071 C 0.4889 0.49933 0.56353 0.0
O1072 O 0.49324 0.46103 0.63229 0.0
H1073 H 0.3727 0.50224 0.63632 0.0
H1074 H 0.44885 0.4214 0.52336 0.0
H1075 H 0.48921 0.52818 0.63643 0.0
O1076 O 0.48572 0.46546 0.55586 0.0
O1077 O 0.47043 0.5092 0.58459 0.0
H1078 H 0.49991 0.3482 0.58055 0.0
O1079 O 0.38672 0.47497 0.58958 0.0
O1080 O 0.40184 0.42842 0.56291 0.0
O1081 O 0.41974 0.42718 0.63948 0.0
O1082 O 0.43817 0.38311 0.61078 0.0
C1083 C 0.37716 0.45238 0.57042 0.0
H1084 H 0.48093 0.39018 0.48498 0.0
H1085 H 0.53147 0.31413 0.54302 0.0
H1086 H 0.3573 0.5693 0.63901 0.0
H1087 H 0.47604 0.59521 0.63928 0.0
C1088 C 0.17649 0.33872 0.38598 0.0
C1089 C 0.18966 0.30263 0.39279 0.0
C1090 C 0.17562 0.36807 0.40572 0.0
C1091 C 0.18714 0.36228 0.43317 0.0
H1092 H 0.16717 0.34443 0.36527 0.0
H1093 H 0.16464 0.39515 0.39967 0.0
S1094 S 0.22353 0.27316 0.46175 0.0
N1095 N 0.21466 0.2633 0.42931 0.0
N1096 N 0.21196 0.31766 0.46585 0.0
C1097 C 0.20016 0.32641 0.44013 0.0
C1098 C 0.2017 0.2969 0.42015 0.0
C1099 C 0.05719 0.94451 0.67503 0.0
C1100 C 1.0517 0.93732 0.64679 0.0
C1101 C 1.02754 0.94245 0.69409 0.0
C1102 C 0.99051 0.934 0.6859 0.0
H1103 H 0.08501 0.95124 0.6827 0.0
H1104 H 1.03383 0.94734 0.71554 0.0
S1105 S 0.9604 0.91345 0.61433 0.0
N1106 N 1.00604 0.92142 0.61164 0.0
N1107 N 0.95006 0.91847 0.64715 0.0
C1108 C 0.98437 0.9273 0.65762 0.0
C1109 C 1.01492 0.92863 0.63822 0.0
C1110 C 0.42895 0.76711 0.89101 0.0
C1111 C 0.41918 0.80403 0.8986 0.0
C1112 C 0.42936 0.73763 0.91046 0.0
C1113 C 0.42085 0.74392 0.93845 0.0
H1114 H 0.43592 0.76084 0.86988 0.0
H1115 H 0.43743 0.70986 0.9036 0.0
S1116 S 0.39365 0.83536 0.96908 0.0
N1117 N 0.40041 0.84481 0.93636 0.0
N1118 N 0.40218 0.79009 0.97242 0.0
C1119 C 0.4111 0.78066 0.9462 0.0
C1120 C 0.41004 0.81041 0.92647 0.0
C1121 C 0.57567 0.15989 0.19124 0.0
C1122 C 0.61307 0.16369 0.18223 0.0
C1123 C 0.54543 0.15898 0.17269 0.0
C1124 C 0.55085 0.1627 0.14418 0.0
H1125 H 0.56955 0.15789 0.21294 0.0
H1126 H 0.51729 0.15581 0.18091 0.0
S1127 S 0.64296 0.17282 0.10948 0.0
N1128 N 0.65379 0.17052 0.14239 0.0
N1129 N 0.59666 0.16961 0.10773 0.0
C1130 C 0.58798 0.16651 0.13473 0.0
C1131 C 0.61907 0.16669 0.15365 0.0
C1132 C 0.17984 0.76417 0.20053 0.0
C1133 C 0.1869 0.80164 0.19294 0.0
C1134 C 0.18032 0.73479 0.18082 0.0
C1135 C 0.18738 0.7418 0.15272 0.0
H1136 H 0.1745 0.75742 0.2218 0.0
H1137 H 0.17409 0.70652 0.18755 0.0
S1138 S 0.20659 0.8352 0.12218 0.0
N1139 N 0.20067 0.84392 0.15512 0.0
N1140 N 0.20131 0.7894 0.1187 0.0
C1141 C 0.1943 0.77918 0.14505 0.0
C1142 C 0.1941 0.8088 0.16493 0.0
C1143 C 0.61717 0.93119 0.42893 0.0
C1144 C 0.61059 0.9359 0.40053 0.0
C1145 C 0.58747 0.93227 0.44826 0.0
C1146 C 0.55007 0.93876 0.44003 0.0
H1147 H 0.64535 0.92546 0.43624 0.0
H1148 H 0.59391 0.92838 0.46977 0.0
S1149 S 0.51753 0.95248 0.36826 0.0
N1150 N 0.56344 0.94691 0.36546 0.0
N1151 N 0.50828 0.94949 0.40132 0.0
C1152 C 0.54329 0.94379 0.41174 0.0
C1153 C 0.57327 0.94222 0.39217 0.0
C1154 C 0.41394 0.32573 0.64865 0.0
C1155 C 0.42179 0.36304 0.65612 0.0
C1156 C 0.41477 0.29653 0.66794 0.0
C1157 C 0.42432 0.3027 0.69577 0.0
H1158 H 0.40724 0.31888 0.62755 0.0
H1159 H 0.40815 0.26849 0.66072 0.0
S1160 S 0.44906 0.39512 0.72601 0.0
N1161 N 0.44037 0.40462 0.69347 0.0
N1162 N 0.44244 0.34945 0.7296 0.0
C1163 C 0.43273 0.33983 0.70359 0.0
C1164 C 0.43124 0.36995 0.68389 0.0
C1165 C 0.05659 0.16461 0.91326 0.0
C1166 C 1.04983 0.1691 0.9416 0.0
C1167 C 1.02723 0.16494 0.8939 0.0
C1168 C 0.9894 0.16878 0.90191 0.0
H1169 H 0.0851 0.16102 0.90587 0.0
H1170 H 1.03437 0.16225 0.8724 0.0
S1171 S 0.95621 0.17973 0.97388 0.0
N1172 N 1.00242 0.17686 0.97679 0.0
N1173 N 0.94693 0.17655 0.94076 0.0
C1174 C 0.98214 0.1727 0.93034 0.0
C1175 C 1.01233 0.17318 0.95004 0.0
C1176 C 0.9307 0.76324 0.70095 0.0
C1177 C 0.92028 0.79995 0.69346 0.0
C1178 C 0.9309 0.73352 0.68147 0.0
C1179 C 0.92142 0.73935 0.65358 0.0
H1180 H 0.93806 0.75726 0.72203 0.0
H1181 H 0.93941 0.70588 0.68824 0.0
S1182 S 0.89304 0.83031 0.62318 0.0
N1183 N 0.90051 0.84015 0.65581 0.0
N1184 N 0.90183 0.78506 0.61978 0.0
C1185 C 0.91146 0.77598 0.6459 0.0
C1186 C 0.91064 0.80593 0.66563 0.0
C1187 C 1.05294 0.15875 0.41294 0.0
C1188 C 0.05847 0.16816 0.44083 0.0
C1189 C 0.08236 0.1602 0.39369 0.0
C1190 C 0.11918 0.17021 0.40139 0.0
H1191 H 1.02526 0.15067 0.4057 0.0
H1192 H 0.07606 0.15357 0.37249 0.0
S1193 S 0.14927 0.19677 0.47191 0.0
N1194 N 0.10387 0.1878 0.47513 0.0
N1195 N 0.15951 0.18965 0.43927 0.0
C1196 C 0.12537 0.17915 0.42933 0.0
C1197 C 0.09502 0.17846 0.4489 0.0
C1198 C 0.68134 0.36407 0.17597 0.0
C1199 C 0.68422 0.35763 0.14736 0.0
C1200 C 0.68201 0.33424 0.1952 0.0
C1201 C 0.68641 0.29666 0.18671 0.0
H1202 H 0.67774 0.39243 0.1836 0.0
H1203 H 0.67987 0.34075 0.21684 0.0
S1204 S 0.69497 0.26435 0.11435 0.0
N1205 N 0.69095 0.31036 0.11186 0.0
N1206 N 0.69334 0.25495 0.14744 0.0
C1207 C 0.68942 0.28999 0.15818 0.0
C1208 C 0.68802 0.32016 0.13872 0.0
C1209 C 0.53164 0.94211 0.89443 0.0
C1210 C 0.49414 0.93555 0.90229 0.0
C1211 C 0.56102 0.94322 0.91378 0.0
C1212 C 0.55473 0.93675 0.94197 0.0
H1213 H 0.53846 0.94628 0.87301 0.0
H1214 H 0.58924 0.94871 0.90641 0.0
S1215 S 0.46194 0.91761 0.97361 0.0
N1216 N 0.45237 0.92246 0.94065 0.0
N1217 N 0.50785 0.92358 0.97674 0.0
C1218 C 0.51747 0.92986 0.95022 0.0
C1219 C 0.48722 0.9296 0.93052 0.0
C1220 C 0.93357 0.33636 0.88742 0.0
C1221 C 0.92305 0.29966 0.89485 0.0
C1222 C 0.93589 0.36551 0.90722 0.0
C1223 C 0.92871 0.35905 0.93539 0.0
H1224 H 0.93921 0.34282 0.86613 0.0
H1225 H 0.94402 0.39328 0.90043 0.0
S1226 S 0.90124 0.26785 0.96577 0.0
N1227 N 0.90574 0.25872 0.93275 0.0
N1228 N 0.91131 0.31284 0.96943 0.0
C1229 C 0.91894 0.3224 0.94306 0.0
C1230 C 0.91579 0.29301 0.92299 0.0
C1231 C 0.52202 0.17027 0.63861 0.0
C1232 C 0.55978 0.16657 0.64697 0.0
C1233 C 0.49227 0.1709 0.65797 0.0
C1234 C 0.49906 0.1685 0.68652 0.0
H1235 H 0.51535 0.17203 0.61699 0.0
H1236 H 0.46378 0.17421 0.65051 0.0
S1237 S 0.59312 0.15983 0.71905 0.0
N1238 N 0.60212 0.16105 0.68588 0.0
N1239 N 0.54696 0.16288 0.72179 0.0
C1240 C 0.53677 0.16514 0.69498 0.0
C1241 C 0.56681 0.16402 0.67539 0.0
C1242 C 0.67971 0.76494 0.39046 0.0
C1243 C 0.68584 0.80244 0.3986 0.0
C1244 C 0.67945 0.7353 0.40983 0.0
C1245 C 0.68461 0.74189 0.43825 0.0
H1246 H 0.67572 0.75834 0.36897 0.0
H1247 H 0.67424 0.70704 0.40249 0.0
S1248 S 0.7001 0.83533 0.47032 0.0
N1249 N 0.69653 0.84438 0.43727 0.0
N1250 N 0.69522 0.78942 0.4732 0.0
C1251 C 0.6903 0.77937 0.44653 0.0
C1252 C 0.69113 0.80931 0.42689 0.0
C1253 C 0.12165 0.92765 0.15632 0.0
C1254 C 0.11413 0.93181 0.18471 0.0
C1255 C 0.09243 0.92723 0.13648 0.0
C1256 C 0.05451 0.93134 0.14422 0.0
H1257 H 0.15033 0.92399 0.14936 0.0
H1258 H 0.09965 0.92451 0.11501 0.0
S1259 S 1.01923 0.94201 0.21562 0.0
N1260 N 0.06532 0.93932 0.2191 0.0
N1261 N 1.01114 0.93871 0.1824 0.0
C1262 C 1.04674 0.93525 0.1725 0.0
C1263 C 0.07622 0.93546 0.19253 0.0
C1264 C 0.6834 0.86888 0.90876 0.0
C1265 C 0.68933 0.86295 0.93711 0.0
C1266 C 0.68312 0.83871 0.88971 0.0
C1267 C 0.68936 0.80146 0.8982 0.0
H1268 H 0.67771 0.89691 0.9013 0.0
H1269 H 0.67838 0.84465 0.86823 0.0
S1270 S 0.70607 0.77061 0.96998 0.0
N1271 N 0.70137 0.81658 0.97239 0.0
N1272 N 0.70131 0.7606 0.93712 0.0
C1273 C 0.69566 0.79537 0.92644 0.0
C1274 C 0.69554 0.82581 0.9457 0.0
C1275 C 0.52879 0.44804 0.19 0.0
C1276 C 0.49211 0.43899 0.18143 0.0
C1277 C 0.55888 0.44977 0.17133 0.0
C1278 C 0.5542 0.44175 0.1431 0.0
H1279 H 0.53446 0.45354 0.21146 0.0
H1280 H 0.58641 0.45687 0.17936 0.0
S1281 S 0.46391 0.41569 0.10992 0.0
N1282 N 0.45275 0.42169 0.14252 0.0
N1283 N 0.50948 0.4243 0.10764 0.0
C1284 C 0.51766 0.4326 0.13417 0.0
C1285 C 0.48669 0.43147 0.15321 0.0
C1286 C 0.91408 0.2768 0.43874 0.0
C1287 C 0.92492 0.24022 0.43136 0.0
C1288 C 0.91183 0.30575 0.41923 0.0
C1289 C 0.92122 0.30006 0.39133 0.0
H1290 H 0.90731 0.28323 0.45988 0.0
H1291 H 0.90307 0.33323 0.42632 0.0
S1292 S 0.95298 0.20977 0.36128 0.0
N1293 N 0.94589 0.19995 0.39397 0.0
N1294 N 0.94249 0.25465 0.35757 0.0
C1295 C 0.9326 0.26372 0.38364 0.0
C1296 C 0.93414 0.23383 0.4035 0.0
C1297 C 0.09008 0.67372 0.63687 0.0
C1298 C 1.05271 0.66701 0.64511 0.0
C1299 C 0.11994 0.67436 0.65619 0.0
C1300 C 0.11361 0.66888 0.68457 0.0
H1301 H 0.09639 0.67782 0.61537 0.0
H1302 H 0.14812 0.68004 0.64886 0.0
S1303 S 1.02063 0.65147 0.7168 0.0
N1304 N 1.01121 0.6554 0.68382 0.0
N1305 N 0.06657 0.65703 0.71956 0.0
C1306 C 0.07628 0.6625 0.69292 0.0
C1307 C 1.04616 0.66147 0.67339 0.0
C1308 C 0.68418 0.23441 0.6794 0.0
C1309 C 0.6933 0.23942 0.65141 0.0
C1310 C 0.6834 0.26504 0.69811 0.0
C1311 C 0.69234 0.30184 0.68969 0.0
H1312 H 0.67624 0.20684 0.68672 0.0
H1313 H 0.67604 0.25979 0.7193 0.0
S1314 S 0.71822 0.33 0.61872 0.0
N1315 N 0.71128 0.28429 0.61651 0.0
N1316 N 0.71061 0.34104 0.65111 0.0
C1317 C 0.70196 0.30689 0.66181 0.0
C1318 C 0.70224 0.27602 0.64288 0.0
C1319 C 0.12578 0.43305 0.93096 0.0
C1320 C 0.11844 0.43588 0.90247 0.0
C1321 C 0.09639 0.43331 0.95067 0.0
C1322 C 0.05847 0.43682 0.9427 0.0
H1323 H 0.15442 0.4297 0.93809 0.0
H1324 H 0.10347 0.43135 0.97221 0.0
S1325 S 1.02381 0.44458 0.87086 0.0
N1326 N 0.06993 0.44202 0.86773 0.0
N1327 N 1.01545 0.44249 0.90407 0.0
C1328 C 1.05095 0.43967 0.91429 0.0
C1329 C 0.0806 0.43924 0.89443 0.0
C1330 C 0.92654 0.86847 0.18205 0.0
C1331 C 0.92383 0.86044 0.15362 0.0
C1332 C 0.92643 0.83966 0.20206 0.0
C1333 C 0.92324 0.80165 0.19445 0.0
H1334 H 0.92934 0.89727 0.18895 0.0
H1335 H 0.92793 0.84725 0.22355 0.0
S1336 S 0.91675 0.76504 0.12309 0.0
N1337 N 0.91889 0.81102 0.11937 0.0
N1338 N 0.91849 0.75758 0.15642 0.0
C1339 C 0.9209 0.79334 0.16615 0.0
C1340 C 0.92123 0.82242 0.14594 0.0
C1341 C 0.51424 0.67658 0.45071 0.0
C1342 C 0.55244 0.6726 0.44367 0.0
C1343 C 0.48571 0.67674 0.43031 0.0
C1344 C 0.49418 0.67331 0.402 0.0
H1345 H 0.50624 0.6787 0.47208 0.0
H1346 H 0.45679 0.68022 0.4368 0.0
S1347 S 0.59018 0.6638 0.37281 0.0
N1348 N 0.59709 0.66617 0.40621 0.0
N1349 N 0.54424 0.66669 0.36849 0.0
C1350 C 0.53238 0.66985 0.39488 0.0
C1351 C 0.56116 0.66945 0.41549 0.0
C1352 C 0.41169 0.30741 0.16224 0.0
C1353 C 0.42181 0.3027 0.19009 0.0
C1354 C 0.4119 0.27736 0.14334 0.0
C1355 C 0.42114 0.24066 0.15142 0.0
H1356 H 0.40379 0.3349 0.15475 0.0
H1357 H 0.40461 0.28297 0.12219 0.0
S1358 S 0.45075 0.2127 0.22162 0.0
N1359 N 0.44242 0.25818 0.22446 0.0
N1360 N 0.44189 0.20153 0.18935 0.0
C1361 C 0.4313 0.23538 0.17923 0.0
C1362 C 0.43193 0.26633 0.19838 0.0
C1363 C 0.59183 0.67756 0.95366 0.0
C1364 C 0.55351 0.67566 0.94658 0.0
C1365 C 0.62021 0.67637 0.93324 0.0
C1366 C 0.6114 0.67347 0.90495 0.0
H1367 H 0.59998 0.67891 0.97503 0.0
H1368 H 0.6493 0.67828 0.9397 0.0
S1369 S 0.51499 0.66869 0.87584 0.0
N1370 N 0.50836 0.67139 0.90925 0.0
N1371 N 0.561 0.66947 0.87144 0.0
C1372 C 0.57309 0.67209 0.89782 0.0
C1373 C 0.54446 0.67309 0.91844 0.0
C1374 C 0.19861 0.79859 0.66672 0.0
C1375 C 0.18688 0.80301 0.69426 0.0
C1376 C 0.19715 0.8282 0.64776 0.0
C1377 C 0.18494 0.86418 0.65547 0.0
H1378 H 0.20854 0.77159 0.65947 0.0
H1379 H 0.20557 0.82278 0.62678 0.0
S1380 S 0.15059 0.89128 0.72471 0.0
N1381 N 0.16188 0.84652 0.72799 0.0
N1382 N 0.16007 0.90255 0.6926 0.0
C1383 C 0.17342 0.86933 0.68297 0.0
C1384 C 0.17408 0.83874 0.70223 0.0
C1385 C 1.01658 0.42981 0.44521 0.0
C1386 C 0.05422 0.43566 0.43734 0.0
C1387 C 0.98716 0.42932 0.42561 0.0
C1388 C 0.99419 0.43388 0.39724 0.0
H1389 H 1.00972 0.42614 0.46666 0.0
H1390 H 0.95874 0.42428 0.43271 0.0
S1391 S 0.08814 0.44866 0.3659 0.0
N1392 N 0.09681 0.4457 0.39906 0.0
N1393 N 1.04218 0.44377 0.36262 0.0
C1394 C 1.0318 0.43937 0.38922 0.0
C1395 C 0.06152 0.44052 0.40911 0.0
C1396 C 0.4262 0.87058 0.40686 0.0
C1397 C 0.41907 0.86368 0.43496 0.0
C1398 C 0.42689 0.84112 0.3872 0.0
C1399 C 0.41984 0.80362 0.3948 0.0
H1400 H 0.43242 0.89886 0.4001 0.0
H1401 H 0.43237 0.84781 0.36594 0.0
S1402 S 0.39993 0.77034 0.46556 0.0
N1403 N 0.40529 0.81615 0.46903 0.0
N1404 N 0.40582 0.7615 0.43263 0.0
C1405 C 0.41248 0.79657 0.42279 0.0
C1406 C 0.41229 0.82629 0.44267 0.0
C1407 C 0.98756 0.67588 0.15793 0.0
C1408 C 0.99509 0.67261 0.18636 0.0
C1409 C 1.01677 0.67629 0.13817 0.0
C1410 C 0.0547 0.67293 0.14601 0.0
H1411 H 0.95884 0.6788 0.15083 0.0
H1412 H 1.00953 0.67833 0.11666 0.0
S1413 S 0.09009 0.66496 0.2175 0.0
N1414 N 1.04396 0.66706 0.22092 0.0
N1415 N 0.09818 0.66726 0.18424 0.0
C1416 C 0.06254 0.66989 0.1743 0.0
C1417 C 1.03304 0.66987 0.1943 0.0
C1418 C 0.20168 0.3057 0.92342 0.0
C1419 C 0.19089 0.30173 0.89564 0.0
C1420 C 0.19828 0.27605 0.94233 0.0
C1421 C 0.18494 0.24049 0.93431 0.0
H1422 H 0.21229 0.33236 0.93089 0.0
H1423 H 0.20615 0.2811 0.96348 0.0
S1424 S 0.15262 0.21474 0.8642 0.0
N1425 N 0.16568 0.2591 0.86132 0.0
N1426 N 0.16033 0.20312 0.89648 0.0
C1427 C 0.17445 0.23584 0.90653 0.0
C1428 C 0.17709 0.26642 0.88736 0.0
C1429 C 0.54808 0.44519 0.67213 0.0
C1430 C 0.5529 0.43642 0.64408 0.0
C1431 C 0.57807 0.44401 0.6909 0.0
C1432 C 0.61479 0.43487 0.68257 0.0
H1433 H 0.5205 0.45247 0.67993 0.0
H1434 H 0.57229 0.45005 0.71227 0.0
S1435 S 0.64322 0.40974 0.61149 0.0
N1436 N 0.59763 0.41809 0.60897 0.0
N1437 N 0.65431 0.41663 0.64404 0.0
C1438 C 0.62033 0.42652 0.65449 0.0
C1439 C 0.5894 0.427 0.63537 0.0
C1440 C 0.07788 0.29033 0.22199 0.0
C1441 C 0.07091 0.25599 0.23544 0.0
C1442 C 1.05097 0.31895 0.22316 0.0
C1443 C 1.01598 0.31202 0.23536 0.0
H1444 H 0.1064 0.29797 0.21646 0.0
H1445 H 0.0597 0.34748 0.21886 0.0
S1446 S 0.97697 0.21996 0.25531 0.0
N1447 N 1.02186 0.21184 0.24895 0.0
N1448 N 0.97029 0.26484 0.24848 0.0
C1449 C 1.00523 0.27468 0.23974 0.0
C1450 C 1.03311 0.24617 0.24003 0.0
C1451 C 0.99625 0.81822 0.4964 0.0
C1452 C 1.00691 0.78149 0.48905 0.0
C1453 C 1.02367 0.8461 0.49911 0.0
C1454 C 0.06159 0.83755 0.49408 0.0
H1455 H 0.96899 0.82372 0.50542 0.0
H1456 H 1.0163 0.87172 0.50987 0.0
S1457 S 0.09755 0.7538 0.4579 0.0
N1458 N 1.05265 0.74451 0.46359 0.0
N1459 N 0.10512 0.79634 0.47042 0.0
C1460 C 0.06995 0.80505 0.47919 0.0
C1461 C 1.04172 0.77713 0.47566 0.0
C1462 C 0.56141 0.83926 0.72839 0.0
C1463 C 0.52458 0.82603 0.73276 0.0
C1464 C 0.59112 0.81353 0.72681 0.0
C1465 C 0.58407 0.77537 0.73271 0.0
H1466 H 0.56839 0.8686 0.73117 0.0
H1467 H 0.61954 0.82448 0.72786 0.0
S1468 S 0.49224 0.72885 0.72009 0.0
N1469 N 0.48243 0.77412 0.72202 0.0
N1470 N 0.53828 0.72548 0.72411 0.0
C1471 C 0.54769 0.76229 0.72651 0.0
C1472 C 0.51757 0.78845 0.72544 0.0
C1473 C 0.50481 0.30763 0.98442 0.0
C1474 C 0.51963 0.27117 0.98365 0.0
C1475 C 0.52896 0.33839 0.98524 0.0
C1476 C 0.56844 0.33326 0.98504 0.0
H1477 H 0.47567 0.31265 0.98962 0.0
H1478 H 0.51597 0.36478 0.99049 0.0
S1479 S 0.61558 0.2469 0.96003 0.0
N1480 N 0.57173 0.2339 0.96613 0.0
N1481 N 0.61767 0.29227 0.96716 0.0
C1482 C 0.58148 0.2987 0.97472 0.0
C1483 C 0.55665 0.2673 0.97388 0.0
C1484 C 1.04792 0.78176 0.36187 0.0
C1485 C 1.0129 0.78748 0.34938 0.0
C1486 C 0.07451 0.81081 0.36238 0.0
C1487 C 0.06721 0.84459 0.34829 0.0
H1488 H 0.05693 0.75361 0.36704 0.0
H1489 H 0.10301 0.80393 0.36842 0.0
S1490 S 0.97319 0.87769 0.32616 0.0
N1491 N 0.96694 0.83318 0.33435 0.0
N1492 N 1.01784 0.8869 0.33271 0.0
C1493 C 1.02938 0.85334 0.34281 0.0
C1494 C 1.00184 0.82439 0.34374 0.0
C1495 C 0.51039 0.78376 0.59646 0.0
C1496 C 0.52017 0.82188 0.5993 0.0
C1497 C 0.53816 0.75618 0.59849 0.0
C1498 C 0.57586 0.76676 0.60251 0.0
H1499 H 0.48358 0.77559 0.58772 0.0
H1500 H 0.53148 0.7282 0.59114 0.0
S1501 S 0.6095 0.85874 0.62764 0.0
N1502 N 0.56469 0.86554 0.62008 0.0
N1503 N 0.61798 0.81398 0.62108 0.0
C1504 C 0.5832 0.80254 0.61307 0.0
C1505 C 0.55458 0.83029 0.61226 0.0
C1506 C 0.53463 0.34251 0.84676 0.0
C1507 C 0.57323 0.33447 0.84903 0.0
C1508 C 0.50829 0.31348 0.84895 0.0
C1509 C 0.52067 0.27635 0.85249 0.0
H1510 H 0.52521 0.36887 0.83816 0.0
H1511 H 0.47989 0.31882 0.84187 0.0
S1512 S 0.61462 0.24722 0.87659 0.0
N1513 N 0.61928 0.29224 0.86917 0.0
N1514 N 0.57008 0.23662 0.87051 0.0
C1515 C 0.5569 0.27076 0.86284 0.0
C1516 C 0.58337 0.30065 0.86191 0.0
C1517 C 0.09858 0.30922 0.10185 0.0
C1518 C 0.08493 0.27233 0.10335 0.0
C1519 C 0.07338 0.33896 0.09982 0.0
C1520 C 1.03411 0.33249 0.10038 0.0
H1521 H 0.12761 0.31484 0.09654 0.0
H1522 H 0.08515 0.36554 0.09344 0.0
S1523 S 0.98877 0.24502 0.12459 0.0
N1524 N 1.03352 0.23378 0.12044 0.0
N1525 N 0.98537 0.28998 0.11666 0.0
C1526 C 1.02183 0.29777 0.11061 0.0
C1527 C 1.04783 0.26756 0.11282 0.0
C1528 C 0.07575 0.79243 0.86224 0.0
C1529 C 0.06845 0.75818 0.84857 0.0
C1530 C 1.0495 0.82164 0.86083 0.0
C1531 C 1.01464 0.81553 0.84816 0.0
H1532 H 0.10422 0.79939 0.86842 0.0
H1533 H 0.05866 0.84995 0.86558 0.0
S1534 S 0.9745 0.72453 0.82635 0.0
N1535 N 1.01894 0.71536 0.83354 0.0
N1536 N 0.96857 0.76946 0.8335 0.0
C1537 C 1.00337 0.77847 0.84304 0.0
C1538 C 1.03063 0.74934 0.84302 0.0
C1539 C 1.00709 0.30713 0.6072 0.0
C1540 C 1.02048 0.27006 0.60518 0.0
C1541 C 1.03276 0.33699 0.60656 0.0
C1542 C 0.07123 0.32945 0.60199 0.0
H1543 H 0.97773 0.31353 0.60376 0.0
H1544 H 1.02178 0.36498 0.60324 0.0
S1545 S 0.11754 0.23982 0.6206 0.0
N1546 N 0.07216 0.22979 0.61929 0.0
N1547 N 0.12107 0.28504 0.6135 0.0
C1548 C 0.08421 0.29407 0.61049 0.0
C1549 C 0.05789 0.26426 0.61355 0.0
C1550 C 0.56052 0.28711 0.35629 0.0
C1551 C 0.59432 0.2928 0.34215 0.0
C1552 C 0.53502 0.3168 0.35919 0.0
C1553 C 0.54177 0.35087 0.34529 0.0
H1554 H 0.55127 0.2589 0.36114 0.0
H1555 H 0.50691 0.3102 0.36629 0.0
S1556 S 0.63445 0.38347 0.32008 0.0
N1557 N 0.64006 0.33826 0.32622 0.0
N1558 N 0.59083 0.39329 0.32924 0.0
C1559 C 0.57929 0.3593 0.33862 0.0
C1560 C 0.6059 0.3297 0.33702 0.0
C1561 C 0.55516 0.8296 0.11387 0.0
C1562 C 0.58919 0.81949 0.10093 0.0
C1563 C 0.52529 0.80397 0.11454 0.0
C1564 C 0.5304 0.76754 0.10426 0.0
H1565 H 0.54892 0.85892 0.1177 0.0
H1566 H 0.49717 0.81446 0.11833 0.0
S1567 S 0.62049 0.72231 0.08634 0.0
N1568 N 0.63081 0.76727 0.08997 0.0
N1569 N 0.57538 0.71847 0.09388 0.0
C1570 C 0.56728 0.75461 0.10065 0.0
C1571 C 0.59712 0.78099 0.09846 0.0
C1572 C 1.03269 0.34531 0.74477 0.0
C1573 C 0.07059 0.33615 0.73996 0.0
C1574 C 1.00518 0.31727 0.74368 0.0
C1575 C 1.01559 0.27992 0.73836 0.0
H1576 H 1.02515 0.37177 0.75427 0.0
H1577 H 0.97781 0.32339 0.75238 0.0
S1578 S 0.10568 0.24813 0.70878 0.0
N1579 N 0.11282 0.29271 0.71678 0.0
N1580 N 0.06158 0.23892 0.71717 0.0
C1581 C 1.05058 0.27325 0.72626 0.0
C1582 C 0.07816 0.30215 0.72625 0.0
C1583 C 0.5311 0.30288 0.47818 0.0
C1584 C 0.53638 0.33775 0.49098 0.0
C1585 C 0.56126 0.27781 0.47616 0.0
C1586 C 0.5955 0.28634 0.4895 0.0
H1587 H 0.50294 0.29268 0.47401 0.0
H1588 H 0.5551 0.24911 0.47019 0.0
S1589 S 0.62648 0.38111 0.51147 0.0
N1590 N 0.58115 0.38545 0.50492 0.0
N1591 N 0.63712 0.33721 0.50382 0.0
C1592 C 0.60331 0.3244 0.4947 0.0
C1593 C 0.5732 0.3505 0.49524 0.0
C1594 C 0.59052 0.78159 0.22775 0.0
C1595 C 0.58331 0.82006 0.23244 0.0
C1596 C 0.56047 0.75609 0.22766 0.0
C1597 C 0.52345 0.76962 0.23001 0.0
H1598 H 0.61863 0.77054 0.23062 0.0
H1599 H 0.56685 0.72679 0.23112 0.0
S1600 S 0.49306 0.86663 0.21542 0.0
N1601 N 0.53864 0.86994 0.2217 0.0
N1602 N 0.48285 0.8214 0.2168 0.0
C1603 C 0.51753 0.80699 0.22189 0.0
C1604 C 0.54764 0.83312 0.22447 0.0
C1605 C 0.07029 0.85382 0.99158 0.0
C1606 C 1.03322 0.84156 0.98686 0.0
C1607 C 0.09967 0.82777 0.99194 0.0
C1608 C 0.09189 0.78957 0.98723 0.0
H1609 H 0.07533 0.88128 1.00051 0.0
H1610 H 0.12599 0.83636 1.00126 0.0
S1611 S 1.00486 0.75047 0.95701 0.0
N1612 N 0.99381 0.79393 0.96581 0.0
N1613 N 1.05006 0.7456 0.96413 0.0
C1614 C 0.05819 0.78064 0.97352 0.0
C1615 C 1.02793 0.80663 0.9743 0.0
C1616 C 0.31839 0.27791 0.30935 0.0
C1617 C 0.28176 0.27179 0.29902 0.0
C1618 C 0.34071 0.30862 0.30076 0.0
C1619 C 0.32764 0.33513 0.28146 0.0
H1620 H 0.3299 0.25905 0.32456 0.0
H1621 H 0.36877 0.3113 0.30921 0.0
S1622 S 0.23374 0.33247 0.24781 0.0
N1623 N 0.23362 0.29545 0.26807 0.0
N1624 N 0.27513 0.35265 0.25223 0.0
C1625 C 0.29103 0.3294 0.27097 0.0
C1626 C 0.26834 0.29802 0.27961 0.0
C1627 C 1.02988 1.0384 0.52363 0.0
C1628 C 1.02417 0.07525 0.53355 0.0
C1629 C 0.05968 1.01561 0.5332 0.0
C1630 C 0.08561 1.02843 0.55314 0.0
H1631 H 1.01136 1.02702 0.50804 0.0
H1632 H 0.06206 0.9874 0.52505 0.0
S1633 S 0.08421 0.12304 0.58565 0.0
N1634 N 1.04791 0.12348 0.56455 0.0
N1635 N 0.10341 0.08114 0.5822 0.0
C1636 C 0.08039 0.06532 0.56313 0.0
C1637 C 1.04995 0.08847 0.55349 0.0
C1638 C 0.34138 0.80388 0.78332 0.0
C1639 C 0.32896 0.83083 0.80265 0.0
C1640 C 0.31822 0.7737 0.77461 0.0
C1641 C 0.28145 0.76855 0.78492 0.0
H1642 H 0.36952 0.80583 0.77494 0.0
H1643 H 0.32922 0.75445 0.75938 0.0
S1644 S 0.23479 0.83109 0.83586 0.0
N1645 N 0.27674 0.85006 0.83158 0.0
N1646 N 0.23385 0.79381 0.8157 0.0
C1647 C 0.26872 0.79527 0.80432 0.0
C1648 C 0.29216 0.82613 0.81299 0.0
C1649 C 0.54452 0.08281 1.03443 0.0
C1650 C 0.51789 0.0702 0.05389 0.0
C1651 C 0.57545 0.06053 1.02623 0.0
C1652 C 0.58168 1.02442 1.03713 0.0
H1653 H 0.54186 0.11054 1.0256 0.0
H1654 H 0.59448 0.07173 1.01096 0.0
S1655 S 0.52013 0.97733 0.08837 0.0
N1656 N 0.49996 1.01848 0.0835 0.0
N1657 N 0.55757 0.97694 0.06839 0.0
C1658 C 0.55519 1.01136 0.05657 0.0
C1659 C 0.52358 1.03403 0.06481 0.0
C1660 C 0.29169 0.77764 0.31199 0.0
C1661 C 0.3281 0.77171 0.30134 0.0
C1662 C 0.26926 0.80828 0.3036 0.0
C1663 C 0.28206 0.83488 0.28425 0.0
H1664 H 0.28046 0.7587 0.32727 0.0
H1665 H 0.24133 0.81083 0.31226 0.0
S1666 S 0.37538 0.83268 0.24988 0.0
N1667 N 0.37576 0.79557 0.27004 0.0
N1668 N 0.3341 0.85276 0.2547 0.0
C1669 C 0.31849 0.82938 0.2735 0.0
C1670 C 0.34124 0.79803 0.28187 0.0
C1671 C 0.5803 1.03967 0.56189 0.0
C1672 C 0.58559 0.07635 0.55159 0.0
C1673 C 0.54959 1.01685 0.55365 0.0
C1674 C 0.52215 1.02948 0.53481 0.0
H1675 H 0.59998 1.02839 0.57668 0.0
H1676 H 0.54769 0.98874 0.56194 0.0
S1677 S 0.52165 0.12376 0.50219 0.0
N1678 N 0.55965 0.12428 0.52163 0.0
N1679 N 0.50244 0.08198 0.50654 0.0
C1680 C 0.52689 0.06626 0.52456 0.0
C1681 C 0.5583 0.08939 0.53279 0.0
C1682 C 0.33951 0.29354 0.80409 0.0
C1683 C 0.32764 0.26772 0.78374 0.0
C1684 C 0.31675 0.324 0.8126 0.0
C1685 C 0.28087 0.33061 0.80113 0.0
H1686 H 0.36697 0.29052 0.81344 0.0
H1687 H 0.32737 0.34236 0.82858 0.0
S1688 S 0.2359 0.27156 0.74713 0.0
N1689 N 0.27694 0.25123 0.75244 0.0
N1690 N 0.23463 0.30793 0.76816 0.0
C1691 C 0.26861 0.305 0.78075 0.0
C1692 C 0.29173 0.27386 0.77219 0.0
C1693 C 0.07481 1.03881 1.02351 0.0
C1694 C 0.08192 0.07496 1.03424 0.0
C1695 C 1.04462 1.01648 1.03301 0.0
C1696 C 1.01965 1.02912 0.05364 0.0
H1697 H 0.09249 1.02769 1.00735 0.0
H1698 H 1.04111 0.98875 1.02419 0.0
S1699 S 1.02531 0.12177 0.08871 0.0
N1700 N 0.06084 0.12226 0.06696 0.0
N1701 N 1.00452 0.08071 0.08442 0.0
C1702 C 1.02628 0.0653 0.06445 0.0
C1703 C 0.05718 0.08797 0.05492 0.0
C1704 C 0.76574 0.79494 0.78402 0.0
C1705 C 0.77819 0.76867 0.80373 0.0
C1706 C 0.78856 0.82519 0.77529 0.0
C1707 C 0.82507 0.83104 0.78586 0.0
H1708 H 0.73776 0.79247 0.77539 0.0
H1709 H 0.77751 0.84391 0.75981 0.0
S1710 S 0.87156 0.77074 0.83802 0.0
N1711 N 0.83001 0.75098 0.83346 0.0
N1712 N 0.87248 0.80737 0.81741 0.0
C1713 C 0.8379 0.805 0.80561 0.0
C1714 C 0.81471 0.77408 0.81439 0.0
C1715 C 0.83719 0.30541 0.27871 0.0
C1716 C 0.8256 0.33037 0.29968 0.0
C1717 C 0.81444 0.27503 0.26984 0.0
C1718 C 0.77889 0.26768 0.28158 0.0
H1719 H 0.86439 0.30911 0.26909 0.0
H1720 H 0.82476 0.2574 0.25336 0.0
S1721 S 0.73509 0.32393 0.33753 0.0
N1722 N 0.77573 0.34502 0.33201 0.0
N1723 N 0.73347 0.28842 0.31574 0.0
C1724 C 0.76701 0.29232 0.30268 0.0
C1725 C 0.79009 0.32338 0.31157 0.0
C1726 C 0.81228 0.32679 0.77563 0.0
C1727 C 0.77585 0.33303 0.78622 0.0
C1728 C 0.83471 0.29624 0.78431 0.0
C1729 C 0.82191 0.26997 0.80391 0.0
H1730 H 0.82356 0.34544 0.76018 0.0
H1731 H 0.86259 0.29343 0.77562 0.0
S1732 S 0.72858 0.273 0.83826 0.0
N1733 N 0.7282 0.30974 0.81774 0.0
N1734 N 0.76986 0.2528 0.83367 0.0
C1735 C 0.78549 0.27581 0.81463 0.0
C1736 C 0.76273 0.30706 0.80595 0.0
C1737 C 0.8111 0.82315 0.31263 0.0
C1738 C 0.77494 0.82921 0.30155 0.0
C1739 C 0.83413 0.79311 0.30377 0.0
C1740 C 0.82224 0.76725 0.28345 0.0
H1741 H 0.82173 0.84159 0.32856 0.0
H1742 H 0.86181 0.79046 0.31285 0.0
S1743 S 0.72991 0.77 0.24765 0.0
N1744 N 0.72845 0.80615 0.26887 0.0
N1745 N 0.77131 0.7502 0.25253 0.0
C1746 C 0.78606 0.77287 0.27227 0.0
C1747 C 0.76267 0.80358 0.28117 0.0
C1748 C 0.56617 0.52378 1.03209 0.0
C1749 C 0.58946 0.53458 0.05433 0.0
C1750 C 0.53464 0.5452 1.0239 0.0
C1751 C 0.52453 0.57882 1.03737 0.0
H1752 H 0.57199 0.49811 1.02095 0.0
H1753 H 0.51843 0.53552 1.00644 0.0
S1754 S 0.57562 0.62014 0.09692 0.0
N1755 N 0.59947 0.58163 0.08975 0.0
N1756 N 0.54102 0.62183 0.07436 0.0
C1757 C 0.54761 0.5901 0.0596 0.0
C1758 C 0.57969 0.56815 0.06801 0.0
C1759 C 1.04372 0.58021 0.53523 0.0
C1760 C 1.01756 0.56786 0.55509 0.0
C1761 C 0.07382 0.5574 0.52621 0.0
C1762 C 0.07968 0.52091 0.5366 0.0
H1763 H 1.0413 0.60812 0.52666 0.0
H1764 H 0.09249 0.5685 0.51067 0.0
S1765 S 1.0196 0.4745 0.58901 0.0
N1766 N 1.0 0.51609 0.58486 0.0
N1767 N 0.05603 0.47353 0.56805 0.0
C1768 C 0.05374 0.50811 0.55648 0.0
C1769 C 1.02297 0.53135 0.56562 0.0
C1770 C 0.0715 0.55005 0.06121 0.0
C1771 C 0.08114 0.58423 0.04851 0.0
C1772 C 1.04082 0.52809 0.05216 0.0
C1773 C 1.01804 0.5388 1.02973 0.0
H1774 H 0.08748 0.54024 0.07869 0.0
H1775 H 1.03529 0.50209 0.06282 0.0
S1776 S 1.03033 0.6263 0.98936 0.0
N1777 N 0.06434 0.6282 1.01241 0.0
N1778 N 1.00745 0.58675 0.99525 0.0
C1779 C 1.02708 0.57314 1.01694 0.0
C1780 C 0.05831 0.59572 1.02628 0.0
C1781 C 0.52598 0.56042 0.56319 0.0
C1782 C 0.51879 0.52479 0.55147 0.0
C1783 C 0.55641 0.58313 0.55456 0.0
C1784 C 0.58165 0.5715 0.53383 0.0
H1785 H 0.50818 0.57085 0.57952 0.0
H1786 H 0.55994 0.61033 0.56421 0.0
S1787 S 0.57569 0.48088 0.49599 0.0
N1788 N 0.53997 0.47924 0.51757 0.0
N1789 N 0.59668 0.52154 0.5016 0.0
C1790 C 0.57484 0.53593 0.52191 0.0
C1791 C 0.54368 0.51283 0.53059 0.0
C1792 C 0.3857 0.18261 0.43011 0.0
C1793 C 0.35193 0.18632 0.44494 0.0
C1794 C 0.40992 0.15294 0.43584 0.0
C1795 C 0.40109 0.128 0.45702 0.0
H1796 H 0.38967 0.19733 0.41092 0.0
H1797 H 0.43174 0.14622 0.42112 0.0
S1798 S 0.32816 0.14012 0.51029 0.0
N1799 N 0.31955 0.17346 0.48766 0.0
N1800 N 0.36612 0.11808 0.49921 0.0
C1801 C 0.3737 0.13832 0.4763 0.0
C1802 C 0.34886 0.16817 0.47023 0.0
C1803 C 0.25221 0.16417 0.62245 0.0
C1804 C 0.25461 0.1821 0.64799 0.0
C1805 C 0.22494 0.13665 0.61818 0.0
C1806 C 0.20018 0.12702 0.63948 0.0
H1807 H 0.2751 0.16648 0.60788 0.0
H1808 H 0.22729 0.11884 0.60021 0.0
S1809 S 0.18532 0.17792 0.70455 0.0
N1810 N 0.2223 0.19821 0.69044 0.0
N1811 N 0.17142 0.14545 0.68251 0.0
C1812 C 0.1967 0.15096 0.66202 0.0
C1813 C 0.22408 0.17932 0.66621 0.0
C1814 C 0.1898 1.00001 0.86907 0.0
C1815 C 0.17136 0.99982 0.89446 0.0
C1816 C 0.21921 0.97504 0.86442 0.0
C1817 C 0.22981 0.94963 0.885 0.0
H1818 H 0.18644 1.02355 0.85527 0.0
H1819 H 0.23719 0.97952 0.84679 0.0
S1820 S 0.17759 0.92694 0.94824 0.0
N1821 N 0.15564 0.96356 0.93515 0.0
N1822 N 0.21167 0.9168 0.92648 0.0
C1823 C 0.20541 0.94313 0.90691 0.0
C1824 C 0.17527 0.96829 0.9115 0.0
C1825 C 0.38259 0.92055 0.15619 0.0
C1826 C 0.34949 0.91802 0.14039 0.0
C1827 C 0.40739 0.95031 0.152 0.0
C1828 C 0.39989 0.97633 0.13128 0.0
H1829 H 0.38539 0.90487 0.17508 0.0
H1830 H 0.42847 0.95616 0.1675 0.0
S1831 S 0.32987 0.96739 0.07558 0.0
N1832 N 0.31967 0.93306 0.09706 0.0
N1833 N 0.36743 0.98855 0.08834 0.0
C1834 C 0.37355 0.96713 0.1109 0.0
C1835 C 0.34808 0.93724 0.11546 0.0
C1836 C 0.72198 0.92035 0.65757 0.0
C1837 C 0.75511 0.9164 0.64203 0.0
C1838 C 0.69709 0.94945 0.65176 0.0
C1839 C 0.70476 0.97369 0.62992 0.0
H1840 H 0.71905 0.9063 0.67713 0.0
H1841 H 0.67584 0.95653 0.66682 0.0
S1842 S 0.77581 0.96063 0.57545 0.0
N1843 N 0.78576 0.92824 0.59851 0.0
N1844 N 0.73799 0.98258 0.58688 0.0
C1845 C 0.73152 0.96301 0.61028 0.0
C1846 C 0.75704 0.93378 0.61642 0.0
C1847 C 0.93013 0.97244 0.40465 0.0
C1848 C 0.93257 1.00544 0.38893 0.0
C1849 C 0.90074 0.94725 0.40012 0.0
C1850 C 0.87464 0.95443 0.37931 0.0
H1851 H 0.94597 0.96968 0.42353 0.0
H1852 H 0.89524 0.92587 0.41536 0.0
S1853 S 0.88191 1.0256 0.32461 0.0
N1854 N 0.91634 1.03592 0.34613 0.0
N1855 N 0.86142 0.98756 0.33692 0.0
C1856 C 0.88316 0.9814 0.35937 0.0
C1857 C 0.91273 1.00721 0.36421 0.0
C1858 C 0.93335 0.13025 0.17881 0.0
C1859 C 0.93583 0.09855 0.19593 0.0
C1860 C 0.90382 0.15555 0.18221 0.0
C1861 C 0.87782 0.14992 0.20331 0.0
H1862 H 0.94905 0.1315 0.1598 0.0
H1863 H 0.89807 0.17546 0.16599 0.0
S1864 S 0.88572 0.08376 0.26121 0.0
N1865 N 0.9201 0.07185 0.24014 0.0
N1866 N 0.86501 0.12051 0.24721 0.0
C1867 C 0.88666 0.12492 0.2245 0.0
C1868 C 0.91631 0.09894 0.2208 0.0
C1869 C 0.69654 0.15251 0.93729 0.0
C1870 C 0.70388 0.12746 0.95868 0.0
C1871 C 0.72207 0.18125 0.9318 0.0
C1872 C 0.75551 0.184 0.94718 0.0
H1873 H 0.67486 0.14636 0.9223 0.0
H1874 H 0.71919 0.19599 0.91251 0.0
S1875 S 0.77626 0.13689 1.0127 0.0
N1876 N 0.73763 0.11629 1.00122 0.0
N1877 N 0.7866 0.1699 0.99019 0.0
C1878 C 0.75741 0.16571 0.97245 0.0
C1879 C 0.73124 0.13685 0.97827 0.0
C1880 C 0.88011 0.62096 0.86104 0.0
C1881 C 0.87365 0.64742 0.88194 0.0
C1882 C 0.90906 0.59493 0.86372 0.0
C1883 C 0.93113 0.59505 0.88754 0.0
H1884 H 0.8595 0.61676 0.84494 0.0
H1885 H 0.90945 0.57093 0.85002 0.0
S1886 S 0.93575 0.66995 0.94042 0.0
N1887 N 0.89907 0.68076 0.92127 0.0
N1888 N 0.9542 0.63209 0.92624 0.0
C1889 C 0.931 0.62732 0.90433 0.0
C1890 C 0.90136 0.65356 0.90173 0.0
C1891 C 0.70435 0.64818 0.15047 0.0
C1892 C 0.71225 0.62129 0.13029 0.0
C1893 C 0.72846 0.67869 0.15394 0.0
C1894 C 0.76145 0.6812 0.13806 0.0
H1895 H 0.68336 0.64279 0.16607 0.0
H1896 H 0.7253 0.69528 0.17246 0.0
S1897 S 0.78176 0.62922 0.07423 0.0
N1898 N 0.74477 0.60783 0.08751 0.0
N1899 N 0.7914 0.66467 0.09503 0.0
C1900 C 0.76324 0.66068 0.11361 0.0
C1901 C 0.73842 0.63001 0.10974 0.0
C1902 C 0.71915 0.4704 0.36923 0.0
C1903 C 0.73061 0.446 0.3902 0.0
C1904 C 0.69064 0.49632 0.37409 0.0
C1905 C 0.6736 0.49787 0.39995 0.0
H1906 H 0.736 0.47337 0.35085 0.0
H1907 H 0.6867 0.51898 0.3596 0.0
S1908 S 0.68332 0.42929 0.45636 0.0
N1909 N 0.71541 0.41679 0.43365 0.0
N1910 N 0.66086 0.46524 0.44274 0.0
C1911 C 0.67862 0.46775 0.41814 0.0
C1912 C 0.70795 0.44171 0.41333 0.0
C1913 C 0.90517 0.44841 0.69306 0.0
C1914 C 0.87782 0.45648 0.71284 0.0
C1915 C 0.93404 0.47408 0.68836 0.0
C1916 C 0.93452 0.50845 0.70273 0.0
H1917 H 0.90092 0.42588 0.6784 0.0
H1918 H 0.95066 0.4703 0.66995 0.0
S1919 S 0.88134 0.5312 0.76555 0.0
N1920 N 0.86224 0.4919 0.75397 0.0
N1921 N 0.91627 0.54103 0.74441 0.0
C1922 C 0.91404 0.5111 0.72714 0.0
C1923 C 0.88496 0.48484 0.73218 0.0
C1924 C 0.24503 0.439 0.12185 0.0
C1925 C 0.24712 0.4228 0.14793 0.0
C1926 C 0.21836 0.46668 0.11675 0.0
C1927 C 0.19387 0.47817 0.13774 0.0
H1928 H 0.2678 0.43526 0.10734 0.0
H1929 H 0.22105 0.48324 0.09824 0.0
S1930 S 0.17836 0.43226 0.20447 0.0
N1931 N 0.21485 0.41034 0.19097 0.0
N1932 N 0.16503 0.4634 0.18142 0.0
C1933 C 0.19006 0.45597 0.16108 0.0
C1934 C 0.21686 0.42746 0.16615 0.0
C1935 C 0.43446 0.47563 0.90933 0.0
C1936 C 0.43676 0.50872 0.89369 0.0
C1937 C 0.40643 0.4493 0.90371 0.0
C1938 C 0.38148 0.45554 0.88202 0.0
H1939 H 0.44915 0.47339 0.92872 0.0
H1940 H 0.4007 0.4277 0.91874 0.0
S1941 S 0.38923 0.5275 0.82787 0.0
N1942 N 0.4219 0.53894 0.85053 0.0
N1943 N 0.36956 0.48855 0.83937 0.0
C1944 C 0.39019 0.48299 0.86246 0.0
C1945 C 0.41834 0.50995 0.86837 0.0
C1946 C 0.41188 0.65092 0.65592 0.0
C1947 C 0.4066 0.62649 0.63374 0.0
C1948 C 0.38591 0.67948 0.66062 0.0
C1949 C 0.35409 0.68271 0.64358 0.0
H1950 H 0.43202 0.6443 0.67187 0.0
H1951 H 0.38696 0.69373 0.68027 0.0
S1952 S 0.33951 0.63711 0.57641 0.0
N1953 N 0.37693 0.61625 0.58945 0.0
N1954 N 0.32704 0.66953 0.59892 0.0
C1955 C 0.35446 0.66492 0.61801 0.0
C1956 C 0.38115 0.6363 0.613 0.0
C1957 C 0.19938 0.64917 0.43636 0.0
C1958 C 0.20691 0.62469 0.45807 0.0
C1959 C 0.22513 0.67733 0.43002 0.0
C1960 C 0.25886 0.68039 0.445 0.0
H1961 H 0.17717 0.64295 0.4218 0.0
H1962 H 0.22184 0.6916 0.41058 0.0
S1963 S 0.28087 0.6348 0.51088 0.0
N1964 N 0.24178 0.61424 0.50024 0.0
N1965 N 0.29102 0.667 0.48773 0.0
C1966 C 0.26141 0.6625 0.4704 0.0
C1967 C 0.23507 0.63414 0.47703 0.0
C1968 C 0.21524 0.08424 0.27654 0.0
C1969 C 0.21525 0.08996 0.30531 0.0
C1970 C 0.21537 1.0476 0.26443 0.0
C1971 C 0.21395 1.01427 0.28026 0.0
H1972 H 0.21548 0.1084 0.26313 0.0
H1973 H 0.21561 1.04545 0.24228 0.0
S1974 S 0.21224 1.01278 0.35647 0.0
N1975 N 0.21398 0.05801 0.34916 0.0
N1976 N 0.21202 0.99039 0.32675 0.0
C1977 C 0.21335 1.01966 0.30901 0.0
C1978 C 0.21459 0.05688 0.32135 0.0
C1979 C 0.28397 0.98806 0.55067 0.0
C1980 C 0.26489 0.95444 0.55767 0.0
C1981 C 0.32085 0.98813 0.53895 0.0
C1982 C 0.34174 0.95471 0.53468 0.0
H1983 H 0.26996 1.0147 0.5538 0.0
H1984 H 0.33334 1.01483 0.53349 0.0
S1985 S 0.30588 0.85895 0.55018 0.0
N1986 N 0.27067 0.88662 0.55911 0.0
N1987 N 0.33961 0.88688 0.53893 0.0
C1988 C 0.32324 0.92104 0.54214 0.0
C1989 C 0.28524 0.92087 0.55308 0.0
C1990 C 0.3673 0.06727 0.78551 0.0
C1991 C 0.40059 0.08668 0.77807 0.0
C1992 C 0.36797 1.0306 0.79747 0.0
C1993 C 0.40183 1.01029 0.80161 0.0
H1994 H 0.34038 0.08088 0.78266 0.0
H1995 H 0.34149 1.01787 0.80331 0.0
S1996 S 0.49697 1.04729 0.78493 0.0
N1997 N 0.46859 0.08186 0.77603 0.0
N1998 N 0.46966 1.01337 0.79664 0.0
C1999 C 0.43515 1.02912 0.79364 0.0
C2000 C 0.43457 0.06688 0.78244 0.0
C2001 C 0.2958 0.14249 1.0135 0.0
C2002 C 0.26241 0.14241 1.02943 0.0
C2003 C 0.33251 0.14376 1.02554 0.0
C2004 C 0.33825 0.14353 0.0543 0.0
H2005 H 0.29359 0.14259 0.99136 0.0
H2006 H 0.35671 0.14451 1.01208 0.0
S2007 S 0.26086 0.14264 0.10563 0.0
N2008 N 0.23844 0.14264 0.07595 0.0
N2009 N 0.3062 0.14274 0.09822 0.0
C2010 C 0.30509 0.14267 0.0704 0.0
C2011 C 0.26779 0.14274 0.05816 0.0
C2012 C 0.88888 1.04569 0.76618 0.0
C2013 C 0.89076 1.01226 0.78188 0.0
C2014 C 0.88911 0.08229 0.7784 0.0
C2015 C 0.88965 0.08791 0.80719 0.0
H2016 H 0.88827 1.04365 0.74403 0.0
H2017 H 0.88856 0.10651 0.76505 0.0
S2018 S 0.8939 1.01043 0.85808 0.0
N2019 N 0.89364 0.9882 0.8283 0.0
N2020 N 0.89185 0.0557 0.85092 0.0
C2021 C 0.89071 0.05472 0.82311 0.0
C2022 C 0.89185 1.01755 0.81065 0.0
C2023 C 0.78743 0.17839 0.54486 0.0
C2024 C 0.76797 0.14496 0.55175 0.0
C2025 C 0.82451 0.17823 0.53354 0.0
C2026 C 0.84409 0.14461 0.52734 0.0
H2027 H 0.77419 0.20522 0.54884 0.0
H2028 H 0.83776 0.20494 0.52915 0.0
S2029 S 0.80623 1.04901 0.54056 0.0
N2030 N 0.77235 0.07697 0.55154 0.0
N2031 N 0.83999 0.07667 0.52897 0.0
C2032 C 0.82468 0.11098 0.53362 0.0
C2033 C 0.78748 0.11116 0.5461 0.0
C2034 C 0.70514 1.04276 0.31864 0.0
C2035 C 0.70464 1.00968 0.30232 0.0
C2036 C 0.7051 0.07965 0.30711 0.0
C2037 C 0.70621 0.08594 0.27846 0.0
H2038 H 0.70474 1.04018 0.34075 0.0
H2039 H 0.70473 0.10354 0.32089 0.0
S2040 S 0.70619 1.00964 0.22614 0.0
N2041 N 0.70486 0.98666 0.2555 0.0
N2042 N 0.70711 0.05475 0.23414 0.0
C2043 C 0.70646 0.0531 0.26194 0.0
C2044 C 0.70507 1.0156 0.27367 0.0
C2045 C 0.8069 0.95735 0.07626 0.0
C2046 C 0.84015 0.95928 0.06024 0.0
C2047 C 0.77016 0.9559 0.06429 0.0
C2048 C 0.76427 0.95778 1.03559 0.0
H2049 H 0.80929 0.95592 0.09836 0.0
H2050 H 0.74607 0.95367 0.07776 0.0
S2051 S 0.84126 0.9639 0.98413 0.0
N2052 N 0.86385 0.96262 1.01372 0.0
N2053 N 0.79599 0.96215 0.99165 0.0
C2054 C 0.79728 0.96051 1.01944 0.0
C2055 C 0.83461 0.96064 1.03155 0.0
C2056 C 0.70199 0.5572 0.82219 0.0
C2057 C 0.70289 0.59021 0.80595 0.0
C2058 C 0.70145 0.52027 0.81055 0.0
C2059 C 0.70339 0.51385 0.78191 0.0
H2060 H 0.70096 0.5599 0.8443 0.0
H2061 H 0.70015 0.49644 0.82425 0.0
S2062 S 0.70708 0.58995 0.72983 0.0
N2063 N 0.70528 0.61305 0.75922 0.0
N2064 N 0.70658 0.54487 0.73771 0.0
C2065 C 0.70497 0.54662 0.76549 0.0
C2066 C 0.7041 0.58417 0.7773 0.0
C2067 C 0.83628 0.45891 0.05494 0.0
C2068 C 0.84221 0.45791 1.02621 0.0
C2069 C 0.79951 0.45844 0.06686 0.0
C2070 C 0.7662 0.45529 0.05095 0.0
H2071 H 0.86038 0.46059 0.06847 0.0
H2072 H 0.79725 0.45975 0.08898 0.0
S2073 S 0.76517 0.45053 0.97478 0.0
N2074 N 0.8104 0.45387 0.98226 0.0
N2075 N 0.7426 0.45077 1.00438 0.0
C2076 C 0.77178 0.45362 1.02223 0.0
C2077 C 0.80913 0.4555 1.01005 0.0
C2078 C 0.8937 0.54411 0.31753 0.0
C2079 C 0.89624 0.51122 0.30114 0.0
C2080 C 0.89379 0.58104 0.3061 0.0
C2081 C 0.89484 0.5875 0.27747 0.0
H2082 H 0.89257 0.54139 0.33961 0.0
H2083 H 0.89263 0.60484 0.31994 0.0
S2084 S 0.90084 0.51168 0.22501 0.0
N2085 N 0.90027 0.48853 0.25431 0.0
N2086 N 0.89823 0.55669 0.23308 0.0
C2087 C 0.8966 0.55484 0.26085 0.0
C2088 C 0.89788 0.51732 0.27252 0.0
C2089 C 0.7968 0.63768 0.51783 0.0
C2090 C 0.76293 0.63906 0.53319 0.0
C2091 C 0.83318 0.63813 0.53044 0.0
C2092 C 0.83819 0.63845 0.5593 0.0
H2093 H 0.79528 0.63733 0.49566 0.0
H2094 H 0.85775 0.63795 0.51733 0.0
S2095 S 0.75935 0.64137 0.60939 0.0
N2096 N 0.73777 0.6412 0.57938 0.0
N2097 N 0.80488 0.63986 0.60269 0.0
C2098 C 0.80456 0.63899 0.57487 0.0
C2099 C 0.76758 0.63988 0.56203 0.0
C2100 C 0.39405 0.55822 0.31935 0.0
C2101 C 0.39601 0.59199 0.30402 0.0
C2102 C 0.39423 0.52186 0.30673 0.0
C2103 C 0.39476 0.51676 0.27788 0.0
H2104 H 0.39336 0.55981 0.34151 0.0
H2105 H 0.39361 0.49738 0.31983 0.0
S2106 S 0.39926 0.59527 0.22785 0.0
N2107 N 0.39902 0.61692 0.25786 0.0
N2108 N 0.3971 0.54987 0.23452 0.0
C2109 C 0.39593 0.55029 0.26234 0.0
C2110 C 0.39715 0.58724 0.27519 0.0
C2111 C 0.3333 0.64378 0.0587 0.0
C2112 C 0.34015 0.64534 1.03013 0.0
C2113 C 0.29618 0.64426 0.06991 0.0
C2114 C 0.26355 0.64799 0.05338 0.0
H2115 H 0.35693 0.64181 0.07264 0.0
H2116 H 0.29312 0.64265 0.09196 0.0
S2117 S 0.26517 0.6545 0.97735 0.0
N2118 N 0.31007 0.65059 0.98563 0.0
N2119 N 0.24154 0.65373 1.00651 0.0
C2120 C 0.27006 0.65018 1.02483 0.0
C2121 C 0.30775 0.64829 1.01335 0.0
C2122 C 0.21134 0.55475 0.76275 0.0
C2123 C 0.21286 0.58806 0.77878 0.0
C2124 C 0.21018 0.51808 0.77469 0.0
C2125 C 0.21199 0.51225 0.80341 0.0
H2126 H 0.21001 0.55702 0.74064 0.0
H2127 H 0.20824 0.49398 0.76118 0.0
S2128 S 0.21707 0.58938 0.85493 0.0
N2129 N 0.21571 0.61182 0.82536 0.0
N2130 N 0.21582 0.54415 0.84737 0.0
C2131 C 0.21431 0.54531 0.81957 0.0
C2132 C 0.21412 0.58258 0.80747 0.0
C2133 C 0.28143 0.41838 0.53947 0.0
C2134 C 0.26038 0.45158 0.53509 0.0
C2135 C 0.31889 0.41897 0.55012 0.0
C2136 C 0.33731 0.45268 0.558 0.0
H2137 H 0.26916 0.39155 0.53397 0.0
H2138 H 0.33339 0.39248 0.55261 0.0
S2139 S 0.29479 0.54758 0.55178 0.0
N2140 N 0.26178 0.5194 0.5396 0.0
N2141 N 0.3302 0.52032 0.56089 0.0
C2142 C 0.31624 0.48597 0.55427 0.0
C2143 C 0.27862 0.48547 0.54252 0.0
loop_
_geom_bond_atom_site_label_1
_geom_bond_atom_site_label_2
_geom_bond_distance
_geom_bond_site_symmetry_2
_ccdc_geom_bond_type
C0 O16 1.251 . S
C0 O18 1.254 . S
N1 C2 1.333 . S
N1 C6 1.307 . S
N1 Zn7 2.020 . S
C2 N1 1.333 . S
C2 C3 1.379 . S
C2 H20 0.952 . S
C3 C2 1.379 . S
C3 C4 1.390 . S
C3 H30 0.949 . S
C4 C3 1.390 . S
C4 C5 1.357 . S
C5 C4 1.357 . S
C5 C6 1.370 . S
C5 H31 0.950 . S
C6 N1 1.307 . S
C6 C5 1.370 . S
C6 H24 0.948 . S
Zn7 N1 2.020 . S
Zn7 O16 2.039 . S
Zn7 O22 2.034 . S
Zn7 O26 2.025 . S
Zn7 O28 2.024 . S
C8 O27 1.246 . S
C8 O28 1.249 . S
N9 C10 1.307 . S
N9 C11 1.333 . S
N9 Zn15 2.020 . S
C10 N9 1.307 . S
C10 C14 1.370 . S
C10 H21 0.948 . S
C11 N9 1.333 . S
C11 C12 1.379 . S
C11 H19 0.952 . S
C12 C11 1.379 . S
C12 C13 1.390 . S
C12 H32 0.949 . S
C13 C12 1.390 . S
C13 C14 1.357 . S
C14 C10 1.370 . S
C14 C13 1.357 . S
C14 H33 0.950 . S
Zn15 N9 2.020 . S
Zn15 O18 2.025 . S
Zn15 O23 2.024 . S
Zn15 O25 2.039 . S
Zn15 O27 2.034 . S
O16 C0 1.251 . S
O16 Zn7 2.039 . S
C17 O22 1.246 . S
C17 O23 1.249 . S
O18 C0 1.254 . S
O18 Zn15 2.025 . S
H19 C11 0.952 . S
H20 C2 0.952 . S
H21 C10 0.948 . S
O22 Zn7 2.034 . S
O22 C17 1.246 . S
O23 Zn15 2.024 . S
O23 C17 1.249 . S
H24 C6 0.948 . S
O25 Zn15 2.039 . S
O25 C29 1.251 . S
O26 Zn7 2.025 . S
O26 C29 1.254 . S
O27 C8 1.246 . S
O27 Zn15 2.034 . S
O28 Zn7 2.024 . S
O28 C8 1.249 . S
C29 O25 1.251 . S
C29 O26 1.254 . S
H30 C3 0.949 . S
H31 C5 0.950 . S
H32 C12 0.949 . S
H33 C14 0.950 . S
C34 O50 1.251 . S
C34 O52 1.254 . S
N35 C36 1.333 . S
N35 C40 1.307 . S
N35 Zn41 2.020 . S
C36 N35 1.333 . S
C36 C37 1.379 . S
C36 H54 0.952 . S
C37 C36 1.379 . S
C37 C38 1.390 1_565 S
C37 H64 0.949 . S
C38 C37 1.390 1_545 S
C38 C39 1.357 . S
C39 C38 1.357 . S
C39 C40 1.370 1_545 S
C39 H65 0.950 . S
C40 N35 1.307 . S
C40 C39 1.370 1_565 S
C40 H58 0.948 . S
Zn41 N35 2.020 . S
Zn41 O50 2.039 . S
Zn41 O56 2.034 . S
Zn41 O60 2.025 . S
Zn41 O62 2.024 . S
C42 O61 1.246 . S
C42 O62 1.249 . S
N43 C44 1.307 . S
N43 C45 1.333 . S
N43 Zn49 2.020 . S
C44 N43 1.307 . S
C44 C48 1.370 . S
C44 H55 0.948 . S
C45 N43 1.333 . S
C45 C46 1.379 . S
C45 H53 0.952 . S
C46 C45 1.379 . S
C46 C47 1.390 . S
C46 H66 0.949 1_455 S
C47 C46 1.390 . S
C47 C48 1.357 . S
C48 C44 1.370 . S
C48 C47 1.357 . S
C48 H67 0.950 . S
Zn49 N43 2.020 . S
Zn49 O52 2.025 . S
Zn49 O57 2.024 . S
Zn49 O59 2.039 . S
Zn49 O61 2.034 . S
O50 C34 1.251 . S
O50 Zn41 2.039 . S
C51 O56 1.246 . S
C51 O57 1.249 . S
O52 C34 1.254 . S
O52 Zn49 2.025 . S
H53 C45 0.952 . S
H54 C36 0.952 . S
H55 C44 0.948 . S
O56 Zn41 2.034 . S
O56 C51 1.246 . S
O57 Zn49 2.024 . S
O57 C51 1.249 . S
H58 C40 0.948 . S
O59 Zn49 2.039 . S
O59 C63 1.251 . S
O60 Zn41 2.025 . S
O60 C63 1.254 . S
O61 C42 1.246 . S
O61 Zn49 2.034 . S
O62 Zn41 2.024 . S
O62 C42 1.249 . S
C63 O59 1.251 . S
C63 O60 1.254 . S
H64 C37 0.949 . S
H65 C39 0.950 . S
H66 C46 0.949 1_655 S
H67 C48 0.950 . S
C68 O84 1.251 . S
C68 O86 1.254 . S
N69 C70 1.333 . S
N69 C74 1.307 . S
N69 Zn75 2.020 . S
C70 N69 1.333 . S
C70 C71 1.379 . S
C70 H88 0.952 . S
C71 C70 1.379 . S
C71 C72 1.390 . S
C71 H98 0.949 . S
C72 C71 1.390 . S
C72 C73 1.357 . S
C73 C72 1.357 . S
C73 C74 1.370 . S
C73 H99 0.950 . S
C74 N69 1.307 . S
C74 C73 1.370 . S
C74 H92 0.948 . S
Zn75 N69 2.020 . S
Zn75 O84 2.039 . S
Zn75 O90 2.034 . S
Zn75 O94 2.025 . S
Zn75 O96 2.024 . S
C76 O95 1.246 . S
C76 O96 1.249 . S
N77 C78 1.307 . S
N77 C79 1.333 . S
N77 Zn83 2.020 . S
C78 N77 1.307 . S
C78 C82 1.370 . S
C78 H89 0.948 . S
C79 N77 1.333 . S
C79 C80 1.379 . S
C79 H87 0.952 . S
C80 C79 1.379 . S
C80 C81 1.390 . S
C80 H100 0.949 . S
C81 C80 1.390 . S
C81 C82 1.357 . S
C82 C78 1.370 . S
C82 C81 1.357 . S
C82 H101 0.950 . S
Zn83 N77 2.020 . S
Zn83 O86 2.025 . S
Zn83 O91 2.024 . S
Zn83 O93 2.039 . S
Zn83 O95 2.034 . S
O84 C68 1.251 . S
O84 Zn75 2.039 . S
C85 O90 1.246 . S
C85 O91 1.249 . S
O86 C68 1.254 . S
O86 Zn83 2.025 . S
H87 C79 0.952 . S
H88 C70 0.952 . S
H89 C78 0.948 . S
O90 Zn75 2.034 . S
O90 C85 1.246 . S
O91 Zn83 2.024 . S
O91 C85 1.249 . S
H92 C74 0.948 . S
O93 Zn83 2.039 . S
O93 C97 1.251 . S
O94 Zn75 2.025 . S
O94 C97 1.254 . S
O95 C76 1.246 . S
O95 Zn83 2.034 . S
O96 Zn75 2.024 . S
O96 C76 1.249 . S
C97 O93 1.251 . S
C97 O94 1.254 . S
H98 C71 0.949 . S
H99 C73 0.950 . S
H100 C80 0.949 . S
H101 C82 0.950 . S
C102 O118 1.251 . S
C102 O120 1.254 . S
N103 C104 1.333 . S
N103 C108 1.307 . S
N103 Zn109 2.020 . S
C104 N103 1.333 . S
C104 C105 1.379 . S
C104 H122 0.952 . S
C105 C104 1.379 . S
C105 C106 1.390 1_545 S
C105 H132 0.949 . S
C106 C105 1.390 1_565 S
C106 C107 1.357 . S
C107 C106 1.357 . S
C107 C108 1.370 1_565 S
C107 H133 0.950 . S
C108 N103 1.307 . S
C108 C107 1.370 1_545 S
C108 H126 0.948 . S
Zn109 N103 2.020 . S
Zn109 O118 2.039 . S
Zn109 O124 2.034 . S
Zn109 O128 2.025 . S
Zn109 O130 2.024 . S
C110 O129 1.246 . S
C110 O130 1.249 . S
N111 C112 1.307 . S
N111 C113 1.333 . S
N111 Zn117 2.020 . S
C112 N111 1.307 . S
C112 C116 1.370 1_554 S
C112 H123 0.948 . S
C113 N111 1.333 . S
C113 C114 1.379 . S
C113 H121 0.952 . S
C114 C113 1.379 . S
C114 C115 1.390 1_554 S
C114 H134 0.949 . S
C115 C114 1.390 1_556 S
C115 C116 1.357 . S
C116 C112 1.370 1_556 S
C116 C115 1.357 . S
C116 H135 0.950 . S
Zn117 N111 2.020 . S
Zn117 O120 2.025 . S
Zn117 O125 2.024 . S
Zn117 O127 2.039 . S
Zn117 O129 2.034 . S
O118 C102 1.251 . S
O118 Zn109 2.039 . S
C119 O124 1.246 . S
C119 O125 1.249 . S
O120 C102 1.254 . S
O120 Zn117 2.025 . S
H121 C113 0.952 . S
H122 C104 0.952 . S
H123 C112 0.948 . S
O124 Zn109 2.034 . S
O124 C119 1.246 . S
O125 Zn117 2.024 . S
O125 C119 1.249 . S
H126 C108 0.948 . S
O127 Zn117 2.039 . S
O127 C131 1.251 . S
O128 Zn109 2.025 . S
O128 C131 1.254 . S
O129 C110 1.246 . S
O129 Zn117 2.034 . S
O130 Zn109 2.024 . S
O130 C110 1.249 . S
C131 O127 1.251 . S
C131 O128 1.254 . S
H132 C105 0.949 . S
H133 C107 0.950 . S
H134 C114 0.949 . S
H135 C116 0.950 . S
C136 O152 1.251 . S
C136 O154 1.254 . S
N137 C138 1.333 . S
N137 C142 1.307 . S
N137 Zn143 2.020 . S
C138 N137 1.333 . S
C138 C139 1.379 . S
C138 H156 0.952 . S
C139 C138 1.379 . S
C139 C140 1.390 . S
C139 H166 0.949 . S
C140 C139 1.390 . S
C140 C141 1.357 . S
C141 C140 1.357 . S
C141 C142 1.370 . S
C141 H167 0.950 . S
C142 N137 1.307 . S
C142 C141 1.370 . S
C142 H160 0.948 . S
Zn143 N137 2.020 . S
Zn143 O152 2.039 . S
Zn143 O158 2.034 . S
Zn143 O162 2.025 . S
Zn143 O164 2.024 . S
C144 O163 1.246 . S
C144 O164 1.249 . S
N145 C146 1.307 . S
N145 C147 1.333 . S
N145 Zn151 2.020 . S
C146 N145 1.307 . S
C146 C150 1.370 . S
C146 H157 0.948 . S
C147 N145 1.333 . S
C147 C148 1.379 . S
C147 H155 0.952 . S
C148 C147 1.379 . S
C148 C149 1.390 . S
C148 H168 0.949 . S
C149 C148 1.390 . S
C149 C150 1.357 . S
C150 C146 1.370 . S
C150 C149 1.357 . S
C150 H169 0.950 . S
Zn151 N145 2.020 . S
Zn151 O154 2.025 . S
Zn151 O159 2.024 . S
Zn151 O161 2.039 . S
Zn151 O163 2.034 . S
O152 C136 1.251 . S
O152 Zn143 2.039 . S
C153 O158 1.246 . S
C153 O159 1.249 . S
O154 C136 1.254 . S
O154 Zn151 2.025 . S
H155 C147 0.952 . S
H156 C138 0.952 . S
H157 C146 0.948 . S
O158 Zn143 2.034 . S
O158 C153 1.246 . S
O159 Zn151 2.024 . S
O159 C153 1.249 . S
H160 C142 0.948 . S
O161 Zn151 2.039 . S
O161 C165 1.251 . S
O162 Zn143 2.025 . S
O162 C165 1.254 . S
O163 C144 1.246 . S
O163 Zn151 2.034 . S
O164 Zn143 2.024 . S
O164 C144 1.249 . S
C165 O161 1.251 . S
C165 O162 1.254 . S
H166 C139 0.949 . S
H167 C141 0.950 . S
H168 C148 0.949 . S
H169 C150 0.950 . S
C170 O186 1.251 . S
C170 O188 1.254 . S
N171 C172 1.333 . S
N171 C176 1.307 . S
N171 Zn177 2.020 . S
C172 N171 1.333 . S
C172 C173 1.379 . S
C172 H190 0.952 . S
C173 C172 1.379 . S
C173 C174 1.390 1_565 S
C173 H200 0.949 . S
C174 C173 1.390 1_545 S
C174 C175 1.357 . S
C175 C174 1.357 . S
C175 C176 1.370 1_545 S
C175 H201 0.950 . S
C176 N171 1.307 . S
C176 C175 1.370 1_565 S
C176 H194 0.948 . S
Zn177 N171 2.020 . S
Zn177 O186 2.039 . S
Zn177 O192 2.034 . S
Zn177 O196 2.025 . S
Zn177 O198 2.024 . S
C178 O197 1.246 . S
C178 O198 1.249 . S
N179 C180 1.307 . S
N179 C181 1.333 . S
N179 Zn185 2.020 . S
C180 N179 1.307 . S
C180 C184 1.370 . S
C180 H191 0.948 . S
C181 N179 1.333 . S
C181 C182 1.379 . S
C181 H189 0.952 . S
C182 C181 1.379 . S
C182 C183 1.390 . S
C182 H202 0.949 . S
C183 C182 1.390 . S
C183 C184 1.357 . S
C184 C180 1.370 . S
C184 C183 1.357 . S
C184 H203 0.950 . S
Zn185 N179 2.020 . S
Zn185 O188 2.025 . S
Zn185 O193 2.024 . S
Zn185 O195 2.039 . S
Zn185 O197 2.034 . S
O186 C170 1.251 . S
O186 Zn177 2.039 . S
C187 O192 1.246 . S
C187 O193 1.249 . S
O188 C170 1.254 . S
O188 Zn185 2.025 . S
H189 C181 0.952 . S
H190 C172 0.952 . S
H191 C180 0.948 . S
O192 Zn177 2.034 . S
O192 C187 1.246 . S
O193 Zn185 2.024 . S
O193 C187 1.249 . S
H194 C176 0.948 . S
O195 Zn185 2.039 . S
O195 C199 1.251 . S
O196 Zn177 2.025 . S
O196 C199 1.254 . S
O197 C178 1.246 . S
O197 Zn185 2.034 . S
O198 Zn177 2.024 . S
O198 C178 1.249 . S
C199 O195 1.251 . S
C199 O196 1.254 . S
H200 C173 0.949 . S
H201 C175 0.950 . S
H202 C182 0.949 . S
H203 C184 0.950 . S
C204 O220 1.251 . S
C204 O222 1.254 . S
N205 C206 1.333 . S
N205 C210 1.307 . S
N205 Zn211 2.020 . S
C206 N205 1.333 . S
C206 C207 1.379 . S
C206 H224 0.952 . S
C207 C206 1.379 . S
C207 C208 1.390 . S
C207 H234 0.949 . S
C208 C207 1.390 . S
C208 C209 1.357 . S
C209 C208 1.357 . S
C209 C210 1.370 . S
C209 H235 0.950 . S
C210 N205 1.307 . S
C210 C209 1.370 . S
C210 H228 0.948 . S
Zn211 N205 2.020 . S
Zn211 O220 2.039 . S
Zn211 O226 2.034 . S
Zn211 O230 2.025 . S
Zn211 O232 2.024 . S
C212 O231 1.246 . S
C212 O232 1.249 . S
N213 C214 1.307 . S
N213 C215 1.333 . S
N213 Zn219 2.020 . S
C214 N213 1.307 . S
C214 C218 1.370 . S
C214 H225 0.948 . S
C215 N213 1.333 . S
C215 C216 1.379 . S
C215 H223 0.952 . S
C216 C215 1.379 . S
C216 C217 1.390 . S
C216 H236 0.949 . S
C217 C216 1.390 . S
C217 C218 1.357 . S
C218 C214 1.370 . S
C218 C217 1.357 . S
C218 H237 0.950 . S
Zn219 N213 2.020 . S
Zn219 O222 2.025 . S
Zn219 O227 2.024 . S
Zn219 O229 2.039 . S
Zn219 O231 2.034 . S
O220 C204 1.251 . S
O220 Zn211 2.039 . S
C221 O226 1.246 . S
C221 O227 1.249 . S
O222 C204 1.254 . S
O222 Zn219 2.025 . S
H223 C215 0.952 . S
H224 C206 0.952 . S
H225 C214 0.948 . S
O226 Zn211 2.034 . S
O226 C221 1.246 . S
O227 Zn219 2.024 . S
O227 C221 1.249 . S
H228 C210 0.948 . S
O229 Zn219 2.039 . S
O229 C233 1.251 . S
O230 Zn211 2.025 . S
O230 C233 1.254 . S
O231 C212 1.246 . S
O231 Zn219 2.034 . S
O232 Zn211 2.024 . S
O232 C212 1.249 . S
C233 O229 1.251 . S
C233 O230 1.254 . S
H234 C207 0.949 . S
H235 C209 0.950 . S
H236 C216 0.949 . S
H237 C218 0.950 . S
C238 O254 1.251 . S
C238 O256 1.254 . S
N239 C240 1.333 . S
N239 C244 1.307 . S
N239 Zn245 2.020 . S
C240 N239 1.333 . S
C240 C241 1.379 . S
C240 H258 0.952 . S
C241 C240 1.379 . S
C241 C242 1.390 1_545 S
C241 H268 0.949 . S
C242 C241 1.390 1_565 S
C242 C243 1.357 . S
C243 C242 1.357 . S
C243 C244 1.370 1_565 S
C243 H269 0.950 . S
C244 N239 1.307 . S
C244 C243 1.370 1_545 S
C244 H262 0.948 . S
Zn245 N239 2.020 . S
Zn245 O254 2.039 . S
Zn245 O260 2.034 . S
Zn245 O264 2.025 . S
Zn245 O266 2.024 . S
C246 O265 1.246 . S
C246 O266 1.249 . S
N247 C248 1.307 . S
N247 C249 1.333 . S
N247 Zn253 2.020 . S
C248 N247 1.307 . S
C248 C252 1.370 1_556 S
C248 H259 0.948 . S
C249 N247 1.333 . S
C249 C250 1.379 . S
C249 H257 0.952 . S
C250 C249 1.379 . S
C250 C251 1.390 1_556 S
C250 H270 0.949 1_455 S
C251 C250 1.390 1_554 S
C251 C252 1.357 . S
C252 C248 1.370 1_554 S
C252 C251 1.357 . S
C252 H271 0.950 . S
Zn253 N247 2.020 . S
Zn253 O256 2.025 . S
Zn253 O261 2.024 . S
Zn253 O263 2.039 . S
Zn253 O265 2.034 . S
O254 C238 1.251 . S
O254 Zn245 2.039 . S
C255 O260 1.246 . S
C255 O261 1.249 . S
O256 C238 1.254 . S
O256 Zn253 2.025 . S
H257 C249 0.952 . S
H258 C240 0.952 . S
H259 C248 0.948 . S
O260 Zn245 2.034 . S
O260 C255 1.246 . S
O261 Zn253 2.024 . S
O261 C255 1.249 . S
H262 C244 0.948 . S
O263 Zn253 2.039 . S
O263 C267 1.251 . S
O264 Zn245 2.025 . S
O264 C267 1.254 . S
O265 C246 1.246 . S
O265 Zn253 2.034 . S
O266 Zn245 2.024 . S
O266 C246 1.249 . S
C267 O263 1.251 . S
C267 O264 1.254 . S
H268 C241 0.949 . S
H269 C243 0.950 . S
H270 C250 0.949 1_655 S
H271 C252 0.950 . S
C272 O288 1.251 . S
C272 O290 1.254 . S
N273 C274 1.333 . S
N273 C278 1.307 . S
N273 Zn279 2.020 . S
C274 N273 1.333 . S
C274 C275 1.379 . S
C274 H292 0.952 . S
C275 C274 1.379 . S
C275 C276 1.390 . S
C275 H302 0.949 . S
C276 C275 1.390 . S
C276 C277 1.357 . S
C277 C276 1.357 . S
C277 C278 1.370 . S
C277 H303 0.950 . S
C278 N273 1.307 . S
C278 C277 1.370 . S
C278 H296 0.948 . S
Zn279 N273 2.020 . S
Zn279 O288 2.039 . S
Zn279 O294 2.034 . S
Zn279 O298 2.025 . S
Zn279 O300 2.024 . S
C280 O299 1.246 . S
C280 O300 1.249 . S
N281 C282 1.307 . S
N281 C283 1.333 . S
N281 Zn287 2.020 . S
C282 N281 1.307 . S
C282 C286 1.370 . S
C282 H293 0.948 . S
C283 N281 1.333 . S
C283 C284 1.379 . S
C283 H291 0.952 . S
C284 C283 1.379 . S
C284 C285 1.390 . S
C284 H304 0.949 . S
C285 C284 1.390 . S
C285 C286 1.357 . S
C286 C282 1.370 . S
C286 C285 1.357 . S
C286 H305 0.950 . S
Zn287 N281 2.020 . S
Zn287 O290 2.025 . S
Zn287 O295 2.024 . S
Zn287 O297 2.039 . S
Zn287 O299 2.034 . S
O288 C272 1.251 . S
O288 Zn279 2.039 . S
C289 O294 1.246 . S
C289 O295 1.249 . S
O290 C272 1.254 . S
O290 Zn287 2.025 . S
H291 C283 0.952 . S
H292 C274 0.952 . S
H293 C282 0.948 . S
O294 Zn279 2.034 . S
O294 C289 1.246 . S
O295 Zn287 2.024 . S
O295 C289 1.249 . S
H296 C278 0.948 . S
O297 Zn287 2.039 . S
O297 C301 1.251 . S
O298 Zn279 2.025 . S
O298 C301 1.254 . S
O299 C280 1.246 . S
O299 Zn287 2.034 . S
O300 Zn279 2.024 . S
O300 C280 1.249 . S
C301 O297 1.251 . S
C301 O298 1.254 . S
H302 C275 0.949 . S
H303 C277 0.950 . S
H304 C284 0.949 . S
H305 C286 0.950 . S
C306 O322 1.251 . S
C306 O324 1.254 . S
N307 C308 1.333 . S
N307 C312 1.307 . S
N307 Zn313 2.020 . S
C308 N307 1.333 . S
C308 C309 1.379 . S
C308 H326 0.952 . S
C309 C308 1.379 . S
C309 C310 1.390 . S
C309 H336 0.949 1_655 S
C310 C309 1.390 . S
C310 C311 1.357 . S
C311 C310 1.357 . S
C311 C312 1.370 . S
C311 H337 0.950 . S
C312 N307 1.307 . S
C312 C311 1.370 . S
C312 H330 0.948 . S
Zn313 N307 2.020 . S
Zn313 O322 2.039 . S
Zn313 O328 2.034 . S
Zn313 O332 2.025 . S
Zn313 O334 2.024 . S
C314 O333 1.246 . S
C314 O334 1.249 . S
N315 C316 1.307 . S
N315 C317 1.333 . S
N315 Zn321 2.020 . S
C316 N315 1.307 . S
C316 C320 1.370 1_545 S
C316 H327 0.948 . S
C317 N315 1.333 . S
C317 C318 1.379 . S
C317 H325 0.952 . S
C318 C317 1.379 . S
C318 C319 1.390 1_545 S
C318 H338 0.949 . S
C319 C318 1.390 1_565 S
C319 C320 1.357 . S
C320 C316 1.370 1_565 S
C320 C319 1.357 . S
C320 H339 0.950 . S
Zn321 N315 2.020 . S
Zn321 O324 2.025 . S
Zn321 O329 2.024 . S
Zn321 O331 2.039 . S
Zn321 O333 2.034 . S
O322 C306 1.251 . S
O322 Zn313 2.039 . S
C323 O328 1.246 . S
C323 O329 1.249 . S
O324 C306 1.254 . S
O324 Zn321 2.025 . S
H325 C317 0.952 . S
H326 C308 0.952 . S
H327 C316 0.948 . S
O328 Zn313 2.034 . S
O328 C323 1.246 . S
O329 Zn321 2.024 . S
O329 C323 1.249 . S
H330 C312 0.948 . S
O331 Zn321 2.039 . S
O331 C335 1.251 . S
O332 Zn313 2.025 . S
O332 C335 1.254 . S
O333 C314 1.246 . S
O333 Zn321 2.034 . S
O334 Zn313 2.024 . S
O334 C314 1.249 . S
C335 O331 1.251 . S
C335 O332 1.254 . S
H336 C309 0.949 1_455 S
H337 C311 0.950 . S
H338 C318 0.949 . S
H339 C320 0.950 . S
C340 O356 1.251 . S
C340 O358 1.254 . S
N341 C342 1.333 . S
N341 C346 1.307 . S
N341 Zn347 2.020 . S
C342 N341 1.333 . S
C342 C343 1.379 . S
C342 H360 0.952 . S
C343 C342 1.379 . S
C343 C344 1.390 . S
C343 H370 0.949 . S
C344 C343 1.390 . S
C344 C345 1.357 . S
C345 C344 1.357 . S
C345 C346 1.370 . S
C345 H371 0.950 . S
C346 N341 1.307 . S
C346 C345 1.370 . S
C346 H364 0.948 . S
Zn347 N341 2.020 . S
Zn347 O356 2.039 . S
Zn347 O362 2.034 . S
Zn347 O366 2.025 . S
Zn347 O368 2.024 . S
C348 O367 1.246 . S
C348 O368 1.249 . S
N349 C350 1.307 . S
N349 C351 1.333 . S
N349 Zn355 2.020 . S
C350 N349 1.307 . S
C350 C354 1.370 . S
C350 H361 0.948 . S
C351 N349 1.333 . S
C351 C352 1.379 . S
C351 H359 0.952 . S
C352 C351 1.379 . S
C352 C353 1.390 . S
C352 H372 0.949 . S
C353 C352 1.390 . S
C353 C354 1.357 . S
C354 C350 1.370 . S
C354 C353 1.357 . S
C354 H373 0.950 . S
Zn355 N349 2.020 . S
Zn355 O358 2.025 . S
Zn355 O363 2.024 . S
Zn355 O365 2.039 . S
Zn355 O367 2.034 . S
O356 C340 1.251 . S
O356 Zn347 2.039 . S
C357 O362 1.246 . S
C357 O363 1.249 . S
O358 C340 1.254 . S
O358 Zn355 2.025 . S
H359 C351 0.952 . S
H360 C342 0.952 . S
H361 C350 0.948 . S
O362 Zn347 2.034 . S
O362 C357 1.246 . S
O363 Zn355 2.024 . S
O363 C357 1.249 . S
H364 C346 0.948 . S
O365 Zn355 2.039 . S
O365 C369 1.251 . S
O366 Zn347 2.025 . S
O366 C369 1.254 . S
O367 C348 1.246 . S
O367 Zn355 2.034 . S
O368 Zn347 2.024 . S
O368 C348 1.249 . S
C369 O365 1.251 . S
C369 O366 1.254 . S
H370 C343 0.949 . S
H371 C345 0.950 . S
H372 C352 0.949 . S
H373 C354 0.950 . S
C374 O390 1.251 . S
C374 O392 1.254 . S
N375 C376 1.333 . S
N375 C380 1.307 . S
N375 Zn381 2.020 . S
C376 N375 1.333 . S
C376 C377 1.379 . S
C376 H394 0.952 . S
C377 C376 1.379 . S
C377 C378 1.390 1_556 S
C377 H404 0.949 . S
C378 C377 1.390 1_554 S
C378 C379 1.357 . S
C379 C378 1.357 . S
C379 C380 1.370 1_554 S
C379 H405 0.950 . S
C380 N375 1.307 . S
C380 C379 1.370 1_556 S
C380 H398 0.948 . S
Zn381 N375 2.020 . S
Zn381 O390 2.039 . S
Zn381 O396 2.034 . S
Zn381 O400 2.025 . S
Zn381 O402 2.024 . S
C382 O401 1.246 . S
C382 O402 1.249 . S
N383 C384 1.307 . S
N383 C385 1.333 . S
N383 Zn389 2.020 . S
C384 N383 1.307 . S
C384 C388 1.370 1_565 S
C384 H395 0.948 . S
C385 N383 1.333 . S
C385 C386 1.379 . S
C385 H393 0.952 . S
C386 C385 1.379 . S
C386 C387 1.390 1_565 S
C386 H406 0.949 . S
C387 C386 1.390 1_545 S
C387 C388 1.357 . S
C388 C384 1.370 1_545 S
C388 C387 1.357 . S
C388 H407 0.950 . S
Zn389 N383 2.020 . S
Zn389 O392 2.025 . S
Zn389 O397 2.024 . S
Zn389 O399 2.039 . S
Zn389 O401 2.034 . S
O390 C374 1.251 . S
O390 Zn381 2.039 . S
C391 O396 1.246 . S
C391 O397 1.249 . S
O392 C374 1.254 . S
O392 Zn389 2.025 . S
H393 C385 0.952 . S
H394 C376 0.952 . S
H395 C384 0.948 . S
O396 Zn381 2.034 . S
O396 C391 1.246 . S
O397 Zn389 2.024 . S
O397 C391 1.249 . S
H398 C380 0.948 . S
O399 Zn389 2.039 . S
O399 C403 1.251 . S
O400 Zn381 2.025 . S
O400 C403 1.254 . S
O401 C382 1.246 . S
O401 Zn389 2.034 . S
O402 Zn381 2.024 . S
O402 C382 1.249 . S
C403 O399 1.251 . S
C403 O400 1.254 . S
H404 C377 0.949 . S
H405 C379 0.950 . S
H406 C386 0.949 . S
H407 C388 0.950 . S
C408 O424 1.251 . S
C408 O426 1.254 . S
N409 C410 1.333 . S
N409 C414 1.307 . S
N409 Zn415 2.020 . S
C410 N409 1.333 . S
C410 C411 1.379 . S
C410 H428 0.952 . S
C411 C410 1.379 . S
C411 C412 1.390 . S
C411 H438 0.949 . S
C412 C411 1.390 . S
C412 C413 1.357 . S
C413 C412 1.357 . S
C413 C414 1.370 . S
C413 H439 0.950 . S
C414 N409 1.307 . S
C414 C413 1.370 . S
C414 H432 0.948 . S
Zn415 N409 2.020 . S
Zn415 O424 2.039 . S
Zn415 O430 2.034 . S
Zn415 O434 2.025 . S
Zn415 O436 2.024 . S
C416 O435 1.246 . S
C416 O436 1.249 . S
N417 C418 1.307 . S
N417 C419 1.333 . S
N417 Zn423 2.020 . S
C418 N417 1.307 . S
C418 C422 1.370 . S
C418 H429 0.948 . S
C419 N417 1.333 . S
C419 C420 1.379 . S
C419 H427 0.952 . S
C420 C419 1.379 . S
C420 C421 1.390 . S
C420 H440 0.949 . S
C421 C420 1.390 . S
C421 C422 1.357 . S
C422 C418 1.370 . S
C422 C421 1.357 . S
C422 H441 0.950 . S
Zn423 N417 2.020 . S
Zn423 O426 2.025 . S
Zn423 O431 2.024 . S
Zn423 O433 2.039 . S
Zn423 O435 2.034 . S
O424 C408 1.251 . S
O424 Zn415 2.039 . S
C425 O430 1.246 . S
C425 O431 1.249 . S
O426 C408 1.254 . S
O426 Zn423 2.025 . S
H427 C419 0.952 . S
H428 C410 0.952 . S
H429 C418 0.948 . S
O430 Zn415 2.034 . S
O430 C425 1.246 . S
O431 Zn423 2.024 . S
O431 C425 1.249 . S
H432 C414 0.948 . S
O433 Zn423 2.039 . S
O433 C437 1.251 . S
O434 Zn415 2.025 . S
O434 C437 1.254 . S
O435 C416 1.246 . S
O435 Zn423 2.034 . S
O436 Zn415 2.024 . S
O436 C416 1.249 . S
C437 O433 1.251 . S
C437 O434 1.254 . S
H438 C411 0.949 . S
H439 C413 0.950 . S
H440 C420 0.949 . S
H441 C422 0.950 . S
C442 O458 1.251 . S
C442 O460 1.254 . S
N443 C444 1.333 . S
N443 C448 1.307 . S
N443 Zn449 2.020 . S
C444 N443 1.333 . S
C444 C445 1.379 . S
C444 H462 0.952 . S
C445 C444 1.379 . S
C445 C446 1.390 . S
C445 H472 0.949 . S
C446 C445 1.390 . S
C446 C447 1.357 . S
C447 C446 1.357 . S
C447 C448 1.370 . S
C447 H473 0.950 . S
C448 N443 1.307 . S
C448 C447 1.370 . S
C448 H466 0.948 . S
Zn449 N443 2.020 . S
Zn449 O458 2.039 . S
Zn449 O464 2.034 . S
Zn449 O468 2.025 . S
Zn449 O470 2.024 . S
C450 O469 1.246 . S
C450 O470 1.249 . S
N451 C452 1.307 . S
N451 C453 1.333 . S
N451 Zn457 2.020 . S
C452 N451 1.307 . S
C452 C456 1.370 1_545 S
C452 H463 0.948 . S
C453 N451 1.333 . S
C453 C454 1.379 . S
C453 H461 0.952 . S
C454 C453 1.379 . S
C454 C455 1.390 1_545 S
C454 H474 0.949 . S
C455 C454 1.390 1_565 S
C455 C456 1.357 . S
C456 C452 1.370 1_565 S
C456 C455 1.357 . S
C456 H475 0.950 . S
Zn457 N451 2.020 . S
Zn457 O460 2.025 . S
Zn457 O465 2.024 . S
Zn457 O467 2.039 . S
Zn457 O469 2.034 . S
O458 C442 1.251 . S
O458 Zn449 2.039 . S
C459 O464 1.246 . S
C459 O465 1.249 . S
O460 C442 1.254 . S
O460 Zn457 2.025 . S
H461 C453 0.952 . S
H462 C444 0.952 . S
H463 C452 0.948 . S
O464 Zn449 2.034 . S
O464 C459 1.246 . S
O465 Zn457 2.024 . S
O465 C459 1.249 . S
H466 C448 0.948 . S
O467 Zn457 2.039 . S
O467 C471 1.251 . S
O468 Zn449 2.025 . S
O468 C471 1.254 . S
O469 C450 1.246 . S
O469 Zn457 2.034 . S
O470 Zn449 2.024 . S
O470 C450 1.249 . S
C471 O467 1.251 . S
C471 O468 1.254 . S
H472 C445 0.949 . S
H473 C447 0.950 . S
H474 C454 0.949 . S
H475 C456 0.950 . S
C476 O492 1.251 . S
C476 O494 1.254 . S
N477 C478 1.333 . S
N477 C482 1.307 . S
N477 Zn483 2.020 . S
C478 N477 1.333 . S
C478 C479 1.379 . S
C478 H496 0.952 . S
C479 C478 1.379 . S
C479 C480 1.390 . S
C479 H506 0.949 . S
C480 C479 1.390 . S
C480 C481 1.357 . S
C481 C480 1.357 . S
C481 C482 1.370 . S
C481 H507 0.950 . S
C482 N477 1.307 . S
C482 C481 1.370 . S
C482 H500 0.948 . S
Zn483 N477 2.020 . S
Zn483 O492 2.039 . S
Zn483 O498 2.034 . S
Zn483 O502 2.025 . S
Zn483 O504 2.024 . S
C484 O503 1.246 . S
C484 O504 1.249 . S
N485 C486 1.307 . S
N485 C487 1.333 . S
N485 Zn491 2.020 . S
C486 N485 1.307 . S
C486 C490 1.370 . S
C486 H497 0.948 . S
C487 N485 1.333 . S
C487 C488 1.379 . S
C487 H495 0.952 . S
C488 C487 1.379 . S
C488 C489 1.390 . S
C488 H508 0.949 . S
C489 C488 1.390 . S
C489 C490 1.357 . S
C490 C486 1.370 . S
C490 C489 1.357 . S
C490 H509 0.950 . S
Zn491 N485 2.020 . S
Zn491 O494 2.025 . S
Zn491 O499 2.024 . S
Zn491 O501 2.039 . S
Zn491 O503 2.034 . S
O492 C476 1.251 . S
O492 Zn483 2.039 . S
C493 O498 1.246 . S
C493 O499 1.249 . S
O494 C476 1.254 . S
O494 Zn491 2.025 . S
H495 C487 0.952 . S
H496 C478 0.952 . S
H497 C486 0.948 . S
O498 Zn483 2.034 . S
O498 C493 1.246 . S
O499 Zn491 2.024 . S
O499 C493 1.249 . S
H500 C482 0.948 . S
O501 Zn491 2.039 . S
O501 C505 1.251 . S
O502 Zn483 2.025 . S
O502 C505 1.254 . S
O503 C484 1.246 . S
O503 Zn491 2.034 . S
O504 Zn483 2.024 . S
O504 C484 1.249 . S
C505 O501 1.251 . S
C505 O502 1.254 . S
H506 C479 0.949 . S
H507 C481 0.950 . S
H508 C488 0.949 . S
H509 C490 0.950 . S
C510 O526 1.251 . S
C510 O528 1.254 . S
N511 C512 1.333 . S
N511 C516 1.307 . S
N511 Zn517 2.020 . S
C512 N511 1.333 . S
C512 C513 1.379 . S
C512 H530 0.952 . S
C513 C512 1.379 . S
C513 C514 1.390 1_554 S
C513 H540 0.949 1_655 S
C514 C513 1.390 1_556 S
C514 C515 1.357 . S
C515 C514 1.357 . S
C515 C516 1.370 1_556 S
C515 H541 0.950 . S
C516 N511 1.307 . S
C516 C515 1.370 1_554 S
C516 H534 0.948 . S
Zn517 N511 2.020 . S
Zn517 O526 2.039 . S
Zn517 O532 2.034 . S
Zn517 O536 2.025 . S
Zn517 O538 2.024 . S
C518 O537 1.246 . S
C518 O538 1.249 . S
N519 C520 1.307 . S
N519 C521 1.333 . S
N519 Zn525 2.020 . S
C520 N519 1.307 . S
C520 C524 1.370 1_565 S
C520 H531 0.948 . S
C521 N519 1.333 . S
C521 C522 1.379 . S
C521 H529 0.952 . S
C522 C521 1.379 . S
C522 C523 1.390 1_565 S
C522 H542 0.949 . S
C523 C522 1.390 1_545 S
C523 C524 1.357 . S
C524 C520 1.370 1_545 S
C524 C523 1.357 . S
C524 H543 0.950 . S
Zn525 N519 2.020 . S
Zn525 O528 2.025 . S
Zn525 O533 2.024 . S
Zn525 O535 2.039 . S
Zn525 O537 2.034 . S
O526 C510 1.251 . S
O526 Zn517 2.039 . S
C527 O532 1.246 . S
C527 O533 1.249 . S
O528 C510 1.254 . S
O528 Zn525 2.025 . S
H529 C521 0.952 . S
H530 C512 0.952 . S
H531 C520 0.948 . S
O532 Zn517 2.034 . S
O532 C527 1.246 . S
O533 Zn525 2.024 . S
O533 C527 1.249 . S
H534 C516 0.948 . S
O535 Zn525 2.039 . S
O535 C539 1.251 . S
O536 Zn517 2.025 . S
O536 C539 1.254 . S
O537 C518 1.246 . S
O537 Zn525 2.034 . S
O538 Zn517 2.024 . S
O538 C518 1.249 . S
C539 O535 1.251 . S
C539 O536 1.254 . S
H540 C513 0.949 1_455 S
H541 C515 0.950 . S
H542 C522 0.949 . S
H543 C524 0.950 . S
C544 O560 1.251 . S
C544 O562 1.254 . S
N545 C546 1.333 . S
N545 C550 1.307 . S
N545 Zn551 2.020 . S
C546 N545 1.333 . S
C546 C547 1.379 . S
C546 H564 0.952 . S
C547 C546 1.379 . S
C547 C548 1.390 . S
C547 H574 0.949 . S
C548 C547 1.390 . S
C548 C549 1.357 . S
C549 C548 1.357 . S
C549 C550 1.370 . S
C549 H575 0.950 . S
C550 N545 1.307 . S
C550 C549 1.370 . S
C550 H568 0.948 . S
Zn551 N545 2.020 . S
Zn551 O560 2.039 . S
Zn551 O566 2.034 . S
Zn551 O570 2.025 . S
Zn551 O572 2.024 . S
C552 O571 1.246 . S
C552 O572 1.249 . S
N553 C554 1.307 . S
N553 C555 1.333 . S
N553 Zn559 2.020 . S
C554 N553 1.307 . S
C554 C558 1.370 . S
C554 H565 0.948 . S
C555 N553 1.333 . S
C555 C556 1.379 . S
C555 H563 0.952 . S
C556 C555 1.379 . S
C556 C557 1.390 . S
C556 H576 0.949 . S
C557 C556 1.390 . S
C557 C558 1.357 . S
C558 C554 1.370 . S
C558 C557 1.357 . S
C558 H577 0.950 . S
Zn559 N553 2.020 . S
Zn559 O562 2.025 . S
Zn559 O567 2.024 . S
Zn559 O569 2.039 . S
Zn559 O571 2.034 . S
O560 C544 1.251 . S
O560 Zn551 2.039 . S
C561 O566 1.246 . S
C561 O567 1.249 . S
O562 C544 1.254 . S
O562 Zn559 2.025 . S
H563 C555 0.952 . S
H564 C546 0.952 . S
H565 C554 0.948 . S
O566 Zn551 2.034 . S
O566 C561 1.246 . S
O567 Zn559 2.024 . S
O567 C561 1.249 . S
H568 C550 0.948 . S
O569 Zn559 2.039 . S
O569 C573 1.251 . S
O570 Zn551 2.025 . S
O570 C573 1.254 . S
O571 C552 1.246 . S
O571 Zn559 2.034 . S
O572 Zn551 2.024 . S
O572 C552 1.249 . S
C573 O569 1.251 . S
C573 O570 1.254 . S
H574 C547 0.949 . S
H575 C549 0.950 . S
H576 C556 0.949 . S
H577 C558 0.950 . S
C578 O594 1.251 . S
C578 O596 1.254 . S
N579 C580 1.333 . S
N579 C584 1.307 . S
N579 Zn585 2.020 . S
C580 N579 1.333 . S
C580 C581 1.379 . S
C580 H598 0.952 . S
C581 C580 1.379 . S
C581 C582 1.390 . S
C581 H608 0.949 . S
C582 C581 1.390 . S
C582 C583 1.357 . S
C583 C582 1.357 . S
C583 C584 1.370 . S
C583 H609 0.950 . S
C584 N579 1.307 . S
C584 C583 1.370 . S
C584 H602 0.948 . S
Zn585 N579 2.020 . S
Zn585 O594 2.039 . S
Zn585 O600 2.034 . S
Zn585 O604 2.025 . S
Zn585 O606 2.024 . S
C586 O605 1.246 . S
C586 O606 1.249 . S
N587 C588 1.307 . S
N587 C589 1.333 . S
N587 Zn593 2.020 . S
C588 N587 1.307 . S
C588 C592 1.370 1_554 S
C588 H599 0.948 . S
C589 N587 1.333 . S
C589 C590 1.379 . S
C589 H597 0.952 . S
C590 C589 1.379 . S
C590 C591 1.390 1_554 S
C590 H610 0.949 . S
C591 C590 1.390 1_556 S
C591 C592 1.357 . S
C592 C588 1.370 1_556 S
C592 C591 1.357 . S
C592 H611 0.950 . S
Zn593 N587 2.020 . S
Zn593 O596 2.025 . S
Zn593 O601 2.024 . S
Zn593 O603 2.039 . S
Zn593 O605 2.034 . S
O594 C578 1.251 . S
O594 Zn585 2.039 . S
C595 O600 1.246 . S
C595 O601 1.249 . S
O596 C578 1.254 . S
O596 Zn593 2.025 . S
H597 C589 0.952 . S
H598 C580 0.952 . S
H599 C588 0.948 . S
O600 Zn585 2.034 . S
O600 C595 1.246 . S
O601 Zn593 2.024 . S
O601 C595 1.249 . S
H602 C584 0.948 . S
O603 Zn593 2.039 . S
O603 C607 1.251 . S
O604 Zn585 2.025 . S
O604 C607 1.254 . S
O605 C586 1.246 . S
O605 Zn593 2.034 . S
O606 Zn585 2.024 . S
O606 C586 1.249 . S
C607 O603 1.251 . S
C607 O604 1.254 . S
H608 C581 0.949 . S
H609 C583 0.950 . S
H610 C590 0.949 . S
H611 C592 0.950 . S
C612 O628 1.251 . S
C612 O630 1.254 . S
N613 C614 1.333 . S
N613 C618 1.307 . S
N613 Zn619 2.020 . S
C614 N613 1.333 . S
C614 C615 1.379 . S
C614 H632 0.952 . S
C615 C614 1.379 . S
C615 C616 1.390 . S
C615 H642 0.949 . S
C616 C615 1.390 . S
C616 C617 1.357 . S
C617 C616 1.357 . S
C617 C618 1.370 . S
C617 H643 0.950 . S
C618 N613 1.307 . S
C618 C617 1.370 . S
C618 H636 0.948 . S
Zn619 N613 2.020 . S
Zn619 O628 2.039 . S
Zn619 O634 2.034 . S
Zn619 O638 2.025 . S
Zn619 O640 2.024 . S
C620 O639 1.246 . S
C620 O640 1.249 . S
N621 C622 1.307 . S
N621 C623 1.333 . S
N621 Zn627 2.020 . S
C622 N621 1.307 . S
C622 C626 1.370 . S
C622 H633 0.948 . S
C623 N621 1.333 . S
C623 C624 1.379 . S
C623 H631 0.952 . S
C624 C623 1.379 . S
C624 C625 1.390 . S
C624 H644 0.949 . S
C625 C624 1.390 . S
C625 C626 1.357 . S
C626 C622 1.370 . S
C626 C625 1.357 . S
C626 H645 0.950 . S
Zn627 N621 2.020 . S
Zn627 O630 2.025 . S
Zn627 O635 2.024 . S
Zn627 O637 2.039 . S
Zn627 O639 2.034 . S
O628 C612 1.251 . S
O628 Zn619 2.039 . S
C629 O634 1.246 . S
C629 O635 1.249 . S
O630 C612 1.254 . S
O630 Zn627 2.025 . S
H631 C623 0.952 . S
H632 C614 0.952 . S
H633 C622 0.948 . S
O634 Zn619 2.034 . S
O634 C629 1.246 . S
O635 Zn627 2.024 . S
O635 C629 1.249 . S
H636 C618 0.948 . S
O637 Zn627 2.039 . S
O637 C641 1.251 . S
O638 Zn619 2.025 . S
O638 C641 1.254 . S
O639 C620 1.246 . S
O639 Zn627 2.034 . S
O640 Zn619 2.024 . S
O640 C620 1.249 . S
C641 O637 1.251 . S
C641 O638 1.254 . S
H642 C615 0.949 . S
H643 C617 0.950 . S
H644 C624 0.949 . S
H645 C626 0.950 . S
C646 O662 1.251 . S
C646 O664 1.254 . S
N647 C648 1.333 . S
N647 C652 1.307 . S
N647 Zn653 2.020 . S
C648 N647 1.333 . S
C648 C649 1.379 . S
C648 H666 0.952 . S
C649 C648 1.379 . S
C649 C650 1.390 . S
C649 H676 0.949 . S
C650 C649 1.390 . S
C650 C651 1.357 . S
C651 C650 1.357 . S
C651 C652 1.370 . S
C651 H677 0.950 . S
C652 N647 1.307 . S
C652 C651 1.370 . S
C652 H670 0.948 . S
Zn653 N647 2.020 . S
Zn653 O662 2.039 . S
Zn653 O668 2.034 . S
Zn653 O672 2.025 . S
Zn653 O674 2.024 . S
C654 O673 1.246 . S
C654 O674 1.249 . S
N655 C656 1.307 . S
N655 C657 1.333 . S
N655 Zn661 2.020 . S
C656 N655 1.307 . S
C656 C660 1.370 . S
C656 H667 0.948 . S
C657 N655 1.333 . S
C657 C658 1.379 . S
C657 H665 0.952 . S
C658 C657 1.379 . S
C658 C659 1.390 . S
C658 H678 0.949 1_655 S
C659 C658 1.390 . S
C659 C660 1.357 . S
C660 C656 1.370 . S
C660 C659 1.357 . S
C660 H679 0.950 . S
Zn661 N655 2.020 . S
Zn661 O664 2.025 . S
Zn661 O669 2.024 . S
Zn661 O671 2.039 . S
Zn661 O673 2.034 . S
O662 C646 1.251 . S
O662 Zn653 2.039 . S
C663 O668 1.246 . S
C663 O669 1.249 . S
O664 C646 1.254 . S
O664 Zn661 2.025 . S
H665 C657 0.952 . S
H666 C648 0.952 . S
H667 C656 0.948 . S
O668 Zn653 2.034 . S
O668 C663 1.246 . S
O669 Zn661 2.024 . S
O669 C663 1.249 . S
H670 C652 0.948 . S
O671 Zn661 2.039 . S
O671 C675 1.251 . S
O672 Zn653 2.025 . S
O672 C675 1.254 . S
O673 C654 1.246 . S
O673 Zn661 2.034 . S
O674 Zn653 2.024 . S
O674 C654 1.249 . S
C675 O671 1.251 . S
C675 O672 1.254 . S
H676 C649 0.949 . S
H677 C651 0.950 . S
H678 C658 0.949 1_455 S
H679 C660 0.950 . S
C680 O696 1.251 . S
C680 O698 1.254 . S
N681 C682 1.333 . S
N681 C686 1.307 . S
N681 Zn687 2.020 . S
C682 N681 1.333 . S
C682 C683 1.379 . S
C682 H700 0.952 . S
C683 C682 1.379 . S
C683 C684 1.390 . S
C683 H710 0.949 . S
C684 C683 1.390 . S
C684 C685 1.357 . S
C685 C684 1.357 . S
C685 C686 1.370 . S
C685 H711 0.950 . S
C686 N681 1.307 . S
C686 C685 1.370 . S
C686 H704 0.948 . S
Zn687 N681 2.020 . S
Zn687 O696 2.039 . S
Zn687 O702 2.034 . S
Zn687 O706 2.025 . S
Zn687 O708 2.024 . S
C688 O707 1.246 . S
C688 O708 1.249 . S
N689 C690 1.307 . S
N689 C691 1.333 . S
N689 Zn695 2.020 . S
C690 N689 1.307 . S
C690 C694 1.370 . S
C690 H701 0.948 . S
C691 N689 1.333 . S
C691 C692 1.379 . S
C691 H699 0.952 . S
C692 C691 1.379 . S
C692 C693 1.390 . S
C692 H712 0.949 . S
C693 C692 1.390 . S
C693 C694 1.357 . S
C694 C690 1.370 . S
C694 C693 1.357 . S
C694 H713 0.950 . S
Zn695 N689 2.020 . S
Zn695 O698 2.025 . S
Zn695 O703 2.024 . S
Zn695 O705 2.039 . S
Zn695 O707 2.034 . S
O696 C680 1.251 . S
O696 Zn687 2.039 . S
C697 O702 1.246 . S
C697 O703 1.249 . S
O698 C680 1.254 . S
O698 Zn695 2.025 . S
H699 C691 0.952 . S
H700 C682 0.952 . S
H701 C690 0.948 . S
O702 Zn687 2.034 . S
O702 C697 1.246 . S
O703 Zn695 2.024 . S
O703 C697 1.249 . S
H704 C686 0.948 . S
O705 Zn695 2.039 . S
O705 C709 1.251 . S
O706 Zn687 2.025 . S
O706 C709 1.254 . S
O707 C688 1.246 . S
O707 Zn695 2.034 . S
O708 Zn687 2.024 . S
O708 C688 1.249 . S
C709 O705 1.251 . S
C709 O706 1.254 . S
H710 C683 0.949 . S
H711 C685 0.950 . S
H712 C692 0.949 . S
H713 C694 0.950 . S
C714 O730 1.251 . S
C714 O732 1.254 . S
N715 C716 1.333 . S
N715 C720 1.307 . S
N715 Zn721 2.020 . S
C716 N715 1.333 . S
C716 C717 1.379 . S
C716 H734 0.952 . S
C717 C716 1.379 . S
C717 C718 1.390 . S
C717 H744 0.949 . S
C718 C717 1.390 . S
C718 C719 1.357 . S
C719 C718 1.357 . S
C719 C720 1.370 . S
C719 H745 0.950 . S
C720 N715 1.307 . S
C720 C719 1.370 . S
C720 H738 0.948 . S
Zn721 N715 2.020 . S
Zn721 O730 2.039 . S
Zn721 O736 2.034 . S
Zn721 O740 2.025 . S
Zn721 O742 2.024 . S
C722 O741 1.246 . S
C722 O742 1.249 . S
N723 C724 1.307 . S
N723 C725 1.333 . S
N723 Zn729 2.020 . S
C724 N723 1.307 . S
C724 C728 1.370 1_556 S
C724 H735 0.948 . S
C725 N723 1.333 . S
C725 C726 1.379 . S
C725 H733 0.952 . S
C726 C725 1.379 . S
C726 C727 1.390 1_556 S
C726 H746 0.949 1_655 S
C727 C726 1.390 1_554 S
C727 C728 1.357 . S
C728 C724 1.370 1_554 S
C728 C727 1.357 . S
C728 H747 0.950 . S
Zn729 N723 2.020 . S
Zn729 O732 2.025 . S
Zn729 O737 2.024 . S
Zn729 O739 2.039 . S
Zn729 O741 2.034 . S
O730 C714 1.251 . S
O730 Zn721 2.039 . S
C731 O736 1.246 . S
C731 O737 1.249 . S
O732 C714 1.254 . S
O732 Zn729 2.025 . S
H733 C725 0.952 . S
H734 C716 0.952 . S
H735 C724 0.948 . S
O736 Zn721 2.034 . S
O736 C731 1.246 . S
O737 Zn729 2.024 . S
O737 C731 1.249 . S
H738 C720 0.948 . S
O739 Zn729 2.039 . S
O739 C743 1.251 . S
O740 Zn721 2.025 . S
O740 C743 1.254 . S
O741 C722 1.246 . S
O741 Zn729 2.034 . S
O742 Zn721 2.024 . S
O742 C722 1.249 . S
C743 O739 1.251 . S
C743 O740 1.254 . S
H744 C717 0.949 . S
H745 C719 0.950 . S
H746 C726 0.949 1_455 S
H747 C728 0.950 . S
C748 O764 1.251 . S
C748 O766 1.254 . S
N749 C750 1.333 . S
N749 C754 1.307 . S
N749 Zn755 2.020 . S
C750 N749 1.333 . S
C750 C751 1.379 . S
C750 H768 0.952 . S
C751 C750 1.379 . S
C751 C752 1.390 . S
C751 H778 0.949 . S
C752 C751 1.390 . S
C752 C753 1.357 . S
C753 C752 1.357 . S
C753 C754 1.370 . S
C753 H779 0.950 . S
C754 N749 1.307 . S
C754 C753 1.370 . S
C754 H772 0.948 . S
Zn755 N749 2.020 . S
Zn755 O764 2.039 . S
Zn755 O770 2.034 . S
Zn755 O774 2.025 . S
Zn755 O776 2.024 . S
C756 O775 1.246 . S
C756 O776 1.249 . S
N757 C758 1.307 . S
N757 C759 1.333 . S
N757 Zn763 2.020 . S
C758 N757 1.307 . S
C758 C762 1.370 . S
C758 H769 0.948 . S
C759 N757 1.333 . S
C759 C760 1.379 . S
C759 H767 0.952 . S
C760 C759 1.379 . S
C760 C761 1.390 . S
C760 H780 0.949 . S
C761 C760 1.390 . S
C761 C762 1.357 . S
C762 C758 1.370 . S
C762 C761 1.357 . S
C762 H781 0.950 . S
Zn763 N757 2.020 . S
Zn763 O766 2.025 . S
Zn763 O771 2.024 . S
Zn763 O773 2.039 . S
Zn763 O775 2.034 . S
O764 C748 1.251 . S
O764 Zn755 2.039 . S
C765 O770 1.246 . S
C765 O771 1.249 . S
O766 C748 1.254 . S
O766 Zn763 2.025 . S
H767 C759 0.952 . S
H768 C750 0.952 . S
H769 C758 0.948 . S
O770 Zn755 2.034 . S
O770 C765 1.246 . S
O771 Zn763 2.024 . S
O771 C765 1.249 . S
H772 C754 0.948 . S
O773 Zn763 2.039 . S
O773 C777 1.251 . S
O774 Zn755 2.025 . S
O774 C777 1.254 . S
O775 C756 1.246 . S
O775 Zn763 2.034 . S
O776 Zn755 2.024 . S
O776 C756 1.249 . S
C777 O773 1.251 . S
C777 O774 1.254 . S
H778 C751 0.949 . S
H779 C753 0.950 . S
H780 C760 0.949 . S
H781 C762 0.950 . S
C782 O798 1.251 . S
C782 O800 1.254 . S
N783 C784 1.333 . S
N783 C788 1.307 . S
N783 Zn789 2.020 . S
C784 N783 1.333 . S
C784 C785 1.379 . S
C784 H802 0.952 . S
C785 C784 1.379 . S
C785 C786 1.390 . S
C785 H812 0.949 . S
C786 C785 1.390 . S
C786 C787 1.357 . S
C787 C786 1.357 . S
C787 C788 1.370 . S
C787 H813 0.950 . S
C788 N783 1.307 . S
C788 C787 1.370 . S
C788 H806 0.948 . S
Zn789 N783 2.020 . S
Zn789 O798 2.039 . S
Zn789 O804 2.034 . S
Zn789 O808 2.025 . S
Zn789 O810 2.024 . S
C790 O809 1.246 . S
C790 O810 1.249 . S
N791 C792 1.307 . S
N791 C793 1.333 . S
N791 Zn797 2.020 . S
C792 N791 1.307 . S
C792 C796 1.370 . S
C792 H803 0.948 . S
C793 N791 1.333 . S
C793 C794 1.379 . S
C793 H801 0.952 . S
C794 C793 1.379 . S
C794 C795 1.390 . S
C794 H814 0.949 . S
C795 C794 1.390 . S
C795 C796 1.357 . S
C796 C792 1.370 . S
C796 C795 1.357 . S
C796 H815 0.950 . S
Zn797 N791 2.020 . S
Zn797 O800 2.025 . S
Zn797 O805 2.024 . S
Zn797 O807 2.039 . S
Zn797 O809 2.034 . S
O798 C782 1.251 . S
O798 Zn789 2.039 . S
C799 O804 1.246 . S
C799 O805 1.249 . S
O800 C782 1.254 . S
O800 Zn797 2.025 . S
H801 C793 0.952 . S
H802 C784 0.952 . S
H803 C792 0.948 . S
O804 Zn789 2.034 . S
O804 C799 1.246 . S
O805 Zn797 2.024 . S
O805 C799 1.249 . S
H806 C788 0.948 . S
O807 Zn797 2.039 . S
O807 C811 1.251 . S
O808 Zn789 2.025 . S
O808 C811 1.254 . S
O809 C790 1.246 . S
O809 Zn797 2.034 . S
O810 Zn789 2.024 . S
O810 C790 1.249 . S
C811 O807 1.251 . S
C811 O808 1.254 . S
H812 C785 0.949 . S
H813 C787 0.950 . S
H814 C794 0.949 . S
H815 C796 0.950 . S
C816 O832 1.251 . S
C816 O834 1.254 . S
N817 C818 1.333 . S
N817 C822 1.307 . S
N817 Zn823 2.020 . S
C818 N817 1.333 . S
C818 C819 1.379 . S
C818 H836 0.952 . S
C819 C818 1.379 . S
C819 C820 1.390 . S
C819 H846 0.949 . S
C820 C819 1.390 . S
C820 C821 1.357 . S
C821 C820 1.357 . S
C821 C822 1.370 . S
C821 H847 0.950 . S
C822 N817 1.307 . S
C822 C821 1.370 . S
C822 H840 0.948 . S
Zn823 N817 2.020 . S
Zn823 O832 2.039 . S
Zn823 O838 2.034 . S
Zn823 O842 2.025 . S
Zn823 O844 2.024 . S
C824 O843 1.246 . S
C824 O844 1.249 . S
N825 C826 1.307 . S
N825 C827 1.333 . S
N825 Zn831 2.020 . S
C826 N825 1.307 . S
C826 C830 1.370 . S
C826 H837 0.948 . S
C827 N825 1.333 . S
C827 C828 1.379 . S
C827 H835 0.952 . S
C828 C827 1.379 . S
C828 C829 1.390 . S
C828 H848 0.949 . S
C829 C828 1.390 . S
C829 C830 1.357 . S
C830 C826 1.370 . S
C830 C829 1.357 . S
C830 H849 0.950 . S
Zn831 N825 2.020 . S
Zn831 O834 2.025 . S
Zn831 O839 2.024 . S
Zn831 O841 2.039 . S
Zn831 O843 2.034 . S
O832 C816 1.251 . S
O832 Zn823 2.039 . S
C833 O838 1.246 . S
C833 O839 1.249 . S
O834 C816 1.254 . S
O834 Zn831 2.025 . S
H835 C827 0.952 . S
H836 C818 0.952 . S
H837 C826 0.948 . S
O838 Zn823 2.034 . S
O838 C833 1.246 . S
O839 Zn831 2.024 . S
O839 C833 1.249 . S
H840 C822 0.948 . S
O841 Zn831 2.039 . S
O841 C845 1.251 . S
O842 Zn823 2.025 . S
O842 C845 1.254 . S
O843 C824 1.246 . S
O843 Zn831 2.034 . S
O844 Zn823 2.024 . S
O844 C824 1.249 . S
C845 O841 1.251 . S
C845 O842 1.254 . S
H846 C819 0.949 . S
H847 C821 0.950 . S
H848 C828 0.949 . S
H849 C830 0.950 . S
C850 O866 1.251 . S
C850 O868 1.254 . S
N851 C852 1.333 . S
N851 C856 1.307 . S
N851 Zn857 2.020 . S
C852 N851 1.333 . S
C852 C853 1.379 . S
C852 H870 0.952 . S
C853 C852 1.379 . S
C853 C854 1.390 1_556 S
C853 H880 0.949 . S
C854 C853 1.390 1_554 S
C854 C855 1.357 . S
C855 C854 1.357 . S
C855 C856 1.370 1_554 S
C855 H881 0.950 . S
C856 N851 1.307 . S
C856 C855 1.370 1_556 S
C856 H874 0.948 . S
Zn857 N851 2.020 . S
Zn857 O866 2.039 . S
Zn857 O872 2.034 . S
Zn857 O876 2.025 . S
Zn857 O878 2.024 . S
C858 O877 1.246 . S
C858 O878 1.249 . S
N859 C860 1.307 . S
N859 C861 1.333 . S
N859 Zn865 2.020 . S
C860 N859 1.307 . S
C860 C864 1.370 . S
C860 H871 0.948 . S
C861 N859 1.333 . S
C861 C862 1.379 . S
C861 H869 0.952 . S
C862 C861 1.379 . S
C862 C863 1.390 . S
C862 H882 0.949 . S
C863 C862 1.390 . S
C863 C864 1.357 . S
C864 C860 1.370 . S
C864 C863 1.357 . S
C864 H883 0.950 . S
Zn865 N859 2.020 . S
Zn865 O868 2.025 . S
Zn865 O873 2.024 . S
Zn865 O875 2.039 . S
Zn865 O877 2.034 . S
O866 C850 1.251 . S
O866 Zn857 2.039 . S
C867 O872 1.246 . S
C867 O873 1.249 . S
O868 C850 1.254 . S
O868 Zn865 2.025 . S
H869 C861 0.952 . S
H870 C852 0.952 . S
H871 C860 0.948 . S
O872 Zn857 2.034 . S
O872 C867 1.246 . S
O873 Zn865 2.024 . S
O873 C867 1.249 . S
H874 C856 0.948 . S
O875 Zn865 2.039 . S
O875 C879 1.251 . S
O876 Zn857 2.025 . S
O876 C879 1.254 . S
O877 C858 1.246 . S
O877 Zn865 2.034 . S
O878 Zn857 2.024 . S
O878 C858 1.249 . S
C879 O875 1.251 . S
C879 O876 1.254 . S
H880 C853 0.949 . S
H881 C855 0.950 . S
H882 C862 0.949 . S
H883 C864 0.950 . S
C884 O900 1.251 . S
C884 O902 1.254 . S
N885 C886 1.333 . S
N885 C890 1.307 . S
N885 Zn891 2.020 . S
C886 N885 1.333 . S
C886 C887 1.379 . S
C886 H904 0.952 . S
C887 C886 1.379 . S
C887 C888 1.390 . S
C887 H914 0.949 . S
C888 C887 1.390 . S
C888 C889 1.357 . S
C889 C888 1.357 . S
C889 C890 1.370 . S
C889 H915 0.950 . S
C890 N885 1.307 . S
C890 C889 1.370 . S
C890 H908 0.948 . S
Zn891 N885 2.020 . S
Zn891 O900 2.039 . S
Zn891 O906 2.034 . S
Zn891 O910 2.025 . S
Zn891 O912 2.024 . S
C892 O911 1.246 . S
C892 O912 1.249 . S
N893 C894 1.307 . S
N893 C895 1.333 . S
N893 Zn899 2.020 . S
C894 N893 1.307 . S
C894 C898 1.370 . S
C894 H905 0.948 . S
C895 N893 1.333 . S
C895 C896 1.379 . S
C895 H903 0.952 . S
C896 C895 1.379 . S
C896 C897 1.390 . S
C896 H916 0.949 . S
C897 C896 1.390 . S
C897 C898 1.357 . S
C898 C894 1.370 . S
C898 C897 1.357 . S
C898 H917 0.950 . S
Zn899 N893 2.020 . S
Zn899 O902 2.025 . S
Zn899 O907 2.024 . S
Zn899 O909 2.039 . S
Zn899 O911 2.034 . S
O900 C884 1.251 . S
O900 Zn891 2.039 . S
C901 O906 1.246 . S
C901 O907 1.249 . S
O902 C884 1.254 . S
O902 Zn899 2.025 . S
H903 C895 0.952 . S
H904 C886 0.952 . S
H905 C894 0.948 . S
O906 Zn891 2.034 . S
O906 C901 1.246 . S
O907 Zn899 2.024 . S
O907 C901 1.249 . S
H908 C890 0.948 . S
O909 Zn899 2.039 . S
O909 C913 1.251 . S
O910 Zn891 2.025 . S
O910 C913 1.254 . S
O911 C892 1.246 . S
O911 Zn899 2.034 . S
O912 Zn891 2.024 . S
O912 C892 1.249 . S
C913 O909 1.251 . S
C913 O910 1.254 . S
H914 C887 0.949 . S
H915 C889 0.950 . S
H916 C896 0.949 . S
H917 C898 0.950 . S
C918 O934 1.251 . S
C918 O936 1.254 . S
N919 C920 1.333 . S
N919 C924 1.307 . S
N919 Zn925 2.020 . S
C920 N919 1.333 . S
C920 C921 1.379 . S
C920 H938 0.952 . S
C921 C920 1.379 . S
C921 C922 1.390 . S
C921 H948 0.949 1_455 S
C922 C921 1.390 . S
C922 C923 1.357 . S
C923 C922 1.357 . S
C923 C924 1.370 . S
C923 H949 0.950 . S
C924 N919 1.307 . S
C924 C923 1.370 . S
C924 H942 0.948 . S
Zn925 N919 2.020 . S
Zn925 O934 2.039 . S
Zn925 O940 2.034 . S
Zn925 O944 2.025 . S
Zn925 O946 2.024 . S
C926 O945 1.246 . S
C926 O946 1.249 . S
N927 C928 1.307 . S
N927 C929 1.333 . S
N927 Zn933 2.020 . S
C928 N927 1.307 . S
C928 C932 1.370 . S
C928 H939 0.948 . S
C929 N927 1.333 . S
C929 C930 1.379 . S
C929 H937 0.952 . S
C930 C929 1.379 . S
C930 C931 1.390 . S
C930 H950 0.949 . S
C931 C930 1.390 . S
C931 C932 1.357 . S
C932 C928 1.370 . S
C932 C931 1.357 . S
C932 H951 0.950 . S
Zn933 N927 2.020 . S
Zn933 O936 2.025 . S
Zn933 O941 2.024 . S
Zn933 O943 2.039 . S
Zn933 O945 2.034 . S
O934 C918 1.251 . S
O934 Zn925 2.039 . S
C935 O940 1.246 . S
C935 O941 1.249 . S
O936 C918 1.254 . S
O936 Zn933 2.025 . S
H937 C929 0.952 . S
H938 C920 0.952 . S
H939 C928 0.948 . S
O940 Zn925 2.034 . S
O940 C935 1.246 . S
O941 Zn933 2.024 . S
O941 C935 1.249 . S
H942 C924 0.948 . S
O943 Zn933 2.039 . S
O943 C947 1.251 . S
O944 Zn925 2.025 . S
O944 C947 1.254 . S
O945 C926 1.246 . S
O945 Zn933 2.034 . S
O946 Zn925 2.024 . S
O946 C926 1.249 . S
C947 O943 1.251 . S
C947 O944 1.254 . S
H948 C921 0.949 1_655 S
H949 C923 0.950 . S
H950 C930 0.949 . S
H951 C932 0.950 . S
C952 O968 1.251 . S
C952 O970 1.254 . S
N953 C954 1.333 . S
N953 C958 1.307 . S
N953 Zn959 2.020 . S
C954 N953 1.333 . S
C954 C955 1.379 . S
C954 H972 0.952 . S
C955 C954 1.379 . S
C955 C956 1.390 . S
C955 H982 0.949 . S
C956 C955 1.390 . S
C956 C957 1.357 . S
C957 C956 1.357 . S
C957 C958 1.370 . S
C957 H983 0.950 . S
C958 N953 1.307 . S
C958 C957 1.370 . S
C958 H976 0.948 . S
Zn959 N953 2.020 . S
Zn959 O968 2.039 . S
Zn959 O974 2.034 . S
Zn959 O978 2.025 . S
Zn959 O980 2.024 . S
C960 O979 1.246 . S
C960 O980 1.249 . S
N961 C962 1.307 . S
N961 C963 1.333 . S
N961 Zn967 2.020 . S
C962 N961 1.307 . S
C962 C966 1.370 . S
C962 H973 0.948 . S
C963 N961 1.333 . S
C963 C964 1.379 . S
C963 H971 0.952 . S
C964 C963 1.379 . S
C964 C965 1.390 . S
C964 H984 0.949 . S
C965 C964 1.390 . S
C965 C966 1.357 . S
C966 C962 1.370 . S
C966 C965 1.357 . S
C966 H985 0.950 . S
Zn967 N961 2.020 . S
Zn967 O970 2.025 . S
Zn967 O975 2.024 . S
Zn967 O977 2.039 . S
Zn967 O979 2.034 . S
O968 C952 1.251 . S
O968 Zn959 2.039 . S
C969 O974 1.246 . S
C969 O975 1.249 . S
O970 C952 1.254 . S
O970 Zn967 2.025 . S
H971 C963 0.952 . S
H972 C954 0.952 . S
H973 C962 0.948 . S
O974 Zn959 2.034 . S
O974 C969 1.246 . S
O975 Zn967 2.024 . S
O975 C969 1.249 . S
H976 C958 0.948 . S
O977 Zn967 2.039 . S
O977 C981 1.251 . S
O978 Zn959 2.025 . S
O978 C981 1.254 . S
O979 C960 1.246 . S
O979 Zn967 2.034 . S
O980 Zn959 2.024 . S
O980 C960 1.249 . S
C981 O977 1.251 . S
C981 O978 1.254 . S
H982 C955 0.949 . S
H983 C957 0.950 . S
H984 C964 0.949 . S
H985 C966 0.950 . S
C986 O1002 1.251 . S
C986 O1004 1.254 . S
N987 C988 1.333 . S
N987 C992 1.307 . S
N987 Zn993 2.020 . S
C988 N987 1.333 . S
C988 C989 1.379 . S
C988 H1006 0.952 . S
C989 C988 1.379 . S
C989 C990 1.390 1_554 S
C989 H1016 0.949 1_455 S
C990 C989 1.390 1_556 S
C990 C991 1.357 . S
C991 C990 1.357 . S
C991 C992 1.370 1_556 S
C991 H1017 0.950 . S
C992 N987 1.307 . S
C992 C991 1.370 1_554 S
C992 H1010 0.948 . S
Zn993 N987 2.020 . S
Zn993 O1002 2.039 . S
Zn993 O1008 2.034 . S
Zn993 O1012 2.025 . S
Zn993 O1014 2.024 . S
C994 O1013 1.246 . S
C994 O1014 1.249 . S
N995 C996 1.307 . S
N995 C997 1.333 . S
N995 Zn1001 2.020 . S
C996 N995 1.307 . S
C996 C1000 1.370 . S
C996 H1007 0.948 . S
C997 N995 1.333 . S
C997 C998 1.379 . S
C997 H1005 0.952 . S
C998 C997 1.379 . S
C998 C999 1.390 . S
C998 H1018 0.949 . S
C999 C998 1.390 . S
C999 C1000 1.357 . S
C1000 C996 1.370 . S
C1000 C999 1.357 . S
C1000 H1019 0.950 . S
Zn1001 N995 2.020 . S
Zn1001 O1004 2.025 . S
Zn1001 O1009 2.024 . S
Zn1001 O1011 2.039 . S
Zn1001 O1013 2.034 . S
O1002 C986 1.251 . S
O1002 Zn993 2.039 . S
C1003 O1008 1.246 . S
C1003 O1009 1.249 . S
O1004 C986 1.254 . S
O1004 Zn1001 2.025 . S
H1005 C997 0.952 . S
H1006 C988 0.952 . S
H1007 C996 0.948 . S
O1008 Zn993 2.034 . S
O1008 C1003 1.246 . S
O1009 Zn1001 2.024 . S
O1009 C1003 1.249 . S
H1010 C992 0.948 . S
O1011 Zn1001 2.039 . S
O1011 C1015 1.251 . S
O1012 Zn993 2.025 . S
O1012 C1015 1.254 . S
O1013 C994 1.246 . S
O1013 Zn1001 2.034 . S
O1014 Zn993 2.024 . S
O1014 C994 1.249 . S
C1015 O1011 1.251 . S
C1015 O1012 1.254 . S
H1016 C989 0.949 1_655 S
H1017 C991 0.950 . S
H1018 C998 0.949 . S
H1019 C1000 0.950 . S
C1020 O1036 1.251 . S
C1020 O1038 1.254 . S
N1021 C1022 1.333 . S
N1021 C1026 1.307 . S
N1021 Zn1027 2.020 . S
C1022 N1021 1.333 . S
C1022 C1023 1.379 . S
C1022 H1040 0.952 . S
C1023 C1022 1.379 . S
C1023 C1024 1.390 . S
C1023 H1050 0.949 . S
C1024 C1023 1.390 . S
C1024 C1025 1.357 . S
C1025 C1024 1.357 . S
C1025 C1026 1.370 . S
C1025 H1051 0.950 . S
C1026 N1021 1.307 . S
C1026 C1025 1.370 . S
C1026 H1044 0.948 . S
Zn1027 N1021 2.020 . S
Zn1027 O1036 2.039 . S
Zn1027 O1042 2.034 . S
Zn1027 O1046 2.025 . S
Zn1027 O1048 2.024 . S
C1028 O1047 1.246 . S
C1028 O1048 1.249 . S
N1029 C1030 1.307 . S
N1029 C1031 1.333 . S
N1029 Zn1035 2.020 . S
C1030 N1029 1.307 . S
C1030 C1034 1.370 . S
C1030 H1041 0.948 . S
C1031 N1029 1.333 . S
C1031 C1032 1.379 . S
C1031 H1039 0.952 . S
C1032 C1031 1.379 . S
C1032 C1033 1.390 . S
C1032 H1052 0.949 . S
C1033 C1032 1.390 . S
C1033 C1034 1.357 . S
C1034 C1030 1.370 . S
C1034 C1033 1.357 . S
C1034 H1053 0.950 . S
Zn1035 N1029 2.020 . S
Zn1035 O1038 2.025 . S
Zn1035 O1043 2.024 . S
Zn1035 O1045 2.039 . S
Zn1035 O1047 2.034 . S
O1036 C1020 1.251 . S
O1036 Zn1027 2.039 . S
C1037 O1042 1.246 . S
C1037 O1043 1.249 . S
O1038 C1020 1.254 . S
O1038 Zn1035 2.025 . S
H1039 C1031 0.952 . S
H1040 C1022 0.952 . S
H1041 C1030 0.948 . S
O1042 Zn1027 2.034 . S
O1042 C1037 1.246 . S
O1043 Zn1035 2.024 . S
O1043 C1037 1.249 . S
H1044 C1026 0.948 . S
O1045 Zn1035 2.039 . S
O1045 C1049 1.251 . S
O1046 Zn1027 2.025 . S
O1046 C1049 1.254 . S
O1047 C1028 1.246 . S
O1047 Zn1035 2.034 . S
O1048 Zn1027 2.024 . S
O1048 C1028 1.249 . S
C1049 O1045 1.251 . S
C1049 O1046 1.254 . S
H1050 C1023 0.949 . S
H1051 C1025 0.950 . S
H1052 C1032 0.949 . S
H1053 C1034 0.950 . S
C1054 O1070 1.251 . S
C1054 O1072 1.254 . S
N1055 C1056 1.333 . S
N1055 C1060 1.307 . S
N1055 Zn1061 2.020 . S
C1056 N1055 1.333 . S
C1056 C1057 1.379 . S
C1056 H1074 0.952 . S
C1057 C1056 1.379 . S
C1057 C1058 1.390 . S
C1057 H1084 0.949 . S
C1058 C1057 1.390 . S
C1058 C1059 1.357 . S
C1059 C1058 1.357 . S
C1059 C1060 1.370 . S
C1059 H1085 0.950 . S
C1060 N1055 1.307 . S
C1060 C1059 1.370 . S
C1060 H1078 0.948 . S
Zn1061 N1055 2.020 . S
Zn1061 O1070 2.039 . S
Zn1061 O1076 2.034 . S
Zn1061 O1080 2.025 . S
Zn1061 O1082 2.024 . S
C1062 O1081 1.246 . S
C1062 O1082 1.249 . S
N1063 C1064 1.307 . S
N1063 C1065 1.333 . S
N1063 Zn1069 2.020 . S
C1064 N1063 1.307 . S
C1064 C1068 1.370 . S
C1064 H1075 0.948 . S
C1065 N1063 1.333 . S
C1065 C1066 1.379 . S
C1065 H1073 0.952 . S
C1066 C1065 1.379 . S
C1066 C1067 1.390 . S
C1066 H1086 0.949 . S
C1067 C1066 1.390 . S
C1067 C1068 1.357 . S
C1068 C1064 1.370 . S
C1068 C1067 1.357 . S
C1068 H1087 0.950 . S
Zn1069 N1063 2.020 . S
Zn1069 O1072 2.025 . S
Zn1069 O1077 2.024 . S
Zn1069 O1079 2.039 . S
Zn1069 O1081 2.034 . S
O1070 C1054 1.251 . S
O1070 Zn1061 2.039 . S
C1071 O1076 1.246 . S
C1071 O1077 1.249 . S
O1072 C1054 1.254 . S
O1072 Zn1069 2.025 . S
H1073 C1065 0.952 . S
H1074 C1056 0.952 . S
H1075 C1064 0.948 . S
O1076 Zn1061 2.034 . S
O1076 C1071 1.246 . S
O1077 Zn1069 2.024 . S
O1077 C1071 1.249 . S
H1078 C1060 0.948 . S
O1079 Zn1069 2.039 . S
O1079 C1083 1.251 . S
O1080 Zn1061 2.025 . S
O1080 C1083 1.254 . S
O1081 C1062 1.246 . S
O1081 Zn1069 2.034 . S
O1082 Zn1061 2.024 . S
O1082 C1062 1.249 . S
C1083 O1079 1.251 . S
C1083 O1080 1.254 . S
H1084 C1057 0.949 . S
H1085 C1059 0.950 . S
H1086 C1066 0.949 . S
H1087 C1068 0.950 . S
C1088 C1089 1.369 . S
C1088 C1090 1.419 . S
C1088 H1092 0.930 . S
C1089 C1088 1.369 . S
C1089 C1098 1.429 . S
C1090 C1088 1.419 . S
C1090 C1091 1.363 . S
C1090 H1093 0.929 . S
C1091 C1090 1.363 . S
C1091 C1097 1.428 . S
H1092 C1088 0.930 . S
H1093 C1090 0.929 . S
S1094 N1095 1.613 . S
S1094 N1096 1.610 . S
N1095 S1094 1.613 . S
N1095 C1098 1.350 . S
N1096 S1094 1.610 . S
N1096 C1097 1.351 . S
C1097 C1091 1.428 . S
C1097 N1096 1.351 . S
C1097 C1098 1.434 . S
C1098 C1089 1.429 . S
C1098 N1095 1.350 . S
C1098 C1097 1.434 . S
C1099 C1100 1.369 . S
C1099 C1101 1.419 1_455 S
C1099 H1103 0.930 . S
C1100 C1099 1.369 . S
C1100 C1109 1.429 1_455 S
C1101 C1099 1.419 1_655 S
C1101 C1102 1.363 . S
C1101 H1104 0.929 . S
C1102 C1101 1.363 . S
C1102 C1108 1.428 . S
H1103 C1099 0.930 . S
H1104 C1101 0.929 . S
S1105 N1106 1.613 . S
S1105 N1107 1.610 . S
N1106 S1105 1.613 . S
N1106 C1109 1.350 . S
N1107 S1105 1.610 . S
N1107 C1108 1.351 . S
C1108 C1102 1.428 . S
C1108 N1107 1.351 . S
C1108 C1109 1.434 . S
C1109 C1100 1.429 1_655 S
C1109 N1106 1.350 . S
C1109 C1108 1.434 . S
C1110 C1111 1.369 . S
C1110 C1112 1.419 . S
C1110 H1114 0.930 . S
C1111 C1110 1.369 . S
C1111 C1120 1.429 . S
C1112 C1110 1.419 . S
C1112 C1113 1.363 . S
C1112 H1115 0.929 . S
C1113 C1112 1.363 . S
C1113 C1119 1.428 . S
H1114 C1110 0.930 . S
H1115 C1112 0.929 . S
S1116 N1117 1.613 . S
S1116 N1118 1.610 . S
N1117 S1116 1.613 . S
N1117 C1120 1.350 . S
N1118 S1116 1.610 . S
N1118 C1119 1.351 . S
C1119 C1113 1.428 . S
C1119 N1118 1.351 . S
C1119 C1120 1.434 . S
C1120 C1111 1.429 . S
C1120 N1117 1.350 . S
C1120 C1119 1.434 . S
C1121 C1122 1.369 . S
C1121 C1123 1.419 . S
C1121 H1125 0.930 . S
C1122 C1121 1.369 . S
C1122 C1131 1.429 . S
C1123 C1121 1.419 . S
C1123 C1124 1.363 . S
C1123 H1126 0.929 . S
C1124 C1123 1.363 . S
C1124 C1130 1.428 . S
H1125 C1121 0.930 . S
H1126 C1123 0.929 . S
S1127 N1128 1.613 . S
S1127 N1129 1.610 . S
N1128 S1127 1.613 . S
N1128 C1131 1.350 . S
N1129 S1127 1.610 . S
N1129 C1130 1.351 . S
C1130 C1124 1.428 . S
C1130 N1129 1.351 . S
C1130 C1131 1.434 . S
C1131 C1122 1.429 . S
C1131 N1128 1.350 . S
C1131 C1130 1.434 . S
C1132 C1133 1.369 . S
C1132 C1134 1.419 . S
C1132 H1136 0.930 . S
C1133 C1132 1.369 . S
C1133 C1142 1.429 . S
C1134 C1132 1.419 . S
C1134 C1135 1.363 . S
C1134 H1137 0.929 . S
C1135 C1134 1.363 . S
C1135 C1141 1.428 . S
H1136 C1132 0.930 . S
H1137 C1134 0.929 . S
S1138 N1139 1.613 . S
S1138 N1140 1.610 . S
N1139 S1138 1.613 . S
N1139 C1142 1.350 . S
N1140 S1138 1.610 . S
N1140 C1141 1.351 . S
C1141 C1135 1.428 . S
C1141 N1140 1.351 . S
C1141 C1142 1.434 . S
C1142 C1133 1.429 . S
C1142 N1139 1.350 . S
C1142 C1141 1.434 . S
C1143 C1144 1.369 . S
C1143 C1145 1.419 . S
C1143 H1147 0.930 . S
C1144 C1143 1.369 . S
C1144 C1153 1.429 . S
C1145 C1143 1.419 . S
C1145 C1146 1.363 . S
C1145 H1148 0.929 . S
C1146 C1145 1.363 . S
C1146 C1152 1.428 . S
H1147 C1143 0.930 . S
H1148 C1145 0.929 . S
S1149 N1150 1.613 . S
S1149 N1151 1.610 . S
N1150 S1149 1.613 . S
N1150 C1153 1.350 . S
N1151 S1149 1.610 . S
N1151 C1152 1.351 . S
C1152 C1146 1.428 . S
C1152 N1151 1.351 . S
C1152 C1153 1.434 . S
C1153 C1144 1.429 . S
C1153 N1150 1.350 . S
C1153 C1152 1.434 . S
C1154 C1155 1.369 . S
C1154 C1156 1.419 . S
C1154 H1158 0.930 . S
C1155 C1154 1.369 . S
C1155 C1164 1.429 . S
C1156 C1154 1.419 . S
C1156 C1157 1.363 . S
C1156 H1159 0.929 . S
C1157 C1156 1.363 . S
C1157 C1163 1.428 . S
H1158 C1154 0.930 . S
H1159 C1156 0.929 . S
S1160 N1161 1.613 . S
S1160 N1162 1.610 . S
N1161 S1160 1.613 . S
N1161 C1164 1.350 . S
N1162 S1160 1.610 . S
N1162 C1163 1.351 . S
C1163 C1157 1.428 . S
C1163 N1162 1.351 . S
C1163 C1164 1.434 . S
C1164 C1155 1.429 . S
C1164 N1161 1.350 . S
C1164 C1163 1.434 . S
C1165 C1166 1.367 1_655 S
C1165 C1167 1.429 . S
C1165 H1169 0.921 1_655 S
C1166 C1165 1.367 1_455 S
C1166 C1175 1.429 1_455 S
C1167 C1165 1.429 . S
C1167 C1168 1.363 . S
C1167 H1170 0.929 . S
C1168 C1167 1.363 . S
C1168 C1174 1.428 . S
H1169 C1165 0.921 1_455 S
H1170 C1167 0.929 . S
S1171 N1172 1.613 . S
S1171 N1173 1.610 . S
N1172 S1171 1.613 . S
N1172 C1175 1.350 . S
N1173 S1171 1.610 . S
N1173 C1174 1.351 . S
C1174 C1168 1.428 . S
C1174 N1173 1.351 . S
C1174 C1175 1.434 . S
C1175 C1166 1.429 1_655 S
C1175 N1172 1.350 . S
C1175 C1174 1.434 . S
C1176 C1177 1.369 . S
C1176 C1178 1.419 . S
C1176 H1180 0.930 . S
C1177 C1176 1.369 . S
C1177 C1186 1.429 . S
C1178 C1176 1.419 . S
C1178 C1179 1.363 . S
C1178 H1181 0.929 . S
C1179 C1178 1.363 . S
C1179 C1185 1.428 . S
H1180 C1176 0.930 . S
H1181 C1178 0.929 . S
S1182 N1183 1.613 . S
S1182 N1184 1.610 . S
N1183 S1182 1.613 . S
N1183 C1186 1.350 . S
N1184 S1182 1.610 . S
N1184 C1185 1.351 . S
C1185 C1179 1.428 . S
C1185 N1184 1.351 . S
C1185 C1186 1.434 . S
C1186 C1177 1.429 . S
C1186 N1183 1.350 . S
C1186 C1185 1.434 . S
C1187 C1188 1.369 . S
C1187 C1189 1.419 1_655 S
C1187 H1191 0.930 . S
C1188 C1187 1.369 . S
C1188 C1197 1.429 1_655 S
C1189 C1187 1.419 1_455 S
C1189 C1190 1.363 . S
C1189 H1192 0.929 . S
C1190 C1189 1.363 . S
C1190 C1196 1.428 . S
H1191 C1187 0.930 . S
H1192 C1189 0.929 . S
S1193 N1194 1.613 . S
S1193 N1195 1.610 . S
N1194 S1193 1.613 . S
N1194 C1197 1.350 . S
N1195 S1193 1.610 . S
N1195 C1196 1.351 . S
C1196 C1190 1.428 . S
C1196 N1195 1.351 . S
C1196 C1197 1.434 . S
C1197 C1188 1.429 1_455 S
C1197 N1194 1.350 . S
C1197 C1196 1.434 . S
C1198 C1199 1.369 . S
C1198 C1200 1.419 . S
C1198 H1202 0.930 . S
C1199 C1198 1.369 . S
C1199 C1208 1.429 . S
C1200 C1198 1.419 . S
C1200 C1201 1.363 . S
C1200 H1203 0.929 . S
C1201 C1200 1.363 . S
C1201 C1207 1.428 . S
H1202 C1198 0.930 . S
H1203 C1200 0.929 . S
S1204 N1205 1.613 . S
S1204 N1206 1.610 . S
N1205 S1204 1.613 . S
N1205 C1208 1.350 . S
N1206 S1204 1.610 . S
N1206 C1207 1.351 . S
C1207 C1201 1.428 . S
C1207 N1206 1.351 . S
C1207 C1208 1.434 . S
C1208 C1199 1.429 . S
C1208 N1205 1.350 . S
C1208 C1207 1.434 . S
C1209 C1210 1.369 . S
C1209 C1211 1.419 . S
C1209 H1213 0.930 . S
C1210 C1209 1.369 . S
C1210 C1219 1.429 . S
C1211 C1209 1.419 . S
C1211 C1212 1.363 . S
C1211 H1214 0.929 . S
C1212 C1211 1.363 . S
C1212 C1218 1.428 . S
H1213 C1209 0.930 . S
H1214 C1211 0.929 . S
S1215 N1216 1.613 . S
S1215 N1217 1.610 . S
N1216 S1215 1.613 . S
N1216 C1219 1.350 . S
N1217 S1215 1.610 . S
N1217 C1218 1.351 . S
C1218 C1212 1.428 . S
C1218 N1217 1.351 . S
C1218 C1219 1.434 . S
C1219 C1210 1.429 . S
C1219 N1216 1.350 . S
C1219 C1218 1.434 . S
C1220 C1221 1.369 . S
C1220 C1222 1.419 . S
C1220 H1224 0.930 . S
C1221 C1220 1.369 . S
C1221 C1230 1.429 . S
C1222 C1220 1.419 . S
C1222 C1223 1.363 . S
C1222 H1225 0.929 . S
C1223 C1222 1.363 . S
C1223 C1229 1.428 . S
H1224 C1220 0.930 . S
H1225 C1222 0.929 . S
S1226 N1227 1.613 . S
S1226 N1228 1.610 . S
N1227 S1226 1.613 . S
N1227 C1230 1.350 . S
N1228 S1226 1.610 . S
N1228 C1229 1.351 . S
C1229 C1223 1.428 . S
C1229 N1228 1.351 . S
C1229 C1230 1.434 . S
C1230 C1221 1.429 . S
C1230 N1227 1.350 . S
C1230 C1229 1.434 . S
C1231 C1232 1.369 . S
C1231 C1233 1.419 . S
C1231 H1235 0.930 . S
C1232 C1231 1.369 . S
C1232 C1241 1.429 . S
C1233 C1231 1.419 . S
C1233 C1234 1.363 . S
C1233 H1236 0.929 . S
C1234 C1233 1.363 . S
C1234 C1240 1.428 . S
H1235 C1231 0.930 . S
H1236 C1233 0.929 . S
S1237 N1238 1.613 . S
S1237 N1239 1.610 . S
N1238 S1237 1.613 . S
N1238 C1241 1.350 . S
N1239 S1237 1.610 . S
N1239 C1240 1.351 . S
C1240 C1234 1.428 . S
C1240 N1239 1.351 . S
C1240 C1241 1.434 . S
C1241 C1232 1.429 . S
C1241 N1238 1.350 . S
C1241 C1240 1.434 . S
C1242 C1243 1.369 . S
C1242 C1244 1.419 . S
C1242 H1246 0.930 . S
C1243 C1242 1.369 . S
C1243 C1252 1.429 . S
C1244 C1242 1.419 . S
C1244 C1245 1.363 . S
C1244 H1247 0.929 . S
C1245 C1244 1.363 . S
C1245 C1251 1.428 . S
H1246 C1242 0.930 . S
H1247 C1244 0.929 . S
S1248 N1249 1.613 . S
S1248 N1250 1.610 . S
N1249 S1248 1.613 . S
N1249 C1252 1.350 . S
N1250 S1248 1.610 . S
N1250 C1251 1.351 . S
C1251 C1245 1.428 . S
C1251 N1250 1.351 . S
C1251 C1252 1.434 . S
C1252 C1243 1.429 . S
C1252 N1249 1.350 . S
C1252 C1251 1.434 . S
C1253 C1254 1.369 . S
C1253 C1255 1.419 . S
C1253 H1257 0.930 . S
C1254 C1253 1.369 . S
C1254 C1263 1.429 . S
C1255 C1253 1.419 . S
C1255 C1256 1.363 1_455 S
C1255 H1258 0.929 . S
C1256 C1255 1.363 1_655 S
C1256 C1262 1.428 1_655 S
H1257 C1253 0.930 . S
H1258 C1255 0.929 . S
S1259 N1260 1.613 . S
S1259 N1261 1.610 1_455 S
N1260 S1259 1.613 . S
N1260 C1263 1.350 . S
N1261 S1259 1.610 1_655 S
N1261 C1262 1.351 1_655 S
C1262 C1256 1.428 1_455 S
C1262 N1261 1.351 1_455 S
C1262 C1263 1.434 . S
C1263 C1254 1.429 . S
C1263 N1260 1.350 . S
C1263 C1262 1.434 . S
C1264 C1265 1.369 . S
C1264 C1266 1.419 . S
C1264 H1268 0.930 . S
C1265 C1264 1.369 . S
C1265 C1274 1.429 . S
C1266 C1264 1.419 . S
C1266 C1267 1.363 . S
C1266 H1269 0.929 . S
C1267 C1266 1.363 . S
C1267 C1273 1.428 . S
H1268 C1264 0.930 . S
H1269 C1266 0.929 . S
S1270 N1271 1.613 . S
S1270 N1272 1.610 . S
N1271 S1270 1.613 . S
N1271 C1274 1.350 . S
N1272 S1270 1.610 . S
N1272 C1273 1.351 . S
C1273 C1267 1.428 . S
C1273 N1272 1.351 . S
C1273 C1274 1.434 . S
C1274 C1265 1.429 . S
C1274 N1271 1.350 . S
C1274 C1273 1.434 . S
C1275 C1276 1.369 . S
C1275 C1277 1.419 . S
C1275 H1279 0.930 . S
C1276 C1275 1.369 . S
C1276 C1285 1.429 . S
C1277 C1275 1.419 . S
C1277 C1278 1.363 . S
C1277 H1280 0.929 . S
C1278 C1277 1.363 . S
C1278 C1284 1.428 . S
H1279 C1275 0.930 . S
H1280 C1277 0.929 . S
S1281 N1282 1.613 . S
S1281 N1283 1.610 . S
N1282 S1281 1.613 . S
N1282 C1285 1.350 . S
N1283 S1281 1.610 . S
N1283 C1284 1.351 . S
C1284 C1278 1.428 . S
C1284 N1283 1.351 . S
C1284 C1285 1.434 . S
C1285 C1276 1.429 . S
C1285 N1282 1.350 . S
C1285 C1284 1.434 . S
C1286 C1287 1.369 . S
C1286 C1288 1.419 . S
C1286 H1290 0.930 . S
C1287 C1286 1.369 . S
C1287 C1296 1.429 . S
C1288 C1286 1.419 . S
C1288 C1289 1.363 . S
C1288 H1291 0.929 . S
C1289 C1288 1.363 . S
C1289 C1295 1.428 . S
H1290 C1286 0.930 . S
H1291 C1288 0.929 . S
S1292 N1293 1.613 . S
S1292 N1294 1.610 . S
N1293 S1292 1.613 . S
N1293 C1296 1.350 . S
N1294 S1292 1.610 . S
N1294 C1295 1.351 . S
C1295 C1289 1.428 . S
C1295 N1294 1.351 . S
C1295 C1296 1.434 . S
C1296 C1287 1.429 . S
C1296 N1293 1.350 . S
C1296 C1295 1.434 . S
C1297 C1298 1.369 1_455 S
C1297 C1299 1.419 . S
C1297 H1301 0.930 . S
C1298 C1297 1.369 1_655 S
C1298 C1307 1.429 . S
C1299 C1297 1.419 . S
C1299 C1300 1.363 . S
C1299 H1302 0.929 . S
C1300 C1299 1.363 . S
C1300 C1306 1.428 . S
H1301 C1297 0.930 . S
H1302 C1299 0.929 . S
S1303 N1304 1.613 . S
S1303 N1305 1.610 1_655 S
N1304 S1303 1.613 . S
N1304 C1307 1.350 . S
N1305 S1303 1.610 1_455 S
N1305 C1306 1.351 . S
C1306 C1300 1.428 . S
C1306 N1305 1.351 . S
C1306 C1307 1.434 1_455 S
C1307 C1298 1.429 . S
C1307 N1304 1.350 . S
C1307 C1306 1.434 1_655 S
C1308 C1309 1.369 . S
C1308 C1310 1.419 . S
C1308 H1312 0.930 . S
C1309 C1308 1.369 . S
C1309 C1318 1.429 . S
C1310 C1308 1.419 . S
C1310 C1311 1.363 . S
C1310 H1313 0.929 . S
C1311 C1310 1.363 . S
C1311 C1317 1.428 . S
H1312 C1308 0.930 . S
H1313 C1310 0.929 . S
S1314 N1315 1.613 . S
S1314 N1316 1.610 . S
N1315 S1314 1.613 . S
N1315 C1318 1.350 . S
N1316 S1314 1.610 . S
N1316 C1317 1.351 . S
C1317 C1311 1.428 . S
C1317 N1316 1.351 . S
C1317 C1318 1.434 . S
C1318 C1309 1.429 . S
C1318 N1315 1.350 . S
C1318 C1317 1.434 . S
C1319 C1320 1.369 . S
C1319 C1321 1.419 . S
C1319 H1323 0.930 . S
C1320 C1319 1.369 . S
C1320 C1329 1.429 . S
C1321 C1319 1.419 . S
C1321 C1322 1.363 1_455 S
C1321 H1324 0.929 . S
C1322 C1321 1.363 1_655 S
C1322 C1328 1.428 . S
H1323 C1319 0.930 . S
H1324 C1321 0.929 . S
S1325 N1326 1.613 1_655 S
S1325 N1327 1.610 . S
N1326 S1325 1.613 1_455 S
N1326 C1329 1.350 . S
N1327 S1325 1.610 . S
N1327 C1328 1.351 . S
C1328 C1322 1.428 . S
C1328 N1327 1.351 . S
C1328 C1329 1.434 1_655 S
C1329 C1320 1.429 . S
C1329 N1326 1.350 . S
C1329 C1328 1.434 1_455 S
C1330 C1331 1.369 . S
C1330 C1332 1.419 . S
C1330 H1334 0.930 . S
C1331 C1330 1.369 . S
C1331 C1340 1.429 . S
C1332 C1330 1.419 . S
C1332 C1333 1.363 . S
C1332 H1335 0.929 . S
C1333 C1332 1.363 . S
C1333 C1339 1.428 . S
H1334 C1330 0.930 . S
H1335 C1332 0.929 . S
S1336 N1337 1.613 . S
S1336 N1338 1.610 . S
N1337 S1336 1.613 . S
N1337 C1340 1.350 . S
N1338 S1336 1.610 . S
N1338 C1339 1.351 . S
C1339 C1333 1.428 . S
C1339 N1338 1.351 . S
C1339 C1340 1.434 . S
C1340 C1331 1.429 . S
C1340 N1337 1.350 . S
C1340 C1339 1.434 . S
C1341 C1342 1.369 . S
C1341 C1343 1.419 . S
C1341 H1345 0.930 . S
C1342 C1341 1.369 . S
C1342 C1351 1.429 . S
C1343 C1341 1.419 . S
C1343 C1344 1.363 . S
C1343 H1346 0.929 . S
C1344 C1343 1.363 . S
C1344 C1350 1.428 . S
H1345 C1341 0.930 . S
H1346 C1343 0.929 . S
S1347 N1348 1.613 . S
S1347 N1349 1.610 . S
N1348 S1347 1.613 . S
N1348 C1351 1.350 . S
N1349 S1347 1.610 . S
N1349 C1350 1.351 . S
C1350 C1344 1.428 . S
C1350 N1349 1.351 . S
C1350 C1351 1.434 . S
C1351 C1342 1.429 . S
C1351 N1348 1.350 . S
C1351 C1350 1.434 . S
C1352 C1353 1.369 . S
C1352 C1354 1.419 . S
C1352 H1356 0.930 . S
C1353 C1352 1.369 . S
C1353 C1362 1.429 . S
C1354 C1352 1.419 . S
C1354 C1355 1.363 . S
C1354 H1357 0.929 . S
C1355 C1354 1.363 . S
C1355 C1361 1.428 . S
H1356 C1352 0.930 . S
H1357 C1354 0.929 . S
S1358 N1359 1.613 . S
S1358 N1360 1.610 . S
N1359 S1358 1.613 . S
N1359 C1362 1.350 . S
N1360 S1358 1.610 . S
N1360 C1361 1.351 . S
C1361 C1355 1.428 . S
C1361 N1360 1.351 . S
C1361 C1362 1.434 . S
C1362 C1353 1.429 . S
C1362 N1359 1.350 . S
C1362 C1361 1.434 . S
C1363 C1364 1.369 . S
C1363 C1365 1.419 . S
C1363 H1367 0.930 . S
C1364 C1363 1.369 . S
C1364 C1373 1.429 . S
C1365 C1363 1.419 . S
C1365 C1366 1.363 . S
C1365 H1368 0.929 . S
C1366 C1365 1.363 . S
C1366 C1372 1.428 . S
H1367 C1363 0.930 . S
H1368 C1365 0.929 . S
S1369 N1370 1.613 . S
S1369 N1371 1.610 . S
N1370 S1369 1.613 . S
N1370 C1373 1.350 . S
N1371 S1369 1.610 . S
N1371 C1372 1.351 . S
C1372 C1366 1.428 . S
C1372 N1371 1.351 . S
C1372 C1373 1.434 . S
C1373 C1364 1.429 . S
C1373 N1370 1.350 . S
C1373 C1372 1.434 . S
C1374 C1375 1.369 . S
C1374 C1376 1.419 . S
C1374 H1378 0.930 . S
C1375 C1374 1.369 . S
C1375 C1384 1.429 . S
C1376 C1374 1.419 . S
C1376 C1377 1.363 . S
C1376 H1379 0.929 . S
C1377 C1376 1.363 . S
C1377 C1383 1.428 . S
H1378 C1374 0.930 . S
H1379 C1376 0.929 . S
S1380 N1381 1.613 . S
S1380 N1382 1.610 . S
N1381 S1380 1.613 . S
N1381 C1384 1.350 . S
N1382 S1380 1.610 . S
N1382 C1383 1.351 . S
C1383 C1377 1.428 . S
C1383 N1382 1.351 . S
C1383 C1384 1.434 . S
C1384 C1375 1.429 . S
C1384 N1381 1.350 . S
C1384 C1383 1.434 . S
C1385 C1386 1.369 1_655 S
C1385 C1387 1.419 . S
C1385 H1389 0.930 . S
C1386 C1385 1.369 1_455 S
C1386 C1395 1.429 . S
C1387 C1385 1.419 . S
C1387 C1388 1.363 . S
C1387 H1390 0.929 . S
C1388 C1387 1.363 . S
C1388 C1394 1.428 . S
H1389 C1385 0.930 . S
H1390 C1387 0.929 . S
S1391 N1392 1.613 . S
S1391 N1393 1.610 1_455 S
N1392 S1391 1.613 . S
N1392 C1395 1.350 . S
N1393 S1391 1.610 1_655 S
N1393 C1394 1.351 . S
C1394 C1388 1.428 . S
C1394 N1393 1.351 . S
C1394 C1395 1.434 1_655 S
C1395 C1386 1.429 . S
C1395 N1392 1.350 . S
C1395 C1394 1.434 1_455 S
C1396 C1397 1.369 . S
C1396 C1398 1.419 . S
C1396 H1400 0.930 . S
C1397 C1396 1.369 . S
C1397 C1406 1.429 . S
C1398 C1396 1.419 . S
C1398 C1399 1.363 . S
C1398 H1401 0.929 . S
C1399 C1398 1.363 . S
C1399 C1405 1.428 . S
H1400 C1396 0.930 . S
H1401 C1398 0.929 . S
S1402 N1403 1.613 . S
S1402 N1404 1.610 . S
N1403 S1402 1.613 . S
N1403 C1406 1.350 . S
N1404 S1402 1.610 . S
N1404 C1405 1.351 . S
C1405 C1399 1.428 . S
C1405 N1404 1.351 . S
C1405 C1406 1.434 . S
C1406 C1397 1.429 . S
C1406 N1403 1.350 . S
C1406 C1405 1.434 . S
C1407 C1408 1.369 . S
C1407 C1409 1.419 . S
C1407 H1411 0.930 . S
C1408 C1407 1.369 . S
C1408 C1417 1.429 . S
C1409 C1407 1.419 . S
C1409 C1410 1.363 1_655 S
C1409 H1412 0.929 . S
C1410 C1409 1.363 1_455 S
C1410 C1416 1.428 . S
H1411 C1407 0.930 . S
H1412 C1409 0.929 . S
S1413 N1414 1.613 1_455 S
S1413 N1415 1.610 . S
N1414 S1413 1.613 1_655 S
N1414 C1417 1.350 . S
N1415 S1413 1.610 . S
N1415 C1416 1.351 . S
C1416 C1410 1.428 . S
C1416 N1415 1.351 . S
C1416 C1417 1.434 1_455 S
C1417 C1408 1.429 . S
C1417 N1414 1.350 . S
C1417 C1416 1.434 1_655 S
C1418 C1419 1.369 . S
C1418 C1420 1.419 . S
C1418 H1422 0.930 . S
C1419 C1418 1.369 . S
C1419 C1428 1.429 . S
C1420 C1418 1.419 . S
C1420 C1421 1.363 . S
C1420 H1423 0.929 . S
C1421 C1420 1.363 . S
C1421 C1427 1.428 . S
H1422 C1418 0.930 . S
H1423 C1420 0.929 . S
S1424 N1425 1.613 . S
S1424 N1426 1.610 . S
N1425 S1424 1.613 . S
N1425 C1428 1.350 . S
N1426 S1424 1.610 . S
N1426 C1427 1.351 . S
C1427 C1421 1.428 . S
C1427 N1426 1.351 . S
C1427 C1428 1.434 . S
C1428 C1419 1.429 . S
C1428 N1425 1.350 . S
C1428 C1427 1.434 . S
C1429 C1430 1.369 . S
C1429 C1431 1.419 . S
C1429 H1433 0.930 . S
C1430 C1429 1.369 . S
C1430 C1439 1.429 . S
C1431 C1429 1.419 . S
C1431 C1432 1.363 . S
C1431 H1434 0.929 . S
C1432 C1431 1.363 . S
C1432 C1438 1.428 . S
H1433 C1429 0.930 . S
H1434 C1431 0.929 . S
S1435 N1436 1.613 . S
S1435 N1437 1.610 . S
N1436 S1435 1.613 . S
N1436 C1439 1.350 . S
N1437 S1435 1.610 . S
N1437 C1438 1.351 . S
C1438 C1432 1.428 . S
C1438 N1437 1.351 . S
C1438 C1439 1.434 . S
C1439 C1430 1.429 . S
C1439 N1436 1.350 . S
C1439 C1438 1.434 . S
C1440 C1441 1.369 . S
C1440 C1442 1.419 1_455 S
C1440 H1444 0.930 . S
C1441 C1440 1.369 . S
C1441 C1450 1.429 . S
C1442 C1440 1.419 1_655 S
C1442 C1443 1.363 . S
C1442 H1445 0.929 . S
C1443 C1442 1.363 . S
C1443 C1449 1.428 . S
H1444 C1440 0.930 . S
H1445 C1442 0.929 . S
S1446 N1447 1.613 1_655 S
S1446 N1448 1.610 . S
N1447 S1446 1.613 1_455 S
N1447 C1450 1.350 . S
N1448 S1446 1.610 . S
N1448 C1449 1.351 . S
C1449 C1443 1.428 . S
C1449 N1448 1.351 . S
C1449 C1450 1.434 1_655 S
C1450 C1441 1.429 . S
C1450 N1447 1.350 . S
C1450 C1449 1.434 1_455 S
C1451 C1452 1.369 . S
C1451 C1453 1.419 . S
C1451 H1455 0.930 . S
C1452 C1451 1.369 . S
C1452 C1461 1.429 1_655 S
C1453 C1451 1.419 . S
C1453 C1454 1.363 1_655 S
C1453 H1456 0.929 . S
C1454 C1453 1.363 1_455 S
C1454 C1460 1.428 . S
H1455 C1451 0.930 . S
H1456 C1453 0.929 . S
S1457 N1458 1.613 . S
S1457 N1459 1.610 . S
N1458 S1457 1.613 . S
N1458 C1461 1.350 . S
N1459 S1457 1.610 . S
N1459 C1460 1.351 . S
C1460 C1454 1.428 . S
C1460 N1459 1.351 . S
C1460 C1461 1.434 . S
C1461 C1452 1.429 1_455 S
C1461 N1458 1.350 . S
C1461 C1460 1.434 . S
C1462 C1463 1.369 . S
C1462 C1464 1.419 . S
C1462 H1466 0.930 . S
C1463 C1462 1.369 . S
C1463 C1472 1.429 . S
C1464 C1462 1.419 . S
C1464 C1465 1.363 . S
C1464 H1467 0.929 . S
C1465 C1464 1.363 . S
C1465 C1471 1.428 . S
H1466 C1462 0.930 . S
H1467 C1464 0.929 . S
S1468 N1469 1.613 . S
S1468 N1470 1.610 . S
N1469 S1468 1.613 . S
N1469 C1472 1.350 . S
N1470 S1468 1.610 . S
N1470 C1471 1.351 . S
C1471 C1465 1.428 . S
C1471 N1470 1.351 . S
C1471 C1472 1.434 . S
C1472 C1463 1.429 . S
C1472 N1469 1.350 . S
C1472 C1471 1.434 . S
C1473 C1474 1.389 . S
C1473 C1475 1.419 . S
C1473 H1477 0.911 1_556 S
C1474 C1473 1.389 . S
C1474 C1483 1.429 . S
C1475 C1473 1.419 . S
C1475 C1476 1.379 . S
C1475 H1478 0.913 1_556 S
C1476 C1475 1.379 . S
C1476 C1482 1.428 . S
H1477 C1473 0.911 1_554 S
H1478 C1475 0.913 1_554 S
S1479 N1480 1.613 . S
S1479 N1481 1.610 . S
N1480 S1479 1.613 . S
N1480 C1483 1.350 . S
N1481 S1479 1.610 . S
N1481 C1482 1.351 . S
C1482 C1476 1.428 . S
C1482 N1481 1.351 . S
C1482 C1483 1.434 . S
C1483 C1474 1.429 . S
C1483 N1480 1.350 . S
C1483 C1482 1.434 . S
C1484 C1485 1.369 . S
C1484 C1486 1.419 1_655 S
C1484 H1488 0.930 . S
C1485 C1484 1.369 . S
C1485 C1494 1.429 . S
C1486 C1484 1.419 1_455 S
C1486 C1487 1.363 . S
C1486 H1489 0.929 . S
C1487 C1486 1.363 . S
C1487 C1493 1.428 . S
H1488 C1484 0.930 . S
H1489 C1486 0.929 . S
S1490 N1491 1.613 . S
S1490 N1492 1.610 1_655 S
N1491 S1490 1.613 . S
N1491 C1494 1.350 . S
N1492 S1490 1.610 1_455 S
N1492 C1493 1.351 . S
C1493 C1487 1.428 . S
C1493 N1492 1.351 . S
C1493 C1494 1.434 1_455 S
C1494 C1485 1.429 . S
C1494 N1491 1.350 . S
C1494 C1493 1.434 1_655 S
C1495 C1496 1.369 . S
C1495 C1497 1.419 . S
C1495 H1499 0.930 . S
C1496 C1495 1.369 . S
C1496 C1505 1.429 . S
C1497 C1495 1.419 . S
C1497 C1498 1.363 . S
C1497 H1500 0.929 . S
C1498 C1497 1.363 . S
C1498 C1504 1.428 . S
H1499 C1495 0.930 . S
H1500 C1497 0.929 . S
S1501 N1502 1.613 . S
S1501 N1503 1.610 . S
N1502 S1501 1.613 . S
N1502 C1505 1.350 . S
N1503 S1501 1.610 . S
N1503 C1504 1.351 . S
C1504 C1498 1.428 . S
C1504 N1503 1.351 . S
C1504 C1505 1.434 . S
C1505 C1496 1.429 . S
C1505 N1502 1.350 . S
C1505 C1504 1.434 . S
C1506 C1507 1.369 . S
C1506 C1508 1.419 . S
C1506 H1510 0.930 . S
C1507 C1506 1.369 . S
C1507 C1516 1.429 . S
C1508 C1506 1.419 . S
C1508 C1509 1.363 . S
C1508 H1511 0.929 . S
C1509 C1508 1.363 . S
C1509 C1515 1.428 . S
H1510 C1506 0.930 . S
H1511 C1508 0.929 . S
S1512 N1513 1.613 . S
S1512 N1514 1.610 . S
N1513 S1512 1.613 . S
N1513 C1516 1.350 . S
N1514 S1512 1.610 . S
N1514 C1515 1.351 . S
C1515 C1509 1.428 . S
C1515 N1514 1.351 . S
C1515 C1516 1.434 . S
C1516 C1507 1.429 . S
C1516 N1513 1.350 . S
C1516 C1515 1.434 . S
C1517 C1518 1.369 . S
C1517 C1519 1.419 . S
C1517 H1521 0.935 . S
C1518 C1517 1.369 . S
C1518 C1527 1.429 1_455 S
C1519 C1517 1.419 . S
C1519 C1520 1.363 1_455 S
C1519 H1522 0.928 1_554 S
C1520 C1519 1.363 1_655 S
C1520 C1526 1.428 . S
H1521 C1517 0.935 . S
H1522 C1519 0.928 1_556 S
S1523 N1524 1.613 . S
S1523 N1525 1.610 . S
N1524 S1523 1.613 . S
N1524 C1527 1.350 . S
N1525 S1523 1.610 . S
N1525 C1526 1.351 . S
C1526 C1520 1.428 . S
C1526 N1525 1.351 . S
C1526 C1527 1.434 . S
C1527 C1518 1.429 1_655 S
C1527 N1524 1.350 . S
C1527 C1526 1.434 . S
C1528 C1529 1.369 . S
C1528 C1530 1.419 1_455 S
C1528 H1532 0.930 . S
C1529 C1528 1.369 . S
C1529 C1538 1.429 . S
C1530 C1528 1.419 1_655 S
C1530 C1531 1.363 . S
C1530 H1533 0.929 . S
C1531 C1530 1.363 . S
C1531 C1537 1.428 . S
H1532 C1528 0.930 . S
H1533 C1530 0.929 . S
S1534 N1535 1.613 1_655 S
S1534 N1536 1.610 . S
N1535 S1534 1.613 1_455 S
N1535 C1538 1.350 . S
N1536 S1534 1.610 . S
N1536 C1537 1.351 . S
C1537 C1531 1.428 . S
C1537 N1536 1.351 . S
C1537 C1538 1.434 1_655 S
C1538 C1529 1.429 . S
C1538 N1535 1.350 . S
C1538 C1537 1.434 1_455 S
C1539 C1540 1.369 . S
C1539 C1541 1.419 . S
C1539 H1543 0.930 . S
C1540 C1539 1.369 . S
C1540 C1549 1.429 1_655 S
C1541 C1539 1.419 . S
C1541 C1542 1.363 1_655 S
C1541 H1544 0.929 . S
C1542 C1541 1.363 1_455 S
C1542 C1548 1.428 . S
H1543 C1539 0.930 . S
H1544 C1541 0.929 . S
S1545 N1546 1.613 . S
S1545 N1547 1.610 . S
N1546 S1545 1.613 . S
N1546 C1549 1.350 . S
N1547 S1545 1.610 . S
N1547 C1548 1.351 . S
C1548 C1542 1.428 . S
C1548 N1547 1.351 . S
C1548 C1549 1.434 . S
C1549 C1540 1.429 1_455 S
C1549 N1546 1.350 . S
C1549 C1548 1.434 . S
C1550 C1551 1.369 . S
C1550 C1552 1.419 . S
C1550 H1554 0.930 . S
C1551 C1550 1.369 . S
C1551 C1560 1.429 . S
C1552 C1550 1.419 . S
C1552 C1553 1.363 . S
C1552 H1555 0.929 . S
C1553 C1552 1.363 . S
C1553 C1559 1.428 . S
H1554 C1550 0.930 . S
H1555 C1552 0.929 . S
S1556 N1557 1.613 . S
S1556 N1558 1.610 . S
N1557 S1556 1.613 . S
N1557 C1560 1.350 . S
N1558 S1556 1.610 . S
N1558 C1559 1.351 . S
C1559 C1553 1.428 . S
C1559 N1558 1.351 . S
C1559 C1560 1.434 . S
C1560 C1551 1.429 . S
C1560 N1557 1.350 . S
C1560 C1559 1.434 . S
C1561 C1562 1.369 . S
C1561 C1563 1.419 . S
C1561 H1565 0.930 . S
C1562 C1561 1.369 . S
C1562 C1571 1.429 . S
C1563 C1561 1.419 . S
C1563 C1564 1.363 . S
C1563 H1566 0.929 . S
C1564 C1563 1.363 . S
C1564 C1570 1.428 . S
H1565 C1561 0.930 . S
H1566 C1563 0.929 . S
S1567 N1568 1.613 . S
S1567 N1569 1.610 . S
N1568 S1567 1.613 . S
N1568 C1571 1.350 1_556 S
N1569 S1567 1.610 . S
N1569 C1570 1.351 1_556 S
C1570 C1564 1.428 . S
C1570 N1569 1.351 1_554 S
C1570 C1571 1.434 . S
C1571 C1562 1.429 . S
C1571 N1568 1.350 1_554 S
C1571 C1570 1.434 . S
C1572 C1573 1.369 . S
C1572 C1574 1.419 1_455 S
C1572 H1576 0.930 . S
C1573 C1572 1.369 . S
C1573 C1582 1.429 . S
C1574 C1572 1.419 1_655 S
C1574 C1575 1.363 . S
C1574 H1577 0.929 . S
C1575 C1574 1.363 . S
C1575 C1581 1.428 . S
H1576 C1572 0.930 . S
H1577 C1574 0.929 . S
S1578 N1579 1.613 . S
S1578 N1580 1.610 1_455 S
N1579 S1578 1.613 . S
N1579 C1582 1.350 . S
N1580 S1578 1.610 1_655 S
N1580 C1581 1.351 . S
C1581 C1575 1.428 . S
C1581 N1580 1.351 . S
C1581 C1582 1.434 1_655 S
C1582 C1573 1.429 . S
C1582 N1579 1.350 . S
C1582 C1581 1.434 1_455 S
C1583 C1584 1.369 . S
C1583 C1585 1.419 . S
C1583 H1587 0.930 . S
C1584 C1583 1.369 . S
C1584 C1593 1.429 . S
C1585 C1583 1.419 . S
C1585 C1586 1.363 . S
C1585 H1588 0.929 . S
C1586 C1585 1.363 . S
C1586 C1592 1.428 . S
H1587 C1583 0.930 . S
H1588 C1585 0.929 . S
S1589 N1590 1.613 . S
S1589 N1591 1.610 . S
N1590 S1589 1.613 . S
N1590 C1593 1.350 . S
N1591 S1589 1.610 . S
N1591 C1592 1.351 . S
C1592 C1586 1.428 . S
C1592 N1591 1.351 . S
C1592 C1593 1.434 . S
C1593 C1584 1.429 . S
C1593 N1590 1.350 . S
C1593 C1592 1.434 . S
C1594 C1595 1.369 . S
C1594 C1596 1.419 . S
C1594 H1598 0.930 . S
C1595 C1594 1.369 . S
C1595 C1604 1.429 . S
C1596 C1594 1.419 . S
C1596 C1597 1.363 . S
C1596 H1599 0.929 . S
C1597 C1596 1.363 . S
C1597 C1603 1.428 . S
H1598 C1594 0.930 . S
H1599 C1596 0.929 . S
S1600 N1601 1.613 . S
S1600 N1602 1.610 . S
N1601 S1600 1.613 . S
N1601 C1604 1.350 . S
N1602 S1600 1.610 . S
N1602 C1603 1.351 . S
C1603 C1597 1.428 . S
C1603 N1602 1.351 . S
C1603 C1604 1.434 . S
C1604 C1595 1.429 . S
C1604 N1601 1.350 . S
C1604 C1603 1.434 . S
C1605 C1606 1.369 1_455 S
C1605 C1607 1.419 . S
C1605 H1609 0.930 . S
C1606 C1605 1.369 1_655 S
C1606 C1615 1.429 . S
C1607 C1605 1.419 . S
C1607 C1608 1.363 . S
C1607 H1610 0.929 . S
C1608 C1607 1.363 . S
C1608 C1614 1.428 1_455 S
H1609 C1605 0.930 . S
H1610 C1607 0.929 . S
S1611 N1612 1.613 . S
S1611 N1613 1.610 . S
N1612 S1611 1.613 . S
N1612 C1615 1.350 . S
N1613 S1611 1.610 . S
N1613 C1614 1.351 . S
C1614 C1608 1.428 1_655 S
C1614 N1613 1.351 . S
C1614 C1615 1.434 . S
C1615 C1606 1.429 . S
C1615 N1612 1.350 . S
C1615 C1614 1.434 . S
C1616 C1617 1.369 . S
C1616 C1618 1.419 . S
C1616 H1620 0.930 . S
C1617 C1616 1.369 . S
C1617 C1626 1.429 . S
C1618 C1616 1.419 . S
C1618 C1619 1.363 . S
C1618 H1621 0.929 . S
C1619 C1618 1.363 . S
C1619 C1625 1.428 . S
H1620 C1616 0.930 . S
H1621 C1618 0.929 . S
S1622 N1623 1.613 . S
S1622 N1624 1.610 . S
N1623 S1622 1.613 . S
N1623 C1626 1.350 . S
N1624 S1622 1.610 . S
N1624 C1625 1.351 . S
C1625 C1619 1.428 . S
C1625 N1624 1.351 . S
C1625 C1626 1.434 . S
C1626 C1617 1.429 . S
C1626 N1623 1.350 . S
C1626 C1625 1.434 . S
C1627 C1628 1.369 . S
C1627 C1629 1.419 1_645 S
C1627 H1631 0.930 . S
C1628 C1627 1.369 . S
C1628 C1637 1.429 . S
C1629 C1627 1.419 1_465 S
C1629 C1630 1.363 . S
C1629 H1632 0.929 . S
C1630 C1629 1.363 . S
C1630 C1636 1.428 . S
H1631 C1627 0.930 . S
H1632 C1629 0.929 . S
S1633 N1634 1.613 1_565 S
S1633 N1635 1.610 1_655 S
N1634 S1633 1.613 1_545 S
N1634 C1637 1.350 . S
N1635 S1633 1.610 1_455 S
N1635 C1636 1.351 . S
C1636 C1630 1.428 . S
C1636 N1635 1.351 . S
C1636 C1637 1.434 1_465 S
C1637 C1628 1.429 . S
C1637 N1634 1.350 . S
C1637 C1636 1.434 1_645 S
C1638 C1639 1.369 . S
C1638 C1640 1.419 . S
C1638 H1642 0.930 . S
C1639 C1638 1.369 . S
C1639 C1648 1.429 . S
C1640 C1638 1.419 . S
C1640 C1641 1.363 . S
C1640 H1643 0.929 . S
C1641 C1640 1.363 . S
C1641 C1647 1.428 . S
H1642 C1638 0.930 . S
H1643 C1640 0.929 . S
S1644 N1645 1.613 . S
S1644 N1646 1.610 . S
N1645 S1644 1.613 . S
N1645 C1648 1.350 . S
N1646 S1644 1.610 . S
N1646 C1647 1.351 . S
C1647 C1641 1.428 . S
C1647 N1646 1.351 . S
C1647 C1648 1.434 . S
C1648 C1639 1.429 . S
C1648 N1645 1.350 . S
C1648 C1647 1.434 . S
C1649 C1650 1.369 1_556 S
C1649 C1651 1.419 . S
C1649 H1653 0.930 . S
C1650 C1649 1.369 1_554 S
C1650 C1659 1.429 1_545 S
C1651 C1649 1.419 . S
C1651 C1652 1.363 1_545 S
C1651 H1654 0.929 . S
C1652 C1651 1.363 1_565 S
C1652 C1658 1.428 1_556 S
H1653 C1649 0.930 . S
H1654 C1651 0.929 . S
S1655 N1656 1.613 . S
S1655 N1657 1.610 . S
N1656 S1655 1.613 . S
N1656 C1659 1.350 . S
N1657 S1655 1.610 . S
N1657 C1658 1.351 . S
C1658 C1652 1.428 1_554 S
C1658 N1657 1.351 . S
C1658 C1659 1.434 . S
C1659 C1650 1.429 1_565 S
C1659 N1656 1.350 . S
C1659 C1658 1.434 . S
C1660 C1661 1.369 . S
C1660 C1662 1.419 . S
C1660 H1664 0.930 . S
C1661 C1660 1.369 . S
C1661 C1670 1.429 . S
C1662 C1660 1.419 . S
C1662 C1663 1.363 . S
C1662 H1665 0.929 . S
C1663 C1662 1.363 . S
C1663 C1669 1.428 . S
H1664 C1660 0.930 . S
H1665 C1662 0.929 . S
S1666 N1667 1.613 . S
S1666 N1668 1.610 . S
N1667 S1666 1.613 . S
N1667 C1670 1.350 . S
N1668 S1666 1.610 . S
N1668 C1669 1.351 . S
C1669 C1663 1.428 . S
C1669 N1668 1.351 . S
C1669 C1670 1.434 . S
C1670 C1661 1.429 . S
C1670 N1667 1.350 . S
C1670 C1669 1.434 . S
C1671 C1672 1.369 1_565 S
C1671 C1673 1.419 . S
C1671 H1675 0.930 . S
C1672 C1671 1.369 1_545 S
C1672 C1681 1.429 . S
C1673 C1671 1.419 . S
C1673 C1674 1.363 . S
C1673 H1676 0.929 . S
C1674 C1673 1.363 . S
C1674 C1680 1.428 1_565 S
H1675 C1671 0.930 . S
H1676 C1673 0.929 . S
S1677 N1678 1.613 . S
S1677 N1679 1.610 . S
N1678 S1677 1.613 . S
N1678 C1681 1.350 . S
N1679 S1677 1.610 . S
N1679 C1680 1.351 . S
C1680 C1674 1.428 1_545 S
C1680 N1679 1.351 . S
C1680 C1681 1.434 . S
C1681 C1672 1.429 . S
C1681 N1678 1.350 . S
C1681 C1680 1.434 . S
C1682 C1683 1.369 . S
C1682 C1684 1.419 . S
C1682 H1686 0.930 . S
C1683 C1682 1.369 . S
C1683 C1692 1.429 . S
C1684 C1682 1.419 . S
C1684 C1685 1.363 . S
C1684 H1687 0.929 . S
C1685 C1684 1.363 . S
C1685 C1691 1.428 . S
H1686 C1682 0.930 . S
H1687 C1684 0.929 . S
S1688 N1689 1.613 . S
S1688 N1690 1.610 . S
N1689 S1688 1.613 . S
N1689 C1692 1.350 . S
N1690 S1688 1.610 . S
N1690 C1691 1.351 . S
C1691 C1685 1.428 . S
C1691 N1690 1.351 . S
C1691 C1692 1.434 . S
C1692 C1683 1.429 . S
C1692 N1689 1.350 . S
C1692 C1691 1.434 . S
C1693 C1694 1.369 . S
C1693 C1695 1.419 1_445 S
C1693 H1697 0.930 . S
C1694 C1693 1.369 . S
C1694 C1703 1.429 1_556 S
C1695 C1693 1.419 1_665 S
C1695 C1696 1.363 1_556 S
C1695 H1698 0.929 . S
C1696 C1695 1.363 1_554 S
C1696 C1702 1.428 . S
H1697 C1693 0.930 . S
H1698 C1695 0.929 . S
S1699 N1700 1.613 1_565 S
S1699 N1701 1.610 1_455 S
N1700 S1699 1.613 1_545 S
N1700 C1703 1.350 . S
N1701 S1699 1.610 1_655 S
N1701 C1702 1.351 . S
C1702 C1696 1.428 . S
C1702 N1701 1.351 . S
C1702 C1703 1.434 1_665 S
C1703 C1694 1.429 1_554 S
C1703 N1700 1.350 . S
C1703 C1702 1.434 1_445 S
C1704 C1705 1.369 . S
C1704 C1706 1.419 . S
C1704 H1708 0.930 . S
C1705 C1704 1.369 . S
C1705 C1714 1.429 . S
C1706 C1704 1.419 . S
C1706 C1707 1.363 . S
C1706 H1709 0.929 . S
C1707 C1706 1.363 . S
C1707 C1713 1.428 . S
H1708 C1704 0.930 . S
H1709 C1706 0.929 . S
S1710 N1711 1.613 . S
S1710 N1712 1.610 . S
N1711 S1710 1.613 . S
N1711 C1714 1.350 . S
N1712 S1710 1.610 . S
N1712 C1713 1.351 . S
C1713 C1707 1.428 . S
C1713 N1712 1.351 . S
C1713 C1714 1.434 . S
C1714 C1705 1.429 . S
C1714 N1711 1.350 . S
C1714 C1713 1.434 . S
C1715 C1716 1.369 . S
C1715 C1717 1.419 . S
C1715 H1719 0.930 . S
C1716 C1715 1.369 . S
C1716 C1725 1.429 . S
C1717 C1715 1.419 . S
C1717 C1718 1.363 . S
C1717 H1720 0.929 . S
C1718 C1717 1.363 . S
C1718 C1724 1.428 . S
H1719 C1715 0.930 . S
H1720 C1717 0.929 . S
S1721 N1722 1.613 . S
S1721 N1723 1.610 . S
N1722 S1721 1.613 . S
N1722 C1725 1.350 . S
N1723 S1721 1.610 . S
N1723 C1724 1.351 . S
C1724 C1718 1.428 . S
C1724 N1723 1.351 . S
C1724 C1725 1.434 . S
C1725 C1716 1.429 . S
C1725 N1722 1.350 . S
C1725 C1724 1.434 . S
C1726 C1727 1.369 . S
C1726 C1728 1.419 . S
C1726 H1730 0.930 . S
C1727 C1726 1.369 . S
C1727 C1736 1.429 . S
C1728 C1726 1.419 . S
C1728 C1729 1.363 . S
C1728 H1731 0.929 . S
C1729 C1728 1.363 . S
C1729 C1735 1.428 . S
H1730 C1726 0.930 . S
H1731 C1728 0.929 . S
S1732 N1733 1.613 . S
S1732 N1734 1.610 . S
N1733 S1732 1.613 . S
N1733 C1736 1.350 . S
N1734 S1732 1.610 . S
N1734 C1735 1.351 . S
C1735 C1729 1.428 . S
C1735 N1734 1.351 . S
C1735 C1736 1.434 . S
C1736 C1727 1.429 . S
C1736 N1733 1.350 . S
C1736 C1735 1.434 . S
C1737 C1738 1.369 . S
C1737 C1739 1.419 . S
C1737 H1741 0.930 . S
C1738 C1737 1.369 . S
C1738 C1747 1.429 . S
C1739 C1737 1.419 . S
C1739 C1740 1.363 . S
C1739 H1742 0.929 . S
C1740 C1739 1.363 . S
C1740 C1746 1.428 . S
H1741 C1737 0.930 . S
H1742 C1739 0.929 . S
S1743 N1744 1.613 . S
S1743 N1745 1.610 . S
N1744 S1743 1.613 . S
N1744 C1747 1.350 . S
N1745 S1743 1.610 . S
N1745 C1746 1.351 . S
C1746 C1740 1.428 . S
C1746 N1745 1.351 . S
C1746 C1747 1.434 . S
C1747 C1738 1.429 . S
C1747 N1744 1.350 . S
C1747 C1746 1.434 . S
C1748 C1749 1.369 . S
C1748 C1750 1.419 1_554 S
C1748 H1752 0.930 . S
C1749 C1748 1.369 . S
C1749 C1758 1.429 . S
C1750 C1748 1.419 1_556 S
C1750 C1751 1.363 . S
C1750 H1753 0.929 . S
C1751 C1750 1.363 . S
C1751 C1757 1.428 . S
H1752 C1748 0.930 . S
H1753 C1750 0.929 . S
S1754 N1755 1.613 . S
S1754 N1756 1.603 1_554 S
N1755 S1754 1.613 . S
N1755 C1758 1.350 . S
N1756 S1754 1.603 1_556 S
N1756 C1757 1.352 . S
C1757 C1751 1.428 . S
C1757 N1756 1.352 . S
C1757 C1758 1.434 1_556 S
C1758 C1749 1.429 . S
C1758 N1755 1.350 . S
C1758 C1757 1.434 1_554 S
C1759 C1760 1.369 . S
C1759 C1761 1.419 1_655 S
C1759 H1763 0.930 . S
C1760 C1759 1.369 . S
C1760 C1769 1.429 . S
C1761 C1759 1.419 1_455 S
C1761 C1762 1.363 . S
C1761 H1764 0.929 . S
C1762 C1761 1.363 . S
C1762 C1768 1.428 . S
H1763 C1759 0.930 . S
H1764 C1761 0.929 . S
S1765 N1766 1.613 1_455 S
S1765 N1767 1.610 . S
N1766 S1765 1.613 1_655 S
N1766 C1769 1.350 . S
N1767 S1765 1.610 . S
N1767 C1768 1.351 . S
C1768 C1762 1.428 . S
C1768 N1767 1.351 . S
C1768 C1769 1.434 1_455 S
C1769 C1760 1.429 . S
C1769 N1766 1.350 . S
C1769 C1768 1.434 1_655 S
C1770 C1771 1.369 . S
C1770 C1772 1.419 . S
C1770 H1774 0.930 . S
C1771 C1770 1.369 . S
C1771 C1780 1.429 1_454 S
C1772 C1770 1.419 . S
C1772 C1773 1.363 1_454 S
C1772 H1775 0.929 . S
C1773 C1772 1.363 1_656 S
C1773 C1779 1.428 . S
H1774 C1770 0.930 . S
H1775 C1772 0.929 . S
S1776 N1777 1.613 . S
S1776 N1778 1.610 . S
N1777 S1776 1.613 . S
N1777 C1780 1.350 . S
N1778 S1776 1.610 . S
N1778 C1779 1.351 . S
C1779 C1773 1.428 . S
C1779 N1778 1.351 . S
C1779 C1780 1.434 . S
C1780 C1771 1.429 1_656 S
C1780 N1777 1.350 . S
C1780 C1779 1.434 . S
C1781 C1782 1.369 . S
C1781 C1783 1.419 . S
C1781 H1785 0.930 . S
C1782 C1781 1.369 . S
C1782 C1791 1.429 . S
C1783 C1781 1.419 . S
C1783 C1784 1.363 . S
C1783 H1786 0.929 . S
C1784 C1783 1.363 . S
C1784 C1790 1.428 . S
H1785 C1781 0.930 . S
H1786 C1783 0.929 . S
S1787 N1788 1.613 . S
S1787 N1789 1.610 . S
N1788 S1787 1.613 . S
N1788 C1791 1.350 . S
N1789 S1787 1.610 . S
N1789 C1790 1.351 . S
C1790 C1784 1.428 . S
C1790 N1789 1.351 . S
C1790 C1791 1.434 . S
C1791 C1782 1.429 . S
C1791 N1788 1.350 . S
C1791 C1790 1.434 . S
C1792 C1793 1.369 . S
C1792 C1794 1.419 . S
C1792 H1796 0.930 . S
C1793 C1792 1.369 . S
C1793 C1802 1.429 . S
C1794 C1792 1.419 . S
C1794 C1795 1.363 . S
C1794 H1797 0.929 . S
C1795 C1794 1.363 . S
C1795 C1801 1.428 . S
H1796 C1792 0.930 . S
H1797 C1794 0.929 . S
S1798 N1799 1.613 1_565 S
S1798 N1800 1.610 . S
N1799 S1798 1.613 1_545 S
N1799 C1802 1.350 . S
N1800 S1798 1.610 . S
N1800 C1801 1.351 1_565 S
C1801 C1795 1.428 . S
C1801 N1800 1.351 1_545 S
C1801 C1802 1.434 . S
C1802 C1793 1.429 . S
C1802 N1799 1.350 . S
C1802 C1801 1.434 . S
C1803 C1804 1.369 . S
C1803 C1805 1.419 . S
C1803 H1807 0.930 . S
C1804 C1803 1.369 . S
C1804 C1813 1.429 . S
C1805 C1803 1.419 . S
C1805 C1806 1.363 . S
C1805 H1808 0.929 . S
C1806 C1805 1.363 . S
C1806 C1812 1.428 . S
H1807 C1803 0.930 . S
H1808 C1805 0.929 . S
S1809 N1810 1.613 . S
S1809 N1811 1.610 . S
N1810 S1809 1.613 . S
N1810 C1813 1.350 . S
N1811 S1809 1.610 . S
N1811 C1812 1.351 . S
C1812 C1806 1.428 . S
C1812 N1811 1.351 . S
C1812 C1813 1.434 . S
C1813 C1804 1.429 . S
C1813 N1810 1.350 . S
C1813 C1812 1.434 . S
C1814 C1815 1.369 . S
C1814 C1816 1.419 . S
C1814 H1818 0.930 1_565 S
C1815 C1814 1.369 . S
C1815 C1824 1.429 . S
C1816 C1814 1.419 . S
C1816 C1817 1.363 . S
C1816 H1819 0.929 . S
C1817 C1816 1.363 . S
C1817 C1823 1.428 . S
H1818 C1814 0.930 1_545 S
H1819 C1816 0.929 . S
S1820 N1821 1.613 . S
S1820 N1822 1.610 . S
N1821 S1820 1.613 . S
N1821 C1824 1.350 . S
N1822 S1820 1.610 . S
N1822 C1823 1.351 . S
C1823 C1817 1.428 . S
C1823 N1822 1.351 . S
C1823 C1824 1.434 . S
C1824 C1815 1.429 . S
C1824 N1821 1.350 . S
C1824 C1823 1.434 . S
C1825 C1826 1.369 . S
C1825 C1827 1.419 . S
C1825 H1829 0.930 . S
C1826 C1825 1.369 . S
C1826 C1835 1.429 . S
C1827 C1825 1.419 . S
C1827 C1828 1.363 . S
C1827 H1830 0.929 . S
C1828 C1827 1.363 . S
C1828 C1834 1.428 . S
H1829 C1825 0.930 . S
H1830 C1827 0.929 . S
S1831 N1832 1.613 . S
S1831 N1833 1.610 1_565 S
N1832 S1831 1.613 . S
N1832 C1835 1.350 . S
N1833 S1831 1.610 1_545 S
N1833 C1834 1.351 1_545 S
C1834 C1828 1.428 . S
C1834 N1833 1.351 1_565 S
C1834 C1835 1.434 . S
C1835 C1826 1.429 . S
C1835 N1832 1.350 . S
C1835 C1834 1.434 . S
C1836 C1837 1.369 . S
C1836 C1838 1.419 . S
C1836 H1840 0.930 . S
C1837 C1836 1.369 . S
C1837 C1846 1.429 . S
C1838 C1836 1.419 . S
C1838 C1839 1.363 . S
C1838 H1841 0.929 1_565 S
C1839 C1838 1.363 . S
C1839 C1845 1.428 . S
H1840 C1836 0.930 . S
H1841 C1838 0.929 1_545 S
S1842 N1843 1.613 . S
S1842 N1844 1.610 . S
N1843 S1842 1.613 . S
N1843 C1846 1.350 . S
N1844 S1842 1.610 . S
N1844 C1845 1.351 . S
C1845 C1839 1.428 . S
C1845 N1844 1.351 . S
C1845 C1846 1.434 . S
C1846 C1837 1.429 . S
C1846 N1843 1.350 . S
C1846 C1845 1.434 . S
C1847 C1848 1.369 . S
C1847 C1849 1.419 . S
C1847 H1851 0.930 . S
C1848 C1847 1.369 . S
C1848 C1857 1.429 . S
C1849 C1847 1.419 . S
C1849 C1850 1.363 . S
C1849 H1852 0.929 . S
C1850 C1849 1.363 . S
C1850 C1856 1.428 . S
H1851 C1847 0.930 . S
H1852 C1849 0.929 . S
S1853 N1854 1.613 1_565 S
S1853 N1855 1.610 . S
N1854 S1853 1.613 1_545 S
N1854 C1857 1.350 1_545 S
N1855 S1853 1.610 . S
N1855 C1856 1.351 . S
C1856 C1850 1.428 . S
C1856 N1855 1.351 . S
C1856 C1857 1.434 . S
C1857 C1848 1.429 . S
C1857 N1854 1.350 1_565 S
C1857 C1856 1.434 . S
C1858 C1859 1.369 . S
C1858 C1860 1.419 . S
C1858 H1862 0.930 . S
C1859 C1858 1.369 . S
C1859 C1868 1.429 . S
C1860 C1858 1.419 . S
C1860 C1861 1.363 . S
C1860 H1863 0.929 . S
C1861 C1860 1.363 . S
C1861 C1867 1.428 . S
H1862 C1858 0.930 . S
H1863 C1860 0.929 . S
S1864 N1865 1.613 . S
S1864 N1866 1.610 1_565 S
N1865 S1864 1.613 . S
N1865 C1868 1.350 1_565 S
N1866 S1864 1.610 1_545 S
N1866 C1867 1.351 . S
C1867 C1861 1.428 . S
C1867 N1866 1.351 . S
C1867 C1868 1.434 . S
C1868 C1859 1.429 . S
C1868 N1865 1.350 1_545 S
C1868 C1867 1.434 . S
C1869 C1870 1.369 . S
C1869 C1871 1.419 . S
C1869 H1873 0.930 . S
C1870 C1869 1.369 . S
C1870 C1879 1.429 . S
C1871 C1869 1.419 . S
C1871 C1872 1.363 . S
C1871 H1874 0.929 . S
C1872 C1871 1.363 . S
C1872 C1878 1.428 . S
H1873 C1869 0.930 . S
H1874 C1871 0.929 . S
S1875 N1876 1.614 . S
S1875 N1877 1.610 . S
N1876 S1875 1.614 . S
N1876 C1879 1.351 . S
N1877 S1875 1.610 . S
N1877 C1878 1.351 . S
C1878 C1872 1.428 . S
C1878 N1877 1.351 . S
C1878 C1879 1.434 . S
C1879 C1870 1.429 . S
C1879 N1876 1.351 . S
C1879 C1878 1.434 . S
C1880 C1881 1.369 . S
C1880 C1882 1.419 . S
C1880 H1884 0.930 . S
C1881 C1880 1.369 . S
C1881 C1890 1.429 . S
C1882 C1880 1.419 . S
C1882 C1883 1.363 . S
C1882 H1885 0.929 . S
C1883 C1882 1.363 . S
C1883 C1889 1.428 . S
H1884 C1880 0.930 . S
H1885 C1882 0.929 . S
S1886 N1887 1.613 . S
S1886 N1888 1.610 . S
N1887 S1886 1.613 . S
N1887 C1890 1.350 . S
N1888 S1886 1.610 . S
N1888 C1889 1.351 . S
C1889 C1883 1.428 . S
C1889 N1888 1.351 . S
C1889 C1890 1.434 . S
C1890 C1881 1.429 . S
C1890 N1887 1.350 . S
C1890 C1889 1.434 . S
C1891 C1892 1.369 . S
C1891 C1893 1.419 . S
C1891 H1895 0.930 . S
C1892 C1891 1.369 . S
C1892 C1901 1.429 . S
C1893 C1891 1.419 . S
C1893 C1894 1.363 . S
C1893 H1896 0.929 . S
C1894 C1893 1.363 . S
C1894 C1900 1.428 . S
H1895 C1891 0.930 . S
H1896 C1893 0.929 . S
S1897 N1898 1.613 . S
S1897 N1899 1.610 . S
N1898 S1897 1.613 . S
N1898 C1901 1.350 . S
N1899 S1897 1.610 . S
N1899 C1900 1.351 . S
C1900 C1894 1.428 . S
C1900 N1899 1.351 . S
C1900 C1901 1.434 . S
C1901 C1892 1.429 . S
C1901 N1898 1.350 . S
C1901 C1900 1.434 . S
C1902 C1903 1.369 . S
C1902 C1904 1.419 . S
C1902 H1906 0.930 . S
C1903 C1902 1.369 . S
C1903 C1912 1.429 . S
C1904 C1902 1.419 . S
C1904 C1905 1.363 . S
C1904 H1907 0.929 . S
C1905 C1904 1.363 . S
C1905 C1911 1.428 . S
H1906 C1902 0.930 . S
H1907 C1904 0.929 . S
S1908 N1909 1.613 . S
S1908 N1910 1.610 . S
N1909 S1908 1.613 . S
N1909 C1912 1.350 . S
N1910 S1908 1.610 . S
N1910 C1911 1.351 . S
C1911 C1905 1.428 . S
C1911 N1910 1.351 . S
C1911 C1912 1.434 . S
C1912 C1903 1.429 . S
C1912 N1909 1.350 . S
C1912 C1911 1.434 . S
C1913 C1914 1.369 . S
C1913 C1915 1.419 . S
C1913 H1917 0.930 . S
C1914 C1913 1.369 . S
C1914 C1923 1.429 . S
C1915 C1913 1.419 . S
C1915 C1916 1.363 . S
C1915 H1918 0.929 . S
C1916 C1915 1.363 . S
C1916 C1922 1.428 . S
H1917 C1913 0.930 . S
H1918 C1915 0.929 . S
S1919 N1920 1.613 . S
S1919 N1921 1.610 . S
N1920 S1919 1.613 . S
N1920 C1923 1.350 . S
N1921 S1919 1.610 . S
N1921 C1922 1.351 . S
C1922 C1916 1.428 . S
C1922 N1921 1.351 . S
C1922 C1923 1.434 . S
C1923 C1914 1.429 . S
C1923 N1920 1.350 . S
C1923 C1922 1.434 . S
C1924 C1925 1.369 . S
C1924 C1926 1.419 . S
C1924 H1928 0.930 . S
C1925 C1924 1.369 . S
C1925 C1934 1.429 . S
C1926 C1924 1.419 . S
C1926 C1927 1.363 . S
C1926 H1929 0.929 . S
C1927 C1926 1.363 . S
C1927 C1933 1.428 . S
H1928 C1924 0.930 . S
H1929 C1926 0.929 . S
S1930 N1931 1.613 . S
S1930 N1932 1.610 . S
N1931 S1930 1.613 . S
N1931 C1934 1.350 . S
N1932 S1930 1.610 . S
N1932 C1933 1.351 . S
C1933 C1927 1.428 . S
C1933 N1932 1.351 . S
C1933 C1934 1.434 . S
C1934 C1925 1.429 . S
C1934 N1931 1.350 . S
C1934 C1933 1.434 . S
C1935 C1936 1.369 . S
C1935 C1937 1.419 . S
C1935 H1939 0.930 . S
C1936 C1935 1.369 . S
C1936 C1945 1.429 . S
C1937 C1935 1.419 . S
C1937 C1938 1.363 . S
C1937 H1940 0.929 . S
C1938 C1937 1.363 . S
C1938 C1944 1.428 . S
H1939 C1935 0.930 . S
H1940 C1937 0.929 . S
S1941 N1942 1.613 . S
S1941 N1943 1.610 . S
N1942 S1941 1.613 . S
N1942 C1945 1.350 . S
N1943 S1941 1.610 . S
N1943 C1944 1.351 . S
C1944 C1938 1.428 . S
C1944 N1943 1.351 . S
C1944 C1945 1.434 . S
C1945 C1936 1.429 . S
C1945 N1942 1.350 . S
C1945 C1944 1.434 . S
C1946 C1947 1.369 . S
C1946 C1948 1.419 . S
C1946 H1950 0.930 . S
C1947 C1946 1.369 . S
C1947 C1956 1.429 . S
C1948 C1946 1.419 . S
C1948 C1949 1.363 . S
C1948 H1951 0.929 . S
C1949 C1948 1.363 . S
C1949 C1955 1.428 . S
H1950 C1946 0.930 . S
H1951 C1948 0.929 . S
S1952 N1953 1.613 . S
S1952 N1954 1.610 . S
N1953 S1952 1.613 . S
N1953 C1956 1.350 . S
N1954 S1952 1.610 . S
N1954 C1955 1.351 . S
C1955 C1949 1.428 . S
C1955 N1954 1.351 . S
C1955 C1956 1.434 . S
C1956 C1947 1.429 . S
C1956 N1953 1.350 . S
C1956 C1955 1.434 . S
C1957 C1958 1.369 . S
C1957 C1959 1.419 . S
C1957 H1961 0.930 . S
C1958 C1957 1.369 . S
C1958 C1967 1.429 . S
C1959 C1957 1.419 . S
C1959 C1960 1.363 . S
C1959 H1962 0.929 . S
C1960 C1959 1.363 . S
C1960 C1966 1.428 . S
H1961 C1957 0.930 . S
H1962 C1959 0.929 . S
S1963 N1964 1.613 . S
S1963 N1965 1.610 . S
N1964 S1963 1.613 . S
N1964 C1967 1.350 . S
N1965 S1963 1.610 . S
N1965 C1966 1.351 . S
C1966 C1960 1.428 . S
C1966 N1965 1.351 . S
C1966 C1967 1.434 . S
C1967 C1958 1.429 . S
C1967 N1964 1.350 . S
C1967 C1966 1.434 . S
C1968 C1969 1.369 . S
C1968 C1970 1.419 1_545 S
C1968 H1972 0.930 . S
C1969 C1968 1.369 . S
C1969 C1978 1.429 . S
C1970 C1968 1.419 1_565 S
C1970 C1971 1.363 . S
C1970 H1973 0.929 . S
C1971 C1970 1.363 . S
C1971 C1977 1.428 . S
H1972 C1968 0.930 . S
H1973 C1970 0.929 . S
S1974 N1975 1.613 1_565 S
S1974 N1976 1.610 . S
N1975 S1974 1.613 1_545 S
N1975 C1978 1.350 . S
N1976 S1974 1.610 . S
N1976 C1977 1.351 . S
C1977 C1971 1.428 . S
C1977 N1976 1.351 . S
C1977 C1978 1.434 1_565 S
C1978 C1969 1.429 . S
C1978 N1975 1.350 . S
C1978 C1977 1.434 1_545 S
C1979 C1980 1.369 . S
C1979 C1981 1.419 . S
C1979 H1983 0.930 . S
C1980 C1979 1.369 . S
C1980 C1989 1.429 . S
C1981 C1979 1.419 . S
C1981 C1982 1.363 . S
C1981 H1984 0.929 . S
C1982 C1981 1.363 . S
C1982 C1988 1.428 . S
H1983 C1979 0.930 . S
H1984 C1981 0.929 . S
S1985 N1986 1.613 . S
S1985 N1987 1.610 . S
N1986 S1985 1.613 . S
N1986 C1989 1.350 . S
N1987 S1985 1.610 . S
N1987 C1988 1.351 . S
C1988 C1982 1.428 . S
C1988 N1987 1.351 . S
C1988 C1989 1.434 . S
C1989 C1980 1.429 . S
C1989 N1986 1.350 . S
C1989 C1988 1.434 . S
C1990 C1991 1.369 . S
C1990 C1992 1.419 1_545 S
C1990 H1994 0.930 . S
C1991 C1990 1.369 . S
C1991 C2000 1.429 . S
C1992 C1990 1.419 1_565 S
C1992 C1993 1.363 . S
C1992 H1995 0.929 . S
C1993 C1992 1.363 . S
C1993 C1999 1.428 . S
H1994 C1990 0.930 . S
H1995 C1992 0.929 . S
S1996 N1997 1.613 1_565 S
S1996 N1998 1.610 . S
N1997 S1996 1.613 1_545 S
N1997 C2000 1.350 . S
N1998 S1996 1.610 . S
N1998 C1999 1.351 . S
C1999 C1993 1.428 . S
C1999 N1998 1.351 . S
C1999 C2000 1.434 1_565 S
C2000 C1991 1.429 . S
C2000 N1997 1.350 . S
C2000 C1999 1.434 1_545 S
C2001 C2002 1.369 . S
C2001 C2003 1.419 . S
C2001 H2005 0.930 . S
C2002 C2001 1.369 . S
C2002 C2011 1.429 1_556 S
C2003 C2001 1.419 . S
C2003 C2004 1.363 1_556 S
C2003 H2006 0.929 . S
C2004 C2003 1.363 1_554 S
C2004 C2010 1.428 . S
H2005 C2001 0.930 . S
H2006 C2003 0.929 . S
S2007 N2008 1.613 . S
S2007 N2009 1.610 . S
N2008 S2007 1.613 . S
N2008 C2011 1.350 . S
N2009 S2007 1.610 . S
N2009 C2010 1.351 . S
C2010 C2004 1.428 . S
C2010 N2009 1.351 . S
C2010 C2011 1.434 . S
C2011 C2002 1.429 1_554 S
C2011 N2008 1.350 . S
C2011 C2010 1.434 . S
C2012 C2013 1.369 . S
C2012 C2014 1.419 1_565 S
C2012 H2016 0.930 . S
C2013 C2012 1.369 . S
C2013 C2022 1.429 . S
C2014 C2012 1.419 1_545 S
C2014 C2015 1.363 . S
C2014 H2017 0.929 . S
C2015 C2014 1.363 . S
C2015 C2021 1.428 . S
H2016 C2012 0.930 . S
H2017 C2014 0.929 . S
S2018 N2019 1.613 . S
S2018 N2020 1.610 1_565 S
N2019 S2018 1.613 . S
N2019 C2022 1.350 . S
N2020 S2018 1.610 1_545 S
N2020 C2021 1.351 . S
C2021 C2015 1.428 . S
C2021 N2020 1.351 . S
C2021 C2022 1.434 1_545 S
C2022 C2013 1.429 . S
C2022 N2019 1.350 . S
C2022 C2021 1.434 1_565 S
C2023 C2024 1.369 . S
C2023 C2025 1.419 . S
C2023 H2027 0.930 . S
C2024 C2023 1.369 . S
C2024 C2033 1.429 . S
C2025 C2023 1.419 . S
C2025 C2026 1.363 . S
C2025 H2028 0.929 . S
C2026 C2025 1.363 . S
C2026 C2032 1.428 . S
H2027 C2023 0.930 . S
H2028 C2025 0.929 . S
S2029 N2030 1.613 . S
S2029 N2031 1.610 . S
N2030 S2029 1.613 . S
N2030 C2033 1.350 . S
N2031 S2029 1.610 . S
N2031 C2032 1.351 . S
C2032 C2026 1.428 . S
C2032 N2031 1.351 . S
C2032 C2033 1.434 . S
C2033 C2024 1.429 . S
C2033 N2030 1.350 . S
C2033 C2032 1.434 . S
C2034 C2035 1.369 . S
C2034 C2036 1.419 1_565 S
C2034 H2038 0.930 . S
C2035 C2034 1.369 . S
C2035 C2044 1.429 . S
C2036 C2034 1.419 1_545 S
C2036 C2037 1.363 . S
C2036 H2039 0.929 . S
C2037 C2036 1.363 . S
C2037 C2043 1.428 . S
H2038 C2034 0.930 . S
H2039 C2036 0.929 . S
S2040 N2041 1.613 . S
S2040 N2042 1.610 1_565 S
N2041 S2040 1.613 . S
N2041 C2044 1.350 . S
N2042 S2040 1.610 1_545 S
N2042 C2043 1.351 . S
C2043 C2037 1.428 . S
C2043 N2042 1.351 . S
C2043 C2044 1.434 1_545 S
C2044 C2035 1.429 . S
C2044 N2041 1.350 . S
C2044 C2043 1.434 1_565 S
C2045 C2046 1.369 . S
C2045 C2047 1.419 . S
C2045 H2049 0.930 . S
C2046 C2045 1.369 . S
C2046 C2055 1.429 1_554 S
C2047 C2045 1.419 . S
C2047 C2048 1.363 1_554 S
C2047 H2050 0.929 . S
C2048 C2047 1.363 1_556 S
C2048 C2054 1.428 . S
H2049 C2045 0.930 . S
H2050 C2047 0.929 . S
S2051 N2052 1.613 . S
S2051 N2053 1.610 . S
N2052 S2051 1.613 . S
N2052 C2055 1.350 . S
N2053 S2051 1.610 . S
N2053 C2054 1.351 . S
C2054 C2048 1.428 . S
C2054 N2053 1.351 . S
C2054 C2055 1.434 . S
C2055 C2046 1.429 1_556 S
C2055 N2052 1.350 . S
C2055 C2054 1.434 . S
C2056 C2057 1.369 . S
C2056 C2058 1.419 . S
C2056 H2060 0.930 . S
C2057 C2056 1.369 . S
C2057 C2066 1.429 . S
C2058 C2056 1.419 . S
C2058 C2059 1.363 . S
C2058 H2061 0.929 . S
C2059 C2058 1.363 . S
C2059 C2065 1.428 . S
H2060 C2056 0.930 . S
H2061 C2058 0.929 . S
S2062 N2063 1.613 . S
S2062 N2064 1.610 . S
N2063 S2062 1.613 . S
N2063 C2066 1.350 . S
N2064 S2062 1.610 . S
N2064 C2065 1.351 . S
C2065 C2059 1.428 . S
C2065 N2064 1.351 . S
C2065 C2066 1.434 . S
C2066 C2057 1.429 . S
C2066 N2063 1.350 . S
C2066 C2065 1.434 . S
C2067 C2068 1.369 1_554 S
C2067 C2069 1.419 . S
C2067 H2071 0.930 . S
C2068 C2067 1.369 1_556 S
C2068 C2077 1.429 . S
C2069 C2067 1.419 . S
C2069 C2070 1.363 . S
C2069 H2072 0.929 . S
C2070 C2069 1.363 . S
C2070 C2076 1.428 1_554 S
H2071 C2067 0.930 . S
H2072 C2069 0.929 . S
S2073 N2074 1.613 . S
S2073 N2075 1.610 . S
N2074 S2073 1.613 . S
N2074 C2077 1.350 . S
N2075 S2073 1.610 . S
N2075 C2076 1.351 . S
C2076 C2070 1.428 1_556 S
C2076 N2075 1.351 . S
C2076 C2077 1.434 . S
C2077 C2068 1.429 . S
C2077 N2074 1.350 . S
C2077 C2076 1.434 . S
C2078 C2079 1.369 . S
C2078 C2080 1.419 . S
C2078 H2082 0.930 . S
C2079 C2078 1.369 . S
C2079 C2088 1.429 . S
C2080 C2078 1.419 . S
C2080 C2081 1.363 . S
C2080 H2083 0.929 . S
C2081 C2080 1.363 . S
C2081 C2087 1.428 . S
H2082 C2078 0.930 . S
H2083 C2080 0.929 . S
S2084 N2085 1.613 . S
S2084 N2086 1.610 . S
N2085 S2084 1.613 . S
N2085 C2088 1.350 . S
N2086 S2084 1.610 . S
N2086 C2087 1.351 . S
C2087 C2081 1.428 . S
C2087 N2086 1.351 . S
C2087 C2088 1.434 . S
C2088 C2079 1.429 . S
C2088 N2085 1.350 . S
C2088 C2087 1.434 . S
C2089 C2090 1.369 . S
C2089 C2091 1.419 . S
C2089 H2093 0.930 . S
C2090 C2089 1.369 . S
C2090 C2099 1.429 . S
C2091 C2089 1.419 . S
C2091 C2092 1.363 . S
C2091 H2094 0.929 . S
C2092 C2091 1.363 . S
C2092 C2098 1.428 . S
H2093 C2089 0.930 . S
H2094 C2091 0.929 . S
S2095 N2096 1.613 . S
S2095 N2097 1.610 . S
N2096 S2095 1.613 . S
N2096 C2099 1.350 . S
N2097 S2095 1.610 . S
N2097 C2098 1.351 . S
C2098 C2092 1.428 . S
C2098 N2097 1.351 . S
C2098 C2099 1.434 . S
C2099 C2090 1.429 . S
C2099 N2096 1.350 . S
C2099 C2098 1.434 . S
C2100 C2101 1.369 . S
C2100 C2102 1.419 . S
C2100 H2104 0.930 . S
C2101 C2100 1.369 . S
C2101 C2110 1.429 . S
C2102 C2100 1.419 . S
C2102 C2103 1.363 . S
C2102 H2105 0.929 . S
C2103 C2102 1.363 . S
C2103 C2109 1.428 . S
H2104 C2100 0.930 . S
H2105 C2102 0.929 . S
S2106 N2107 1.613 . S
S2106 N2108 1.610 . S
N2107 S2106 1.613 . S
N2107 C2110 1.350 . S
N2108 S2106 1.610 . S
N2108 C2109 1.351 . S
C2109 C2103 1.428 . S
C2109 N2108 1.351 . S
C2109 C2110 1.434 . S
C2110 C2101 1.429 . S
C2110 N2107 1.350 . S
C2110 C2109 1.434 . S
C2111 C2112 1.369 1_554 S
C2111 C2113 1.419 . S
C2111 H2115 0.930 . S
C2112 C2111 1.369 1_556 S
C2112 C2121 1.429 . S
C2113 C2111 1.419 . S
C2113 C2114 1.363 . S
C2113 H2116 0.929 . S
C2114 C2113 1.363 . S
C2114 C2120 1.428 1_554 S
H2115 C2111 0.930 . S
H2116 C2113 0.929 . S
S2117 N2118 1.613 . S
S2117 N2119 1.610 . S
N2118 S2117 1.613 . S
N2118 C2121 1.350 . S
N2119 S2117 1.610 . S
N2119 C2120 1.351 . S
C2120 C2114 1.428 1_556 S
C2120 N2119 1.351 . S
C2120 C2121 1.434 . S
C2121 C2112 1.429 . S
C2121 N2118 1.350 . S
C2121 C2120 1.434 . S
C2122 C2123 1.369 . S
C2122 C2124 1.419 . S
C2122 H2126 0.930 . S
C2123 C2122 1.369 . S
C2123 C2132 1.429 . S
C2124 C2122 1.419 . S
C2124 C2125 1.363 . S
C2124 H2127 0.929 . S
C2125 C2124 1.363 . S
C2125 C2131 1.428 . S
H2126 C2122 0.930 . S
H2127 C2124 0.929 . S
S2128 N2129 1.613 . S
S2128 N2130 1.610 . S
N2129 S2128 1.613 . S
N2129 C2132 1.350 . S
N2130 S2128 1.610 . S
N2130 C2131 1.351 . S
C2131 C2125 1.428 . S
C2131 N2130 1.351 . S
C2131 C2132 1.434 . S
C2132 C2123 1.429 . S
C2132 N2129 1.350 . S
C2132 C2131 1.434 . S
C2133 C2134 1.369 . S
C2133 C2135 1.419 . S
C2133 H2137 0.930 . S
C2134 C2133 1.369 . S
C2134 C2143 1.429 . S
C2135 C2133 1.419 . S
C2135 C2136 1.363 . S
C2135 H2138 0.929 . S
C2136 C2135 1.363 . S
C2136 C2142 1.428 . S
H2137 C2133 0.930 . S
H2138 C2135 0.929 . S
S2139 N2140 1.613 . S
S2139 N2141 1.610 . S
N2140 S2139 1.613 . S
N2140 C2143 1.350 . S
N2141 S2139 1.610 . S
N2141 C2142 1.351 . S
C2142 C2136 1.428 . S
C2142 N2141 1.351 . S
C2142 C2143 1.434 . S
C2143 C2134 1.429 . S
C2143 N2140 1.350 . S
C2143 C2142 1.434 . S
C1089 C29 2.337 . S
C1091 C926 2.318 . S
C1100 C63 2.337 . S
C1102 C280 2.319 . S
C1111 C97 2.337 . S
C1113 C858 2.319 . S
C1122 C348 2.320 . S
C1124 C131 2.337 . S
C1133 C165 2.337 . S
C1135 C994 2.318 . S
C1144 C484 2.319 . S
C1146 C199 2.337 . S
C1155 C1062 2.317 . S
C1157 C233 2.337 . S
C1166 C267 2.337 . S
C1168 C416 2.320 . S
C1177 C272 2.337 . S
C1179 C663 2.318 . S
C1188 C306 2.336 . S
C1190 C17 2.319 . S
C1199 C595 2.317 . S
C1201 C340 2.337 . S
C1210 C85 2.319 . S
C1212 C374 2.337 . S
C1221 C408 2.337 . S
C1223 C731 2.318 . S
C1232 C442 2.337 . S
C1234 C221 2.318 . S
C1243 C476 2.337 . S
C1245 C799 2.317 . S
C1254 C153 2.317 . S
C1256 C510 2.337 . S
C1265 C382 2.317 . S
C1267 C573 2.337 . S
C1276 C824 2.320 . S
C1278 C607 2.337 . S
C1287 C314 2.319 . S
C1289 C641 2.337 . S
C1298 C675 2.337 . S
C1300 C892 2.318 . S
C1309 C450 2.318 . S
C1311 C709 2.337 . S
C1320 C1028 2.317 . S
C1322 C743 2.337 . S
C1331 C518 2.317 . S
C1333 C777 2.337 . S
C1342 C811 2.337 . S
C1344 C960 2.319 . S
C1353 C816 2.336 . S
C1355 C119 2.317 . S
C1364 C850 2.337 . S
C1366 C561 2.319 . S
C1375 C884 2.336 . S
C1377 C51 2.317 . S
C1386 C918 2.337 . S
C1388 C629 2.318 . S
C1397 C187 2.317 . S
C1399 C952 2.337 . S
C1408 C765 2.317 . S
C1410 C986 2.337 . S
C1419 C1020 2.337 . S
C1421 C255 2.320 . S
C1430 C1054 2.336 . S
C1432 C697 2.318 . S
C1441 C13 0.428 . S
C1443 C625 0.439 . S
C1452 C659 0.450 . S
C1454 C47 0.432 . S
C1463 C81 0.457 . S
C1465 C557 0.437 . S
C1474 C115 0.457 . S
C1476 C591 0.438 . S
C1485 C761 0.433 . S
C1487 C149 0.433 . S
C1496 C183 0.460 . S
C1498 C795 0.445 . S
C1507 C693 0.457 . S
C1509 C217 0.437 . S
C1518 C251 0.455 . S
C1520 C727 0.435 . S
C1529 C888 0.428 . S
C1531 C276 0.440 . S
C1540 C310 0.460 . S
C1542 C922 0.440 . S
C1551 C344 0.439 . S
C1553 C820 0.432 . S
C1562 C378 0.427 . S
C1564 C854 0.444 . S
C1573 C1024 0.459 . S
C1575 C412 0.446 . S
C1584 C1058 0.445 . S
C1586 C446 0.431 . S
C1595 C480 0.429 . S
C1597 C956 0.451 . S
C1606 C514 0.429 . S
C1608 C990 0.451 . S
C1617 C8 2.486 . S
C1619 C833 2.486 . S
C1628 C323 2.488 . S
C1630 C42 2.483 . S
C1639 C76 2.485 . S
C1641 C901 2.486 . S
C1650 C110 2.485 . S
C1652 C391 2.486 . S
C1661 C969 2.482 . S
C1663 C144 2.488 . S
C1672 C459 2.482 . S
C1674 C178 2.488 . S
C1683 C212 2.487 . S
C1685 C1037 2.484 . S
C1694 C246 2.489 . S
C1696 C527 2.483 . S
C1705 C552 2.482 . S
C1707 C289 2.488 . S
C1716 C620 2.482 . S
C1718 C357 2.488 . S
C1727 C688 2.488 . S
C1729 C425 2.484 . S
C1738 C493 2.482 . S
C1740 C756 2.488 . S
C1749 C586 2.486 . S
C1751 C867 2.485 . S
C1760 C654 2.482 . S
C1762 C935 2.488 . S
C1771 C1003 2.484 . S
C1773 C722 2.487 . S
C1782 C1071 2.482 . S
C1784 C790 2.488 . S
C1793 C4 0.609 . S
C1795 C174 0.612 . S
C1804 C208 0.616 . S
C1806 C38 0.609 . S
C1815 C242 0.616 . S
C1817 C72 0.612 . S
C1826 C140 0.608 . S
C1828 C106 0.614 . S
C1837 C285 0.608 . S
C1839 C455 0.615 . S
C1848 C319 0.608 . S
C1850 C489 0.614 . S
C1859 C523 0.609 . S
C1861 C353 0.613 . S
C1870 C387 0.615 . S
C1872 C421 0.609 . S
C1881 C548 0.615 . S
C1883 C718 0.612 . S
C1892 C582 0.615 . S
C1894 C752 0.609 . S
C1903 C616 0.614 . S
C1905 C786 0.613 . S
C1914 C684 0.614 . S
C1916 C650 0.609 . S
C1925 C829 0.616 . S
C1927 C999 0.610 . S
C1936 C863 0.609 . S
C1938 C1033 0.614 . S
C1947 C1067 0.614 . S
C1949 C897 0.609 . S
C1958 C931 0.612 . S
C1960 C965 0.610 . S
C1969 C0 2.658 . S
C1971 C136 2.663 . S
C1980 C34 2.659 . S
C1982 C170 2.663 . S
C1991 C204 2.659 . S
C1993 C68 2.662 . S
C2002 C238 2.664 . S
C2004 C102 2.659 . S
C2013 C301 2.664 . S
C2015 C437 2.659 . S
C2024 C471 2.661 . S
C2026 C335 2.661 . S
C2035 C505 2.664 . S
C2037 C369 2.659 . S
C2046 C539 2.664 . S
C2048 C403 2.659 . S
C2057 C544 2.664 . S
C2059 C680 2.659 . S
C2068 C714 2.658 . S
C2070 C578 2.663 . S
C2079 C612 2.663 . S
C2081 C748 2.659 . S
C2090 C782 2.663 . S
C2092 C646 2.660 . S
C2101 C981 2.664 . S
C2103 C845 2.659 . S
C2112 C879 2.658 . S
C2114 C1015 2.663 . S
C2123 C913 2.664 . S
C2125 C1049 2.659 . S
C2134 C947 2.660 . S
C2136 C1083 2.662 . S
