# Generated by pormake.
# Topology uou, (4)-cn, num edge types: 1
# Building blocks:
#     Node 0, Type 0, BuildingBlock: CEKHIL_clean_sbu_0, # of connection points: 4
#     Node 1, Type 0, BuildingBlock: CEKHIL_clean_sbu_0, # of connection points: 4
#     Node 2, Type 0, BuildingBlock: CEKHIL_clean_sbu_0, # of connection points: 4
#     Node 3, Type 0, BuildingBlock: CEKHIL_clean_sbu_0, # of connection points: 4
#     Node 4, Type 0, BuildingBlock: CEKHIL_clean_sbu_0, # of connection points: 4
#     Node 5, Type 0, BuildingBlock: CEKHIL_clean_sbu_0, # of connection points: 4
#     Node 6, Type 0, BuildingBlock: CEKHIL_clean_sbu_0, # of connection points: 4
#     Node 7, Type 0, BuildingBlock: CEKHIL_clean_sbu_0, # of connection points: 4
#     Node 8, Type 0, BuildingBlock: CEKHIL_clean_sbu_0, # of connection points: 4
#     Node 9, Type 0, BuildingBlock: CEKHIL_clean_sbu_0, # of connection points: 4
#     Node 10, Type 0, BuildingBlock: CEKHIL_clean_sbu_0, # of connection points: 4
#     Node 11, Type 0, BuildingBlock: CEKHIL_clean_sbu_0, # of connection points: 4
#     Node 12, Type 0, BuildingBlock: CEKHIL_clean_sbu_0, # of connection points: 4
#     Node 13, Type 0, BuildingBlock: CEKHIL_clean_sbu_0, # of connection points: 4
#     Node 14, Type 0, BuildingBlock: CEKHIL_clean_sbu_0, # of connection points: 4
#     Node 15, Type 0, BuildingBlock: CEKHIL_clean_sbu_0, # of connection points: 4
#     Edge 16, Type (0, 0), BuildingBlock: AJUNOK_clean_linker_0, # of connection points: 2
#     Edge 17, Type (0, 0), BuildingBlock: AJUNOK_clean_linker_0, # of connection points: 2
#     Edge 18, Type (0, 0), BuildingBlock: AJUNOK_clean_linker_0, # of connection points: 2
#     Edge 19, Type (0, 0), BuildingBlock: AJUNOK_clean_linker_0, # of connection points: 2
#     Edge 20, Type (0, 0), BuildingBlock: AJUNOK_clean_linker_0, # of connection points: 2
#     Edge 21, Type (0, 0), BuildingBlock: AJUNOK_clean_linker_0, # of connection points: 2
#     Edge 22, Type (0, 0), BuildingBlock: AJUNOK_clean_linker_0, # of connection points: 2
#     Edge 23, Type (0, 0), BuildingBlock: AJUNOK_clean_linker_0, # of connection points: 2
#     Edge 24, Type (0, 0), BuildingBlock: AJUNOK_clean_linker_0, # of connection points: 2
#     Edge 25, Type (0, 0), BuildingBlock: AJUNOK_clean_linker_0, # of connection points: 2
#     Edge 26, Type (0, 0), BuildingBlock: AJUNOK_clean_linker_0, # of connection points: 2
#     Edge 27, Type (0, 0), BuildingBlock: AJUNOK_clean_linker_0, # of connection points: 2
#     Edge 28, Type (0, 0), BuildingBlock: AJUNOK_clean_linker_0, # of connection points: 2
#     Edge 29, Type (0, 0), BuildingBlock: AJUNOK_clean_linker_0, # of connection points: 2
#     Edge 30, Type (0, 0), BuildingBlock: AJUNOK_clean_linker_0, # of connection points: 2
#     Edge 31, Type (0, 0), BuildingBlock: AJUNOK_clean_linker_0, # of connection points: 2
#     Edge 32, Type (0, 0), BuildingBlock: AJUNOK_clean_linker_0, # of connection points: 2
#     Edge 33, Type (0, 0), BuildingBlock: AJUNOK_clean_linker_0, # of connection points: 2
#     Edge 34, Type (0, 0), BuildingBlock: AJUNOK_clean_linker_0, # of connection points: 2
#     Edge 35, Type (0, 0), BuildingBlock: AJUNOK_clean_linker_0, # of connection points: 2
#     Edge 36, Type (0, 0), BuildingBlock: AJUNOK_clean_linker_0, # of connection points: 2
#     Edge 37, Type (0, 0), BuildingBlock: AJUNOK_clean_linker_0, # of connection points: 2
#     Edge 38, Type (0, 0), BuildingBlock: AJUNOK_clean_linker_0, # of connection points: 2
#     Edge 39, Type (0, 0), BuildingBlock: AJUNOK_clean_linker_0, # of connection points: 2
#     Edge 40, Type (0, 0), BuildingBlock: AJUNOK_clean_linker_0, # of connection points: 2
#     Edge 41, Type (0, 0), BuildingBlock: AJUNOK_clean_linker_0, # of connection points: 2
#     Edge 42, Type (0, 0), BuildingBlock: AJUNOK_clean_linker_0, # of connection points: 2
#     Edge 43, Type (0, 0), BuildingBlock: AJUNOK_clean_linker_0, # of connection points: 2
#     Edge 44, Type (0, 0), BuildingBlock: AJUNOK_clean_linker_0, # of connection points: 2
#     Edge 45, Type (0, 0), BuildingBlock: AJUNOK_clean_linker_0, # of connection points: 2
#     Edge 46, Type (0, 0), BuildingBlock: AJUNOK_clean_linker_0, # of connection points: 2
#     Edge 47, Type (0, 0), BuildingBlock: AJUNOK_clean_linker_0, # of connection points: 2
# Relax obj value: 0.039
# Max RMSD: 0.066
# Mean RMSD: 0.066
data_MOF--net-uou--node1-CEKHIL_clean_sbu_0--edge1-AJUNOK_clean_linker_0
_symmetry_space_group_name_H-M    P1
_symmetry_Int_Tables_number       1
_symmetry_cell_setting            triclinic
loop_
_symmetry_equiv_pos_as_xyz
'x, y, z'
_cell_length_a     27.816693
_cell_length_b     29.542526
_cell_length_c     38.657057
_cell_angle_alpha  90.026843
_cell_angle_beta   89.935294
_cell_angle_gamma 89.875216
loop_
_atom_site_label
_atom_site_type_symbol
_atom_site_fract_x
_atom_site_fract_y
_atom_site_fract_z
_atom_type_partial_charge
Co0 Co 0.08695 0.07436 0.12715 0.0
O1 O 0.12802 0.02094 0.1296 0.0
O2 O 0.15173 0.08752 0.11074 0.0
C3 C 0.05432 0.06836 0.18073 0.0
O4 O 0.05693 0.13804 0.12246 0.0
Co5 Co 0.97571 0.06853 0.13116 0.0
O6 O 0.97809 0.13513 0.13515 0.0
C7 C 0.02476 0.04003 0.06751 0.0
C8 C 0.16289 0.04578 0.11788 0.0
C9 C 0.01585 0.15747 0.12796 0.0
O10 O 0.06484 0.05622 0.07898 0.0
O11 O 0.98647 0.03836 0.08577 0.0
O12 O 0.09682 0.08577 0.17656 0.0
O13 O 0.03536 0.05132 0.15323 0.0
Co14 Co 0.43316 0.94014 0.13002 0.0
O15 O 0.39425 0.99488 0.13188 0.0
O16 O 0.36902 0.92977 0.11111 0.0
C17 C 0.46126 0.94417 0.18487 0.0
O18 O 0.46118 0.87569 0.12539 0.0
Co19 Co 0.54433 0.94166 0.13924 0.0
O20 O 0.53877 0.87495 0.14164 0.0
C21 C 0.50157 0.97345 0.07363 0.0
C22 C 0.3592 0.97171 0.11864 0.0
C23 C 0.5007 0.85435 0.1324 0.0
O24 O 0.45987 0.95863 0.08312 0.0
O25 O 0.53821 0.97299 0.09358 0.0
O26 O 0.41872 0.92799 0.17872 0.0
O27 O 0.48337 0.96074 0.15843 0.0
Co28 Co 0.58589 0.93868 0.37391 0.0
O29 O 0.62588 0.9928 0.3717 0.0
O30 O 0.65078 0.9265 0.39044 0.0
C31 C 0.55358 0.94425 0.32017 0.0
O32 O 0.55771 0.87443 0.37835 0.0
Co33 Co 0.47478 0.94151 0.36989 0.0
O34 O 0.47899 0.87493 0.36548 0.0
C35 C 0.52225 0.97037 0.43404 0.0
C36 C 0.66121 0.96837 0.38338 0.0
C37 C 0.51762 0.85366 0.37248 0.0
O38 O 0.563 0.95598 0.42218 0.0
O39 O 0.48383 0.97082 0.41591 0.0
O40 O 0.59649 0.92771 0.32452 0.0
O41 O 0.53376 0.96074 0.34767 0.0
Co42 Co 0.93172 0.07263 0.36982 0.0
O43 O 0.89191 0.01869 0.36826 0.0
O44 O 0.86772 0.08428 0.38899 0.0
C45 C 0.9595 0.06785 0.31498 0.0
O46 O 0.96166 0.13631 0.37422 0.0
Co47 Co 0.04316 0.06665 0.35979 0.0
O48 O 0.03943 0.13346 0.35811 0.0
C49 C 0.99985 0.0382 0.42597 0.0
C50 C 0.85728 0.04243 0.38164 0.0
C51 C 1.00239 0.15569 0.36754 0.0
O52 O 0.95842 0.05381 0.41654 0.0
O53 O 0.03625 0.03659 0.40577 0.0
O54 O 0.91728 0.08498 0.32113 0.0
O55 O 0.98111 0.05064 0.34134 0.0
Co56 Co 0.93328 0.94012 0.87061 0.0
O57 O 0.89496 0.99521 0.86962 0.0
O58 O 0.86942 0.92994 0.88998 0.0
C59 C 0.96057 0.94468 0.81577 0.0
O60 O 0.96071 0.87545 0.87434 0.0
Co61 Co 0.04449 0.94091 0.86036 0.0
O62 O 0.03811 0.87432 0.85744 0.0
C63 C 1.00298 0.97148 0.92666 0.0
C64 C 0.85986 0.97205 0.88286 0.0
C65 C 0.99993 0.85393 0.86676 0.0
O66 O 0.96092 0.95758 0.91727 0.0
O67 O 0.03944 0.97125 0.90647 0.0
O68 O 0.91791 0.92883 0.82204 0.0
O69 O 0.98327 0.96069 0.84212 0.0
Co70 Co 0.58805 0.07424 0.87277 0.0
O71 O 0.62958 0.02129 0.87017 0.0
O72 O 0.65226 0.08771 0.8901 0.0
C73 C 0.55731 0.06858 0.81902 0.0
O74 O 0.55747 0.13733 0.87785 0.0
Co75 Co 0.47708 0.0684 0.86684 0.0
O76 O 0.47961 0.13527 0.86267 0.0
C77 C 0.52432 0.03982 0.93162 0.0
C78 C 0.66388 0.04614 0.88264 0.0
C79 C 0.51719 0.1573 0.87099 0.0
O80 O 0.56488 0.05519 0.92039 0.0
O81 O 0.48629 0.0389 0.91301 0.0
O82 O 0.59901 0.08728 0.82375 0.0
O83 O 0.53761 0.05074 0.84594 0.0
Co84 Co 0.43105 0.06946 0.63268 0.0
O85 O 0.38906 0.01694 0.63454 0.0
O86 O 0.36797 0.08296 0.61298 0.0
C87 C 0.45784 0.06466 0.68767 0.0
O88 O 0.4628 0.13211 0.62792 0.0
Co89 Co 0.54154 0.06165 0.64348 0.0
O90 O 0.53925 0.12858 0.6465 0.0
C91 C 0.49937 0.0342 0.57657 0.0
C92 C 0.35563 0.0417 0.62072 0.0
C93 C 0.50307 0.15123 0.63603 0.0
O94 O 0.45766 0.04914 0.58614 0.0
O95 O 0.53574 0.03306 0.59677 0.0
O96 O 0.41677 0.08383 0.68114 0.0
O97 O 0.47908 0.04593 0.66171 0.0
Co98 Co 0.08442 0.93843 0.62688 0.0
O99 O 0.12362 0.99279 0.62924 0.0
O100 O 0.14968 0.92685 0.61036 0.0
C101 C 0.05222 0.94389 0.68052 0.0
O102 O 0.05595 0.87421 0.62221 0.0
Co103 Co 0.97309 0.94205 0.63124 0.0
O104 O 0.9773 0.87553 0.63563 0.0
C105 C 0.0211 0.9714 0.56741 0.0
C106 C 0.15927 0.96895 0.6174 0.0
C107 C 0.01559 0.85387 0.62824 0.0
O108 O 0.06156 0.956 0.57887 0.0
O109 O 0.98277 0.97231 0.58567 0.0
O110 O 0.09509 0.92724 0.67614 0.0
O111 O 0.03245 0.96046 0.65312 0.0
Co112 Co 0.58484 0.57198 0.12857 0.0
O113 O 0.62513 0.51812 0.13066 0.0
O114 O 0.6496 0.58418 0.11125 0.0
C115 C 0.55397 0.56604 0.18284 0.0
O116 O 0.55528 0.63605 0.12406 0.0
Co117 Co 0.47364 0.56766 0.13532 0.0
O118 O 0.47706 0.63417 0.1388 0.0
C119 C 0.51994 0.53634 0.0711 0.0
C120 C 0.66013 0.54229 0.11839 0.0
C121 C 0.51466 0.65601 0.13038 0.0
O122 O 0.5606 0.55336 0.08085 0.0
O123 O 0.48287 0.53547 0.0906 0.0
O124 O 0.5963 0.58351 0.17793 0.0
O125 O 0.53405 0.54949 0.15557 0.0
Co126 Co 0.93292 0.44094 0.12905 0.0
O127 O 0.89217 0.49477 0.13099 0.0
O128 O 0.86869 0.42849 0.11144 0.0
C129 C 0.96362 0.44686 0.18321 0.0
O130 O 0.96184 0.37686 0.12452 0.0
Co131 Co 0.04403 0.44302 0.13604 0.0
O132 O 0.03972 0.37648 0.13973 0.0
C133 C 0.99895 0.47413 0.0714 0.0
C134 C 0.85746 0.47017 0.1187 0.0
C135 C 1.00153 0.35567 0.13116 0.0
O136 O 0.95762 0.45898 0.08147 0.0
O137 O 0.03598 0.47443 0.09089 0.0
O138 O 0.92115 0.42966 0.17834 0.0
O139 O 0.9839 0.46311 0.15595 0.0
Co140 Co 0.08554 0.43922 0.37223 0.0
O141 O 0.12423 0.49397 0.37071 0.0
O142 O 0.14983 0.42862 0.39093 0.0
C143 C 0.05719 0.4439 0.31769 0.0
O144 O 0.0576 0.37476 0.37635 0.0
Co145 Co 0.974 0.44131 0.36288 0.0
O146 O 0.97974 0.37465 0.36056 0.0
C147 C 0.01727 0.47309 0.42828 0.0
C148 C 0.15946 0.47064 0.38367 0.0
C149 C 0.01792 0.35378 0.36938 0.0
O150 O 0.05879 0.45731 0.41915 0.0
O151 O 0.98079 0.47319 0.40818 0.0
O152 O 0.0999 0.42768 0.32344 0.0
O153 O 0.03517 0.46018 0.34426 0.0
Co154 Co 0.43091 0.57306 0.37181 0.0
O155 O 0.38972 0.51991 0.3696 0.0
O156 O 0.36701 0.58598 0.39028 0.0
C157 C 0.4602 0.56823 0.3175 0.0
O158 O 0.46161 0.63629 0.37679 0.0
Co159 Co 0.54236 0.56588 0.36421 0.0
O160 O 0.53976 0.63275 0.36198 0.0
C161 C 0.49609 0.53655 0.429 0.0
C162 C 0.35548 0.5445 0.38267 0.0
C163 C 0.50261 0.65537 0.3706 0.0
O164 O 0.45566 0.55342 0.41875 0.0
O165 O 0.5337 0.53518 0.40993 0.0
O166 O 0.41806 0.58588 0.32308 0.0
O167 O 0.48092 0.55046 0.34406 0.0
Co168 Co 0.42893 0.43825 0.87137 0.0
O169 O 0.38823 0.49187 0.86949 0.0
O170 O 0.36496 0.42589 0.8898 0.0
C171 C 0.45785 0.44322 0.81695 0.0
O172 O 0.45908 0.37468 0.87585 0.0
Co173 Co 0.54033 0.4447 0.86338 0.0
O174 O 0.53727 0.37781 0.86102 0.0
C175 C 0.49503 0.47259 0.92894 0.0
C176 C 0.35371 0.46749 0.88223 0.0
C177 C 0.50003 0.35542 0.86961 0.0
O178 O 0.45425 0.45682 0.91847 0.0
O179 O 0.53232 0.47444 0.90957 0.0
O180 O 0.41565 0.42598 0.82264 0.0
O181 O 0.47885 0.4606 0.84353 0.0
Co182 Co 0.08263 0.57179 0.86956 0.0
O183 O 0.12226 0.51753 0.86783 0.0
O184 O 0.14762 0.58381 0.88627 0.0
C185 C 0.05061 0.56556 0.81591 0.0
O186 O 0.05353 0.63592 0.8737 0.0
Co187 Co 0.97133 0.56682 0.86527 0.0
O188 O 0.97473 0.63335 0.86093 0.0
C189 C 0.01939 0.53881 0.9292 0.0
C190 C 0.15752 0.54157 0.87981 0.0
C191 C 0.01259 0.65556 0.86808 0.0
O192 O 0.05951 0.55482 0.91766 0.0
O193 O 0.98128 0.53682 0.91084 0.0
O194 O 0.09339 0.58233 0.82012 0.0
O195 O 0.0311 0.54918 0.84346 0.0
Co196 Co 0.92646 0.57323 0.62772 0.0
O197 O 0.88704 0.51918 0.62962 0.0
O198 O 0.86186 0.58484 0.60969 0.0
C199 C 0.95577 0.56803 0.68194 0.0
O200 O 0.95631 0.63692 0.62323 0.0
Co201 Co 0.03809 0.56644 0.63515 0.0
O202 O 0.03486 0.63329 0.63716 0.0
C203 C 0.992 0.53855 0.56997 0.0
C204 C 0.85195 0.54281 0.61688 0.0
C205 C 0.99752 0.65588 0.62894 0.0
O206 O 0.95147 0.55496 0.58048 0.0
O207 O 0.02933 0.53635 0.58922 0.0
O208 O 0.91337 0.58515 0.67658 0.0
O209 O 0.97668 0.55094 0.65517 0.0
Co210 Co 0.58259 0.43582 0.62814 0.0
O211 O 0.62152 0.49065 0.62896 0.0
O212 O 0.64729 0.4242 0.61102 0.0
C213 C 0.55128 0.44299 0.68212 0.0
O214 O 0.55562 0.37087 0.62519 0.0
Co215 Co 0.47147 0.43642 0.63426 0.0
O216 O 0.47726 0.37014 0.63942 0.0
C217 C 0.51663 0.46573 0.56929 0.0
C218 C 0.65707 0.46643 0.61731 0.0
C219 C 0.51616 0.34951 0.63205 0.0
O220 O 0.55809 0.45156 0.57997 0.0
O221 O 0.47934 0.46651 0.58858 0.0
O222 O 0.59431 0.42668 0.67768 0.0
O223 O 0.53075 0.45792 0.65449 0.0
C224 C 0.26903 0.96287 0.11498 0.0
C225 C 0.30967 0.99129 0.115 0.0
C226 C 0.22192 0.9807 0.11525 0.0
C227 C 0.21322 0.02777 0.11485 0.0
H228 H 0.27356 0.92647 0.11598 0.0
H229 H 0.19203 0.95729 0.11619 0.0
S230 S 0.30712 0.11695 0.11234 0.0
N231 N 0.33782 0.06906 0.11315 0.0
N232 N 0.24984 0.10238 0.11282 0.0
C233 C 0.25357 0.05652 0.11352 0.0
C234 C 0.30152 0.03837 0.11384 0.0
C235 C 0.71986 0.03378 0.38471 0.0
C236 C 0.71138 0.98673 0.38627 0.0
C237 C 0.76692 0.05167 0.38479 0.0
C238 C 0.80769 0.02327 0.38573 0.0
H239 H 0.68987 0.05711 0.38296 0.0
H240 H 0.77134 0.08799 0.38282 0.0
S241 S 0.80575 0.89782 0.39182 0.0
N242 N 0.74842 0.91231 0.39056 0.0
N243 N 0.83619 0.94567 0.38989 0.0
C244 C 0.79973 0.97628 0.38812 0.0
C245 C 0.75188 0.95812 0.38863 0.0
C246 C 0.7698 0.96329 0.88611 0.0
C247 C 0.81043 0.99169 0.88659 0.0
C248 C 0.72275 0.98116 0.88557 0.0
C249 C 0.71411 0.02822 0.88618 0.0
H250 H 0.7743 0.9269 0.88485 0.0
H251 H 0.69288 0.95777 0.88419 0.0
S252 S 0.80795 0.11731 0.89013 0.0
N253 N 0.83865 0.06941 0.88924 0.0
N254 N 0.75068 0.10279 0.88907 0.0
C255 C 0.7544 0.05695 0.8881 0.0
C256 C 0.80233 0.03877 0.88804 0.0
C257 C 0.24947 0.95949 0.61663 0.0
C258 C 0.20899 0.98811 0.61461 0.0
C259 C 0.29655 0.97707 0.61778 0.0
C260 C 0.30546 0.02404 0.61627 0.0
H261 H 0.24476 0.9232 0.61859 0.0
H262 H 0.32624 0.95353 0.62038 0.0
S263 S 0.21216 0.11351 0.60808 0.0
N264 N 0.18125 0.06588 0.60945 0.0
N265 N 0.26932 0.09868 0.61079 0.0
C266 C 0.26537 0.05293 0.61279 0.0
C267 C 0.21737 0.03506 0.61222 0.0
C268 C 0.79772 0.53495 0.11792 0.0
C269 C 0.80706 0.48808 0.11541 0.0
C270 C 0.75039 0.55235 0.11742 0.0
C271 C 0.71013 0.52361 0.11511 0.0
H272 H 0.82724 0.55851 0.12072 0.0
H273 H 0.74532 0.58854 0.12009 0.0
S274 S 0.71434 0.3985 0.10613 0.0
N275 N 0.77137 0.41349 0.10875 0.0
N276 N 0.68305 0.44595 0.10868 0.0
C277 C 0.71893 0.47681 0.11184 0.0
C278 C 0.7671 0.45916 0.11174 0.0
C279 C 0.29676 0.47948 0.38583 0.0
C280 C 0.30531 0.52654 0.38646 0.0
C281 C 0.24972 0.46168 0.38651 0.0
C282 C 0.20898 0.49013 0.38712 0.0
H283 H 0.3267 0.45606 0.38433 0.0
H284 H 0.2453 0.4253 0.38526 0.0
S285 S 0.21119 0.61576 0.39067 0.0
N286 N 0.2685 0.60114 0.38945 0.0
N287 N 0.18062 0.56792 0.38987 0.0
C288 C 0.21701 0.5372 0.38857 0.0
C289 C 0.26491 0.5553 0.3885 0.0
C290 C 0.24771 0.55057 0.88257 0.0
C291 C 0.20707 0.52223 0.88385 0.0
C292 C 0.29479 0.53268 0.88291 0.0
C293 C 0.30346 0.48569 0.88524 0.0
H294 H 0.2432 0.58684 0.88007 0.0
H295 H 0.32467 0.55597 0.8808 0.0
S296 S 0.20949 0.39698 0.89205 0.0
N297 N 0.17884 0.44476 0.88926 0.0
N298 N 0.26678 0.4114 0.89067 0.0
C299 C 0.2631 0.45714 0.88798 0.0
C300 C 0.21517 0.4753 0.88705 0.0
C301 C 0.71469 0.5326 0.61526 0.0
C302 C 0.70686 0.48543 0.61373 0.0
C303 C 0.76147 0.55107 0.61468 0.0
C304 C 0.80258 0.52317 0.6132 0.0
H305 H 0.68441 0.55554 0.61744 0.0
H306 H 0.76543 0.58744 0.61669 0.0
S307 S 0.80232 0.39771 0.60682 0.0
N308 N 0.74484 0.41148 0.60882 0.0
N309 N 0.83209 0.44594 0.60848 0.0
C310 C 0.79525 0.47608 0.61077 0.0
C311 C 0.74769 0.45733 0.61082 0.0
C312 C 0.03271 0.07342 0.27768 0.0
C313 C 0.98248 0.06947 0.28055 0.0
C314 C 0.05542 0.07396 0.24526 0.0
C315 C 0.0289 0.06918 0.21453 0.0
H316 H 0.05475 0.07643 0.3006 0.0
H317 H 0.09419 0.07723 0.24435 0.0
S318 S 0.89618 0.0566 0.20837 0.0
N319 N 0.90676 0.06101 0.25023 0.0
N320 N 0.94925 0.05977 0.18941 0.0
C321 C 0.97855 0.06477 0.21718 0.0
C322 C 0.95538 0.06555 0.25017 0.0
C323 C 0.53399 0.94039 0.22287 0.0
C324 C 0.48368 0.94282 0.21958 0.0
C325 C 0.5561 0.93999 0.25551 0.0
C326 C 0.52884 0.94333 0.2861 0.0
H327 H 0.55656 0.93843 0.20009 0.0
H328 H 0.59495 0.93792 0.25672 0.0
S329 S 0.39564 0.95127 0.29132 0.0
N330 N 0.40714 0.9482 0.24949 0.0
N331 N 0.44847 0.94945 0.31068 0.0
C332 C 0.47843 0.94613 0.28305 0.0
C333 C 0.45591 0.94531 0.24984 0.0
C334 C 0.05478 0.93811 0.74496 0.0
C335 C 0.02757 0.94317 0.71456 0.0
C336 C 0.03284 0.93872 0.77762 0.0
C337 C 0.98271 0.94313 0.78107 0.0
H338 H 0.09351 0.9345 0.7436 0.0
H339 H 0.05536 0.93538 0.80029 0.0
S340 S 0.89487 0.95701 0.7099 0.0
N341 N 0.94748 0.95333 0.69031 0.0
N342 N 0.90635 0.95245 0.75163 0.0
C343 C 0.95493 0.94742 0.75101 0.0
C344 C 0.97734 0.94802 0.71777 0.0
C345 C 0.4969 0.02667 0.73761 0.0
C346 C 0.4813 0.06686 0.72174 0.0
C347 C 0.52127 0.02762 0.76933 0.0
C348 C 0.53256 0.06887 0.78541 0.0
H349 H 0.48979 0.99425 0.72554 0.0
H350 H 0.53201 0.99591 0.78113 0.0
S351 S 0.50108 0.18353 0.75383 0.0
N352 N 0.47862 0.14899 0.72436 0.0
N353 N 0.52684 0.15086 0.78319 0.0
C354 C 0.51786 0.10934 0.76958 0.0
C355 C 0.49158 0.10831 0.73786 0.0
C356 C 0.55528 0.57632 0.24723 0.0
C357 C 0.52913 0.56696 0.21691 0.0
C358 C 0.53286 0.57641 0.27981 0.0
C359 C 0.48321 0.56859 0.28311 0.0
H360 H 0.59353 0.58294 0.2459 0.0
H361 H 0.55449 0.58312 0.30249 0.0
S362 S 0.39838 0.5412 0.21248 0.0
N363 N 0.45073 0.54767 0.19299 0.0
N364 N 0.40867 0.5505 0.2539 0.0
C365 C 0.45654 0.55963 0.2532 0.0
C366 C 0.47949 0.5581 0.22018 0.0
C367 C 0.98492 0.43503 0.27993 0.0
C368 C 0.03451 0.4431 0.28323 0.0
C369 C 0.96247 0.4355 0.24743 0.0
C370 C 0.98855 0.44543 0.21718 0.0
H371 H 0.96327 0.42798 0.30257 0.0
H372 H 0.92425 0.42878 0.24612 0.0
S373 S 0.11924 0.47162 0.2127 0.0
N374 N 0.10901 0.46174 0.25406 0.0
N375 N 0.0669 0.46525 0.19325 0.0
C376 C 0.0382 0.45435 0.22041 0.0
C377 C 0.06117 0.45246 0.25337 0.0
C378 C 0.55333 0.43702 0.74678 0.0
C379 C 0.52652 0.44259 0.71621 0.0
C380 C 0.53097 0.43757 0.77937 0.0
C381 C 0.48083 0.44233 0.78251 0.0
H382 H 0.592 0.43293 0.7456 0.0
H383 H 0.55309 0.43374 0.8022 0.0
S384 S 0.394 0.45848 0.71102 0.0
N385 N 0.44677 0.45442 0.69172 0.0
N386 N 0.40499 0.45302 0.75274 0.0
C387 C 0.45351 0.44736 0.75233 0.0
C388 C 0.4763 0.44815 0.71924 0.0
C389 C 0.05181 0.5729 0.75144 0.0
C390 C 0.02535 0.56668 0.78211 0.0
C391 C 0.0291 0.5731 0.71904 0.0
C392 C 0.97896 0.56846 0.71622 0.0
H393 H 0.09049 0.5769 0.75237 0.0
H394 H 0.05097 0.57736 0.69609 0.0
S395 S 0.89297 0.55109 0.78817 0.0
N396 N 0.94595 0.55464 0.80712 0.0
N397 N 0.90346 0.55732 0.74643 0.0
C398 C 0.95197 0.56286 0.74654 0.0
C399 C 0.97513 0.56133 0.77943 0.0
C400 C 0.05247 0.23528 0.13085 0.0
C401 C 0.01166 0.2079 0.12653 0.0
C402 C 0.04871 0.28272 0.13202 0.0
C403 C 1.00399 0.30513 0.12861 0.0
H404 H 0.08759 0.22 0.1342 0.0
H405 H 0.0814 0.30189 0.13589 0.0
S406 S 0.88628 0.24912 0.11429 0.0
N407 N 0.92506 0.20693 0.11706 0.0
N408 N 0.91817 0.2957 0.11921 0.0
C409 C 0.96301 0.27815 0.12333 0.0
C410 C 0.96679 0.22978 0.12232 0.0
C411 C 0.54793 0.78134 0.13245 0.0
C412 C 0.50311 0.80378 0.12978 0.0
C413 C 0.55163 0.73386 0.13161 0.0
C414 C 0.51065 0.70645 0.12837 0.0
H415 H 0.58076 0.80055 0.13555 0.0
H416 H 0.58684 0.71857 0.13442 0.0
S417 S 0.38487 0.74771 0.11822 0.0
N418 N 0.41699 0.79432 0.12212 0.0
N419 N 0.4237 0.70552 0.12055 0.0
C420 C 0.46566 0.72838 0.12478 0.0
C421 C 0.46196 0.77677 0.12546 0.0
C422 C 0.46635 0.73362 0.37324 0.0
C423 C 0.50741 0.70576 0.37304 0.0
C424 C 0.47018 0.78107 0.37347 0.0
C425 C 0.51527 0.80305 0.37381 0.0
H426 H 0.4308 0.71876 0.37249 0.0
H427 H 0.43722 0.80063 0.37316 0.0
S428 S 0.63423 0.74587 0.37534 0.0
N429 N 0.59506 0.70402 0.37463 0.0
N430 N 0.60195 0.79279 0.37506 0.0
C431 C 0.55666 0.77563 0.37447 0.0
C432 C 0.55282 0.72725 0.37406 0.0
C433 C 0.97024 0.28137 0.37047 0.0
C434 C 0.01541 0.30323 0.37128 0.0
C435 C 0.96622 0.23394 0.3702 0.0
C436 C 1.00719 0.20601 0.37042 0.0
H437 H 0.93735 0.30104 0.36971 0.0
H438 H 0.93066 0.21917 0.36897 0.0
S439 S 0.13407 0.24571 0.37454 0.0
N440 N 0.10198 0.29274 0.37377 0.0
N441 N 0.09477 0.20397 0.3733 0.0
C442 C 0.05264 0.22735 0.37213 0.0
C443 C 0.05666 0.27571 0.37259 0.0
C444 C 0.0499 0.73325 0.86776 0.0
C445 C 1.00858 0.70604 0.86966 0.0
C446 C 0.0466 0.78073 0.86723 0.0
C447 C 1.00183 0.80338 0.86888 0.0
H448 H 0.08518 0.71782 0.86596 0.0
H449 H 0.0797 0.7998 0.86532 0.0
S450 S 0.88253 0.74806 0.87604 0.0
N451 N 0.92115 0.70563 0.87463 0.0
N452 N 0.91524 0.79447 0.87362 0.0
C453 C 0.96024 0.77662 0.87163 0.0
C454 C 0.96354 0.72821 0.87199 0.0
C455 C 0.46431 0.27703 0.86877 0.0
C456 C 0.50481 0.3051 0.87209 0.0
C457 C 0.46871 0.22957 0.86878 0.0
C458 C 0.51377 0.20789 0.87247 0.0
H459 H 0.42895 0.29176 0.86531 0.0
H460 H 0.43629 0.20978 0.86558 0.0
S461 S 0.63092 0.26598 0.88433 0.0
N462 N 0.5915 0.30753 0.88081 0.0
N463 N 0.5996 0.21884 0.88088 0.0
C464 C 0.55444 0.23563 0.8767 0.0
C465 C 0.55001 0.28395 0.87648 0.0
C466 C 0.46674 0.229 0.62988 0.0
C467 C 0.50787 0.20162 0.6335 0.0
C468 C 0.47006 0.27644 0.629 0.0
C469 C 0.51471 0.29891 0.63135 0.0
H470 H 0.43141 0.2138 0.6283 0.0
H471 H 0.43704 0.29566 0.62655 0.0
S472 S 0.6338 0.24327 0.64006 0.0
N473 N 0.59526 0.20091 0.63865 0.0
N474 N 0.60116 0.28978 0.63685 0.0
C475 C 0.55627 0.27202 0.63429 0.0
C476 C 0.55293 0.22361 0.63546 0.0
C477 C 0.96706 0.78191 0.63038 0.0
C478 C 0.01224 0.80329 0.62657 0.0
C479 C 0.96235 0.73454 0.63018 0.0
C480 C 1.00261 0.70616 0.62645 0.0
H481 H 0.93472 0.80187 0.63389 0.0
H482 H 0.92694 0.72012 0.63384 0.0
S483 S 0.12878 0.74431 0.61319 0.0
N484 N 0.09782 0.79172 0.61724 0.0
N485 N 0.0892 0.70306 0.61687 0.0
C486 C 0.04792 0.72696 0.62176 0.0
C487 C 0.05266 0.77527 0.6218 0.0
C488 C 0.96987 0.99944 0.98303 0.0
C489 C 0.00999 0.98876 0.96247 0.0
C490 C 0.97532 0.01623 0.01664 0.0
C491 C 0.02115 0.0231 0.03138 0.0
H492 H 0.93378 0.99518 0.97305 0.0
H493 H 0.94298 0.02408 0.03111 0.0
S494 S 0.13817 0.99887 0.98908 0.0
N495 N 0.09761 0.98528 0.95975 0.0
N496 N 0.10748 0.01691 0.02297 0.0
C497 C 0.06169 0.01249 0.01123 0.0
C498 C 0.0562 0.99529 0.97686 0.0
C499 C 0.47634 1.0044 0.97964 0.0
C500 C 0.52017 0.02301 0.96794 0.0
C501 C 0.47058 0.98886 0.01366 0.0
C502 C 0.50837 0.99108 0.03772 0.0
H503 H 0.44583 1.00166 0.96239 0.0
H504 H 0.43612 0.97479 0.02102 0.0
S505 S 0.63062 0.03744 0.02063 0.0
N506 N 0.60207 0.04306 0.98352 0.0
N507 N 0.59156 0.0141 0.04732 0.0
C508 C 0.55251 0.00977 0.02645 0.0
C509 C 0.55833 0.02559 0.9917 0.0
C510 C 0.46651 0.00945 0.51912 0.0
C511 C 0.50644 0.01796 0.54035 0.0
C512 C 0.47222 0.99404 0.48506 0.0
C513 C 0.51816 0.98647 0.4705 0.0
H514 H 0.43036 0.0144 0.52889 0.0
H515 H 0.44 0.98783 0.47011 0.0
S516 S 0.63487 1.00542 0.51453 0.0
N517 N 0.59406 0.01882 0.54383 0.0
N518 N 0.60443 0.98986 0.47993 0.0
C519 C 0.5585 0.99508 0.49133 0.0
C520 C 0.55275 0.01081 0.52612 0.0
C521 C 0.97161 0.99671 0.51681 0.0
C522 C 0.01737 0.98831 0.53125 0.0
C523 C 0.9663 0.01294 0.48299 0.0
C524 C 1.00649 0.02145 0.46197 0.0
H525 H 0.93923 0.9905 0.53163 0.0
H526 H 0.93027 0.01845 0.47322 0.0
S527 S 0.13463 0.00703 0.48774 0.0
N528 N 0.10377 0.99101 0.52206 0.0
N529 N 0.09415 0.02151 0.45858 0.0
C530 C 0.05263 0.01353 0.47613 0.0
C531 C 0.05798 0.99696 0.51066 0.0
C532 C 0.54807 0.52785 0.00951 0.0
C533 C 0.51398 0.51827 0.03533 0.0
C534 C 0.54139 0.51322 0.97529 0.0
C535 C 0.50032 0.48837 0.96534 0.0
H536 H 0.57988 0.54737 0.01558 0.0
H537 H 0.5687 0.52187 0.95644 0.0
S538 S 0.4015 0.45171 0.02345 0.0
N539 N 0.43836 0.4802 0.04873 0.0
N540 N 0.426 0.45335 0.98461 0.0
C541 C 0.46626 0.478 0.99098 0.0
C542 C 0.47308 0.49268 0.02585 0.0
C543 C 0.96586 0.49237 0.01264 0.0
C544 C 1.00516 0.49123 0.0354 0.0
C545 C 0.97104 0.50768 0.97855 0.0
C546 C 0.01578 0.5226 0.96557 0.0
H547 H 0.93066 0.48131 0.02109 0.0
H548 H 0.93934 0.50778 0.96231 0.0
S549 S 0.13053 0.52636 0.01437 0.0
N550 N 0.09096 0.5065 0.04227 0.0
N551 N 0.10027 0.53503 0.97832 0.0
C552 C 0.05547 0.52169 0.98799 0.0
C553 C 0.05028 0.50612 0.02279 0.0
C554 C 0.0394 0.49966 0.52328 0.0
C555 C 0.99694 0.52214 0.53369 0.0
C556 C 0.04591 0.48445 0.48924 0.0
C557 C 0.01024 0.49094 0.464 0.0
H558 H 0.06812 0.49346 0.54158 0.0
H559 H 0.07909 0.46709 0.48286 0.0
S560 S 0.89283 0.54938 0.47733 0.0
N561 N 0.919 0.55099 0.51557 0.0
N562 N 0.931 0.52276 0.4517 0.0
C563 C 0.96764 0.51376 0.47395 0.0
C564 C 0.96103 0.52919 0.50868 0.0
C565 C 0.5511 0.49417 0.51324 0.0
C566 C 0.51077 0.48225 0.53315 0.0
C567 C 0.54591 0.51166 0.4797 0.0
C568 C 0.50018 0.51803 0.46463 0.0
H569 H 0.58699 0.49064 0.52376 0.0
H570 H 0.57819 0.52074 0.46565 0.0
S571 S 0.383 0.48887 0.50469 0.0
N572 N 0.42328 0.47577 0.53436 0.0
N573 N 0.41394 0.50881 0.47164 0.0
C574 C 0.45958 0.50553 0.48399 0.0
C575 C 0.46477 0.48759 0.51808 0.0
loop_
_geom_bond_atom_site_label_1
_geom_bond_atom_site_label_2
_geom_bond_distance
_geom_bond_site_symmetry_2
_ccdc_geom_bond_type
Co0 O1 2.216 . S
Co0 O2 2.091 . S
Co0 O4 2.004 . S
Co0 O10 2.021 . S
Co0 O12 2.137 . S
Co0 O13 2.244 . S
O1 Co0 2.216 . S
O1 C8 1.247 . S
O2 Co0 2.091 . S
O2 C8 1.261 . S
C3 O12 1.247 . S
C3 O13 1.272 . S
O4 Co0 2.004 . S
O4 C9 1.259 . S
Co5 O6 2.061 . S
Co5 O11 2.052 . S
Co5 O13 2.135 1_655 S
O6 Co5 2.061 . S
O6 C9 1.235 1_655 S
C7 O10 1.238 . S
C7 O11 1.241 1_455 S
C8 O1 1.247 . S
C8 O2 1.261 . S
C9 O4 1.259 . S
C9 O6 1.235 1_455 S
O10 Co0 2.021 . S
O10 C7 1.238 . S
O11 Co5 2.052 . S
O11 C7 1.241 1_655 S
O12 Co0 2.137 . S
O12 C3 1.247 . S
O13 Co0 2.244 . S
O13 C3 1.272 . S
O13 Co5 2.135 1_455 S
Co14 O15 2.216 . S
Co14 O16 2.091 . S
Co14 O18 2.004 . S
Co14 O24 2.021 . S
Co14 O26 2.137 . S
Co14 O27 2.244 . S
O15 Co14 2.216 . S
O15 C22 1.247 . S
O16 Co14 2.091 . S
O16 C22 1.261 . S
C17 O26 1.247 . S
C17 O27 1.272 . S
O18 Co14 2.004 . S
O18 C23 1.259 . S
Co19 O20 2.061 . S
Co19 O25 2.052 . S
Co19 O27 2.135 . S
O20 Co19 2.061 . S
O20 C23 1.235 . S
C21 O24 1.238 . S
C21 O25 1.241 . S
C22 O15 1.247 . S
C22 O16 1.261 . S
C23 O18 1.259 . S
C23 O20 1.235 . S
O24 Co14 2.021 . S
O24 C21 1.238 . S
O25 Co19 2.052 . S
O25 C21 1.241 . S
O26 Co14 2.137 . S
O26 C17 1.247 . S
O27 Co14 2.244 . S
O27 C17 1.272 . S
O27 Co19 2.135 . S
Co28 O29 2.216 . S
Co28 O30 2.091 . S
Co28 O32 2.004 . S
Co28 O38 2.021 . S
Co28 O40 2.137 . S
Co28 O41 2.244 . S
O29 Co28 2.216 . S
O29 C36 1.247 . S
O30 Co28 2.091 . S
O30 C36 1.261 . S
C31 O40 1.247 . S
C31 O41 1.272 . S
O32 Co28 2.004 . S
O32 C37 1.259 . S
Co33 O34 2.061 . S
Co33 O39 2.052 . S
Co33 O41 2.135 . S
O34 Co33 2.061 . S
O34 C37 1.235 . S
C35 O38 1.238 . S
C35 O39 1.241 . S
C36 O29 1.247 . S
C36 O30 1.261 . S
C37 O32 1.259 . S
C37 O34 1.235 . S
O38 Co28 2.021 . S
O38 C35 1.238 . S
O39 Co33 2.052 . S
O39 C35 1.241 . S
O40 Co28 2.137 . S
O40 C31 1.247 . S
O41 Co28 2.244 . S
O41 C31 1.272 . S
O41 Co33 2.135 . S
Co42 O43 2.216 . S
Co42 O44 2.091 . S
Co42 O46 2.004 . S
Co42 O52 2.021 . S
Co42 O54 2.137 . S
Co42 O55 2.244 . S
O43 Co42 2.216 . S
O43 C50 1.247 . S
O44 Co42 2.091 . S
O44 C50 1.261 . S
C45 O54 1.247 . S
C45 O55 1.272 . S
O46 Co42 2.004 . S
O46 C51 1.259 . S
Co47 O48 2.061 . S
Co47 O53 2.052 . S
Co47 O55 2.135 1_455 S
O48 Co47 2.061 . S
O48 C51 1.235 1_455 S
C49 O52 1.238 . S
C49 O53 1.241 1_655 S
C50 O43 1.247 . S
C50 O44 1.261 . S
C51 O46 1.259 . S
C51 O48 1.235 1_655 S
O52 Co42 2.021 . S
O52 C49 1.238 . S
O53 Co47 2.052 . S
O53 C49 1.241 1_455 S
O54 Co42 2.137 . S
O54 C45 1.247 . S
O55 Co42 2.244 . S
O55 C45 1.272 . S
O55 Co47 2.135 1_655 S
Co56 O57 2.216 . S
Co56 O58 2.091 . S
Co56 O60 2.004 . S
Co56 O66 2.021 . S
Co56 O68 2.137 . S
Co56 O69 2.244 . S
O57 Co56 2.216 . S
O57 C64 1.247 . S
O58 Co56 2.091 . S
O58 C64 1.261 . S
C59 O68 1.247 . S
C59 O69 1.272 . S
O60 Co56 2.004 . S
O60 C65 1.259 . S
Co61 O62 2.061 . S
Co61 O67 2.052 . S
Co61 O69 2.135 1_455 S
O62 Co61 2.061 . S
O62 C65 1.235 1_455 S
C63 O66 1.238 . S
C63 O67 1.241 1_655 S
C64 O57 1.247 . S
C64 O58 1.261 . S
C65 O60 1.259 . S
C65 O62 1.235 1_655 S
O66 Co56 2.021 . S
O66 C63 1.238 . S
O67 Co61 2.052 . S
O67 C63 1.241 1_455 S
O68 Co56 2.137 . S
O68 C59 1.247 . S
O69 Co56 2.244 . S
O69 C59 1.272 . S
O69 Co61 2.135 1_655 S
Co70 O71 2.216 . S
Co70 O72 2.091 . S
Co70 O74 2.004 . S
Co70 O80 2.021 . S
Co70 O82 2.137 . S
Co70 O83 2.244 . S
O71 Co70 2.216 . S
O71 C78 1.247 . S
O72 Co70 2.091 . S
O72 C78 1.261 . S
C73 O82 1.247 . S
C73 O83 1.272 . S
O74 Co70 2.004 . S
O74 C79 1.259 . S
Co75 O76 2.061 . S
Co75 O81 2.052 . S
Co75 O83 2.135 . S
O76 Co75 2.061 . S
O76 C79 1.235 . S
C77 O80 1.238 . S
C77 O81 1.241 . S
C78 O71 1.247 . S
C78 O72 1.261 . S
C79 O74 1.259 . S
C79 O76 1.235 . S
O80 Co70 2.021 . S
O80 C77 1.238 . S
O81 Co75 2.052 . S
O81 C77 1.241 . S
O82 Co70 2.137 . S
O82 C73 1.247 . S
O83 Co70 2.244 . S
O83 C73 1.272 . S
O83 Co75 2.135 . S
Co84 O85 2.216 . S
Co84 O86 2.091 . S
Co84 O88 2.004 . S
Co84 O94 2.021 . S
Co84 O96 2.137 . S
Co84 O97 2.244 . S
O85 Co84 2.216 . S
O85 C92 1.247 . S
O86 Co84 2.091 . S
O86 C92 1.261 . S
C87 O96 1.247 . S
C87 O97 1.272 . S
O88 Co84 2.004 . S
O88 C93 1.259 . S
Co89 O90 2.061 . S
Co89 O95 2.052 . S
Co89 O97 2.135 . S
O90 Co89 2.061 . S
O90 C93 1.235 . S
C91 O94 1.238 . S
C91 O95 1.241 . S
C92 O85 1.247 . S
C92 O86 1.261 . S
C93 O88 1.259 . S
C93 O90 1.235 . S
O94 Co84 2.021 . S
O94 C91 1.238 . S
O95 Co89 2.052 . S
O95 C91 1.241 . S
O96 Co84 2.137 . S
O96 C87 1.247 . S
O97 Co84 2.244 . S
O97 C87 1.272 . S
O97 Co89 2.135 . S
Co98 O99 2.216 . S
Co98 O100 2.091 . S
Co98 O102 2.004 . S
Co98 O108 2.021 . S
Co98 O110 2.137 . S
Co98 O111 2.244 . S
O99 Co98 2.216 . S
O99 C106 1.247 . S
O100 Co98 2.091 . S
O100 C106 1.261 . S
C101 O110 1.247 . S
C101 O111 1.272 . S
O102 Co98 2.004 . S
O102 C107 1.259 . S
Co103 O104 2.061 . S
Co103 O109 2.052 . S
Co103 O111 2.135 1_655 S
O104 Co103 2.061 . S
O104 C107 1.235 1_655 S
C105 O108 1.238 . S
C105 O109 1.241 1_455 S
C106 O99 1.247 . S
C106 O100 1.261 . S
C107 O102 1.259 . S
C107 O104 1.235 1_455 S
O108 Co98 2.021 . S
O108 C105 1.238 . S
O109 Co103 2.052 . S
O109 C105 1.241 1_655 S
O110 Co98 2.137 . S
O110 C101 1.247 . S
O111 Co98 2.244 . S
O111 C101 1.272 . S
O111 Co103 2.135 1_455 S
Co112 O113 2.216 . S
Co112 O114 2.091 . S
Co112 O116 2.004 . S
Co112 O122 2.021 . S
Co112 O124 2.137 . S
Co112 O125 2.244 . S
O113 Co112 2.216 . S
O113 C120 1.247 . S
O114 Co112 2.091 . S
O114 C120 1.261 . S
C115 O124 1.247 . S
C115 O125 1.272 . S
O116 Co112 2.004 . S
O116 C121 1.259 . S
Co117 O118 2.061 . S
Co117 O123 2.052 . S
Co117 O125 2.135 . S
O118 Co117 2.061 . S
O118 C121 1.235 . S
C119 O122 1.238 . S
C119 O123 1.241 . S
C120 O113 1.247 . S
C120 O114 1.261 . S
C121 O116 1.259 . S
C121 O118 1.235 . S
O122 Co112 2.021 . S
O122 C119 1.238 . S
O123 Co117 2.052 . S
O123 C119 1.241 . S
O124 Co112 2.137 . S
O124 C115 1.247 . S
O125 Co112 2.244 . S
O125 C115 1.272 . S
O125 Co117 2.135 . S
Co126 O127 2.216 . S
Co126 O128 2.091 . S
Co126 O130 2.004 . S
Co126 O136 2.021 . S
Co126 O138 2.137 . S
Co126 O139 2.244 . S
O127 Co126 2.216 . S
O127 C134 1.247 . S
O128 Co126 2.091 . S
O128 C134 1.261 . S
C129 O138 1.247 . S
C129 O139 1.272 . S
O130 Co126 2.004 . S
O130 C135 1.259 . S
Co131 O132 2.061 . S
Co131 O137 2.052 . S
Co131 O139 2.135 1_455 S
O132 Co131 2.061 . S
O132 C135 1.235 1_455 S
C133 O136 1.238 . S
C133 O137 1.241 1_655 S
C134 O127 1.247 . S
C134 O128 1.261 . S
C135 O130 1.259 . S
C135 O132 1.235 1_655 S
O136 Co126 2.021 . S
O136 C133 1.238 . S
O137 Co131 2.052 . S
O137 C133 1.241 1_455 S
O138 Co126 2.137 . S
O138 C129 1.247 . S
O139 Co126 2.244 . S
O139 C129 1.272 . S
O139 Co131 2.135 1_655 S
Co140 O141 2.216 . S
Co140 O142 2.091 . S
Co140 O144 2.004 . S
Co140 O150 2.021 . S
Co140 O152 2.137 . S
Co140 O153 2.244 . S
O141 Co140 2.216 . S
O141 C148 1.247 . S
O142 Co140 2.091 . S
O142 C148 1.261 . S
C143 O152 1.247 . S
C143 O153 1.272 . S
O144 Co140 2.004 . S
O144 C149 1.259 . S
Co145 O146 2.061 . S
Co145 O151 2.052 . S
Co145 O153 2.135 1_655 S
O146 Co145 2.061 . S
O146 C149 1.235 1_655 S
C147 O150 1.238 . S
C147 O151 1.241 1_455 S
C148 O141 1.247 . S
C148 O142 1.261 . S
C149 O144 1.259 . S
C149 O146 1.235 1_455 S
O150 Co140 2.021 . S
O150 C147 1.238 . S
O151 Co145 2.052 . S
O151 C147 1.241 1_655 S
O152 Co140 2.137 . S
O152 C143 1.247 . S
O153 Co140 2.244 . S
O153 C143 1.272 . S
O153 Co145 2.135 1_455 S
Co154 O155 2.216 . S
Co154 O156 2.091 . S
Co154 O158 2.004 . S
Co154 O164 2.021 . S
Co154 O166 2.137 . S
Co154 O167 2.244 . S
O155 Co154 2.216 . S
O155 C162 1.247 . S
O156 Co154 2.091 . S
O156 C162 1.261 . S
C157 O166 1.247 . S
C157 O167 1.272 . S
O158 Co154 2.004 . S
O158 C163 1.259 . S
Co159 O160 2.061 . S
Co159 O165 2.052 . S
Co159 O167 2.135 . S
O160 Co159 2.061 . S
O160 C163 1.235 . S
C161 O164 1.238 . S
C161 O165 1.241 . S
C162 O155 1.247 . S
C162 O156 1.261 . S
C163 O158 1.259 . S
C163 O160 1.235 . S
O164 Co154 2.021 . S
O164 C161 1.238 . S
O165 Co159 2.052 . S
O165 C161 1.241 . S
O166 Co154 2.137 . S
O166 C157 1.247 . S
O167 Co154 2.244 . S
O167 C157 1.272 . S
O167 Co159 2.135 . S
Co168 O169 2.216 . S
Co168 O170 2.091 . S
Co168 O172 2.004 . S
Co168 O178 2.021 . S
Co168 O180 2.137 . S
Co168 O181 2.244 . S
O169 Co168 2.216 . S
O169 C176 1.247 . S
O170 Co168 2.091 . S
O170 C176 1.261 . S
C171 O180 1.247 . S
C171 O181 1.272 . S
O172 Co168 2.004 . S
O172 C177 1.259 . S
Co173 O174 2.061 . S
Co173 O179 2.052 . S
Co173 O181 2.135 . S
O174 Co173 2.061 . S
O174 C177 1.235 . S
C175 O178 1.238 . S
C175 O179 1.241 . S
C176 O169 1.247 . S
C176 O170 1.261 . S
C177 O172 1.259 . S
C177 O174 1.235 . S
O178 Co168 2.021 . S
O178 C175 1.238 . S
O179 Co173 2.052 . S
O179 C175 1.241 . S
O180 Co168 2.137 . S
O180 C171 1.247 . S
O181 Co168 2.244 . S
O181 C171 1.272 . S
O181 Co173 2.135 . S
Co182 O183 2.216 . S
Co182 O184 2.091 . S
Co182 O186 2.004 . S
Co182 O192 2.021 . S
Co182 O194 2.137 . S
Co182 O195 2.244 . S
O183 Co182 2.216 . S
O183 C190 1.247 . S
O184 Co182 2.091 . S
O184 C190 1.261 . S
C185 O194 1.247 . S
C185 O195 1.272 . S
O186 Co182 2.004 . S
O186 C191 1.259 . S
Co187 O188 2.061 . S
Co187 O193 2.052 . S
Co187 O195 2.135 1_655 S
O188 Co187 2.061 . S
O188 C191 1.235 1_655 S
C189 O192 1.238 . S
C189 O193 1.241 1_455 S
C190 O183 1.247 . S
C190 O184 1.261 . S
C191 O186 1.259 . S
C191 O188 1.235 1_455 S
O192 Co182 2.021 . S
O192 C189 1.238 . S
O193 Co187 2.052 . S
O193 C189 1.241 1_655 S
O194 Co182 2.137 . S
O194 C185 1.247 . S
O195 Co182 2.244 . S
O195 C185 1.272 . S
O195 Co187 2.135 1_455 S
Co196 O197 2.216 . S
Co196 O198 2.091 . S
Co196 O200 2.004 . S
Co196 O206 2.021 . S
Co196 O208 2.137 . S
Co196 O209 2.244 . S
O197 Co196 2.216 . S
O197 C204 1.247 . S
O198 Co196 2.091 . S
O198 C204 1.261 . S
C199 O208 1.247 . S
C199 O209 1.272 . S
O200 Co196 2.004 . S
O200 C205 1.259 . S
Co201 O202 2.061 . S
Co201 O207 2.052 . S
Co201 O209 2.135 1_455 S
O202 Co201 2.061 . S
O202 C205 1.235 1_455 S
C203 O206 1.238 . S
C203 O207 1.241 1_655 S
C204 O197 1.247 . S
C204 O198 1.261 . S
C205 O200 1.259 . S
C205 O202 1.235 1_655 S
O206 Co196 2.021 . S
O206 C203 1.238 . S
O207 Co201 2.052 . S
O207 C203 1.241 1_455 S
O208 Co196 2.137 . S
O208 C199 1.247 . S
O209 Co196 2.244 . S
O209 C199 1.272 . S
O209 Co201 2.135 1_655 S
Co210 O211 2.216 . S
Co210 O212 2.091 . S
Co210 O214 2.004 . S
Co210 O220 2.021 . S
Co210 O222 2.137 . S
Co210 O223 2.244 . S
O211 Co210 2.216 . S
O211 C218 1.247 . S
O212 Co210 2.091 . S
O212 C218 1.261 . S
C213 O222 1.247 . S
C213 O223 1.272 . S
O214 Co210 2.004 . S
O214 C219 1.259 . S
Co215 O216 2.061 . S
Co215 O221 2.052 . S
Co215 O223 2.135 . S
O216 Co215 2.061 . S
O216 C219 1.235 . S
C217 O220 1.238 . S
C217 O221 1.241 . S
C218 O211 1.247 . S
C218 O212 1.261 . S
C219 O214 1.259 . S
C219 O216 1.235 . S
O220 Co210 2.021 . S
O220 C217 1.238 . S
O221 Co215 2.052 . S
O221 C217 1.241 . S
O222 Co210 2.137 . S
O222 C213 1.247 . S
O223 Co210 2.244 . S
O223 C213 1.272 . S
O223 Co215 2.135 . S
C224 C225 1.369 . S
C224 C226 1.419 . S
C224 H228 0.930 . S
C225 C224 1.369 . S
C225 C234 1.429 1_565 S
C226 C224 1.419 . S
C226 C227 1.363 1_565 S
C226 H229 0.929 . S
C227 C226 1.363 1_545 S
C227 C233 1.428 . S
H228 C224 0.930 . S
H229 C226 0.929 . S
S230 N231 1.613 . S
S230 N232 1.610 . S
N231 S230 1.613 . S
N231 C234 1.350 . S
N232 S230 1.610 . S
N232 C233 1.351 . S
C233 C227 1.428 . S
C233 N232 1.351 . S
C233 C234 1.434 . S
C234 C225 1.429 1_545 S
C234 N231 1.350 . S
C234 C233 1.434 . S
C235 C236 1.369 1_545 S
C235 C237 1.419 . S
C235 H239 0.930 . S
C236 C235 1.369 1_565 S
C236 C245 1.429 . S
C237 C235 1.419 . S
C237 C238 1.363 . S
C237 H240 0.929 . S
C238 C237 1.363 . S
C238 C244 1.428 1_545 S
H239 C235 0.930 . S
H240 C237 0.929 . S
S241 N242 1.613 . S
S241 N243 1.610 . S
N242 S241 1.613 . S
N242 C245 1.350 . S
N243 S241 1.610 . S
N243 C244 1.351 . S
C244 C238 1.428 1_565 S
C244 N243 1.351 . S
C244 C245 1.434 . S
C245 C236 1.429 . S
C245 N242 1.350 . S
C245 C244 1.434 . S
C246 C247 1.369 . S
C246 C248 1.419 . S
C246 H250 0.930 . S
C247 C246 1.369 . S
C247 C256 1.429 1_565 S
C248 C246 1.419 . S
C248 C249 1.363 1_565 S
C248 H251 0.929 . S
C249 C248 1.363 1_545 S
C249 C255 1.428 . S
H250 C246 0.930 . S
H251 C248 0.929 . S
S252 N253 1.613 . S
S252 N254 1.610 . S
N253 S252 1.613 . S
N253 C256 1.350 . S
N254 S252 1.610 . S
N254 C255 1.351 . S
C255 C249 1.428 . S
C255 N254 1.351 . S
C255 C256 1.434 . S
C256 C247 1.429 1_545 S
C256 N253 1.350 . S
C256 C255 1.434 . S
C257 C258 1.369 . S
C257 C259 1.419 . S
C257 H261 0.930 . S
C258 C257 1.369 . S
C258 C267 1.429 1_565 S
C259 C257 1.419 . S
C259 C260 1.363 1_565 S
C259 H262 0.929 . S
C260 C259 1.363 1_545 S
C260 C266 1.428 . S
H261 C257 0.930 . S
H262 C259 0.929 . S
S263 N264 1.613 . S
S263 N265 1.610 . S
N264 S263 1.613 . S
N264 C267 1.350 . S
N265 S263 1.610 . S
N265 C266 1.351 . S
C266 C260 1.428 . S
C266 N265 1.351 . S
C266 C267 1.434 . S
C267 C258 1.429 1_545 S
C267 N264 1.350 . S
C267 C266 1.434 . S
C268 C269 1.369 . S
C268 C270 1.419 . S
C268 H272 0.930 . S
C269 C268 1.369 . S
C269 C278 1.429 . S
C270 C268 1.419 . S
C270 C271 1.363 . S
C270 H273 0.929 . S
C271 C270 1.363 . S
C271 C277 1.428 . S
H272 C268 0.930 . S
H273 C270 0.929 . S
S274 N275 1.613 . S
S274 N276 1.610 . S
N275 S274 1.613 . S
N275 C278 1.350 . S
N276 S274 1.610 . S
N276 C277 1.351 . S
C277 C271 1.428 . S
C277 N276 1.351 . S
C277 C278 1.434 . S
C278 C269 1.429 . S
C278 N275 1.350 . S
C278 C277 1.434 . S
C279 C280 1.369 . S
C279 C281 1.419 . S
C279 H283 0.930 . S
C280 C279 1.369 . S
C280 C289 1.429 . S
C281 C279 1.419 . S
C281 C282 1.363 . S
C281 H284 0.929 . S
C282 C281 1.363 . S
C282 C288 1.428 . S
H283 C279 0.930 . S
H284 C281 0.929 . S
S285 N286 1.613 . S
S285 N287 1.610 . S
N286 S285 1.613 . S
N286 C289 1.350 . S
N287 S285 1.610 . S
N287 C288 1.351 . S
C288 C282 1.428 . S
C288 N287 1.351 . S
C288 C289 1.434 . S
C289 C280 1.429 . S
C289 N286 1.350 . S
C289 C288 1.434 . S
C290 C291 1.369 . S
C290 C292 1.419 . S
C290 H294 0.930 . S
C291 C290 1.369 . S
C291 C300 1.429 . S
C292 C290 1.419 . S
C292 C293 1.363 . S
C292 H295 0.929 . S
C293 C292 1.363 . S
C293 C299 1.428 . S
H294 C290 0.930 . S
H295 C292 0.929 . S
S296 N297 1.613 . S
S296 N298 1.610 . S
N297 S296 1.613 . S
N297 C300 1.350 . S
N298 S296 1.610 . S
N298 C299 1.351 . S
C299 C293 1.428 . S
C299 N298 1.351 . S
C299 C300 1.434 . S
C300 C291 1.429 . S
C300 N297 1.350 . S
C300 C299 1.434 . S
C301 C302 1.369 . S
C301 C303 1.419 . S
C301 H305 0.930 . S
C302 C301 1.369 . S
C302 C311 1.429 . S
C303 C301 1.419 . S
C303 C304 1.363 . S
C303 H306 0.929 . S
C304 C303 1.363 . S
C304 C310 1.428 . S
H305 C301 0.930 . S
H306 C303 0.929 . S
S307 N308 1.613 . S
S307 N309 1.610 . S
N308 S307 1.613 . S
N308 C311 1.350 . S
N309 S307 1.610 . S
N309 C310 1.351 . S
C310 C304 1.428 . S
C310 N309 1.351 . S
C310 C311 1.434 . S
C311 C302 1.429 . S
C311 N308 1.350 . S
C311 C310 1.434 . S
C312 C313 1.369 1_455 S
C312 C314 1.419 . S
C312 H316 0.930 . S
C313 C312 1.369 1_655 S
C313 C322 1.429 . S
C314 C312 1.419 . S
C314 C315 1.363 . S
C314 H317 0.929 . S
C315 C314 1.363 . S
C315 C321 1.428 1_455 S
H316 C312 0.930 . S
H317 C314 0.929 . S
S318 N319 1.613 . S
S318 N320 1.610 . S
N319 S318 1.613 . S
N319 C322 1.350 1_565 S
N320 S318 1.610 . S
N320 C321 1.351 1_565 S
C321 C315 1.428 1_655 S
C321 N320 1.351 1_545 S
C321 C322 1.434 . S
C322 C313 1.429 . S
C322 N319 1.350 1_545 S
C322 C321 1.434 . S
C323 C324 1.369 . S
C323 C325 1.419 . S
C323 H327 0.930 . S
C324 C323 1.369 . S
C324 C333 1.429 . S
C325 C323 1.419 . S
C325 C326 1.363 . S
C325 H328 0.929 . S
C326 C325 1.363 . S
C326 C332 1.428 . S
H327 C323 0.930 . S
H328 C325 0.929 . S
S329 N330 1.613 . S
S329 N331 1.610 . S
N330 S329 1.613 . S
N330 C333 1.350 . S
N331 S329 1.610 . S
N331 C332 1.351 . S
C332 C326 1.428 . S
C332 N331 1.351 . S
C332 C333 1.434 . S
C333 C324 1.429 . S
C333 N330 1.350 . S
C333 C332 1.434 . S
C334 C335 1.369 . S
C334 C336 1.419 . S
C334 H338 0.930 . S
C335 C334 1.369 . S
C335 C344 1.429 1_455 S
C336 C334 1.419 . S
C336 C337 1.363 1_455 S
C336 H339 0.929 . S
C337 C336 1.363 1_655 S
C337 C343 1.428 . S
H338 C334 0.930 . S
H339 C336 0.929 . S
S340 N341 1.613 . S
S340 N342 1.610 . S
N341 S340 1.613 . S
N341 C344 1.350 . S
N342 S340 1.610 . S
N342 C343 1.351 . S
C343 C337 1.428 . S
C343 N342 1.351 . S
C343 C344 1.434 . S
C344 C335 1.429 1_655 S
C344 N341 1.350 . S
C344 C343 1.434 . S
C345 C346 1.369 . S
C345 C347 1.419 . S
C345 H349 0.930 1_545 S
C346 C345 1.369 . S
C346 C355 1.429 . S
C347 C345 1.419 . S
C347 C348 1.363 . S
C347 H350 0.929 1_545 S
C348 C347 1.363 . S
C348 C354 1.428 . S
H349 C345 0.930 1_565 S
H350 C347 0.929 1_565 S
S351 N352 1.613 . S
S351 N353 1.610 . S
N352 S351 1.613 . S
N352 C355 1.350 . S
N353 S351 1.610 . S
N353 C354 1.351 . S
C354 C348 1.428 . S
C354 N353 1.351 . S
C354 C355 1.434 . S
C355 C346 1.429 . S
C355 N352 1.350 . S
C355 C354 1.434 . S
C356 C357 1.369 . S
C356 C358 1.419 . S
C356 H360 0.930 . S
C357 C356 1.369 . S
C357 C366 1.429 . S
C358 C356 1.419 . S
C358 C359 1.363 . S
C358 H361 0.929 . S
C359 C358 1.363 . S
C359 C365 1.428 . S
H360 C356 0.930 . S
H361 C358 0.929 . S
S362 N363 1.613 . S
S362 N364 1.610 . S
N363 S362 1.613 . S
N363 C366 1.350 . S
N364 S362 1.610 . S
N364 C365 1.351 . S
C365 C359 1.428 . S
C365 N364 1.351 . S
C365 C366 1.434 . S
C366 C357 1.429 . S
C366 N363 1.350 . S
C366 C365 1.434 . S
C367 C368 1.369 1_655 S
C367 C369 1.419 . S
C367 H371 0.930 . S
C368 C367 1.369 1_455 S
C368 C377 1.429 . S
C369 C367 1.419 . S
C369 C370 1.363 . S
C369 H372 0.929 . S
C370 C369 1.363 . S
C370 C376 1.428 1_655 S
H371 C367 0.930 . S
H372 C369 0.929 . S
S373 N374 1.613 . S
S373 N375 1.610 . S
N374 S373 1.613 . S
N374 C377 1.350 . S
N375 S373 1.610 . S
N375 C376 1.351 . S
C376 C370 1.428 1_455 S
C376 N375 1.351 . S
C376 C377 1.434 . S
C377 C368 1.429 . S
C377 N374 1.350 . S
C377 C376 1.434 . S
C378 C379 1.369 . S
C378 C380 1.419 . S
C378 H382 0.930 . S
C379 C378 1.369 . S
C379 C388 1.429 . S
C380 C378 1.419 . S
C380 C381 1.363 . S
C380 H383 0.929 . S
C381 C380 1.363 . S
C381 C387 1.428 . S
H382 C378 0.930 . S
H383 C380 0.929 . S
S384 N385 1.613 . S
S384 N386 1.610 . S
N385 S384 1.613 . S
N385 C388 1.350 . S
N386 S384 1.610 . S
N386 C387 1.351 . S
C387 C381 1.428 . S
C387 N386 1.351 . S
C387 C388 1.434 . S
C388 C379 1.429 . S
C388 N385 1.350 . S
C388 C387 1.434 . S
C389 C390 1.369 . S
C389 C391 1.419 . S
C389 H393 0.930 . S
C390 C389 1.369 . S
C390 C399 1.429 1_455 S
C391 C389 1.419 . S
C391 C392 1.363 1_455 S
C391 H394 0.929 . S
C392 C391 1.363 1_655 S
C392 C398 1.428 . S
H393 C389 0.930 . S
H394 C391 0.929 . S
S395 N396 1.613 . S
S395 N397 1.610 . S
N396 S395 1.613 . S
N396 C399 1.350 . S
N397 S395 1.610 . S
N397 C398 1.351 . S
C398 C392 1.428 . S
C398 N397 1.351 . S
C398 C399 1.434 . S
C399 C390 1.429 1_655 S
C399 N396 1.350 . S
C399 C398 1.434 . S
C400 C401 1.369 . S
C400 C402 1.419 . S
C400 H404 0.930 . S
C401 C400 1.369 . S
C401 C410 1.429 1_455 S
C402 C400 1.419 . S
C402 C403 1.363 1_455 S
C402 H405 0.929 . S
C403 C402 1.363 1_655 S
C403 C409 1.428 . S
H404 C400 0.930 . S
H405 C402 0.929 . S
S406 N407 1.613 . S
S406 N408 1.610 . S
N407 S406 1.613 . S
N407 C410 1.350 . S
N408 S406 1.610 . S
N408 C409 1.351 . S
C409 C403 1.428 . S
C409 N408 1.351 . S
C409 C410 1.434 . S
C410 C401 1.429 1_655 S
C410 N407 1.350 . S
C410 C409 1.434 . S
C411 C412 1.369 . S
C411 C413 1.419 . S
C411 H415 0.930 . S
C412 C411 1.369 . S
C412 C421 1.429 . S
C413 C411 1.419 . S
C413 C414 1.363 . S
C413 H416 0.929 . S
C414 C413 1.363 . S
C414 C420 1.428 . S
H415 C411 0.930 . S
H416 C413 0.929 . S
S417 N418 1.613 . S
S417 N419 1.610 . S
N418 S417 1.613 . S
N418 C421 1.350 . S
N419 S417 1.610 . S
N419 C420 1.351 . S
C420 C414 1.428 . S
C420 N419 1.351 . S
C420 C421 1.434 . S
C421 C412 1.429 . S
C421 N418 1.350 . S
C421 C420 1.434 . S
C422 C423 1.369 . S
C422 C424 1.419 . S
C422 H426 0.930 . S
C423 C422 1.369 . S
C423 C432 1.429 . S
C424 C422 1.419 . S
C424 C425 1.363 . S
C424 H427 0.929 . S
C425 C424 1.363 . S
C425 C431 1.428 . S
H426 C422 0.930 . S
H427 C424 0.929 . S
S428 N429 1.613 . S
S428 N430 1.610 . S
N429 S428 1.613 . S
N429 C432 1.350 . S
N430 S428 1.610 . S
N430 C431 1.351 . S
C431 C425 1.428 . S
C431 N430 1.351 . S
C431 C432 1.434 . S
C432 C423 1.429 . S
C432 N429 1.350 . S
C432 C431 1.434 . S
C433 C434 1.369 1_655 S
C433 C435 1.419 . S
C433 H437 0.930 . S
C434 C433 1.369 1_455 S
C434 C443 1.429 . S
C435 C433 1.419 . S
C435 C436 1.363 . S
C435 H438 0.929 . S
C436 C435 1.363 . S
C436 C442 1.428 1_655 S
H437 C433 0.930 . S
H438 C435 0.929 . S
S439 N440 1.613 . S
S439 N441 1.610 . S
N440 S439 1.613 . S
N440 C443 1.350 . S
N441 S439 1.610 . S
N441 C442 1.351 . S
C442 C436 1.428 1_455 S
C442 N441 1.351 . S
C442 C443 1.434 . S
C443 C434 1.429 . S
C443 N440 1.350 . S
C443 C442 1.434 . S
C444 C445 1.369 . S
C444 C446 1.419 . S
C444 H448 0.930 . S
C445 C444 1.369 . S
C445 C454 1.429 1_455 S
C446 C444 1.419 . S
C446 C447 1.363 1_455 S
C446 H449 0.929 . S
C447 C446 1.363 1_655 S
C447 C453 1.428 . S
H448 C444 0.930 . S
H449 C446 0.929 . S
S450 N451 1.613 . S
S450 N452 1.610 . S
N451 S450 1.613 . S
N451 C454 1.350 . S
N452 S450 1.610 . S
N452 C453 1.351 . S
C453 C447 1.428 . S
C453 N452 1.351 . S
C453 C454 1.434 . S
C454 C445 1.429 1_655 S
C454 N451 1.350 . S
C454 C453 1.434 . S
C455 C456 1.369 . S
C455 C457 1.419 . S
C455 H459 0.930 . S
C456 C455 1.369 . S
C456 C465 1.429 . S
C457 C455 1.419 . S
C457 C458 1.363 . S
C457 H460 0.929 . S
C458 C457 1.363 . S
C458 C464 1.428 . S
H459 C455 0.930 . S
H460 C457 0.929 . S
S461 N462 1.613 . S
S461 N463 1.610 . S
N462 S461 1.613 . S
N462 C465 1.350 . S
N463 S461 1.610 . S
N463 C464 1.351 . S
C464 C458 1.428 . S
C464 N463 1.351 . S
C464 C465 1.434 . S
C465 C456 1.429 . S
C465 N462 1.350 . S
C465 C464 1.434 . S
C466 C467 1.369 . S
C466 C468 1.419 . S
C466 H470 0.930 . S
C467 C466 1.369 . S
C467 C476 1.429 . S
C468 C466 1.419 . S
C468 C469 1.363 . S
C468 H471 0.929 . S
C469 C468 1.363 . S
C469 C475 1.428 . S
H470 C466 0.930 . S
H471 C468 0.929 . S
S472 N473 1.613 . S
S472 N474 1.610 . S
N473 S472 1.613 . S
N473 C476 1.350 . S
N474 S472 1.610 . S
N474 C475 1.351 . S
C475 C469 1.428 . S
C475 N474 1.351 . S
C475 C476 1.434 . S
C476 C467 1.429 . S
C476 N473 1.350 . S
C476 C475 1.434 . S
C477 C478 1.369 1_655 S
C477 C479 1.419 . S
C477 H481 0.930 . S
C478 C477 1.369 1_455 S
C478 C487 1.429 . S
C479 C477 1.419 . S
C479 C480 1.363 . S
C479 H482 0.929 . S
C480 C479 1.363 . S
C480 C486 1.428 1_655 S
H481 C477 0.930 . S
H482 C479 0.929 . S
S483 N484 1.613 . S
S483 N485 1.610 . S
N484 S483 1.613 . S
N484 C487 1.350 . S
N485 S483 1.610 . S
N485 C486 1.351 . S
C486 C480 1.428 1_455 S
C486 N485 1.351 . S
C486 C487 1.434 . S
C487 C478 1.429 . S
C487 N484 1.350 . S
C487 C486 1.434 . S
C488 C489 1.369 1_545 S
C488 C490 1.419 1_556 S
C488 H492 0.930 . S
C489 C488 1.369 1_565 S
C489 C498 1.429 1_655 S
C490 C488 1.419 1_554 S
C490 C491 1.363 1_655 S
C490 H493 0.929 . S
C491 C490 1.363 1_455 S
C491 C497 1.428 1_545 S
H492 C488 0.930 . S
H493 C490 0.929 . S
S494 N495 1.613 1_554 S
S494 N496 1.610 . S
N495 S494 1.613 1_556 S
N495 C498 1.350 . S
N496 S494 1.610 . S
N496 C497 1.351 . S
C497 C491 1.428 1_565 S
C497 N496 1.351 . S
C497 C498 1.434 1_554 S
C498 C489 1.429 1_455 S
C498 N495 1.350 . S
C498 C497 1.434 1_556 S
C499 C500 1.369 1_565 S
C499 C501 1.419 1_556 S
C499 H503 0.930 . S
C500 C499 1.369 1_545 S
C500 C509 1.429 . S
C501 C499 1.419 1_554 S
C501 C502 1.363 . S
C501 H504 0.929 . S
C502 C501 1.363 . S
C502 C508 1.428 1_565 S
H503 C499 0.930 . S
H504 C501 0.929 . S
S505 N506 1.613 1_554 S
S505 N507 1.610 . S
N506 S505 1.613 1_556 S
N506 C509 1.350 . S
N507 S505 1.610 . S
N507 C508 1.351 . S
C508 C502 1.428 1_545 S
C508 N507 1.351 . S
C508 C509 1.434 1_554 S
C509 C500 1.429 . S
C509 N506 1.350 . S
C509 C508 1.434 1_556 S
C510 C511 1.369 1_565 S
C510 C512 1.419 . S
C510 H514 0.930 . S
C511 C510 1.369 1_545 S
C511 C520 1.429 . S
C512 C510 1.419 . S
C512 C513 1.363 . S
C512 H515 0.929 . S
C513 C512 1.363 . S
C513 C519 1.428 1_565 S
H514 C510 0.930 . S
H515 C512 0.929 . S
S516 N517 1.613 . S
S516 N518 1.610 . S
N517 S516 1.613 . S
N517 C520 1.350 . S
N518 S516 1.610 . S
N518 C519 1.351 . S
C519 C513 1.428 1_545 S
C519 N518 1.351 . S
C519 C520 1.434 . S
C520 C511 1.429 . S
C520 N517 1.350 . S
C520 C519 1.434 . S
C521 C522 1.364 1_645 S
C521 C523 1.424 . S
C521 H525 0.931 . S
C522 C521 1.364 1_465 S
C522 C531 1.429 . S
C523 C521 1.424 . S
C523 C524 1.363 . S
C523 H526 0.929 . S
C524 C523 1.363 . S
C524 C530 1.423 1_645 S
H525 C521 0.931 . S
H526 C523 0.929 . S
S527 N528 1.613 . S
S527 N529 1.610 . S
N528 S527 1.613 . S
N528 C531 1.350 . S
N529 S527 1.610 . S
N529 C530 1.352 . S
C530 C524 1.423 1_465 S
C530 N529 1.352 . S
C530 C531 1.439 . S
C531 C522 1.429 . S
C531 N528 1.350 . S
C531 C530 1.439 . S
C532 C533 1.369 . S
C532 C534 1.419 1_554 S
C532 H536 0.930 . S
C533 C532 1.369 . S
C533 C542 1.429 . S
C534 C532 1.419 1_556 S
C534 C535 1.363 . S
C534 H537 0.929 . S
C535 C534 1.363 . S
C535 C541 1.428 . S
H536 C532 0.930 . S
H537 C534 0.929 . S
S538 N539 1.613 . S
S538 N540 1.610 1_554 S
N539 S538 1.613 . S
N539 C542 1.350 . S
N540 S538 1.610 1_556 S
N540 C541 1.351 . S
C541 C535 1.428 . S
C541 N540 1.351 . S
C541 C542 1.434 1_556 S
C542 C533 1.429 . S
C542 N539 1.350 . S
C542 C541 1.434 1_554 S
C543 C544 1.369 . S
C543 C545 1.419 1_554 S
C543 H547 0.930 . S
C544 C543 1.369 . S
C544 C553 1.429 1_655 S
C545 C543 1.419 1_556 S
C545 C546 1.363 1_655 S
C545 H548 0.929 . S
C546 C545 1.363 1_455 S
C546 C552 1.428 . S
H547 C543 0.930 . S
H548 C545 0.929 . S
S549 N550 1.613 . S
S549 N551 1.610 1_554 S
N550 S549 1.613 . S
N550 C553 1.350 . S
N551 S549 1.610 1_556 S
N551 C552 1.351 . S
C552 C546 1.428 . S
C552 N551 1.351 . S
C552 C553 1.434 1_556 S
C553 C544 1.429 1_455 S
C553 N550 1.350 . S
C553 C552 1.434 1_554 S
C554 C555 1.369 1_455 S
C554 C556 1.419 . S
C554 H558 0.930 . S
C555 C554 1.369 1_655 S
C555 C564 1.429 . S
C556 C554 1.419 . S
C556 C557 1.363 . S
C556 H559 0.929 . S
C557 C556 1.363 . S
C557 C563 1.428 1_455 S
H558 C554 0.930 . S
H559 C556 0.929 . S
S560 N561 1.613 . S
S560 N562 1.610 . S
N561 S560 1.613 . S
N561 C564 1.350 . S
N562 S560 1.610 . S
N562 C563 1.351 . S
C563 C557 1.428 1_655 S
C563 N562 1.351 . S
C563 C564 1.434 . S
C564 C555 1.429 . S
C564 N561 1.350 . S
C564 C563 1.434 . S
C565 C566 1.369 . S
C565 C567 1.419 . S
C565 H569 0.930 . S
C566 C565 1.369 . S
C566 C575 1.429 . S
C567 C565 1.419 . S
C567 C568 1.363 . S
C567 H570 0.929 . S
C568 C567 1.363 . S
C568 C574 1.428 . S
H569 C565 0.930 . S
H570 C567 0.929 . S
S571 N572 1.613 . S
S571 N573 1.610 . S
N572 S571 1.613 . S
N572 C575 1.350 . S
N573 S571 1.610 . S
N573 C574 1.351 . S
C574 C568 1.428 . S
C574 N573 1.351 . S
C574 C575 1.434 . S
C575 C566 1.429 . S
C575 N572 1.350 . S
C575 C574 1.434 . S
C225 C22 1.509 . S
C227 C8 1.505 . S
C236 C36 1.507 . S
C238 C50 1.507 . S
C247 C64 1.509 . S
C249 C78 1.506 . S
C258 C106 1.507 . S
C260 C92 1.507 . S
C269 C134 1.508 . S
C271 C120 1.507 . S
C280 C162 1.507 . S
C282 C148 1.508 . S
C291 C190 1.509 . S
C293 C176 1.506 . S
C302 C218 1.505 . S
C304 C204 1.508 . S
C313 C45 1.440 . S
C315 C3 1.440 . S
C324 C17 1.437 . S
C326 C31 1.439 . S
C335 C101 1.441 . S
C337 C59 1.439 . S
C346 C87 1.437 . S
C348 C73 1.438 . S
C357 C115 1.441 . S
C359 C157 1.440 . S
C368 C143 1.441 . S
C370 C129 1.440 . S
C379 C213 1.440 . S
C381 C171 1.439 . S
C390 C185 1.441 . S
C392 C199 1.440 . S
C401 C9 1.499 . S
C403 C135 1.500 . S
C412 C23 1.501 . S
C414 C121 1.498 . S
C423 C163 1.496 . S
C425 C37 1.499 . S
C434 C149 1.497 . S
C436 C51 1.497 . S
C445 C191 1.496 . S
C447 C65 1.498 . S
C456 C177 1.496 . S
C458 C79 1.500 . S
C467 C93 1.497 . S
C469 C219 1.497 . S
C478 C107 1.500 . S
C480 C205 1.500 . S
C489 C63 1.385 . S
C491 C7 1.387 . S
C500 C77 1.389 . S
C502 C21 1.385 . S
C511 C91 1.385 . S
C513 C35 1.388 . S
C522 C105 1.389 . S
C524 C49 1.384 . S
C533 C119 1.386 . S
C535 C175 1.387 . S
C544 C133 1.385 . S
C546 C189 1.388 . S
C555 C203 1.388 . S
C557 C147 1.385 . S
C566 C217 1.384 . S
C568 C161 1.388 . S
