# Generated by pormake.
# Topology tes, (8)-cn, num edge types: 1
# Building blocks:
#     Node 0, Type 0, BuildingBlock: TAGTUT_clean_sbu_3, # of connection points: 8
#     Node 1, Type 0, BuildingBlock: TAGTUT_clean_sbu_3, # of connection points: 8
#     Node 2, Type 0, BuildingBlock: TAGTUT_clean_sbu_3, # of connection points: 8
#     Node 3, Type 0, BuildingBlock: TAGTUT_clean_sbu_3, # of connection points: 8
#     Node 4, Type 0, BuildingBlock: TAGTUT_clean_sbu_3, # of connection points: 8
#     Node 5, Type 0, BuildingBlock: TAGTUT_clean_sbu_3, # of connection points: 8
#     Node 6, Type 0, BuildingBlock: TAGTUT_clean_sbu_3, # of connection points: 8
#     Node 7, Type 0, BuildingBlock: TAGTUT_clean_sbu_3, # of connection points: 8
#     Node 8, Type 0, BuildingBlock: TAGTUT_clean_sbu_3, # of connection points: 8
#     Node 9, Type 0, BuildingBlock: TAGTUT_clean_sbu_3, # of connection points: 8
#     Node 10, Type 0, BuildingBlock: TAGTUT_clean_sbu_3, # of connection points: 8
#     Node 11, Type 0, BuildingBlock: TAGTUT_clean_sbu_3, # of connection points: 8
#     Node 12, Type 0, BuildingBlock: TAGTUT_clean_sbu_3, # of connection points: 8
#     Node 13, Type 0, BuildingBlock: TAGTUT_clean_sbu_3, # of connection points: 8
#     Node 14, Type 0, BuildingBlock: TAGTUT_clean_sbu_3, # of connection points: 8
#     Node 15, Type 0, BuildingBlock: TAGTUT_clean_sbu_3, # of connection points: 8
#     Node 16, Type 0, BuildingBlock: TAGTUT_clean_sbu_3, # of connection points: 8
#     Node 17, Type 0, BuildingBlock: TAGTUT_clean_sbu_3, # of connection points: 8
#     Node 18, Type 0, BuildingBlock: TAGTUT_clean_sbu_3, # of connection points: 8
#     Node 19, Type 0, BuildingBlock: TAGTUT_clean_sbu_3, # of connection points: 8
#     Node 20, Type 0, BuildingBlock: TAGTUT_clean_sbu_3, # of connection points: 8
#     Node 21, Type 0, BuildingBlock: TAGTUT_clean_sbu_3, # of connection points: 8
#     Node 22, Type 0, BuildingBlock: TAGTUT_clean_sbu_3, # of connection points: 8
#     Node 23, Type 0, BuildingBlock: TAGTUT_clean_sbu_3, # of connection points: 8
#     Edge 24, Type (0, 0), BuildingBlock: AJUNOK_clean_linker_0, # of connection points: 2
#     Edge 25, Type (0, 0), BuildingBlock: AJUNOK_clean_linker_0, # of connection points: 2
#     Edge 26, Type (0, 0), BuildingBlock: AJUNOK_clean_linker_0, # of connection points: 2
#     Edge 27, Type (0, 0), BuildingBlock: AJUNOK_clean_linker_0, # of connection points: 2
#     Edge 28, Type (0, 0), BuildingBlock: AJUNOK_clean_linker_0, # of connection points: 2
#     Edge 29, Type (0, 0), BuildingBlock: AJUNOK_clean_linker_0, # of connection points: 2
#     Edge 30, Type (0, 0), BuildingBlock: AJUNOK_clean_linker_0, # of connection points: 2
#     Edge 31, Type (0, 0), BuildingBlock: AJUNOK_clean_linker_0, # of connection points: 2
#     Edge 32, Type (0, 0), BuildingBlock: AJUNOK_clean_linker_0, # of connection points: 2
#     Edge 33, Type (0, 0), BuildingBlock: AJUNOK_clean_linker_0, # of connection points: 2
#     Edge 34, Type (0, 0), BuildingBlock: AJUNOK_clean_linker_0, # of connection points: 2
#     Edge 35, Type (0, 0), BuildingBlock: AJUNOK_clean_linker_0, # of connection points: 2
#     Edge 36, Type (0, 0), BuildingBlock: AJUNOK_clean_linker_0, # of connection points: 2
#     Edge 37, Type (0, 0), BuildingBlock: AJUNOK_clean_linker_0, # of connection points: 2
#     Edge 38, Type (0, 0), BuildingBlock: AJUNOK_clean_linker_0, # of connection points: 2
#     Edge 39, Type (0, 0), BuildingBlock: AJUNOK_clean_linker_0, # of connection points: 2
#     Edge 40, Type (0, 0), BuildingBlock: AJUNOK_clean_linker_0, # of connection points: 2
#     Edge 41, Type (0, 0), BuildingBlock: AJUNOK_clean_linker_0, # of connection points: 2
#     Edge 42, Type (0, 0), BuildingBlock: AJUNOK_clean_linker_0, # of connection points: 2
#     Edge 43, Type (0, 0), BuildingBlock: AJUNOK_clean_linker_0, # of connection points: 2
#     Edge 44, Type (0, 0), BuildingBlock: AJUNOK_clean_linker_0, # of connection points: 2
#     Edge 45, Type (0, 0), BuildingBlock: AJUNOK_clean_linker_0, # of connection points: 2
#     Edge 46, Type (0, 0), BuildingBlock: AJUNOK_clean_linker_0, # of connection points: 2
#     Edge 47, Type (0, 0), BuildingBlock: AJUNOK_clean_linker_0, # of connection points: 2
#     Edge 48, Type (0, 0), BuildingBlock: AJUNOK_clean_linker_0, # of connection points: 2
#     Edge 49, Type (0, 0), BuildingBlock: AJUNOK_clean_linker_0, # of connection points: 2
#     Edge 50, Type (0, 0), BuildingBlock: AJUNOK_clean_linker_0, # of connection points: 2
#     Edge 51, Type (0, 0), BuildingBlock: AJUNOK_clean_linker_0, # of connection points: 2
#     Edge 52, Type (0, 0), BuildingBlock: AJUNOK_clean_linker_0, # of connection points: 2
#     Edge 53, Type (0, 0), BuildingBlock: AJUNOK_clean_linker_0, # of connection points: 2
#     Edge 54, Type (0, 0), BuildingBlock: AJUNOK_clean_linker_0, # of connection points: 2
#     Edge 55, Type (0, 0), BuildingBlock: AJUNOK_clean_linker_0, # of connection points: 2
#     Edge 56, Type (0, 0), BuildingBlock: AJUNOK_clean_linker_0, # of connection points: 2
#     Edge 57, Type (0, 0), BuildingBlock: AJUNOK_clean_linker_0, # of connection points: 2
#     Edge 58, Type (0, 0), BuildingBlock: AJUNOK_clean_linker_0, # of connection points: 2
#     Edge 59, Type (0, 0), BuildingBlock: AJUNOK_clean_linker_0, # of connection points: 2
#     Edge 60, Type (0, 0), BuildingBlock: AJUNOK_clean_linker_0, # of connection points: 2
#     Edge 61, Type (0, 0), BuildingBlock: AJUNOK_clean_linker_0, # of connection points: 2
#     Edge 62, Type (0, 0), BuildingBlock: AJUNOK_clean_linker_0, # of connection points: 2
#     Edge 63, Type (0, 0), BuildingBlock: AJUNOK_clean_linker_0, # of connection points: 2
#     Edge 64, Type (0, 0), BuildingBlock: AJUNOK_clean_linker_0, # of connection points: 2
#     Edge 65, Type (0, 0), BuildingBlock: AJUNOK_clean_linker_0, # of connection points: 2
#     Edge 66, Type (0, 0), BuildingBlock: AJUNOK_clean_linker_0, # of connection points: 2
#     Edge 67, Type (0, 0), BuildingBlock: AJUNOK_clean_linker_0, # of connection points: 2
#     Edge 68, Type (0, 0), BuildingBlock: AJUNOK_clean_linker_0, # of connection points: 2
#     Edge 69, Type (0, 0), BuildingBlock: AJUNOK_clean_linker_0, # of connection points: 2
#     Edge 70, Type (0, 0), BuildingBlock: AJUNOK_clean_linker_0, # of connection points: 2
#     Edge 71, Type (0, 0), BuildingBlock: AJUNOK_clean_linker_0, # of connection points: 2
#     Edge 72, Type (0, 0), BuildingBlock: AJUNOK_clean_linker_0, # of connection points: 2
#     Edge 73, Type (0, 0), BuildingBlock: AJUNOK_clean_linker_0, # of connection points: 2
#     Edge 74, Type (0, 0), BuildingBlock: AJUNOK_clean_linker_0, # of connection points: 2
#     Edge 75, Type (0, 0), BuildingBlock: AJUNOK_clean_linker_0, # of connection points: 2
#     Edge 76, Type (0, 0), BuildingBlock: AJUNOK_clean_linker_0, # of connection points: 2
#     Edge 77, Type (0, 0), BuildingBlock: AJUNOK_clean_linker_0, # of connection points: 2
#     Edge 78, Type (0, 0), BuildingBlock: AJUNOK_clean_linker_0, # of connection points: 2
#     Edge 79, Type (0, 0), BuildingBlock: AJUNOK_clean_linker_0, # of connection points: 2
#     Edge 80, Type (0, 0), BuildingBlock: AJUNOK_clean_linker_0, # of connection points: 2
#     Edge 81, Type (0, 0), BuildingBlock: AJUNOK_clean_linker_0, # of connection points: 2
#     Edge 82, Type (0, 0), BuildingBlock: AJUNOK_clean_linker_0, # of connection points: 2
#     Edge 83, Type (0, 0), BuildingBlock: AJUNOK_clean_linker_0, # of connection points: 2
#     Edge 84, Type (0, 0), BuildingBlock: AJUNOK_clean_linker_0, # of connection points: 2
#     Edge 85, Type (0, 0), BuildingBlock: AJUNOK_clean_linker_0, # of connection points: 2
#     Edge 86, Type (0, 0), BuildingBlock: AJUNOK_clean_linker_0, # of connection points: 2
#     Edge 87, Type (0, 0), BuildingBlock: AJUNOK_clean_linker_0, # of connection points: 2
#     Edge 88, Type (0, 0), BuildingBlock: AJUNOK_clean_linker_0, # of connection points: 2
#     Edge 89, Type (0, 0), BuildingBlock: AJUNOK_clean_linker_0, # of connection points: 2
#     Edge 90, Type (0, 0), BuildingBlock: AJUNOK_clean_linker_0, # of connection points: 2
#     Edge 91, Type (0, 0), BuildingBlock: AJUNOK_clean_linker_0, # of connection points: 2
#     Edge 92, Type (0, 0), BuildingBlock: AJUNOK_clean_linker_0, # of connection points: 2
#     Edge 93, Type (0, 0), BuildingBlock: AJUNOK_clean_linker_0, # of connection points: 2
#     Edge 94, Type (0, 0), BuildingBlock: AJUNOK_clean_linker_0, # of connection points: 2
#     Edge 95, Type (0, 0), BuildingBlock: AJUNOK_clean_linker_0, # of connection points: 2
#     Edge 96, Type (0, 0), BuildingBlock: AJUNOK_clean_linker_0, # of connection points: 2
#     Edge 97, Type (0, 0), BuildingBlock: AJUNOK_clean_linker_0, # of connection points: 2
#     Edge 98, Type (0, 0), BuildingBlock: AJUNOK_clean_linker_0, # of connection points: 2
#     Edge 99, Type (0, 0), BuildingBlock: AJUNOK_clean_linker_0, # of connection points: 2
#     Edge 100, Type (0, 0), BuildingBlock: AJUNOK_clean_linker_0, # of connection points: 2
#     Edge 101, Type (0, 0), BuildingBlock: AJUNOK_clean_linker_0, # of connection points: 2
#     Edge 102, Type (0, 0), BuildingBlock: AJUNOK_clean_linker_0, # of connection points: 2
#     Edge 103, Type (0, 0), BuildingBlock: AJUNOK_clean_linker_0, # of connection points: 2
#     Edge 104, Type (0, 0), BuildingBlock: AJUNOK_clean_linker_0, # of connection points: 2
#     Edge 105, Type (0, 0), BuildingBlock: AJUNOK_clean_linker_0, # of connection points: 2
#     Edge 106, Type (0, 0), BuildingBlock: AJUNOK_clean_linker_0, # of connection points: 2
#     Edge 107, Type (0, 0), BuildingBlock: AJUNOK_clean_linker_0, # of connection points: 2
#     Edge 108, Type (0, 0), BuildingBlock: AJUNOK_clean_linker_0, # of connection points: 2
#     Edge 109, Type (0, 0), BuildingBlock: AJUNOK_clean_linker_0, # of connection points: 2
#     Edge 110, Type (0, 0), BuildingBlock: AJUNOK_clean_linker_0, # of connection points: 2
#     Edge 111, Type (0, 0), BuildingBlock: AJUNOK_clean_linker_0, # of connection points: 2
#     Edge 112, Type (0, 0), BuildingBlock: AJUNOK_clean_linker_0, # of connection points: 2
#     Edge 113, Type (0, 0), BuildingBlock: AJUNOK_clean_linker_0, # of connection points: 2
#     Edge 114, Type (0, 0), BuildingBlock: AJUNOK_clean_linker_0, # of connection points: 2
#     Edge 115, Type (0, 0), BuildingBlock: AJUNOK_clean_linker_0, # of connection points: 2
#     Edge 116, Type (0, 0), BuildingBlock: AJUNOK_clean_linker_0, # of connection points: 2
#     Edge 117, Type (0, 0), BuildingBlock: AJUNOK_clean_linker_0, # of connection points: 2
#     Edge 118, Type (0, 0), BuildingBlock: AJUNOK_clean_linker_0, # of connection points: 2
#     Edge 119, Type (0, 0), BuildingBlock: AJUNOK_clean_linker_0, # of connection points: 2
# Relax obj value: 0.304
# Max RMSD: 0.242
# Mean RMSD: 0.242
data_MOF--net-tes--node1-TAGTUT_clean_sbu_3--edge1-AJUNOK_clean_linker_0
_symmetry_space_group_name_H-M    P1
_symmetry_Int_Tables_number       1
_symmetry_cell_setting            triclinic
loop_
_symmetry_equiv_pos_as_xyz
'x, y, z'
_cell_length_a     34.843808
_cell_length_b     34.910268
_cell_length_c     34.843162
_cell_angle_alpha  90.204739
_cell_angle_beta   90.059546
_cell_angle_gamma 89.709025
loop_
_atom_site_label
_atom_site_type_symbol
_atom_site_fract_x
_atom_site_fract_y
_atom_site_fract_z
_atom_type_partial_charge
C0 C 0.15839 0.32896 0.4666 0.0
C1 C 0.17916 0.26678 0.3441 0.0
C2 C 0.20799 0.36926 0.29662 0.0
Mg3 Mg 0.13378 0.42145 0.47359 0.0
Mg4 Mg 0.05533 0.43476 0.39312 0.0
O5 O 0.11007 0.42902 0.4156 0.0
Mg6 Mg 0.13239 0.3847 0.39136 0.0
O7 O 0.15424 0.34042 0.36826 0.0
Mg8 Mg 0.20808 0.3495 0.38636 0.0
Mg9 Mg 0.13925 0.33594 0.31576 0.0
C10 C 0.09572 0.43717 0.31822 0.0
O11 O 0.0768 0.3444 0.38212 0.0
O12 O 0.10429 0.45909 0.42585 0.0
O13 O 0.07822 0.33341 0.31971 0.0
O14 O 0.07151 0.4082 0.49314 0.0
O15 O 0.05954 0.49713 0.40498 0.0
O16 O 0.06346 0.38932 0.43439 0.0
O17 O 0.1943 0.41514 0.39508 0.0
O18 O 0.19572 0.44315 0.45125 0.0
C19 C 0.21017 0.4395 0.41768 0.0
C20 C 0.09107 0.49383 0.42298 0.0
O21 O 0.12539 0.42209 0.33402 0.0
O22 O 0.19963 0.28775 0.36676 0.0
O23 O 0.06282 0.43003 0.33218 0.0
O24 O 0.22817 0.36993 0.32699 0.0
O25 O 0.15925 0.27969 0.31627 0.0
O26 O 0.17408 0.3818 0.29819 0.0
O27 O 0.13596 0.35554 0.4535 0.0
O28 O 0.18983 0.32388 0.44824 0.0
C29 C 0.04899 0.39817 0.46596 0.0
C30 C 0.06458 0.32578 0.35271 0.0
C31 C 0.84311 0.96965 0.6509 0.0
C32 C 0.78044 0.85566 0.69829 0.0
C33 C 0.87038 0.8182 0.73059 0.0
Mg34 Mg 0.93063 0.93959 0.61241 0.0
Mg35 Mg 0.94695 0.85343 0.57045 0.0
O36 O 0.93306 0.88425 0.61284 0.0
Mg37 Mg 0.88529 0.87808 0.63733 0.0
O38 O 0.83861 0.8715 0.66696 0.0
Mg39 Mg 0.8578 0.9039 0.72003 0.0
Mg40 Mg 0.82781 0.81384 0.66007 0.0
C41 C 0.93573 0.78975 0.62063 0.0
O42 O 0.84557 0.86488 0.58109 0.0
O43 O 0.99126 0.92845 0.5915 0.0
O44 O 0.81503 0.81248 0.59952 0.0
O45 O 0.90769 0.93118 0.54984 0.0
O46 O 1.00345 0.87225 0.56163 0.0
O47 O 0.90795 0.86923 0.53138 0.0
O48 O 0.91826 0.89044 0.69503 0.0
O49 O 0.95848 0.93493 0.6777 0.0
C50 C 0.94908 0.90921 0.70247 0.0
C51 C 0.01399 0.90445 0.57499 0.0
O52 O 0.91692 0.81395 0.64165 0.0
O53 O 0.81283 0.86941 0.68693 0.0
O54 O 0.94091 0.79633 0.5854 0.0
O55 O 0.86662 0.84662 0.75333 0.0
O56 O 0.77167 0.82233 0.68659 0.0
O57 O 0.87703 0.82538 0.69614 0.0
O58 O 0.86248 0.94576 0.62889 0.0
O59 O 0.84141 0.96129 0.68662 0.0
C60 C 0.89862 0.90376 0.5266 0.0
C61 C 0.81973 0.83913 0.57518 0.0
C62 C 0.31474 0.58474 0.91213 0.0
C63 C 0.43277 0.52752 0.94385 0.0
C64 C 0.46796 0.62885 0.9652 0.0
Mg65 Mg 0.32647 0.67338 0.87461 0.0
Mg66 Mg 0.40223 0.69685 0.81896 0.0
O67 O 0.38102 0.68151 0.86656 0.0
Mg68 Mg 0.39676 0.63532 0.88942 0.0
O69 O 0.41311 0.58762 0.91626 0.0
Mg70 Mg 0.3863 0.60381 0.97292 0.0
Mg71 Mg 0.4684 0.57449 0.89908 0.0
C72 C 0.47457 0.69328 0.85906 0.0
O73 O 0.40282 0.59935 0.83138 0.0
O74 O 0.3305 0.7356 0.85717 0.0
O75 O 0.45411 0.56219 0.84077 0.0
O76 O 0.32573 0.64937 0.8122 0.0
O77 O 0.38166 0.75303 0.82163 0.0
O78 O 0.3806 0.65848 0.78 0.0
O79 O 0.38784 0.66595 0.94902 0.0
O80 O 0.33524 0.69912 0.9393 0.0
C81 C 0.36486 0.69267 0.96042 0.0
C82 C 0.35266 0.76096 0.8423 0.0
O83 O 0.45686 0.67352 0.88475 0.0
O84 O 0.41877 0.56073 0.93601 0.0
O85 O 0.46164 0.69552 0.8252 0.0
O86 O 0.44703 0.62185 0.99437 0.0
O87 O 0.46312 0.51769 0.92625 0.0
O88 O 0.45348 0.62443 0.93276 0.0
O89 O 0.33348 0.60722 0.88941 0.0
O90 O 0.32685 0.58156 0.94676 0.0
C91 C 0.34814 0.64278 0.78352 0.0
C92 C 0.42468 0.57134 0.82122 0.0
C93 C 0.68884 0.04914 0.16143 0.0
C94 C 0.75278 0.16601 0.195 0.0
C95 C 0.63701 0.22619 0.17531 0.0
Mg96 Mg 0.59892 0.04213 0.13649 0.0
Mg97 Mg 0.585 0.11866 0.05371 0.0
O98 O 0.59034 0.09935 0.10927 0.0
Mg99 Mg 0.63572 0.1228 0.12878 0.0
O100 O 0.68113 0.14366 0.14965 0.0
Mg101 Mg 0.66521 0.13605 0.20299 0.0
Mg102 Mg 0.69994 0.19059 0.13188 0.0
C103 C 0.58174 0.1962 0.09163 0.0
O104 O 0.67751 0.12677 0.07154 0.0
O105 O 0.56141 0.08581 0.10293 0.0
O106 O 0.70415 0.18449 0.07226 0.0
O107 O 0.61145 0.01847 0.07591 0.0
O108 O 0.52404 0.10291 0.05573 0.0
O109 O 0.63009 0.07615 0.06274 0.0
O110 O 0.60204 0.12258 0.18921 0.0
O111 O 0.57565 0.06663 0.19685 0.0
C112 C 0.57924 0.10107 0.20868 0.0
C113 C 0.52782 0.08474 0.08701 0.0
O114 O 0.60006 0.18123 0.11991 0.0
O115 O 0.72416 0.15541 0.21493 0.0
O116 O 0.58298 0.18012 0.05892 0.0
O117 O 0.6399 0.19864 0.19993 0.0
O118 O 0.75026 0.18495 0.16388 0.0
O119 O 0.65841 0.22839 0.1462 0.0
O120 O 0.66333 0.06131 0.13748 0.0
O121 O 0.69325 0.07 0.19199 0.0
C122 C 0.61822 0.04434 0.05108 0.0
C123 C 0.70087 0.15157 0.05722 0.0
C124 C 0.2086 0.56307 0.10674 0.0
C125 C 0.07263 0.50278 0.0763 0.0
C126 C 0.03493 0.61725 0.06912 0.0
Mg127 Mg 0.21098 0.65785 0.13384 0.0
Mg128 Mg 0.14359 0.67087 0.20529 0.0
O129 O 0.15667 0.6671 0.15248 0.0
Mg130 Mg 0.1345 0.62104 0.13422 0.0
O131 O 0.11239 0.57403 0.11546 0.0
Mg132 Mg 0.12402 0.58279 0.06059 0.0
Mg133 Mg 0.06103 0.5692 0.13039 0.0
C134 C 0.06662 0.68033 0.17265 0.0
O135 O 0.12549 0.58606 0.19515 0.0
O136 O 0.20051 0.72044 0.15099 0.0
O137 O 0.06549 0.56433 0.19054 0.0
O138 O 0.23327 0.64555 0.19489 0.0
O139 O 0.16314 0.72678 0.204 0.0
O140 O 0.18048 0.62565 0.22095 0.0
O141 O 0.13693 0.64915 0.0698 0.0
O142 O 0.19217 0.67824 0.07025 0.0
C143 C 0.16003 0.67305 0.05331 0.0
C144 C 0.18048 0.74057 0.175 0.0
O145 O 0.07872 0.66163 0.14308 0.0
O146 O 0.09913 0.5226 0.05986 0.0
O147 O 0.08237 0.67424 0.20507 0.0
O148 O 0.06239 0.60395 0.04852 0.0
O149 O 0.05113 0.51587 0.10291 0.0
O150 O 0.038 0.6187 0.10509 0.0
O151 O 0.19765 0.59091 0.12878 0.0
O152 O 0.18686 0.55557 0.07771 0.0
C153 C 0.21288 0.64093 0.22474 0.0
C154 C 0.09701 0.5666 0.20892 0.0
C155 C 0.68086 0.96086 0.36096 0.0
C156 C 0.73413 0.83752 0.34548 0.0
C157 C 0.61911 0.79154 0.33268 0.0
Mg158 Mg 0.59728 0.95509 0.41061 0.0
Mg159 Mg 0.57395 0.88309 0.46953 0.0
O160 O 0.58313 0.90176 0.41931 0.0
Mg161 Mg 0.62854 0.88131 0.39427 0.0
O162 O 0.67252 0.86014 0.3687 0.0
Mg163 Mg 0.65567 0.88214 0.3139 0.0
Mg164 Mg 0.68524 0.80634 0.38967 0.0
C165 C 0.5674 0.80851 0.42739 0.0
O166 O 0.67127 0.86975 0.44945 0.0
O167 O 0.54188 0.96336 0.44538 0.0
O168 O 0.69037 0.80914 0.45019 0.0
O169 O 0.6333 0.95067 0.4674 0.0
O170 O 0.52855 0.91734 0.48863 0.0
O171 O 0.62331 0.89547 0.49878 0.0
O172 O 0.59431 0.89233 0.33584 0.0
O173 O 0.56172 0.94493 0.34783 0.0
C174 C 0.56808 0.91628 0.32466 0.0
C175 C 0.5215 0.94922 0.47274 0.0
O176 O 0.59091 0.82239 0.40219 0.0
O177 O 0.70078 0.85268 0.35097 0.0
O178 O 0.56086 0.82564 0.45898 0.0
O179 O 0.62574 0.82325 0.31475 0.0
O180 O 0.74229 0.80755 0.36451 0.0
O181 O 0.63912 0.77991 0.36128 0.0
O182 O 0.65963 0.94358 0.38639 0.0
O183 O 0.68402 0.94396 0.32824 0.0
C184 C 0.64259 0.92571 0.49322 0.0
C185 C 0.69023 0.84214 0.46545 0.0
C186 C 0.36053 0.34128 0.55008 0.0
C187 C 0.35686 0.27301 0.65792 0.0
C188 C 0.30753 0.36566 0.71228 0.0
Mg189 Mg 0.40031 0.4253 0.56639 0.0
Mg190 Mg 0.45798 0.44517 0.63965 0.0
O191 O 0.40802 0.43547 0.62067 0.0
Mg192 Mg 0.38552 0.38738 0.63582 0.0
O193 O 0.36031 0.34051 0.65037 0.0
Mg194 Mg 0.3034 0.35081 0.62483 0.0
Mg195 Mg 0.37971 0.32788 0.7047 0.0
C196 C 0.41524 0.44753 0.71279 0.0
O197 O 0.44267 0.34825 0.64297 0.0
O198 O 0.42823 0.48398 0.56308 0.0
O199 O 0.44108 0.33001 0.70327 0.0
O200 O 0.46069 0.39789 0.56721 0.0
O201 O 0.4735 0.49388 0.60845 0.0
O202 O 0.49134 0.39958 0.62371 0.0
O203 O 0.32465 0.41509 0.6278 0.0
O204 O 0.33493 0.45273 0.57835 0.0
C205 C 0.31275 0.44293 0.60652 0.0
C206 C 0.4551 0.50397 0.57867 0.0
O207 O 0.39084 0.42392 0.69742 0.0
O208 O 0.35323 0.30875 0.64767 0.0
O209 O 0.44765 0.45395 0.69755 0.0
O210 O 0.28236 0.35637 0.68736 0.0
O211 O 0.37011 0.26819 0.69152 0.0
O212 O 0.34026 0.37477 0.70107 0.0
O213 O 0.38382 0.36026 0.57194 0.0
O214 O 0.32566 0.33976 0.56071 0.0
C215 C 0.48813 0.38712 0.58968 0.0
C216 C 0.45712 0.32859 0.67063 0.0
C217 C 0.93654 0.11893 0.80938 0.0
C218 C 0.01954 0.09903 0.91641 0.0
C219 C 0.91531 0.09288 0.98909 0.0
Mg220 Mg 0.8461 0.15141 0.82307 0.0
Mg221 Mg 0.81221 0.20612 0.91253 0.0
O222 O 0.83697 0.16396 0.88048 0.0
Mg223 Mg 0.88876 0.14681 0.89084 0.0
O224 O 0.93845 0.12956 0.90126 0.0
Mg225 Mg 0.92804 0.07514 0.89341 0.0
Mg226 Mg 0.95984 0.14806 0.94686 0.0
C227 C 0.84044 0.16433 0.9756 0.0
O228 O 0.92166 0.2113 0.89583 0.0
O229 O 0.80264 0.15851 0.87278 0.0
O230 O 0.96047 0.20655 0.94653 0.0
O231 O 0.86195 0.21733 0.82928 0.0
O232 O 0.75398 0.18969 0.89744 0.0
O233 O 0.83811 0.24772 0.88226 0.0
O234 O 0.86002 0.08218 0.8875 0.0
O235 O 0.82874 0.08611 0.8324 0.0
C236 C 0.83409 0.0683 0.86427 0.0
C237 C 0.76639 0.16607 0.87241 0.0
O238 O 0.86078 0.14326 0.95314 0.0
O239 O 0.99262 0.07844 0.90183 0.0
O240 O 0.83475 0.19912 0.96759 0.0
O241 O 0.91723 0.07008 0.96001 0.0
O242 O 0.01411 0.12625 0.93995 0.0
O243 O 0.92779 0.12662 0.98891 0.0
O244 O 0.91397 0.14417 0.8259 0.0
O245 O 0.94166 0.08693 0.8269 0.0
C246 C 0.85783 0.24675 0.85173 0.0
C247 C 0.9474 0.22581 0.91886 0.0
C248 C 0.41128 0.21709 0.43409 0.0
C249 C 0.43431 0.10502 0.49395 0.0
C250 C 0.47574 0.05835 0.4025 0.0
Mg251 Mg 0.37576 0.20679 0.34991 0.0
Mg252 Mg 0.31485 0.12167 0.3228 0.0
O253 O 0.36232 0.14951 0.33796 0.0
Mg254 Mg 0.38847 0.13318 0.38485 0.0
O255 O 0.41789 0.11753 0.42889 0.0
Mg256 Mg 0.47286 0.14582 0.41361 0.0
Mg257 Mg 0.4025 0.06212 0.44042 0.0
C258 C 0.36034 0.05192 0.33338 0.0
O259 O 0.33338 0.12315 0.42549 0.0
O260 O 0.34655 0.17423 0.30594 0.0
O261 O 0.34045 0.06214 0.4405 0.0
O262 O 0.31162 0.20886 0.37006 0.0
O263 O 0.31766 0.14259 0.26218 0.0
O264 O 0.29025 0.14774 0.37112 0.0
O265 O 0.44752 0.13999 0.35242 0.0
O266 O 0.43881 0.19227 0.31969 0.0
C267 C 0.45838 0.16125 0.32456 0.0
C268 C 0.34018 0.16983 0.27069 0.0
O269 O 0.38533 0.07272 0.35076 0.0
O270 O 0.43432 0.11495 0.4582 0.0
O271 O 0.32579 0.06295 0.33065 0.0
O272 O 0.49915 0.08629 0.40167 0.0
O273 O 0.4188 0.0729 0.50076 0.0
O274 O 0.44171 0.06412 0.39208 0.0
O275 O 0.38755 0.19685 0.41406 0.0
O276 O 0.44626 0.20612 0.43387 0.0
C277 C 0.28579 0.18329 0.37702 0.0
C278 C 0.32188 0.09349 0.44388 0.0
C279 C 0.06251 0.15355 0.68882 0.0
C280 C 0.1859 0.16624 0.76596 0.0
C281 C 0.24217 0.17472 0.65341 0.0
Mg282 Mg 0.06873 0.11927 0.59524 0.0
Mg283 Mg 0.14052 0.05778 0.58068 0.0
O284 O 0.1237 0.10858 0.58732 0.0
Mg285 Mg 0.14122 0.12445 0.63587 0.0
O286 O 0.15839 0.13864 0.68516 0.0
Mg287 Mg 0.14965 0.19307 0.67788 0.0
Mg288 Mg 0.20614 0.11731 0.7007 0.0
C289 C 0.21729 0.08993 0.57963 0.0
O290 O 0.14516 0.06392 0.67083 0.0
O291 O 0.07608 0.10143 0.53217 0.0
O292 O 0.20363 0.05804 0.69501 0.0
O293 O 0.05666 0.05446 0.60659 0.0
O294 O 0.11985 0.0536 0.52504 0.0
O295 O 0.1119 0.0271 0.62201 0.0
O296 O 0.13819 0.18933 0.60954 0.0
O297 O 0.08356 0.18465 0.57768 0.0
C298 C 0.114 0.20411 0.585 0.0
C299 C 0.09641 0.07809 0.51144 0.0
O300 O 0.20341 0.11838 0.59955 0.0
O301 O 0.1671 0.18702 0.74162 0.0
O302 O 0.20066 0.05777 0.58142 0.0
O303 O 0.21275 0.19619 0.65942 0.0
O304 O 0.2071 0.13805 0.75656 0.0
O305 O 0.24514 0.14087 0.66555 0.0
O306 O 0.0757 0.12918 0.66346 0.0
O307 O 0.0842 0.18226 0.69688 0.0
C308 C 0.07614 0.02548 0.61821 0.0
C309 C 0.17026 0.04484 0.69038 0.0
C310 C 0.11646 0.79847 0.93327 0.0
C311 C 0.0935 0.93548 0.99569 0.0
C312 C 0.08475 0.97458 0.88302 0.0
Mg313 Mg 0.14127 0.79314 0.83827 0.0
Mg314 Mg 0.21962 0.86986 0.8208 0.0
O315 O 0.16448 0.85032 0.82838 0.0
Mg316 Mg 0.14608 0.87199 0.87786 0.0
O317 O 0.1281 0.89366 0.92507 0.0
Mg318 Mg 0.07303 0.88511 0.91654 0.0
Mg319 Mg 0.14535 0.94458 0.92844 0.0
C320 C 0.17869 0.94435 0.82006 0.0
O321 O 0.20393 0.88048 0.92064 0.0
O322 O 0.16903 0.83882 0.7971 0.0
O323 O 0.20571 0.94265 0.93132 0.0
O324 O 0.20424 0.77502 0.85428 0.0
O325 O 0.22019 0.84712 0.76214 0.0
O326 O 0.21122 0.83482 0.86968 0.0
O327 O 0.08233 0.87156 0.84971 0.0
O328 O 0.07894 0.81728 0.8177 0.0
C329 C 0.06449 0.85057 0.82465 0.0
C330 C 0.18795 0.83101 0.76598 0.0
O331 O 0.15309 0.92806 0.84058 0.0
O332 O 0.07489 0.90892 0.97776 0.0
O333 O 0.21207 0.93002 0.81753 0.0
O334 O 0.06364 0.94858 0.89785 0.0
O335 O 0.11881 0.95648 0.98049 0.0
O336 O 0.1206 0.97168 0.88255 0.0
O337 O 0.13894 0.81007 0.9058 0.0
O338 O 0.08742 0.82035 0.94095 0.0
C339 C 0.22505 0.80189 0.86809 0.0
C340 C 0.21856 0.90944 0.93861 0.0
C341 C 0.46078 0.87041 0.18739 0.0
C342 C 0.35372 0.84257 0.26268 0.0
C343 C 0.28641 0.83001 0.15557 0.0
Mg344 Mg 0.44747 0.90001 0.09242 0.0
Mg345 Mg 0.35687 0.95931 0.07581 0.0
O346 O 0.39038 0.91209 0.08753 0.0
Mg347 Mg 0.38018 0.89109 0.1358 0.0
O348 O 0.36836 0.8725 0.1841 0.0
Mg349 Mg 0.38077 0.81903 0.17439 0.0
Mg350 Mg 0.32047 0.88961 0.20086 0.0
C351 C 0.29497 0.91191 0.08891 0.0
O352 O 0.37428 0.95121 0.17097 0.0
O353 O 0.39078 0.91048 0.05422 0.0
O354 O 0.31721 0.94911 0.19785 0.0
O355 O 0.44187 0.96288 0.1135 0.0
O356 O 0.36546 0.95273 0.01497 0.0
O357 O 0.38765 0.99838 0.10702 0.0
O358 O 0.38693 0.82739 0.10706 0.0
O359 O 0.43929 0.83456 0.07259 0.0
C360 C 0.40992 0.81401 0.08087 0.0
C361 C 0.38822 0.92451 0.01974 0.0
O362 O 0.31911 0.88764 0.10264 0.0
O363 O 0.37062 0.82166 0.23744 0.0
O364 O 0.30103 0.94722 0.09414 0.0
O365 O 0.31554 0.80848 0.16289 0.0
O366 O 0.32805 0.86753 0.25525 0.0
O367 O 0.28548 0.86523 0.16276 0.0
O368 O 0.44447 0.89302 0.1621 0.0
O369 O 0.44506 0.83749 0.19227 0.0
C370 C 0.4214 0.99324 0.11992 0.0
C371 C 0.34929 0.96535 0.1944 0.0
C372 C 0.32327 0.43895 0.16222 0.0
C373 C 0.26645 0.29703 0.19181 0.0
C374 C 0.38387 0.26669 0.17537 0.0
Mg375 Mg 0.41504 0.44062 0.12964 0.0
Mg376 Mg 0.43757 0.37533 0.06111 0.0
O377 O 0.42759 0.38782 0.1131 0.0
Mg378 Mg 0.38132 0.36595 0.12998 0.0
O379 O 0.3333 0.34458 0.14711 0.0
Mg380 Mg 0.34465 0.35311 0.20113 0.0
Mg381 Mg 0.323 0.2949 0.12825 0.0
C382 C 0.44526 0.2974 0.09124 0.0
O383 O 0.34561 0.362 0.06849 0.0
O384 O 0.47628 0.44266 0.10968 0.0
O385 O 0.31268 0.30703 0.07102 0.0
O386 O 0.39031 0.45047 0.07091 0.0
O387 O 0.49061 0.40166 0.06132 0.0
O388 O 0.39465 0.40218 0.02915 0.0
O389 O 0.41022 0.37008 0.19388 0.0
O390 O 0.44019 0.42507 0.192 0.0
C391 C 0.4341 0.39382 0.21016 0.0
C392 C 0.50014 0.42566 0.0871 0.0
O393 O 0.42311 0.30879 0.11906 0.0
O394 O 0.28658 0.32434 0.20633 0.0
O395 O 0.44522 0.31544 0.05965 0.0
O396 O 0.3732 0.29439 0.19755 0.0
O397 O 0.2755 0.27888 0.16147 0.0
O398 O 0.37009 0.26218 0.14201 0.0
O399 O 0.35044 0.427 0.13995 0.0
O400 O 0.31453 0.41654 0.19033 0.0
C401 C 0.38078 0.4344 0.03928 0.0
C402 C 0.32096 0.33808 0.054 0.0
C403 C 0.85741 0.81436 0.06111 0.0
C404 C 0.83512 0.74778 0.19619 0.0
C405 C 0.83099 0.86624 0.23531 0.0
Mg406 Mg 0.88412 0.90971 0.06403 0.0
Mg407 Mg 0.9511 0.92689 0.1324 0.0
O408 O 0.90011 0.91743 0.11827 0.0
Mg409 Mg 0.88611 0.86925 0.13733 0.0
O410 O 0.87126 0.82058 0.15714 0.0
Mg411 Mg 0.81664 0.82994 0.14731 0.0
Mg412 Mg 0.88893 0.8121 0.20797 0.0
C413 C 0.91917 0.92873 0.20968 0.0
O414 O 0.9482 0.83458 0.14322 0.0
O415 O 0.89605 0.9734 0.07307 0.0
O416 O 0.94858 0.80818 0.20161 0.0
O417 O 0.94704 0.90151 0.04752 0.0
O418 O 0.94744 0.98219 0.11193 0.0
O419 O 0.97667 0.8836 0.10048 0.0
O420 O 0.82182 0.8966 0.13615 0.0
O421 O 0.81961 0.9263 0.08111 0.0
C422 C 0.80419 0.92061 0.11384 0.0
C423 C 0.91847 0.99473 0.09341 0.0
O424 O 0.89248 0.90693 0.19612 0.0
O425 O 0.81812 0.76905 0.17104 0.0
O426 O 0.9514 0.93046 0.1929 0.0
O427 O 0.8117 0.85411 0.20656 0.0
O428 O 0.86229 0.75949 0.21751 0.0
O429 O 0.86523 0.85542 0.24161 0.0
O430 O 0.88049 0.84124 0.07255 0.0
O431 O 0.82905 0.80652 0.08338 0.0
C432 C 0.97755 0.89189 0.06543 0.0
C433 C 0.96463 0.81372 0.1694 0.0
C434 C 0.17566 0.54231 0.65944 0.0
C435 C 0.22984 0.66524 0.70645 0.0
C436 C 0.13154 0.68543 0.74622 0.0
Mg437 Mg 0.08886 0.56734 0.61506 0.0
Mg438 Mg 0.08534 0.65156 0.56921 0.0
O439 O 0.08567 0.62227 0.61523 0.0
Mg440 Mg 0.13028 0.6289 0.6464 0.0
O441 O 0.17384 0.63787 0.67986 0.0
Mg442 Mg 0.15748 0.60383 0.73044 0.0
Mg443 Mg 0.17323 0.69661 0.67232 0.0
C444 C 0.0802 0.71342 0.62426 0.0
O445 O 0.17273 0.64119 0.59497 0.0
O446 O 0.03327 0.57865 0.58214 0.0
O447 O 0.1949 0.6973 0.61286 0.0
O448 O 0.11804 0.57139 0.55641 0.0
O449 O 0.03293 0.6331 0.54689 0.0
O450 O 0.12834 0.63065 0.53416 0.0
O451 O 0.09584 0.61342 0.70219 0.0
O452 O 0.05412 0.574 0.67724 0.0
C453 C 0.06369 0.59573 0.70577 0.0
C454 C 0.01755 0.60224 0.55822 0.0
O455 O 0.09672 0.69063 0.64825 0.0
O456 O 0.2008 0.64414 0.69622 0.0
O457 O 0.08556 0.70883 0.58847 0.0
O458 O 0.14299 0.65667 0.76527 0.0
O459 O 0.22811 0.70078 0.69889 0.0
O460 O 0.12596 0.6814 0.71069 0.0
O461 O 0.15458 0.56472 0.63824 0.0
O462 O 0.17772 0.55018 0.69521 0.0
C463 C 0.13206 0.59462 0.53165 0.0
C464 C 0.19666 0.66843 0.59034 0.0
C465 C 0.70245 0.96089 0.91495 0.0
C466 C 0.56002 0.01875 0.9351 0.0
C467 C 0.52951 0.90492 0.94639 0.0
Mg468 Mg 0.70372 0.87088 0.8835 0.0
Mg469 Mg 0.63579 0.8419 0.8211 0.0
O470 O 0.65089 0.85562 0.8714 0.0
Mg471 Mg 0.62815 0.90151 0.88777 0.0
O472 O 0.60581 0.94914 0.90284 0.0
Mg473 Mg 0.61774 0.94274 0.9571 0.0
Mg474 Mg 0.555 0.95216 0.88443 0.0
C475 C 0.56123 0.83485 0.85586 0.0
O476 O 0.62151 0.93373 0.82761 0.0
O477 O 0.70845 0.80906 0.8677 0.0
O478 O 0.56154 0.95582 0.82498 0.0
O479 O 0.7085 0.89351 0.82176 0.0
O480 O 0.66395 0.78999 0.82432 0.0
O481 O 0.6566 0.88308 0.78563 0.0
O482 O 0.63377 0.87715 0.95115 0.0
O483 O 0.68989 0.84845 0.94852 0.0
C484 C 0.65815 0.85399 0.96672 0.0
C485 C 0.68919 0.78333 0.84987 0.0
O486 O 0.57275 0.85771 0.88284 0.0
O487 O 0.58828 1.00103 0.95162 0.0
O488 O 0.57577 0.83761 0.82268 0.0
O489 O 0.55814 0.91839 0.96502 0.0
O490 O 0.53886 1.00373 0.90957 0.0
O491 O 0.52677 0.90777 0.91028 0.0
O492 O 0.68857 0.93474 0.89278 0.0
O493 O 0.68171 0.96991 0.94421 0.0
C494 C 0.6878 0.90034 0.79191 0.0
C495 C 0.59546 0.95471 0.81173 0.0
C496 C 0.80409 0.08411 0.39925 0.0
C497 C 0.913 0.00981 0.43126 0.0
C498 C 0.97718 0.11657 0.44709 0.0
Mg499 Mg 0.81718 0.17181 0.3628 0.0
Mg500 Mg 0.89167 0.21037 0.31627 0.0
O501 O 0.87142 0.18277 0.35741 0.0
Mg502 Mg 0.88746 0.13318 0.37381 0.0
O503 O 0.90059 0.08517 0.39495 0.0
Mg504 Mg 0.88474 0.09747 0.44927 0.0
Mg505 Mg 0.95076 0.07091 0.38379 0.0
C506 C 0.96612 0.19705 0.35448 0.0
O507 O 0.896 0.09275 0.31461 0.0
O508 O 0.8137 0.23422 0.35109 0.0
O509 O 0.95437 0.06885 0.32331 0.0
O510 O 0.8282 0.15124 0.29861 0.0
O511 O 0.86211 0.26149 0.31925 0.0
O512 O 0.8847 0.17193 0.27501 0.0
O513 O 0.88125 0.16318 0.43615 0.0
O514 O 0.82631 0.19396 0.42942 0.0
C515 C 0.85761 0.18887 0.44881 0.0
C516 C 0.83179 0.26342 0.33916 0.0
O517 O 0.95143 0.167 0.371 0.0
O518 O 0.89422 0.03511 0.45033 0.0
O519 O 0.94757 0.21667 0.33034 0.0
O520 O 0.94771 0.10682 0.4664 0.0
O521 O 0.94027 0.01726 0.40814 0.0
O522 O 0.97685 0.11628 0.41114 0.0
O523 O 0.82169 0.1056 0.37436 0.0
O524 O 0.82047 0.08072 0.43198 0.0
C525 C 0.85624 0.1498 0.27398 0.0
C526 C 0.92319 0.06906 0.30449 0.0
C527 C 0.66463 0.20232 0.5602 0.0
C528 C 0.68274 0.2643 0.69407 0.0
C529 C 0.69364 0.14724 0.73318 0.0
Mg530 Mg 0.63583 0.11138 0.56113 0.0
Mg531 Mg 0.57911 0.06376 0.62795 0.0
O532 O 0.62456 0.09195 0.61336 0.0
Mg533 Mg 0.63746 0.14159 0.63451 0.0
O534 O 0.65099 0.18995 0.65518 0.0
Mg535 Mg 0.70614 0.18306 0.64396 0.0
Mg536 Mg 0.63201 0.19739 0.70591 0.0
C537 C 0.61037 0.07741 0.70694 0.0
O538 O 0.57446 0.17346 0.64065 0.0
O539 O 0.62165 0.05224 0.57048 0.0
O540 O 0.5716 0.19624 0.70035 0.0
O541 O 0.57193 0.12972 0.56506 0.0
O542 O 0.58734 0.00977 0.59959 0.0
O543 O 0.53765 0.10119 0.61137 0.0
O544 O 0.70375 0.11619 0.6292 0.0
O545 O 0.70213 0.0903 0.57174 0.0
C546 C 0.71983 0.09335 0.60409 0.0
C547 C 0.61358 0.01778 0.57578 0.0
O548 O 0.6315 0.10501 0.69403 0.0
O549 O 0.7018 0.24329 0.6701 0.0
O550 O 0.58445 0.06166 0.68687 0.0
O551 O 0.71072 0.15756 0.7026 0.0
O552 O 0.65497 0.25223 0.71432 0.0
O553 O 0.65923 0.15699 0.74027 0.0
O554 O 0.64236 0.17584 0.57337 0.0
O555 O 0.69444 0.20997 0.58052 0.0
C556 C 0.54146 0.1266 0.58582 0.0
C557 C 0.55677 0.19282 0.66719 0.0
C558 C 0.20228 0.46224 0.85241 0.0
C559 C 0.26229 0.32711 0.83179 0.0
C560 C 0.14934 0.29458 0.80598 0.0
Mg561 Mg 0.10754 0.47584 0.86536 0.0
Mg562 Mg 0.09017 0.40318 0.94612 0.0
O563 O 0.0955 0.41924 0.88959 0.0
Mg564 Mg 0.1409 0.39182 0.87422 0.0
O565 O 0.18825 0.36668 0.85903 0.0
Mg566 Mg 0.1861 0.37969 0.80339 0.0
Mg567 Mg 0.18689 0.31513 0.87334 0.0
C568 C 0.08078 0.32674 0.91407 0.0
O569 O 0.1747 0.38267 0.93521 0.0
O570 O 0.06588 0.43161 0.89385 0.0
O571 O 0.18168 0.31971 0.93375 0.0
O572 O 0.11442 0.49891 0.92777 0.0
O573 O 0.02967 0.41958 0.94334 0.0
O574 O 0.13678 0.44263 0.94188 0.0
O575 O 0.11821 0.3941 0.80751 0.0
O576 O 0.0906 0.45061 0.80289 0.0
C577 C 0.09565 0.41706 0.7886 0.0
C578 C 0.03251 0.43433 0.91019 0.0
O579 O 0.09721 0.33838 0.88328 0.0
O580 O 0.24585 0.35391 0.81204 0.0
O581 O 0.09077 0.34194 0.94568 0.0
O582 O 0.16832 0.31846 0.78605 0.0
O583 O 0.24409 0.3048 0.85424 0.0
O584 O 0.13874 0.30396 0.83892 0.0
O585 O 0.17193 0.45171 0.87068 0.0
O586 O 0.21197 0.44151 0.82339 0.0
C587 C 0.12388 0.47421 0.95309 0.0
C588 C 0.18966 0.35182 0.94915 0.0
C589 C 0.4232 0.61726 0.30485 0.0
C590 C 0.49016 0.58469 0.40828 0.0
C591 C 0.39757 0.54848 0.45921 0.0
Mg592 Mg 0.33709 0.65532 0.3265 0.0
Mg593 Mg 0.3137 0.70451 0.40313 0.0
O594 O 0.32823 0.65783 0.3818 0.0
Mg595 Mg 0.37761 0.63512 0.39493 0.0
O596 O 0.42492 0.60594 0.40431 0.0
Mg597 Mg 0.40784 0.55216 0.37247 0.0
Mg598 Mg 0.44312 0.616 0.45901 0.0
C599 C 0.32065 0.66356 0.47759 0.0
O600 O 0.41793 0.68982 0.40546 0.0
O601 O 0.27745 0.68006 0.32445 0.0
O602 O 0.44797 0.67696 0.46024 0.0
O603 O 0.36051 0.71832 0.33264 0.0
O604 O 0.26595 0.72356 0.37076 0.0
O605 O 0.36149 0.73467 0.39493 0.0
O606 O 0.34676 0.57722 0.38361 0.0
O607 O 0.30918 0.59023 0.33479 0.0
C608 C 0.31757 0.56782 0.36317 0.0
C609 C 0.25661 0.70618 0.34011 0.0
O610 O 0.34564 0.63998 0.4617 0.0
O611 O 0.45396 0.58798 0.40147 0.0
O612 O 0.30673 0.69182 0.45954 0.0
O613 O 0.39951 0.52438 0.4316 0.0
O614 O 0.50085 0.59693 0.44092 0.0
O615 O 0.39128 0.58301 0.45152 0.0
O616 O 0.40336 0.63861 0.32865 0.0
O617 O 0.42455 0.58154 0.3126 0.0
C618 C 0.37078 0.74046 0.3606 0.0
C619 C 0.4428 0.69852 0.43137 0.0
C620 C 0.90059 0.69461 0.93715 0.0
C621 C 0.91701 0.5686 1.00465 0.0
C622 C 0.92009 0.51955 0.8853 0.0
Mg623 Mg 0.86056 0.69304 0.8485 0.0
Mg624 Mg 0.80465 0.6233 0.81625 0.0
O625 O 0.853 0.64024 0.83265 0.0
Mg626 Mg 0.86979 0.61997 0.8815 0.0
O627 O 0.88613 0.59989 0.92909 0.0
Mg628 Mg 0.94034 0.60946 0.91941 0.0
Mg629 Mg 0.86593 0.55073 0.94075 0.0
C630 C 0.84309 0.54815 0.81617 0.0
O631 O 0.81127 0.6171 0.92081 0.0
O632 O 0.83709 0.70322 0.78948 0.0
O633 O 0.80624 0.55849 0.94435 0.0
O634 O 0.79647 0.69235 0.87054 0.0
O635 O 0.79286 0.6604 0.76987 0.0
O636 O 0.77107 0.6339 0.86196 0.0
O637 O 0.93255 0.62414 0.85341 0.0
O638 O 0.92499 0.67867 0.82211 0.0
C639 C 0.94542 0.6481 0.82821 0.0
C640 C 0.81215 0.69089 0.76535 0.0
O641 O 0.86475 0.56132 0.84339 0.0
O642 O 0.93661 0.58948 0.98148 0.0
O643 O 0.81228 0.56515 0.8066 0.0
O644 O 0.94175 0.54798 0.89444 0.0
O645 O 0.8911 0.54535 0.99427 0.0
O646 O 0.88692 0.51484 0.89925 0.0
O647 O 0.87642 0.68058 0.91256 0.0
O648 O 0.9306 0.67413 0.94404 0.0
C649 C 0.7699 0.6672 0.87607 0.0
C650 C 0.79452 0.59292 0.94324 0.0
C651 C 0.54238 0.67405 0.18264 0.0
C652 C 0.66186 0.69452 0.2457 0.0
C653 C 0.70547 0.72766 0.15543 0.0
Mg654 Mg 0.55905 0.64533 0.08738 0.0
Mg655 Mg 0.63239 0.58415 0.07433 0.0
O656 O 0.614 0.63351 0.08506 0.0
Mg657 Mg 0.62757 0.65198 0.13396 0.0
O658 O 0.64265 0.67374 0.18336 0.0
Mg659 Mg 0.61886 0.73202 0.17169 0.0
Mg660 Mg 0.69856 0.65663 0.19317 0.0
C661 C 0.70664 0.61643 0.08282 0.0
O662 O 0.63311 0.59266 0.16836 0.0
O663 O 0.5721 0.6307 0.02456 0.0
O664 O 0.6915 0.59599 0.19411 0.0
O665 O 0.5462 0.58176 0.09741 0.0
O666 O 0.61758 0.58526 0.01594 0.0
O667 O 0.60143 0.5539 0.11358 0.0
O668 O 0.62471 0.71505 0.1069 0.0
O669 O 0.57471 0.70982 0.06948 0.0
C670 C 0.60438 0.72909 0.07921 0.0
C671 C 0.59445 0.6104 1.00284 0.0
O672 O 0.68939 0.64467 0.09959 0.0
O673 O 0.64739 0.68875 0.21204 0.0
O674 O 0.69173 0.58351 0.08312 0.0
O675 O 0.68179 0.75422 0.16407 0.0
O676 O 0.69337 0.67767 0.25316 0.0
O677 O 0.69206 0.69588 0.14628 0.0
O678 O 0.55978 0.65194 0.15768 0.0
O679 O 0.55728 0.70709 0.18826 0.0
C680 C 0.56547 0.55344 0.11046 0.0
C681 C 0.65948 0.57902 0.19046 0.0
C682 C 0.56187 0.35713 0.32986 0.0
C683 C 0.67341 0.31882 0.26704 0.0
C684 C 0.73939 0.35861 0.37323 0.0
Mg685 Mg 0.56027 0.40069 0.41287 0.0
Mg686 Mg 0.63147 0.46959 0.45135 0.0
O687 O 0.61354 0.41997 0.43011 0.0
Mg688 Mg 0.63447 0.39759 0.38249 0.0
O689 O 0.6526 0.37295 0.33662 0.0
Mg690 Mg 0.65071 0.32031 0.35614 0.0
Mg691 Mg 0.69413 0.38952 0.30844 0.0
C692 C 0.70842 0.4291 0.44357 0.0
O693 O 0.63789 0.45618 0.34184 0.0
O694 O 0.57896 0.43348 0.46157 0.0
O695 O 0.68144 0.44526 0.29568 0.0
O696 O 0.55977 0.45973 0.38301 0.0
O697 O 0.60391 0.46485 0.50798 0.0
O698 O 0.60703 0.49897 0.40457 0.0
O699 O 0.63329 0.33822 0.41719 0.0
O700 O 0.57695 0.33964 0.44453 0.0
C701 C 0.60993 0.32302 0.44149 0.0
C702 C 0.58142 0.43854 0.49701 0.0
O703 O 0.69403 0.40643 0.41791 0.0
O704 O 0.67387 0.302 0.29928 0.0
O705 O 0.69086 0.45899 0.45517 0.0
O706 O 0.71534 0.33063 0.37737 0.0
O707 O 0.68646 0.35234 0.26225 0.0
O708 O 0.73409 0.38514 0.34935 0.0
O709 O 0.57361 0.38491 0.35132 0.0
O710 O 0.58408 0.32716 0.32836 0.0
C711 C 0.58018 0.49051 0.38088 0.0
C712 C 0.65597 0.46632 0.31085 0.0
C713 C 0.97754 0.36441 0.66555 0.0
C714 C 0.87504 0.33753 0.74585 0.0
C715 C 0.80553 0.31119 0.64611 0.0
Mg716 Mg 0.9605 0.39714 0.57503 0.0
Mg717 Mg 0.88956 0.46157 0.56989 0.0
O718 O 0.90502 0.40957 0.57147 0.0
Mg719 Mg 0.89227 0.38803 0.62032 0.0
O720 O 0.88102 0.36659 0.66897 0.0
Mg721 Mg 0.89783 0.312 0.65909 0.0
Mg722 Mg 0.82983 0.37638 0.68091 0.0
C723 C 0.81477 0.42426 0.57128 0.0
O724 O 0.88412 0.44489 0.65829 0.0
O725 O 0.94919 0.41937 0.51458 0.0
O726 O 0.82548 0.43675 0.68145 0.0
O727 O 0.97565 0.45991 0.58899 0.0
O728 O 0.90933 0.4706 0.51327 0.0
O729 O 0.92316 0.48425 0.61405 0.0
O730 O 0.89454 0.32425 0.59203 0.0
O731 O 0.9432 0.33238 0.5533 0.0
C732 C 0.91439 0.31179 0.56337 0.0
C733 C 0.93052 0.44588 0.49643 0.0
O734 O 0.83033 0.39506 0.58803 0.0
O735 O 0.8943 0.31612 0.72273 0.0
O736 O 0.82924 0.45737 0.5758 0.0
O737 O 0.8342 0.29188 0.65817 0.0
O738 O 0.84547 0.35693 0.73581 0.0
O739 O 0.81115 0.34418 0.63373 0.0
O740 O 0.95886 0.38764 0.64322 0.0
O741 O 0.96285 0.33124 0.6702 0.0
C742 C 0.95684 0.48864 0.60211 0.0
C743 C 0.8563 0.45594 0.68004 0.0
C744 C 0.18576 0.21781 0.39104 0.0
C745 C 0.1778 0.22625 0.35227 0.0
C746 C 0.22238 0.2044 0.40018 0.0
C747 C 0.24677 0.19366 0.37025 0.0
H748 H 0.16903 0.23126 0.41363 0.0
H749 H 0.23219 0.20452 0.42972 0.0
S750 S 0.22021 0.17913 0.26804 0.0
N751 N 0.18369 0.20271 0.28718 0.0
N752 N 0.25121 0.17245 0.30335 0.0
C753 C 0.23184 0.18899 0.33293 0.0
C754 C 0.19558 0.20434 0.3243 0.0
C755 C 0.0582 0.94642 0.54965 0.0
C756 C 0.05382 0.91524 0.57413 0.0
C757 C 0.06016 0.98309 0.56556 0.0
C758 C 0.06486 0.98801 0.60534 0.0
H759 H 0.05157 0.94324 0.51949 0.0
H760 H 0.05888 1.00765 0.54681 0.0
S761 S 0.08631 0.91114 0.67495 0.0
N762 N 0.07445 0.88845 0.63494 0.0
N763 N 0.08339 0.95738 0.66522 0.0
C764 C 0.07255 0.95569 0.62781 0.0
C765 C 0.06867 0.91875 0.61134 0.0
C766 C 0.28188 0.8143 0.82863 0.0
C767 C 0.26616 0.80193 0.86362 0.0
C768 C 0.32138 0.81635 0.82364 0.0
C769 C 0.34428 0.80055 0.8521 0.0
H770 H 0.26416 0.82159 0.80489 0.0
H771 H 0.33264 0.8208 0.79503 0.0
S772 S 0.31975 0.79414 0.95472 0.0
N773 N 0.27798 0.79642 0.93226 0.0
N774 N 0.35307 0.79833 0.92128 0.0
C775 C 0.33054 0.80357 0.88992 0.0
C776 C 0.29033 0.80124 0.89569 0.0
C777 C 0.43101 0.06103 0.12352 0.0
C778 C 0.43916 0.02513 0.13975 0.0
C779 C 0.46047 0.08058 0.10547 0.0
C780 C 0.49739 0.06463 0.10554 0.0
H781 H 0.40169 0.06999 0.11812 0.0
H782 H 0.45409 0.10669 0.08993 0.0
S783 S 0.53031 0.97936 0.16021 0.0
N784 N 0.4853 0.98596 0.17311 0.0
N785 N 0.53883 0.01309 0.12848 0.0
C786 C 0.50535 0.03275 0.12882 0.0
C787 C 0.47627 0.01737 0.15175 0.0
C788 C 0.19649 0.80031 0.20085 0.0
C789 C 0.17962 0.78152 0.1699 0.0
C790 C 0.23273 0.81516 0.19533 0.0
C791 C 0.24907 0.81479 0.1584 0.0
H792 H 0.18695 0.79516 0.22998 0.0
H793 H 0.24883 0.82508 0.22009 0.0
S794 S 0.19784 0.79871 0.06715 0.0
N795 N 0.16808 0.78421 0.10107 0.0
N796 N 0.23656 0.81457 0.0896 0.0
C797 C 0.22573 0.80864 0.12652 0.0
C798 C 0.18891 0.79347 0.1327 0.0
C799 C 0.45928 0.96895 0.45885 0.0
C800 C 0.48906 0.97185 0.48554 0.0
C801 C 0.45616 0.99721 0.43086 0.0
C802 C 0.47872 0.03062 0.43334 0.0
H803 H 0.44572 0.94155 0.45358 0.0
H804 H 0.4376 0.9921 0.40639 0.0
S805 S 0.53815 0.05937 0.5165 0.0
N806 N 0.52406 0.01543 0.52637 0.0
N807 N 0.5186 0.07047 0.4748 0.0
C808 C 0.49903 0.03774 0.46742 0.0
C809 C 0.50124 1.00858 0.49555 0.0
C810 C 0.34212 0.20498 0.65223 0.0
C811 C 0.33615 0.24242 0.63918 0.0
C812 C 0.31207 0.17915 0.65098 0.0
C813 C 0.27608 0.19134 0.63735 0.0
H814 H 0.36784 0.19734 0.66804 0.0
H815 H 0.31553 0.15217 0.66591 0.0
S816 S 0.25351 0.27922 0.58354 0.0
N817 N 0.29802 0.28404 0.59856 0.0
N818 N 0.24019 0.2369 0.59917 0.0
C819 C 0.27298 0.22515 0.61677 0.0
C820 C 0.3039 0.25058 0.61679 0.0
C821 C 0.08008 0.02789 0.92646 0.0
C822 C 0.07399 0.01348 0.88925 0.0
C823 C 0.0746 0.06633 0.93443 0.0
C824 C 0.05801 0.08894 0.90617 0.0
H825 H 0.08841 0.00935 0.94959 0.0
H826 H 0.07477 0.07558 0.96418 0.0
S827 S 0.05481 0.06974 0.80206 0.0
N828 N 0.06643 0.02827 0.82171 0.0
N829 N 0.05165 0.10078 0.83783 0.0
C830 C 0.06171 0.07788 0.86765 0.0
C831 C 0.06836 0.0389 0.8591 0.0
C832 C 0.39197 0.19872 0.18081 0.0
C833 C 0.40523 0.23495 0.19239 0.0
C834 C 0.36915 0.17781 0.2061 0.0
C835 C 0.36319 0.1915 0.24353 0.0
H836 H 0.39186 0.19079 0.15072 0.0
H837 H 0.35485 0.15227 0.19588 0.0
S838 S 0.41095 0.27638 0.28798 0.0
N839 N 0.4299 0.27244 0.24486 0.0
N840 N 0.37948 0.24138 0.29046 0.0
C841 C 0.38441 0.22368 0.25614 0.0
C842 C 0.41094 0.24108 0.23133 0.0
C843 C 0.08271 0.11258 0.45552 0.0
C844 C 0.08716 0.07589 0.47126 0.0
C845 C 0.04575 0.12782 0.45243 0.0
C846 C 0.01394 0.10457 0.4605 0.0
H847 H 0.10697 0.1318 0.45402 0.0
H848 H 0.04194 0.15736 0.44363 0.0
S849 S 0.01568 0.99912 0.47136 0.0
N850 N 0.0613 0.01179 0.4711 0.0
N851 N 0.99075 0.03918 0.46741 0.0
C852 C 0.01964 0.06501 0.46527 0.0
C853 C 0.05727 0.05021 0.4666 0.0
C854 C 0.14192 0.78926 0.73836 0.0
C855 C 0.18016 0.79434 0.7494 0.0
C856 C 0.12465 0.75388 0.74227 0.0
C857 C 0.14534 0.72266 0.75678 0.0
H858 H 0.12442 0.81352 0.72965 0.0
H859 H 0.09516 0.75044 0.7331 0.0
S860 S 0.24688 0.72115 0.78841 0.0
N861 N 0.23916 0.76499 0.7725 0.0
N862 N 0.20554 0.6988 0.7833 0.0
C863 C 0.18356 0.72732 0.76815 0.0
C864 C 0.20161 0.76296 0.76249 0.0
C865 C 0.49125 0.92087 1.00224 0.0
C866 C 0.49357 0.90172 0.96684 0.0
C867 C 0.45626 0.93251 0.0163 0.0
C868 C 0.4224 0.92206 0.99766 0.0
H869 H 0.51655 0.92994 0.01789 0.0
H870 H 0.4556 0.94896 0.04265 0.0
S871 S 0.41177 0.87 0.9062 0.0
N872 N 0.45851 0.87334 0.91305 0.0
N873 N 0.39163 0.89054 0.94396 0.0
C874 C 0.42352 0.90131 0.96362 0.0
C875 C 0.45946 0.89149 0.94756 0.0
C876 C 0.40318 0.8219 0.30649 0.0
C877 C 0.36639 0.83803 0.30157 0.0
C878 C 0.40741 0.79117 0.33096 0.0
C879 C 0.3761 0.77994 0.35264 0.0
H880 H 0.42572 0.82677 0.2857 0.0
H881 H 0.43299 0.77366 0.3296 0.0
S882 S 0.28233 0.82856 0.36468 0.0
N883 N 0.30399 0.85157 0.32959 0.0
N884 N 0.31351 0.79613 0.37964 0.0
C885 C 0.34379 0.80387 0.35636 0.0
C886 C 0.33872 0.83363 0.32989 0.0
C887 C 0.47234 0.13442 0.58925 0.0
C888 C 0.50756 0.14948 0.57675 0.0
C889 C 0.44652 0.12128 0.56173 0.0
C890 C 0.45446 0.12725 0.52281 0.0
H891 H 0.46894 0.12458 0.6185 0.0
H892 H 0.42263 0.10366 0.57061 0.0
S893 S 0.5311 0.18932 0.48278 0.0
N894 N 0.5389 0.18825 0.52929 0.0
N895 N 0.49246 0.1631 0.47664 0.0
C896 C 0.48362 0.15313 0.51287 0.0
C897 C 0.50872 0.16685 0.54119 0.0
C898 C 0.21374 0.20912 0.80698 0.0
C899 C 0.18686 0.17977 0.80512 0.0
C900 C 0.20068 0.24657 0.80181 0.0
C901 C 0.16126 0.25499 0.80453 0.0
H902 H 0.24369 0.20257 0.80204 0.0
H903 H 0.22115 0.26872 0.79547 0.0
S904 S 0.08558 0.18744 0.83453 0.0
N905 N 0.12417 0.16047 0.82783 0.0
N906 N 0.09877 0.23186 0.82534 0.0
C907 C 0.13632 0.22601 0.81665 0.0
C908 C 0.15007 0.18789 0.81886 0.0
C909 C 0.04773 0.89566 0.06722 0.0
C910 C 0.01251 0.91098 0.05462 0.0
C911 C 0.08179 0.91414 0.05822 0.0
C912 C 0.08039 0.94547 0.03338 0.0
H913 H 0.04897 0.86863 0.08241 0.0
H914 H 0.10868 0.8992 0.06319 0.0
S915 S 0.99745 1.00607 1.00939 0.0
N916 N 0.97911 0.96718 0.0288 0.0
N917 N 0.04442 1.00089 0.01254 0.0
C918 C 0.0466 0.96663 0.03083 0.0
C919 C 0.01169 0.94806 0.03881 0.0
C920 C 0.20182 0.3067 0.20935 0.0
C921 C 0.2346 0.28416 0.21486 0.0
C922 C 0.19206 0.33376 0.23725 0.0
C923 C 0.21308 0.33577 0.27178 0.0
H924 H 0.18973 0.30981 0.18085 0.0
H925 H 0.1706 0.35521 0.23027 0.0
S926 S 0.2876 0.26674 0.30415 0.0
N927 N 0.27584 0.25252 0.26055 0.0
N928 N 0.25974 0.30387 0.31348 0.0
C929 C 0.23887 0.30581 0.28055 0.0
C930 C 0.24693 0.27753 0.25242 0.0
C931 C 0.71449 0.13576 0.83542 0.0
C932 C 0.74634 0.15993 0.83696 0.0
C933 C 0.69942 0.12518 0.79982 0.0
C934 C 0.7174 0.13722 0.76573 0.0
H935 H 0.70093 0.12586 0.86152 0.0
H936 H 0.67223 0.11028 0.79884 0.0
S937 S 0.80561 0.19477 0.75624 0.0
N938 N 0.79424 0.19597 0.80213 0.0
N939 N 0.77377 0.16624 0.73661 0.0
C940 C 0.75268 0.15607 0.76784 0.0
C941 C 0.76454 0.17107 0.80314 0.0
C942 C 0.06337 0.48227 0.99013 0.0
C943 C 0.10215 0.47109 0.98854 0.0
C944 C 0.04232 0.47553 0.02365 0.0
C945 C 0.06254 0.46702 0.05747 0.0
H946 H 0.04932 0.49541 0.96571 0.0
H947 H 0.01298 0.4855 0.02506 0.0
S948 S 0.15368 0.41401 0.06251 0.0
N949 N 0.15229 0.43221 0.01882 0.0
N950 N 0.11244 0.42596 0.08275 0.0
C951 C 0.0953 0.44452 0.05308 0.0
C952 C 0.11699 0.44879 0.01901 0.0
C953 C 0.82283 0.878 0.30314 0.0
C954 C 0.80983 0.88554 0.26575 0.0
C955 C 0.79782 0.86141 0.32924 0.0
C956 C 0.75971 0.85469 0.31855 0.0
H957 H 0.8532 0.87819 0.3099 0.0
H958 H 0.80862 0.85225 0.3569 0.0
S959 S 0.71069 0.88567 0.22938 0.0
N960 N 0.75513 0.90118 0.22535 0.0
N961 N 0.70922 0.86362 0.27111 0.0
C962 C 0.74549 0.86943 0.28404 0.0
C963 C 0.77032 0.88897 0.25923 0.0
C964 C 0.94479 0.07714 0.04945 0.0
C965 C 0.91139 0.07802 0.02682 0.0
C966 C 0.94506 0.05663 0.0833 0.0
C967 C 0.91239 0.03563 0.09243 0.0
H968 H 0.97162 0.08879 0.03899 0.0
H969 H 0.97253 0.05038 0.09658 0.0
S970 S 0.81389 0.05079 0.05769 0.0
N971 N 0.84186 0.07118 0.02529 0.0
N972 N 0.84282 0.03492 0.09173 0.0
C973 C 0.87694 0.04748 0.07792 0.0
C974 C 0.87648 0.06654 0.04244 0.0
C975 C 0.33418 0.64753 0.71704 0.0
C976 C 0.33263 0.62416 0.74969 0.0
C977 C 0.29988 0.66104 0.7018 0.0
C978 C 0.2652 0.64671 0.71584 0.0
H979 H 0.3603 0.6625 0.70958 0.0
H980 H 0.30041 0.68424 0.68123 0.0
S981 S 0.25151 0.56415 0.77956 0.0
N982 N 0.29808 0.57293 0.78099 0.0
N983 N 0.23292 0.59559 0.74973 0.0
C984 C 0.2652 0.61422 0.73892 0.0
C985 C 0.3 0.6019 0.75529 0.0
C986 C 0.15392 0.54116 0.49456 0.0
C987 C 0.13997 0.5786 0.4943 0.0
C988 C 0.1386 0.51451 0.4699 0.0
C989 C 0.1099 0.52456 0.44353 0.0
H990 H 0.17091 0.53063 0.51841 0.0
H991 H 0.14653 0.48531 0.47483 0.0
S992 S 0.07374 0.62205 0.42322 0.0
N993 N 0.1036 0.62734 0.45969 0.0
N994 N 0.07474 0.57599 0.41222 0.0
C995 C 0.10051 0.56314 0.43853 0.0
C996 C 0.11643 0.59075 0.46378 0.0
C997 C 0.37029 0.44685 0.9725 0.0
C998 C 0.36166 0.45804 0.01027 0.0
C999 C 0.39702 0.46829 0.95214 0.0
C1000 C 0.41049 0.50282 0.96765 0.0
H1001 H 0.36384 0.41812 0.96262 0.0
H1002 H 0.40748 0.45777 0.92485 0.0
S1003 S 0.37343 0.55265 0.05415 0.0
N1004 N 0.34846 0.51267 0.05132 0.0
N1005 N 0.4035 0.5513 0.01762 0.0
C1006 C 0.39297 0.51793 1.00065 0.0
C1007 C 0.36374 0.49705 0.01888 0.0
C1008 C 0.68963 0.71385 0.84027 0.0
C1009 C 0.6919 0.74525 0.86493 0.0
C1010 C 0.70807 0.68027 0.8507 0.0
C1011 C 0.73174 0.68038 0.88355 0.0
H1012 H 0.67865 0.71671 0.81131 0.0
H1013 H 0.71105 0.65824 0.82885 0.0
S1014 S 0.72687 0.74763 0.96505 0.0
N1015 N 0.70043 0.76719 0.93098 0.0
N1016 N 0.74333 0.70704 0.94676 0.0
C1017 C 0.72591 0.7077 0.91194 0.0
C1018 C 0.70389 0.74012 0.90305 0.0
C1019 C 0.55041 0.45029 0.12495 0.0
C1020 C 0.53876 0.43933 0.08799 0.0
C1021 C 0.5542 0.48908 0.13312 0.0
C1022 C 0.55196 0.51575 0.10339 0.0
H1023 H 0.54751 0.43059 0.14871 0.0
H1024 H 0.55829 0.49838 0.16253 0.0
S1025 S 0.54598 0.49477 0.99935 0.0
N1026 N 0.54151 0.45284 0.02029 0.0
N1027 N 0.55177 0.52645 0.03423 0.0
C1028 C 0.55013 0.50298 0.06517 0.0
C1029 C 0.54567 0.46365 0.05753 0.0
C1030 C 0.78667 0.32586 0.41182 0.0
C1031 C 0.77888 0.35652 0.38757 0.0
C1032 C 0.80861 0.29594 0.3972 0.0
C1033 C 0.82362 0.29844 0.35961 0.0
H1034 H 0.76888 0.32069 0.43675 0.0
H1035 H 0.8095 0.26935 0.41311 0.0
S1036 S 0.83378 0.38608 0.30196 0.0
N1037 N 0.8069 0.39853 0.33906 0.0
N1038 N 0.84466 0.34047 0.30843 0.0
C1039 C 0.82676 0.33418 0.34246 0.0
C1040 C 0.8065 0.36514 0.3591 0.0
C1041 C 0.98203 0.55814 0.52415 0.0
C1042 C 0.97967 0.59244 0.54472 0.0
C1043 C 0.97704 0.52405 0.54428 0.0
C1044 C 0.9623 0.52467 0.58193 0.0
H1045 H 0.99796 0.5572 0.49746 0.0
H1046 H 0.98631 0.49757 0.53114 0.0
S1047 S 0.92551 0.61054 0.63294 0.0
N1048 N 0.94398 0.62719 0.5928 0.0
N1049 N 0.9307 0.56344 0.63116 0.0
C1050 C 0.94788 0.55956 0.59642 0.0
C1051 C 0.9543 0.59379 0.57555 0.0
C1052 C 0.73585 0.32224 0.64712 0.0
C1053 C 0.76889 0.30792 0.66573 0.0
C1054 C 0.70044 0.32212 0.66586 0.0
C1055 C 0.69739 0.30238 0.70064 0.0
H1056 H 0.73722 0.33245 0.61782 0.0
H1057 H 0.67491 0.32865 0.64931 0.0
S1058 S 0.77555 0.28603 0.76965 0.0
N1059 N 0.79724 0.29234 0.728 0.0
N1060 N 0.72918 0.29133 0.76128 0.0
C1061 C 0.73017 0.30024 0.72341 0.0
C1062 C 0.76655 0.30006 0.70526 0.0
C1063 C 0.93155 0.45236 0.88083 0.0
C1064 C 0.93647 0.48812 0.86336 0.0
C1065 C 0.96364 0.43402 0.89591 0.0
C1066 C 1.00015 0.4492 0.88914 0.0
H1067 H 0.90353 0.44348 0.89083 0.0
H1068 H 0.95975 0.40977 0.91483 0.0
S1069 S 0.02458 0.52785 0.82228 0.0
N1070 N 0.97725 0.52678 0.8231 0.0
N1071 N 0.03871 0.49287 0.85078 0.0
C1072 C 1.00453 0.47804 0.86149 0.0
C1073 C 0.97163 0.4961 0.84635 0.0
C1074 C 0.80456 0.69183 0.176 0.0
C1075 C 0.81403 0.71423 0.20794 0.0
C1076 C 0.7697 0.69916 0.1576 0.0
C1077 C 0.74235 0.72415 0.17451 0.0
H1078 H 0.82684 0.67663 0.16039 0.0
H1079 H 0.76452 0.68615 0.12977 0.0
S1080 S 0.74682 0.76235 0.27371 0.0
N1081 N 0.78877 0.74112 0.26687 0.0
N1082 N 0.7225 0.75667 0.23338 0.0
C1083 C 0.74829 0.73611 0.21255 0.0
C1084 C 0.78363 0.72711 0.23083 0.0
C1085 C 0.58188 0.55643 0.3618 0.0
C1086 C 0.57075 0.5192 0.35141 0.0
C1087 C 0.55452 0.57925 0.38015 0.0
C1088 C 0.51615 0.56716 0.38082 0.0
H1089 H 0.61186 0.56298 0.36657 0.0
H1090 H 0.56373 0.60421 0.39623 0.0
S1091 S 0.47532 0.48769 0.32244 0.0
N1092 N 0.52219 0.48432 0.31665 0.0
N1093 N 0.46861 0.52505 0.35086 0.0
C1094 C 0.50502 0.53728 0.35583 0.0
C1095 C 0.53372 0.51533 0.33731 0.0
C1096 C 0.85785 0.75187 0.71185 0.0
C1097 C 0.84787 0.78353 0.73526 0.0
C1098 C 0.83424 0.71984 0.70966 0.0
C1099 C 0.80318 0.71706 0.73478 0.0
H1100 H 0.88416 0.75184 0.69525 0.0
H1101 H 0.84493 0.69453 0.69494 0.0
S1102 S 0.756 0.79643 0.78665 0.0
N1103 N 0.79786 0.81386 0.77353 0.0
N1104 N 0.75398 0.75254 0.7689 0.0
C1105 C 0.78797 0.75109 0.74994 0.0
C1106 C 0.81191 0.78375 0.75311 0.0
C1107 C 0.56234 0.58038 0.95397 0.0
C1108 C 0.58663 0.61103 0.96166 0.0
C1109 C 0.52323 0.58597 0.96142 0.0
C1110 C 0.50873 0.62349 0.9654 0.0
H1111 H 0.57403 0.55174 0.95199 0.0
H1112 H 0.50459 0.56156 0.96372 0.0
S1113 S 0.56248 0.71149 0.94201 0.0
N1114 N 0.59545 0.67736 0.94365 0.0
N1115 N 0.52082 0.69081 0.95105 0.0
C1116 C 0.53279 0.65404 0.95525 0.0
C1117 C 0.57261 0.64681 0.95041 0.0
C1118 C 0.63072 0.29423 0.17186 0.0
C1119 C 0.61304 0.25991 0.18323 0.0
C1120 C 0.65118 0.31448 0.19968 0.0
C1121 C 0.64777 0.30352 0.23828 0.0
H1122 H 0.63767 0.29915 0.14198 0.0
H1123 H 0.6714 0.33622 0.19086 0.0
S1124 S 0.57363 0.23814 0.27774 0.0
N1125 N 0.57089 0.23351 0.23074 0.0
N1126 N 0.60793 0.26967 0.28526 0.0
C1127 C 0.61776 0.27853 0.24866 0.0
C1128 C 0.59736 0.25945 0.21961 0.0
C1129 C 1.00944 0.45727 0.46489 0.0
C1130 C 0.01243 0.41718 0.46104 0.0
C1131 C 0.97418 0.47521 0.45697 0.0
C1132 C 0.94152 0.45204 0.45648 0.0
H1133 H 0.03361 0.47428 0.47421 0.0
H1134 H 0.97121 0.50569 0.46155 0.0
S1135 S 0.93853 0.35397 0.41809 0.0
N1136 N 0.98333 0.36021 0.43247 0.0
N1137 N 0.91648 0.39553 0.42483 0.0
C1138 C 0.94627 0.41677 0.43802 0.0
C1139 C 0.98195 0.39762 0.443 0.0
C1140 C 0.9161 0.31238 0.79598 0.0
C1141 C 0.88555 0.33685 0.78615 0.0
C1142 C 0.90906 0.28344 0.82203 0.0
C1143 C 0.8737 0.28275 0.84076 0.0
H1144 H 0.94095 0.30948 0.77747 0.0
H1145 H 0.9286 0.25931 0.82362 0.0
S1146 S 0.79962 0.35905 0.84408 0.0
N1147 N 0.82976 0.37192 0.80998 0.0
N1148 N 0.81741 0.31901 0.86202 0.0
C1149 C 0.85001 0.31536 0.84083 0.0
C1150 C 0.85659 0.34365 0.81309 0.0
C1151 C 0.95766 0.54784 0.05167 0.0
C1152 C 0.92651 0.5716 0.04459 0.0
C1153 C 0.99346 0.56467 0.05362 0.0
C1154 C 0.99739 0.60436 0.05835 0.0
H1155 H 0.95598 0.51753 0.04503 0.0
H1156 H 0.01828 0.54681 0.05053 0.0
S1157 S 0.91845 0.67467 0.0682 0.0
N1158 N 0.89722 0.63363 0.05788 0.0
N1159 N 0.9649 0.66501 0.07067 0.0
C1160 C 0.96445 0.62682 0.06326 0.0
C1161 C 0.92814 0.60978 0.05734 0.0
C1162 C 0.62636 0.70418 0.30571 0.0
C1163 C 0.64104 0.71923 0.2714 0.0
C1164 C 0.59961 0.72586 0.32667 0.0
C1165 C 0.59258 0.76379 0.31481 0.0
H1166 H 0.63542 0.67634 0.31608 0.0
H1167 H 0.59217 0.71681 0.35536 0.0
S1168 S 0.60551 0.80617 0.22172 0.0
N1169 N 0.63717 0.77116 0.22502 0.0
N1170 N 0.57712 0.80151 0.25924 0.0
C1171 C 0.5926 0.76957 0.27544 0.0
C1172 C 0.62403 0.75255 0.25629 0.0
C1173 C 0.57698 0.40687 0.5598 0.0
C1174 C 0.5639 0.41087 0.52209 0.0
C1175 C 0.55656 0.38404 0.58508 0.0
C1176 C 0.52149 0.36818 0.57288 0.0
H1177 H 0.60084 0.4236 0.57051 0.0
H1178 H 0.56292 0.38771 0.61524 0.0
S1179 S 0.486 0.35479 0.47515 0.0
N1180 N 0.51992 0.38744 0.47237 0.0
N1181 N 0.48712 0.33994 0.51996 0.0
C1182 C 0.5168 0.36098 0.53396 0.0
C1183 C 0.5347 0.38638 0.50843 0.0
C1184 C 0.71771 0.88528 0.70428 0.0
C1185 C 0.7549 0.88042 0.71853 0.0
C1186 C 0.69241 0.90894 0.72401 0.0
C1187 C 0.70378 0.92269 0.76033 0.0
H1188 H 0.70782 0.86961 0.67926 0.0
H1189 H 0.66244 0.90701 0.71608 0.0
S1190 S 0.80056 0.93535 0.79765 0.0
N1191 N 0.8038 0.90264 0.76353 0.0
N1192 N 0.75592 0.95107 0.7957 0.0
C1193 C 0.74247 0.93033 0.76553 0.0
C1194 C 0.76822 0.90455 0.748 0.0
C1195 C 0.19018 0.66936 0.28618 0.0
C1196 C 0.21429 0.67169 0.25372 0.0
C1197 C 0.1944 0.69504 0.31668 0.0
C1198 C 0.2254 0.72027 0.31643 0.0
H1199 H 0.17003 0.64604 0.28934 0.0
H1200 H 0.17975 0.68895 0.34338 0.0
S1201 S 0.28509 0.74846 0.23475 0.0
N1202 N 0.26164 0.71031 0.21972 0.0
N1203 N 0.26722 0.75877 0.27741 0.0
C1204 C 0.24014 0.73105 0.2807 0.0
C1205 C 0.23774 0.7043 0.2499 0.0
C1206 C 0.64209 0.95263 0.57769 0.0
C1207 C 0.64148 0.98997 0.56274 0.0
C1208 C 0.66283 0.92446 0.55799 0.0
C1209 C 0.67411 0.93348 0.5204 0.0
H1210 H 0.62468 0.94475 0.60213 0.0
H1211 H 0.65876 0.89494 0.56639 0.0
S1212 S 0.70567 0.02676 0.4861 0.0
N1213 N 0.67481 0.03568 0.5209 0.0
N1214 N 0.71147 0.97977 0.48553 0.0
C1215 C 0.68893 0.96996 0.51564 0.0
C1216 C 0.66886 0.99974 0.53442 0.0
C1217 C 0.32227 0.36919 0.78088 0.0
C1218 C 0.3076 0.34811 0.74956 0.0
C1219 C 0.32269 0.35272 0.81747 0.0
C1220 C 0.30229 0.3185 0.8225 0.0
H1221 H 0.33131 0.39863 0.7774 0.0
H1222 H 0.32885 0.37094 0.84193 0.0
S1223 S 0.29365 0.24321 0.74888 0.0
N1224 N 0.29624 0.28375 0.7247 0.0
N1225 N 0.29832 0.2548 0.79478 0.0
C1226 C 0.30335 0.29312 0.79151 0.0
C1227 C 0.30202 0.30867 0.75408 0.0
C1228 C 0.43631 0.56417 0.5577 0.0
C1229 C 0.46662 0.53777 0.55806 0.0
C1230 C 0.41213 0.56488 0.52581 0.0
C1231 C 0.42175 0.54387 0.4925 0.0
H1232 H 0.42607 0.5766 0.58436 0.0
H1233 H 0.38555 0.58112 0.52742 0.0
S1234 S 0.5154 0.49815 0.47288 0.0
N1235 N 0.51703 0.50978 0.51891 0.0
N1236 N 0.47298 0.51204 0.45712 0.0
C1237 C 0.45845 0.52768 0.48976 0.0
C1238 C 0.48238 0.52729 0.52262 0.0
C1239 C 0.82337 0.16305 0.19191 0.0
C1240 C 0.7885 0.14688 0.20343 0.0
C1241 C 0.85733 0.14821 0.20673 0.0
C1242 C 0.85387 0.12584 0.23985 0.0
H1243 H 0.82427 0.18869 0.17453 0.0
H1244 H 0.88358 0.16374 0.20112 0.0
S1245 S 0.77692 0.05904 0.26241 0.0
N1246 N 0.75782 0.09079 0.23285 0.0
N1247 N 0.82256 0.07043 0.26602 0.0
C1248 C 0.82382 0.1002 0.24108 0.0
C1249 C 0.78915 0.11202 0.22417 0.0
C1250 C 0.53022 0.04166 0.9886 0.0
C1251 C 0.5469 0.05347 0.95396 0.0
C1252 C 0.55501 0.03423 0.01947 0.0
C1253 C 0.59282 0.04843 0.0184 0.0
H1254 H 0.50235 0.02802 0.98837 0.0
H1255 H 0.5447 0.01777 0.04361 0.0
S1256 S 0.63231 0.1137 0.94431 0.0
N1257 N 0.59011 0.10031 0.92736 0.0
N1258 N 0.63698 0.09255 0.98644 0.0
C1259 C 0.60299 0.07369 0.98841 0.0
C1260 C 0.57757 0.07865 0.95706 0.0
C1261 C 0.86459 0.96541 0.45266 0.0
C1262 C 0.90097 0.97082 0.43616 0.0
C1263 C 0.86021 0.93778 0.48039 0.0
C1264 C 0.89081 0.91327 0.48783 0.0
H1265 H 0.84264 0.9872 0.45063 0.0
H1266 H 0.83558 0.93911 0.49936 0.0
S1267 S 0.98297 0.90348 0.43641 0.0
N1268 N 0.96244 0.94235 0.41884 0.0
N1269 N 0.95165 0.88568 0.46693 0.0
C1270 C 0.92217 0.91106 0.46273 0.0
C1271 C 0.92795 0.94124 0.43692 0.0
C1272 C 0.17329 0.27419 0.5168 0.0
C1273 C 0.14629 0.29952 0.49909 0.0
C1274 C 0.163 0.24511 0.54442 0.0
C1275 C 0.12483 0.23845 0.5572 0.0
H1276 H 0.20316 0.27617 0.50857 0.0
H1277 H 0.18525 0.22601 0.55438 0.0
S1278 S 0.04098 0.29194 0.51665 0.0
N1279 N 0.07787 0.3121 0.49505 0.0
N1280 N 0.0591 0.2589 0.54543 0.0
C1281 C 0.09726 0.26265 0.5387 0.0
C1282 C 0.10772 0.29248 0.51067 0.0
C1283 C 1.00139 0.8458 0.78246 0.0
C1284 C 0.03295 0.86763 0.79653 0.0
C1285 C 0.97419 0.85989 0.75435 0.0
C1286 C 0.97677 0.89657 0.73644 0.0
H1287 H 0.99764 0.81698 0.79312 0.0
H1288 H 0.95152 0.84076 0.74539 0.0
S1289 S 0.05477 0.96539 0.75998 0.0
N1290 N 0.06448 0.92887 0.78845 0.0
N1291 N 0.01564 0.95392 0.73586 0.0
C1292 C 1.00834 0.91857 0.75005 0.0
C1293 C 0.03545 0.90466 0.77951 0.0
C1294 C 0.42367 0.76643 0.02376 0.0
C1295 C 0.39845 0.77994 0.05316 0.0
C1296 C 0.41322 0.73781 0.99575 0.0
C1297 C 0.37628 0.72067 0.99397 0.0
H1298 H 0.45212 0.77857 0.0218 0.0
H1299 H 0.43426 0.72996 0.97423 0.0
S1300 S 0.29871 0.74298 0.06422 0.0
N1301 N 0.33412 0.771 0.07847 0.0
N1302 N 0.31475 0.71923 0.02634 0.0
C1303 C 0.35086 0.73329 0.02341 0.0
C1304 C 0.36171 0.76203 0.05245 0.0
C1305 C 0.51442 0.11432 0.30239 0.0
C1306 C 0.49131 0.14766 0.29598 0.0
C1307 C 0.54264 0.09998 0.27535 0.0
C1308 C 0.55049 0.11783 0.23948 0.0
H1309 H 0.51034 0.09842 0.32859 0.0
H1310 H 0.55841 0.07424 0.28274 0.0
S1311 S 0.49449 0.20125 0.20382 0.0
N1312 N 0.47748 0.19521 0.24755 0.0
N1313 N 0.52803 0.16829 0.19777 0.0
C1314 C 0.5269 0.15022 0.23216 0.0
C1315 C 0.49842 0.16492 0.25972 0.0
C1316 C 0.10159 0.75059 0.99088 0.0
C1317 C 0.12696 0.76361 0.96132 0.0
C1318 C 0.11122 0.72091 0.01852 0.0
C1319 C 0.14753 0.70172 0.01989 0.0
H1320 H 0.07358 0.76395 0.99323 0.0
H1321 H 0.09006 0.71392 0.04009 0.0
S1322 S 0.22538 0.72228 0.94965 0.0
N1323 N 0.19085 0.75191 0.93609 0.0
N1324 N 0.20876 0.69891 0.98718 0.0
C1325 C 0.17308 0.7143 0.99057 0.0
C1326 C 0.16302 0.74394 0.96196 0.0
C1327 C 0.47598 0.89187 0.25906 0.0
C1328 C 0.48899 0.88554 0.22057 0.0
C1329 C 0.50071 0.90245 0.291 0.0
C1330 C 0.54134 0.90729 0.2881 0.0
H1331 H 0.44568 0.88863 0.26483 0.0
H1332 H 0.48754 0.9061 0.31891 0.0
S1333 S 0.59193 0.89819 0.19386 0.0
N1334 N 0.54712 0.88765 0.18239 0.0
N1335 N 0.59233 0.90665 0.24061 0.0
C1336 C 0.55482 0.90164 0.24961 0.0
C1337 C 0.52944 0.89123 0.21689 0.0
C1338 C 0.36524 0.27356 0.4576 0.0
C1339 C 0.39835 0.24995 0.46274 0.0
C1340 C 0.35389 0.30317 0.48461 0.0
C1341 C 0.3748 0.31182 0.51886 0.0
H1342 H 0.34766 0.26919 0.43233 0.0
H1343 H 0.32806 0.31942 0.47854 0.0
S1344 S 0.45784 0.25347 0.55188 0.0
N1345 N 0.44827 0.23528 0.50915 0.0
N1346 N 0.42697 0.28884 0.55838 0.0
C1347 C 0.40674 0.28738 0.52508 0.0
C1348 C 0.41835 0.25746 0.49775 0.0
C1349 C 0.97982 0.10106 0.74902 0.0
C1350 C 0.96488 0.12911 0.77523 0.0
C1351 C 1.0092 0.10888 0.72058 0.0
C1352 C 0.02695 0.14538 0.71622 0.0
H1353 H 0.96917 0.07205 0.75092 0.0
H1354 H 0.01902 0.08539 0.70268 0.0
S1355 S 0.99932 0.22987 0.77627 0.0
N1356 N 0.97125 0.19583 0.79295 0.0
N1357 N 0.02522 0.21006 0.74187 0.0
C1358 C 0.01187 0.17364 0.74197 0.0
C1359 C 0.98163 0.1658 0.77038 0.0
C1360 C 0.23041 0.49263 0.12239 0.0
C1361 C 0.23917 0.53245 0.12072 0.0
C1362 C 0.25681 0.46381 0.13631 0.0
C1363 C 0.2949 0.47188 0.14882 0.0
H1364 H 0.20218 0.4834 0.11335 0.0
H1365 H 0.24719 0.43437 0.13671 0.0
S1366 S 0.33448 0.57099 0.14992 0.0
N1367 N 0.29032 0.57758 0.13374 0.0
N1368 N 0.33953 0.52444 0.15722 0.0
C1369 C 0.30441 0.51151 0.14662 0.0
C1370 C 0.27701 0.54112 0.13356 0.0
C1371 C 0.7707 0.02847 0.85372 0.0
C1372 C 0.80267 0.03822 0.87755 0.0
C1373 C 0.73983 1.00366 0.86552 0.0
C1374 C 0.73773 0.9863 0.90237 0.0
H1375 H 0.76898 0.04068 0.82524 0.0
H1376 H 0.7166 0.99873 0.84547 0.0
S1377 S 0.81427 0.99794 0.97588 0.0
N1378 N 0.82975 0.02508 0.94041 0.0
N1379 N 0.77274 0.98003 0.96201 0.0
C1380 C 0.76947 0.99531 0.92643 0.0
C1381 C 0.80125 0.02037 0.91432 0.0
C1382 C 0.76771 0.01862 0.40782 0.0
C1383 C 0.77053 0.05475 0.38882 0.0
C1384 C 0.73925 0.98982 0.39926 0.0
C1385 C 0.70963 0.99457 0.37157 0.0
H1386 H 0.78821 0.01208 0.43001 0.0
H1387 H 0.74095 0.96291 0.41452 0.0
S1388 S 0.69756 0.08552 0.31656 0.0
N1389 N 0.73655 0.09395 0.34233 0.0
N1390 N 0.68401 0.04139 0.32683 0.0
C1391 C 0.71106 0.031 0.35288 0.0
C1392 C 0.74057 0.06034 0.36136 0.0
C1393 C 0.77482 0.97121 0.16325 0.0
C1394 C 0.7722 0.94982 0.1283 0.0
C1395 C 0.7481 1.0015 0.17399 0.0
C1396 C 0.71628 0.01354 0.15097 0.0
H1397 H 0.79866 0.96533 0.18234 0.0
H1398 H 0.75295 0.01605 0.20075 0.0
S1399 S 0.69392 0.96587 0.05729 0.0
N1400 N 0.73293 0.94298 0.0715 0.0
N1401 N 0.68455 0.99804 0.0909 0.0
C1402 C 0.7132 0.9916 0.11634 0.0
C1403 C 0.74031 0.96088 0.10536 0.0
C1404 C 0.2566 0.49357 0.59387 0.0
C1405 C 0.27543 0.46634 0.61806 0.0
C1406 C 0.22357 0.51609 0.60588 0.0
C1407 C 0.20706 0.51381 0.64323 0.0
H1408 H 0.26766 0.49792 0.56521 0.0
H1409 H 0.21143 0.53635 0.58593 0.0
S1410 S 0.24396 0.4476 0.7187 0.0
N1411 N 0.27299 0.43951 0.68214 0.0
N1412 N 0.2131 0.48029 0.70379 0.0
C1413 C 0.22532 0.48636 0.66729 0.0
C1414 C 0.25847 0.4634 0.65512 0.0
C1415 C 0.23901 0.48473 0.36461 0.0
C1416 C 0.23979 0.46967 0.40265 0.0
C1417 C 0.26357 0.51546 0.35185 0.0
C1418 C 0.29152 0.53316 0.37591 0.0
H1419 H 0.21826 0.47336 0.34451 0.0
H1420 H 0.26038 0.52553 0.32267 0.0
S1421 S 0.30756 0.50348 0.47776 0.0
N1422 N 0.27266 0.47502 0.46352 0.0
N1423 N 0.31739 0.53108 0.44069 0.0
C1424 C 0.29274 0.51766 0.4138 0.0
C1425 C 0.26758 0.48681 0.42674 0.0
C1426 C 0.26428 0.50497 0.84836 0.0
C1427 C 0.22992 0.49469 0.86788 0.0
C1428 C 0.29042 0.53399 0.86201 0.0
C1429 C 0.28477 0.55502 0.89659 0.0
H1430 H 0.27143 0.49026 0.82189 0.0
H1431 H 0.31624 0.53916 0.84564 0.0
S1432 S 0.20543 0.53415 0.96463 0.0
N1433 N 0.19654 0.50528 0.92806 0.0
N1434 N 0.24436 0.55818 0.95296 0.0
C1435 C 0.25217 0.54325 0.91777 0.0
C1436 C 0.2254 0.51398 0.90376 0.0
C1437 C 0.60047 0.7704 0.01677 0.0
C1438 C 0.61787 0.7636 0.05312 0.0
C1439 C 0.6132 0.79907 0.99008 0.0
C1440 C 0.64439 0.82416 0.99749 0.0
H1441 H 0.57631 0.75299 1.0086 0.0
H1442 H 0.59843 0.80123 0.9628 0.0
S1443 S 0.69702 0.82507 0.09059 0.0
N1444 N 0.66647 0.7894 0.09586 0.0
N1445 N 0.68986 0.84217 0.04698 0.0
C1446 C 0.6613 0.81904 0.03431 0.0
C1447 C 0.64829 0.78957 0.06151 0.0
C1448 C 0.49 0.37651 0.31002 0.0
C1449 C 0.52784 0.36382 0.29985 0.0
C1450 C 0.45977 0.38447 0.28217 0.0
C1451 C 0.46478 0.381 0.24154 0.0
H1452 H 0.48349 0.38062 0.34013 0.0
H1453 H 0.43227 0.39435 0.29282 0.0
S1454 S 0.5587 0.35482 0.19776 0.0
N1455 N 0.56785 0.35218 0.24421 0.0
N1456 N 0.51304 0.36685 0.19376 0.0
C1457 C 0.50261 0.36949 0.23119 0.0
C1458 C 0.5331 0.36104 0.25936 0.0
C1459 C 0.91065 0.22761 0.48588 0.0
C1460 C 0.87109 0.2186 0.48035 0.0
C1461 C 0.92411 0.25665 0.5122 0.0
C1462 C 0.89936 0.27849 0.53647 0.0
H1463 H 0.93187 0.21267 0.46868 0.0
H1464 H 0.95465 0.262 0.51345 0.0
S1465 S 0.7928 0.26731 0.53512 0.0
N1466 N 0.80731 0.23581 0.50263 0.0
N1467 N 0.83199 0.28772 0.5522 0.0
C1468 C 0.85972 0.26929 0.53183 0.0
C1469 C 0.84593 0.24048 0.50413 0.0
C1470 C 0.96633 0.62338 0.75976 0.0
C1471 C 0.97648 0.63466 0.79784 0.0
C1472 C 0.99376 0.60993 0.73156 0.0
C1473 C 0.03403 0.60705 0.73854 0.0
H1474 H 0.9364 0.62471 0.75147 0.0
H1475 H 0.98308 0.60239 0.70336 0.0
S1476 S 0.07706 0.63033 0.83395 0.0
N1477 N 0.03106 0.63994 0.84062 0.0
N1478 N 0.08124 0.61529 0.78911 0.0
C1479 C 0.04444 0.61777 0.77673 0.0
C1480 C 0.01642 0.6311 0.80561 0.0
C1481 C 0.65997 0.27199 0.46899 0.0
C1482 C 0.62315 0.29029 0.47044 0.0
C1483 C 0.67307 0.24397 0.49686 0.0
C1484 C 0.65038 0.23148 0.52851 0.0
H1485 H 0.67945 0.27974 0.44615 0.0
H1486 H 0.70159 0.23201 0.49346 0.0
S1487 S 0.55504 0.27392 0.55116 0.0
N1488 N 0.56618 0.29455 0.51014 0.0
N1489 N 0.59078 0.24456 0.56137 0.0
C1490 C 0.61428 0.25032 0.53094 0.0
C1491 C 0.60086 0.27856 0.50262 0.0
C1492 C 0.01655 0.41696 0.70483 0.0
C1493 C 0.01057 0.37794 0.69409 0.0
C1494 C 0.04386 0.42894 0.73389 0.0
C1495 C 0.0683 0.40319 0.75467 0.0
H1496 H 0.99901 0.43882 0.69139 0.0
H1497 H 0.04535 0.45922 0.74049 0.0
S1498 S 0.06604 0.29764 0.73857 0.0
N1499 N 0.03322 0.31357 0.70824 0.0
N1500 N 0.0833 0.3357 0.76072 0.0
C1501 C 0.0629 0.36422 0.74386 0.0
C1502 C 0.0348 0.35192 0.71464 0.0
C1503 C 0.90132 0.78807 1.00409 0.0
C1504 C 0.86756 0.78566 0.02719 0.0
C1505 C 0.9116 0.75982 0.97518 0.0
C1506 C 0.88858 0.7272 0.96631 0.0
H1507 H 0.9207 0.81176 1.00885 0.0
H1508 H 0.93819 0.76364 0.95966 0.0
S1509 S 0.80034 0.7029 0.02089 0.0
N1510 N 0.81324 0.74422 0.03988 0.0
N1511 N 0.83179 0.69343 0.98671 0.0
C1512 C 0.85519 0.7243 0.98939 0.0
C1513 C 0.84501 0.75255 0.01905 0.0
C1514 C 0.49283 0.62276 0.21225 0.0
C1515 C 0.51 0.65989 0.21226 0.0
C1516 C 0.46505 0.61012 0.24079 0.0
C1517 C 0.4511 0.63335 0.272 0.0
H1518 H 0.50133 0.60261 0.19011 0.0
H1519 H 0.45451 0.5811 0.23833 0.0
S1520 S 0.48958 0.73123 0.29016 0.0
N1521 N 0.51177 0.71833 0.25035 0.0
N1522 N 0.46114 0.69534 0.3016 0.0
C1523 C 0.46855 0.67018 0.27272 0.0
C1524 C 0.49704 0.68296 0.24399 0.0
C1525 C 0.79291 1.00242 0.60158 0.0
C1526 C 0.81514 1.00344 0.63615 0.0
C1527 C 0.76388 0.03104 0.5915 0.0
C1528 C 0.75395 0.06375 0.61479 0.0
H1529 H 0.79695 0.97836 0.58228 0.0
H1530 H 0.7483 0.02674 0.565 0.0
S1531 S 0.80398 0.08274 0.70769 0.0
N1532 N 0.8244 0.04253 0.69303 0.0
N1533 N 0.77204 0.09442 0.67459 0.0
C1534 C 0.77648 0.06533 0.64903 0.0
C1535 C 0.80586 0.0362 0.65934 0.0
C1536 C 0.06663 0.52553 0.25935 0.0
C1537 C 0.10069 0.53879 0.24204 0.0
C1538 C 0.06572 0.49262 0.28252 0.0
C1539 C 0.09893 0.47069 0.29058 0.0
H1540 H 0.03962 0.53998 0.2537 0.0
H1541 H 0.0382 0.4844 0.29421 0.0
S1542 S 0.19678 0.49403 0.25512 0.0
N1543 N 0.16933 0.52775 0.2361 0.0
N1544 N 0.16803 0.46677 0.2809 0.0
C1545 C 0.13378 0.48447 0.27499 0.0
C1546 C 0.13459 0.51815 0.2507 0.0
C1547 C 0.71713 0.84161 0.53332 0.0
C1548 C 0.72188 0.84952 0.49409 0.0
C1549 C 0.74887 0.83984 0.55877 0.0
C1550 C 0.78734 0.84461 0.5463 0.0
H1551 H 0.68878 0.83531 0.54424 0.0
H1552 H 0.74317 0.83358 0.58865 0.0
S1553 S 0.8156 0.86099 0.44509 0.0
N1554 N 0.76826 0.86053 0.44358 0.0
N1555 N 0.82752 0.85467 0.49059 0.0
C1556 C 0.79239 0.85226 0.50699 0.0
C1557 C 0.75991 0.85507 0.48123 0.0
C1558 C 0.40495 0.51664 0.72816 0.0
C1559 C 0.4035 0.47801 0.7407 0.0
C1560 C 0.40861 0.54766 0.75408 0.0
C1561 C 0.41094 0.54124 0.79371 0.0
H1562 H 0.40646 0.52271 0.69772 0.0
H1563 H 0.41244 0.57629 0.7429 0.0
S1564 S 0.40125 0.44677 0.84178 0.0
N1565 N 0.39991 0.43613 0.79559 0.0
N1566 N 0.40554 0.49384 0.84452 0.0
C1567 C 0.4057 0.50318 0.8067 0.0
C1568 C 0.40227 0.47171 0.78023 0.0
C1569 C 0.77357 0.13787 0.977 0.0
C1570 C 0.80807 0.14661 0.99656 0.0
C1571 C 0.73812 0.13517 0.99663 0.0
C1572 C 0.7365 0.13917 0.03674 0.0
H1573 H 0.7735 0.1363 0.94606 0.0
H1574 H 0.71188 0.13285 0.98018 0.0
S1575 S 0.82023 0.15309 0.10104 0.0
N1576 N 0.83884 0.15499 0.05773 0.0
N1577 N 0.77394 0.145 0.09534 0.0
C1578 C 0.77174 0.14297 0.05652 0.0
C1579 C 0.80702 0.14812 0.03637 0.0
C1580 C 0.25215 0.06128 0.52236 0.0
C1581 C 0.2457 0.09384 0.54618 0.0
C1582 C 0.27444 0.06238 0.48863 0.0
C1583 C 0.29233 0.09605 0.47593 0.0
H1584 H 0.23952 0.03395 0.52947 0.0
H1585 H 0.27824 0.03598 0.4726 0.0
S1586 S 0.28625 0.19005 0.52601 0.0
N1587 N 0.25948 0.16172 0.55281 0.0
N1588 N 0.30261 0.16333 0.49036 0.0
C1589 C 0.28631 0.12916 0.49883 0.0
C1590 C 0.26297 0.12817 0.53346 0.0
C1591 C 0.16651 0.95483 0.75009 0.0
C1592 C 0.16664 0.9698 0.78788 0.0
C1593 C 0.16296 0.97873 0.71766 0.0
C1594 C 0.15843 0.01852 0.72176 0.0
H1595 H 0.17161 0.92451 0.74549 0.0
H1596 H 0.16656 0.96634 0.68934 0.0
S1597 S 0.15653 0.07192 0.8142 0.0
N1598 N 0.16155 0.02675 0.82722 0.0
N1599 N 0.15315 0.07155 0.76689 0.0
C1600 C 0.15598 0.0334 0.75953 0.0
C1601 C 0.16049 0.00915 0.79244 0.0
C1602 C 0.26843 0.88152 0.986 0.0
C1603 C 0.23615 0.90475 0.97827 0.0
C1604 C 0.28563 0.88039 0.02316 0.0
C1605 C 0.27096 0.90237 0.05425 0.0
H1606 H 0.28186 0.86627 0.96262 0.0
H1607 H 0.31206 0.86433 0.0268 0.0
S1608 S 0.18609 0.96637 0.05037 0.0
N1609 N 0.19017 0.94937 1.00635 0.0
N1610 N 0.22116 0.94615 0.07486 0.0
C1611 C 0.23779 0.92403 0.04721 0.0
C1612 C 0.2209 0.92565 1.00974 0.0
C1613 C 0.35847 0.98837 0.30088 0.0
C1614 C 0.37228 0.026 0.30172 0.0
C1615 C 0.35425 0.96844 0.266 0.0
C1616 C 0.36217 0.98566 0.23013 0.0
H1617 H 0.34818 0.97524 0.32703 0.0
H1618 H 0.34219 0.93998 0.26705 0.0
S1619 S 0.40007 0.08355 0.21712 0.0
N1620 N 0.39671 0.07888 0.2641 0.0
N1621 N 0.38503 0.04269 0.19855 0.0
C1622 C 0.37757 0.02264 0.23082 0.0
C1623 C 0.38351 0.04241 0.26657 0.0
C1624 C 0.47891 0.2339 0.10925 0.0
C1625 C 0.48058 0.27256 0.09798 0.0
C1626 C 0.5123 0.21014 0.10914 0.0
C1627 C 0.54901 0.22398 0.09854 0.0
H1628 H 0.45148 0.22139 0.11634 0.0
H1629 H 0.50904 0.18008 0.11599 0.0
S1630 S 0.56965 0.32334 0.06849 0.0
N1631 N 0.52311 0.32369 0.07744 0.0
N1632 N 0.58453 0.27922 0.07723 0.0
C1633 C 0.55117 0.26269 0.08838 0.0
C1634 C 0.51745 0.28681 0.08831 0.0
C1635 C 0.99669 0.26166 0.87962 0.0
C1636 C 0.97138 0.26088 0.91129 0.0
C1637 C 0.03123 0.28344 0.8799 0.0
C1638 C 0.04335 0.30407 0.91277 0.0
H1639 H 0.99132 0.24284 0.85567 0.0
H1640 H 0.04933 0.28277 0.85472 0.0
S1641 S 0.98613 0.31366 1.00276 0.0
N1642 N 0.95988 0.28551 0.97527 0.0
N1643 N 0.02437 0.32425 0.9771 0.0
C1644 C 0.01727 0.30476 0.94402 0.0
C1645 C 0.9817 0.28389 0.94296 0.0
C1646 C 0.99301 0.75578 0.13567 0.0
C1647 C 0.99759 0.78689 0.16144 0.0
C1648 C 0.01571 0.72185 0.13855 0.0
C1649 C 0.04314 0.71691 0.16801 0.0
H1650 H 0.96994 0.75651 0.11481 0.0
H1651 H 0.01063 0.69866 0.11864 0.0
S1652 S 0.07077 0.79253 0.23849 0.0
N1653 N 0.03517 0.81209 0.21405 0.0
N1654 N 0.07704 0.74941 0.21988 0.0
C1655 C 0.04963 0.74906 0.1921 0.0
C1656 C 0.02712 0.78353 0.18872 0.0
C1657 C 0.54388 0.74025 0.42122 0.0
C1658 C 0.53742 0.77974 0.41703 0.0
C1659 C 0.51286 0.71437 0.42385 0.0
C1660 C 0.47406 0.72689 0.42335 0.0
H1661 H 0.57288 0.72954 0.42479 0.0
H1662 H 0.51934 0.68427 0.42797 0.0
S1663 S 0.44208 0.8278 0.41505 0.0
N1664 N 0.4893 0.83004 0.41203 0.0
N1665 N 0.43175 0.7819 0.41968 0.0
C1666 C 0.46739 0.76615 0.41836 0.0
C1667 C 0.49884 0.79233 0.41462 0.0
C1668 C 0.97209 0.72828 0.61945 0.0
C1669 C 0.96599 0.76413 0.6371 0.0
C1670 C 1.00873 0.71108 0.61836 0.0
C1671 C 0.0413 0.72902 0.6344 0.0
H1672 H 0.94913 0.71514 0.60313 0.0
H1673 H 0.01206 0.68458 0.60244 0.0
S1674 S 0.04034 0.8202 0.68865 0.0
N1675 N 0.99526 0.8147 0.67503 0.0
N1676 N 0.06411 0.78262 0.67203 0.0
C1677 C 0.03518 0.76309 0.65496 0.0
C1678 C 0.99756 0.78044 0.65664 0.0
C1679 C 0.0223 0.27934 0.39081 0.0
C1680 C 0.04451 0.28764 0.35802 0.0
C1681 C 1.0013 0.24473 0.39394 0.0
C1682 C 1.00285 0.216 0.36523 0.0
H1683 H 0.01969 0.30035 0.41342 0.0
H1684 H 0.98082 0.24216 0.41716 0.0
S1685 S 0.06633 0.21761 0.28 0.0
N1686 N 0.0731 0.25974 0.30046 0.0
N1687 N 0.03512 0.19515 0.30739 0.0
C1688 C 0.02944 0.22166 0.3355 0.0
C1689 C 0.04964 0.25722 0.33148 0.0
C1690 C 0.49042 0.75677 0.89035 0.0
C1691 C 0.50241 0.72412 0.86916 0.0
C1692 C 0.51074 0.79199 0.88868 0.0
C1693 C 0.54264 0.79653 0.86431 0.0
H1694 H 0.46392 0.75579 0.90654 0.0
H1695 H 0.50032 0.8161 0.90498 0.0
S1696 S 0.58909 0.71755 0.80848 0.0
N1697 N 0.55108 0.69734 0.82772 0.0
N1698 N 0.58834 0.76244 0.82343 0.0
C1699 C 0.55625 0.76294 0.84551 0.0
C1700 C 0.53624 0.72729 0.84795 0.0
C1701 C 0.63588 0.01675 0.73145 0.0
C1702 C 0.62137 0.05365 0.74028 0.0
C1703 C 0.62816 0.98493 0.75483 0.0
C1704 C 0.60717 0.98874 0.78873 0.0
H1705 H 0.64915 0.01151 0.70378 0.0
H1706 H 0.63557 0.95685 0.74476 0.0
S1707 S 0.56887 0.08014 0.82873 0.0
N1708 N 0.58805 0.0926 0.78729 0.0
N1709 N 0.57668 0.03364 0.83304 0.0
C1710 C 0.59591 0.02616 0.79992 0.0
C1711 C 0.60256 0.05837 0.77545 0.0
C1712 C 0.27954 0.31522 1.00078 0.0
C1713 C 0.29473 0.34685 0.02075 0.0
C1714 C 0.24558 0.31763 0.97938 0.0
C1715 C 0.22498 0.35231 0.9748 0.0
H1716 H 0.29276 0.28721 1.00378 0.0
H1717 H 0.23549 0.29134 0.96635 0.0
S1718 S 0.25578 0.44597 0.01543 0.0
N1719 N 0.28752 0.41515 0.03268 0.0
N1720 N 0.22659 0.42092 0.98767 0.0
C1721 C 0.24169 0.38527 0.99164 0.0
C1722 C 0.27574 0.38233 0.01547 0.0
C1723 C 0.89679 0.99681 0.22278 0.0
C1724 C 0.91062 0.96127 0.23697 0.0
C1725 C 0.89956 0.0315 0.24434 0.0
C1726 C 0.91574 0.03235 0.2815 0.0
H1727 H 0.88613 0.99835 0.1936 0.0
H1728 H 0.89131 0.05793 0.23067 0.0
S1729 S 0.95759 0.94701 0.33069 0.0
N1730 N 0.94214 0.92965 0.28953 0.0
N1731 N 0.9462 0.99294 0.33063 0.0
C1732 C 0.92888 0.99646 0.29591 0.0
C1733 C 0.92652 0.96163 0.27373 0.0
C1734 C 0.25879 0.69353 0.56113 0.0
C1735 C 0.2312 0.66407 0.56344 0.0
C1736 C 0.29185 0.69037 0.53769 0.0
C1737 C 0.29966 0.65761 0.51483 0.0
H1738 H 0.25446 0.71999 0.57688 0.0
H1739 H 0.31002 0.71531 0.53501 0.0
S1740 S 0.24101 0.57004 0.51363 0.0
N1741 N 0.21774 0.59857 0.54367 0.0
N1742 N 0.27863 0.59404 0.49867 0.0
C1743 C 0.27402 0.62708 0.51871 0.0
C1744 C 0.24028 0.63 0.54288 0.0
C1745 C 0.71921 0.6339 0.01404 0.0
C1746 C 0.73382 0.6225 0.05027 0.0
C1747 C 0.73905 0.62584 0.97928 0.0
C1748 C 0.77462 0.6066 0.97934 0.0
H1749 H 0.69068 0.64627 0.01225 0.0
H1750 H 0.72533 0.63251 0.95226 0.0
S1751 S 0.8252 0.5709 0.0665 0.0
N1752 N 0.78574 0.59089 0.08353 0.0
N1753 N 0.82367 0.57743 0.01963 0.0
C1754 C 0.78998 0.59663 0.01567 0.0
C1755 C 0.76959 0.60424 0.05064 0.0
C1756 C 0.65315 0.53581 0.29116 0.0
C1757 C 0.64306 0.49751 0.28444 0.0
C1758 C 0.65591 0.56218 0.26054 0.0
C1759 C 0.64981 0.55121 0.22176 0.0
H1760 H 0.66196 0.54474 0.3196 0.0
H1761 H 0.66503 0.5911 0.26711 0.0
S1762 S 0.62577 0.4534 0.18886 0.0
N1763 N 0.62649 0.45012 0.23606 0.0
N1764 N 0.6347 0.49875 0.17893 0.0
C1765 C 0.63861 0.51338 0.21486 0.0
C1766 C 0.63446 0.48692 0.24606 0.0
C1767 C 0.75844 0.39472 0.53393 0.0
C1768 C 0.79049 0.41912 0.53563 0.0
C1769 C 0.73399 0.39425 0.50124 0.0
C1770 C 0.74115 0.41733 0.46863 0.0
H1771 H 0.75091 0.37773 0.55871 0.0
H1772 H 0.70772 0.37784 0.50267 0.0
S1773 S 0.82457 0.48083 0.45553 0.0
N1774 N 0.83024 0.46318 0.49906 0.0
N1775 N 0.78468 0.4617 0.43885 0.0
C1776 C 0.77458 0.43919 0.46891 0.0
C1777 C 0.7991 0.44015 0.50195 0.0
C1778 C 0.86473 0.46306 0.75122 0.0
C1779 C 0.86398 0.48038 0.71444 0.0
C1780 C 0.86221 0.48488 0.78543 0.0
C1781 C 0.85951 0.52495 0.78403 0.0
H1782 H 0.86465 0.43213 0.75347 0.0
H1783 H 0.85951 0.47023 0.81264 0.0
S1784 S 0.85736 0.5843 0.69591 0.0
N1785 N 0.86077 0.53997 0.67947 0.0
N1786 N 0.85871 0.58111 0.74308 0.0
C1787 C 0.86189 0.54255 0.74757 0.0
C1788 C 0.86334 0.52034 0.71294 0.0
C1789 C 0.46699 0.2566 0.66458 0.0
C1790 C 0.48248 0.29406 0.66241 0.0
C1791 C 0.49019 0.22309 0.66244 0.0
C1792 C 0.53012 0.22535 0.65709 0.0
H1793 H 0.43672 0.25304 0.66962 0.0
H1794 H 0.47702 0.19544 0.66699 0.0
S1795 S 0.58588 0.31536 0.65121 0.0
N1796 N 0.54106 0.33029 0.65619 0.0
N1797 N 0.58411 0.26818 0.65002 0.0
C1798 C 0.54574 0.26243 0.65349 0.0
C1799 C 0.52225 0.29644 0.65659 0.0
loop_
_geom_bond_atom_site_label_1
_geom_bond_atom_site_label_2
_geom_bond_distance
_geom_bond_site_symmetry_2
_ccdc_geom_bond_type
C0 O27 1.312 . S
C0 O28 1.208 . S
C1 O22 1.331 . S
C1 O25 1.244 . S
C2 O24 1.264 . S
C2 O26 1.273 . S
Mg3 O5 1.936 . S
Mg3 O12 2.081 . S
Mg3 O14 2.023 . S
Mg3 O18 2.031 . S
Mg3 O27 2.291 . S
Mg4 O5 1.963 . S
Mg4 O15 1.942 . S
Mg4 O16 1.955 . S
Mg4 O23 1.986 . S
O5 Mg3 1.936 . S
O5 Mg4 1.963 . S
O5 Mg6 1.915 . S
Mg6 O5 1.915 . S
Mg6 O7 1.915 . S
Mg6 O11 2.013 . S
Mg6 O17 2.114 . S
Mg6 O21 2.013 . S
Mg6 O27 2.114 . S
O7 Mg6 1.915 . S
O7 Mg8 1.936 . S
O7 Mg9 1.963 . S
Mg8 O7 1.936 . S
Mg8 O17 2.291 . S
Mg8 O22 2.081 . S
Mg8 O24 2.023 . S
Mg8 O28 2.031 . S
Mg9 O7 1.963 . S
Mg9 O13 1.986 . S
Mg9 O25 1.942 . S
Mg9 O26 1.955 . S
C10 O21 1.191 . S
C10 O23 1.307 . S
O11 Mg6 2.013 . S
O11 C30 1.191 . S
O12 Mg3 2.081 . S
O12 C20 1.331 . S
O13 Mg9 1.986 . S
O13 C30 1.307 . S
O14 Mg3 2.023 . S
O14 C29 1.264 . S
O15 Mg4 1.942 . S
O15 C20 1.244 . S
O16 Mg4 1.955 . S
O16 C29 1.273 . S
O17 Mg6 2.114 . S
O17 Mg8 2.291 . S
O17 C19 1.312 . S
O18 Mg3 2.031 . S
O18 C19 1.208 . S
C19 O17 1.312 . S
C19 O18 1.208 . S
C20 O12 1.331 . S
C20 O15 1.244 . S
O21 Mg6 2.013 . S
O21 C10 1.191 . S
O22 C1 1.331 . S
O22 Mg8 2.081 . S
O23 Mg4 1.986 . S
O23 C10 1.307 . S
O24 C2 1.264 . S
O24 Mg8 2.023 . S
O25 C1 1.244 . S
O25 Mg9 1.942 . S
O26 C2 1.273 . S
O26 Mg9 1.955 . S
O27 C0 1.312 . S
O27 Mg3 2.291 . S
O27 Mg6 2.114 . S
O28 C0 1.208 . S
O28 Mg8 2.031 . S
C29 O14 1.264 . S
C29 O16 1.273 . S
C30 O11 1.191 . S
C30 O13 1.307 . S
C31 O58 1.312 . S
C31 O59 1.208 . S
C32 O53 1.331 . S
C32 O56 1.244 . S
C33 O55 1.264 . S
C33 O57 1.273 . S
Mg34 O36 1.936 . S
Mg34 O43 2.081 . S
Mg34 O45 2.023 . S
Mg34 O49 2.031 . S
Mg34 O58 2.291 . S
Mg35 O36 1.963 . S
Mg35 O46 1.942 . S
Mg35 O47 1.955 . S
Mg35 O54 1.986 . S
O36 Mg34 1.936 . S
O36 Mg35 1.963 . S
O36 Mg37 1.915 . S
Mg37 O36 1.915 . S
Mg37 O38 1.915 . S
Mg37 O42 2.013 . S
Mg37 O48 2.114 . S
Mg37 O52 2.013 . S
Mg37 O58 2.114 . S
O38 Mg37 1.915 . S
O38 Mg39 1.936 . S
O38 Mg40 1.963 . S
Mg39 O38 1.936 . S
Mg39 O48 2.291 . S
Mg39 O53 2.081 . S
Mg39 O55 2.023 . S
Mg39 O59 2.031 . S
Mg40 O38 1.963 . S
Mg40 O44 1.986 . S
Mg40 O56 1.942 . S
Mg40 O57 1.955 . S
C41 O52 1.191 . S
C41 O54 1.307 . S
O42 Mg37 2.013 . S
O42 C61 1.191 . S
O43 Mg34 2.081 . S
O43 C51 1.331 . S
O44 Mg40 1.986 . S
O44 C61 1.307 . S
O45 Mg34 2.023 . S
O45 C60 1.264 . S
O46 Mg35 1.942 . S
O46 C51 1.244 . S
O47 Mg35 1.955 . S
O47 C60 1.273 . S
O48 Mg37 2.114 . S
O48 Mg39 2.291 . S
O48 C50 1.312 . S
O49 Mg34 2.031 . S
O49 C50 1.208 . S
C50 O48 1.312 . S
C50 O49 1.208 . S
C51 O43 1.331 . S
C51 O46 1.244 . S
O52 Mg37 2.013 . S
O52 C41 1.191 . S
O53 C32 1.331 . S
O53 Mg39 2.081 . S
O54 Mg35 1.986 . S
O54 C41 1.307 . S
O55 C33 1.264 . S
O55 Mg39 2.023 . S
O56 C32 1.244 . S
O56 Mg40 1.942 . S
O57 C33 1.273 . S
O57 Mg40 1.955 . S
O58 C31 1.312 . S
O58 Mg34 2.291 . S
O58 Mg37 2.114 . S
O59 C31 1.208 . S
O59 Mg39 2.031 . S
C60 O45 1.264 . S
C60 O47 1.273 . S
C61 O42 1.191 . S
C61 O44 1.307 . S
C62 O89 1.312 . S
C62 O90 1.208 . S
C63 O84 1.331 . S
C63 O87 1.244 . S
C64 O86 1.264 . S
C64 O88 1.273 . S
Mg65 O67 1.936 . S
Mg65 O74 2.081 . S
Mg65 O76 2.023 . S
Mg65 O80 2.031 . S
Mg65 O89 2.291 . S
Mg66 O67 1.963 . S
Mg66 O77 1.942 . S
Mg66 O78 1.955 . S
Mg66 O85 1.986 . S
O67 Mg65 1.936 . S
O67 Mg66 1.963 . S
O67 Mg68 1.915 . S
Mg68 O67 1.915 . S
Mg68 O69 1.915 . S
Mg68 O73 2.013 . S
Mg68 O79 2.114 . S
Mg68 O83 2.013 . S
Mg68 O89 2.114 . S
O69 Mg68 1.915 . S
O69 Mg70 1.936 . S
O69 Mg71 1.963 . S
Mg70 O69 1.936 . S
Mg70 O79 2.291 . S
Mg70 O84 2.081 . S
Mg70 O86 2.023 . S
Mg70 O90 2.031 . S
Mg71 O69 1.963 . S
Mg71 O75 1.986 . S
Mg71 O87 1.942 . S
Mg71 O88 1.955 . S
C72 O83 1.191 . S
C72 O85 1.307 . S
O73 Mg68 2.013 . S
O73 C92 1.191 . S
O74 Mg65 2.081 . S
O74 C82 1.331 . S
O75 Mg71 1.986 . S
O75 C92 1.307 . S
O76 Mg65 2.023 . S
O76 C91 1.264 . S
O77 Mg66 1.942 . S
O77 C82 1.244 . S
O78 Mg66 1.955 . S
O78 C91 1.273 . S
O79 Mg68 2.114 . S
O79 Mg70 2.291 . S
O79 C81 1.312 . S
O80 Mg65 2.031 . S
O80 C81 1.208 . S
C81 O79 1.312 . S
C81 O80 1.208 . S
C82 O74 1.331 . S
C82 O77 1.244 . S
O83 Mg68 2.013 . S
O83 C72 1.191 . S
O84 C63 1.331 . S
O84 Mg70 2.081 . S
O85 Mg66 1.986 . S
O85 C72 1.307 . S
O86 C64 1.264 . S
O86 Mg70 2.023 . S
O87 C63 1.244 . S
O87 Mg71 1.942 . S
O88 C64 1.273 . S
O88 Mg71 1.955 . S
O89 C62 1.312 . S
O89 Mg65 2.291 . S
O89 Mg68 2.114 . S
O90 C62 1.208 . S
O90 Mg70 2.031 . S
C91 O76 1.264 . S
C91 O78 1.273 . S
C92 O73 1.191 . S
C92 O75 1.307 . S
C93 O120 1.312 . S
C93 O121 1.208 . S
C94 O115 1.331 . S
C94 O118 1.244 . S
C95 O117 1.264 . S
C95 O119 1.273 . S
Mg96 O98 1.936 . S
Mg96 O105 2.081 . S
Mg96 O107 2.023 . S
Mg96 O111 2.031 . S
Mg96 O120 2.291 . S
Mg97 O98 1.963 . S
Mg97 O108 1.942 . S
Mg97 O109 1.955 . S
Mg97 O116 1.986 . S
O98 Mg96 1.936 . S
O98 Mg97 1.963 . S
O98 Mg99 1.915 . S
Mg99 O98 1.915 . S
Mg99 O100 1.915 . S
Mg99 O104 2.013 . S
Mg99 O110 2.114 . S
Mg99 O114 2.013 . S
Mg99 O120 2.114 . S
O100 Mg99 1.915 . S
O100 Mg101 1.936 . S
O100 Mg102 1.963 . S
Mg101 O100 1.936 . S
Mg101 O110 2.291 . S
Mg101 O115 2.081 . S
Mg101 O117 2.023 . S
Mg101 O121 2.031 . S
Mg102 O100 1.963 . S
Mg102 O106 1.986 . S
Mg102 O118 1.942 . S
Mg102 O119 1.955 . S
C103 O114 1.191 . S
C103 O116 1.307 . S
O104 Mg99 2.013 . S
O104 C123 1.191 . S
O105 Mg96 2.081 . S
O105 C113 1.331 . S
O106 Mg102 1.986 . S
O106 C123 1.307 . S
O107 Mg96 2.023 . S
O107 C122 1.264 . S
O108 Mg97 1.942 . S
O108 C113 1.244 . S
O109 Mg97 1.955 . S
O109 C122 1.273 . S
O110 Mg99 2.114 . S
O110 Mg101 2.291 . S
O110 C112 1.312 . S
O111 Mg96 2.031 . S
O111 C112 1.208 . S
C112 O110 1.312 . S
C112 O111 1.208 . S
C113 O105 1.331 . S
C113 O108 1.244 . S
O114 Mg99 2.013 . S
O114 C103 1.191 . S
O115 C94 1.331 . S
O115 Mg101 2.081 . S
O116 Mg97 1.986 . S
O116 C103 1.307 . S
O117 C95 1.264 . S
O117 Mg101 2.023 . S
O118 C94 1.244 . S
O118 Mg102 1.942 . S
O119 C95 1.273 . S
O119 Mg102 1.955 . S
O120 C93 1.312 . S
O120 Mg96 2.291 . S
O120 Mg99 2.114 . S
O121 C93 1.208 . S
O121 Mg101 2.031 . S
C122 O107 1.264 . S
C122 O109 1.273 . S
C123 O104 1.191 . S
C123 O106 1.307 . S
C124 O151 1.312 . S
C124 O152 1.208 . S
C125 O146 1.331 . S
C125 O149 1.244 . S
C126 O148 1.264 . S
C126 O150 1.273 . S
Mg127 O129 1.936 . S
Mg127 O136 2.081 . S
Mg127 O138 2.023 . S
Mg127 O142 2.031 . S
Mg127 O151 2.291 . S
Mg128 O129 1.963 . S
Mg128 O139 1.942 . S
Mg128 O140 1.955 . S
Mg128 O147 1.986 . S
O129 Mg127 1.936 . S
O129 Mg128 1.963 . S
O129 Mg130 1.915 . S
Mg130 O129 1.915 . S
Mg130 O131 1.915 . S
Mg130 O135 2.013 . S
Mg130 O141 2.114 . S
Mg130 O145 2.013 . S
Mg130 O151 2.114 . S
O131 Mg130 1.915 . S
O131 Mg132 1.936 . S
O131 Mg133 1.963 . S
Mg132 O131 1.936 . S
Mg132 O141 2.291 . S
Mg132 O146 2.081 . S
Mg132 O148 2.023 . S
Mg132 O152 2.031 . S
Mg133 O131 1.963 . S
Mg133 O137 1.986 . S
Mg133 O149 1.942 . S
Mg133 O150 1.955 . S
C134 O145 1.191 . S
C134 O147 1.307 . S
O135 Mg130 2.013 . S
O135 C154 1.191 . S
O136 Mg127 2.081 . S
O136 C144 1.331 . S
O137 Mg133 1.986 . S
O137 C154 1.307 . S
O138 Mg127 2.023 . S
O138 C153 1.264 . S
O139 Mg128 1.942 . S
O139 C144 1.244 . S
O140 Mg128 1.955 . S
O140 C153 1.273 . S
O141 Mg130 2.114 . S
O141 Mg132 2.291 . S
O141 C143 1.312 . S
O142 Mg127 2.031 . S
O142 C143 1.208 . S
C143 O141 1.312 . S
C143 O142 1.208 . S
C144 O136 1.331 . S
C144 O139 1.244 . S
O145 Mg130 2.013 . S
O145 C134 1.191 . S
O146 C125 1.331 . S
O146 Mg132 2.081 . S
O147 Mg128 1.986 . S
O147 C134 1.307 . S
O148 C126 1.264 . S
O148 Mg132 2.023 . S
O149 C125 1.244 . S
O149 Mg133 1.942 . S
O150 C126 1.273 . S
O150 Mg133 1.955 . S
O151 C124 1.312 . S
O151 Mg127 2.291 . S
O151 Mg130 2.114 . S
O152 C124 1.208 . S
O152 Mg132 2.031 . S
C153 O138 1.264 . S
C153 O140 1.273 . S
C154 O135 1.191 . S
C154 O137 1.307 . S
C155 O182 1.312 . S
C155 O183 1.208 . S
C156 O177 1.331 . S
C156 O180 1.244 . S
C157 O179 1.264 . S
C157 O181 1.273 . S
Mg158 O160 1.936 . S
Mg158 O167 2.081 . S
Mg158 O169 2.023 . S
Mg158 O173 2.031 . S
Mg158 O182 2.291 . S
Mg159 O160 1.963 . S
Mg159 O170 1.942 . S
Mg159 O171 1.955 . S
Mg159 O178 1.986 . S
O160 Mg158 1.936 . S
O160 Mg159 1.963 . S
O160 Mg161 1.915 . S
Mg161 O160 1.915 . S
Mg161 O162 1.915 . S
Mg161 O166 2.013 . S
Mg161 O172 2.114 . S
Mg161 O176 2.013 . S
Mg161 O182 2.114 . S
O162 Mg161 1.915 . S
O162 Mg163 1.936 . S
O162 Mg164 1.963 . S
Mg163 O162 1.936 . S
Mg163 O172 2.291 . S
Mg163 O177 2.081 . S
Mg163 O179 2.023 . S
Mg163 O183 2.031 . S
Mg164 O162 1.963 . S
Mg164 O168 1.986 . S
Mg164 O180 1.942 . S
Mg164 O181 1.955 . S
C165 O176 1.191 . S
C165 O178 1.307 . S
O166 Mg161 2.013 . S
O166 C185 1.191 . S
O167 Mg158 2.081 . S
O167 C175 1.331 . S
O168 Mg164 1.986 . S
O168 C185 1.307 . S
O169 Mg158 2.023 . S
O169 C184 1.264 . S
O170 Mg159 1.942 . S
O170 C175 1.244 . S
O171 Mg159 1.955 . S
O171 C184 1.273 . S
O172 Mg161 2.114 . S
O172 Mg163 2.291 . S
O172 C174 1.312 . S
O173 Mg158 2.031 . S
O173 C174 1.208 . S
C174 O172 1.312 . S
C174 O173 1.208 . S
C175 O167 1.331 . S
C175 O170 1.244 . S
O176 Mg161 2.013 . S
O176 C165 1.191 . S
O177 C156 1.331 . S
O177 Mg163 2.081 . S
O178 Mg159 1.986 . S
O178 C165 1.307 . S
O179 C157 1.264 . S
O179 Mg163 2.023 . S
O180 C156 1.244 . S
O180 Mg164 1.942 . S
O181 C157 1.273 . S
O181 Mg164 1.955 . S
O182 C155 1.312 . S
O182 Mg158 2.291 . S
O182 Mg161 2.114 . S
O183 C155 1.208 . S
O183 Mg163 2.031 . S
C184 O169 1.264 . S
C184 O171 1.273 . S
C185 O166 1.191 . S
C185 O168 1.307 . S
C186 O213 1.312 . S
C186 O214 1.208 . S
C187 O208 1.331 . S
C187 O211 1.244 . S
C188 O210 1.264 . S
C188 O212 1.273 . S
Mg189 O191 1.936 . S
Mg189 O198 2.081 . S
Mg189 O200 2.023 . S
Mg189 O204 2.031 . S
Mg189 O213 2.291 . S
Mg190 O191 1.963 . S
Mg190 O201 1.942 . S
Mg190 O202 1.955 . S
Mg190 O209 1.986 . S
O191 Mg189 1.936 . S
O191 Mg190 1.963 . S
O191 Mg192 1.915 . S
Mg192 O191 1.915 . S
Mg192 O193 1.915 . S
Mg192 O197 2.013 . S
Mg192 O203 2.114 . S
Mg192 O207 2.013 . S
Mg192 O213 2.114 . S
O193 Mg192 1.915 . S
O193 Mg194 1.936 . S
O193 Mg195 1.963 . S
Mg194 O193 1.936 . S
Mg194 O203 2.291 . S
Mg194 O208 2.081 . S
Mg194 O210 2.023 . S
Mg194 O214 2.031 . S
Mg195 O193 1.963 . S
Mg195 O199 1.986 . S
Mg195 O211 1.942 . S
Mg195 O212 1.955 . S
C196 O207 1.191 . S
C196 O209 1.307 . S
O197 Mg192 2.013 . S
O197 C216 1.191 . S
O198 Mg189 2.081 . S
O198 C206 1.331 . S
O199 Mg195 1.986 . S
O199 C216 1.307 . S
O200 Mg189 2.023 . S
O200 C215 1.264 . S
O201 Mg190 1.942 . S
O201 C206 1.244 . S
O202 Mg190 1.955 . S
O202 C215 1.273 . S
O203 Mg192 2.114 . S
O203 Mg194 2.291 . S
O203 C205 1.312 . S
O204 Mg189 2.031 . S
O204 C205 1.208 . S
C205 O203 1.312 . S
C205 O204 1.208 . S
C206 O198 1.331 . S
C206 O201 1.244 . S
O207 Mg192 2.013 . S
O207 C196 1.191 . S
O208 C187 1.331 . S
O208 Mg194 2.081 . S
O209 Mg190 1.986 . S
O209 C196 1.307 . S
O210 C188 1.264 . S
O210 Mg194 2.023 . S
O211 C187 1.244 . S
O211 Mg195 1.942 . S
O212 C188 1.273 . S
O212 Mg195 1.955 . S
O213 C186 1.312 . S
O213 Mg189 2.291 . S
O213 Mg192 2.114 . S
O214 C186 1.208 . S
O214 Mg194 2.031 . S
C215 O200 1.264 . S
C215 O202 1.273 . S
C216 O197 1.191 . S
C216 O199 1.307 . S
C217 O244 1.312 . S
C217 O245 1.208 . S
C218 O239 1.331 . S
C218 O242 1.244 . S
C219 O241 1.264 . S
C219 O243 1.273 . S
Mg220 O222 1.936 . S
Mg220 O229 2.081 . S
Mg220 O231 2.023 . S
Mg220 O235 2.031 . S
Mg220 O244 2.291 . S
Mg221 O222 1.963 . S
Mg221 O232 1.942 . S
Mg221 O233 1.955 . S
Mg221 O240 1.986 . S
O222 Mg220 1.936 . S
O222 Mg221 1.963 . S
O222 Mg223 1.915 . S
Mg223 O222 1.915 . S
Mg223 O224 1.915 . S
Mg223 O228 2.013 . S
Mg223 O234 2.114 . S
Mg223 O238 2.013 . S
Mg223 O244 2.114 . S
O224 Mg223 1.915 . S
O224 Mg225 1.936 . S
O224 Mg226 1.963 . S
Mg225 O224 1.936 . S
Mg225 O234 2.291 . S
Mg225 O239 2.081 . S
Mg225 O241 2.023 . S
Mg225 O245 2.031 . S
Mg226 O224 1.963 . S
Mg226 O230 1.986 . S
Mg226 O242 1.942 . S
Mg226 O243 1.955 . S
C227 O238 1.191 . S
C227 O240 1.307 . S
O228 Mg223 2.013 . S
O228 C247 1.191 . S
O229 Mg220 2.081 . S
O229 C237 1.331 . S
O230 Mg226 1.986 . S
O230 C247 1.307 . S
O231 Mg220 2.023 . S
O231 C246 1.264 . S
O232 Mg221 1.942 . S
O232 C237 1.244 . S
O233 Mg221 1.955 . S
O233 C246 1.273 . S
O234 Mg223 2.114 . S
O234 Mg225 2.291 . S
O234 C236 1.312 . S
O235 Mg220 2.031 . S
O235 C236 1.208 . S
C236 O234 1.312 . S
C236 O235 1.208 . S
C237 O229 1.331 . S
C237 O232 1.244 . S
O238 Mg223 2.013 . S
O238 C227 1.191 . S
O239 C218 1.331 . S
O239 Mg225 2.081 . S
O240 Mg221 1.986 . S
O240 C227 1.307 . S
O241 C219 1.264 . S
O241 Mg225 2.023 . S
O242 C218 1.244 . S
O242 Mg226 1.942 . S
O243 C219 1.273 . S
O243 Mg226 1.955 . S
O244 C217 1.312 . S
O244 Mg220 2.291 . S
O244 Mg223 2.114 . S
O245 C217 1.208 . S
O245 Mg225 2.031 . S
C246 O231 1.264 . S
C246 O233 1.273 . S
C247 O228 1.191 . S
C247 O230 1.307 . S
C248 O275 1.312 . S
C248 O276 1.208 . S
C249 O270 1.331 . S
C249 O273 1.244 . S
C250 O272 1.264 . S
C250 O274 1.273 . S
Mg251 O253 1.936 . S
Mg251 O260 2.081 . S
Mg251 O262 2.023 . S
Mg251 O266 2.031 . S
Mg251 O275 2.291 . S
Mg252 O253 1.963 . S
Mg252 O263 1.942 . S
Mg252 O264 1.955 . S
Mg252 O271 1.986 . S
O253 Mg251 1.936 . S
O253 Mg252 1.963 . S
O253 Mg254 1.915 . S
Mg254 O253 1.915 . S
Mg254 O255 1.915 . S
Mg254 O259 2.013 . S
Mg254 O265 2.114 . S
Mg254 O269 2.013 . S
Mg254 O275 2.114 . S
O255 Mg254 1.915 . S
O255 Mg256 1.936 . S
O255 Mg257 1.963 . S
Mg256 O255 1.936 . S
Mg256 O265 2.291 . S
Mg256 O270 2.081 . S
Mg256 O272 2.023 . S
Mg256 O276 2.031 . S
Mg257 O255 1.963 . S
Mg257 O261 1.986 . S
Mg257 O273 1.942 . S
Mg257 O274 1.955 . S
C258 O269 1.191 . S
C258 O271 1.307 . S
O259 Mg254 2.013 . S
O259 C278 1.191 . S
O260 Mg251 2.081 . S
O260 C268 1.331 . S
O261 Mg257 1.986 . S
O261 C278 1.307 . S
O262 Mg251 2.023 . S
O262 C277 1.264 . S
O263 Mg252 1.942 . S
O263 C268 1.244 . S
O264 Mg252 1.955 . S
O264 C277 1.273 . S
O265 Mg254 2.114 . S
O265 Mg256 2.291 . S
O265 C267 1.312 . S
O266 Mg251 2.031 . S
O266 C267 1.208 . S
C267 O265 1.312 . S
C267 O266 1.208 . S
C268 O260 1.331 . S
C268 O263 1.244 . S
O269 Mg254 2.013 . S
O269 C258 1.191 . S
O270 C249 1.331 . S
O270 Mg256 2.081 . S
O271 Mg252 1.986 . S
O271 C258 1.307 . S
O272 C250 1.264 . S
O272 Mg256 2.023 . S
O273 C249 1.244 . S
O273 Mg257 1.942 . S
O274 C250 1.273 . S
O274 Mg257 1.955 . S
O275 C248 1.312 . S
O275 Mg251 2.291 . S
O275 Mg254 2.114 . S
O276 C248 1.208 . S
O276 Mg256 2.031 . S
C277 O262 1.264 . S
C277 O264 1.273 . S
C278 O259 1.191 . S
C278 O261 1.307 . S
C279 O306 1.312 . S
C279 O307 1.208 . S
C280 O301 1.331 . S
C280 O304 1.244 . S
C281 O303 1.264 . S
C281 O305 1.273 . S
Mg282 O284 1.936 . S
Mg282 O291 2.081 . S
Mg282 O293 2.023 . S
Mg282 O297 2.031 . S
Mg282 O306 2.291 . S
Mg283 O284 1.963 . S
Mg283 O294 1.942 . S
Mg283 O295 1.955 . S
Mg283 O302 1.986 . S
O284 Mg282 1.936 . S
O284 Mg283 1.963 . S
O284 Mg285 1.915 . S
Mg285 O284 1.915 . S
Mg285 O286 1.915 . S
Mg285 O290 2.013 . S
Mg285 O296 2.114 . S
Mg285 O300 2.013 . S
Mg285 O306 2.114 . S
O286 Mg285 1.915 . S
O286 Mg287 1.936 . S
O286 Mg288 1.963 . S
Mg287 O286 1.936 . S
Mg287 O296 2.291 . S
Mg287 O301 2.081 . S
Mg287 O303 2.023 . S
Mg287 O307 2.031 . S
Mg288 O286 1.963 . S
Mg288 O292 1.986 . S
Mg288 O304 1.942 . S
Mg288 O305 1.955 . S
C289 O300 1.191 . S
C289 O302 1.307 . S
O290 Mg285 2.013 . S
O290 C309 1.191 . S
O291 Mg282 2.081 . S
O291 C299 1.331 . S
O292 Mg288 1.986 . S
O292 C309 1.307 . S
O293 Mg282 2.023 . S
O293 C308 1.264 . S
O294 Mg283 1.942 . S
O294 C299 1.244 . S
O295 Mg283 1.955 . S
O295 C308 1.273 . S
O296 Mg285 2.114 . S
O296 Mg287 2.291 . S
O296 C298 1.312 . S
O297 Mg282 2.031 . S
O297 C298 1.208 . S
C298 O296 1.312 . S
C298 O297 1.208 . S
C299 O291 1.331 . S
C299 O294 1.244 . S
O300 Mg285 2.013 . S
O300 C289 1.191 . S
O301 C280 1.331 . S
O301 Mg287 2.081 . S
O302 Mg283 1.986 . S
O302 C289 1.307 . S
O303 C281 1.264 . S
O303 Mg287 2.023 . S
O304 C280 1.244 . S
O304 Mg288 1.942 . S
O305 C281 1.273 . S
O305 Mg288 1.955 . S
O306 C279 1.312 . S
O306 Mg282 2.291 . S
O306 Mg285 2.114 . S
O307 C279 1.208 . S
O307 Mg287 2.031 . S
C308 O293 1.264 . S
C308 O295 1.273 . S
C309 O290 1.191 . S
C309 O292 1.307 . S
C310 O337 1.312 . S
C310 O338 1.208 . S
C311 O332 1.331 . S
C311 O335 1.244 . S
C312 O334 1.264 . S
C312 O336 1.273 . S
Mg313 O315 1.936 . S
Mg313 O322 2.081 . S
Mg313 O324 2.023 . S
Mg313 O328 2.031 . S
Mg313 O337 2.291 . S
Mg314 O315 1.963 . S
Mg314 O325 1.942 . S
Mg314 O326 1.955 . S
Mg314 O333 1.986 . S
O315 Mg313 1.936 . S
O315 Mg314 1.963 . S
O315 Mg316 1.915 . S
Mg316 O315 1.915 . S
Mg316 O317 1.915 . S
Mg316 O321 2.013 . S
Mg316 O327 2.114 . S
Mg316 O331 2.013 . S
Mg316 O337 2.114 . S
O317 Mg316 1.915 . S
O317 Mg318 1.936 . S
O317 Mg319 1.963 . S
Mg318 O317 1.936 . S
Mg318 O327 2.291 . S
Mg318 O332 2.081 . S
Mg318 O334 2.023 . S
Mg318 O338 2.031 . S
Mg319 O317 1.963 . S
Mg319 O323 1.986 . S
Mg319 O335 1.942 . S
Mg319 O336 1.955 . S
C320 O331 1.191 . S
C320 O333 1.307 . S
O321 Mg316 2.013 . S
O321 C340 1.191 . S
O322 Mg313 2.081 . S
O322 C330 1.331 . S
O323 Mg319 1.986 . S
O323 C340 1.307 . S
O324 Mg313 2.023 . S
O324 C339 1.264 . S
O325 Mg314 1.942 . S
O325 C330 1.244 . S
O326 Mg314 1.955 . S
O326 C339 1.273 . S
O327 Mg316 2.114 . S
O327 Mg318 2.291 . S
O327 C329 1.312 . S
O328 Mg313 2.031 . S
O328 C329 1.208 . S
C329 O327 1.312 . S
C329 O328 1.208 . S
C330 O322 1.331 . S
C330 O325 1.244 . S
O331 Mg316 2.013 . S
O331 C320 1.191 . S
O332 C311 1.331 . S
O332 Mg318 2.081 . S
O333 Mg314 1.986 . S
O333 C320 1.307 . S
O334 C312 1.264 . S
O334 Mg318 2.023 . S
O335 C311 1.244 . S
O335 Mg319 1.942 . S
O336 C312 1.273 . S
O336 Mg319 1.955 . S
O337 C310 1.312 . S
O337 Mg313 2.291 . S
O337 Mg316 2.114 . S
O338 C310 1.208 . S
O338 Mg318 2.031 . S
C339 O324 1.264 . S
C339 O326 1.273 . S
C340 O321 1.191 . S
C340 O323 1.307 . S
C341 O368 1.312 . S
C341 O369 1.208 . S
C342 O363 1.331 . S
C342 O366 1.244 . S
C343 O365 1.264 . S
C343 O367 1.273 . S
Mg344 O346 1.936 . S
Mg344 O353 2.081 . S
Mg344 O355 2.023 . S
Mg344 O359 2.031 . S
Mg344 O368 2.291 . S
Mg345 O346 1.963 . S
Mg345 O356 1.942 . S
Mg345 O357 1.955 . S
Mg345 O364 1.986 . S
O346 Mg344 1.936 . S
O346 Mg345 1.963 . S
O346 Mg347 1.915 . S
Mg347 O346 1.915 . S
Mg347 O348 1.915 . S
Mg347 O352 2.013 . S
Mg347 O358 2.114 . S
Mg347 O362 2.013 . S
Mg347 O368 2.114 . S
O348 Mg347 1.915 . S
O348 Mg349 1.936 . S
O348 Mg350 1.963 . S
Mg349 O348 1.936 . S
Mg349 O358 2.291 . S
Mg349 O363 2.081 . S
Mg349 O365 2.023 . S
Mg349 O369 2.031 . S
Mg350 O348 1.963 . S
Mg350 O354 1.986 . S
Mg350 O366 1.942 . S
Mg350 O367 1.955 . S
C351 O362 1.191 . S
C351 O364 1.307 . S
O352 Mg347 2.013 . S
O352 C371 1.191 . S
O353 Mg344 2.081 . S
O353 C361 1.331 . S
O354 Mg350 1.986 . S
O354 C371 1.307 . S
O355 Mg344 2.023 . S
O355 C370 1.264 . S
O356 Mg345 1.942 . S
O356 C361 1.244 . S
O357 Mg345 1.955 . S
O357 C370 1.273 . S
O358 Mg347 2.114 . S
O358 Mg349 2.291 . S
O358 C360 1.312 . S
O359 Mg344 2.031 . S
O359 C360 1.208 . S
C360 O358 1.312 . S
C360 O359 1.208 . S
C361 O353 1.331 . S
C361 O356 1.244 . S
O362 Mg347 2.013 . S
O362 C351 1.191 . S
O363 C342 1.331 . S
O363 Mg349 2.081 . S
O364 Mg345 1.986 . S
O364 C351 1.307 . S
O365 C343 1.264 . S
O365 Mg349 2.023 . S
O366 C342 1.244 . S
O366 Mg350 1.942 . S
O367 C343 1.273 . S
O367 Mg350 1.955 . S
O368 C341 1.312 . S
O368 Mg344 2.291 . S
O368 Mg347 2.114 . S
O369 C341 1.208 . S
O369 Mg349 2.031 . S
C370 O355 1.264 . S
C370 O357 1.273 . S
C371 O352 1.191 . S
C371 O354 1.307 . S
C372 O399 1.312 . S
C372 O400 1.208 . S
C373 O394 1.331 . S
C373 O397 1.244 . S
C374 O396 1.264 . S
C374 O398 1.273 . S
Mg375 O377 1.936 . S
Mg375 O384 2.081 . S
Mg375 O386 2.023 . S
Mg375 O390 2.031 . S
Mg375 O399 2.291 . S
Mg376 O377 1.963 . S
Mg376 O387 1.942 . S
Mg376 O388 1.955 . S
Mg376 O395 1.986 . S
O377 Mg375 1.936 . S
O377 Mg376 1.963 . S
O377 Mg378 1.915 . S
Mg378 O377 1.915 . S
Mg378 O379 1.915 . S
Mg378 O383 2.013 . S
Mg378 O389 2.114 . S
Mg378 O393 2.013 . S
Mg378 O399 2.114 . S
O379 Mg378 1.915 . S
O379 Mg380 1.936 . S
O379 Mg381 1.963 . S
Mg380 O379 1.936 . S
Mg380 O389 2.291 . S
Mg380 O394 2.081 . S
Mg380 O396 2.023 . S
Mg380 O400 2.031 . S
Mg381 O379 1.963 . S
Mg381 O385 1.986 . S
Mg381 O397 1.942 . S
Mg381 O398 1.955 . S
C382 O393 1.191 . S
C382 O395 1.307 . S
O383 Mg378 2.013 . S
O383 C402 1.191 . S
O384 Mg375 2.081 . S
O384 C392 1.331 . S
O385 Mg381 1.986 . S
O385 C402 1.307 . S
O386 Mg375 2.023 . S
O386 C401 1.264 . S
O387 Mg376 1.942 . S
O387 C392 1.244 . S
O388 Mg376 1.955 . S
O388 C401 1.273 . S
O389 Mg378 2.114 . S
O389 Mg380 2.291 . S
O389 C391 1.312 . S
O390 Mg375 2.031 . S
O390 C391 1.208 . S
C391 O389 1.312 . S
C391 O390 1.208 . S
C392 O384 1.331 . S
C392 O387 1.244 . S
O393 Mg378 2.013 . S
O393 C382 1.191 . S
O394 C373 1.331 . S
O394 Mg380 2.081 . S
O395 Mg376 1.986 . S
O395 C382 1.307 . S
O396 C374 1.264 . S
O396 Mg380 2.023 . S
O397 C373 1.244 . S
O397 Mg381 1.942 . S
O398 C374 1.273 . S
O398 Mg381 1.955 . S
O399 C372 1.312 . S
O399 Mg375 2.291 . S
O399 Mg378 2.114 . S
O400 C372 1.208 . S
O400 Mg380 2.031 . S
C401 O386 1.264 . S
C401 O388 1.273 . S
C402 O383 1.191 . S
C402 O385 1.307 . S
C403 O430 1.312 . S
C403 O431 1.208 . S
C404 O425 1.331 . S
C404 O428 1.244 . S
C405 O427 1.264 . S
C405 O429 1.273 . S
Mg406 O408 1.936 . S
Mg406 O415 2.081 . S
Mg406 O417 2.023 . S
Mg406 O421 2.031 . S
Mg406 O430 2.291 . S
Mg407 O408 1.963 . S
Mg407 O418 1.942 . S
Mg407 O419 1.955 . S
Mg407 O426 1.986 . S
O408 Mg406 1.936 . S
O408 Mg407 1.963 . S
O408 Mg409 1.915 . S
Mg409 O408 1.915 . S
Mg409 O410 1.915 . S
Mg409 O414 2.013 . S
Mg409 O420 2.114 . S
Mg409 O424 2.013 . S
Mg409 O430 2.114 . S
O410 Mg409 1.915 . S
O410 Mg411 1.936 . S
O410 Mg412 1.963 . S
Mg411 O410 1.936 . S
Mg411 O420 2.291 . S
Mg411 O425 2.081 . S
Mg411 O427 2.023 . S
Mg411 O431 2.031 . S
Mg412 O410 1.963 . S
Mg412 O416 1.986 . S
Mg412 O428 1.942 . S
Mg412 O429 1.955 . S
C413 O424 1.191 . S
C413 O426 1.307 . S
O414 Mg409 2.013 . S
O414 C433 1.191 . S
O415 Mg406 2.081 . S
O415 C423 1.331 . S
O416 Mg412 1.986 . S
O416 C433 1.307 . S
O417 Mg406 2.023 . S
O417 C432 1.264 . S
O418 Mg407 1.942 . S
O418 C423 1.244 . S
O419 Mg407 1.955 . S
O419 C432 1.273 . S
O420 Mg409 2.114 . S
O420 Mg411 2.291 . S
O420 C422 1.312 . S
O421 Mg406 2.031 . S
O421 C422 1.208 . S
C422 O420 1.312 . S
C422 O421 1.208 . S
C423 O415 1.331 . S
C423 O418 1.244 . S
O424 Mg409 2.013 . S
O424 C413 1.191 . S
O425 C404 1.331 . S
O425 Mg411 2.081 . S
O426 Mg407 1.986 . S
O426 C413 1.307 . S
O427 C405 1.264 . S
O427 Mg411 2.023 . S
O428 C404 1.244 . S
O428 Mg412 1.942 . S
O429 C405 1.273 . S
O429 Mg412 1.955 . S
O430 C403 1.312 . S
O430 Mg406 2.291 . S
O430 Mg409 2.114 . S
O431 C403 1.208 . S
O431 Mg411 2.031 . S
C432 O417 1.264 . S
C432 O419 1.273 . S
C433 O414 1.191 . S
C433 O416 1.307 . S
C434 O461 1.312 . S
C434 O462 1.208 . S
C435 O456 1.331 . S
C435 O459 1.244 . S
C436 O458 1.264 . S
C436 O460 1.273 . S
Mg437 O439 1.936 . S
Mg437 O446 2.081 . S
Mg437 O448 2.023 . S
Mg437 O452 2.031 . S
Mg437 O461 2.291 . S
Mg438 O439 1.963 . S
Mg438 O449 1.942 . S
Mg438 O450 1.955 . S
Mg438 O457 1.986 . S
O439 Mg437 1.936 . S
O439 Mg438 1.963 . S
O439 Mg440 1.915 . S
Mg440 O439 1.915 . S
Mg440 O441 1.915 . S
Mg440 O445 2.013 . S
Mg440 O451 2.114 . S
Mg440 O455 2.013 . S
Mg440 O461 2.114 . S
O441 Mg440 1.915 . S
O441 Mg442 1.936 . S
O441 Mg443 1.963 . S
Mg442 O441 1.936 . S
Mg442 O451 2.291 . S
Mg442 O456 2.081 . S
Mg442 O458 2.023 . S
Mg442 O462 2.031 . S
Mg443 O441 1.963 . S
Mg443 O447 1.986 . S
Mg443 O459 1.942 . S
Mg443 O460 1.955 . S
C444 O455 1.191 . S
C444 O457 1.307 . S
O445 Mg440 2.013 . S
O445 C464 1.191 . S
O446 Mg437 2.081 . S
O446 C454 1.331 . S
O447 Mg443 1.986 . S
O447 C464 1.307 . S
O448 Mg437 2.023 . S
O448 C463 1.264 . S
O449 Mg438 1.942 . S
O449 C454 1.244 . S
O450 Mg438 1.955 . S
O450 C463 1.273 . S
O451 Mg440 2.114 . S
O451 Mg442 2.291 . S
O451 C453 1.312 . S
O452 Mg437 2.031 . S
O452 C453 1.208 . S
C453 O451 1.312 . S
C453 O452 1.208 . S
C454 O446 1.331 . S
C454 O449 1.244 . S
O455 Mg440 2.013 . S
O455 C444 1.191 . S
O456 C435 1.331 . S
O456 Mg442 2.081 . S
O457 Mg438 1.986 . S
O457 C444 1.307 . S
O458 C436 1.264 . S
O458 Mg442 2.023 . S
O459 C435 1.244 . S
O459 Mg443 1.942 . S
O460 C436 1.273 . S
O460 Mg443 1.955 . S
O461 C434 1.312 . S
O461 Mg437 2.291 . S
O461 Mg440 2.114 . S
O462 C434 1.208 . S
O462 Mg442 2.031 . S
C463 O448 1.264 . S
C463 O450 1.273 . S
C464 O445 1.191 . S
C464 O447 1.307 . S
C465 O492 1.312 . S
C465 O493 1.208 . S
C466 O487 1.331 . S
C466 O490 1.244 . S
C467 O489 1.264 . S
C467 O491 1.273 . S
Mg468 O470 1.936 . S
Mg468 O477 2.081 . S
Mg468 O479 2.023 . S
Mg468 O483 2.031 . S
Mg468 O492 2.291 . S
Mg469 O470 1.963 . S
Mg469 O480 1.942 . S
Mg469 O481 1.955 . S
Mg469 O488 1.986 . S
O470 Mg468 1.936 . S
O470 Mg469 1.963 . S
O470 Mg471 1.915 . S
Mg471 O470 1.915 . S
Mg471 O472 1.915 . S
Mg471 O476 2.013 . S
Mg471 O482 2.114 . S
Mg471 O486 2.013 . S
Mg471 O492 2.114 . S
O472 Mg471 1.915 . S
O472 Mg473 1.936 . S
O472 Mg474 1.963 . S
Mg473 O472 1.936 . S
Mg473 O482 2.291 . S
Mg473 O487 2.081 . S
Mg473 O489 2.023 . S
Mg473 O493 2.031 . S
Mg474 O472 1.963 . S
Mg474 O478 1.986 . S
Mg474 O490 1.942 . S
Mg474 O491 1.955 . S
C475 O486 1.191 . S
C475 O488 1.307 . S
O476 Mg471 2.013 . S
O476 C495 1.191 . S
O477 Mg468 2.081 . S
O477 C485 1.331 . S
O478 Mg474 1.986 . S
O478 C495 1.307 . S
O479 Mg468 2.023 . S
O479 C494 1.264 . S
O480 Mg469 1.942 . S
O480 C485 1.244 . S
O481 Mg469 1.955 . S
O481 C494 1.273 . S
O482 Mg471 2.114 . S
O482 Mg473 2.291 . S
O482 C484 1.312 . S
O483 Mg468 2.031 . S
O483 C484 1.208 . S
C484 O482 1.312 . S
C484 O483 1.208 . S
C485 O477 1.331 . S
C485 O480 1.244 . S
O486 Mg471 2.013 . S
O486 C475 1.191 . S
O487 C466 1.331 . S
O487 Mg473 2.081 . S
O488 Mg469 1.986 . S
O488 C475 1.307 . S
O489 C467 1.264 . S
O489 Mg473 2.023 . S
O490 C466 1.244 . S
O490 Mg474 1.942 . S
O491 C467 1.273 . S
O491 Mg474 1.955 . S
O492 C465 1.312 . S
O492 Mg468 2.291 . S
O492 Mg471 2.114 . S
O493 C465 1.208 . S
O493 Mg473 2.031 . S
C494 O479 1.264 . S
C494 O481 1.273 . S
C495 O476 1.191 . S
C495 O478 1.307 . S
C496 O523 1.312 . S
C496 O524 1.208 . S
C497 O518 1.331 . S
C497 O521 1.244 . S
C498 O520 1.264 . S
C498 O522 1.273 . S
Mg499 O501 1.936 . S
Mg499 O508 2.081 . S
Mg499 O510 2.023 . S
Mg499 O514 2.031 . S
Mg499 O523 2.291 . S
Mg500 O501 1.963 . S
Mg500 O511 1.942 . S
Mg500 O512 1.955 . S
Mg500 O519 1.986 . S
O501 Mg499 1.936 . S
O501 Mg500 1.963 . S
O501 Mg502 1.915 . S
Mg502 O501 1.915 . S
Mg502 O503 1.915 . S
Mg502 O507 2.013 . S
Mg502 O513 2.114 . S
Mg502 O517 2.013 . S
Mg502 O523 2.114 . S
O503 Mg502 1.915 . S
O503 Mg504 1.936 . S
O503 Mg505 1.963 . S
Mg504 O503 1.936 . S
Mg504 O513 2.291 . S
Mg504 O518 2.081 . S
Mg504 O520 2.023 . S
Mg504 O524 2.031 . S
Mg505 O503 1.963 . S
Mg505 O509 1.986 . S
Mg505 O521 1.942 . S
Mg505 O522 1.955 . S
C506 O517 1.191 . S
C506 O519 1.307 . S
O507 Mg502 2.013 . S
O507 C526 1.191 . S
O508 Mg499 2.081 . S
O508 C516 1.331 . S
O509 Mg505 1.986 . S
O509 C526 1.307 . S
O510 Mg499 2.023 . S
O510 C525 1.264 . S
O511 Mg500 1.942 . S
O511 C516 1.244 . S
O512 Mg500 1.955 . S
O512 C525 1.273 . S
O513 Mg502 2.114 . S
O513 Mg504 2.291 . S
O513 C515 1.312 . S
O514 Mg499 2.031 . S
O514 C515 1.208 . S
C515 O513 1.312 . S
C515 O514 1.208 . S
C516 O508 1.331 . S
C516 O511 1.244 . S
O517 Mg502 2.013 . S
O517 C506 1.191 . S
O518 C497 1.331 . S
O518 Mg504 2.081 . S
O519 Mg500 1.986 . S
O519 C506 1.307 . S
O520 C498 1.264 . S
O520 Mg504 2.023 . S
O521 C497 1.244 . S
O521 Mg505 1.942 . S
O522 C498 1.273 . S
O522 Mg505 1.955 . S
O523 C496 1.312 . S
O523 Mg499 2.291 . S
O523 Mg502 2.114 . S
O524 C496 1.208 . S
O524 Mg504 2.031 . S
C525 O510 1.264 . S
C525 O512 1.273 . S
C526 O507 1.191 . S
C526 O509 1.307 . S
C527 O554 1.312 . S
C527 O555 1.208 . S
C528 O549 1.331 . S
C528 O552 1.244 . S
C529 O551 1.264 . S
C529 O553 1.273 . S
Mg530 O532 1.936 . S
Mg530 O539 2.081 . S
Mg530 O541 2.023 . S
Mg530 O545 2.031 . S
Mg530 O554 2.291 . S
Mg531 O532 1.963 . S
Mg531 O542 1.942 . S
Mg531 O543 1.955 . S
Mg531 O550 1.986 . S
O532 Mg530 1.936 . S
O532 Mg531 1.963 . S
O532 Mg533 1.915 . S
Mg533 O532 1.915 . S
Mg533 O534 1.915 . S
Mg533 O538 2.013 . S
Mg533 O544 2.114 . S
Mg533 O548 2.013 . S
Mg533 O554 2.114 . S
O534 Mg533 1.915 . S
O534 Mg535 1.936 . S
O534 Mg536 1.963 . S
Mg535 O534 1.936 . S
Mg535 O544 2.291 . S
Mg535 O549 2.081 . S
Mg535 O551 2.023 . S
Mg535 O555 2.031 . S
Mg536 O534 1.963 . S
Mg536 O540 1.986 . S
Mg536 O552 1.942 . S
Mg536 O553 1.955 . S
C537 O548 1.191 . S
C537 O550 1.307 . S
O538 Mg533 2.013 . S
O538 C557 1.191 . S
O539 Mg530 2.081 . S
O539 C547 1.331 . S
O540 Mg536 1.986 . S
O540 C557 1.307 . S
O541 Mg530 2.023 . S
O541 C556 1.264 . S
O542 Mg531 1.942 . S
O542 C547 1.244 . S
O543 Mg531 1.955 . S
O543 C556 1.273 . S
O544 Mg533 2.114 . S
O544 Mg535 2.291 . S
O544 C546 1.312 . S
O545 Mg530 2.031 . S
O545 C546 1.208 . S
C546 O544 1.312 . S
C546 O545 1.208 . S
C547 O539 1.331 . S
C547 O542 1.244 . S
O548 Mg533 2.013 . S
O548 C537 1.191 . S
O549 C528 1.331 . S
O549 Mg535 2.081 . S
O550 Mg531 1.986 . S
O550 C537 1.307 . S
O551 C529 1.264 . S
O551 Mg535 2.023 . S
O552 C528 1.244 . S
O552 Mg536 1.942 . S
O553 C529 1.273 . S
O553 Mg536 1.955 . S
O554 C527 1.312 . S
O554 Mg530 2.291 . S
O554 Mg533 2.114 . S
O555 C527 1.208 . S
O555 Mg535 2.031 . S
C556 O541 1.264 . S
C556 O543 1.273 . S
C557 O538 1.191 . S
C557 O540 1.307 . S
C558 O585 1.312 . S
C558 O586 1.208 . S
C559 O580 1.331 . S
C559 O583 1.244 . S
C560 O582 1.264 . S
C560 O584 1.273 . S
Mg561 O563 1.936 . S
Mg561 O570 2.081 . S
Mg561 O572 2.023 . S
Mg561 O576 2.031 . S
Mg561 O585 2.291 . S
Mg562 O563 1.963 . S
Mg562 O573 1.942 . S
Mg562 O574 1.955 . S
Mg562 O581 1.986 . S
O563 Mg561 1.936 . S
O563 Mg562 1.963 . S
O563 Mg564 1.915 . S
Mg564 O563 1.915 . S
Mg564 O565 1.915 . S
Mg564 O569 2.013 . S
Mg564 O575 2.114 . S
Mg564 O579 2.013 . S
Mg564 O585 2.114 . S
O565 Mg564 1.915 . S
O565 Mg566 1.936 . S
O565 Mg567 1.963 . S
Mg566 O565 1.936 . S
Mg566 O575 2.291 . S
Mg566 O580 2.081 . S
Mg566 O582 2.023 . S
Mg566 O586 2.031 . S
Mg567 O565 1.963 . S
Mg567 O571 1.986 . S
Mg567 O583 1.942 . S
Mg567 O584 1.955 . S
C568 O579 1.191 . S
C568 O581 1.307 . S
O569 Mg564 2.013 . S
O569 C588 1.191 . S
O570 Mg561 2.081 . S
O570 C578 1.331 . S
O571 Mg567 1.986 . S
O571 C588 1.307 . S
O572 Mg561 2.023 . S
O572 C587 1.264 . S
O573 Mg562 1.942 . S
O573 C578 1.244 . S
O574 Mg562 1.955 . S
O574 C587 1.273 . S
O575 Mg564 2.114 . S
O575 Mg566 2.291 . S
O575 C577 1.312 . S
O576 Mg561 2.031 . S
O576 C577 1.208 . S
C577 O575 1.312 . S
C577 O576 1.208 . S
C578 O570 1.331 . S
C578 O573 1.244 . S
O579 Mg564 2.013 . S
O579 C568 1.191 . S
O580 C559 1.331 . S
O580 Mg566 2.081 . S
O581 Mg562 1.986 . S
O581 C568 1.307 . S
O582 C560 1.264 . S
O582 Mg566 2.023 . S
O583 C559 1.244 . S
O583 Mg567 1.942 . S
O584 C560 1.273 . S
O584 Mg567 1.955 . S
O585 C558 1.312 . S
O585 Mg561 2.291 . S
O585 Mg564 2.114 . S
O586 C558 1.208 . S
O586 Mg566 2.031 . S
C587 O572 1.264 . S
C587 O574 1.273 . S
C588 O569 1.191 . S
C588 O571 1.307 . S
C589 O616 1.312 . S
C589 O617 1.208 . S
C590 O611 1.331 . S
C590 O614 1.244 . S
C591 O613 1.264 . S
C591 O615 1.273 . S
Mg592 O594 1.936 . S
Mg592 O601 2.081 . S
Mg592 O603 2.023 . S
Mg592 O607 2.031 . S
Mg592 O616 2.291 . S
Mg593 O594 1.963 . S
Mg593 O604 1.942 . S
Mg593 O605 1.955 . S
Mg593 O612 1.986 . S
O594 Mg592 1.936 . S
O594 Mg593 1.963 . S
O594 Mg595 1.915 . S
Mg595 O594 1.915 . S
Mg595 O596 1.915 . S
Mg595 O600 2.013 . S
Mg595 O606 2.114 . S
Mg595 O610 2.013 . S
Mg595 O616 2.114 . S
O596 Mg595 1.915 . S
O596 Mg597 1.936 . S
O596 Mg598 1.963 . S
Mg597 O596 1.936 . S
Mg597 O606 2.291 . S
Mg597 O611 2.081 . S
Mg597 O613 2.023 . S
Mg597 O617 2.031 . S
Mg598 O596 1.963 . S
Mg598 O602 1.986 . S
Mg598 O614 1.942 . S
Mg598 O615 1.955 . S
C599 O610 1.191 . S
C599 O612 1.307 . S
O600 Mg595 2.013 . S
O600 C619 1.191 . S
O601 Mg592 2.081 . S
O601 C609 1.331 . S
O602 Mg598 1.986 . S
O602 C619 1.307 . S
O603 Mg592 2.023 . S
O603 C618 1.264 . S
O604 Mg593 1.942 . S
O604 C609 1.244 . S
O605 Mg593 1.955 . S
O605 C618 1.273 . S
O606 Mg595 2.114 . S
O606 Mg597 2.291 . S
O606 C608 1.312 . S
O607 Mg592 2.031 . S
O607 C608 1.208 . S
C608 O606 1.312 . S
C608 O607 1.208 . S
C609 O601 1.331 . S
C609 O604 1.244 . S
O610 Mg595 2.013 . S
O610 C599 1.191 . S
O611 C590 1.331 . S
O611 Mg597 2.081 . S
O612 Mg593 1.986 . S
O612 C599 1.307 . S
O613 C591 1.264 . S
O613 Mg597 2.023 . S
O614 C590 1.244 . S
O614 Mg598 1.942 . S
O615 C591 1.273 . S
O615 Mg598 1.955 . S
O616 C589 1.312 . S
O616 Mg592 2.291 . S
O616 Mg595 2.114 . S
O617 C589 1.208 . S
O617 Mg597 2.031 . S
C618 O603 1.264 . S
C618 O605 1.273 . S
C619 O600 1.191 . S
C619 O602 1.307 . S
C620 O647 1.312 . S
C620 O648 1.208 . S
C621 O642 1.331 . S
C621 O645 1.244 . S
C622 O644 1.264 . S
C622 O646 1.273 . S
Mg623 O625 1.936 . S
Mg623 O632 2.081 . S
Mg623 O634 2.023 . S
Mg623 O638 2.031 . S
Mg623 O647 2.291 . S
Mg624 O625 1.963 . S
Mg624 O635 1.942 . S
Mg624 O636 1.955 . S
Mg624 O643 1.986 . S
O625 Mg623 1.936 . S
O625 Mg624 1.963 . S
O625 Mg626 1.915 . S
Mg626 O625 1.915 . S
Mg626 O627 1.915 . S
Mg626 O631 2.013 . S
Mg626 O637 2.114 . S
Mg626 O641 2.013 . S
Mg626 O647 2.114 . S
O627 Mg626 1.915 . S
O627 Mg628 1.936 . S
O627 Mg629 1.963 . S
Mg628 O627 1.936 . S
Mg628 O637 2.291 . S
Mg628 O642 2.081 . S
Mg628 O644 2.023 . S
Mg628 O648 2.031 . S
Mg629 O627 1.963 . S
Mg629 O633 1.986 . S
Mg629 O645 1.942 . S
Mg629 O646 1.955 . S
C630 O641 1.191 . S
C630 O643 1.307 . S
O631 Mg626 2.013 . S
O631 C650 1.191 . S
O632 Mg623 2.081 . S
O632 C640 1.331 . S
O633 Mg629 1.986 . S
O633 C650 1.307 . S
O634 Mg623 2.023 . S
O634 C649 1.264 . S
O635 Mg624 1.942 . S
O635 C640 1.244 . S
O636 Mg624 1.955 . S
O636 C649 1.273 . S
O637 Mg626 2.114 . S
O637 Mg628 2.291 . S
O637 C639 1.312 . S
O638 Mg623 2.031 . S
O638 C639 1.208 . S
C639 O637 1.312 . S
C639 O638 1.208 . S
C640 O632 1.331 . S
C640 O635 1.244 . S
O641 Mg626 2.013 . S
O641 C630 1.191 . S
O642 C621 1.331 . S
O642 Mg628 2.081 . S
O643 Mg624 1.986 . S
O643 C630 1.307 . S
O644 C622 1.264 . S
O644 Mg628 2.023 . S
O645 C621 1.244 . S
O645 Mg629 1.942 . S
O646 C622 1.273 . S
O646 Mg629 1.955 . S
O647 C620 1.312 . S
O647 Mg623 2.291 . S
O647 Mg626 2.114 . S
O648 C620 1.208 . S
O648 Mg628 2.031 . S
C649 O634 1.264 . S
C649 O636 1.273 . S
C650 O631 1.191 . S
C650 O633 1.307 . S
C651 O678 1.312 . S
C651 O679 1.208 . S
C652 O673 1.331 . S
C652 O676 1.244 . S
C653 O675 1.264 . S
C653 O677 1.273 . S
Mg654 O656 1.936 . S
Mg654 O663 2.081 . S
Mg654 O665 2.023 . S
Mg654 O669 2.031 . S
Mg654 O678 2.291 . S
Mg655 O656 1.963 . S
Mg655 O666 1.942 . S
Mg655 O667 1.955 . S
Mg655 O674 1.986 . S
O656 Mg654 1.936 . S
O656 Mg655 1.963 . S
O656 Mg657 1.915 . S
Mg657 O656 1.915 . S
Mg657 O658 1.915 . S
Mg657 O662 2.013 . S
Mg657 O668 2.114 . S
Mg657 O672 2.013 . S
Mg657 O678 2.114 . S
O658 Mg657 1.915 . S
O658 Mg659 1.936 . S
O658 Mg660 1.963 . S
Mg659 O658 1.936 . S
Mg659 O668 2.291 . S
Mg659 O673 2.081 . S
Mg659 O675 2.023 . S
Mg659 O679 2.031 . S
Mg660 O658 1.963 . S
Mg660 O664 1.986 . S
Mg660 O676 1.942 . S
Mg660 O677 1.955 . S
C661 O672 1.191 . S
C661 O674 1.307 . S
O662 Mg657 2.013 . S
O662 C681 1.191 . S
O663 Mg654 2.081 . S
O663 C671 1.331 . S
O664 Mg660 1.986 . S
O664 C681 1.307 . S
O665 Mg654 2.023 . S
O665 C680 1.264 . S
O666 Mg655 1.942 . S
O666 C671 1.244 . S
O667 Mg655 1.955 . S
O667 C680 1.273 . S
O668 Mg657 2.114 . S
O668 Mg659 2.291 . S
O668 C670 1.312 . S
O669 Mg654 2.031 . S
O669 C670 1.208 . S
C670 O668 1.312 . S
C670 O669 1.208 . S
C671 O663 1.331 . S
C671 O666 1.244 . S
O672 Mg657 2.013 . S
O672 C661 1.191 . S
O673 C652 1.331 . S
O673 Mg659 2.081 . S
O674 Mg655 1.986 . S
O674 C661 1.307 . S
O675 C653 1.264 . S
O675 Mg659 2.023 . S
O676 C652 1.244 . S
O676 Mg660 1.942 . S
O677 C653 1.273 . S
O677 Mg660 1.955 . S
O678 C651 1.312 . S
O678 Mg654 2.291 . S
O678 Mg657 2.114 . S
O679 C651 1.208 . S
O679 Mg659 2.031 . S
C680 O665 1.264 . S
C680 O667 1.273 . S
C681 O662 1.191 . S
C681 O664 1.307 . S
C682 O709 1.312 . S
C682 O710 1.208 . S
C683 O704 1.331 . S
C683 O707 1.244 . S
C684 O706 1.264 . S
C684 O708 1.273 . S
Mg685 O687 1.936 . S
Mg685 O694 2.081 . S
Mg685 O696 2.023 . S
Mg685 O700 2.031 . S
Mg685 O709 2.291 . S
Mg686 O687 1.963 . S
Mg686 O697 1.942 . S
Mg686 O698 1.955 . S
Mg686 O705 1.986 . S
O687 Mg685 1.936 . S
O687 Mg686 1.963 . S
O687 Mg688 1.915 . S
Mg688 O687 1.915 . S
Mg688 O689 1.915 . S
Mg688 O693 2.013 . S
Mg688 O699 2.114 . S
Mg688 O703 2.013 . S
Mg688 O709 2.114 . S
O689 Mg688 1.915 . S
O689 Mg690 1.936 . S
O689 Mg691 1.963 . S
Mg690 O689 1.936 . S
Mg690 O699 2.291 . S
Mg690 O704 2.081 . S
Mg690 O706 2.023 . S
Mg690 O710 2.031 . S
Mg691 O689 1.963 . S
Mg691 O695 1.986 . S
Mg691 O707 1.942 . S
Mg691 O708 1.955 . S
C692 O703 1.191 . S
C692 O705 1.307 . S
O693 Mg688 2.013 . S
O693 C712 1.191 . S
O694 Mg685 2.081 . S
O694 C702 1.331 . S
O695 Mg691 1.986 . S
O695 C712 1.307 . S
O696 Mg685 2.023 . S
O696 C711 1.264 . S
O697 Mg686 1.942 . S
O697 C702 1.244 . S
O698 Mg686 1.955 . S
O698 C711 1.273 . S
O699 Mg688 2.114 . S
O699 Mg690 2.291 . S
O699 C701 1.312 . S
O700 Mg685 2.031 . S
O700 C701 1.208 . S
C701 O699 1.312 . S
C701 O700 1.208 . S
C702 O694 1.331 . S
C702 O697 1.244 . S
O703 Mg688 2.013 . S
O703 C692 1.191 . S
O704 C683 1.331 . S
O704 Mg690 2.081 . S
O705 Mg686 1.986 . S
O705 C692 1.307 . S
O706 C684 1.264 . S
O706 Mg690 2.023 . S
O707 C683 1.244 . S
O707 Mg691 1.942 . S
O708 C684 1.273 . S
O708 Mg691 1.955 . S
O709 C682 1.312 . S
O709 Mg685 2.291 . S
O709 Mg688 2.114 . S
O710 C682 1.208 . S
O710 Mg690 2.031 . S
C711 O696 1.264 . S
C711 O698 1.273 . S
C712 O693 1.191 . S
C712 O695 1.307 . S
C713 O740 1.312 . S
C713 O741 1.208 . S
C714 O735 1.331 . S
C714 O738 1.244 . S
C715 O737 1.264 . S
C715 O739 1.273 . S
Mg716 O718 1.936 . S
Mg716 O725 2.081 . S
Mg716 O727 2.023 . S
Mg716 O731 2.031 . S
Mg716 O740 2.291 . S
Mg717 O718 1.963 . S
Mg717 O728 1.942 . S
Mg717 O729 1.955 . S
Mg717 O736 1.986 . S
O718 Mg716 1.936 . S
O718 Mg717 1.963 . S
O718 Mg719 1.915 . S
Mg719 O718 1.915 . S
Mg719 O720 1.915 . S
Mg719 O724 2.013 . S
Mg719 O730 2.114 . S
Mg719 O734 2.013 . S
Mg719 O740 2.114 . S
O720 Mg719 1.915 . S
O720 Mg721 1.936 . S
O720 Mg722 1.963 . S
Mg721 O720 1.936 . S
Mg721 O730 2.291 . S
Mg721 O735 2.081 . S
Mg721 O737 2.023 . S
Mg721 O741 2.031 . S
Mg722 O720 1.963 . S
Mg722 O726 1.986 . S
Mg722 O738 1.942 . S
Mg722 O739 1.955 . S
C723 O734 1.191 . S
C723 O736 1.307 . S
O724 Mg719 2.013 . S
O724 C743 1.191 . S
O725 Mg716 2.081 . S
O725 C733 1.331 . S
O726 Mg722 1.986 . S
O726 C743 1.307 . S
O727 Mg716 2.023 . S
O727 C742 1.264 . S
O728 Mg717 1.942 . S
O728 C733 1.244 . S
O729 Mg717 1.955 . S
O729 C742 1.273 . S
O730 Mg719 2.114 . S
O730 Mg721 2.291 . S
O730 C732 1.312 . S
O731 Mg716 2.031 . S
O731 C732 1.208 . S
C732 O730 1.312 . S
C732 O731 1.208 . S
C733 O725 1.331 . S
C733 O728 1.244 . S
O734 Mg719 2.013 . S
O734 C723 1.191 . S
O735 C714 1.331 . S
O735 Mg721 2.081 . S
O736 Mg717 1.986 . S
O736 C723 1.307 . S
O737 C715 1.264 . S
O737 Mg721 2.023 . S
O738 C714 1.244 . S
O738 Mg722 1.942 . S
O739 C715 1.273 . S
O739 Mg722 1.955 . S
O740 C713 1.312 . S
O740 Mg716 2.291 . S
O740 Mg719 2.114 . S
O741 C713 1.208 . S
O741 Mg721 2.031 . S
C742 O727 1.264 . S
C742 O729 1.273 . S
C743 O724 1.191 . S
C743 O726 1.307 . S
C744 C745 1.369 . S
C744 C746 1.419 . S
C744 H748 0.930 . S
C745 C744 1.369 . S
C745 C754 1.429 . S
C746 C744 1.419 . S
C746 C747 1.363 . S
C746 H749 0.929 . S
C747 C746 1.363 . S
C747 C753 1.428 . S
H748 C744 0.930 . S
H749 C746 0.929 . S
S750 N751 1.613 . S
S750 N752 1.610 . S
N751 S750 1.613 . S
N751 C754 1.350 . S
N752 S750 1.610 . S
N752 C753 1.351 . S
C753 C747 1.428 . S
C753 N752 1.351 . S
C753 C754 1.434 . S
C754 C745 1.429 . S
C754 N751 1.350 . S
C754 C753 1.434 . S
C755 C756 1.378 . S
C755 C757 1.426 . S
C755 H759 0.914 1_455 S
C756 C755 1.378 . S
C756 C765 1.429 . S
C757 C755 1.426 . S
C757 C758 1.363 . S
C757 H760 0.929 1_565 S
C758 C757 1.363 . S
C758 C764 1.428 . S
H759 C755 0.914 1_655 S
H760 C757 0.929 1_545 S
S761 N762 1.613 . S
S761 N763 1.610 . S
N762 S761 1.613 . S
N762 C765 1.350 . S
N763 S761 1.610 . S
N763 C764 1.351 . S
C764 C758 1.428 . S
C764 N763 1.351 . S
C764 C765 1.434 . S
C765 C756 1.429 . S
C765 N762 1.350 . S
C765 C764 1.434 . S
C766 C767 1.369 . S
C766 C768 1.419 . S
C766 H770 0.930 . S
C767 C766 1.369 . S
C767 C776 1.429 . S
C768 C766 1.419 . S
C768 C769 1.363 . S
C768 H771 0.929 . S
C769 C768 1.363 . S
C769 C775 1.428 . S
H770 C766 0.930 . S
H771 C768 0.929 . S
S772 N773 1.613 . S
S772 N774 1.610 . S
N773 S772 1.613 . S
N773 C776 1.350 . S
N774 S772 1.610 . S
N774 C775 1.351 . S
C775 C769 1.428 . S
C775 N774 1.351 . S
C775 C776 1.434 . S
C776 C767 1.429 . S
C776 N773 1.350 . S
C776 C775 1.434 . S
C777 C778 1.369 . S
C777 C779 1.419 . S
C777 H781 0.930 . S
C778 C777 1.369 . S
C778 C787 1.429 . S
C779 C777 1.419 . S
C779 C780 1.363 . S
C779 H782 0.929 . S
C780 C779 1.363 . S
C780 C786 1.428 . S
H781 C777 0.930 . S
H782 C779 0.929 . S
S783 N784 1.613 . S
S783 N785 1.610 . S
N784 S783 1.613 . S
N784 C787 1.350 . S
N785 S783 1.610 . S
N785 C786 1.351 . S
C786 C780 1.428 . S
C786 N785 1.351 . S
C786 C787 1.434 . S
C787 C778 1.429 . S
C787 N784 1.350 . S
C787 C786 1.434 . S
C788 C789 1.369 . S
C788 C790 1.419 . S
C788 H792 0.930 . S
C789 C788 1.369 . S
C789 C798 1.429 . S
C790 C788 1.419 . S
C790 C791 1.363 . S
C790 H793 0.929 . S
C791 C790 1.363 . S
C791 C797 1.428 . S
H792 C788 0.930 . S
H793 C790 0.929 . S
S794 N795 1.613 . S
S794 N796 1.610 . S
N795 S794 1.613 . S
N795 C798 1.350 . S
N796 S794 1.610 . S
N796 C797 1.351 . S
C797 C791 1.428 . S
C797 N796 1.351 . S
C797 C798 1.434 . S
C798 C789 1.429 . S
C798 N795 1.350 . S
C798 C797 1.434 . S
C799 C800 1.369 . S
C799 C801 1.419 . S
C799 H803 0.930 . S
C800 C799 1.369 . S
C800 C809 1.429 . S
C801 C799 1.419 . S
C801 C802 1.363 . S
C801 H804 0.929 . S
C802 C801 1.363 . S
C802 C808 1.428 . S
H803 C799 0.930 . S
H804 C801 0.929 . S
S805 N806 1.613 1_545 S
S805 N807 1.610 . S
N806 S805 1.613 1_565 S
N806 C809 1.350 . S
N807 S805 1.610 . S
N807 C808 1.351 1_545 S
C808 C802 1.428 . S
C808 N807 1.351 1_565 S
C808 C809 1.434 . S
C809 C800 1.429 . S
C809 N806 1.350 . S
C809 C808 1.434 . S
C810 C811 1.369 . S
C810 C812 1.419 . S
C810 H814 0.930 . S
C811 C810 1.369 . S
C811 C820 1.429 . S
C812 C810 1.419 . S
C812 C813 1.363 . S
C812 H815 0.929 . S
C813 C812 1.363 . S
C813 C819 1.428 . S
H814 C810 0.930 . S
H815 C812 0.929 . S
S816 N817 1.613 . S
S816 N818 1.610 . S
N817 S816 1.613 . S
N817 C820 1.350 . S
N818 S816 1.610 . S
N818 C819 1.351 . S
C819 C813 1.428 . S
C819 N818 1.351 . S
C819 C820 1.434 . S
C820 C811 1.429 . S
C820 N817 1.350 . S
C820 C819 1.434 . S
C821 C822 1.369 . S
C821 C823 1.419 . S
C821 H825 0.930 . S
C822 C821 1.369 . S
C822 C831 1.429 . S
C823 C821 1.419 . S
C823 C824 1.363 . S
C823 H826 0.929 . S
C824 C823 1.363 . S
C824 C830 1.428 . S
H825 C821 0.930 . S
H826 C823 0.929 . S
S827 N828 1.613 1_655 S
S827 N829 1.610 . S
N828 S827 1.613 1_455 S
N828 C831 1.350 . S
N829 S827 1.610 . S
N829 C830 1.351 1_655 S
C830 C824 1.428 . S
C830 N829 1.351 1_455 S
C830 C831 1.434 . S
C831 C822 1.429 . S
C831 N828 1.350 . S
C831 C830 1.434 . S
C832 C833 1.369 . S
C832 C834 1.419 . S
C832 H836 0.930 . S
C833 C832 1.369 . S
C833 C842 1.429 . S
C834 C832 1.419 . S
C834 C835 1.363 . S
C834 H837 0.929 . S
C835 C834 1.363 . S
C835 C841 1.428 . S
H836 C832 0.930 . S
H837 C834 0.929 . S
S838 N839 1.613 . S
S838 N840 1.610 . S
N839 S838 1.613 . S
N839 C842 1.350 . S
N840 S838 1.610 . S
N840 C841 1.351 . S
C841 C835 1.428 . S
C841 N840 1.351 . S
C841 C842 1.434 . S
C842 C833 1.429 . S
C842 N839 1.350 . S
C842 C841 1.434 . S
C843 C844 1.369 . S
C843 C845 1.419 . S
C843 H847 0.930 . S
C844 C843 1.369 . S
C844 C853 1.429 . S
C845 C843 1.419 . S
C845 C846 1.363 . S
C845 H848 0.929 . S
C846 C845 1.363 . S
C846 C852 1.428 . S
H847 C843 0.930 . S
H848 C845 0.929 . S
S849 N850 1.613 1_655 S
S849 N851 1.610 . S
N850 S849 1.613 1_455 S
N850 C853 1.350 . S
N851 S849 1.610 . S
N851 C852 1.351 1_655 S
C852 C846 1.428 . S
C852 N851 1.351 1_455 S
C852 C853 1.434 . S
C853 C844 1.429 . S
C853 N850 1.350 . S
C853 C852 1.434 . S
C854 C855 1.369 . S
C854 C856 1.419 . S
C854 H858 0.930 . S
C855 C854 1.369 . S
C855 C864 1.429 . S
C856 C854 1.419 . S
C856 C857 1.363 . S
C856 H859 0.929 . S
C857 C856 1.363 . S
C857 C863 1.428 . S
H858 C854 0.930 . S
H859 C856 0.929 . S
S860 N861 1.613 . S
S860 N862 1.610 . S
N861 S860 1.613 . S
N861 C864 1.350 . S
N862 S860 1.610 . S
N862 C863 1.351 . S
C863 C857 1.428 . S
C863 N862 1.351 . S
C863 C864 1.434 . S
C864 C855 1.429 . S
C864 N861 1.350 . S
C864 C863 1.434 . S
C865 C866 1.369 . S
C865 C867 1.419 1_556 S
C865 H869 0.930 1_556 S
C866 C865 1.369 . S
C866 C875 1.429 . S
C867 C865 1.419 1_554 S
C867 C868 1.363 1_554 S
C867 H870 0.929 . S
C868 C867 1.363 1_556 S
C868 C874 1.428 . S
H869 C865 0.930 1_554 S
H870 C867 0.929 . S
S871 N872 1.613 . S
S871 N873 1.610 . S
N872 S871 1.613 . S
N872 C875 1.350 . S
N873 S871 1.610 . S
N873 C874 1.351 . S
C874 C868 1.428 . S
C874 N873 1.351 . S
C874 C875 1.434 . S
C875 C866 1.429 . S
C875 N872 1.350 . S
C875 C874 1.434 . S
C876 C877 1.369 . S
C876 C878 1.419 . S
C876 H880 0.930 . S
C877 C876 1.369 . S
C877 C886 1.429 . S
C878 C876 1.419 . S
C878 C879 1.363 . S
C878 H881 0.929 . S
C879 C878 1.363 . S
C879 C885 1.428 . S
H880 C876 0.930 . S
H881 C878 0.929 . S
S882 N883 1.613 . S
S882 N884 1.610 . S
N883 S882 1.613 . S
N883 C886 1.350 . S
N884 S882 1.610 . S
N884 C885 1.351 . S
C885 C879 1.428 . S
C885 N884 1.351 . S
C885 C886 1.434 . S
C886 C877 1.429 . S
C886 N883 1.350 . S
C886 C885 1.434 . S
C887 C888 1.369 . S
C887 C889 1.419 . S
C887 H891 0.930 . S
C888 C887 1.369 . S
C888 C897 1.429 . S
C889 C887 1.419 . S
C889 C890 1.363 . S
C889 H892 0.929 . S
C890 C889 1.363 . S
C890 C896 1.428 . S
H891 C887 0.930 . S
H892 C889 0.929 . S
S893 N894 1.613 . S
S893 N895 1.610 . S
N894 S893 1.613 . S
N894 C897 1.350 . S
N895 S893 1.610 . S
N895 C896 1.351 . S
C896 C890 1.428 . S
C896 N895 1.351 . S
C896 C897 1.434 . S
C897 C888 1.429 . S
C897 N894 1.350 . S
C897 C896 1.434 . S
C898 C899 1.369 . S
C898 C900 1.419 . S
C898 H902 0.930 . S
C899 C898 1.369 . S
C899 C908 1.429 . S
C900 C898 1.419 . S
C900 C901 1.363 . S
C900 H903 0.929 . S
C901 C900 1.363 . S
C901 C907 1.428 . S
H902 C898 0.930 . S
H903 C900 0.929 . S
S904 N905 1.613 . S
S904 N906 1.610 . S
N905 S904 1.613 . S
N905 C908 1.350 . S
N906 S904 1.610 . S
N906 C907 1.351 . S
C907 C901 1.428 . S
C907 N906 1.351 . S
C907 C908 1.434 . S
C908 C899 1.429 . S
C908 N905 1.350 . S
C908 C907 1.434 . S
C909 C910 1.369 . S
C909 C911 1.419 . S
C909 H913 0.930 . S
C910 C909 1.369 . S
C910 C919 1.429 . S
C911 C909 1.419 . S
C911 C912 1.363 . S
C911 H914 0.929 . S
C912 C911 1.363 . S
C912 C918 1.428 1_554 S
H913 C909 0.930 . S
H914 C911 0.929 . S
S915 N916 1.613 . S
S915 N917 1.610 1_655 S
N916 S915 1.613 . S
N916 C919 1.350 1_656 S
N917 S915 1.610 1_455 S
N917 C918 1.351 . S
C918 C912 1.428 1_556 S
C918 N917 1.351 . S
C918 C919 1.434 1_556 S
C919 C910 1.429 . S
C919 N916 1.350 1_454 S
C919 C918 1.434 1_554 S
C920 C921 1.369 . S
C920 C922 1.419 . S
C920 H924 0.930 . S
C921 C920 1.369 . S
C921 C930 1.429 . S
C922 C920 1.419 . S
C922 C923 1.363 . S
C922 H925 0.929 . S
C923 C922 1.363 . S
C923 C929 1.428 . S
H924 C920 0.930 . S
H925 C922 0.929 . S
S926 N927 1.613 . S
S926 N928 1.610 . S
N927 S926 1.613 . S
N927 C930 1.350 . S
N928 S926 1.610 . S
N928 C929 1.351 . S
C929 C923 1.428 . S
C929 N928 1.351 . S
C929 C930 1.434 . S
C930 C921 1.429 . S
C930 N927 1.350 . S
C930 C929 1.434 . S
C931 C932 1.369 . S
C931 C933 1.419 . S
C931 H935 0.930 . S
C932 C931 1.369 . S
C932 C941 1.429 . S
C933 C931 1.419 . S
C933 C934 1.363 . S
C933 H936 0.929 . S
C934 C933 1.363 . S
C934 C940 1.428 . S
H935 C931 0.930 . S
H936 C933 0.929 . S
S937 N938 1.613 . S
S937 N939 1.610 . S
N938 S937 1.613 . S
N938 C941 1.350 . S
N939 S937 1.610 . S
N939 C940 1.351 . S
C940 C934 1.428 . S
C940 N939 1.351 . S
C940 C941 1.434 . S
C941 C932 1.429 . S
C941 N938 1.350 . S
C941 C940 1.434 . S
C942 C943 1.369 . S
C942 C944 1.419 . S
C942 H946 0.930 1_554 S
C943 C942 1.369 . S
C943 C952 1.429 . S
C944 C942 1.419 . S
C944 C945 1.363 . S
C944 H947 0.929 . S
C945 C944 1.363 . S
C945 C951 1.428 . S
H946 C942 0.930 1_556 S
H947 C944 0.929 . S
S948 N949 1.613 . S
S948 N950 1.610 . S
N949 S948 1.613 . S
N949 C952 1.350 . S
N950 S948 1.610 . S
N950 C951 1.351 . S
C951 C945 1.428 . S
C951 N950 1.351 . S
C951 C952 1.434 . S
C952 C943 1.429 . S
C952 N949 1.350 . S
C952 C951 1.434 . S
C953 C954 1.369 . S
C953 C955 1.419 . S
C953 H957 0.930 . S
C954 C953 1.369 . S
C954 C963 1.429 . S
C955 C953 1.419 . S
C955 C956 1.363 . S
C955 H958 0.929 . S
C956 C955 1.363 . S
C956 C962 1.428 . S
H957 C953 0.930 . S
H958 C955 0.929 . S
S959 N960 1.613 . S
S959 N961 1.610 . S
N960 S959 1.613 . S
N960 C963 1.350 . S
N961 S959 1.610 . S
N961 C962 1.351 . S
C962 C956 1.428 . S
C962 N961 1.351 . S
C962 C963 1.434 . S
C963 C954 1.429 . S
C963 N960 1.350 . S
C963 C962 1.434 . S
C964 C965 1.369 . S
C964 C966 1.419 . S
C964 H968 0.930 1_554 S
C965 C964 1.369 . S
C965 C974 1.429 . S
C966 C964 1.419 . S
C966 C967 1.363 . S
C966 H969 0.929 . S
C967 C966 1.363 . S
C967 C973 1.428 . S
H968 C964 0.930 1_556 S
H969 C966 0.929 . S
S970 N971 1.613 1_565 S
S970 N972 1.610 . S
N971 S970 1.613 1_545 S
N971 C974 1.350 . S
N972 S970 1.610 . S
N972 C973 1.351 1_565 S
C973 C967 1.428 . S
C973 N972 1.351 1_545 S
C973 C974 1.434 . S
C974 C965 1.429 . S
C974 N971 1.350 . S
C974 C973 1.434 . S
C975 C976 1.369 . S
C975 C977 1.419 . S
C975 H979 0.930 . S
C976 C975 1.369 . S
C976 C985 1.429 . S
C977 C975 1.419 . S
C977 C978 1.363 . S
C977 H980 0.929 . S
C978 C977 1.363 . S
C978 C984 1.428 . S
H979 C975 0.930 . S
H980 C977 0.929 . S
S981 N982 1.613 . S
S981 N983 1.610 . S
N982 S981 1.613 . S
N982 C985 1.350 . S
N983 S981 1.610 . S
N983 C984 1.351 . S
C984 C978 1.428 . S
C984 N983 1.351 . S
C984 C985 1.434 . S
C985 C976 1.429 . S
C985 N982 1.350 . S
C985 C984 1.434 . S
C986 C987 1.369 . S
C986 C988 1.419 . S
C986 H990 0.930 . S
C987 C986 1.369 . S
C987 C996 1.429 . S
C988 C986 1.419 . S
C988 C989 1.363 . S
C988 H991 0.929 . S
C989 C988 1.363 . S
C989 C995 1.428 . S
H990 C986 0.930 . S
H991 C988 0.929 . S
S992 N993 1.613 . S
S992 N994 1.610 . S
N993 S992 1.613 . S
N993 C996 1.350 . S
N994 S992 1.610 . S
N994 C995 1.351 . S
C995 C989 1.428 . S
C995 N994 1.351 . S
C995 C996 1.434 . S
C996 C987 1.429 . S
C996 N993 1.350 . S
C996 C995 1.434 . S
C997 C998 1.369 . S
C997 C999 1.419 . S
C997 H1001 0.930 . S
C998 C997 1.369 . S
C998 C1007 1.429 . S
C999 C997 1.419 . S
C999 C1000 1.363 . S
C999 H1002 0.929 . S
C1000 C999 1.363 . S
C1000 C1006 1.428 . S
H1001 C997 0.930 . S
H1002 C999 0.929 . S
S1003 N1004 1.613 1_556 S
S1003 N1005 1.610 . S
N1004 S1003 1.613 1_554 S
N1004 C1007 1.350 1_554 S
N1005 S1003 1.610 . S
N1005 C1006 1.351 . S
C1006 C1000 1.428 . S
C1006 N1005 1.351 . S
C1006 C1007 1.434 . S
C1007 C998 1.429 . S
C1007 N1004 1.350 1_556 S
C1007 C1006 1.434 . S
C1008 C1009 1.369 . S
C1008 C1010 1.419 . S
C1008 H1012 0.930 . S
C1009 C1008 1.369 . S
C1009 C1018 1.429 . S
C1010 C1008 1.419 . S
C1010 C1011 1.363 . S
C1010 H1013 0.929 . S
C1011 C1010 1.363 . S
C1011 C1017 1.428 . S
H1012 C1008 0.930 . S
H1013 C1010 0.929 . S
S1014 N1015 1.613 . S
S1014 N1016 1.610 . S
N1015 S1014 1.613 . S
N1015 C1018 1.350 . S
N1016 S1014 1.610 . S
N1016 C1017 1.351 . S
C1017 C1011 1.428 . S
C1017 N1016 1.351 . S
C1017 C1018 1.434 . S
C1018 C1009 1.429 . S
C1018 N1015 1.350 . S
C1018 C1017 1.434 . S
C1019 C1020 1.369 . S
C1019 C1021 1.419 . S
C1019 H1023 0.930 . S
C1020 C1019 1.369 . S
C1020 C1029 1.429 . S
C1021 C1019 1.419 . S
C1021 C1022 1.363 . S
C1021 H1024 0.929 . S
C1022 C1021 1.363 . S
C1022 C1028 1.428 . S
H1023 C1019 0.930 . S
H1024 C1021 0.929 . S
S1025 N1026 1.613 . S
S1025 N1027 1.610 . S
N1026 S1025 1.613 . S
N1026 C1029 1.350 . S
N1027 S1025 1.610 . S
N1027 C1028 1.351 . S
C1028 C1022 1.428 . S
C1028 N1027 1.351 . S
C1028 C1029 1.434 . S
C1029 C1020 1.429 . S
C1029 N1026 1.350 . S
C1029 C1028 1.434 . S
C1030 C1031 1.369 . S
C1030 C1032 1.419 . S
C1030 H1034 0.930 . S
C1031 C1030 1.369 . S
C1031 C1040 1.429 . S
C1032 C1030 1.419 . S
C1032 C1033 1.363 . S
C1032 H1035 0.929 . S
C1033 C1032 1.363 . S
C1033 C1039 1.428 . S
H1034 C1030 0.930 . S
H1035 C1032 0.929 . S
S1036 N1037 1.613 . S
S1036 N1038 1.610 . S
N1037 S1036 1.613 . S
N1037 C1040 1.350 . S
N1038 S1036 1.610 . S
N1038 C1039 1.351 . S
C1039 C1033 1.428 . S
C1039 N1038 1.351 . S
C1039 C1040 1.434 . S
C1040 C1031 1.429 . S
C1040 N1037 1.350 . S
C1040 C1039 1.434 . S
C1041 C1042 1.369 1_455 S
C1041 C1043 1.419 1_455 S
C1041 H1045 0.930 . S
C1042 C1041 1.369 1_655 S
C1042 C1051 1.429 . S
C1043 C1041 1.419 1_655 S
C1043 C1044 1.363 . S
C1043 H1046 0.929 1_655 S
C1044 C1043 1.363 . S
C1044 C1050 1.428 . S
H1045 C1041 0.930 . S
H1046 C1043 0.929 1_455 S
S1047 N1048 1.613 . S
S1047 N1049 1.610 . S
N1048 S1047 1.613 . S
N1048 C1051 1.350 . S
N1049 S1047 1.610 . S
N1049 C1050 1.351 . S
C1050 C1044 1.428 . S
C1050 N1049 1.351 . S
C1050 C1051 1.434 . S
C1051 C1042 1.429 . S
C1051 N1048 1.350 . S
C1051 C1050 1.434 . S
C1052 C1053 1.369 . S
C1052 C1054 1.419 . S
C1052 H1056 0.930 . S
C1053 C1052 1.369 . S
C1053 C1062 1.429 . S
C1054 C1052 1.419 . S
C1054 C1055 1.363 . S
C1054 H1057 0.929 . S
C1055 C1054 1.363 . S
C1055 C1061 1.428 . S
H1056 C1052 0.930 . S
H1057 C1054 0.929 . S
S1058 N1059 1.613 . S
S1058 N1060 1.610 . S
N1059 S1058 1.613 . S
N1059 C1062 1.350 . S
N1060 S1058 1.610 . S
N1060 C1061 1.351 . S
C1061 C1055 1.428 . S
C1061 N1060 1.351 . S
C1061 C1062 1.434 . S
C1062 C1053 1.429 . S
C1062 N1059 1.350 . S
C1062 C1061 1.434 . S
C1063 C1064 1.369 . S
C1063 C1065 1.419 . S
C1063 H1067 0.930 . S
C1064 C1063 1.369 . S
C1064 C1073 1.429 . S
C1065 C1063 1.419 . S
C1065 C1066 1.363 . S
C1065 H1068 0.929 . S
C1066 C1065 1.363 . S
C1066 C1072 1.428 1_655 S
H1067 C1063 0.930 . S
H1068 C1065 0.929 . S
S1069 N1070 1.613 . S
S1069 N1071 1.610 . S
N1070 S1069 1.613 . S
N1070 C1073 1.350 1_455 S
N1071 S1069 1.610 . S
N1071 C1072 1.351 . S
C1072 C1066 1.428 1_455 S
C1072 N1071 1.351 . S
C1072 C1073 1.434 1_455 S
C1073 C1064 1.429 . S
C1073 N1070 1.350 1_655 S
C1073 C1072 1.434 1_655 S
C1074 C1075 1.369 . S
C1074 C1076 1.419 . S
C1074 H1078 0.930 . S
C1075 C1074 1.369 . S
C1075 C1084 1.429 . S
C1076 C1074 1.419 . S
C1076 C1077 1.363 . S
C1076 H1079 0.929 . S
C1077 C1076 1.363 . S
C1077 C1083 1.428 . S
H1078 C1074 0.930 . S
H1079 C1076 0.929 . S
S1080 N1081 1.613 . S
S1080 N1082 1.610 . S
N1081 S1080 1.613 . S
N1081 C1084 1.350 . S
N1082 S1080 1.610 . S
N1082 C1083 1.351 . S
C1083 C1077 1.428 . S
C1083 N1082 1.351 . S
C1083 C1084 1.434 . S
C1084 C1075 1.429 . S
C1084 N1081 1.350 . S
C1084 C1083 1.434 . S
C1085 C1086 1.369 . S
C1085 C1087 1.419 . S
C1085 H1089 0.930 . S
C1086 C1085 1.369 . S
C1086 C1095 1.429 . S
C1087 C1085 1.419 . S
C1087 C1088 1.363 . S
C1087 H1090 0.929 . S
C1088 C1087 1.363 . S
C1088 C1094 1.428 . S
H1089 C1085 0.930 . S
H1090 C1087 0.929 . S
S1091 N1092 1.613 . S
S1091 N1093 1.610 . S
N1092 S1091 1.613 . S
N1092 C1095 1.350 . S
N1093 S1091 1.610 . S
N1093 C1094 1.351 . S
C1094 C1088 1.428 . S
C1094 N1093 1.351 . S
C1094 C1095 1.434 . S
C1095 C1086 1.429 . S
C1095 N1092 1.350 . S
C1095 C1094 1.434 . S
C1096 C1097 1.369 . S
C1096 C1098 1.419 . S
C1096 H1100 0.930 . S
C1097 C1096 1.369 . S
C1097 C1106 1.429 . S
C1098 C1096 1.419 . S
C1098 C1099 1.363 . S
C1098 H1101 0.929 . S
C1099 C1098 1.363 . S
C1099 C1105 1.428 . S
H1100 C1096 0.930 . S
H1101 C1098 0.929 . S
S1102 N1103 1.613 . S
S1102 N1104 1.610 . S
N1103 S1102 1.613 . S
N1103 C1106 1.350 . S
N1104 S1102 1.610 . S
N1104 C1105 1.351 . S
C1105 C1099 1.428 . S
C1105 N1104 1.351 . S
C1105 C1106 1.434 . S
C1106 C1097 1.429 . S
C1106 N1103 1.350 . S
C1106 C1105 1.434 . S
C1107 C1108 1.369 . S
C1107 C1109 1.419 . S
C1107 H1111 0.930 . S
C1108 C1107 1.369 . S
C1108 C1117 1.429 . S
C1109 C1107 1.419 . S
C1109 C1110 1.363 . S
C1109 H1112 0.929 . S
C1110 C1109 1.363 . S
C1110 C1116 1.428 . S
H1111 C1107 0.930 . S
H1112 C1109 0.929 . S
S1113 N1114 1.613 . S
S1113 N1115 1.610 1_554 S
N1114 S1113 1.613 . S
N1114 C1117 1.350 1_554 S
N1115 S1113 1.610 1_556 S
N1115 C1116 1.351 . S
C1116 C1110 1.428 . S
C1116 N1115 1.351 . S
C1116 C1117 1.434 . S
C1117 C1108 1.429 . S
C1117 N1114 1.350 1_556 S
C1117 C1116 1.434 . S
C1118 C1119 1.369 . S
C1118 C1120 1.419 . S
C1118 H1122 0.930 . S
C1119 C1118 1.369 . S
C1119 C1128 1.429 . S
C1120 C1118 1.419 . S
C1120 C1121 1.363 . S
C1120 H1123 0.929 . S
C1121 C1120 1.363 . S
C1121 C1127 1.428 . S
H1122 C1118 0.930 . S
H1123 C1120 0.929 . S
S1124 N1125 1.613 . S
S1124 N1126 1.610 . S
N1125 S1124 1.613 . S
N1125 C1128 1.350 . S
N1126 S1124 1.610 . S
N1126 C1127 1.351 . S
C1127 C1121 1.428 . S
C1127 N1126 1.351 . S
C1127 C1128 1.434 . S
C1128 C1119 1.429 . S
C1128 N1125 1.350 . S
C1128 C1127 1.434 . S
C1129 C1130 1.369 . S
C1129 C1131 1.419 . S
C1129 H1133 0.930 1_655 S
C1130 C1129 1.369 . S
C1130 C1139 1.429 . S
C1131 C1129 1.419 . S
C1131 C1132 1.363 . S
C1131 H1134 0.929 . S
C1132 C1131 1.363 . S
C1132 C1138 1.428 . S
H1133 C1129 0.930 1_455 S
H1134 C1131 0.929 . S
S1135 N1136 1.613 . S
S1135 N1137 1.610 . S
N1136 S1135 1.613 . S
N1136 C1139 1.350 . S
N1137 S1135 1.610 . S
N1137 C1138 1.351 . S
C1138 C1132 1.428 . S
C1138 N1137 1.351 . S
C1138 C1139 1.434 . S
C1139 C1130 1.429 . S
C1139 N1136 1.350 . S
C1139 C1138 1.434 . S
C1140 C1141 1.369 . S
C1140 C1142 1.419 . S
C1140 H1144 0.930 . S
C1141 C1140 1.369 . S
C1141 C1150 1.429 . S
C1142 C1140 1.419 . S
C1142 C1143 1.363 . S
C1142 H1145 0.929 . S
C1143 C1142 1.363 . S
C1143 C1149 1.428 . S
H1144 C1140 0.930 . S
H1145 C1142 0.929 . S
S1146 N1147 1.613 . S
S1146 N1148 1.610 . S
N1147 S1146 1.613 . S
N1147 C1150 1.350 . S
N1148 S1146 1.610 . S
N1148 C1149 1.351 . S
C1149 C1143 1.428 . S
C1149 N1148 1.351 . S
C1149 C1150 1.434 . S
C1150 C1141 1.429 . S
C1150 N1147 1.350 . S
C1150 C1149 1.434 . S
C1151 C1152 1.369 . S
C1151 C1153 1.419 . S
C1151 H1155 0.930 . S
C1152 C1151 1.369 . S
C1152 C1161 1.429 . S
C1153 C1151 1.419 . S
C1153 C1154 1.363 . S
C1153 H1156 0.929 1_655 S
C1154 C1153 1.363 . S
C1154 C1160 1.428 . S
H1155 C1151 0.930 . S
H1156 C1153 0.929 1_455 S
S1157 N1158 1.613 . S
S1157 N1159 1.610 . S
N1158 S1157 1.613 . S
N1158 C1161 1.350 . S
N1159 S1157 1.610 . S
N1159 C1160 1.351 . S
C1160 C1154 1.428 . S
C1160 N1159 1.351 . S
C1160 C1161 1.434 . S
C1161 C1152 1.429 . S
C1161 N1158 1.350 . S
C1161 C1160 1.434 . S
C1162 C1163 1.369 . S
C1162 C1164 1.419 . S
C1162 H1166 0.930 . S
C1163 C1162 1.369 . S
C1163 C1172 1.429 . S
C1164 C1162 1.419 . S
C1164 C1165 1.363 . S
C1164 H1167 0.929 . S
C1165 C1164 1.363 . S
C1165 C1171 1.428 . S
H1166 C1162 0.930 . S
H1167 C1164 0.929 . S
S1168 N1169 1.613 . S
S1168 N1170 1.610 . S
N1169 S1168 1.613 . S
N1169 C1172 1.350 . S
N1170 S1168 1.610 . S
N1170 C1171 1.351 . S
C1171 C1165 1.428 . S
C1171 N1170 1.351 . S
C1171 C1172 1.434 . S
C1172 C1163 1.429 . S
C1172 N1169 1.350 . S
C1172 C1171 1.434 . S
C1173 C1174 1.369 . S
C1173 C1175 1.419 . S
C1173 H1177 0.930 . S
C1174 C1173 1.369 . S
C1174 C1183 1.429 . S
C1175 C1173 1.419 . S
C1175 C1176 1.363 . S
C1175 H1178 0.929 . S
C1176 C1175 1.363 . S
C1176 C1182 1.428 . S
H1177 C1173 0.930 . S
H1178 C1175 0.929 . S
S1179 N1180 1.613 . S
S1179 N1181 1.610 . S
N1180 S1179 1.613 . S
N1180 C1183 1.350 . S
N1181 S1179 1.610 . S
N1181 C1182 1.351 . S
C1182 C1176 1.428 . S
C1182 N1181 1.351 . S
C1182 C1183 1.434 . S
C1183 C1174 1.429 . S
C1183 N1180 1.350 . S
C1183 C1182 1.434 . S
C1184 C1185 1.369 . S
C1184 C1186 1.419 . S
C1184 H1188 0.930 . S
C1185 C1184 1.369 . S
C1185 C1194 1.429 . S
C1186 C1184 1.419 . S
C1186 C1187 1.363 . S
C1186 H1189 0.929 . S
C1187 C1186 1.363 . S
C1187 C1193 1.428 . S
H1188 C1184 0.930 . S
H1189 C1186 0.929 . S
S1190 N1191 1.613 . S
S1190 N1192 1.610 . S
N1191 S1190 1.613 . S
N1191 C1194 1.350 . S
N1192 S1190 1.610 . S
N1192 C1193 1.351 . S
C1193 C1187 1.428 . S
C1193 N1192 1.351 . S
C1193 C1194 1.434 . S
C1194 C1185 1.429 . S
C1194 N1191 1.350 . S
C1194 C1193 1.434 . S
C1195 C1196 1.369 . S
C1195 C1197 1.419 . S
C1195 H1199 0.930 . S
C1196 C1195 1.369 . S
C1196 C1205 1.429 . S
C1197 C1195 1.419 . S
C1197 C1198 1.363 . S
C1197 H1200 0.929 . S
C1198 C1197 1.363 . S
C1198 C1204 1.428 . S
H1199 C1195 0.930 . S
H1200 C1197 0.929 . S
S1201 N1202 1.613 . S
S1201 N1203 1.610 . S
N1202 S1201 1.613 . S
N1202 C1205 1.350 . S
N1203 S1201 1.610 . S
N1203 C1204 1.351 . S
C1204 C1198 1.428 . S
C1204 N1203 1.351 . S
C1204 C1205 1.434 . S
C1205 C1196 1.429 . S
C1205 N1202 1.350 . S
C1205 C1204 1.434 . S
C1206 C1207 1.369 . S
C1206 C1208 1.419 . S
C1206 H1210 0.930 . S
C1207 C1206 1.369 . S
C1207 C1216 1.429 1_565 S
C1208 C1206 1.419 . S
C1208 C1209 1.363 . S
C1208 H1211 0.929 . S
C1209 C1208 1.363 . S
C1209 C1215 1.428 . S
H1210 C1206 0.930 . S
H1211 C1208 0.929 . S
S1212 N1213 1.613 . S
S1212 N1214 1.610 . S
N1213 S1212 1.613 . S
N1213 C1216 1.350 . S
N1214 S1212 1.610 . S
N1214 C1215 1.351 1_545 S
C1215 C1209 1.428 . S
C1215 N1214 1.351 1_565 S
C1215 C1216 1.434 1_565 S
C1216 C1207 1.429 1_545 S
C1216 N1213 1.350 . S
C1216 C1215 1.434 1_545 S
C1217 C1218 1.369 . S
C1217 C1219 1.419 . S
C1217 H1221 0.930 . S
C1218 C1217 1.369 . S
C1218 C1227 1.429 . S
C1219 C1217 1.419 . S
C1219 C1220 1.363 . S
C1219 H1222 0.929 . S
C1220 C1219 1.363 . S
C1220 C1226 1.428 . S
H1221 C1217 0.930 . S
H1222 C1219 0.929 . S
S1223 N1224 1.613 . S
S1223 N1225 1.610 . S
N1224 S1223 1.613 . S
N1224 C1227 1.350 . S
N1225 S1223 1.610 . S
N1225 C1226 1.351 . S
C1226 C1220 1.428 . S
C1226 N1225 1.351 . S
C1226 C1227 1.434 . S
C1227 C1218 1.429 . S
C1227 N1224 1.350 . S
C1227 C1226 1.434 . S
C1228 C1229 1.369 . S
C1228 C1230 1.419 . S
C1228 H1232 0.930 . S
C1229 C1228 1.369 . S
C1229 C1238 1.429 . S
C1230 C1228 1.419 . S
C1230 C1231 1.363 . S
C1230 H1233 0.929 . S
C1231 C1230 1.363 . S
C1231 C1237 1.428 . S
H1232 C1228 0.930 . S
H1233 C1230 0.929 . S
S1234 N1235 1.613 . S
S1234 N1236 1.610 . S
N1235 S1234 1.613 . S
N1235 C1238 1.350 . S
N1236 S1234 1.610 . S
N1236 C1237 1.351 . S
C1237 C1231 1.428 . S
C1237 N1236 1.351 . S
C1237 C1238 1.434 . S
C1238 C1229 1.429 . S
C1238 N1235 1.350 . S
C1238 C1237 1.434 . S
C1239 C1240 1.369 . S
C1239 C1241 1.419 . S
C1239 H1243 0.930 . S
C1240 C1239 1.369 . S
C1240 C1249 1.429 . S
C1241 C1239 1.419 . S
C1241 C1242 1.363 . S
C1241 H1244 0.929 . S
C1242 C1241 1.363 . S
C1242 C1248 1.428 . S
H1243 C1239 0.930 . S
H1244 C1241 0.929 . S
S1245 N1246 1.613 . S
S1245 N1247 1.610 . S
N1246 S1245 1.613 . S
N1246 C1249 1.350 . S
N1247 S1245 1.610 . S
N1247 C1248 1.351 . S
C1248 C1242 1.428 . S
C1248 N1247 1.351 . S
C1248 C1249 1.434 . S
C1249 C1240 1.429 . S
C1249 N1246 1.350 . S
C1249 C1248 1.434 . S
C1250 C1251 1.369 . S
C1250 C1252 1.419 . S
C1250 H1254 0.930 . S
C1251 C1250 1.369 . S
C1251 C1260 1.429 . S
C1252 C1250 1.419 . S
C1252 C1253 1.363 . S
C1252 H1255 0.929 1_556 S
C1253 C1252 1.363 . S
C1253 C1259 1.428 . S
H1254 C1250 0.930 . S
H1255 C1252 0.929 1_554 S
S1256 N1257 1.613 . S
S1256 N1258 1.610 . S
N1257 S1256 1.613 . S
N1257 C1260 1.350 . S
N1258 S1256 1.610 . S
N1258 C1259 1.351 . S
C1259 C1253 1.428 . S
C1259 N1258 1.351 . S
C1259 C1260 1.434 . S
C1260 C1251 1.429 . S
C1260 N1257 1.350 . S
C1260 C1259 1.434 . S
C1261 C1262 1.369 . S
C1261 C1263 1.419 . S
C1261 H1265 0.930 . S
C1262 C1261 1.369 . S
C1262 C1271 1.429 . S
C1263 C1261 1.419 . S
C1263 C1264 1.363 . S
C1263 H1266 0.929 . S
C1264 C1263 1.363 . S
C1264 C1270 1.428 . S
H1265 C1261 0.930 . S
H1266 C1263 0.929 . S
S1267 N1268 1.613 . S
S1267 N1269 1.610 . S
N1268 S1267 1.613 . S
N1268 C1271 1.350 . S
N1269 S1267 1.610 . S
N1269 C1270 1.351 . S
C1270 C1264 1.428 . S
C1270 N1269 1.351 . S
C1270 C1271 1.434 . S
C1271 C1262 1.429 . S
C1271 N1268 1.350 . S
C1271 C1270 1.434 . S
C1272 C1273 1.369 . S
C1272 C1274 1.419 . S
C1272 H1276 0.930 . S
C1273 C1272 1.369 . S
C1273 C1282 1.429 . S
C1274 C1272 1.419 . S
C1274 C1275 1.363 . S
C1274 H1277 0.929 . S
C1275 C1274 1.363 . S
C1275 C1281 1.428 . S
H1276 C1272 0.930 . S
H1277 C1274 0.929 . S
S1278 N1279 1.613 . S
S1278 N1280 1.610 . S
N1279 S1278 1.613 . S
N1279 C1282 1.350 . S
N1280 S1278 1.610 . S
N1280 C1281 1.351 . S
C1281 C1275 1.428 . S
C1281 N1280 1.351 . S
C1281 C1282 1.434 . S
C1282 C1273 1.429 . S
C1282 N1279 1.350 . S
C1282 C1281 1.434 . S
C1283 C1284 1.369 . S
C1283 C1285 1.419 1_455 S
C1283 H1287 0.930 . S
C1284 C1283 1.369 . S
C1284 C1293 1.429 . S
C1285 C1283 1.419 1_655 S
C1285 C1286 1.363 . S
C1285 H1288 0.929 . S
C1286 C1285 1.363 . S
C1286 C1292 1.428 . S
H1287 C1283 0.930 . S
H1288 C1285 0.929 . S
S1289 N1290 1.613 . S
S1289 N1291 1.610 1_455 S
N1290 S1289 1.613 . S
N1290 C1293 1.350 . S
N1291 S1289 1.610 1_655 S
N1291 C1292 1.351 . S
C1292 C1286 1.428 . S
C1292 N1291 1.351 . S
C1292 C1293 1.434 1_655 S
C1293 C1284 1.429 . S
C1293 N1290 1.350 . S
C1293 C1292 1.434 1_455 S
C1294 C1295 1.369 1_556 S
C1294 C1296 1.419 . S
C1294 H1298 0.930 . S
C1295 C1294 1.369 1_554 S
C1295 C1304 1.429 . S
C1296 C1294 1.419 . S
C1296 C1297 1.363 . S
C1296 H1299 0.929 . S
C1297 C1296 1.363 . S
C1297 C1303 1.428 1_556 S
H1298 C1294 0.930 . S
H1299 C1296 0.929 . S
S1300 N1301 1.613 . S
S1300 N1302 1.610 . S
N1301 S1300 1.613 . S
N1301 C1304 1.350 . S
N1302 S1300 1.610 . S
N1302 C1303 1.351 . S
C1303 C1297 1.428 1_554 S
C1303 N1302 1.351 . S
C1303 C1304 1.434 . S
C1304 C1295 1.429 . S
C1304 N1301 1.350 . S
C1304 C1303 1.434 . S
C1305 C1306 1.369 . S
C1305 C1307 1.419 . S
C1305 H1309 0.930 . S
C1306 C1305 1.369 . S
C1306 C1315 1.429 . S
C1307 C1305 1.419 . S
C1307 C1308 1.363 . S
C1307 H1310 0.929 . S
C1308 C1307 1.363 . S
C1308 C1314 1.428 . S
H1309 C1305 0.930 . S
H1310 C1307 0.929 . S
S1311 N1312 1.613 . S
S1311 N1313 1.610 . S
N1312 S1311 1.613 . S
N1312 C1315 1.350 . S
N1313 S1311 1.610 . S
N1313 C1314 1.351 . S
C1314 C1308 1.428 . S
C1314 N1313 1.351 . S
C1314 C1315 1.434 . S
C1315 C1306 1.429 . S
C1315 N1312 1.350 . S
C1315 C1314 1.434 . S
C1316 C1317 1.369 1_554 S
C1316 C1318 1.419 . S
C1316 H1320 0.930 . S
C1317 C1316 1.369 1_556 S
C1317 C1326 1.429 . S
C1318 C1316 1.419 . S
C1318 C1319 1.363 . S
C1318 H1321 0.929 . S
C1319 C1318 1.363 . S
C1319 C1325 1.428 1_554 S
H1320 C1316 0.930 . S
H1321 C1318 0.929 . S
S1322 N1323 1.613 . S
S1322 N1324 1.610 . S
N1323 S1322 1.613 . S
N1323 C1326 1.350 . S
N1324 S1322 1.610 . S
N1324 C1325 1.351 . S
C1325 C1319 1.428 1_556 S
C1325 N1324 1.351 . S
C1325 C1326 1.434 . S
C1326 C1317 1.429 . S
C1326 N1323 1.350 . S
C1326 C1325 1.434 . S
C1327 C1328 1.369 . S
C1327 C1329 1.419 . S
C1327 H1331 0.930 . S
C1328 C1327 1.369 . S
C1328 C1337 1.429 . S
C1329 C1327 1.419 . S
C1329 C1330 1.363 . S
C1329 H1332 0.929 . S
C1330 C1329 1.363 . S
C1330 C1336 1.428 . S
H1331 C1327 0.930 . S
H1332 C1329 0.929 . S
S1333 N1334 1.613 . S
S1333 N1335 1.610 . S
N1334 S1333 1.613 . S
N1334 C1337 1.350 . S
N1335 S1333 1.610 . S
N1335 C1336 1.351 . S
C1336 C1330 1.428 . S
C1336 N1335 1.351 . S
C1336 C1337 1.434 . S
C1337 C1328 1.429 . S
C1337 N1334 1.350 . S
C1337 C1336 1.434 . S
C1338 C1339 1.369 . S
C1338 C1340 1.419 . S
C1338 H1342 0.930 . S
C1339 C1338 1.369 . S
C1339 C1348 1.429 . S
C1340 C1338 1.419 . S
C1340 C1341 1.363 . S
C1340 H1343 0.929 . S
C1341 C1340 1.363 . S
C1341 C1347 1.428 . S
H1342 C1338 0.930 . S
H1343 C1340 0.929 . S
S1344 N1345 1.613 . S
S1344 N1346 1.610 . S
N1345 S1344 1.613 . S
N1345 C1348 1.350 . S
N1346 S1344 1.610 . S
N1346 C1347 1.351 . S
C1347 C1341 1.428 . S
C1347 N1346 1.351 . S
C1347 C1348 1.434 . S
C1348 C1339 1.429 . S
C1348 N1345 1.350 . S
C1348 C1347 1.434 . S
C1349 C1350 1.369 . S
C1349 C1351 1.419 . S
C1349 H1353 0.930 . S
C1350 C1349 1.369 . S
C1350 C1359 1.429 1_655 S
C1351 C1349 1.419 . S
C1351 C1352 1.363 1_655 S
C1351 H1354 0.929 . S
C1352 C1351 1.363 1_455 S
C1352 C1358 1.428 . S
H1353 C1349 0.930 . S
H1354 C1351 0.929 . S
S1355 N1356 1.613 . S
S1355 N1357 1.610 . S
N1356 S1355 1.613 . S
N1356 C1359 1.350 . S
N1357 S1355 1.610 . S
N1357 C1358 1.351 . S
C1358 C1352 1.428 . S
C1358 N1357 1.351 . S
C1358 C1359 1.434 . S
C1359 C1350 1.429 1_455 S
C1359 N1356 1.350 . S
C1359 C1358 1.434 . S
C1360 C1361 1.369 . S
C1360 C1362 1.419 . S
C1360 H1364 0.930 . S
C1361 C1360 1.369 . S
C1361 C1370 1.429 . S
C1362 C1360 1.419 . S
C1362 C1363 1.363 . S
C1362 H1365 0.929 . S
C1363 C1362 1.363 . S
C1363 C1369 1.428 . S
H1364 C1360 0.930 . S
H1365 C1362 0.929 . S
S1366 N1367 1.613 . S
S1366 N1368 1.610 . S
N1367 S1366 1.613 . S
N1367 C1370 1.350 . S
N1368 S1366 1.610 . S
N1368 C1369 1.351 . S
C1369 C1363 1.428 . S
C1369 N1368 1.351 . S
C1369 C1370 1.434 . S
C1370 C1361 1.429 . S
C1370 N1367 1.350 . S
C1370 C1369 1.434 . S
C1371 C1372 1.369 . S
C1371 C1373 1.419 1_545 S
C1371 H1375 0.930 . S
C1372 C1371 1.369 . S
C1372 C1381 1.429 . S
C1373 C1371 1.419 1_565 S
C1373 C1374 1.363 . S
C1373 H1376 0.929 . S
C1374 C1373 1.363 . S
C1374 C1380 1.428 1_565 S
H1375 C1371 0.930 . S
H1376 C1373 0.929 . S
S1377 N1378 1.613 . S
S1377 N1379 1.610 . S
N1378 S1377 1.613 . S
N1378 C1381 1.350 . S
N1379 S1377 1.610 . S
N1379 C1380 1.351 . S
C1380 C1374 1.428 1_545 S
C1380 N1379 1.351 . S
C1380 C1381 1.434 . S
C1381 C1372 1.429 . S
C1381 N1378 1.350 . S
C1381 C1380 1.434 . S
C1382 C1383 1.369 1_565 S
C1382 C1384 1.419 . S
C1382 H1386 0.930 . S
C1383 C1382 1.369 1_545 S
C1383 C1392 1.429 . S
C1384 C1382 1.419 . S
C1384 C1385 1.363 . S
C1384 H1387 0.929 . S
C1385 C1384 1.363 . S
C1385 C1391 1.428 1_565 S
H1386 C1382 0.930 . S
H1387 C1384 0.929 . S
S1388 N1389 1.613 . S
S1388 N1390 1.610 . S
N1389 S1388 1.613 . S
N1389 C1392 1.350 . S
N1390 S1388 1.610 . S
N1390 C1391 1.351 . S
C1391 C1385 1.428 1_545 S
C1391 N1390 1.351 . S
C1391 C1392 1.434 . S
C1392 C1383 1.429 . S
C1392 N1389 1.350 . S
C1392 C1391 1.434 . S
C1393 C1394 1.369 1_545 S
C1393 C1395 1.419 . S
C1393 H1397 0.930 . S
C1394 C1393 1.369 1_565 S
C1394 C1403 1.429 . S
C1395 C1393 1.419 . S
C1395 C1396 1.363 . S
C1395 H1398 0.929 . S
C1396 C1395 1.363 . S
C1396 C1402 1.428 1_545 S
H1397 C1393 0.930 . S
H1398 C1395 0.929 . S
S1399 N1400 1.613 . S
S1399 N1401 1.610 . S
N1400 S1399 1.613 . S
N1400 C1403 1.350 . S
N1401 S1399 1.610 . S
N1401 C1402 1.351 . S
C1402 C1396 1.428 1_565 S
C1402 N1401 1.351 . S
C1402 C1403 1.434 . S
C1403 C1394 1.429 . S
C1403 N1400 1.350 . S
C1403 C1402 1.434 . S
C1404 C1405 1.369 . S
C1404 C1406 1.419 . S
C1404 H1408 0.930 . S
C1405 C1404 1.369 . S
C1405 C1414 1.429 . S
C1406 C1404 1.419 . S
C1406 C1407 1.363 . S
C1406 H1409 0.929 . S
C1407 C1406 1.363 . S
C1407 C1413 1.428 . S
H1408 C1404 0.930 . S
H1409 C1406 0.929 . S
S1410 N1411 1.613 . S
S1410 N1412 1.610 . S
N1411 S1410 1.613 . S
N1411 C1414 1.350 . S
N1412 S1410 1.610 . S
N1412 C1413 1.351 . S
C1413 C1407 1.428 . S
C1413 N1412 1.351 . S
C1413 C1414 1.434 . S
C1414 C1405 1.429 . S
C1414 N1411 1.350 . S
C1414 C1413 1.434 . S
C1415 C1416 1.369 . S
C1415 C1417 1.419 . S
C1415 H1419 0.930 . S
C1416 C1415 1.369 . S
C1416 C1425 1.429 . S
C1417 C1415 1.419 . S
C1417 C1418 1.363 . S
C1417 H1420 0.929 . S
C1418 C1417 1.363 . S
C1418 C1424 1.428 . S
H1419 C1415 0.930 . S
H1420 C1417 0.929 . S
S1421 N1422 1.613 . S
S1421 N1423 1.610 . S
N1422 S1421 1.613 . S
N1422 C1425 1.350 . S
N1423 S1421 1.610 . S
N1423 C1424 1.351 . S
C1424 C1418 1.428 . S
C1424 N1423 1.351 . S
C1424 C1425 1.434 . S
C1425 C1416 1.429 . S
C1425 N1422 1.350 . S
C1425 C1424 1.434 . S
C1426 C1427 1.369 . S
C1426 C1428 1.419 . S
C1426 H1430 0.930 . S
C1427 C1426 1.369 . S
C1427 C1436 1.429 . S
C1428 C1426 1.419 . S
C1428 C1429 1.363 . S
C1428 H1431 0.929 . S
C1429 C1428 1.363 . S
C1429 C1435 1.428 . S
H1430 C1426 0.930 . S
H1431 C1428 0.929 . S
S1432 N1433 1.613 . S
S1432 N1434 1.610 . S
N1433 S1432 1.613 . S
N1433 C1436 1.350 . S
N1434 S1432 1.610 . S
N1434 C1435 1.351 . S
C1435 C1429 1.428 . S
C1435 N1434 1.351 . S
C1435 C1436 1.434 . S
C1436 C1427 1.429 . S
C1436 N1433 1.350 . S
C1436 C1435 1.434 . S
C1437 C1438 1.369 1_556 S
C1437 C1439 1.419 . S
C1437 H1441 0.930 . S
C1438 C1437 1.369 1_554 S
C1438 C1447 1.429 . S
C1439 C1437 1.419 . S
C1439 C1440 1.363 . S
C1439 H1442 0.929 . S
C1440 C1439 1.363 . S
C1440 C1446 1.428 1_556 S
H1441 C1437 0.930 . S
H1442 C1439 0.929 . S
S1443 N1444 1.613 . S
S1443 N1445 1.610 . S
N1444 S1443 1.613 . S
N1444 C1447 1.350 . S
N1445 S1443 1.610 . S
N1445 C1446 1.351 . S
C1446 C1440 1.428 1_554 S
C1446 N1445 1.351 . S
C1446 C1447 1.434 . S
C1447 C1438 1.429 . S
C1447 N1444 1.350 . S
C1447 C1446 1.434 . S
C1448 C1449 1.369 . S
C1448 C1450 1.419 . S
C1448 H1452 0.930 . S
C1449 C1448 1.369 . S
C1449 C1458 1.429 . S
C1450 C1448 1.419 . S
C1450 C1451 1.363 . S
C1450 H1453 0.929 . S
C1451 C1450 1.363 . S
C1451 C1457 1.428 . S
H1452 C1448 0.930 . S
H1453 C1450 0.929 . S
S1454 N1455 1.613 . S
S1454 N1456 1.610 . S
N1455 S1454 1.613 . S
N1455 C1458 1.350 . S
N1456 S1454 1.610 . S
N1456 C1457 1.351 . S
C1457 C1451 1.428 . S
C1457 N1456 1.351 . S
C1457 C1458 1.434 . S
C1458 C1449 1.429 . S
C1458 N1455 1.350 . S
C1458 C1457 1.434 . S
C1459 C1460 1.369 . S
C1459 C1461 1.419 . S
C1459 H1463 0.930 . S
C1460 C1459 1.369 . S
C1460 C1469 1.429 . S
C1461 C1459 1.419 . S
C1461 C1462 1.363 . S
C1461 H1464 0.929 . S
C1462 C1461 1.363 . S
C1462 C1468 1.428 . S
H1463 C1459 0.930 . S
H1464 C1461 0.929 . S
S1465 N1466 1.613 . S
S1465 N1467 1.610 . S
N1466 S1465 1.613 . S
N1466 C1469 1.350 . S
N1467 S1465 1.610 . S
N1467 C1468 1.351 . S
C1468 C1462 1.428 . S
C1468 N1467 1.351 . S
C1468 C1469 1.434 . S
C1469 C1460 1.429 . S
C1469 N1466 1.350 . S
C1469 C1468 1.434 . S
C1470 C1471 1.369 . S
C1470 C1472 1.419 . S
C1470 H1474 0.930 . S
C1471 C1470 1.369 . S
C1471 C1480 1.429 1_655 S
C1472 C1470 1.419 . S
C1472 C1473 1.363 1_655 S
C1472 H1475 0.929 . S
C1473 C1472 1.363 1_455 S
C1473 C1479 1.428 . S
H1474 C1470 0.930 . S
H1475 C1472 0.929 . S
S1476 N1477 1.613 . S
S1476 N1478 1.610 . S
N1477 S1476 1.613 . S
N1477 C1480 1.350 . S
N1478 S1476 1.610 . S
N1478 C1479 1.351 . S
C1479 C1473 1.428 . S
C1479 N1478 1.351 . S
C1479 C1480 1.434 . S
C1480 C1471 1.429 1_455 S
C1480 N1477 1.350 . S
C1480 C1479 1.434 . S
C1481 C1482 1.369 . S
C1481 C1483 1.419 . S
C1481 H1485 0.930 . S
C1482 C1481 1.369 . S
C1482 C1491 1.429 . S
C1483 C1481 1.419 . S
C1483 C1484 1.363 . S
C1483 H1486 0.929 . S
C1484 C1483 1.363 . S
C1484 C1490 1.428 . S
H1485 C1481 0.930 . S
H1486 C1483 0.929 . S
S1487 N1488 1.613 . S
S1487 N1489 1.610 . S
N1488 S1487 1.613 . S
N1488 C1491 1.350 . S
N1489 S1487 1.610 . S
N1489 C1490 1.351 . S
C1490 C1484 1.428 . S
C1490 N1489 1.351 . S
C1490 C1491 1.434 . S
C1491 C1482 1.429 . S
C1491 N1488 1.350 . S
C1491 C1490 1.434 . S
C1492 C1493 1.369 . S
C1492 C1494 1.419 . S
C1492 H1496 0.930 . S
C1493 C1492 1.369 . S
C1493 C1502 1.418 1_655 S
C1494 C1492 1.419 . S
C1494 C1495 1.363 1_655 S
C1494 H1497 0.929 . S
C1495 C1494 1.363 1_455 S
C1495 C1501 1.428 . S
H1496 C1492 0.930 . S
H1497 C1494 0.929 . S
S1498 N1499 1.613 . S
S1498 N1500 1.610 . S
N1499 S1498 1.613 . S
N1499 C1502 1.352 . S
N1500 S1498 1.610 . S
N1500 C1501 1.351 . S
C1501 C1495 1.428 . S
C1501 N1500 1.351 . S
C1501 C1502 1.444 . S
C1502 C1493 1.418 1_455 S
C1502 N1499 1.352 . S
C1502 C1501 1.444 . S
C1503 C1504 1.369 1_556 S
C1503 C1505 1.419 . S
C1503 H1507 0.930 . S
C1504 C1503 1.369 1_554 S
C1504 C1513 1.429 . S
C1505 C1503 1.419 . S
C1505 C1506 1.363 . S
C1505 H1508 0.929 . S
C1506 C1505 1.363 . S
C1506 C1512 1.428 1_556 S
H1507 C1503 0.930 . S
H1508 C1505 0.929 . S
S1509 N1510 1.613 . S
S1509 N1511 1.610 . S
N1510 S1509 1.613 . S
N1510 C1513 1.350 . S
N1511 S1509 1.610 . S
N1511 C1512 1.351 . S
C1512 C1506 1.428 1_554 S
C1512 N1511 1.351 . S
C1512 C1513 1.434 . S
C1513 C1504 1.429 . S
C1513 N1510 1.350 . S
C1513 C1512 1.434 . S
C1514 C1515 1.369 . S
C1514 C1516 1.419 . S
C1514 H1518 0.930 . S
C1515 C1514 1.369 . S
C1515 C1524 1.429 . S
C1516 C1514 1.419 . S
C1516 C1517 1.363 . S
C1516 H1519 0.929 . S
C1517 C1516 1.363 . S
C1517 C1523 1.428 . S
H1518 C1514 0.930 . S
H1519 C1516 0.929 . S
S1520 N1521 1.613 . S
S1520 N1522 1.610 . S
N1521 S1520 1.613 . S
N1521 C1524 1.350 . S
N1522 S1520 1.610 . S
N1522 C1523 1.351 . S
C1523 C1517 1.428 . S
C1523 N1522 1.351 . S
C1523 C1524 1.434 . S
C1524 C1515 1.429 . S
C1524 N1521 1.350 . S
C1524 C1523 1.434 . S
C1525 C1526 1.369 . S
C1525 C1527 1.419 . S
C1525 H1529 0.930 . S
C1526 C1525 1.369 . S
C1526 C1535 1.429 1_565 S
C1527 C1525 1.419 . S
C1527 C1528 1.363 1_565 S
C1527 H1530 0.929 . S
C1528 C1527 1.363 1_545 S
C1528 C1534 1.428 . S
H1529 C1525 0.930 . S
H1530 C1527 0.929 . S
S1531 N1532 1.613 . S
S1531 N1533 1.610 . S
N1532 S1531 1.613 . S
N1532 C1535 1.350 . S
N1533 S1531 1.610 . S
N1533 C1534 1.351 . S
C1534 C1528 1.428 . S
C1534 N1533 1.351 . S
C1534 C1535 1.434 . S
C1535 C1526 1.429 1_545 S
C1535 N1532 1.350 . S
C1535 C1534 1.434 . S
C1536 C1537 1.369 . S
C1536 C1538 1.419 . S
C1536 H1540 0.930 . S
C1537 C1536 1.369 . S
C1537 C1546 1.429 . S
C1538 C1536 1.419 . S
C1538 C1539 1.363 . S
C1538 H1541 0.929 . S
C1539 C1538 1.363 . S
C1539 C1545 1.428 . S
H1540 C1536 0.930 . S
H1541 C1538 0.929 . S
S1542 N1543 1.613 . S
S1542 N1544 1.610 . S
N1543 S1542 1.613 . S
N1543 C1546 1.350 . S
N1544 S1542 1.610 . S
N1544 C1545 1.351 . S
C1545 C1539 1.428 . S
C1545 N1544 1.351 . S
C1545 C1546 1.434 . S
C1546 C1537 1.429 . S
C1546 N1543 1.350 . S
C1546 C1545 1.434 . S
C1547 C1548 1.369 . S
C1547 C1549 1.419 . S
C1547 H1551 0.930 . S
C1548 C1547 1.369 . S
C1548 C1557 1.429 . S
C1549 C1547 1.419 . S
C1549 C1550 1.363 . S
C1549 H1552 0.929 . S
C1550 C1549 1.363 . S
C1550 C1556 1.428 . S
H1551 C1547 0.930 . S
H1552 C1549 0.929 . S
S1553 N1554 1.613 . S
S1553 N1555 1.610 . S
N1554 S1553 1.613 . S
N1554 C1557 1.350 . S
N1555 S1553 1.610 . S
N1555 C1556 1.351 . S
C1556 C1550 1.428 . S
C1556 N1555 1.351 . S
C1556 C1557 1.434 . S
C1557 C1548 1.429 . S
C1557 N1554 1.350 . S
C1557 C1556 1.434 . S
C1558 C1559 1.369 . S
C1558 C1560 1.419 . S
C1558 H1562 0.930 . S
C1559 C1558 1.369 . S
C1559 C1568 1.429 . S
C1560 C1558 1.419 . S
C1560 C1561 1.363 . S
C1560 H1563 0.929 . S
C1561 C1560 1.363 . S
C1561 C1567 1.428 . S
H1562 C1558 0.930 . S
H1563 C1560 0.929 . S
S1564 N1565 1.613 . S
S1564 N1566 1.610 . S
N1565 S1564 1.613 . S
N1565 C1568 1.350 . S
N1566 S1564 1.610 . S
N1566 C1567 1.351 . S
C1567 C1561 1.428 . S
C1567 N1566 1.351 . S
C1567 C1568 1.434 . S
C1568 C1559 1.429 . S
C1568 N1565 1.350 . S
C1568 C1567 1.434 . S
C1569 C1570 1.369 . S
C1569 C1571 1.419 . S
C1569 H1573 0.930 . S
C1570 C1569 1.369 . S
C1570 C1579 1.429 1_556 S
C1571 C1569 1.419 . S
C1571 C1572 1.363 1_556 S
C1571 H1574 0.929 . S
C1572 C1571 1.363 1_554 S
C1572 C1578 1.428 . S
H1573 C1569 0.930 . S
H1574 C1571 0.929 . S
S1575 N1576 1.613 . S
S1575 N1577 1.610 . S
N1576 S1575 1.613 . S
N1576 C1579 1.350 . S
N1577 S1575 1.610 . S
N1577 C1578 1.351 . S
C1578 C1572 1.428 . S
C1578 N1577 1.351 . S
C1578 C1579 1.434 . S
C1579 C1570 1.429 1_554 S
C1579 N1576 1.350 . S
C1579 C1578 1.434 . S
C1580 C1581 1.369 . S
C1580 C1582 1.419 . S
C1580 H1584 0.930 . S
C1581 C1580 1.369 . S
C1581 C1590 1.429 . S
C1582 C1580 1.419 . S
C1582 C1583 1.363 . S
C1582 H1585 0.929 . S
C1583 C1582 1.363 . S
C1583 C1589 1.428 . S
H1584 C1580 0.930 . S
H1585 C1582 0.929 . S
S1586 N1587 1.613 . S
S1586 N1588 1.610 . S
N1587 S1586 1.613 . S
N1587 C1590 1.350 . S
N1588 S1586 1.610 . S
N1588 C1589 1.351 . S
C1589 C1583 1.428 . S
C1589 N1588 1.351 . S
C1589 C1590 1.434 . S
C1590 C1581 1.429 . S
C1590 N1587 1.350 . S
C1590 C1589 1.434 . S
C1591 C1592 1.369 . S
C1591 C1593 1.419 . S
C1591 H1595 0.930 . S
C1592 C1591 1.369 . S
C1592 C1601 1.429 1_565 S
C1593 C1591 1.419 . S
C1593 C1594 1.363 1_565 S
C1593 H1596 0.929 . S
C1594 C1593 1.363 1_545 S
C1594 C1600 1.428 . S
H1595 C1591 0.930 . S
H1596 C1593 0.929 . S
S1597 N1598 1.613 . S
S1597 N1599 1.610 . S
N1598 S1597 1.613 . S
N1598 C1601 1.350 . S
N1599 S1597 1.610 . S
N1599 C1600 1.351 . S
C1600 C1594 1.428 . S
C1600 N1599 1.351 . S
C1600 C1601 1.434 . S
C1601 C1592 1.429 1_545 S
C1601 N1598 1.350 . S
C1601 C1600 1.434 . S
C1602 C1603 1.369 . S
C1602 C1604 1.419 1_556 S
C1602 H1606 0.930 . S
C1603 C1602 1.369 . S
C1603 C1612 1.429 . S
C1604 C1602 1.419 1_554 S
C1604 C1605 1.363 . S
C1604 H1607 0.929 . S
C1605 C1604 1.363 . S
C1605 C1611 1.428 . S
H1606 C1602 0.930 . S
H1607 C1604 0.929 . S
S1608 N1609 1.613 1_544 S
S1608 N1610 1.610 1_545 S
N1609 S1608 1.613 1_566 S
N1609 C1612 1.350 . S
N1610 S1608 1.610 1_565 S
N1610 C1611 1.351 . S
C1611 C1605 1.428 . S
C1611 N1610 1.351 . S
C1611 C1612 1.434 1_554 S
C1612 C1603 1.429 . S
C1612 N1609 1.350 . S
C1612 C1611 1.434 1_556 S
C1613 C1614 1.369 1_565 S
C1613 C1615 1.419 . S
C1613 H1617 0.930 . S
C1614 C1613 1.369 1_545 S
C1614 C1623 1.429 . S
C1615 C1613 1.419 . S
C1615 C1616 1.363 . S
C1615 H1618 0.929 . S
C1616 C1615 1.363 . S
C1616 C1622 1.428 1_565 S
H1617 C1613 0.930 . S
H1618 C1615 0.929 . S
S1619 N1620 1.613 . S
S1619 N1621 1.610 . S
N1620 S1619 1.613 . S
N1620 C1623 1.350 . S
N1621 S1619 1.610 . S
N1621 C1622 1.351 . S
C1622 C1616 1.428 1_545 S
C1622 N1621 1.351 . S
C1622 C1623 1.434 . S
C1623 C1614 1.429 . S
C1623 N1620 1.350 . S
C1623 C1622 1.434 . S
C1624 C1625 1.369 . S
C1624 C1626 1.419 . S
C1624 H1628 0.930 . S
C1625 C1624 1.369 . S
C1625 C1634 1.429 . S
C1626 C1624 1.419 . S
C1626 C1627 1.363 . S
C1626 H1629 0.929 . S
C1627 C1626 1.363 . S
C1627 C1633 1.428 . S
H1628 C1624 0.930 . S
H1629 C1626 0.929 . S
S1630 N1631 1.613 . S
S1630 N1632 1.610 . S
N1631 S1630 1.613 . S
N1631 C1634 1.350 . S
N1632 S1630 1.610 . S
N1632 C1633 1.351 . S
C1633 C1627 1.428 . S
C1633 N1632 1.351 . S
C1633 C1634 1.434 . S
C1634 C1625 1.429 . S
C1634 N1631 1.350 . S
C1634 C1633 1.434 . S
C1635 C1636 1.369 . S
C1635 C1637 1.419 1_655 S
C1635 H1639 0.930 . S
C1636 C1635 1.369 . S
C1636 C1645 1.429 . S
C1637 C1635 1.419 1_455 S
C1637 C1638 1.363 . S
C1637 H1640 0.929 . S
C1638 C1637 1.363 . S
C1638 C1644 1.428 . S
H1639 C1635 0.930 . S
H1640 C1637 0.929 . S
S1641 N1642 1.613 1_554 S
S1641 N1643 1.610 1_654 S
N1642 S1641 1.613 1_556 S
N1642 C1645 1.350 . S
N1643 S1641 1.610 1_456 S
N1643 C1644 1.351 . S
C1644 C1638 1.428 . S
C1644 N1643 1.351 . S
C1644 C1645 1.434 1_455 S
C1645 C1636 1.429 . S
C1645 N1642 1.350 . S
C1645 C1644 1.434 1_655 S
C1646 C1647 1.369 . S
C1646 C1648 1.419 . S
C1646 H1650 0.930 . S
C1647 C1646 1.369 . S
C1647 C1656 1.429 1_655 S
C1648 C1646 1.419 . S
C1648 C1649 1.363 1_655 S
C1648 H1651 0.929 . S
C1649 C1648 1.363 1_455 S
C1649 C1655 1.428 . S
H1650 C1646 0.930 . S
H1651 C1648 0.929 . S
S1652 N1653 1.613 . S
S1652 N1654 1.610 . S
N1653 S1652 1.613 . S
N1653 C1656 1.350 . S
N1654 S1652 1.610 . S
N1654 C1655 1.351 . S
C1655 C1649 1.428 . S
C1655 N1654 1.351 . S
C1655 C1656 1.434 . S
C1656 C1647 1.429 1_455 S
C1656 N1653 1.350 . S
C1656 C1655 1.434 . S
C1657 C1658 1.369 . S
C1657 C1659 1.419 . S
C1657 H1661 0.930 . S
C1658 C1657 1.369 . S
C1658 C1667 1.429 . S
C1659 C1657 1.419 . S
C1659 C1660 1.363 . S
C1659 H1662 0.929 . S
C1660 C1659 1.363 . S
C1660 C1666 1.428 . S
H1661 C1657 0.930 . S
H1662 C1659 0.929 . S
S1663 N1664 1.613 . S
S1663 N1665 1.610 . S
N1664 S1663 1.613 . S
N1664 C1667 1.350 . S
N1665 S1663 1.610 . S
N1665 C1666 1.351 . S
C1666 C1660 1.428 . S
C1666 N1665 1.351 . S
C1666 C1667 1.434 . S
C1667 C1658 1.429 . S
C1667 N1664 1.350 . S
C1667 C1666 1.434 . S
C1668 C1669 1.369 . S
C1668 C1670 1.419 1_655 S
C1668 H1672 0.930 . S
C1669 C1668 1.369 . S
C1669 C1678 1.429 . S
C1670 C1668 1.419 1_455 S
C1670 C1671 1.363 . S
C1670 H1673 0.929 . S
C1671 C1670 1.363 . S
C1671 C1677 1.428 . S
H1672 C1668 0.930 . S
H1673 C1670 0.929 . S
S1674 N1675 1.613 1_455 S
S1674 N1676 1.610 . S
N1675 S1674 1.613 1_655 S
N1675 C1678 1.350 . S
N1676 S1674 1.610 . S
N1676 C1677 1.351 . S
C1677 C1671 1.428 . S
C1677 N1676 1.351 . S
C1677 C1678 1.434 1_455 S
C1678 C1669 1.429 . S
C1678 N1675 1.350 . S
C1678 C1677 1.434 1_655 S
C1679 C1680 1.369 1_655 S
C1679 C1681 1.419 . S
C1679 H1683 0.930 . S
C1680 C1679 1.369 1_455 S
C1680 C1689 1.429 . S
C1681 C1679 1.419 . S
C1681 C1682 1.363 . S
C1681 H1684 0.929 . S
C1682 C1681 1.363 . S
C1682 C1688 1.428 1_655 S
H1683 C1679 0.930 . S
H1684 C1681 0.929 . S
S1685 N1686 1.613 . S
S1685 N1687 1.610 . S
N1686 S1685 1.613 . S
N1686 C1689 1.350 . S
N1687 S1685 1.610 . S
N1687 C1688 1.351 . S
C1688 C1682 1.428 1_455 S
C1688 N1687 1.351 . S
C1688 C1689 1.434 . S
C1689 C1680 1.429 . S
C1689 N1686 1.350 . S
C1689 C1688 1.434 . S
C1690 C1691 1.369 . S
C1690 C1692 1.419 . S
C1690 H1694 0.930 . S
C1691 C1690 1.369 . S
C1691 C1700 1.429 . S
C1692 C1690 1.419 . S
C1692 C1693 1.363 . S
C1692 H1695 0.929 . S
C1693 C1692 1.363 . S
C1693 C1699 1.428 . S
H1694 C1690 0.930 . S
H1695 C1692 0.929 . S
S1696 N1697 1.613 . S
S1696 N1698 1.610 . S
N1697 S1696 1.613 . S
N1697 C1700 1.350 . S
N1698 S1696 1.610 . S
N1698 C1699 1.351 . S
C1699 C1693 1.428 . S
C1699 N1698 1.351 . S
C1699 C1700 1.434 . S
C1700 C1691 1.429 . S
C1700 N1697 1.350 . S
C1700 C1699 1.434 . S
C1701 C1702 1.369 . S
C1701 C1703 1.419 1_545 S
C1701 H1705 0.930 . S
C1702 C1701 1.369 . S
C1702 C1711 1.429 . S
C1703 C1701 1.419 1_565 S
C1703 C1704 1.363 . S
C1703 H1706 0.929 . S
C1704 C1703 1.363 . S
C1704 C1710 1.428 . S
H1705 C1701 0.930 . S
H1706 C1703 0.929 . S
S1707 N1708 1.613 . S
S1707 N1709 1.610 1_545 S
N1708 S1707 1.613 . S
N1708 C1711 1.350 . S
N1709 S1707 1.610 1_565 S
N1709 C1710 1.351 . S
C1710 C1704 1.428 . S
C1710 N1709 1.351 . S
C1710 C1711 1.434 1_565 S
C1711 C1702 1.429 . S
C1711 N1708 1.350 . S
C1711 C1710 1.434 1_545 S
C1712 C1713 1.369 1_556 S
C1712 C1714 1.419 . S
C1712 H1716 0.930 . S
C1713 C1712 1.369 1_554 S
C1713 C1722 1.429 . S
C1714 C1712 1.419 . S
C1714 C1715 1.363 . S
C1714 H1717 0.929 . S
C1715 C1714 1.363 . S
C1715 C1721 1.428 1_556 S
H1716 C1712 0.930 . S
H1717 C1714 0.929 . S
S1718 N1719 1.613 . S
S1718 N1720 1.610 . S
N1719 S1718 1.613 . S
N1719 C1722 1.350 . S
N1720 S1718 1.610 . S
N1720 C1721 1.351 . S
C1721 C1715 1.428 1_554 S
C1721 N1720 1.351 . S
C1721 C1722 1.434 . S
C1722 C1713 1.429 . S
C1722 N1719 1.350 . S
C1722 C1721 1.434 . S
C1723 C1724 1.369 . S
C1723 C1725 1.419 1_565 S
C1723 H1727 0.930 . S
C1724 C1723 1.369 . S
C1724 C1733 1.429 . S
C1725 C1723 1.419 1_545 S
C1725 C1726 1.363 . S
C1725 H1728 0.929 . S
C1726 C1725 1.363 . S
C1726 C1732 1.428 . S
H1727 C1723 0.930 . S
H1728 C1725 0.929 . S
S1729 N1730 1.613 . S
S1729 N1731 1.610 1_565 S
N1730 S1729 1.613 . S
N1730 C1733 1.350 . S
N1731 S1729 1.610 1_545 S
N1731 C1732 1.351 . S
C1732 C1726 1.428 . S
C1732 N1731 1.351 . S
C1732 C1733 1.434 1_545 S
C1733 C1724 1.429 . S
C1733 N1730 1.350 . S
C1733 C1732 1.434 1_565 S
C1734 C1735 1.369 . S
C1734 C1736 1.419 . S
C1734 H1738 0.930 . S
C1735 C1734 1.369 . S
C1735 C1744 1.429 . S
C1736 C1734 1.419 . S
C1736 C1737 1.363 . S
C1736 H1739 0.929 . S
C1737 C1736 1.363 . S
C1737 C1743 1.428 . S
H1738 C1734 0.930 . S
H1739 C1736 0.929 . S
S1740 N1741 1.613 . S
S1740 N1742 1.610 . S
N1741 S1740 1.613 . S
N1741 C1744 1.350 . S
N1742 S1740 1.610 . S
N1742 C1743 1.351 . S
C1743 C1737 1.428 . S
C1743 N1742 1.351 . S
C1743 C1744 1.434 . S
C1744 C1735 1.429 . S
C1744 N1741 1.350 . S
C1744 C1743 1.434 . S
C1745 C1746 1.369 . S
C1745 C1747 1.419 1_554 S
C1745 H1749 0.930 . S
C1746 C1745 1.369 . S
C1746 C1755 1.429 . S
C1747 C1745 1.419 1_556 S
C1747 C1748 1.363 . S
C1747 H1750 0.929 . S
C1748 C1747 1.363 . S
C1748 C1754 1.428 . S
H1749 C1745 0.930 . S
H1750 C1747 0.929 . S
S1751 N1752 1.613 . S
S1751 N1753 1.610 1_554 S
N1752 S1751 1.613 . S
N1752 C1755 1.350 . S
N1753 S1751 1.610 1_556 S
N1753 C1754 1.351 . S
C1754 C1748 1.428 . S
C1754 N1753 1.351 . S
C1754 C1755 1.434 1_556 S
C1755 C1746 1.429 . S
C1755 N1752 1.350 . S
C1755 C1754 1.434 1_554 S
C1756 C1757 1.369 . S
C1756 C1758 1.419 . S
C1756 H1760 0.930 . S
C1757 C1756 1.369 . S
C1757 C1766 1.429 . S
C1758 C1756 1.419 . S
C1758 C1759 1.363 . S
C1758 H1761 0.929 . S
C1759 C1758 1.363 . S
C1759 C1765 1.428 . S
H1760 C1756 0.930 . S
H1761 C1758 0.929 . S
S1762 N1763 1.613 . S
S1762 N1764 1.610 . S
N1763 S1762 1.613 . S
N1763 C1766 1.350 . S
N1764 S1762 1.610 . S
N1764 C1765 1.351 . S
C1765 C1759 1.428 . S
C1765 N1764 1.351 . S
C1765 C1766 1.434 . S
C1766 C1757 1.429 . S
C1766 N1763 1.350 . S
C1766 C1765 1.434 . S
C1767 C1768 1.369 . S
C1767 C1769 1.419 . S
C1767 H1771 0.930 . S
C1768 C1767 1.369 . S
C1768 C1777 1.429 . S
C1769 C1767 1.419 . S
C1769 C1770 1.363 . S
C1769 H1772 0.929 . S
C1770 C1769 1.363 . S
C1770 C1776 1.428 . S
H1771 C1767 0.930 . S
H1772 C1769 0.929 . S
S1773 N1774 1.613 . S
S1773 N1775 1.610 . S
N1774 S1773 1.613 . S
N1774 C1777 1.350 . S
N1775 S1773 1.610 . S
N1775 C1776 1.351 . S
C1776 C1770 1.428 . S
C1776 N1775 1.351 . S
C1776 C1777 1.434 . S
C1777 C1768 1.429 . S
C1777 N1774 1.350 . S
C1777 C1776 1.434 . S
C1778 C1779 1.369 . S
C1778 C1780 1.419 . S
C1778 H1782 0.930 . S
C1779 C1778 1.369 . S
C1779 C1788 1.429 . S
C1780 C1778 1.419 . S
C1780 C1781 1.363 . S
C1780 H1783 0.929 . S
C1781 C1780 1.363 . S
C1781 C1787 1.428 . S
H1782 C1778 0.930 . S
H1783 C1780 0.929 . S
S1784 N1785 1.613 . S
S1784 N1786 1.610 . S
N1785 S1784 1.613 . S
N1785 C1788 1.350 . S
N1786 S1784 1.610 . S
N1786 C1787 1.351 . S
C1787 C1781 1.428 . S
C1787 N1786 1.351 . S
C1787 C1788 1.434 . S
C1788 C1779 1.429 . S
C1788 N1785 1.350 . S
C1788 C1787 1.434 . S
C1789 C1790 1.369 . S
C1789 C1791 1.419 . S
C1789 H1793 0.930 . S
C1790 C1789 1.369 . S
C1790 C1799 1.429 . S
C1791 C1789 1.419 . S
C1791 C1792 1.363 . S
C1791 H1794 0.929 . S
C1792 C1791 1.363 . S
C1792 C1798 1.428 . S
H1793 C1789 0.930 . S
H1794 C1791 0.929 . S
S1795 N1796 1.613 . S
S1795 N1797 1.610 . S
N1796 S1795 1.613 . S
N1796 C1799 1.350 . S
N1797 S1795 1.610 . S
N1797 C1798 1.351 . S
C1798 C1792 1.428 . S
C1798 N1797 1.351 . S
C1798 C1799 1.434 . S
C1799 C1790 1.429 . S
C1799 N1796 1.350 . S
C1799 C1798 1.434 . S
C745 C1 1.169 . S
C747 C277 1.140 . S
C756 C51 1.172 1_455 S
C758 C308 1.150 1_565 S
C767 C339 1.157 . S
C769 C82 1.162 . S
C778 C370 1.157 1_545 S
C780 C113 1.162 . S
C789 C144 1.161 . S
C791 C343 1.155 . S
C800 C175 1.166 . S
C802 C250 1.141 1_565 S
C811 C187 1.157 . S
C813 C281 1.151 . S
C822 C312 1.157 1_545 S
C824 C218 1.164 1_455 S
C833 C374 1.149 . S
C835 C268 1.160 . S
C844 C299 1.166 . S
C846 C498 1.141 1_455 S
C855 C330 1.158 . S
C857 C436 1.148 . S
C866 C467 1.138 . S
C868 C361 1.174 1_556 S
C877 C342 1.173 . S
C879 C618 1.139 . S
C888 C556 1.157 . S
C890 C249 1.162 . S
C899 C280 1.165 . S
C901 C560 1.154 . S
C910 C432 1.150 1_455 S
C912 C311 1.160 1_554 S
C921 C373 1.162 . S
C923 C2 1.144 . S
C932 C237 1.157 . S
C934 C529 1.150 . S
C943 C587 1.152 1_554 S
C945 C125 1.170 . S
C954 C405 1.151 . S
C956 C156 1.159 . S
C965 C219 1.156 1_554 S
C967 C423 1.166 1_545 S
C976 C91 1.157 . S
C978 C435 1.162 . S
C987 C463 1.138 . S
C989 C20 1.173 . S
C998 C401 1.154 1_556 S
C1000 C63 1.160 . S
C1009 C485 1.160 . S
C1011 C649 1.155 . S
C1020 C392 1.173 . S
C1022 C680 1.139 . S
C1031 C684 1.137 . S
C1033 C516 1.172 . S
C1042 C454 1.173 1_655 S
C1044 C742 1.149 . S
C1053 C715 1.146 . S
C1055 C528 1.161 . S
C1064 C622 1.157 . S
C1066 C578 1.161 1_655 S
C1075 C404 1.169 . S
C1077 C653 1.140 . S
C1086 C711 1.152 . S
C1088 C590 1.159 . S
C1097 C33 1.151 . S
C1099 C640 1.160 . S
C1108 C671 1.159 1_556 S
C1110 C64 1.154 . S
C1119 C95 1.156 . S
C1121 C683 1.166 . S
C1130 C29 1.153 1_655 S
C1132 C733 1.169 . S
C1141 C714 1.172 . S
C1143 C246 1.139 . S
C1152 C621 1.163 1_554 S
C1154 C126 1.155 1_655 S
C1163 C652 1.158 . S
C1165 C157 1.149 . S
C1174 C702 1.157 . S
C1176 C215 1.151 . S
C1185 C32 1.157 . S
C1187 C494 1.152 . S
C1196 C153 1.151 . S
C1198 C609 1.160 . S
C1207 C547 1.157 1_565 S
C1209 C184 1.151 . S
C1218 C188 1.137 . S
C1220 C559 1.169 . S
C1229 C206 1.164 . S
C1231 C591 1.142 . S
C1240 C94 1.158 . S
C1242 C525 1.153 . S
C1251 C466 1.163 1_545 S
C1253 C122 1.155 1_556 S
C1262 C497 1.172 1_565 S
C1264 C60 1.139 . S
C1273 C0 2.680 . S
C1275 C298 2.678 . S
C1284 C329 2.680 . S
C1286 C50 2.678 . S
C1295 C360 2.679 . S
C1297 C81 2.679 . S
C1306 C267 2.677 . S
C1308 C112 2.679 . S
C1317 C310 2.679 . S
C1319 C143 2.680 . S
C1328 C341 2.678 . S
C1330 C174 2.680 . S
C1339 C248 2.678 . S
C1341 C186 2.679 . S
C1350 C217 2.679 . S
C1352 C279 2.678 . S
C1361 C124 2.679 . S
C1363 C372 2.679 . S
C1372 C236 2.680 . S
C1374 C465 2.678 . S
C1383 C496 2.680 . S
C1385 C155 2.679 . S
C1394 C422 2.678 . S
C1396 C93 2.680 . S
C1405 C205 2.679 . S
C1407 C434 2.679 . S
C1416 C19 2.678 . S
C1418 C608 2.680 . S
C1427 C558 2.680 . S
C1429 C62 2.679 . S
C1438 C670 2.679 . S
C1440 C484 2.679 . S
C1449 C682 2.679 . S
C1451 C391 2.678 . S
C1460 C515 2.678 . S
C1462 C732 2.680 . S
C1471 C639 2.679 . S
C1473 C453 2.680 . S
C1482 C701 2.677 . S
C1484 C527 2.680 . S
C1493 C713 2.678 . S
C1495 C577 2.680 . S
C1504 C403 2.678 . S
C1506 C620 2.678 . S
C1515 C651 2.678 . S
C1517 C589 2.679 . S
C1526 C31 2.678 . S
C1528 C546 2.680 . S
C1537 C154 1.601 . S
C1539 C10 1.603 . S
C1548 C185 1.597 . S
C1550 C61 1.604 . S
C1559 C196 1.606 . S
C1561 C92 1.598 . S
C1570 C227 1.606 . S
C1572 C123 1.598 . S
C1581 C289 1.605 . S
C1583 C278 1.600 . S
C1592 C320 1.603 . S
C1594 C309 1.601 . S
C1603 C340 1.600 . S
C1605 C351 1.601 . S
C1614 C258 1.597 . S
C1616 C371 1.605 . S
C1625 C382 1.598 . S
C1627 C103 1.603 . S
C1636 C247 1.604 . S
C1638 C568 1.598 . S
C1647 C433 1.605 . S
C1649 C134 1.598 . S
C1658 C165 1.597 . S
C1660 C619 1.604 . S
C1669 C41 1.597 . S
C1671 C444 1.605 . S
C1680 C30 1.599 . S
C1682 C506 1.602 . S
C1691 C72 1.606 . S
C1693 C475 1.598 . S
C1702 C537 1.606 . S
C1704 C495 1.598 . S
C1713 C402 1.598 . S
C1715 C588 1.605 . S
C1724 C413 1.606 . S
C1726 C526 1.598 . S
C1735 C464 1.602 . S
C1737 C599 1.602 . S
C1746 C661 1.605 . S
C1748 C650 1.598 . S
C1757 C712 1.597 . S
C1759 C681 1.605 . S
C1768 C723 1.597 . S
C1770 C692 1.603 . S
C1779 C743 1.606 . S
C1781 C630 1.598 . S
C1790 C216 1.605 . S
C1792 C557 1.600 . S
