# Generated by pormake.
# Topology qtz-x, (6)-cn, num edge types: 1
# Building blocks:
#     Node 0, Type 0, BuildingBlock: BETFAJ_clean_sbu_0, # of connection points: 6
#     Node 1, Type 0, BuildingBlock: BETFAJ_clean_sbu_0, # of connection points: 6
#     Node 2, Type 0, BuildingBlock: BETFAJ_clean_sbu_0, # of connection points: 6
#     Edge 3, Type (0, 0), BuildingBlock: CIFDUS_clean_linker_0, # of connection points: 2
#     Edge 4, Type (0, 0), BuildingBlock: CIFDUS_clean_linker_0, # of connection points: 2
#     Edge 5, Type (0, 0), BuildingBlock: CIFDUS_clean_linker_0, # of connection points: 2
#     Edge 6, Type (0, 0), BuildingBlock: CIFDUS_clean_linker_0, # of connection points: 2
#     Edge 7, Type (0, 0), BuildingBlock: CIFDUS_clean_linker_0, # of connection points: 2
#     Edge 8, Type (0, 0), BuildingBlock: CIFDUS_clean_linker_0, # of connection points: 2
#     Edge 9, Type (0, 0), BuildingBlock: CIFDUS_clean_linker_0, # of connection points: 2
#     Edge 10, Type (0, 0), BuildingBlock: CIFDUS_clean_linker_0, # of connection points: 2
#     Edge 11, Type (0, 0), BuildingBlock: CIFDUS_clean_linker_0, # of connection points: 2
# Relax obj value: 0.273
# Max RMSD: 0.281
# Mean RMSD: 0.253
data_MOF--net-qtz-x--node1-BETFAJ_clean_sbu_0--edge1-CIFDUS_clean_linker_0
_symmetry_space_group_name_H-M    P1
_symmetry_Int_Tables_number       1
_symmetry_cell_setting            triclinic
loop_
_symmetry_equiv_pos_as_xyz
'x, y, z'
_cell_length_a     12.822879
_cell_length_b     13.047526
_cell_length_c     48.168129
_cell_angle_alpha  65.578484
_cell_angle_beta   116.87034
_cell_angle_gamma 120.45199
loop_
_atom_site_label
_atom_site_type_symbol
_atom_site_fract_x
_atom_site_fract_y
_atom_site_fract_z
_atom_type_partial_charge
Sm0 Sm 1.05252 0.62814 0.20171 0.0
Sm1 Sm 0.3272 0.78441 0.19343 0.0
C2 C 0.85923 0.45669 0.22355 0.0
C3 C 0.83341 0.40491 0.25484 0.0
C4 C 0.8435 0.29322 0.27453 0.0
C5 C 0.82282 0.24493 0.30438 0.0
C6 C 0.79023 0.30636 0.31533 0.0
C7 C 0.77804 0.41722 0.29535 0.0
C8 C 0.79924 0.4658 0.26551 0.0
C9 C 0.13512 0.87868 0.19086 0.0
C10 C 0.31256 0.68249 0.2661 0.0
C11 C 0.52653 -0.03266 0.17714 0.0
C12 C 0.57975 -0.00967 0.15273 0.0
C13 C 0.61184 0.10582 0.13142 0.0
C14 C 0.63816 0.12184 0.10435 0.0
C15 C 0.63215 0.02223 0.09821 0.0
C16 C 0.60776 0.90875 0.12069 0.0
C17 C 0.58116 0.89274 0.14757 0.0
C18 C 0.24991 0.54263 0.19304 0.0
C19 C 1.07625 0.72016 0.12996 0.0
O20 O 0.94371 0.43318 0.22181 0.0
O21 O 0.86742 0.56883 0.20838 0.0
O22 O 0.2031 0.81672 0.20805 0.0
O23 O 1.01735 0.80686 0.17971 0.0
O24 O 0.18771 0.62352 0.2545 0.0
O25 O 0.38546 0.75519 0.2474 0.0
O26 O 0.4144 -0.02779 0.16557 0.0
O27 O 0.53565 0.87477 0.20197 0.0
O28 O 0.18992 0.58832 0.19581 0.0
O29 O 0.36047 0.62756 0.19135 0.0
O30 O 0.19095 0.79935 0.14189 0.0
O31 O 1.00411 0.63462 0.1484 0.0
H32 H 0.86876 0.24341 0.26699 0.0
H33 H 0.83473 0.16026 0.31913 0.0
H34 H 0.7509 0.46624 0.3026 0.0
H35 H 0.78913 0.55133 0.25088 0.0
H36 H 0.61019 0.18194 0.13485 0.0
H37 H 0.65633 0.21028 0.08739 0.0
H38 H 0.60505 0.83098 0.11694 0.0
H39 H 0.55611 0.80242 0.16352 0.0
Sm40 Sm 0.88139 0.19437 0.56461 0.0
Sm41 Sm 0.76689 0.91074 0.56087 0.0
C42 C 0.91141 0.39945 0.57101 0.0
C43 C 0.98363 0.45088 0.59913 0.0
C44 C 0.94937 0.52835 0.60334 0.0
C45 C 0.99975 0.55593 0.63307 0.0
C46 C 1.084 0.50516 0.65888 0.0
C47 C 0.12328 0.43315 0.6539 0.0
C48 C 1.07315 0.4059 0.62427 0.0
C49 C 1.07521 0.13606 0.57106 0.0
C50 C 0.87556 -0.02871 0.63168 0.0
C51 C 0.7278 0.71257 0.54855 0.0
C52 C 0.67815 0.68342 0.51714 0.0
C53 C 0.72877 0.76902 0.49217 0.0
C54 C 0.67035 0.75022 0.46122 0.0
C55 C 0.55934 0.64549 0.45425 0.0
C56 C 0.51137 0.55758 0.47956 0.0
C57 C 0.57024 0.5764 0.51067 0.0
C58 C 0.5733 -0.02888 0.55396 0.0
C59 C 0.78022 0.13938 0.49472 0.0
O60 O 0.81342 0.2966 0.57482 0.0
O61 O 0.97852 0.39643 0.55763 0.0
O62 O 0.95843 0.06718 0.56744 0.0
O63 O 0.09296 0.24023 0.57311 0.0
O64 O 0.89061 0.08685 0.61683 0.0
O65 O 0.84076 0.8884 0.61637 0.0
O66 O 0.84021 0.80123 0.55501 0.0
O67 O 0.6463 0.71779 0.55662 0.0
O68 O 0.69008 0.03916 0.55743 0.0
O69 O 0.55599 0.8654 0.55311 0.0
O70 O 0.76749 0.02402 0.50891 0.0
O71 O 0.80631 0.21658 0.51032 0.0
H72 H 0.87879 0.56187 0.58426 0.0
H73 H 0.96712 0.61097 0.63635 0.0
H74 H 0.1893 0.39427 0.67325 0.0
H75 H 0.09931 0.34446 0.62149 0.0
H76 H 0.8111 0.85318 0.49617 0.0
H77 H 0.70996 0.82066 0.44251 0.0
H78 H 0.42743 0.47481 0.47529 0.0
H79 H 0.52908 0.50913 0.52947 0.0
Sm80 Sm 0.88842 0.90703 0.8706 0.0
Sm81 Sm 1.06189 0.78536 0.89216 0.0
C82 C 0.71117 -0.02931 0.86353 0.0
C83 C 0.6644 -0.03662 0.88734 0.0
C84 C 0.63867 0.85709 0.91206 0.0
C85 C 0.60711 0.855 0.93648 0.0
C86 C 0.60287 -0.04035 0.93697 0.0
C87 C 0.6265 0.06524 0.91197 0.0
C88 C 0.65642 0.06684 0.88723 0.0
C89 C 0.13764 0.06608 0.87684 0.0
C90 C 1.01266 0.80805 0.9483 0.0
C91 C 0.2413 0.72454 0.89962 0.0
C92 C 0.26061 0.69684 0.87597 0.0
C93 C 0.34288 0.79022 0.85835 0.0
C94 C 0.34177 0.77501 0.83126 0.0
C95 C 0.25539 0.66718 0.82061 0.0
C96 C 0.17887 0.57051 0.83945 0.0
C97 C 0.18246 0.58474 0.86704 0.0
C98 C 0.81307 0.62566 0.88603 0.0
C99 C 0.9399 0.88988 0.81343 0.0
O100 O 0.68522 0.86649 0.85921 0.0
O101 O 0.82823 0.04848 0.86509 0.0
O102 O 0.09946 -0.03363 0.89654 0.0
O103 O 1.04307 0.08615 0.85274 0.0
O104 O 0.91119 0.82521 0.92549 0.0
O105 O 0.09949 0.80736 0.94093 0.0
O106 O 0.2574 0.83821 0.89359 0.0
O107 O 0.14125 0.64559 0.90907 0.0
O108 O 0.8508 0.72547 0.86625 0.0
O109 O 0.90801 0.60538 0.90995 0.0
O110 O 1.02662 0.84874 0.83657 0.0
O111 O 0.86464 0.91112 0.82016 0.0
H112 H 0.6457 0.77637 0.91298 0.0
H113 H 0.59123 0.77304 0.95571 0.0
H114 H 0.62414 0.14714 0.91185 0.0
H115 H 0.67699 0.14995 0.86853 0.0
H116 H 0.40223 0.87819 0.86431 0.0
H117 H 0.40461 0.85011 0.81786 0.0
H118 H 0.11037 0.48628 0.83198 0.0
H119 H 0.11769 0.51068 0.88006 0.0
H120 H 0.98458 -0.0054 0.17843 0.0
H121 H 0.37652 0.05109 0.20576 0.0
H122 H 0.44557 0.26021 0.20849 0.0
H123 H 0.39542 0.42748 0.20347 0.0
H124 H 1.00554 0.3683 0.18004 0.0
H125 H 0.93475 0.16038 0.17561 0.0
C126 C 0.08509 0.05295 0.18482 0.0
C127 C 0.17532 0.00725 0.19152 0.0
C128 C 0.12442 0.17259 0.18726 0.0
C129 C 0.30512 0.0838 0.20024 0.0
C130 C 0.34466 0.20348 0.20189 0.0
C131 C 0.29488 0.36891 0.19752 0.0
C132 C 0.20585 0.41366 0.19209 0.0
C133 C 0.25535 0.24884 0.19556 0.0
C134 C 1.07608 0.33614 0.18455 0.0
C135 C 1.03565 0.21732 0.18188 0.0
H136 H 0.58761 0.14609 0.57639 0.0
H137 H 0.32046 0.84353 0.53196 0.0
H138 H 0.14374 0.86045 0.53422 0.0
H139 H 1.06123 -0.03829 0.54861 0.0
H140 H 0.32834 0.26433 0.59305 0.0
H141 H 0.50511 0.24762 0.59075 0.0
C142 C 0.49096 0.08548 0.56667 0.0
C143 C 0.4689 -0.00525 0.55359 0.0
C144 C 0.3879 0.09478 0.56833 0.0
C145 C 0.34167 0.91498 0.542 0.0
C146 C 0.23967 0.92417 0.54337 0.0
C147 C 0.15796 0.0224 0.55833 0.0
C148 C 0.17999 0.11301 0.57144 0.0
C149 C 0.26102 0.01318 0.55666 0.0
C150 C 0.30718 0.1929 0.58301 0.0
C151 C 0.40922 0.18382 0.58162 0.0
H152 H 0.24042 0.2739 0.83551 0.0
H153 H 0.33005 0.06463 0.93331 0.0
H154 H 0.54545 0.22258 0.94518 0.0
H155 H 0.71078 0.41712 0.92745 0.0
H156 H 0.62099 0.62647 0.82967 0.0
H157 H 0.40642 0.46854 0.81775 0.0
C158 C 0.30748 0.26289 0.85935 0.0
C159 C 0.2695 0.15842 0.88348 0.0
C160 C 0.43179 0.35288 0.86594 0.0
C161 C 0.35726 0.14446 0.91426 0.0
C162 C 0.48039 0.23442 0.92111 0.0
C163 C 0.64351 0.42851 0.90364 0.0
C164 C 0.68137 0.53306 0.8795 0.0
C165 C 0.51903 0.33871 0.89709 0.0
C166 C 0.59363 0.54692 0.84875 0.0
C167 C 0.47057 0.45706 0.84192 0.0
H168 H 0.74217 0.13261 0.97126 0.0
H169 H 0.42042 0.78654 0.96529 0.0
H170 H 0.4013 0.77634 1.01469 0.0
H171 H 0.4819 0.86111 0.06054 0.0
H172 H 0.80149 0.20857 0.0666 0.0
H173 H 0.81517 0.22371 1.01584 0.0
C174 C 0.66674 0.05599 0.98056 0.0
C175 C 0.58297 -0.03972 0.96481 0.0
C176 C 0.65668 0.05065 1.00898 0.0
C177 C 0.48644 0.86079 0.9772 0.0
C178 C 0.47559 0.85492 1.0054 0.0
C179 C 0.55477 0.94013 0.05082 0.0
C180 C 0.6412 0.03313 0.06741 0.0
C181 C 0.56145 0.94835 1.02172 0.0
C182 C 0.73378 0.13587 0.05423 0.0
C183 C 0.74176 0.14438 1.02529 0.0
H184 H 0.6914 0.01125 0.45008 0.0
H185 H 0.86484 0.37896 0.4623 0.0
H186 H 0.88176 0.4622 0.40832 0.0
H187 H 0.85832 0.43179 0.35855 0.0
H188 H 0.67669 0.0654 0.34488 0.0
H189 H 0.65296 -0.01847 0.39826 0.0
C190 C 0.73207 0.10957 0.44088 0.0
C191 C 0.77706 0.18822 0.4605 0.0
C192 C 0.74151 0.15756 0.40954 0.0
C193 C 0.82867 0.31565 0.4479 0.0
C194 C 0.83918 0.36371 0.41698 0.0
C195 C 0.81192 0.33363 0.36697 0.0
C196 C 0.77058 0.2555 0.34755 0.0
C197 C 0.79732 0.28564 0.3977 0.0
C198 C 0.71221 0.12821 0.35937 0.0
C199 C 0.69795 0.07987 0.38995 0.0
H200 H 0.97326 0.77214 0.78332 0.0
H201 H 0.8817 0.07374 0.76592 0.0
H202 H 0.85803 0.12577 0.70928 0.0
H203 H 0.85831 0.08542 0.66433 0.0
H204 H 0.93394 0.7775 0.67872 0.0
H205 H 0.96649 0.72713 0.73646 0.0
C206 C 0.94838 0.84928 0.76707 0.0
C207 C 0.92912 0.91889 0.77903 0.0
C208 C 0.93107 0.87714 0.73386 0.0
C209 C 0.89606 0.01798 0.75751 0.0
C210 C 0.88266 0.04806 0.72502 0.0
C211 C 0.88256 0.00733 0.67997 0.0
C212 C 0.89424 0.93594 0.66694 0.0
C213 C 0.89909 -0.0219 0.71288 0.0
C214 C 0.92388 0.83414 0.68785 0.0
C215 C 0.94311 0.80568 0.72098 0.0
H216 H 0.84188 0.70558 0.98218 0.0
H217 H 0.2414 0.89928 0.99061 0.0
H218 H 0.29267 0.89358 1.04626 0.0
H219 H 0.22903 0.82848 0.09301 0.0
H220 H 0.83395 0.62355 0.08833 0.0
H221 H 0.77654 0.63663 1.03111 0.0
C222 C 0.94 0.74612 0.99632 0.0
C223 C 1.03785 0.80216 0.98219 0.0
C224 C 0.97004 0.73929 1.02908 0.0
C225 C 0.1645 0.85405 1.00087 0.0
C226 C 0.19415 0.8509 1.03277 0.0
C227 C 0.12974 0.78709 0.07962 0.0
C228 C 1.03587 0.7261 0.09511 0.0
C229 C 0.09826 0.79292 0.04719 0.0
C230 C 0.90835 0.67134 0.07715 0.0
C231 C 0.8756 0.67894 1.04438 0.0
H232 H 0.19999 0.58902 0.31307 0.0
H233 H 0.56591 0.75481 0.29825 0.0
H234 H 0.67256 0.75203 0.35484 0.0
H235 H 0.66445 0.7084 0.40834 0.0
H236 H 0.30148 0.55245 0.42375 0.0
H237 H 0.19217 0.54255 0.36762 0.0
C238 C 0.30297 0.62361 0.32228 0.0
C239 C 0.37434 0.67247 0.3012 0.0
C240 C 0.3648 0.62312 0.35511 0.0
C241 C 0.50797 0.71733 0.31367 0.0
C242 C 0.56951 0.71574 0.34615 0.0
C243 C 0.56142 0.67295 0.3995 0.0
C244 C 0.49195 0.63172 0.42047 0.0
C245 C 0.49914 0.67011 0.36703 0.0
C246 C 0.35807 0.58349 0.40845 0.0
C247 C 0.29522 0.57877 0.37619 0.0
H248 H 0.19956 0.4665 0.80347 0.0
H249 H 0.26514 0.85006 0.76557 0.0
H250 H 0.22437 0.83523 0.71262 0.0
H251 H 0.16222 0.71168 0.67652 0.0
H252 H 0.08874 0.32659 0.71423 0.0
H253 H 0.14116 0.34401 0.76788 0.0
C254 C 0.20555 0.54707 0.78373 0.0
C255 C 0.23745 0.65938 0.78879 0.0
C256 C 0.18044 0.53771 0.75324 0.0
C257 C 0.24462 0.76292 0.76275 0.0
C258 C 0.21997 0.75443 0.7323 0.0
C259 C 0.15781 0.63179 0.69652 0.0
C260 C 0.12228 0.51838 0.6915 0.0
C261 C 0.18685 0.64208 0.72724 0.0
C262 C 0.11783 0.41547 0.71761 0.0
C263 C 0.14686 0.42506 0.74824 0.0
loop_
_geom_bond_atom_site_label_1
_geom_bond_atom_site_label_2
_geom_bond_distance
_geom_bond_site_symmetry_2
_ccdc_geom_bond_type
Sm0 C2 2.846 . S
Sm0 O20 2.543 . S
Sm0 O21 2.450 . S
Sm0 O22 2.681 1_655 S
Sm0 O23 2.464 . S
Sm0 O24 2.396 1_655 S
Sm0 O28 2.386 . S
Sm0 O31 2.408 . S
Sm1 C11 2.846 . S
Sm1 O22 2.386 . S
Sm1 O25 2.408 . S
Sm1 O26 2.543 . S
Sm1 O27 2.450 . S
Sm1 O28 2.681 1_455 S
Sm1 O29 2.464 . S
Sm1 O30 2.396 1_455 S
C2 Sm0 2.846 . S
C2 C3 1.506 . S
C2 O20 1.261 . S
C2 O21 1.242 . S
C3 C2 1.506 . S
C3 C4 1.358 . S
C3 C8 1.382 . S
C4 C3 1.358 . S
C4 C5 1.385 . S
C4 H32 0.930 . S
C5 C4 1.385 . S
C5 C6 1.395 . S
C5 H33 0.929 . S
C6 C5 1.395 . S
C6 C7 1.335 . S
C7 C6 1.335 . S
C7 C8 1.398 . S
C7 H34 0.930 . S
C8 C3 1.382 . S
C8 C7 1.398 . S
C8 H35 0.929 . S
C9 O22 1.271 1_655 S
C9 O23 1.251 . S
C10 O24 1.252 . S
C10 O25 1.272 . S
C11 Sm1 2.846 . S
C11 C12 1.506 . S
C11 O26 1.261 . S
C11 O27 1.242 . S
C12 C11 1.506 . S
C12 C13 1.358 1_565 S
C12 C17 1.382 . S
C13 C12 1.358 1_545 S
C13 C14 1.385 . S
C13 H36 0.930 . S
C14 C13 1.385 . S
C14 C15 1.395 . S
C14 H37 0.929 . S
C15 C14 1.395 . S
C15 C16 1.335 1_545 S
C16 C15 1.335 1_565 S
C16 C17 1.398 . S
C16 H38 0.930 . S
C17 C12 1.382 . S
C17 C16 1.398 . S
C17 H39 0.929 . S
C18 O28 1.271 1_455 S
C18 O29 1.251 . S
C19 O30 1.252 . S
C19 O31 1.272 . S
O20 Sm0 2.543 . S
O20 C2 1.261 . S
O21 Sm0 2.450 . S
O21 C2 1.242 . S
O22 Sm0 2.681 1_455 S
O22 Sm1 2.386 . S
O22 C9 1.271 1_455 S
O23 Sm0 2.464 . S
O23 C9 1.251 . S
O24 Sm0 2.396 1_455 S
O24 C10 1.252 . S
O25 Sm1 2.408 . S
O25 C10 1.272 . S
O26 Sm1 2.543 . S
O26 C11 1.261 . S
O27 Sm1 2.450 . S
O27 C11 1.242 . S
O28 Sm0 2.386 . S
O28 Sm1 2.681 1_655 S
O28 C18 1.271 1_655 S
O29 Sm1 2.464 . S
O29 C18 1.251 . S
O30 Sm1 2.396 1_655 S
O30 C19 1.252 . S
O31 Sm0 2.408 . S
O31 C19 1.272 . S
H32 C4 0.930 . S
H33 C5 0.929 . S
H34 C7 0.930 . S
H35 C8 0.929 . S
H36 C13 0.930 . S
H37 C14 0.929 . S
H38 C16 0.930 . S
H39 C17 0.929 . S
Sm40 C42 2.846 . S
Sm40 O60 2.543 . S
Sm40 O61 2.450 1_655 S
Sm40 O62 2.681 1_545 S
Sm40 O63 2.464 1_655 S
Sm40 O64 2.396 . S
Sm40 O68 2.386 . S
Sm40 O71 2.408 . S
Sm41 C51 2.846 . S
Sm41 O62 2.386 . S
Sm41 O65 2.408 . S
Sm41 O66 2.543 . S
Sm41 O67 2.450 . S
Sm41 O68 2.681 1_565 S
Sm41 O69 2.464 . S
Sm41 O70 2.396 1_565 S
C42 Sm40 2.846 . S
C42 C43 1.506 . S
C42 O60 1.261 . S
C42 O61 1.242 1_655 S
C43 C42 1.506 . S
C43 C44 1.358 . S
C43 C48 1.382 1_655 S
C44 C43 1.358 . S
C44 C45 1.385 . S
C44 H72 0.930 . S
C45 C44 1.385 . S
C45 C46 1.395 1_655 S
C45 H73 0.929 . S
C46 C45 1.395 1_455 S
C46 C47 1.335 . S
C47 C46 1.335 . S
C47 C48 1.398 . S
C47 H74 0.930 . S
C48 C43 1.382 1_455 S
C48 C47 1.398 . S
C48 H75 0.929 . S
C49 O62 1.271 1_445 S
C49 O63 1.251 . S
C50 O64 1.252 1_565 S
C50 O65 1.272 . S
C51 Sm41 2.846 . S
C51 C52 1.506 . S
C51 O66 1.261 . S
C51 O67 1.242 . S
C52 C51 1.506 . S
C52 C53 1.358 . S
C52 C57 1.382 . S
C53 C52 1.358 . S
C53 C54 1.385 . S
C53 H76 0.930 . S
C54 C53 1.385 . S
C54 C55 1.395 . S
C54 H77 0.929 . S
C55 C54 1.395 . S
C55 C56 1.335 . S
C56 C55 1.335 . S
C56 C57 1.398 . S
C56 H78 0.930 . S
C57 C52 1.382 . S
C57 C56 1.398 . S
C57 H79 0.929 . S
C58 O68 1.271 1_565 S
C58 O69 1.251 . S
C59 O70 1.252 . S
C59 O71 1.272 . S
O60 Sm40 2.543 . S
O60 C42 1.261 . S
O61 Sm40 2.450 1_455 S
O61 C42 1.242 1_455 S
O62 Sm40 2.681 1_565 S
O62 Sm41 2.386 . S
O62 C49 1.271 1_665 S
O63 Sm40 2.464 1_455 S
O63 C49 1.251 . S
O64 Sm40 2.396 . S
O64 C50 1.252 1_545 S
O65 Sm41 2.408 . S
O65 C50 1.272 . S
O66 Sm41 2.543 . S
O66 C51 1.261 . S
O67 Sm41 2.450 . S
O67 C51 1.242 . S
O68 Sm40 2.386 . S
O68 Sm41 2.681 1_545 S
O68 C58 1.271 1_545 S
O69 Sm41 2.464 . S
O69 C58 1.251 . S
O70 Sm41 2.396 1_545 S
O70 C59 1.252 . S
O71 Sm40 2.408 . S
O71 C59 1.272 . S
H72 C44 0.930 . S
H73 C45 0.929 . S
H74 C47 0.930 . S
H75 C48 0.929 . S
H76 C53 0.930 . S
H77 C54 0.929 . S
H78 C56 0.930 . S
H79 C57 0.929 . S
Sm80 C82 2.846 . S
Sm80 O100 2.543 . S
Sm80 O101 2.450 . S
Sm80 O102 2.681 1_655 S
Sm80 O103 2.464 1_655 S
Sm80 O104 2.396 . S
Sm80 O108 2.386 1_545 S
Sm80 O111 2.408 . S
Sm81 C91 2.846 . S
Sm81 O102 2.386 1_565 S
Sm81 O105 2.408 . S
Sm81 O106 2.543 . S
Sm81 O107 2.450 . S
Sm81 O108 2.681 1_455 S
Sm81 O109 2.464 1_455 S
Sm81 O110 2.396 1_455 S
C82 Sm80 2.846 . S
C82 C83 1.506 . S
C82 O100 1.261 . S
C82 O101 1.242 . S
C83 C82 1.506 . S
C83 C84 1.358 . S
C83 C88 1.382 . S
C84 C83 1.358 . S
C84 C85 1.385 . S
C84 H112 0.930 1_545 S
C85 C84 1.385 . S
C85 C86 1.395 . S
C85 H113 0.929 . S
C86 C85 1.395 . S
C86 C87 1.335 . S
C87 C86 1.335 . S
C87 C88 1.398 . S
C87 H114 0.930 . S
C88 C83 1.382 . S
C88 C87 1.398 . S
C88 H115 0.929 . S
C89 O102 1.271 . S
C89 O103 1.251 . S
C90 O104 1.252 1_465 S
C90 O105 1.272 . S
C91 Sm81 2.846 . S
C91 C92 1.506 . S
C91 O106 1.261 . S
C91 O107 1.242 . S
C92 C91 1.506 . S
C92 C93 1.358 . S
C92 C97 1.382 . S
C93 C92 1.358 . S
C93 C94 1.385 . S
C93 H116 0.930 . S
C94 C93 1.385 . S
C94 C95 1.395 . S
C94 H117 0.929 . S
C95 C94 1.395 . S
C95 C96 1.335 . S
C96 C95 1.335 . S
C96 C97 1.398 . S
C96 H118 0.930 . S
C97 C92 1.382 . S
C97 C96 1.398 . S
C97 H119 0.929 . S
C98 O108 1.271 . S
C98 O109 1.251 . S
C99 O110 1.252 1_545 S
C99 O111 1.272 . S
O100 Sm80 2.543 . S
O100 C82 1.261 . S
O101 Sm80 2.450 . S
O101 C82 1.242 . S
O102 Sm80 2.681 1_455 S
O102 Sm81 2.386 1_545 S
O102 C89 1.271 . S
O103 Sm80 2.464 1_455 S
O103 C89 1.251 . S
O104 Sm80 2.396 . S
O104 C90 1.252 1_645 S
O105 Sm81 2.408 . S
O105 C90 1.272 . S
O106 Sm81 2.543 . S
O106 C91 1.261 . S
O107 Sm81 2.450 . S
O107 C91 1.242 . S
O108 Sm80 2.386 1_565 S
O108 Sm81 2.681 1_655 S
O108 C98 1.271 . S
O109 Sm81 2.464 1_655 S
O109 C98 1.251 . S
O110 Sm81 2.396 1_655 S
O110 C99 1.252 1_565 S
O111 Sm80 2.408 . S
O111 C99 1.272 . S
H112 C84 0.930 1_565 S
H113 C85 0.929 . S
H114 C87 0.930 . S
H115 C88 0.929 . S
H116 C93 0.930 . S
H117 C94 0.929 . S
H118 C96 0.930 . S
H119 C97 0.929 . S
H120 C126 0.930 . S
H121 C129 0.930 . S
H122 C130 0.930 . S
H123 C131 0.930 . S
H124 C134 0.930 . S
H125 C135 0.930 . S
C126 H120 0.930 . S
C126 C127 1.355 1_655 S
C126 C128 1.415 . S
C127 C126 1.355 1_455 S
C127 C129 1.419 . S
C128 C126 1.415 . S
C128 C133 1.425 1_655 S
C128 C135 1.409 . S
C129 H121 0.930 . S
C129 C127 1.419 . S
C129 C130 1.362 . S
C130 H122 0.930 . S
C130 C129 1.362 . S
C130 C133 1.409 . S
C131 H123 0.930 . S
C131 C132 1.355 1_455 S
C131 C133 1.415 . S
C132 C131 1.355 1_655 S
C132 C134 1.419 . S
C133 C128 1.425 1_455 S
C133 C130 1.409 . S
C133 C131 1.415 . S
C134 H124 0.930 . S
C134 C132 1.419 . S
C134 C135 1.362 . S
C135 H125 0.930 . S
C135 C128 1.409 . S
C135 C134 1.362 . S
H136 C142 0.930 . S
H137 C145 0.930 . S
H138 C146 0.930 . S
H139 C147 0.930 . S
H140 C150 0.930 . S
H141 C151 0.930 . S
C142 H136 0.930 . S
C142 C143 1.355 1_545 S
C142 C144 1.415 . S
C143 C142 1.355 1_565 S
C143 C145 1.419 . S
C144 C142 1.415 . S
C144 C149 1.425 1_545 S
C144 C151 1.409 . S
C145 H137 0.930 . S
C145 C143 1.419 . S
C145 C146 1.362 . S
C146 H138 0.930 . S
C146 C145 1.362 . S
C146 C149 1.409 . S
C147 H139 0.930 . S
C147 C148 1.355 1_565 S
C147 C149 1.415 . S
C148 C147 1.355 1_545 S
C148 C150 1.419 . S
C149 C144 1.425 1_565 S
C149 C146 1.409 . S
C149 C147 1.415 . S
C150 H140 0.930 . S
C150 C148 1.419 . S
C150 C151 1.362 . S
C151 H141 0.930 . S
C151 C144 1.409 . S
C151 C150 1.362 . S
H152 C158 0.930 . S
H153 C161 0.930 . S
H154 C162 0.930 . S
H155 C163 0.930 . S
H156 C166 0.930 . S
H157 C167 0.930 . S
C158 H152 0.930 . S
C158 C159 1.355 . S
C158 C160 1.415 . S
C159 C158 1.355 . S
C159 C161 1.419 . S
C160 C158 1.415 . S
C160 C165 1.425 . S
C160 C167 1.409 . S
C161 H153 0.930 . S
C161 C159 1.419 . S
C161 C162 1.362 . S
C162 H154 0.930 . S
C162 C161 1.362 . S
C162 C165 1.409 . S
C163 H155 0.930 . S
C163 C164 1.355 . S
C163 C165 1.415 . S
C164 C163 1.355 . S
C164 C166 1.419 . S
C165 C160 1.425 . S
C165 C162 1.409 . S
C165 C163 1.415 . S
C166 H156 0.930 . S
C166 C164 1.419 . S
C166 C167 1.362 . S
C167 H157 0.930 . S
C167 C160 1.409 . S
C167 C166 1.362 . S
H168 C174 0.930 . S
H169 C177 0.930 . S
H170 C178 0.930 1_565 S
H171 C179 0.930 1_565 S
H172 C182 0.930 1_554 S
H173 C183 0.930 . S
C174 H168 0.930 . S
C174 C175 1.355 . S
C174 C176 1.415 . S
C175 C174 1.355 . S
C175 C177 1.419 . S
C176 C174 1.415 . S
C176 C181 1.425 . S
C176 C183 1.409 . S
C177 H169 0.930 . S
C177 C175 1.419 . S
C177 C178 1.362 . S
C178 H170 0.930 1_545 S
C178 C177 1.362 . S
C178 C181 1.409 . S
C179 H171 0.930 1_545 S
C179 C180 1.355 . S
C179 C181 1.415 . S
C180 C179 1.355 . S
C180 C182 1.419 . S
C181 C176 1.425 . S
C181 C178 1.409 . S
C181 C179 1.415 . S
C182 H172 0.930 1_556 S
C182 C180 1.419 . S
C182 C183 1.362 . S
C183 H173 0.930 . S
C183 C176 1.409 . S
C183 C182 1.362 . S
H184 C190 0.930 . S
H185 C193 0.930 . S
H186 C194 0.930 . S
H187 C195 0.930 . S
H188 C198 0.930 . S
H189 C199 0.930 . S
C190 H184 0.930 . S
C190 C191 1.355 . S
C190 C192 1.415 . S
C191 C190 1.355 . S
C191 C193 1.419 . S
C192 C190 1.415 . S
C192 C197 1.425 . S
C192 C199 1.409 . S
C193 H185 0.930 . S
C193 C191 1.419 . S
C193 C194 1.362 . S
C194 H186 0.930 . S
C194 C193 1.362 . S
C194 C197 1.409 . S
C195 H187 0.930 . S
C195 C196 1.355 . S
C195 C197 1.415 . S
C196 C195 1.355 . S
C196 C198 1.419 . S
C197 C192 1.425 . S
C197 C194 1.409 . S
C197 C195 1.415 . S
C198 H188 0.930 . S
C198 C196 1.419 . S
C198 C199 1.362 . S
C199 H189 0.930 . S
C199 C192 1.409 . S
C199 C198 1.362 . S
H200 C206 0.930 . S
H201 C209 0.930 . S
H202 C210 0.930 . S
H203 C211 0.930 . S
H204 C214 0.930 . S
H205 C215 0.930 . S
C206 H200 0.930 . S
C206 C207 1.355 1_565 S
C206 C208 1.415 . S
C207 C206 1.355 1_545 S
C207 C209 1.419 . S
C208 C206 1.415 . S
C208 C213 1.425 1_565 S
C208 C215 1.409 . S
C209 H201 0.930 . S
C209 C207 1.419 . S
C209 C210 1.362 . S
C210 H202 0.930 . S
C210 C209 1.362 . S
C210 C213 1.409 . S
C211 H203 0.930 . S
C211 C212 1.355 1_545 S
C211 C213 1.415 . S
C212 C211 1.355 1_565 S
C212 C214 1.419 . S
C213 C208 1.425 1_545 S
C213 C210 1.409 . S
C213 C211 1.415 . S
C214 H204 0.930 . S
C214 C212 1.419 . S
C214 C215 1.362 . S
C215 H205 0.930 . S
C215 C208 1.409 . S
C215 C214 1.362 . S
H216 C222 0.930 1_545 S
H217 C225 0.930 . S
H218 C226 0.930 . S
H219 C227 0.930 . S
H220 C230 0.930 . S
H221 C231 0.930 1_546 S
C222 H216 0.930 1_565 S
C222 C223 1.355 1_455 S
C222 C224 1.415 1_455 S
C223 C222 1.355 1_655 S
C223 C225 1.419 . S
C224 C222 1.415 1_655 S
C224 C229 1.425 . S
C224 C231 1.409 1_656 S
C225 H217 0.930 . S
C225 C223 1.419 . S
C225 C226 1.362 . S
C226 H218 0.930 . S
C226 C225 1.362 . S
C226 C229 1.409 . S
C227 H219 0.930 . S
C227 C228 1.355 . S
C227 C229 1.415 1_554 S
C228 C227 1.355 . S
C228 C230 1.419 . S
C229 C224 1.425 . S
C229 C226 1.409 . S
C229 C227 1.415 1_556 S
C230 H220 0.930 . S
C230 C228 1.419 . S
C230 C231 1.362 1_655 S
C231 H221 0.930 1_564 S
C231 C224 1.409 1_454 S
C231 C230 1.362 1_455 S
H232 C238 0.930 . S
H233 C241 0.930 . S
H234 C242 0.930 . S
H235 C243 0.930 . S
H236 C246 0.930 . S
H237 C247 0.930 . S
C238 H232 0.930 . S
C238 C239 1.355 . S
C238 C240 1.415 . S
C239 C238 1.355 . S
C239 C241 1.419 . S
C240 C238 1.415 . S
C240 C245 1.425 . S
C240 C247 1.409 . S
C241 H233 0.930 . S
C241 C239 1.419 . S
C241 C242 1.362 . S
C242 H234 0.930 . S
C242 C241 1.362 . S
C242 C245 1.409 . S
C243 H235 0.930 . S
C243 C244 1.355 . S
C243 C245 1.415 . S
C244 C243 1.355 . S
C244 C246 1.419 . S
C245 C240 1.425 . S
C245 C242 1.409 . S
C245 C243 1.415 . S
C246 H236 0.930 . S
C246 C244 1.419 . S
C246 C247 1.362 . S
C247 H237 0.930 . S
C247 C240 1.409 . S
C247 C246 1.362 . S
H248 C254 0.930 . S
H249 C257 0.930 . S
H250 C258 0.930 . S
H251 C259 0.930 . S
H252 C262 0.930 . S
H253 C263 0.930 . S
C254 H248 0.930 . S
C254 C255 1.355 . S
C254 C256 1.415 . S
C255 C254 1.355 . S
C255 C257 1.419 . S
C256 C254 1.415 . S
C256 C261 1.425 . S
C256 C263 1.409 . S
C257 H249 0.930 . S
C257 C255 1.419 . S
C257 C258 1.362 . S
C258 H250 0.930 . S
C258 C257 1.362 . S
C258 C261 1.409 . S
C259 H251 0.930 . S
C259 C260 1.355 . S
C259 C261 1.415 . S
C260 C259 1.355 . S
C260 C262 1.419 . S
C261 C256 1.425 . S
C261 C258 1.409 . S
C261 C259 1.415 . S
C262 H252 0.930 . S
C262 C260 1.419 . S
C262 C263 1.362 . S
C263 H253 0.930 . S
C263 C256 1.409 . S
C263 C262 1.362 . S
C127 C9 1.695 1_445 S
C132 C18 1.695 1_655 S
C143 C58 1.759 . S
C148 C49 1.759 . S
C159 C89 1.455 . S
C164 C98 1.455 . S
C175 C86 0.975 . S
C180 C15 1.047 1_556 S
C191 C59 2.051 . S
C196 C6 1.983 . S
C207 C99 2.572 . S
C212 C50 2.579 . S
C223 C90 2.511 1_655 S
C228 C19 2.426 . S
C239 C10 1.923 . S
C244 C55 1.759 . S
C255 C95 1.005 . S
C260 C46 1.060 . S
