# Generated by pormake.
# Topology noz, (5)-cn, num edge types: 1
# Building blocks:
#     Node 0, Type 0, BuildingBlock: XOMCOT_clean_sbu_0, # of connection points: 5
#     Node 1, Type 0, BuildingBlock: XOMCOT_clean_sbu_0, # of connection points: 5
#     Node 2, Type 0, BuildingBlock: XOMCOT_clean_sbu_0, # of connection points: 5
#     Node 3, Type 0, BuildingBlock: XOMCOT_clean_sbu_0, # of connection points: 5
#     Node 4, Type 0, BuildingBlock: XOMCOT_clean_sbu_0, # of connection points: 5
#     Node 5, Type 0, BuildingBlock: XOMCOT_clean_sbu_0, # of connection points: 5
#     Node 6, Type 0, BuildingBlock: XOMCOT_clean_sbu_0, # of connection points: 5
#     Node 7, Type 0, BuildingBlock: XOMCOT_clean_sbu_0, # of connection points: 5
#     Edge 8, Type (0, 0), BuildingBlock: XIVTED_clean_linker_0, # of connection points: 2
#     Edge 9, Type (0, 0), BuildingBlock: XIVTED_clean_linker_0, # of connection points: 2
#     Edge 10, Type (0, 0), BuildingBlock: XIVTED_clean_linker_0, # of connection points: 2
#     Edge 11, Type (0, 0), BuildingBlock: XIVTED_clean_linker_0, # of connection points: 2
#     Edge 12, Type (0, 0), BuildingBlock: XIVTED_clean_linker_0, # of connection points: 2
#     Edge 13, Type (0, 0), BuildingBlock: XIVTED_clean_linker_0, # of connection points: 2
#     Edge 14, Type (0, 0), BuildingBlock: XIVTED_clean_linker_0, # of connection points: 2
#     Edge 15, Type (0, 0), BuildingBlock: XIVTED_clean_linker_0, # of connection points: 2
#     Edge 16, Type (0, 0), BuildingBlock: XIVTED_clean_linker_0, # of connection points: 2
#     Edge 17, Type (0, 0), BuildingBlock: XIVTED_clean_linker_0, # of connection points: 2
#     Edge 18, Type (0, 0), BuildingBlock: XIVTED_clean_linker_0, # of connection points: 2
#     Edge 19, Type (0, 0), BuildingBlock: XIVTED_clean_linker_0, # of connection points: 2
#     Edge 20, Type (0, 0), BuildingBlock: XIVTED_clean_linker_0, # of connection points: 2
#     Edge 21, Type (0, 0), BuildingBlock: XIVTED_clean_linker_0, # of connection points: 2
#     Edge 22, Type (0, 0), BuildingBlock: XIVTED_clean_linker_0, # of connection points: 2
#     Edge 23, Type (0, 0), BuildingBlock: XIVTED_clean_linker_0, # of connection points: 2
#     Edge 24, Type (0, 0), BuildingBlock: XIVTED_clean_linker_0, # of connection points: 2
#     Edge 25, Type (0, 0), BuildingBlock: XIVTED_clean_linker_0, # of connection points: 2
#     Edge 26, Type (0, 0), BuildingBlock: XIVTED_clean_linker_0, # of connection points: 2
#     Edge 27, Type (0, 0), BuildingBlock: XIVTED_clean_linker_0, # of connection points: 2
# Relax obj value: 0.105
# Max RMSD: 0.192
# Mean RMSD: 0.191
data_MOF--net-noz--node1-XOMCOT_clean_sbu_0--edge1-XIVTED_clean_linker_0
_symmetry_space_group_name_H-M    P1
_symmetry_Int_Tables_number       1
_symmetry_cell_setting            triclinic
loop_
_symmetry_equiv_pos_as_xyz
'x, y, z'
_cell_length_a     24.410148
_cell_length_b     51.2825
_cell_length_c     36.138846
_cell_angle_alpha  88.826782
_cell_angle_beta   90.262826
_cell_angle_gamma 89.816152
loop_
_atom_site_label
_atom_site_type_symbol
_atom_site_fract_x
_atom_site_fract_y
_atom_site_fract_z
_atom_type_partial_charge
Co0 Co 0.16977 0.32602 0.39643 0.0
C1 C 0.26078 0.29997 0.44138 0.0
C2 C 0.1852 0.30477 0.4707 0.0
C3 C 0.22275 0.2937 0.49444 0.0
N4 N 0.20856 0.30882 0.43736 0.0
N5 N 0.27042 0.29077 0.4763 0.0
H6 H 0.29137 0.30081 0.41985 0.0
H7 H 0.14365 0.31009 0.47765 0.0
C8 C 0.05055 0.30705 0.41089 0.0
O9 O 0.02669 0.3251 0.39025 0.0
N10 N 0.13046 0.3432 0.35583 0.0
C11 C 0.13299 0.3688 0.34704 0.0
C12 C 0.09542 0.3743 0.31952 0.0
C13 C 0.09366 0.33319 0.33195 0.0
N14 N 0.06978 0.35201 0.31043 0.0
C15 C 0.19872 0.3666 0.44468 0.0
C16 C 0.09772 0.39067 0.44934 0.0
C17 C 0.14378 0.40322 0.46365 0.0
C18 C 0.1945 0.39048 0.4622 0.0
C19 C 0.10384 0.36677 0.43184 0.0
N20 N 0.15411 0.35522 0.42882 0.0
H21 H 0.2388 0.35783 0.44218 0.0
H22 H 0.06874 0.35905 0.41843 0.0
H23 H 0.15837 0.38278 0.36109 0.0
H24 H 0.08214 0.31283 0.33201 0.0
O25 O 0.23643 0.33987 0.37652 0.0
O26 O 0.20185 0.3018 0.36105 0.0
O27 O 0.10282 0.30535 0.41352 0.0
C28 C 0.24023 0.3193 0.35645 0.0
H29 H 0.21529 0.28812 0.52302 0.0
H30 H 0.08513 0.39362 0.30899 0.0
H31 H 0.05787 0.40002 0.4494 0.0
H32 H 0.23111 0.39936 0.4733 0.0
Co33 Co 0.60434 0.69063 0.90898 0.0
C34 C 0.71289 0.68249 0.86991 0.0
C35 C 0.65864 0.70983 0.8429 0.0
C36 C 0.70712 0.70978 0.82402 0.0
N37 N 0.66138 0.69245 0.87139 0.0
N38 N 0.74138 0.6927 0.84101 0.0
H39 H 0.73075 0.66936 0.89025 0.0
H40 H 0.62399 0.72245 0.83695 0.0
C41 C 0.54843 0.67901 0.83853 0.0
O42 O 0.5892 0.66273 0.83318 0.0
N43 N 0.54752 0.69064 0.94596 0.0
C44 C 0.54365 0.67523 0.97648 0.0
C45 C 0.50059 0.68391 0.99753 0.0
C46 C 0.50759 0.70867 0.94907 0.0
N47 N 0.47829 0.70504 0.98036 0.0
C48 C 0.6487 0.63971 0.92522 0.0
C49 C 0.55363 0.61218 0.91241 0.0
C50 C 0.59945 0.5988 0.92676 0.0
C51 C 0.64764 0.6129 0.93269 0.0
C52 C 0.55653 0.63902 0.90515 0.0
N53 N 0.60404 0.6525 0.91086 0.0
H54 H 0.68436 0.65039 0.93363 0.0
H55 H 0.51942 0.64914 0.89698 0.0
H56 H 0.57141 0.65943 0.98368 0.0
H57 H 0.50126 0.72456 0.92932 0.0
O58 O 0.65781 0.69624 0.94716 0.0
O59 O 0.61461 0.72776 0.91561 0.0
O60 O 0.54654 0.69193 0.86845 0.0
C61 C 0.65023 0.72103 0.94106 0.0
H62 H 0.71669 0.72172 0.79988 0.0
H63 H 0.48845 0.6761 0.02431 0.0
H64 H 0.51523 0.60219 0.90793 0.0
H65 H 0.68331 0.60364 0.9452 0.0
Co66 Co 0.17009 0.66513 0.61774 0.0
C67 C 0.25385 0.69012 0.56703 0.0
C68 C 0.17807 0.68071 0.54023 0.0
C69 C 0.21206 0.69199 0.51454 0.0
N70 N 0.20385 0.67952 0.57323 0.0
N71 N 0.25997 0.69788 0.53115 0.0
H72 H 0.28513 0.69198 0.58805 0.0
H73 H 0.13699 0.67378 0.53511 0.0
C74 C 0.0503 0.68378 0.61105 0.0
O75 O 0.03304 0.66784 0.63727 0.0
N76 N 0.13607 0.65087 0.66219 0.0
C77 C 0.12952 0.62563 0.67212 0.0
C78 C 0.09833 0.62434 0.70378 0.0
C79 C 0.11207 0.66453 0.68924 0.0
N80 N 0.08629 0.64886 0.71423 0.0
C81 C 0.19607 0.62075 0.57627 0.0
C82 C 0.09203 0.60044 0.56874 0.0
C83 C 0.13678 0.58643 0.55505 0.0
C84 C 0.18924 0.59709 0.55867 0.0
C85 C 0.10072 0.62424 0.58614 0.0
N86 N 0.15244 0.63391 0.59027 0.0
H87 H 0.23701 0.62841 0.57915 0.0
H88 H 0.06596 0.63411 0.59725 0.0
H89 H 0.14423 0.60922 0.65666 0.0
H90 H 0.10997 0.68559 0.68865 0.0
O91 O 0.23959 0.65361 0.63704 0.0
O92 O 0.2027 0.6923 0.64762 0.0
O93 O 0.10051 0.68397 0.60102 0.0
C94 C 0.24282 0.67582 0.65348 0.0
H95 H 0.20141 0.69596 0.4859 0.0
H96 H 0.08283 0.60659 0.71648 0.0
H97 H 0.05072 0.59301 0.56632 0.0
H98 H 0.2252 0.58689 0.54905 0.0
Co99 Co 0.58972 0.34061 0.11417 0.0
C100 C 0.49397 0.3162 0.07512 0.0
C101 C 0.56456 0.32145 0.04061 0.0
C102 C 0.5227 0.31197 0.01933 0.0
N103 N 0.54679 0.32423 0.0756 0.0
N104 N 0.47833 0.30874 0.04094 0.0
H105 H 0.46683 0.31666 0.09865 0.0
H106 H 0.60483 0.32685 0.0308 0.0
C107 C 0.70877 0.32553 0.09402 0.0
O108 O 0.73083 0.34421 0.11324 0.0
N109 N 0.63283 0.35686 0.15264 0.0
C110 C 0.633 0.38236 0.16079 0.0
C111 C 0.67408 0.38668 0.18611 0.0
C112 C 0.67117 0.34573 0.17507 0.0
N113 N 0.69904 0.36374 0.19444 0.0
C114 C 0.54848 0.38193 0.06863 0.0
C115 C 0.64557 0.40684 0.0521 0.0
C116 C 0.59635 0.418 0.03922 0.0
C117 C 0.54743 0.40491 0.04732 0.0
C118 C 0.6448 0.38362 0.07313 0.0
N119 N 0.59663 0.37141 0.08147 0.0
H120 H 0.51 0.37268 0.07533 0.0
H121 H 0.68282 0.37664 0.0839 0.0
H122 H 0.60705 0.39704 0.14776 0.0
H123 H 0.68243 0.32532 0.17407 0.0
O124 O 0.52486 0.35175 0.13934 0.0
O125 O 0.56641 0.31394 0.15031 0.0
O126 O 0.65668 0.32231 0.0927 0.0
C127 C 0.5269 0.33006 0.15843 0.0
H128 H 0.52474 0.3078 0.99013 0.0
H129 H 0.68649 0.40553 0.19607 0.0
H130 H 0.68439 0.41647 0.0473 0.0
H131 H 0.50833 0.41245 0.03761 0.0
Co132 Co 0.66778 0.82409 0.39786 0.0
C133 C 0.7518 0.79689 0.4467 0.0
C134 C 0.67581 0.80497 0.47385 0.0
C135 C 0.71041 0.79314 0.49895 0.0
N136 N 0.70131 0.8073 0.44099 0.0
N137 N 0.75841 0.78814 0.48211 0.0
H138 H 0.78333 0.7962 0.42586 0.0
H139 H 0.63487 0.81191 0.47944 0.0
C140 C 0.54599 0.80674 0.40665 0.0
O141 O 0.52544 0.82455 0.38401 0.0
N142 N 0.63425 0.84107 0.3549 0.0
C143 C 0.63893 0.86654 0.34573 0.0
C144 C 0.60321 0.87228 0.31721 0.0
C145 C 0.59893 0.83126 0.32993 0.0
N146 N 0.57685 0.85023 0.30794 0.0
C147 C 0.69625 0.86574 0.44421 0.0
C148 C 0.59582 0.89066 0.44557 0.0
C149 C 0.6417 0.90321 0.46027 0.0
C150 C 0.69203 0.89005 0.46049 0.0
C151 C 0.60189 0.86625 0.42942 0.0
N152 N 0.65198 0.85436 0.42797 0.0
H153 H 0.73602 0.85649 0.44319 0.0
H154 H 0.56702 0.85811 0.41606 0.0
H155 H 0.66386 0.88036 0.36042 0.0
H156 H 0.58516 0.81121 0.33059 0.0
O157 O 0.73752 0.83574 0.37996 0.0
O158 O 0.69977 0.79815 0.36521 0.0
O159 O 0.59758 0.80524 0.41317 0.0
C160 C 0.74046 0.81446 0.36129 0.0
H161 H 0.70046 0.78844 0.52745 0.0
H162 H 0.5943 0.8916 0.30608 0.0
H163 H 0.55623 0.90025 0.44455 0.0
H164 H 0.72838 0.89882 0.47214 0.0
Co165 Co 0.10493 0.18309 0.91336 0.0
C166 C 0.20825 0.17431 0.87134 0.0
C167 C 0.13702 0.17402 0.83625 0.0
C168 C 0.18203 0.16856 0.81516 0.0
N169 N 0.15315 0.17752 0.87161 0.0
N170 N 0.2266 0.16883 0.83715 0.0
H171 H 0.23422 0.17499 0.89564 0.0
H172 H 0.09535 0.17463 0.82616 0.0
C173 C 0.9915 0.1766 0.88252 0.0
O174 O 0.97882 0.16313 0.91257 0.0
N175 N 0.05586 0.18922 0.95467 0.0
C176 C 0.04789 0.17508 0.98614 0.0
C177 C 1.00632 0.18629 1.00595 0.0
C178 C 0.01978 0.20921 0.95644 0.0
N179 N 0.98866 0.20767 0.98719 0.0
C180 C 0.12875 0.13418 0.94865 0.0
C181 C 0.0702 0.10211 0.90264 0.0
C182 C 0.09482 0.09139 0.93465 0.0
C183 C 0.12612 0.10767 0.95682 0.0
C184 C 0.07401 0.12911 0.89537 0.0
N185 N 0.09968 0.14512 0.91988 0.0
H186 H 0.1526 0.14599 0.96696 0.0
H187 H 0.05613 0.1369 0.87013 0.0
H188 H 0.06981 0.15778 0.99477 0.0
H189 H 0.01515 0.22408 0.93494 0.0
O190 O 0.16659 0.18849 0.94555 0.0
O191 O 0.12519 0.21998 0.91338 0.0
O192 O 0.03998 0.18553 0.87834 0.0
C193 C 0.16324 0.21307 0.93709 0.0
H194 H 0.18207 0.16441 0.7859 0.0
H195 H 0.99058 0.17936 0.03231 0.0
H196 H 0.04724 0.08994 0.88401 0.0
H197 H 0.14779 0.10003 0.98097 0.0
Co198 Co 0.67333 0.16331 0.62021 0.0
C199 C 0.76457 0.19192 0.58111 0.0
C200 C 0.7019 0.17825 0.54445 0.0
C201 C 0.74201 0.18993 0.5235 0.0
N202 N 0.71621 0.17905 0.58054 0.0
N203 N 0.78112 0.19847 0.54652 0.0
H204 H 0.78753 0.19622 0.60589 0.0
H205 H 0.66478 0.16954 0.53397 0.0
C206 C 0.55654 0.1839 0.60449 0.0
O207 O 0.53415 0.16773 0.6285 0.0
N208 N 0.63125 0.14707 0.65988 0.0
C209 C 0.63165 0.1214 0.66846 0.0
C210 C 0.59869 0.11701 0.69858 0.0
C211 C 0.60073 0.15817 0.68649 0.0
N212 N 0.57816 0.14006 0.70953 0.0
C213 C 0.70504 0.11979 0.57804 0.0
C214 C 0.60173 0.10105 0.56221 0.0
C215 C 0.64764 0.08656 0.55156 0.0
C216 C 0.69983 0.09647 0.55923 0.0
C217 C 0.6088 0.12441 0.58092 0.0
N218 N 0.66001 0.13335 0.58909 0.0
H219 H 0.74561 0.12679 0.5845 0.0
H220 H 0.57295 0.13448 0.58997 0.0
H221 H 0.65421 0.10674 0.65371 0.0
H222 H 0.59244 0.1789 0.68738 0.0
O223 O 0.73791 0.1502 0.64498 0.0
O224 O 0.70038 0.18879 0.65519 0.0
O225 O 0.60819 0.18353 0.59846 0.0
C226 C 0.73776 0.17143 0.66392 0.0
H227 H 0.74216 0.19238 0.49367 0.0
H228 H 0.58977 0.09812 0.71094 0.0
H229 H 0.56063 0.09424 0.55661 0.0
H230 H 0.73654 0.08584 0.55204 0.0
Co231 Co 0.08544 0.83295 0.11922 0.0
C232 C 0.98346 0.8181 0.07912 0.0
C233 C 0.05595 0.80725 0.04974 0.0
C234 C 1.01119 0.80085 0.02874 0.0
N235 N 0.03881 0.81826 0.08131 0.0
N236 N 0.96582 0.80764 0.04724 0.0
H237 H 0.95642 0.82568 0.09997 0.0
H238 H 0.09806 0.80411 0.04194 0.0
C239 C 0.19902 0.82376 0.08974 0.0
O240 O 0.21152 0.84806 0.09691 0.0
N241 N 0.13269 0.84729 0.1574 0.0
C242 C 0.12645 0.86987 0.17542 0.0
C243 C 0.16941 0.87275 0.19964 0.0
C244 C 0.1783 0.83622 0.17245 0.0
N245 N 0.20244 0.8517 0.19758 0.0
C246 C 0.06462 0.88615 0.0989 0.0
C247 C 0.11944 0.88806 0.03231 0.0
C248 C 0.09487 0.91089 0.04521 0.0
C249 C 0.06596 0.90938 0.0785 0.0
C250 C 0.11688 0.86494 0.05379 0.0
N251 N 0.09239 0.86452 0.08787 0.0
H252 H 0.0399 0.88574 0.12343 0.0
H253 H 0.13436 0.84753 0.04253 0.0
H254 H 0.09305 0.88345 0.17193 0.0
H255 H 0.19372 0.81727 0.16495 0.0
O256 O 0.02245 0.84351 0.14707 0.0
O257 O 0.06363 0.80528 0.15427 0.0
O258 O 0.15099 0.81508 0.09663 0.0
C259 C 0.0252 0.82125 0.16457 0.0
H260 H 1.01183 0.79138 1.00223 0.0
H261 H 0.1763 0.88953 0.21669 0.0
H262 H 0.14083 0.88809 1.00613 0.0
H263 H 0.04362 0.92604 0.08865 0.0
H264 H 0.3173 0.35575 0.34197 0.0
H265 H 0.4959 0.28315 0.19234 0.0
H266 H 0.26691 0.27908 0.30857 0.0
H267 H 0.46492 0.36603 0.19227 0.0
H268 H 0.42629 0.27747 0.2416 0.0
H269 H 0.38794 0.35566 0.29525 0.0
C270 C 0.32115 0.33871 0.32494 0.0
C271 C 0.28543 0.31746 0.32912 0.0
C272 C 0.43493 0.2968 0.23053 0.0
C273 C 0.36748 0.31734 0.27498 0.0
C274 C 0.47472 0.30007 0.2027 0.0
C275 C 0.48631 0.32512 0.18822 0.0
C276 C 0.40792 0.31881 0.24433 0.0
C277 C 0.45744 0.34635 0.20242 0.0
C278 C 0.36165 0.33876 0.29808 0.0
C279 C 0.29327 0.29595 0.30613 0.0
N280 N 0.42018 0.34273 0.22971 0.0
N281 N 0.33357 0.29641 0.27986 0.0
H282 H 0.54617 0.65665 0.77102 0.0
H283 H 0.25016 0.7109 0.71026 0.0
H284 H 0.45189 0.7074 0.84043 0.0
H285 H 0.34189 0.65214 0.65317 0.0
H286 H 0.32641 0.71458 0.75486 0.0
H287 H 0.47458 0.65938 0.72443 0.0
C288 C 0.51033 0.66843 0.77653 0.0
C289 C 0.50495 0.68163 0.80992 0.0
C290 C 0.32983 0.70107 0.73234 0.0
C291 C 0.42198 0.68485 0.75618 0.0
C292 C 0.28659 0.6991 0.70682 0.0
C293 C 0.2897 0.68108 0.67817 0.0
C294 C 0.37637 0.68507 0.72877 0.0
C295 C 0.33752 0.66611 0.67503 0.0
C296 C 0.46929 0.67 0.74976 0.0
C297 C 0.4576 0.69679 0.81514 0.0
N298 N 0.3787 0.6684 0.7 0.0
N299 N 0.41769 0.69789 0.78858 0.0
H300 H 0.0398 0.61885 0.76918 0.0
H301 H 0.81227 0.72695 0.80981 0.0
H302 H 0.03552 0.69628 0.71966 0.0
H303 H 0.7984 0.64711 0.84821 0.0
H304 H 0.90248 0.7173 0.7851 0.0
H305 H 0.95997 0.63014 0.80621 0.0
C306 C 0.02265 0.63824 0.76609 0.0
C307 C 0.04457 0.65639 0.74043 0.0
C308 C 0.88004 0.70184 0.79909 0.0
C309 C 0.95317 0.6695 0.78339 0.0
C310 C 0.82833 0.70734 0.8131 0.0
C311 C 0.7973 0.68767 0.8305 0.0
C312 C 0.90121 0.67641 0.80225 0.0
C313 C 0.82093 0.66279 0.83489 0.0
C314 C 0.97702 0.64466 0.78743 0.0
C315 C 0.02082 0.68143 0.73869 0.0
N316 N 0.8713 0.65776 0.82044 0.0
N317 N 0.97639 0.68709 0.75955 0.0
H318 H 0.73928 0.32077 0.23127 0.0
H319 H 0.03665 0.38457 0.25456 0.0
H320 H 0.78175 0.39888 0.1957 0.0
H321 H 0.9876 0.31603 0.31708 0.0
H322 H 0.94641 0.38613 0.22549 0.0
H323 H 0.83237 0.31528 0.25699 0.0
C324 C 0.76798 0.33676 0.22902 0.0
C325 C 0.75228 0.36044 0.21171 0.0
C326 C 0.95538 0.37065 0.24545 0.0
C327 C 0.85886 0.35417 0.24037 0.0
C328 C 1.00707 0.36973 0.26207 0.0
C329 C 0.01982 0.3504 0.28884 0.0
C330 C 0.91571 0.35204 0.25537 0.0
C331 C 0.97989 0.33132 0.29667 0.0
C332 C 0.82102 0.33363 0.24367 0.0
C333 C 0.79129 0.3805 0.20946 0.0
N334 N 0.9295 0.33274 0.28025 0.0
N335 N 0.84254 0.37686 0.22343 0.0
H336 H 0.83404 0.84246 0.35883 0.0
H337 H 0.97909 0.77442 0.18846 0.0
H338 H 0.7551 0.77737 0.30697 0.0
H339 H 0.98614 0.85647 0.21177 0.0
H340 H 0.9118 0.76873 0.2392 0.0
H341 H 0.90705 0.84048 0.31368 0.0
C342 C 0.83218 0.82754 0.33806 0.0
C343 C 0.78773 0.81032 0.33637 0.0
C344 C 0.92851 0.78787 0.2331 0.0
C345 C 0.87203 0.80802 0.28418 0.0
C346 C 0.96698 0.79109 0.20447 0.0
C347 C 0.98797 0.81597 0.19598 0.0
C348 C 0.91259 0.80959 0.2537 0.0
C349 C 0.97075 0.83699 0.21722 0.0
C350 C 0.87402 0.82647 0.31221 0.0
C351 C 0.78842 0.79114 0.30908 0.0
N352 N 0.93449 0.83329 0.24509 0.0
N353 N 0.82979 0.79062 0.28369 0.0
H354 H 0.78148 0.13209 0.70527 0.0
H355 H 0.9882 0.21252 0.82501 0.0
H356 H 0.77811 0.21608 0.69596 0.0
H357 H 0.90478 0.14471 0.869 0.0
H358 H 0.92426 0.21334 0.77203 0.0
H359 H 0.84091 0.13506 0.75946 0.0
C360 C 0.79365 0.15121 0.71449 0.0
C361 C 0.77498 0.1739 0.69605 0.0
C362 C 0.91989 0.19848 0.79354 0.0
C363 C 0.84352 0.17735 0.758 0.0
C364 C 0.95635 0.19791 0.82361 0.0
C365 C 0.95178 0.1785 0.85145 0.0
C366 C 0.87975 0.17908 0.79088 0.0
C367 C 0.90972 0.16008 0.84832 0.0
C368 C 0.82723 0.15285 0.74557 0.0
C369 C 0.7916 0.19814 0.70949 0.0
N370 N 0.87588 0.16061 0.81835 0.0
N371 N 0.82557 0.19927 0.73955 0.0
H372 H 0.25763 0.12767 0.7978 0.0
H373 H 0.54974 0.18426 0.74608 0.0
H374 H 0.31922 0.19645 0.84986 0.0
H375 H 0.5025 0.10412 0.73068 0.0
H376 H 0.46689 0.19052 0.78338 0.0
H377 H 0.34823 0.11967 0.77198 0.0
C378 C 0.29073 0.14092 0.80401 0.0
C379 C 0.28136 0.16268 0.82586 0.0
C380 C 0.47539 0.1715 0.77221 0.0
C381 C 0.38502 0.15409 0.79592 0.0
C382 C 0.52246 0.16794 0.75076 0.0
C383 C 0.53334 0.14364 0.73497 0.0
C384 C 0.43868 0.15071 0.77741 0.0
C385 C 0.49663 0.12314 0.74237 0.0
C386 C 0.34242 0.13639 0.78938 0.0
C387 C 0.32533 0.17936 0.83328 0.0
N388 N 0.45091 0.12724 0.76261 0.0
N389 N 0.37533 0.17496 0.81784 0.0
H390 H 0.23798 0.87482 0.2602 0.0
H391 H 0.53565 0.81062 0.26715 0.0
H392 H 0.28792 0.82065 0.17675 0.0
H393 H 0.49712 0.88688 0.30809 0.0
H394 H 0.44243 0.80838 0.24044 0.0
H395 H 0.32997 0.87313 0.28619 0.0
C396 C 0.26813 0.86254 0.24725 0.0
C397 C 0.25501 0.84824 0.21572 0.0
C398 C 0.45488 0.82563 0.25504 0.0
C399 C 0.36095 0.84593 0.24598 0.0
C400 C 0.50784 0.82691 0.27019 0.0
C401 C 0.52447 0.84912 0.28936 0.0
C402 C 0.41814 0.84641 0.26005 0.0
C403 C 0.48672 0.86963 0.29286 0.0
C404 C 0.32077 0.86155 0.26222 0.0
C405 C 0.2959 0.83202 0.20105 0.0
N406 N 0.43543 0.86768 0.27866 0.0
N407 N 0.34717 0.83138 0.21622 0.0
H408 H 0.06898 0.54646 0.57768 0.0
H409 H 0.21219 0.44348 0.44665 0.0
H410 H 0.18948 0.5667 0.49497 0.0
H411 H 0.06654 0.42511 0.509 0.0
H412 H 0.2058 0.48847 0.4665 0.0
H413 H 0.0667 0.50201 0.5541 0.0
C414 C 0.09434 0.5417 0.55424 0.0
C415 C 0.12995 0.56031 0.53855 0.0
C416 C 0.17511 0.47467 0.47588 0.0
C417 C 0.12828 0.5094 0.51199 0.0
C418 C 0.17908 0.44889 0.46485 0.0
C419 C 0.14018 0.43045 0.47654 0.0
C420 C 0.13211 0.48219 0.49905 0.0
C421 C 0.09738 0.43874 0.49939 0.0
C422 C 0.09327 0.51628 0.54097 0.0
C423 C 0.1623 0.5529 0.50849 0.0
N424 N 0.09466 0.464 0.51013 0.0
N425 N 0.16101 0.52803 0.49644 0.0
H426 H 0.51499 0.57456 0.9632 0.0
H427 H 0.67014 0.43735 0.98809 0.0
H428 H 0.67582 0.55975 0.91901 0.0
H429 H 0.52121 0.45762 0.04496 0.0
H430 H 0.66942 0.48046 0.95775 0.0
H431 H 0.51228 0.52986 0.98745 0.0
C432 C 0.54945 0.5618 0.95809 0.0
C433 C 0.59572 0.57097 0.93897 0.0
C434 C 0.6368 0.47538 0.97676 0.0
C435 C 0.59327 0.51972 0.96735 0.0
C436 C 0.63731 0.45081 0.99426 0.0
C437 C 0.59566 0.44371 0.01921 0.0
C438 C 0.5943 0.49303 0.98415 0.0
C439 C 0.55373 0.46192 0.02555 0.0
C440 C 0.54808 0.5363 0.97227 0.0
C441 C 0.63956 0.5536 0.9339 0.0
N442 N 0.55422 0.48567 1.00823 0.0
N443 N 0.63732 0.52884 0.94807 0.0
H444 H 0.70801 0.06614 0.49524 0.0
H445 H 0.56256 0.92623 0.5029 0.0
H446 H 0.57398 0.04777 0.56871 0.0
H447 H 0.71303 0.94271 0.44488 0.0
H448 H 0.55944 0.97178 0.52251 0.0
H449 H 0.70354 0.02205 0.47141 0.0
C450 C 0.67755 0.05285 0.50634 0.0
C451 C 0.64167 0.06065 0.53429 0.0
C452 C 0.5931 0.96537 0.5055 0.0
C453 C 0.63608 0.01004 0.50691 0.0
C454 C 0.59481 0.93944 0.49424 0.0
C455 C 0.63846 0.9306 0.47261 0.0
C456 C 0.63504 0.9826 0.49468 0.0
C457 C 0.67921 0.94852 0.46218 0.0
C458 C 0.67491 0.02767 0.49264 0.0
C459 C 0.60224 0.0427 0.54699 0.0
N460 N 0.67649 0.9736 0.4733 0.0
N461 N 0.60071 0.01818 0.53337 0.0
H462 H 0.08645 0.92142 0.96975 0.0
H463 H 0.06451 0.07425 1.00262 0.0
H464 H 0.11162 0.9586 0.07453 0.0
H465 H 0.10766 0.04607 0.89494 0.0
H466 H 0.06489 0.02971 0.0268 0.0
H467 H 0.08304 0.96491 0.93925 0.0
C468 C 0.09178 0.93862 0.98626 0.0
C469 C 0.09835 0.93636 0.0249 0.0
C470 C 0.07423 0.03312 0.99783 0.0
C471 C 0.09337 0.98578 0.99044 0.0
C472 C 0.0738 0.05856 0.98398 0.0
C473 C 0.08707 0.06387 0.94691 0.0
C474 C 0.08783 0.01256 0.97454 0.0
C475 C 0.09749 0.04274 0.92377 0.0
C476 C 0.0895 0.96336 0.96888 0.0
C477 C 0.10494 0.95931 0.04489 0.0
N478 N 0.09813 0.01786 0.93806 0.0
N479 N 0.10177 0.98292 0.02754 0.0
H480 H 0.30312 0.29384 0.54754 0.0
H481 H 0.57004 0.20479 0.53412 0.0
H482 H 0.35153 0.26327 0.44226 0.0
H483 H 0.46078 0.20478 0.6276 0.0
H484 H 0.50556 0.23391 0.50014 0.0
H485 H 0.37805 0.26998 0.5773 0.0
C486 C 0.32965 0.28213 0.53059 0.0
C487 C 0.32002 0.28 0.49244 0.0
C488 C 0.49612 0.22753 0.52813 0.0
C489 C 0.40688 0.25284 0.52654 0.0
C490 C 0.53282 0.21109 0.54755 0.0
C491 C 0.52052 0.20232 0.58367 0.0
C492 C 0.4478 0.2357 0.54546 0.0
C493 C 0.47171 0.2109 0.59975 0.0
C494 C 0.37255 0.26857 0.54764 0.0
C495 C 0.35723 0.26529 0.47177 0.0
N496 N 0.43743 0.22719 0.58066 0.0
N497 N 0.39892 0.25199 0.48916 0.0
H498 H 0.39199 0.69075 0.02296 0.0
H499 H 0.29782 0.83726 0.05926 0.0
H500 H 0.46878 0.75751 0.97087 0.0
H501 H 0.19422 0.7708 0.08175 0.0
H502 H 0.36513 0.80826 0.03138 0.0
H503 H 0.32297 0.71969 0.04933 0.0
C504 C 0.39424 0.7115 0.01707 0.0
C505 C 0.43607 0.72173 0.99464 0.0
C506 C 0.32759 0.80005 0.04234 0.0
C507 C 0.35759 0.75498 0.02484 0.0
C508 C 0.28923 0.81658 0.0584 0.0
C509 C 0.24026 0.80646 0.07287 0.0
C510 C 0.31729 0.77315 0.04114 0.0
C511 C 0.23133 0.77948 0.07087 0.0
C512 C 0.35476 0.72799 0.03196 0.0
C513 C 0.43687 0.74876 0.98762 0.0
N514 N 0.26958 0.76375 0.05548 0.0
N515 N 0.39847 0.76447 1.00288 0.0
H516 H 0.28133 0.70196 0.45735 0.0
H517 H 0.56064 0.77999 0.47287 0.0
H518 H 0.34606 0.72273 0.56425 0.0
H519 H 0.44463 0.79194 0.38363 0.0
H520 H 0.49404 0.75151 0.50455 0.0
H521 H 0.35354 0.72701 0.42776 0.0
C522 C 0.31037 0.71182 0.47482 0.0
C523 C 0.30625 0.71062 0.51363 0.0
C524 C 0.48348 0.76038 0.478 0.0
C525 C 0.39069 0.73893 0.47932 0.0
C526 C 0.52143 0.77652 0.45984 0.0
C527 C 0.50802 0.78848 0.42563 0.0
C528 C 0.43252 0.75571 0.46132 0.0
C529 C 0.45656 0.7833 0.41005 0.0
C530 C 0.35193 0.72605 0.45771 0.0
C531 C 0.34711 0.72312 0.53435 0.0
N532 N 0.42088 0.7672 0.42789 0.0
N533 N 0.3876 0.73684 0.51693 0.0
H534 H 0.1992 0.26081 0.91046 0.0
H535 H 0.40683 0.27933 0.0809 0.0
H536 H 0.21413 0.20704 1.00332 0.0
H537 H 0.42973 0.31646 0.97402 0.0
H538 H 0.32224 0.25954 0.05786 0.0
H539 H 0.27072 0.28809 0.93838 0.0
C540 C 0.21693 0.25499 0.93691 0.0
C541 C 0.20128 0.23157 0.95446 0.0
C542 C 0.34559 0.27221 0.03955 0.0
C543 C 0.28218 0.26252 0.98652 0.0
C544 C 0.39361 0.2836 0.05278 0.0
C545 C 0.42566 0.29923 0.02919 0.0
C546 C 0.3292 0.27674 1.0026 0.0
C547 C 0.40676 0.30408 0.99288 0.0
C548 C 0.25778 0.27043 0.95272 0.0
C549 C 0.22555 0.22481 0.98864 0.0
N550 N 0.35991 0.29279 0.98062 0.0
N551 N 0.26476 0.24014 1.00349 0.0
H552 H 0.95193 0.70029 0.63692 0.0
H553 H 0.8432 0.76318 0.44823 0.0
H554 H 0.0571 0.70634 0.54147 0.0
H555 H 0.78298 0.78506 0.55547 0.0
H556 H 0.91857 0.73938 0.47916 0.0
H557 H 0.88435 0.72771 0.60475 0.0
C558 C 0.96079 0.70738 0.60914 0.0
C559 C 1.01015 0.70099 0.59182 0.0
C560 C 0.88882 0.74957 0.49571 0.0
C561 C 0.93269 0.73226 0.55468 0.0
C562 C 0.84587 0.76322 0.47812 0.0
C563 C 0.80577 0.77581 0.49919 0.0
C564 C 0.89119 0.7483 0.53456 0.0
C565 C 0.81156 0.77506 0.53793 0.0
C566 C 0.92232 0.72314 0.59086 0.0
C567 C 0.01959 0.71088 0.55585 0.0
N568 N 0.85293 0.76133 0.55427 0.0
N569 N 0.98091 0.72586 0.53825 0.0
H570 H 0.69 0.27538 0.07161 0.0
H571 H 0.98343 0.26002 0.97641 0.0
H572 H 0.81177 0.33622 0.06973 0.0
H573 H 0.89466 0.19451 0.02224 0.0
H574 H 0.91121 0.28927 0.9983 0.0
H575 H 0.75577 0.24635 0.0414 0.0
C576 C 0.73029 0.28269 0.06453 0.0
C577 C 0.74569 0.30813 0.07349 0.0
C578 C 0.90747 0.26847 1.00336 0.0
C579 C 0.82042 0.27531 0.03871 0.0
C580 C 0.94843 0.25182 0.99073 0.0
C581 C 0.94513 0.22491 0.99787 0.0
C582 C 0.86247 0.25804 0.02268 0.0
C583 C 0.89906 0.21522 0.01672 0.0
C584 C 0.76777 0.26612 0.04748 0.0
C585 C 0.79841 0.31663 0.06373 0.0
N586 N 0.85944 0.23177 0.02846 0.0
N587 N 0.83382 0.30029 0.04683 0.0
H588 H 0.0711 0.25689 0.43535 0.0
H589 H 0.80666 0.24778 0.56392 0.0
H590 H 0.95197 0.31898 0.44101 0.0
H591 H 0.86134 0.18194 0.50195 0.0
H592 H 0.87852 0.27462 0.53434 0.0
H593 H 1.01114 0.22932 0.47435 0.0
C594 C 0.03253 0.26472 0.44492 0.0
C595 C 0.01598 0.29006 0.43455 0.0
C596 C 0.87537 0.25415 0.52783 0.0
C597 C 0.94872 0.25918 0.47985 0.0
C598 C 0.83495 0.23891 0.54488 0.0
C599 C 0.82875 0.21279 0.53528 0.0
C600 C 0.9102 0.24293 0.50166 0.0
C601 C 0.86541 0.20207 0.50996 0.0
C602 C 0.99855 0.24905 0.4671 0.0
C603 C 0.96581 0.29939 0.44788 0.0
N604 N 0.90474 0.21718 0.49395 0.0
N605 N 0.93408 0.28401 0.47 0.0
H606 H 0.68468 0.76887 0.91595 0.0
H607 H 0.88322 0.78919 0.0898 0.0
H608 H 0.69263 0.71619 0.01039 0.0
H609 H 0.92335 0.81408 0.97866 0.0
H610 H 0.79423 0.77352 0.06726 0.0
H611 H 0.75366 0.79656 0.94548 0.0
C612 C 0.69996 0.76352 0.94326 0.0
C613 C 0.68364 0.74018 0.96071 0.0
C614 C 0.82218 0.78288 0.048 0.0
C615 C 0.76152 0.77159 0.99449 0.0
C616 C 0.87259 0.79191 0.06086 0.0
C617 C 0.91052 0.80259 0.03587 0.0
C618 C 0.80959 0.785 0.01007 0.0
C619 C 0.89525 0.80558 0.99857 0.0
C620 C 0.73937 0.77919 0.95995 0.0
C621 C 0.70479 0.73394 0.99593 0.0
N622 N 0.84603 0.79667 0.98669 0.0
N623 N 0.7429 0.74949 0.01163 0.0
loop_
_geom_bond_atom_site_label_1
_geom_bond_atom_site_label_2
_geom_bond_distance
_geom_bond_site_symmetry_2
_ccdc_geom_bond_type
Co0 N4 2.148 . S
Co0 N10 2.128 . S
Co0 N20 2.194 . S
Co0 O25 2.351 . S
Co0 O26 2.155 . S
Co0 O27 2.096 . S
C1 N4 1.301 . S
C1 N5 1.328 . S
C1 H6 0.930 . S
C2 C3 1.333 . S
C2 N4 1.317 . S
C2 H7 0.930 . S
C3 C2 1.333 . S
C3 N5 1.350 . S
C3 H29 0.931 . S
N4 Co0 2.148 . S
N4 C1 1.301 . S
N4 C2 1.317 . S
N5 C1 1.328 . S
N5 C3 1.350 . S
H6 C1 0.930 . S
H7 C2 0.930 . S
C8 O9 1.224 . S
C8 O27 1.247 . S
O9 C8 1.224 . S
N10 Co0 2.128 . S
N10 C11 1.355 . S
N10 C13 1.311 . S
C11 N10 1.355 . S
C11 C12 1.363 . S
C11 H23 0.929 . S
C12 C11 1.363 . S
C12 N14 1.375 . S
C12 H30 0.931 . S
C13 N10 1.311 . S
C13 N14 1.347 . S
C13 H24 0.929 . S
N14 C12 1.375 . S
N14 C13 1.347 . S
C15 C18 1.365 . S
C15 N20 1.328 . S
C15 H21 0.929 . S
C16 C17 1.362 . S
C16 C19 1.378 . S
C16 H31 0.929 . S
C17 C16 1.362 . S
C17 C18 1.366 . S
C18 C15 1.365 . S
C18 C17 1.366 . S
C18 H32 0.930 . S
C19 C16 1.378 . S
C19 N20 1.315 . S
C19 H22 0.930 . S
N20 Co0 2.194 . S
N20 C15 1.328 . S
N20 C19 1.315 . S
H21 C15 0.929 . S
H22 C19 0.930 . S
H23 C11 0.929 . S
H24 C13 0.929 . S
O25 Co0 2.351 . S
O25 C28 1.244 . S
O26 Co0 2.155 . S
O26 C28 1.240 . S
O27 Co0 2.096 . S
O27 C8 1.247 . S
C28 O25 1.244 . S
C28 O26 1.240 . S
H29 C3 0.931 . S
H30 C12 0.931 . S
H31 C16 0.929 . S
H32 C18 0.930 . S
Co33 N37 2.148 . S
Co33 N43 2.128 . S
Co33 N53 2.194 . S
Co33 O58 2.351 . S
Co33 O59 2.155 . S
Co33 O60 2.096 . S
C34 N37 1.301 . S
C34 N38 1.328 . S
C34 H39 0.930 . S
C35 C36 1.333 . S
C35 N37 1.317 . S
C35 H40 0.930 . S
C36 C35 1.333 . S
C36 N38 1.350 . S
C36 H62 0.931 . S
N37 Co33 2.148 . S
N37 C34 1.301 . S
N37 C35 1.317 . S
N38 C34 1.328 . S
N38 C36 1.350 . S
H39 C34 0.930 . S
H40 C35 0.930 . S
C41 O42 1.224 . S
C41 O60 1.247 . S
O42 C41 1.224 . S
N43 Co33 2.128 . S
N43 C44 1.355 . S
N43 C46 1.311 . S
C44 N43 1.355 . S
C44 C45 1.363 . S
C44 H56 0.929 . S
C45 C44 1.363 . S
C45 N47 1.375 . S
C45 H63 0.931 1_556 S
C46 N43 1.311 . S
C46 N47 1.347 . S
C46 H57 0.929 . S
N47 C45 1.375 . S
N47 C46 1.347 . S
C48 C51 1.365 . S
C48 N53 1.328 . S
C48 H54 0.929 . S
C49 C50 1.362 . S
C49 C52 1.378 . S
C49 H64 0.929 . S
C50 C49 1.362 . S
C50 C51 1.366 . S
C51 C48 1.365 . S
C51 C50 1.366 . S
C51 H65 0.930 . S
C52 C49 1.378 . S
C52 N53 1.315 . S
C52 H55 0.930 . S
N53 Co33 2.194 . S
N53 C48 1.328 . S
N53 C52 1.315 . S
H54 C48 0.929 . S
H55 C52 0.930 . S
H56 C44 0.929 . S
H57 C46 0.929 . S
O58 Co33 2.351 . S
O58 C61 1.244 . S
O59 Co33 2.155 . S
O59 C61 1.240 . S
O60 Co33 2.096 . S
O60 C41 1.247 . S
C61 O58 1.244 . S
C61 O59 1.240 . S
H62 C36 0.931 . S
H63 C45 0.931 1_554 S
H64 C49 0.929 . S
H65 C51 0.930 . S
Co66 N70 2.148 . S
Co66 N76 2.128 . S
Co66 N86 2.194 . S
Co66 O91 2.351 . S
Co66 O92 2.155 . S
Co66 O93 2.096 . S
C67 N70 1.301 . S
C67 N71 1.328 . S
C67 H72 0.930 . S
C68 C69 1.333 . S
C68 N70 1.317 . S
C68 H73 0.930 . S
C69 C68 1.333 . S
C69 N71 1.350 . S
C69 H95 0.931 . S
N70 Co66 2.148 . S
N70 C67 1.301 . S
N70 C68 1.317 . S
N71 C67 1.328 . S
N71 C69 1.350 . S
H72 C67 0.930 . S
H73 C68 0.930 . S
C74 O75 1.224 . S
C74 O93 1.247 . S
O75 C74 1.224 . S
N76 Co66 2.128 . S
N76 C77 1.355 . S
N76 C79 1.311 . S
C77 N76 1.355 . S
C77 C78 1.363 . S
C77 H89 0.929 . S
C78 C77 1.363 . S
C78 N80 1.375 . S
C78 H96 0.931 . S
C79 N76 1.311 . S
C79 N80 1.347 . S
C79 H90 0.929 . S
N80 C78 1.375 . S
N80 C79 1.347 . S
C81 C84 1.365 . S
C81 N86 1.328 . S
C81 H87 0.929 . S
C82 C83 1.362 . S
C82 C85 1.378 . S
C82 H97 0.929 . S
C83 C82 1.362 . S
C83 C84 1.366 . S
C84 C81 1.365 . S
C84 C83 1.366 . S
C84 H98 0.930 . S
C85 C82 1.378 . S
C85 N86 1.315 . S
C85 H88 0.930 . S
N86 Co66 2.194 . S
N86 C81 1.328 . S
N86 C85 1.315 . S
H87 C81 0.929 . S
H88 C85 0.930 . S
H89 C77 0.929 . S
H90 C79 0.929 . S
O91 Co66 2.351 . S
O91 C94 1.244 . S
O92 Co66 2.155 . S
O92 C94 1.240 . S
O93 Co66 2.096 . S
O93 C74 1.247 . S
C94 O91 1.244 . S
C94 O92 1.240 . S
H95 C69 0.931 . S
H96 C78 0.931 . S
H97 C82 0.929 . S
H98 C84 0.930 . S
Co99 N103 2.148 . S
Co99 N109 2.128 . S
Co99 N119 2.194 . S
Co99 O124 2.351 . S
Co99 O125 2.155 . S
Co99 O126 2.096 . S
C100 N103 1.301 . S
C100 N104 1.328 . S
C100 H105 0.930 . S
C101 C102 1.333 . S
C101 N103 1.317 . S
C101 H106 0.930 . S
C102 C101 1.333 . S
C102 N104 1.350 . S
C102 H128 0.931 . S
N103 Co99 2.148 . S
N103 C100 1.301 . S
N103 C101 1.317 . S
N104 C100 1.328 . S
N104 C102 1.350 . S
H105 C100 0.930 . S
H106 C101 0.930 . S
C107 O108 1.224 . S
C107 O126 1.247 . S
O108 C107 1.224 . S
N109 Co99 2.128 . S
N109 C110 1.355 . S
N109 C112 1.311 . S
C110 N109 1.355 . S
C110 C111 1.363 . S
C110 H122 0.929 . S
C111 C110 1.363 . S
C111 N113 1.375 . S
C111 H129 0.931 . S
C112 N109 1.311 . S
C112 N113 1.347 . S
C112 H123 0.929 . S
N113 C111 1.375 . S
N113 C112 1.347 . S
C114 C117 1.365 . S
C114 N119 1.328 . S
C114 H120 0.929 . S
C115 C116 1.362 . S
C115 C118 1.378 . S
C115 H130 0.929 . S
C116 C115 1.362 . S
C116 C117 1.366 . S
C117 C114 1.365 . S
C117 C116 1.366 . S
C117 H131 0.930 . S
C118 C115 1.378 . S
C118 N119 1.315 . S
C118 H121 0.930 . S
N119 Co99 2.194 . S
N119 C114 1.328 . S
N119 C118 1.315 . S
H120 C114 0.929 . S
H121 C118 0.930 . S
H122 C110 0.929 . S
H123 C112 0.929 . S
O124 Co99 2.351 . S
O124 C127 1.244 . S
O125 Co99 2.155 . S
O125 C127 1.240 . S
O126 Co99 2.096 . S
O126 C107 1.247 . S
C127 O124 1.244 . S
C127 O125 1.240 . S
H128 C102 0.931 . S
H129 C111 0.931 . S
H130 C115 0.929 . S
H131 C117 0.930 . S
Co132 N136 2.148 . S
Co132 N142 2.128 . S
Co132 N152 2.194 . S
Co132 O157 2.351 . S
Co132 O158 2.155 . S
Co132 O159 2.096 . S
C133 N136 1.301 . S
C133 N137 1.328 . S
C133 H138 0.930 . S
C134 C135 1.333 . S
C134 N136 1.317 . S
C134 H139 0.930 . S
C135 C134 1.333 . S
C135 N137 1.350 . S
C135 H161 0.931 . S
N136 Co132 2.148 . S
N136 C133 1.301 . S
N136 C134 1.317 . S
N137 C133 1.328 . S
N137 C135 1.350 . S
H138 C133 0.930 . S
H139 C134 0.930 . S
C140 O141 1.224 . S
C140 O159 1.247 . S
O141 C140 1.224 . S
N142 Co132 2.128 . S
N142 C143 1.355 . S
N142 C145 1.311 . S
C143 N142 1.355 . S
C143 C144 1.363 . S
C143 H155 0.929 . S
C144 C143 1.363 . S
C144 N146 1.375 . S
C144 H162 0.931 . S
C145 N142 1.311 . S
C145 N146 1.347 . S
C145 H156 0.929 . S
N146 C144 1.375 . S
N146 C145 1.347 . S
C147 C150 1.365 . S
C147 N152 1.328 . S
C147 H153 0.929 . S
C148 C149 1.362 . S
C148 C151 1.378 . S
C148 H163 0.929 . S
C149 C148 1.362 . S
C149 C150 1.366 . S
C150 C147 1.365 . S
C150 C149 1.366 . S
C150 H164 0.930 . S
C151 C148 1.378 . S
C151 N152 1.315 . S
C151 H154 0.930 . S
N152 Co132 2.194 . S
N152 C147 1.328 . S
N152 C151 1.315 . S
H153 C147 0.929 . S
H154 C151 0.930 . S
H155 C143 0.929 . S
H156 C145 0.929 . S
O157 Co132 2.351 . S
O157 C160 1.244 . S
O158 Co132 2.155 . S
O158 C160 1.240 . S
O159 Co132 2.096 . S
O159 C140 1.247 . S
C160 O157 1.244 . S
C160 O158 1.240 . S
H161 C135 0.931 . S
H162 C144 0.931 . S
H163 C148 0.929 . S
H164 C150 0.930 . S
Co165 N169 2.148 . S
Co165 N175 2.128 . S
Co165 N185 2.194 . S
Co165 O190 2.351 . S
Co165 O191 2.155 . S
Co165 O192 2.096 . S
C166 N169 1.301 . S
C166 N170 1.328 . S
C166 H171 0.930 . S
C167 C168 1.333 . S
C167 N169 1.317 . S
C167 H172 0.930 . S
C168 C167 1.333 . S
C168 N170 1.350 . S
C168 H194 0.931 . S
N169 Co165 2.148 . S
N169 C166 1.301 . S
N169 C167 1.317 . S
N170 C166 1.328 . S
N170 C168 1.350 . S
H171 C166 0.930 . S
H172 C167 0.930 . S
C173 O174 1.224 . S
C173 O192 1.247 1_655 S
O174 C173 1.224 . S
N175 Co165 2.128 . S
N175 C176 1.355 . S
N175 C178 1.311 1_455 S
C176 N175 1.355 . S
C176 C177 1.363 1_455 S
C176 H188 0.929 . S
C177 C176 1.363 1_655 S
C177 N179 1.375 . S
C177 H195 0.931 1_556 S
C178 N175 1.311 1_655 S
C178 N179 1.347 . S
C178 H189 0.929 . S
N179 C177 1.375 . S
N179 C178 1.347 . S
C180 C183 1.365 . S
C180 N185 1.328 . S
C180 H186 0.929 . S
C181 C182 1.362 . S
C181 C184 1.378 . S
C181 H196 0.929 . S
C182 C181 1.362 . S
C182 C183 1.366 . S
C183 C180 1.365 . S
C183 C182 1.366 . S
C183 H197 0.930 . S
C184 C181 1.378 . S
C184 N185 1.315 . S
C184 H187 0.930 . S
N185 Co165 2.194 . S
N185 C180 1.328 . S
N185 C184 1.315 . S
H186 C180 0.929 . S
H187 C184 0.930 . S
H188 C176 0.929 . S
H189 C178 0.929 . S
O190 Co165 2.351 . S
O190 C193 1.244 . S
O191 Co165 2.155 . S
O191 C193 1.240 . S
O192 Co165 2.096 . S
O192 C173 1.247 1_455 S
C193 O190 1.244 . S
C193 O191 1.240 . S
H194 C168 0.931 . S
H195 C177 0.931 1_554 S
H196 C181 0.929 . S
H197 C183 0.930 . S
Co198 N202 2.148 . S
Co198 N208 2.128 . S
Co198 N218 2.194 . S
Co198 O223 2.351 . S
Co198 O224 2.155 . S
Co198 O225 2.096 . S
C199 N202 1.301 . S
C199 N203 1.328 . S
C199 H204 0.930 . S
C200 C201 1.333 . S
C200 N202 1.317 . S
C200 H205 0.930 . S
C201 C200 1.333 . S
C201 N203 1.350 . S
C201 H227 0.931 . S
N202 Co198 2.148 . S
N202 C199 1.301 . S
N202 C200 1.317 . S
N203 C199 1.328 . S
N203 C201 1.350 . S
H204 C199 0.930 . S
H205 C200 0.930 . S
C206 O207 1.224 . S
C206 O225 1.247 . S
O207 C206 1.224 . S
N208 Co198 2.128 . S
N208 C209 1.355 . S
N208 C211 1.311 . S
C209 N208 1.355 . S
C209 C210 1.363 . S
C209 H221 0.929 . S
C210 C209 1.363 . S
C210 N212 1.375 . S
C210 H228 0.931 . S
C211 N208 1.311 . S
C211 N212 1.347 . S
C211 H222 0.929 . S
N212 C210 1.375 . S
N212 C211 1.347 . S
C213 C216 1.365 . S
C213 N218 1.328 . S
C213 H219 0.929 . S
C214 C215 1.362 . S
C214 C217 1.378 . S
C214 H229 0.929 . S
C215 C214 1.362 . S
C215 C216 1.366 . S
C216 C213 1.365 . S
C216 C215 1.366 . S
C216 H230 0.930 . S
C217 C214 1.378 . S
C217 N218 1.315 . S
C217 H220 0.930 . S
N218 Co198 2.194 . S
N218 C213 1.328 . S
N218 C217 1.315 . S
H219 C213 0.929 . S
H220 C217 0.930 . S
H221 C209 0.929 . S
H222 C211 0.929 . S
O223 Co198 2.351 . S
O223 C226 1.244 . S
O224 Co198 2.155 . S
O224 C226 1.240 . S
O225 Co198 2.096 . S
O225 C206 1.247 . S
C226 O223 1.244 . S
C226 O224 1.240 . S
H227 C201 0.931 . S
H228 C210 0.931 . S
H229 C214 0.929 . S
H230 C216 0.930 . S
Co231 N235 2.148 . S
Co231 N241 2.128 . S
Co231 N251 2.194 . S
Co231 O256 2.351 1_455 S
Co231 O257 2.155 . S
Co231 O258 2.096 . S
C232 N235 1.301 1_655 S
C232 N236 1.328 . S
C232 H237 0.930 . S
C233 C234 1.333 1_455 S
C233 N235 1.317 . S
C233 H238 0.930 . S
C234 C233 1.333 1_655 S
C234 N236 1.350 . S
C234 H260 0.931 . S
N235 Co231 2.148 . S
N235 C232 1.301 1_455 S
N235 C233 1.317 . S
N236 C232 1.328 . S
N236 C234 1.350 . S
H237 C232 0.930 . S
H238 C233 0.930 . S
C239 O240 1.224 . S
C239 O258 1.247 . S
O240 C239 1.224 . S
N241 Co231 2.128 . S
N241 C242 1.355 . S
N241 C244 1.311 . S
C242 N241 1.355 . S
C242 C243 1.363 . S
C242 H254 0.929 . S
C243 C242 1.363 . S
C243 N245 1.375 . S
C243 H261 0.931 . S
C244 N241 1.311 . S
C244 N245 1.347 . S
C244 H255 0.929 . S
N245 C243 1.375 . S
N245 C244 1.347 . S
C246 C249 1.365 . S
C246 N251 1.328 . S
C246 H252 0.929 1_455 S
C247 C248 1.362 . S
C247 C250 1.378 . S
C247 H262 0.929 . S
C248 C247 1.362 . S
C248 C249 1.366 . S
C249 C246 1.365 . S
C249 C248 1.366 . S
C249 H263 0.930 1_455 S
C250 C247 1.378 . S
C250 N251 1.315 . S
C250 H253 0.930 . S
N251 Co231 2.194 . S
N251 C246 1.328 . S
N251 C250 1.315 . S
H252 C246 0.929 1_655 S
H253 C250 0.930 . S
H254 C242 0.929 . S
H255 C244 0.929 . S
O256 Co231 2.351 1_655 S
O256 C259 1.244 . S
O257 Co231 2.155 . S
O257 C259 1.240 1_455 S
O258 Co231 2.096 . S
O258 C239 1.247 . S
C259 O256 1.244 . S
C259 O257 1.240 1_655 S
H260 C234 0.931 . S
H261 C243 0.931 . S
H262 C247 0.929 . S
H263 C249 0.930 1_655 S
H264 C270 0.930 . S
H265 C274 0.930 . S
H266 C279 0.929 . S
H267 C277 0.929 . S
H268 C272 0.929 . S
H269 C278 0.929 . S
C270 H264 0.930 . S
C270 C271 1.367 . S
C270 C278 1.378 . S
C271 C270 1.367 . S
C271 C279 1.433 . S
C272 H268 0.929 . S
C272 C274 1.378 . S
C272 C276 1.350 . S
C273 C276 1.463 . S
C273 C278 1.350 . S
C273 N281 1.427 . S
C274 H265 0.930 . S
C274 C272 1.378 . S
C274 C275 1.367 . S
C275 C274 1.367 . S
C275 C277 1.433 . S
C276 C272 1.350 . S
C276 C273 1.463 . S
C276 N280 1.427 . S
C277 H267 0.929 . S
C277 C275 1.433 . S
C277 N280 1.384 . S
C278 H269 0.929 . S
C278 C270 1.378 . S
C278 C273 1.350 . S
C279 H266 0.929 . S
C279 C271 1.433 . S
C279 N281 1.384 . S
N280 C276 1.427 . S
N280 C277 1.384 . S
N281 C273 1.427 . S
N281 C279 1.384 . S
H282 C288 0.930 . S
H283 C292 0.930 . S
H284 C297 0.929 . S
H285 C295 0.929 . S
H286 C290 0.929 . S
H287 C296 0.929 . S
C288 H282 0.930 . S
C288 C289 1.367 . S
C288 C296 1.378 . S
C289 C288 1.367 . S
C289 C297 1.433 . S
C290 H286 0.929 . S
C290 C292 1.378 . S
C290 C294 1.350 . S
C291 C294 1.463 . S
C291 C296 1.350 . S
C291 N299 1.427 . S
C292 H283 0.930 . S
C292 C290 1.378 . S
C292 C293 1.367 . S
C293 C292 1.367 . S
C293 C295 1.433 . S
C294 C290 1.350 . S
C294 C291 1.463 . S
C294 N298 1.427 . S
C295 H285 0.929 . S
C295 C293 1.433 . S
C295 N298 1.384 . S
C296 H287 0.929 . S
C296 C288 1.378 . S
C296 C291 1.350 . S
C297 H284 0.929 . S
C297 C289 1.433 . S
C297 N299 1.384 . S
N298 C294 1.427 . S
N298 C295 1.384 . S
N299 C291 1.427 . S
N299 C297 1.384 . S
H300 C306 0.930 . S
H301 C310 0.930 . S
H302 C315 0.929 . S
H303 C313 0.929 . S
H304 C308 0.929 . S
H305 C314 0.929 . S
C306 H300 0.930 . S
C306 C307 1.367 . S
C306 C314 1.378 . S
C307 C306 1.367 . S
C307 C315 1.433 . S
C308 H304 0.929 . S
C308 C310 1.378 . S
C308 C312 1.350 . S
C309 C312 1.463 . S
C309 C314 1.350 . S
C309 N317 1.427 . S
C310 H301 0.930 . S
C310 C308 1.378 . S
C310 C311 1.367 . S
C311 C310 1.367 . S
C311 C313 1.433 . S
C312 C308 1.350 . S
C312 C309 1.463 . S
C312 N316 1.427 . S
C313 H303 0.929 . S
C313 C311 1.433 . S
C313 N316 1.384 . S
C314 H305 0.929 . S
C314 C306 1.378 . S
C314 C309 1.350 . S
C315 H302 0.929 . S
C315 C307 1.433 . S
C315 N317 1.384 . S
N316 C312 1.427 . S
N316 C313 1.384 . S
N317 C309 1.427 . S
N317 C315 1.384 . S
H318 C324 0.930 . S
H319 C328 0.930 . S
H320 C333 0.929 . S
H321 C331 0.929 . S
H322 C326 0.929 . S
H323 C332 0.929 . S
C324 H318 0.930 . S
C324 C325 1.367 . S
C324 C332 1.378 . S
C325 C324 1.367 . S
C325 C333 1.433 . S
C326 H322 0.929 . S
C326 C328 1.378 . S
C326 C330 1.350 . S
C327 C330 1.463 . S
C327 C332 1.350 . S
C327 N335 1.427 . S
C328 H319 0.930 . S
C328 C326 1.378 . S
C328 C329 1.367 . S
C329 C328 1.367 . S
C329 C331 1.433 . S
C330 C326 1.350 . S
C330 C327 1.463 . S
C330 N334 1.427 . S
C331 H321 0.929 . S
C331 C329 1.433 . S
C331 N334 1.384 . S
C332 H323 0.929 . S
C332 C324 1.378 . S
C332 C327 1.350 . S
C333 H320 0.929 . S
C333 C325 1.433 . S
C333 N335 1.384 . S
N334 C330 1.427 . S
N334 C331 1.384 . S
N335 C327 1.427 . S
N335 C333 1.384 . S
H336 C342 0.930 . S
H337 C346 0.930 . S
H338 C351 0.929 . S
H339 C349 0.929 . S
H340 C344 0.929 . S
H341 C350 0.929 . S
C342 H336 0.930 . S
C342 C343 1.367 . S
C342 C350 1.378 . S
C343 C342 1.367 . S
C343 C351 1.433 . S
C344 H340 0.929 . S
C344 C346 1.378 . S
C344 C348 1.350 . S
C345 C348 1.463 . S
C345 C350 1.350 . S
C345 N353 1.427 . S
C346 H337 0.930 . S
C346 C344 1.378 . S
C346 C347 1.367 . S
C347 C346 1.367 . S
C347 C349 1.433 . S
C348 C344 1.350 . S
C348 C345 1.463 . S
C348 N352 1.427 . S
C349 H339 0.929 . S
C349 C347 1.433 . S
C349 N352 1.384 . S
C350 H341 0.929 . S
C350 C342 1.378 . S
C350 C345 1.350 . S
C351 H338 0.929 . S
C351 C343 1.433 . S
C351 N353 1.384 . S
N352 C348 1.427 . S
N352 C349 1.384 . S
N353 C345 1.427 . S
N353 C351 1.384 . S
H354 C360 0.930 . S
H355 C364 0.930 . S
H356 C369 0.929 . S
H357 C367 0.929 . S
H358 C362 0.929 . S
H359 C368 0.929 . S
C360 H354 0.930 . S
C360 C361 1.367 . S
C360 C368 1.378 . S
C361 C360 1.367 . S
C361 C369 1.433 . S
C362 H358 0.929 . S
C362 C364 1.378 . S
C362 C366 1.350 . S
C363 C366 1.463 . S
C363 C368 1.350 . S
C363 N371 1.427 . S
C364 H355 0.930 . S
C364 C362 1.378 . S
C364 C365 1.367 . S
C365 C364 1.367 . S
C365 C367 1.433 . S
C366 C362 1.350 . S
C366 C363 1.463 . S
C366 N370 1.427 . S
C367 H357 0.929 . S
C367 C365 1.433 . S
C367 N370 1.384 . S
C368 H359 0.929 . S
C368 C360 1.378 . S
C368 C363 1.350 . S
C369 H356 0.929 . S
C369 C361 1.433 . S
C369 N371 1.384 . S
N370 C366 1.427 . S
N370 C367 1.384 . S
N371 C363 1.427 . S
N371 C369 1.384 . S
H372 C378 0.930 . S
H373 C382 0.930 . S
H374 C387 0.929 . S
H375 C385 0.929 . S
H376 C380 0.929 . S
H377 C386 0.929 . S
C378 H372 0.930 . S
C378 C379 1.367 . S
C378 C386 1.378 . S
C379 C378 1.367 . S
C379 C387 1.433 . S
C380 H376 0.929 . S
C380 C382 1.378 . S
C380 C384 1.350 . S
C381 C384 1.463 . S
C381 C386 1.350 . S
C381 N389 1.427 . S
C382 H373 0.930 . S
C382 C380 1.378 . S
C382 C383 1.367 . S
C383 C382 1.367 . S
C383 C385 1.433 . S
C384 C380 1.350 . S
C384 C381 1.463 . S
C384 N388 1.427 . S
C385 H375 0.929 . S
C385 C383 1.433 . S
C385 N388 1.384 . S
C386 H377 0.929 . S
C386 C378 1.378 . S
C386 C381 1.350 . S
C387 H374 0.929 . S
C387 C379 1.433 . S
C387 N389 1.384 . S
N388 C384 1.427 . S
N388 C385 1.384 . S
N389 C381 1.427 . S
N389 C387 1.384 . S
H390 C396 0.930 . S
H391 C400 0.930 . S
H392 C405 0.929 . S
H393 C403 0.929 . S
H394 C398 0.929 . S
H395 C404 0.929 . S
C396 H390 0.930 . S
C396 C397 1.367 . S
C396 C404 1.378 . S
C397 C396 1.367 . S
C397 C405 1.433 . S
C398 H394 0.929 . S
C398 C400 1.378 . S
C398 C402 1.350 . S
C399 C402 1.463 . S
C399 C404 1.350 . S
C399 N407 1.427 . S
C400 H391 0.930 . S
C400 C398 1.378 . S
C400 C401 1.367 . S
C401 C400 1.367 . S
C401 C403 1.433 . S
C402 C398 1.350 . S
C402 C399 1.463 . S
C402 N406 1.427 . S
C403 H393 0.929 . S
C403 C401 1.433 . S
C403 N406 1.384 . S
C404 H395 0.929 . S
C404 C396 1.378 . S
C404 C399 1.350 . S
C405 H392 0.929 . S
C405 C397 1.433 . S
C405 N407 1.384 . S
N406 C402 1.427 . S
N406 C403 1.384 . S
N407 C399 1.427 . S
N407 C405 1.384 . S
H408 C414 0.930 . S
H409 C418 0.930 . S
H410 C423 0.929 . S
H411 C421 0.929 . S
H412 C416 0.929 . S
H413 C422 0.929 . S
C414 H408 0.930 . S
C414 C415 1.367 . S
C414 C422 1.378 . S
C415 C414 1.367 . S
C415 C423 1.433 . S
C416 H412 0.929 . S
C416 C418 1.378 . S
C416 C420 1.350 . S
C417 C420 1.463 . S
C417 C422 1.350 . S
C417 N425 1.427 . S
C418 H409 0.930 . S
C418 C416 1.378 . S
C418 C419 1.367 . S
C419 C418 1.367 . S
C419 C421 1.433 . S
C420 C416 1.350 . S
C420 C417 1.463 . S
C420 N424 1.427 . S
C421 H411 0.929 . S
C421 C419 1.433 . S
C421 N424 1.384 . S
C422 H413 0.929 . S
C422 C414 1.378 . S
C422 C417 1.350 . S
C423 H410 0.929 . S
C423 C415 1.433 . S
C423 N425 1.384 . S
N424 C420 1.427 . S
N424 C421 1.384 . S
N425 C417 1.427 . S
N425 C423 1.384 . S
H426 C432 0.930 1_554 S
H427 C436 0.930 . S
H428 C441 0.929 . S
H429 C439 0.929 . S
H430 C434 0.929 . S
H431 C440 0.929 . S
C432 H426 0.930 1_556 S
C432 C433 1.367 . S
C432 C440 1.378 1_556 S
C433 C432 1.367 . S
C433 C441 1.433 . S
C434 H430 0.929 . S
C434 C436 1.378 . S
C434 C438 1.350 1_556 S
C435 C438 1.463 1_556 S
C435 C440 1.350 1_556 S
C435 N443 1.427 . S
C436 H427 0.930 . S
C436 C434 1.378 . S
C436 C437 1.367 1_556 S
C437 C436 1.367 1_554 S
C437 C439 1.433 . S
C438 C434 1.350 1_554 S
C438 C435 1.463 1_554 S
C438 N442 1.427 . S
C439 H429 0.929 . S
C439 C437 1.433 . S
C439 N442 1.384 . S
C440 H431 0.929 . S
C440 C432 1.378 1_554 S
C440 C435 1.350 1_554 S
C441 H428 0.929 . S
C441 C433 1.433 . S
C441 N443 1.384 . S
N442 C438 1.427 . S
N442 C439 1.384 . S
N443 C435 1.427 . S
N443 C441 1.384 . S
H444 C450 0.930 . S
H445 C454 0.930 . S
H446 C459 0.929 . S
H447 C457 0.929 . S
H448 C452 0.929 . S
H449 C458 0.929 . S
C450 H444 0.930 . S
C450 C451 1.367 . S
C450 C458 1.378 . S
C451 C450 1.367 . S
C451 C459 1.433 . S
C452 H448 0.929 . S
C452 C454 1.378 . S
C452 C456 1.350 . S
C453 C456 1.463 1_545 S
C453 C458 1.350 . S
C453 N461 1.427 . S
C454 H445 0.930 . S
C454 C452 1.378 . S
C454 C455 1.367 . S
C455 C454 1.367 . S
C455 C457 1.433 . S
C456 C452 1.350 . S
C456 C453 1.463 1_565 S
C456 N460 1.427 . S
C457 H447 0.929 . S
C457 C455 1.433 . S
C457 N460 1.384 . S
C458 H449 0.929 . S
C458 C450 1.378 . S
C458 C453 1.350 . S
C459 H446 0.929 . S
C459 C451 1.433 . S
C459 N461 1.384 . S
N460 C456 1.427 . S
N460 C457 1.384 . S
N461 C453 1.427 . S
N461 C459 1.384 . S
H462 C468 0.930 . S
H463 C472 0.930 . S
H464 C477 0.929 . S
H465 C475 0.929 . S
H466 C470 0.929 . S
H467 C476 0.929 . S
C468 H462 0.930 . S
C468 C469 1.367 1_556 S
C468 C476 1.378 . S
C469 C468 1.367 1_554 S
C469 C477 1.433 . S
C470 H466 0.929 . S
C470 C472 1.378 . S
C470 C474 1.350 1_554 S
C471 C474 1.463 1_564 S
C471 C476 1.350 1_554 S
C471 N479 1.427 . S
C472 H463 0.930 . S
C472 C470 1.378 . S
C472 C473 1.367 1_554 S
C473 C472 1.367 1_556 S
C473 C475 1.433 . S
C474 C470 1.350 1_556 S
C474 C471 1.463 1_546 S
C474 N478 1.427 . S
C475 H465 0.929 . S
C475 C473 1.433 . S
C475 N478 1.384 . S
C476 H467 0.929 . S
C476 C468 1.378 . S
C476 C471 1.350 1_556 S
C477 H464 0.929 . S
C477 C469 1.433 . S
C477 N479 1.384 . S
N478 C474 1.427 . S
N478 C475 1.384 . S
N479 C471 1.427 . S
N479 C477 1.384 . S
H480 C486 0.930 . S
H481 C490 0.930 . S
H482 C495 0.929 . S
H483 C493 0.929 . S
H484 C488 0.929 . S
H485 C494 0.929 . S
C486 H480 0.930 . S
C486 C487 1.367 . S
C486 C494 1.378 . S
C487 C486 1.367 . S
C487 C495 1.433 . S
C488 H484 0.929 . S
C488 C490 1.378 . S
C488 C492 1.350 . S
C489 C492 1.463 . S
C489 C494 1.350 . S
C489 N497 1.427 . S
C490 H481 0.930 . S
C490 C488 1.378 . S
C490 C491 1.367 . S
C491 C490 1.367 . S
C491 C493 1.433 . S
C492 C488 1.350 . S
C492 C489 1.463 . S
C492 N496 1.427 . S
C493 H483 0.929 . S
C493 C491 1.433 . S
C493 N496 1.384 . S
C494 H485 0.929 . S
C494 C486 1.378 . S
C494 C489 1.350 . S
C495 H482 0.929 . S
C495 C487 1.433 . S
C495 N497 1.384 . S
N496 C492 1.427 . S
N496 C493 1.384 . S
N497 C489 1.427 . S
N497 C495 1.384 . S
H498 C504 0.930 1_554 S
H499 C508 0.930 . S
H500 C513 0.929 . S
H501 C511 0.929 . S
H502 C506 0.929 . S
H503 C512 0.929 . S
C504 H498 0.930 1_556 S
C504 C505 1.367 . S
C504 C512 1.378 1_556 S
C505 C504 1.367 . S
C505 C513 1.433 . S
C506 H502 0.929 . S
C506 C508 1.378 . S
C506 C510 1.350 . S
C507 C510 1.463 . S
C507 C512 1.350 . S
C507 N515 1.427 1_554 S
C508 H499 0.930 . S
C508 C506 1.378 . S
C508 C509 1.367 . S
C509 C508 1.367 . S
C509 C511 1.433 . S
C510 C506 1.350 . S
C510 C507 1.463 . S
C510 N514 1.427 . S
C511 H501 0.929 . S
C511 C509 1.433 . S
C511 N514 1.384 . S
C512 H503 0.929 . S
C512 C504 1.378 1_554 S
C512 C507 1.350 . S
C513 H500 0.929 . S
C513 C505 1.433 . S
C513 N515 1.384 . S
N514 C510 1.427 . S
N514 C511 1.384 . S
N515 C507 1.427 1_556 S
N515 C513 1.384 . S
H516 C522 0.930 . S
H517 C526 0.930 . S
H518 C531 0.929 . S
H519 C529 0.929 . S
H520 C524 0.929 . S
H521 C530 0.929 . S
C522 H516 0.930 . S
C522 C523 1.367 . S
C522 C530 1.378 . S
C523 C522 1.367 . S
C523 C531 1.433 . S
C524 H520 0.929 . S
C524 C526 1.378 . S
C524 C528 1.350 . S
C525 C528 1.463 . S
C525 C530 1.350 . S
C525 N533 1.427 . S
C526 H517 0.930 . S
C526 C524 1.378 . S
C526 C527 1.367 . S
C527 C526 1.367 . S
C527 C529 1.433 . S
C528 C524 1.350 . S
C528 C525 1.463 . S
C528 N532 1.427 . S
C529 H519 0.929 . S
C529 C527 1.433 . S
C529 N532 1.384 . S
C530 H521 0.929 . S
C530 C522 1.378 . S
C530 C525 1.350 . S
C531 H518 0.929 . S
C531 C523 1.433 . S
C531 N533 1.384 . S
N532 C528 1.427 . S
N532 C529 1.384 . S
N533 C525 1.427 . S
N533 C531 1.384 . S
H534 C540 0.930 . S
H535 C544 0.930 . S
H536 C549 0.929 . S
H537 C547 0.929 . S
H538 C542 0.929 . S
H539 C548 0.929 . S
C540 H534 0.930 . S
C540 C541 1.367 . S
C540 C548 1.378 . S
C541 C540 1.367 . S
C541 C549 1.433 . S
C542 H538 0.929 . S
C542 C544 1.378 . S
C542 C546 1.350 1_554 S
C543 C546 1.463 . S
C543 C548 1.350 . S
C543 N551 1.427 . S
C544 H535 0.930 . S
C544 C542 1.378 . S
C544 C545 1.367 . S
C545 C544 1.367 . S
C545 C547 1.433 . S
C546 C542 1.350 1_556 S
C546 C543 1.463 . S
C546 N550 1.427 . S
C547 H537 0.929 . S
C547 C545 1.433 . S
C547 N550 1.384 1_554 S
C548 H539 0.929 . S
C548 C540 1.378 . S
C548 C543 1.350 . S
C549 H536 0.929 . S
C549 C541 1.433 . S
C549 N551 1.384 . S
N550 C546 1.427 . S
N550 C547 1.384 1_556 S
N551 C543 1.427 . S
N551 C549 1.384 . S
H552 C558 0.930 . S
H553 C562 0.930 . S
H554 C567 0.929 . S
H555 C565 0.929 . S
H556 C560 0.929 . S
H557 C566 0.929 . S
C558 H552 0.930 . S
C558 C559 1.367 1_655 S
C558 C566 1.378 . S
C559 C558 1.367 1_455 S
C559 C567 1.433 . S
C560 H556 0.929 . S
C560 C562 1.378 . S
C560 C564 1.350 . S
C561 C564 1.463 . S
C561 C566 1.350 . S
C561 N569 1.427 1_655 S
C562 H553 0.930 . S
C562 C560 1.378 . S
C562 C563 1.367 . S
C563 C562 1.367 . S
C563 C565 1.433 . S
C564 C560 1.350 . S
C564 C561 1.463 . S
C564 N568 1.427 . S
C565 H555 0.929 . S
C565 C563 1.433 . S
C565 N568 1.384 . S
C566 H557 0.929 . S
C566 C558 1.378 . S
C566 C561 1.350 . S
C567 H554 0.929 . S
C567 C559 1.433 . S
C567 N569 1.384 . S
N568 C564 1.427 . S
N568 C565 1.384 . S
N569 C561 1.427 1_455 S
N569 C567 1.384 . S
H570 C576 0.930 . S
H571 C580 0.930 . S
H572 C585 0.929 . S
H573 C583 0.929 . S
H574 C578 0.929 . S
H575 C584 0.929 . S
C576 H570 0.930 . S
C576 C577 1.367 . S
C576 C584 1.378 . S
C577 C576 1.367 . S
C577 C585 1.433 . S
C578 H574 0.929 . S
C578 C580 1.378 . S
C578 C582 1.350 1_556 S
C579 C582 1.463 . S
C579 C584 1.350 . S
C579 N587 1.427 . S
C580 H571 0.930 . S
C580 C578 1.378 . S
C580 C581 1.367 . S
C581 C580 1.367 . S
C581 C583 1.433 1_556 S
C582 C578 1.350 1_554 S
C582 C579 1.463 . S
C582 N586 1.427 . S
C583 H573 0.929 . S
C583 C581 1.433 1_554 S
C583 N586 1.384 . S
C584 H575 0.929 . S
C584 C576 1.378 . S
C584 C579 1.350 . S
C585 H572 0.929 . S
C585 C577 1.433 . S
C585 N587 1.384 . S
N586 C582 1.427 . S
N586 C583 1.384 . S
N587 C579 1.427 . S
N587 C585 1.384 . S
H588 C594 0.930 . S
H589 C598 0.930 . S
H590 C603 0.929 . S
H591 C601 0.929 . S
H592 C596 0.929 . S
H593 C602 0.929 . S
C594 H588 0.930 . S
C594 C595 1.367 . S
C594 C602 1.378 1_455 S
C595 C594 1.367 . S
C595 C603 1.433 . S
C596 H592 0.929 . S
C596 C598 1.378 . S
C596 C600 1.350 . S
C597 C600 1.463 . S
C597 C602 1.350 . S
C597 N605 1.427 . S
C598 H589 0.930 . S
C598 C596 1.378 . S
C598 C599 1.367 . S
C599 C598 1.367 . S
C599 C601 1.433 . S
C600 C596 1.350 . S
C600 C597 1.463 . S
C600 N604 1.427 . S
C601 H591 0.929 . S
C601 C599 1.433 . S
C601 N604 1.384 . S
C602 H593 0.929 . S
C602 C594 1.378 1_655 S
C602 C597 1.350 . S
C603 H590 0.929 . S
C603 C595 1.433 . S
C603 N605 1.384 1_455 S
N604 C600 1.427 . S
N604 C601 1.384 . S
N605 C597 1.427 . S
N605 C603 1.384 1_655 S
H606 C612 0.930 . S
H607 C616 0.930 . S
H608 C621 0.929 . S
H609 C619 0.929 . S
H610 C614 0.929 . S
H611 C620 0.929 . S
C612 H606 0.930 . S
C612 C613 1.367 . S
C612 C620 1.378 . S
C613 C612 1.367 . S
C613 C621 1.433 . S
C614 H610 0.929 . S
C614 C616 1.378 . S
C614 C618 1.350 1_554 S
C615 C618 1.463 . S
C615 C620 1.350 . S
C615 N623 1.427 . S
C616 H607 0.930 . S
C616 C614 1.378 . S
C616 C617 1.367 . S
C617 C616 1.367 . S
C617 C619 1.433 . S
C618 C614 1.350 1_556 S
C618 C615 1.463 . S
C618 N622 1.427 . S
C619 H609 0.929 . S
C619 C617 1.433 . S
C619 N622 1.384 1_554 S
C620 H611 0.929 . S
C620 C612 1.378 . S
C620 C615 1.350 . S
C621 H608 0.929 . S
C621 C613 1.433 . S
C621 N623 1.384 . S
N622 C618 1.427 . S
N622 C619 1.384 1_556 S
N623 C615 1.427 . S
N623 C621 1.384 . S
C271 C28 1.213 . S
C275 C127 1.217 . S
C289 C41 1.196 . S
C293 C94 1.210 . S
C307 N80 1.683 1_655 S
C311 N38 1.640 . S
C325 N113 1.753 . S
C329 N14 1.751 1_655 S
C343 C160 1.212 . S
C347 C259 1.218 . S
C361 C226 1.205 . S
C365 C173 1.205 . S
C379 N170 1.642 . S
C383 N212 1.683 . S
C397 N245 1.749 . S
C401 N146 1.751 . S
C415 C83 1.541 . S
C419 C17 1.540 . S
C433 C50 1.466 . S
C437 C116 1.469 . S
C451 C215 1.540 . S
C455 C149 1.542 . S
C469 C248 1.468 . S
C473 C182 1.465 . S
C487 N5 1.413 . S
C491 C206 1.478 . S
C505 N47 1.467 . S
C509 C239 1.487 . S
C523 N71 1.398 . S
C527 C140 1.464 . S
C541 C193 1.464 . S
C545 N104 1.386 . S
C559 C74 1.480 . S
C563 N137 1.418 . S
C577 C107 1.494 . S
C581 N179 1.467 . S
C595 C8 1.469 . S
C599 N203 1.396 . S
C613 C61 1.464 . S
C617 N236 1.387 . S
