# Generated by pormake.
# Topology wiu, (6)-cn, num edge types: 1
# Building blocks:
#     Node 0, Type 0, BuildingBlock: KUMBOL_clean_sbu_1, # of connection points: 6
#     Node 1, Type 0, BuildingBlock: KUMBOL_clean_sbu_1, # of connection points: 6
#     Node 2, Type 0, BuildingBlock: KUMBOL_clean_sbu_1, # of connection points: 6
#     Node 3, Type 0, BuildingBlock: KUMBOL_clean_sbu_1, # of connection points: 6
#     Node 4, Type 0, BuildingBlock: KUMBOL_clean_sbu_1, # of connection points: 6
#     Node 5, Type 0, BuildingBlock: KUMBOL_clean_sbu_1, # of connection points: 6
#     Node 6, Type 0, BuildingBlock: KUMBOL_clean_sbu_1, # of connection points: 6
#     Node 7, Type 0, BuildingBlock: KUMBOL_clean_sbu_1, # of connection points: 6
#     Node 8, Type 0, BuildingBlock: KUMBOL_clean_sbu_1, # of connection points: 6
#     Node 9, Type 0, BuildingBlock: KUMBOL_clean_sbu_1, # of connection points: 6
#     Node 10, Type 0, BuildingBlock: KUMBOL_clean_sbu_1, # of connection points: 6
#     Node 11, Type 0, BuildingBlock: KUMBOL_clean_sbu_1, # of connection points: 6
#     Node 12, Type 0, BuildingBlock: KUMBOL_clean_sbu_1, # of connection points: 6
#     Node 13, Type 0, BuildingBlock: KUMBOL_clean_sbu_1, # of connection points: 6
#     Node 14, Type 0, BuildingBlock: KUMBOL_clean_sbu_1, # of connection points: 6
#     Node 15, Type 0, BuildingBlock: KUMBOL_clean_sbu_1, # of connection points: 6
#     Edge 16, Type (0, 0), BuildingBlock: KIFKEQ_clean_linker_1, # of connection points: 2
#     Edge 17, Type (0, 0), BuildingBlock: KIFKEQ_clean_linker_1, # of connection points: 2
#     Edge 18, Type (0, 0), BuildingBlock: KIFKEQ_clean_linker_1, # of connection points: 2
#     Edge 19, Type (0, 0), BuildingBlock: KIFKEQ_clean_linker_1, # of connection points: 2
#     Edge 20, Type (0, 0), BuildingBlock: KIFKEQ_clean_linker_1, # of connection points: 2
#     Edge 21, Type (0, 0), BuildingBlock: KIFKEQ_clean_linker_1, # of connection points: 2
#     Edge 22, Type (0, 0), BuildingBlock: KIFKEQ_clean_linker_1, # of connection points: 2
#     Edge 23, Type (0, 0), BuildingBlock: KIFKEQ_clean_linker_1, # of connection points: 2
#     Edge 24, Type (0, 0), BuildingBlock: KIFKEQ_clean_linker_1, # of connection points: 2
#     Edge 25, Type (0, 0), BuildingBlock: KIFKEQ_clean_linker_1, # of connection points: 2
#     Edge 26, Type (0, 0), BuildingBlock: KIFKEQ_clean_linker_1, # of connection points: 2
#     Edge 27, Type (0, 0), BuildingBlock: KIFKEQ_clean_linker_1, # of connection points: 2
#     Edge 28, Type (0, 0), BuildingBlock: KIFKEQ_clean_linker_1, # of connection points: 2
#     Edge 29, Type (0, 0), BuildingBlock: KIFKEQ_clean_linker_1, # of connection points: 2
#     Edge 30, Type (0, 0), BuildingBlock: KIFKEQ_clean_linker_1, # of connection points: 2
#     Edge 31, Type (0, 0), BuildingBlock: KIFKEQ_clean_linker_1, # of connection points: 2
#     Edge 32, Type (0, 0), BuildingBlock: KIFKEQ_clean_linker_1, # of connection points: 2
#     Edge 33, Type (0, 0), BuildingBlock: KIFKEQ_clean_linker_1, # of connection points: 2
#     Edge 34, Type (0, 0), BuildingBlock: KIFKEQ_clean_linker_1, # of connection points: 2
#     Edge 35, Type (0, 0), BuildingBlock: KIFKEQ_clean_linker_1, # of connection points: 2
#     Edge 36, Type (0, 0), BuildingBlock: KIFKEQ_clean_linker_1, # of connection points: 2
#     Edge 37, Type (0, 0), BuildingBlock: KIFKEQ_clean_linker_1, # of connection points: 2
#     Edge 38, Type (0, 0), BuildingBlock: KIFKEQ_clean_linker_1, # of connection points: 2
#     Edge 39, Type (0, 0), BuildingBlock: KIFKEQ_clean_linker_1, # of connection points: 2
#     Edge 40, Type (0, 0), BuildingBlock: KIFKEQ_clean_linker_1, # of connection points: 2
#     Edge 41, Type (0, 0), BuildingBlock: KIFKEQ_clean_linker_1, # of connection points: 2
#     Edge 42, Type (0, 0), BuildingBlock: KIFKEQ_clean_linker_1, # of connection points: 2
#     Edge 43, Type (0, 0), BuildingBlock: KIFKEQ_clean_linker_1, # of connection points: 2
#     Edge 44, Type (0, 0), BuildingBlock: KIFKEQ_clean_linker_1, # of connection points: 2
#     Edge 45, Type (0, 0), BuildingBlock: KIFKEQ_clean_linker_1, # of connection points: 2
#     Edge 46, Type (0, 0), BuildingBlock: KIFKEQ_clean_linker_1, # of connection points: 2
#     Edge 47, Type (0, 0), BuildingBlock: KIFKEQ_clean_linker_1, # of connection points: 2
#     Edge 48, Type (0, 0), BuildingBlock: KIFKEQ_clean_linker_1, # of connection points: 2
#     Edge 49, Type (0, 0), BuildingBlock: KIFKEQ_clean_linker_1, # of connection points: 2
#     Edge 50, Type (0, 0), BuildingBlock: KIFKEQ_clean_linker_1, # of connection points: 2
#     Edge 51, Type (0, 0), BuildingBlock: KIFKEQ_clean_linker_1, # of connection points: 2
#     Edge 52, Type (0, 0), BuildingBlock: KIFKEQ_clean_linker_1, # of connection points: 2
#     Edge 53, Type (0, 0), BuildingBlock: KIFKEQ_clean_linker_1, # of connection points: 2
#     Edge 54, Type (0, 0), BuildingBlock: KIFKEQ_clean_linker_1, # of connection points: 2
#     Edge 55, Type (0, 0), BuildingBlock: KIFKEQ_clean_linker_1, # of connection points: 2
#     Edge 56, Type (0, 0), BuildingBlock: KIFKEQ_clean_linker_1, # of connection points: 2
#     Edge 57, Type (0, 0), BuildingBlock: KIFKEQ_clean_linker_1, # of connection points: 2
#     Edge 58, Type (0, 0), BuildingBlock: KIFKEQ_clean_linker_1, # of connection points: 2
#     Edge 59, Type (0, 0), BuildingBlock: KIFKEQ_clean_linker_1, # of connection points: 2
#     Edge 60, Type (0, 0), BuildingBlock: KIFKEQ_clean_linker_1, # of connection points: 2
#     Edge 61, Type (0, 0), BuildingBlock: KIFKEQ_clean_linker_1, # of connection points: 2
#     Edge 62, Type (0, 0), BuildingBlock: KIFKEQ_clean_linker_1, # of connection points: 2
#     Edge 63, Type (0, 0), BuildingBlock: KIFKEQ_clean_linker_1, # of connection points: 2
# Relax obj value: 0.341
# Max RMSD: 0.281
# Mean RMSD: 0.281
data_MOF--net-wiu--node1-KUMBOL_clean_sbu_1--edge1-KIFKEQ_clean_linker_1
_symmetry_space_group_name_H-M    P1
_symmetry_Int_Tables_number       1
_symmetry_cell_setting            triclinic
loop_
_symmetry_equiv_pos_as_xyz
'x, y, z'
_cell_length_a     37.90959
_cell_length_b     37.791712
_cell_length_c     53.536557
_cell_angle_alpha  89.66595
_cell_angle_beta   89.744926
_cell_angle_gamma 90.130605
loop_
_atom_site_label
_atom_site_type_symbol
_atom_site_fract_x
_atom_site_fract_y
_atom_site_fract_z
_atom_type_partial_charge
C0 C 0.31281 0.22497 0.2138 0.0
C1 C 0.24859 0.22957 0.21436 0.0
C2 C 0.28023 0.21755 0.22515 0.0
C3 C 0.24991 0.2505 0.19266 0.0
C4 C 0.31383 0.24494 0.19146 0.0
C5 C 0.28238 0.25813 0.18125 0.0
N6 N 0.34305 0.21132 0.22393 0.0
C7 C 0.37483 0.21735 0.21248 0.0
C8 C 0.34637 0.25074 0.17975 0.0
C9 C 0.37689 0.23674 0.19024 0.0
Gd10 Gd 0.39645 0.10972 0.24268 0.0
Gd11 Gd 0.33394 0.18433 0.2635 0.0
N12 N 0.27943 0.1961 0.24566 0.0
C13 C 0.21648 0.21938 0.22535 0.0
C14 C 0.24837 0.18567 0.25633 0.0
C15 C 0.21637 0.19709 0.24629 0.0
H16 H 0.24844 0.16897 0.27279 0.0
H17 H 0.19168 0.1889 0.25477 0.0
H18 H 0.46931 0.11385 0.27804 0.0
H19 H 0.39908 0.20817 0.22029 0.0
H20 H 0.50735 0.07363 0.3019 0.0
H21 H 0.19161 0.22811 0.21758 0.0
H22 H 0.22588 0.2603 0.18423 0.0
H23 H 0.34826 0.05797 0.20505 0.0
H24 H 0.3482 0.26589 0.16254 0.0
H25 H 0.40221 0.24125 0.18134 0.0
H26 H 0.46248 0.95791 0.2832 0.0
H27 H 0.28284 0.2738 0.16424 0.0
H28 H 0.36683 0.94988 0.2251 0.0
H29 H 0.33391 0.99459 0.20071 0.0
N30 N 0.38624 0.04962 0.23356 0.0
C31 C 0.40504 0.02545 0.24665 0.0
C32 C 0.36201 0.03884 0.21641 0.0
C33 C 0.37257 0.97773 0.22757 0.0
C34 C 0.35396 1.00289 0.21378 0.0
C35 C 0.39894 0.98885 0.24396 0.0
H36 H 0.41522 0.9364 0.25571 0.0
N37 N 0.43696 0.07278 0.26341 0.0
C38 C 0.43142 0.03745 0.26204 0.0
C39 C 0.4801 0.02663 0.29 0.0
C40 C 0.45276 1.01334 0.27528 0.0
C41 C 0.46437 0.08583 0.27712 0.0
C42 C 0.48606 0.06305 0.29077 0.0
O43 O 0.31032 0.15456 0.23069 0.0
O44 O 0.35531 0.12223 0.21292 0.0
O45 O 0.41275 0.14707 0.2142 0.0
O46 O 0.43939 0.09613 0.21799 0.0
O47 O 0.31242 0.13122 0.27577 0.0
O48 O 0.33967 0.09177 0.2489 0.0
O49 O 0.39472 0.1116 0.28427 0.0
O50 O 0.35296 0.1523 0.29775 0.0
O51 O 0.3012 0.20435 0.29411 0.0
O52 O 0.33039 0.24025 0.27022 0.0
O53 O 0.42626 0.154 0.26223 0.0
O54 O 0.39061 0.20325 0.26374 0.0
C55 C 0.32389 0.13701 0.21186 0.0
C56 C 0.3131 0.10105 0.26356 0.0
C57 C 0.42514 0.1158 0.17726 0.0
C58 C 0.41137 0.0722 0.14526 0.0
C59 C 0.40661 0.1349 1.13594 0.0
C60 C 0.41724 0.14304 0.16026 0.0
C61 C 0.40383 0.0996 1.12836 0.0
C62 C 0.42213 0.08057 0.16952 0.0
C63 C 0.43324 0.12362 0.20359 0.0
C64 C 0.44645 0.97686 0.27312 0.0
C65 C 0.41955 0.96462 0.25748 0.0
H66 H 0.49703 1.00901 0.30053 0.0
C67 C 0.37548 0.12601 0.30186 0.0
C68 C 0.42194 0.18843 0.26432 0.0
C69 C 0.30929 0.26421 0.30737 0.0
C70 C 0.29907 0.32614 0.3174 0.0
C71 C 0.32691 0.28662 0.34759 0.0
C72 C 0.32464 0.25858 0.33075 0.0
C73 C 0.31434 0.32024 0.34099 0.0
C74 C 0.29635 0.29766 0.3009 0.0
C75 C 0.3077 0.2371 0.28821 0.0
H76 H 0.40043 0.15601 1.12295 0.0
H77 H 0.41877 0.17049 0.16589 0.0
H78 H 0.39585 0.0937 1.10944 0.0
H79 H 0.42857 0.05927 0.18235 0.0
H80 H 0.33884 0.28244 0.36568 0.0
H81 H 0.33506 0.23286 0.33581 0.0
H82 H 0.31716 0.34167 0.35416 0.0
H83 H 0.28418 0.30141 0.28276 0.0
C84 C 0.5632 0.56485 0.46724 0.0
C85 C 0.56498 0.50034 0.46563 0.0
C86 C 0.57611 0.53246 0.47632 0.0
C87 C 0.54022 0.50083 0.44623 0.0
C88 C 0.53861 0.56515 0.44755 0.0
C89 C 0.52708 0.53306 0.43726 0.0
N90 N 0.57574 0.59585 0.477 0.0
C91 C 0.56323 0.62761 0.46856 0.0
C92 C 0.52638 0.5977 0.43862 0.0
C93 C 0.53855 0.62897 0.44927 0.0
Gd94 Gd 0.68618 0.64751 0.49076 0.0
Gd95 Gd 0.61128 0.58756 0.51256 0.0
N96 N 0.60093 0.53256 0.49467 0.0
C97 C 0.57945 0.46863 0.47452 0.0
C98 C 0.6147 0.50178 0.50371 0.0
C99 C 0.60442 0.46937 0.49362 0.0
H100 H 0.63284 0.50207 0.51916 0.0
H101 H 0.61539 0.44495 0.50081 0.0
H102 H 0.6766 0.70579 0.53878 0.0
H103 H 0.57184 0.65223 0.47639 0.0
H104 H 0.70686 0.7572 0.55568 0.0
H105 H 0.57151 0.44342 0.46678 0.0
H106 H 0.53127 0.47639 0.43787 0.0
H107 H 0.74664 0.60768 0.45421 0.0
H108 H 0.50746 0.59899 0.42353 0.0
H109 H 0.52901 0.65426 0.44257 0.0
H110 H 0.81498 0.7639 0.50934 0.0
H111 H 0.50815 0.5329 0.42215 0.0
H112 H 0.84065 0.66931 0.45322 0.0
H113 H 0.80769 0.61569 0.44102 0.0
N114 N 0.74433 0.65505 0.47555 0.0
C115 C 0.76274 0.68348 0.48365 0.0
C116 C 0.76022 0.63095 0.46028 0.0
C117 C 0.81368 0.66565 0.45954 0.0
C118 C 0.7951 0.63557 0.45241 0.0
C119 C 0.79765 0.68998 0.47549 0.0
H120 H 0.8426 0.72528 0.47806 0.0
N121 N 0.71506 0.69583 0.51021 0.0
C122 C 0.74746 0.70478 0.50141 0.0
C123 C 0.75105 0.75334 0.53052 0.0
C124 C 0.76632 0.73377 0.51125 0.0
C125 C 0.70098 0.71391 0.53003 0.0
C126 C 0.71843 0.74302 0.54018 0.0
O127 O 0.63375 0.57461 0.47345 0.0
O128 O 0.68964 0.59727 0.46774 0.0
O129 O 0.63843 0.64592 0.46874 0.0
O130 O 0.6816 0.68221 0.45894 0.0
O131 O 0.6625 0.56085 0.52138 0.0
O132 O 0.70629 0.59238 0.4999 0.0
O133 O 0.69181 0.63848 0.5316 0.0
O134 O 0.64336 0.60714 0.54664 0.0
O135 O 0.59285 0.55374 0.54357 0.0
O136 O 0.55622 0.58288 0.52069 0.0
O137 O 0.6424 0.68055 0.50799 0.0
O138 O 0.59483 0.64446 0.51736 0.0
C139 C 0.66366 0.57635 0.46075 0.0
C140 C 0.69472 0.5643 0.51247 0.0
C141 C 0.65555 0.64993 0.42622 0.0
C142 C 0.69261 0.6306 0.39158 0.0
C143 C 0.62997 0.61795 0.3914 0.0
C144 C 0.62612 0.63504 0.41442 0.0
C145 C 0.66311 0.61598 0.37982 0.0
C146 C 0.68864 0.64726 0.41464 0.0
C147 C 0.65301 0.66578 0.45132 0.0
C148 C 0.80025 0.74159 0.50216 0.0
C149 C 0.81596 0.71965 0.48435 0.0
H150 H 0.76469 0.77572 0.53858 0.0
C151 C 0.67403 0.62367 0.54988 0.0
C152 C 0.60936 0.67591 0.51506 0.0
C153 C 0.53436 0.56476 0.55877 0.0
C154 C 0.47196 0.55708 0.56888 0.0
C155 C 0.50738 0.60215 0.58979 0.0
C156 C 0.53693 0.59254 0.57577 0.0
C157 C 0.47496 0.58521 0.58601 0.0
C158 C 0.50262 0.54622 0.55624 0.0
C159 C 0.55994 0.56035 0.53873 0.0
H160 H 0.60716 0.60644 0.38244 0.0
H161 H 0.60038 0.63642 0.42298 0.0
H162 H 0.66569 0.60346 0.36176 0.0
H163 H 0.71169 0.65893 0.42324 0.0
H164 H 0.50912 0.62399 0.60271 0.0
H165 H 0.5611 0.60772 0.57729 0.0
H166 H 0.45223 0.59524 0.59593 0.0
H167 H 0.50171 0.5246 0.54307 0.0
C168 C 0.27691 0.82293 0.73788 0.0
C169 C 0.33134 0.84117 0.75764 0.0
C170 C 0.29423 0.84176 0.75625 0.0
C171 C 0.35077 0.8229 0.73943 0.0
C172 C 0.29617 0.80274 0.7205 0.0
C173 C 0.33321 0.80365 0.72091 0.0
N174 N 0.24113 0.82228 0.73822 0.0
C175 C 0.22293 0.79956 0.72319 0.0
C176 C 0.27761 0.78116 0.70389 0.0
C177 C 0.24085 0.77914 0.70553 0.0
Gd178 Gd 0.15303 0.93263 0.74358 0.0
Gd179 Gd 0.21346 0.8586 0.76784 0.0
N180 N 0.27465 0.85802 0.77405 0.0
C181 C 0.34769 0.85759 0.77794 0.0
C182 C 0.29023 0.87152 0.79486 0.0
C183 C 0.32699 0.87231 0.79686 0.0
H184 H 0.27418 0.88214 0.80979 0.0
H185 H 0.33929 0.88397 0.81306 0.0
H186 H 0.074 0.91801 0.76865 0.0
H187 H 0.19455 0.79785 0.7244 0.0
H188 H 0.02518 0.95166 0.78745 0.0
H189 H 0.37615 0.85781 0.77967 0.0
H190 H 0.37933 0.8224 0.74004 0.0
H191 H 0.20213 0.99224 0.71158 0.0
H192 H 0.29144 0.7652 0.69027 0.0
H193 H 0.22633 0.76187 0.6932 0.0
H194 H 0.05809 0.07323 0.77405 0.0
H195 H 0.34849 0.78863 0.70753 0.0
H196 H 0.16381 0.09588 0.72695 0.0
H197 H 0.20778 0.05665 0.70716 0.0
N198 N 0.15715 0.99419 0.7353 0.0
C199 C 0.13244 1.01531 0.7457 0.0
C200 C 0.18336 1.00873 0.72094 0.0
C201 C 0.16167 0.06748 0.72939 0.0
C202 C 0.18647 0.04544 0.71819 0.0
C203 C 0.13387 0.05246 0.74306 0.0
H204 H 0.10785 0.10183 0.75204 0.0
N205 N 0.10388 0.96369 0.75885 0.0
C206 C 0.10474 0.99943 0.75793 0.0
C207 C 0.04859 1.00243 0.77922 0.0
C208 C 0.07723 1.01991 0.76808 0.0
C209 C 0.07538 0.94646 0.76878 0.0
C210 C 0.04751 0.9655 0.77933 0.0
O211 O 0.21814 0.87123 0.72578 0.0
O212 O 0.20516 0.93024 0.72258 0.0
O213 O 0.14894 0.89123 0.71564 0.0
O214 O 0.11541 0.93743 0.71349 0.0
O215 O 0.23565 0.9122 0.77734 0.0
O216 O 0.20865 0.95305 0.7511 0.0
O217 O 0.1489 0.92926 0.78551 0.0
O218 O 0.19971 0.90006 0.79813 0.0
O219 O 0.23288 0.81361 0.78899 0.0
O220 O 0.17879 0.83055 0.79359 0.0
O221 O 0.12928 0.88636 0.76574 0.0
O222 O 0.16215 0.84309 0.74921 0.0
C223 C 0.22236 0.90225 0.71461 0.0
C224 C 0.23471 0.94305 0.76588 0.0
C225 C 0.14323 0.91801 0.67641 0.0
C226 C 0.16275 0.96162 0.6456 0.0
C227 C 0.17547 0.89949 0.63937 0.0
C228 C 0.1584 0.89111 0.66192 0.0
C229 C 0.17742 0.93466 0.63106 0.0
C230 C 0.14575 0.95309 0.66808 0.0
C231 C 0.1288 0.91051 0.70151 0.0
C232 C 0.07887 0.05698 0.76627 0.0
C233 C 0.10717 0.07325 0.75374 0.0
H234 H 0.0269 1.01716 0.78728 0.0
C235 C 0.17311 0.92225 0.80236 0.0
C236 C 0.13152 0.85369 0.75769 0.0
C237 C 0.18933 0.76886 0.79186 0.0
C238 C 0.20227 0.70772 0.78056 0.0
C239 C 0.14157 0.72789 0.78283 0.0
C240 C 0.15308 0.76141 0.78992 0.0
C241 C 0.16596 0.70121 0.77804 0.0
C242 C 0.21382 0.74163 0.78745 0.0
C243 C 0.20155 0.80523 0.79719 0.0
H244 H 0.18724 0.87869 0.62833 0.0
H245 H 0.15764 0.86385 0.66826 0.0
H246 H 0.19022 0.94079 0.61344 0.0
H247 H 0.13416 0.97419 0.67902 0.0
H248 H 0.11363 0.72254 0.78115 0.0
H249 H 0.13356 0.78156 0.79366 0.0
H250 H 0.15641 0.6752 0.77298 0.0
H251 H 0.24186 0.74685 0.789 0.0
C252 C 0.98419 0.48311 0.96828 0.0
C253 C 0.9934 0.54699 0.96877 0.0
C254 C 0.97745 0.51631 0.97875 0.0
C255 C 1.01805 0.54385 0.94928 0.0
C256 C 1.00711 0.48041 0.94759 0.0
C257 C 0.02485 0.51068 0.93871 0.0
N258 N 0.96554 0.45437 0.97673 0.0
C259 C 0.96769 0.42283 0.96458 0.0
C260 C 1.01042 0.44766 0.93576 0.0
C261 C 0.9902 0.41896 0.94403 0.0
Gd262 Gd 0.8626 0.40182 0.99232 0.0
Gd263 Gd 0.93584 0.46513 1.01461 0.0
N264 N 0.95202 0.51885 0.99665 0.0
C265 C 0.98269 0.58004 0.9778 0.0
C266 C 0.94049 0.55085 1.00495 0.0
C267 C 0.95576 0.58198 0.99569 0.0
H268 H 0.92023 0.55217 1.0192 0.0
H269 H 0.94697 0.60742 1.00247 0.0
H270 H 0.87429 0.33051 1.02909 0.0
H271 H 0.95232 0.40053 0.97041 0.0
H272 H 0.83868 0.29194 1.05663 0.0
H273 H 0.9943 0.60425 0.97056 0.0
H274 H 0.03094 0.56709 0.94155 0.0
H275 H 0.80481 0.44524 0.95643 0.0
H276 H 0.0277 0.44453 0.91975 0.0
H277 H 0.99197 0.39377 0.9346 0.0
H278 H 0.72004 0.33333 1.04538 0.0
H279 H 0.04293 0.50895 0.92304 0.0
H280 H 0.701 0.42559 0.98496 0.0
H281 H 0.74084 0.45732 0.95562 0.0
N282 N 0.80162 0.40986 0.98718 0.0
C283 C 0.78015 0.39112 1.00263 0.0
C284 C 0.78779 0.43216 0.96968 0.0
C285 C 0.72916 0.42092 0.98571 0.0
C286 C 0.75154 0.43887 0.96913 0.0
C287 C 0.7433 0.39599 1.00231 0.0
H288 H 0.69345 0.37873 1.01822 0.0
N289 N 0.83052 0.3612 1.01696 0.0
C290 C 0.79506 0.36571 1.01788 0.0
C291 C 0.78966 0.3177 1.04761 0.0
C292 C 0.77363 0.34421 1.03329 0.0
C293 C 0.84615 0.33438 1.03007 0.0
C294 C 0.82606 0.31259 1.04583 0.0
O295 O 0.9126 0.4854 0.97783 0.0
O296 O 0.87067 0.44598 0.96354 0.0
O297 O 0.89097 0.38592 0.95887 0.0
O298 O 0.84282 0.35869 0.97042 0.0
O299 O 0.88266 0.48765 1.02394 0.0
O300 O 0.84477 0.45873 0.99684 0.0
O301 O 0.86273 0.40443 1.03414 0.0
O302 O 0.90094 0.4481 1.04794 0.0
O303 O 0.95397 0.50119 1.04364 0.0
O304 O 0.99041 0.46514 1.02559 0.0
O305 O 0.91148 0.37159 1.0048 0.0
O306 O 0.95513 0.40898 1.0189 0.0
C307 C 0.89053 0.47443 0.96057 0.0
C308 C 0.85337 0.48598 1.01093 0.0
C309 C 0.84709 0.37499 0.92825 0.0
C310 C 0.7908 0.38008 0.90671 0.0
C311 C 0.84157 0.41344 0.8919 0.0
C312 C 0.86204 0.39929 0.91123 0.0
C313 C 0.80589 0.40434 0.88983 0.0
C314 C 0.81205 0.36434 0.92493 0.0
C315 C 0.86456 0.36576 0.95201 0.0
C316 C 0.73696 0.34949 1.03358 0.0
C317 C 0.72182 0.37535 1.01813 0.0
H318 H 0.77414 0.30069 1.05978 0.0
C319 C 0.87529 0.42474 1.05176 0.0
C320 C 0.9432 0.37717 1.01395 0.0
C321 C 1.01117 0.49337 1.06151 0.0
C322 C 0.07143 0.50593 1.07401 0.0
C323 C 0.02809 0.4854 1.1046 0.0
C324 C 1.00236 0.48366 1.086 0.0
C325 C 0.06248 0.49642 1.09869 0.0
C326 C 0.04534 0.50462 1.05566 0.0
C327 C 0.98656 0.49135 1.04086 0.0
H328 H 0.85306 0.43252 0.87907 0.0
H329 H 0.88897 0.40837 0.91339 0.0
H330 H 0.79004 0.41669 0.87545 0.0
H331 H 0.80055 0.34493 0.93757 0.0
H332 H 1.02148 0.47793 1.12359 0.0
H333 H 0.97596 0.47469 1.09062 0.0
H334 H 0.0821 0.497 1.11331 0.0
H335 H 0.05151 0.51254 1.0366 0.0
C336 C 0.6351 1.01773 1.05921 0.0
C337 C 0.58382 0.03439 1.03515 0.0
C338 C 0.60861 1.00886 1.04296 0.0
C339 C 0.58655 0.06923 1.04388 0.0
C340 C 0.63804 0.05271 1.06811 0.0
C341 C 0.61366 0.0784 1.06031 0.0
N342 N 0.65799 0.99212 1.06633 0.0
C343 C 0.68481 1.00015 1.08241 0.0
C344 C 0.6654 0.06086 1.08451 0.0
C345 C 0.6889 0.03444 1.09166 0.0
Gd346 Gd 0.7119 0.86228 1.02645 0.0
Gd347 Gd 0.65073 0.93532 1.04818 0.0
N348 N 0.60687 0.97507 1.03491 0.0
C349 C 0.55699 1.02407 1.01887 0.0
C350 C 0.58052 0.96479 1.0192 0.0
C351 C 0.55531 0.98904 1.01091 0.0
H352 H 0.57884 0.93797 1.0127 0.0
H353 H 0.53465 0.98068 0.99835 0.0
H354 H 0.79582 0.88208 1.0147 0.0
H355 H 0.70396 0.98075 1.08792 0.0
H356 H 0.85463 0.86732 1.03164 0.0
H357 H 0.53745 0.04285 1.01242 0.0
H358 H 0.56781 0.08923 1.03807 0.0
H359 H 0.65065 0.82481 1.06804 0.0
H360 H 0.66866 0.08742 1.09168 0.0
H361 H 0.71038 0.04047 1.1042 0.0
H362 H 0.82935 0.79425 1.10307 0.0
H363 H 0.61551 0.10538 1.06693 0.0
H364 H 0.70888 0.77423 1.12547 0.0
H365 H 0.65211 0.79087 1.10647 0.0
N366 N 0.70676 0.83172 1.06526 0.0
C367 C 0.73853 0.82133 1.07499 0.0
C368 C 0.67607 0.81981 1.07604 0.0
C369 C 0.70869 0.79011 1.10855 0.0
C370 C 0.67661 0.79959 1.09795 0.0
C371 C 0.74014 0.80058 1.09699 0.0
H372 H 0.77458 0.7747 1.1236 0.0
N373 N 0.76807 0.85341 1.04276 0.0
C374 C 0.7699 0.83198 1.06324 0.0
C375 C 0.83361 0.83553 1.0618 0.0
C376 C 0.80288 0.82275 1.07341 0.0
C377 C 0.79782 0.86594 1.03132 0.0
C378 C 0.83104 0.85733 1.04072 0.0
O379 O 0.65485 0.93944 1.00655 0.0
O380 O 0.6915 0.89447 0.99212 0.0
O381 O 0.74436 0.84257 0.99569 0.0
O382 O 0.71364 0.80655 1.01861 0.0
O383 O 0.62366 0.89613 1.02183 0.0
O384 O 0.65496 0.84522 1.02765 0.0
O385 O 0.73552 0.89271 1.05918 0.0
O386 O 0.69007 0.92201 1.07881 0.0
O387 O 0.64357 0.88795 1.06976 0.0
O388 O 0.60438 0.93091 1.0713 0.0
O389 O 0.73145 0.91507 1.01347 0.0
O390 O 0.70653 0.95506 1.04104 0.0
C391 C 0.67121 0.92288 0.98834 0.0
C392 C 0.62509 0.86126 1.02296 0.0
C393 C 0.73514 0.78365 0.98116 0.0
C394 C 0.74635 0.72252 0.96974 0.0
C395 C 0.71692 0.76258 0.94072 0.0
C396 C 0.71902 0.78995 0.95813 0.0
C397 C 0.73039 0.72899 0.94646 0.0
C398 C 0.74894 0.75032 0.98676 0.0
C399 C 0.73675 0.80984 1.00087 0.0
C400 C 0.80424 0.80177 1.09507 0.0
C401 C 0.77302 0.79075 1.1068 0.0
H402 H 0.85942 0.82899 1.06909 0.0
C403 C 0.72211 0.90858 1.07884 0.0
C404 C 0.73142 0.94557 1.02513 0.0
C405 C 0.60295 0.88841 1.10389 0.0
C406 C 0.55392 0.88097 1.13278 0.0
C407 C 0.61314 0.86334 0.14492 0.0
C408 C 0.62618 0.87417 1.12157 0.0
C409 C 0.57716 0.86696 0.15066 0.0
C410 C 0.56729 0.89145 1.10954 0.0
C411 C 0.61338 0.899 1.07873 0.0
H412 H 0.70445 0.76725 0.92287 0.0
H413 H 0.70793 0.81563 0.95377 0.0
H414 H 0.72776 0.70804 0.93289 0.0
H415 H 0.76171 0.74611 1.00464 0.0
H416 H 0.63099 0.85246 0.15867 0.0
H417 H 0.65403 0.87151 1.11742 0.0
H418 H 0.56762 0.85921 0.16898 0.0
H419 H 0.54992 0.9033 1.09577 0.0
C420 C 0.27851 0.38665 0.78822 0.0
C421 C 0.27349 0.33272 0.76452 0.0
C422 C 0.29413 0.35929 0.77568 0.0
C423 C 0.23653 0.33496 0.76568 0.0
C424 C 0.24143 0.38867 0.79015 0.0
C425 C 0.22051 0.36293 0.7785 0.0
N426 N 0.29975 0.41041 0.79953 0.0
C427 C 0.2853 0.43606 0.81424 0.0
C428 C 0.2266 0.41611 0.80405 0.0
C429 C 0.2487 0.43989 0.8162 0.0
Gd430 Gd 0.43346 0.46925 0.76693 0.0
Gd431 Gd 0.36132 0.40573 0.79202 0.0
N432 N 0.32974 0.35789 0.77531 0.0
C433 C 0.29067 0.30441 0.75299 0.0
C434 C 0.34663 0.32968 0.76498 0.0
C435 C 0.32746 0.30272 0.75345 0.0
H436 H 0.37494 0.32808 0.76542 0.0
H437 H 0.34106 0.28066 0.74497 0.0
H438 H 0.40561 0.52714 0.72362 0.0
H439 H 0.30181 0.45394 0.82439 0.0
H440 H 0.39987 0.59203 0.71882 0.0
H441 H 0.27582 0.28345 0.74414 0.0
H442 H 0.22016 0.31492 0.75711 0.0
H443 H 0.49692 0.45584 0.80904 0.0
H444 H 0.19826 0.41872 0.80593 0.0
H445 H 0.23761 0.46084 0.82747 0.0
H446 H 0.46041 0.63862 0.79011 0.0
H447 H 0.19199 0.36408 0.77966 0.0
H448 H 0.52482 0.556 0.84056 0.0
H449 H 0.53225 0.49098 0.83878 0.0
N450 N 0.46908 0.50045 0.795 0.0
C451 C 0.46616 0.53619 0.79462 0.0
C452 C 0.49353 0.48419 0.8098 0.0
C453 C 0.5092 0.54069 0.8276 0.0
C454 C 0.51354 0.504 0.82661 0.0
C455 C 0.48577 0.55733 0.81115 0.0
H456 H 0.49704 0.61104 0.82269 0.0
N457 N 0.43044 0.53036 0.75907 0.0
C458 C 0.44582 0.55165 0.77618 0.0
C459 C 0.42634 0.60337 0.75343 0.0
C460 C 0.44415 0.58878 0.7739 0.0
C461 C 0.4157 0.54437 0.738 0.0
C462 C 0.4126 0.58104 0.73516 0.0
O463 O 0.36608 0.40152 0.75016 0.0
O464 O 0.39186 0.45418 0.73703 0.0
O465 O 0.47907 0.48884 0.74628 0.0
O466 O 0.4607 0.43524 0.74076 0.0
O467 O 0.40865 0.38353 0.77075 0.0
O468 O 0.45009 0.4189 0.78699 0.0
O469 O 0.4227 0.47235 0.80938 0.0
O470 O 0.36441 0.45714 0.81382 0.0
O471 O 0.40113 0.40003 0.821 0.0
O472 O 0.35521 0.3658 0.82075 0.0
O473 O 0.37897 0.4893 0.75785 0.0
O474 O 0.34099 0.46167 0.78583 0.0
C475 C 0.3712 0.42621 0.73309 0.0
C476 C 0.44103 0.38754 0.77886 0.0
C477 C 0.52261 0.4444 0.74124 0.0
C478 C 0.58547 0.45456 0.74897 0.0
C479 C 0.56229 0.39459 0.74669 0.0
C480 C 0.52881 0.40775 0.74164 0.0
C481 C 0.59031 0.4177 0.75059 0.0
C482 C 0.55125 0.46781 0.74476 0.0
C483 C 0.48637 0.4578 0.73722 0.0
C484 C 0.46167 0.61003 0.79139 0.0
C485 C 0.48253 0.59432 0.80995 0.0
H486 H 0.42434 0.63178 0.75104 0.0
C487 C 0.3923 0.47479 0.82149 0.0
C488 C 0.34939 0.48801 0.77065 0.0
C489 C 0.37179 0.39108 0.85921 0.0
C490 C 0.32579 0.405 0.88954 0.0
C491 C 0.38596 0.42392 0.89681 0.0
C492 C 0.39656 0.40853 0.87425 0.0
C493 C 0.35067 0.42204 0.90456 0.0
C494 C 0.3366 0.38939 0.86717 0.0
C495 C 0.38113 0.37867 0.83395 0.0
H496 H 0.56661 0.3663 0.7474 0.0
H497 H 0.50769 0.38909 0.73827 0.0
H498 H 0.61601 0.4066 0.75455 0.0
H499 H 0.54706 0.49613 0.74359 0.0
H500 H 0.40511 0.43755 0.90823 0.0
H501 H 0.42381 0.41093 0.8683 0.0
H502 H 0.34279 0.43393 0.92207 0.0
H503 H 0.31712 0.37589 0.85588 0.0
C504 C 0.9136 0.0251 0.55578 0.0
C505 C 0.96007 1.01009 0.52663 0.0
C506 C 0.93764 0.03519 0.53783 0.0
C507 C 0.95712 0.97429 0.53349 0.0
C508 C 0.91098 0.98929 0.56321 0.0
C509 C 0.93259 0.96389 0.55177 0.0
N510 N 0.89358 0.05053 0.56652 0.0
C511 C 0.87079 0.04169 0.5855 0.0
C512 C 0.88708 0.98016 0.58214 0.0
C513 C 0.86705 1.00655 0.59342 0.0
Gd514 Gd 0.83642 0.1819 0.52716 0.0
Gd515 Gd 0.89911 0.10884 0.55015 0.0
N516 N 0.93992 0.06992 0.53191 0.0
C517 C 0.98513 1.02184 0.50918 0.0
C518 C 0.96505 0.0817 0.51547 0.0
C519 C 0.98779 0.0579 0.50372 0.0
H520 H 0.96729 0.10945 0.51103 0.0
H521 H 1.0073 0.0674 0.49046 0.0
H522 H 0.76275 0.15821 0.49763 0.0
H523 H 0.85491 0.06125 0.59469 0.0
H524 H 0.69836 0.16714 0.50207 0.0
H525 H 1.00283 1.00342 0.50012 0.0
H526 H 0.974 0.95456 0.52503 0.0
H527 H 0.87323 0.21878 0.57947 0.0
H528 H 0.88423 0.95297 0.58838 0.0
H529 H 0.84869 0.99987 0.60826 0.0
H530 H 0.68712 0.24376 0.57282 0.0
H531 H 0.93086 0.93626 0.55715 0.0
H532 H 0.79143 0.27356 0.61815 0.0
H533 H 0.85404 0.25649 0.61406 0.0
N534 N 0.82205 0.21517 0.5631 0.0
C535 C 0.78729 0.22433 0.56506 0.0
C536 C 0.84589 0.22641 0.58053 0.0
C537 C 0.7997 0.25734 0.60257 0.0
C538 C 0.83508 0.24769 0.60037 0.0
C539 C 0.77524 0.24526 0.58506 0.0
H540 H 0.72941 0.26882 0.60259 0.0
N541 N 0.77532 0.18928 0.52929 0.0
C542 C 0.76324 0.21019 0.5481 0.0
C543 C 0.70337 0.20091 0.53417 0.0
C544 C 0.72685 0.21671 0.55091 0.0
C545 C 0.75264 0.17396 0.51283 0.0
C546 C 0.71632 0.17936 0.51511 0.0
O547 O 0.89504 0.10681 0.50829 0.0
O548 O 0.84866 0.1426 0.4952 0.0
O549 O 0.80843 0.22216 0.50558 0.0
O550 O 0.86508 0.21869 0.5032 0.0
O551 O 0.92152 0.15122 0.52379 0.0
O552 O 0.8917 0.19651 0.54016 0.0
O553 O 0.81955 0.16189 0.56552 0.0
O554 O 0.85759 0.11892 0.58018 0.0
O555 O 0.90979 0.15233 0.57523 0.0
O556 O 0.94726 0.10857 0.57114 0.0
O557 O 0.81568 0.1276 0.51802 0.0
O558 O 0.84216 0.09101 0.54742 0.0
C559 C 0.87318 0.11805 0.49098 0.0
C560 C 0.92101 0.18468 0.53017 0.0
C561 C 0.84047 0.27477 0.51023 0.0
C562 C 0.824 0.33673 0.51178 0.0
C563 C 0.86346 0.31283 0.54295 0.0
C564 C 0.86062 0.27989 0.53185 0.0
C565 C 0.84541 0.34129 0.53287 0.0
C566 C 0.82129 0.30333 0.50044 0.0
C567 C 0.83745 0.23873 0.50005 0.0
C568 C 0.71498 0.2383 0.57046 0.0
C569 C 0.73909 0.25264 0.5874 0.0
H570 H 0.67519 0.20512 0.53583 0.0
C571 C 0.82991 0.13964 0.58293 0.0
C572 C 0.8155 0.09958 0.53279 0.0
C573 C 0.95343 0.14469 0.60673 0.0
C574 C 1.00508 0.14497 0.63342 0.0
C575 C 0.94889 0.16704 0.64891 0.0
C576 C 0.93318 0.15974 0.62588 0.0
C577 C 0.98471 0.15966 0.65274 0.0
C578 C 0.98894 0.13737 0.61066 0.0
C579 C 0.94029 0.13906 0.58151 0.0
H580 H 0.87921 0.31611 0.5596 0.0
H581 H 0.87353 0.25807 0.54059 0.0
H582 H 0.84734 0.36677 0.54197 0.0
H583 H 0.80435 0.29962 0.4844 0.0
H584 H 0.93333 0.17857 0.66376 0.0
H585 H 0.90561 0.16605 0.62304 0.0
H586 H 0.99642 0.16547 0.67067 0.0
H587 H 1.00406 0.12522 0.59575 0.0
C588 C 0.27089 0.65421 0.29205 0.0
C589 C 0.28626 0.69917 0.26143 0.0
C590 C 0.26077 0.67913 0.27456 0.0
C591 C 0.32223 0.69297 0.26577 0.0
C592 C 0.30689 0.64905 0.29741 0.0
C593 C 0.33254 0.66804 0.2838 0.0
N594 N 0.24538 0.63679 0.30504 0.0
C595 C 0.25394 0.61566 0.32487 0.0
C596 C 0.31594 0.62589 0.31683 0.0
C597 C 0.28931 0.60948 0.33084 0.0
Gd598 Gd 0.11648 0.58364 0.27069 0.0
Gd599 Gd 0.18674 0.6477 0.29312 0.0
N600 N 0.22587 0.68516 0.27142 0.0
C601 C 0.27478 0.72547 0.24484 0.0
C602 C 0.2145 0.71185 0.25613 0.0
C603 C 0.23872 0.73203 0.24235 0.0
H604 H 0.18664 0.71697 0.25409 0.0
H605 H 0.22956 0.75265 0.22987 0.0
H606 H 0.12876 0.49707 0.26508 0.0
H607 H 0.23347 0.60318 0.33592 0.0
H608 H 0.10689 0.44211 0.28548 0.0
H609 H 0.29352 0.74135 0.2343 0.0
H610 H 0.34224 0.70797 0.25578 0.0
H611 H 0.09789 0.65228 0.31225 0.0
H612 H 0.3433 0.62128 0.3216 0.0
H613 H 0.29598 0.5922 0.34629 0.0
H614 H 0.038 0.48349 0.3548 0.0
H615 H 0.36036 0.66426 0.2875 0.0
H616 H 0.03771 0.60749 0.3716 0.0
H617 H 0.06519 0.65929 0.351 0.0
N618 N 0.08989 0.5966 0.30975 0.0
C619 C 0.07556 0.56741 0.32128 0.0
C620 C 0.08641 0.62916 0.32043 0.0
C621 C 0.05221 0.60404 0.3543 0.0
C622 C 0.06771 0.63333 0.34275 0.0
C623 C 0.05623 0.57056 0.34375 0.0
H624 H 0.02694 0.54229 0.37246 0.0
N625 N 0.10305 0.53081 0.29094 0.0
C626 C 0.08196 0.53374 0.31145 0.0
C627 C 0.07788 0.46995 0.31396 0.0
C628 C 0.06904 0.50319 0.32363 0.0
C629 C 0.11217 0.49864 0.28153 0.0
C630 C 0.09975 0.46768 0.29294 0.0
O631 O 0.18801 0.64471 0.25141 0.0
O632 O 0.14786 0.60383 0.23643 0.0
O633 O 0.10019 0.55022 0.23948 0.0
O634 O 0.06155 0.57386 0.26384 0.0
O635 O 0.14138 0.67742 0.27478 0.0
O636 O 0.09491 0.63945 0.26731 0.0
O637 O 0.14717 0.55929 0.30297 0.0
O638 O 0.16884 0.60807 0.32315 0.0
O639 O 0.15771 0.66311 0.32634 0.0
O640 O 0.19989 0.69641 0.31163 0.0
O641 O 0.17078 0.56339 0.26037 0.0
O642 O 0.20852 0.5923 0.28758 0.0
C643 C 0.17442 0.62633 0.23315 0.0
C644 C 0.10831 0.67157 0.26852 0.0
C645 C 0.04058 0.55546 0.22539 0.0
C646 C 0.97906 0.54634 0.21436 0.0
C647 C 1.02032 0.57182 0.18418 0.0
C648 C 0.04755 0.56964 0.20167 0.0
C649 C 0.98622 0.56029 0.19045 0.0
C650 C 1.00663 0.54372 0.23154 0.0
C651 C 0.06696 0.55327 0.24503 0.0
C652 C 0.04848 0.50666 0.34531 0.0
C653 C 0.04218 0.54019 0.35536 0.0
H654 H 0.06837 0.44587 0.32281 0.0
C655 C 0.16009 0.5743 0.32303 0.0
C656 C 0.20089 0.56568 0.27258 0.0
C657 C 0.19932 0.68522 0.35485 0.0
C658 C 0.25577 0.68171 0.37651 0.0
C659 C 0.20091 0.66951 0.39879 0.0
C660 C 0.18167 0.67604 0.37701 0.0
C661 C 0.23774 0.6724 0.39863 0.0
C662 C 0.23619 0.68768 0.35485 0.0
C663 C 0.18035 0.68834 0.33101 0.0
H664 H 0.02555 0.58274 0.16581 0.0
H665 H 0.07368 0.5791 0.19677 0.0
H666 H 0.96544 0.56278 0.17675 0.0
H667 H 1.00175 0.53238 0.24992 0.0
H668 H 0.18722 0.66229 0.41586 0.0
H669 H 0.15323 0.6732 0.37734 0.0
H670 H 0.25186 0.66817 0.41591 0.0
H671 H 0.25003 0.69343 0.3376 0.0
C672 C 0.7824 0.72635 0.72647 0.0
C673 C 0.72198 0.71774 0.7408 0.0
C674 C 0.75839 0.71121 0.7433 0.0
C675 C 0.71001 0.73972 0.72139 0.0
C676 C 0.77035 0.74828 0.70693 0.0
C677 C 0.7341 0.75501 0.70458 0.0
N678 N 0.81731 0.71808 0.72846 0.0
C679 C 0.84161 0.73255 0.71237 0.0
C680 C 0.79502 0.76242 0.69007 0.0
C681 C 0.83076 0.75456 0.69284 0.0
Gd682 Gd 0.89244 0.60878 0.74033 0.0
Gd683 Gd 0.83181 0.68267 0.76321 0.0
N684 N 0.77062 0.69016 0.76208 0.0
C685 C 0.69861 0.70193 0.75789 0.0
C686 C 0.74807 0.67534 0.77915 0.0
C687 C 0.71173 0.6807 0.77715 0.0
H688 H 0.75816 0.65982 0.79455 0.0
H689 H 0.69388 0.66872 0.7906 0.0
H690 H 0.97155 0.61946 0.76641 0.0
H691 H 0.86928 0.72656 0.71415 0.0
H692 H 1.02189 0.58407 0.78011 0.0
H693 H 0.67043 0.70618 0.75649 0.0
H694 H 0.68212 0.74505 0.71921 0.0
H695 H 0.84054 0.55155 0.70728 0.0
H696 H 0.78675 0.77936 0.6748 0.0
H697 H 0.84999 0.76542 0.67989 0.0
H698 H 0.99278 0.46589 0.75518 0.0
H699 H 0.72438 0.77181 0.68966 0.0
H700 H 0.88434 0.44842 0.71143 0.0
H701 H 0.83708 0.48896 0.69786 0.0
N702 N 0.88863 0.54824 0.72795 0.0
C703 C 0.91485 0.52622 0.7352 0.0
C704 C 0.86119 0.53496 0.71425 0.0
C705 C 0.88577 0.47621 0.71618 0.0
C706 C 0.8591 0.49898 0.70853 0.0
C707 C 0.91432 0.48976 0.72947 0.0
H708 H 0.94248 0.44009 0.73272 0.0
N709 N 0.94251 0.57567 0.75218 0.0
C710 C 0.94282 0.5405 0.74775 0.0
C711 C 1.00005 0.53496 0.76706 0.0
C712 C 0.97151 0.5191 0.75503 0.0
C713 C 0.97079 0.59138 0.7634 0.0
C714 C 0.99975 0.57135 0.77112 0.0
O715 O 0.81934 0.66588 0.72311 0.0
O716 O 0.84315 0.61073 0.71609 0.0
O717 O 0.89206 0.65466 0.71567 0.0
O718 O 0.93295 0.61506 0.71209 0.0
O719 O 0.80814 0.62976 0.77372 0.0
O720 O 0.83645 0.58913 0.74797 0.0
O721 O 0.89324 0.61124 0.78247 0.0
O722 O 0.8429 0.642 0.79459 0.0
O723 O 0.8057 0.72515 0.78373 0.0
O724 O 0.86171 0.71714 0.78757 0.0
O725 O 0.91749 0.64932 0.76603 0.0
O726 O 0.88796 0.69673 0.75167 0.0
C727 C 0.82127 0.6365 0.71006 0.0
C728 C 0.80917 0.59951 0.76161 0.0
C729 C 0.90712 0.63727 0.67533 0.0
C730 C 0.89322 0.59701 0.64143 0.0
C731 C 0.88313 0.65999 0.63647 0.0
C732 C 0.89548 0.66585 0.66074 0.0
C733 C 0.88226 0.62568 0.62669 0.0
C734 C 0.90566 0.60309 0.66556 0.0
C735 C 0.91693 0.64189 0.70161 0.0
C736 C 0.97103 0.48276 0.74972 0.0
C737 C 0.94244 0.4681 0.73695 0.0
H738 H 1.02259 0.51949 0.77294 0.0
C739 C 0.86925 0.61974 0.79931 0.0
C740 C 0.91698 0.6832 0.76086 0.0
C741 C 0.8423 0.77516 0.77856 0.0
C742 C 0.82316 0.83534 0.76976 0.0
C743 C 0.87555 0.81261 0.74957 0.0
C744 C 0.87008 0.78026 0.76131 0.0
C745 C 0.85239 0.84014 0.75386 0.0
C746 C 0.81853 0.80303 0.78261 0.0
C747 C 0.83575 0.73955 0.78934 0.0
H748 H 0.87417 0.68208 0.62524 0.0
H749 H 0.89547 0.69243 0.66821 0.0
H750 H 0.87298 0.62149 0.60784 0.0
H751 H 0.91434 0.58076 0.67676 0.0
H752 H 0.89733 0.81603 0.73662 0.0
H753 H 0.88726 0.75918 0.75601 0.0
H754 H 0.85692 0.86511 0.74431 0.0
H755 H 0.79583 0.7991 0.7947 0.0
C756 C 0.07191 0.03189 0.97887 0.0
C757 C 0.08069 0.97112 0.9927 0.0
C758 C 0.08688 1.00766 0.99553 0.0
C759 C 0.05908 0.95925 0.97321 0.0
C760 C 0.05046 1.01995 0.9592 0.0
C761 C 0.04393 0.98357 0.95659 0.0
N762 N 0.08004 0.06697 0.9811 0.0
C763 C 0.06619 0.09144 0.96499 0.0
C764 C 0.0366 0.04487 0.94249 0.0
C765 C 0.04448 0.08071 0.94542 0.0
Gd766 Gd 0.18916 0.14281 0.99242 0.0
Gd767 Gd 0.11489 0.08109 1.01596 0.0
N768 N 0.10759 1.01978 1.01439 0.0
C769 C 0.09651 0.94754 1.00953 0.0
C770 C 0.12254 0.99704 1.03113 0.0
C771 C 0.11751 0.96056 1.02881 0.0
H772 H 0.138 1.00711 1.04645 0.0
H773 H 0.12959 0.94253 1.04199 0.0
H774 H 0.18707 0.21414 1.0286 0.0
H775 H 0.07229 0.11918 0.96683 0.0
H776 H 0.22785 0.25734 1.04676 0.0
H777 H 0.09254 0.91925 1.00787 0.0
H778 H 0.05398 0.93126 0.97079 0.0
H779 H 0.2383 0.09581 0.95033 0.0
H780 H 1.01994 0.03669 0.92716 0.0
H781 H 0.03391 0.1001 0.93253 0.0
H782 H 0.34061 0.22658 1.01214 0.0
H783 H 0.02746 0.97392 0.9416 0.0
H784 H 0.34471 0.131 0.95384 0.0
H785 H 0.29926 0.09115 0.93666 0.0
N786 N 0.24744 0.13812 0.976 0.0
C787 C 0.27216 0.1603 0.98538 0.0
C788 C 0.25703 0.11369 0.95841 0.0
C789 C 0.31762 0.13324 0.96015 0.0
C790 C 0.29205 0.11078 0.9504 0.0
C791 C 0.30782 0.15859 0.97773 0.0
H792 H 0.35992 0.18146 0.98209 0.0
N793 N 0.22698 0.1865 1.00852 0.0
C794 C 0.26151 0.18537 1.00223 0.0
C795 C 0.27361 0.23578 1.02843 0.0
C796 C 0.28587 0.20989 1.012 0.0
C797 C 0.2147 0.21236 1.02401 0.0
C798 C 0.23777 0.23714 1.03433 0.0
O799 O 0.13252 0.06712 0.97636 0.0
O800 O 0.18114 0.09963 0.96373 0.0
O801 O 0.14385 0.14989 0.96836 0.0
O802 O 0.18594 0.18966 0.96967 0.0
O803 O 0.16819 0.05834 1.02499 0.0
O804 O 0.20606 0.08558 0.99639 0.0
O805 O 0.19152 0.13839 1.03422 0.0
O806 O 0.15455 0.09257 1.04776 0.0
O807 O 0.07219 0.05422 1.03622 0.0
O808 O 0.08024 0.11027 1.04073 0.0
O809 O 0.14887 0.16612 1.01948 0.0
O810 O 0.10201 0.13729 1.00423 0.0
C811 C 0.15748 0.07466 0.96003 0.0
C812 C 0.19664 0.05859 1.01076 0.0
C813 C 0.14817 0.19132 0.93481 0.0
C814 C 0.14548 0.24069 0.90569 0.0
C815 C 0.12576 0.18218 0.89307 0.0
C816 C 0.13388 0.16873 0.91678 0.0
C817 C 0.13166 0.21802 0.88743 0.0
C818 C 0.15374 0.22685 0.92916 0.0
C819 C 0.15536 0.18051 0.96043 0.0
C820 C 0.32147 0.20807 1.0048 0.0
C821 C 0.33244 0.18241 0.98769 0.0
H822 H 0.29145 0.25509 1.03635 0.0
C823 C 0.17979 0.11658 1.05165 0.0
C824 C 0.11501 0.16569 1.01469 0.0
C825 C 1.02256 0.09111 1.03132 0.0
C826 C 0.9622 0.07312 1.0228 0.0
C827 C 0.98633 0.12492 1.00218 0.0
C828 C 1.01832 0.11884 1.01384 0.0
C829 C 0.95826 0.10234 1.00673 0.0
C830 C 0.99413 0.06791 1.03562 0.0
C831 C 0.05778 0.08419 1.04214 0.0
H832 H 0.11491 0.16481 0.87904 0.0
H833 H 0.1289 0.14108 0.92099 0.0
H834 H 0.1255 0.22794 0.86895 0.0
H835 H 0.16533 0.24379 0.94325 0.0
H836 H 0.98359 0.14665 0.98907 0.0
H837 H 0.03982 0.13557 1.00836 0.0
H838 H 0.9336 0.10717 0.99714 0.0
H839 H 0.99734 0.0452 1.04785 0.0
C840 C 0.78367 0.3225 0.23951 0.0
C841 C 0.83879 0.34094 0.25829 0.0
C842 C 0.80169 0.34215 0.25716 0.0
C843 C 0.85753 0.32076 0.24074 0.0
C844 C 0.80226 0.30115 0.22247 0.0
C845 C 0.83931 0.30089 0.22289 0.0
N846 N 0.74785 0.32344 0.23951 0.0
C847 C 0.72891 0.30152 0.22436 0.0
C848 C 0.78303 0.28025 0.20582 0.0
C849 C 0.7462 0.28012 0.20698 0.0
Gd850 Gd 0.65742 0.43282 0.24337 0.0
Gd851 Gd 0.7218 0.36238 0.26818 0.0
N852 N 0.78282 0.36087 0.27413 0.0
C853 C 0.85585 0.35929 0.27744 0.0
C854 C 0.79905 0.37709 0.29367 0.0
C855 C 0.83585 0.37707 0.29539 0.0
H856 H 0.78354 0.39052 0.30771 0.0
H857 H 0.84873 0.39066 0.31059 0.0
H858 H 0.58234 0.42276 0.27431 0.0
H859 H 0.70045 0.30137 0.22508 0.0
H860 H 0.5365 0.45916 0.29441 0.0
H861 H 0.88434 0.35911 0.27892 0.0
H862 H 0.88608 0.3197 0.24119 0.0
H863 H 0.70189 0.48808 0.20433 0.0
H864 H 0.79635 0.26357 0.19238 0.0
H865 H 0.73113 0.26356 0.1945 0.0
H866 H 0.56953 0.57849 0.27304 0.0
H867 H 0.85409 0.28488 0.20981 0.0
H868 H 0.66883 0.59405 0.21813 0.0
H869 H 0.70854 0.55186 0.19693 0.0
N870 N 0.66136 0.49347 0.23174 0.0
C871 C 0.63877 0.51622 0.24283 0.0
C872 C 0.68534 0.50593 0.21465 0.0
C873 C 0.66648 0.56599 0.22205 0.0
C874 C 0.68892 0.54227 0.21008 0.0
C875 C 0.64049 0.55301 0.2383 0.0
H876 H 0.61668 0.60376 0.24653 0.0
N877 N 0.61125 0.4667 0.26026 0.0
C878 C 0.6126 0.50225 0.2576 0.0
C879 C 0.55951 0.50854 0.28221 0.0
C880 C 0.58689 0.52428 0.26847 0.0
C881 C 0.58394 0.45112 0.27285 0.0
C882 C 0.55786 0.47171 0.2842 0.0
O883 O 0.72931 0.37299 0.22623 0.0
O884 O 0.70601 0.42834 0.21836 0.0
O885 O 0.65211 0.39018 0.21656 0.0
O886 O 0.61434 0.43316 0.21704 0.0
O887 O 0.74434 0.41719 0.27357 0.0
O888 O 0.71328 0.45431 0.24685 0.0
O889 O 0.65654 0.42853 0.28561 0.0
O890 O 0.71144 0.40713 0.29633 0.0
O891 O 0.7412 0.3184 0.29055 0.0
O892 O 0.68857 0.33871 0.29679 0.0
O893 O 0.63671 0.388 0.26801 0.0
O894 O 0.66947 0.34477 0.25145 0.0
C895 C 0.72704 0.40189 0.21236 0.0
C896 C 0.74163 0.44616 0.25993 0.0
C897 C 0.63464 0.41277 0.17793 0.0
C898 C 0.64533 0.4547 0.144 0.0
C899 C 0.65524 0.39205 1.13756 0.0
C900 C 0.64498 0.38499 0.16225 0.0
C901 C 0.65519 0.4268 1.12833 0.0
C902 C 0.63506 0.44744 0.16864 0.0
C903 C 0.62713 0.40642 0.20455 0.0
C904 C 0.58892 0.56106 0.26476 0.0
C905 C 0.61574 0.57543 0.24968 0.0
H906 H 0.5392 0.52448 0.29089 0.0
C907 C 0.6831 0.42643 0.30132 0.0
C908 C 0.63897 0.35514 0.26049 0.0
C909 C 0.6958 0.27647 0.2982 0.0
C910 C 0.70411 0.21286 0.29221 0.0
C911 C 0.64503 0.23781 0.29331 0.0
C912 C 0.65908 0.27127 0.29756 0.0
C913 C 0.66728 0.20887 0.29043 0.0
C914 C 0.71825 0.24699 0.29572 0.0
C915 C 0.71041 0.31263 0.3007 0.0
H916 H 0.66326 0.37055 1.12556 0.0
H917 H 0.64561 0.35802 0.16922 0.0
H918 H 0.6628 0.4319 1.10913 0.0
H919 H 0.62705 0.46911 0.18056 0.0
H920 H 0.61673 0.23427 0.29231 0.0
H921 H 0.64109 0.29314 0.3001 0.0
H922 H 0.65554 0.18323 0.28695 0.0
H923 H 0.74656 0.25055 0.29695 0.0
C924 C 0.47691 0.0252 0.48231 0.0
C925 C 0.46338 0.08641 0.49215 0.0
C926 C 0.45931 0.04992 0.497 0.0
C927 C 0.48636 0.09775 0.47307 0.0
C928 C 0.49918 0.03656 0.46268 0.0
C929 C 0.50426 0.07292 0.45842 0.0
N930 N 0.46981 0.9901 0.48594 0.0
C931 C 0.48563 0.96513 0.47134 0.0
C932 C 0.51497 1.01106 0.44746 0.0
C933 C 0.50816 0.97524 0.45182 0.0
Gd934 Gd 0.36904 0.90918 0.49467 0.0
Gd935 Gd 0.43386 0.97682 0.52079 0.0
N936 N 0.43649 0.03822 0.51492 0.0
C937 C 0.44342 0.11041 0.50613 0.0
C938 C 0.41668 0.06145 0.52844 0.0
C939 C 0.41983 0.09785 0.52425 0.0
H940 H 0.39912 0.05193 0.54293 0.0
H941 H 0.4042 0.1162 0.53508 0.0
H942 H 0.37062 0.8399 0.53339 0.0
H943 H 0.48122 0.93734 0.47452 0.0
H944 H 0.33721 0.78575 0.54229 0.0
H945 H 0.44571 0.13865 0.50288 0.0
H946 H 0.48996 0.1257 0.46917 0.0
H947 H 0.31595 0.95814 0.4557 0.0
H948 H 0.53226 1.01875 0.43219 0.0
H949 H 0.52034 0.95535 0.44018 0.0
H950 H 0.23751 0.79284 0.48765 0.0
H951 H 0.52139 0.08211 0.44348 0.0
H952 H 0.22536 0.89743 0.43763 0.0
H953 H 0.26105 0.95186 0.43321 0.0
N954 N 0.3144 0.90649 0.4726 0.0
C955 C 0.2943 0.8771 0.47583 0.0
C956 C 0.30213 0.93347 0.45774 0.0
C957 C 0.25016 0.89969 0.44749 0.0
C958 C 0.27024 0.93036 0.44492 0.0
C959 C 0.26186 0.87272 0.46331 0.0
H960 H 0.21693 0.83805 0.45786 0.0
N961 N 0.3359 0.85818 0.50495 0.0
C962 C 0.30552 0.85203 0.49258 0.0
C963 C 0.29696 0.79711 0.51519 0.0
C964 C 0.28514 0.82139 0.49731 0.0
C965 C 0.34711 0.83488 0.52283 0.0
C966 C 0.32801 0.80405 0.52814 0.0
O967 O 0.41437 0.99343 0.48198 0.0
O968 O 0.37384 0.95353 0.46628 0.0
O969 O 0.41853 0.91487 0.47477 0.0
O970 O 0.38899 0.86538 0.47339 0.0
O971 O 0.37816 0.99151 0.53009 0.0
O972 O 0.34448 0.96346 0.5 0.0
O973 O 0.35902 0.91223 0.53602 0.0
O974 O 0.39607 0.95579 0.55198 0.0
O975 O 0.45813 1.00857 0.54982 0.0
O976 O 0.48284 0.95889 0.53757 0.0
O977 O 0.40767 0.88864 0.52394 0.0
O978 O 0.45518 0.92183 0.51376 0.0
C979 C 0.39265 0.9828 0.46435 0.0
C980 C 0.35044 0.98982 0.51551 0.0
C981 C 0.428 0.87675 0.44043 0.0
C982 C 0.43449 0.83101 0.40922 0.0
C983 C 0.42902 0.89304 0.39678 0.0
C984 C 0.42584 0.90277 0.4218 0.0
C985 C 0.43208 0.85726 0.39041 0.0
C986 C 0.43592 0.84198 0.43412 0.0
C987 C 0.4172 0.88273 0.46617 0.0
C988 C 0.25344 0.81626 0.48438 0.0
C989 C 0.24177 0.84196 0.46741 0.0
H990 H 0.28211 0.77326 0.51937 0.0
C991 C 0.37065 0.93149 0.55469 0.0
C992 C 0.44204 0.89146 0.52117 0.0
C993 C 0.51306 0.99245 0.56908 0.0
C994 C 0.57411 1.00837 0.57713 0.0
C995 C 0.53615 0.98684 0.61085 0.0
C996 C 0.50818 0.98368 0.59424 0.0
C997 C 0.56896 0.99891 0.60241 0.0
C998 C 0.5458 1.00481 0.56047 0.0
C999 C 0.48446 0.98681 0.55162 0.0
H1000 H 0.42677 0.91296 0.38227 0.0
H1001 H 0.42068 0.93008 0.42649 0.0
H1002 H 0.43055 0.85035 0.37088 0.0
H1003 H 0.43944 0.82286 0.44906 0.0
H1004 H 0.5325 0.97963 0.63028 0.0
H1005 H 0.48293 0.97385 0.6009 0.0
H1006 H 0.59039 1.00045 0.61566 0.0
H1007 H 0.54897 1.0119 0.54093 0.0
C1008 C 0.13619 0.51264 0.54585 0.0
C1009 C 0.0921 0.52612 0.5147 0.0
C1010 C 0.11395 0.5017 0.52718 0.0
C1011 C 0.09422 0.56218 0.52072 0.0
C1012 C 0.1376 0.54859 0.55268 0.0
C1013 C 0.11698 0.57342 0.53969 0.0
N1014 N 0.15507 0.48774 0.55822 0.0
C1015 C 0.17486 0.49693 0.57848 0.0
C1016 C 0.15901 0.55834 0.57272 0.0
C1017 C 0.17746 0.5323 0.58583 0.0
Gd1018 Gd 0.22028 0.3621 0.51709 0.0
Gd1019 Gd 0.15236 0.42938 0.54272 0.0
N1020 N 0.11231 0.46672 0.52217 0.0
C1021 C 0.06817 0.51338 0.49703 0.0
C1022 C 0.0878 0.45388 0.50591 0.0
C1023 C 0.06574 0.47701 0.49283 0.0
H1024 H 0.08599 0.42579 0.50254 0.0
H1025 H 0.04692 0.46677 0.47955 0.0
H1026 H 0.27781 0.39987 0.4774 0.0
H1027 H 0.18908 0.47723 0.589 0.0
H1028 H 0.34246 0.40752 0.47377 0.0
H1029 H 0.05094 0.53127 0.48698 0.0
H1030 H 0.07785 0.58144 0.51123 0.0
H1031 H 0.20648 0.29586 0.55782 0.0
H1032 H 0.16089 0.58568 0.57854 0.0
H1033 H 0.19362 0.53944 0.60164 0.0
H1034 H 0.38875 0.3358 0.54037 0.0
H1035 H 0.11784 0.6012 0.54454 0.0
H1036 H 0.30655 0.26612 0.5883 0.0
H1037 H 0.24165 0.25898 0.5868 0.0
N1038 N 0.25106 0.32405 0.54385 0.0
C1039 C 0.28673 0.32707 0.54339 0.0
C1040 C 0.2348 0.29897 0.55837 0.0
C1041 C 0.29126 0.28232 0.57559 0.0
C1042 C 0.25462 0.27816 0.57479 0.0
C1043 C 0.30783 0.30659 0.55949 0.0
H1044 H 0.36138 0.2952 0.57098 0.0
N1045 N 0.28095 0.36757 0.50995 0.0
C1046 C 0.30212 0.34986 0.5261 0.0
C1047 C 0.35365 0.37454 0.50575 0.0
C1048 C 0.33909 0.35291 0.5245 0.0
C1049 C 0.29492 0.38707 0.49078 0.0
C1050 C 0.33146 0.39135 0.48864 0.0
O1051 O 0.15702 0.43436 0.50082 0.0
O1052 O 0.20742 0.40485 0.48764 0.0
O1053 O 0.24162 0.31936 0.49466 0.0
O1054 O 0.18768 0.33639 0.48936 0.0
O1055 O 0.13565 0.38389 0.51772 0.0
O1056 O 0.16937 0.34239 0.53521 0.0
O1057 O 0.22809 0.37034 0.55907 0.0
O1058 O 0.19616 0.41976 0.57107 0.0
O1059 O 0.13869 0.38744 0.56896 0.0
O1060 O 0.10328 0.43208 0.56274 0.0
O1061 O 0.23697 0.41922 0.51274 0.0
O1062 O 0.20836 0.44962 0.54416 0.0
C1063 C 0.1808 0.42699 0.48369 0.0
C1064 C 0.13864 0.35128 0.52594 0.0
C1065 C 0.19831 0.27475 0.48851 0.0
C1066 C 0.20921 0.21275 0.49904 0.0
C1067 C 0.14944 0.23314 0.4918 0.0
C1068 C 0.16205 0.26715 0.48686 0.0
C1069 C 0.17278 0.20613 0.49804 0.0
C1070 C 0.22191 0.24714 0.49426 0.0
C1071 C 0.21089 0.31164 0.48529 0.0
C1072 C 0.36027 0.33363 0.54118 0.0
C1073 C 0.34468 0.31049 0.55861 0.0
H1074 H 0.38196 0.37771 0.50395 0.0
C1075 C 0.22011 0.39511 0.57543 0.0
C1076 C 0.23573 0.44446 0.52945 0.0
C1077 C 0.09571 0.40007 0.60019 0.0
C1078 C 0.04489 0.40641 0.62759 0.0
C1079 C 0.09963 0.38155 0.64344 0.0
C1080 C 0.11526 0.38543 0.61985 0.0
C1081 C 0.06456 0.39193 0.64736 0.0
C1082 C 0.06103 0.41064 0.60425 0.0
C1083 C 0.10869 0.40227 0.57454 0.0
H1084 H 0.12144 0.2277 0.49079 0.0
H1085 H 0.14325 0.28764 0.48215 0.0
H1086 H 0.16244 0.17979 0.50147 0.0
H1087 H 0.24999 0.25235 0.49539 0.0
H1088 H 0.11464 0.37029 0.65867 0.0
H1089 H 0.1422 0.3768 0.61699 0.0
H1090 H 0.05289 0.38857 0.66571 0.0
H1091 H 0.0466 0.42264 0.58894 0.0
C1092 C 0.77917 0.8983 0.30387 0.0
C1093 C 0.75901 0.85615 0.2731 0.0
C1094 C 0.78639 0.87523 0.28464 0.0
C1095 C 0.72395 0.86179 0.28065 0.0
C1096 C 0.74415 0.90333 0.31206 0.0
C1097 C 0.71653 0.88538 0.30008 0.0
N1098 N 0.80659 0.91471 0.3152 0.0
C1099 C 0.80087 0.93566 0.33552 0.0
C1100 C 0.73804 0.92575 0.33232 0.0
C1101 C 0.76657 0.94176 0.34422 0.0
Gd1102 Gd 0.93128 0.97265 0.2745 0.0
Gd1103 Gd 0.86268 0.90656 0.29694 0.0
N1104 N 0.82048 0.87022 0.27801 0.0
C1105 C 0.76781 0.83145 0.25471 0.0
C1106 C 0.82941 0.84518 0.26082 0.0
C1107 C 0.80323 0.82568 0.24875 0.0
H1108 H 0.85674 0.8407 0.25606 0.0
H1109 H 0.81038 0.80627 0.23484 0.0
H1110 H 0.90808 0.05596 0.26379 0.0
H1111 H 0.82251 0.9484 0.34484 0.0
H1112 H 0.92263 0.11528 0.28044 0.0
H1113 H 0.74755 0.81624 0.24538 0.0
H1114 H 0.70249 0.84758 0.2719 0.0
H1115 H 0.96268 0.91148 0.31812 0.0
H1116 H 0.71151 0.93042 0.33915 0.0
H1117 H 0.76218 0.95886 0.36007 0.0
H1118 H 0.99823 0.09101 0.35014 0.0
H1119 H 0.68942 0.88906 0.30601 0.0
H1120 H 1.01658 0.97029 0.37369 0.0
H1121 H 0.99682 0.91318 0.35645 0.0
N1122 N 0.96109 0.96762 0.31317 0.0
C1123 C 0.97166 0.99958 0.32257 0.0
C1124 C 0.97009 0.9369 0.32516 0.0
C1125 C 1.00113 0.96994 0.35671 0.0
C1126 C 0.98992 0.93765 0.34708 0.0
C1127 C 0.99197 1.00141 0.34455 0.0
H1128 H 1.01785 0.03629 0.37075 0.0
N1129 N 0.93853 0.02882 0.29096 0.0
C1130 C 0.96044 0.03093 0.31098 0.0
C1131 C 0.95583 0.09471 0.30971 0.0
C1132 C 0.96941 0.06411 0.32101 0.0
C1133 C 0.92494 0.05833 0.27994 0.0
C1134 C 0.93333 0.09179 0.2892 0.0
O1135 O 0.85695 0.91404 0.25586 0.0
O1136 O 0.90065 0.9512 0.24018 0.0
O1137 O 0.9491 1.00437 0.24236 0.0
O1138 O 0.98647 0.98152 0.26803 0.0
O1139 O 0.90339 0.88296 0.27013 0.0
O1140 O 0.95255 0.91687 0.27548 0.0
O1141 O 0.90069 0.99312 0.30822 0.0
O1142 O 0.88197 0.94261 0.32826 0.0
O1143 O 0.90478 0.88483 0.31921 0.0
O1144 O 0.85376 0.85725 0.31597 0.0
O1145 O 0.87655 0.99149 0.26467 0.0
O1146 O 0.84075 0.96223 0.29346 0.0
C1147 C 0.87204 0.93108 0.23729 0.0
C1148 C 0.93798 0.88605 0.27118 0.0
C1149 C 1.00961 0.99848 0.22968 0.0
C1150 C 0.07192 1.00698 0.21988 0.0
C1151 C 0.03276 0.97817 0.19019 0.0
C1152 C 1.00436 0.98188 0.20672 0.0
C1153 C 0.06636 0.99051 0.1967 0.0
C1154 C 0.04312 1.01115 0.23606 0.0
C1155 C 0.98207 1.00148 0.24862 0.0
C1156 C 0.9908 0.06572 0.34228 0.0
C1157 C 1.00196 0.03452 0.35403 0.0
H1158 H 0.96219 0.1207 0.31687 0.0
C1159 C 0.88972 0.97662 0.3285 0.0
C1160 C 0.84694 0.98847 0.27755 0.0
C1161 C 0.89061 0.83979 0.34921 0.0
C1162 C 0.88357 0.78506 0.37271 0.0
C1163 C 0.91658 0.83429 0.39024 0.0
C1164 C 0.91056 0.85433 0.3686 0.0
C1165 C 0.90322 0.79973 0.39234 0.0
C1166 C 0.87702 0.8057 0.35154 0.0
C1167 C 0.88578 0.85698 0.32507 0.0
H1168 H 0.02884 0.96528 0.17242 0.0
H1169 H 0.97866 0.97157 0.20174 0.0
H1170 H 0.08804 0.9866 0.18379 0.0
H1171 H 0.04668 1.0242 0.25388 0.0
H1172 H 0.93192 0.8454 0.40529 0.0
H1173 H 0.92164 0.8807 0.36695 0.0
H1174 H 0.90848 0.7845 0.40909 0.0
H1175 H 0.86111 0.79515 0.33649 0.0
C1176 C 0.40991 0.53519 1.04516 0.0
C1177 C 0.45745 0.52288 1.01628 0.0
C1178 C 0.4338 0.54671 1.02758 0.0
C1179 C 0.45525 0.48669 1.02222 0.0
C1180 C 0.40843 0.49914 1.05206 0.0
C1181 C 0.4307 0.47481 1.04008 0.0
N1182 N 0.3897 0.55975 1.05667 0.0
C1183 C 0.36861 0.55006 1.07637 0.0
C1184 C 0.38544 0.48888 1.07128 0.0
C1185 C 0.36573 0.51456 1.08369 0.0
Gd1186 Gd 0.32544 0.68571 1.01499 0.0
Gd1187 Gd 0.39289 0.61853 1.04106 0.0
N1188 N 0.43546 0.58179 1.02275 0.0
C1189 C 0.48327 0.53638 1.00003 0.0
C1190 C 0.46161 0.59536 1.00792 0.0
C1191 C 0.48566 0.57289 0.99612 0.0
H1192 H 0.46339 0.62352 1.00478 0.0
H1193 H 0.50591 0.58374 0.98398 0.0
H1194 H 0.26705 0.65185 0.9753 0.0
H1195 H 0.35355 0.5694 1.08653 0.0
H1196 H 0.2021 0.6474 0.97142 0.0
H1197 H 0.50197 0.519 0.99096 0.0
H1198 H 0.47297 0.46785 1.01361 0.0
H1199 H 0.34161 0.7496 1.05694 0.0
H1200 H 0.38343 0.46145 1.07713 0.0
H1201 H 0.34845 0.50708 1.09899 0.0
H1202 H 0.15803 0.71881 1.03864 0.0
H1203 H 0.42982 0.44696 1.04498 0.0
H1204 H 0.24249 0.78266 1.0875 0.0
H1205 H 0.30765 0.78678 1.08628 0.0
N1206 N 0.2961 0.724 1.04244 0.0
C1207 C 0.26031 0.72268 1.0419 0.0
C1208 C 0.31318 0.74774 1.05733 0.0
C1209 C 0.25725 0.76629 1.07464 0.0
C1210 C 0.29404 0.76874 1.07398 0.0
C1211 C 0.23988 0.74349 1.05819 0.0
H1212 H 0.18672 0.75692 1.06972 0.0
N1213 N 0.26473 0.68312 1.00808 0.0
C1214 C 0.24416 0.70124 1.02437 0.0
C1215 C 0.1919 0.67974 1.0037 0.0
C1216 C 0.20711 0.69998 1.02268 0.0
C1217 C 0.25025 0.66495 0.98873 0.0
C1218 C 0.21359 0.6625 0.98646 0.0
O1219 O 0.39164 0.6183 0.99869 0.0
O1220 O 0.33744 0.64102 0.98692 0.0
O1221 O 0.3049 0.72896 0.9924 0.0
O1222 O 0.35813 0.71018 0.9864 0.0
O1223 O 0.40983 0.66327 1.01511 0.0
O1224 O 0.37659 0.70517 1.03241 0.0
O1225 O 0.31627 0.67638 1.05677 0.0
O1226 O 0.34783 0.62671 1.06878 0.0
O1227 O 0.40264 0.66124 1.0672 0.0
O1228 O 0.44085 0.61879 1.06223 0.0
O1229 O 0.30753 0.6291 1.01076 0.0
O1230 O 0.33724 0.59706 1.04105 0.0
C1231 C 0.36604 0.62176 0.98229 0.0
C1232 C 0.40717 0.69591 1.02298 0.0
C1233 C 0.34946 0.77218 0.98545 0.0
C1234 C 0.34006 0.83527 0.99309 0.0
C1235 C 0.39959 0.81177 0.99006 0.0
C1236 C 0.38608 0.77821 0.98537 0.0
C1237 C 0.37686 0.84003 0.99411 0.0
C1238 C 0.32648 0.80101 0.98916 0.0
C1239 C 0.33568 0.73573 0.98254 0.0
C1240 C 0.18656 0.71962 1.03952 0.0
C1241 C 0.20291 0.74135 1.05721 0.0
H1242 H 0.16351 0.67797 1.00181 0.0
C1243 C 0.32362 0.6511 1.07299 0.0
C1244 C 0.3094 0.60296 1.02701 0.0
C1245 C 0.44431 0.65106 1.09958 0.0
C1246 C 0.49325 0.64598 1.12854 0.0
C1247 C 0.43678 0.66918 1.14259 0.0
C1248 C 0.42298 0.66502 1.11858 0.0
C1249 C 0.47177 0.65967 0.14764 0.0
C1250 C 0.479 0.64163 1.10473 0.0
C1251 C 0.43308 0.64822 1.07363 0.0
H1252 H 0.42784 0.81593 0.99048 0.0
H1253 H 0.40445 0.75686 0.98202 0.0
H1254 H 0.38819 0.86579 0.99785 0.0
H1255 H 0.29819 0.7969 0.98855 0.0
H1256 H 0.42036 0.67985 0.1573 0.0
H1257 H 0.39601 0.67283 1.11488 0.0
H1258 H 0.48197 0.66299 0.16633 0.0
H1259 H 0.4949 0.63021 1.08993 0.0
C1260 C 0.76057 0.16469 0.82225 0.0
C1261 C 0.7887 0.2041 0.7926 0.0
C1262 C 0.75943 0.18369 0.80041 0.0
C1263 C 0.81974 0.20358 0.80685 0.0
C1264 C 0.79087 0.16537 0.83739 0.0
C1265 C 0.82082 0.18423 0.82927 0.0
N1266 N 0.73092 0.14761 0.82955 0.0
C1267 C 0.7288 0.13254 0.85275 0.0
C1268 C 0.78962 0.14811 0.86058 0.0
C1269 C 0.75821 0.13209 0.86846 0.0
Gd1270 Gd 0.60891 0.09092 0.77573 0.0
Gd1271 Gd 0.68373 0.14453 0.8012 0.0
N1272 N 0.72869 0.18405 0.78769 0.0
C1273 C 0.78547 0.22518 0.77119 0.0
C1274 C 0.72491 0.20598 0.76744 0.0
C1275 C 0.75325 0.22643 0.75873 0.0
H1276 H 0.7003 0.20746 0.75747 0.0
H1277 H 0.75017 0.24317 0.74241 0.0
H1278 H 0.62604 1.01134 0.75071 0.0
H1279 H 0.70437 0.12089 0.85928 0.0
H1280 H 0.61129 0.94873 0.75921 0.0
H1281 H 0.80731 0.24123 0.76452 0.0
H1282 H 0.84263 0.21882 0.80108 0.0
H1283 H 0.56484 0.13881 0.81978 0.0
H1284 H 0.8123 0.148 0.87283 0.0
H1285 H 0.75654 0.1196 0.88668 0.0
H1286 H 0.52976 0.95352 0.82784 0.0
H1287 H 0.84452 0.18484 0.84049 0.0
H1288 H 0.50217 0.06656 0.86255 0.0
H1289 H 0.5223 0.12753 0.85347 0.0
N1290 N 0.57023 0.08441 0.80996 0.0
C1291 C 0.55854 0.05063 0.81412 0.0
C1292 C 0.55685 0.11193 0.82347 0.0
C1293 C 0.52101 0.07123 0.84761 0.0
C1294 C 0.53241 0.10569 0.8426 0.0
C1295 C 0.53402 0.0432 0.83334 0.0
H1296 H 0.50492 1.00192 0.85276 0.0
N1297 N 0.59572 0.03082 0.78107 0.0
C1298 C 0.57248 1.02309 0.79983 0.0
C1299 C 0.57689 0.96083 0.79014 0.0
C1300 C 0.56232 0.9878 0.80472 0.0
C1301 C 0.60928 1.00474 0.76637 0.0
C1302 C 0.60039 0.96935 0.77085 0.0
O1303 O 0.69035 0.14213 0.75956 0.0
O1304 O 0.64992 0.10142 0.74422 0.0
O1305 O 0.56727 0.06427 0.75476 0.0
O1306 O 0.57745 0.11983 0.74889 0.0
O1307 O 0.64911 0.17697 0.77474 0.0
O1308 O 0.59656 0.14901 0.78204 0.0
O1309 O 0.62434 0.07655 0.81655 0.0
O1310 O 0.68271 0.09185 0.82177 0.0
O1311 O 0.63319 0.14215 0.81957 0.0
O1312 O 0.66837 0.18662 0.82609 0.0
O1313 O 0.65963 0.0635 0.76614 0.0
O1314 O 0.70237 0.08878 0.79184 0.0
C1315 C 0.67736 0.12321 0.74124 0.0
C1316 C 0.61431 0.17758 0.77564 0.0
C1317 C 0.51819 0.10282 0.75531 0.0
C1318 C 0.45838 0.08426 0.76614 0.0
C1319 C 0.47799 0.14364 0.77595 0.0
C1320 C 0.51092 0.13615 0.76582 0.0
C1321 C 0.45182 0.11792 0.77613 0.0
C1322 C 0.49154 0.07685 0.75546 0.0
C1323 C 0.55452 0.09427 0.74705 0.0
C1324 C 0.53791 0.98048 0.82387 0.0
C1325 C 0.5237 1.00807 0.83804 0.0
H1326 H 0.56983 0.93338 0.79341 0.0
C1327 C 0.65471 0.0733 0.82854 0.0
C1328 C 0.69074 0.06323 0.77708 0.0
C1329 C 0.62562 0.17401 0.85708 0.0
C1330 C 0.61349 0.21307 0.8918 0.0
C1331 C 0.60249 0.14992 0.89588 0.0
C1332 C 0.61416 0.14483 0.87131 0.0
C1333 C 0.60259 0.18389 0.90629 0.0
C1334 C 0.62451 0.20771 0.86721 0.0
C1335 C 0.63809 0.17158 0.83136 0.0
H1336 H 0.47288 0.1694 0.78393 0.0
H1337 H 0.53084 0.15639 0.76687 0.0
H1338 H 0.42629 0.12439 0.78403 0.0
H1339 H 0.49691 0.05074 0.7481 0.0
H1340 H 0.59395 0.12744 0.90699 0.0
H1341 H 0.61436 0.11841 0.86364 0.0
H1342 H 0.59473 0.18733 0.92559 0.0
H1343 H 0.63405 0.22989 0.85608 0.0
H1344 H 0.42476 0.26116 0.269 0.0
H1345 H 0.49293 0.17072 0.26104 0.0
H1346 H 0.47571 0.30028 0.26728 0.0
H1347 H 0.54428 0.20974 0.2603 0.0
H1348 H 0.6307 0.2898 0.23818 0.0
H1349 H 0.57971 0.2502 0.23924 0.0
H1350 H 0.52431 0.3245 0.28613 0.0
H1351 H 0.57505 0.36389 0.28467 0.0
C1352 C 0.45066 0.24938 0.26731 0.0
C1353 C 0.45417 0.2123 0.2655 0.0
C1354 C 0.48031 0.27208 0.26641 0.0
C1355 C 0.51498 0.25882 0.26374 0.0
C1356 C 0.51845 0.22162 0.26206 0.0
C1357 C 0.48872 0.19891 0.26286 0.0
C1358 C 0.60754 0.29784 0.2486 0.0
C1359 C 0.60724 0.33066 0.26103 0.0
C1360 C 0.57807 0.2748 0.24941 0.0
C1361 C 0.54698 0.28357 0.26273 0.0
C1362 C 0.54692 0.31649 0.27516 0.0
C1363 C 0.57636 0.33945 0.27434 0.0
H1364 H 0.54073 0.67888 0.53249 0.0
H1365 H 0.62339 0.74593 0.50312 0.0
H1366 H 0.50123 0.72931 0.53446 0.0
H1367 H 0.5835 0.79621 0.50375 0.0
H1368 H 0.51426 0.89004 0.52357 0.0
H1369 H 0.55396 0.8398 0.52304 0.0
H1370 H 0.46452 0.76926 0.51685 0.0
H1371 H 0.42497 0.81983 0.51851 0.0
C1372 C 0.55067 0.70446 0.5265 0.0
C1373 C 0.58579 0.70795 0.51798 0.0
C1374 C 0.52759 0.73371 0.52729 0.0
C1375 C 0.53838 0.76781 0.51928 0.0
C1376 C 0.57366 0.77114 0.51071 0.0
C1377 C 0.59688 0.74194 0.51023 0.0
C1378 C 0.50292 0.86378 0.52239 0.0
C1379 C 0.46598 0.85943 0.52165 0.0
C1380 C 0.52598 0.83455 0.52176 0.0
C1381 C 0.51324 0.79946 0.51997 0.0
C1382 C 0.4761 0.79525 0.51892 0.0
C1383 C 0.45301 0.82458 0.51987 0.0
H1384 H 0.06997 0.85824 0.78519 0.0
H1385 H 0.1222 0.79165 0.73174 0.0
H1386 H 1.02113 0.81752 0.7873 0.0
H1387 H 0.07285 0.75104 0.73254 0.0
H1388 H 0.98303 0.67166 0.74019 0.0
H1389 H 0.03415 0.71049 0.74005 0.0
H1390 H 0.9746 0.78695 0.78306 0.0
H1391 H 0.92649 0.7458 0.7857 0.0
C1392 C 0.07075 0.83502 0.77347 0.0
C1393 C 0.10028 0.82874 0.75819 0.0
C1394 C 0.04217 0.81101 0.77455 0.0
C1395 C 0.04135 0.77961 0.76005 0.0
C1396 C 0.0712 0.77385 0.7445 0.0
C1397 C 0.10001 0.79766 0.74378 0.0
C1398 C 0.98138 0.69652 0.75007 0.0
C1399 C 0.94988 0.70576 0.76238 0.0
C1400 C 1.01086 0.71966 0.74965 0.0
C1401 C 1.00994 0.75353 0.76113 0.0
C1402 C 0.97816 0.76194 0.77382 0.0
C1403 C 0.94937 0.73833 0.77487 0.0
H1404 H 0.12717 0.23341 0.99605 0.0
H1405 H 0.05174 0.17366 1.03939 0.0
H1406 H 0.08656 0.28409 0.99566 0.0
H1407 H 1.01051 0.22285 1.0378 0.0
H1408 H 0.92978 0.30518 1.01031 0.0
H1409 H 0.97168 0.25611 1.01067 0.0
H1410 H 0.05748 0.32986 1.02029 0.0
H1411 H 1.01559 0.37889 1.02001 0.0
C1412 C 0.10192 0.23089 1.00544 0.0
C1413 C 0.09241 0.19853 1.01689 0.0
C1414 C 0.07841 0.26005 1.00517 0.0
C1415 C 0.04446 0.2578 1.01625 0.0
C1416 C 0.03568 0.22573 1.02836 0.0
C1417 C 0.05937 0.19705 1.02902 0.0
C1418 C 0.95749 0.31107 1.01278 0.0
C1419 C 0.96878 0.34643 1.01555 0.0
C1420 C 0.98176 0.28271 1.013 0.0
C1421 C 1.01844 0.2885 1.01562 0.0
C1422 C 0.02973 0.32392 1.01807 0.0
C1423 C 1.00543 0.35223 1.01819 0.0
H1424 H 0.55389 0.88081 1.02215 0.0
H1425 H 0.62102 0.78888 1.02149 0.0
H1426 H 0.50184 0.84225 1.02209 0.0
H1427 H 0.56976 0.75067 1.02252 0.0
H1428 H 0.47326 0.68574 1.00255 0.0
H1429 H 0.52366 0.72555 1.00169 0.0
H1430 H 0.46388 0.80291 1.04309 0.0
H1431 H 0.41303 0.76292 1.04335 0.0
C1432 C 0.55774 0.85248 1.02173 0.0
C1433 C 0.59219 0.83843 1.02136 0.0
C1434 C 0.52764 0.83007 1.02207 0.0
C1435 C 0.5308 0.7927 1.02212 0.0
C1436 C 0.56539 0.77893 1.02186 0.0
C1437 C 0.59525 0.80119 1.02142 0.0
C1438 C 0.47077 0.7111 1.01163 0.0
C1439 C 0.4387 0.72065 1.0231 0.0
C1440 C 0.50005 0.73423 1.01126 0.0
C1441 C 0.49872 0.76806 1.02243 0.0
C1442 C 0.46649 0.77757 1.03397 0.0
C1443 C 0.43713 0.75433 1.03432 0.0
H1444 H 0.61663 0.23561 0.80681 0.0
H1445 H 0.56437 0.19637 0.74142 0.0
H1446 H 0.5753 0.28498 0.80877 0.0
H1447 H 0.52378 0.2461 0.74241 0.0
H1448 H 0.43407 0.32073 0.75861 0.0
H1449 H 0.47578 0.27223 0.75842 0.0
H1450 H 0.5513 0.33757 0.7972 0.0
H1451 H 0.50813 0.38516 0.79886 0.0
C1452 C 0.59677 0.23794 0.79245 0.0
C1453 C 0.594 0.21175 0.77394 0.0
C1454 C 0.57272 0.26652 0.79352 0.0
C1455 C 0.54506 0.27022 0.77596 0.0
C1456 C 0.54351 0.24447 0.75689 0.0
C1457 C 0.56732 0.21586 0.75601 0.0
C1458 C 0.45927 0.32469 0.7675 0.0
C1459 C 0.46716 0.35724 0.77888 0.0
C1460 C 0.48391 0.29674 0.767 0.0
C1461 C 0.51799 0.30021 0.77745 0.0
C1462 C 0.52564 0.33284 0.78912 0.0
C1463 C 0.50071 0.36062 0.78994 0.0
H1464 H 0.06898 0.36448 0.51385 0.0
H1465 H 0.13635 0.28075 0.54035 0.0
H1466 H 1.01856 0.32411 0.51482 0.0
H1467 H 0.08588 0.24001 0.54101 0.0
H1468 H 0.99027 0.16803 0.51593 0.0
H1469 H 0.0426 0.20659 0.51533 0.0
H1470 H 0.97972 0.2926 0.54341 0.0
H1471 H 0.92901 0.25395 0.5455 0.0
C1472 C 0.07323 0.33743 0.51984 0.0
C1473 C 0.10726 0.32621 0.52683 0.0
C1474 C 0.04403 0.31407 0.52051 0.0
C1475 C 0.0476 0.27827 0.52791 0.0
C1476 C 0.0817 0.26703 0.53489 0.0
C1477 C 0.11082 0.29062 0.53464 0.0
C1478 C 0.98746 0.19515 0.52192 0.0
C1479 C 0.95417 0.20772 0.52984 0.0
C1480 C 1.01774 0.21744 0.52166 0.0
C1481 C 1.01578 0.25341 0.52882 0.0
C1482 C 0.98265 0.26561 0.53704 0.0
C1483 C 0.95291 0.24319 0.53795 0.0
H1484 H 0.12154 0.74174 0.27953 0.0
H1485 H 0.03784 0.67337 0.25456 0.0
H1486 H 0.08097 0.79121 0.28069 0.0
H1487 H 0.99729 0.72332 0.25434 0.0
H1488 H 0.92116 0.81423 0.27292 0.0
H1489 H 0.96107 0.76354 0.27242 0.0
H1490 H 0.04968 0.83468 0.26319 0.0
H1491 H 1.01002 0.88473 0.26498 0.0
C1492 C 0.09457 0.73726 0.27371 0.0
C1493 C 0.08356 0.70308 0.26662 0.0
C1494 C 0.0709 0.7661 0.27426 0.0
C1495 C 0.03501 0.7624 0.2674 0.0
C1496 C 0.02415 0.72808 0.26013 0.0
C1497 C 0.0478 0.6991 0.25991 0.0
C1498 C 0.94917 0.81902 0.27059 0.0
C1499 C 0.96192 0.85404 0.26878 0.0
C1500 C 0.97242 0.78965 0.27023 0.0
C1501 C 1.00949 0.79396 0.26776 0.0
C1502 C 1.02189 0.82921 0.26566 0.0
C1503 C 0.99876 0.85842 0.26636 0.0
H1504 H 0.44445 0.04326 1.1051 0.0
H1505 H 0.38049 1.01675 0.16907 0.0
H1506 H 0.46405 0.98189 1.10258 0.0
H1507 H 0.40199 0.95569 0.16791 0.0
H1508 H 0.52852 0.91357 0.17424 0.0
H1509 H 0.47588 0.95036 0.17502 0.0
H1510 H 0.44469 0.90937 1.10339 0.0
H1511 H 0.49617 0.87068 1.10329 0.0
C1512 C 0.43331 1.02394 1.11793 0.0
C1513 C 0.41176 0.03464 1.1378 0.0
C1514 C 0.44459 0.98886 1.11659 0.0
C1515 C 0.43475 0.9644 1.13528 0.0
C1516 C 0.4099 0.97414 0.15335 0.0
C1517 C 0.39789 1.00894 0.15418 0.0
C1518 C 0.50928 0.91055 0.15951 0.0
C1519 C 0.51681 0.88994 1.13847 0.0
C1520 C 0.47922 0.93178 0.15986 0.0
C1521 C 0.45675 0.93287 1.13905 0.0
C1522 C 0.46176 0.90887 1.11957 0.0
C1523 C 0.49122 0.88688 1.11957 0.0
H1524 H 0.7083 0.66869 0.35032 0.0
H1525 H 0.75466 0.60207 0.40692 0.0
H1526 H 0.76567 0.69637 0.34269 0.0
H1527 H 0.81235 0.62965 0.39894 0.0
H1528 H 0.87889 0.73616 0.33533 0.0
H1529 H 0.83833 0.68596 0.334 0.0
H1530 H 0.81237 0.70208 0.4116 0.0
H1531 H 0.85126 0.75354 0.41276 0.0
C1532 C 0.7312 0.65845 0.35998 0.0
C1533 C 0.72724 0.63354 0.37928 0.0
C1534 C 0.76393 0.67444 0.35577 0.0
C1535 C 0.79284 0.66546 0.37081 0.0
C1536 C 0.78995 0.6372 0.38767 0.0
C1537 C 0.75724 0.62123 0.39192 0.0
C1538 C 0.86498 0.72865 0.35227 0.0
C1539 C 0.86766 0.74928 0.37407 0.0
C1540 C 0.84207 0.6998 0.35145 0.0
C1541 C 0.82259 0.6903 0.37268 0.0
C1542 C 0.82775 0.70869 0.39513 0.0
C1543 C 0.85005 0.73809 0.39581 0.0
H1544 H 0.18817 1.01959 0.66901 0.0
H1545 H 0.13109 0.98637 0.60387 0.0
H1546 H 0.16026 0.078 0.66655 0.0
H1547 H 0.10488 0.04509 0.60033 0.0
H1548 H 0.03404 0.11166 0.67367 0.0
H1549 H 0.08863 0.07774 0.67356 0.0
H1550 H 0.11329 0.11696 0.59965 0.0
H1551 H 0.05974 0.1527 0.60026 0.0
C1552 C 0.17107 0.02557 0.65347 0.0
C1553 C 0.16097 0.99862 0.63702 0.0
C1554 C 0.15525 0.0588 0.65203 0.0
C1555 C 0.13027 0.06567 0.63344 0.0
C1556 C 0.12432 0.0404 0.61474 0.0
C1557 C 0.13948 1.00688 0.61661 0.0
C1558 C 0.05199 0.11463 0.658 0.0
C1559 C 0.04227 0.13421 0.6368 0.0
C1560 C 0.0832 0.09513 0.65788 0.0
C1561 C 0.10479 0.09466 0.63646 0.0
C1562 C 0.09695 0.11698 0.61631 0.0
C1563 C 0.06622 0.13715 0.61667 0.0
H1564 H 0.75074 0.36269 0.86629 0.0
H1565 H 0.7461 0.37479 0.94629 0.0
H1566 H 0.69338 0.33323 0.86742 0.0
H1567 H 0.68838 0.34703 0.94741 0.0
H1568 H 0.59434 0.27697 0.87227 0.0
H1569 H 0.62822 0.33129 0.87806 0.0
H1570 H 0.68254 0.28249 0.94008 0.0
H1571 H 0.64949 0.22827 0.93386 0.0
C1572 C 0.73673 0.36062 0.88392 0.0
C1573 C 0.75291 0.37086 0.90621 0.0
C1574 C 0.7038 0.34396 0.8846 0.0
C1575 C 0.68659 0.33769 0.90759 0.0
C1576 C 0.70117 0.35134 0.9295 0.0
C1577 C 0.73413 0.36746 0.92882 0.0
C1578 C 0.61225 0.27862 0.88795 0.0
C1579 C 0.6198 0.24837 0.90243 0.0
C1580 C 0.63179 0.30955 0.89109 0.0
C1581 C 0.65835 0.31083 0.90919 0.0
C1582 C 0.66207 0.28235 0.92602 0.0
C1583 C 0.64292 0.25126 0.92264 0.0
H1584 H 0.30088 0.37323 0.93166 0.0
H1585 H 0.26791 0.42441 0.86373 0.0
H1586 H 0.24314 0.34468 0.93527 0.0
H1587 H 0.21071 0.39434 0.86631 0.0
H1588 H 0.13543 0.29805 0.93574 0.0
H1589 H 0.17081 0.3521 0.93451 0.0
H1590 H 0.21275 0.32188 0.86269 0.0
H1591 H 0.17919 0.26684 0.86453 0.0
C1592 C 0.28063 0.37973 0.91819 0.0
C1593 C 0.28869 0.4004 0.89713 0.0
C1594 C 0.2477 0.36329 0.92012 0.0
C1595 C 0.22286 0.36713 0.90086 0.0
C1596 C 0.22952 0.39102 0.88132 0.0
C1597 C 0.26208 0.40805 0.87978 0.0
C1598 C 0.15142 0.30347 0.91933 0.0
C1599 C 0.15526 0.27789 0.90045 0.0
C1600 C 0.17146 0.33441 0.91866 0.0
C1601 C 0.19445 0.34082 0.89862 0.0
C1602 C 0.19486 0.31751 0.87825 0.0
C1603 C 0.17551 0.28609 0.87921 0.0
H1604 H 0.40326 0.78086 0.43991 0.0
H1605 H 0.4493 0.79359 0.36605 0.0
H1606 H 0.37704 0.72668 0.42768 0.0
H1607 H 0.41965 0.73929 0.3533 0.0
H1608 H 0.29222 0.73038 0.34833 0.0
H1609 H 0.35276 0.74716 0.35171 0.0
H1610 H 0.36906 0.66623 0.40771 0.0
H1611 H 0.30773 0.64707 0.40308 0.0
C1612 C 0.40954 0.77168 0.42134 0.0
C1613 C 0.42792 0.79289 0.40374 0.0
C1614 C 0.3942 0.73994 0.41433 0.0
C1615 C 0.39562 0.72914 0.3894 0.0
C1616 C 0.41789 0.74739 0.37264 0.0
C1617 C 0.43421 0.77891 0.37985 0.0
C1618 C 0.30871 0.71454 0.36045 0.0
C1619 C 0.29454 0.68768 0.37588 0.0
C1620 C 0.34389 0.7242 0.36223 0.0
C1621 C 0.36561 0.70819 0.38011 0.0
C1622 C 0.35271 0.67902 0.3938 0.0
C1623 C 0.31743 0.66866 0.39157 0.0
H1624 H 1.01857 0.44319 0.66722 0.0
H1625 H 0.98952 0.40162 0.59504 0.0
H1626 H 0.96589 0.48005 0.667 0.0
H1627 H 0.93837 0.4407 0.59416 0.0
H1628 H 0.86459 0.53773 0.66207 0.0
H1629 H 0.89101 0.47886 0.65864 0.0
H1630 H 0.95353 0.5154 0.5961 0.0
H1631 H 0.92865 0.57462 0.60049 0.0
C1632 C 1.00037 0.44088 0.65178 0.0
C1633 C 1.00864 0.42013 0.63093 0.0
C1634 C 0.97031 0.46209 0.6516 0.0
C1635 C 0.94855 0.46317 0.63043 0.0
C1636 C 0.95491 0.44012 0.61061 0.0
C1637 C 0.98433 0.41813 0.61111 0.0
C1638 C 0.88291 0.53263 0.64701 0.0
C1639 C 0.89531 0.56061 0.63191 0.0
C1640 C 0.89789 0.49912 0.64507 0.0
C1641 C 0.92434 0.49308 0.62732 0.0
C1642 C 0.93288 0.51961 0.60982 0.0
C1643 C 0.91851 0.55339 0.61218 0.0
H1644 H 0.60783 0.47771 1.1041 0.0
H1645 H 0.67358 0.51383 0.16417 0.0
H1646 H 0.58294 0.53704 1.09997 0.0
H1647 H 0.64669 0.57272 0.16148 0.0
H1648 H 0.55122 0.65285 1.09818 0.0
H1649 H 0.60214 0.6134 1.09823 0.0
H1650 H 0.56884 0.57044 0.16933 0.0
H1651 H 0.51647 0.60779 0.16857 0.0
C1652 C 0.61815 0.49878 1.11562 0.0
C1653 C 0.6419 0.49136 1.13489 0.0
C1654 C 0.60379 0.53259 1.11341 0.0
C1655 C 0.6128 0.55896 1.13065 0.0
C1656 C 0.63948 0.55265 0.14805 0.0
C1657 C 0.65458 0.51914 0.14971 0.0
C1658 C 0.55518 0.63558 1.11415 0.0
C1659 C 0.52934 0.63265 1.13309 0.0
C1660 C 0.58443 0.61335 1.11417 0.0
C1661 C 0.58902 0.58915 1.13371 0.0
C1662 C 0.56575 0.58934 0.15419 0.0
C1663 C 0.5359 0.61082 0.15382 0.0
H1664 H 0.26397 0.37462 0.34593 0.0
H1665 H 0.30443 0.35809 0.27128 0.0
H1666 H 0.24258 0.43283 0.33333 0.0
H1667 H 0.28215 0.41596 0.25861 0.0
H1668 H 0.19908 0.50624 0.24329 0.0
H1669 H 0.22329 0.44791 0.25339 0.0
H1670 H 0.27011 0.49049 0.32014 0.0
H1671 H 0.24594 0.5481 0.31035 0.0
C1672 C 0.26858 0.38348 0.32692 0.0
C1673 C 0.28611 0.36171 0.30973 0.0
C1674 C 0.2562 0.41675 0.31967 0.0
C1675 C 0.26087 0.42895 0.29501 0.0
C1676 C 0.27794 0.40709 0.27768 0.0
C1677 C 0.29062 0.37392 0.28498 0.0
C1678 C 0.21525 0.50335 0.2598 0.0
C1679 C 0.22099 0.53226 0.27576 0.0
C1680 C 0.22899 0.46992 0.26561 0.0
C1681 C 0.24838 0.46467 0.28765 0.0
C1682 C 0.255 0.49369 0.30315 0.0
C1683 C 0.24161 0.52701 0.29724 0.0
H1684 H 0.45045 0.52494 0.5249 0.0
H1685 H 0.41268 0.55201 0.59881 0.0
H1686 H 0.3954 0.4967 0.51616 0.0
H1687 H 0.3555 0.52995 0.58828 0.0
H1688 H 0.26095 0.46331 0.57455 0.0
H1689 H 0.3182 0.48691 0.58408 0.0
H1690 H 0.34008 0.49786 0.50472 0.0
H1691 H 0.28426 0.4691 0.49578 0.0
C1692 C 0.43061 0.52507 0.53947 0.0
C1693 C 0.43697 0.54065 0.56293 0.0
C1694 C 0.39807 0.5096 0.53402 0.0
C1695 C 0.36997 0.51078 0.55129 0.0
C1696 C 0.37613 0.5272 0.57447 0.0
C1697 C 0.4092 0.54102 0.58039 0.0
C1698 C 0.27817 0.47066 0.5592 0.0
C1699 C 0.26834 0.46423 0.53446 0.0
C1700 C 0.31118 0.48485 0.5646 0.0
C1701 C 0.33464 0.495 0.54531 0.0
C1702 C 0.32382 0.48974 0.52036 0.0
C1703 C 0.2914 0.47378 0.51506 0.0
H1704 H 0.25615 0.68833 0.81125 0.0
H1705 H 0.20549 0.66138 0.7418 0.0
H1706 H 0.2935 0.63581 0.8078 0.0
H1707 H 0.24268 0.60884 0.73842 0.0
H1708 H 0.33913 0.53446 0.73219 0.0
H1709 H 0.30723 0.59066 0.73358 0.0
H1710 H 0.27818 0.56976 0.81035 0.0
H1711 H 0.31034 0.51402 0.80905 0.0
C1712 C 0.25343 0.67147 0.79507 0.0
C1713 C 0.22774 0.67861 0.77691 0.0
C1714 C 0.27455 0.64135 0.79321 0.0
C1715 C 0.27064 0.61817 0.77297 0.0
C1716 C 0.24623 0.62633 0.75417 0.0
C1717 C 0.22485 0.65619 0.75619 0.0
C1718 C 0.32582 0.54189 0.7493 0.0
C1719 C 0.32699 0.5198 0.77045 0.0
C1720 C 0.30757 0.57394 0.75008 0.0
C1721 C 0.29049 0.58457 0.77212 0.0
C1722 C 0.29147 0.56235 0.79321 0.0
C1723 C 0.30938 0.53018 0.79233 0.0
H1724 H 0.11533 0.54952 1.10002 0.0
H1725 H 0.10901 0.48886 1.03195 0.0
H1726 H 0.17393 0.57022 1.0878 0.0
H1727 H 0.16735 0.50999 1.01963 0.0
H1728 H 0.2542 0.59039 0.99564 0.0
H1729 H 0.19647 0.56626 1.00703 0.0
H1730 H 0.2338 0.54581 1.08186 0.0
H1731 H 0.29086 0.57103 1.07077 0.0
C1732 C 0.12662 0.54025 1.08264 0.0
C1733 C 0.10759 0.51745 1.06706 0.0
C1734 C 0.1601 0.55217 1.07559 0.0
C1735 C 0.17519 0.54158 1.05281 0.0
C1736 C 0.1562 0.51883 1.03719 0.0
C1737 C 0.12281 0.50677 1.04428 0.0
C1738 C 0.25005 0.58058 1.01446 0.0
C1739 C 0.27694 0.58276 1.03232 0.0
C1740 C 0.21713 0.56655 1.02093 0.0
C1741 C 0.21062 0.55442 1.04539 0.0
C1742 C 0.23796 0.5554 1.06297 0.0
C1743 C 0.27083 0.56934 1.05648 0.0
H1744 H 0.85415 0.54509 1.04051 0.0
H1745 H 0.80862 0.50298 0.97303 0.0
H1746 H 0.82754 0.60262 1.03119 0.0
H1747 H 0.78182 0.5597 0.96413 0.0
H1748 H 0.7825 0.67637 0.94006 0.0
H1749 H 0.80652 0.61878 0.95163 0.0
H1750 H 0.76708 0.63157 1.02681 0.0
H1751 H 0.74221 0.68876 1.01518 0.0
C1752 C 0.83789 0.54779 1.02403 0.0
C1753 C 0.8331 0.51913 1.00774 0.0
C1754 C 0.8227 0.5807 1.0187 0.0
C1755 C 0.8028 0.58557 0.99687 0.0
C1756 C 0.79729 0.55675 0.98098 0.0
C1757 C 0.8122 0.52396 0.98636 0.0
C1758 C 0.77847 0.66669 0.95893 0.0
C1759 C 0.76031 0.68712 0.9766 0.0
C1760 C 0.79236 0.63382 0.9656 0.0
C1761 C 0.78855 0.62075 0.99011 0.0
C1762 C 0.77067 0.6412 1.00787 0.0
C1763 C 0.75649 0.67394 1.00116 0.0
H1764 H 0.64996 0.44404 0.72812 0.0
H1765 H 0.59182 0.5192 0.77264 0.0
H1766 H 0.70277 0.47907 0.73248 0.0
H1767 H 0.64486 0.5562 0.77557 0.0
H1768 H 0.75802 0.59192 0.7978 0.0
H1769 H 0.70217 0.5595 0.79447 0.0
H1770 H 0.72937 0.53075 0.71873 0.0
H1771 H 0.78481 0.56179 0.7225 0.0
C1772 C 0.64842 0.4682 0.73885 0.0
C1773 C 0.61673 0.47839 0.75041 0.0
C1774 C 0.67873 0.48874 0.741 0.0
C1775 C 0.67828 0.52067 0.75432 0.0
C1776 C 0.64634 0.53152 0.76544 0.0
C1777 C 0.61583 0.51057 0.76351 0.0
C1778 C 0.75208 0.57817 0.78062 0.0
C1779 C 0.77641 0.57828 0.76073 0.0
C1780 C 0.71993 0.55996 0.77858 0.0
C1781 C 0.71134 0.54193 0.75645 0.0
C1782 C 0.73542 0.54315 0.73639 0.0
C1783 C 0.76753 0.56081 0.73858 0.0
H1784 H 0.84994 0.39904 0.49551 0.0
H1785 H 0.7527 0.34325 0.51056 0.0
H1786 H 0.81823 0.45481 0.49394 0.0
H1787 H 0.72026 0.3992 0.50824 0.0
H1788 H 0.68922 0.50598 0.54268 0.0
H1789 H 0.718 0.44903 0.53682 0.0
H1790 H 0.77615 0.49197 0.47393 0.0
H1791 H 0.74815 0.54897 0.48015 0.0
C1792 C 0.82146 0.39877 0.49745 0.0
C1793 C 0.80358 0.36724 0.50311 0.0
C1794 C 0.80327 0.43063 0.49661 0.0
C1795 C 0.76682 0.43146 0.50137 0.0
C1796 C 0.74848 0.39938 0.50499 0.0
C1797 C 0.76681 0.36739 0.50588 0.0
C1798 C 0.70846 0.50333 0.52779 0.0
C1799 C 0.71645 0.53201 0.51193 0.0
C1800 C 0.72453 0.47058 0.52419 0.0
C1801 C 0.74891 0.46587 0.50464 0.0
C1802 C 0.75758 0.49481 0.48921 0.0
C1803 C 0.74171 0.52759 0.49292 0.0
H1804 H 0.79831 0.45299 0.29106 0.0
H1805 H 0.75919 0.48489 0.21875 0.0
H1806 H 0.85606 0.47784 0.28038 0.0
H1807 H 0.81593 0.51103 0.20859 0.0
H1808 H 0.93247 0.50823 0.18655 0.0
H1809 H 0.87431 0.48666 0.19901 0.0
H1810 H 0.88686 0.53464 0.27149 0.0
H1811 H 0.94493 0.55649 0.25898 0.0
C1812 C 0.80181 0.46588 0.27311 0.0
C1813 C 0.77407 0.4671 0.25582 0.0
C1814 C 0.83478 0.48028 0.26705 0.0
C1815 C 0.84054 0.49615 0.24356 0.0
C1816 C 0.81239 0.49858 0.22671 0.0
C1817 C 0.77957 0.4842 0.23276 0.0
C1818 C 0.92261 0.51461 0.20499 0.0
C1819 C 0.94321 0.53422 0.22167 0.0
C1820 C 0.88936 0.5022 0.21217 0.0
C1821 C 0.87599 0.50916 0.23618 0.0
C1822 C 0.89662 0.52862 0.25295 0.0
C1823 C 0.92984 0.54113 0.24574 0.0
H1824 H 0.79407 0.87144 0.73155 0.0
H1825 H 0.79472 0.86427 0.81207 0.0
H1826 H 0.76237 0.92663 0.73367 0.0
H1827 H 0.76016 0.91892 0.81439 0.0
H1828 H 0.74189 0.03889 0.80868 0.0
H1829 H 0.76971 0.98074 0.80807 0.0
H1830 H 0.71001 0.9542 0.74203 0.0
H1831 H 0.68542 1.01308 0.74124 0.0
C1832 C 0.78662 0.88146 0.74975 0.0
C1833 C 0.79738 0.86421 0.77166 0.0
C1834 C 0.76807 0.91295 0.751 0.0
C1835 C 0.75892 0.92747 0.77423 0.0
C1836 C 0.76752 0.90881 0.79622 0.0
C1837 C 0.78674 0.87733 0.79494 0.0
C1838 C 0.73547 1.02084 0.79372 0.0
C1839 C 0.71128 0.03041 0.77508 0.0
C1840 C 0.75078 0.98726 0.79368 0.0
C1841 C 0.74186 0.96263 0.77513 0.0
C1842 C 0.71789 0.97255 0.75644 0.0
C1843 C 0.70339 1.00624 0.75614 0.0
H1844 H 0.75399 0.99836 1.05637 0.0
H1845 H 0.78464 0.93734 0.99176 0.0
H1846 H 0.81269 0.02494 1.05735 0.0
H1847 H 0.84361 0.96076 0.9943 0.0
H1848 H 0.9291 0.04228 0.98438 0.0
H1849 H 0.87302 1.01207 0.9854 0.0
H1850 H 0.87355 1.01461 1.06627 0.0
H1851 H 0.92933 0.04769 1.06489 0.0
C1852 C 0.77309 0.99079 1.04232 0.0
C1853 C 0.76459 0.96584 1.02393 0.0
C1854 C 0.80698 1.00537 1.04324 0.0
C1855 C 0.83297 0.99486 1.02598 0.0
C1856 C 0.82419 0.97005 1.00761 0.0
C1857 C 0.79028 0.95639 1.00625 0.0
C1858 C 0.91737 0.03603 1.00238 0.0
C1859 C 0.93296 0.0477 1.02454 0.0
C1860 C 0.88532 1.01841 1.00303 0.0
C1861 C 0.86854 1.01107 1.02594 0.0
C1862 C 0.88546 1.02056 1.04831 0.0
C1863 C 0.91756 0.03888 1.0476 0.0
H1864 H 0.80587 1.00916 0.31662 0.0
H1865 H 0.83974 0.04108 0.24273 0.0
H1866 H 0.77511 0.06479 0.32156 0.0
H1867 H 0.80731 0.0964 0.24706 0.0
H1868 H 0.76905 0.20549 0.26925 0.0
H1869 H 0.80491 0.15198 0.26667 0.0
H1870 H 0.72548 0.09466 0.30886 0.0
H1871 H 0.69155 0.14826 0.31312 0.0
C1872 C 0.80588 0.02766 0.30111 0.0
C1873 C 0.82462 1.02038 0.27906 0.0
C1874 C 0.78828 0.05976 0.30396 0.0
C1875 C 0.78834 0.08521 0.28464 0.0
C1876 C 0.80699 0.07776 0.26249 0.0
C1877 C 0.82514 0.04581 0.25982 0.0
C1878 C 0.75965 0.18156 0.27834 0.0
C1879 C 0.72714 0.18108 0.29112 0.0
C1880 C 0.77996 0.15072 0.27657 0.0
C1881 C 0.76805 0.11872 0.28737 0.0
C1882 C 0.7359 0.11869 0.30054 0.0
C1883 C 0.716 0.14944 0.3026 0.0
H1884 H 0.76036 0.09417 0.50007 0.0
H1885 H 0.79384 0.06324 0.57408 0.0
H1886 H 0.70094 0.07208 0.50937 0.0
H1887 H 0.73506 0.04062 0.58306 0.0
H1888 H 0.61856 0.05292 0.60165 0.0
H1889 H 0.67733 0.07194 0.58915 0.0
H1890 H 0.66705 1.01513 0.51982 0.0
H1891 H 0.60827 0.99501 0.53261 0.0
C1892 C 0.75518 0.08223 0.51815 0.0
C1893 C 0.78172 0.08065 0.53637 0.0
C1894 C 0.72128 0.06943 0.5234 0.0
C1895 C 0.71338 0.05502 0.54702 0.0
C1896 C 0.74033 0.05204 0.56481 0.0
C1897 C 0.77416 0.06459 0.55952 0.0
C1898 C 0.62888 0.04404 0.58387 0.0
C1899 C 0.60892 1.02184 0.5684 0.0
C1900 C 0.66252 0.05507 0.57668 0.0
C1901 C 0.67691 0.04451 0.55371 0.0
C1902 C 0.65653 1.02357 0.53766 0.0
C1903 C 0.62286 1.01219 0.54498 0.0
H1904 H 0.26658 0.19308 0.47164 0.0
H1905 H 0.20616 0.16535 0.53745 0.0
H1906 H 0.30137 0.13888 0.4765 0.0
H1907 H 0.24083 0.1113 0.54233 0.0
H1908 H 0.33459 0.03447 0.55365 0.0
H1909 H 0.30353 0.091 0.55083 0.0
H1910 H 0.28492 0.07318 0.47238 0.0
H1911 H 0.31617 1.01682 0.47516 0.0
C1912 C 0.26123 0.17569 0.48738 0.0
C1913 C 0.2336 0.18311 0.50408 0.0
C1914 C 0.28083 0.1446 0.49001 0.0
C1915 C 0.27343 0.12078 0.50961 0.0
C1916 C 0.24706 0.12923 0.52707 0.0
C1917 C 0.22719 0.16002 0.52425 0.0
C1918 C 0.32343 0.04247 0.5359 0.0
C1919 C 0.32735 1.0211 0.5147 0.0
C1920 C 0.30578 0.07479 0.53429 0.0
C1921 C 0.29208 0.0865 0.51137 0.0
C1922 C 0.29558 0.06491 0.49022 0.0
C1923 C 0.31289 0.03239 0.49191 0.0
H1924 H 0.10269 1.00288 0.26621 0.0
H1925 H 0.12149 0.04039 0.19087 0.0
H1926 H 0.1607 1.02458 0.27859 0.0
H1927 H 0.17967 0.06141 0.20321 0.0
H1928 H 0.29391 0.05688 0.22575 0.0
H1929 H 0.236 0.03385 0.21643 0.0
H1930 H 0.19466 0.08215 0.28325 0.0
H1931 H 0.25356 0.10489 0.29303 0.0
C1932 C 0.11906 1.01594 0.2523 0.0
C1933 C 0.10746 1.01973 0.22744 0.0
C1934 C 0.1523 0.02834 0.25944 0.0
C1935 C 0.1748 0.04447 0.24185 0.0
C1936 C 0.16313 0.04851 0.2171 0.0
C1937 C 0.12985 0.03634 0.20999 0.0
C1938 C 0.27305 0.06176 0.239 0.0
C1939 C 0.27888 0.08229 0.26043 0.0
C1940 C 0.2395 0.04905 0.23334 0.0
C1941 C 0.2107 0.05641 0.24898 0.0
C1942 C 0.21646 0.07586 0.27092 0.0
C1943 C 0.25019 0.08882 0.27652 0.0
H1944 H 0.23326 0.03581 0.97047 0.0
H1945 H 0.20471 1.00612 1.04589 0.0
H1946 H 0.26386 0.98019 0.96527 0.0
H1947 H 0.23687 0.95052 1.04116 0.0
H1948 H 0.27629 0.84109 1.01795 0.0
H1949 H 0.23943 0.89394 1.02169 0.0
H1950 H 0.31546 0.95305 0.97764 0.0
H1951 H 0.35034 0.90028 0.97242 0.0
C1952 C 0.23421 1.01766 0.98617 0.0
C1953 C 0.21715 0.0256 1.00875 0.0
C1954 C 0.25175 0.98561 0.98319 0.0
C1955 C 0.25335 0.96088 1.0029 0.0
C1956 C 0.23594 0.96872 1.02548 0.0
C1957 C 0.21781 1.0007 1.02831 0.0
C1958 C 0.2847 0.8653 1.00875 0.0
C1959 C 0.3165 0.86655 0.99511 0.0
C1960 C 0.26383 0.89571 1.01116 0.0
C1961 C 0.27444 0.92792 1.00003 0.0
C1962 C 0.306 0.92876 0.98618 0.0
C1963 C 0.32645 0.8985 0.98353 0.0
H1964 H 0.43419 0.04316 0.72802 0.0
H1965 H 0.41838 0.06581 0.80621 0.0
H1966 H 0.38057 1.00683 0.72821 0.0
H1967 H 0.36446 0.03099 0.80628 0.0
H1968 H 0.28209 0.94551 0.80376 0.0
H1969 H 0.33995 0.97329 0.80319 0.0
H1970 H 0.3174 1.01916 0.73086 0.0
H1971 H 0.26028 0.98938 0.73083 0.0
C1972 C 0.41953 0.03983 0.74529 0.0
C1973 C 0.42998 0.05754 0.76701 0.0
C1974 C 0.38867 1.01951 0.74535 0.0
C1975 C 0.36799 1.01652 0.76717 0.0
C1976 C 0.37979 0.03259 0.7892 0.0
C1977 C 0.41053 0.05274 0.78914 0.0
C1978 C 0.28958 0.96132 0.78767 0.0
C1979 C 0.26676 0.96502 0.76727 0.0
C1980 C 0.32264 0.97746 0.78741 0.0
C1981 C 0.33339 0.99823 0.7669 0.0
C1982 C 0.31016 1.00277 0.74674 0.0
C1983 C 0.27713 0.9863 0.74693 0.0
H1984 H 0.25269 0.14938 0.20572 0.0
H1985 H 0.34424 0.11145 0.1661 0.0
H1986 H 0.21745 0.14342 0.1679 0.0
H1987 H 0.30903 0.10504 1.12835 0.0
H1988 H 0.24713 0.13938 1.05901 0.0
H1989 H 0.2804 0.14285 1.09749 0.0
H1990 H 0.19176 0.09952 1.13834 0.0
H1991 H 0.15795 0.09588 1.09925 0.0
C1992 C 0.26547 0.13993 0.18895 0.0
C1993 C 0.30173 0.13162 0.18901 0.0
C1994 C 0.24504 0.13609 0.16725 0.0
C1995 C 0.26023 0.12389 0.14485 0.0
C1996 C 0.29636 0.11501 0.14505 0.0
C1997 C 0.31666 0.1186 0.16679 0.0
C1998 C 0.23443 0.13056 1.07612 0.0
C1999 C 0.19952 0.11748 1.07588 0.0
C2000 C 0.25382 0.13231 1.09829 0.0
C2001 C 0.23901 0.12139 1.1212 0.0
C2002 C 0.20403 0.10837 1.1211 0.0
C2003 C 0.18467 0.10606 1.09868 0.0
H2004 H 0.7322 0.43192 0.33944 0.0
H2005 H 0.6301 0.4707 0.31703 0.0
H2006 H 0.72859 0.46723 0.37754 0.0
H2007 H 0.62702 0.50675 0.35424 0.0
H2008 H 0.61201 0.54438 0.43291 0.0
H2009 H 0.61743 0.50737 0.39653 0.0
H2010 H 0.73037 0.52274 0.39712 0.0
H2011 H 0.72472 0.55747 0.43523 0.0
C2012 C 0.7089 0.44785 0.34259 0.0
C2013 C 0.68121 0.44769 0.32508 0.0
C2014 C 0.70695 0.46855 0.36445 0.0
C2015 C 0.6773 0.48999 0.36955 0.0
C2016 C 0.64996 0.49014 0.35173 0.0
C2017 C 0.65183 0.46939 0.33005 0.0
C2018 C 0.63811 0.53923 0.42589 0.0
C2019 C 0.66781 0.55389 0.43768 0.0
C2020 C 0.64128 0.51841 0.40435 0.0
C2021 C 0.67441 0.51179 0.39324 0.0
C2022 C 0.70431 0.52655 0.40497 0.0
C2023 C 0.70105 0.54707 0.42684 0.0
H2024 H 0.24342 0.96345 0.69038 0.0
H2025 H 0.25329 0.85019 0.68571 0.0
H2026 H 0.27903 0.97049 0.65299 0.0
H2027 H 0.29057 0.85705 0.64874 0.0
H2028 H 0.32571 0.87797 0.56844 0.0
H2029 H 0.29076 0.87148 0.60616 0.0
H2030 H 0.33609 0.96785 0.63495 0.0
H2031 H 0.37064 0.97492 0.59642 0.0
C2032 C 0.25324 0.93986 0.68158 0.0
C2033 C 0.24518 0.90611 0.69154 0.0
C2034 C 0.27425 0.94399 0.66003 0.0
C2035 C 0.28824 0.91447 0.64751 0.0
C2036 C 0.28021 0.88064 0.65746 0.0
C2037 C 0.25903 0.87658 0.67902 0.0
C2038 C 0.32857 0.89783 0.58278 0.0
C2039 C 0.35152 0.92691 0.5792 0.0
C2040 C 0.30848 0.8939 0.60471 0.0
C2041 C 0.31042 0.91886 0.62408 0.0
C2042 C 0.33345 0.94803 0.62056 0.0
C2043 C 0.35371 0.95195 0.5985 0.0
H2044 H 0.92625 0.58605 0.8195 0.0
H2045 H 0.81688 0.60926 0.83491 0.0
H2046 H 0.92975 0.55166 0.8579 0.0
H2047 H 0.82053 0.57469 0.87384 0.0
H2048 H 0.8342 0.47679 0.92758 0.0
H2049 H 0.82767 0.51289 0.88991 0.0
H2050 H 0.93007 0.55911 0.9028 0.0
H2051 H 0.93621 0.52342 0.94014 0.0
C2052 C 0.90293 0.58419 0.83121 0.0
C2053 C 0.87138 0.60103 0.82408 0.0
C2054 C 0.90501 0.56442 0.85341 0.0
C2055 C 0.87552 0.5604 0.86927 0.0
C2056 C 0.84379 0.57703 0.86213 0.0
C2057 C 0.8418 0.59725 0.83993 0.0
C2058 C 0.85528 0.4947 0.92257 0.0
C2059 C 0.88585 0.49687 0.93742 0.0
C2060 C 0.85143 0.51567 0.90088 0.0
C2061 C 0.87836 0.53907 0.89305 0.0
C2062 C 0.9088 0.54127 0.90791 0.0
C2063 C 0.9123 0.52077 0.92968 0.0
H2064 H 0.80472 0.90764 0.2304 0.0
H2065 H 0.89294 0.9504 0.18864 0.0
H2066 H 0.77085 0.90268 0.19279 0.0
H2067 H 0.85771 0.94633 0.15016 0.0
H2068 H 0.79436 0.90127 1.0828 0.0
H2069 H 0.83121 0.907 1.11984 0.0
H2070 H 0.73922 0.93522 0.16314 0.0
H2071 H 0.70232 0.92783 1.12638 0.0
C2072 C 0.81729 0.91591 0.21313 0.0
C2073 C 0.85231 0.92897 0.21289 0.0
C2074 C 0.79726 0.9135 0.19132 0.0
C2075 C 0.81103 0.92428 0.16808 0.0
C2076 C 0.84607 0.93744 0.1676 0.0
C2077 C 0.86635 0.93997 0.18972 0.0
C2078 C 0.78185 0.90825 1.10027 0.0
C2079 C 0.74505 0.91354 1.10145 0.0
C2080 C 0.80322 0.91209 1.12157 0.0
C2081 C 0.78857 0.92153 0.14483 0.0
C2082 C 0.75176 0.92734 0.14585 0.0
C2083 C 0.73043 0.92339 1.12459 0.0
H2084 H 0.42146 0.58082 0.96624 0.0
H2085 H 0.31813 0.6152 0.94331 0.0
H2086 H 0.42744 0.54635 0.92851 0.0
H2087 H 0.32441 0.58106 0.90478 0.0
H2088 H 0.33244 0.4889 0.84932 0.0
H2089 H 0.32579 0.52402 0.88672 0.0
H2090 H 0.43732 0.54717 0.88519 0.0
H2091 H 0.44389 0.5109 0.84789 0.0
C2092 C 0.4 0.58147 0.95307 0.0
C2093 C 0.36941 0.60145 0.95812 0.0
C2094 C 0.40358 0.56161 0.93107 0.0
C2095 C 0.37668 0.56076 0.91302 0.0
C2096 C 0.34582 0.58057 0.91808 0.0
C2097 C 0.34227 0.60056 0.94022 0.0
C2098 C 0.35569 0.5014 0.8567 0.0
C2099 C 0.3888 0.49689 0.84492 0.0
C2100 C 0.35176 0.52202 0.87836 0.0
C2101 C 0.38085 0.53904 0.88937 0.0
C2102 C 0.41408 0.53444 0.8777 0.0
C2103 C 0.41793 0.51377 0.85595 0.0
H2104 H 0.74686 0.1406 0.7355 0.0
H2105 H 0.65687 0.10628 0.69281 0.0
H2106 H 0.78239 0.14334 0.69778 0.0
H2107 H 0.69301 0.10898 0.6545 0.0
H2108 H 0.75989 0.15701 0.58883 0.0
H2109 H 0.72284 0.1515 0.62607 0.0
H2110 H 0.8106 0.10696 0.66647 0.0
H2111 H 0.84783 0.11294 0.62921 0.0
C2112 C 0.73443 0.13369 0.71801 0.0
C2113 C 0.69856 0.12356 0.71738 0.0
C2114 C 0.75516 0.13494 0.69625 0.0
C2115 C 0.74088 0.12639 0.67284 0.0
C2116 C 0.705 0.11607 0.67209 0.0
C2117 C 0.68424 0.11431 0.6941 0.0
C2118 C 0.77148 0.14627 0.60567 0.0
C2119 C 0.80719 0.13578 0.6059 0.0
C2120 C 0.74996 0.14269 0.62705 0.0
C2121 C 0.76345 0.12877 0.64952 0.0
C2122 C 0.79915 0.11813 0.6497 0.0
C2123 C 0.82058 0.12137 0.62822 0.0
H2124 H 0.20858 0.41104 0.43708 0.0
H2125 H 0.14918 0.49115 0.47588 0.0
H2126 H 0.20439 0.44596 0.39835 0.0
H2127 H 0.14482 0.5256 0.43757 0.0
H2128 H 0.17286 0.59689 0.37096 0.0
H2129 H 0.17899 0.5614 0.40894 0.0
H2130 H 0.16299 0.46618 0.36626 0.0
H2131 H 0.15749 0.50171 0.32822 0.0
C2132 C 0.19463 0.43601 0.43741 0.0
C2133 C 0.17896 0.44788 0.45972 0.0
C2134 C 0.19201 0.45602 0.41513 0.0
C2135 C 0.17424 0.48885 0.4146 0.0
C2136 C 0.15901 0.50078 0.43706 0.0
C2137 C 0.16121 0.48065 0.45912 0.0
C2138 C 0.17075 0.5684 0.36959 0.0
C2139 C 0.16445 0.5524 0.34635 0.0
C2140 C 0.17404 0.54792 0.39151 0.0
C2141 C 0.17142 0.51066 0.39094 0.0
C2142 C 0.16553 0.49465 0.3676 0.0
C2143 C 0.16202 0.51517 0.34571 0.0
H2144 H 0.64757 0.62184 0.59887 0.0
H2145 H 0.745 0.62331 0.55687 0.0
H2146 H 0.68178 0.6237 0.63799 0.0
H2147 H 0.77855 0.62484 0.59533 0.0
H2148 H 0.82998 0.59247 0.66968 0.0
H2149 H 0.79391 0.58784 0.63207 0.0
H2150 H 0.72194 0.66525 0.66191 0.0
H2151 H 0.75836 0.66999 0.69924 0.0
C2152 C 0.6761 0.62232 0.5979 0.0
C2153 C 0.69321 0.62273 0.57452 0.0
C2154 C 0.69581 0.6236 0.62033 0.0
C2155 C 0.73316 0.6244 0.62 0.0
C2156 C 0.75003 0.62394 0.59658 0.0
C2157 C 0.73052 0.62334 0.57437 0.0
C2158 C 0.8067 0.60874 0.66818 0.0
C2159 C 0.79802 0.63245 0.68742 0.0
C2160 C 0.78581 0.60606 0.64654 0.0
C2161 C 0.75479 0.62627 0.64367 0.0
C2162 C 0.74544 0.64913 0.66329 0.0
C2163 C 0.76676 0.65227 0.68469 0.0
H2164 H 0.19431 0.90367 0.85028 0.0
H2165 H 0.15044 0.99031 0.80795 0.0
H2166 H 0.19124 0.93977 0.88841 0.0
H2167 H 0.14836 0.02643 0.8456 0.0
H2168 H 0.18466 0.09265 0.91388 0.0
H2169 H 0.18973 0.05572 0.87651 0.0
H2170 H 0.14375 0.96785 0.9169 0.0
H2171 H 0.13829 1.00488 0.95412 0.0
C2172 C 0.1841 0.93036 0.84906 0.0
C2173 C 0.17213 0.9437 0.82599 0.0
C2174 C 0.18224 0.95108 0.87094 0.0
C2175 C 0.16945 0.98618 0.87025 0.0
C2176 C 0.15843 0.9997 0.84701 0.0
C2177 C 0.15937 0.97875 0.82537 0.0
C2178 C 0.17556 0.06548 0.91481 0.0
C2179 C 0.16064 0.05205 0.93707 0.0
C2180 C 0.17838 0.04426 0.89331 0.0
C2181 C 0.16716 1.00861 0.8935 0.0
C2182 C 0.15287 0.99501 0.91595 0.0
C2183 C 0.14937 1.01645 0.93728 0.0
H2184 H 0.80483 0.41467 1.05836 0.0
H2185 H 0.89958 0.43268 1.10071 0.0
H2186 H 0.77063 0.40993 1.09676 0.0
H2187 H 0.86491 0.42764 1.13975 0.0
H2188 H 0.79307 0.37389 0.20256 0.0
H2189 H 0.82982 0.38119 0.16506 0.0
H2190 H 0.74963 0.4472 1.13215 0.0
H2191 H 0.71339 0.44032 0.16977 0.0
C2192 C 0.81857 0.41734 1.07593 0.0
C2193 C 0.85534 0.42347 1.07622 0.0
C2194 C 0.7987 0.41498 1.0981 0.0
C2195 C 0.81475 0.41822 1.12162 0.0
C2196 C 0.85155 0.42464 1.12206 0.0
C2197 C 0.87148 0.42772 1.09966 0.0
C2198 C 0.78304 0.38959 0.18726 0.0
C2199 C 0.74964 0.40574 0.18919 0.0
C2200 C 0.80443 0.39423 0.16579 0.0
C2201 C 0.79289 0.4147 0.14529 0.0
C2202 C 0.75951 0.43096 0.14731 0.0
C2203 C 0.73856 0.42696 0.16897 0.0
H2204 H 0.36424 0.96396 0.41915 0.0
H2205 H 0.41093 0.05296 0.45691 0.0
H2206 H 0.35875 0.99953 0.38125 0.0
H2207 H 0.40563 0.08859 0.41881 0.0
H2208 H 0.35858 0.15052 0.34971 0.0
H2209 H 0.36169 0.11718 0.38941 0.0
H2210 H 0.39768 0.02516 0.34948 0.0
H2211 H 0.39469 0.05772 0.31056 0.0
C2212 C 0.37342 0.99112 0.41947 0.0
C2213 C 0.38859 1.0052 0.44123 0.0
C2214 C 0.37036 1.01159 0.39758 0.0
C2215 C 0.38185 0.04711 0.39674 0.0
C2216 C 0.39627 0.0615 0.41867 0.0
C2217 C 0.39973 0.04083 0.44052 0.0
C2218 C 0.36726 0.12325 0.34948 0.0
C2219 C 0.37693 0.10731 0.32676 0.0
C2220 C 0.36917 0.1041 0.37226 0.0
C2221 C 0.37993 0.06829 0.3728 0.0
C2222 C 0.38901 0.05244 0.35 0.0
C2223 C 0.38765 0.07152 0.32753 0.0
H2224 H 0.30431 0.40041 0.72813 0.0
H2225 H 0.38883 0.44585 0.68434 0.0
H2226 H 0.26871 0.39388 0.69058 0.0
H2227 H 0.35322 0.43843 0.64625 0.0
H2228 H 0.29052 0.37896 0.5821 0.0
H2229 H 0.32734 0.38855 0.61902 0.0
H2230 H 0.23742 0.4308 0.65828 0.0
H2231 H 0.20079 0.42163 0.62126 0.0
C2232 C 0.31551 0.40882 0.71042 0.0
C2233 C 0.34983 0.42334 0.70943 0.0
C2234 C 0.29484 0.40529 0.68879 0.0
C2235 C 0.30787 0.4154 0.66511 0.0
C2236 C 0.34224 0.43002 0.66403 0.0
C2237 C 0.36268 0.43444 0.68591 0.0
C2238 C 0.27838 0.3897 0.59872 0.0
C2239 C 0.24224 0.39863 0.59869 0.0
C2240 C 0.29973 0.39577 0.61986 0.0
C2241 C 0.28556 0.41035 0.64193 0.0
C2242 C 0.24939 0.41919 0.64187 0.0
C2243 C 0.22826 0.41386 0.62056 0.0
H2244 H 0.90379 0.05393 0.48183 0.0
H2245 H 0.84487 0.13643 0.4448 0.0
H2246 H 0.90701 1.02096 0.4433 0.0
H2247 H 0.84764 0.10268 0.40576 0.0
H2248 H 0.89037 0.04893 0.33426 0.0
H2249 H 0.88604 0.08307 0.37263 0.0
H2250 H 0.8743 0.98616 0.41502 0.0
H2251 H 0.88002 0.95198 0.37664 0.0
C2252 C 0.89154 0.0653 0.46542 0.0
C2253 C 0.87437 0.09838 0.46662 0.0
C2254 C 0.89306 0.04593 0.44318 0.0
C2255 C 0.87755 0.05878 0.4211 0.0
C2256 C 0.86027 0.09189 0.42221 0.0
C2257 C 0.85847 0.11127 0.44468 0.0
C2258 C 0.88715 0.03477 0.35176 0.0
C2259 C 0.88586 0.99747 0.35218 0.0
C2260 C 0.88421 0.05452 0.37387 0.0
C2261 C 0.87976 0.03769 0.39723 0.0
C2262 C 0.87818 1.00033 0.39758 0.0
C2263 C 0.88118 0.98058 0.37545 0.0
H2264 H 0.15194 0.61314 0.18418 0.0
H2265 H 0.24362 0.6436 0.22649 0.0
H2266 H 0.18702 0.61835 0.14537 0.0
H2267 H 0.27793 0.64887 0.18844 0.0
H2268 H 0.34146 0.62166 1.11835 0.0
H2269 H 0.30471 0.61377 0.15564 0.0
H2270 H 0.21735 0.66305 1.11768 0.0
H2271 H 0.25419 0.67072 1.08033 0.0
C2272 C 0.17936 0.62102 0.1853 0.0
C2273 C 0.1944 0.6286 0.20869 0.0
C2274 C 0.19955 0.62418 0.16301 0.0
C2275 C 0.23558 0.63415 0.16351 0.0
C2276 C 0.25055 0.64091 0.18699 0.0
C2277 C 0.23045 0.6383 0.209 0.0
C2278 C 0.31448 0.63099 1.11793 0.0
C2279 C 0.30124 0.64753 1.09627 0.0
C2280 C 0.29327 0.62652 1.13943 0.0
C2281 C 0.25778 0.63785 1.13999 0.0
C2282 C 0.24435 0.65379 1.11813 0.0
C2283 C 0.26576 0.65874 1.09673 0.0
H2284 H 0.7165 0.91981 0.94719 0.0
H2285 H 0.61979 0.96792 0.97254 0.0
H2286 H 0.71322 0.95481 0.9084 0.0
H2287 H 0.61717 1.00333 0.93493 0.0
H2288 H 0.60115 0.04266 0.8562 0.0
H2289 H 0.60522 1.00414 0.89253 0.0
H2290 H 0.71883 1.01225 0.88988 0.0
H2291 H 0.71452 0.04977 0.85272 0.0
C2292 C 0.69425 0.93728 0.94439 0.0
C2293 C 0.66814 0.9403 0.96305 0.0
C2294 C 0.6926 0.95791 0.92225 0.0
C2295 C 0.66471 0.98208 0.91805 0.0
C2296 C 0.63866 0.9847 0.93678 0.0
C2297 C 0.64031 0.96426 0.95868 0.0
C2298 C 0.62702 0.03587 0.86301 0.0
C2299 C 0.65737 0.04931 0.85106 0.0
C2300 C 0.62947 1.01397 0.88428 0.0
C2301 C 0.66245 1.0047 0.8946 0.0
C2302 C 0.69291 1.01809 0.88256 0.0
C2303 C 0.6904 0.04001 0.86122 0.0
loop_
_geom_bond_atom_site_label_1
_geom_bond_atom_site_label_2
_geom_bond_distance
_geom_bond_site_symmetry_2
_ccdc_geom_bond_type
C0 C2 1.422 . S
C0 C4 1.415 . S
C0 N6 1.369 . S
C1 C2 1.421 . S
C1 C3 1.417 . S
C1 C13 1.422 . S
C2 C0 1.422 . S
C2 C1 1.421 . S
C2 N12 1.359 . S
C3 C1 1.417 . S
C3 C5 1.329 . S
C3 H22 0.930 . S
C4 C0 1.415 . S
C4 C5 1.437 . S
C4 C8 1.413 . S
C5 C3 1.329 . S
C5 C4 1.437 . S
C5 H27 0.929 . S
N6 C0 1.369 . S
N6 C7 1.338 . S
N6 Gd11 2.622 . S
C7 N6 1.338 . S
C7 C9 1.378 . S
C7 H19 0.929 . S
C8 C4 1.413 . S
C8 C9 1.348 . S
C8 H24 0.931 . S
C9 C7 1.378 . S
C9 C8 1.348 . S
C9 H25 0.930 . S
Gd10 N30 2.622 . S
Gd10 N37 2.570 . S
Gd10 O44 2.353 . S
Gd10 O45 2.468 . S
Gd10 O46 2.427 . S
Gd10 O48 2.388 . S
Gd10 O49 2.386 . S
Gd10 O53 2.307 . S
Gd10 C63 2.805 . S
Gd11 N6 2.622 . S
Gd11 N12 2.570 . S
Gd11 O43 2.386 . S
Gd11 O47 2.307 . S
Gd11 O50 2.353 . S
Gd11 O51 2.468 . S
Gd11 O52 2.427 . S
Gd11 O54 2.388 . S
Gd11 C75 2.805 . S
N12 C2 1.359 . S
N12 Gd11 2.570 . S
N12 C14 1.343 . S
C13 C1 1.422 . S
C13 C15 1.321 . S
C13 H21 0.931 . S
C14 N12 1.343 . S
C14 C15 1.390 . S
C14 H16 0.931 . S
C15 C13 1.321 . S
C15 C14 1.390 . S
C15 H17 0.930 . S
H16 C14 0.931 . S
H17 C15 0.930 . S
H18 C41 0.931 . S
H19 C7 0.929 . S
H20 C42 0.930 . S
H21 C13 0.931 . S
H22 C3 0.930 . S
H23 C32 0.929 . S
H24 C8 0.931 . S
H25 C9 0.930 . S
H26 C64 0.930 . S
H27 C5 0.929 . S
H28 C33 0.931 . S
H29 C34 0.930 1_565 S
N30 Gd10 2.622 . S
N30 C31 1.369 . S
N30 C32 1.338 . S
C31 N30 1.369 . S
C31 C35 1.415 . S
C31 C38 1.422 . S
C32 H23 0.929 . S
C32 N30 1.338 . S
C32 C34 1.378 . S
C33 H28 0.931 . S
C33 C34 1.348 1_565 S
C33 C35 1.413 1_565 S
C34 H29 0.930 1_545 S
C34 C32 1.378 . S
C34 C33 1.348 1_545 S
C35 C31 1.415 . S
C35 C33 1.413 1_545 S
C35 C65 1.437 . S
H36 C65 0.929 1_565 S
N37 Gd10 2.570 . S
N37 C38 1.359 . S
N37 C41 1.343 . S
C38 C31 1.422 . S
C38 N37 1.359 . S
C38 C40 1.421 . S
C39 C40 1.422 . S
C39 C42 1.321 . S
C39 H66 0.931 . S
C40 C38 1.421 . S
C40 C39 1.422 . S
C40 C64 1.417 . S
C41 H18 0.931 . S
C41 N37 1.343 . S
C41 C42 1.390 . S
C42 H20 0.930 . S
C42 C39 1.321 . S
C42 C41 1.390 . S
O43 Gd11 2.386 . S
O43 C55 1.265 . S
O44 Gd10 2.353 . S
O44 C55 1.242 . S
O45 Gd10 2.468 . S
O45 C63 1.263 . S
O46 Gd10 2.427 . S
O46 C63 1.252 . S
O47 Gd11 2.307 . S
O47 C56 1.261 . S
O48 Gd10 2.388 . S
O48 C56 1.252 . S
O49 Gd10 2.386 . S
O49 C67 1.265 . S
O50 Gd11 2.353 . S
O50 C67 1.242 . S
O51 Gd11 2.468 . S
O51 C75 1.263 . S
O52 Gd11 2.427 . S
O52 C75 1.252 . S
O53 Gd10 2.307 . S
O53 C68 1.261 . S
O54 Gd11 2.388 . S
O54 C68 1.252 . S
C55 O43 1.265 . S
C55 O44 1.242 . S
C56 O47 1.261 . S
C56 O48 1.252 . S
C57 C60 1.394 . S
C57 C62 1.370 . S
C57 C63 1.500 . S
C58 C61 1.383 1_545 S
C58 C62 1.395 . S
C59 C60 1.396 1_565 S
C59 C61 1.365 . S
C59 H76 0.929 . S
C60 C57 1.394 . S
C60 C59 1.396 1_545 S
C60 H77 0.930 1_545 S
C61 C58 1.383 1_565 S
C61 C59 1.365 . S
C61 H78 0.918 1_554 S
C62 C57 1.370 . S
C62 C58 1.395 . S
C62 H79 0.930 . S
C63 Gd10 2.805 . S
C63 O45 1.263 . S
C63 O46 1.252 . S
C63 C57 1.500 . S
C64 H26 0.930 . S
C64 C40 1.417 . S
C64 C65 1.329 . S
C65 C35 1.437 . S
C65 H36 0.929 1_545 S
C65 C64 1.329 . S
H66 C39 0.931 . S
C67 O49 1.265 . S
C67 O50 1.242 . S
C68 O53 1.261 . S
C68 O54 1.252 . S
C69 C72 1.394 . S
C69 C74 1.370 . S
C69 C75 1.500 . S
C70 C73 1.383 . S
C70 C74 1.395 . S
C71 C72 1.396 . S
C71 C73 1.365 . S
C71 H80 0.929 . S
C72 C69 1.394 . S
C72 C71 1.396 . S
C72 H81 0.930 . S
C73 C70 1.383 . S
C73 C71 1.365 . S
C73 H82 0.931 . S
C74 C69 1.370 . S
C74 C70 1.395 . S
C74 H83 0.930 . S
C75 Gd11 2.805 . S
C75 O51 1.263 . S
C75 O52 1.252 . S
C75 C69 1.500 . S
H76 C59 0.929 . S
H77 C60 0.930 1_565 S
H78 C61 0.918 1_556 S
H79 C62 0.930 . S
H80 C71 0.929 . S
H81 C72 0.930 . S
H82 C73 0.931 . S
H83 C74 0.930 . S
C84 C86 1.422 . S
C84 C88 1.415 . S
C84 N90 1.369 . S
C85 C86 1.421 . S
C85 C87 1.417 . S
C85 C97 1.422 . S
C86 C84 1.422 . S
C86 C85 1.421 . S
C86 N96 1.359 . S
C87 C85 1.417 . S
C87 C89 1.329 . S
C87 H106 0.930 . S
C88 C84 1.415 . S
C88 C89 1.437 . S
C88 C92 1.413 . S
C89 C87 1.329 . S
C89 C88 1.437 . S
C89 H111 0.929 . S
N90 C84 1.369 . S
N90 C91 1.338 . S
N90 Gd95 2.622 . S
C91 N90 1.338 . S
C91 C93 1.378 . S
C91 H103 0.929 . S
C92 C88 1.413 . S
C92 C93 1.348 . S
C92 H108 0.931 . S
C93 C91 1.378 . S
C93 C92 1.348 . S
C93 H109 0.930 . S
Gd94 N114 2.622 . S
Gd94 N121 2.570 . S
Gd94 O128 2.353 . S
Gd94 O129 2.468 . S
Gd94 O130 2.427 . S
Gd94 O132 2.388 . S
Gd94 O133 2.386 . S
Gd94 O137 2.307 . S
Gd94 C147 2.805 . S
Gd95 N90 2.622 . S
Gd95 N96 2.570 . S
Gd95 O127 2.386 . S
Gd95 O131 2.307 . S
Gd95 O134 2.353 . S
Gd95 O135 2.468 . S
Gd95 O136 2.427 . S
Gd95 O138 2.388 . S
Gd95 C159 2.805 . S
N96 C86 1.359 . S
N96 Gd95 2.570 . S
N96 C98 1.343 . S
C97 C85 1.422 . S
C97 C99 1.321 . S
C97 H105 0.931 . S
C98 N96 1.343 . S
C98 C99 1.390 . S
C98 H100 0.931 . S
C99 C97 1.321 . S
C99 C98 1.390 . S
C99 H101 0.930 . S
H100 C98 0.931 . S
H101 C99 0.930 . S
H102 C125 0.931 . S
H103 C91 0.929 . S
H104 C126 0.930 . S
H105 C97 0.931 . S
H106 C87 0.930 . S
H107 C116 0.929 . S
H108 C92 0.931 . S
H109 C93 0.930 . S
H110 C148 0.930 . S
H111 C89 0.929 . S
H112 C117 0.931 . S
H113 C118 0.930 . S
N114 Gd94 2.622 . S
N114 C115 1.369 . S
N114 C116 1.338 . S
C115 N114 1.369 . S
C115 C119 1.415 . S
C115 C122 1.422 . S
C116 H107 0.929 . S
C116 N114 1.338 . S
C116 C118 1.378 . S
C117 H112 0.931 . S
C117 C118 1.348 . S
C117 C119 1.413 . S
C118 H113 0.930 . S
C118 C116 1.378 . S
C118 C117 1.348 . S
C119 C115 1.415 . S
C119 C117 1.413 . S
C119 C149 1.437 . S
H120 C149 0.929 . S
N121 Gd94 2.570 . S
N121 C122 1.359 . S
N121 C125 1.343 . S
C122 C115 1.422 . S
C122 N121 1.359 . S
C122 C124 1.421 . S
C123 C124 1.422 . S
C123 C126 1.321 . S
C123 H150 0.931 . S
C124 C122 1.421 . S
C124 C123 1.422 . S
C124 C148 1.417 . S
C125 H102 0.931 . S
C125 N121 1.343 . S
C125 C126 1.390 . S
C126 H104 0.930 . S
C126 C123 1.321 . S
C126 C125 1.390 . S
O127 Gd95 2.386 . S
O127 C139 1.265 . S
O128 Gd94 2.353 . S
O128 C139 1.242 . S
O129 Gd94 2.468 . S
O129 C147 1.263 . S
O130 Gd94 2.427 . S
O130 C147 1.252 . S
O131 Gd95 2.307 . S
O131 C140 1.261 . S
O132 Gd94 2.388 . S
O132 C140 1.252 . S
O133 Gd94 2.386 . S
O133 C151 1.265 . S
O134 Gd95 2.353 . S
O134 C151 1.242 . S
O135 Gd95 2.468 . S
O135 C159 1.263 . S
O136 Gd95 2.427 . S
O136 C159 1.252 . S
O137 Gd94 2.307 . S
O137 C152 1.261 . S
O138 Gd95 2.388 . S
O138 C152 1.252 . S
C139 O127 1.265 . S
C139 O128 1.242 . S
C140 O131 1.261 . S
C140 O132 1.252 . S
C141 C144 1.394 . S
C141 C146 1.370 . S
C141 C147 1.500 . S
C142 C145 1.383 . S
C142 C146 1.395 . S
C143 C144 1.396 . S
C143 C145 1.365 . S
C143 H160 0.929 . S
C144 C141 1.394 . S
C144 C143 1.396 . S
C144 H161 0.930 . S
C145 C142 1.383 . S
C145 C143 1.365 . S
C145 H162 0.931 . S
C146 C141 1.370 . S
C146 C142 1.395 . S
C146 H163 0.930 . S
C147 Gd94 2.805 . S
C147 O129 1.263 . S
C147 O130 1.252 . S
C147 C141 1.500 . S
C148 H110 0.930 . S
C148 C124 1.417 . S
C148 C149 1.329 . S
C149 C119 1.437 . S
C149 H120 0.929 . S
C149 C148 1.329 . S
H150 C123 0.931 . S
C151 O133 1.265 . S
C151 O134 1.242 . S
C152 O137 1.261 . S
C152 O138 1.252 . S
C153 C156 1.394 . S
C153 C158 1.370 . S
C153 C159 1.500 . S
C154 C157 1.383 . S
C154 C158 1.395 . S
C155 C156 1.396 . S
C155 C157 1.365 . S
C155 H164 0.929 . S
C156 C153 1.394 . S
C156 C155 1.396 . S
C156 H165 0.930 . S
C157 C154 1.383 . S
C157 C155 1.365 . S
C157 H166 0.931 . S
C158 C153 1.370 . S
C158 C154 1.395 . S
C158 H167 0.930 . S
C159 Gd95 2.805 . S
C159 O135 1.263 . S
C159 O136 1.252 . S
C159 C153 1.500 . S
H160 C143 0.929 . S
H161 C144 0.930 . S
H162 C145 0.931 . S
H163 C146 0.930 . S
H164 C155 0.929 . S
H165 C156 0.930 . S
H166 C157 0.931 . S
H167 C158 0.930 . S
C168 C170 1.422 . S
C168 C172 1.415 . S
C168 N174 1.369 . S
C169 C170 1.421 . S
C169 C171 1.417 . S
C169 C181 1.422 . S
C170 C168 1.422 . S
C170 C169 1.421 . S
C170 N180 1.359 . S
C171 C169 1.417 . S
C171 C173 1.329 . S
C171 H190 0.930 . S
C172 C168 1.415 . S
C172 C173 1.437 . S
C172 C176 1.413 . S
C173 C171 1.329 . S
C173 C172 1.437 . S
C173 H195 0.929 . S
N174 C168 1.369 . S
N174 C175 1.338 . S
N174 Gd179 2.622 . S
C175 N174 1.338 . S
C175 C177 1.378 . S
C175 H187 0.929 . S
C176 C172 1.413 . S
C176 C177 1.348 . S
C176 H192 0.931 . S
C177 C175 1.378 . S
C177 C176 1.348 . S
C177 H193 0.930 . S
Gd178 N198 2.622 . S
Gd178 N205 2.570 . S
Gd178 O212 2.353 . S
Gd178 O213 2.468 . S
Gd178 O214 2.427 . S
Gd178 O216 2.388 . S
Gd178 O217 2.386 . S
Gd178 O221 2.307 . S
Gd178 C231 2.805 . S
Gd179 N174 2.622 . S
Gd179 N180 2.570 . S
Gd179 O211 2.386 . S
Gd179 O215 2.307 . S
Gd179 O218 2.353 . S
Gd179 O219 2.468 . S
Gd179 O220 2.427 . S
Gd179 O222 2.388 . S
Gd179 C243 2.805 . S
N180 C170 1.359 . S
N180 Gd179 2.570 . S
N180 C182 1.343 . S
C181 C169 1.422 . S
C181 C183 1.321 . S
C181 H189 0.931 . S
C182 N180 1.343 . S
C182 C183 1.390 . S
C182 H184 0.931 . S
C183 C181 1.321 . S
C183 C182 1.390 . S
C183 H185 0.930 . S
H184 C182 0.931 . S
H185 C183 0.930 . S
H186 C209 0.931 . S
H187 C175 0.929 . S
H188 C210 0.930 . S
H189 C181 0.931 . S
H190 C171 0.930 . S
H191 C200 0.929 . S
H192 C176 0.931 . S
H193 C177 0.930 . S
H194 C232 0.930 . S
H195 C173 0.929 . S
H196 C201 0.931 . S
H197 C202 0.930 1_545 S
N198 Gd178 2.622 . S
N198 C199 1.369 . S
N198 C200 1.338 . S
C199 N198 1.369 . S
C199 C203 1.415 . S
C199 C206 1.422 . S
C200 H191 0.929 . S
C200 N198 1.338 . S
C200 C202 1.378 . S
C201 H196 0.931 . S
C201 C202 1.348 1_545 S
C201 C203 1.413 1_545 S
C202 H197 0.930 1_565 S
C202 C200 1.378 . S
C202 C201 1.348 1_565 S
C203 C199 1.415 . S
C203 C201 1.413 1_565 S
C203 C233 1.437 . S
H204 C233 0.929 1_545 S
N205 Gd178 2.570 . S
N205 C206 1.359 . S
N205 C209 1.343 . S
C206 C199 1.422 . S
C206 N205 1.359 . S
C206 C208 1.421 . S
C207 C208 1.422 . S
C207 C210 1.321 . S
C207 H234 0.931 . S
C208 C206 1.421 . S
C208 C207 1.422 . S
C208 C232 1.417 . S
C209 H186 0.931 . S
C209 N205 1.343 . S
C209 C210 1.390 . S
C210 H188 0.930 . S
C210 C207 1.321 . S
C210 C209 1.390 . S
O211 Gd179 2.386 . S
O211 C223 1.265 . S
O212 Gd178 2.353 . S
O212 C223 1.242 . S
O213 Gd178 2.468 . S
O213 C231 1.263 . S
O214 Gd178 2.427 . S
O214 C231 1.252 . S
O215 Gd179 2.307 . S
O215 C224 1.261 . S
O216 Gd178 2.388 . S
O216 C224 1.252 . S
O217 Gd178 2.386 . S
O217 C235 1.265 . S
O218 Gd179 2.353 . S
O218 C235 1.242 . S
O219 Gd179 2.468 . S
O219 C243 1.263 . S
O220 Gd179 2.427 . S
O220 C243 1.252 . S
O221 Gd178 2.307 . S
O221 C236 1.261 . S
O222 Gd179 2.388 . S
O222 C236 1.252 . S
C223 O211 1.265 . S
C223 O212 1.242 . S
C224 O215 1.261 . S
C224 O216 1.252 . S
C225 C228 1.394 . S
C225 C230 1.370 . S
C225 C231 1.500 . S
C226 C229 1.383 1_565 S
C226 C230 1.395 . S
C227 C228 1.396 1_545 S
C227 C229 1.365 . S
C227 H244 0.929 . S
C228 C225 1.394 . S
C228 C227 1.396 1_565 S
C228 H245 0.930 1_565 S
C229 C226 1.383 1_545 S
C229 C227 1.365 . S
C229 H246 0.931 . S
C230 C225 1.370 . S
C230 C226 1.395 . S
C230 H247 0.930 . S
C231 Gd178 2.805 . S
C231 O213 1.263 . S
C231 O214 1.252 . S
C231 C225 1.500 . S
C232 H194 0.930 . S
C232 C208 1.417 . S
C232 C233 1.329 . S
C233 C203 1.437 . S
C233 H204 0.929 1_565 S
C233 C232 1.329 . S
H234 C207 0.931 . S
C235 O217 1.265 . S
C235 O218 1.242 . S
C236 O221 1.261 . S
C236 O222 1.252 . S
C237 C240 1.394 . S
C237 C242 1.370 . S
C237 C243 1.500 . S
C238 C241 1.383 . S
C238 C242 1.395 . S
C239 C240 1.396 . S
C239 C241 1.365 . S
C239 H248 0.929 . S
C240 C237 1.394 . S
C240 C239 1.396 . S
C240 H249 0.930 . S
C241 C238 1.383 . S
C241 C239 1.365 . S
C241 H250 0.931 . S
C242 C237 1.370 . S
C242 C238 1.395 . S
C242 H251 0.930 . S
C243 Gd179 2.805 . S
C243 O219 1.263 . S
C243 O220 1.252 . S
C243 C237 1.500 . S
H244 C227 0.929 . S
H245 C228 0.930 1_545 S
H246 C229 0.931 . S
H247 C230 0.930 . S
H248 C239 0.929 . S
H249 C240 0.930 . S
H250 C241 0.931 . S
H251 C242 0.930 . S
C252 C254 1.422 1_455 S
C252 C256 1.415 . S
C252 N258 1.369 . S
C253 C254 1.421 1_455 S
C253 C255 1.417 . S
C253 C265 1.422 1_455 S
C254 C252 1.422 1_655 S
C254 C253 1.421 1_655 S
C254 N264 1.359 . S
C255 C253 1.417 . S
C255 C257 1.329 . S
C255 H274 0.930 . S
C256 C252 1.415 . S
C256 C257 1.437 . S
C256 C260 1.413 . S
C257 C255 1.329 . S
C257 C256 1.437 . S
C257 H279 0.929 . S
N258 C252 1.369 . S
N258 C259 1.338 . S
N258 Gd263 2.622 1_455 S
C259 N258 1.338 . S
C259 C261 1.378 . S
C259 H271 0.929 . S
C260 C256 1.413 . S
C260 C261 1.348 . S
C260 H276 0.931 . S
C261 C259 1.378 . S
C261 C260 1.348 . S
C261 H277 0.930 . S
Gd262 N282 2.622 . S
Gd262 N289 2.570 . S
Gd262 O296 2.353 . S
Gd262 O297 2.468 . S
Gd262 O298 2.427 . S
Gd262 O300 2.388 . S
Gd262 O301 2.386 . S
Gd262 O305 2.307 . S
Gd262 C315 2.805 . S
Gd263 N258 2.622 1_655 S
Gd263 N264 2.570 . S
Gd263 O295 2.386 . S
Gd263 O299 2.307 . S
Gd263 O302 2.353 . S
Gd263 O303 2.468 . S
Gd263 O304 2.440 . S
Gd263 O306 2.388 . S
Gd263 C327 2.805 . S
N264 C254 1.359 . S
N264 Gd263 2.570 . S
N264 C266 1.343 . S
C265 C253 1.422 1_655 S
C265 C267 1.321 . S
C265 H273 0.931 . S
C266 N264 1.343 . S
C266 C267 1.390 . S
C266 H268 0.931 . S
C267 C265 1.321 . S
C267 C266 1.390 . S
C267 H269 0.930 . S
H268 C266 0.931 . S
H269 C267 0.930 . S
H270 C293 0.931 . S
H271 C259 0.929 . S
H272 C294 0.930 . S
H273 C265 0.931 . S
H274 C255 0.930 . S
H275 C284 0.929 . S
H276 C260 0.931 . S
H277 C261 0.930 . S
H278 C316 0.930 . S
H279 C257 0.929 . S
H280 C285 0.931 . S
H281 C286 0.930 . S
N282 Gd262 2.622 . S
N282 C283 1.369 . S
N282 C284 1.338 . S
C283 N282 1.369 . S
C283 C287 1.415 . S
C283 C290 1.422 . S
C284 H275 0.929 . S
C284 N282 1.338 . S
C284 C286 1.378 . S
C285 H280 0.931 . S
C285 C286 1.348 . S
C285 C287 1.413 . S
C286 H281 0.930 . S
C286 C284 1.378 . S
C286 C285 1.348 . S
C287 C283 1.415 . S
C287 C285 1.413 . S
C287 C317 1.437 . S
H288 C317 0.929 . S
N289 Gd262 2.570 . S
N289 C290 1.359 . S
N289 C293 1.343 . S
C290 C283 1.422 . S
C290 N289 1.359 . S
C290 C292 1.421 . S
C291 C292 1.422 . S
C291 C294 1.321 . S
C291 H318 0.931 . S
C292 C290 1.421 . S
C292 C291 1.422 . S
C292 C316 1.417 . S
C293 H270 0.931 . S
C293 N289 1.343 . S
C293 C294 1.390 . S
C294 H272 0.930 . S
C294 C291 1.321 . S
C294 C293 1.390 . S
O295 Gd263 2.386 . S
O295 C307 1.265 . S
O296 Gd262 2.353 . S
O296 C307 1.242 . S
O297 Gd262 2.468 . S
O297 C315 1.263 . S
O298 Gd262 2.427 . S
O298 C315 1.252 . S
O299 Gd263 2.307 . S
O299 C308 1.261 . S
O300 Gd262 2.388 . S
O300 C308 1.252 . S
O301 Gd262 2.386 . S
O301 C319 1.265 . S
O302 Gd263 2.353 . S
O302 C319 1.242 . S
O303 Gd263 2.468 . S
O303 C327 1.263 . S
O304 Gd263 2.440 . S
O304 C327 1.256 . S
O305 Gd262 2.307 . S
O305 C320 1.261 . S
O306 Gd263 2.388 . S
O306 C320 1.252 . S
C307 O295 1.265 . S
C307 O296 1.242 . S
C308 O299 1.261 . S
C308 O300 1.252 . S
C309 C312 1.394 . S
C309 C314 1.370 . S
C309 C315 1.500 . S
C310 C313 1.383 . S
C310 C314 1.395 . S
C311 C312 1.396 . S
C311 C313 1.365 . S
C311 H328 0.929 . S
C312 C309 1.394 . S
C312 C311 1.396 . S
C312 H329 0.930 . S
C313 C310 1.383 . S
C313 C311 1.365 . S
C313 H330 0.931 . S
C314 C309 1.370 . S
C314 C310 1.395 . S
C314 H331 0.930 . S
C315 Gd262 2.805 . S
C315 O297 1.263 . S
C315 O298 1.252 . S
C315 C309 1.500 . S
C316 H278 0.930 . S
C316 C292 1.417 . S
C316 C317 1.329 . S
C317 C287 1.437 . S
C317 H288 0.929 . S
C317 C316 1.329 . S
H318 C291 0.931 . S
C319 O301 1.265 . S
C319 O302 1.242 . S
C320 O305 1.261 . S
C320 O306 1.252 . S
C321 C324 1.394 . S
C321 C326 1.370 . S
C321 C327 1.500 1_455 S
C322 C325 1.383 . S
C322 C326 1.395 . S
C323 C324 1.396 . S
C323 C325 1.365 . S
C323 H332 0.929 . S
C324 C321 1.394 . S
C324 C323 1.396 . S
C324 H333 0.930 . S
C325 C322 1.383 . S
C325 C323 1.365 . S
C325 H334 0.931 . S
C326 C321 1.370 . S
C326 C322 1.395 . S
C326 H335 0.930 1_455 S
C327 Gd263 2.805 . S
C327 O303 1.263 . S
C327 O304 1.256 . S
C327 C321 1.500 1_655 S
H328 C311 0.929 . S
H329 C312 0.930 . S
H330 C313 0.931 . S
H331 C314 0.930 . S
H332 C323 0.929 . S
H333 C324 0.930 . S
H334 C325 0.931 . S
H335 C326 0.930 1_655 S
C336 C338 1.422 . S
C336 C340 1.415 . S
C336 N342 1.369 . S
C337 C338 1.421 . S
C337 C339 1.417 . S
C337 C349 1.422 . S
C338 C336 1.422 . S
C338 C337 1.421 . S
C338 N348 1.359 . S
C339 C337 1.417 . S
C339 C341 1.329 . S
C339 H358 0.930 . S
C340 C336 1.415 . S
C340 C341 1.437 . S
C340 C344 1.413 1_565 S
C341 C339 1.329 . S
C341 C340 1.437 . S
C341 H363 0.929 1_565 S
N342 C336 1.369 . S
N342 C343 1.338 . S
N342 Gd347 2.622 . S
C343 N342 1.338 . S
C343 C345 1.378 . S
C343 H355 0.929 . S
C344 C340 1.413 1_545 S
C344 C345 1.348 1_545 S
C344 H360 0.931 . S
C345 C343 1.378 . S
C345 C344 1.348 1_565 S
C345 H361 0.930 1_565 S
Gd346 N366 2.622 . S
Gd346 N373 2.570 . S
Gd346 O380 2.353 . S
Gd346 O381 2.468 . S
Gd346 O382 2.427 . S
Gd346 O384 2.388 . S
Gd346 O385 2.386 . S
Gd346 O389 2.307 . S
Gd346 C399 2.805 . S
Gd347 N342 2.622 . S
Gd347 N348 2.570 . S
Gd347 O379 2.386 . S
Gd347 O383 2.307 . S
Gd347 O386 2.353 . S
Gd347 O387 2.468 . S
Gd347 O388 2.427 . S
Gd347 O390 2.388 . S
Gd347 C411 2.805 . S
N348 C338 1.359 . S
N348 Gd347 2.570 . S
N348 C350 1.343 . S
C349 C337 1.422 . S
C349 C351 1.321 . S
C349 H357 0.931 . S
C350 N348 1.343 . S
C350 C351 1.390 . S
C350 H352 0.931 . S
C351 C349 1.321 . S
C351 C350 1.390 . S
C351 H353 0.930 . S
H352 C350 0.931 . S
H353 C351 0.930 . S
H354 C377 0.931 . S
H355 C343 0.929 . S
H356 C378 0.930 . S
H357 C349 0.931 . S
H358 C339 0.930 . S
H359 C368 0.929 . S
H360 C344 0.931 . S
H361 C345 0.930 1_545 S
H362 C400 0.930 . S
H363 C341 0.929 1_545 S
H364 C369 0.931 . S
H365 C370 0.930 . S
N366 Gd346 2.622 . S
N366 C367 1.369 . S
N366 C368 1.338 . S
C367 N366 1.369 . S
C367 C371 1.415 . S
C367 C374 1.422 . S
C368 H359 0.929 . S
C368 N366 1.338 . S
C368 C370 1.378 . S
C369 H364 0.931 . S
C369 C370 1.348 . S
C369 C371 1.413 . S
C370 H365 0.930 . S
C370 C368 1.378 . S
C370 C369 1.348 . S
C371 C367 1.415 . S
C371 C369 1.413 . S
C371 C401 1.437 . S
H372 C401 0.929 . S
N373 Gd346 2.570 . S
N373 C374 1.359 . S
N373 C377 1.343 . S
C374 C367 1.422 . S
C374 N373 1.359 . S
C374 C376 1.421 . S
C375 C376 1.422 . S
C375 C378 1.321 . S
C375 H402 0.931 . S
C376 C374 1.421 . S
C376 C375 1.422 . S
C376 C400 1.417 . S
C377 H354 0.931 . S
C377 N373 1.343 . S
C377 C378 1.390 . S
C378 H356 0.930 . S
C378 C375 1.321 . S
C378 C377 1.390 . S
O379 Gd347 2.386 . S
O379 C391 1.265 . S
O380 Gd346 2.353 . S
O380 C391 1.242 . S
O381 Gd346 2.468 . S
O381 C399 1.263 . S
O382 Gd346 2.427 . S
O382 C399 1.252 . S
O383 Gd347 2.307 . S
O383 C392 1.261 . S
O384 Gd346 2.388 . S
O384 C392 1.252 . S
O385 Gd346 2.386 . S
O385 C403 1.265 . S
O386 Gd347 2.353 . S
O386 C403 1.242 . S
O387 Gd347 2.468 . S
O387 C411 1.263 . S
O388 Gd347 2.427 . S
O388 C411 1.252 . S
O389 Gd346 2.307 . S
O389 C404 1.261 . S
O390 Gd347 2.388 . S
O390 C404 1.252 . S
C391 O379 1.265 . S
C391 O380 1.242 . S
C392 O383 1.261 . S
C392 O384 1.252 . S
C393 C396 1.394 . S
C393 C398 1.370 . S
C393 C399 1.500 . S
C394 C397 1.383 . S
C394 C398 1.395 . S
C395 C396 1.396 . S
C395 C397 1.365 . S
C395 H412 0.929 . S
C396 C393 1.394 . S
C396 C395 1.396 . S
C396 H413 0.930 . S
C397 C394 1.383 . S
C397 C395 1.365 . S
C397 H414 0.931 . S
C398 C393 1.370 . S
C398 C394 1.395 . S
C398 H415 0.930 . S
C399 Gd346 2.805 . S
C399 O381 1.263 . S
C399 O382 1.252 . S
C399 C393 1.500 . S
C400 H362 0.930 . S
C400 C376 1.417 . S
C400 C401 1.329 . S
C401 C371 1.437 . S
C401 H372 0.929 . S
C401 C400 1.329 . S
H402 C375 0.931 . S
C403 O385 1.265 . S
C403 O386 1.242 . S
C404 O389 1.261 . S
C404 O390 1.252 . S
C405 C408 1.394 . S
C405 C410 1.370 . S
C405 C411 1.500 . S
C406 C409 1.383 1_565 S
C406 C410 1.395 . S
C407 C408 1.396 1_545 S
C407 C409 1.365 . S
C407 H416 0.929 . S
C408 C405 1.394 . S
C408 C407 1.396 1_565 S
C408 H417 0.930 1_565 S
C409 C406 1.383 1_545 S
C409 C407 1.365 . S
C409 H418 0.918 1_556 S
C410 C405 1.370 . S
C410 C406 1.395 . S
C410 H419 0.930 . S
C411 Gd347 2.805 . S
C411 O387 1.263 . S
C411 O388 1.252 . S
C411 C405 1.500 . S
H412 C395 0.929 . S
H413 C396 0.930 . S
H414 C397 0.931 . S
H415 C398 0.930 . S
H416 C407 0.929 . S
H417 C408 0.930 1_545 S
H418 C409 0.918 1_554 S
H419 C410 0.930 . S
C420 C422 1.422 . S
C420 C424 1.415 . S
C420 N426 1.369 . S
C421 C422 1.421 . S
C421 C423 1.417 . S
C421 C433 1.422 . S
C422 C420 1.422 . S
C422 C421 1.421 . S
C422 N432 1.359 . S
C423 C421 1.417 . S
C423 C425 1.329 . S
C423 H442 0.930 . S
C424 C420 1.415 . S
C424 C425 1.437 . S
C424 C428 1.413 . S
C425 C423 1.329 . S
C425 C424 1.437 . S
C425 H447 0.929 . S
N426 C420 1.369 . S
N426 C427 1.338 . S
N426 Gd431 2.622 . S
C427 N426 1.338 . S
C427 C429 1.378 . S
C427 H439 0.929 . S
C428 C424 1.413 . S
C428 C429 1.348 . S
C428 H444 0.931 . S
C429 C427 1.378 . S
C429 C428 1.348 . S
C429 H445 0.930 . S
Gd430 N450 2.622 . S
Gd430 N457 2.570 . S
Gd430 O464 2.353 . S
Gd430 O465 2.468 . S
Gd430 O466 2.427 . S
Gd430 O468 2.388 . S
Gd430 O469 2.386 . S
Gd430 O473 2.307 . S
Gd430 C483 2.805 . S
Gd431 N426 2.622 . S
Gd431 N432 2.570 . S
Gd431 O463 2.386 . S
Gd431 O467 2.307 . S
Gd431 O470 2.353 . S
Gd431 O471 2.468 . S
Gd431 O472 2.427 . S
Gd431 O474 2.388 . S
Gd431 C495 2.805 . S
N432 C422 1.359 . S
N432 Gd431 2.570 . S
N432 C434 1.343 . S
C433 C421 1.422 . S
C433 C435 1.321 . S
C433 H441 0.931 . S
C434 N432 1.343 . S
C434 C435 1.390 . S
C434 H436 0.931 . S
C435 C433 1.321 . S
C435 C434 1.390 . S
C435 H437 0.930 . S
H436 C434 0.931 . S
H437 C435 0.930 . S
H438 C461 0.931 . S
H439 C427 0.929 . S
H440 C462 0.930 . S
H441 C433 0.931 . S
H442 C423 0.930 . S
H443 C452 0.929 . S
H444 C428 0.931 . S
H445 C429 0.930 . S
H446 C484 0.930 . S
H447 C425 0.929 . S
H448 C453 0.931 . S
H449 C454 0.930 . S
N450 Gd430 2.622 . S
N450 C451 1.369 . S
N450 C452 1.338 . S
C451 N450 1.369 . S
C451 C455 1.415 . S
C451 C458 1.422 . S
C452 H443 0.929 . S
C452 N450 1.338 . S
C452 C454 1.378 . S
C453 H448 0.931 . S
C453 C454 1.348 . S
C453 C455 1.413 . S
C454 H449 0.930 . S
C454 C452 1.378 . S
C454 C453 1.348 . S
C455 C451 1.415 . S
C455 C453 1.413 . S
C455 C485 1.437 . S
H456 C485 0.929 . S
N457 Gd430 2.570 . S
N457 C458 1.359 . S
N457 C461 1.343 . S
C458 C451 1.422 . S
C458 N457 1.359 . S
C458 C460 1.421 . S
C459 C460 1.422 . S
C459 C462 1.321 . S
C459 H486 0.931 . S
C460 C458 1.421 . S
C460 C459 1.422 . S
C460 C484 1.417 . S
C461 H438 0.931 . S
C461 N457 1.343 . S
C461 C462 1.390 . S
C462 H440 0.930 . S
C462 C459 1.321 . S
C462 C461 1.390 . S
O463 Gd431 2.386 . S
O463 C475 1.265 . S
O464 Gd430 2.353 . S
O464 C475 1.242 . S
O465 Gd430 2.468 . S
O465 C483 1.263 . S
O466 Gd430 2.427 . S
O466 C483 1.252 . S
O467 Gd431 2.307 . S
O467 C476 1.261 . S
O468 Gd430 2.388 . S
O468 C476 1.252 . S
O469 Gd430 2.386 . S
O469 C487 1.265 . S
O470 Gd431 2.353 . S
O470 C487 1.242 . S
O471 Gd431 2.468 . S
O471 C495 1.263 . S
O472 Gd431 2.427 . S
O472 C495 1.252 . S
O473 Gd430 2.307 . S
O473 C488 1.261 . S
O474 Gd431 2.388 . S
O474 C488 1.252 . S
C475 O463 1.265 . S
C475 O464 1.242 . S
C476 O467 1.261 . S
C476 O468 1.252 . S
C477 C480 1.394 . S
C477 C482 1.370 . S
C477 C483 1.500 . S
C478 C481 1.383 . S
C478 C482 1.395 . S
C479 C480 1.396 . S
C479 C481 1.365 . S
C479 H496 0.929 . S
C480 C477 1.394 . S
C480 C479 1.396 . S
C480 H497 0.930 . S
C481 C478 1.383 . S
C481 C479 1.365 . S
C481 H498 0.931 . S
C482 C477 1.370 . S
C482 C478 1.395 . S
C482 H499 0.930 . S
C483 Gd430 2.805 . S
C483 O465 1.263 . S
C483 O466 1.252 . S
C483 C477 1.500 . S
C484 H446 0.930 . S
C484 C460 1.417 . S
C484 C485 1.329 . S
C485 C455 1.437 . S
C485 H456 0.929 . S
C485 C484 1.329 . S
H486 C459 0.931 . S
C487 O469 1.265 . S
C487 O470 1.242 . S
C488 O473 1.261 . S
C488 O474 1.252 . S
C489 C492 1.394 . S
C489 C494 1.370 . S
C489 C495 1.500 . S
C490 C493 1.383 . S
C490 C494 1.395 . S
C491 C492 1.396 . S
C491 C493 1.365 . S
C491 H500 0.929 . S
C492 C489 1.394 . S
C492 C491 1.396 . S
C492 H501 0.930 . S
C493 C490 1.383 . S
C493 C491 1.365 . S
C493 H502 0.931 . S
C494 C489 1.370 . S
C494 C490 1.395 . S
C494 H503 0.930 . S
C495 Gd431 2.805 . S
C495 O471 1.263 . S
C495 O472 1.252 . S
C495 C489 1.500 . S
H496 C479 0.929 . S
H497 C480 0.930 . S
H498 C481 0.931 . S
H499 C482 0.930 . S
H500 C491 0.929 . S
H501 C492 0.930 . S
H502 C493 0.931 . S
H503 C494 0.930 . S
C504 C506 1.422 . S
C504 C508 1.415 . S
C504 N510 1.369 . S
C505 C506 1.421 . S
C505 C507 1.417 . S
C505 C517 1.422 . S
C506 C504 1.422 . S
C506 C505 1.421 . S
C506 N516 1.359 . S
C507 C505 1.417 . S
C507 C509 1.329 . S
C507 H526 0.930 . S
C508 C504 1.415 . S
C508 C509 1.437 . S
C508 C512 1.413 1_545 S
C509 C507 1.329 . S
C509 C508 1.437 . S
C509 H531 0.929 1_545 S
N510 C504 1.369 . S
N510 C511 1.338 . S
N510 Gd515 2.622 . S
C511 N510 1.338 . S
C511 C513 1.378 . S
C511 H523 0.929 . S
C512 C508 1.413 1_565 S
C512 C513 1.348 1_565 S
C512 H528 0.931 . S
C513 C511 1.378 . S
C513 C512 1.348 1_545 S
C513 H529 0.930 1_545 S
Gd514 N534 2.622 . S
Gd514 N541 2.570 . S
Gd514 O548 2.353 . S
Gd514 O549 2.468 . S
Gd514 O550 2.427 . S
Gd514 O552 2.388 . S
Gd514 O553 2.386 . S
Gd514 O557 2.307 . S
Gd514 C567 2.805 . S
Gd515 N510 2.622 . S
Gd515 N516 2.570 . S
Gd515 O547 2.386 . S
Gd515 O551 2.307 . S
Gd515 O554 2.353 . S
Gd515 O555 2.468 . S
Gd515 O556 2.427 . S
Gd515 O558 2.388 . S
Gd515 C579 2.805 . S
N516 C506 1.359 . S
N516 Gd515 2.570 . S
N516 C518 1.343 . S
C517 C505 1.422 . S
C517 C519 1.321 . S
C517 H525 0.931 . S
C518 N516 1.343 . S
C518 C519 1.390 . S
C518 H520 0.931 . S
C519 C517 1.321 . S
C519 C518 1.390 . S
C519 H521 0.930 . S
H520 C518 0.931 . S
H521 C519 0.930 . S
H522 C545 0.931 . S
H523 C511 0.929 . S
H524 C546 0.930 . S
H525 C517 0.931 . S
H526 C507 0.930 . S
H527 C536 0.929 . S
H528 C512 0.931 . S
H529 C513 0.930 1_565 S
H530 C568 0.930 . S
H531 C509 0.929 1_565 S
H532 C537 0.931 . S
H533 C538 0.930 . S
N534 Gd514 2.622 . S
N534 C535 1.369 . S
N534 C536 1.338 . S
C535 N534 1.369 . S
C535 C539 1.415 . S
C535 C542 1.422 . S
C536 H527 0.929 . S
C536 N534 1.338 . S
C536 C538 1.378 . S
C537 H532 0.931 . S
C537 C538 1.348 . S
C537 C539 1.413 . S
C538 H533 0.930 . S
C538 C536 1.378 . S
C538 C537 1.348 . S
C539 C535 1.415 . S
C539 C537 1.413 . S
C539 C569 1.437 . S
H540 C569 0.929 . S
N541 Gd514 2.570 . S
N541 C542 1.359 . S
N541 C545 1.343 . S
C542 C535 1.422 . S
C542 N541 1.359 . S
C542 C544 1.421 . S
C543 C544 1.422 . S
C543 C546 1.321 . S
C543 H570 0.931 . S
C544 C542 1.421 . S
C544 C543 1.422 . S
C544 C568 1.417 . S
C545 H522 0.931 . S
C545 N541 1.343 . S
C545 C546 1.390 . S
C546 H524 0.930 . S
C546 C543 1.321 . S
C546 C545 1.390 . S
O547 Gd515 2.386 . S
O547 C559 1.265 . S
O548 Gd514 2.353 . S
O548 C559 1.242 . S
O549 Gd514 2.468 . S
O549 C567 1.263 . S
O550 Gd514 2.427 . S
O550 C567 1.252 . S
O551 Gd515 2.307 . S
O551 C560 1.261 . S
O552 Gd514 2.388 . S
O552 C560 1.252 . S
O553 Gd514 2.386 . S
O553 C571 1.265 . S
O554 Gd515 2.353 . S
O554 C571 1.242 . S
O555 Gd515 2.468 . S
O555 C579 1.263 . S
O556 Gd515 2.427 . S
O556 C579 1.252 . S
O557 Gd514 2.307 . S
O557 C572 1.261 . S
O558 Gd515 2.388 . S
O558 C572 1.252 . S
C559 O547 1.265 . S
C559 O548 1.242 . S
C560 O551 1.261 . S
C560 O552 1.252 . S
C561 C564 1.394 . S
C561 C566 1.370 . S
C561 C567 1.500 . S
C562 C565 1.383 . S
C562 C566 1.395 . S
C563 C564 1.396 . S
C563 C565 1.365 . S
C563 H580 0.929 . S
C564 C561 1.394 . S
C564 C563 1.396 . S
C564 H581 0.930 . S
C565 C562 1.383 . S
C565 C563 1.365 . S
C565 H582 0.931 . S
C566 C561 1.370 . S
C566 C562 1.395 . S
C566 H583 0.930 . S
C567 Gd514 2.805 . S
C567 O549 1.263 . S
C567 O550 1.252 . S
C567 C561 1.500 . S
C568 H530 0.930 . S
C568 C544 1.417 . S
C568 C569 1.329 . S
C569 C539 1.437 . S
C569 H540 0.929 . S
C569 C568 1.329 . S
H570 C543 0.931 . S
C571 O553 1.265 . S
C571 O554 1.242 . S
C572 O557 1.261 . S
C572 O558 1.252 . S
C573 C576 1.394 . S
C573 C578 1.370 . S
C573 C579 1.500 . S
C574 C577 1.383 1_545 S
C574 C578 1.395 . S
C575 C576 1.396 1_565 S
C575 C577 1.365 . S
C575 H584 0.929 . S
C576 C573 1.394 . S
C576 C575 1.396 1_545 S
C576 H585 0.930 1_545 S
C577 C574 1.383 1_565 S
C577 C575 1.365 . S
C577 H586 0.931 . S
C578 C573 1.370 . S
C578 C574 1.395 . S
C578 H587 0.930 . S
C579 Gd515 2.805 . S
C579 O555 1.263 . S
C579 O556 1.252 . S
C579 C573 1.500 . S
H580 C563 0.929 . S
H581 C564 0.930 . S
H582 C565 0.931 . S
H583 C566 0.930 . S
H584 C575 0.929 . S
H585 C576 0.930 1_565 S
H586 C577 0.931 . S
H587 C578 0.930 . S
C588 C590 1.422 . S
C588 C592 1.415 . S
C588 N594 1.369 . S
C589 C590 1.421 . S
C589 C591 1.417 . S
C589 C601 1.422 . S
C590 C588 1.422 . S
C590 C589 1.421 . S
C590 N600 1.359 . S
C591 C589 1.417 . S
C591 C593 1.329 . S
C591 H610 0.930 . S
C592 C588 1.415 . S
C592 C593 1.437 . S
C592 C596 1.413 . S
C593 C591 1.329 . S
C593 C592 1.437 . S
C593 H615 0.929 . S
N594 C588 1.369 . S
N594 C595 1.338 . S
N594 Gd599 2.622 . S
C595 N594 1.338 . S
C595 C597 1.378 . S
C595 H607 0.929 . S
C596 C592 1.413 . S
C596 C597 1.348 . S
C596 H612 0.931 . S
C597 C595 1.378 . S
C597 C596 1.348 . S
C597 H613 0.930 . S
Gd598 N618 2.622 1_455 S
Gd598 N625 2.570 . S
Gd598 O632 2.353 . S
Gd598 O633 2.468 . S
Gd598 O634 2.440 . S
Gd598 O636 2.388 . S
Gd598 O637 2.386 . S
Gd598 O641 2.307 . S
Gd598 C651 2.805 . S
Gd599 N594 2.622 . S
Gd599 N600 2.570 . S
Gd599 O631 2.386 . S
Gd599 O635 2.307 . S
Gd599 O638 2.353 . S
Gd599 O639 2.468 . S
Gd599 O640 2.427 . S
Gd599 O642 2.388 . S
Gd599 C663 2.805 . S
N600 C590 1.359 . S
N600 Gd599 2.570 . S
N600 C602 1.343 . S
C601 C589 1.422 . S
C601 C603 1.321 . S
C601 H609 0.931 . S
C602 N600 1.343 . S
C602 C603 1.390 . S
C602 H604 0.931 . S
C603 C601 1.321 . S
C603 C602 1.390 . S
C603 H605 0.930 . S
H604 C602 0.931 . S
H605 C603 0.930 . S
H606 C629 0.931 . S
H607 C595 0.929 . S
H608 C630 0.930 . S
H609 C601 0.931 . S
H610 C591 0.930 . S
H611 C620 0.929 . S
H612 C596 0.931 . S
H613 C597 0.930 . S
H614 C652 0.930 . S
H615 C593 0.929 . S
H616 C621 0.931 . S
H617 C622 0.930 . S
N618 Gd598 2.622 1_655 S
N618 C619 1.369 . S
N618 C620 1.338 . S
C619 N618 1.369 . S
C619 C623 1.415 . S
C619 C626 1.422 1_655 S
C620 H611 0.929 . S
C620 N618 1.338 . S
C620 C622 1.378 . S
C621 H616 0.931 . S
C621 C622 1.348 . S
C621 C623 1.413 . S
C622 H617 0.930 . S
C622 C620 1.378 . S
C622 C621 1.348 . S
C623 C619 1.415 . S
C623 C621 1.413 . S
C623 C653 1.437 . S
H624 C653 0.929 . S
N625 Gd598 2.570 . S
N625 C626 1.359 . S
N625 C629 1.343 . S
C626 C619 1.422 1_455 S
C626 N625 1.359 . S
C626 C628 1.421 1_455 S
C627 C628 1.422 1_455 S
C627 C630 1.321 . S
C627 H654 0.931 . S
C628 C626 1.421 1_655 S
C628 C627 1.422 1_655 S
C628 C652 1.417 . S
C629 H606 0.931 . S
C629 N625 1.343 . S
C629 C630 1.390 . S
C630 H608 0.930 . S
C630 C627 1.321 . S
C630 C629 1.390 . S
O631 Gd599 2.386 . S
O631 C643 1.265 . S
O632 Gd598 2.353 . S
O632 C643 1.242 . S
O633 Gd598 2.468 . S
O633 C651 1.263 . S
O634 Gd598 2.440 . S
O634 C651 1.256 . S
O635 Gd599 2.307 . S
O635 C644 1.261 . S
O636 Gd598 2.388 . S
O636 C644 1.252 . S
O637 Gd598 2.386 . S
O637 C655 1.265 . S
O638 Gd599 2.353 . S
O638 C655 1.242 . S
O639 Gd599 2.468 . S
O639 C663 1.263 . S
O640 Gd599 2.427 . S
O640 C663 1.252 . S
O641 Gd598 2.307 . S
O641 C656 1.261 . S
O642 Gd599 2.388 . S
O642 C656 1.252 . S
C643 O631 1.265 . S
C643 O632 1.242 . S
C644 O635 1.261 . S
C644 O636 1.252 . S
C645 C648 1.394 . S
C645 C650 1.370 . S
C645 C651 1.500 1_655 S
C646 C649 1.383 . S
C646 C650 1.395 . S
C647 C648 1.396 . S
C647 C649 1.365 . S
C647 H664 0.929 . S
C648 C645 1.394 . S
C648 C647 1.396 . S
C648 H665 0.930 . S
C649 C646 1.383 . S
C649 C647 1.365 . S
C649 H666 0.931 . S
C650 C645 1.370 . S
C650 C646 1.395 . S
C650 H667 0.930 1_655 S
C651 Gd598 2.805 . S
C651 O633 1.263 . S
C651 O634 1.256 . S
C651 C645 1.500 1_455 S
C652 H614 0.930 . S
C652 C628 1.417 . S
C652 C653 1.329 . S
C653 C623 1.437 . S
C653 H624 0.929 . S
C653 C652 1.329 . S
H654 C627 0.931 . S
C655 O637 1.265 . S
C655 O638 1.242 . S
C656 O641 1.261 . S
C656 O642 1.252 . S
C657 C660 1.394 . S
C657 C662 1.370 . S
C657 C663 1.500 . S
C658 C661 1.383 . S
C658 C662 1.395 . S
C659 C660 1.396 . S
C659 C661 1.365 . S
C659 H668 0.929 . S
C660 C657 1.394 . S
C660 C659 1.396 . S
C660 H669 0.930 . S
C661 C658 1.383 . S
C661 C659 1.365 . S
C661 H670 0.931 . S
C662 C657 1.370 . S
C662 C658 1.395 . S
C662 H671 0.930 . S
C663 Gd599 2.805 . S
C663 O639 1.263 . S
C663 O640 1.252 . S
C663 C657 1.500 . S
H664 C647 0.929 . S
H665 C648 0.930 . S
H666 C649 0.931 . S
H667 C650 0.930 1_455 S
H668 C659 0.929 . S
H669 C660 0.930 . S
H670 C661 0.931 . S
H671 C662 0.930 . S
C672 C674 1.422 . S
C672 C676 1.415 . S
C672 N678 1.369 . S
C673 C674 1.421 . S
C673 C675 1.417 . S
C673 C685 1.422 . S
C674 C672 1.422 . S
C674 C673 1.421 . S
C674 N684 1.359 . S
C675 C673 1.417 . S
C675 C677 1.329 . S
C675 H694 0.930 . S
C676 C672 1.415 . S
C676 C677 1.437 . S
C676 C680 1.413 . S
C677 C675 1.329 . S
C677 C676 1.437 . S
C677 H699 0.929 . S
N678 C672 1.369 . S
N678 C679 1.338 . S
N678 Gd683 2.622 . S
C679 N678 1.338 . S
C679 C681 1.378 . S
C679 H691 0.929 . S
C680 C676 1.413 . S
C680 C681 1.348 . S
C680 H696 0.931 . S
C681 C679 1.378 . S
C681 C680 1.348 . S
C681 H697 0.930 . S
Gd682 N702 2.622 . S
Gd682 N709 2.570 . S
Gd682 O716 2.353 . S
Gd682 O717 2.468 . S
Gd682 O718 2.427 . S
Gd682 O720 2.388 . S
Gd682 O721 2.386 . S
Gd682 O725 2.307 . S
Gd682 C735 2.805 . S
Gd683 N678 2.622 . S
Gd683 N684 2.570 . S
Gd683 O715 2.386 . S
Gd683 O719 2.307 . S
Gd683 O722 2.353 . S
Gd683 O723 2.468 . S
Gd683 O724 2.427 . S
Gd683 O726 2.388 . S
Gd683 C747 2.805 . S
N684 C674 1.359 . S
N684 Gd683 2.570 . S
N684 C686 1.343 . S
C685 C673 1.422 . S
C685 C687 1.321 . S
C685 H693 0.931 . S
C686 N684 1.343 . S
C686 C687 1.390 . S
C686 H688 0.931 . S
C687 C685 1.321 . S
C687 C686 1.390 . S
C687 H689 0.930 . S
H688 C686 0.931 . S
H689 C687 0.930 . S
H690 C713 0.931 . S
H691 C679 0.929 . S
H692 C714 0.930 . S
H693 C685 0.931 . S
H694 C675 0.930 . S
H695 C704 0.929 . S
H696 C680 0.931 . S
H697 C681 0.930 . S
H698 C736 0.930 . S
H699 C677 0.929 . S
H700 C705 0.931 . S
H701 C706 0.930 . S
N702 Gd682 2.622 . S
N702 C703 1.369 . S
N702 C704 1.338 . S
C703 N702 1.369 . S
C703 C707 1.415 . S
C703 C710 1.422 . S
C704 H695 0.929 . S
C704 N702 1.338 . S
C704 C706 1.378 . S
C705 H700 0.931 . S
C705 C706 1.348 . S
C705 C707 1.413 . S
C706 H701 0.930 . S
C706 C704 1.378 . S
C706 C705 1.348 . S
C707 C703 1.415 . S
C707 C705 1.413 . S
C707 C737 1.437 . S
H708 C737 0.929 . S
N709 Gd682 2.570 . S
N709 C710 1.359 . S
N709 C713 1.343 . S
C710 C703 1.422 . S
C710 N709 1.359 . S
C710 C712 1.421 . S
C711 C712 1.422 . S
C711 C714 1.321 . S
C711 H738 0.931 . S
C712 C710 1.421 . S
C712 C711 1.422 . S
C712 C736 1.417 . S
C713 H690 0.931 . S
C713 N709 1.343 . S
C713 C714 1.390 . S
C714 H692 0.930 . S
C714 C711 1.321 . S
C714 C713 1.390 . S
O715 Gd683 2.386 . S
O715 C727 1.265 . S
O716 Gd682 2.353 . S
O716 C727 1.242 . S
O717 Gd682 2.468 . S
O717 C735 1.263 . S
O718 Gd682 2.427 . S
O718 C735 1.252 . S
O719 Gd683 2.307 . S
O719 C728 1.261 . S
O720 Gd682 2.388 . S
O720 C728 1.252 . S
O721 Gd682 2.386 . S
O721 C739 1.265 . S
O722 Gd683 2.353 . S
O722 C739 1.242 . S
O723 Gd683 2.468 . S
O723 C747 1.263 . S
O724 Gd683 2.427 . S
O724 C747 1.252 . S
O725 Gd682 2.307 . S
O725 C740 1.261 . S
O726 Gd683 2.388 . S
O726 C740 1.252 . S
C727 O715 1.265 . S
C727 O716 1.242 . S
C728 O719 1.261 . S
C728 O720 1.252 . S
C729 C732 1.394 . S
C729 C734 1.370 . S
C729 C735 1.500 . S
C730 C733 1.383 . S
C730 C734 1.395 . S
C731 C732 1.396 . S
C731 C733 1.365 . S
C731 H748 0.929 . S
C732 C729 1.394 . S
C732 C731 1.396 . S
C732 H749 0.930 . S
C733 C730 1.383 . S
C733 C731 1.365 . S
C733 H750 0.931 . S
C734 C729 1.370 . S
C734 C730 1.395 . S
C734 H751 0.930 . S
C735 Gd682 2.805 . S
C735 O717 1.263 . S
C735 O718 1.252 . S
C735 C729 1.500 . S
C736 H698 0.930 . S
C736 C712 1.417 . S
C736 C737 1.329 . S
C737 C707 1.437 . S
C737 H708 0.929 . S
C737 C736 1.329 . S
H738 C711 0.931 . S
C739 O721 1.265 . S
C739 O722 1.242 . S
C740 O725 1.261 . S
C740 O726 1.252 . S
C741 C744 1.394 . S
C741 C746 1.370 . S
C741 C747 1.500 . S
C742 C745 1.383 . S
C742 C746 1.395 . S
C743 C744 1.396 . S
C743 C745 1.365 . S
C743 H752 0.929 . S
C744 C741 1.394 . S
C744 C743 1.396 . S
C744 H753 0.930 . S
C745 C742 1.383 . S
C745 C743 1.365 . S
C745 H754 0.931 . S
C746 C741 1.370 . S
C746 C742 1.395 . S
C746 H755 0.930 . S
C747 Gd683 2.805 . S
C747 O723 1.263 . S
C747 O724 1.252 . S
C747 C741 1.500 . S
H748 C731 0.929 . S
H749 C732 0.930 . S
H750 C733 0.931 . S
H751 C734 0.930 . S
H752 C743 0.929 . S
H753 C744 0.930 . S
H754 C745 0.931 . S
H755 C746 0.930 . S
C756 C758 1.422 1_645 S
C756 C760 1.415 . S
C756 N762 1.369 . S
C757 C758 1.421 1_655 S
C757 C759 1.417 . S
C757 C769 1.422 1_655 S
C758 C756 1.422 1_465 S
C758 C757 1.421 1_455 S
C758 N768 1.359 . S
C759 C757 1.417 . S
C759 C761 1.329 . S
C759 H778 0.930 . S
C760 C756 1.415 . S
C760 C761 1.437 1_545 S
C760 C764 1.413 . S
C761 C759 1.329 . S
C761 C760 1.437 1_565 S
C761 H783 0.929 . S
N762 C756 1.369 . S
N762 C763 1.338 . S
N762 Gd767 2.622 1_655 S
C763 N762 1.338 . S
C763 C765 1.378 . S
C763 H775 0.929 . S
C764 C760 1.413 . S
C764 C765 1.348 . S
C764 H780 0.931 . S
C765 C763 1.378 . S
C765 C764 1.348 . S
C765 H781 0.930 . S
Gd766 N786 2.622 . S
Gd766 N793 2.570 . S
Gd766 O800 2.353 . S
Gd766 O801 2.468 . S
Gd766 O802 2.427 . S
Gd766 O804 2.419 . S
Gd766 O805 2.386 . S
Gd766 O809 2.307 . S
Gd766 C819 2.805 . S
Gd767 N762 2.622 1_455 S
Gd767 N768 2.570 1_545 S
Gd767 O799 2.386 . S
Gd767 O803 2.307 1_545 S
Gd767 O806 2.353 . S
Gd767 O807 2.468 1_545 S
Gd767 O808 2.440 . S
Gd767 O810 2.388 . S
Gd767 C831 2.805 1_545 S
N768 C758 1.359 . S
N768 Gd767 2.570 1_565 S
N768 C770 1.343 . S
C769 C757 1.422 1_455 S
C769 C771 1.321 . S
C769 H777 0.931 . S
C770 N768 1.343 . S
C770 C771 1.390 . S
C770 H772 0.931 . S
C771 C769 1.321 . S
C771 C770 1.390 . S
C771 H773 0.930 . S
H772 C770 0.931 . S
H773 C771 0.930 . S
H774 C797 0.931 . S
H775 C763 0.929 . S
H776 C798 0.930 . S
H777 C769 0.931 . S
H778 C759 0.930 . S
H779 C788 0.929 . S
H780 C764 0.931 . S
H781 C765 0.930 . S
H782 C820 0.930 . S
H783 C761 0.929 . S
H784 C789 0.931 . S
H785 C790 0.930 1_565 S
N786 Gd766 2.622 . S
N786 C787 1.369 . S
N786 C788 1.338 . S
C787 N786 1.369 . S
C787 C791 1.415 . S
C787 C794 1.422 . S
C788 H779 0.929 . S
C788 N786 1.338 . S
C788 C790 1.378 . S
C789 H784 0.931 . S
C789 C790 1.348 . S
C789 C791 1.413 . S
C790 H785 0.930 1_545 S
C790 C788 1.378 . S
C790 C789 1.348 . S
C791 C787 1.415 . S
C791 C789 1.413 . S
C791 C821 1.437 . S
H792 C821 0.929 . S
N793 Gd766 2.570 . S
N793 C794 1.359 . S
N793 C797 1.343 . S
C794 C787 1.422 . S
C794 N793 1.359 . S
C794 C796 1.421 . S
C795 C796 1.422 . S
C795 C798 1.321 . S
C795 H822 0.931 . S
C796 C794 1.421 . S
C796 C795 1.422 . S
C796 C820 1.417 . S
C797 H774 0.931 . S
C797 N793 1.343 . S
C797 C798 1.390 . S
C798 H776 0.930 . S
C798 C795 1.321 . S
C798 C797 1.390 . S
O799 Gd767 2.386 . S
O799 C811 1.265 . S
O800 Gd766 2.353 . S
O800 C811 1.242 . S
O801 Gd766 2.468 . S
O801 C819 1.263 . S
O802 Gd766 2.427 . S
O802 C819 1.252 . S
O803 Gd767 2.307 1_565 S
O803 C812 1.261 . S
O804 Gd766 2.419 . S
O804 C812 1.235 1_545 S
O805 Gd766 2.386 . S
O805 C823 1.265 . S
O806 Gd767 2.353 . S
O806 C823 1.242 . S
O807 Gd767 2.468 1_565 S
O807 C831 1.263 . S
O808 Gd767 2.440 . S
O808 C831 1.256 1_545 S
O809 Gd766 2.307 . S
O809 C824 1.261 . S
O810 Gd767 2.388 . S
O810 C824 1.252 . S
C811 O799 1.265 . S
C811 O800 1.242 . S
C812 O803 1.261 . S
C812 O804 1.235 1_565 S
C813 C816 1.394 . S
C813 C818 1.370 . S
C813 C819 1.500 . S
C814 C817 1.383 . S
C814 C818 1.395 . S
C815 C816 1.396 . S
C815 C817 1.365 . S
C815 H832 0.929 . S
C816 C813 1.394 . S
C816 C815 1.396 . S
C816 H833 0.930 . S
C817 C814 1.383 . S
C817 C815 1.365 . S
C817 H834 0.931 . S
C818 C813 1.370 . S
C818 C814 1.395 . S
C818 H835 0.930 . S
C819 Gd766 2.805 . S
C819 O801 1.263 . S
C819 O802 1.252 . S
C819 C813 1.500 . S
C820 H782 0.930 . S
C820 C796 1.417 . S
C820 C821 1.329 . S
C821 C791 1.437 . S
C821 H792 0.929 . S
C821 C820 1.329 . S
H822 C795 0.931 . S
C823 O805 1.265 . S
C823 O806 1.242 . S
C824 O809 1.261 . S
C824 O810 1.252 . S
C825 C828 1.394 . S
C825 C830 1.370 . S
C825 C831 1.500 1_655 S
C826 C829 1.383 . S
C826 C830 1.395 . S
C827 C828 1.396 . S
C827 C829 1.365 . S
C827 H836 0.929 . S
C828 C825 1.394 . S
C828 C827 1.396 . S
C828 H837 0.930 1_565 S
C829 C826 1.383 . S
C829 C827 1.365 . S
C829 H838 0.931 . S
C830 C825 1.370 . S
C830 C826 1.395 . S
C830 H839 0.930 1_655 S
C831 Gd767 2.805 1_565 S
C831 O807 1.263 . S
C831 O808 1.256 1_565 S
C831 C825 1.500 1_455 S
H832 C815 0.929 . S
H833 C816 0.930 . S
H834 C817 0.931 . S
H835 C818 0.930 . S
H836 C827 0.929 . S
H837 C828 0.930 1_545 S
H838 C829 0.931 . S
H839 C830 0.930 1_455 S
C840 C842 1.422 . S
C840 C844 1.415 . S
C840 N846 1.369 . S
C841 C842 1.421 . S
C841 C843 1.417 . S
C841 C853 1.422 . S
C842 C840 1.422 . S
C842 C841 1.421 . S
C842 N852 1.359 . S
C843 C841 1.417 . S
C843 C845 1.329 . S
C843 H862 0.930 . S
C844 C840 1.415 . S
C844 C845 1.437 . S
C844 C848 1.413 . S
C845 C843 1.329 . S
C845 C844 1.437 . S
C845 H867 0.929 . S
N846 C840 1.369 . S
N846 C847 1.338 . S
N846 Gd851 2.622 . S
C847 N846 1.338 . S
C847 C849 1.378 . S
C847 H859 0.929 . S
C848 C844 1.413 . S
C848 C849 1.348 . S
C848 H864 0.931 . S
C849 C847 1.378 . S
C849 C848 1.348 . S
C849 H865 0.930 . S
Gd850 N870 2.622 . S
Gd850 N877 2.570 . S
Gd850 O884 2.353 . S
Gd850 O885 2.468 . S
Gd850 O886 2.427 . S
Gd850 O888 2.388 . S
Gd850 O889 2.386 . S
Gd850 O893 2.307 . S
Gd850 C903 2.805 . S
Gd851 N846 2.622 . S
Gd851 N852 2.570 . S
Gd851 O883 2.386 . S
Gd851 O887 2.307 . S
Gd851 O890 2.353 . S
Gd851 O891 2.468 . S
Gd851 O892 2.427 . S
Gd851 O894 2.388 . S
Gd851 C915 2.805 . S
N852 C842 1.359 . S
N852 Gd851 2.570 . S
N852 C854 1.343 . S
C853 C841 1.422 . S
C853 C855 1.321 . S
C853 H861 0.931 . S
C854 N852 1.343 . S
C854 C855 1.390 . S
C854 H856 0.931 . S
C855 C853 1.321 . S
C855 C854 1.390 . S
C855 H857 0.930 . S
H856 C854 0.931 . S
H857 C855 0.930 . S
H858 C881 0.931 . S
H859 C847 0.929 . S
H860 C882 0.930 . S
H861 C853 0.931 . S
H862 C843 0.930 . S
H863 C872 0.929 . S
H864 C848 0.931 . S
H865 C849 0.930 . S
H866 C904 0.930 . S
H867 C845 0.929 . S
H868 C873 0.931 . S
H869 C874 0.930 . S
N870 Gd850 2.622 . S
N870 C871 1.369 . S
N870 C872 1.338 . S
C871 N870 1.369 . S
C871 C875 1.415 . S
C871 C878 1.422 . S
C872 H863 0.929 . S
C872 N870 1.338 . S
C872 C874 1.378 . S
C873 H868 0.931 . S
C873 C874 1.348 . S
C873 C875 1.413 . S
C874 H869 0.930 . S
C874 C872 1.378 . S
C874 C873 1.348 . S
C875 C871 1.415 . S
C875 C873 1.413 . S
C875 C905 1.437 . S
H876 C905 0.929 . S
N877 Gd850 2.570 . S
N877 C878 1.359 . S
N877 C881 1.343 . S
C878 C871 1.422 . S
C878 N877 1.359 . S
C878 C880 1.421 . S
C879 C880 1.422 . S
C879 C882 1.321 . S
C879 H906 0.931 . S
C880 C878 1.421 . S
C880 C879 1.422 . S
C880 C904 1.417 . S
C881 H858 0.931 . S
C881 N877 1.343 . S
C881 C882 1.390 . S
C882 H860 0.930 . S
C882 C879 1.321 . S
C882 C881 1.390 . S
O883 Gd851 2.386 . S
O883 C895 1.265 . S
O884 Gd850 2.353 . S
O884 C895 1.242 . S
O885 Gd850 2.468 . S
O885 C903 1.263 . S
O886 Gd850 2.427 . S
O886 C903 1.252 . S
O887 Gd851 2.307 . S
O887 C896 1.261 . S
O888 Gd850 2.388 . S
O888 C896 1.252 . S
O889 Gd850 2.386 . S
O889 C907 1.265 . S
O890 Gd851 2.353 . S
O890 C907 1.242 . S
O891 Gd851 2.468 . S
O891 C915 1.263 . S
O892 Gd851 2.427 . S
O892 C915 1.252 . S
O893 Gd850 2.307 . S
O893 C908 1.261 . S
O894 Gd851 2.388 . S
O894 C908 1.252 . S
C895 O883 1.265 . S
C895 O884 1.242 . S
C896 O887 1.261 . S
C896 O888 1.252 . S
C897 C900 1.394 . S
C897 C902 1.370 . S
C897 C903 1.500 . S
C898 C901 1.383 . S
C898 C902 1.395 . S
C899 C900 1.396 . S
C899 C901 1.365 . S
C899 H916 0.929 . S
C900 C897 1.394 . S
C900 C899 1.396 . S
C900 H917 0.930 . S
C901 C898 1.383 . S
C901 C899 1.365 . S
C901 H918 0.918 1_554 S
C902 C897 1.370 . S
C902 C898 1.395 . S
C902 H919 0.930 . S
C903 Gd850 2.805 . S
C903 O885 1.263 . S
C903 O886 1.252 . S
C903 C897 1.500 . S
C904 H866 0.930 . S
C904 C880 1.417 . S
C904 C905 1.329 . S
C905 C875 1.437 . S
C905 H876 0.929 . S
C905 C904 1.329 . S
H906 C879 0.931 . S
C907 O889 1.265 . S
C907 O890 1.242 . S
C908 O893 1.261 . S
C908 O894 1.252 . S
C909 C912 1.394 . S
C909 C914 1.370 . S
C909 C915 1.500 . S
C910 C913 1.383 . S
C910 C914 1.395 . S
C911 C912 1.396 . S
C911 C913 1.365 . S
C911 H920 0.929 . S
C912 C909 1.394 . S
C912 C911 1.396 . S
C912 H921 0.930 . S
C913 C910 1.383 . S
C913 C911 1.365 . S
C913 H922 0.931 . S
C914 C909 1.370 . S
C914 C910 1.395 . S
C914 H923 0.930 . S
C915 Gd851 2.805 . S
C915 O891 1.263 . S
C915 O892 1.252 . S
C915 C909 1.500 . S
H916 C899 0.929 . S
H917 C900 0.930 . S
H918 C901 0.918 1_556 S
H919 C902 0.930 . S
H920 C911 0.929 . S
H921 C912 0.930 . S
H922 C913 0.931 . S
H923 C914 0.930 . S
C924 C926 1.422 1_565 S
C924 C928 1.415 . S
C924 N930 1.369 . S
C925 C926 1.421 . S
C925 C927 1.417 . S
C925 C937 1.422 . S
C926 C924 1.422 1_545 S
C926 C925 1.421 . S
C926 N936 1.359 . S
C927 C925 1.417 . S
C927 C929 1.329 . S
C927 H946 0.930 . S
C928 C924 1.415 . S
C928 C929 1.437 1_565 S
C928 C932 1.413 . S
C929 C927 1.329 . S
C929 C928 1.437 1_545 S
C929 H951 0.929 . S
N930 C924 1.369 . S
N930 C931 1.338 . S
N930 Gd935 2.622 . S
C931 N930 1.338 . S
C931 C933 1.378 . S
C931 H943 0.929 . S
C932 C928 1.413 . S
C932 C933 1.348 . S
C932 H948 0.931 . S
C933 C931 1.378 . S
C933 C932 1.348 . S
C933 H949 0.930 . S
Gd934 N954 2.622 . S
Gd934 N961 2.570 . S
Gd934 O968 2.353 . S
Gd934 O969 2.468 . S
Gd934 O970 2.427 . S
Gd934 O972 2.419 . S
Gd934 O973 2.386 . S
Gd934 O977 2.307 . S
Gd934 C987 2.805 . S
Gd935 N930 2.622 . S
Gd935 N936 2.570 1_565 S
Gd935 O967 2.386 . S
Gd935 O971 2.307 1_565 S
Gd935 O974 2.353 . S
Gd935 O975 2.468 1_565 S
Gd935 O976 2.427 . S
Gd935 O978 2.388 . S
Gd935 C999 2.805 1_565 S
N936 C926 1.359 . S
N936 Gd935 2.570 1_545 S
N936 C938 1.343 . S
C937 C925 1.422 . S
C937 C939 1.321 . S
C937 H945 0.931 . S
C938 N936 1.343 . S
C938 C939 1.390 . S
C938 H940 0.931 . S
C939 C937 1.321 . S
C939 C938 1.390 . S
C939 H941 0.930 . S
H940 C938 0.931 . S
H941 C939 0.930 . S
H942 C965 0.931 . S
H943 C931 0.929 . S
H944 C966 0.930 . S
H945 C937 0.931 . S
H946 C927 0.930 . S
H947 C956 0.929 . S
H948 C932 0.931 . S
H949 C933 0.930 . S
H950 C988 0.930 . S
H951 C929 0.929 . S
H952 C957 0.931 . S
H953 C958 0.930 1_545 S
N954 Gd934 2.622 . S
N954 C955 1.369 . S
N954 C956 1.338 . S
C955 N954 1.369 . S
C955 C959 1.415 . S
C955 C962 1.422 . S
C956 H947 0.929 . S
C956 N954 1.338 . S
C956 C958 1.378 . S
C957 H952 0.931 . S
C957 C958 1.348 . S
C957 C959 1.413 . S
C958 H953 0.930 1_565 S
C958 C956 1.378 . S
C958 C957 1.348 . S
C959 C955 1.415 . S
C959 C957 1.413 . S
C959 C989 1.437 . S
H960 C989 0.929 . S
N961 Gd934 2.570 . S
N961 C962 1.359 . S
N961 C965 1.343 . S
C962 C955 1.422 . S
C962 N961 1.359 . S
C962 C964 1.421 . S
C963 C964 1.422 . S
C963 C966 1.321 . S
C963 H990 0.931 . S
C964 C962 1.421 . S
C964 C963 1.422 . S
C964 C988 1.417 . S
C965 H942 0.931 . S
C965 N961 1.343 . S
C965 C966 1.390 . S
C966 H944 0.930 . S
C966 C963 1.321 . S
C966 C965 1.390 . S
O967 Gd935 2.386 . S
O967 C979 1.265 . S
O968 Gd934 2.353 . S
O968 C979 1.242 . S
O969 Gd934 2.468 . S
O969 C987 1.263 . S
O970 Gd934 2.427 . S
O970 C987 1.252 . S
O971 Gd935 2.307 1_545 S
O971 C980 1.261 . S
O972 Gd934 2.419 . S
O972 C980 1.235 1_565 S
O973 Gd934 2.386 . S
O973 C991 1.265 . S
O974 Gd935 2.353 . S
O974 C991 1.242 . S
O975 Gd935 2.468 1_545 S
O975 C999 1.263 . S
O976 Gd935 2.427 . S
O976 C999 1.252 1_565 S
O977 Gd934 2.307 . S
O977 C992 1.261 . S
O978 Gd935 2.388 . S
O978 C992 1.252 . S
C979 O967 1.265 . S
C979 O968 1.242 . S
C980 O971 1.261 . S
C980 O972 1.235 1_545 S
C981 C984 1.394 . S
C981 C986 1.370 . S
C981 C987 1.500 . S
C982 C985 1.383 . S
C982 C986 1.395 . S
C983 C984 1.396 . S
C983 C985 1.365 . S
C983 H1000 0.929 . S
C984 C981 1.394 . S
C984 C983 1.396 . S
C984 H1001 0.930 . S
C985 C982 1.383 . S
C985 C983 1.365 . S
C985 H1002 0.931 . S
C986 C981 1.370 . S
C986 C982 1.395 . S
C986 H1003 0.930 . S
C987 Gd934 2.805 . S
C987 O969 1.263 . S
C987 O970 1.252 . S
C987 C981 1.500 . S
C988 H950 0.930 . S
C988 C964 1.417 . S
C988 C989 1.329 . S
C989 C959 1.437 . S
C989 H960 0.929 . S
C989 C988 1.329 . S
H990 C963 0.931 . S
C991 O973 1.265 . S
C991 O974 1.242 . S
C992 O977 1.261 . S
C992 O978 1.252 . S
C993 C996 1.394 . S
C993 C998 1.370 . S
C993 C999 1.500 . S
C994 C997 1.383 . S
C994 C998 1.395 . S
C995 C996 1.396 . S
C995 C997 1.365 . S
C995 H1004 0.929 . S
C996 C993 1.394 . S
C996 C995 1.396 . S
C996 H1005 0.930 1_545 S
C997 C994 1.383 . S
C997 C995 1.365 . S
C997 H1006 0.931 . S
C998 C993 1.370 . S
C998 C994 1.395 . S
C998 H1007 0.930 . S
C999 Gd935 2.805 1_545 S
C999 O975 1.263 . S
C999 O976 1.252 1_545 S
C999 C993 1.500 . S
H1000 C983 0.929 . S
H1001 C984 0.930 . S
H1002 C985 0.931 . S
H1003 C986 0.930 . S
H1004 C995 0.929 . S
H1005 C996 0.930 1_565 S
H1006 C997 0.931 . S
H1007 C998 0.930 . S
C1008 C1010 1.422 . S
C1008 C1012 1.415 . S
C1008 N1014 1.369 . S
C1009 C1010 1.421 . S
C1009 C1011 1.417 . S
C1009 C1021 1.422 . S
C1010 C1008 1.422 . S
C1010 C1009 1.421 . S
C1010 N1020 1.359 . S
C1011 C1009 1.417 . S
C1011 C1013 1.329 . S
C1011 H1030 0.930 . S
C1012 C1008 1.415 . S
C1012 C1013 1.437 . S
C1012 C1016 1.413 . S
C1013 C1011 1.329 . S
C1013 C1012 1.437 . S
C1013 H1035 0.929 . S
N1014 C1008 1.369 . S
N1014 C1015 1.338 . S
N1014 Gd1019 2.622 . S
C1015 N1014 1.338 . S
C1015 C1017 1.378 . S
C1015 H1027 0.929 . S
C1016 C1012 1.413 . S
C1016 C1017 1.348 . S
C1016 H1032 0.931 . S
C1017 C1015 1.378 . S
C1017 C1016 1.348 . S
C1017 H1033 0.930 . S
Gd1018 N1038 2.622 . S
Gd1018 N1045 2.570 . S
Gd1018 O1052 2.353 . S
Gd1018 O1053 2.468 . S
Gd1018 O1054 2.427 . S
Gd1018 O1056 2.388 . S
Gd1018 O1057 2.386 . S
Gd1018 O1061 2.307 . S
Gd1018 C1071 2.805 . S
Gd1019 N1014 2.622 . S
Gd1019 N1020 2.570 . S
Gd1019 O1051 2.386 . S
Gd1019 O1055 2.307 . S
Gd1019 O1058 2.353 . S
Gd1019 O1059 2.468 . S
Gd1019 O1060 2.427 . S
Gd1019 O1062 2.388 . S
Gd1019 C1083 2.805 . S
N1020 C1010 1.359 . S
N1020 Gd1019 2.570 . S
N1020 C1022 1.343 . S
C1021 C1009 1.422 . S
C1021 C1023 1.321 . S
C1021 H1029 0.931 . S
C1022 N1020 1.343 . S
C1022 C1023 1.390 . S
C1022 H1024 0.931 . S
C1023 C1021 1.321 . S
C1023 C1022 1.390 . S
C1023 H1025 0.930 . S
H1024 C1022 0.931 . S
H1025 C1023 0.930 . S
H1026 C1049 0.931 . S
H1027 C1015 0.929 . S
H1028 C1050 0.930 . S
H1029 C1021 0.931 . S
H1030 C1011 0.930 . S
H1031 C1040 0.929 . S
H1032 C1016 0.931 . S
H1033 C1017 0.930 . S
H1034 C1072 0.930 . S
H1035 C1013 0.929 . S
H1036 C1041 0.931 . S
H1037 C1042 0.930 . S
N1038 Gd1018 2.622 . S
N1038 C1039 1.369 . S
N1038 C1040 1.338 . S
C1039 N1038 1.369 . S
C1039 C1043 1.415 . S
C1039 C1046 1.422 . S
C1040 H1031 0.929 . S
C1040 N1038 1.338 . S
C1040 C1042 1.378 . S
C1041 H1036 0.931 . S
C1041 C1042 1.348 . S
C1041 C1043 1.413 . S
C1042 H1037 0.930 . S
C1042 C1040 1.378 . S
C1042 C1041 1.348 . S
C1043 C1039 1.415 . S
C1043 C1041 1.413 . S
C1043 C1073 1.437 . S
H1044 C1073 0.929 . S
N1045 Gd1018 2.570 . S
N1045 C1046 1.359 . S
N1045 C1049 1.343 . S
C1046 C1039 1.422 . S
C1046 N1045 1.359 . S
C1046 C1048 1.421 . S
C1047 C1048 1.422 . S
C1047 C1050 1.321 . S
C1047 H1074 0.931 . S
C1048 C1046 1.421 . S
C1048 C1047 1.422 . S
C1048 C1072 1.417 . S
C1049 H1026 0.931 . S
C1049 N1045 1.343 . S
C1049 C1050 1.390 . S
C1050 H1028 0.930 . S
C1050 C1047 1.321 . S
C1050 C1049 1.390 . S
O1051 Gd1019 2.386 . S
O1051 C1063 1.265 . S
O1052 Gd1018 2.353 . S
O1052 C1063 1.242 . S
O1053 Gd1018 2.468 . S
O1053 C1071 1.263 . S
O1054 Gd1018 2.427 . S
O1054 C1071 1.252 . S
O1055 Gd1019 2.307 . S
O1055 C1064 1.261 . S
O1056 Gd1018 2.388 . S
O1056 C1064 1.252 . S
O1057 Gd1018 2.386 . S
O1057 C1075 1.265 . S
O1058 Gd1019 2.353 . S
O1058 C1075 1.242 . S
O1059 Gd1019 2.468 . S
O1059 C1083 1.263 . S
O1060 Gd1019 2.427 . S
O1060 C1083 1.252 . S
O1061 Gd1018 2.307 . S
O1061 C1076 1.261 . S
O1062 Gd1019 2.388 . S
O1062 C1076 1.252 . S
C1063 O1051 1.265 . S
C1063 O1052 1.242 . S
C1064 O1055 1.261 . S
C1064 O1056 1.252 . S
C1065 C1068 1.394 . S
C1065 C1070 1.370 . S
C1065 C1071 1.500 . S
C1066 C1069 1.383 . S
C1066 C1070 1.395 . S
C1067 C1068 1.396 . S
C1067 C1069 1.365 . S
C1067 H1084 0.929 . S
C1068 C1065 1.394 . S
C1068 C1067 1.396 . S
C1068 H1085 0.930 . S
C1069 C1066 1.383 . S
C1069 C1067 1.365 . S
C1069 H1086 0.931 . S
C1070 C1065 1.370 . S
C1070 C1066 1.395 . S
C1070 H1087 0.930 . S
C1071 Gd1018 2.805 . S
C1071 O1053 1.263 . S
C1071 O1054 1.252 . S
C1071 C1065 1.500 . S
C1072 H1034 0.930 . S
C1072 C1048 1.417 . S
C1072 C1073 1.329 . S
C1073 C1043 1.437 . S
C1073 H1044 0.929 . S
C1073 C1072 1.329 . S
H1074 C1047 0.931 . S
C1075 O1057 1.265 . S
C1075 O1058 1.242 . S
C1076 O1061 1.261 . S
C1076 O1062 1.252 . S
C1077 C1080 1.394 . S
C1077 C1082 1.370 . S
C1077 C1083 1.500 . S
C1078 C1081 1.383 . S
C1078 C1082 1.395 . S
C1079 C1080 1.396 . S
C1079 C1081 1.365 . S
C1079 H1088 0.929 . S
C1080 C1077 1.394 . S
C1080 C1079 1.396 . S
C1080 H1089 0.930 . S
C1081 C1078 1.383 . S
C1081 C1079 1.365 . S
C1081 H1090 0.931 . S
C1082 C1077 1.370 . S
C1082 C1078 1.395 . S
C1082 H1091 0.930 . S
C1083 Gd1019 2.805 . S
C1083 O1059 1.263 . S
C1083 O1060 1.252 . S
C1083 C1077 1.500 . S
H1084 C1067 0.929 . S
H1085 C1068 0.930 . S
H1086 C1069 0.931 . S
H1087 C1070 0.930 . S
H1088 C1079 0.929 . S
H1089 C1080 0.930 . S
H1090 C1081 0.931 . S
H1091 C1082 0.930 . S
C1092 C1094 1.422 . S
C1092 C1096 1.415 . S
C1092 N1098 1.369 . S
C1093 C1094 1.421 . S
C1093 C1095 1.417 . S
C1093 C1105 1.422 . S
C1094 C1092 1.422 . S
C1094 C1093 1.421 . S
C1094 N1104 1.359 . S
C1095 C1093 1.417 . S
C1095 C1097 1.329 . S
C1095 H1114 0.930 . S
C1096 C1092 1.415 . S
C1096 C1097 1.437 . S
C1096 C1100 1.413 . S
C1097 C1095 1.329 . S
C1097 C1096 1.437 . S
C1097 H1119 0.929 . S
N1098 C1092 1.369 . S
N1098 C1099 1.338 . S
N1098 Gd1103 2.622 . S
C1099 N1098 1.338 . S
C1099 C1101 1.378 . S
C1099 H1111 0.929 . S
C1100 C1096 1.413 . S
C1100 C1101 1.348 . S
C1100 H1116 0.931 . S
C1101 C1099 1.378 . S
C1101 C1100 1.348 . S
C1101 H1117 0.930 1_565 S
Gd1102 N1122 2.622 1_655 S
Gd1102 N1129 2.570 1_565 S
Gd1102 O1136 2.353 . S
Gd1102 O1137 2.468 1_565 S
Gd1102 O1138 2.440 . S
Gd1102 O1140 2.388 . S
Gd1102 O1141 2.386 . S
Gd1102 O1145 2.307 1_565 S
Gd1102 C1155 2.805 1_565 S
Gd1103 N1098 2.622 . S
Gd1103 N1104 2.570 . S
Gd1103 O1135 2.386 . S
Gd1103 O1139 2.307 . S
Gd1103 O1142 2.353 . S
Gd1103 O1143 2.468 . S
Gd1103 O1144 2.427 . S
Gd1103 O1146 2.419 . S
Gd1103 C1167 2.805 . S
N1104 C1094 1.359 . S
N1104 Gd1103 2.570 . S
N1104 C1106 1.343 . S
C1105 C1093 1.422 . S
C1105 C1107 1.321 . S
C1105 H1113 0.931 . S
C1106 N1104 1.343 . S
C1106 C1107 1.390 . S
C1106 H1108 0.931 . S
C1107 C1105 1.321 . S
C1107 C1106 1.390 . S
C1107 H1109 0.930 . S
H1108 C1106 0.931 . S
H1109 C1107 0.930 . S
H1110 C1133 0.931 . S
H1111 C1099 0.929 . S
H1112 C1134 0.930 . S
H1113 C1105 0.931 . S
H1114 C1095 0.930 . S
H1115 C1124 0.929 . S
H1116 C1100 0.931 . S
H1117 C1101 0.930 1_545 S
H1118 C1156 0.930 . S
H1119 C1097 0.929 . S
H1120 C1125 0.931 . S
H1121 C1126 0.930 . S
N1122 Gd1102 2.622 1_455 S
N1122 C1123 1.369 . S
N1122 C1124 1.338 . S
C1123 N1122 1.369 . S
C1123 C1127 1.415 . S
C1123 C1130 1.422 1_465 S
C1124 H1115 0.929 . S
C1124 N1122 1.338 . S
C1124 C1126 1.378 . S
C1125 H1120 0.931 . S
C1125 C1126 1.348 . S
C1125 C1127 1.413 . S
C1126 H1121 0.930 . S
C1126 C1124 1.378 . S
C1126 C1125 1.348 . S
C1127 C1123 1.415 . S
C1127 C1125 1.413 . S
C1127 C1157 1.437 1_565 S
H1128 C1157 0.929 . S
N1129 Gd1102 2.570 1_545 S
N1129 C1130 1.359 . S
N1129 C1133 1.343 . S
C1130 C1123 1.422 1_645 S
C1130 N1129 1.359 . S
C1130 C1132 1.421 1_655 S
C1131 C1132 1.422 1_655 S
C1131 C1134 1.321 . S
C1131 H1158 0.931 . S
C1132 C1130 1.421 1_455 S
C1132 C1131 1.422 1_455 S
C1132 C1156 1.417 . S
C1133 H1110 0.931 . S
C1133 N1129 1.343 . S
C1133 C1134 1.390 . S
C1134 H1112 0.930 . S
C1134 C1131 1.321 . S
C1134 C1133 1.390 . S
O1135 Gd1103 2.386 . S
O1135 C1147 1.265 . S
O1136 Gd1102 2.353 . S
O1136 C1147 1.242 . S
O1137 Gd1102 2.468 1_545 S
O1137 C1155 1.263 . S
O1138 Gd1102 2.440 . S
O1138 C1155 1.256 1_565 S
O1139 Gd1103 2.307 . S
O1139 C1148 1.261 . S
O1140 Gd1102 2.388 . S
O1140 C1148 1.252 . S
O1141 Gd1102 2.386 . S
O1141 C1159 1.265 . S
O1142 Gd1103 2.353 . S
O1142 C1159 1.242 . S
O1143 Gd1103 2.468 . S
O1143 C1167 1.263 . S
O1144 Gd1103 2.427 . S
O1144 C1167 1.252 . S
O1145 Gd1102 2.307 1_545 S
O1145 C1160 1.261 . S
O1146 Gd1103 2.419 . S
O1146 C1160 1.235 1_565 S
C1147 O1135 1.265 . S
C1147 O1136 1.242 . S
C1148 O1139 1.261 . S
C1148 O1140 1.252 . S
C1149 C1152 1.394 . S
C1149 C1154 1.370 . S
C1149 C1155 1.500 1_455 S
C1150 C1153 1.383 . S
C1150 C1154 1.395 . S
C1151 C1152 1.396 . S
C1151 C1153 1.365 . S
C1151 H1168 0.929 . S
C1152 C1149 1.394 . S
C1152 C1151 1.396 . S
C1152 H1169 0.930 1_545 S
C1153 C1150 1.383 . S
C1153 C1151 1.365 . S
C1153 H1170 0.931 . S
C1154 C1149 1.370 . S
C1154 C1150 1.395 . S
C1154 H1171 0.930 1_455 S
C1155 Gd1102 2.805 1_545 S
C1155 O1137 1.263 . S
C1155 O1138 1.256 1_545 S
C1155 C1149 1.500 1_655 S
C1156 H1118 0.930 . S
C1156 C1132 1.417 . S
C1156 C1157 1.329 . S
C1157 C1127 1.437 1_545 S
C1157 H1128 0.929 . S
C1157 C1156 1.329 . S
H1158 C1131 0.931 . S
C1159 O1141 1.265 . S
C1159 O1142 1.242 . S
C1160 O1145 1.261 . S
C1160 O1146 1.235 1_545 S
C1161 C1164 1.394 . S
C1161 C1166 1.370 . S
C1161 C1167 1.500 . S
C1162 C1165 1.383 . S
C1162 C1166 1.395 . S
C1163 C1164 1.396 . S
C1163 C1165 1.365 . S
C1163 H1172 0.929 . S
C1164 C1161 1.394 . S
C1164 C1163 1.396 . S
C1164 H1173 0.930 . S
C1165 C1162 1.383 . S
C1165 C1163 1.365 . S
C1165 H1174 0.931 . S
C1166 C1161 1.370 . S
C1166 C1162 1.395 . S
C1166 H1175 0.930 . S
C1167 Gd1103 2.805 . S
C1167 O1143 1.263 . S
C1167 O1144 1.252 . S
C1167 C1161 1.500 . S
H1168 C1151 0.929 . S
H1169 C1152 0.930 1_565 S
H1170 C1153 0.931 . S
H1171 C1154 0.930 1_655 S
H1172 C1163 0.929 . S
H1173 C1164 0.930 . S
H1174 C1165 0.931 . S
H1175 C1166 0.930 . S
C1176 C1178 1.422 . S
C1176 C1180 1.415 . S
C1176 N1182 1.369 . S
C1177 C1178 1.421 . S
C1177 C1179 1.417 . S
C1177 C1189 1.422 . S
C1178 C1176 1.422 . S
C1178 C1177 1.421 . S
C1178 N1188 1.359 . S
C1179 C1177 1.417 . S
C1179 C1181 1.329 . S
C1179 H1198 0.930 . S
C1180 C1176 1.415 . S
C1180 C1181 1.437 . S
C1180 C1184 1.413 . S
C1181 C1179 1.329 . S
C1181 C1180 1.437 . S
C1181 H1203 0.929 . S
N1182 C1176 1.369 . S
N1182 C1183 1.338 . S
N1182 Gd1187 2.622 . S
C1183 N1182 1.338 . S
C1183 C1185 1.378 . S
C1183 H1195 0.929 . S
C1184 C1180 1.413 . S
C1184 C1185 1.348 . S
C1184 H1200 0.931 . S
C1185 C1183 1.378 . S
C1185 C1184 1.348 . S
C1185 H1201 0.930 . S
Gd1186 N1206 2.622 . S
Gd1186 N1213 2.570 . S
Gd1186 O1220 2.353 . S
Gd1186 O1221 2.468 . S
Gd1186 O1222 2.427 . S
Gd1186 O1224 2.388 . S
Gd1186 O1225 2.386 . S
Gd1186 O1229 2.307 . S
Gd1186 C1239 2.805 . S
Gd1187 N1182 2.622 . S
Gd1187 N1188 2.570 . S
Gd1187 O1219 2.386 . S
Gd1187 O1223 2.307 . S
Gd1187 O1226 2.353 . S
Gd1187 O1227 2.468 . S
Gd1187 O1228 2.427 . S
Gd1187 O1230 2.388 . S
Gd1187 C1251 2.805 . S
N1188 C1178 1.359 . S
N1188 Gd1187 2.570 . S
N1188 C1190 1.343 . S
C1189 C1177 1.422 . S
C1189 C1191 1.321 . S
C1189 H1197 0.931 . S
C1190 N1188 1.343 . S
C1190 C1191 1.390 . S
C1190 H1192 0.931 . S
C1191 C1189 1.321 . S
C1191 C1190 1.390 . S
C1191 H1193 0.930 . S
H1192 C1190 0.931 . S
H1193 C1191 0.930 . S
H1194 C1217 0.931 . S
H1195 C1183 0.929 . S
H1196 C1218 0.930 . S
H1197 C1189 0.931 . S
H1198 C1179 0.930 . S
H1199 C1208 0.929 . S
H1200 C1184 0.931 . S
H1201 C1185 0.930 . S
H1202 C1240 0.930 . S
H1203 C1181 0.929 . S
H1204 C1209 0.931 . S
H1205 C1210 0.930 . S
N1206 Gd1186 2.622 . S
N1206 C1207 1.369 . S
N1206 C1208 1.338 . S
C1207 N1206 1.369 . S
C1207 C1211 1.415 . S
C1207 C1214 1.422 . S
C1208 H1199 0.929 . S
C1208 N1206 1.338 . S
C1208 C1210 1.378 . S
C1209 H1204 0.931 . S
C1209 C1210 1.348 . S
C1209 C1211 1.413 . S
C1210 H1205 0.930 . S
C1210 C1208 1.378 . S
C1210 C1209 1.348 . S
C1211 C1207 1.415 . S
C1211 C1209 1.413 . S
C1211 C1241 1.437 . S
H1212 C1241 0.929 . S
N1213 Gd1186 2.570 . S
N1213 C1214 1.359 . S
N1213 C1217 1.343 . S
C1214 C1207 1.422 . S
C1214 N1213 1.359 . S
C1214 C1216 1.421 . S
C1215 C1216 1.422 . S
C1215 C1218 1.321 . S
C1215 H1242 0.931 . S
C1216 C1214 1.421 . S
C1216 C1215 1.422 . S
C1216 C1240 1.417 . S
C1217 H1194 0.931 . S
C1217 N1213 1.343 . S
C1217 C1218 1.390 . S
C1218 H1196 0.930 . S
C1218 C1215 1.321 . S
C1218 C1217 1.390 . S
O1219 Gd1187 2.386 . S
O1219 C1231 1.265 . S
O1220 Gd1186 2.353 . S
O1220 C1231 1.242 . S
O1221 Gd1186 2.468 . S
O1221 C1239 1.263 . S
O1222 Gd1186 2.427 . S
O1222 C1239 1.252 . S
O1223 Gd1187 2.307 . S
O1223 C1232 1.261 . S
O1224 Gd1186 2.388 . S
O1224 C1232 1.252 . S
O1225 Gd1186 2.386 . S
O1225 C1243 1.265 . S
O1226 Gd1187 2.353 . S
O1226 C1243 1.242 . S
O1227 Gd1187 2.468 . S
O1227 C1251 1.263 . S
O1228 Gd1187 2.427 . S
O1228 C1251 1.252 . S
O1229 Gd1186 2.307 . S
O1229 C1244 1.261 . S
O1230 Gd1187 2.388 . S
O1230 C1244 1.252 . S
C1231 O1219 1.265 . S
C1231 O1220 1.242 . S
C1232 O1223 1.261 . S
C1232 O1224 1.252 . S
C1233 C1236 1.394 . S
C1233 C1238 1.370 . S
C1233 C1239 1.500 . S
C1234 C1237 1.383 . S
C1234 C1238 1.395 . S
C1235 C1236 1.396 . S
C1235 C1237 1.365 . S
C1235 H1252 0.929 . S
C1236 C1233 1.394 . S
C1236 C1235 1.396 . S
C1236 H1253 0.930 . S
C1237 C1234 1.383 . S
C1237 C1235 1.365 . S
C1237 H1254 0.931 . S
C1238 C1233 1.370 . S
C1238 C1234 1.395 . S
C1238 H1255 0.930 . S
C1239 Gd1186 2.805 . S
C1239 O1221 1.263 . S
C1239 O1222 1.252 . S
C1239 C1233 1.500 . S
C1240 H1202 0.930 . S
C1240 C1216 1.417 . S
C1240 C1241 1.329 . S
C1241 C1211 1.437 . S
C1241 H1212 0.929 . S
C1241 C1240 1.329 . S
H1242 C1215 0.931 . S
C1243 O1225 1.265 . S
C1243 O1226 1.242 . S
C1244 O1229 1.261 . S
C1244 O1230 1.252 . S
C1245 C1248 1.394 . S
C1245 C1250 1.370 . S
C1245 C1251 1.500 . S
C1246 C1249 1.383 . S
C1246 C1250 1.395 . S
C1247 C1248 1.396 . S
C1247 C1249 1.365 . S
C1247 H1256 0.929 . S
C1248 C1245 1.394 . S
C1248 C1247 1.396 . S
C1248 H1257 0.930 . S
C1249 C1246 1.383 . S
C1249 C1247 1.365 . S
C1249 H1258 0.918 1_556 S
C1250 C1245 1.370 . S
C1250 C1246 1.395 . S
C1250 H1259 0.930 . S
C1251 Gd1187 2.805 . S
C1251 O1227 1.263 . S
C1251 O1228 1.252 . S
C1251 C1245 1.500 . S
H1252 C1235 0.929 . S
H1253 C1236 0.930 . S
H1254 C1237 0.931 . S
H1255 C1238 0.930 . S
H1256 C1247 0.929 . S
H1257 C1248 0.930 . S
H1258 C1249 0.918 1_554 S
H1259 C1250 0.930 . S
C1260 C1262 1.422 . S
C1260 C1264 1.415 . S
C1260 N1266 1.369 . S
C1261 C1262 1.421 . S
C1261 C1263 1.417 . S
C1261 C1273 1.422 . S
C1262 C1260 1.422 . S
C1262 C1261 1.421 . S
C1262 N1272 1.359 . S
C1263 C1261 1.417 . S
C1263 C1265 1.329 . S
C1263 H1282 0.930 . S
C1264 C1260 1.415 . S
C1264 C1265 1.437 . S
C1264 C1268 1.413 . S
C1265 C1263 1.329 . S
C1265 C1264 1.437 . S
C1265 H1287 0.929 . S
N1266 C1260 1.369 . S
N1266 C1267 1.338 . S
N1266 Gd1271 2.622 . S
C1267 N1266 1.338 . S
C1267 C1269 1.378 . S
C1267 H1279 0.929 . S
C1268 C1264 1.413 . S
C1268 C1269 1.348 . S
C1268 H1284 0.931 . S
C1269 C1267 1.378 . S
C1269 C1268 1.348 . S
C1269 H1285 0.930 1_545 S
Gd1270 N1290 2.622 . S
Gd1270 N1297 2.570 1_545 S
Gd1270 O1304 2.353 . S
Gd1270 O1305 2.468 1_545 S
Gd1270 O1306 2.427 . S
Gd1270 O1308 2.388 . S
Gd1270 O1309 2.386 . S
Gd1270 O1313 2.307 1_545 S
Gd1270 C1323 2.805 1_545 S
Gd1271 N1266 2.622 . S
Gd1271 N1272 2.570 . S
Gd1271 O1303 2.386 . S
Gd1271 O1307 2.307 . S
Gd1271 O1310 2.353 . S
Gd1271 O1311 2.468 . S
Gd1271 O1312 2.427 . S
Gd1271 O1314 2.419 . S
Gd1271 C1335 2.805 . S
N1272 C1262 1.359 . S
N1272 Gd1271 2.570 . S
N1272 C1274 1.343 . S
C1273 C1261 1.422 . S
C1273 C1275 1.321 . S
C1273 H1281 0.931 . S
C1274 N1272 1.343 . S
C1274 C1275 1.390 . S
C1274 H1276 0.931 . S
C1275 C1273 1.321 . S
C1275 C1274 1.390 . S
C1275 H1277 0.930 . S
H1276 C1274 0.931 . S
H1277 C1275 0.930 . S
H1278 C1301 0.931 . S
H1279 C1267 0.929 . S
H1280 C1302 0.930 . S
H1281 C1273 0.931 . S
H1282 C1263 0.930 . S
H1283 C1292 0.929 . S
H1284 C1268 0.931 . S
H1285 C1269 0.930 1_565 S
H1286 C1324 0.930 . S
H1287 C1265 0.929 . S
H1288 C1293 0.931 . S
H1289 C1294 0.930 . S
N1290 Gd1270 2.622 . S
N1290 C1291 1.369 . S
N1290 C1292 1.338 . S
C1291 N1290 1.369 . S
C1291 C1295 1.415 . S
C1291 C1298 1.422 1_545 S
C1292 H1283 0.929 . S
C1292 N1290 1.338 . S
C1292 C1294 1.378 . S
C1293 H1288 0.931 . S
C1293 C1294 1.348 . S
C1293 C1295 1.413 . S
C1294 H1289 0.930 . S
C1294 C1292 1.378 . S
C1294 C1293 1.348 . S
C1295 C1291 1.415 . S
C1295 C1293 1.413 . S
C1295 C1325 1.437 1_545 S
H1296 C1325 0.929 . S
N1297 Gd1270 2.570 1_565 S
N1297 C1298 1.359 . S
N1297 C1301 1.343 . S
C1298 C1291 1.422 1_565 S
C1298 N1297 1.359 . S
C1298 C1300 1.421 . S
C1299 C1300 1.422 . S
C1299 C1302 1.321 . S
C1299 H1326 0.931 . S
C1300 C1298 1.421 . S
C1300 C1299 1.422 . S
C1300 C1324 1.417 . S
C1301 H1278 0.931 . S
C1301 N1297 1.343 . S
C1301 C1302 1.390 . S
C1302 H1280 0.930 . S
C1302 C1299 1.321 . S
C1302 C1301 1.390 . S
O1303 Gd1271 2.386 . S
O1303 C1315 1.265 . S
O1304 Gd1270 2.353 . S
O1304 C1315 1.242 . S
O1305 Gd1270 2.468 1_565 S
O1305 C1323 1.263 . S
O1306 Gd1270 2.427 . S
O1306 C1323 1.252 1_545 S
O1307 Gd1271 2.307 . S
O1307 C1316 1.261 . S
O1308 Gd1270 2.388 . S
O1308 C1316 1.252 . S
O1309 Gd1270 2.386 . S
O1309 C1327 1.265 . S
O1310 Gd1271 2.353 . S
O1310 C1327 1.242 . S
O1311 Gd1271 2.468 . S
O1311 C1335 1.263 . S
O1312 Gd1271 2.427 . S
O1312 C1335 1.252 . S
O1313 Gd1270 2.307 1_565 S
O1313 C1328 1.261 . S
O1314 Gd1271 2.419 . S
O1314 C1328 1.235 1_545 S
C1315 O1303 1.265 . S
C1315 O1304 1.242 . S
C1316 O1307 1.261 . S
C1316 O1308 1.252 . S
C1317 C1320 1.394 . S
C1317 C1322 1.370 . S
C1317 C1323 1.500 . S
C1318 C1321 1.383 . S
C1318 C1322 1.395 . S
C1319 C1320 1.396 . S
C1319 C1321 1.365 . S
C1319 H1336 0.929 . S
C1320 C1317 1.394 . S
C1320 C1319 1.396 . S
C1320 H1337 0.930 1_565 S
C1321 C1318 1.383 . S
C1321 C1319 1.365 . S
C1321 H1338 0.931 . S
C1322 C1317 1.370 . S
C1322 C1318 1.395 . S
C1322 H1339 0.930 . S
C1323 Gd1270 2.805 1_565 S
C1323 O1305 1.263 . S
C1323 O1306 1.252 1_565 S
C1323 C1317 1.500 . S
C1324 H1286 0.930 . S
C1324 C1300 1.417 . S
C1324 C1325 1.329 . S
C1325 C1295 1.437 1_565 S
C1325 H1296 0.929 . S
C1325 C1324 1.329 . S
H1326 C1299 0.931 . S
C1327 O1309 1.265 . S
C1327 O1310 1.242 . S
C1328 O1313 1.261 . S
C1328 O1314 1.235 1_565 S
C1329 C1332 1.394 . S
C1329 C1334 1.370 . S
C1329 C1335 1.500 . S
C1330 C1333 1.383 . S
C1330 C1334 1.395 . S
C1331 C1332 1.396 . S
C1331 C1333 1.365 . S
C1331 H1340 0.929 . S
C1332 C1329 1.394 . S
C1332 C1331 1.396 . S
C1332 H1341 0.930 . S
C1333 C1330 1.383 . S
C1333 C1331 1.365 . S
C1333 H1342 0.931 . S
C1334 C1329 1.370 . S
C1334 C1330 1.395 . S
C1334 H1343 0.930 . S
C1335 Gd1271 2.805 . S
C1335 O1311 1.263 . S
C1335 O1312 1.252 . S
C1335 C1329 1.500 . S
H1336 C1319 0.929 . S
H1337 C1320 0.930 1_545 S
H1338 C1321 0.931 . S
H1339 C1322 0.930 . S
H1340 C1331 0.929 . S
H1341 C1332 0.930 . S
H1342 C1333 0.931 . S
H1343 C1334 0.930 . S
H1344 C1352 0.950 . S
H1345 C1357 0.950 . S
H1346 C1354 0.950 . S
H1347 C1356 0.950 . S
H1348 C1358 0.950 . S
H1349 C1360 0.950 . S
H1350 C1362 0.950 . S
H1351 C1363 0.950 . S
C1352 H1344 0.950 . S
C1352 C1353 1.386 . S
C1352 C1354 1.391 . S
C1353 C1352 1.386 . S
C1353 C1357 1.393 . S
C1354 H1346 0.950 . S
C1354 C1352 1.391 . S
C1354 C1355 1.400 . S
C1355 C1354 1.400 . S
C1355 C1356 1.398 . S
C1355 C1361 1.491 . S
C1356 H1347 0.950 . S
C1356 C1355 1.398 . S
C1356 C1357 1.391 . S
C1357 H1345 0.950 . S
C1357 C1353 1.393 . S
C1357 C1356 1.391 . S
C1358 H1348 0.950 . S
C1358 C1359 1.386 . S
C1358 C1360 1.391 . S
C1359 C1358 1.386 . S
C1359 C1363 1.393 . S
C1360 H1349 0.950 . S
C1360 C1358 1.391 . S
C1360 C1361 1.400 . S
C1361 C1355 1.491 . S
C1361 C1360 1.400 . S
C1361 C1362 1.398 . S
C1362 H1350 0.950 . S
C1362 C1361 1.398 . S
C1362 C1363 1.391 . S
C1363 H1351 0.950 . S
C1363 C1359 1.393 . S
C1363 C1362 1.391 . S
H1364 C1372 0.950 . S
H1365 C1377 0.950 . S
H1366 C1374 0.950 . S
H1367 C1376 0.950 . S
H1368 C1378 0.950 . S
H1369 C1380 0.950 . S
H1370 C1382 0.950 . S
H1371 C1383 0.950 . S
C1372 H1364 0.950 . S
C1372 C1373 1.386 . S
C1372 C1374 1.391 . S
C1373 C1372 1.386 . S
C1373 C1377 1.393 . S
C1374 H1366 0.950 . S
C1374 C1372 1.391 . S
C1374 C1375 1.400 . S
C1375 C1374 1.400 . S
C1375 C1376 1.398 . S
C1375 C1381 1.491 . S
C1376 H1367 0.950 . S
C1376 C1375 1.398 . S
C1376 C1377 1.391 . S
C1377 H1365 0.950 . S
C1377 C1373 1.393 . S
C1377 C1376 1.391 . S
C1378 H1368 0.950 . S
C1378 C1379 1.386 . S
C1378 C1380 1.391 . S
C1379 C1378 1.386 . S
C1379 C1383 1.393 . S
C1380 H1369 0.950 . S
C1380 C1378 1.391 . S
C1380 C1381 1.400 . S
C1381 C1375 1.491 . S
C1381 C1380 1.400 . S
C1381 C1382 1.398 . S
C1382 H1370 0.950 . S
C1382 C1381 1.398 . S
C1382 C1383 1.391 . S
C1383 H1371 0.950 . S
C1383 C1379 1.393 . S
C1383 C1382 1.391 . S
H1384 C1392 0.950 . S
H1385 C1397 0.950 . S
H1386 C1394 0.950 . S
H1387 C1396 0.950 . S
H1388 C1398 0.950 . S
H1389 C1400 0.950 . S
H1390 C1402 0.950 . S
H1391 C1403 0.950 . S
C1392 H1384 0.950 . S
C1392 C1393 1.386 . S
C1392 C1394 1.391 . S
C1393 C1392 1.386 . S
C1393 C1397 1.393 . S
C1394 H1386 0.950 . S
C1394 C1392 1.391 . S
C1394 C1395 1.400 . S
C1395 C1394 1.400 . S
C1395 C1396 1.398 . S
C1395 C1401 1.491 1_455 S
C1396 H1387 0.950 . S
C1396 C1395 1.398 . S
C1396 C1397 1.391 . S
C1397 H1385 0.950 . S
C1397 C1393 1.393 . S
C1397 C1396 1.391 . S
C1398 H1388 0.950 . S
C1398 C1399 1.386 . S
C1398 C1400 1.391 . S
C1399 C1398 1.386 . S
C1399 C1403 1.393 . S
C1400 H1389 0.950 . S
C1400 C1398 1.391 . S
C1400 C1401 1.400 . S
C1401 C1395 1.491 1_655 S
C1401 C1400 1.400 . S
C1401 C1402 1.398 . S
C1402 H1390 0.950 . S
C1402 C1401 1.398 . S
C1402 C1403 1.391 . S
C1403 H1391 0.950 . S
C1403 C1399 1.393 . S
C1403 C1402 1.391 . S
H1404 C1412 0.950 . S
H1405 C1417 0.950 . S
H1406 C1414 0.950 . S
H1407 C1416 0.958 . S
H1408 C1418 0.950 . S
H1409 C1420 0.950 . S
H1410 C1422 0.957 . S
H1411 C1423 0.950 . S
C1412 H1404 0.950 . S
C1412 C1413 1.386 . S
C1412 C1414 1.391 . S
C1413 C1412 1.386 . S
C1413 C1417 1.393 . S
C1414 H1406 0.950 . S
C1414 C1412 1.391 . S
C1414 C1415 1.400 . S
C1415 C1414 1.400 . S
C1415 C1416 1.398 . S
C1415 C1421 1.491 1_455 S
C1416 H1407 0.958 . S
C1416 C1415 1.398 . S
C1416 C1417 1.391 . S
C1417 H1405 0.950 . S
C1417 C1413 1.393 . S
C1417 C1416 1.391 . S
C1418 H1408 0.950 . S
C1418 C1419 1.386 . S
C1418 C1420 1.391 . S
C1419 C1418 1.386 . S
C1419 C1423 1.393 . S
C1420 H1409 0.950 . S
C1420 C1418 1.391 . S
C1420 C1421 1.400 . S
C1421 C1415 1.491 1_655 S
C1421 C1420 1.400 . S
C1421 C1422 1.398 . S
C1422 H1410 0.957 . S
C1422 C1421 1.398 . S
C1422 C1423 1.391 . S
C1423 H1411 0.950 . S
C1423 C1419 1.393 . S
C1423 C1422 1.391 . S
H1424 C1432 0.950 . S
H1425 C1437 0.950 . S
H1426 C1434 0.950 . S
H1427 C1436 0.950 . S
H1428 C1438 0.950 . S
H1429 C1440 0.950 . S
H1430 C1442 0.950 . S
H1431 C1443 0.950 . S
C1432 H1424 0.950 . S
C1432 C1433 1.386 . S
C1432 C1434 1.391 . S
C1433 C1432 1.386 . S
C1433 C1437 1.393 . S
C1434 H1426 0.950 . S
C1434 C1432 1.391 . S
C1434 C1435 1.400 . S
C1435 C1434 1.400 . S
C1435 C1436 1.398 . S
C1435 C1441 1.491 . S
C1436 H1427 0.950 . S
C1436 C1435 1.398 . S
C1436 C1437 1.391 . S
C1437 H1425 0.950 . S
C1437 C1433 1.393 . S
C1437 C1436 1.391 . S
C1438 H1428 0.950 . S
C1438 C1439 1.386 . S
C1438 C1440 1.391 . S
C1439 C1438 1.386 . S
C1439 C1443 1.393 . S
C1440 H1429 0.950 . S
C1440 C1438 1.391 . S
C1440 C1441 1.400 . S
C1441 C1435 1.491 . S
C1441 C1440 1.400 . S
C1441 C1442 1.398 . S
C1442 H1430 0.950 . S
C1442 C1441 1.398 . S
C1442 C1443 1.391 . S
C1443 H1431 0.950 . S
C1443 C1439 1.393 . S
C1443 C1442 1.391 . S
H1444 C1452 0.950 . S
H1445 C1457 0.950 . S
H1446 C1454 0.950 . S
H1447 C1456 0.950 . S
H1448 C1458 0.950 . S
H1449 C1460 0.950 . S
H1450 C1462 0.950 . S
H1451 C1463 0.950 . S
C1452 H1444 0.950 . S
C1452 C1453 1.386 . S
C1452 C1454 1.391 . S
C1453 C1452 1.386 . S
C1453 C1457 1.393 . S
C1454 H1446 0.950 . S
C1454 C1452 1.391 . S
C1454 C1455 1.400 . S
C1455 C1454 1.400 . S
C1455 C1456 1.398 . S
C1455 C1461 1.491 . S
C1456 H1447 0.950 . S
C1456 C1455 1.398 . S
C1456 C1457 1.391 . S
C1457 H1445 0.950 . S
C1457 C1453 1.393 . S
C1457 C1456 1.391 . S
C1458 H1448 0.950 . S
C1458 C1459 1.386 . S
C1458 C1460 1.391 . S
C1459 C1458 1.386 . S
C1459 C1463 1.393 . S
C1460 H1449 0.950 . S
C1460 C1458 1.391 . S
C1460 C1461 1.400 . S
C1461 C1455 1.491 . S
C1461 C1460 1.400 . S
C1461 C1462 1.398 . S
C1462 H1450 0.950 . S
C1462 C1461 1.398 . S
C1462 C1463 1.391 . S
C1463 H1451 0.950 . S
C1463 C1459 1.393 . S
C1463 C1462 1.391 . S
H1464 C1472 0.950 . S
H1465 C1477 0.950 . S
H1466 C1474 0.930 1_655 S
H1467 C1476 0.950 . S
H1468 C1478 0.950 . S
H1469 C1480 0.930 1_455 S
H1470 C1482 0.950 . S
H1471 C1483 0.950 . S
C1472 H1464 0.950 . S
C1472 C1473 1.386 . S
C1472 C1474 1.391 . S
C1473 C1472 1.386 . S
C1473 C1477 1.393 . S
C1474 H1466 0.930 1_455 S
C1474 C1472 1.391 . S
C1474 C1475 1.400 . S
C1475 C1474 1.400 . S
C1475 C1476 1.398 . S
C1475 C1481 1.491 1_455 S
C1476 H1467 0.950 . S
C1476 C1475 1.398 . S
C1476 C1477 1.391 . S
C1477 H1465 0.950 . S
C1477 C1473 1.393 . S
C1477 C1476 1.391 . S
C1478 H1468 0.950 . S
C1478 C1479 1.386 . S
C1478 C1480 1.391 . S
C1479 C1478 1.386 . S
C1479 C1483 1.393 . S
C1480 H1469 0.930 1_655 S
C1480 C1478 1.391 . S
C1480 C1481 1.400 . S
C1481 C1475 1.491 1_655 S
C1481 C1480 1.400 . S
C1481 C1482 1.398 . S
C1482 H1470 0.950 . S
C1482 C1481 1.398 . S
C1482 C1483 1.391 . S
C1483 H1471 0.950 . S
C1483 C1479 1.393 . S
C1483 C1482 1.391 . S
H1484 C1492 0.950 . S
H1485 C1497 0.950 1_655 S
H1486 C1494 0.950 . S
H1487 C1496 0.950 . S
H1488 C1498 0.950 . S
H1489 C1500 0.950 . S
H1490 C1502 0.950 . S
H1491 C1503 0.950 1_455 S
C1492 H1484 0.950 . S
C1492 C1493 1.386 . S
C1492 C1494 1.391 . S
C1493 C1492 1.386 . S
C1493 C1497 1.393 . S
C1494 H1486 0.950 . S
C1494 C1492 1.391 . S
C1494 C1495 1.400 . S
C1495 C1494 1.400 . S
C1495 C1496 1.398 1_455 S
C1495 C1501 1.491 1_455 S
C1496 H1487 0.950 . S
C1496 C1495 1.398 1_655 S
C1496 C1497 1.391 1_655 S
C1497 H1485 0.950 1_455 S
C1497 C1493 1.393 . S
C1497 C1496 1.391 1_455 S
C1498 H1488 0.950 . S
C1498 C1499 1.386 . S
C1498 C1500 1.391 . S
C1499 C1498 1.386 . S
C1499 C1503 1.393 . S
C1500 H1489 0.950 . S
C1500 C1498 1.391 . S
C1500 C1501 1.400 . S
C1501 C1495 1.491 1_655 S
C1501 C1500 1.400 . S
C1501 C1502 1.398 1_655 S
C1502 H1490 0.950 . S
C1502 C1501 1.398 1_455 S
C1502 C1503 1.391 1_455 S
C1503 H1491 0.950 1_655 S
C1503 C1499 1.393 . S
C1503 C1502 1.391 1_655 S
H1504 C1512 0.950 . S
H1505 C1517 0.950 . S
H1506 C1514 0.950 . S
H1507 C1516 0.950 . S
H1508 C1518 0.950 . S
H1509 C1520 0.950 . S
H1510 C1522 0.950 . S
H1511 C1523 0.950 . S
C1512 H1504 0.950 . S
C1512 C1513 1.386 1_566 S
C1512 C1514 1.391 . S
C1513 C1512 1.386 1_544 S
C1513 C1517 1.393 . S
C1514 H1506 0.950 . S
C1514 C1512 1.391 . S
C1514 C1515 1.400 1_566 S
C1515 C1514 1.400 1_544 S
C1515 C1516 1.398 . S
C1515 C1521 1.491 1_544 S
C1516 H1507 0.950 . S
C1516 C1515 1.398 . S
C1516 C1517 1.391 . S
C1517 H1505 0.950 . S
C1517 C1513 1.393 . S
C1517 C1516 1.391 . S
C1518 H1508 0.950 . S
C1518 C1519 1.386 1_544 S
C1518 C1520 1.391 . S
C1519 C1518 1.386 1_566 S
C1519 C1523 1.393 . S
C1520 H1509 0.950 . S
C1520 C1518 1.391 . S
C1520 C1521 1.400 1_544 S
C1521 C1515 1.491 1_566 S
C1521 C1520 1.400 1_566 S
C1521 C1522 1.398 . S
C1522 H1510 0.950 . S
C1522 C1521 1.398 . S
C1522 C1523 1.391 . S
C1523 H1511 0.950 . S
C1523 C1519 1.393 . S
C1523 C1522 1.391 . S
H1524 C1532 0.950 . S
H1525 C1537 0.950 . S
H1526 C1534 0.950 . S
H1527 C1536 0.950 . S
H1528 C1538 0.950 . S
H1529 C1540 0.950 . S
H1530 C1542 0.950 . S
H1531 C1543 0.950 . S
C1532 H1524 0.950 . S
C1532 C1533 1.386 . S
C1532 C1534 1.391 . S
C1533 C1532 1.386 . S
C1533 C1537 1.393 . S
C1534 H1526 0.950 . S
C1534 C1532 1.391 . S
C1534 C1535 1.400 . S
C1535 C1534 1.400 . S
C1535 C1536 1.398 . S
C1535 C1541 1.491 . S
C1536 H1527 0.950 . S
C1536 C1535 1.398 . S
C1536 C1537 1.391 . S
C1537 H1525 0.950 . S
C1537 C1533 1.393 . S
C1537 C1536 1.391 . S
C1538 H1528 0.950 . S
C1538 C1539 1.386 . S
C1538 C1540 1.391 . S
C1539 C1538 1.386 . S
C1539 C1543 1.393 . S
C1540 H1529 0.950 . S
C1540 C1538 1.391 . S
C1540 C1541 1.400 . S
C1541 C1535 1.491 . S
C1541 C1540 1.400 . S
C1541 C1542 1.398 . S
C1542 H1530 0.950 . S
C1542 C1541 1.398 . S
C1542 C1543 1.391 . S
C1543 H1531 0.950 . S
C1543 C1539 1.393 . S
C1543 C1542 1.391 . S
H1544 C1552 0.950 . S
H1545 C1557 0.943 1_545 S
H1546 C1554 0.950 . S
H1547 C1556 0.950 . S
H1548 C1558 0.950 . S
H1549 C1560 0.950 . S
H1550 C1562 0.950 . S
H1551 C1563 0.943 1_565 S
C1552 H1544 0.950 . S
C1552 C1553 1.386 . S
C1552 C1554 1.391 . S
C1553 C1552 1.386 . S
C1553 C1557 1.406 . S
C1554 H1546 0.950 . S
C1554 C1552 1.391 . S
C1554 C1555 1.400 . S
C1555 C1554 1.400 . S
C1555 C1556 1.398 1_565 S
C1555 C1561 1.491 1_465 S
C1556 H1547 0.950 . S
C1556 C1555 1.398 1_545 S
C1556 C1557 1.385 1_545 S
C1557 H1545 0.943 1_565 S
C1557 C1553 1.406 . S
C1557 C1556 1.385 1_565 S
C1558 H1548 0.950 . S
C1558 C1559 1.386 . S
C1558 C1560 1.391 . S
C1559 C1558 1.386 . S
C1559 C1563 1.406 . S
C1560 H1549 0.950 . S
C1560 C1558 1.391 . S
C1560 C1561 1.400 . S
C1561 C1555 1.491 1_645 S
C1561 C1560 1.400 . S
C1561 C1562 1.398 1_545 S
C1562 H1550 0.950 . S
C1562 C1561 1.398 1_565 S
C1562 C1563 1.385 1_565 S
C1563 H1551 0.943 1_545 S
C1563 C1559 1.406 . S
C1563 C1562 1.385 1_545 S
H1564 C1572 0.950 . S
H1565 C1577 0.950 . S
H1566 C1574 0.950 . S
H1567 C1576 0.950 . S
H1568 C1578 0.950 . S
H1569 C1580 0.950 . S
H1570 C1582 0.950 . S
H1571 C1583 0.950 . S
C1572 H1564 0.950 . S
C1572 C1573 1.386 . S
C1572 C1574 1.391 . S
C1573 C1572 1.386 . S
C1573 C1577 1.393 . S
C1574 H1566 0.950 . S
C1574 C1572 1.391 . S
C1574 C1575 1.400 . S
C1575 C1574 1.400 . S
C1575 C1576 1.398 . S
C1575 C1581 1.491 . S
C1576 H1567 0.950 . S
C1576 C1575 1.398 . S
C1576 C1577 1.391 . S
C1577 H1565 0.950 . S
C1577 C1573 1.393 . S
C1577 C1576 1.391 . S
C1578 H1568 0.950 . S
C1578 C1579 1.386 . S
C1578 C1580 1.391 . S
C1579 C1578 1.386 . S
C1579 C1583 1.393 . S
C1580 H1569 0.950 . S
C1580 C1578 1.391 . S
C1580 C1581 1.400 . S
C1581 C1575 1.491 . S
C1581 C1580 1.400 . S
C1581 C1582 1.398 . S
C1582 H1570 0.950 . S
C1582 C1581 1.398 . S
C1582 C1583 1.391 . S
C1583 H1571 0.950 . S
C1583 C1579 1.393 . S
C1583 C1582 1.391 . S
H1584 C1592 0.950 . S
H1585 C1597 0.950 . S
H1586 C1594 0.950 . S
H1587 C1596 0.950 . S
H1588 C1598 0.950 . S
H1589 C1600 0.950 . S
H1590 C1602 0.950 . S
H1591 C1603 0.950 . S
C1592 H1584 0.950 . S
C1592 C1593 1.386 . S
C1592 C1594 1.391 . S
C1593 C1592 1.386 . S
C1593 C1597 1.393 . S
C1594 H1586 0.950 . S
C1594 C1592 1.391 . S
C1594 C1595 1.400 . S
C1595 C1594 1.400 . S
C1595 C1596 1.398 . S
C1595 C1601 1.491 . S
C1596 H1587 0.950 . S
C1596 C1595 1.398 . S
C1596 C1597 1.391 . S
C1597 H1585 0.950 . S
C1597 C1593 1.393 . S
C1597 C1596 1.391 . S
C1598 H1588 0.950 . S
C1598 C1599 1.386 . S
C1598 C1600 1.391 . S
C1599 C1598 1.386 . S
C1599 C1603 1.393 . S
C1600 H1589 0.950 . S
C1600 C1598 1.391 . S
C1600 C1601 1.400 . S
C1601 C1595 1.491 . S
C1601 C1600 1.400 . S
C1601 C1602 1.398 . S
C1602 H1590 0.950 . S
C1602 C1601 1.398 . S
C1602 C1603 1.391 . S
C1603 H1591 0.950 . S
C1603 C1599 1.393 . S
C1603 C1602 1.391 . S
H1604 C1612 0.950 . S
H1605 C1617 0.950 . S
H1606 C1614 0.950 . S
H1607 C1616 0.950 . S
H1608 C1618 0.950 . S
H1609 C1620 0.950 . S
H1610 C1622 0.950 . S
H1611 C1623 0.950 . S
C1612 H1604 0.950 . S
C1612 C1613 1.386 . S
C1612 C1614 1.391 . S
C1613 C1612 1.386 . S
C1613 C1617 1.393 . S
C1614 H1606 0.950 . S
C1614 C1612 1.391 . S
C1614 C1615 1.400 . S
C1615 C1614 1.400 . S
C1615 C1616 1.398 . S
C1615 C1621 1.491 . S
C1616 H1607 0.950 . S
C1616 C1615 1.398 . S
C1616 C1617 1.391 . S
C1617 H1605 0.950 . S
C1617 C1613 1.393 . S
C1617 C1616 1.391 . S
C1618 H1608 0.950 . S
C1618 C1619 1.386 . S
C1618 C1620 1.391 . S
C1619 C1618 1.386 . S
C1619 C1623 1.393 . S
C1620 H1609 0.950 . S
C1620 C1618 1.391 . S
C1620 C1621 1.400 . S
C1621 C1615 1.491 . S
C1621 C1620 1.400 . S
C1621 C1622 1.398 . S
C1622 H1610 0.950 . S
C1622 C1621 1.398 . S
C1622 C1623 1.391 . S
C1623 H1611 0.950 . S
C1623 C1619 1.393 . S
C1623 C1622 1.391 . S
H1624 C1632 0.950 . S
H1625 C1637 0.950 . S
H1626 C1634 0.950 . S
H1627 C1636 0.950 . S
H1628 C1638 0.950 . S
H1629 C1640 0.950 . S
H1630 C1642 0.950 . S
H1631 C1643 0.950 . S
C1632 H1624 0.950 . S
C1632 C1633 1.386 . S
C1632 C1634 1.391 . S
C1633 C1632 1.386 . S
C1633 C1637 1.393 . S
C1634 H1626 0.950 . S
C1634 C1632 1.391 . S
C1634 C1635 1.400 . S
C1635 C1634 1.400 . S
C1635 C1636 1.398 . S
C1635 C1641 1.491 1_455 S
C1636 H1627 0.950 . S
C1636 C1635 1.398 . S
C1636 C1637 1.391 . S
C1637 H1625 0.950 . S
C1637 C1633 1.393 . S
C1637 C1636 1.391 . S
C1638 H1628 0.950 . S
C1638 C1639 1.386 . S
C1638 C1640 1.391 . S
C1639 C1638 1.386 . S
C1639 C1643 1.393 . S
C1640 H1629 0.950 . S
C1640 C1638 1.391 . S
C1640 C1641 1.400 . S
C1641 C1635 1.491 1_655 S
C1641 C1640 1.400 . S
C1641 C1642 1.398 . S
C1642 H1630 0.950 . S
C1642 C1641 1.398 . S
C1642 C1643 1.391 . S
C1643 H1631 0.950 . S
C1643 C1639 1.393 . S
C1643 C1642 1.391 . S
H1644 C1652 0.950 . S
H1645 C1657 0.950 . S
H1646 C1654 0.950 . S
H1647 C1656 0.950 . S
H1648 C1658 0.950 . S
H1649 C1660 0.950 . S
H1650 C1662 0.950 . S
H1651 C1663 0.950 . S
C1652 H1644 0.950 . S
C1652 C1653 1.386 1_556 S
C1652 C1654 1.391 . S
C1653 C1652 1.386 1_554 S
C1653 C1657 1.393 . S
C1654 H1646 0.950 . S
C1654 C1652 1.391 . S
C1654 C1655 1.400 1_556 S
C1655 C1654 1.400 1_554 S
C1655 C1656 1.398 . S
C1655 C1661 1.491 1_554 S
C1656 H1647 0.950 . S
C1656 C1655 1.398 . S
C1656 C1657 1.391 . S
C1657 H1645 0.950 . S
C1657 C1653 1.393 . S
C1657 C1656 1.391 . S
C1658 H1648 0.950 . S
C1658 C1659 1.386 1_554 S
C1658 C1660 1.391 . S
C1659 C1658 1.386 1_556 S
C1659 C1663 1.393 . S
C1660 H1649 0.950 . S
C1660 C1658 1.391 . S
C1660 C1661 1.400 1_554 S
C1661 C1655 1.491 1_556 S
C1661 C1660 1.400 1_556 S
C1661 C1662 1.398 . S
C1662 H1650 0.950 . S
C1662 C1661 1.398 . S
C1662 C1663 1.391 . S
C1663 H1651 0.950 . S
C1663 C1659 1.393 . S
C1663 C1662 1.391 . S
H1664 C1672 0.950 . S
H1665 C1677 0.950 . S
H1666 C1674 0.950 . S
H1667 C1676 0.950 . S
H1668 C1678 0.950 . S
H1669 C1680 0.950 . S
H1670 C1682 0.950 . S
H1671 C1683 0.950 . S
C1672 H1664 0.950 . S
C1672 C1673 1.386 . S
C1672 C1674 1.391 . S
C1673 C1672 1.386 . S
C1673 C1677 1.393 . S
C1674 H1666 0.950 . S
C1674 C1672 1.391 . S
C1674 C1675 1.400 . S
C1675 C1674 1.400 . S
C1675 C1676 1.398 . S
C1675 C1681 1.491 . S
C1676 H1667 0.950 . S
C1676 C1675 1.398 . S
C1676 C1677 1.391 . S
C1677 H1665 0.950 . S
C1677 C1673 1.393 . S
C1677 C1676 1.391 . S
C1678 H1668 0.950 . S
C1678 C1679 1.386 . S
C1678 C1680 1.391 . S
C1679 C1678 1.386 . S
C1679 C1683 1.393 . S
C1680 H1669 0.950 . S
C1680 C1678 1.391 . S
C1680 C1681 1.400 . S
C1681 C1675 1.491 . S
C1681 C1680 1.400 . S
C1681 C1682 1.398 . S
C1682 H1670 0.950 . S
C1682 C1681 1.398 . S
C1682 C1683 1.391 . S
C1683 H1671 0.950 . S
C1683 C1679 1.393 . S
C1683 C1682 1.391 . S
H1684 C1692 0.950 . S
H1685 C1697 0.950 . S
H1686 C1694 0.950 . S
H1687 C1696 0.950 . S
H1688 C1698 0.950 . S
H1689 C1700 0.950 . S
H1690 C1702 0.950 . S
H1691 C1703 0.950 . S
C1692 H1684 0.950 . S
C1692 C1693 1.386 . S
C1692 C1694 1.391 . S
C1693 C1692 1.386 . S
C1693 C1697 1.393 . S
C1694 H1686 0.950 . S
C1694 C1692 1.391 . S
C1694 C1695 1.400 . S
C1695 C1694 1.400 . S
C1695 C1696 1.398 . S
C1695 C1701 1.491 . S
C1696 H1687 0.950 . S
C1696 C1695 1.398 . S
C1696 C1697 1.391 . S
C1697 H1685 0.950 . S
C1697 C1693 1.393 . S
C1697 C1696 1.391 . S
C1698 H1688 0.950 . S
C1698 C1699 1.386 . S
C1698 C1700 1.391 . S
C1699 C1698 1.386 . S
C1699 C1703 1.393 . S
C1700 H1689 0.950 . S
C1700 C1698 1.391 . S
C1700 C1701 1.400 . S
C1701 C1695 1.491 . S
C1701 C1700 1.400 . S
C1701 C1702 1.398 . S
C1702 H1690 0.950 . S
C1702 C1701 1.398 . S
C1702 C1703 1.391 . S
C1703 H1691 0.950 . S
C1703 C1699 1.393 . S
C1703 C1702 1.391 . S
H1704 C1712 0.950 . S
H1705 C1717 0.950 . S
H1706 C1714 0.950 . S
H1707 C1716 0.950 . S
H1708 C1718 0.950 . S
H1709 C1720 0.950 . S
H1710 C1722 0.950 . S
H1711 C1723 0.950 . S
C1712 H1704 0.950 . S
C1712 C1713 1.386 . S
C1712 C1714 1.391 . S
C1713 C1712 1.386 . S
C1713 C1717 1.393 . S
C1714 H1706 0.950 . S
C1714 C1712 1.391 . S
C1714 C1715 1.400 . S
C1715 C1714 1.400 . S
C1715 C1716 1.398 . S
C1715 C1721 1.491 . S
C1716 H1707 0.950 . S
C1716 C1715 1.398 . S
C1716 C1717 1.391 . S
C1717 H1705 0.950 . S
C1717 C1713 1.393 . S
C1717 C1716 1.391 . S
C1718 H1708 0.950 . S
C1718 C1719 1.386 . S
C1718 C1720 1.391 . S
C1719 C1718 1.386 . S
C1719 C1723 1.393 . S
C1720 H1709 0.950 . S
C1720 C1718 1.391 . S
C1720 C1721 1.400 . S
C1721 C1715 1.491 . S
C1721 C1720 1.400 . S
C1721 C1722 1.398 . S
C1722 H1710 0.950 . S
C1722 C1721 1.398 . S
C1722 C1723 1.391 . S
C1723 H1711 0.950 . S
C1723 C1719 1.393 . S
C1723 C1722 1.391 . S
H1724 C1732 0.950 . S
H1725 C1737 0.950 . S
H1726 C1734 0.950 . S
H1727 C1736 0.950 . S
H1728 C1738 0.950 . S
H1729 C1740 0.950 . S
H1730 C1742 0.950 . S
H1731 C1743 0.950 . S
C1732 H1724 0.950 . S
C1732 C1733 1.386 . S
C1732 C1734 1.391 . S
C1733 C1732 1.386 . S
C1733 C1737 1.393 . S
C1734 H1726 0.950 . S
C1734 C1732 1.391 . S
C1734 C1735 1.400 . S
C1735 C1734 1.400 . S
C1735 C1736 1.398 . S
C1735 C1741 1.491 . S
C1736 H1727 0.950 . S
C1736 C1735 1.398 . S
C1736 C1737 1.391 . S
C1737 H1725 0.950 . S
C1737 C1733 1.393 . S
C1737 C1736 1.391 . S
C1738 H1728 0.950 . S
C1738 C1739 1.386 . S
C1738 C1740 1.391 . S
C1739 C1738 1.386 . S
C1739 C1743 1.393 . S
C1740 H1729 0.950 . S
C1740 C1738 1.391 . S
C1740 C1741 1.400 . S
C1741 C1735 1.491 . S
C1741 C1740 1.400 . S
C1741 C1742 1.398 . S
C1742 H1730 0.950 . S
C1742 C1741 1.398 . S
C1742 C1743 1.391 . S
C1743 H1731 0.950 . S
C1743 C1739 1.393 . S
C1743 C1742 1.391 . S
H1744 C1752 0.950 . S
H1745 C1757 0.950 . S
H1746 C1754 0.950 . S
H1747 C1756 0.950 . S
H1748 C1758 0.950 . S
H1749 C1760 0.950 . S
H1750 C1762 0.950 . S
H1751 C1763 0.950 . S
C1752 H1744 0.950 . S
C1752 C1753 1.386 . S
C1752 C1754 1.391 . S
C1753 C1752 1.386 . S
C1753 C1757 1.393 . S
C1754 H1746 0.950 . S
C1754 C1752 1.391 . S
C1754 C1755 1.400 . S
C1755 C1754 1.400 . S
C1755 C1756 1.398 . S
C1755 C1761 1.491 . S
C1756 H1747 0.950 . S
C1756 C1755 1.398 . S
C1756 C1757 1.391 . S
C1757 H1745 0.950 . S
C1757 C1753 1.393 . S
C1757 C1756 1.391 . S
C1758 H1748 0.950 . S
C1758 C1759 1.386 . S
C1758 C1760 1.391 . S
C1759 C1758 1.386 . S
C1759 C1763 1.393 . S
C1760 H1749 0.950 . S
C1760 C1758 1.391 . S
C1760 C1761 1.400 . S
C1761 C1755 1.491 . S
C1761 C1760 1.400 . S
C1761 C1762 1.398 . S
C1762 H1750 0.950 . S
C1762 C1761 1.398 . S
C1762 C1763 1.391 . S
C1763 H1751 0.950 . S
C1763 C1759 1.393 . S
C1763 C1762 1.391 . S
H1764 C1772 0.950 . S
H1765 C1777 0.950 . S
H1766 C1774 0.950 . S
H1767 C1776 0.950 . S
H1768 C1778 0.950 . S
H1769 C1780 0.950 . S
H1770 C1782 0.950 . S
H1771 C1783 0.950 . S
C1772 H1764 0.950 . S
C1772 C1773 1.386 . S
C1772 C1774 1.391 . S
C1773 C1772 1.386 . S
C1773 C1777 1.393 . S
C1774 H1766 0.950 . S
C1774 C1772 1.391 . S
C1774 C1775 1.400 . S
C1775 C1774 1.400 . S
C1775 C1776 1.398 . S
C1775 C1781 1.491 . S
C1776 H1767 0.950 . S
C1776 C1775 1.398 . S
C1776 C1777 1.391 . S
C1777 H1765 0.950 . S
C1777 C1773 1.393 . S
C1777 C1776 1.391 . S
C1778 H1768 0.950 . S
C1778 C1779 1.386 . S
C1778 C1780 1.391 . S
C1779 C1778 1.386 . S
C1779 C1783 1.393 . S
C1780 H1769 0.950 . S
C1780 C1778 1.391 . S
C1780 C1781 1.400 . S
C1781 C1775 1.491 . S
C1781 C1780 1.400 . S
C1781 C1782 1.398 . S
C1782 H1770 0.950 . S
C1782 C1781 1.398 . S
C1782 C1783 1.391 . S
C1783 H1771 0.950 . S
C1783 C1779 1.393 . S
C1783 C1782 1.391 . S
H1784 C1792 0.950 . S
H1785 C1797 0.950 . S
H1786 C1794 0.950 . S
H1787 C1796 0.950 . S
H1788 C1798 0.950 . S
H1789 C1800 0.950 . S
H1790 C1802 0.950 . S
H1791 C1803 0.950 . S
C1792 H1784 0.950 . S
C1792 C1793 1.386 . S
C1792 C1794 1.391 . S
C1793 C1792 1.386 . S
C1793 C1797 1.393 . S
C1794 H1786 0.950 . S
C1794 C1792 1.391 . S
C1794 C1795 1.400 . S
C1795 C1794 1.400 . S
C1795 C1796 1.398 . S
C1795 C1801 1.491 . S
C1796 H1787 0.950 . S
C1796 C1795 1.398 . S
C1796 C1797 1.391 . S
C1797 H1785 0.950 . S
C1797 C1793 1.393 . S
C1797 C1796 1.391 . S
C1798 H1788 0.950 . S
C1798 C1799 1.386 . S
C1798 C1800 1.391 . S
C1799 C1798 1.386 . S
C1799 C1803 1.393 . S
C1800 H1789 0.950 . S
C1800 C1798 1.391 . S
C1800 C1801 1.400 . S
C1801 C1795 1.491 . S
C1801 C1800 1.400 . S
C1801 C1802 1.398 . S
C1802 H1790 0.950 . S
C1802 C1801 1.398 . S
C1802 C1803 1.391 . S
C1803 H1791 0.950 . S
C1803 C1799 1.393 . S
C1803 C1802 1.391 . S
H1804 C1812 0.950 . S
H1805 C1817 0.950 . S
H1806 C1814 0.950 . S
H1807 C1816 0.950 . S
H1808 C1818 0.950 . S
H1809 C1820 0.950 . S
H1810 C1822 0.950 . S
H1811 C1823 0.950 . S
C1812 H1804 0.950 . S
C1812 C1813 1.386 . S
C1812 C1814 1.391 . S
C1813 C1812 1.386 . S
C1813 C1817 1.393 . S
C1814 H1806 0.950 . S
C1814 C1812 1.391 . S
C1814 C1815 1.400 . S
C1815 C1814 1.400 . S
C1815 C1816 1.398 . S
C1815 C1821 1.491 . S
C1816 H1807 0.950 . S
C1816 C1815 1.398 . S
C1816 C1817 1.391 . S
C1817 H1805 0.950 . S
C1817 C1813 1.393 . S
C1817 C1816 1.391 . S
C1818 H1808 0.950 . S
C1818 C1819 1.386 . S
C1818 C1820 1.391 . S
C1819 C1818 1.386 . S
C1819 C1823 1.393 . S
C1820 H1809 0.950 . S
C1820 C1818 1.391 . S
C1820 C1821 1.400 . S
C1821 C1815 1.491 . S
C1821 C1820 1.400 . S
C1821 C1822 1.398 . S
C1822 H1810 0.950 . S
C1822 C1821 1.398 . S
C1822 C1823 1.391 . S
C1823 H1811 0.950 . S
C1823 C1819 1.393 . S
C1823 C1822 1.391 . S
H1824 C1832 0.950 . S
H1825 C1837 0.950 . S
H1826 C1834 0.950 . S
H1827 C1836 0.950 . S
H1828 C1838 0.950 . S
H1829 C1840 0.950 . S
H1830 C1842 0.950 . S
H1831 C1843 0.950 . S
C1832 H1824 0.950 . S
C1832 C1833 1.386 . S
C1832 C1834 1.391 . S
C1833 C1832 1.386 . S
C1833 C1837 1.393 . S
C1834 H1826 0.950 . S
C1834 C1832 1.391 . S
C1834 C1835 1.400 . S
C1835 C1834 1.400 . S
C1835 C1836 1.398 . S
C1835 C1841 1.491 . S
C1836 H1827 0.950 . S
C1836 C1835 1.398 . S
C1836 C1837 1.391 . S
C1837 H1825 0.950 . S
C1837 C1833 1.393 . S
C1837 C1836 1.391 . S
C1838 H1828 0.950 . S
C1838 C1839 1.386 . S
C1838 C1840 1.391 . S
C1839 C1838 1.386 . S
C1839 C1843 1.393 . S
C1840 H1829 0.950 . S
C1840 C1838 1.391 . S
C1840 C1841 1.400 . S
C1841 C1835 1.491 . S
C1841 C1840 1.400 . S
C1841 C1842 1.398 . S
C1842 H1830 0.950 . S
C1842 C1841 1.398 . S
C1842 C1843 1.391 . S
C1843 H1831 0.950 . S
C1843 C1839 1.393 . S
C1843 C1842 1.391 . S
H1844 C1852 0.950 . S
H1845 C1857 0.950 . S
H1846 C1854 0.950 . S
H1847 C1856 0.950 . S
H1848 C1858 0.950 . S
H1849 C1860 0.950 . S
H1850 C1862 0.950 . S
H1851 C1863 0.950 . S
C1852 H1844 0.950 . S
C1852 C1853 1.386 . S
C1852 C1854 1.391 . S
C1853 C1852 1.386 . S
C1853 C1857 1.393 . S
C1854 H1846 0.950 . S
C1854 C1852 1.391 . S
C1854 C1855 1.400 . S
C1855 C1854 1.400 . S
C1855 C1856 1.398 . S
C1855 C1861 1.491 . S
C1856 H1847 0.950 . S
C1856 C1855 1.398 . S
C1856 C1857 1.391 . S
C1857 H1845 0.950 . S
C1857 C1853 1.393 . S
C1857 C1856 1.391 . S
C1858 H1848 0.950 . S
C1858 C1859 1.386 . S
C1858 C1860 1.391 . S
C1859 C1858 1.386 . S
C1859 C1863 1.393 . S
C1860 H1849 0.950 . S
C1860 C1858 1.391 . S
C1860 C1861 1.400 . S
C1861 C1855 1.491 . S
C1861 C1860 1.400 . S
C1861 C1862 1.398 . S
C1862 H1850 0.950 . S
C1862 C1861 1.398 . S
C1862 C1863 1.391 . S
C1863 H1851 0.950 . S
C1863 C1859 1.393 . S
C1863 C1862 1.391 . S
H1864 C1872 0.950 . S
H1865 C1877 0.950 . S
H1866 C1874 0.950 . S
H1867 C1876 0.950 . S
H1868 C1878 0.950 . S
H1869 C1880 0.950 . S
H1870 C1882 0.950 . S
H1871 C1883 0.950 . S
C1872 H1864 0.950 . S
C1872 C1873 1.386 . S
C1872 C1874 1.391 . S
C1873 C1872 1.386 . S
C1873 C1877 1.393 . S
C1874 H1866 0.950 . S
C1874 C1872 1.391 . S
C1874 C1875 1.400 . S
C1875 C1874 1.400 . S
C1875 C1876 1.398 . S
C1875 C1881 1.491 . S
C1876 H1867 0.950 . S
C1876 C1875 1.398 . S
C1876 C1877 1.391 . S
C1877 H1865 0.950 . S
C1877 C1873 1.393 . S
C1877 C1876 1.391 . S
C1878 H1868 0.950 . S
C1878 C1879 1.386 . S
C1878 C1880 1.391 . S
C1879 C1878 1.386 . S
C1879 C1883 1.393 . S
C1880 H1869 0.950 . S
C1880 C1878 1.391 . S
C1880 C1881 1.400 . S
C1881 C1875 1.491 . S
C1881 C1880 1.400 . S
C1881 C1882 1.398 . S
C1882 H1870 0.950 . S
C1882 C1881 1.398 . S
C1882 C1883 1.391 . S
C1883 H1871 0.950 . S
C1883 C1879 1.393 . S
C1883 C1882 1.391 . S
H1884 C1892 0.950 . S
H1885 C1897 0.950 . S
H1886 C1894 0.950 . S
H1887 C1896 0.950 . S
H1888 C1898 0.950 . S
H1889 C1900 0.950 . S
H1890 C1902 0.950 . S
H1891 C1903 0.950 . S
C1892 H1884 0.950 . S
C1892 C1893 1.386 . S
C1892 C1894 1.391 . S
C1893 C1892 1.386 . S
C1893 C1897 1.393 . S
C1894 H1886 0.950 . S
C1894 C1892 1.391 . S
C1894 C1895 1.400 . S
C1895 C1894 1.400 . S
C1895 C1896 1.398 . S
C1895 C1901 1.491 . S
C1896 H1887 0.950 . S
C1896 C1895 1.398 . S
C1896 C1897 1.391 . S
C1897 H1885 0.950 . S
C1897 C1893 1.393 . S
C1897 C1896 1.391 . S
C1898 H1888 0.950 . S
C1898 C1899 1.386 . S
C1898 C1900 1.391 . S
C1899 C1898 1.386 . S
C1899 C1903 1.393 . S
C1900 H1889 0.950 . S
C1900 C1898 1.391 . S
C1900 C1901 1.400 . S
C1901 C1895 1.491 . S
C1901 C1900 1.400 . S
C1901 C1902 1.398 . S
C1902 H1890 0.950 . S
C1902 C1901 1.398 . S
C1902 C1903 1.391 . S
C1903 H1891 0.950 . S
C1903 C1899 1.393 . S
C1903 C1902 1.391 . S
H1904 C1912 0.950 . S
H1905 C1917 0.950 . S
H1906 C1914 0.950 . S
H1907 C1916 0.950 . S
H1908 C1918 0.950 . S
H1909 C1920 0.950 . S
H1910 C1922 0.950 . S
H1911 C1923 0.950 . S
C1912 H1904 0.950 . S
C1912 C1913 1.386 . S
C1912 C1914 1.391 . S
C1913 C1912 1.386 . S
C1913 C1917 1.393 . S
C1914 H1906 0.950 . S
C1914 C1912 1.391 . S
C1914 C1915 1.400 . S
C1915 C1914 1.400 . S
C1915 C1916 1.398 . S
C1915 C1921 1.491 . S
C1916 H1907 0.950 . S
C1916 C1915 1.398 . S
C1916 C1917 1.391 . S
C1917 H1905 0.950 . S
C1917 C1913 1.393 . S
C1917 C1916 1.391 . S
C1918 H1908 0.950 . S
C1918 C1919 1.386 . S
C1918 C1920 1.391 . S
C1919 C1918 1.386 . S
C1919 C1923 1.393 . S
C1920 H1909 0.950 . S
C1920 C1918 1.391 . S
C1920 C1921 1.400 . S
C1921 C1915 1.491 . S
C1921 C1920 1.400 . S
C1921 C1922 1.398 . S
C1922 H1910 0.950 . S
C1922 C1921 1.398 . S
C1922 C1923 1.391 . S
C1923 H1911 0.950 . S
C1923 C1919 1.393 . S
C1923 C1922 1.391 . S
H1924 C1932 0.950 . S
H1925 C1937 0.950 . S
H1926 C1934 0.950 . S
H1927 C1936 0.950 . S
H1928 C1938 0.950 . S
H1929 C1940 0.950 . S
H1930 C1942 0.950 . S
H1931 C1943 0.950 . S
C1932 H1924 0.950 . S
C1932 C1933 1.386 . S
C1932 C1934 1.391 . S
C1933 C1932 1.386 . S
C1933 C1937 1.393 . S
C1934 H1926 0.950 . S
C1934 C1932 1.391 . S
C1934 C1935 1.400 . S
C1935 C1934 1.400 . S
C1935 C1936 1.398 . S
C1935 C1941 1.491 . S
C1936 H1927 0.950 . S
C1936 C1935 1.398 . S
C1936 C1937 1.391 . S
C1937 H1925 0.950 . S
C1937 C1933 1.393 . S
C1937 C1936 1.391 . S
C1938 H1928 0.950 . S
C1938 C1939 1.386 . S
C1938 C1940 1.391 . S
C1939 C1938 1.386 . S
C1939 C1943 1.393 . S
C1940 H1929 0.950 . S
C1940 C1938 1.391 . S
C1940 C1941 1.400 . S
C1941 C1935 1.491 . S
C1941 C1940 1.400 . S
C1941 C1942 1.398 . S
C1942 H1930 0.950 . S
C1942 C1941 1.398 . S
C1942 C1943 1.391 . S
C1943 H1931 0.950 . S
C1943 C1939 1.393 . S
C1943 C1942 1.391 . S
H1944 C1952 0.950 . S
H1945 C1957 0.950 . S
H1946 C1954 0.950 . S
H1947 C1956 0.950 . S
H1948 C1958 0.950 . S
H1949 C1960 0.950 . S
H1950 C1962 0.950 . S
H1951 C1963 0.950 . S
C1952 H1944 0.950 . S
C1952 C1953 1.386 . S
C1952 C1954 1.391 . S
C1953 C1952 1.386 . S
C1953 C1957 1.393 . S
C1954 H1946 0.950 . S
C1954 C1952 1.391 . S
C1954 C1955 1.400 . S
C1955 C1954 1.400 . S
C1955 C1956 1.398 . S
C1955 C1961 1.491 . S
C1956 H1947 0.950 . S
C1956 C1955 1.398 . S
C1956 C1957 1.391 . S
C1957 H1945 0.950 . S
C1957 C1953 1.393 . S
C1957 C1956 1.391 . S
C1958 H1948 0.950 . S
C1958 C1959 1.386 . S
C1958 C1960 1.391 . S
C1959 C1958 1.386 . S
C1959 C1963 1.393 . S
C1960 H1949 0.950 . S
C1960 C1958 1.391 . S
C1960 C1961 1.400 . S
C1961 C1955 1.491 . S
C1961 C1960 1.400 . S
C1961 C1962 1.398 . S
C1962 H1950 0.950 . S
C1962 C1961 1.398 . S
C1962 C1963 1.391 . S
C1963 H1951 0.950 . S
C1963 C1959 1.393 . S
C1963 C1962 1.391 . S
H1964 C1972 0.950 . S
H1965 C1977 0.950 . S
H1966 C1974 0.950 . S
H1967 C1976 0.950 . S
H1968 C1978 0.950 . S
H1969 C1980 0.950 . S
H1970 C1982 0.950 . S
H1971 C1983 0.950 . S
C1972 H1964 0.950 . S
C1972 C1973 1.386 . S
C1972 C1974 1.391 . S
C1973 C1972 1.386 . S
C1973 C1977 1.393 . S
C1974 H1966 0.950 . S
C1974 C1972 1.391 . S
C1974 C1975 1.400 . S
C1975 C1974 1.400 . S
C1975 C1976 1.398 . S
C1975 C1981 1.491 . S
C1976 H1967 0.950 . S
C1976 C1975 1.398 . S
C1976 C1977 1.391 . S
C1977 H1965 0.950 . S
C1977 C1973 1.393 . S
C1977 C1976 1.391 . S
C1978 H1968 0.950 . S
C1978 C1979 1.386 . S
C1978 C1980 1.391 . S
C1979 C1978 1.386 . S
C1979 C1983 1.393 . S
C1980 H1969 0.950 . S
C1980 C1978 1.391 . S
C1980 C1981 1.400 . S
C1981 C1975 1.491 . S
C1981 C1980 1.400 . S
C1981 C1982 1.398 . S
C1982 H1970 0.950 . S
C1982 C1981 1.398 . S
C1982 C1983 1.391 . S
C1983 H1971 0.950 . S
C1983 C1979 1.393 . S
C1983 C1982 1.391 . S
H1984 C1992 0.950 . S
H1985 C1997 0.950 . S
H1986 C1994 0.950 . S
H1987 C1996 0.950 . S
H1988 C1998 0.950 . S
H1989 C2000 0.950 . S
H1990 C2002 0.950 . S
H1991 C2003 0.950 . S
C1992 H1984 0.950 . S
C1992 C1993 1.386 . S
C1992 C1994 1.391 . S
C1993 C1992 1.386 . S
C1993 C1997 1.393 . S
C1994 H1986 0.950 . S
C1994 C1992 1.391 . S
C1994 C1995 1.400 . S
C1995 C1994 1.400 . S
C1995 C1996 1.398 . S
C1995 C2001 1.491 . S
C1996 H1987 0.950 . S
C1996 C1995 1.398 . S
C1996 C1997 1.391 . S
C1997 H1985 0.950 . S
C1997 C1993 1.393 . S
C1997 C1996 1.391 . S
C1998 H1988 0.950 . S
C1998 C1999 1.386 . S
C1998 C2000 1.391 . S
C1999 C1998 1.386 . S
C1999 C2003 1.393 . S
C2000 H1989 0.950 . S
C2000 C1998 1.391 . S
C2000 C2001 1.400 . S
C2001 C1995 1.491 . S
C2001 C2000 1.400 . S
C2001 C2002 1.398 . S
C2002 H1990 0.950 . S
C2002 C2001 1.398 . S
C2002 C2003 1.391 . S
C2003 H1991 0.950 . S
C2003 C1999 1.393 . S
C2003 C2002 1.391 . S
H2004 C2012 0.950 . S
H2005 C2017 0.950 . S
H2006 C2014 0.950 . S
H2007 C2016 0.950 . S
H2008 C2018 0.950 . S
H2009 C2020 0.950 . S
H2010 C2022 0.950 . S
H2011 C2023 0.950 . S
C2012 H2004 0.950 . S
C2012 C2013 1.386 . S
C2012 C2014 1.391 . S
C2013 C2012 1.386 . S
C2013 C2017 1.393 . S
C2014 H2006 0.950 . S
C2014 C2012 1.391 . S
C2014 C2015 1.400 . S
C2015 C2014 1.400 . S
C2015 C2016 1.398 . S
C2015 C2021 1.491 . S
C2016 H2007 0.950 . S
C2016 C2015 1.398 . S
C2016 C2017 1.391 . S
C2017 H2005 0.950 . S
C2017 C2013 1.393 . S
C2017 C2016 1.391 . S
C2018 H2008 0.950 . S
C2018 C2019 1.386 . S
C2018 C2020 1.391 . S
C2019 C2018 1.386 . S
C2019 C2023 1.393 . S
C2020 H2009 0.950 . S
C2020 C2018 1.391 . S
C2020 C2021 1.400 . S
C2021 C2015 1.491 . S
C2021 C2020 1.400 . S
C2021 C2022 1.398 . S
C2022 H2010 0.950 . S
C2022 C2021 1.398 . S
C2022 C2023 1.391 . S
C2023 H2011 0.950 . S
C2023 C2019 1.393 . S
C2023 C2022 1.391 . S
H2024 C2032 0.950 . S
H2025 C2037 0.950 . S
H2026 C2034 0.950 . S
H2027 C2036 0.950 . S
H2028 C2038 0.950 . S
H2029 C2040 0.950 . S
H2030 C2042 0.950 . S
H2031 C2043 0.950 . S
C2032 H2024 0.950 . S
C2032 C2033 1.386 . S
C2032 C2034 1.391 . S
C2033 C2032 1.386 . S
C2033 C2037 1.393 . S
C2034 H2026 0.950 . S
C2034 C2032 1.391 . S
C2034 C2035 1.400 . S
C2035 C2034 1.400 . S
C2035 C2036 1.398 . S
C2035 C2041 1.491 . S
C2036 H2027 0.950 . S
C2036 C2035 1.398 . S
C2036 C2037 1.391 . S
C2037 H2025 0.950 . S
C2037 C2033 1.393 . S
C2037 C2036 1.391 . S
C2038 H2028 0.950 . S
C2038 C2039 1.386 . S
C2038 C2040 1.391 . S
C2039 C2038 1.386 . S
C2039 C2043 1.393 . S
C2040 H2029 0.950 . S
C2040 C2038 1.391 . S
C2040 C2041 1.400 . S
C2041 C2035 1.491 . S
C2041 C2040 1.400 . S
C2041 C2042 1.398 . S
C2042 H2030 0.950 . S
C2042 C2041 1.398 . S
C2042 C2043 1.391 . S
C2043 H2031 0.950 . S
C2043 C2039 1.393 . S
C2043 C2042 1.391 . S
H2044 C2052 0.950 . S
H2045 C2057 0.950 . S
H2046 C2054 0.950 . S
H2047 C2056 0.950 . S
H2048 C2058 0.950 . S
H2049 C2060 0.950 . S
H2050 C2062 0.950 . S
H2051 C2063 0.950 . S
C2052 H2044 0.950 . S
C2052 C2053 1.386 . S
C2052 C2054 1.391 . S
C2053 C2052 1.386 . S
C2053 C2057 1.393 . S
C2054 H2046 0.950 . S
C2054 C2052 1.391 . S
C2054 C2055 1.400 . S
C2055 C2054 1.400 . S
C2055 C2056 1.398 . S
C2055 C2061 1.491 . S
C2056 H2047 0.950 . S
C2056 C2055 1.398 . S
C2056 C2057 1.391 . S
C2057 H2045 0.950 . S
C2057 C2053 1.393 . S
C2057 C2056 1.391 . S
C2058 H2048 0.950 . S
C2058 C2059 1.386 . S
C2058 C2060 1.391 . S
C2059 C2058 1.386 . S
C2059 C2063 1.393 . S
C2060 H2049 0.950 . S
C2060 C2058 1.391 . S
C2060 C2061 1.400 . S
C2061 C2055 1.491 . S
C2061 C2060 1.400 . S
C2061 C2062 1.398 . S
C2062 H2050 0.950 . S
C2062 C2061 1.398 . S
C2062 C2063 1.391 . S
C2063 H2051 0.950 . S
C2063 C2059 1.393 . S
C2063 C2062 1.391 . S
H2064 C2072 0.950 . S
H2065 C2077 0.950 . S
H2066 C2074 0.950 . S
H2067 C2076 0.950 . S
H2068 C2078 0.950 . S
H2069 C2080 0.950 . S
H2070 C2082 0.950 . S
H2071 C2083 0.950 . S
C2072 H2064 0.950 . S
C2072 C2073 1.386 . S
C2072 C2074 1.391 . S
C2073 C2072 1.386 . S
C2073 C2077 1.393 . S
C2074 H2066 0.950 . S
C2074 C2072 1.391 . S
C2074 C2075 1.400 . S
C2075 C2074 1.400 . S
C2075 C2076 1.398 . S
C2075 C2081 1.491 . S
C2076 H2067 0.950 . S
C2076 C2075 1.398 . S
C2076 C2077 1.391 . S
C2077 H2065 0.950 . S
C2077 C2073 1.393 . S
C2077 C2076 1.391 . S
C2078 H2068 0.950 . S
C2078 C2079 1.386 . S
C2078 C2080 1.391 . S
C2079 C2078 1.386 . S
C2079 C2083 1.393 . S
C2080 H2069 0.950 . S
C2080 C2078 1.391 . S
C2080 C2081 1.400 . S
C2081 C2075 1.491 . S
C2081 C2080 1.400 . S
C2081 C2082 1.398 . S
C2082 H2070 0.950 . S
C2082 C2081 1.398 . S
C2082 C2083 1.391 . S
C2083 H2071 0.950 . S
C2083 C2079 1.393 . S
C2083 C2082 1.391 . S
H2084 C2092 0.950 . S
H2085 C2097 0.950 . S
H2086 C2094 0.950 . S
H2087 C2096 0.950 . S
H2088 C2098 0.950 . S
H2089 C2100 0.950 . S
H2090 C2102 0.950 . S
H2091 C2103 0.950 . S
C2092 H2084 0.950 . S
C2092 C2093 1.386 . S
C2092 C2094 1.391 . S
C2093 C2092 1.386 . S
C2093 C2097 1.393 . S
C2094 H2086 0.950 . S
C2094 C2092 1.391 . S
C2094 C2095 1.400 . S
C2095 C2094 1.400 . S
C2095 C2096 1.398 . S
C2095 C2101 1.491 . S
C2096 H2087 0.950 . S
C2096 C2095 1.398 . S
C2096 C2097 1.391 . S
C2097 H2085 0.950 . S
C2097 C2093 1.393 . S
C2097 C2096 1.391 . S
C2098 H2088 0.950 . S
C2098 C2099 1.386 . S
C2098 C2100 1.391 . S
C2099 C2098 1.386 . S
C2099 C2103 1.393 . S
C2100 H2089 0.950 . S
C2100 C2098 1.391 . S
C2100 C2101 1.400 . S
C2101 C2095 1.491 . S
C2101 C2100 1.400 . S
C2101 C2102 1.398 . S
C2102 H2090 0.950 . S
C2102 C2101 1.398 . S
C2102 C2103 1.391 . S
C2103 H2091 0.950 . S
C2103 C2099 1.393 . S
C2103 C2102 1.391 . S
H2104 C2112 0.950 . S
H2105 C2117 0.950 . S
H2106 C2114 0.950 . S
H2107 C2116 0.950 . S
H2108 C2118 0.950 . S
H2109 C2120 0.950 . S
H2110 C2122 0.950 . S
H2111 C2123 0.950 . S
C2112 H2104 0.950 . S
C2112 C2113 1.386 . S
C2112 C2114 1.391 . S
C2113 C2112 1.386 . S
C2113 C2117 1.393 . S
C2114 H2106 0.950 . S
C2114 C2112 1.391 . S
C2114 C2115 1.400 . S
C2115 C2114 1.400 . S
C2115 C2116 1.398 . S
C2115 C2121 1.491 . S
C2116 H2107 0.950 . S
C2116 C2115 1.398 . S
C2116 C2117 1.391 . S
C2117 H2105 0.950 . S
C2117 C2113 1.393 . S
C2117 C2116 1.391 . S
C2118 H2108 0.950 . S
C2118 C2119 1.386 . S
C2118 C2120 1.391 . S
C2119 C2118 1.386 . S
C2119 C2123 1.393 . S
C2120 H2109 0.950 . S
C2120 C2118 1.391 . S
C2120 C2121 1.400 . S
C2121 C2115 1.491 . S
C2121 C2120 1.400 . S
C2121 C2122 1.398 . S
C2122 H2110 0.950 . S
C2122 C2121 1.398 . S
C2122 C2123 1.391 . S
C2123 H2111 0.950 . S
C2123 C2119 1.393 . S
C2123 C2122 1.391 . S
H2124 C2132 0.950 . S
H2125 C2137 0.950 . S
H2126 C2134 0.950 . S
H2127 C2136 0.950 . S
H2128 C2138 0.950 . S
H2129 C2140 0.950 . S
H2130 C2142 0.950 . S
H2131 C2143 0.950 . S
C2132 H2124 0.950 . S
C2132 C2133 1.386 . S
C2132 C2134 1.391 . S
C2133 C2132 1.386 . S
C2133 C2137 1.393 . S
C2134 H2126 0.950 . S
C2134 C2132 1.391 . S
C2134 C2135 1.400 . S
C2135 C2134 1.400 . S
C2135 C2136 1.398 . S
C2135 C2141 1.491 . S
C2136 H2127 0.950 . S
C2136 C2135 1.398 . S
C2136 C2137 1.391 . S
C2137 H2125 0.950 . S
C2137 C2133 1.393 . S
C2137 C2136 1.391 . S
C2138 H2128 0.950 . S
C2138 C2139 1.386 . S
C2138 C2140 1.391 . S
C2139 C2138 1.386 . S
C2139 C2143 1.393 . S
C2140 H2129 0.950 . S
C2140 C2138 1.391 . S
C2140 C2141 1.400 . S
C2141 C2135 1.491 . S
C2141 C2140 1.400 . S
C2141 C2142 1.398 . S
C2142 H2130 0.950 . S
C2142 C2141 1.398 . S
C2142 C2143 1.391 . S
C2143 H2131 0.950 . S
C2143 C2139 1.393 . S
C2143 C2142 1.391 . S
H2144 C2152 0.950 . S
H2145 C2157 0.950 . S
H2146 C2154 0.950 . S
H2147 C2156 0.950 . S
H2148 C2158 0.950 . S
H2149 C2160 0.950 . S
H2150 C2162 0.950 . S
H2151 C2163 0.950 . S
C2152 H2144 0.950 . S
C2152 C2153 1.386 . S
C2152 C2154 1.391 . S
C2153 C2152 1.386 . S
C2153 C2157 1.393 . S
C2154 H2146 0.950 . S
C2154 C2152 1.391 . S
C2154 C2155 1.400 . S
C2155 C2154 1.400 . S
C2155 C2156 1.398 . S
C2155 C2161 1.491 . S
C2156 H2147 0.950 . S
C2156 C2155 1.398 . S
C2156 C2157 1.391 . S
C2157 H2145 0.950 . S
C2157 C2153 1.393 . S
C2157 C2156 1.391 . S
C2158 H2148 0.950 . S
C2158 C2159 1.386 . S
C2158 C2160 1.391 . S
C2159 C2158 1.386 . S
C2159 C2163 1.393 . S
C2160 H2149 0.950 . S
C2160 C2158 1.391 . S
C2160 C2161 1.400 . S
C2161 C2155 1.491 . S
C2161 C2160 1.400 . S
C2161 C2162 1.398 . S
C2162 H2150 0.950 . S
C2162 C2161 1.398 . S
C2162 C2163 1.391 . S
C2163 H2151 0.950 . S
C2163 C2159 1.393 . S
C2163 C2162 1.391 . S
H2164 C2172 0.950 . S
H2165 C2177 0.950 . S
H2166 C2174 0.950 . S
H2167 C2176 0.950 . S
H2168 C2178 0.967 . S
H2169 C2180 0.950 . S
H2170 C2182 0.950 . S
H2171 C2183 0.950 . S
C2172 H2164 0.950 . S
C2172 C2173 1.386 . S
C2172 C2174 1.391 . S
C2173 C2172 1.386 . S
C2173 C2177 1.393 . S
C2174 H2166 0.950 . S
C2174 C2172 1.391 . S
C2174 C2175 1.400 . S
C2175 C2174 1.400 . S
C2175 C2176 1.398 . S
C2175 C2181 1.491 . S
C2176 H2167 0.950 . S
C2176 C2175 1.398 . S
C2176 C2177 1.391 . S
C2177 H2165 0.950 . S
C2177 C2173 1.393 . S
C2177 C2176 1.391 . S
C2178 H2168 0.967 . S
C2178 C2179 1.378 1_545 S
C2178 C2180 1.382 1_545 S
C2179 C2178 1.378 1_565 S
C2179 C2183 1.393 . S
C2180 H2169 0.950 . S
C2180 C2178 1.382 1_565 S
C2180 C2181 1.400 . S
C2181 C2175 1.491 . S
C2181 C2180 1.400 . S
C2181 C2182 1.398 . S
C2182 H2170 0.950 . S
C2182 C2181 1.398 . S
C2182 C2183 1.391 . S
C2183 H2171 0.950 . S
C2183 C2179 1.393 . S
C2183 C2182 1.391 . S
H2184 C2192 0.950 . S
H2185 C2197 0.950 . S
H2186 C2194 0.950 . S
H2187 C2196 0.950 . S
H2188 C2198 0.950 . S
H2189 C2200 0.950 . S
H2190 C2202 0.950 . S
H2191 C2203 0.950 . S
C2192 H2184 0.950 . S
C2192 C2193 1.386 . S
C2192 C2194 1.391 . S
C2193 C2192 1.386 . S
C2193 C2197 1.393 . S
C2194 H2186 0.950 . S
C2194 C2192 1.391 . S
C2194 C2195 1.400 . S
C2195 C2194 1.400 . S
C2195 C2196 1.398 . S
C2195 C2201 1.491 . S
C2196 H2187 0.950 . S
C2196 C2195 1.398 . S
C2196 C2197 1.391 . S
C2197 H2185 0.950 . S
C2197 C2193 1.393 . S
C2197 C2196 1.391 . S
C2198 H2188 0.950 . S
C2198 C2199 1.386 . S
C2198 C2200 1.391 . S
C2199 C2198 1.386 . S
C2199 C2203 1.393 . S
C2200 H2189 0.950 . S
C2200 C2198 1.391 . S
C2200 C2201 1.400 . S
C2201 C2195 1.491 . S
C2201 C2200 1.400 . S
C2201 C2202 1.398 . S
C2202 H2190 0.950 . S
C2202 C2201 1.398 . S
C2202 C2203 1.391 . S
C2203 H2191 0.950 . S
C2203 C2199 1.393 . S
C2203 C2202 1.391 . S
H2204 C2212 0.950 1_565 S
H2205 C2217 0.950 . S
H2206 C2214 0.950 . S
H2207 C2216 0.950 . S
H2208 C2218 0.950 . S
H2209 C2220 0.950 . S
H2210 C2222 0.950 . S
H2211 C2223 0.950 . S
C2212 H2204 0.950 1_545 S
C2212 C2213 1.386 . S
C2212 C2214 1.391 . S
C2213 C2212 1.386 . S
C2213 C2217 1.393 . S
C2214 H2206 0.950 . S
C2214 C2212 1.391 . S
C2214 C2215 1.400 . S
C2215 C2214 1.400 . S
C2215 C2216 1.398 . S
C2215 C2221 1.491 . S
C2216 H2207 0.950 . S
C2216 C2215 1.398 . S
C2216 C2217 1.391 . S
C2217 H2205 0.950 . S
C2217 C2213 1.393 . S
C2217 C2216 1.391 . S
C2218 H2208 0.950 . S
C2218 C2219 1.386 . S
C2218 C2220 1.391 . S
C2219 C2218 1.386 . S
C2219 C2223 1.393 . S
C2220 H2209 0.950 . S
C2220 C2218 1.391 . S
C2220 C2221 1.400 . S
C2221 C2215 1.491 . S
C2221 C2220 1.400 . S
C2221 C2222 1.398 . S
C2222 H2210 0.950 . S
C2222 C2221 1.398 . S
C2222 C2223 1.391 . S
C2223 H2211 0.950 . S
C2223 C2219 1.393 . S
C2223 C2222 1.391 . S
H2224 C2232 0.950 . S
H2225 C2237 0.950 . S
H2226 C2234 0.950 . S
H2227 C2236 0.950 . S
H2228 C2238 0.950 . S
H2229 C2240 0.950 . S
H2230 C2242 0.950 . S
H2231 C2243 0.950 . S
C2232 H2224 0.950 . S
C2232 C2233 1.386 . S
C2232 C2234 1.391 . S
C2233 C2232 1.386 . S
C2233 C2237 1.393 . S
C2234 H2226 0.950 . S
C2234 C2232 1.391 . S
C2234 C2235 1.400 . S
C2235 C2234 1.400 . S
C2235 C2236 1.398 . S
C2235 C2241 1.491 . S
C2236 H2227 0.950 . S
C2236 C2235 1.398 . S
C2236 C2237 1.391 . S
C2237 H2225 0.950 . S
C2237 C2233 1.393 . S
C2237 C2236 1.391 . S
C2238 H2228 0.950 . S
C2238 C2239 1.386 . S
C2238 C2240 1.391 . S
C2239 C2238 1.386 . S
C2239 C2243 1.393 . S
C2240 H2229 0.950 . S
C2240 C2238 1.391 . S
C2240 C2241 1.400 . S
C2241 C2235 1.491 . S
C2241 C2240 1.400 . S
C2241 C2242 1.398 . S
C2242 H2230 0.950 . S
C2242 C2241 1.398 . S
C2242 C2243 1.391 . S
C2243 H2231 0.950 . S
C2243 C2239 1.393 . S
C2243 C2242 1.391 . S
H2244 C2252 0.950 . S
H2245 C2257 0.950 . S
H2246 C2254 0.950 . S
H2247 C2256 0.950 . S
H2248 C2258 0.950 . S
H2249 C2260 0.950 . S
H2250 C2262 0.950 . S
H2251 C2263 0.950 1_565 S
C2252 H2244 0.950 . S
C2252 C2253 1.386 . S
C2252 C2254 1.391 . S
C2253 C2252 1.386 . S
C2253 C2257 1.393 . S
C2254 H2246 0.950 . S
C2254 C2252 1.391 . S
C2254 C2255 1.400 . S
C2255 C2254 1.400 . S
C2255 C2256 1.398 . S
C2255 C2261 1.491 . S
C2256 H2247 0.950 . S
C2256 C2255 1.398 . S
C2256 C2257 1.391 . S
C2257 H2245 0.950 . S
C2257 C2253 1.393 . S
C2257 C2256 1.391 . S
C2258 H2248 0.950 . S
C2258 C2259 1.386 . S
C2258 C2260 1.391 . S
C2259 C2258 1.386 . S
C2259 C2263 1.393 . S
C2260 H2249 0.950 . S
C2260 C2258 1.391 . S
C2260 C2261 1.400 . S
C2261 C2255 1.491 . S
C2261 C2260 1.400 . S
C2261 C2262 1.398 . S
C2262 H2250 0.950 . S
C2262 C2261 1.398 . S
C2262 C2263 1.391 . S
C2263 H2251 0.950 1_545 S
C2263 C2259 1.393 . S
C2263 C2262 1.391 . S
H2264 C2272 0.950 . S
H2265 C2277 0.950 . S
H2266 C2274 0.950 . S
H2267 C2276 0.950 . S
H2268 C2278 0.950 . S
H2269 C2280 0.950 . S
H2270 C2282 0.950 . S
H2271 C2283 0.913 1_556 S
C2272 H2264 0.950 . S
C2272 C2273 1.386 . S
C2272 C2274 1.391 . S
C2273 C2272 1.386 . S
C2273 C2277 1.393 . S
C2274 H2266 0.950 . S
C2274 C2272 1.391 . S
C2274 C2275 1.400 . S
C2275 C2274 1.400 . S
C2275 C2276 1.398 . S
C2275 C2281 1.491 . S
C2276 H2267 0.950 . S
C2276 C2275 1.398 . S
C2276 C2277 1.391 . S
C2277 H2265 0.950 . S
C2277 C2273 1.393 . S
C2277 C2276 1.391 . S
C2278 H2268 0.950 . S
C2278 C2279 1.386 . S
C2278 C2280 1.391 . S
C2279 C2278 1.386 . S
C2279 C2283 1.393 . S
C2280 H2269 0.950 . S
C2280 C2278 1.391 . S
C2280 C2281 1.400 . S
C2281 C2275 1.491 . S
C2281 C2280 1.400 . S
C2281 C2282 1.398 . S
C2282 H2270 0.950 . S
C2282 C2281 1.398 . S
C2282 C2283 1.391 . S
C2283 H2271 0.913 1_554 S
C2283 C2279 1.393 . S
C2283 C2282 1.391 . S
H2284 C2292 0.950 . S
H2285 C2297 0.950 . S
H2286 C2294 0.950 . S
H2287 C2296 0.950 . S
H2288 C2298 0.950 . S
H2289 C2300 0.950 . S
H2290 C2302 0.950 . S
H2291 C2303 0.950 . S
C2292 H2284 0.950 . S
C2292 C2293 1.386 . S
C2292 C2294 1.391 . S
C2293 C2292 1.386 . S
C2293 C2297 1.393 . S
C2294 H2286 0.950 . S
C2294 C2292 1.391 . S
C2294 C2295 1.400 . S
C2295 C2294 1.400 . S
C2295 C2296 1.398 . S
C2295 C2301 1.491 . S
C2296 H2287 0.950 . S
C2296 C2295 1.398 . S
C2296 C2297 1.391 . S
C2297 H2285 0.950 . S
C2297 C2293 1.393 . S
C2297 C2296 1.391 . S
C2298 H2288 0.950 . S
C2298 C2299 1.386 1_545 S
C2298 C2300 1.391 1_545 S
C2299 C2298 1.386 1_565 S
C2299 C2303 1.393 . S
C2300 H2289 0.950 . S
C2300 C2298 1.391 1_565 S
C2300 C2301 1.400 . S
C2301 C2295 1.491 . S
C2301 C2300 1.400 . S
C2301 C2302 1.398 . S
C2302 H2290 0.950 . S
C2302 C2301 1.398 . S
C2302 C2303 1.391 . S
C2303 H2291 0.950 . S
C2303 C2299 1.393 . S
C2303 C2302 1.391 . S
C1353 C68 3.012 . S
C1359 C908 3.023 . S
C1373 C152 3.019 . S
C1379 C992 3.023 . S
C1393 C236 3.020 . S
C1399 C740 3.022 . S
C1413 C824 3.014 . S
C1419 C320 3.014 . S
C1433 C392 3.017 . S
C1439 C1232 3.023 . S
C1453 C1316 3.011 . S
C1459 C476 3.019 . S
C1473 C1064 3.011 . S
C1479 C560 3.021 . S
C1493 C644 3.012 . S
C1499 C1148 3.022 . S
C1513 C58 0.690 . S
C1519 C406 0.690 . S
C1533 C142 0.639 . S
C1539 C1162 0.639 . S
C1553 C226 0.633 . S
C1559 C574 0.633 . S
C1573 C310 0.676 . S
C1579 C1330 0.676 . S
C1593 C490 0.671 . S
C1599 C814 0.671 . S
C1613 C982 0.669 . S
C1619 C658 0.669 . S
C1633 C1078 0.653 . S
C1639 C730 0.653 . S
C1653 C898 0.656 . S
C1659 C1246 0.656 . S
C1673 C70 0.795 . S
C1679 C656 1.045 . S
C1693 C154 0.860 . S
C1699 C1076 1.038 . S
C1713 C238 0.773 . S
C1719 C488 1.033 . S
C1733 C322 0.775 . S
C1739 C1244 1.031 . S
C1753 C308 1.034 . S
C1759 C394 0.773 . S
C1773 C478 0.845 . S
C1779 C728 1.049 . S
C1793 C562 0.840 . S
C1799 C140 1.050 . S
C1813 C896 1.046 . S
C1819 C646 0.800 . S
C1833 C742 0.862 . S
C1839 C1328 1.043 . S
C1853 C404 1.027 . S
C1859 C826 0.798 . S
C1873 C1160 1.032 . S
C1879 C910 0.773 . S
C1893 C572 1.027 . S
C1899 C994 0.810 . S
C1913 C1066 0.859 . S
C1919 C980 1.038 . S
C1933 C1150 0.823 . S
C1939 C56 1.049 . S
C1953 C812 1.047 . S
C1959 C1234 0.858 . S
C1973 C1318 0.837 . S
C1979 C224 1.050 . S
C1993 C55 3.717 1_556 S
C1999 C823 3.633 . S
C2013 C907 3.623 . S
C2019 C139 3.712 . S
C2033 C223 3.712 . S
C2039 C991 3.623 . S
C2053 C739 3.634 . S
C2059 C307 3.715 . S
C2073 C1147 3.633 . S
C2079 C403 3.717 1_554 S
C2093 C1231 3.623 . S
C2099 C487 3.713 . S
C2113 C1315 3.632 . S
C2119 C571 3.717 . S
C2133 C1063 3.624 . S
C2139 C655 3.710 . S
C2153 C151 3.628 . S
C2159 C727 3.716 . S
C2173 C235 3.629 . S
C2179 C811 3.716 1_565 S
C2193 C319 3.626 . S
C2199 C895 3.711 1_556 S
C2213 C979 3.711 1_545 S
C2219 C67 3.623 . S
C2233 C475 3.629 . S
C2239 C1075 3.716 . S
C2253 C559 3.626 . S
C2259 C1159 3.715 1_545 S
C2273 C643 3.626 . S
C2279 C1243 3.711 1_554 S
C2293 C391 3.629 . S
C2299 C1327 3.711 1_565 S
