# Generated by pormake.
# Topology sra, (4)-cn, num edge types: 1
# Building blocks:
#     Node 0, Type 0, BuildingBlock: NAHDIM_clean_sbu_0, # of connection points: 4
#     Node 1, Type 0, BuildingBlock: NAHDIM_clean_sbu_0, # of connection points: 4
#     Node 2, Type 0, BuildingBlock: NAHDIM_clean_sbu_0, # of connection points: 4
#     Node 3, Type 0, BuildingBlock: NAHDIM_clean_sbu_0, # of connection points: 4
#     Node 4, Type 0, BuildingBlock: NAHDIM_clean_sbu_0, # of connection points: 4
#     Node 5, Type 0, BuildingBlock: NAHDIM_clean_sbu_0, # of connection points: 4
#     Node 6, Type 0, BuildingBlock: NAHDIM_clean_sbu_0, # of connection points: 4
#     Node 7, Type 0, BuildingBlock: NAHDIM_clean_sbu_0, # of connection points: 4
#     Edge 8, Type (0, 0), BuildingBlock: XUDNAN_clean_linker_2, # of connection points: 2
#     Edge 9, Type (0, 0), BuildingBlock: XUDNAN_clean_linker_2, # of connection points: 2
#     Edge 10, Type (0, 0), BuildingBlock: XUDNAN_clean_linker_2, # of connection points: 2
#     Edge 11, Type (0, 0), BuildingBlock: XUDNAN_clean_linker_2, # of connection points: 2
#     Edge 12, Type (0, 0), BuildingBlock: XUDNAN_clean_linker_2, # of connection points: 2
#     Edge 13, Type (0, 0), BuildingBlock: XUDNAN_clean_linker_2, # of connection points: 2
#     Edge 14, Type (0, 0), BuildingBlock: XUDNAN_clean_linker_2, # of connection points: 2
#     Edge 15, Type (0, 0), BuildingBlock: XUDNAN_clean_linker_2, # of connection points: 2
#     Edge 16, Type (0, 0), BuildingBlock: XUDNAN_clean_linker_2, # of connection points: 2
#     Edge 17, Type (0, 0), BuildingBlock: XUDNAN_clean_linker_2, # of connection points: 2
#     Edge 18, Type (0, 0), BuildingBlock: XUDNAN_clean_linker_2, # of connection points: 2
#     Edge 19, Type (0, 0), BuildingBlock: XUDNAN_clean_linker_2, # of connection points: 2
#     Edge 20, Type (0, 0), BuildingBlock: XUDNAN_clean_linker_2, # of connection points: 2
#     Edge 21, Type (0, 0), BuildingBlock: XUDNAN_clean_linker_2, # of connection points: 2
#     Edge 22, Type (0, 0), BuildingBlock: XUDNAN_clean_linker_2, # of connection points: 2
#     Edge 23, Type (0, 0), BuildingBlock: XUDNAN_clean_linker_2, # of connection points: 2
# Relax obj value: 0.091
# Max RMSD: 0.091
# Mean RMSD: 0.091
data_MOF--net-sra--node1-NAHDIM_clean_sbu_0--edge1-XUDNAN_clean_linker_2
_symmetry_space_group_name_H-M    P1
_symmetry_Int_Tables_number       1
_symmetry_cell_setting            triclinic
loop_
_symmetry_equiv_pos_as_xyz
'x, y, z'
_cell_length_a     25.082241
_cell_length_b     48.229341
_cell_length_c     40.775258
_cell_angle_alpha  89.906618
_cell_angle_beta   89.933852
_cell_angle_gamma 90.025306
loop_
_atom_site_label
_atom_site_type_symbol
_atom_site_fract_x
_atom_site_fract_y
_atom_site_fract_z
_atom_type_partial_charge
C0 C 0.96822 0.05712 0.09388 0.0
O1 O 0.96299 0.04854 0.12432 0.0
O2 O 0.88906 0.10362 0.14693 0.0
Zn3 Zn 0.96292 0.10726 0.12797 0.0
O4 O 0.0176 0.09359 0.16017 0.0
C5 C 0.0204 0.15438 0.1023 0.0
O6 O 0.05414 0.13515 0.09284 0.0
O7 O 0.96856 0.08303 0.08815 0.0
C8 C 0.042 0.10911 0.1803 0.0
O9 O 0.03128 0.13576 0.18094 0.0
C10 C 0.87981 0.08981 0.17291 0.0
O11 O 0.91954 0.07771 0.18823 0.0
O12 O 0.9779 0.1472 0.11705 0.0
C13 C 0.01431 0.45627 0.11174 0.0
O14 O 0.02418 0.46584 0.14127 0.0
O15 O 0.08429 0.4172 0.1711 0.0
Zn16 Zn 0.01715 0.40598 0.14754 0.0
O17 O 0.9528 0.41089 0.17654 0.0
C18 C 0.05926 0.35646 0.11677 0.0
O19 O 0.09707 0.37336 0.10681 0.0
O20 O 0.00918 0.43028 0.10777 0.0
C21 C 0.95052 0.42794 0.20023 0.0
O22 O 0.99232 0.44332 0.207 0.0
C23 C 0.10943 0.40102 0.19022 0.0
O24 O 0.09087 0.37592 0.19545 0.0
O25 O 0.02134 0.36593 0.13414 0.0
C26 C 0.02269 0.95119 0.89104 0.0
O27 O 0.02004 0.96758 0.86533 0.0
O28 O 0.97271 0.92003 0.8148 0.0
Zn29 Zn 0.03499 0.90813 0.8424 0.0
O30 O 0.1048 0.91733 0.82075 0.0
C31 C 0.98476 0.85594 0.85343 0.0
O32 O 0.94282 0.87206 0.85636 0.0
O33 O 0.02974 0.92536 0.88688 0.0
C34 C 0.11752 0.90368 0.7953 0.0
O35 O 0.08425 0.88491 0.78407 0.0
C36 C 0.97483 0.93474 0.78895 0.0
O37 O 0.02097 0.94445 0.77888 0.0
O38 O 0.02997 0.86683 0.84773 0.0
C39 C 0.9908 0.55326 0.90026 0.0
O40 O 0.9782 0.53594 0.87666 0.0
O41 O 0.07225 0.58961 0.82537 0.0
Zn42 Zn 0.00085 0.59394 0.84754 0.0
O43 O 0.94322 0.57646 0.82033 0.0
C44 C 0.01872 0.65318 0.85235 0.0
O45 O 0.06927 0.64609 0.85154 0.0
O46 O 0.00183 0.57827 0.8932 0.0
C47 C 0.95199 0.56021 0.79642 0.0
O48 O 0.00119 0.55286 0.78961 0.0
C49 C 0.10695 0.57197 0.83431 0.0
O50 O 0.09655 0.55548 0.85917 0.0
O51 O 0.98321 0.63443 0.85099 0.0
C52 C 0.48905 0.53432 0.62013 0.0
O53 O 0.47586 0.52463 0.64916 0.0
O54 O 0.46477 0.57427 0.69139 0.0
Zn55 Zn 0.52234 0.58133 0.65812 0.0
O56 O 0.59274 0.57106 0.67823 0.0
C57 C 0.5292 0.64005 0.66773 0.0
O58 O 0.53271 0.63233 0.69857 0.0
O59 O 0.50919 0.55841 0.6179 0.0
C60 C 0.62824 0.55697 0.66351 0.0
O61 O 0.61941 0.54839 0.63345 0.0
C62 C 0.41989 0.58641 0.69026 0.0
O63 O 0.41052 0.60432 0.66665 0.0
O64 O 0.52408 0.62164 0.6457 0.0
C65 C 0.53497 0.94503 0.5887 0.0
O66 O 0.54852 0.95971 0.61451 0.0
O67 O 0.61826 0.91432 0.65101 0.0
Zn68 Zn 0.54732 0.90081 0.63453 0.0
O69 O 0.48895 0.91054 0.6663 0.0
C70 C 0.54643 0.84318 0.65301 0.0
O71 O 0.54334 0.85377 0.68261 0.0
O72 O 0.53177 0.91884 0.59131 0.0
C73 C 0.44319 0.89993 0.66182 0.0
O74 O 0.43587 0.88341 0.63662 0.0
C75 C 0.62893 0.91483 0.68144 0.0
O76 O 0.59274 0.90651 0.70259 0.0
O77 O 0.54914 0.85939 0.62846 0.0
C78 C 0.51171 0.44193 0.40658 0.0
O79 O 0.53366 0.45851 0.38482 0.0
O80 O 0.45676 0.40422 0.32516 0.0
Zn81 Zn 0.52003 0.40065 0.35507 0.0
O82 O 0.58525 0.41848 0.3355 0.0
C83 C 0.49917 0.34282 0.36589 0.0
O84 O 0.44941 0.35132 0.36581 0.0
O85 O 0.50247 0.41687 0.39899 0.0
C86 C 0.60385 0.40782 0.30942 0.0
O87 O 0.57836 0.38693 0.29597 0.0
C88 C 0.44523 0.42664 0.31041 0.0
O89 O 0.47609 0.44841 0.31427 0.0
O90 O 0.53631 0.36037 0.3617 0.0
C91 C 0.47564 0.06872 0.40079 0.0
O92 O 0.48158 0.09461 0.41002 0.0
O93 O 0.50959 0.0871 0.29985 0.0
Zn94 Zn 0.45664 0.09281 0.33624 0.0
O95 O 0.38328 0.09119 0.31707 0.0
C96 C 0.51461 0.14051 0.3594 0.0
O97 O 0.55571 0.12392 0.35582 0.0
O98 O 0.46484 0.06342 0.37102 0.0
C99 C 0.36166 0.06839 0.30901 0.0
O100 O 0.38763 0.0451 0.31397 0.0
C101 C 0.55383 0.07475 0.30393 0.0
O102 O 0.56502 0.06397 0.33272 0.0
O103 O 0.46804 0.1313 0.35373 0.0
H104 H 0.98747 0.31625 0.13431 0.0
H105 H 0.13596 0.3289 0.08151 0.0
H106 H 0.14042 0.27867 0.06985 0.0
H107 H 0.0234 0.25277 0.17213 0.0
H108 H 0.95785 0.23771 0.16881 0.0
H109 H 0.96528 0.27475 0.17158 0.0
H110 H 0.91227 0.28072 0.11748 0.0
H111 H 0.90468 0.24366 0.11454 0.0
H112 H 0.93408 0.26281 0.08109 0.0
H113 H 0.13027 0.2266 0.066 0.0
H114 H 0.10636 0.177 0.0703 0.0
H115 H 0.96428 0.19904 0.12531 0.0
C116 C 0.02079 0.30855 0.12008 0.0
C117 C 0.06135 0.32654 0.10879 0.0
C118 C 0.10436 0.31554 0.09038 0.0
C119 C 0.10722 0.28704 0.08361 0.0
C120 C 0.06668 0.26988 0.09531 0.0
C121 C 0.02423 0.28026 0.11309 0.0
C122 C 0.98655 0.25741 0.12364 0.0
C123 C 0.98311 0.25556 0.16126 0.0
C124 C 0.93112 0.26139 0.10826 0.0
C125 C 0.0147 0.23247 0.10933 0.0
C126 C 0.06074 0.24006 0.09297 0.0
C127 C 0.09412 0.22044 0.07856 0.0
C128 C 0.08021 0.19232 0.08115 0.0
C129 C 0.03336 0.18411 0.09803 0.0
C130 C 0.00014 0.20459 0.11202 0.0
H131 H 0.06406 0.81686 0.85041 0.0
H132 H 0.89269 0.82613 0.86114 0.0
H133 H 0.88294 0.77523 0.86309 0.0
H134 H 0.06077 0.75775 0.79825 0.0
H135 H 0.11827 0.74152 0.8165 0.0
H136 H 0.11196 0.7787 0.8169 0.0
H137 H 0.12196 0.77876 0.88016 0.0
H138 H 0.1284 0.74157 0.87996 0.0
H139 H 0.07775 0.7578 0.90475 0.0
H140 H 0.89153 0.72341 0.86213 0.0
H141 H 0.91799 0.67421 0.85936 0.0
H142 H 0.08388 0.69886 0.84989 0.0
C143 C 0.02448 0.80822 0.85334 0.0
C144 C 0.97912 0.82549 0.85564 0.0
C145 C 0.92804 0.81333 0.85939 0.0
C146 C 0.92207 0.78444 0.86052 0.0
C147 C 0.96758 0.76804 0.85799 0.0
C148 C 0.01781 0.77947 0.85461 0.0
C149 C 0.06017 0.75722 0.85206 0.0
C150 C 0.0895 0.7589 0.81896 0.0
C151 C 0.09937 0.75895 0.88096 0.0
C152 C 0.02584 0.73147 0.85425 0.0
C153 C 0.97257 0.73817 0.85769 0.0
C154 C 0.93315 0.7179 0.8596 0.0
C155 C 0.9486 0.69001 0.85796 0.0
C156 C 0.00303 0.68267 0.85448 0.0
C157 C 0.04201 0.70377 0.85271 0.0
H158 H 0.53546 0.68474 0.70906 0.0
H159 H 0.52848 0.66255 0.60598 0.0
H160 H 0.53329 0.71208 0.59093 0.0
H161 H 0.4543 0.74578 0.70311 0.0
H162 H 0.49258 0.765 0.73277 0.0
H163 H 0.48922 0.72777 0.73536 0.0
H164 H 0.59241 0.72511 0.73373 0.0
H165 H 0.59609 0.76234 0.73108 0.0
H166 H 0.62801 0.74126 0.70034 0.0
H167 H 0.53919 0.76404 0.58712 0.0
H168 H 0.54363 0.81476 0.59488 0.0
H169 H 0.54586 0.80284 0.70047 0.0
C170 C 0.53499 0.69025 0.68331 0.0
C171 C 0.53167 0.66974 0.6587 0.0
C172 C 0.531 0.67788 0.62528 0.0
C173 C 0.53378 0.70597 0.61648 0.0
C174 C 0.53712 0.72564 0.64136 0.0
C175 C 0.53759 0.71816 0.67409 0.0
C176 C 0.54091 0.74337 0.69607 0.0
C177 C 0.49129 0.74561 0.71812 0.0
C178 C 0.59242 0.74299 0.7165 0.0
C179 C 0.54212 0.76621 0.67058 0.0
C180 C 0.54009 0.75555 0.63918 0.0
C181 C 0.54078 0.77264 0.6116 0.0
C182 C 0.54337 0.80141 0.61627 0.0
C183 C 0.54506 0.81279 0.64828 0.0
C184 C 0.54455 0.79483 0.67569 0.0
H185 H 0.4295 0.29905 0.36671 0.0
H186 H 0.59781 0.31938 0.37333 0.0
H187 H 0.61949 0.26958 0.37734 0.0
H188 H 0.4319 0.23917 0.42245 0.0
H189 H 0.38476 0.2199 0.39815 0.0
H190 H 0.3821 0.25723 0.3988 0.0
H191 H 0.38972 0.25838 0.3354 0.0
H192 H 0.39233 0.22111 0.33455 0.0
H193 H 0.44486 0.24111 0.31573 0.0
H194 H 0.62333 0.21763 0.37699 0.0
H195 H 0.60919 0.16728 0.37054 0.0
H196 H 0.43844 0.18104 0.3638 0.0
C197 C 0.47086 0.29308 0.36949 0.0
C198 C 0.51194 0.3131 0.36984 0.0
C199 C 0.56564 0.30439 0.37305 0.0
C200 C 0.57836 0.27617 0.37548 0.0
C201 C 0.53693 0.25695 0.37472 0.0
C202 C 0.48428 0.26502 0.37181 0.0
C203 C 0.44756 0.24019 0.36952 0.0
C204 C 0.40933 0.23906 0.39899 0.0
C205 C 0.41684 0.2402 0.33686 0.0
C206 C 0.48791 0.21691 0.37088 0.0
C207 C 0.53918 0.22699 0.37426 0.0
C208 C 0.58332 0.20946 0.37465 0.0
C209 C 0.57488 0.1809 0.37095 0.0
C210 C 0.52272 0.17021 0.36673 0.0
C211 C 0.47877 0.18851 0.36724 0.0
H212 H 0.30011 0.11334 0.2933 0.0
H213 H 0.30512 0.02351 0.2868 0.0
H214 H 0.22028 0.02399 0.25609 0.0
H215 H 0.15531 0.11976 0.30232 0.0
H216 H 0.15251 0.15079 0.27768 0.0
H217 H 0.21139 0.14315 0.3013 0.0
H218 H 0.26899 0.14659 0.24863 0.0
H219 H 0.21037 0.15416 0.22486 0.0
H220 H 0.25247 0.12539 0.2137 0.0
H221 H 0.13858 0.03454 0.22278 0.0
H222 H 0.06541 0.05428 0.18977 0.0
H223 H 0.11381 0.13721 0.21851 0.0
C224 C 0.2831 0.09371 0.28582 0.0
C225 C 0.30923 0.06837 0.29249 0.0
C226 C 0.28577 0.04318 0.28203 0.0
C227 C 0.23756 0.04323 0.26462 0.0
C228 C 0.21328 0.06863 0.25806 0.0
C229 C 0.23512 0.09339 0.26848 0.0
C230 C 0.20242 0.11793 0.25701 0.0
C231 C 0.17901 0.13384 0.28633 0.0
C232 C 0.23554 0.13713 0.23472 0.0
C233 C 0.1593 0.10313 0.23793 0.0
C234 C 0.16608 0.0747 0.239 0.0
C235 C 0.13254 0.05675 0.22203 0.0
C236 C 0.0912 0.06818 0.20329 0.0
C237 C 0.08381 0.09729 0.20165 0.0
C238 C 0.11807 0.11488 0.21953 0.0
H239 H 0.65639 0.38709 0.25598 0.0
H240 H 0.66884 0.44926 0.33249 0.0
H241 H 0.75808 0.46238 0.31185 0.0
H242 H 0.79004 0.3646 0.25911 0.0
H243 H 0.7962 0.35939 0.21551 0.0
H244 H 0.73207 0.35618 0.23499 0.0
H245 H 0.69301 0.39301 0.19537 0.0
H246 H 0.757 0.39623 0.17562 0.0
H247 H 0.7246 0.42649 0.19216 0.0
H248 H 0.84816 0.46694 0.28437 0.0
H249 H 0.93077 0.46329 0.25153 0.0
H250 H 0.85833 0.39805 0.19336 0.0
C251 C 0.67752 0.40369 0.26822 0.0
C252 C 0.65557 0.41717 0.29584 0.0
C253 C 0.68479 0.43867 0.31123 0.0
C254 C 0.73551 0.44626 0.2997 0.0
C255 C 0.7563 0.43222 0.27271 0.0
C256 C 0.72805 0.4115 0.25707 0.0
C257 C 0.75982 0.39903 0.2292 0.0
C258 C 0.77014 0.36797 0.23508 0.0
C259 C 0.73194 0.404 0.19613 0.0
C260 C 0.81068 0.41572 0.23182 0.0
C261 C 0.80789 0.43484 0.25697 0.0
C262 C 0.85065 0.45216 0.26448 0.0
C263 C 0.89744 0.4499 0.24573 0.0
C264 C 0.90106 0.43042 0.21984 0.0
C265 C 0.85688 0.41322 0.21289 0.0
H266 H 0.15486 0.87854 0.73973 0.0
H267 H 0.19757 0.93914 0.81385 0.0
H268 H 0.28522 0.9456 0.78714 0.0
H269 H 0.28244 0.84686 0.73321 0.0
H270 H 0.27813 0.84162 0.68954 0.0
H271 H 0.21832 0.84245 0.71396 0.0
H272 H 0.18057 0.88177 0.67733 0.0
H273 H 0.24025 0.88104 0.65274 0.0
H274 H 0.21894 0.91301 0.67145 0.0
H275 H 0.36944 0.94422 0.75318 0.0
H276 H 0.44295 0.93573 0.71404 0.0
H277 H 0.34388 0.87642 0.66217 0.0
C278 C 0.18246 0.89329 0.75031 0.0
C279 C 0.16936 0.90833 0.77889 0.0
C280 C 0.20672 0.9274 0.79194 0.0
C281 C 0.25659 0.93121 0.77696 0.0
C282 C 0.26833 0.91589 0.74892 0.0
C283 C 0.23223 0.89739 0.73567 0.0
C284 C 0.25473 0.8832 0.70563 0.0
C285 C 0.25864 0.85167 0.71092 0.0
C286 C 0.22165 0.89019 0.67498 0.0
C287 C 0.30932 0.89645 0.70415 0.0
C288 C 0.31646 0.91526 0.72929 0.0
C289 C 0.3642 0.92965 0.73329 0.0
C290 C 0.40572 0.92467 0.71096 0.0
C291 C 0.39912 0.90548 0.68499 0.0
C292 C 0.35013 0.89133 0.68163 0.0
H293 H 0.65903 0.57275 0.72504 0.0
H294 H 0.71395 0.52837 0.63883 0.0
H295 H 0.8012 0.52075 0.66549 0.0
H296 H 0.77794 0.60824 0.7405 0.0
H297 H 0.77266 0.60616 0.78453 0.0
H298 H 0.71337 0.60584 0.75978 0.0
H299 H 0.68435 0.55947 0.78667 0.0
H300 H 0.74371 0.55963 0.81153 0.0
H301 H 0.72906 0.53022 0.78585 0.0
H302 H 0.88452 0.52086 0.70031 0.0
H303 H 0.95731 0.52957 0.7398 0.0
H304 H 0.84663 0.57375 0.80281 0.0
C305 C 0.68909 0.56112 0.71186 0.0
C306 C 0.67963 0.55111 0.67986 0.0
C307 C 0.72026 0.53618 0.6634 0.0
C308 C 0.76988 0.53168 0.67838 0.0
C309 C 0.77802 0.54209 0.70985 0.0
C310 C 0.73865 0.55644 0.7264 0.0
C311 C 0.75818 0.5668 0.75924 0.0
C312 C 0.75538 0.59864 0.76109 0.0
C313 C 0.72697 0.55321 0.78749 0.0
C314 C 0.81518 0.55666 0.75827 0.0
C315 C 0.8258 0.54219 0.72978 0.0
C316 C 0.87651 0.53192 0.72286 0.0
C317 C 0.9176 0.53697 0.74544 0.0
C318 C 0.90769 0.5523 0.77442 0.0
C319 C 0.85552 0.5618 0.78101 0.0
H320 H 0.67171 0.90806 0.7426 0.0
H321 H 0.70711 0.94075 0.64574 0.0
H322 H 0.79785 0.95316 0.66416 0.0
H323 H 0.74933 0.95869 0.7896 0.0
H324 H 0.7713 0.9331 0.81887 0.0
H325 H 0.70767 0.92924 0.79891 0.0
H326 H 0.73543 0.88043 0.77853 0.0
H327 H 0.79902 0.88415 0.79839 0.0
H328 H 0.79603 0.87657 0.75516 0.0
H329 H 0.88647 0.95955 0.69238 0.0
H330 H 0.96677 0.95756 0.72742 0.0
H331 H 0.87299 0.91983 0.80516 0.0
C332 C 0.69821 0.91823 0.72539 0.0
C333 C 0.68227 0.92358 0.6928 0.0
C334 C 0.71848 0.93649 0.67086 0.0
C335 C 0.77001 0.94372 0.68112 0.0
C336 C 0.78466 0.93786 0.71335 0.0
C337 C 0.74981 0.92537 0.73513 0.0
C338 C 0.77635 0.91961 0.76772 0.0
C339 C 0.74956 0.93616 0.79541 0.0
C340 C 0.77674 0.88834 0.77538 0.0
C341 C 0.83187 0.93032 0.76069 0.0
C342 C 0.83578 0.9411 0.72937 0.0
C343 C 0.88379 0.95135 0.71705 0.0
C344 C 0.92916 0.95016 0.73713 0.0
C345 C 0.92618 0.93855 0.76901 0.0
C346 C 0.87661 0.92891 0.78095 0.0
H347 H 0.32206 0.61112 0.6976 0.0
H348 H 0.4246 0.54775 0.73941 0.0
H349 H 0.35584 0.53724 0.78093 0.0
H350 H 0.26871 0.63579 0.77424 0.0
H351 H 0.20292 0.64174 0.75795 0.0
H352 H 0.26026 0.64429 0.73148 0.0
H353 H 0.21861 0.60799 0.6923 0.0
H354 H 0.16116 0.60533 0.71864 0.0
H355 H 0.19863 0.57468 0.70827 0.0
H356 H 0.27567 0.53336 0.81765 0.0
H357 H 0.18993 0.53668 0.84721 0.0
H358 H 0.14026 0.60277 0.78153 0.0
C359 C 0.33011 0.59503 0.71546 0.0
C360 C 0.37872 0.58025 0.71522 0.0
C361 C 0.38769 0.55938 0.73911 0.0
C362 C 0.34887 0.55324 0.7628 0.0
C363 C 0.3014 0.56819 0.76232 0.0
C364 C 0.2919 0.58868 0.73933 0.0
C365 C 0.23759 0.60172 0.74423 0.0
C366 C 0.2427 0.63272 0.75247 0.0
C367 C 0.2019 0.59714 0.71407 0.0
C368 C 0.21794 0.58525 0.77347 0.0
C369 C 0.25533 0.56603 0.78355 0.0
C370 C 0.24608 0.54836 0.81002 0.0
C371 C 0.19726 0.5504 0.82664 0.0
C372 C 0.15837 0.56998 0.81671 0.0
C373 C 0.16912 0.58759 0.78976 0.0
H374 H 0.65772 0.05727 0.30735 0.0
H375 H 0.54232 0.09463 0.24142 0.0
H376 H 0.61239 0.10014 0.19942 0.0
H377 H 0.76375 0.10152 0.28797 0.0
H378 H 0.81479 0.07531 0.29043 0.0
H379 H 0.75469 0.07176 0.3142 0.0
H380 H 0.73715 0.02364 0.28813 0.0
H381 H 0.7975 0.02694 0.26443 0.0
H382 H 0.73496 0.02042 0.24411 0.0
H383 H 0.69619 0.10513 0.16642 0.0
H384 H 0.78752 0.10784 0.14402 0.0
H385 H 0.84807 0.06705 0.23139 0.0
C386 C 0.6469 0.06614 0.28387 0.0
C387 C 0.59449 0.07546 0.27766 0.0
C388 C 0.58218 0.08729 0.24674 0.0
C389 C 0.62169 0.09049 0.22269 0.0
C390 C 0.67321 0.08164 0.22989 0.0
C391 C 0.68584 0.06952 0.25962 0.0
C392 C 0.74479 0.06305 0.26178 0.0
C393 C 0.77103 0.07886 0.29028 0.0
C394 C 0.75413 0.03164 0.26478 0.0
C395 C 0.76348 0.07394 0.22889 0.0
C396 C 0.72155 0.08445 0.2108 0.0
C397 C 0.72929 0.09669 0.18019 0.0
C398 C 0.78134 0.09822 0.16774 0.0
C399 C 0.82493 0.08759 0.1859 0.0
C400 C 0.81559 0.07516 0.21678 0.0
H401 H 0.17553 0.37099 0.23045 0.0
H402 H 0.15695 0.45201 0.18525 0.0
H403 H 0.24114 0.46735 0.21072 0.0
H404 H 0.22981 0.39509 0.30684 0.0
H405 H 0.2755 0.36646 0.31093 0.0
H406 H 0.21374 0.3619 0.28912 0.0
H407 H 0.26596 0.34489 0.23808 0.0
H408 H 0.32788 0.34945 0.25973 0.0
H409 H 0.31761 0.36648 0.22087 0.0
H410 H 0.32752 0.47388 0.2412 0.0
H411 H 0.40934 0.47112 0.27473 0.0
H412 H 0.37127 0.38579 0.29964 0.0
C413 C 0.18905 0.39198 0.22593 0.0
C414 C 0.15958 0.41029 0.20585 0.0
C415 C 0.17881 0.43758 0.20053 0.0
C416 C 0.22662 0.4465 0.21488 0.0
C417 C 0.25475 0.42789 0.23445 0.0
C418 C 0.23668 0.40121 0.24001 0.0
C419 C 0.27444 0.3853 0.26202 0.0
C420 C 0.24671 0.37669 0.29413 0.0
C421 C 0.29786 0.36004 0.24409 0.0
C422 C 0.31652 0.40721 0.26801 0.0
C423 C 0.30448 0.43163 0.2519 0.0
C424 C 0.33739 0.45486 0.25392 0.0
C425 C 0.38378 0.45309 0.27302 0.0
C426 C 0.39679 0.42826 0.28981 0.0
C427 C 0.36259 0.40507 0.28709 0.0
H428 H 0.97781 0.06745 0.02775 0.0
H429 H 0.97523 0.00085 0.0996 0.0
H430 H 0.98946 0.96675 0.05552 0.0
H431 H 0.90809 0.03032 0.96406 0.0
H432 H 0.94726 0.04508 0.93131 0.0
H433 H 0.93678 0.06438 0.96853 0.0
H434 H 0.03897 0.0694 0.97579 0.0
H435 H 0.04977 0.05004 0.93864 0.0
H436 H 0.0801 0.03876 0.97643 0.0
H437 H 0.00521 0.93996 0.00423 0.0
H438 H 0.01893 0.92185 0.9484 0.0
H439 H 0.0104 0.00564 0.90948 0.0
C440 C 0.98012 0.04569 0.03421 0.0
C441 C 0.97545 0.03682 0.06714 0.0
C442 C 0.97865 0.00816 0.07456 0.0
C443 C 0.9868 0.98861 0.04971 0.0
C444 C 0.99151 0.99805 0.01756 0.0
C445 C 0.98809 0.02586 0.00968 0.0
C446 C 0.99429 0.03041 0.9731 0.0
C447 C 0.94358 0.0433 0.95839 0.0
C448 C 0.04373 0.0482 0.96556 0.0
C449 C 0.00183 0.00079 0.96171 0.0
C450 C 0.00021 0.98249 0.9878 0.0
C451 C 0.00646 0.95406 0.98356 0.0
C452 C 0.01432 0.94399 0.95173 0.0
C453 C 0.01571 0.96231 0.92453 0.0
C454 C 0.00948 0.9911 0.92973 0.0
H455 H 0.98112 0.50002 0.92379 0.0
H456 H 0.0072 0.58511 0.95468 0.0
H457 H 0.01381 0.56955 0.01213 0.0
H458 H 0.9016 0.47893 0.99383 0.0
H459 H 0.93041 0.44473 0.99577 0.0
H460 H 0.92606 0.4626 0.95703 0.0
H461 H 0.02788 0.45672 0.9487 0.0
H462 H 0.03255 0.43887 0.98741 0.0
H463 H 0.07303 0.46909 0.97978 0.0
H464 H 0.01933 0.54495 0.0659 0.0
H465 H 0.02427 0.51268 0.11274 0.0
H466 H 0.99537 0.44344 0.0471 0.0
C467 C 0.98789 0.51541 0.94264 0.0
C468 C 0.99355 0.54379 0.93472 0.0
C469 C 0.00276 0.56324 0.96012 0.0
C470 C 0.00649 0.55463 0.99285 0.0
C471 C 0.00101 0.52651 -0.0002 0.0
C472 C 0.99193 0.50716 0.97547 0.0
C473 C 0.98878 0.47812 0.98955 0.0
C474 C 0.93341 0.46535 0.9837 0.0
C475 C 0.03321 0.45962 0.97553 0.0
C476 C 0.99778 0.48419 0.02556 0.0
C477 C 0.00454 0.51225 0.03091 0.0
C478 C 0.01398 0.52293 0.06207 0.0
C479 C 0.01674 0.50441 0.08851 0.0
C480 C 0.01021 0.47553 0.08362 0.0
C481 C 0.00044 0.46539 0.05167 0.0
H482 H 0.53364 0.49301 0.43296 0.0
H483 H 0.46238 0.41321 0.45597 0.0
H484 H 0.44494 0.429 0.51246 0.0
H485 H 0.59981 0.50199 0.5088 0.0
H486 H 0.58851 0.53885 0.51085 0.0
H487 H 0.59251 0.52191 0.47162 0.0
H488 H 0.4996 0.54141 0.45607 0.0
H489 H 0.49534 0.55845 0.49527 0.0
H490 H 0.44347 0.53491 0.48265 0.0
H491 H 0.439 0.45258 0.56709 0.0
H492 H 0.44516 0.48242 0.6161 0.0
H493 H 0.52018 0.54674 0.55734 0.0
C494 C 0.51389 0.47894 0.44975 0.0
C495 C 0.49933 0.45189 0.44001 0.0
C496 C 0.47392 0.43405 0.46285 0.0
C497 C 0.46372 0.44282 0.49499 0.0
C498 C 0.47905 0.46951 0.50388 0.0
C499 C 0.50347 0.48734 0.48194 0.0
C500 C 0.51762 0.51462 0.49805 0.0
C501 C 0.57821 0.51962 0.49729 0.0
C502 C 0.48718 0.53877 0.48206 0.0
C503 C 0.49801 0.50917 0.53258 0.0
C504 C 0.47563 0.48311 0.5354 0.0
C505 C 0.45611 0.47312 0.56516 0.0
C506 C 0.45985 0.4902 0.59286 0.0
C507 C 0.48304 0.51692 0.59056 0.0
C508 C 0.50194 0.5265 0.5599 0.0
H509 H 0.54126 0.00051 0.5744 0.0
H510 H 0.50295 0.92062 0.5314 0.0
H511 H 0.48379 0.94358 0.47858 0.0
H512 H 0.44017 0.03962 0.53303 0.0
H513 H 0.48154 0.06985 0.52751 0.0
H514 H 0.49267 0.04708 0.56187 0.0
H515 H 0.5912 0.04085 0.54412 0.0
H516 H 0.58039 0.0636 0.5097 0.0
H517 H 0.60605 0.02915 0.50315 0.0
H518 H 0.46885 0.97519 0.4305 0.0
H519 H 0.45871 0.01331 0.39054 0.0
H520 H 0.50645 0.07249 0.46514 0.0
C521 C 0.52884 0.98781 0.55391 0.0
C522 C 0.52359 0.95876 0.55704 0.0
C523 C 0.50729 0.94291 0.52958 0.0
C524 C 0.49631 0.95575 0.49947 0.0
C525 C 0.50189 0.98442 0.49724 0.0
C526 C 0.51778 0.00026 0.52369 0.0
C527 C 0.52067 0.03071 0.5148 0.0
C528 C 0.48141 0.04782 0.53553 0.0
C529 C 0.57799 0.04171 0.51814 0.0
C530 C 0.50358 0.02954 0.47926 0.0
C531 C 0.4931 0.00264 0.46957 0.0
C532 C 0.47692 0.99634 0.43778 0.0
C533 C 0.4713 0.01814 0.41527 0.0
C534 C 0.48169 0.04589 0.42472 0.0
C535 C 0.49803 0.05154 0.45717 0.0
loop_
_geom_bond_atom_site_label_1
_geom_bond_atom_site_label_2
_geom_bond_distance
_geom_bond_site_symmetry_2
_ccdc_geom_bond_type
C0 O1 1.160 1_455 S
C0 O7 1.185 . S
O1 C0 1.160 1_655 S
O2 Zn3 1.899 1_655 S
O2 C10 1.284 . S
Zn3 O2 1.899 1_455 S
Zn3 O4 2.032 . S
Zn3 O7 2.086 . S
Zn3 O12 1.977 . S
O4 Zn3 2.032 . S
O4 C8 1.278 . S
C5 O6 1.203 1_455 S
C5 O12 1.267 . S
O6 C5 1.203 1_655 S
O7 C0 1.185 . S
O7 Zn3 2.086 . S
C8 O4 1.278 . S
C8 O9 1.211 . S
O9 C8 1.211 . S
C10 O2 1.284 . S
C10 O11 1.273 . S
O11 C10 1.273 . S
O12 Zn3 1.977 . S
O12 C5 1.267 . S
C13 O14 1.160 . S
C13 O20 1.185 . S
O14 C13 1.160 . S
O15 Zn16 1.899 . S
O15 C23 1.284 . S
Zn16 O15 1.899 . S
Zn16 O17 2.032 1_455 S
Zn16 O20 2.086 . S
Zn16 O25 1.977 . S
O17 Zn16 2.032 1_655 S
O17 C21 1.278 . S
C18 O19 1.203 . S
C18 O25 1.267 . S
O19 C18 1.203 . S
O20 C13 1.185 . S
O20 Zn16 2.086 . S
C21 O17 1.278 . S
C21 O22 1.211 . S
O22 C21 1.211 . S
C23 O15 1.284 . S
C23 O24 1.273 . S
O24 C23 1.273 . S
O25 Zn16 1.977 . S
O25 C18 1.267 . S
C26 O27 1.160 1_455 S
C26 O33 1.185 . S
O27 C26 1.160 1_655 S
O28 Zn29 1.899 1_655 S
O28 C36 1.284 . S
Zn29 O28 1.899 1_455 S
Zn29 O30 2.032 . S
Zn29 O33 2.086 . S
Zn29 O38 1.977 . S
O30 Zn29 2.032 . S
O30 C34 1.278 . S
C31 O32 1.203 1_455 S
C31 O38 1.267 . S
O32 C31 1.203 1_655 S
O33 C26 1.185 . S
O33 Zn29 2.086 . S
C34 O30 1.278 . S
C34 O35 1.211 . S
O35 C34 1.211 . S
C36 O28 1.284 . S
C36 O37 1.273 . S
O37 C36 1.273 . S
O38 Zn29 1.977 . S
O38 C31 1.267 . S
C39 O40 1.160 . S
C39 O46 1.185 . S
O40 C39 1.160 . S
O41 Zn42 1.899 . S
O41 C49 1.284 . S
Zn42 O41 1.899 . S
Zn42 O43 2.032 1_455 S
Zn42 O46 2.086 . S
Zn42 O51 1.977 . S
O43 Zn42 2.032 1_655 S
O43 C47 1.278 . S
C44 O45 1.203 . S
C44 O51 1.267 . S
O45 C44 1.203 . S
O46 C39 1.185 . S
O46 Zn42 2.086 . S
C47 O43 1.278 . S
C47 O48 1.211 . S
O48 C47 1.211 . S
C49 O41 1.284 . S
C49 O50 1.273 . S
O50 C49 1.273 . S
O51 Zn42 1.977 . S
O51 C44 1.267 . S
C52 O53 1.160 . S
C52 O59 1.185 . S
O53 C52 1.160 . S
O54 Zn55 1.899 . S
O54 C62 1.284 . S
Zn55 O54 1.899 . S
Zn55 O56 2.032 . S
Zn55 O59 2.086 . S
Zn55 O64 1.977 . S
O56 Zn55 2.032 . S
O56 C60 1.278 . S
C57 O58 1.203 . S
C57 O64 1.267 . S
O58 C57 1.203 . S
O59 C52 1.185 . S
O59 Zn55 2.086 . S
C60 O56 1.278 . S
C60 O61 1.211 . S
O61 C60 1.211 . S
C62 O54 1.284 . S
C62 O63 1.273 . S
O63 C62 1.273 . S
O64 Zn55 1.977 . S
O64 C57 1.267 . S
C65 O66 1.160 . S
C65 O72 1.185 . S
O66 C65 1.160 . S
O67 Zn68 1.899 . S
O67 C75 1.284 . S
Zn68 O67 1.899 . S
Zn68 O69 2.032 . S
Zn68 O72 2.086 . S
Zn68 O77 1.977 . S
O69 Zn68 2.032 . S
O69 C73 1.278 . S
C70 O71 1.203 . S
C70 O77 1.267 . S
O71 C70 1.203 . S
O72 C65 1.185 . S
O72 Zn68 2.086 . S
C73 O69 1.278 . S
C73 O74 1.211 . S
O74 C73 1.211 . S
C75 O67 1.284 . S
C75 O76 1.273 . S
O76 C75 1.273 . S
O77 Zn68 1.977 . S
O77 C70 1.267 . S
C78 O79 1.160 . S
C78 O85 1.185 . S
O79 C78 1.160 . S
O80 Zn81 1.899 . S
O80 C88 1.284 . S
Zn81 O80 1.899 . S
Zn81 O82 2.032 . S
Zn81 O85 2.086 . S
Zn81 O90 1.977 . S
O82 Zn81 2.032 . S
O82 C86 1.278 . S
C83 O84 1.203 . S
C83 O90 1.267 . S
O84 C83 1.203 . S
O85 C78 1.185 . S
O85 Zn81 2.086 . S
C86 O82 1.278 . S
C86 O87 1.211 . S
O87 C86 1.211 . S
C88 O80 1.284 . S
C88 O89 1.273 . S
O89 C88 1.273 . S
O90 Zn81 1.977 . S
O90 C83 1.267 . S
C91 O92 1.160 . S
C91 O98 1.185 . S
O92 C91 1.160 . S
O93 Zn94 1.899 . S
O93 C101 1.284 . S
Zn94 O93 1.899 . S
Zn94 O95 2.032 . S
Zn94 O98 2.086 . S
Zn94 O103 1.977 . S
O95 Zn94 2.032 . S
O95 C99 1.278 . S
C96 O97 1.203 . S
C96 O103 1.267 . S
O97 C96 1.203 . S
O98 C91 1.185 . S
O98 Zn94 2.086 . S
C99 O95 1.278 . S
C99 O100 1.211 . S
O100 C99 1.211 . S
C101 O93 1.284 . S
C101 O102 1.273 . S
O102 C101 1.273 . S
O103 Zn94 1.977 . S
O103 C96 1.267 . S
H104 C116 0.930 1_655 S
H105 C118 0.930 . S
H106 C119 0.930 . S
H107 C123 0.959 . S
H108 C123 0.959 . S
H109 C123 0.961 . S
H110 C124 0.960 . S
H111 C124 0.961 . S
H112 C124 0.959 . S
H113 C127 0.929 . S
H114 C128 0.931 . S
H115 C130 0.930 1_655 S
C116 H104 0.930 1_455 S
C116 C117 1.399 . S
C116 C121 1.399 . S
C117 C116 1.399 . S
C117 C118 1.376 . S
C118 H105 0.930 . S
C118 C117 1.376 . S
C118 C119 1.388 . S
C119 H106 0.930 . S
C119 C118 1.388 . S
C119 C120 1.390 . S
C120 C119 1.390 . S
C120 C121 1.394 . S
C120 C126 1.465 . S
C121 C116 1.399 . S
C121 C120 1.394 . S
C121 C122 1.516 . S
C122 C121 1.516 . S
C122 C123 1.502 1_455 S
C122 C124 1.561 . S
C122 C125 1.526 . S
C123 H107 0.959 . S
C123 H108 0.959 . S
C123 H109 0.961 . S
C123 C122 1.502 1_655 S
C124 H110 0.960 . S
C124 H111 0.961 . S
C124 H112 0.959 . S
C124 C122 1.561 . S
C125 C122 1.526 . S
C125 C126 1.396 . S
C125 C130 1.390 . S
C126 C120 1.465 . S
C126 C125 1.396 . S
C126 C127 1.399 . S
C127 H113 0.929 . S
C127 C126 1.399 . S
C127 C128 1.385 . S
C128 H114 0.931 . S
C128 C127 1.385 . S
C128 C129 1.389 . S
C129 C128 1.389 . S
C129 C130 1.387 . S
C130 H115 0.930 1_455 S
C130 C125 1.390 . S
C130 C129 1.387 . S
H131 C143 0.930 . S
H132 C145 0.930 . S
H133 C146 0.930 . S
H134 C150 0.959 . S
H135 C150 0.959 . S
H136 C150 0.961 . S
H137 C151 0.960 1_455 S
H138 C151 0.961 1_455 S
H139 C151 0.959 . S
H140 C154 0.929 . S
H141 C155 0.931 . S
H142 C157 0.930 . S
C143 H131 0.930 . S
C143 C144 1.399 . S
C143 C148 1.399 . S
C144 C143 1.399 . S
C144 C145 1.376 1_455 S
C145 H132 0.930 . S
C145 C144 1.376 1_655 S
C145 C146 1.388 . S
C146 H133 0.930 . S
C146 C145 1.388 . S
C146 C147 1.390 . S
C147 C146 1.390 . S
C147 C148 1.394 1_655 S
C147 C153 1.465 . S
C148 C143 1.399 . S
C148 C147 1.394 1_455 S
C148 C149 1.516 . S
C149 C148 1.516 . S
C149 C150 1.502 . S
C149 C151 1.561 1_455 S
C149 C152 1.526 . S
C150 H134 0.959 . S
C150 H135 0.959 . S
C150 H136 0.961 . S
C150 C149 1.502 . S
C151 H137 0.960 1_655 S
C151 H138 0.961 1_655 S
C151 H139 0.959 . S
C151 C149 1.561 1_655 S
C152 C149 1.526 . S
C152 C153 1.396 1_455 S
C152 C157 1.390 . S
C153 C147 1.465 . S
C153 C152 1.396 1_655 S
C153 C154 1.399 . S
C154 H140 0.929 . S
C154 C153 1.399 . S
C154 C155 1.385 . S
C155 H141 0.931 . S
C155 C154 1.385 . S
C155 C156 1.389 1_655 S
C156 C155 1.389 1_455 S
C156 C157 1.387 . S
C157 H142 0.930 . S
C157 C152 1.390 . S
C157 C156 1.387 . S
H158 C170 0.930 . S
H159 C172 0.930 . S
H160 C173 0.930 . S
H161 C177 0.959 . S
H162 C177 0.959 . S
H163 C177 0.961 . S
H164 C178 0.960 . S
H165 C178 0.961 . S
H166 C178 0.959 . S
H167 C181 0.929 . S
H168 C182 0.931 . S
H169 C184 0.930 . S
C170 H158 0.930 . S
C170 C171 1.399 . S
C170 C175 1.399 . S
C171 C170 1.399 . S
C171 C172 1.376 . S
C172 H159 0.930 . S
C172 C171 1.376 . S
C172 C173 1.388 . S
C173 H160 0.930 . S
C173 C172 1.388 . S
C173 C174 1.390 . S
C174 C173 1.390 . S
C174 C175 1.394 . S
C174 C180 1.465 . S
C175 C170 1.399 . S
C175 C174 1.394 . S
C175 C176 1.516 . S
C176 C175 1.516 . S
C176 C177 1.502 . S
C176 C178 1.561 . S
C176 C179 1.526 . S
C177 H161 0.959 . S
C177 H162 0.959 . S
C177 H163 0.961 . S
C177 C176 1.502 . S
C178 H164 0.960 . S
C178 H165 0.961 . S
C178 H166 0.959 . S
C178 C176 1.561 . S
C179 C176 1.526 . S
C179 C180 1.396 . S
C179 C184 1.390 . S
C180 C174 1.465 . S
C180 C179 1.396 . S
C180 C181 1.399 . S
C181 H167 0.929 . S
C181 C180 1.399 . S
C181 C182 1.385 . S
C182 H168 0.931 . S
C182 C181 1.385 . S
C182 C183 1.389 . S
C183 C182 1.389 . S
C183 C184 1.387 . S
C184 H169 0.930 . S
C184 C179 1.390 . S
C184 C183 1.387 . S
H185 C197 0.930 . S
H186 C199 0.930 . S
H187 C200 0.930 . S
H188 C204 0.959 . S
H189 C204 0.959 . S
H190 C204 0.961 . S
H191 C205 0.960 . S
H192 C205 0.961 . S
H193 C205 0.959 . S
H194 C208 0.929 . S
H195 C209 0.931 . S
H196 C211 0.930 . S
C197 H185 0.930 . S
C197 C198 1.399 . S
C197 C202 1.399 . S
C198 C197 1.399 . S
C198 C199 1.376 . S
C199 H186 0.930 . S
C199 C198 1.376 . S
C199 C200 1.388 . S
C200 H187 0.930 . S
C200 C199 1.388 . S
C200 C201 1.390 . S
C201 C200 1.390 . S
C201 C202 1.394 . S
C201 C207 1.465 . S
C202 C197 1.399 . S
C202 C201 1.394 . S
C202 C203 1.516 . S
C203 C202 1.516 . S
C203 C204 1.502 . S
C203 C205 1.561 . S
C203 C206 1.526 . S
C204 H188 0.959 . S
C204 H189 0.959 . S
C204 H190 0.961 . S
C204 C203 1.502 . S
C205 H191 0.960 . S
C205 H192 0.961 . S
C205 H193 0.959 . S
C205 C203 1.561 . S
C206 C203 1.526 . S
C206 C207 1.396 . S
C206 C211 1.390 . S
C207 C201 1.465 . S
C207 C206 1.396 . S
C207 C208 1.399 . S
C208 H194 0.929 . S
C208 C207 1.399 . S
C208 C209 1.385 . S
C209 H195 0.931 . S
C209 C208 1.385 . S
C209 C210 1.389 . S
C210 C209 1.389 . S
C210 C211 1.387 . S
C211 H196 0.930 . S
C211 C206 1.390 . S
C211 C210 1.387 . S
H212 C224 0.930 . S
H213 C226 0.930 . S
H214 C227 0.930 . S
H215 C231 0.959 . S
H216 C231 0.959 . S
H217 C231 0.961 . S
H218 C232 0.960 . S
H219 C232 0.961 . S
H220 C232 0.959 . S
H221 C235 0.929 . S
H222 C236 0.931 . S
H223 C238 0.930 . S
C224 H212 0.930 . S
C224 C225 1.399 . S
C224 C229 1.399 . S
C225 C224 1.399 . S
C225 C226 1.376 . S
C226 H213 0.930 . S
C226 C225 1.376 . S
C226 C227 1.388 . S
C227 H214 0.930 . S
C227 C226 1.388 . S
C227 C228 1.390 . S
C228 C227 1.390 . S
C228 C229 1.394 . S
C228 C234 1.465 . S
C229 C224 1.399 . S
C229 C228 1.394 . S
C229 C230 1.516 . S
C230 C229 1.516 . S
C230 C231 1.502 . S
C230 C232 1.561 . S
C230 C233 1.526 . S
C231 H215 0.959 . S
C231 H216 0.959 . S
C231 H217 0.961 . S
C231 C230 1.502 . S
C232 H218 0.960 . S
C232 H219 0.961 . S
C232 H220 0.959 . S
C232 C230 1.561 . S
C233 C230 1.526 . S
C233 C234 1.396 . S
C233 C238 1.390 . S
C234 C228 1.465 . S
C234 C233 1.396 . S
C234 C235 1.399 . S
C235 H221 0.929 . S
C235 C234 1.399 . S
C235 C236 1.385 . S
C236 H222 0.931 . S
C236 C235 1.385 . S
C236 C237 1.389 . S
C237 C236 1.389 . S
C237 C238 1.387 . S
C238 H223 0.930 . S
C238 C233 1.390 . S
C238 C237 1.387 . S
H239 C251 0.930 . S
H240 C253 0.930 . S
H241 C254 0.930 . S
H242 C258 0.959 . S
H243 C258 0.959 . S
H244 C258 0.961 . S
H245 C259 0.960 . S
H246 C259 0.961 . S
H247 C259 0.959 . S
H248 C262 0.929 . S
H249 C263 0.931 . S
H250 C265 0.930 . S
C251 H239 0.930 . S
C251 C252 1.399 . S
C251 C256 1.399 . S
C252 C251 1.399 . S
C252 C253 1.376 . S
C253 H240 0.930 . S
C253 C252 1.376 . S
C253 C254 1.388 . S
C254 H241 0.930 . S
C254 C253 1.388 . S
C254 C255 1.390 . S
C255 C254 1.390 . S
C255 C256 1.394 . S
C255 C261 1.465 . S
C256 C251 1.399 . S
C256 C255 1.394 . S
C256 C257 1.516 . S
C257 C256 1.516 . S
C257 C258 1.502 . S
C257 C259 1.561 . S
C257 C260 1.526 . S
C258 H242 0.959 . S
C258 H243 0.959 . S
C258 H244 0.961 . S
C258 C257 1.502 . S
C259 H245 0.960 . S
C259 H246 0.961 . S
C259 H247 0.959 . S
C259 C257 1.561 . S
C260 C257 1.526 . S
C260 C261 1.396 . S
C260 C265 1.390 . S
C261 C255 1.465 . S
C261 C260 1.396 . S
C261 C262 1.399 . S
C262 H248 0.929 . S
C262 C261 1.399 . S
C262 C263 1.385 . S
C263 H249 0.931 . S
C263 C262 1.385 . S
C263 C264 1.389 . S
C264 C263 1.389 . S
C264 C265 1.387 . S
C265 H250 0.930 . S
C265 C260 1.390 . S
C265 C264 1.387 . S
H266 C278 0.930 . S
H267 C280 0.930 . S
H268 C281 0.930 . S
H269 C285 0.959 . S
H270 C285 0.959 . S
H271 C285 0.961 . S
H272 C286 0.960 . S
H273 C286 0.961 . S
H274 C286 0.959 . S
H275 C289 0.929 . S
H276 C290 0.931 . S
H277 C292 0.930 . S
C278 H266 0.930 . S
C278 C279 1.399 . S
C278 C283 1.399 . S
C279 C278 1.399 . S
C279 C280 1.376 . S
C280 H267 0.930 . S
C280 C279 1.376 . S
C280 C281 1.388 . S
C281 H268 0.930 . S
C281 C280 1.388 . S
C281 C282 1.390 . S
C282 C281 1.390 . S
C282 C283 1.394 . S
C282 C288 1.465 . S
C283 C278 1.399 . S
C283 C282 1.394 . S
C283 C284 1.516 . S
C284 C283 1.516 . S
C284 C285 1.502 . S
C284 C286 1.561 . S
C284 C287 1.526 . S
C285 H269 0.959 . S
C285 H270 0.959 . S
C285 H271 0.961 . S
C285 C284 1.502 . S
C286 H272 0.960 . S
C286 H273 0.961 . S
C286 H274 0.959 . S
C286 C284 1.561 . S
C287 C284 1.526 . S
C287 C288 1.396 . S
C287 C292 1.390 . S
C288 C282 1.465 . S
C288 C287 1.396 . S
C288 C289 1.399 . S
C289 H275 0.929 . S
C289 C288 1.399 . S
C289 C290 1.385 . S
C290 H276 0.931 . S
C290 C289 1.385 . S
C290 C291 1.389 . S
C291 C290 1.389 . S
C291 C292 1.387 . S
C292 H277 0.930 . S
C292 C287 1.390 . S
C292 C291 1.387 . S
H293 C305 0.930 . S
H294 C307 0.930 . S
H295 C308 0.930 . S
H296 C312 0.959 . S
H297 C312 0.959 . S
H298 C312 0.961 . S
H299 C313 0.960 . S
H300 C313 0.961 . S
H301 C313 0.959 . S
H302 C316 0.929 . S
H303 C317 0.931 . S
H304 C319 0.930 . S
C305 H293 0.930 . S
C305 C306 1.399 . S
C305 C310 1.399 . S
C306 C305 1.399 . S
C306 C307 1.376 . S
C307 H294 0.930 . S
C307 C306 1.376 . S
C307 C308 1.388 . S
C308 H295 0.930 . S
C308 C307 1.388 . S
C308 C309 1.390 . S
C309 C308 1.390 . S
C309 C310 1.394 . S
C309 C315 1.465 . S
C310 C305 1.399 . S
C310 C309 1.394 . S
C310 C311 1.516 . S
C311 C310 1.516 . S
C311 C312 1.502 . S
C311 C313 1.561 . S
C311 C314 1.526 . S
C312 H296 0.959 . S
C312 H297 0.959 . S
C312 H298 0.961 . S
C312 C311 1.502 . S
C313 H299 0.960 . S
C313 H300 0.961 . S
C313 H301 0.959 . S
C313 C311 1.561 . S
C314 C311 1.526 . S
C314 C315 1.396 . S
C314 C319 1.390 . S
C315 C309 1.465 . S
C315 C314 1.396 . S
C315 C316 1.399 . S
C316 H302 0.929 . S
C316 C315 1.399 . S
C316 C317 1.385 . S
C317 H303 0.931 . S
C317 C316 1.385 . S
C317 C318 1.389 . S
C318 C317 1.389 . S
C318 C319 1.387 . S
C319 H304 0.930 . S
C319 C314 1.390 . S
C319 C318 1.387 . S
H320 C332 0.930 . S
H321 C334 0.930 . S
H322 C335 0.930 . S
H323 C339 0.959 . S
H324 C339 0.959 . S
H325 C339 0.961 . S
H326 C340 0.960 . S
H327 C340 0.961 . S
H328 C340 0.959 . S
H329 C343 0.929 . S
H330 C344 0.931 . S
H331 C346 0.930 . S
C332 H320 0.930 . S
C332 C333 1.399 . S
C332 C337 1.399 . S
C333 C332 1.399 . S
C333 C334 1.376 . S
C334 H321 0.930 . S
C334 C333 1.376 . S
C334 C335 1.388 . S
C335 H322 0.930 . S
C335 C334 1.388 . S
C335 C336 1.390 . S
C336 C335 1.390 . S
C336 C337 1.394 . S
C336 C342 1.465 . S
C337 C332 1.399 . S
C337 C336 1.394 . S
C337 C338 1.516 . S
C338 C337 1.516 . S
C338 C339 1.502 . S
C338 C340 1.561 . S
C338 C341 1.526 . S
C339 H323 0.959 . S
C339 H324 0.959 . S
C339 H325 0.961 . S
C339 C338 1.502 . S
C340 H326 0.960 . S
C340 H327 0.961 . S
C340 H328 0.959 . S
C340 C338 1.561 . S
C341 C338 1.526 . S
C341 C342 1.396 . S
C341 C346 1.390 . S
C342 C336 1.465 . S
C342 C341 1.396 . S
C342 C343 1.399 . S
C343 H329 0.929 . S
C343 C342 1.399 . S
C343 C344 1.385 . S
C344 H330 0.931 . S
C344 C343 1.385 . S
C344 C345 1.389 . S
C345 C344 1.389 . S
C345 C346 1.387 . S
C346 H331 0.930 . S
C346 C341 1.390 . S
C346 C345 1.387 . S
H347 C359 0.930 . S
H348 C361 0.930 . S
H349 C362 0.930 . S
H350 C366 0.959 . S
H351 C366 0.959 . S
H352 C366 0.961 . S
H353 C367 0.960 . S
H354 C367 0.961 . S
H355 C367 0.959 . S
H356 C370 0.929 . S
H357 C371 0.931 . S
H358 C373 0.930 . S
C359 H347 0.930 . S
C359 C360 1.399 . S
C359 C364 1.399 . S
C360 C359 1.399 . S
C360 C361 1.376 . S
C361 H348 0.930 . S
C361 C360 1.376 . S
C361 C362 1.388 . S
C362 H349 0.930 . S
C362 C361 1.388 . S
C362 C363 1.390 . S
C363 C362 1.390 . S
C363 C364 1.394 . S
C363 C369 1.465 . S
C364 C359 1.399 . S
C364 C363 1.394 . S
C364 C365 1.516 . S
C365 C364 1.516 . S
C365 C366 1.502 . S
C365 C367 1.561 . S
C365 C368 1.526 . S
C366 H350 0.959 . S
C366 H351 0.959 . S
C366 H352 0.961 . S
C366 C365 1.502 . S
C367 H353 0.960 . S
C367 H354 0.961 . S
C367 H355 0.959 . S
C367 C365 1.561 . S
C368 C365 1.526 . S
C368 C369 1.396 . S
C368 C373 1.390 . S
C369 C363 1.465 . S
C369 C368 1.396 . S
C369 C370 1.399 . S
C370 H356 0.929 . S
C370 C369 1.399 . S
C370 C371 1.385 . S
C371 H357 0.931 . S
C371 C370 1.385 . S
C371 C372 1.389 . S
C372 C371 1.389 . S
C372 C373 1.387 . S
C373 H358 0.930 . S
C373 C368 1.390 . S
C373 C372 1.387 . S
H374 C386 0.930 . S
H375 C388 0.930 . S
H376 C389 0.930 . S
H377 C393 0.959 . S
H378 C393 0.959 . S
H379 C393 0.961 . S
H380 C394 0.960 . S
H381 C394 0.961 . S
H382 C394 0.959 . S
H383 C397 0.929 . S
H384 C398 0.931 . S
H385 C400 0.930 . S
C386 H374 0.930 . S
C386 C387 1.399 . S
C386 C391 1.399 . S
C387 C386 1.399 . S
C387 C388 1.376 . S
C388 H375 0.930 . S
C388 C387 1.376 . S
C388 C389 1.388 . S
C389 H376 0.930 . S
C389 C388 1.388 . S
C389 C390 1.390 . S
C390 C389 1.390 . S
C390 C391 1.394 . S
C390 C396 1.465 . S
C391 C386 1.399 . S
C391 C390 1.394 . S
C391 C392 1.516 . S
C392 C391 1.516 . S
C392 C393 1.502 . S
C392 C394 1.561 . S
C392 C395 1.526 . S
C393 H377 0.959 . S
C393 H378 0.959 . S
C393 H379 0.961 . S
C393 C392 1.502 . S
C394 H380 0.960 . S
C394 H381 0.961 . S
C394 H382 0.959 . S
C394 C392 1.561 . S
C395 C392 1.526 . S
C395 C396 1.396 . S
C395 C400 1.390 . S
C396 C390 1.465 . S
C396 C395 1.396 . S
C396 C397 1.399 . S
C397 H383 0.929 . S
C397 C396 1.399 . S
C397 C398 1.385 . S
C398 H384 0.931 . S
C398 C397 1.385 . S
C398 C399 1.389 . S
C399 C398 1.389 . S
C399 C400 1.387 . S
C400 H385 0.930 . S
C400 C395 1.390 . S
C400 C399 1.387 . S
H401 C413 0.930 . S
H402 C415 0.930 . S
H403 C416 0.930 . S
H404 C420 0.959 . S
H405 C420 0.959 . S
H406 C420 0.961 . S
H407 C421 0.960 . S
H408 C421 0.961 . S
H409 C421 0.959 . S
H410 C424 0.929 . S
H411 C425 0.931 . S
H412 C427 0.930 . S
C413 H401 0.930 . S
C413 C414 1.399 . S
C413 C418 1.399 . S
C414 C413 1.399 . S
C414 C415 1.376 . S
C415 H402 0.930 . S
C415 C414 1.376 . S
C415 C416 1.388 . S
C416 H403 0.930 . S
C416 C415 1.388 . S
C416 C417 1.390 . S
C417 C416 1.390 . S
C417 C418 1.394 . S
C417 C423 1.465 . S
C418 C413 1.399 . S
C418 C417 1.394 . S
C418 C419 1.516 . S
C419 C418 1.516 . S
C419 C420 1.502 . S
C419 C421 1.561 . S
C419 C422 1.526 . S
C420 H404 0.959 . S
C420 H405 0.959 . S
C420 H406 0.961 . S
C420 C419 1.502 . S
C421 H407 0.960 . S
C421 H408 0.961 . S
C421 H409 0.959 . S
C421 C419 1.561 . S
C422 C419 1.526 . S
C422 C423 1.396 . S
C422 C427 1.390 . S
C423 C417 1.465 . S
C423 C422 1.396 . S
C423 C424 1.399 . S
C424 H410 0.929 . S
C424 C423 1.399 . S
C424 C425 1.385 . S
C425 H411 0.931 . S
C425 C424 1.385 . S
C425 C426 1.389 . S
C426 C425 1.389 . S
C426 C427 1.387 . S
C427 H412 0.930 . S
C427 C422 1.390 . S
C427 C426 1.387 . S
H428 C440 0.930 . S
H429 C442 0.930 . S
H430 C443 0.930 . S
H431 C447 0.959 . S
H432 C447 0.959 . S
H433 C447 0.961 . S
H434 C448 0.960 1_655 S
H435 C448 0.961 1_655 S
H436 C448 0.959 . S
H437 C451 0.929 . S
H438 C452 0.931 . S
H439 C454 0.942 . S
C440 H428 0.930 . S
C440 C441 1.399 1_655 S
C440 C445 1.399 1_655 S
C441 C440 1.399 1_455 S
C441 C442 1.376 . S
C442 H429 0.930 . S
C442 C441 1.376 . S
C442 C443 1.388 1_545 S
C443 H430 0.930 . S
C443 C442 1.388 1_565 S
C443 C444 1.390 1_565 S
C444 C443 1.390 1_545 S
C444 C445 1.394 . S
C444 C450 1.465 1_544 S
C445 C440 1.399 1_455 S
C445 C444 1.394 . S
C445 C446 1.516 1_454 S
C446 C445 1.516 1_656 S
C446 C447 1.502 . S
C446 C448 1.561 1_655 S
C446 C449 1.526 1_645 S
C447 H431 0.959 . S
C447 H432 0.959 . S
C447 H433 0.961 . S
C447 C446 1.502 . S
C448 H434 0.960 1_455 S
C448 H435 0.961 1_455 S
C448 H436 0.959 . S
C448 C446 1.561 1_455 S
C449 C446 1.526 1_465 S
C449 C450 1.396 . S
C449 C454 1.387 1_455 S
C450 C444 1.465 1_566 S
C450 C449 1.396 . S
C450 C451 1.399 . S
C451 H437 0.929 . S
C451 C450 1.399 . S
C451 C452 1.385 . S
C452 H438 0.931 . S
C452 C451 1.385 . S
C452 C453 1.389 . S
C453 C452 1.389 . S
C453 C454 1.378 1_455 S
C454 H439 0.942 . S
C454 C449 1.387 1_655 S
C454 C453 1.378 1_655 S
H455 C467 0.930 . S
H456 C469 0.930 . S
H457 C470 0.930 1_554 S
H458 C474 0.959 . S
H459 C474 0.959 . S
H460 C474 0.961 . S
H461 C475 0.960 . S
H462 C475 0.961 . S
H463 C475 0.959 . S
H464 C478 0.929 . S
H465 C479 0.931 . S
H466 C481 0.930 . S
C467 H455 0.930 . S
C467 C468 1.399 1_655 S
C467 C472 1.400 . S
C468 C467 1.399 1_455 S
C468 C469 1.376 . S
C469 H456 0.930 . S
C469 C468 1.376 . S
C469 C470 1.388 . S
C470 H457 0.930 1_556 S
C470 C469 1.388 . S
C470 C471 1.390 . S
C471 C470 1.390 . S
C471 C472 1.391 1_455 S
C471 C477 1.465 1_556 S
C472 C467 1.400 . S
C472 C471 1.391 1_655 S
C472 C473 1.518 . S
C473 C472 1.518 . S
C473 C474 1.502 . S
C473 C475 1.561 1_655 S
C473 C476 1.527 1_556 S
C474 H458 0.959 . S
C474 H459 0.959 . S
C474 H460 0.961 . S
C474 C473 1.502 . S
C475 H461 0.960 . S
C475 H462 0.961 . S
C475 H463 0.959 . S
C475 C473 1.561 1_455 S
C476 C473 1.527 1_554 S
C476 C477 1.393 1_655 S
C476 C481 1.391 . S
C477 C471 1.465 1_554 S
C477 C476 1.393 1_455 S
C477 C478 1.399 . S
C478 H464 0.929 . S
C478 C477 1.399 . S
C478 C479 1.385 . S
C479 H465 0.931 . S
C479 C478 1.385 . S
C479 C480 1.389 . S
C480 C479 1.389 . S
C480 C481 1.387 1_455 S
C481 H466 0.930 . S
C481 C476 1.391 . S
C481 C480 1.387 1_655 S
H482 C494 0.930 . S
H483 C496 0.930 . S
H484 C497 0.930 . S
H485 C501 0.959 . S
H486 C501 0.959 . S
H487 C501 0.961 . S
H488 C502 0.960 . S
H489 C502 0.961 . S
H490 C502 0.959 . S
H491 C505 0.929 . S
H492 C506 0.931 . S
H493 C508 0.930 . S
C494 H482 0.930 . S
C494 C495 1.399 . S
C494 C499 1.399 . S
C495 C494 1.399 . S
C495 C496 1.376 . S
C496 H483 0.930 . S
C496 C495 1.376 . S
C496 C497 1.388 . S
C497 H484 0.930 . S
C497 C496 1.388 . S
C497 C498 1.390 . S
C498 C497 1.390 . S
C498 C499 1.394 . S
C498 C504 1.465 . S
C499 C494 1.399 . S
C499 C498 1.394 . S
C499 C500 1.516 . S
C500 C499 1.516 . S
C500 C501 1.502 . S
C500 C502 1.561 . S
C500 C503 1.526 . S
C501 H485 0.959 . S
C501 H486 0.959 . S
C501 H487 0.961 . S
C501 C500 1.502 . S
C502 H488 0.960 . S
C502 H489 0.961 . S
C502 H490 0.959 . S
C502 C500 1.561 . S
C503 C500 1.526 . S
C503 C504 1.396 . S
C503 C508 1.390 . S
C504 C498 1.465 . S
C504 C503 1.396 . S
C504 C505 1.399 . S
C505 H491 0.929 . S
C505 C504 1.399 . S
C505 C506 1.385 . S
C506 H492 0.931 . S
C506 C505 1.385 . S
C506 C507 1.389 . S
C507 C506 1.389 . S
C507 C508 1.387 . S
C508 H493 0.930 . S
C508 C503 1.390 . S
C508 C507 1.387 . S
H509 C521 0.930 . S
H510 C523 0.930 . S
H511 C524 0.930 . S
H512 C528 0.959 . S
H513 C528 0.959 . S
H514 C528 0.961 . S
H515 C529 0.960 . S
H516 C529 0.961 . S
H517 C529 0.959 . S
H518 C532 0.929 . S
H519 C533 0.931 . S
H520 C535 0.930 . S
C521 H509 0.930 . S
C521 C522 1.399 . S
C521 C526 1.399 . S
C522 C521 1.399 . S
C522 C523 1.376 . S
C523 H510 0.930 . S
C523 C522 1.376 . S
C523 C524 1.388 . S
C524 H511 0.930 . S
C524 C523 1.388 . S
C524 C525 1.390 . S
C525 C524 1.390 . S
C525 C526 1.394 . S
C525 C531 1.465 1_565 S
C526 C521 1.399 . S
C526 C525 1.394 . S
C526 C527 1.516 . S
C527 C526 1.516 . S
C527 C528 1.502 1_565 S
C527 C529 1.561 . S
C527 C530 1.526 1_565 S
C528 H512 0.959 . S
C528 H513 0.959 . S
C528 H514 0.961 . S
C528 C527 1.502 1_545 S
C529 H515 0.960 . S
C529 H516 0.961 . S
C529 H517 0.959 . S
C529 C527 1.561 . S
C530 C527 1.526 1_545 S
C530 C531 1.396 . S
C530 C535 1.390 . S
C531 C525 1.465 1_545 S
C531 C530 1.396 . S
C531 C532 1.399 . S
C532 H518 0.929 . S
C532 C531 1.399 . S
C532 C533 1.385 . S
C533 H519 0.931 . S
C533 C532 1.385 . S
C533 C534 1.389 . S
C534 C533 1.389 . S
C534 C535 1.387 . S
C535 H520 0.930 . S
C535 C530 1.390 . S
C535 C534 1.387 . S
C117 C18 1.378 . S
C129 C5 1.386 . S
C144 C31 1.381 . S
C156 C44 1.391 . S
C171 C57 1.444 . S
C183 C70 1.436 . S
C198 C83 1.405 . S
C210 C96 1.394 . S
C225 C99 1.291 . S
C237 C8 1.306 . S
C252 C86 1.267 . S
C264 C21 1.259 . S
C279 C34 1.345 . S
C291 C73 1.336 . S
C306 C60 1.264 . S
C318 C47 1.257 . S
C333 C75 1.431 . S
C345 C36 1.412 . S
C360 C62 1.442 . S
C372 C49 1.420 . S
C387 C101 1.412 . S
C399 C10 1.426 . S
C414 C23 1.443 . S
C426 C88 1.428 . S
C441 C0 1.287 . S
C453 C26 1.292 . S
C468 C39 1.247 . S
C480 C13 1.240 . S
C495 C78 1.246 . S
C507 C52 1.239 . S
C522 C65 1.295 . S
C534 C91 1.292 . S
