# Generated by pormake.
# Topology smm, (6)-cn, num edge types: 1
# Building blocks:
#     Node 0, Type 0, BuildingBlock: BETFAJ_clean_sbu_0, # of connection points: 6
#     Node 1, Type 0, BuildingBlock: BETFAJ_clean_sbu_0, # of connection points: 6
#     Node 2, Type 0, BuildingBlock: BETFAJ_clean_sbu_0, # of connection points: 6
#     Node 3, Type 0, BuildingBlock: BETFAJ_clean_sbu_0, # of connection points: 6
#     Node 4, Type 0, BuildingBlock: BETFAJ_clean_sbu_0, # of connection points: 6
#     Node 5, Type 0, BuildingBlock: BETFAJ_clean_sbu_0, # of connection points: 6
#     Node 6, Type 0, BuildingBlock: BETFAJ_clean_sbu_0, # of connection points: 6
#     Node 7, Type 0, BuildingBlock: BETFAJ_clean_sbu_0, # of connection points: 6
#     Node 8, Type 0, BuildingBlock: BETFAJ_clean_sbu_0, # of connection points: 6
#     Edge 9, Type (0, 0), BuildingBlock: KIFKEQ_clean_linker_1, # of connection points: 2
#     Edge 10, Type (0, 0), BuildingBlock: KIFKEQ_clean_linker_1, # of connection points: 2
#     Edge 11, Type (0, 0), BuildingBlock: KIFKEQ_clean_linker_1, # of connection points: 2
#     Edge 12, Type (0, 0), BuildingBlock: KIFKEQ_clean_linker_1, # of connection points: 2
#     Edge 13, Type (0, 0), BuildingBlock: KIFKEQ_clean_linker_1, # of connection points: 2
#     Edge 14, Type (0, 0), BuildingBlock: KIFKEQ_clean_linker_1, # of connection points: 2
#     Edge 15, Type (0, 0), BuildingBlock: KIFKEQ_clean_linker_1, # of connection points: 2
#     Edge 16, Type (0, 0), BuildingBlock: KIFKEQ_clean_linker_1, # of connection points: 2
#     Edge 17, Type (0, 0), BuildingBlock: KIFKEQ_clean_linker_1, # of connection points: 2
#     Edge 18, Type (0, 0), BuildingBlock: KIFKEQ_clean_linker_1, # of connection points: 2
#     Edge 19, Type (0, 0), BuildingBlock: KIFKEQ_clean_linker_1, # of connection points: 2
#     Edge 20, Type (0, 0), BuildingBlock: KIFKEQ_clean_linker_1, # of connection points: 2
#     Edge 21, Type (0, 0), BuildingBlock: KIFKEQ_clean_linker_1, # of connection points: 2
#     Edge 22, Type (0, 0), BuildingBlock: KIFKEQ_clean_linker_1, # of connection points: 2
#     Edge 23, Type (0, 0), BuildingBlock: KIFKEQ_clean_linker_1, # of connection points: 2
#     Edge 24, Type (0, 0), BuildingBlock: KIFKEQ_clean_linker_1, # of connection points: 2
#     Edge 25, Type (0, 0), BuildingBlock: KIFKEQ_clean_linker_1, # of connection points: 2
#     Edge 26, Type (0, 0), BuildingBlock: KIFKEQ_clean_linker_1, # of connection points: 2
#     Edge 27, Type (0, 0), BuildingBlock: KIFKEQ_clean_linker_1, # of connection points: 2
#     Edge 28, Type (0, 0), BuildingBlock: KIFKEQ_clean_linker_1, # of connection points: 2
#     Edge 29, Type (0, 0), BuildingBlock: KIFKEQ_clean_linker_1, # of connection points: 2
#     Edge 30, Type (0, 0), BuildingBlock: KIFKEQ_clean_linker_1, # of connection points: 2
#     Edge 31, Type (0, 0), BuildingBlock: KIFKEQ_clean_linker_1, # of connection points: 2
#     Edge 32, Type (0, 0), BuildingBlock: KIFKEQ_clean_linker_1, # of connection points: 2
#     Edge 33, Type (0, 0), BuildingBlock: KIFKEQ_clean_linker_1, # of connection points: 2
#     Edge 34, Type (0, 0), BuildingBlock: KIFKEQ_clean_linker_1, # of connection points: 2
#     Edge 35, Type (0, 0), BuildingBlock: KIFKEQ_clean_linker_1, # of connection points: 2
# Relax obj value: 0.045
# Max RMSD: 0.123
# Mean RMSD: 0.123
data_MOF--net-smm--node1-BETFAJ_clean_sbu_0--edge1-KIFKEQ_clean_linker_1
_symmetry_space_group_name_H-M    P1
_symmetry_Int_Tables_number       1
_symmetry_cell_setting            triclinic
loop_
_symmetry_equiv_pos_as_xyz
'x, y, z'
_cell_length_a     71.894564
_cell_length_b     72.02713
_cell_length_c     14.554649
_cell_angle_alpha  89.95528
_cell_angle_beta   89.976703
_cell_angle_gamma 120.04051
loop_
_atom_site_label
_atom_site_type_symbol
_atom_site_fract_x
_atom_site_fract_y
_atom_site_fract_z
_atom_type_partial_charge
Sm0 Sm 0.05532 0.21514 0.98258 0.0
Sm1 Sm 1.01496 0.17164 0.03074 0.0
C2 C 0.08352 0.25152 0.90089 0.0
C3 C 0.09096 0.27471 0.88913 0.0
C4 C 0.07877 0.28189 0.8409 0.0
C5 C 0.08721 0.30382 0.82274 0.0
C6 C 0.108 0.31908 0.85235 0.0
C7 C 0.11996 0.31182 0.90192 0.0
C8 C 0.11157 0.28996 0.91978 0.0
C9 C 0.04962 0.20598 0.16674 0.0
C10 C 1.00923 0.21355 0.02982 0.0
C11 C 0.98556 0.13365 0.09624 0.0
C12 C 0.97764 0.11048 0.08449 0.0
C13 C 0.9681 0.09661 0.15926 0.0
C14 C 0.95949 0.07446 0.14915 0.0
C15 C 0.96019 0.06565 0.06375 0.0
C16 C 0.97002 0.07969 -0.01098 0.0
C17 C 0.97871 0.10188 -0.00066 0.0
C18 C 1.02198 0.18128 0.84673 0.0
C19 C 0.06211 0.17414 0.00583 0.0
O20 O 0.06526 0.23743 0.86339 0.0
O21 O 0.08708 0.24521 0.98004 0.0
O22 O 0.03488 0.20199 0.11 0.0
O23 O 0.06844 0.21717 0.12901 0.0
O24 O 1.0279 0.22358 -0.01425 0.0
O25 O 1.00215 0.19431 0.0662 0.0
O26 O 1.00453 0.14526 0.13356 0.0
O27 O 0.982 0.14348 0.02875 0.0
O28 O 0.03605 0.18435 0.90521 0.0
O29 O 1.00298 0.17164 0.88328 0.0
O30 O 0.04261 0.16402 0.04225 0.0
O31 O 0.06978 0.19312 0.96604 0.0
H32 H 0.06287 0.27058 0.81577 0.0
H33 H 0.07744 0.30881 0.78526 0.0
H34 H 0.13614 0.32298 0.92459 0.0
H35 H 0.12149 0.28492 0.95579 0.0
H36 H 0.96703 0.10289 0.22546 0.0
H37 H 0.95183 0.0642 0.20793 0.0
H38 H 0.97112 0.07354 0.92261 0.0
H39 H 0.98608 0.1123 0.94066 0.0
Sm40 Sm 0.8484 0.85578 -0.01448 0.0
Sm41 Sm 0.89181 0.85872 0.03388 0.0
C42 C 0.81245 0.84803 0.9012 0.0
C43 C 0.78978 0.83189 0.88132 0.0
C44 C 0.78199 0.83047 0.79172 0.0
C45 C 0.76024 0.81682 0.77162 0.0
C46 C 0.74567 0.80423 0.84086 0.0
C47 C 0.75364 0.8053 0.93039 0.0
C48 C 0.77547 0.81898 0.95043 0.0
C49 C 0.85751 0.85922 0.16962 0.0
C50 C 0.84966 0.81116 0.03215 0.0
C51 C 0.92974 0.86714 0.0995 0.0
C52 C 0.95296 0.88232 0.08722 0.0
C53 C 0.96694 0.88647 0.16136 0.0
C54 C 0.98912 0.89997 0.15063 0.0
C55 C 0.99786 0.90963 0.06525 0.0
C56 C 0.98371 0.90562 -0.00881 0.0
C57 C 0.96148 0.89214 0.00212 0.0
C58 C 0.88238 0.85637 0.84979 0.0
C59 C 0.88953 0.90351 0.01061 0.0
O60 O 0.82748 0.8457 0.86125 0.0
O61 O 0.81742 0.85557 -0.01504 0.0
O62 O 0.86139 0.84838 0.11299 0.0
O63 O 0.84654 0.86707 0.13171 0.0
O64 O 0.83975 0.8199 -0.01185 0.0
O65 O 0.86892 0.82322 0.06872 0.0
O66 O 0.91821 0.87459 0.13663 0.0
O67 O 0.91984 0.85372 0.03227 0.0
O68 O 0.87932 0.86731 0.90854 0.0
O69 O 0.8919 0.84692 0.88618 0.0
O70 O 0.8997 0.89404 0.04544 0.0
O71 O 0.87039 0.89233 0.97195 0.0
H72 H 0.79269 0.84037 0.73739 0.0
H73 H 0.75474 0.8167 0.70227 0.0
H74 H 0.74299 0.79563 -0.0148 0.0
H75 H 0.78105 0.8197 0.02017 0.0
H76 H 0.96071 0.87901 0.22751 0.0
H77 H 0.99948 0.90245 0.20889 0.0
H78 H 0.98981 0.91299 0.92483 0.0
H79 H 0.95097 0.88924 0.94396 0.0
Sm80 Sm 0.20802 1.00791 0.98207 0.0
Sm81 Sm 0.20499 0.04831 0.02929 0.0
C82 C 0.21589 0.97977 0.89846 0.0
C83 C 0.23205 0.97326 0.87913 0.0
C84 C 0.23364 0.96696 0.78963 0.0
C85 C 0.24728 0.95884 0.77004 0.0
C86 C 0.25972 0.95679 0.83969 0.0
C87 C 0.25849 0.96363 0.92913 0.0
C88 C 0.24481 0.97178 0.94867 0.0
C89 C 0.20429 1.01354 0.16581 0.0
C90 C 0.25261 0.05388 0.02919 0.0
C91 C 0.19643 0.07795 0.09101 0.0
C92 C 0.18156 0.08638 0.07549 0.0
C93 C 0.15963 0.07442 0.09857 0.0
C94 C 0.14623 0.08323 0.08746 0.0
C95 C 0.15442 0.10417 0.05283 0.0
C96 C 0.1763 0.11598 0.02902 0.0
C97 C 0.18969 0.10723 0.04057 0.0
C98 C 0.20752 0.0411 0.8455 0.0
C99 C 0.16019 1.00119 0.00732 0.0
O100 O 0.21831 0.99713 0.85827 0.0
O101 O 0.2082 0.97718 0.98204 0.0
O102 O 0.21523 0.0283 0.10931 0.0
O103 O 0.19654 0.99475 0.12806 0.0
O104 O 0.24396 0.03523 -0.01467 0.0
O105 O 0.24044 0.06097 0.06539 0.0
O106 O 0.18875 0.05899 0.12886 0.0
O107 O 0.21052 0.08156 0.02648 0.0
O108 O 0.19649 0.02714 0.90438 0.0
O109 O 0.217 0.06008 0.88158 0.0
O110 O 0.16967 1.02081 0.04208 0.0
O111 O 0.1714 0.99329 0.96843 0.0
H112 H 0.22385 0.9678 0.73498 0.0
H113 H 0.24751 0.95351 0.70074 0.0
H114 H 0.26804 0.96259 -0.01573 0.0
H115 H 0.24397 0.97658 0.01834 0.0
H116 H 0.15281 0.05831 0.12581 0.0
H117 H 0.12942 0.07359 0.10564 0.0
H118 H 0.18325 0.13224 0.00343 0.0
H119 H 0.20656 0.11692 0.02317 0.0
Sm120 Sm 0.72234 0.54856 0.31532 0.0
Sm121 Sm 0.68199 0.50498 0.36387 0.0
C122 C 0.75038 0.58463 0.23125 0.0
C123 C 0.75687 0.6073 0.21241 0.0
C124 C 0.76327 0.61533 0.12308 0.0
C125 C 0.77135 0.63709 0.10394 0.0
C126 C 0.77327 0.65144 0.17388 0.0
C127 C 0.76634 0.64323 0.26314 0.0
C128 C 0.75822 0.62139 0.28223 0.0
C129 C 0.71671 0.53935 0.49943 0.0
C130 C 0.6762 0.54687 0.36217 0.0
C131 C 0.65269 0.46698 0.42973 0.0
C132 C 0.64482 0.44381 0.41803 0.0
C133 C 0.63529 0.42993 0.49279 0.0
C134 C 0.62669 0.40778 0.48266 0.0
C135 C 0.6274 0.39897 0.39725 0.0
C136 C 0.63725 0.41302 0.32257 0.0
C137 C 0.64592 0.43522 0.33291 0.0
C138 C 0.68903 0.51453 0.17978 0.0
C139 C 0.72932 0.50769 0.33964 0.0
O140 O 0.73291 0.5697 0.19162 0.0
O141 O 0.75314 0.5795 0.31448 0.0
O142 O 0.70194 0.53537 0.44282 0.0
O143 O 0.73554 0.55047 0.46151 0.0
O144 O 0.69487 0.55687 0.3181 0.0
O145 O 0.66909 0.52763 0.39868 0.0
O146 O 0.67168 0.47864 0.46687 0.0
O147 O 0.64906 0.47676 0.36227 0.0
O148 O 0.70309 0.51768 0.23849 0.0
O149 O 0.67002 0.50484 0.21621 0.0
O150 O 0.70971 0.49741 0.37505 0.0
O151 O 0.73709 0.52678 0.30077 0.0
H152 H 0.76252 0.60481 0.06822 0.0
H153 H 0.77676 0.64277 0.03476 0.0
H154 H 0.76728 0.6537 0.3185 0.0
H155 H 0.75334 0.61563 0.35177 0.0
H156 H 0.6342 0.4362 0.55898 0.0
H157 H 0.61902 0.39751 0.54141 0.0
H158 H 0.63836 0.40688 0.25616 0.0
H159 H 0.65329 0.44564 0.27424 0.0
Sm160 Sm 0.51479 0.18915 0.31685 0.0
Sm161 Sm 0.55806 0.19179 0.36442 0.0
C162 C 0.47907 0.18215 0.2327 0.0
C163 C 0.45655 0.16649 0.20895 0.0
C164 C 0.44825 0.16914 0.12599 0.0
C165 C 0.42657 0.15588 0.10396 0.0
C166 C 0.4126 0.13958 0.16451 0.0
C167 C 0.42113 0.13648 0.24654 0.0
C168 C 0.44291 0.14986 0.26871 0.0
C169 C 0.52414 0.19283 0.50062 0.0
C170 C 0.51571 0.14441 0.36379 0.0
C171 C 0.59619 0.20003 0.42654 0.0
C172 C 0.61954 0.21476 0.4109 0.0
C173 C 0.6298 0.23645 0.43744 0.0
C174 C 0.65206 0.24969 0.42631 0.0
C175 C 0.66463 0.2416 0.38852 0.0
C176 C 0.65423 0.21996 0.36105 0.0
C177 C 0.63203 0.20673 0.37246 0.0
C178 C 0.54847 0.18945 0.18053 0.0
C179 C 0.55612 0.23677 0.34275 0.0
O180 O 0.4943 0.18037 0.1915 0.0
O181 O 0.48352 0.18835 0.31838 0.0
O182 O 0.5278 0.18177 0.44433 0.0
O183 O 0.51332 0.20083 0.4626 0.0
O184 O 0.50593 0.1532 0.31912 0.0
O185 O 0.53494 0.15644 0.40068 0.0
O186 O 0.58498 0.20781 0.46419 0.0
O187 O 0.58563 0.18596 0.36219 0.0
O188 O 0.5456 0.2005 0.23934 0.0
O189 O 0.5578 0.17981 0.21677 0.0
O190 O 0.56623 0.22718 0.37692 0.0
O191 O 0.53693 0.22571 0.3044 0.0
H192 H 0.45849 0.18182 0.07875 0.0
H193 H 0.4207 0.15851 0.03953 0.0
H194 H 0.41083 0.12416 0.29495 0.0
H195 H 0.44897 0.14749 0.33317 0.0
H196 H 0.62072 0.24316 0.46789 0.0
H197 H 0.65948 0.26617 0.44937 0.0
H198 H 0.66323 0.21319 0.33033 0.0
H199 H 0.62464 0.19008 0.35176 0.0
Sm200 Sm 0.87496 0.34196 0.31814 0.0
Sm201 Sm 0.8715 0.38204 0.36636 0.0
C202 C 0.88313 0.31381 0.23652 0.0
C203 C 0.89883 0.30629 0.22454 0.0
C204 C 0.91817 0.31837 0.17577 0.0
C205 C 0.93157 0.30985 0.1572 0.0
C206 C 0.92596 0.28906 0.18689 0.0
C207 C 0.90679 0.27722 0.23706 0.0
C208 C 0.89341 0.28571 0.25535 0.0
C209 C 0.8715 0.34757 0.50241 0.0
C210 C 0.91934 0.38804 0.36457 0.0
C211 C 0.86317 0.4115 0.43288 0.0
C212 C 0.84835 0.4199 0.42087 0.0
C213 C 0.84978 0.43574 0.48096 0.0
C214 C 0.83663 0.44475 0.46893 0.0
C215 C 0.82173 0.4381 0.39627 0.0
C216 C 0.82013 0.42191 0.33685 0.0
C217 C 0.83335 0.41291 0.34898 0.0
C218 C 0.87409 0.37514 0.18219 0.0
C219 C 0.82698 0.33494 0.34149 0.0
O220 O 0.88736 0.33208 0.19904 0.0
O221 O 0.87326 0.31025 0.31572 0.0
O222 O 0.88218 0.36231 0.44554 0.0
O223 O 0.86395 0.32881 0.46476 0.0
O224 O 0.91081 0.36947 0.3203 0.0
O225 O 0.90703 0.39488 0.4016 0.0
O226 O 0.85524 0.39228 0.46814 0.0
O227 O 0.87669 0.41512 0.36581 0.0
O228 O 0.8632 0.36105 0.24083 0.0
O229 O 0.88329 0.39409 0.21863 0.0
O230 O 0.83623 0.35434 0.37835 0.0
O231 O 0.83844 0.32747 0.30132 0.0
H232 H 0.9228 0.33426 0.15051 0.0
H233 H 0.94631 0.31953 0.11928 0.0
H234 H 0.90171 0.26106 0.25982 0.0
H235 H 0.87846 0.27587 0.29176 0.0
H236 H 0.86123 0.44131 0.53701 0.0
H237 H 0.83808 0.45686 0.51704 0.0
H238 H 0.80898 0.4165 0.27976 0.0
H239 H 0.83205 0.4007 0.30169 0.0
Sm240 Sm 0.38902 0.88193 0.64805 0.0
Sm241 Sm 0.34854 0.83845 0.69646 0.0
C242 C 0.41707 0.91799 0.56389 0.0
C243 C 0.42343 0.94062 0.54487 0.0
C244 C 0.42985 0.94866 0.45556 0.0
C245 C 0.43779 0.9704 0.43631 0.0
C246 C 0.43955 0.98472 0.5061 0.0
C247 C 0.43258 0.97649 0.59532 0.0
C248 C 0.4246 0.95468 0.61452 0.0
C249 C 0.38335 0.87273 0.83211 0.0
C250 C 0.34294 0.88043 0.69506 0.0
C251 C 0.31914 0.80046 0.76196 0.0
C252 C 0.31129 0.77731 0.75005 0.0
C253 C 0.30151 0.76335 0.82436 0.0
C254 C 0.29299 0.74122 0.81401 0.0
C255 C 0.29401 0.73251 0.72883 0.0
C256 C 0.30408 0.74663 0.65459 0.0
C257 C 0.31268 0.76881 0.66514 0.0
C258 C 0.35565 0.84802 0.51242 0.0
C259 C 0.39581 0.84094 0.67298 0.0
O260 O 0.39967 0.90298 0.52409 0.0
O261 O 0.41978 0.91291 0.64729 0.0
O262 O 0.36859 0.86881 0.7755 0.0
O263 O 0.40219 0.88378 0.79421 0.0
O264 O 0.36163 0.89039 0.65109 0.0
O265 O 0.33576 0.86117 0.73143 0.0
O266 O 0.33809 0.8121 0.79941 0.0
O267 O 0.31559 0.81028 0.69442 0.0
O268 O 0.36968 0.85108 0.57114 0.0
O269 O 0.33664 0.83843 0.54882 0.0
O270 O 0.37614 0.83074 0.70787 0.0
O271 O 0.40374 0.86007 0.6343 0.0
H272 H 0.42923 0.93818 0.40082 0.0
H273 H 0.44323 0.9761 0.36717 0.0
H274 H 0.43339 0.98693 0.65057 0.0
H275 H 0.41969 0.94891 0.68404 0.0
H276 H 0.30019 0.76955 0.89037 0.0
H277 H 0.28514 0.73089 0.87241 0.0
H278 H 0.30544 0.74056 0.58837 0.0
H279 H 0.32025 0.7793 0.60683 0.0
Sm280 Sm 0.18239 0.52275 0.65179 0.0
Sm281 Sm 0.2257 0.52558 0.70004 0.0
C282 C 0.1462 0.51502 0.56972 0.0
C283 C 0.12294 0.49957 0.55666 0.0
C284 C 0.11562 0.48052 0.50595 0.0
C285 C 0.0937 0.46754 0.48541 0.0
C286 C 0.07864 0.47338 0.51455 0.0
C287 C 0.08599 0.4921 0.56754 0.0
C288 C 0.10782 0.50503 0.58799 0.0
C289 C 0.19142 0.52607 0.83603 0.0
C290 C 0.18345 0.47806 0.69884 0.0
C291 C 0.26345 0.53357 0.76638 0.0
C292 C 0.28668 0.5484 0.75421 0.0
C293 C 0.30118 0.54702 0.81417 0.0
C294 C 0.32335 0.56023 0.80201 0.0
C295 C 0.33154 0.57514 0.72934 0.0
C296 C 0.31687 0.57669 0.67004 0.0
C297 C 0.29464 0.56342 0.68231 0.0
C298 C 0.21625 0.52314 0.51589 0.0
C299 C 0.22374 0.57041 0.67515 0.0
O300 O 0.16023 0.51076 0.53219 0.0
O301 O 0.15244 0.52465 0.64933 0.0
O302 O 0.19531 0.51527 0.77929 0.0
O303 O 0.18041 0.53386 0.79825 0.0
O304 O 0.17356 0.4868 0.65469 0.0
O305 O 0.2027 0.49015 0.73543 0.0
O306 O 0.25215 0.54143 0.80223 0.0
O307 O 0.25353 0.52021 0.69901 0.0
O308 O 0.21323 0.53415 0.57442 0.0
O309 O 0.22575 0.51369 0.55247 0.0
O310 O 0.23371 0.56093 0.71171 0.0
O311 O 0.20474 0.5592 0.63528 0.0
H312 H 0.12685 0.47591 0.48004 0.0
H313 H 0.08868 0.45334 0.44395 0.0
H314 H 0.07486 0.49692 0.59264 0.0
H315 H 0.11296 0.51966 0.62661 0.0
H316 H 0.29535 0.53557 0.87023 0.0
H317 H 0.33408 0.55882 0.85003 0.0
H318 H 0.32256 0.58784 0.61295 0.0
H319 H 0.28367 0.56469 0.63515 0.0
Sm320 Sm 0.54161 0.67489 0.64652 0.0
Sm321 Sm 0.53831 0.71515 0.69464 0.0
C322 C 0.54956 0.64684 0.56269 0.0
C323 C 0.56563 0.64019 0.54377 0.0
C324 C 0.56721 0.63383 0.45438 0.0
C325 C 0.58076 0.62558 0.43515 0.0
C326 C 0.59309 0.62344 0.50503 0.0
C327 C 0.59187 0.63033 0.59437 0.0
C328 C 0.57829 0.63862 0.61356 0.0
C329 C 0.53798 0.68049 0.83056 0.0
C330 C 0.58608 0.72093 0.69331 0.0
C331 C 0.52967 0.74446 0.76016 0.0
C332 C 0.51446 0.75246 0.74825 0.0
C333 C 0.51011 0.76196 0.82299 0.0
C334 C 0.49665 0.77067 0.81271 0.0
C335 C 0.48722 0.77011 0.72718 0.0
C336 C 0.49143 0.7603 0.6525 0.0
C337 C 0.50488 0.75152 0.66298 0.0
C338 C 0.54085 0.70813 0.51062 0.0
C339 C 0.49367 0.66791 0.67088 0.0
O340 O 0.55221 0.66433 0.52299 0.0
O341 O 0.54166 0.6441 0.64592 0.0
O342 O 0.54879 0.69524 0.77386 0.0
O343 O 0.5303 0.6617 0.7928 0.0
O344 O 0.57746 0.70231 0.6493 0.0
O345 O 0.57388 0.72799 0.72967 0.0
O346 O 0.52221 0.72546 0.79721 0.0
O347 O 0.54315 0.74807 0.69291 0.0
O348 O 0.52994 0.69409 0.56945 0.0
O349 O 0.55015 0.7271 0.54687 0.0
O350 O 0.50298 0.68747 0.70619 0.0
O351 O 0.50503 0.66019 0.632 0.0
H352 H 0.5575 0.63473 0.39955 0.0
H353 H 0.58099 0.62021 0.36591 0.0
H354 H 0.60134 0.62924 0.64969 0.0
H355 H 0.57743 0.64346 0.68315 0.0
H356 H 0.5174 0.76293 0.88928 0.0
H357 H 0.49403 0.7783 0.87146 0.0
H358 H 0.48425 0.7593 0.58599 0.0
H359 H 0.50794 0.74418 0.60432 0.0
H360 H 0.13287 0.35374 0.96226 0.0
H361 H 0.10497 0.33735 0.69097 0.0
H362 H 0.15039 0.39166 0.92276 0.0
H363 H 0.12253 0.37539 0.6514 0.0
H364 H 0.14261 0.44752 0.64574 0.0
H365 H 0.12348 0.40923 0.68252 0.0
H366 H 0.17942 0.41696 0.82665 0.0
H367 H 0.19833 0.45506 0.79144 0.0
C368 C 0.13052 0.3582 0.89397 0.0
C369 C 0.11758 0.34237 0.82972 0.0
C370 C 0.14062 0.38 0.87121 0.0
C371 C 0.1381 0.38667 0.78347 0.0
C372 C 0.12471 0.3709 0.71986 0.0
C373 C 0.1146 0.34904 0.74266 0.0
C374 C 0.15086 0.44103 0.68496 0.0
C375 C 0.17202 0.45449 0.71586 0.0
C376 C 0.1399 0.41903 0.70582 0.0
C377 C 0.1498 0.40996 0.75837 0.0
C378 C 0.17109 0.42339 0.78766 0.0
C379 C 0.18203 0.4453 0.76674 0.0
H380 H 0.7265 0.78013 0.68648 0.0
H381 H 0.71151 0.79796 0.94769 0.0
H382 H 0.68836 0.76031 0.64841 0.0
H383 H 0.67336 0.7774 0.91134 0.0
H384 H 0.60944 0.75989 0.77776 0.0
H385 H 0.64767 0.77924 0.81248 0.0
H386 H 0.65456 0.72885 0.68518 0.0
H387 H 0.61629 0.70965 0.64851 0.0
C388 C 0.71509 0.77977 0.73604 0.0
C389 C 0.7222 0.79079 0.8201 0.0
C390 C 0.69315 0.76819 0.71455 0.0
C391 C 0.67767 0.76729 0.77646 0.0
C392 C 0.68477 0.77797 0.86122 0.0
C393 C 0.7067 0.78954 0.88271 0.0
C394 C 0.61908 0.75293 0.75669 0.0
C395 C 0.60968 0.73315 0.7103 0.0
C396 C 0.64104 0.76398 0.77735 0.0
C397 C 0.65429 0.75558 0.75246 0.0
C398 C 0.64495 0.73594 0.70478 0.0
C399 C 0.62294 0.72488 0.68395 0.0
H400 H 0.28409 0.96174 0.68591 0.0
H401 H 0.26572 0.92885 0.94707 0.0
H402 H 0.3039 0.94342 0.64866 0.0
H403 H 0.28627 0.91126 0.91156 0.0
H404 H 0.30385 0.86488 0.77922 0.0
H405 H 0.28454 0.88377 0.81329 0.0
H406 H 0.33527 0.94101 0.68605 0.0
H407 H 0.35444 0.92193 0.65001 0.0
C408 C 0.28432 0.95067 0.73564 0.0
C409 C 0.27316 0.94675 0.81945 0.0
C410 C 0.29591 0.94031 0.71462 0.0
C411 C 0.29666 0.92571 0.77676 0.0
C412 C 0.28582 0.92212 0.86127 0.0
C413 C 0.27425 0.93247 0.88228 0.0
C414 C 0.3109 0.88148 0.75803 0.0
C415 C 0.33076 0.89183 0.71181 0.0
C416 C 0.29987 0.8924 0.77833 0.0
C417 C 0.30836 0.91403 0.75323 0.0
C418 C 0.3281 0.92432 0.70578 0.0
C419 C 0.33915 0.91337 0.68532 0.0
H420 H 0.38543 0.09615 0.18773 0.0
H421 H 0.38656 0.15356 0.09326 0.0
H422 H 0.34697 0.07524 0.15329 0.0
H423 H 0.34847 0.13268 0.05682 0.0
H424 H 0.27599 0.09374 0.10533 0.0
H425 H 0.31431 0.11374 0.1376 0.0
H426 H 0.32143 0.06242 0.02233 0.0
H427 H 0.28283 0.04216 -0.00931 0.0
C428 C 0.3775 0.10432 0.15968 0.0
C429 C 0.38916 0.12655 0.14316 0.0
C430 C 0.3555 0.0923 0.13903 0.0
C431 C 0.34458 0.10226 0.10225 0.0
C432 C 0.35627 0.12448 0.08586 0.0
C433 C 0.37821 0.13644 0.1059 0.0
C434 C 0.28566 0.08667 0.08647 0.0
C435 C 0.27623 0.0663 0.04516 0.0
C436 C 0.30772 0.09823 0.10466 0.0
C437 C 0.32103 0.08974 0.08247 0.0
C438 C 0.31164 0.06936 0.04113 0.0
C439 C 0.28952 0.05782 0.02233 0.0
H440 H 0.94692 0.29193 0.02466 0.0
H441 H 0.93579 0.2641 0.29615 0.0
H442 H 0.96723 0.27425 -0.01591 0.0
H443 H 0.95601 0.24645 0.25563 0.0
H444 H 0.97135 0.19859 0.12327 0.0
H445 H 0.95213 0.21745 0.15929 0.0
H446 H 1.0002 0.27332 0.01424 0.0
H447 H 1.01937 0.25426 0.97666 0.0
C448 C 0.94903 0.28229 0.07617 0.0
C449 C 0.93955 0.27938 0.16361 0.0
C450 C 0.96067 0.2721 0.0528 0.0
C451 C 0.96313 0.25871 0.11619 0.0
C452 C 0.95407 0.25623 0.20427 0.0
C453 C 0.94247 0.2664 0.22761 0.0
C454 C 0.97784 0.21486 0.09851 0.0
C455 C 0.997 0.22488 0.04716 0.0
C456 C 0.96686 0.22577 0.11989 0.0
C457 C 0.97468 0.24702 0.09058 0.0
C458 C 0.99361 0.25693 0.03754 0.0
C459 C 1.00466 0.24601 0.01622 0.0
H460 H 0.86514 0.78763 0.11617 0.0
H461 H 0.80813 0.78111 -0.01349 0.0
H462 H 0.84622 0.74941 0.14958 0.0
H463 H 0.789 0.74282 0.02187 0.0
H464 H 0.76841 0.67099 0.02043 0.0
H465 H 0.7867 0.70916 -0.01603 0.0
H466 H 0.81859 0.72347 0.24729 0.0
H467 H 0.80104 0.6853 0.28203 0.0
C468 C 0.84855 0.77807 0.09476 0.0
C469 C 0.83821 0.78756 0.0486 0.0
C470 C 0.8376 0.7561 0.11468 0.0
C471 C 0.81596 0.74293 0.08925 0.0
C472 C 0.80569 0.75236 0.04187 0.0
C473 C 0.81667 0.77438 0.02179 0.0
C474 C 0.77942 0.68225 0.07043 0.0
C475 C 0.78327 0.67493 0.15412 0.0
C476 C 0.78975 0.70422 0.04986 0.0
C477 C 0.80427 0.71951 0.11234 0.0
C478 C 0.8078 0.7122 0.19675 0.0
C479 C 0.79747 0.69026 0.21731 0.0
H480 H 0.05203 0.48824 0.45973 0.0
H481 H 0.0528 0.42942 0.50648 0.0
H482 H 1.0142 0.46772 0.41894 0.0
H483 H 1.01474 0.40877 0.46573 0.0
H484 H 0.95038 0.3787 0.30891 0.0
H485 H 0.98895 0.39903 0.34069 0.0
H486 H 0.98012 0.44571 0.49127 0.0
H487 H 0.94191 0.42579 0.45813 0.0
C488 C 0.04409 0.4709 0.4622 0.0
C489 C 0.0555 0.46053 0.4875 0.0
C490 C 1.02233 0.4591 0.43862 0.0
C491 C 1.01126 0.43653 0.43964 0.0
C492 C 1.02275 0.42611 0.46322 0.0
C493 C 0.0446 0.43796 0.48678 0.0
C494 C 0.9567 0.39337 0.34834 0.0
C495 C 0.94296 0.40059 0.38065 0.0
C496 C 0.97882 0.40496 0.36714 0.0
C497 C 0.98775 0.42408 0.4185 0.0
C498 C 0.97397 0.43128 0.45027 0.0
C499 C 0.95194 0.41974 0.43157 0.0
H500 H 0.59891 0.59544 0.61285 0.0
H501 H 0.61748 0.62823 0.35151 0.0
H502 H 0.61938 0.57773 0.57785 0.0
H503 H 0.63718 0.60979 0.31475 0.0
H504 H 0.68763 0.58831 0.31673 0.0
H505 H 0.66847 0.60739 0.35244 0.0
H506 H 0.61777 0.55021 0.48026 0.0
H507 H 0.63712 0.53132 0.44654 0.0
C508 C 0.60746 0.59901 0.54812 0.0
C509 C 0.60645 0.61331 0.4851 0.0
C510 C 0.61899 0.58859 0.5274 0.0
C511 C 0.62985 0.59213 0.443 0.0
C512 C 0.62917 0.60673 0.38065 0.0
C513 C 0.61764 0.61715 0.40138 0.0
C514 C 0.67235 0.57976 0.35209 0.0
C515 C 0.66399 0.55824 0.37883 0.0
C516 C 0.6613 0.59071 0.37236 0.0
C517 C 0.64157 0.58044 0.41984 0.0
C518 C 0.63309 0.55882 0.44524 0.0
C519 C 0.64414 0.5479 0.42515 0.0
H520 H 0.5311 0.12089 0.44847 0.0
H521 H 0.47417 0.11436 0.31788 0.0
H522 H 0.51217 0.08269 0.48204 0.0
H523 H 0.45501 0.07605 0.35336 0.0
H524 H 0.43466 1.00417 0.35234 0.0
H525 H 0.45281 0.04234 0.31585 0.0
H526 H 0.48448 0.05679 0.57968 0.0
H527 H 0.46707 1.01864 0.61447 0.0
C528 C 0.51451 0.11133 0.42691 0.0
C529 C 0.5042 0.12082 0.38044 0.0
C530 C 0.50356 0.08937 0.44691 0.0
C531 C 0.48194 0.07618 0.42127 0.0
C532 C 0.47169 0.0856 0.37356 0.0
C533 C 0.48268 0.10763 0.35341 0.0
C534 C 0.44559 1.01547 0.40245 0.0
C535 C 0.44943 1.00819 0.4863 0.0
C536 C 0.45584 0.03743 0.38186 0.0
C537 C 0.47026 0.05277 0.44446 0.0
C538 C 0.47376 0.0455 0.52904 0.0
C539 C 0.46351 0.02356 0.54963 0.0
H540 H 0.1533 0.12888 0.91151 0.0
H541 H 0.12381 0.10163 0.17292 0.0
H542 H 0.131 0.14545 0.89783 0.0
H543 H 0.10168 0.11837 0.15994 0.0
H544 H 0.05052 0.13401 0.06985 0.0
H545 H 0.07226 0.11687 0.07801 0.0
H546 H 0.12595 0.1734 0.96021 0.0
H547 H 0.10396 0.19038 0.9498 0.0
C548 C 0.14215 0.12653 0.96642 0.0
C549 C 0.14037 0.11388 0.04331 0.0
C550 C 0.12937 0.13609 0.95868 0.0
C551 C 0.11448 0.13333 0.02777 0.0
C552 C 0.11266 0.12059 0.1045 0.0
C553 C 0.12538 0.11097 0.11204 0.0
C554 C 0.06694 0.14282 0.0454 0.0
C555 C 0.07544 0.16364 0.0092 0.0
C556 C 0.0795 0.133 0.05067 0.0
C557 C 0.10097 0.14372 0.02021 0.0
C558 C 0.10942 0.1645 -0.01668 0.0
C559 C 0.09683 0.17431 0.97779 0.0
H560 H 0.87379 0.92937 0.95284 0.0
H561 H 0.92953 0.93183 0.07739 0.0
H562 H 0.89104 0.96835 0.96376 0.0
H563 H 0.94687 0.97071 0.08649 0.0
H564 H 0.96154 0.037 0.18419 0.0
H565 H 0.94443 0.9982 0.16965 0.0
H566 H 0.92008 1.00157 0.90265 0.0
H567 H 0.93655 0.04038 0.9188 0.0
C568 C 0.88976 0.93819 0.98201 0.0
C569 C 0.90018 0.92735 0.01451 0.0
C570 C 0.89973 0.96061 -0.01218 0.0
C571 C 0.92037 0.97278 0.0263 0.0
C572 C 0.93085 0.96191 0.05784 0.0
C573 C 0.9209 0.93954 0.05208 0.0
C574 C 0.95241 0.02949 0.1226 0.0
C575 C 0.95042 0.04192 0.05283 0.0
C576 C 0.94278 1.0072 0.11376 0.0
C577 C 0.93084 0.99663 0.03488 0.0
C578 C 0.92894 1.00907 0.9648 0.0
C579 C 0.93863 0.0314 0.97357 0.0
H580 H 1.02677 0.93944 0.18545 0.0
H581 H 1.02291 0.9114 0.91898 0.0
H582 H 0.06563 0.96114 0.16965 0.0
H583 H 0.06179 0.93374 0.90163 0.0
H584 H 0.1342 0.95962 0.94952 0.0
H585 H 0.09515 0.93784 0.96155 0.0
H586 H 0.093 0.99119 0.08561 0.0
H587 H 0.13193 1.01277 0.07535 0.0
C588 C 0.03419 0.9379 0.12337 0.0
C589 C 1.02162 0.92357 0.05365 0.0
C590 C 0.05651 0.95056 0.11381 0.0
C591 C 0.06695 0.94927 0.03426 0.0
C592 C 0.05438 0.93503 0.96426 0.0
C593 C 1.03201 0.92239 0.97374 0.0
C594 C 0.12541 0.96673 0.97921 0.0
C595 C 0.13632 0.98797 0.01174 0.0
C596 C 0.10296 0.95425 -0.01434 0.0
C597 C 0.09083 0.96268 0.02488 0.0
C598 C 0.10177 0.984 0.05641 0.0
C599 C 0.12417 0.99645 0.04999 0.0
H600 H 0.7707 0.52357 0.27805 0.0
H601 H 0.71841 0.46812 0.40907 0.0
H602 H 0.79275 0.50662 0.28634 0.0
H603 H 0.74056 0.45141 0.41881 0.0
H604 H 0.77912 0.41874 0.34692 0.0
H605 H 0.75695 0.43535 0.32745 0.0
H606 H 0.81124 0.49695 0.39834 0.0
H607 H 0.83355 0.48052 0.41438 0.0
C608 C 0.76388 0.50778 0.30866 0.0
C609 C 0.74274 0.49728 0.34298 0.0
C610 C 0.77659 0.49809 0.3139 0.0
C611 C 0.7685 0.47762 0.35343 0.0
C612 C 0.74728 0.46704 0.38685 0.0
C613 C 0.73459 0.47673 0.38178 0.0
C614 C 0.7864 0.43587 0.35728 0.0
C615 C 0.80815 0.44823 0.38261 0.0
C616 C 0.77361 0.44537 0.3471 0.0
C617 C 0.78224 0.46752 0.3616 0.0
C618 C 0.80405 0.47991 0.38571 0.0
C619 C 0.81681 0.4704 0.39608 0.0
H620 H 0.60379 0.37378 0.25209 0.0
H621 H 0.62861 0.37023 0.51765 0.0
H622 H 0.58722 0.33496 0.23577 0.0
H623 H 0.6114 0.33141 0.50292 0.0
H624 H 0.59613 0.26489 0.41024 0.0
H625 H 0.61365 0.30378 0.41982 0.0
H626 H 0.55805 0.30184 0.29669 0.0
H627 H 0.54063 0.26286 0.28532 0.0
C628 C 0.60582 0.36476 0.30687 0.0
C629 C 0.61759 0.37523 0.38623 0.0
C630 C 0.59607 0.34242 0.29799 0.0
C631 C 0.59787 0.32993 0.36807 0.0
C632 C 0.60981 0.34045 0.44703 0.0
C633 C 0.61951 0.36275 0.45598 0.0
C634 C 0.58759 0.2727 0.38495 0.0
C635 C 0.56688 0.26062 0.34711 0.0
C636 C 0.59764 0.29507 0.39098 0.0
C637 C 0.58729 0.30606 0.35942 0.0
C638 C 0.56665 0.294 0.32074 0.0
C639 C 0.55658 0.27159 0.31469 0.0
H640 H 0.68792 0.2842 0.33933 0.0
H641 H 0.6956 0.23052 0.41705 0.0
H642 H 0.72683 0.3067 0.32533 0.0
H643 H 0.73441 0.25295 0.4022 0.0
H644 H 0.80172 0.29361 0.28014 0.0
H645 H 0.76268 0.27138 0.28837 0.0
H646 H 0.75912 0.32326 0.41967 0.0
H647 H 0.79805 0.3456 0.41025 0.0
C648 C 0.69786 0.27719 0.35405 0.0
C649 C 0.68848 0.25546 0.37921 0.0
C650 C 0.72022 0.29012 0.34587 0.0
C651 C 0.73382 0.28167 0.3624 0.0
C652 C 0.72445 0.25994 0.38735 0.0
C653 C 0.70213 0.24704 0.39581 0.0
C654 C 0.79263 0.30033 0.3105 0.0
C655 C 0.80313 0.32143 0.34461 0.0
C656 C 0.77022 0.28751 0.31573 0.0
C657 C 0.75768 0.29547 0.35489 0.0
C658 C 0.76818 0.31666 0.38809 0.0
C659 C 0.79059 0.32944 0.38316 0.0
H660 H 0.45716 0.76882 0.84731 0.0
H661 H 0.48581 0.79389 0.58221 0.0
H662 H 0.43554 0.78603 0.83251 0.0
H663 H 0.46354 0.81047 0.56578 0.0
H664 H 0.43753 0.85671 0.6155 0.0
H665 H 0.4593 0.83946 0.62666 0.0
H666 H 0.40566 0.78366 0.74888 0.0
H667 H 0.3841 0.80099 0.73955 0.0
C668 C 0.45885 0.77799 0.78573 0.0
C669 C 0.47333 0.77997 0.71611 0.0
C670 C 0.44624 0.78769 0.77674 0.0
C671 C 0.44771 0.79967 0.69784 0.0
C672 C 0.46211 0.80157 0.62793 0.0
C673 C 0.4747 0.79182 0.63687 0.0
C674 C 0.43036 0.84074 0.64461 0.0
C675 C 0.40904 0.83033 0.67691 0.0
C676 C 0.44283 0.83078 0.65056 0.0
C677 C 0.43432 0.81015 0.68901 0.0
C678 C 0.41292 0.79968 0.7203 0.0
C679 C 0.40048 0.80961 0.7144 0.0
H680 H 0.20821 0.59627 0.61487 0.0
H681 H 0.26357 0.59874 0.74334 0.0
H682 H 0.22541 0.63525 0.6257 0.0
H683 H 0.28087 0.63762 0.75241 0.0
H684 H 0.29504 0.70379 0.84989 0.0
H685 H 0.27808 0.66501 0.83483 0.0
H686 H 0.25462 0.66856 0.566 0.0
H687 H 0.27094 0.70735 0.58261 0.0
C688 C 0.2241 0.6051 0.64485 0.0
C689 C 0.23441 0.59426 0.67854 0.0
C690 C 0.23403 0.62751 0.65062 0.0
C691 C 0.25455 0.63968 0.69027 0.0
C692 C 0.26494 0.62882 0.72286 0.0
C693 C 0.25502 0.60645 0.71713 0.0
C694 C 0.28614 0.69632 0.78777 0.0
C695 C 0.28435 0.70879 0.71763 0.0
C696 C 0.2766 0.67404 0.77864 0.0
C697 C 0.26495 0.66353 0.69909 0.0
C698 C 0.26326 0.67601 0.62864 0.0
C699 C 0.27286 0.69833 0.6377 0.0
H700 H 0.46823 0.62662 0.60945 0.0
H701 H 0.4649 0.67868 0.74059 0.0
H702 H 0.42921 0.6045 0.61823 0.0
H703 H 0.42598 0.65644 0.75083 0.0
H704 H 0.35461 0.61769 0.67985 0.0
H705 H 0.39343 0.63997 0.65991 0.0
H706 H 0.40112 0.58596 0.73074 0.0
H707 H 0.36235 0.56353 0.74721 0.0
C708 C 0.45922 0.63338 0.64019 0.0
C709 C 0.46981 0.65447 0.67442 0.0
C710 C 0.4368 0.62062 0.64571 0.0
C711 C 0.42436 0.62862 0.68544 0.0
C712 C 0.43496 0.6498 0.71873 0.0
C713 C 0.45736 0.66253 0.71338 0.0
C714 C 0.36455 0.61049 0.6901 0.0
C715 C 0.35527 0.58879 0.71552 0.0
C716 C 0.38687 0.62335 0.67965 0.0
C717 C 0.4005 0.61483 0.69398 0.0
C718 C 0.39117 0.59306 0.71823 0.0
C719 C 0.3689 0.58024 0.72885 0.0
H720 H 0.05848 0.19019 0.75525 0.0
H721 H 0.99523 0.18183 0.71617 0.0
H722 H 0.0652 0.19558 0.59081 0.0
H723 H 1.00228 0.18849 0.55212 0.0
H724 H 1.01194 0.17934 0.25249 0.0
H725 H 1.00549 0.17315 0.41678 0.0
H726 H 0.07235 0.21918 0.46925 0.0
H727 H 0.07891 0.22421 0.30443 0.0
C728 C 0.04612 0.18977 0.71129 0.0
C729 C 1.0263 0.18548 0.74791 0.0
C730 C 0.05 0.19302 0.61703 0.0
C731 C 0.03429 0.19245 0.55757 0.0
C732 C 1.01459 0.18857 0.59515 0.0
C733 C 1.01058 0.18492 0.68924 0.0
C734 C 1.02525 0.18796 0.29939 0.0
C735 C 0.04592 0.20217 0.2661 0.0
C736 C 1.02154 0.18462 0.39369 0.0
C737 C 0.03835 0.19575 0.4569 0.0
C738 C 0.05906 0.21002 0.42297 0.0
C739 C 0.06284 0.21304 0.3285 0.0
H740 H 0.88162 0.82906 0.71909 0.0
H741 H 0.87362 0.88404 0.75838 0.0
H742 H 0.87491 0.82945 0.55519 0.0
H743 H 0.86819 0.88539 0.59397 0.0
H744 H 0.83955 0.8706 0.30745 0.0
H745 H 0.84463 0.86915 0.47227 0.0
H746 H 0.89023 0.84783 0.41957 0.0
H747 H 0.88397 0.84801 0.25539 0.0
C748 C 0.8786 0.84134 0.69224 0.0
C749 C 0.87816 0.85653 0.75096 0.0
C750 C 0.87493 0.84172 0.59818 0.0
C751 C 0.87114 0.85756 0.56061 0.0
C752 C 0.87068 0.87272 0.62013 0.0
C753 C 0.87396 0.87208 0.71439 0.0
C754 C 0.85064 0.86561 0.33147 0.0
C755 C 0.86136 0.85939 0.26901 0.0
C756 C 0.85368 0.86489 0.42596 0.0
C757 C 0.86784 0.85833 0.45988 0.0
C758 C 0.87884 0.8525 0.39658 0.0
C759 C 0.87545 0.85282 0.30229 0.0
H760 H 0.17978 1.00461 0.7548 0.0
H761 H 0.23477 0.06768 0.71441 0.0
H762 H 0.17829 0.99785 0.59035 0.0
H763 H 0.23422 0.06061 0.55043 0.0
H764 H 0.2151 0.05106 0.25143 0.0
H765 H 0.21539 0.05744 0.41574 0.0
H766 H 0.19471 0.99072 0.46831 0.0
H767 H 0.19318 0.98423 0.30348 0.0
C768 C 0.19171 1.01693 0.71056 0.0
C769 C 0.20731 0.03671 0.74678 0.0
C770 C 0.19098 1.01302 0.61631 0.0
C771 C 0.2061 0.02869 0.55652 0.0
C772 C 0.222 0.04834 0.59373 0.0
C773 C 0.22246 0.05237 0.68778 0.0
C774 C 0.21046 0.03777 0.29836 0.0
C775 C 0.20407 1.01717 0.26512 0.0
C776 C 0.21083 0.04144 0.39265 0.0
C777 C 0.20522 0.02464 0.45588 0.0
C778 C 0.1988 1.00399 0.422 0.0
C779 C 0.19804 1.00026 0.32753 0.0
H780 H 0.67906 0.51269 0.58536 0.0
H781 H 0.74604 0.5575 0.63715 0.0
H782 H 0.67263 0.50646 0.74962 0.0
H783 H 0.73951 0.55244 0.80201 0.0
H784 H 0.72561 0.52359 0.08846 0.0
H785 H 0.73238 0.529 0.92402 0.0
H786 H 0.66937 0.52168 0.88495 0.0
H787 H 0.66229 0.51499 0.04894 0.0
C788 C 0.69238 0.5213 0.63222 0.0
C789 C 0.71304 0.5355 0.59885 0.0
C790 C 0.68868 0.51793 0.72654 0.0
C791 C 0.7055 0.52904 0.78977 0.0
C792 C 0.72621 0.5433 0.75576 0.0
C793 C 0.72997 0.54633 0.66124 0.0
C794 C 0.71324 0.52312 0.04441 0.0
C795 C 0.69339 0.51875 0.08093 0.0
C796 C 0.71715 0.52638 0.95013 0.0
C797 C 0.70143 0.52575 0.89051 0.0
C798 C 0.6817 0.5218 0.92802 0.0
C799 C 0.67766 0.51814 0.02212 0.0
H800 H 0.55056 0.18159 0.58645 0.0
H801 H 0.50628 0.20437 0.63815 0.0
H802 H 0.55668 0.1813 0.75073 0.0
H803 H 0.51125 0.20285 0.80303 0.0
H804 H 0.54014 0.21745 0.08943 0.0
H805 H 0.53489 0.219 0.92496 0.0
H806 H 0.54094 0.16269 0.88573 0.0
H807 H 0.54745 0.16208 0.0497 0.0
C808 C 0.54204 0.18642 0.6333 0.0
C809 C 0.528 0.19305 0.59995 0.0
C810 C 0.54536 0.18605 0.7276 0.0
C811 C 0.53436 0.1919 0.79076 0.0
C812 C 0.5203 0.19857 0.75677 0.0
C813 C 0.51731 0.19933 0.66228 0.0
C814 C 0.54036 0.20545 0.04533 0.0
C815 C 0.54432 0.18972 0.08176 0.0
C816 C 0.5372 0.20621 0.95106 0.0
C817 C 0.53753 0.191 0.89144 0.0
C818 C 0.54106 0.17498 0.92886 0.0
C819 C 0.54462 0.17448 0.02293 0.0
H820 H 0.88219 0.38511 0.5877 0.0
H821 H 0.86064 0.31839 0.64049 0.0
H822 H 0.88235 0.39155 0.75188 0.0
H823 H 0.86207 0.32494 0.80524 0.0
H824 H 0.8467 0.3386 0.09103 0.0
H825 H 0.84544 0.33189 0.92667 0.0
H826 H 0.90095 0.39496 0.88736 0.0
H827 H 0.90124 0.40198 0.05131 0.0
C828 C 0.87761 0.37185 0.63477 0.0
C829 C 0.87133 0.35125 0.60173 0.0
C830 C 0.87791 0.37556 0.72902 0.0
C831 C 0.87235 0.35881 0.79246 0.0
C832 C 0.8661 0.33817 0.75878 0.0
C833 C 0.8654 0.3344 0.66435 0.0
C834 C 0.85859 0.351 0.04695 0.0
C835 C 0.87399 0.37085 0.08337 0.0
C836 C 0.85799 0.34712 0.95273 0.0
C837 C 0.87307 0.36287 0.8931 0.0
C838 C 0.88876 0.38261 0.93049 0.0
C839 C 0.88908 0.38661 0.02454 0.0
H840 H 0.329 0.84867 0.38165 0.0
H841 H 0.39216 0.85685 0.42106 0.0
H842 H 0.33609 0.85533 0.21766 0.0
H843 H 0.39893 0.86224 0.2566 0.0
H844 H 0.41271 0.89076 0.96978 0.0
H845 H 0.40618 0.88573 0.13464 0.0
H846 H 0.33922 0.84001 0.08234 0.0
H847 H 0.34565 0.84621 0.91807 0.0
C848 C 0.34434 0.85173 0.35481 0.0
C849 C 0.36002 0.85223 0.41358 0.0
C850 C 0.34838 0.85537 0.26071 0.0
C851 C 0.36806 0.85919 0.22317 0.0
C852 C 0.38374 0.85972 0.28275 0.0
C853 C 0.37983 0.85647 0.37703 0.0
C854 C 0.39662 0.87966 -0.00611 0.0
C855 C 0.37967 0.86889 0.93152 0.0
C856 C 0.39286 0.87664 0.0884 0.0
C857 C 0.37213 0.86246 0.12243 0.0
C858 C 0.35529 0.85141 0.05923 0.0
C859 C 0.35899 0.85477 0.96491 0.0
H860 H 0.21788 0.51482 0.92155 0.0
H861 H 0.17341 0.53734 0.97393 0.0
H862 H 0.22411 0.51457 0.08574 0.0
H863 H 0.17848 0.53583 0.13871 0.0
H864 H 0.2076 0.55085 0.42437 0.0
H865 H 0.20218 0.55218 0.25999 0.0
H866 H 0.20874 0.49615 0.22142 0.0
H867 H 0.21545 0.49577 0.38538 0.0
C868 C 0.20935 0.5196 0.96853 0.0
C869 C 0.19524 0.52618 0.93537 0.0
C870 C 0.21272 0.51924 0.0628 0.0
C871 C 0.20172 0.52505 0.12614 0.0
C872 C 0.18754 0.53161 0.09234 0.0
C873 C 0.1845 0.53235 -0.00211 0.0
C874 C 0.2079 0.53886 0.38045 0.0
C875 C 0.21206 0.52329 0.41708 0.0
C876 C 0.20463 0.5395 0.28622 0.0
C877 C 0.20504 0.52429 0.22679 0.0
C878 C 0.20879 0.50843 0.26439 0.0
C879 C 0.21246 0.50807 0.35845 0.0
H880 H 0.56804 0.73483 0.37952 0.0
H881 H 0.51332 0.67159 0.41967 0.0
H882 H 0.56765 0.72776 0.21559 0.0
H883 H 0.51196 0.66483 0.25529 0.0
H884 H 0.52685 0.65122 0.96854 0.0
H885 H 0.52833 0.65775 0.13334 0.0
H886 H 0.5491 0.72447 0.08032 0.0
H887 H 0.5489 0.71806 0.91613 0.0
C888 C 0.55582 0.71948 0.35285 0.0
C889 C 0.54071 0.70377 0.41181 0.0
C890 C 0.55544 0.71545 0.25879 0.0
C891 C 0.53966 0.69575 0.22148 0.0
C892 C 0.52457 0.68004 0.28125 0.0
C893 C 0.52523 0.68395 0.37549 0.0
C894 C 0.53173 0.66726 -0.00751 0.0
C895 C 0.53779 0.68415 0.92994 0.0
C896 C 0.53245 0.67101 0.08697 0.0
C897 C 0.53887 0.69168 0.12078 0.0
C898 C 0.54454 0.70846 0.05739 0.0
C899 C 0.54421 0.70476 0.96311 0.0
loop_
_geom_bond_atom_site_label_1
_geom_bond_atom_site_label_2
_geom_bond_distance
_geom_bond_site_symmetry_2
_ccdc_geom_bond_type
Sm0 C2 2.846 1_554 S
Sm0 O20 2.543 1_554 S
Sm0 O21 2.450 . S
Sm0 O22 2.681 . S
Sm0 O23 2.464 . S
Sm0 O24 2.396 . S
Sm0 O28 2.386 1_554 S
Sm0 O31 2.408 . S
Sm1 C11 2.845 1_556 S
Sm1 O22 2.379 1_656 S
Sm1 O25 2.407 1_556 S
Sm1 O26 2.537 1_556 S
Sm1 O27 2.453 . S
Sm1 O28 2.687 1_655 S
Sm1 O29 2.474 . S
Sm1 O30 2.398 1_655 S
C2 Sm0 2.846 1_556 S
C2 C3 1.506 . S
C2 O20 1.261 . S
C2 O21 1.242 1_556 S
C3 C2 1.506 . S
C3 C4 1.358 . S
C3 C8 1.382 1_556 S
C4 C3 1.358 . S
C4 C5 1.385 . S
C4 H32 0.930 . S
C5 C4 1.385 . S
C5 C6 1.395 . S
C5 H33 0.929 . S
C6 C5 1.395 . S
C6 C7 1.335 1_556 S
C7 C6 1.335 1_554 S
C7 C8 1.398 . S
C7 H34 0.930 . S
C8 C3 1.382 1_554 S
C8 C7 1.398 . S
C8 H35 0.929 . S
C9 O22 1.271 . S
C9 O23 1.251 . S
C10 O24 1.252 1_655 S
C10 O25 1.272 . S
C11 Sm1 2.845 1_554 S
C11 C12 1.506 . S
C11 O26 1.261 . S
C11 O27 1.242 1_554 S
C12 C11 1.506 . S
C12 C13 1.358 . S
C12 C17 1.382 1_554 S
C13 C12 1.358 . S
C13 C14 1.385 . S
C13 H36 0.930 . S
C14 C13 1.385 . S
C14 C15 1.395 . S
C14 H37 0.929 . S
C15 C14 1.395 . S
C15 C16 1.335 1_554 S
C16 C15 1.335 1_556 S
C16 C17 1.398 . S
C16 H38 0.930 . S
C17 C12 1.382 1_556 S
C17 C16 1.398 . S
C17 H39 0.929 . S
C18 O28 1.271 1_655 S
C18 O29 1.251 . S
C19 O30 1.252 . S
C19 O31 1.272 1_556 S
O20 Sm0 2.543 1_556 S
O20 C2 1.261 . S
O21 Sm0 2.450 . S
O21 C2 1.242 1_554 S
O22 Sm0 2.681 . S
O22 Sm1 2.379 1_454 S
O22 C9 1.271 . S
O23 Sm0 2.464 . S
O23 C9 1.251 . S
O24 Sm0 2.396 . S
O24 C10 1.252 1_455 S
O25 Sm1 2.407 1_554 S
O25 C10 1.272 . S
O26 Sm1 2.537 1_554 S
O26 C11 1.261 . S
O27 Sm1 2.453 . S
O27 C11 1.242 1_556 S
O28 Sm0 2.386 1_556 S
O28 Sm1 2.687 1_455 S
O28 C18 1.271 1_455 S
O29 Sm1 2.474 . S
O29 C18 1.251 . S
O30 Sm1 2.398 1_455 S
O30 C19 1.252 . S
O31 Sm0 2.408 . S
O31 C19 1.272 1_554 S
H32 C4 0.930 . S
H33 C5 0.929 . S
H34 C7 0.930 . S
H35 C8 0.929 . S
H36 C13 0.930 . S
H37 C14 0.929 . S
H38 C16 0.930 . S
H39 C17 0.929 . S
Sm40 C42 2.846 1_554 S
Sm40 O60 2.543 1_554 S
Sm40 O61 2.450 . S
Sm40 O62 2.681 . S
Sm40 O63 2.464 . S
Sm40 O64 2.396 . S
Sm40 O68 2.386 1_554 S
Sm40 O71 2.408 . S
Sm41 C51 2.845 1_556 S
Sm41 O62 2.380 1_556 S
Sm41 O65 2.407 1_556 S
Sm41 O66 2.538 1_556 S
Sm41 O67 2.453 . S
Sm41 O68 2.686 . S
Sm41 O69 2.473 . S
Sm41 O70 2.398 . S
C42 Sm40 2.846 1_556 S
C42 C43 1.506 . S
C42 O60 1.261 . S
C42 O61 1.242 1_556 S
C43 C42 1.506 . S
C43 C44 1.358 . S
C43 C48 1.382 1_556 S
C44 C43 1.358 . S
C44 C45 1.385 . S
C44 H72 0.930 . S
C45 C44 1.385 . S
C45 C46 1.395 . S
C45 H73 0.929 . S
C46 C45 1.395 . S
C46 C47 1.335 1_556 S
C47 C46 1.335 1_554 S
C47 C48 1.398 . S
C47 H74 0.930 . S
C48 C43 1.382 1_554 S
C48 C47 1.398 . S
C48 H75 0.929 . S
C49 O62 1.271 . S
C49 O63 1.251 . S
C50 O64 1.252 . S
C50 O65 1.272 . S
C51 Sm41 2.845 1_554 S
C51 C52 1.506 . S
C51 O66 1.261 . S
C51 O67 1.242 1_554 S
C52 C51 1.506 . S
C52 C53 1.358 . S
C52 C57 1.382 1_554 S
C53 C52 1.358 . S
C53 C54 1.385 . S
C53 H76 0.930 . S
C54 C53 1.385 . S
C54 C55 1.395 . S
C54 H77 0.929 . S
C55 C54 1.395 . S
C55 C56 1.335 1_554 S
C56 C55 1.335 1_556 S
C56 C57 1.398 . S
C56 H78 0.930 . S
C57 C52 1.382 1_556 S
C57 C56 1.398 . S
C57 H79 0.929 . S
C58 O68 1.271 . S
C58 O69 1.251 . S
C59 O70 1.252 . S
C59 O71 1.272 1_556 S
O60 Sm40 2.543 1_556 S
O60 C42 1.261 . S
O61 Sm40 2.450 . S
O61 C42 1.242 1_554 S
O62 Sm40 2.681 . S
O62 Sm41 2.380 1_554 S
O62 C49 1.271 . S
O63 Sm40 2.464 . S
O63 C49 1.251 . S
O64 Sm40 2.396 . S
O64 C50 1.252 . S
O65 Sm41 2.407 1_554 S
O65 C50 1.272 . S
O66 Sm41 2.538 1_554 S
O66 C51 1.261 . S
O67 Sm41 2.453 . S
O67 C51 1.242 1_556 S
O68 Sm40 2.386 1_556 S
O68 Sm41 2.686 . S
O68 C58 1.271 . S
O69 Sm41 2.473 . S
O69 C58 1.251 . S
O70 Sm41 2.398 . S
O70 C59 1.252 . S
O71 Sm40 2.408 . S
O71 C59 1.272 1_554 S
H72 C44 0.930 . S
H73 C45 0.929 . S
H74 C47 0.930 . S
H75 C48 0.929 . S
H76 C53 0.930 . S
H77 C54 0.929 . S
H78 C56 0.930 . S
H79 C57 0.929 . S
Sm80 C82 2.846 1_554 S
Sm80 O100 2.543 1_554 S
Sm80 O101 2.450 . S
Sm80 O102 2.681 1_565 S
Sm80 O103 2.464 . S
Sm80 O104 2.396 1_565 S
Sm80 O108 2.386 1_564 S
Sm80 O111 2.408 . S
Sm81 C91 2.845 1_556 S
Sm81 O102 2.379 1_556 S
Sm81 O105 2.407 1_556 S
Sm81 O106 2.537 1_556 S
Sm81 O107 2.453 . S
Sm81 O108 2.687 . S
Sm81 O109 2.474 . S
Sm81 O110 2.398 . S
C82 Sm80 2.846 1_556 S
C82 C83 1.506 . S
C82 O100 1.261 . S
C82 O101 1.242 1_556 S
C83 C82 1.506 . S
C83 C84 1.358 . S
C83 C88 1.382 1_556 S
C84 C83 1.358 . S
C84 C85 1.385 . S
C84 H112 0.930 . S
C85 C84 1.385 . S
C85 C86 1.395 . S
C85 H113 0.929 . S
C86 C85 1.395 . S
C86 C87 1.335 1_556 S
C87 C86 1.335 1_554 S
C87 C88 1.398 . S
C87 H114 0.930 . S
C88 C83 1.382 1_554 S
C88 C87 1.398 . S
C88 H115 0.929 . S
C89 O102 1.271 1_565 S
C89 O103 1.251 . S
C90 O104 1.252 . S
C90 O105 1.272 . S
C91 Sm81 2.845 1_554 S
C91 C92 1.506 . S
C91 O106 1.261 . S
C91 O107 1.242 1_554 S
C92 C91 1.506 . S
C92 C93 1.358 . S
C92 C97 1.382 1_554 S
C93 C92 1.358 . S
C93 C94 1.385 . S
C93 H116 0.930 . S
C94 C93 1.385 . S
C94 C95 1.395 . S
C94 H117 0.929 . S
C95 C94 1.395 . S
C95 C96 1.335 1_554 S
C96 C95 1.335 1_556 S
C96 C97 1.398 . S
C96 H118 0.930 . S
C97 C92 1.382 1_556 S
C97 C96 1.398 . S
C97 H119 0.929 . S
C98 O108 1.271 . S
C98 O109 1.251 . S
C99 O110 1.252 1_565 S
C99 O111 1.272 1_556 S
O100 Sm80 2.543 1_556 S
O100 C82 1.261 . S
O101 Sm80 2.450 . S
O101 C82 1.242 1_554 S
O102 Sm80 2.681 1_545 S
O102 Sm81 2.379 1_554 S
O102 C89 1.271 1_545 S
O103 Sm80 2.464 . S
O103 C89 1.251 . S
O104 Sm80 2.396 1_545 S
O104 C90 1.252 . S
O105 Sm81 2.407 1_554 S
O105 C90 1.272 . S
O106 Sm81 2.537 1_554 S
O106 C91 1.261 . S
O107 Sm81 2.453 . S
O107 C91 1.242 1_556 S
O108 Sm80 2.386 1_546 S
O108 Sm81 2.687 . S
O108 C98 1.271 . S
O109 Sm81 2.474 . S
O109 C98 1.251 . S
O110 Sm81 2.398 . S
O110 C99 1.252 1_545 S
O111 Sm80 2.408 . S
O111 C99 1.272 1_554 S
H112 C84 0.930 . S
H113 C85 0.929 . S
H114 C87 0.930 . S
H115 C88 0.929 . S
H116 C93 0.930 . S
H117 C94 0.929 . S
H118 C96 0.930 . S
H119 C97 0.929 . S
Sm120 C122 2.846 . S
Sm120 O140 2.543 . S
Sm120 O141 2.450 . S
Sm120 O142 2.681 . S
Sm120 O143 2.464 . S
Sm120 O144 2.396 . S
Sm120 O148 2.386 . S
Sm120 O151 2.408 . S
Sm121 C131 2.846 . S
Sm121 O142 2.386 . S
Sm121 O145 2.408 . S
Sm121 O146 2.543 . S
Sm121 O147 2.450 . S
Sm121 O148 2.681 . S
Sm121 O149 2.464 . S
Sm121 O150 2.396 . S
C122 Sm120 2.846 . S
C122 C123 1.506 . S
C122 O140 1.261 . S
C122 O141 1.242 . S
C123 C122 1.506 . S
C123 C124 1.358 . S
C123 C128 1.382 . S
C124 C123 1.358 . S
C124 C125 1.385 . S
C124 H152 0.930 . S
C125 C124 1.385 . S
C125 C126 1.395 . S
C125 H153 0.929 . S
C126 C125 1.395 . S
C126 C127 1.335 . S
C127 C126 1.335 . S
C127 C128 1.398 . S
C127 H154 0.930 . S
C128 C123 1.382 . S
C128 C127 1.398 . S
C128 H155 0.929 . S
C129 O142 1.271 . S
C129 O143 1.251 . S
C130 O144 1.252 . S
C130 O145 1.272 . S
C131 Sm121 2.846 . S
C131 C132 1.506 . S
C131 O146 1.261 . S
C131 O147 1.242 . S
C132 C131 1.506 . S
C132 C133 1.358 . S
C132 C137 1.382 . S
C133 C132 1.358 . S
C133 C134 1.385 . S
C133 H156 0.930 . S
C134 C133 1.385 . S
C134 C135 1.395 . S
C134 H157 0.929 . S
C135 C134 1.395 . S
C135 C136 1.335 . S
C136 C135 1.335 . S
C136 C137 1.398 . S
C136 H158 0.930 . S
C137 C132 1.382 . S
C137 C136 1.398 . S
C137 H159 0.929 . S
C138 O148 1.271 . S
C138 O149 1.251 . S
C139 O150 1.252 . S
C139 O151 1.272 . S
O140 Sm120 2.543 . S
O140 C122 1.261 . S
O141 Sm120 2.450 . S
O141 C122 1.242 . S
O142 Sm120 2.681 . S
O142 Sm121 2.386 . S
O142 C129 1.271 . S
O143 Sm120 2.464 . S
O143 C129 1.251 . S
O144 Sm120 2.396 . S
O144 C130 1.252 . S
O145 Sm121 2.408 . S
O145 C130 1.272 . S
O146 Sm121 2.543 . S
O146 C131 1.261 . S
O147 Sm121 2.450 . S
O147 C131 1.242 . S
O148 Sm120 2.386 . S
O148 Sm121 2.681 . S
O148 C138 1.271 . S
O149 Sm121 2.464 . S
O149 C138 1.251 . S
O150 Sm121 2.396 . S
O150 C139 1.252 . S
O151 Sm120 2.408 . S
O151 C139 1.272 . S
H152 C124 0.930 . S
H153 C125 0.929 . S
H154 C127 0.930 . S
H155 C128 0.929 . S
H156 C133 0.930 . S
H157 C134 0.929 . S
H158 C136 0.930 . S
H159 C137 0.929 . S
Sm160 C162 2.846 . S
Sm160 O180 2.543 . S
Sm160 O181 2.450 . S
Sm160 O182 2.681 . S
Sm160 O183 2.464 . S
Sm160 O184 2.396 . S
Sm160 O188 2.386 . S
Sm160 O191 2.408 . S
Sm161 C171 2.846 . S
Sm161 O182 2.386 . S
Sm161 O185 2.408 . S
Sm161 O186 2.543 . S
Sm161 O187 2.450 . S
Sm161 O188 2.681 . S
Sm161 O189 2.464 . S
Sm161 O190 2.396 . S
C162 Sm160 2.846 . S
C162 C163 1.506 . S
C162 O180 1.261 . S
C162 O181 1.242 . S
C163 C162 1.506 . S
C163 C164 1.358 . S
C163 C168 1.382 . S
C164 C163 1.358 . S
C164 C165 1.385 . S
C164 H192 0.930 . S
C165 C164 1.385 . S
C165 C166 1.395 . S
C165 H193 0.929 . S
C166 C165 1.395 . S
C166 C167 1.335 . S
C167 C166 1.335 . S
C167 C168 1.398 . S
C167 H194 0.930 . S
C168 C163 1.382 . S
C168 C167 1.398 . S
C168 H195 0.929 . S
C169 O182 1.271 . S
C169 O183 1.251 . S
C170 O184 1.252 . S
C170 O185 1.272 . S
C171 Sm161 2.846 . S
C171 C172 1.506 . S
C171 O186 1.261 . S
C171 O187 1.242 . S
C172 C171 1.506 . S
C172 C173 1.358 . S
C172 C177 1.382 . S
C173 C172 1.358 . S
C173 C174 1.385 . S
C173 H196 0.930 . S
C174 C173 1.385 . S
C174 C175 1.395 . S
C174 H197 0.929 . S
C175 C174 1.395 . S
C175 C176 1.335 . S
C176 C175 1.335 . S
C176 C177 1.398 . S
C176 H198 0.930 . S
C177 C172 1.382 . S
C177 C176 1.398 . S
C177 H199 0.929 . S
C178 O188 1.271 . S
C178 O189 1.251 . S
C179 O190 1.252 . S
C179 O191 1.272 . S
O180 Sm160 2.543 . S
O180 C162 1.261 . S
O181 Sm160 2.450 . S
O181 C162 1.242 . S
O182 Sm160 2.681 . S
O182 Sm161 2.386 . S
O182 C169 1.271 . S
O183 Sm160 2.464 . S
O183 C169 1.251 . S
O184 Sm160 2.396 . S
O184 C170 1.252 . S
O185 Sm161 2.408 . S
O185 C170 1.272 . S
O186 Sm161 2.543 . S
O186 C171 1.261 . S
O187 Sm161 2.450 . S
O187 C171 1.242 . S
O188 Sm160 2.386 . S
O188 Sm161 2.681 . S
O188 C178 1.271 . S
O189 Sm161 2.464 . S
O189 C178 1.251 . S
O190 Sm161 2.396 . S
O190 C179 1.252 . S
O191 Sm160 2.408 . S
O191 C179 1.272 . S
H192 C164 0.930 . S
H193 C165 0.929 . S
H194 C167 0.930 . S
H195 C168 0.929 . S
H196 C173 0.930 . S
H197 C174 0.929 . S
H198 C176 0.930 . S
H199 C177 0.929 . S
Sm200 C202 2.846 . S
Sm200 O220 2.543 . S
Sm200 O221 2.450 . S
Sm200 O222 2.681 . S
Sm200 O223 2.464 . S
Sm200 O224 2.396 . S
Sm200 O228 2.386 . S
Sm200 O231 2.408 . S
Sm201 C211 2.846 . S
Sm201 O222 2.386 . S
Sm201 O225 2.408 . S
Sm201 O226 2.543 . S
Sm201 O227 2.450 . S
Sm201 O228 2.681 . S
Sm201 O229 2.464 . S
Sm201 O230 2.396 . S
C202 Sm200 2.846 . S
C202 C203 1.506 . S
C202 O220 1.261 . S
C202 O221 1.242 . S
C203 C202 1.506 . S
C203 C204 1.358 . S
C203 C208 1.382 . S
C204 C203 1.358 . S
C204 C205 1.385 . S
C204 H232 0.930 . S
C205 C204 1.385 . S
C205 C206 1.395 . S
C205 H233 0.929 . S
C206 C205 1.395 . S
C206 C207 1.335 . S
C207 C206 1.335 . S
C207 C208 1.398 . S
C207 H234 0.930 . S
C208 C203 1.382 . S
C208 C207 1.398 . S
C208 H235 0.929 . S
C209 O222 1.271 . S
C209 O223 1.251 . S
C210 O224 1.252 . S
C210 O225 1.272 . S
C211 Sm201 2.846 . S
C211 C212 1.506 . S
C211 O226 1.261 . S
C211 O227 1.242 . S
C212 C211 1.506 . S
C212 C213 1.358 . S
C212 C217 1.382 . S
C213 C212 1.358 . S
C213 C214 1.385 . S
C213 H236 0.930 . S
C214 C213 1.385 . S
C214 C215 1.395 . S
C214 H237 0.929 . S
C215 C214 1.395 . S
C215 C216 1.335 . S
C216 C215 1.335 . S
C216 C217 1.398 . S
C216 H238 0.930 . S
C217 C212 1.382 . S
C217 C216 1.398 . S
C217 H239 0.929 . S
C218 O228 1.271 . S
C218 O229 1.251 . S
C219 O230 1.252 . S
C219 O231 1.272 . S
O220 Sm200 2.543 . S
O220 C202 1.261 . S
O221 Sm200 2.450 . S
O221 C202 1.242 . S
O222 Sm200 2.681 . S
O222 Sm201 2.386 . S
O222 C209 1.271 . S
O223 Sm200 2.464 . S
O223 C209 1.251 . S
O224 Sm200 2.396 . S
O224 C210 1.252 . S
O225 Sm201 2.408 . S
O225 C210 1.272 . S
O226 Sm201 2.543 . S
O226 C211 1.261 . S
O227 Sm201 2.450 . S
O227 C211 1.242 . S
O228 Sm200 2.386 . S
O228 Sm201 2.681 . S
O228 C218 1.271 . S
O229 Sm201 2.464 . S
O229 C218 1.251 . S
O230 Sm201 2.396 . S
O230 C219 1.252 . S
O231 Sm200 2.408 . S
O231 C219 1.272 . S
H232 C204 0.930 . S
H233 C205 0.929 . S
H234 C207 0.930 . S
H235 C208 0.929 . S
H236 C213 0.930 . S
H237 C214 0.929 . S
H238 C216 0.930 . S
H239 C217 0.929 . S
Sm240 C242 2.846 . S
Sm240 O260 2.543 . S
Sm240 O261 2.450 . S
Sm240 O262 2.681 . S
Sm240 O263 2.464 . S
Sm240 O264 2.396 . S
Sm240 O268 2.386 . S
Sm240 O271 2.408 . S
Sm241 C251 2.846 . S
Sm241 O262 2.386 . S
Sm241 O265 2.408 . S
Sm241 O266 2.543 . S
Sm241 O267 2.450 . S
Sm241 O268 2.681 . S
Sm241 O269 2.464 . S
Sm241 O270 2.396 . S
C242 Sm240 2.846 . S
C242 C243 1.506 . S
C242 O260 1.261 . S
C242 O261 1.242 . S
C243 C242 1.506 . S
C243 C244 1.358 . S
C243 C248 1.382 . S
C244 C243 1.358 . S
C244 C245 1.385 . S
C244 H272 0.930 . S
C245 C244 1.385 . S
C245 C246 1.395 . S
C245 H273 0.929 . S
C246 C245 1.395 . S
C246 C247 1.335 . S
C247 C246 1.335 . S
C247 C248 1.398 . S
C247 H274 0.930 . S
C248 C243 1.382 . S
C248 C247 1.398 . S
C248 H275 0.929 . S
C249 O262 1.271 . S
C249 O263 1.251 . S
C250 O264 1.252 . S
C250 O265 1.272 . S
C251 Sm241 2.846 . S
C251 C252 1.506 . S
C251 O266 1.261 . S
C251 O267 1.242 . S
C252 C251 1.506 . S
C252 C253 1.358 . S
C252 C257 1.382 . S
C253 C252 1.358 . S
C253 C254 1.385 . S
C253 H276 0.930 . S
C254 C253 1.385 . S
C254 C255 1.395 . S
C254 H277 0.929 . S
C255 C254 1.395 . S
C255 C256 1.335 . S
C256 C255 1.335 . S
C256 C257 1.398 . S
C256 H278 0.930 . S
C257 C252 1.382 . S
C257 C256 1.398 . S
C257 H279 0.929 . S
C258 O268 1.271 . S
C258 O269 1.251 . S
C259 O270 1.252 . S
C259 O271 1.272 . S
O260 Sm240 2.543 . S
O260 C242 1.261 . S
O261 Sm240 2.450 . S
O261 C242 1.242 . S
O262 Sm240 2.681 . S
O262 Sm241 2.386 . S
O262 C249 1.271 . S
O263 Sm240 2.464 . S
O263 C249 1.251 . S
O264 Sm240 2.396 . S
O264 C250 1.252 . S
O265 Sm241 2.408 . S
O265 C250 1.272 . S
O266 Sm241 2.543 . S
O266 C251 1.261 . S
O267 Sm241 2.450 . S
O267 C251 1.242 . S
O268 Sm240 2.386 . S
O268 Sm241 2.681 . S
O268 C258 1.271 . S
O269 Sm241 2.464 . S
O269 C258 1.251 . S
O270 Sm241 2.396 . S
O270 C259 1.252 . S
O271 Sm240 2.408 . S
O271 C259 1.272 . S
H272 C244 0.930 . S
H273 C245 0.929 . S
H274 C247 0.930 . S
H275 C248 0.929 . S
H276 C253 0.930 . S
H277 C254 0.929 . S
H278 C256 0.930 . S
H279 C257 0.929 . S
Sm280 C282 2.846 . S
Sm280 O300 2.543 . S
Sm280 O301 2.450 . S
Sm280 O302 2.681 . S
Sm280 O303 2.464 . S
Sm280 O304 2.396 . S
Sm280 O308 2.386 . S
Sm280 O311 2.408 . S
Sm281 C291 2.846 . S
Sm281 O302 2.386 . S
Sm281 O305 2.408 . S
Sm281 O306 2.543 . S
Sm281 O307 2.450 . S
Sm281 O308 2.681 . S
Sm281 O309 2.464 . S
Sm281 O310 2.396 . S
C282 Sm280 2.846 . S
C282 C283 1.506 . S
C282 O300 1.261 . S
C282 O301 1.242 . S
C283 C282 1.506 . S
C283 C284 1.358 . S
C283 C288 1.382 . S
C284 C283 1.358 . S
C284 C285 1.385 . S
C284 H312 0.930 . S
C285 C284 1.385 . S
C285 C286 1.395 . S
C285 H313 0.929 . S
C286 C285 1.395 . S
C286 C287 1.335 . S
C287 C286 1.335 . S
C287 C288 1.398 . S
C287 H314 0.930 . S
C288 C283 1.382 . S
C288 C287 1.398 . S
C288 H315 0.929 . S
C289 O302 1.271 . S
C289 O303 1.251 . S
C290 O304 1.252 . S
C290 O305 1.272 . S
C291 Sm281 2.846 . S
C291 C292 1.506 . S
C291 O306 1.261 . S
C291 O307 1.242 . S
C292 C291 1.506 . S
C292 C293 1.358 . S
C292 C297 1.382 . S
C293 C292 1.358 . S
C293 C294 1.385 . S
C293 H316 0.930 . S
C294 C293 1.385 . S
C294 C295 1.395 . S
C294 H317 0.929 . S
C295 C294 1.395 . S
C295 C296 1.335 . S
C296 C295 1.335 . S
C296 C297 1.398 . S
C296 H318 0.930 . S
C297 C292 1.382 . S
C297 C296 1.398 . S
C297 H319 0.929 . S
C298 O308 1.271 . S
C298 O309 1.251 . S
C299 O310 1.252 . S
C299 O311 1.272 . S
O300 Sm280 2.543 . S
O300 C282 1.261 . S
O301 Sm280 2.450 . S
O301 C282 1.242 . S
O302 Sm280 2.681 . S
O302 Sm281 2.386 . S
O302 C289 1.271 . S
O303 Sm280 2.464 . S
O303 C289 1.251 . S
O304 Sm280 2.396 . S
O304 C290 1.252 . S
O305 Sm281 2.408 . S
O305 C290 1.272 . S
O306 Sm281 2.543 . S
O306 C291 1.261 . S
O307 Sm281 2.450 . S
O307 C291 1.242 . S
O308 Sm280 2.386 . S
O308 Sm281 2.681 . S
O308 C298 1.271 . S
O309 Sm281 2.464 . S
O309 C298 1.251 . S
O310 Sm281 2.396 . S
O310 C299 1.252 . S
O311 Sm280 2.408 . S
O311 C299 1.272 . S
H312 C284 0.930 . S
H313 C285 0.929 . S
H314 C287 0.930 . S
H315 C288 0.929 . S
H316 C293 0.930 . S
H317 C294 0.929 . S
H318 C296 0.930 . S
H319 C297 0.929 . S
Sm320 C322 2.846 . S
Sm320 O340 2.543 . S
Sm320 O341 2.450 . S
Sm320 O342 2.681 . S
Sm320 O343 2.464 . S
Sm320 O344 2.396 . S
Sm320 O348 2.386 . S
Sm320 O351 2.408 . S
Sm321 C331 2.846 . S
Sm321 O342 2.386 . S
Sm321 O345 2.408 . S
Sm321 O346 2.543 . S
Sm321 O347 2.450 . S
Sm321 O348 2.681 . S
Sm321 O349 2.464 . S
Sm321 O350 2.396 . S
C322 Sm320 2.846 . S
C322 C323 1.506 . S
C322 O340 1.261 . S
C322 O341 1.242 . S
C323 C322 1.506 . S
C323 C324 1.358 . S
C323 C328 1.382 . S
C324 C323 1.358 . S
C324 C325 1.385 . S
C324 H352 0.930 . S
C325 C324 1.385 . S
C325 C326 1.395 . S
C325 H353 0.929 . S
C326 C325 1.395 . S
C326 C327 1.335 . S
C327 C326 1.335 . S
C327 C328 1.398 . S
C327 H354 0.930 . S
C328 C323 1.382 . S
C328 C327 1.398 . S
C328 H355 0.929 . S
C329 O342 1.271 . S
C329 O343 1.251 . S
C330 O344 1.252 . S
C330 O345 1.272 . S
C331 Sm321 2.846 . S
C331 C332 1.506 . S
C331 O346 1.261 . S
C331 O347 1.242 . S
C332 C331 1.506 . S
C332 C333 1.358 . S
C332 C337 1.382 . S
C333 C332 1.358 . S
C333 C334 1.385 . S
C333 H356 0.930 . S
C334 C333 1.385 . S
C334 C335 1.395 . S
C334 H357 0.929 . S
C335 C334 1.395 . S
C335 C336 1.335 . S
C336 C335 1.335 . S
C336 C337 1.398 . S
C336 H358 0.930 . S
C337 C332 1.382 . S
C337 C336 1.398 . S
C337 H359 0.929 . S
C338 O348 1.271 . S
C338 O349 1.251 . S
C339 O350 1.252 . S
C339 O351 1.272 . S
O340 Sm320 2.543 . S
O340 C322 1.261 . S
O341 Sm320 2.450 . S
O341 C322 1.242 . S
O342 Sm320 2.681 . S
O342 Sm321 2.386 . S
O342 C329 1.271 . S
O343 Sm320 2.464 . S
O343 C329 1.251 . S
O344 Sm320 2.396 . S
O344 C330 1.252 . S
O345 Sm321 2.408 . S
O345 C330 1.272 . S
O346 Sm321 2.543 . S
O346 C331 1.261 . S
O347 Sm321 2.450 . S
O347 C331 1.242 . S
O348 Sm320 2.386 . S
O348 Sm321 2.681 . S
O348 C338 1.271 . S
O349 Sm321 2.464 . S
O349 C338 1.251 . S
O350 Sm321 2.396 . S
O350 C339 1.252 . S
O351 Sm320 2.408 . S
O351 C339 1.272 . S
H352 C324 0.930 . S
H353 C325 0.929 . S
H354 C327 0.930 . S
H355 C328 0.929 . S
H356 C333 0.930 . S
H357 C334 0.929 . S
H358 C336 0.930 . S
H359 C337 0.929 . S
H360 C368 0.950 1_554 S
H361 C373 0.950 . S
H362 C370 0.950 . S
H363 C372 0.950 . S
H364 C374 0.950 . S
H365 C376 0.950 . S
H366 C378 0.950 . S
H367 C379 0.950 . S
C368 H360 0.950 1_556 S
C368 C369 1.386 . S
C368 C370 1.391 . S
C369 C368 1.386 . S
C369 C373 1.393 . S
C370 H362 0.950 . S
C370 C368 1.391 . S
C370 C371 1.400 . S
C371 C370 1.400 . S
C371 C372 1.398 . S
C371 C377 1.491 . S
C372 H363 0.950 . S
C372 C371 1.398 . S
C372 C373 1.391 . S
C373 H361 0.950 . S
C373 C369 1.393 . S
C373 C372 1.391 . S
C374 H364 0.950 . S
C374 C375 1.386 . S
C374 C376 1.391 . S
C375 C374 1.386 . S
C375 C379 1.393 . S
C376 H365 0.950 . S
C376 C374 1.391 . S
C376 C377 1.400 . S
C377 C371 1.491 . S
C377 C376 1.400 . S
C377 C378 1.398 . S
C378 H366 0.950 . S
C378 C377 1.398 . S
C378 C379 1.391 . S
C379 H367 0.950 . S
C379 C375 1.393 . S
C379 C378 1.391 . S
H380 C388 0.950 . S
H381 C393 0.950 . S
H382 C390 0.950 . S
H383 C392 0.950 . S
H384 C394 0.950 . S
H385 C396 0.950 . S
H386 C398 0.950 . S
H387 C399 0.950 . S
C388 H380 0.950 . S
C388 C389 1.386 . S
C388 C390 1.391 . S
C389 C388 1.386 . S
C389 C393 1.393 . S
C390 H382 0.950 . S
C390 C388 1.391 . S
C390 C391 1.400 . S
C391 C390 1.400 . S
C391 C392 1.398 . S
C391 C397 1.491 . S
C392 H383 0.950 . S
C392 C391 1.398 . S
C392 C393 1.391 . S
C393 H381 0.950 . S
C393 C389 1.393 . S
C393 C392 1.391 . S
C394 H384 0.950 . S
C394 C395 1.386 . S
C394 C396 1.391 . S
C395 C394 1.386 . S
C395 C399 1.393 . S
C396 H385 0.950 . S
C396 C394 1.391 . S
C396 C397 1.400 . S
C397 C391 1.491 . S
C397 C396 1.400 . S
C397 C398 1.398 . S
C398 H386 0.950 . S
C398 C397 1.398 . S
C398 C399 1.391 . S
C399 H387 0.950 . S
C399 C395 1.393 . S
C399 C398 1.391 . S
H400 C408 0.950 . S
H401 C413 0.950 . S
H402 C410 0.950 . S
H403 C412 0.950 . S
H404 C414 0.950 . S
H405 C416 0.950 . S
H406 C418 0.950 . S
H407 C419 0.950 . S
C408 H400 0.950 . S
C408 C409 1.386 . S
C408 C410 1.391 . S
C409 C408 1.386 . S
C409 C413 1.393 . S
C410 H402 0.950 . S
C410 C408 1.391 . S
C410 C411 1.400 . S
C411 C410 1.400 . S
C411 C412 1.398 . S
C411 C417 1.491 . S
C412 H403 0.950 . S
C412 C411 1.398 . S
C412 C413 1.391 . S
C413 H401 0.950 . S
C413 C409 1.393 . S
C413 C412 1.391 . S
C414 H404 0.950 . S
C414 C415 1.386 . S
C414 C416 1.391 . S
C415 C414 1.386 . S
C415 C419 1.393 . S
C416 H405 0.950 . S
C416 C414 1.391 . S
C416 C417 1.400 . S
C417 C411 1.491 . S
C417 C416 1.400 . S
C417 C418 1.398 . S
C418 H406 0.950 . S
C418 C417 1.398 . S
C418 C419 1.391 . S
C419 H407 0.950 . S
C419 C415 1.393 . S
C419 C418 1.391 . S
H420 C428 0.950 . S
H421 C433 0.950 . S
H422 C430 0.950 . S
H423 C432 0.950 . S
H424 C434 0.950 1_556 S
H425 C436 0.950 . S
H426 C438 0.950 . S
H427 C439 0.950 . S
C428 H420 0.950 . S
C428 C429 1.386 . S
C428 C430 1.391 . S
C429 C428 1.386 . S
C429 C433 1.393 . S
C430 H422 0.950 . S
C430 C428 1.391 . S
C430 C431 1.400 . S
C431 C430 1.400 . S
C431 C432 1.398 . S
C431 C437 1.491 . S
C432 H423 0.950 . S
C432 C431 1.398 . S
C432 C433 1.391 . S
C433 H421 0.950 . S
C433 C429 1.393 . S
C433 C432 1.391 . S
C434 H424 0.950 1_554 S
C434 C435 1.386 . S
C434 C436 1.391 . S
C435 C434 1.386 . S
C435 C439 1.393 . S
C436 H425 0.950 . S
C436 C434 1.391 . S
C436 C437 1.400 . S
C437 C431 1.491 . S
C437 C436 1.400 . S
C437 C438 1.398 . S
C438 H426 0.950 . S
C438 C437 1.398 . S
C438 C439 1.391 . S
C439 H427 0.950 . S
C439 C435 1.393 . S
C439 C438 1.391 . S
H440 C448 0.950 . S
H441 C453 0.950 . S
H442 C450 0.950 . S
H443 C452 0.950 . S
H444 C454 0.950 . S
H445 C456 0.950 . S
H446 C458 0.950 1_556 S
H447 C459 0.950 . S
C448 H440 0.950 . S
C448 C449 1.386 . S
C448 C450 1.391 . S
C449 C448 1.386 . S
C449 C453 1.393 . S
C450 H442 0.950 . S
C450 C448 1.391 . S
C450 C451 1.400 . S
C451 C450 1.400 . S
C451 C452 1.398 . S
C451 C457 1.491 . S
C452 H443 0.950 . S
C452 C451 1.398 . S
C452 C453 1.391 . S
C453 H441 0.950 . S
C453 C449 1.393 . S
C453 C452 1.391 . S
C454 H444 0.950 . S
C454 C455 1.386 . S
C454 C456 1.391 . S
C455 C454 1.386 . S
C455 C459 1.393 1_554 S
C456 H445 0.950 . S
C456 C454 1.391 . S
C456 C457 1.400 . S
C457 C451 1.491 . S
C457 C456 1.400 . S
C457 C458 1.398 . S
C458 H446 0.950 1_554 S
C458 C457 1.398 . S
C458 C459 1.391 1_554 S
C459 H447 0.950 . S
C459 C455 1.393 1_556 S
C459 C458 1.391 1_556 S
H460 C468 0.950 . S
H461 C473 0.950 1_556 S
H462 C470 0.950 . S
H463 C472 0.950 . S
H464 C474 0.950 . S
H465 C476 0.950 . S
H466 C478 0.950 . S
H467 C479 0.950 . S
C468 H460 0.950 . S
C468 C469 1.386 . S
C468 C470 1.391 . S
C469 C468 1.386 . S
C469 C473 1.393 . S
C470 H462 0.950 . S
C470 C468 1.391 . S
C470 C471 1.400 . S
C471 C470 1.400 . S
C471 C472 1.398 . S
C471 C477 1.491 . S
C472 H463 0.950 . S
C472 C471 1.398 . S
C472 C473 1.391 . S
C473 H461 0.950 1_554 S
C473 C469 1.393 . S
C473 C472 1.391 . S
C474 H464 0.950 . S
C474 C475 1.386 . S
C474 C476 1.391 . S
C475 C474 1.386 . S
C475 C479 1.393 . S
C476 H465 0.950 . S
C476 C474 1.391 . S
C476 C477 1.400 . S
C477 C471 1.491 . S
C477 C476 1.400 . S
C477 C478 1.398 . S
C478 H466 0.950 . S
C478 C477 1.398 . S
C478 C479 1.391 . S
C479 H467 0.950 . S
C479 C475 1.393 . S
C479 C478 1.391 . S
H480 C488 0.950 . S
H481 C493 0.949 1_455 S
H482 C490 0.950 . S
H483 C492 0.950 . S
H484 C494 0.950 . S
H485 C496 0.950 . S
H486 C498 0.950 . S
H487 C499 0.950 . S
C488 H480 0.950 . S
C488 C489 1.386 . S
C488 C490 1.391 1_455 S
C489 C488 1.386 . S
C489 C493 1.393 1_455 S
C490 H482 0.950 . S
C490 C488 1.391 1_655 S
C490 C491 1.400 . S
C491 C490 1.400 . S
C491 C492 1.398 . S
C491 C497 1.491 . S
C492 H483 0.950 . S
C492 C491 1.398 . S
C492 C493 1.391 . S
C493 H481 0.949 1_655 S
C493 C489 1.393 1_655 S
C493 C492 1.391 . S
C494 H484 0.950 . S
C494 C495 1.386 . S
C494 C496 1.391 . S
C495 C494 1.386 . S
C495 C499 1.393 . S
C496 H485 0.950 . S
C496 C494 1.391 . S
C496 C497 1.400 . S
C497 C491 1.491 . S
C497 C496 1.400 . S
C497 C498 1.398 . S
C498 H486 0.950 . S
C498 C497 1.398 . S
C498 C499 1.391 . S
C499 H487 0.950 . S
C499 C495 1.393 . S
C499 C498 1.391 . S
H500 C508 0.950 . S
H501 C513 0.950 . S
H502 C510 0.950 . S
H503 C512 0.950 . S
H504 C514 0.950 . S
H505 C516 0.950 . S
H506 C518 0.950 . S
H507 C519 0.950 . S
C508 H500 0.950 . S
C508 C509 1.386 . S
C508 C510 1.391 . S
C509 C508 1.386 . S
C509 C513 1.393 . S
C510 H502 0.950 . S
C510 C508 1.391 . S
C510 C511 1.400 . S
C511 C510 1.400 . S
C511 C512 1.398 . S
C511 C517 1.491 . S
C512 H503 0.950 . S
C512 C511 1.398 . S
C512 C513 1.391 . S
C513 H501 0.950 . S
C513 C509 1.393 . S
C513 C512 1.391 . S
C514 H504 0.950 . S
C514 C515 1.386 . S
C514 C516 1.391 . S
C515 C514 1.386 . S
C515 C519 1.393 . S
C516 H505 0.950 . S
C516 C514 1.391 . S
C516 C517 1.400 . S
C517 C511 1.491 . S
C517 C516 1.400 . S
C517 C518 1.398 . S
C518 H506 0.950 . S
C518 C517 1.398 . S
C518 C519 1.391 . S
C519 H507 0.950 . S
C519 C515 1.393 . S
C519 C518 1.391 . S
H520 C528 0.950 . S
H521 C533 0.950 . S
H522 C530 0.950 . S
H523 C532 0.950 . S
H524 C534 0.950 . S
H525 C536 0.950 . S
H526 C538 0.950 . S
H527 C539 0.951 1_565 S
C528 H520 0.950 . S
C528 C529 1.386 . S
C528 C530 1.391 . S
C529 C528 1.386 . S
C529 C533 1.393 . S
C530 H522 0.950 . S
C530 C528 1.391 . S
C530 C531 1.400 . S
C531 C530 1.400 . S
C531 C532 1.398 . S
C531 C537 1.491 . S
C532 H523 0.950 . S
C532 C531 1.398 . S
C532 C533 1.391 . S
C533 H521 0.950 . S
C533 C529 1.393 . S
C533 C532 1.391 . S
C534 H524 0.950 . S
C534 C535 1.381 . S
C534 C536 1.391 . S
C535 C534 1.381 . S
C535 C539 1.393 . S
C536 H525 0.950 . S
C536 C534 1.391 . S
C536 C537 1.400 . S
C537 C531 1.491 . S
C537 C536 1.400 . S
C537 C538 1.398 . S
C538 H526 0.950 . S
C538 C537 1.398 . S
C538 C539 1.391 . S
C539 H527 0.951 1_545 S
C539 C535 1.393 . S
C539 C538 1.391 . S
H540 C548 0.950 . S
H541 C553 0.950 . S
H542 C550 0.950 . S
H543 C552 0.950 . S
H544 C554 0.950 . S
H545 C556 0.950 . S
H546 C558 0.950 . S
H547 C559 0.950 . S
C548 H540 0.950 . S
C548 C549 1.386 1_556 S
C548 C550 1.391 . S
C549 C548 1.386 1_554 S
C549 C553 1.393 . S
C550 H542 0.950 . S
C550 C548 1.391 . S
C550 C551 1.400 1_556 S
C551 C550 1.400 1_554 S
C551 C552 1.398 . S
C551 C557 1.491 . S
C552 H543 0.950 . S
C552 C551 1.398 . S
C552 C553 1.391 . S
C553 H541 0.950 . S
C553 C549 1.393 . S
C553 C552 1.391 . S
C554 H544 0.950 . S
C554 C555 1.386 . S
C554 C556 1.391 . S
C555 C554 1.386 . S
C555 C559 1.393 1_554 S
C556 H545 0.950 . S
C556 C554 1.391 . S
C556 C557 1.400 . S
C557 C551 1.491 . S
C557 C556 1.400 . S
C557 C558 1.398 1_554 S
C558 H546 0.950 . S
C558 C557 1.398 1_556 S
C558 C559 1.391 . S
C559 H547 0.950 . S
C559 C555 1.393 1_556 S
C559 C558 1.391 . S
H560 C568 0.950 . S
H561 C573 0.950 . S
H562 C570 0.950 1_556 S
H563 C572 0.950 . S
H564 C574 0.950 . S
H565 C576 0.950 . S
H566 C578 0.950 1_556 S
H567 C579 0.950 . S
C568 H560 0.950 . S
C568 C569 1.386 1_556 S
C568 C570 1.391 1_556 S
C569 C568 1.386 1_554 S
C569 C573 1.393 . S
C570 H562 0.950 1_554 S
C570 C568 1.391 1_554 S
C570 C571 1.400 . S
C571 C570 1.400 . S
C571 C572 1.398 . S
C571 C577 1.491 . S
C572 H563 0.950 . S
C572 C571 1.398 . S
C572 C573 1.391 . S
C573 H561 0.950 . S
C573 C569 1.393 . S
C573 C572 1.391 . S
C574 H564 0.950 . S
C574 C575 1.386 . S
C574 C576 1.391 1_545 S
C575 C574 1.386 . S
C575 C579 1.393 . S
C576 H565 0.950 . S
C576 C574 1.391 1_565 S
C576 C577 1.400 . S
C577 C571 1.491 . S
C577 C576 1.400 . S
C577 C578 1.398 . S
C578 H566 0.950 1_554 S
C578 C577 1.398 . S
C578 C579 1.391 1_565 S
C579 H567 0.950 . S
C579 C575 1.393 . S
C579 C578 1.391 1_545 S
H580 C588 0.991 . S
H581 C593 0.950 1_655 S
H582 C590 0.950 . S
H583 C592 0.950 . S
H584 C594 0.950 . S
H585 C596 0.950 . S
H586 C598 0.950 . S
H587 C599 0.950 . S
C588 H580 0.991 . S
C588 C589 1.386 1_455 S
C588 C590 1.391 . S
C589 C588 1.386 1_655 S
C589 C593 1.393 1_654 S
C590 H582 0.950 . S
C590 C588 1.391 . S
C590 C591 1.400 . S
C591 C590 1.400 . S
C591 C592 1.398 1_554 S
C591 C597 1.491 . S
C592 H583 0.950 . S
C592 C591 1.398 1_556 S
C592 C593 1.391 . S
C593 H581 0.950 1_455 S
C593 C589 1.393 1_456 S
C593 C592 1.391 . S
C594 H584 0.950 . S
C594 C595 1.386 1_556 S
C594 C596 1.391 . S
C595 C594 1.386 1_554 S
C595 C599 1.393 . S
C596 H585 0.950 . S
C596 C594 1.391 . S
C596 C597 1.400 1_556 S
C597 C591 1.491 . S
C597 C596 1.400 1_554 S
C597 C598 1.398 . S
C598 H586 0.950 . S
C598 C597 1.398 . S
C598 C599 1.391 . S
C599 H587 0.950 . S
C599 C595 1.393 . S
C599 C598 1.391 . S
H600 C608 0.950 . S
H601 C613 0.950 . S
H602 C610 0.950 . S
H603 C612 0.950 . S
H604 C614 0.950 . S
H605 C616 0.950 . S
H606 C618 0.950 . S
H607 C619 0.950 . S
C608 H600 0.950 . S
C608 C609 1.386 . S
C608 C610 1.391 . S
C609 C608 1.386 . S
C609 C613 1.393 . S
C610 H602 0.950 . S
C610 C608 1.391 . S
C610 C611 1.400 . S
C611 C610 1.400 . S
C611 C612 1.398 . S
C611 C617 1.491 . S
C612 H603 0.950 . S
C612 C611 1.398 . S
C612 C613 1.391 . S
C613 H601 0.950 . S
C613 C609 1.393 . S
C613 C612 1.391 . S
C614 H604 0.950 . S
C614 C615 1.386 . S
C614 C616 1.391 . S
C615 C614 1.386 . S
C615 C619 1.393 . S
C616 H605 0.950 . S
C616 C614 1.391 . S
C616 C617 1.400 . S
C617 C611 1.491 . S
C617 C616 1.400 . S
C617 C618 1.398 . S
C618 H606 0.950 . S
C618 C617 1.398 . S
C618 C619 1.391 . S
C619 H607 0.950 . S
C619 C615 1.393 . S
C619 C618 1.391 . S
H620 C628 0.950 . S
H621 C633 0.950 . S
H622 C630 0.950 . S
H623 C632 0.950 . S
H624 C634 0.950 . S
H625 C636 0.950 . S
H626 C638 0.950 . S
H627 C639 0.950 . S
C628 H620 0.950 . S
C628 C629 1.386 . S
C628 C630 1.391 . S
C629 C628 1.386 . S
C629 C633 1.393 . S
C630 H622 0.950 . S
C630 C628 1.391 . S
C630 C631 1.400 . S
C631 C630 1.400 . S
C631 C632 1.398 . S
C631 C637 1.491 . S
C632 H623 0.950 . S
C632 C631 1.398 . S
C632 C633 1.391 . S
C633 H621 0.950 . S
C633 C629 1.393 . S
C633 C632 1.391 . S
C634 H624 0.950 . S
C634 C635 1.386 . S
C634 C636 1.391 . S
C635 C634 1.386 . S
C635 C639 1.393 . S
C636 H625 0.950 . S
C636 C634 1.391 . S
C636 C637 1.400 . S
C637 C631 1.491 . S
C637 C636 1.400 . S
C637 C638 1.398 . S
C638 H626 0.950 . S
C638 C637 1.398 . S
C638 C639 1.391 . S
C639 H627 0.950 . S
C639 C635 1.393 . S
C639 C638 1.391 . S
H640 C648 0.950 . S
H641 C653 0.950 . S
H642 C650 0.950 . S
H643 C652 0.950 . S
H644 C654 0.950 . S
H645 C656 0.950 . S
H646 C658 0.950 . S
H647 C659 0.950 . S
C648 H640 0.950 . S
C648 C649 1.386 . S
C648 C650 1.391 . S
C649 C648 1.386 . S
C649 C653 1.393 . S
C650 H642 0.950 . S
C650 C648 1.391 . S
C650 C651 1.400 . S
C651 C650 1.400 . S
C651 C652 1.398 . S
C651 C657 1.491 . S
C652 H643 0.950 . S
C652 C651 1.398 . S
C652 C653 1.391 . S
C653 H641 0.950 . S
C653 C649 1.393 . S
C653 C652 1.391 . S
C654 H644 0.950 . S
C654 C655 1.386 . S
C654 C656 1.391 . S
C655 C654 1.386 . S
C655 C659 1.393 . S
C656 H645 0.950 . S
C656 C654 1.391 . S
C656 C657 1.400 . S
C657 C651 1.491 . S
C657 C656 1.400 . S
C657 C658 1.398 . S
C658 H646 0.950 . S
C658 C657 1.398 . S
C658 C659 1.391 . S
C659 H647 0.950 . S
C659 C655 1.393 . S
C659 C658 1.391 . S
H660 C668 0.950 . S
H661 C673 0.950 . S
H662 C670 0.950 . S
H663 C672 0.950 . S
H664 C674 0.950 . S
H665 C676 0.950 . S
H666 C678 0.950 . S
H667 C679 0.950 . S
C668 H660 0.950 . S
C668 C669 1.386 . S
C668 C670 1.391 . S
C669 C668 1.386 . S
C669 C673 1.393 . S
C670 H662 0.950 . S
C670 C668 1.391 . S
C670 C671 1.400 . S
C671 C670 1.400 . S
C671 C672 1.398 . S
C671 C677 1.491 . S
C672 H663 0.950 . S
C672 C671 1.398 . S
C672 C673 1.391 . S
C673 H661 0.950 . S
C673 C669 1.393 . S
C673 C672 1.391 . S
C674 H664 0.950 . S
C674 C675 1.386 . S
C674 C676 1.391 . S
C675 C674 1.386 . S
C675 C679 1.393 . S
C676 H665 0.950 . S
C676 C674 1.391 . S
C676 C677 1.400 . S
C677 C671 1.491 . S
C677 C676 1.400 . S
C677 C678 1.398 . S
C678 H666 0.950 . S
C678 C677 1.398 . S
C678 C679 1.391 . S
C679 H667 0.950 . S
C679 C675 1.393 . S
C679 C678 1.391 . S
H680 C688 0.950 . S
H681 C693 0.950 . S
H682 C690 0.950 . S
H683 C692 0.950 . S
H684 C694 0.950 . S
H685 C696 0.950 . S
H686 C698 0.950 . S
H687 C699 0.950 . S
C688 H680 0.950 . S
C688 C689 1.386 . S
C688 C690 1.391 . S
C689 C688 1.386 . S
C689 C693 1.393 . S
C690 H682 0.950 . S
C690 C688 1.391 . S
C690 C691 1.400 . S
C691 C690 1.400 . S
C691 C692 1.398 . S
C691 C697 1.491 . S
C692 H683 0.950 . S
C692 C691 1.398 . S
C692 C693 1.391 . S
C693 H681 0.950 . S
C693 C689 1.393 . S
C693 C692 1.391 . S
C694 H684 0.950 . S
C694 C695 1.386 . S
C694 C696 1.391 . S
C695 C694 1.386 . S
C695 C699 1.393 . S
C696 H685 0.950 . S
C696 C694 1.391 . S
C696 C697 1.400 . S
C697 C691 1.491 . S
C697 C696 1.400 . S
C697 C698 1.398 . S
C698 H686 0.950 . S
C698 C697 1.398 . S
C698 C699 1.391 . S
C699 H687 0.950 . S
C699 C695 1.393 . S
C699 C698 1.391 . S
H700 C708 0.950 . S
H701 C713 0.950 . S
H702 C710 0.950 . S
H703 C712 0.950 . S
H704 C714 0.950 . S
H705 C716 0.950 . S
H706 C718 0.950 . S
H707 C719 0.950 . S
C708 H700 0.950 . S
C708 C709 1.386 . S
C708 C710 1.391 . S
C709 C708 1.386 . S
C709 C713 1.393 . S
C710 H702 0.950 . S
C710 C708 1.391 . S
C710 C711 1.400 . S
C711 C710 1.400 . S
C711 C712 1.398 . S
C711 C717 1.491 . S
C712 H703 0.950 . S
C712 C711 1.398 . S
C712 C713 1.391 . S
C713 H701 0.950 . S
C713 C709 1.393 . S
C713 C712 1.391 . S
C714 H704 0.950 . S
C714 C715 1.386 . S
C714 C716 1.391 . S
C715 C714 1.386 . S
C715 C719 1.393 . S
C716 H705 0.950 . S
C716 C714 1.391 . S
C716 C717 1.400 . S
C717 C711 1.491 . S
C717 C716 1.400 . S
C717 C718 1.398 . S
C718 H706 0.950 . S
C718 C717 1.398 . S
C718 C719 1.391 . S
C719 H707 0.950 . S
C719 C715 1.393 . S
C719 C718 1.391 . S
H720 C728 0.950 . S
H721 C733 0.950 . S
H722 C730 0.950 . S
H723 C732 0.950 . S
H724 C734 0.950 . S
H725 C736 0.950 . S
H726 C738 0.950 . S
H727 C739 0.950 . S
C728 H720 0.950 . S
C728 C729 1.386 . S
C728 C730 1.391 . S
C729 C728 1.386 . S
C729 C733 1.393 1_455 S
C730 H722 0.950 . S
C730 C728 1.391 . S
C730 C731 1.400 . S
C731 C730 1.400 . S
C731 C732 1.398 1_455 S
C731 C737 1.491 . S
C732 H723 0.950 . S
C732 C731 1.398 1_655 S
C732 C733 1.391 . S
C733 H721 0.950 . S
C733 C729 1.393 1_655 S
C733 C732 1.391 . S
C734 H724 0.950 . S
C734 C735 1.386 1_655 S
C734 C736 1.391 . S
C735 C734 1.386 1_455 S
C735 C739 1.393 . S
C736 H725 0.950 . S
C736 C734 1.391 . S
C736 C737 1.400 1_655 S
C737 C731 1.491 . S
C737 C736 1.400 1_455 S
C737 C738 1.398 . S
C738 H726 0.950 . S
C738 C737 1.398 . S
C738 C739 1.391 . S
C739 H727 0.950 . S
C739 C735 1.393 . S
C739 C738 1.391 . S
H740 C748 0.950 . S
H741 C753 0.950 . S
H742 C750 0.950 . S
H743 C752 0.950 . S
H744 C754 0.950 . S
H745 C756 0.950 . S
H746 C758 0.950 . S
H747 C759 0.950 . S
C748 H740 0.950 . S
C748 C749 1.386 . S
C748 C750 1.391 . S
C749 C748 1.386 . S
C749 C753 1.393 . S
C750 H742 0.950 . S
C750 C748 1.391 . S
C750 C751 1.400 . S
C751 C750 1.400 . S
C751 C752 1.398 . S
C751 C757 1.491 . S
C752 H743 0.950 . S
C752 C751 1.398 . S
C752 C753 1.391 . S
C753 H741 0.950 . S
C753 C749 1.393 . S
C753 C752 1.391 . S
C754 H744 0.950 . S
C754 C755 1.386 . S
C754 C756 1.391 . S
C755 C754 1.386 . S
C755 C759 1.393 . S
C756 H745 0.950 . S
C756 C754 1.391 . S
C756 C757 1.400 . S
C757 C751 1.491 . S
C757 C756 1.400 . S
C757 C758 1.398 . S
C758 H746 0.950 . S
C758 C757 1.398 . S
C758 C759 1.391 . S
C759 H747 0.950 . S
C759 C755 1.393 . S
C759 C758 1.391 . S
H760 C768 0.950 . S
H761 C773 0.950 . S
H762 C770 0.950 . S
H763 C772 0.950 . S
H764 C774 0.950 . S
H765 C776 0.950 . S
H766 C778 0.950 . S
H767 C779 0.948 . S
C768 H760 0.950 . S
C768 C769 1.386 . S
C768 C770 1.391 . S
C769 C768 1.386 . S
C769 C773 1.393 . S
C770 H762 0.950 . S
C770 C768 1.391 . S
C770 C771 1.400 . S
C771 C770 1.400 . S
C771 C772 1.398 . S
C771 C777 1.491 . S
C772 H763 0.950 . S
C772 C771 1.398 . S
C772 C773 1.391 . S
C773 H761 0.950 . S
C773 C769 1.393 . S
C773 C772 1.391 . S
C774 H764 0.950 . S
C774 C775 1.386 . S
C774 C776 1.391 . S
C775 C774 1.386 . S
C775 C779 1.393 . S
C776 H765 0.950 . S
C776 C774 1.391 . S
C776 C777 1.400 . S
C777 C771 1.491 . S
C777 C776 1.400 . S
C777 C778 1.398 . S
C778 H766 0.950 . S
C778 C777 1.398 . S
C778 C779 1.391 . S
C779 H767 0.948 . S
C779 C775 1.393 . S
C779 C778 1.391 . S
H780 C788 0.950 . S
H781 C793 0.950 . S
H782 C790 0.950 . S
H783 C792 0.950 . S
H784 C794 0.950 . S
H785 C796 0.950 . S
H786 C798 0.950 . S
H787 C799 0.950 . S
C788 H780 0.950 . S
C788 C789 1.386 . S
C788 C790 1.391 . S
C789 C788 1.386 . S
C789 C793 1.393 . S
C790 H782 0.950 . S
C790 C788 1.391 . S
C790 C791 1.400 . S
C791 C790 1.400 . S
C791 C792 1.398 . S
C791 C797 1.491 . S
C792 H783 0.950 . S
C792 C791 1.398 . S
C792 C793 1.391 . S
C793 H781 0.950 . S
C793 C789 1.393 . S
C793 C792 1.391 . S
C794 H784 0.950 . S
C794 C795 1.386 . S
C794 C796 1.391 1_554 S
C795 C794 1.386 . S
C795 C799 1.393 . S
C796 H785 0.950 . S
C796 C794 1.391 1_556 S
C796 C797 1.400 . S
C797 C791 1.491 . S
C797 C796 1.400 . S
C797 C798 1.398 . S
C798 H786 0.950 . S
C798 C797 1.398 . S
C798 C799 1.391 1_556 S
C799 H787 0.950 . S
C799 C795 1.393 . S
C799 C798 1.391 1_554 S
H800 C808 0.950 . S
H801 C813 0.950 . S
H802 C810 0.950 . S
H803 C812 0.950 . S
H804 C814 0.950 . S
H805 C816 0.950 . S
H806 C818 0.950 . S
H807 C819 0.950 . S
C808 H800 0.950 . S
C808 C809 1.386 . S
C808 C810 1.391 . S
C809 C808 1.386 . S
C809 C813 1.393 . S
C810 H802 0.950 . S
C810 C808 1.391 . S
C810 C811 1.400 . S
C811 C810 1.400 . S
C811 C812 1.398 . S
C811 C817 1.491 . S
C812 H803 0.950 . S
C812 C811 1.398 . S
C812 C813 1.391 . S
C813 H801 0.950 . S
C813 C809 1.393 . S
C813 C812 1.391 . S
C814 H804 0.950 . S
C814 C815 1.386 . S
C814 C816 1.391 1_554 S
C815 C814 1.386 . S
C815 C819 1.393 . S
C816 H805 0.950 . S
C816 C814 1.391 1_556 S
C816 C817 1.400 . S
C817 C811 1.491 . S
C817 C816 1.400 . S
C817 C818 1.398 . S
C818 H806 0.950 . S
C818 C817 1.398 . S
C818 C819 1.391 1_556 S
C819 H807 0.950 . S
C819 C815 1.393 . S
C819 C818 1.391 1_554 S
H820 C828 0.950 . S
H821 C833 0.950 . S
H822 C830 0.950 . S
H823 C832 0.950 . S
H824 C834 0.950 . S
H825 C836 0.950 . S
H826 C838 0.950 . S
H827 C839 0.950 . S
C828 H820 0.950 . S
C828 C829 1.386 . S
C828 C830 1.391 . S
C829 C828 1.386 . S
C829 C833 1.393 . S
C830 H822 0.950 . S
C830 C828 1.391 . S
C830 C831 1.400 . S
C831 C830 1.400 . S
C831 C832 1.398 . S
C831 C837 1.491 . S
C832 H823 0.950 . S
C832 C831 1.398 . S
C832 C833 1.391 . S
C833 H821 0.950 . S
C833 C829 1.393 . S
C833 C832 1.391 . S
C834 H824 0.950 . S
C834 C835 1.386 . S
C834 C836 1.391 1_554 S
C835 C834 1.386 . S
C835 C839 1.393 . S
C836 H825 0.950 . S
C836 C834 1.391 1_556 S
C836 C837 1.400 . S
C837 C831 1.491 . S
C837 C836 1.400 . S
C837 C838 1.398 . S
C838 H826 0.950 . S
C838 C837 1.398 . S
C838 C839 1.391 1_556 S
C839 H827 0.950 . S
C839 C835 1.393 . S
C839 C838 1.391 1_554 S
H840 C848 0.950 . S
H841 C853 0.950 . S
H842 C850 0.950 . S
H843 C852 0.950 . S
H844 C854 0.950 . S
H845 C856 0.950 . S
H846 C858 0.950 . S
H847 C859 0.950 . S
C848 H840 0.950 . S
C848 C849 1.386 . S
C848 C850 1.391 . S
C849 C848 1.386 . S
C849 C853 1.393 . S
C850 H842 0.950 . S
C850 C848 1.391 . S
C850 C851 1.400 . S
C851 C850 1.400 . S
C851 C852 1.398 . S
C851 C857 1.491 . S
C852 H843 0.950 . S
C852 C851 1.398 . S
C852 C853 1.391 . S
C853 H841 0.950 . S
C853 C849 1.393 . S
C853 C852 1.391 . S
C854 H844 0.950 . S
C854 C855 1.386 . S
C854 C856 1.391 1_556 S
C855 C854 1.386 . S
C855 C859 1.393 . S
C856 H845 0.950 . S
C856 C854 1.391 1_554 S
C856 C857 1.400 . S
C857 C851 1.491 . S
C857 C856 1.400 . S
C857 C858 1.398 . S
C858 H846 0.950 . S
C858 C857 1.398 . S
C858 C859 1.391 1_554 S
C859 H847 0.950 . S
C859 C855 1.393 . S
C859 C858 1.391 1_556 S
H860 C868 0.950 . S
H861 C873 0.950 . S
H862 C870 0.950 . S
H863 C872 0.950 . S
H864 C874 0.950 . S
H865 C876 0.950 . S
H866 C878 0.950 . S
H867 C879 0.950 . S
C868 H860 0.950 . S
C868 C869 1.386 . S
C868 C870 1.391 1_556 S
C869 C868 1.386 . S
C869 C873 1.393 . S
C870 H862 0.950 . S
C870 C868 1.391 1_554 S
C870 C871 1.400 . S
C871 C870 1.400 . S
C871 C872 1.398 . S
C871 C877 1.491 . S
C872 H863 0.950 . S
C872 C871 1.398 . S
C872 C873 1.391 1_554 S
C873 H861 0.950 . S
C873 C869 1.393 . S
C873 C872 1.391 1_556 S
C874 H864 0.950 . S
C874 C875 1.386 . S
C874 C876 1.391 . S
C875 C874 1.386 . S
C875 C879 1.393 . S
C876 H865 0.950 . S
C876 C874 1.391 . S
C876 C877 1.400 . S
C877 C871 1.491 . S
C877 C876 1.400 . S
C877 C878 1.398 . S
C878 H866 0.950 . S
C878 C877 1.398 . S
C878 C879 1.391 . S
C879 H867 0.950 . S
C879 C875 1.393 . S
C879 C878 1.391 . S
H880 C888 0.950 . S
H881 C893 0.950 . S
H882 C890 0.950 . S
H883 C892 0.950 . S
H884 C894 0.950 . S
H885 C896 0.950 . S
H886 C898 0.950 . S
H887 C899 0.950 . S
C888 H880 0.950 . S
C888 C889 1.386 . S
C888 C890 1.391 . S
C889 C888 1.386 . S
C889 C893 1.393 . S
C890 H882 0.950 . S
C890 C888 1.391 . S
C890 C891 1.400 . S
C891 C890 1.400 . S
C891 C892 1.398 . S
C891 C897 1.491 . S
C892 H883 0.950 . S
C892 C891 1.398 . S
C892 C893 1.391 . S
C893 H881 0.950 . S
C893 C889 1.393 . S
C893 C892 1.391 . S
C894 H884 0.950 . S
C894 C895 1.386 . S
C894 C896 1.391 1_556 S
C895 C894 1.386 . S
C895 C899 1.393 . S
C896 H885 0.950 . S
C896 C894 1.391 1_554 S
C896 C897 1.400 . S
C897 C891 1.491 . S
C897 C896 1.400 . S
C897 C898 1.398 . S
C898 H886 0.950 . S
C898 C897 1.398 . S
C898 C899 1.391 1_554 S
C899 H887 0.950 . S
C899 C895 1.393 . S
C899 C898 1.391 1_556 S
C369 C6 1.922 . S
C375 C290 1.860 . S
C389 C46 1.934 . S
C395 C330 1.873 . S
C409 C86 1.934 . S
C415 C250 1.872 . S
C429 C166 1.930 . S
C435 C90 1.872 . S
C449 C206 1.931 . S
C455 C10 1.860 . S
C469 C50 1.857 . S
C475 C126 1.922 . S
C489 C286 1.923 . S
C495 C210 1.850 . S
C509 C326 1.921 . S
C515 C130 1.854 . S
C529 C170 1.850 . S
C535 C246 1.926 1_545 S
C549 C95 1.693 . S
C555 C19 1.696 1_554 S
C569 C59 1.700 1_554 S
C575 C15 1.688 . S
C589 C55 1.691 . S
C595 C99 1.698 1_554 S
C609 C139 1.701 . S
C615 C215 1.686 . S
C629 C135 1.690 . S
C635 C179 1.699 . S
C649 C175 1.691 . S
C655 C219 1.698 . S
C669 C335 1.692 . S
C675 C259 1.697 . S
C689 C299 1.700 . S
C695 C255 1.688 . S
C709 C339 1.701 . S
C715 C295 1.688 . S
C729 C18 0.951 1_455 S
C735 C9 0.951 . S
C749 C58 0.964 . S
C755 C49 0.964 . S
C769 C98 0.954 . S
C775 C89 0.954 1_545 S
C789 C129 0.977 . S
C795 C138 0.977 . S
C809 C169 0.958 . S
C815 C178 0.958 . S
C829 C209 0.968 . S
C835 C218 0.968 . S
C849 C258 0.981 . S
C855 C249 0.981 . S
C869 C289 0.983 . S
C875 C298 0.983 . S
C889 C338 0.982 . S
C895 C329 0.982 . S
