# Generated by pormake.
# Topology wln, (5)-cn, num edge types: 1
# Building blocks:
#     Node 0, Type 0, BuildingBlock: XOMCOT_clean_sbu_0, # of connection points: 5
#     Node 1, Type 0, BuildingBlock: XOMCOT_clean_sbu_0, # of connection points: 5
#     Node 2, Type 0, BuildingBlock: XOMCOT_clean_sbu_0, # of connection points: 5
#     Node 3, Type 0, BuildingBlock: XOMCOT_clean_sbu_0, # of connection points: 5
#     Node 4, Type 0, BuildingBlock: XOMCOT_clean_sbu_0, # of connection points: 5
#     Node 5, Type 0, BuildingBlock: XOMCOT_clean_sbu_0, # of connection points: 5
#     Node 6, Type 0, BuildingBlock: XOMCOT_clean_sbu_0, # of connection points: 5
#     Node 7, Type 0, BuildingBlock: XOMCOT_clean_sbu_0, # of connection points: 5
#     Node 8, Type 0, BuildingBlock: XOMCOT_clean_sbu_0, # of connection points: 5
#     Node 9, Type 0, BuildingBlock: XOMCOT_clean_sbu_0, # of connection points: 5
#     Node 10, Type 0, BuildingBlock: XOMCOT_clean_sbu_0, # of connection points: 5
#     Node 11, Type 0, BuildingBlock: XOMCOT_clean_sbu_0, # of connection points: 5
#     Node 12, Type 0, BuildingBlock: XOMCOT_clean_sbu_0, # of connection points: 5
#     Node 13, Type 0, BuildingBlock: XOMCOT_clean_sbu_0, # of connection points: 5
#     Node 14, Type 0, BuildingBlock: XOMCOT_clean_sbu_0, # of connection points: 5
#     Node 15, Type 0, BuildingBlock: XOMCOT_clean_sbu_0, # of connection points: 5
#     Node 16, Type 0, BuildingBlock: XOMCOT_clean_sbu_0, # of connection points: 5
#     Node 17, Type 0, BuildingBlock: XOMCOT_clean_sbu_0, # of connection points: 5
#     Node 18, Type 0, BuildingBlock: XOMCOT_clean_sbu_0, # of connection points: 5
#     Node 19, Type 0, BuildingBlock: XOMCOT_clean_sbu_0, # of connection points: 5
#     Node 20, Type 0, BuildingBlock: XOMCOT_clean_sbu_0, # of connection points: 5
#     Node 21, Type 0, BuildingBlock: XOMCOT_clean_sbu_0, # of connection points: 5
#     Node 22, Type 0, BuildingBlock: XOMCOT_clean_sbu_0, # of connection points: 5
#     Node 23, Type 0, BuildingBlock: XOMCOT_clean_sbu_0, # of connection points: 5
#     Node 24, Type 0, BuildingBlock: XOMCOT_clean_sbu_0, # of connection points: 5
#     Node 25, Type 0, BuildingBlock: XOMCOT_clean_sbu_0, # of connection points: 5
#     Node 26, Type 0, BuildingBlock: XOMCOT_clean_sbu_0, # of connection points: 5
#     Node 27, Type 0, BuildingBlock: XOMCOT_clean_sbu_0, # of connection points: 5
#     Node 28, Type 0, BuildingBlock: XOMCOT_clean_sbu_0, # of connection points: 5
#     Node 29, Type 0, BuildingBlock: XOMCOT_clean_sbu_0, # of connection points: 5
#     Node 30, Type 0, BuildingBlock: XOMCOT_clean_sbu_0, # of connection points: 5
#     Node 31, Type 0, BuildingBlock: XOMCOT_clean_sbu_0, # of connection points: 5
#     Node 32, Type 0, BuildingBlock: XOMCOT_clean_sbu_0, # of connection points: 5
#     Node 33, Type 0, BuildingBlock: XOMCOT_clean_sbu_0, # of connection points: 5
#     Node 34, Type 0, BuildingBlock: XOMCOT_clean_sbu_0, # of connection points: 5
#     Node 35, Type 0, BuildingBlock: XOMCOT_clean_sbu_0, # of connection points: 5
#     Edge 36, Type (0, 0), BuildingBlock: XIVTED_clean_linker_0, # of connection points: 2
#     Edge 37, Type (0, 0), BuildingBlock: XIVTED_clean_linker_0, # of connection points: 2
#     Edge 38, Type (0, 0), BuildingBlock: XIVTED_clean_linker_0, # of connection points: 2
#     Edge 39, Type (0, 0), BuildingBlock: XIVTED_clean_linker_0, # of connection points: 2
#     Edge 40, Type (0, 0), BuildingBlock: XIVTED_clean_linker_0, # of connection points: 2
#     Edge 41, Type (0, 0), BuildingBlock: XIVTED_clean_linker_0, # of connection points: 2
#     Edge 42, Type (0, 0), BuildingBlock: XIVTED_clean_linker_0, # of connection points: 2
#     Edge 43, Type (0, 0), BuildingBlock: XIVTED_clean_linker_0, # of connection points: 2
#     Edge 44, Type (0, 0), BuildingBlock: XIVTED_clean_linker_0, # of connection points: 2
#     Edge 45, Type (0, 0), BuildingBlock: XIVTED_clean_linker_0, # of connection points: 2
#     Edge 46, Type (0, 0), BuildingBlock: XIVTED_clean_linker_0, # of connection points: 2
#     Edge 47, Type (0, 0), BuildingBlock: XIVTED_clean_linker_0, # of connection points: 2
#     Edge 48, Type (0, 0), BuildingBlock: XIVTED_clean_linker_0, # of connection points: 2
#     Edge 49, Type (0, 0), BuildingBlock: XIVTED_clean_linker_0, # of connection points: 2
#     Edge 50, Type (0, 0), BuildingBlock: XIVTED_clean_linker_0, # of connection points: 2
#     Edge 51, Type (0, 0), BuildingBlock: XIVTED_clean_linker_0, # of connection points: 2
#     Edge 52, Type (0, 0), BuildingBlock: XIVTED_clean_linker_0, # of connection points: 2
#     Edge 53, Type (0, 0), BuildingBlock: XIVTED_clean_linker_0, # of connection points: 2
#     Edge 54, Type (0, 0), BuildingBlock: XIVTED_clean_linker_0, # of connection points: 2
#     Edge 55, Type (0, 0), BuildingBlock: XIVTED_clean_linker_0, # of connection points: 2
#     Edge 56, Type (0, 0), BuildingBlock: XIVTED_clean_linker_0, # of connection points: 2
#     Edge 57, Type (0, 0), BuildingBlock: XIVTED_clean_linker_0, # of connection points: 2
#     Edge 58, Type (0, 0), BuildingBlock: XIVTED_clean_linker_0, # of connection points: 2
#     Edge 59, Type (0, 0), BuildingBlock: XIVTED_clean_linker_0, # of connection points: 2
#     Edge 60, Type (0, 0), BuildingBlock: XIVTED_clean_linker_0, # of connection points: 2
#     Edge 61, Type (0, 0), BuildingBlock: XIVTED_clean_linker_0, # of connection points: 2
#     Edge 62, Type (0, 0), BuildingBlock: XIVTED_clean_linker_0, # of connection points: 2
#     Edge 63, Type (0, 0), BuildingBlock: XIVTED_clean_linker_0, # of connection points: 2
#     Edge 64, Type (0, 0), BuildingBlock: XIVTED_clean_linker_0, # of connection points: 2
#     Edge 65, Type (0, 0), BuildingBlock: XIVTED_clean_linker_0, # of connection points: 2
#     Edge 66, Type (0, 0), BuildingBlock: XIVTED_clean_linker_0, # of connection points: 2
#     Edge 67, Type (0, 0), BuildingBlock: XIVTED_clean_linker_0, # of connection points: 2
#     Edge 68, Type (0, 0), BuildingBlock: XIVTED_clean_linker_0, # of connection points: 2
#     Edge 69, Type (0, 0), BuildingBlock: XIVTED_clean_linker_0, # of connection points: 2
#     Edge 70, Type (0, 0), BuildingBlock: XIVTED_clean_linker_0, # of connection points: 2
#     Edge 71, Type (0, 0), BuildingBlock: XIVTED_clean_linker_0, # of connection points: 2
#     Edge 72, Type (0, 0), BuildingBlock: XIVTED_clean_linker_0, # of connection points: 2
#     Edge 73, Type (0, 0), BuildingBlock: XIVTED_clean_linker_0, # of connection points: 2
#     Edge 74, Type (0, 0), BuildingBlock: XIVTED_clean_linker_0, # of connection points: 2
#     Edge 75, Type (0, 0), BuildingBlock: XIVTED_clean_linker_0, # of connection points: 2
#     Edge 76, Type (0, 0), BuildingBlock: XIVTED_clean_linker_0, # of connection points: 2
#     Edge 77, Type (0, 0), BuildingBlock: XIVTED_clean_linker_0, # of connection points: 2
#     Edge 78, Type (0, 0), BuildingBlock: XIVTED_clean_linker_0, # of connection points: 2
#     Edge 79, Type (0, 0), BuildingBlock: XIVTED_clean_linker_0, # of connection points: 2
#     Edge 80, Type (0, 0), BuildingBlock: XIVTED_clean_linker_0, # of connection points: 2
#     Edge 81, Type (0, 0), BuildingBlock: XIVTED_clean_linker_0, # of connection points: 2
#     Edge 82, Type (0, 0), BuildingBlock: XIVTED_clean_linker_0, # of connection points: 2
#     Edge 83, Type (0, 0), BuildingBlock: XIVTED_clean_linker_0, # of connection points: 2
#     Edge 84, Type (0, 0), BuildingBlock: XIVTED_clean_linker_0, # of connection points: 2
#     Edge 85, Type (0, 0), BuildingBlock: XIVTED_clean_linker_0, # of connection points: 2
#     Edge 86, Type (0, 0), BuildingBlock: XIVTED_clean_linker_0, # of connection points: 2
#     Edge 87, Type (0, 0), BuildingBlock: XIVTED_clean_linker_0, # of connection points: 2
#     Edge 88, Type (0, 0), BuildingBlock: XIVTED_clean_linker_0, # of connection points: 2
#     Edge 89, Type (0, 0), BuildingBlock: XIVTED_clean_linker_0, # of connection points: 2
#     Edge 90, Type (0, 0), BuildingBlock: XIVTED_clean_linker_0, # of connection points: 2
#     Edge 91, Type (0, 0), BuildingBlock: XIVTED_clean_linker_0, # of connection points: 2
#     Edge 92, Type (0, 0), BuildingBlock: XIVTED_clean_linker_0, # of connection points: 2
#     Edge 93, Type (0, 0), BuildingBlock: XIVTED_clean_linker_0, # of connection points: 2
#     Edge 94, Type (0, 0), BuildingBlock: XIVTED_clean_linker_0, # of connection points: 2
#     Edge 95, Type (0, 0), BuildingBlock: XIVTED_clean_linker_0, # of connection points: 2
#     Edge 96, Type (0, 0), BuildingBlock: XIVTED_clean_linker_0, # of connection points: 2
#     Edge 97, Type (0, 0), BuildingBlock: XIVTED_clean_linker_0, # of connection points: 2
#     Edge 98, Type (0, 0), BuildingBlock: XIVTED_clean_linker_0, # of connection points: 2
#     Edge 99, Type (0, 0), BuildingBlock: XIVTED_clean_linker_0, # of connection points: 2
#     Edge 100, Type (0, 0), BuildingBlock: XIVTED_clean_linker_0, # of connection points: 2
#     Edge 101, Type (0, 0), BuildingBlock: XIVTED_clean_linker_0, # of connection points: 2
#     Edge 102, Type (0, 0), BuildingBlock: XIVTED_clean_linker_0, # of connection points: 2
#     Edge 103, Type (0, 0), BuildingBlock: XIVTED_clean_linker_0, # of connection points: 2
#     Edge 104, Type (0, 0), BuildingBlock: XIVTED_clean_linker_0, # of connection points: 2
#     Edge 105, Type (0, 0), BuildingBlock: XIVTED_clean_linker_0, # of connection points: 2
#     Edge 106, Type (0, 0), BuildingBlock: XIVTED_clean_linker_0, # of connection points: 2
#     Edge 107, Type (0, 0), BuildingBlock: XIVTED_clean_linker_0, # of connection points: 2
#     Edge 108, Type (0, 0), BuildingBlock: XIVTED_clean_linker_0, # of connection points: 2
#     Edge 109, Type (0, 0), BuildingBlock: XIVTED_clean_linker_0, # of connection points: 2
#     Edge 110, Type (0, 0), BuildingBlock: XIVTED_clean_linker_0, # of connection points: 2
#     Edge 111, Type (0, 0), BuildingBlock: XIVTED_clean_linker_0, # of connection points: 2
#     Edge 112, Type (0, 0), BuildingBlock: XIVTED_clean_linker_0, # of connection points: 2
#     Edge 113, Type (0, 0), BuildingBlock: XIVTED_clean_linker_0, # of connection points: 2
#     Edge 114, Type (0, 0), BuildingBlock: XIVTED_clean_linker_0, # of connection points: 2
#     Edge 115, Type (0, 0), BuildingBlock: XIVTED_clean_linker_0, # of connection points: 2
#     Edge 116, Type (0, 0), BuildingBlock: XIVTED_clean_linker_0, # of connection points: 2
#     Edge 117, Type (0, 0), BuildingBlock: XIVTED_clean_linker_0, # of connection points: 2
#     Edge 118, Type (0, 0), BuildingBlock: XIVTED_clean_linker_0, # of connection points: 2
#     Edge 119, Type (0, 0), BuildingBlock: XIVTED_clean_linker_0, # of connection points: 2
#     Edge 120, Type (0, 0), BuildingBlock: XIVTED_clean_linker_0, # of connection points: 2
#     Edge 121, Type (0, 0), BuildingBlock: XIVTED_clean_linker_0, # of connection points: 2
#     Edge 122, Type (0, 0), BuildingBlock: XIVTED_clean_linker_0, # of connection points: 2
#     Edge 123, Type (0, 0), BuildingBlock: XIVTED_clean_linker_0, # of connection points: 2
#     Edge 124, Type (0, 0), BuildingBlock: XIVTED_clean_linker_0, # of connection points: 2
#     Edge 125, Type (0, 0), BuildingBlock: XIVTED_clean_linker_0, # of connection points: 2
# Relax obj value: 0.163
# Max RMSD: 0.177
# Mean RMSD: 0.177
data_MOF--net-wln--node1-XOMCOT_clean_sbu_0--edge1-XIVTED_clean_linker_0
_symmetry_space_group_name_H-M    P1
_symmetry_Int_Tables_number       1
_symmetry_cell_setting            triclinic
loop_
_symmetry_equiv_pos_as_xyz
'x, y, z'
_cell_length_a     126.82974
_cell_length_b     126.84604
_cell_length_c     17.678883
_cell_angle_alpha  89.998391
_cell_angle_beta   89.986472
_cell_angle_gamma 120.03772
loop_
_atom_site_label
_atom_site_type_symbol
_atom_site_fract_x
_atom_site_fract_y
_atom_site_fract_z
_atom_type_partial_charge
Co0 Co 0.11536 0.38929 0.03819 0.0
C1 C 0.11531 0.38707 0.2041 0.0
C2 C 0.10328 0.36985 0.15202 0.0
C3 C 0.10238 0.36838 0.22945 0.0
N4 N 0.11143 0.38156 0.13642 0.0
N5 N 0.10989 0.37924 0.26205 0.0
H6 H 0.12182 0.39667 0.21059 0.0
H7 H 0.09806 0.36296 0.11024 0.0
C8 C 0.11851 0.3714 0.94504 0.0
O9 O 0.12907 0.38036 0.92195 0.0
N10 N 0.11882 0.39702 0.93847 0.0
C11 C 0.12428 0.40901 0.92173 0.0
C12 C 0.12418 0.41042 0.84455 0.0
C13 C 0.11475 0.39138 0.87104 0.0
N14 N 0.11827 0.39928 0.8126 0.0
C15 C 0.1411 0.40612 0.05059 0.0
C16 C 0.14742 0.38892 0.08982 0.0
C17 C 0.15661 0.40097 0.07749 0.0
C18 C 0.15336 0.40969 0.05944 0.0
C19 C 0.13529 0.38573 0.07949 0.0
N20 N 0.13231 0.39415 0.05559 0.0
H21 H 0.13874 0.41302 0.04081 0.0
H22 H 0.12829 0.37639 0.08897 0.0
H23 H 0.12768 0.41634 0.96229 0.0
H24 H 0.10889 0.38167 0.86469 0.0
O25 O 0.11544 0.40311 0.08227 0.0
O26 O 0.09922 0.38705 0.032 0.0
O27 O 0.11196 0.37345 0.99095 0.0
C28 C 0.10385 0.39746 0.06714 0.0
H29 H 0.09628 0.36008 0.25936 0.0
H30 H 0.12815 0.419 0.81458 0.0
H31 H 0.14957 0.38193 0.10491 0.0
H32 H 0.16022 0.41919 0.05253 0.0
Co33 Co 0.59903 0.72265 0.02351 0.0
C34 C 0.60128 0.7249 0.1914 0.0
C35 C 0.61761 0.72751 0.13903 0.0
C36 C 0.61897 0.72744 0.21613 0.0
N37 N 0.60665 0.72633 0.12313 0.0
N38 N 0.60865 0.72573 0.24894 0.0
H39 H 0.5919 0.72242 0.19929 0.0
H40 H 0.6239 0.7276 0.09747 0.0
C41 C 0.62372 0.7437 0.99455 0.0
O42 O 0.62227 0.74905 0.05411 0.0
N43 N 0.59154 0.71856 0.92498 0.0
C44 C 0.58023 0.71615 0.90707 0.0
C45 C 0.57888 0.71493 0.8297 0.0
C46 C 0.59689 0.71869 0.85892 0.0
N47 N 0.5894 0.71662 0.79952 0.0
C48 C 0.58842 0.73642 0.08098 0.0
C49 C 0.59741 0.75399 0.96917 0.0
C50 C 0.5904 0.7548 0.02757 0.0
C51 C 0.58575 0.7458 0.08347 0.0
C52 C 0.59995 0.74451 0.96935 0.0
N53 N 0.59598 0.73619 0.0269 0.0
H54 H 0.58398 0.72911 0.12089 0.0
H55 H 0.60499 0.74378 0.92235 0.0
H56 H 0.57361 0.71579 0.94716 0.0
H57 H 0.60615 0.7205 0.8544 0.0
O58 O 0.58409 0.71044 0.06766 0.0
O59 O 0.59899 0.70745 0.0271 0.0
O60 O 0.61538 0.73308 0.97462 0.0
C61 C 0.58839 0.70312 0.05955 0.0
H62 H 0.62662 0.72777 0.24546 0.0
H63 H 0.57097 0.7135 0.79803 0.0
H64 H 0.60098 0.76066 0.92407 0.0
H65 H 0.57985 0.74585 0.12764 0.0
Co66 Co 0.27004 0.87503 0.99779 0.0
C67 C 0.26763 0.87516 0.16599 0.0
C68 C 0.26709 0.89003 0.11283 0.0
C69 C 0.26704 0.89146 0.18987 0.0
N70 N 0.26708 0.87959 0.09745 0.0
N71 N 0.26743 0.88212 0.22322 0.0
H72 H 0.26889 0.86747 0.17452 0.0
H73 H 0.26777 0.89654 0.07088 0.0
C74 C 0.24978 0.88003 0.97306 0.0
O75 O 0.24455 0.87363 0.03419 0.0
N76 N 0.27339 0.87093 0.8991 0.0
C77 C 0.27533 0.86169 0.8823 0.0
C78 C 0.27634 0.86122 0.80499 0.0
C79 C 0.2733 0.876 0.83232 0.0
N80 N 0.275 0.87019 0.77362 0.0
C81 C 0.25613 0.85069 0.05614 0.0
C82 C 0.23764 0.84262 0.95062 0.0
C83 C 0.23716 0.83456 0.0064 0.0
C84 C 0.24661 0.83867 0.05926 0.0
C85 C 0.2473 0.85456 0.94984 0.0
N86 N 0.2561 0.85866 0.00444 0.0
H87 H 0.26378 0.85335 0.09309 0.0
H88 H 0.24782 0.86038 0.90379 0.0
H89 H 0.27558 0.85549 0.92324 0.0
H90 H 0.27187 0.88369 0.82687 0.0
O91 O 0.28215 0.87198 0.04064 0.0
O92 O 0.28552 0.88988 0.9974 0.0
O93 O 0.25995 0.88142 0.9501 0.0
C94 C 0.28972 0.88351 0.02984 0.0
H95 H 0.26745 0.89916 0.21894 0.0
H96 H 0.27747 0.85448 0.77425 0.0
H97 H 0.23063 0.83974 0.90777 0.0
H98 H 0.24684 0.83256 0.10113 0.0
Co99 Co 0.3923 0.12065 0.99715 0.0
C100 C 0.39015 0.12148 0.82927 0.0
C101 C 0.37334 0.1086 0.8811 0.0
C102 C 0.37187 0.10749 0.80398 0.0
N103 N 0.38471 0.11765 0.8975 0.0
N104 N 0.38248 0.11558 0.77137 0.0
H105 H 0.39979 0.12753 0.82155 0.0
H106 H 0.36674 0.10261 0.92214 0.0
C107 C 0.36853 0.11895 0.02771 0.0
O108 O 0.37118 0.12693 0.97308 0.0
N109 N 0.39979 0.12318 0.09559 0.0
C110 C 0.41159 0.13092 0.1117 0.0
C111 C 0.41312 0.13125 0.18886 0.0
C112 C 0.3943 0.11884 0.16287 0.0
N113 N 0.40223 0.1237 0.22099 0.0
C114 C 0.40451 0.14532 0.94377 0.0
C115 C 0.39694 0.15462 0.05949 0.0
C116 C 0.40435 0.16244 0.00213 0.0
C117 C 0.4083 0.1577 0.94435 0.0
C118 C 0.39339 0.14231 0.05671 0.0
N119 N 0.39666 0.13767 0.99726 0.0
H120 H 0.40829 0.14206 0.90177 0.0
H121 H 0.38803 0.13652 0.10283 0.0
H122 H 0.41851 0.1363 0.07041 0.0
H123 H 0.38462 0.11274 0.16946 0.0
O124 O 0.40683 0.1225 0.95181 0.0
O125 O 0.39112 0.10491 0.9899 0.0
O126 O 0.37606 0.11547 0.04576 0.0
C127 C 0.4018 0.11076 0.95775 0.0
H128 H 0.36375 0.10088 0.77451 0.0
H129 H 0.42156 0.13681 0.21892 0.0
H130 H 0.39378 0.15792 0.10576 0.0
H131 H 0.41446 0.16353 0.90076 0.0
Co132 Co 0.87547 0.27477 0.02326 0.0
C133 C 0.87597 0.27308 0.85738 0.0
C134 C 0.88953 0.27007 0.90929 0.0
C135 C 0.89061 0.26975 0.8319 0.0
N136 N 0.88033 0.27212 0.9249 0.0
N137 N 0.8821 0.27169 0.7993 0.0
H138 H 0.86874 0.27519 0.85126 0.0
H139 H 0.89525 0.26915 0.95109 0.0
C140 C 0.87411 0.25425 0.1125 0.0
O141 O 0.86328 0.25186 0.13575 0.0
N142 N 0.87107 0.27794 0.12319 0.0
C143 C 0.8644 0.28325 0.14007 0.0
C144 C 0.86425 0.28457 0.2172 0.0
C145 C 0.87555 0.27695 0.19055 0.0
N146 N 0.87122 0.28053 0.24888 0.0
C147 C 0.84948 0.26351 0.00614 0.0
C148 C 0.84575 0.24104 0.96095 0.0
C149 C 0.83571 0.24269 0.97 0.0
C150 C 0.83767 0.25414 0.99154 0.0
C151 C 0.85738 0.25063 0.9768 0.0
N152 N 0.85908 0.26151 0.00311 0.0
H153 H 0.85085 0.2724 0.0178 0.0
H154 H 0.86505 0.24926 0.96849 0.0
H155 H 0.86042 0.28661 0.09968 0.0
H156 H 0.88199 0.27379 0.19704 0.0
O157 O 0.87373 0.28774 0.98219 0.0
O158 O 0.89085 0.28977 0.0309 0.0
O159 O 0.88036 0.26326 0.06849 0.0
C160 C 0.88521 0.29473 0.99775 0.0
H161 H 0.89724 0.26831 0.80219 0.0
H162 H 0.8597 0.28859 0.24736 0.0
H163 H 0.84462 0.23236 0.94333 0.0
H164 H 0.83016 0.25589 0.99605 0.0
Co165 Co 0.72193 0.59984 0.99587 0.0
C166 C 0.72441 0.6021 0.82756 0.0
C167 C 0.72829 0.6188 0.88061 0.0
C168 C 0.72854 0.62036 0.80361 0.0
N169 N 0.72608 0.60745 0.89613 0.0
N170 N 0.72606 0.60982 0.7702 0.0
H171 H 0.72094 0.5925 0.81928 0.0
H172 H 0.72899 0.62535 0.92231 0.0
C173 C 0.7442 0.62362 0.02403 0.0
O174 O 0.74926 0.62104 0.96749 0.0
N175 N 0.71741 0.59233 0.09454 0.0
C176 C 0.71346 0.58054 0.11006 0.0
C177 C 0.71242 0.57894 0.18719 0.0
C178 C 0.71866 0.59775 0.16218 0.0
N179 N 0.71575 0.58978 0.21995 0.0
C180 C 0.73413 0.58756 0.93856 0.0
C181 C 0.75146 0.59519 0.05152 0.0
C182 C 0.75161 0.58772 0.99373 0.0
C183 C 0.7427 0.58375 0.93727 0.0
C184 C 0.74273 0.59876 0.05057 0.0
N185 N 0.73457 0.59546 0.99248 0.0
H186 H 0.72689 0.58373 0.89782 0.0
H187 H 0.74249 0.60413 0.09722 0.0
H188 H 0.71184 0.57366 0.06829 0.0
H189 H 0.72214 0.60741 0.16916 0.0
O190 O 0.709 0.58534 0.95195 0.0
O191 O 0.70737 0.60106 0.99271 0.0
O192 O 0.73326 0.61605 0.04382 0.0
C193 C 0.70231 0.59035 0.96099 0.0
H194 H 0.73002 0.62852 0.77477 0.0
H195 H 0.7096 0.57047 0.21678 0.0
H196 H 0.7581 0.59837 0.09679 0.0
H197 H 0.7422 0.57756 0.89336 0.0
Co198 Co 0.87129 0.60035 0.006 0.0
C199 C 0.87081 0.60248 0.83775 0.0
C200 C 0.88337 0.61935 0.8904 0.0
C201 C 0.88458 0.6209 0.81338 0.0
N202 N 0.87443 0.6079 0.9062 0.0
N203 N 0.87671 0.61026 0.78031 0.0
H204 H 0.86465 0.59289 0.82958 0.0
H205 H 0.88923 0.62595 0.93186 0.0
C206 C 0.87235 0.6239 0.03484 0.0
O207 O 0.86456 0.62115 0.97895 0.0
N208 N 0.86866 0.59296 0.1047 0.0
C209 C 0.86086 0.58122 0.12177 0.0
C210 C 0.8608 0.57981 0.19899 0.0
C211 C 0.87328 0.59854 0.1713 0.0
N212 N 0.86856 0.59072 0.23009 0.0
C213 C 0.84675 0.58768 0.95015 0.0
C214 C 0.83689 0.59513 0.0631 0.0
C215 C 0.82934 0.5877 0.0049 0.0
C216 C 0.83435 0.58378 0.94866 0.0
C217 C 0.84924 0.59881 0.06229 0.0
N218 N 0.85417 0.59564 0.00398 0.0
H219 H 0.85022 0.58391 0.90944 0.0
H220 H 0.85483 0.60421 0.10893 0.0
H221 H 0.85527 0.57427 0.08115 0.0
H222 H 0.87978 0.60815 0.17668 0.0
O223 O 0.86987 0.58594 0.96195 0.0
O224 O 0.8872 0.60187 0.00109 0.0
O225 O 0.87597 0.61651 0.05396 0.0
C226 C 0.88161 0.59115 0.96947 0.0
H227 H 0.89131 0.629 0.78417 0.0
H228 H 0.85506 0.5715 0.22993 0.0
H229 H 0.83336 0.59825 0.10833 0.0
H230 H 0.82871 0.5776 0.90456 0.0
Co231 Co 0.39682 0.27254 0.02358 0.0
C232 C 0.39453 0.26993 0.85525 0.0
C233 C 0.37782 0.26604 0.90827 0.0
C234 C 0.37626 0.26579 0.83127 0.0
N235 N 0.38917 0.26825 0.92386 0.0
N236 N 0.3868 0.26827 0.79787 0.0
H237 H 0.40414 0.27343 0.84696 0.0
H238 H 0.37127 0.26539 0.94987 0.0
C239 C 0.37297 0.25044 0.05277 0.0
O240 O 0.37556 0.24522 0.99727 0.0
N241 N 0.40435 0.27718 0.12212 0.0
C242 C 0.41615 0.28114 0.1376 0.0
C243 C 0.41775 0.28221 0.21473 0.0
C244 C 0.39894 0.27595 0.18979 0.0
N245 N 0.40692 0.27887 0.24754 0.0
C246 C 0.4087 0.25993 0.96673 0.0
C247 C 0.40086 0.24265 0.08015 0.0
C248 C 0.40793 0.2421 0.02106 0.0
C249 C 0.41208 0.25104 0.96465 0.0
C250 C 0.39771 0.2517 0.07992 0.0
N251 N 0.40104 0.25979 0.02137 0.0
H252 H 0.41258 0.26711 0.92557 0.0
H253 H 0.39251 0.25215 0.12694 0.0
H254 H 0.42302 0.28273 0.09585 0.0
H255 H 0.38927 0.27244 0.19684 0.0
O256 O 0.41136 0.2853 0.97886 0.0
O257 O 0.39572 0.28714 0.01882 0.0
O258 O 0.38057 0.2614 0.07188 0.0
C259 C 0.40637 0.29204 0.98644 0.0
H260 H 0.36811 0.26432 0.80245 0.0
H261 H 0.42623 0.28502 0.24428 0.0
H262 H 0.39758 0.23601 0.12547 0.0
H263 H 0.418 0.25125 0.91979 0.0
Co264 Co 0.7252 0.12368 0.95507 0.0
C265 C 0.72697 0.12316 0.78709 0.0
C266 C 0.72942 0.10936 0.83966 0.0
C267 C 0.72941 0.10795 0.76245 0.0
N268 N 0.7283 0.11918 0.85542 0.0
N269 N 0.72788 0.11667 0.7295 0.0
H270 H 0.72426 0.12988 0.77906 0.0
H271 H 0.72963 0.10323 0.88131 0.0
C272 C 0.74593 0.11956 0.98297 0.0
O273 O 0.75138 0.12667 0.92471 0.0
N274 N 0.72169 0.1277 0.05365 0.0
C275 C 0.71937 0.13671 0.06993 0.0
C276 C 0.71834 0.13722 0.14719 0.0
C277 C 0.72194 0.12278 0.12071 0.0
N278 N 0.72002 0.12849 0.17906 0.0
C279 C 0.73953 0.14779 0.89324 0.0
C280 C 0.75711 0.15639 0.00495 0.0
C281 C 0.75812 0.16411 0.94545 0.0
C282 C 0.74915 0.15975 0.88941 0.0
C283 C 0.74743 0.14446 0.00601 0.0
N284 N 0.73908 0.14009 0.94865 0.0
H285 H 0.73223 0.14498 0.85344 0.0
H286 H 0.74658 0.13878 0.05379 0.0
H287 H 0.71881 0.1427 0.02864 0.0
H288 H 0.72398 0.1155 0.12684 0.0
O289 O 0.71313 0.12668 0.91113 0.0
O290 O 0.70973 0.10881 0.95592 0.0
O291 O 0.73536 0.11737 0.00325 0.0
C292 C 0.70556 0.11519 0.92317 0.0
H293 H 0.73013 0.10085 0.73315 0.0
H294 H 0.71664 0.14363 0.17746 0.0
H295 H 0.76377 0.15951 0.05015 0.0
H296 H 0.74936 0.16565 0.84436 0.0
Co297 Co 0.59599 0.8719 0.97746 0.0
C298 C 0.59819 0.87214 0.14344 0.0
C299 C 0.61481 0.88569 0.09167 0.0
C300 C 0.61621 0.88671 0.16903 0.0
N301 N 0.60353 0.87653 0.07593 0.0
N302 N 0.60572 0.87822 0.20157 0.0
H303 H 0.58881 0.86497 0.14952 0.0
H304 H 0.62145 0.89145 0.05 0.0
C305 C 0.61556 0.87118 0.88777 0.0
O306 O 0.60741 0.8603 0.86351 0.0
N307 N 0.58839 0.86774 0.87754 0.0
C308 C 0.57638 0.86132 0.86096 0.0
C309 C 0.57488 0.86118 0.78386 0.0
C310 C 0.59388 0.87211 0.81004 0.0
N311 N 0.58592 0.86793 0.75192 0.0
C312 C 0.58149 0.8458 0.98929 0.0
C313 C 0.60031 0.84225 0.03519 0.0
C314 C 0.58874 0.83214 0.02353 0.0
C315 C 0.5792 0.83399 0.00152 0.0
C316 C 0.60221 0.85388 0.02144 0.0
N317 N 0.593 0.85552 0.99502 0.0
H318 H 0.57392 0.84707 0.97701 0.0
H319 H 0.61118 0.86159 0.03125 0.0
H320 H 0.56906 0.85743 0.90163 0.0
H321 H 0.60351 0.87838 0.8032 0.0
O322 O 0.58124 0.86996 0.01984 0.0
O323 O 0.59628 0.88721 0.97223 0.0
O324 O 0.61243 0.87713 0.93186 0.0
C325 C 0.58575 0.8815 0.00618 0.0
H326 H 0.6243 0.89332 0.19875 0.0
H327 H 0.56628 0.85678 0.75389 0.0
H328 H 0.60789 0.84118 0.05311 0.0
H329 H 0.57003 0.82638 0.99477 0.0
Co330 Co 0.1188 0.72276 0.01235 0.0
C331 C 0.11892 0.72547 0.18032 0.0
C332 C 0.10434 0.72659 0.12752 0.0
C333 C 0.10298 0.7267 0.20462 0.0
N334 N 0.11457 0.72621 0.11183 0.0
N335 N 0.11213 0.72593 0.23778 0.0
H336 H 0.12636 0.72381 0.18858 0.0
H337 H 0.09786 0.72606 0.08584 0.0
C338 C 0.11389 0.74302 0.98322 0.0
O339 O 0.12039 0.7486 0.04336 0.0
N340 N 0.12256 0.71894 0.91389 0.0
C341 C 0.13171 0.71685 0.89699 0.0
C342 C 0.1321 0.71574 0.81969 0.0
C343 C 0.11747 0.719 0.84712 0.0
N344 N 0.12318 0.71717 0.78834 0.0
C345 C 0.14324 0.73694 0.0686 0.0
C346 C 0.15111 0.75493 0.9597 0.0
C347 C 0.15924 0.75575 0.01602 0.0
C348 C 0.15524 0.74653 0.07049 0.0
C349 C 0.13921 0.74521 0.96006 0.0
N350 N 0.1352 0.73667 0.01631 0.0
H351 H 0.14064 0.72951 0.10726 0.0
H352 H 0.13331 0.74444 0.91383 0.0
H353 H 0.13795 0.71663 0.9378 0.0
H354 H 0.10986 0.72055 0.84165 0.0
O355 O 0.12188 0.7108 0.05702 0.0
O356 O 0.10389 0.70735 0.01501 0.0
O357 O 0.11236 0.73269 0.96306 0.0
C358 C 0.11031 0.70325 0.0481 0.0
H359 H 0.0954 0.72653 0.23382 0.0
H360 H 0.1388 0.71453 0.7889 0.0
H361 H 0.15388 0.76176 0.9157 0.0
H362 H 0.1614 0.74654 0.11292 0.0
Co363 Co 0.2665 0.39321 0.02522 0.0
C364 C 0.2649 0.39116 0.19341 0.0
C365 C 0.26088 0.3744 0.1405 0.0
C366 C 0.26101 0.37296 0.2175 0.0
N367 N 0.26292 0.3857 0.12509 0.0
N368 N 0.26359 0.38354 0.25061 0.0
H369 H 0.26804 0.40068 0.20153 0.0
H370 H 0.26011 0.36783 0.09866 0.0
C371 C 0.24437 0.36913 0.99907 0.0
O372 O 0.23936 0.37144 0.05708 0.0
N373 N 0.27044 0.40053 0.92632 0.0
C374 C 0.27344 0.412 0.90827 0.0
C375 C 0.27468 0.41329 0.83088 0.0
C376 C 0.26997 0.395 0.86041 0.0
N377 N 0.27243 0.40256 0.80094 0.0
C378 C 0.25431 0.40513 0.08721 0.0
C379 C 0.23575 0.39657 0.98199 0.0
C380 C 0.23564 0.40361 0.04273 0.0
C381 C 0.24523 0.40816 0.09468 0.0
C382 C 0.245 0.3937 0.97706 0.0
N383 N 0.2537 0.39732 0.03213 0.0
H384 H 0.26199 0.40938 0.12465 0.0
H385 H 0.24512 0.38849 0.92904 0.0
H386 H 0.27428 0.41883 0.94834 0.0
H387 H 0.26774 0.3856 0.85613 0.0
O388 O 0.2795 0.40787 0.06726 0.0
O389 O 0.2812 0.39225 0.02533 0.0
O390 O 0.25517 0.37691 0.97822 0.0
C391 C 0.28626 0.40296 0.05706 0.0
H392 H 0.26003 0.36501 0.2465 0.0
H393 H 0.27661 0.42135 0.79907 0.0
H394 H 0.22863 0.39309 0.93963 0.0
H395 H 0.24577 0.41413 0.14026 0.0
Co396 Co 0.78416 0.72694 0.33403 0.0
C397 C 0.78325 0.72491 0.49975 0.0
C398 C 0.76951 0.7084 0.44785 0.0
C399 C 0.76828 0.70709 0.52526 0.0
N400 N 0.77892 0.71956 0.43227 0.0
N401 N 0.77689 0.71751 0.55769 0.0
H402 H 0.79081 0.73409 0.50601 0.0
H403 H 0.76373 0.70182 0.40599 0.0
C404 C 0.78479 0.70749 0.24324 0.0
O405 O 0.79564 0.71571 0.21901 0.0
N406 N 0.789 0.73435 0.2342 0.0
C407 C 0.79707 0.746 0.21561 0.0
C408 C 0.79708 0.7473 0.13834 0.0
C409 C 0.78374 0.72898 0.16798 0.0
N410 N 0.78875 0.73654 0.1084 0.0
C411 C 0.80978 0.74144 0.3632 0.0
C412 C 0.81348 0.72226 0.39658 0.0
C413 C 0.82347 0.73414 0.3962 0.0
C414 C 0.82146 0.74382 0.38117 0.0
C415 C 0.80195 0.72032 0.37858 0.0
N416 N 0.80035 0.72977 0.35706 0.0
H417 H 0.80832 0.74903 0.35691 0.0
H418 H 0.79429 0.71117 0.38221 0.0
H419 H 0.80231 0.7533 0.25461 0.0
H420 H 0.7762 0.71977 0.16354 0.0
O421 O 0.78605 0.74184 0.3733 0.0
O422 O 0.76898 0.72688 0.32347 0.0
O423 O 0.77897 0.71044 0.28952 0.0
C424 C 0.77465 0.7375 0.35623 0.0
H425 H 0.7613 0.69924 0.55518 0.0
H426 H 0.80282 0.75554 0.10683 0.0
H427 H 0.81455 0.71451 0.40942 0.0
H428 H 0.82881 0.75318 0.38424 0.0
Co429 Co 0.26327 0.0565 0.31831 0.0
C430 C 0.26548 0.05743 0.48439 0.0
C431 C 0.28137 0.05881 0.43148 0.0
C432 C 0.28275 0.05886 0.50885 0.0
N433 N 0.27057 0.05799 0.41649 0.0
N434 N 0.27272 0.05793 0.54197 0.0
H435 H 0.25662 0.05661 0.49125 0.0
H436 H 0.28766 0.05907 0.38923 0.0
C437 C 0.28342 0.07605 0.22916 0.0
O438 O 0.27563 0.07941 0.20724 0.0
N439 N 0.25584 0.05446 0.21862 0.0
C440 C 0.24408 0.05064 0.20159 0.0
C441 C 0.24256 0.0494 0.12438 0.0
C442 C 0.26103 0.05467 0.15135 0.0
N443 N 0.25327 0.05203 0.09273 0.0
C444 C 0.25117 0.07054 0.33876 0.0
C445 C 0.27191 0.09166 0.38218 0.0
C446 C 0.2611 0.09188 0.37143 0.0
C447 C 0.25051 0.08104 0.35205 0.0
C448 C 0.27215 0.08101 0.36802 0.0
N449 N 0.26206 0.07084 0.3416 0.0
H450 H 0.2429 0.0622 0.32699 0.0
H451 H 0.2806 0.08104 0.37671 0.0
H452 H 0.23685 0.04824 0.2419 0.0
H453 H 0.2702 0.05628 0.14544 0.0
O454 O 0.24793 0.04427 0.35874 0.0
O455 O 0.26194 0.04083 0.30704 0.0
O456 O 0.27997 0.06689 0.27306 0.0
C457 C 0.25149 0.03657 0.34133 0.0
H458 H 0.29036 0.05914 0.53831 0.0
H459 H 0.23415 0.04665 0.09424 0.0
H460 H 0.28018 0.09969 0.40052 0.0
H461 H 0.24187 0.08074 0.3454 0.0
Co462 Co 0.93404 0.2052 0.34289 0.0
C463 C 0.93223 0.20565 0.51129 0.0
C464 C 0.92863 0.21865 0.45798 0.0
C465 C 0.9286 0.22012 0.53502 0.0
N466 N 0.93049 0.20927 0.44269 0.0
N467 N 0.93086 0.21193 0.56852 0.0
H468 H 0.93554 0.1994 0.51965 0.0
H469 H 0.92799 0.2245 0.4161 0.0
C470 C 0.91235 0.20777 0.31546 0.0
O471 O 0.90712 0.20035 0.37278 0.0
N472 N 0.93797 0.2016 0.2442 0.0
C473 C 0.9412 0.19321 0.22863 0.0
C474 C 0.94221 0.19262 0.15147 0.0
C475 C 0.93713 0.20607 0.17665 0.0
N476 N 0.93959 0.20066 0.1188 0.0
C477 C 0.92073 0.18103 0.40542 0.0
C478 C 0.90296 0.17163 0.29493 0.0
C479 C 0.90214 0.16429 0.35627 0.0
C480 C 0.91128 0.16902 0.4113 0.0
C481 C 0.91248 0.18363 0.29186 0.0
N482 N 0.92084 0.18842 0.34899 0.0
H483 H 0.92809 0.18422 0.44514 0.0
H484 H 0.91308 0.18911 0.2435 0.0
H485 H 0.94239 0.18766 0.27039 0.0
H486 H 0.9343 0.21276 0.16984 0.0
O487 O 0.94675 0.20314 0.38607 0.0
O488 O 0.94895 0.22063 0.34328 0.0
O489 O 0.92313 0.2106 0.29515 0.0
C490 C 0.95375 0.21478 0.37542 0.0
H491 H 0.92736 0.22695 0.56381 0.0
H492 H 0.94456 0.18661 0.12184 0.0
H493 H 0.89617 0.16822 0.25048 0.0
H494 H 0.91123 0.16342 0.45777 0.0
Co495 Co 0.05234 0.45038 0.28122 0.0
C496 C 0.05011 0.45027 0.11533 0.0
C497 C 0.03291 0.4382 0.16753 0.0
C498 C 0.03144 0.43727 0.09011 0.0
N499 N 0.0446 0.44639 0.18304 0.0
N500 N 0.04228 0.44482 0.05744 0.0
H501 H 0.0597 0.45682 0.10879 0.0
H502 H 0.02603 0.43297 0.20937 0.0
C503 C 0.03444 0.45356 0.37416 0.0
O504 O 0.04342 0.4641 0.39734 0.0
N505 N 0.06007 0.45389 0.38094 0.0
C506 C 0.07206 0.45941 0.39769 0.0
C507 C 0.07346 0.45931 0.47487 0.0
C508 C 0.05442 0.44979 0.44837 0.0
N509 N 0.06233 0.45335 0.50681 0.0
C510 C 0.06919 0.47606 0.26761 0.0
C511 C 0.05201 0.48247 0.2297 0.0
C512 C 0.06408 0.49163 0.2419 0.0
C513 C 0.0728 0.48832 0.25897 0.0
C514 C 0.04879 0.47033 0.23974 0.0
N515 N 0.0572 0.46731 0.26332 0.0
H516 H 0.07608 0.47366 0.27688 0.0
H517 H 0.03943 0.46335 0.2305 0.0
H518 H 0.0794 0.46284 0.35716 0.0
H519 H 0.04472 0.44391 0.45469 0.0
O520 O 0.06617 0.45045 0.23732 0.0
O521 O 0.05013 0.43424 0.28785 0.0
O522 O 0.03649 0.44699 0.32834 0.0
C523 C 0.06055 0.43888 0.25278 0.0
H524 H 0.02314 0.43114 0.06027 0.0
H525 H 0.08205 0.46332 0.50483 0.0
H526 H 0.04503 0.48467 0.21529 0.0
H527 H 0.08231 0.49515 0.26569 0.0
Co528 Co 0.53643 0.60299 0.34062 0.0
C529 C 0.53782 0.60239 0.17493 0.0
C530 C 0.55192 0.60026 0.22724 0.0
C531 C 0.5533 0.60037 0.14982 0.0
N532 N 0.54219 0.60147 0.24255 0.0
N533 N 0.54445 0.60176 0.1171 0.0
H534 H 0.52998 0.60356 0.16851 0.0
H535 H 0.55777 0.59964 0.26931 0.0
C536 C 0.53616 0.58312 0.43141 0.0
O537 O 0.52521 0.58026 0.45496 0.0
N538 N 0.53102 0.60489 0.44019 0.0
C539 C 0.52189 0.60693 0.45925 0.0
C540 C 0.52178 0.60813 0.53661 0.0
C541 C 0.53666 0.60548 0.50618 0.0
N542 N 0.53103 0.6071 0.5661 0.0
C543 C 0.51099 0.59139 0.30293 0.0
C544 C 0.50821 0.56882 0.27151 0.0
C545 C 0.49806 0.57039 0.26601 0.0
C546 C 0.49962 0.58194 0.28041 0.0
C547 C 0.5194 0.57853 0.29345 0.0
N548 N 0.52053 0.58943 0.31398 0.0
H549 H 0.51219 0.60037 0.30851 0.0
H550 H 0.52721 0.57728 0.29282 0.0
H551 H 0.51585 0.60786 0.42069 0.0
H552 H 0.54482 0.60481 0.51013 0.0
O553 O 0.53438 0.616 0.30272 0.0
O554 O 0.55133 0.61819 0.35485 0.0
O555 O 0.54187 0.59186 0.38472 0.0
C556 C 0.54569 0.62314 0.32164 0.0
H557 H 0.5605 0.59987 0.12014 0.0
H558 H 0.5153 0.60951 0.56855 0.0
H559 H 0.50755 0.56013 0.25977 0.0
H560 H 0.49219 0.58375 0.27304 0.0
Co561 Co 0.38771 0.93084 0.34759 0.0
C562 C 0.39016 0.93302 0.17926 0.0
C563 C 0.3936 0.94963 0.23168 0.0
C564 C 0.39375 0.9511 0.15467 0.0
N565 N 0.39181 0.93843 0.24766 0.0
N566 N 0.39154 0.94062 0.12171 0.0
H567 H 0.38715 0.9235 0.17136 0.0
H568 H 0.39393 0.95607 0.27298 0.0
C569 C 0.40908 0.95513 0.37661 0.0
O570 O 0.41448 0.95273 0.32123 0.0
N571 N 0.38313 0.92336 0.4462 0.0
C572 C 0.37997 0.9118 0.46342 0.0
C573 C 0.37852 0.91032 0.54056 0.0
C574 C 0.3835 0.92874 0.51263 0.0
N575 N 0.38082 0.921 0.57148 0.0
C576 C 0.40269 0.92131 0.29084 0.0
C577 C 0.41928 0.93032 0.40823 0.0
C578 C 0.42169 0.92507 0.34584 0.0
C579 C 0.41302 0.92006 0.28798 0.0
C580 C 0.40889 0.93136 0.40867 0.0
N581 N 0.40122 0.9277 0.34785 0.0
H582 H 0.39595 0.91714 0.24726 0.0
H583 H 0.40729 0.93558 0.45696 0.0
H584 H 0.37925 0.90507 0.423 0.0
H585 H 0.38596 0.93819 0.51789 0.0
O586 O 0.3755 0.91593 0.30258 0.0
O587 O 0.3727 0.93105 0.34122 0.0
O588 O 0.39818 0.9473 0.39565 0.0
C589 C 0.36832 0.92044 0.30898 0.0
H590 H 0.39457 0.95897 0.12545 0.0
H591 H 0.37652 0.90218 0.57164 0.0
H592 H 0.42551 0.93383 0.45567 0.0
H593 H 0.41437 0.91557 0.23991 0.0
Co594 Co 0.54161 0.93339 0.34106 0.0
C595 C 0.54182 0.93608 0.17291 0.0
C596 C 0.55636 0.95174 0.2262 0.0
C597 C 0.55784 0.9532 0.1491 0.0
N598 N 0.54608 0.94116 0.24163 0.0
N599 N 0.54869 0.94331 0.11552 0.0
H600 H 0.5346 0.92684 0.16454 0.0
H601 H 0.56278 0.95773 0.26804 0.0
C602 C 0.54719 0.95871 0.37236 0.0
O603 O 0.54069 0.95795 0.31252 0.0
N604 N 0.53756 0.92563 0.43925 0.0
C605 C 0.5282 0.91444 0.45475 0.0
C606 C 0.52741 0.91279 0.53196 0.0
C607 C 0.54241 0.93061 0.50696 0.0
N608 N 0.5363 0.923 0.56484 0.0
C609 C 0.51743 0.92456 0.28275 0.0
C610 C 0.51022 0.93498 0.39352 0.0
C611 C 0.50221 0.92864 0.33425 0.0
C612 C 0.50581 0.92314 0.27928 0.0
C613 C 0.52173 0.93616 0.39475 0.0
N614 N 0.52549 0.93161 0.33737 0.0
H615 H 0.51977 0.91971 0.24265 0.0
H616 H 0.52757 0.94068 0.44249 0.0
H617 H 0.52209 0.90809 0.41297 0.0
H618 H 0.5499 0.9398 0.51389 0.0
O619 O 0.53789 0.91821 0.29541 0.0
O620 O 0.55614 0.9322 0.33761 0.0
O621 O 0.54859 0.94977 0.39135 0.0
C622 C 0.54939 0.92182 0.3037 0.0
H623 H 0.56533 0.96077 0.12034 0.0
H624 H 0.52065 0.90476 0.56148 0.0
H625 H 0.50757 0.93887 0.43916 0.0
H626 H 0.49975 0.91785 0.23373 0.0
Co627 Co 0.06014 0.60325 0.33663 0.0
C628 C 0.05771 0.6017 0.168 0.0
C629 C 0.04219 0.60069 0.2226 0.0
C630 C 0.04066 0.60085 0.14567 0.0
N631 N 0.05272 0.60086 0.23691 0.0
N632 N 0.05047 0.60154 0.11147 0.0
H633 H 0.06667 0.60304 0.15867 0.0
H634 H 0.03624 0.60099 0.26535 0.0
C635 C 0.03515 0.58214 0.35628 0.0
O636 O 0.03659 0.57764 0.29272 0.0
N637 N 0.06739 0.60601 0.43556 0.0
C638 C 0.07858 0.60799 0.45254 0.0
C639 C 0.08 0.60894 0.52993 0.0
C640 C 0.06215 0.60582 0.50219 0.0
N641 N 0.06964 0.60754 0.56106 0.0
C642 C 0.07164 0.59088 0.2709 0.0
C643 C 0.06102 0.57084 0.36517 0.0
C644 C 0.06857 0.5712 0.30632 0.0
C645 C 0.07412 0.58147 0.25972 0.0
C646 C 0.05867 0.58039 0.37358 0.0
N647 N 0.06334 0.5899 0.32367 0.0
H648 H 0.07672 0.59909 0.23857 0.0
H649 H 0.0532 0.58018 0.42099 0.0
H650 H 0.08514 0.60846 0.41162 0.0
H651 H 0.05305 0.60445 0.50732 0.0
O652 O 0.07512 0.61615 0.29691 0.0
O653 O 0.06001 0.61834 0.34316 0.0
O654 O 0.04369 0.5922 0.38233 0.0
C655 C 0.07069 0.62323 0.31115 0.0
H656 H 0.03322 0.6011 0.11733 0.0
H657 H 0.08791 0.6102 0.56083 0.0
H658 H 0.05683 0.56318 0.40369 0.0
H659 H 0.08048 0.58231 0.21601 0.0
Co660 Co 0.38849 0.45225 0.31368 0.0
C661 C 0.39036 0.45147 0.14563 0.0
C662 C 0.38804 0.43531 0.19926 0.0
C663 C 0.38803 0.43381 0.12218 0.0
N664 N 0.38975 0.4465 0.21411 0.0
N665 N 0.38949 0.444 0.08857 0.0
H666 H 0.39067 0.46001 0.13687 0.0
H667 H 0.38661 0.42859 0.24176 0.0
C668 C 0.40849 0.44645 0.32709 0.0
O669 O 0.4124 0.45124 0.25984 0.0
N670 N 0.38692 0.4576 0.41264 0.0
C671 C 0.38605 0.46748 0.42949 0.0
C672 C 0.38569 0.46836 0.50699 0.0
C673 C 0.38697 0.45252 0.47941 0.0
N674 N 0.38628 0.45895 0.53817 0.0
C675 C 0.40063 0.47609 0.24746 0.0
C676 C 0.42255 0.48443 0.32147 0.0
C677 C 0.42135 0.4919 0.26826 0.0
C678 C 0.41015 0.48781 0.23256 0.0
C679 C 0.41271 0.47287 0.33579 0.0
N680 N 0.40219 0.46848 0.29495 0.0
H681 H 0.39193 0.47324 0.2214 0.0
H682 H 0.41356 0.46765 0.38101 0.0
H683 H 0.38585 0.47369 0.38836 0.0
H684 H 0.38779 0.44447 0.4848 0.0
O685 O 0.37564 0.45471 0.27748 0.0
O686 O 0.37311 0.43744 0.32614 0.0
O687 O 0.39927 0.44633 0.35694 0.0
C688 C 0.36834 0.44337 0.29488 0.0
H689 H 0.38686 0.42577 0.09335 0.0
H690 H 0.38502 0.47537 0.53787 0.0
H691 H 0.43094 0.4876 0.35296 0.0
H692 H 0.4088 0.49357 0.19318 0.0
Co693 Co 0.26805 0.21081 0.34416 0.0
C694 C 0.27032 0.21137 0.51002 0.0
C695 C 0.28646 0.22572 0.45822 0.0
C696 C 0.28778 0.22687 0.53566 0.0
N697 N 0.27553 0.21599 0.4425 0.0
N698 N 0.27759 0.21787 0.5682 0.0
H699 H 0.26119 0.20371 0.51605 0.0
H700 H 0.29288 0.23175 0.41647 0.0
C701 C 0.28791 0.21115 0.25305 0.0
O702 O 0.27993 0.20016 0.22937 0.0
N703 N 0.26044 0.20606 0.24441 0.0
C704 C 0.24855 0.19861 0.22789 0.0
C705 C 0.24696 0.19837 0.1508 0.0
C706 C 0.26568 0.21089 0.17696 0.0
N707 N 0.25778 0.20606 0.11881 0.0
C708 C 0.25517 0.18458 0.35856 0.0
C709 C 0.27539 0.18304 0.39912 0.0
C710 C 0.26435 0.1723 0.38627 0.0
C711 C 0.25403 0.17314 0.36838 0.0
C712 C 0.27611 0.19424 0.38841 0.0
N713 N 0.26628 0.19491 0.36324 0.0
H714 H 0.2471 0.18505 0.34783 0.0
H715 H 0.28473 0.20241 0.3985 0.0
H716 H 0.2413 0.19407 0.26856 0.0
H717 H 0.27509 0.2179 0.17028 0.0
O718 O 0.25295 0.20793 0.3864 0.0
O719 O 0.26722 0.22552 0.33751 0.0
O720 O 0.28464 0.21688 0.298 0.0
C721 C 0.25677 0.21934 0.37189 0.0
H722 H 0.2956 0.23389 0.56543 0.0
H723 H 0.23842 0.19322 0.12088 0.0
H724 H 0.28347 0.1828 0.41632 0.0
H725 H 0.24523 0.16505 0.36008 0.0
Co726 Co 0.78218 0.05584 0.33098 0.0
C727 C 0.78198 0.05783 0.49686 0.0
C728 C 0.76881 0.06146 0.44509 0.0
C729 C 0.7678 0.06185 0.5225 0.0
N730 N 0.77772 0.05897 0.42934 0.0
N731 N 0.77605 0.05951 0.55504 0.0
H732 H 0.78894 0.05534 0.50294 0.0
H733 H 0.76322 0.06259 0.40338 0.0
C734 C 0.78368 0.07617 0.23878 0.0
O735 O 0.79447 0.07838 0.21608 0.0
N736 N 0.78619 0.05218 0.23107 0.0
C737 C 0.79264 0.04663 0.21442 0.0
C738 C 0.79269 0.04517 0.13735 0.0
C739 C 0.7817 0.05316 0.16366 0.0
N740 N 0.78587 0.04937 0.10545 0.0
C741 C 0.80816 0.06667 0.34506 0.0
C742 C 0.81262 0.08957 0.38573 0.0
C743 C 0.82245 0.08762 0.37513 0.0
C744 C 0.82012 0.07594 0.35629 0.0
C745 C 0.8008 0.08004 0.37328 0.0
N746 N 0.79874 0.06895 0.34871 0.0
H747 H 0.80653 0.05763 0.33512 0.0
H748 H 0.7933 0.08166 0.38215 0.0
H749 H 0.79658 0.04324 0.25495 0.0
H750 H 0.7754 0.05647 0.15698 0.0
O751 O 0.78377 0.04285 0.37334 0.0
O752 O 0.76665 0.04096 0.32579 0.0
O753 O 0.77743 0.06737 0.28433 0.0
C754 C 0.77224 0.03594 0.35887 0.0
H755 H 0.76137 0.06358 0.55226 0.0
H756 H 0.79711 0.04101 0.10738 0.0
H757 H 0.81405 0.09844 0.40151 0.0
H758 H 0.82746 0.07397 0.35091 0.0
Co759 Co 0.93425 0.72827 0.33107 0.0
C760 C 0.93315 0.72607 0.49716 0.0
C761 C 0.93069 0.70975 0.44428 0.0
C762 C 0.93051 0.70831 0.52162 0.0
N763 N 0.93228 0.72086 0.42929 0.0
N764 N 0.93211 0.7186 0.55473 0.0
H765 H 0.93459 0.73518 0.50399 0.0
H766 H 0.93001 0.70327 0.40207 0.0
C767 C 0.91409 0.70861 0.24148 0.0
O768 O 0.91121 0.71669 0.21805 0.0
N769 N 0.93664 0.73572 0.23128 0.0
C770 C 0.94057 0.74747 0.21374 0.0
C771 C 0.94184 0.74892 0.13653 0.0
C772 C 0.93631 0.73041 0.1643 0.0
N773 N 0.93907 0.73814 0.10539 0.0
C774 C 0.92268 0.74239 0.35969 0.0
C775 C 0.90018 0.72295 0.39754 0.0
C776 C 0.90175 0.73469 0.3962 0.0
C777 C 0.91326 0.74452 0.37868 0.0
C778 C 0.90987 0.72125 0.37829 0.0
N779 N 0.92075 0.73082 0.35499 0.0
H780 H 0.93162 0.7501 0.35145 0.0
H781 H 0.90862 0.7122 0.38239 0.0
H782 H 0.94298 0.75476 0.25351 0.0
H783 H 0.93444 0.72114 0.15882 0.0
O784 O 0.94719 0.74323 0.37053 0.0
O785 O 0.94942 0.72842 0.31947 0.0
O786 O 0.92305 0.71173 0.28657 0.0
C787 C 0.95432 0.73899 0.35283 0.0
H788 H 0.92968 0.70045 0.55106 0.0
H789 H 0.94465 0.7573 0.10597 0.0
H790 H 0.8915 0.7151 0.41206 0.0
H791 H 0.91501 0.7538 0.38064 0.0
Co792 Co 0.45042 0.05992 0.66803 0.0
C793 C 0.44934 0.05773 0.83368 0.0
C794 C 0.43478 0.04178 0.78165 0.0
C795 C 0.43354 0.04048 0.85914 0.0
N796 N 0.4447 0.05258 0.76612 0.0
N797 N 0.4427 0.05054 0.89176 0.0
H798 H 0.4572 0.06673 0.83982 0.0
H799 H 0.42875 0.03541 0.73971 0.0
C800 C 0.45039 0.0402 0.57717 0.0
O801 O 0.46138 0.04823 0.55386 0.0
N802 N 0.45582 0.06736 0.56855 0.0
C803 C 0.46462 0.07879 0.55116 0.0
C804 C 0.465 0.08029 0.47395 0.0
C805 C 0.45053 0.06236 0.50153 0.0
N806 N 0.45619 0.06991 0.44269 0.0
C807 C 0.47602 0.07339 0.70255 0.0
C808 C 0.47837 0.05334 0.73396 0.0
C809 C 0.48873 0.06496 0.73738 0.0
C810 C 0.48738 0.07509 0.72326 0.0
C811 C 0.46718 0.05209 0.71414 0.0
N812 N 0.46626 0.06197 0.69335 0.0
H813 H 0.47503 0.08128 0.69692 0.0
H814 H 0.45924 0.04311 0.71607 0.0
H815 H 0.47014 0.08584 0.59095 0.0
H816 H 0.44276 0.0533 0.49587 0.0
O817 O 0.45279 0.07502 0.7071 0.0
O818 O 0.43565 0.06052 0.65523 0.0
O819 O 0.44469 0.04333 0.62328 0.0
C820 C 0.4415 0.07106 0.68877 0.0
H821 H 0.42641 0.03274 0.88893 0.0
H822 H 0.47113 0.08851 0.44344 0.0
H823 H 0.47884 0.04521 0.74557 0.0
H824 H 0.49497 0.08427 0.72934 0.0
Co825 Co 0.93088 0.39261 0.67841 0.0
C826 C 0.93287 0.39565 0.84591 0.0
C827 C 0.94999 0.40058 0.79469 0.0
C828 C 0.95139 0.40092 0.8719 0.0
N829 N 0.93845 0.39766 0.77787 0.0
N830 N 0.94058 0.39773 0.90404 0.0
H831 H 0.9232 0.39184 0.85319 0.0
H832 H 0.95676 0.4015 0.75398 0.0
C833 C 0.95448 0.41492 0.64324 0.0
O834 O 0.95217 0.42054 0.69766 0.0
N835 N 0.92346 0.38723 0.58017 0.0
C836 C 0.91175 0.3833 0.56224 0.0
C837 C 0.91047 0.38192 0.48492 0.0
C838 C 0.92912 0.3881 0.51403 0.0
N839 N 0.92142 0.38504 0.45466 0.0
C840 C 0.91852 0.40501 0.73004 0.0
C841 C 0.92591 0.42162 0.61285 0.0
C842 C 0.91877 0.42229 0.67103 0.0
C843 C 0.91484 0.41367 0.72931 0.0
C844 C 0.92936 0.41279 0.61582 0.0
N845 N 0.92623 0.40505 0.67614 0.0
H846 H 0.91486 0.3981 0.77292 0.0
H847 H 0.93459 0.41221 0.56944 0.0
H848 H 0.90477 0.38211 0.60219 0.0
H849 H 0.93874 0.39124 0.50926 0.0
O850 O 0.91649 0.37987 0.72462 0.0
O851 O 0.93242 0.37829 0.68806 0.0
O852 O 0.94697 0.40374 0.62859 0.0
C853 C 0.92175 0.37336 0.72036 0.0
H854 H 0.95949 0.40247 0.90181 0.0
H855 H 0.90225 0.37947 0.45329 0.0
H856 H 0.92904 0.428 0.56615 0.0
H857 H 0.90888 0.41354 0.77359 0.0
Co858 Co 0.60152 0.54059 0.67376 0.0
C859 C 0.59882 0.54001 0.84194 0.0
C860 C 0.59463 0.55267 0.78954 0.0
C861 C 0.59428 0.55384 0.86657 0.0
N862 N 0.59707 0.54369 0.77356 0.0
N863 N 0.59696 0.54591 0.8995 0.0
H864 H 0.60221 0.53382 0.84995 0.0
H865 H 0.59397 0.55859 0.74823 0.0
C866 C 0.57924 0.54196 0.64428 0.0
O867 O 0.57409 0.53412 0.69981 0.0
N868 N 0.60635 0.53802 0.57509 0.0
C869 C 0.61023 0.53017 0.55804 0.0
C870 C 0.6116 0.53012 0.48084 0.0
C871 C 0.60547 0.54268 0.50849 0.0
N872 N 0.60854 0.53794 0.44972 0.0
C873 C 0.58897 0.51592 0.72854 0.0
C874 C 0.57212 0.50661 0.61265 0.0
C875 C 0.57154 0.49884 0.67079 0.0
C876 C 0.58023 0.50358 0.72865 0.0
C877 C 0.58099 0.51887 0.61488 0.0
N878 N 0.58889 0.52355 0.67444 0.0
H879 H 0.59601 0.51919 0.77058 0.0
H880 H 0.58151 0.52462 0.56834 0.0
H881 H 0.61149 0.52452 0.59862 0.0
H882 H 0.6024 0.54921 0.50306 0.0
O883 O 0.61434 0.5389 0.71824 0.0
O884 O 0.61603 0.55638 0.67955 0.0
O885 O 0.59026 0.54555 0.62563 0.0
C886 C 0.62102 0.55065 0.71103 0.0
H887 H 0.59297 0.56059 0.8959 0.0
H888 H 0.6141 0.52434 0.44991 0.0
H889 H 0.56567 0.50331 0.56632 0.0
H890 H 0.5804 0.49776 0.77292 0.0
Co891 Co 0.72521 0.78675 0.66491 0.0
C892 C 0.72274 0.78732 0.49704 0.0
C893 C 0.70646 0.77351 0.54956 0.0
C894 C 0.70495 0.77229 0.47245 0.0
N895 N 0.71749 0.7832 0.56549 0.0
N896 N 0.71524 0.78094 0.43944 0.0
H897 H 0.73211 0.79424 0.4889 0.0
H898 H 0.7002 0.76723 0.59103 0.0
C899 C 0.70071 0.7836 0.69572 0.0
O900 O 0.70212 0.79045 0.63652 0.0
N901 N 0.73282 0.78984 0.76323 0.0
C902 C 0.74436 0.79833 0.78006 0.0
C903 C 0.74584 0.7986 0.85735 0.0
C904 C 0.72745 0.785 0.83007 0.0
N905 N 0.73517 0.79025 0.88879 0.0
C906 C 0.73692 0.81136 0.6105 0.0
C907 C 0.72807 0.8202 0.72151 0.0
C908 C 0.73566 0.82813 0.66513 0.0
C909 C 0.74024 0.82362 0.60969 0.0
C910 C 0.72498 0.80801 0.72003 0.0
N911 N 0.72889 0.80357 0.66279 0.0
H912 H 0.74125 0.80832 0.57083 0.0
H913 H 0.7196 0.80221 0.76604 0.0
H914 H 0.75106 0.80428 0.73926 0.0
H915 H 0.71803 0.77794 0.83566 0.0
O916 O 0.73987 0.78894 0.61935 0.0
O917 O 0.72458 0.77127 0.65999 0.0
O918 O 0.70902 0.78123 0.71479 0.0
C919 C 0.73514 0.77724 0.6267 0.0
H920 H 0.69722 0.76506 0.44312 0.0
H921 H 0.75397 0.80486 0.88807 0.0
H922 H 0.72448 0.82335 0.76619 0.0
H923 H 0.74656 0.82957 0.56708 0.0
Co924 Co 0.20537 0.93836 0.6509 0.0
C925 C 0.20568 0.93631 0.48298 0.0
C926 C 0.22094 0.93644 0.53536 0.0
C927 C 0.22245 0.9367 0.45827 0.0
N928 N 0.21021 0.9358 0.55117 0.0
N929 N 0.21287 0.93669 0.4255 0.0
H930 H 0.19777 0.93723 0.47502 0.0
H931 H 0.22759 0.93739 0.57709 0.0
C932 C 0.21168 0.91901 0.67456 0.0
O933 O 0.20539 0.91371 0.61322 0.0
N934 N 0.20103 0.94137 0.74959 0.0
C935 C 0.19133 0.94252 0.76727 0.0
C936 C 0.19094 0.94351 0.84466 0.0
C937 C 0.20645 0.94174 0.81574 0.0
N938 N 0.20042 0.94295 0.87502 0.0
C939 C 0.18122 0.92288 0.59163 0.0
C940 C 0.17479 0.90435 0.69531 0.0
C941 C 0.16676 0.90274 0.63638 0.0
C942 C 0.16989 0.91231 0.58543 0.0
C943 C 0.18596 0.91505 0.69944 0.0
N944 N 0.18944 0.92379 0.64479 0.0
H945 H 0.18322 0.93039 0.55478 0.0
H946 H 0.19181 0.91629 0.74698 0.0
H947 H 0.18478 0.94223 0.72692 0.0
H948 H 0.21454 0.94098 0.82034 0.0
O949 O 0.20143 0.94987 0.60803 0.0
O950 O 0.21967 0.95423 0.65078 0.0
O951 O 0.21262 0.92897 0.69818 0.0
C952 C 0.21286 0.95788 0.61791 0.0
H953 H 0.23036 0.93763 0.42888 0.0
H954 H 0.18392 0.94407 0.87618 0.0
H955 H 0.17242 0.89742 0.73826 0.0
H956 H 0.16372 0.91159 0.54077 0.0
Co957 Co 0.0555 0.26707 0.64865 0.0
C958 C 0.05748 0.26939 0.48037 0.0
C959 C 0.06161 0.28614 0.53363 0.0
C960 C 0.06172 0.28768 0.45655 0.0
N961 N 0.05936 0.27477 0.54899 0.0
N962 N 0.05912 0.27711 0.42307 0.0
H963 H 0.05388 0.25977 0.47206 0.0
H964 H 0.06247 0.29274 0.57545 0.0
C965 C 0.07739 0.29115 0.67947 0.0
O966 O 0.08272 0.28918 0.62177 0.0
N967 N 0.05127 0.25946 0.7472 0.0
C968 C 0.04785 0.24779 0.76276 0.0
C969 C 0.04679 0.24618 0.83993 0.0
C970 C 0.05215 0.26478 0.81482 0.0
N971 N 0.04956 0.25688 0.87268 0.0
C972 C 0.06869 0.25605 0.58727 0.0
C973 C 0.086 0.26382 0.70042 0.0
C974 C 0.0868 0.25722 0.63947 0.0
C975 C 0.07791 0.25314 0.58297 0.0
C976 C 0.07672 0.26663 0.70198 0.0
N977 N 0.06856 0.2633 0.64379 0.0
H978 H 0.0615 0.25212 0.54634 0.0
H979 H 0.07609 0.27151 0.75024 0.0
H980 H 0.0466 0.24103 0.72102 0.0
H981 H 0.05514 0.27434 0.8217 0.0
O982 O 0.04281 0.2524 0.60459 0.0
O983 O 0.04067 0.26775 0.64679 0.0
O984 O 0.06647 0.28327 0.6976 0.0
C985 C 0.03585 0.25709 0.61462 0.0
H986 H 0.06324 0.29585 0.42773 0.0
H987 H 0.04433 0.23779 0.86951 0.0
H988 H 0.09262 0.26697 0.74588 0.0
H989 H 0.07796 0.24758 0.53661 0.0
Co990 Co 0.2056 0.26653 0.68034 0.0
C991 C 0.20564 0.26873 0.51437 0.0
C992 C 0.21889 0.28551 0.56598 0.0
C993 C 0.21989 0.2869 0.48859 0.0
N994 N 0.20993 0.27413 0.58186 0.0
N995 N 0.21159 0.27631 0.45614 0.0
H996 H 0.19866 0.25927 0.50834 0.0
H997 H 0.22455 0.29222 0.60756 0.0
C998 C 0.20464 0.28576 0.77215 0.0
O999 O 0.19384 0.27742 0.79641 0.0
N1000 N 0.20172 0.25888 0.78026 0.0
C1001 C 0.1954 0.24686 0.79674 0.0
C1002 C 0.19535 0.24533 0.87378 0.0
C1003 C 0.20614 0.26435 0.84775 0.0
N1004 N 0.20205 0.25636 0.90582 0.0
C1005 C 0.17957 0.2516 0.66897 0.0
C1006 C 0.17537 0.27012 0.62597 0.0
C1007 C 0.16546 0.25838 0.63655 0.0
C1008 C 0.16765 0.249 0.65704 0.0
C1009 C 0.18713 0.27233 0.6392 0.0
N1010 N 0.18908 0.26325 0.66429 0.0
H1011 H 0.18109 0.24416 0.67992 0.0
H1012 H 0.19469 0.28141 0.62989 0.0
H1013 H 0.1915 0.23954 0.75604 0.0
H1014 H 0.21234 0.27398 0.85464 0.0
O1015 O 0.20377 0.25189 0.63722 0.0
O1016 O 0.22105 0.26705 0.68367 0.0
O1017 O 0.21065 0.2829 0.72681 0.0
C1018 C 0.21534 0.2565 0.64988 0.0
H1019 H 0.22637 0.29504 0.4588 0.0
H1020 H 0.191 0.23673 0.90365 0.0
H1021 H 0.17405 0.27759 0.60915 0.0
H1022 H 0.16024 0.23972 0.66274 0.0
Co1023 Co 0.72405 0.93601 0.656 0.0
C1024 C 0.72214 0.93313 0.48835 0.0
C1025 C 0.70509 0.9285 0.53958 0.0
C1026 C 0.70368 0.92817 0.46243 0.0
N1027 N 0.71657 0.93122 0.55631 0.0
N1028 N 0.71444 0.93116 0.43031 0.0
H1029 H 0.73178 0.93676 0.481 0.0
H1030 H 0.69837 0.92769 0.58039 0.0
C1031 C 0.70058 0.91345 0.68643 0.0
O1032 O 0.70339 0.90827 0.63174 0.0
N1033 N 0.73137 0.94114 0.7545 0.0
C1034 C 0.7431 0.94521 0.77232 0.0
C1035 C 0.74438 0.94657 0.84961 0.0
C1036 C 0.72567 0.94014 0.82063 0.0
N1037 N 0.73338 0.94329 0.8799 0.0
C1038 C 0.73678 0.92399 0.60328 0.0
C1039 C 0.72919 0.90699 0.71827 0.0
C1040 C 0.73651 0.90656 0.66034 0.0
C1041 C 0.74054 0.91538 0.60322 0.0
C1042 C 0.72569 0.91578 0.71616 0.0
N1043 N 0.72888 0.92369 0.65674 0.0
H1044 H 0.74054 0.93108 0.56152 0.0
H1045 H 0.72033 0.91616 0.76242 0.0
H1046 H 0.75012 0.94657 0.73225 0.0
H1047 H 0.71602 0.93688 0.82537 0.0
O1048 O 0.73841 0.94899 0.61104 0.0
O1049 O 0.72234 0.95025 0.64843 0.0
O1050 O 0.70788 0.92455 0.70424 0.0
C1051 C 0.73305 0.9554 0.6167 0.0
H1052 H 0.69563 0.92674 0.43252 0.0
H1053 H 0.75263 0.94915 0.88117 0.0
H1054 H 0.72597 0.90045 0.76415 0.0
H1055 H 0.74665 0.91572 0.55928 0.0
Co1056 Co 0.05361 0.7844 0.65153 0.0
C1057 C 0.05592 0.78415 0.48337 0.0
C1058 C 0.05661 0.76937 0.53659 0.0
C1059 C 0.05656 0.76789 0.45953 0.0
N1060 N 0.05661 0.7798 0.55195 0.0
N1061 N 0.05607 0.77717 0.42613 0.0
H1062 H 0.05453 0.79177 0.47493 0.0
H1063 H 0.05597 0.76288 0.57855 0.0
C1064 C 0.07361 0.77909 0.67824 0.0
O1065 O 0.07893 0.78538 0.61694 0.0
N1066 N 0.05021 0.78852 0.75008 0.0
C1067 C 0.04851 0.79791 0.76695 0.0
C1068 C 0.04745 0.79836 0.84427 0.0
C1069 C 0.0501 0.78333 0.81682 0.0
N1070 N 0.04852 0.78922 0.87559 0.0
C1071 C 0.06846 0.80863 0.59205 0.0
C1072 C 0.08692 0.81585 0.69706 0.0
C1073 C 0.08829 0.82372 0.63765 0.0
C1074 C 0.07874 0.82018 0.58599 0.0
C1075 C 0.0765 0.80444 0.70098 0.0
N1076 N 0.06781 0.80061 0.64578 0.0
H1077 H 0.06094 0.80631 0.55455 0.0
H1078 H 0.07543 0.79869 0.74882 0.0
H1079 H 0.04848 0.80425 0.7261 0.0
H1080 H 0.05131 0.77552 0.82223 0.0
O1081 O 0.0418 0.78779 0.60762 0.0
O1082 O 0.03801 0.76974 0.65075 0.0
O1083 O 0.06341 0.77773 0.70013 0.0
C1084 C 0.03407 0.77627 0.61744 0.0
H1085 H 0.05614 0.76017 0.43056 0.0
H1086 H 0.04649 0.8052 0.87507 0.0
H1087 H 0.09382 0.8185 0.7405 0.0
H1088 H 0.07926 0.82619 0.54082 0.0
Co1089 Co 0.93287 0.54303 0.66831 0.0
C1090 C 0.93522 0.5427 0.83648 0.0
C1091 C 0.95146 0.55652 0.78357 0.0
C1092 C 0.95301 0.55779 0.86061 0.0
N1093 N 0.94044 0.5468 0.768 0.0
N1094 N 0.94276 0.54912 0.8938 0.0
H1095 H 0.9259 0.5357 0.84487 0.0
H1096 H 0.95772 0.56272 0.74179 0.0
C1097 C 0.95705 0.54532 0.64289 0.0
O1098 O 0.95503 0.5385 0.70313 0.0
N1099 N 0.92542 0.53975 0.56962 0.0
C1100 C 0.91384 0.53139 0.55283 0.0
C1101 C 0.91239 0.5311 0.47556 0.0
C1102 C 0.93087 0.54447 0.50285 0.0
N1103 N 0.92312 0.53929 0.44418 0.0
C1104 C 0.92042 0.51853 0.72499 0.0
C1105 C 0.92913 0.50904 0.6173 0.0
C1106 C 0.92119 0.50133 0.67318 0.0
C1107 C 0.9167 0.50617 0.72698 0.0
C1108 C 0.93261 0.52133 0.6175 0.0
N1109 N 0.92877 0.52609 0.67324 0.0
H1110 H 0.91611 0.52182 0.76304 0.0
H1111 H 0.93821 0.52695 0.57154 0.0
H1112 H 0.90704 0.52561 0.59373 0.0
H1113 H 0.94033 0.55143 0.49734 0.0
O1114 O 0.91826 0.54128 0.71153 0.0
O1115 O 0.93381 0.5587 0.66999 0.0
O1116 O 0.94911 0.54802 0.62049 0.0
C1117 C 0.92313 0.55296 0.702 0.0
H1118 H 0.96076 0.56502 0.88979 0.0
H1119 H 0.9042 0.52495 0.44483 0.0
H1120 H 0.93269 0.50564 0.57384 0.0
H1121 H 0.91011 0.5004 0.76905 0.0
Co1122 Co 0.4522 0.3893 0.662 0.0
C1123 C 0.45241 0.3918 0.82975 0.0
C1124 C 0.43843 0.39402 0.77762 0.0
C1125 C 0.43708 0.39404 0.85477 0.0
N1126 N 0.44829 0.39299 0.76156 0.0
N1127 N 0.44585 0.39257 0.88742 0.0
H1128 H 0.45948 0.38957 0.83757 0.0
H1129 H 0.43215 0.39396 0.73613 0.0
C1130 C 0.44862 0.41043 0.63351 0.0
O1131 O 0.45533 0.41577 0.6934 0.0
N1132 N 0.45563 0.38524 0.56348 0.0
C1133 C 0.46451 0.3828 0.54566 0.0
C1134 C 0.4647 0.38165 0.46827 0.0
C1135 C 0.45047 0.38545 0.49736 0.0
N1136 N 0.45591 0.3834 0.43799 0.0
C1137 C 0.47667 0.40238 0.71847 0.0
C1138 C 0.48546 0.42062 0.6109 0.0
C1139 C 0.49332 0.4209 0.66751 0.0
C1140 C 0.48885 0.41153 0.72112 0.0
C1141 C 0.47335 0.41129 0.61047 0.0
N1142 N 0.46891 0.40267 0.66621 0.0
H1143 H 0.4737 0.39483 0.75661 0.0
H1144 H 0.46762 0.41092 0.5642 0.0
H1145 H 0.47072 0.38238 0.58585 0.0
H1146 H 0.44304 0.38728 0.49278 0.0
O1147 O 0.45463 0.37689 0.70586 0.0
O1148 O 0.43688 0.37421 0.66478 0.0
O1149 O 0.44647 0.39987 0.6133 0.0
C1150 C 0.44299 0.36971 0.69723 0.0
H1151 H 0.42972 0.39428 0.88428 0.0
H1152 H 0.47118 0.38021 0.43668 0.0
H1153 H 0.4886 0.42756 0.56748 0.0
H1154 H 0.49477 0.41111 0.76366 0.0
Co1155 Co 0.60127 0.06056 0.70679 0.0
C1156 C 0.59992 0.05787 0.87479 0.0
C1157 C 0.60359 0.04495 0.82055 0.0
C1158 C 0.60402 0.04367 0.89767 0.0
N1159 N 0.60076 0.05369 0.80605 0.0
N1160 N 0.60176 0.05185 0.93162 0.0
H1161 H 0.59845 0.06541 0.88382 0.0
H1162 H 0.60563 0.04013 0.77781 0.0
C1163 C 0.58345 0.03396 0.68971 0.0
O1164 O 0.57912 0.03384 0.75745 0.0
N1165 N 0.60213 0.0674 0.60814 0.0
C1166 C 0.60171 0.07753 0.59159 0.0
C1167 C 0.60214 0.07889 0.51411 0.0
C1168 C 0.60288 0.06276 0.54114 0.0
N1169 N 0.60285 0.06956 0.48243 0.0
C1170 C 0.58711 0.07001 0.77365 0.0
C1171 C 0.56566 0.05491 0.69843 0.0
C1172 C 0.56598 0.06336 0.75048 0.0
C1173 C 0.57691 0.07115 0.78723 0.0
C1174 C 0.57614 0.05425 0.68542 0.0
N1175 N 0.58651 0.06121 0.72628 0.0
H1176 H 0.59557 0.07646 0.80001 0.0
H1177 H 0.57592 0.04841 0.64046 0.0
H1178 H 0.60095 0.08341 0.63287 0.0
H1179 H 0.6035 0.05459 0.53572 0.0
O1180 O 0.61303 0.07632 0.74499 0.0
O1181 O 0.61738 0.06298 0.69291 0.0
O1182 O 0.592 0.04382 0.66163 0.0
C1183 C 0.62116 0.07344 0.72577 0.0
H1184 H 0.60637 0.03759 0.92638 0.0
H1185 H 0.60166 0.08603 0.4836 0.0
H1186 H 0.55749 0.04918 0.66611 0.0
H1187 H 0.57757 0.07809 0.82584 0.0
H1188 H 0.10519 0.40731 0.20437 0.0
H1189 H 0.06892 0.43918 0.11251 0.0
H1190 H 0.08519 0.39806 0.99448 0.0
H1191 H 0.06288 0.4215 0.32939 0.0
H1192 H 0.07781 0.42712 0.06589 0.0
H1193 H 0.09265 0.41561 0.25177 0.0
C1194 C 0.09815 0.40707 0.16842 0.0
C1195 C 0.09619 0.40215 0.09546 0.0
C1196 C 0.07442 0.42582 0.12336 0.0
C1197 C 0.08211 0.41165 0.14848 0.0
C1198 C 0.06947 0.43272 0.15005 0.0
C1199 C 0.0653 0.43128 0.22471 0.0
C1200 C 0.07552 0.41779 0.17268 0.0
C1201 C 0.06605 0.42278 0.27142 0.0
C1202 C 0.09097 0.41166 0.19565 0.0
C1203 C 0.08691 0.40184 0.05103 0.0
N1204 N 0.07133 0.41647 0.24502 0.0
N1205 N 0.08031 0.40678 0.07777 0.0
H1206 H 0.53578 0.63671 0.27597 0.0
H1207 H 0.59747 0.68803 0.08947 0.0
H1208 H 0.57022 0.63809 0.3057 0.0
H1209 H 0.56511 0.69093 0.1108 0.0
H1210 H 0.58734 0.66896 0.16138 0.0
H1211 H 0.54628 0.65635 0.21186 0.0
C1212 C 0.54559 0.64127 0.27 0.0
C1213 C 0.55217 0.63582 0.29589 0.0
C1214 C 0.58247 0.67378 0.1501 0.0
C1215 C 0.56419 0.6581 0.22127 0.0
C1216 C 0.58819 0.68456 0.10842 0.0
C1217 C 0.58208 0.69099 0.09416 0.0
C1218 C 0.57057 0.66943 0.17688 0.0
C1219 C 0.57013 0.68623 0.12064 0.0
C1220 C 0.55157 0.65244 0.23316 0.0
C1221 C 0.56485 0.64205 0.28678 0.0
N1222 N 0.56476 0.67572 0.16073 0.0
N1223 N 0.57046 0.65284 0.24926 0.0
H1224 H 0.30547 0.90774 0.05208 0.0
H1225 H 0.3559 0.8974 0.2525 0.0
H1226 H 0.30173 0.87225 0.08204 0.0
H1227 H 0.35376 0.93009 0.2802 0.0
H1228 H 0.3371 0.88847 0.17877 0.0
H1229 H 0.32473 0.91676 0.12143 0.0
C1230 C 0.3088 0.90188 0.07225 0.0
C1231 C 0.30204 0.88925 0.06165 0.0
C1232 C 0.3407 0.89756 0.20146 0.0
C1233 C 0.32387 0.89943 0.14135 0.0
C1234 C 0.35139 0.90264 0.2437 0.0
C1235 C 0.35632 0.91446 0.27257 0.0
C1236 C 0.33503 0.90443 0.18738 0.0
C1237 C 0.35018 0.9209 0.25932 0.0
C1238 C 0.31971 0.90701 0.11239 0.0
C1239 C 0.30668 0.88204 0.08934 0.0
N1240 N 0.33987 0.91582 0.21712 0.0
N1241 N 0.31733 0.88723 0.12816 0.0
H1242 H 0.45199 0.0947 0.73188 0.0
H1243 H 0.39141 0.0865 0.92373 0.0
H1244 H 0.41708 0.06194 0.70848 0.0
H1245 H 0.42503 0.12084 0.90731 0.0
H1246 H 0.4007 0.07692 0.84972 0.0
H1247 H 0.44214 0.10434 0.79719 0.0
C1248 C 0.4422 0.08961 0.73954 0.0
C1249 C 0.43532 0.07752 0.7151 0.0
C1250 C 0.40602 0.08654 0.86255 0.0
C1251 C 0.42401 0.08837 0.79115 0.0
C1252 C 0.40078 0.09197 0.90538 0.0
C1253 C 0.40749 0.10445 0.92163 0.0
C1254 C 0.41805 0.09367 0.83656 0.0
C1255 C 0.41954 0.11118 0.89592 0.0
C1256 C 0.43658 0.09509 0.7771 0.0
C1257 C 0.42268 0.07131 0.72628 0.0
N1258 N 0.42443 0.1057 0.85464 0.0
N1259 N 0.41742 0.07677 0.76446 0.0
H1260 H 0.89897 0.36045 0.7781 0.0
H1261 H 0.90955 0.30931 0.96831 0.0
H1262 H 0.93245 0.3597 0.75286 0.0
H1263 H 0.87515 0.30852 0.96305 0.0
H1264 H 0.91898 0.32891 0.90133 0.0
H1265 H 0.89073 0.34212 0.85455 0.0
C1266 C 0.90455 0.35634 0.7881 0.0
C1267 C 0.91637 0.36154 0.7589 0.0
C1268 C 0.9094 0.32448 0.9156 0.0
C1269 C 0.90705 0.3406 0.84738 0.0
C1270 C 0.90407 0.3134 0.95442 0.0
C1271 C 0.89157 0.30734 0.97064 0.0
C1272 C 0.90215 0.32945 0.89367 0.0
C1273 C 0.8848 0.31289 0.95096 0.0
C1274 C 0.89986 0.34589 0.83211 0.0
C1275 C 0.92323 0.35588 0.77389 0.0
N1276 N 0.89017 0.3236 0.91315 0.0
N1277 N 0.91847 0.34569 0.81748 0.0
H1278 H 0.68861 0.56682 0.91762 0.0
H1279 H 0.63557 0.57514 0.7364 0.0
H1280 H 0.688 0.60047 0.93343 0.0
H1281 H 0.63428 0.54064 0.7602 0.0
H1282 H 0.65534 0.58511 0.80115 0.0
H1283 H 0.66895 0.55741 0.85477 0.0
C1284 C 0.68426 0.5722 0.90833 0.0
C1285 C 0.68989 0.58442 0.9306 0.0
C1286 C 0.65071 0.57536 0.79192 0.0
C1287 C 0.66743 0.57376 0.85783 0.0
C1288 C 0.63951 0.56971 0.75454 0.0
C1289 C 0.63333 0.55707 0.74307 0.0
C1290 C 0.65571 0.5683 0.81724 0.0
C1291 C 0.63873 0.5504 0.76808 0.0
C1292 C 0.67304 0.56683 0.87232 0.0
C1293 C 0.68388 0.59098 0.91736 0.0
N1294 N 0.64961 0.5561 0.80401 0.0
N1295 N 0.67296 0.58558 0.88119 0.0
H1296 H 0.87201 0.56771 0.92516 0.0
H1297 H 0.9331 0.57737 0.73054 0.0
H1298 H 0.90596 0.60179 0.93641 0.0
H1299 H 0.89968 0.54287 0.7474 0.0
H1300 H 0.92331 0.58705 0.7989 0.0
H1301 H 0.88217 0.5588 0.85612 0.0
C1302 C 0.88166 0.57329 0.91363 0.0
C1303 C 0.88818 0.58549 0.93641 0.0
C1304 C 0.91814 0.57738 0.78717 0.0
C1305 C 0.89988 0.57539 0.85635 0.0
C1306 C 0.92367 0.57189 0.74765 0.0
C1307 C 0.91716 0.55933 0.73358 0.0
C1308 C 0.90606 0.5702 0.81208 0.0
C1309 C 0.90503 0.55259 0.75742 0.0
C1310 C 0.88746 0.56821 0.87395 0.0
C1311 C 0.90066 0.59231 0.92011 0.0
N1312 N 0.89989 0.5581 0.79565 0.0
N1313 N 0.90613 0.58718 0.88044 0.0
H1314 H 0.41871 0.3549 0.7273 0.0
H1315 H 0.42972 0.30559 0.93881 0.0
H1316 H 0.45372 0.35719 0.74792 0.0
H1317 H 0.39575 0.30562 0.95153 0.0
H1318 H 0.43837 0.32419 0.86438 0.0
H1319 H 0.40958 0.33604 0.80156 0.0
C1320 C 0.42442 0.35133 0.74643 0.0
C1321 C 0.43697 0.35756 0.73168 0.0
C1322 C 0.42905 0.32021 0.88383 0.0
C1323 C 0.4267 0.33626 0.81704 0.0
C1324 C 0.42413 0.30962 0.92659 0.0
C1325 C 0.41202 0.30411 0.95123 0.0
C1326 C 0.42178 0.32529 0.86499 0.0
C1327 C 0.40516 0.30967 0.93388 0.0
C1328 C 0.41925 0.34066 0.78937 0.0
C1329 C 0.444 0.35266 0.75828 0.0
N1330 N 0.41012 0.31995 0.89113 0.0
N1331 N 0.43877 0.34231 0.79986 0.0
H1332 H 0.68499 0.0978 0.99235 0.0
H1333 H 0.64157 0.07777 0.64898 0.0
H1334 H 0.69805 0.11973 0.79042 0.0
H1335 H 0.6292 0.08544 0.85821 0.0
H1336 H 0.66262 0.08886 0.69723 0.0
H1337 H 0.66409 0.08837 0.94207 0.0
C1338 C 0.68341 0.10058 0.93754 0.0
C1339 C 0.69307 0.10954 0.89534 0.0
C1340 C 0.65525 0.08816 0.73187 0.0
C1341 C 0.66964 0.09872 0.83761 0.0
C1342 C 0.64334 0.08189 0.70464 0.0
C1343 C 0.63381 0.08089 0.74969 0.0
C1344 C 0.6574 0.09295 0.80532 0.0
C1345 C 0.63642 0.08622 0.82166 0.0
C1346 C 0.67159 0.09528 0.90927 0.0
C1347 C 0.69071 0.11291 0.82462 0.0
N1348 N 0.64801 0.09189 0.84803 0.0
N1349 N 0.67919 0.10735 0.79719 0.0
H1350 H 0.53742 0.89886 0.24643 0.0
H1351 H 0.596 0.90592 0.03192 0.0
H1352 H 0.57336 0.9302 0.27189 0.0
H1353 H 0.56247 0.87169 0.05607 0.0
H1354 H 0.58711 0.91582 0.10638 0.0
H1355 H 0.54599 0.88928 0.16699 0.0
C1356 C 0.54715 0.90365 0.23606 0.0
C1357 C 0.55472 0.9153 0.26584 0.0
C1358 C 0.58169 0.90616 0.09479 0.0
C1359 C 0.56452 0.90454 0.17389 0.0
C1360 C 0.58669 0.90055 0.05163 0.0
C1361 C 0.57994 0.88799 0.03823 0.0
C1362 C 0.56986 0.89914 0.12395 0.0
C1363 C 0.56798 0.8814 0.06556 0.0
C1364 C 0.55202 0.89821 0.19045 0.0
C1365 C 0.56724 0.92115 0.25045 0.0
N1366 N 0.56333 0.88705 0.10745 0.0
N1367 N 0.57175 0.91573 0.2049 0.0
H1368 H 0.12156 0.69142 0.10339 0.0
H1369 H 0.06114 0.63813 0.29185 0.0
H1370 H 0.0861 0.6878 0.07388 0.0
H1371 H 0.09418 0.63662 0.26443 0.0
H1372 H 0.07086 0.65783 0.22692 0.0
H1373 H 0.11216 0.67235 0.1742 0.0
C1374 C 0.11177 0.68653 0.11119 0.0
C1375 C 0.10457 0.69112 0.08262 0.0
C1376 C 0.07599 0.6532 0.23564 0.0
C1377 C 0.09382 0.66949 0.16455 0.0
C1378 C 0.0705 0.64205 0.27329 0.0
C1379 C 0.07688 0.63579 0.28314 0.0
C1380 C 0.08794 0.65809 0.20847 0.0
C1381 C 0.08894 0.64117 0.25757 0.0
C1382 C 0.10643 0.67568 0.1518 0.0
C1383 C 0.09195 0.68449 0.09454 0.0
N1384 N 0.09408 0.65202 0.22115 0.0
N1385 N 0.08696 0.67401 0.13516 0.0
H1386 H 0.35521 0.45399 0.25357 0.0
H1387 H 0.30069 0.3929 0.08064 0.0
H1388 H 0.35271 0.41896 0.27856 0.0
H1389 H 0.29977 0.42629 0.10549 0.0
H1390 H 0.32044 0.40251 0.14527 0.0
H1391 H 0.33514 0.44405 0.19481 0.0
C1392 C 0.35034 0.44417 0.24754 0.0
C1393 C 0.35557 0.43726 0.27075 0.0
C1394 C 0.3159 0.40771 0.13635 0.0
C1395 C 0.33276 0.42586 0.20234 0.0
C1396 C 0.30472 0.40229 0.09887 0.0
C1397 C 0.29866 0.40885 0.08775 0.0
C1398 C 0.321 0.41977 0.16208 0.0
C1399 C 0.30416 0.42092 0.11305 0.0
C1400 C 0.33891 0.43851 0.2138 0.0
C1401 C 0.34892 0.42458 0.2617 0.0
N1402 N 0.31504 0.426 0.14905 0.0
N1403 N 0.33786 0.41927 0.22735 0.0
H1404 H 0.78474 0.7614 0.39101 0.0
H1405 H 0.72524 0.75283 0.59991 0.0
H1406 H 0.75032 0.7278 0.38358 0.0
H1407 H 0.75791 0.78759 0.56761 0.0
H1408 H 0.73436 0.74316 0.52515 0.0
H1409 H 0.77492 0.77109 0.45617 0.0
C1410 C 0.77505 0.75612 0.40216 0.0
C1411 C 0.7683 0.7438 0.38227 0.0
C1412 C 0.73951 0.7529 0.53464 0.0
C1413 C 0.75705 0.75472 0.45821 0.0
C1414 C 0.73438 0.75839 0.57791 0.0
C1415 C 0.74088 0.771 0.59006 0.0
C1416 C 0.75121 0.7601 0.50399 0.0
C1417 C 0.75261 0.77782 0.55964 0.0
C1418 C 0.76945 0.76164 0.43961 0.0
C1419 C 0.75579 0.73735 0.39779 0.0
N1420 N 0.7574 0.77228 0.518 0.0
N1421 N 0.75056 0.74286 0.43586 0.0
H1422 H 0.25972 0.02049 0.3518 0.0
H1423 H 0.20092 0.96913 0.56295 0.0
H1424 H 0.22845 0.02443 0.39864 0.0
H1425 H 0.23682 0.97372 0.58983 0.0
H1426 H 0.20978 0.9879 0.48827 0.0
H1427 H 0.24999 0.00117 0.42039 0.0
C1428 C 0.25071 0.01717 0.37529 0.0
C1429 C 0.24488 0.02405 0.37002 0.0
C1430 C 0.2157 0.98482 0.51113 0.0
C1431 C 0.23383 0.00214 0.449 0.0
C1432 C 0.21068 0.97418 0.55392 0.0
C1433 C 0.21818 0.96994 0.58271 0.0
C1434 C 0.22825 0.9911 0.49618 0.0
C1435 C 0.23074 0.97674 0.56912 0.0
C1436 C 0.24524 0.00623 0.41509 0.0
C1437 C 0.23325 0.01939 0.40186 0.0
N1438 N 0.23538 0.98695 0.52613 0.0
N1439 N 0.2281 0.00871 0.44036 0.0
H1440 H 0.02085 0.26654 0.59312 0.0
H1441 H 0.96694 0.2046 0.42401 0.0
H1442 H 0.02271 0.23367 0.567 0.0
H1443 H 0.96867 0.23925 0.3964 0.0
H1444 H 0.98681 0.21492 0.4852 0.0
H1445 H 0.00081 0.25637 0.53196 0.0
C1446 C 0.01697 0.25715 0.57525 0.0
C1447 C 0.02339 0.25091 0.58491 0.0
C1448 C 0.9829 0.22029 0.46533 0.0
C1449 C 0.00069 0.23933 0.51487 0.0
C1450 C 0.97157 0.21441 0.43031 0.0
C1451 C 0.96621 0.22111 0.40514 0.0
C1452 C 0.98883 0.23295 0.47593 0.0
C1453 C 0.97256 0.23378 0.41471 0.0
C1454 C 0.00562 0.2514 0.53988 0.0
C1455 C 0.01806 0.23881 0.56036 0.0
N1456 N 0.98355 0.23931 0.44995 0.0
N1457 N 0.00701 0.23341 0.52643 0.0
H1458 H 0.20548 0.23295 0.60654 0.0
H1459 H 0.26546 0.24368 0.39239 0.0
H1460 H 0.2396 0.26685 0.61735 0.0
H1461 H 0.23363 0.20831 0.4257 0.0
H1462 H 0.25558 0.25285 0.46445 0.0
H1463 H 0.21541 0.22403 0.53411 0.0
C1464 C 0.21513 0.23846 0.59447 0.0
C1465 C 0.22177 0.25063 0.61784 0.0
C1466 C 0.25076 0.24309 0.45551 0.0
C1467 C 0.23312 0.24059 0.53374 0.0
C1468 C 0.25631 0.23788 0.4137 0.0
C1469 C 0.25033 0.22524 0.40334 0.0
C1470 C 0.23914 0.23557 0.48642 0.0
C1471 C 0.23856 0.2181 0.43269 0.0
C1472 C 0.22077 0.23339 0.55285 0.0
C1473 C 0.23421 0.25739 0.60074 0.0
N1474 N 0.23336 0.22337 0.47314 0.0
N1475 N 0.2395 0.2523 0.55893 0.0
H1476 H 0.72246 0.96934 0.59014 0.0
H1477 H 0.78223 0.02203 0.39162 0.0
H1478 H 0.75594 0.96872 0.5611 0.0
H1479 H 0.7479 0.0214 0.38895 0.0
H1480 H 0.77242 0.0023 0.45375 0.0
H1481 H 0.73145 0.98861 0.51988 0.0
C1482 C 0.73173 0.97332 0.56968 0.0
C1483 C 0.7385 0.96749 0.58151 0.0
C1484 C 0.76696 0.00638 0.43913 0.0
C1485 C 0.74871 0.98927 0.50078 0.0
C1486 C 0.77256 0.01763 0.40345 0.0
C1487 C 0.76585 0.02331 0.38552 0.0
C1488 C 0.75456 0.00081 0.45787 0.0
C1489 C 0.75335 0.01724 0.4017 0.0
C1490 C 0.7368 0.98423 0.52911 0.0
C1491 C 0.7504 0.97292 0.55328 0.0
N1492 N 0.74809 0.00631 0.43788 0.0
N1493 N 0.75512 0.9835 0.51426 0.0
H1494 H 0.96796 0.76262 0.3962 0.0
H1495 H 0.01819 0.75208 0.59483 0.0
H1496 H 0.96911 0.72934 0.37277 0.0
H1497 H 0.02266 0.78777 0.55899 0.0
H1498 H -0.00081 0.7432 0.52272 0.0
H1499 H 0.98755 0.77188 0.4612 0.0
C1500 C 0.97245 0.75733 0.40378 0.0
C1501 C 0.96696 0.74521 0.37938 0.0
C1502 C 0.00434 0.75297 0.53084 0.0
C1503 C 0.98915 0.75562 0.45493 0.0
C1504 C 0.01508 0.75802 0.57266 0.0
C1505 C 0.02194 0.77066 0.5829 0.0
C1506 C 0.00043 0.76062 0.49985 0.0
C1507 C 0.01761 0.77797 0.55236 0.0
C1508 C 0.98359 0.7626 0.44105 0.0
C1509 C 0.9731 0.73874 0.39049 0.0
N1510 N 0.0071 0.77284 0.51217 0.0
N1511 N 0.98385 0.74399 0.42843 0.0
H1512 H 0.17428 0.41422 0.97412 0.0
H1513 H 0.22349 0.40178 0.17342 0.0
H1514 H 0.16812 0.39496 0.18537 0.0
H1515 H 0.22448 0.4104 0.93645 0.0
H1516 H 0.20541 0.40374 0.18872 0.0
H1517 H 0.19496 0.41738 0.97052 0.0
C1518 C 0.17738 0.41085 0.02038 0.0
C1519 C 0.16951 0.40423 0.07982 0.0
C1520 C 0.20965 0.40531 0.13355 0.0
C1521 C 0.193 0.40773 0.0758 0.0
C1522 C 0.21999 0.40426 0.12486 0.0
C1523 C 0.22539 0.40583 0.05342 0.0
C1524 C 0.20473 0.40801 0.07043 0.0
C1525 C 0.22045 0.40893 0.9922 0.0
C1526 C 0.18912 0.41258 0.01802 0.0
C1527 C 0.17389 0.39996 0.13806 0.0
N1528 N 0.21034 0.40987 0.00203 0.0
N1529 N 0.18535 0.40173 0.13441 0.0
H1530 H 0.58304 0.76392 0.91206 0.0
H1531 H 0.59604 0.82307 0.13963 0.0
H1532 H 0.59236 0.76886 0.14914 0.0
H1533 H 0.57713 0.81315 0.92575 0.0
H1534 H 0.59454 0.8031 0.14535 0.0
H1535 H 0.58062 0.78187 0.91599 0.0
C1536 C 0.58452 0.76878 0.96496 0.0
C1537 C 0.588 0.76502 0.03023 0.0
C1538 C 0.59058 0.80523 0.09762 0.0
C1539 C 0.58527 0.78547 0.03525 0.0
C1540 C 0.59149 0.81662 0.09423 0.0
C1541 C 0.58677 0.81973 0.0319 0.0
C1542 C 0.58509 0.797 0.03766 0.0
C1543 C 0.58084 0.81105 0.97488 0.0
C1544 C 0.58306 0.77895 0.96735 0.0
C1545 C 0.58964 0.77148 0.09766 0.0
N1546 N 0.5803 0.80011 0.97864 0.0
N1547 N 0.58839 0.78149 0.09827 0.0
H1548 H 0.22659 0.81894 0.88767 0.0
H1549 H 0.17243 0.76872 0.13893 0.0
H1550 H 0.2245 0.82142 0.13016 0.0
H1551 H 0.17469 0.76641 0.8964 0.0
H1552 H 0.19262 0.78691 0.13882 0.0
H1553 H 0.20861 0.79865 0.89143 0.0
C1554 C 0.22234 0.81519 0.94172 0.0
C1555 C 0.22692 0.8219 0.0086 0.0
C1556 C 0.18874 0.78237 0.08569 0.0
C1557 C 0.20641 0.7987 0.01348 0.0
C1558 C 0.17725 0.77196 0.08578 0.0
C1559 C 0.17183 0.76615 0.01746 0.0
C1560 C 0.19483 0.78699 0.01676 0.0
C1561 C 0.17843 0.77077 0.95015 0.0
C1562 C 0.21212 0.80359 0.94393 0.0
C1563 C 0.22125 0.81652 0.07732 0.0
N1564 N 0.18955 0.78098 0.95145 0.0
N1565 N 0.2112 0.80526 0.07793 0.0
H1566 H 0.41428 0.23193 0.13648 0.0
H1567 H 0.40534 0.17627 0.88099 0.0
H1568 H 0.4074 0.22922 0.89612 0.0
H1569 H 0.41105 0.17813 0.12253 0.0
H1570 H 0.40915 0.1971 0.88284 0.0
H1571 H 0.41603 0.21362 0.13001 0.0
C1572 C 0.41322 0.22752 0.08229 0.0
C1573 C 0.41053 0.23199 0.01691 0.0
C1574 C 0.40968 0.193 0.93539 0.0
C1575 C 0.41255 0.21112 0.00901 0.0
C1576 C 0.40757 0.18112 0.9343 0.0
C1577 C 0.40773 0.17541 0.00187 0.0
C1578 C 0.41191 0.19919 0.00459 0.0
C1579 C 0.41056 0.1821 0.06939 0.0
C1580 C 0.41427 0.21711 0.07856 0.0
C1581 C 0.4095 0.2261 0.94788 0.0
N1582 N 0.41243 0.19361 0.06914 0.0
N1583 N 0.41039 0.21589 0.94589 0.0
H1584 H 0.77264 0.17592 0.82463 0.0
H1585 H 0.81608 0.23588 0.0617 0.0
H1586 H 0.76694 0.1808 0.05964 0.0
H1587 H 0.82708 0.22612 0.85447 0.0
H1588 H 0.79599 0.21769 0.0499 0.0
H1589 H 0.79069 0.19631 0.82369 0.0
C1590 C 0.77513 0.18136 0.8757 0.0
C1591 C 0.76843 0.17669 0.94254 0.0
C1592 C 0.80277 0.21959 0.00672 0.0
C1593 C 0.78893 0.19987 0.94191 0.0
C1594 C 0.81419 0.22999 0.01315 0.0
C1595 C 0.82324 0.2324 0.95929 0.0
C1596 C 0.8004 0.21162 0.94578 0.0
C1597 C 0.82038 0.22445 0.89778 0.0
C1598 C 0.78543 0.19294 0.87525 0.0
C1599 C 0.77202 0.18404 0.00735 0.0
N1600 N 0.8092 0.21435 0.89282 0.0
N1601 N 0.78206 0.19527 0.00551 0.0
H1602 H 0.76414 0.58678 0.87061 0.0
H1603 H 0.81296 0.58072 0.12164 0.0
H1604 H 0.76094 0.58102 0.11219 0.0
H1605 H 0.81631 0.5872 0.88079 0.0
H1606 H 0.79237 0.57769 0.11661 0.0
H1607 H 0.78156 0.58357 0.8703 0.0
C1608 C 0.76698 0.58465 0.92344 0.0
C1609 C 0.76121 0.58435 0.99172 0.0
C1610 C 0.79756 0.57963 0.06472 0.0
C1611 C 0.78125 0.58089 0.992 0.0
C1612 C 0.80932 0.58143 0.06766 0.0
C1613 C 0.8164 0.58439 0.00171 0.0
C1614 C 0.79289 0.58089 0.99543 0.0
C1615 C 0.81116 0.58492 0.93297 0.0
C1616 C 0.77697 0.58288 0.92331 0.0
C1617 C 0.76533 0.58163 0.05855 0.0
N1618 N 0.79977 0.58333 0.93177 0.0
N1619 N 0.77519 0.58013 0.05714 0.0
H1620 H 0.84428 0.75027 0.3224 0.0
H1621 H 0.88378 0.72377 0.50331 0.0
H1622 H 0.83107 0.72306 0.49875 0.0
H1623 H 0.89602 0.74993 0.32103 0.0
H1624 H 0.86548 0.72545 0.51523 0.0
H1625 H 0.8644 0.75251 0.3351 0.0
C1626 C 0.84565 0.7449 0.36466 0.0
C1627 C 0.83594 0.73637 0.40903 0.0
C1628 C 0.87224 0.73091 0.47319 0.0
C1629 C 0.85893 0.73871 0.42285 0.0
C1630 C 0.88264 0.72991 0.4661 0.0
C1631 C 0.89135 0.73661 0.41044 0.0
C1632 C 0.87052 0.73862 0.42403 0.0
C1633 C 0.88957 0.74463 0.36489 0.0
C1634 C 0.85714 0.74612 0.37155 0.0
C1635 C 0.83824 0.72955 0.46225 0.0
N1636 N 0.87929 0.74532 0.37219 0.0
N1637 N 0.84948 0.73079 0.4672 0.0
H1638 H 0.28099 0.16698 0.32858 0.0
H1639 H 0.24398 0.0963 0.43689 0.0
H1640 H 0.24648 0.15055 0.44553 0.0
H1641 H 0.27826 0.11391 0.31729 0.0
H1642 H 0.24452 0.11589 0.44294 0.0
H1643 H 0.28012 0.14743 0.32784 0.0
C1644 C 0.27327 0.15926 0.3549 0.0
C1645 C 0.26384 0.16041 0.38769 0.0
C1646 C 0.25192 0.11544 0.41563 0.0
C1647 C 0.26264 0.13786 0.38579 0.0
C1648 C 0.25159 0.10427 0.41189 0.0
C1649 C 0.26114 0.10352 0.37705 0.0
C1650 C 0.26184 0.12584 0.38402 0.0
C1651 C 0.27083 0.11412 0.34598 0.0
C1652 C 0.27273 0.14806 0.35394 0.0
C1653 C 0.25391 0.15002 0.41925 0.0
N1654 N 0.27092 0.12481 0.35022 0.0
N1655 N 0.25357 0.13914 0.41757 0.0
H1656 H 0.89225 0.14663 0.24776 0.0
H1657 H 0.83237 0.10518 0.4847 0.0
H1658 H 0.88815 0.15388 0.48113 0.0
H1659 H 0.84114 0.09326 0.27754 0.0
H1660 H 0.85287 0.12302 0.48567 0.0
H1661 H 0.87361 0.12685 0.25801 0.0
C1662 C 0.88744 0.14399 0.30126 0.0
C1663 C 0.89164 0.15187 0.36355 0.0
C1664 C 0.85035 0.11642 0.44051 0.0
C1665 C 0.87036 0.12939 0.37569 0.0
C1666 C 0.83866 0.1063 0.43975 0.0
C1667 C 0.83508 0.09782 0.38073 0.0
C1668 C 0.85843 0.11812 0.38122 0.0
C1669 C 0.84358 0.09958 0.32427 0.0
C1670 C 0.87686 0.1327 0.30725 0.0
C1671 C 0.8852 0.14801 0.43191 0.0
N1672 N 0.85483 0.10962 0.32542 0.0
N1673 N 0.87478 0.13708 0.43595 0.0
H1674 H 0.05802 0.50359 0.13722 0.0
H1675 H 0.0745 0.55904 0.40978 0.0
H1676 H 0.07736 0.50884 0.34723 0.0
H1677 H 0.06691 0.55983 0.17266 0.0
H1678 H 0.07578 0.54067 0.38784 0.0
H1679 H 0.06139 0.5243 0.1476 0.0
C1680 C 0.06309 0.50918 0.18502 0.0
C1681 C 0.06736 0.50454 0.2417 0.0
C1682 C 0.07399 0.54495 0.34042 0.0
C1683 C 0.07114 0.52806 0.25437 0.0
C1684 C 0.07319 0.55536 0.35305 0.0
C1685 C 0.0705 0.56083 0.29299 0.0
C1686 C 0.07188 0.5399 0.2675 0.0
C1687 C 0.06902 0.55585 0.22034 0.0
C1688 C 0.06506 0.52098 0.19079 0.0
C1689 C 0.07397 0.51213 0.30219 0.0
N1690 N 0.06956 0.54554 0.20973 0.0
N1691 N 0.07552 0.52348 0.30752 0.0
H1692 H 0.49253 0.55175 0.16602 0.0
H1693 H 0.42229 0.5138 0.27989 0.0
H1694 H 0.47587 0.56517 0.32316 0.0
H1695 H 0.44381 0.49739 0.21995 0.0
H1696 H 0.44038 0.53405 0.26281 0.0
H1697 H 0.47294 0.53306 0.15187 0.0
C1698 C 0.48476 0.55082 0.19722 0.0
C1699 C 0.48592 0.55993 0.24732 0.0
C1700 C 0.44106 0.52599 0.25256 0.0
C1701 C 0.46349 0.53873 0.22977 0.0
C1702 C 0.4308 0.51451 0.26208 0.0
C1703 C 0.43171 0.50404 0.25191 0.0
C1704 C 0.45215 0.52689 0.23154 0.0
C1705 C 0.44286 0.50531 0.22905 0.0
C1706 C 0.47359 0.54019 0.18868 0.0
C1707 C 0.47542 0.55839 0.28403 0.0
N1708 N 0.45269 0.51657 0.21972 0.0
N1709 N 0.46464 0.54791 0.27509 0.0
H1710 H 0.44403 0.94435 0.37571 0.0
H1711 H 0.48007 0.90874 0.29884 0.0
H1712 H 0.42622 0.90692 0.30154 0.0
H1713 H 0.49704 0.94671 0.36053 0.0
H1714 H 0.46027 0.90773 0.29644 0.0
H1715 H 0.46356 0.94519 0.36874 0.0
C1716 C 0.44425 0.93627 0.35839 0.0
C1717 C 0.4335 0.92551 0.34005 0.0
C1718 C 0.46834 0.91627 0.31029 0.0
C1719 C 0.45589 0.92643 0.33101 0.0
C1720 C 0.47963 0.91687 0.31135 0.0
C1721 C 0.49018 0.92781 0.33045 0.0
C1722 C 0.46765 0.92669 0.3284 0.0
C1723 C 0.48911 0.93804 0.34686 0.0
C1724 C 0.45542 0.93677 0.3539 0.0
C1725 C 0.43432 0.9154 0.3161 0.0
N1726 N 0.47805 0.93721 0.34564 0.0
N1727 N 0.44535 0.91608 0.31264 0.0
H1728 H 0.51085 0.08178 0.67818 0.0
H1729 H 0.54336 0.0454 0.79058 0.0
H1730 H 0.49434 0.05147 0.83396 0.0
H1731 H 0.56398 0.08369 0.73745 0.0
H1732 H 0.52493 0.04697 0.80135 0.0
H1733 H 0.53031 0.08258 0.69516 0.0
C1734 C 0.51132 0.07542 0.71693 0.0
C1735 C 0.50085 0.06642 0.75384 0.0
C1736 C 0.53352 0.05506 0.78835 0.0
C1737 C 0.52305 0.06712 0.77173 0.0
C1738 C 0.54397 0.05414 0.7818 0.0
C1739 C 0.55509 0.06442 0.76293 0.0
C1740 C 0.5342 0.06627 0.77418 0.0
C1741 C 0.55552 0.07558 0.75235 0.0
C1742 C 0.52244 0.07586 0.72627 0.0
C1743 C 0.50206 0.05833 0.80252 0.0
N1744 N 0.54515 0.07619 0.75703 0.0
N1745 N 0.51292 0.05875 0.80916 0.0
H1746 H 0.91921 0.48766 0.79745 0.0
H1747 H 0.9122 0.43173 0.55235 0.0
H1748 H 0.91532 0.48547 0.55445 0.0
H1749 H 0.91883 0.43549 0.79307 0.0
H1750 H 0.90997 0.44978 0.55448 0.0
H1751 H 0.91552 0.46685 0.79935 0.0
C1752 C 0.9174 0.48273 0.74458 0.0
C1753 C 0.91775 0.48835 0.67557 0.0
C1754 C 0.91178 0.44657 0.60695 0.0
C1755 C 0.91369 0.46462 0.67719 0.0
C1756 C 0.91312 0.43631 0.60569 0.0
C1757 C 0.91588 0.43222 0.67245 0.0
C1758 C 0.91328 0.45278 0.67539 0.0
C1759 C 0.91667 0.43831 0.7403 0.0
C1760 C 0.91536 0.47088 0.74564 0.0
C1761 C 0.91542 0.48157 0.60873 0.0
N1762 N 0.91551 0.44837 0.73987 0.0
N1763 N 0.9136 0.47009 0.61112 0.0
H1764 H 0.5064 0.43303 0.79263 0.0
H1765 H 0.56248 0.48288 0.55194 0.0
H1766 H 0.50929 0.43158 0.54996 0.0
H1767 H 0.55818 0.48557 0.79217 0.0
H1768 H 0.54455 0.46252 0.55283 0.0
H1769 H 0.52693 0.45064 0.79617 0.0
C1770 C 0.51142 0.43633 0.74018 0.0
C1771 C 0.50609 0.43094 0.67078 0.0
C1772 C 0.5476 0.46751 0.60549 0.0
C1773 C 0.5295 0.45116 0.6743 0.0
C1774 C 0.55779 0.47915 0.60494 0.0
C1775 C 0.5617 0.48598 0.67189 0.0
C1776 C 0.54125 0.46271 0.67342 0.0
C1777 C 0.55548 0.48061 0.73929 0.0
C1778 C 0.52311 0.44642 0.74219 0.0
C1779 C 0.51296 0.43564 0.6045 0.0
N1780 N 0.54547 0.46933 0.73819 0.0
N1781 N 0.52429 0.44555 0.60783 0.0
H1782 H 0.73709 0.89391 0.53689 0.0
H1783 H 0.74163 0.84388 0.78454 0.0
H1784 H 0.74262 0.89666 0.77872 0.0
H1785 H 0.73648 0.84158 0.54248 0.0
H1786 H 0.74455 0.86443 0.78185 0.0
H1787 H 0.7397 0.87615 0.53581 0.0
C1788 C 0.73906 0.8909 0.58965 0.0
C1789 C 0.73949 0.89668 0.65816 0.0
C1790 C 0.7429 0.85948 0.72923 0.0
C1791 C 0.74224 0.8762 0.65752 0.0
C1792 C 0.74116 0.84773 0.73081 0.0
C1793 C 0.73864 0.84098 0.66375 0.0
C1794 C 0.74204 0.86446 0.66015 0.0
C1795 C 0.73841 0.84649 0.59547 0.0
C1796 C 0.74047 0.8807 0.58905 0.0
C1797 C 0.74194 0.8923 0.72486 0.0
N1798 N 0.73996 0.85787 0.59553 0.0
N1799 N 0.7431 0.88223 0.72298 0.0
H1800 H 0.16347 0.87994 0.64859 0.0
H1801 H 0.09106 0.84614 0.60466 0.0
H1802 H 0.14391 0.89907 0.60638 0.0
H1803 H 0.11143 0.82801 0.65263 0.0
H1804 H 0.11025 0.86555 0.59648 0.0
H1805 H 0.14438 0.8607 0.64228 0.0
C1806 C 0.15512 0.88007 0.63815 0.0
C1807 C 0.15523 0.89109 0.6288 0.0
C1808 C 0.1105 0.8573 0.60857 0.0
C1809 C 0.13331 0.86909 0.62098 0.0
C1810 C 0.09957 0.84624 0.61292 0.0
C1811 C 0.09969 0.8355 0.63001 0.0
C1812 C 0.12156 0.85755 0.62113 0.0
C1813 C 0.11093 0.83612 0.64072 0.0
C1814 C 0.14422 0.86908 0.63418 0.0
C1815 C 0.1442 0.89075 0.61372 0.0
N1816 N 0.12141 0.84696 0.6363 0.0
N1817 N 0.13364 0.8799 0.61076 0.0
H1818 H 0.09575 0.24885 0.75027 0.0
H1819 H 0.15609 0.26588 0.52307 0.0
H1820 H 0.10109 0.26035 0.51691 0.0
H1821 H 0.14639 0.24562 0.73222 0.0
H1822 H 0.13573 0.26347 0.5178 0.0
H1823 H 0.11403 0.24704 0.74364 0.0
C1824 C 0.10075 0.25091 0.69753 0.0
C1825 C 0.09703 0.25485 0.63423 0.0
C1826 C 0.13801 0.25942 0.56435 0.0
C1827 C 0.11789 0.25287 0.6262 0.0
C1828 C 0.14962 0.26086 0.56756 0.0
C1829 C 0.1529 0.25602 0.62846 0.0
C1830 C 0.1297 0.25326 0.62307 0.0
C1831 C 0.14418 0.24945 0.68419 0.0
C1832 C 0.11113 0.24982 0.69359 0.0
C1833 C 0.10368 0.25725 0.56689 0.0
N1834 N 0.133 0.24839 0.68065 0.0
N1835 N 0.1139 0.25637 0.56487 0.0
H1836 H 0.06956 0.29763 0.80587 0.0
H1837 H 0.1281 0.36425 0.83037 0.0
H1838 H 0.10015 0.31059 0.65311 0.0
H1839 H 0.0974 0.35073 0.98264 0.0
H1840 H 0.11868 0.34429 0.76928 0.0
H1841 H 0.08025 0.31671 0.8755 0.0
C1842 C 0.07855 0.30448 0.787 0.0
C1843 C 0.08394 0.30254 0.72325 0.0
C1844 C 0.11405 0.34568 0.81638 0.0
C1845 C 0.09625 0.32445 0.80282 0.0
C1846 C 0.11943 0.35706 0.8514 0.0
C1847 C 0.11349 0.35918 0.91139 0.0
C1848 C 0.10265 0.33638 0.84158 0.0
C1849 C 0.10228 0.34954 0.93625 0.0
C1850 C 0.08466 0.31538 0.82691 0.0
C1851 C 0.09563 0.31172 0.70176 0.0
N1852 N 0.0972 0.33859 0.90098 0.0
N1853 N 0.10138 0.32232 0.7413 0.0
H1854 H 0.62647 0.74115 0.84405 0.0
H1855 H 0.69818 0.77854 0.84631 0.0
H1856 H 0.64637 0.76069 0.04293 0.0
H1857 H 0.67785 0.77717 0.64731 0.0
H1858 H 0.67928 0.76939 0.91992 0.0
H1859 H 0.64533 0.75168 0.77024 0.0
C1860 C 0.63482 0.74763 0.87209 0.0
C1861 C 0.63493 0.75006 0.94953 0.0
C1862 C 0.67899 0.77116 0.86023 0.0
C1863 C 0.65641 0.76196 0.86612 0.0
C1864 C 0.68972 0.7763 0.81824 0.0
C1865 C 0.6895 0.77856 0.74082 0.0
C1866 C 0.66797 0.76801 0.82398 0.0
C1867 C 0.67836 0.7756 0.70705 0.0
C1868 C 0.64552 0.75368 0.82997 0.0
C1869 C 0.64594 0.75861 0.98322 0.0
N1870 N 0.66796 0.77032 0.74874 0.0
N1871 N 0.65631 0.76417 0.9414 0.0
H1872 H 0.2338 0.88681 0.02531 0.0
H1873 H 0.21886 0.90341 0.622 0.0
H1874 H 0.2523 0.88571 0.82307 0.0
H1875 H 0.21707 0.92131 0.82522 0.0
H1876 H 0.22806 0.89367 0.69519 0.0
H1877 H 0.22437 0.89637 0.95241 0.0
C1878 C 0.23582 0.88853 0.96554 0.0
C1879 C 0.24385 0.88553 0.93 0.0
C1880 C 0.22566 0.89976 0.72353 0.0
C1881 C 0.23306 0.89627 0.84681 0.0
C1882 C 0.22039 0.90526 0.68204 0.0
C1883 C 0.21728 0.91319 0.71777 0.0
C1884 C 0.22757 0.90201 0.80142 0.0
C1885 C 0.21946 0.91532 0.79558 0.0
C1886 C 0.2305 0.89403 0.92427 0.0
C1887 C 0.24622 0.88799 0.85259 0.0
N1888 N 0.2244 0.90968 0.83511 0.0
N1889 N 0.24077 0.89315 0.81331 0.0
H1890 H 0.29359 0.09545 0.13259 0.0
H1891 H 0.35942 0.10141 0.13796 0.0
H1892 H 0.30223 0.07222 0.2656 0.0
H1893 H 0.35011 0.1237 1.00029 0.0
H1894 H 0.33888 0.09136 0.19113 0.0
H1895 H 0.3146 0.10655 0.08849 0.0
C1896 C 0.29991 0.09269 0.15262 0.0
C1897 C 0.29614 0.08286 0.20265 0.0
C1898 C 0.34136 0.09848 0.1495 0.0
C1899 C 0.32024 0.09555 0.15239 0.0
C1900 C 0.35309 0.10424 0.1192 0.0
C1901 C 0.35646 0.11335 0.06421 0.0
C1902 C 0.33296 0.10187 0.1246 0.0
C1903 C 0.34789 0.11668 0.04225 0.0
C1904 C 0.31192 0.09904 0.12743 0.0
C1905 C 0.30474 0.07971 0.22679 0.0
N1906 N 0.33652 0.1109 0.07229 0.0
N1907 N 0.3164 0.08603 0.20129 0.0
H1908 H 0.86392 0.2351 0.21134 0.0
H1909 H 0.92076 0.22415 0.19876 0.0
H1910 H 0.89579 0.25603 0.07255 0.0
H1911 H 0.88991 0.20474 0.34773 0.0
H1912 H 0.91101 0.23481 0.14454 0.0
H1913 H 0.87265 0.22287 0.25536 0.0
C1914 C 0.87275 0.23711 0.18999 0.0
C1915 C 0.87917 0.24665 0.13851 0.0
C1916 C 0.90635 0.22818 0.18887 0.0
C1917 C 0.8892 0.23268 0.18857 0.0
C1918 C 0.9119 0.22207 0.2198 0.0
C1919 C 0.90618 0.21361 0.27831 0.0
C1920 C 0.89499 0.22581 0.21666 0.0
C1921 C 0.89468 0.21124 0.30302 0.0
C1922 C 0.87772 0.23012 0.21514 0.0
C1923 C 0.89054 0.24882 0.11259 0.0
N1924 N 0.8895 0.21736 0.27231 0.0
N1925 N 0.89521 0.2419 0.13806 0.0
H1926 H 0.76718 0.64224 0.993 0.0
H1927 H 0.76304 0.688 0.2863 0.0
H1928 H 0.73643 0.63227 0.14039 0.0
H1929 H 0.79374 0.69812 0.13823 0.0
H1930 H 0.75362 0.66724 0.23798 0.0
H1931 H 0.77756 0.66243 0.05053 0.0
C1932 C 0.76263 0.64427 0.03774 0.0
C1933 C 0.75088 0.63558 0.06157 0.0
C1934 C 0.76243 0.67399 0.21621 0.0
C1935 C 0.7627 0.65869 0.12745 0.0
C1936 C 0.76782 0.68585 0.24372 0.0
C1937 C 0.77918 0.69482 0.21602 0.0
C1938 C 0.76843 0.67106 0.16043 0.0
C1939 C 0.78496 0.6915 0.1611 0.0
C1940 C 0.76856 0.65581 0.07051 0.0
C1941 C 0.74545 0.63871 0.11995 0.0
N1942 N 0.7795 0.67989 0.13489 0.0
N1943 N 0.75139 0.65003 0.15064 0.0
H1944 H 0.89534 0.69885 0.1394 0.0
H1945 H 0.88869 0.63273 0.15166 0.0
H1946 H 0.91692 0.68941 0.28305 0.0
H1947 H 0.86787 0.64238 0.00259 0.0
H1948 H 0.89816 0.6531 0.20651 0.0
H1949 H 0.88429 0.67786 0.09398 0.0
C1950 C 0.89773 0.69236 0.16158 0.0
C1951 C 0.9071 0.6959 0.21486 0.0
C1952 C 0.89149 0.65075 0.162 0.0
C1953 C 0.8945 0.67188 0.16316 0.0
C1954 C 0.88606 0.63911 0.13069 0.0
C1955 C 0.87754 0.63588 0.07204 0.0
C1956 C 0.88838 0.65922 0.13442 0.0
C1957 C 0.87444 0.6445 0.04745 0.0
C1958 C 0.89141 0.68038 0.13563 0.0
C1959 C 0.90979 0.6871 0.24169 0.0
N1960 N 0.87991 0.6558 0.07851 0.0
N1961 N 0.90354 0.6755 0.21539 0.0
H1962 H 0.35441 0.22738 0.0239 0.0
H1963 H 0.30702 0.23342 0.29285 0.0
H1964 H 0.36385 0.25894 0.16239 0.0
H1965 H 0.29789 0.20181 0.15574 0.0
H1966 H 0.32807 0.24265 0.24942 0.0
H1967 H 0.33389 0.21749 0.0764 0.0
C1968 C 0.35219 0.23221 0.0657 0.0
C1969 C 0.36083 0.24403 0.08841 0.0
C1970 C 0.32147 0.23368 0.22897 0.0
C1971 C 0.33732 0.23279 0.14845 0.0
C1972 C 0.30944 0.22842 0.25361 0.0
C1973 C 0.30067 0.21685 0.22761 0.0
C1974 C 0.32475 0.22733 0.1779 0.0
C1975 C 0.30433 0.21076 0.17709 0.0
C1976 C 0.34046 0.22656 0.09559 0.0
C1977 C 0.35745 0.24983 0.14298 0.0
N1978 N 0.31609 0.21609 0.15375 0.0
N1979 N 0.34593 0.24417 0.17085 0.0
H1980 H 0.76168 0.07423 0.27225 0.0
H1981 H 0.76851 0.12251 0.95728 0.0
H1982 H 0.79363 0.09421 0.13253 0.0
H1983 H 0.73712 0.10381 0.10297 0.0
H1984 H 0.77809 0.11264 0.02373 0.0
H1985 H 0.75276 0.08542 0.21392 0.0
C1986 C 0.76684 0.081 0.22953 0.0
C1987 C 0.77839 0.08325 0.20694 0.0
C1988 C 0.76912 0.11072 0.04136 0.0
C1989 C 0.76823 0.09605 0.13989 0.0
C1990 C 0.76364 0.11635 0.00336 0.0
C1991 C 0.75197 0.11393 0.02432 0.0
C1992 C 0.76288 0.10258 0.10064 0.0
C1993 C 0.74611 0.1059 0.0847 0.0
C1994 C 0.76174 0.08738 0.19627 0.0
C1995 C 0.78468 0.09215 0.15156 0.0
N1996 N 0.75161 0.10048 0.12056 0.0
N1997 N 0.77949 0.09819 0.1197 0.0
H1998 H 0.69167 0.9212 0.80147 0.0
H1999 H 0.62544 0.86182 0.78931 0.0
H2000 H 0.68213 0.89038 0.65576 0.0
H2001 H 0.63476 0.89328 0.92852 0.0
H2002 H 0.64653 0.87154 0.74586 0.0
H2003 H 0.67124 0.91044 0.85557 0.0
C2004 C 0.6853 0.91215 0.78109 0.0
C2005 C 0.68858 0.90672 0.72352 0.0
C2006 C 0.64397 0.8763 0.78609 0.0
C2007 C 0.66516 0.89436 0.78504 0.0
C2008 C 0.63192 0.87075 0.81089 0.0
C2009 C 0.62831 0.87677 0.86227 0.0
C2010 C 0.65246 0.88794 0.8129 0.0
C2011 C 0.63711 0.88832 0.88855 0.0
C2012 C 0.67363 0.906 0.81198 0.0
C2013 C 0.67998 0.89493 0.69974 0.0
N2014 N 0.64877 0.89354 0.86338 0.0
N2015 N 0.66864 0.88918 0.73031 0.0
H2016 H 0.07112 0.77428 0.82952 0.0
H2017 H 0.10879 0.74007 0.8327 0.0
H2018 H 0.08999 0.77255 0.63093 0.0
H2019 H 0.10669 0.75896 0.02999 0.0
H2020 H 0.09927 0.74926 0.7577 0.0
H2021 H 0.08147 0.76594 0.90485 0.0
C2022 C 0.0774 0.77209 0.80181 0.0
C2023 C 0.07971 0.77405 0.72402 0.0
C2024 C 0.10094 0.75142 0.81734 0.0
C2025 C 0.09142 0.76449 0.80929 0.0
C2026 C 0.10629 0.74614 0.86015 0.0
C2027 C 0.10847 0.74876 0.93749 0.0
C2028 C 0.09752 0.75915 0.85261 0.0
C2029 C 0.10519 0.75676 0.97035 0.0
C2030 C 0.08334 0.76743 0.84482 0.0
C2031 C 0.08801 0.77119 0.69086 0.0
N2032 N 0.09974 0.7616 0.9278 0.0
N2033 N 0.0935 0.76643 0.73363 0.0
H2034 H 0.22643 0.30545 0.7314 0.0
H2035 H 0.22161 0.35011 0.03069 0.0
H2036 H 0.19534 0.29482 0.87686 0.0
H2037 H 0.25215 0.36102 0.87987 0.0
H2038 H 0.21143 0.33006 0.97115 0.0
H2039 H 0.23563 0.3261 0.78166 0.0
C2040 C 0.22152 0.30746 0.77379 0.0
C2041 C 0.21012 0.29838 0.80027 0.0
C2042 C 0.22034 0.33686 0.95086 0.0
C2043 C 0.22062 0.322 0.85809 0.0
C2044 C 0.22616 0.34832 0.98481 0.0
C2045 C 0.23779 0.35723 0.96061 0.0
C2046 C 0.22621 0.33428 0.8924 0.0
C2047 C 0.24322 0.3544 0.9007 0.0
C2048 C 0.22678 0.31926 0.80241 0.0
C2049 C 0.20416 0.30152 0.85497 0.0
N2050 N 0.2374 0.34315 0.86892 0.0
N2051 N 0.2095 0.31307 0.88232 0.0
H2052 H 0.01374 0.43253 0.33593 0.0
H2053 H 0.97356 0.43806 0.66544 0.0
H2054 H 0.02721 0.4633 0.48743 0.0
H2055 H 0.9614 0.40658 0.52136 0.0
H2056 H 0.9927 0.44826 0.59481 0.0
H2057 H 0.99389 0.42374 0.39679 0.0
C2058 C 0.01251 0.43748 0.38177 0.0
C2059 C 0.02217 0.44864 0.40697 0.0
C2060 C 0.98581 0.43913 0.57855 0.0
C2061 C -0.00056 0.43858 0.47721 0.0
C2062 C 0.97488 0.43331 0.61881 0.0
C2063 C 0.9659 0.42142 0.59962 0.0
C2064 C 0.98774 0.43302 0.51866 0.0
C2065 C 0.9681 0.41571 0.53854 0.0
C2066 C 0.00116 0.43244 0.41657 0.0
C2067 C 0.02001 0.45467 0.46631 0.0
N2068 N 0.9788 0.42155 0.50044 0.0
N2069 N 0.00888 0.44952 0.49977 0.0
H2070 H 0.5869 0.55829 0.52734 0.0
H2071 H 0.52727 0.56467 0.53545 0.0
H2072 H 0.55624 0.53747 0.67536 0.0
H2073 H 0.55819 0.58591 0.39006 0.0
H2074 H 0.53729 0.55381 0.58262 0.0
H2075 H 0.57601 0.56766 0.47102 0.0
C2076 C 0.57786 0.55565 0.5478 0.0
C2077 C 0.57251 0.54716 0.60654 0.0
C2078 C 0.54186 0.56082 0.5402 0.0
C2079 C 0.56001 0.55786 0.54248 0.0
C2080 C 0.53615 0.56702 0.51323 0.0
C2081 C 0.54192 0.57624 0.45894 0.0
C2082 C 0.55344 0.56386 0.5127 0.0
C2083 C 0.55342 0.5789 0.43216 0.0
C2084 C 0.57165 0.56101 0.51563 0.0
C2085 C 0.56074 0.54402 0.63046 0.0
N2086 N 0.55881 0.57276 0.45949 0.0
N2087 N 0.55491 0.54942 0.59857 0.0
H2088 H 0.4005 0.96396 0.48786 0.0
H2089 H 0.45971 0.03035 0.47872 0.0
H2090 H 0.43202 0.9738 0.34794 0.0
H2091 H 0.42808 0.02108 0.6162 0.0
H2092 H 0.45 0.00932 0.43487 0.0
H2093 H 0.41083 0.98451 0.54105 0.0
C2094 C 0.40961 0.97042 0.46859 0.0
C2095 C 0.41538 0.9672 0.41297 0.0
C2096 C 0.44519 0.01188 0.47476 0.0
C2097 C 0.42721 0.99069 0.47334 0.0
C2098 C 0.45073 0.02389 0.49979 0.0
C2099 C 0.44468 0.02748 0.55097 0.0
C2100 C 0.43351 0.00339 0.50103 0.0
C2101 C 0.43306 0.01871 0.57649 0.0
C2102 C 0.41549 0.98215 0.4989 0.0
C2103 C 0.4272 0.9759 0.39035 0.0
N2104 N 0.42784 0.00707 0.55108 0.0
N2105 N 0.43269 0.98726 0.42039 0.0
H2106 H 0.55367 0.96072 0.52116 0.0
H2107 H 0.58387 0.03257 0.53607 0.0
H2108 H 0.55246 0.98161 0.33206 0.0
H2109 H 0.57031 0.01026 0.73646 0.0
H2110 H 0.57478 0.01415 0.45859 0.0
H2111 H 0.56221 0.97904 0.5996 0.0
C2112 C 0.55526 0.96917 0.49607 0.0
C2113 C 0.55241 0.96969 0.41999 0.0
C2114 C 0.57377 0.0133 0.51949 0.0
C2115 C 0.56217 0.99061 0.50913 0.0
C2116 C 0.579 0.02378 0.56377 0.0
C2117 C 0.57784 0.0229 0.64278 0.0
C2118 C 0.56752 0.00187 0.55456 0.0
C2119 C 0.57136 0.01131 0.67568 0.0
C2120 C 0.56004 0.97959 0.54098 0.0
C2121 C 0.55451 0.98084 0.39054 0.0
N2122 N 0.56651 0.0012 0.63136 0.0
N2123 N 0.55937 0.99091 0.43509 0.0
H2124 H 0.01258 0.56672 0.299 0.0
H2125 H 0.97895 0.54959 0.697 0.0
H2126 H 0.03149 0.58291 0.50751 0.0
H2127 H 0.96111 0.55132 0.49336 0.0
H2128 H -0.00187 0.5578 0.62658 0.0
H2129 H 0.99325 0.55688 0.36881 0.0
C2130 C 0.01266 0.5681 0.35952 0.0
C2131 C 0.02358 0.57566 0.39771 0.0
C2132 C 0.98999 0.55634 0.59751 0.0
C2133 C 0.00169 0.5644 0.4773 0.0
C2134 C 0.97907 0.55162 0.63738 0.0
C2135 C 0.96851 0.54987 0.60083 0.0
C2136 C 0.99022 0.55904 0.52039 0.0
C2137 C 0.96911 0.55267 0.52364 0.0
C2138 C 0.00166 0.56256 0.39904 0.0
C2139 C 0.02322 0.57722 0.47602 0.0
N2140 N 0.97981 0.55707 0.4857 0.0
N2141 N 0.01243 0.57158 0.51344 0.0
H2142 H 0.42335 0.43833 0.27337 0.0
H2143 H 0.44365 0.42801 0.68005 0.0
H2144 H 0.40898 0.44427 0.48028 0.0
H2145 H 0.44232 0.407 0.48459 0.0
H2146 H 0.43454 0.43762 0.6044 0.0
H2147 H 0.43404 0.43026 0.34787 0.0
C2148 C 0.42251 0.43799 0.33443 0.0
C2149 C 0.41523 0.44187 0.37084 0.0
C2150 C 0.43629 0.43092 0.57827 0.0
C2151 C 0.42748 0.43285 0.45582 0.0
C2152 C 0.44152 0.4255 0.62114 0.0
C2153 C 0.44363 0.41666 0.58847 0.0
C2154 C 0.43342 0.42764 0.50206 0.0
C2155 C 0.44069 0.41368 0.51201 0.0
C2156 C 0.42856 0.43336 0.37672 0.0
C2157 C 0.41441 0.44124 0.45004 0.0
N2158 N 0.43577 0.4192 0.47119 0.0
N2159 N 0.42052 0.43685 0.49003 0.0
H2160 H 0.1067 0.36397 0.37841 0.0
H2161 H 0.11882 0.41375 0.69673 0.0
H2162 H 0.11582 0.40087 0.32825 0.0
H2163 H 0.11391 0.37819 0.74507 0.0
H2164 H 0.11684 0.40893 0.56196 0.0
H2165 H 0.10833 0.36871 0.51339 0.0
C2166 C 0.10902 0.37306 0.39577 0.0
C2167 C 0.11115 0.38203 0.34179 0.0
C2168 C 0.11617 0.40217 0.60214 0.0
C2169 C 0.11307 0.38756 0.49646 0.0
C2170 C 0.11734 0.40494 0.67928 0.0
C2171 C 0.11653 0.39638 0.73287 0.0
C2172 C 0.11416 0.39076 0.57809 0.0
C2173 C 0.11442 0.38503 0.70636 0.0
C2174 C 0.11 0.37578 0.47287 0.0
C2175 C 0.11427 0.39371 0.36767 0.0
N2176 N 0.11333 0.38257 0.63102 0.0
N2177 N 0.1151 0.39612 0.44308 0.0
H2178 H 0.58624 0.71223 0.31287 0.0
H2179 H 0.61189 0.72904 0.73531 0.0
H2180 H 0.62432 0.73503 0.36687 0.0
H2181 H 0.5738 0.70597 0.68192 0.0
H2182 H 0.61666 0.73081 0.60088 0.0
H2183 H 0.58153 0.70958 0.44764 0.0
C2184 C 0.59361 0.71677 0.35295 0.0
C2185 C 0.60571 0.72395 0.32836 0.0
C2186 C 0.60726 0.72532 0.61853 0.0
C2187 C 0.60037 0.72079 0.48315 0.0
C2188 C 0.60452 0.72423 0.69553 0.0
C2189 C 0.5924 0.71733 0.72029 0.0
C2190 C 0.59782 0.71949 0.56556 0.0
C2191 C 0.58325 0.7115 0.66555 0.0
C2192 C 0.59092 0.71516 0.43006 0.0
C2193 C 0.6149 0.72935 0.38324 0.0
N2194 N 0.58614 0.71273 0.59081 0.0
N2195 N 0.61204 0.72769 0.458 0.0
H2196 H 0.25891 0.88977 0.33896 0.0
H2197 H 0.28524 0.86434 0.65794 0.0
H2198 H 0.27869 0.87107 0.29021 0.0
H2199 H 0.26354 0.88104 0.70661 0.0
H2200 H 0.28352 0.86734 0.52313 0.0
H2201 H 0.26116 0.88735 0.47412 0.0
C2202 C 0.26376 0.88519 0.35666 0.0
C2203 C 0.26858 0.88059 0.30304 0.0
C2204 C 0.27915 0.87037 0.56333 0.0
C2205 C 0.27115 0.87772 0.45778 0.0
C2206 C 0.28009 0.86862 0.64041 0.0
C2207 C 0.27451 0.87241 0.694 0.0
C2208 C 0.27257 0.87596 0.53937 0.0
C2209 C 0.26813 0.87809 0.66771 0.0
C2210 C 0.265 0.88376 0.43385 0.0
C2211 C 0.27465 0.87459 0.3293 0.0
N2212 N 0.26731 0.87966 0.59233 0.0
N2213 N 0.27578 0.87335 0.40474 0.0
H2214 H 0.38358 0.10414 0.29054 0.0
H2215 H 0.40048 0.13537 0.69983 0.0
H2216 H 0.4144 0.13979 0.33398 0.0
H2217 H 0.37128 0.09863 0.66039 0.0
H2218 H 0.40554 0.13722 0.56551 0.0
H2219 H 0.37865 0.10204 0.42541 0.0
C2220 C 0.3893 0.11153 0.32832 0.0
C2221 C 0.39943 0.12215 0.3007 0.0
C2222 C 0.39803 0.12875 0.58627 0.0
C2223 C 0.39387 0.1198 0.4553 0.0
C2224 C 0.39516 0.12766 0.66313 0.0
C2225 C 0.38544 0.11682 0.69183 0.0
C2226 C 0.39111 0.11893 0.5374 0.0
C2227 C 0.37875 0.10722 0.64102 0.0
C2228 C 0.38652 0.1103 0.40541 0.0
C2229 C 0.40661 0.13137 0.35261 0.0
N2230 N 0.38171 0.1085 0.56639 0.0
N2231 N 0.40367 0.12999 0.42723 0.0
H2232 H 0.8617 0.26887 0.72972 0.0
H2233 H 0.89089 0.28117 0.3153 0.0
H2234 H 0.89854 0.2771 0.68564 0.0
H2235 H 0.85608 0.27796 0.36457 0.0
H2236 H 0.89358 0.27888 0.45001 0.0
H2237 H 0.8592 0.2714 0.59543 0.0
C2238 C 0.8693 0.27126 0.69209 0.0
C2239 C 0.88037 0.2728 0.71957 0.0
C2240 C 0.88537 0.27872 0.43135 0.0
C2241 C 0.8775 0.27558 0.565 0.0
C2242 C 0.8838 0.27997 0.35434 0.0
C2243 C 0.87323 0.27976 0.32845 0.0
C2244 C 0.87627 0.27716 0.48291 0.0
C2245 C 0.86443 0.27834 0.38197 0.0
C2246 C 0.86784 0.27266 0.61519 0.0
C2247 C 0.88979 0.27567 0.66735 0.0
N2248 N 0.86612 0.27705 0.45652 0.0
N2249 N 0.88814 0.27697 0.59271 0.0
H2250 H 0.71968 0.57746 0.33189 0.0
H2251 H 0.72037 0.6212 0.66017 0.0
H2252 H 0.71473 0.60826 0.29114 0.0
H2253 H 0.72801 0.59204 0.69701 0.0
H2254 H 0.71777 0.61634 0.52564 0.0
H2255 H 0.72197 0.58223 0.46643 0.0
C2256 C 0.71897 0.58517 0.35117 0.0
C2257 C 0.71696 0.59244 0.29986 0.0
C2258 C 0.72002 0.61101 0.56316 0.0
C2259 C 0.71975 0.59807 0.45441 0.0
C2260 C 0.72158 0.61382 0.64014 0.0
C2261 C 0.72444 0.60704 0.69041 0.0
C2262 C 0.72131 0.60132 0.53593 0.0
C2263 C 0.72567 0.59743 0.6608 0.0
C2264 C 0.72037 0.58795 0.42814 0.0
C2265 C 0.71637 0.60247 0.32839 0.0
N2266 N 0.7241 0.59487 0.58563 0.0
N2267 N 0.71775 0.60497 0.40373 0.0
H2268 H 0.88132 0.62595 0.66437 0.0
H2269 H 0.86563 0.57536 0.34563 0.0
H2270 H 0.86997 0.58843 0.71361 0.0
H2271 H 0.87571 0.6126 0.29704 0.0
H2272 H 0.86776 0.5801 0.48054 0.0
H2273 H 0.87997 0.62138 0.52938 0.0
C2274 C 0.87858 0.61676 0.64682 0.0
C2275 C 0.87573 0.60757 0.70055 0.0
C2276 C 0.86954 0.58724 0.44033 0.0
C2277 C 0.87408 0.60222 0.54588 0.0
C2278 C 0.86828 0.58453 0.36322 0.0
C2279 C 0.87045 0.59357 0.30965 0.0
C2280 C 0.87299 0.59909 0.4643 0.0
C2281 C 0.87407 0.60536 0.33594 0.0
C2282 C 0.87776 0.61414 0.5697 0.0
C2283 C 0.87207 0.59577 0.67444 0.0
N2284 N 0.87518 0.60775 0.41134 0.0
N2285 N 0.87137 0.59345 0.599 0.0
H2286 H 0.41924 0.27493 0.35932 0.0
H2287 H 0.37541 0.27399 0.68799 0.0
H2288 H 0.38841 0.27983 0.31894 0.0
H2289 H 0.40463 0.26641 0.72448 0.0
H2290 H 0.38029 0.27665 0.55348 0.0
H2291 H 0.41445 0.27256 0.49386 0.0
C2292 C 0.41152 0.27562 0.37869 0.0
C2293 C 0.40425 0.27763 0.32746 0.0
C2294 C 0.38563 0.2744 0.59092 0.0
C2295 C 0.3986 0.27476 0.48203 0.0
C2296 C 0.38281 0.2728 0.6679 0.0
C2297 C 0.3896 0.26993 0.71807 0.0
C2298 C 0.39534 0.27315 0.56358 0.0
C2299 C 0.39923 0.26875 0.68835 0.0
C2300 C 0.40873 0.27417 0.45566 0.0
C2301 C 0.3942 0.27818 0.35611 0.0
N2302 N 0.4018 0.27036 0.61317 0.0
N2303 N 0.39169 0.27677 0.43145 0.0
H2304 H 0.71582 0.10747 0.24685 0.0
H2305 H 0.73231 0.13751 0.65932 0.0
H2306 H 0.72578 0.14472 0.29385 0.0
H2307 H 0.72074 0.09973 0.61705 0.0
H2308 H 0.72996 0.14022 0.52521 0.0
H2309 H 0.71767 0.10439 0.38164 0.0
C2310 C 0.71841 0.11501 0.28535 0.0
C2311 C 0.72064 0.12638 0.2587 0.0
C2312 C 0.72792 0.13133 0.54519 0.0
C2313 C 0.72272 0.12289 0.41328 0.0
C2314 C 0.72919 0.12975 0.62201 0.0
C2315 C 0.72667 0.11835 0.6499 0.0
C2316 C 0.7241 0.12145 0.49541 0.0
C2317 C 0.72291 0.10871 0.59824 0.0
C2318 C 0.71942 0.11322 0.3624 0.0
C2319 C 0.72381 0.13576 0.3116 0.0
N2320 N 0.72173 0.11047 0.52353 0.0
N2321 N 0.72478 0.13381 0.38615 0.0
H2322 H 0.58791 0.85798 0.2714 0.0
H2323 H 0.60517 0.88735 0.6851 0.0
H2324 H 0.61692 0.89467 0.315 0.0
H2325 H 0.57308 0.85286 0.63657 0.0
H2326 H 0.61015 0.88987 0.55041 0.0
H2327 H 0.58283 0.85562 0.40567 0.0
C2328 C 0.59319 0.86557 0.3089 0.0
C2329 C 0.60285 0.87656 0.28128 0.0
C2330 C 0.60199 0.88177 0.56921 0.0
C2331 C 0.59715 0.87385 0.43579 0.0
C2332 C 0.59918 0.8803 0.64621 0.0
C2333 C 0.58869 0.86987 0.67231 0.0
C2334 C 0.59432 0.87271 0.51784 0.0
C2335 C 0.58117 0.86111 0.61898 0.0
C2336 C 0.59031 0.86419 0.38578 0.0
C2337 C 0.6095 0.88598 0.33335 0.0
N2338 N 0.58416 0.8627 0.5444 0.0
N2339 N 0.60652 0.8844 0.40795 0.0
H2340 H 0.10479 0.73466 0.35408 0.0
H2341 H 0.12895 0.70692 0.67219 0.0
H2342 H 0.12262 0.71407 0.30434 0.0
H2343 H 0.11258 0.7289 0.72154 0.0
H2344 H 0.12617 0.70893 0.53735 0.0
H2345 H 0.10697 0.73208 0.48909 0.0
C2346 C 0.10913 0.72956 0.37151 0.0
C2347 C 0.11356 0.72461 0.3176 0.0
C2348 C 0.12316 0.71328 0.57772 0.0
C2349 C 0.11614 0.72167 0.47233 0.0
C2350 C 0.12479 0.71218 0.65483 0.0
C2351 C 0.12103 0.71777 0.70867 0.0
C2352 C 0.11774 0.72004 0.55394 0.0
C2353 C 0.1155 0.7243 0.68252 0.0
C2354 C 0.11042 0.72814 0.44865 0.0
C2355 C 0.11924 0.71822 0.3436 0.0
N2356 N 0.11406 0.72529 0.60714 0.0
N2357 N 0.12035 0.71692 0.41903 0.0
H2358 H 0.25921 0.3802 0.73652 0.0
H2359 H 0.27828 0.40566 0.31509 0.0
H2360 H 0.28402 0.41799 0.68403 0.0
H2361 H 0.25335 0.36793 0.36803 0.0
H2362 H 0.28093 0.41027 0.44996 0.0
H2363 H 0.25762 0.37542 0.60211 0.0
C2364 C 0.26443 0.38749 0.69692 0.0
C2365 C 0.27177 0.39954 0.72184 0.0
C2366 C 0.27489 0.40098 0.43212 0.0
C2367 C 0.26983 0.39412 0.56729 0.0
C2368 C 0.27329 0.39835 0.35497 0.0
C2369 C 0.26549 0.38639 0.33007 0.0
C2370 C 0.26863 0.3916 0.48491 0.0
C2371 C 0.25951 0.37725 0.38466 0.0
C2372 C 0.26345 0.38475 0.61996 0.0
C2373 C 0.27814 0.40861 0.66743 0.0
N2374 N 0.26117 0.38005 0.45947 0.0
N2375 N 0.277 0.40572 0.59275 0.0
H2376 H 0.77939 0.71418 0.04375 0.0
H2377 H 0.78636 0.73986 0.62237 0.0
H2378 H 0.79253 0.752 0.99154 0.0
H2379 H 0.77096 0.70173 0.67508 0.0
H2380 H 0.78888 0.7445 0.75731 0.0
H2381 H 0.77608 0.70941 0.90924 0.0
C2382 C 0.78145 0.72148 0.00422 0.0
C2383 C 0.78624 0.73353 0.02932 0.0
C2384 C 0.78494 0.73511 0.73941 0.0
C2385 C 0.78266 0.72813 0.87463 0.0
C2386 C 0.78359 0.73246 0.66224 0.0
C2387 C 0.77848 0.72038 0.63722 0.0
C2388 C 0.78121 0.72562 0.79217 0.0
C2389 C 0.77483 0.71115 0.69176 0.0
C2390 C 0.77964 0.71875 0.92722 0.0
C2391 C 0.78897 0.74262 0.97495 0.0
N2392 N 0.77629 0.71397 0.76661 0.0
N2393 N 0.78716 0.73974 0.90025 0.0
H2394 H 0.23731 0.04027 0.9778 0.0
H2395 H 0.28893 0.06723 0.65762 0.0
H2396 H 0.27544 0.0645 0.02458 0.0
H2397 H 0.25045 0.04658 0.60926 0.0
H2398 H 0.28426 0.06541 0.79277 0.0
H2399 H 0.24203 0.04163 0.84313 0.0
C2400 C 0.24667 0.04589 0.96 0.0
C2401 C 0.25598 0.05229 0.01311 0.0
C2402 C 0.27684 0.06129 0.75259 0.0
C2403 C 0.26147 0.0538 0.8584 0.0
C2404 C 0.2795 0.06227 0.67538 0.0
C2405 C 0.27008 0.05707 0.62185 0.0
C2406 C 0.26464 0.05499 0.77671 0.0
C2407 C 0.25801 0.05088 0.64829 0.0
C2408 C 0.24937 0.04663 0.88291 0.0
C2409 C 0.26798 0.05927 0.98621 0.0
N2410 N 0.25565 0.04999 0.72377 0.0
N2411 N 0.27036 0.05985 0.91087 0.0
H2412 H 0.93702 0.22901 0.67913 0.0
H2413 H 0.935 0.18437 0.00593 0.0
H2414 H 0.92809 0.19183 0.64105 0.0
H2415 H 0.94194 0.22081 0.04841 0.0
H2416 H 0.93317 0.18729 0.87148 0.0
H2417 H 0.93931 0.22643 0.81386 0.0
C2418 C 0.93548 0.22028 0.69894 0.0
C2419 C 0.93235 0.21062 0.64831 0.0
C2420 C 0.93511 0.19466 0.91012 0.0
C2421 C 0.9351 0.20765 0.8028 0.0
C2422 C 0.93625 0.19304 0.98707 0.0
C2423 C 0.93867 0.20238 0.03888 0.0
C2424 C 0.93641 0.20572 0.88432 0.0
C2425 C 0.93995 0.21332 0.0108 0.0
C2426 C 0.93686 0.21884 0.77597 0.0
C2427 C 0.93067 0.19958 0.67754 0.0
N2428 N 0.93881 0.21469 0.93545 0.0
N2429 N 0.93205 0.19841 0.75271 0.0
H2430 H 0.07684 0.45398 0.62261 0.0
H2431 H 0.02697 0.44151 0.94114 0.0
H2432 H 0.04119 0.44884 0.57444 0.0
H2433 H 0.06394 0.45087 0.99114 0.0
H2434 H 0.03171 0.44317 0.80614 0.0
H2435 H 0.07201 0.45195 0.75739 0.0
C2436 C 0.06801 0.45243 0.6401 0.0
C2437 C 0.05943 0.45158 0.58654 0.0
C2438 C 0.0388 0.44489 0.84663 0.0
C2439 C 0.0538 0.44915 0.74135 0.0
C2440 C 0.03608 0.44389 0.92375 0.0
C2441 C 0.04507 0.44607 0.97768 0.0
C2442 C 0.0506 0.44803 0.82299 0.0
C2443 C 0.05677 0.44927 0.95176 0.0
C2444 C 0.06524 0.45124 0.71724 0.0
C2445 C 0.04805 0.44939 0.61311 0.0
N2446 N 0.05918 0.45011 0.87634 0.0
N2447 N 0.04559 0.44827 0.68847 0.0
H2448 H 0.54259 0.59618 0.63039 0.0
H2449 H 0.53369 0.61343 0.05201 0.0
H2450 H 0.52567 0.61754 0.68316 0.0
H2451 H 0.5514 0.59281 0.99957 0.0
H2452 H 0.53083 0.61516 0.91712 0.0
H2453 H 0.54636 0.59527 0.76491 0.0
C2454 C 0.53978 0.6008 0.67005 0.0
C2455 C 0.5338 0.60696 0.64513 0.0
C2456 C 0.53535 0.61026 0.93506 0.0
C2457 C 0.53792 0.60577 0.79981 0.0
C2458 C 0.53692 0.60919 0.01225 0.0
C2459 C 0.54275 0.6029 0.03743 0.0
C2460 C 0.53963 0.60499 0.88233 0.0
C2461 C 0.54696 0.59782 0.98288 0.0
C2462 C 0.54186 0.6002 0.74706 0.0
C2463 C 0.53017 0.61257 0.69964 0.0
N2464 N 0.54528 0.59895 0.90799 0.0
N2465 N 0.53227 0.61182 0.7743 0.0
H2466 H 0.4018 0.95648 0.00554 0.0
H2467 H 0.36908 0.90531 0.68698 0.0
H2468 H 0.37734 0.91852 0.05528 0.0
H2469 H 0.39436 0.94313 0.63847 0.0
H2470 H 0.37145 0.91004 0.82197 0.0
H2471 H 0.39863 0.95184 0.87067 0.0
C2472 C 0.39572 0.94717 0.98813 0.0
C2473 C 0.38985 0.93788 0.04198 0.0
C2474 C 0.37645 0.91731 0.78175 0.0
C2475 C 0.38623 0.93247 0.88735 0.0
C2476 C 0.37513 0.91461 0.7046 0.0
C2477 C 0.38155 0.92382 0.65104 0.0
C2478 C 0.38427 0.92932 0.80574 0.0
C2479 C 0.38911 0.93575 0.67736 0.0
C2480 C 0.39395 0.94452 0.91105 0.0
C2481 C 0.38221 0.92595 0.016 0.0
N2482 N 0.39029 0.93813 0.75277 0.0
N2483 N 0.38061 0.92359 0.94056 0.0
H2484 H 0.51952 0.91272 0.67734 0.0
H2485 H 0.56605 0.95258 0.00506 0.0
H2486 H 0.55719 0.93943 0.63607 0.0
H2487 H 0.52779 0.92755 0.04229 0.0
H2488 H 0.56315 0.94763 0.87058 0.0
H2489 H 0.52262 0.91756 0.81169 0.0
C2490 C 0.52849 0.91953 0.6964 0.0
C2491 C 0.53812 0.92564 0.64486 0.0
C2492 C 0.55539 0.94322 0.90819 0.0
C2493 C 0.5417 0.93136 0.79948 0.0
C2494 C 0.55702 0.9461 0.98517 0.0
C2495 C 0.54715 0.94049 0.03562 0.0
C2496 C 0.5438 0.93465 0.88106 0.0
C2497 C 0.5357 0.932 0.00606 0.0
C2498 C 0.53023 0.92236 0.77334 0.0
C2499 C 0.54947 0.93456 0.67335 0.0
N2500 N 0.53436 0.92935 0.93091 0.0
N2501 N 0.55094 0.93714 0.74864 0.0
H2502 H 0.03416 0.59287 0.99632 0.0
H2503 H 0.08577 0.61815 0.6761 0.0
H2504 H 0.07271 0.61295 0.04354 0.0
H2505 H 0.04734 0.5963 0.62838 0.0
H2506 H 0.08109 0.61697 0.81073 0.0
H2507 H 0.03872 0.5948 0.86096 0.0
C2508 C 0.04358 0.59773 0.97825 0.0
C2509 C 0.05305 0.60269 0.03151 0.0
C2510 C 0.07368 0.61245 0.77079 0.0
C2511 C 0.05836 0.60488 0.87661 0.0
C2512 C 0.07635 0.61307 0.69381 0.0
C2513 C 0.06695 0.60728 0.64056 0.0
C2514 C 0.0615 0.60598 0.79501 0.0
C2515 C 0.05488 0.60102 0.66705 0.0
C2516 C 0.04618 0.59878 0.90097 0.0
C2517 C 0.0651 0.60878 0.00479 0.0
N2518 N 0.05251 0.60051 0.74236 0.0
N2519 N 0.0674 0.6097 0.9293 0.0
H2520 H 0.39943 0.46594 0.01802 0.0
H2521 H 0.37882 0.43705 0.605 0.0
H2522 H 0.37935 0.42722 0.97579 0.0
H2523 H 0.39464 0.47539 0.65278 0.0
H2524 H 0.37987 0.43328 0.73962 0.0
H2525 H 0.3986 0.46959 0.88341 0.0
C2526 C 0.39479 0.45819 0.98064 0.0
C2527 C 0.38939 0.44624 0.00867 0.0
C2528 C 0.38309 0.44252 0.72063 0.0
C2529 C 0.38855 0.45038 0.85383 0.0
C2530 C 0.38256 0.44468 0.64372 0.0
C2531 C 0.38664 0.45656 0.6175 0.0
C2532 C 0.38782 0.45231 0.77173 0.0
C2533 C 0.39124 0.46608 0.67048 0.0
C2534 C 0.39437 0.46029 0.90359 0.0
C2535 C 0.38374 0.43658 0.95692 0.0
N2536 N 0.39173 0.46375 0.74498 0.0
N2537 N 0.38345 0.43886 0.88206 0.0
H2538 H 0.27585 0.22647 0.05193 0.0
H2539 H 0.26084 0.19698 0.63793 0.0
H2540 H 0.24594 0.1905 0.00318 0.0
H2541 H 0.28768 0.23454 0.68173 0.0
H2542 H 0.2557 0.19426 0.77209 0.0
H2543 H 0.2808 0.22941 0.9172 0.0
C2544 C 0.27032 0.21918 0.01301 0.0
C2545 C 0.26046 0.20821 0.03912 0.0
C2546 C 0.26272 0.2031 0.7523 0.0
C2547 C 0.26607 0.21153 0.88452 0.0
C2548 C 0.26563 0.20469 0.67545 0.0
C2549 C 0.27471 0.21603 0.6479 0.0
C2550 C 0.26893 0.21291 0.80241 0.0
C2551 C 0.28074 0.22559 0.70004 0.0
C2552 C 0.27312 0.22089 0.93596 0.0
C2553 C 0.25353 0.19916 0.98568 0.0
N2554 N 0.27774 0.22381 0.77463 0.0
N2555 N 0.25649 0.201 0.91109 0.0
H2556 H 0.76656 0.04942 0.03852 0.0
H2557 H 0.79603 0.06133 0.62487 0.0
H2558 H 0.80089 0.05148 0.98996 0.0
H2559 H 0.75967 0.05461 0.66847 0.0
H2560 H 0.79823 0.05842 0.75905 0.0
H2561 H 0.76413 0.05201 0.90386 0.0
C2562 C 0.77359 0.05042 0.99966 0.0
C2563 C 0.78395 0.05023 0.02579 0.0
C2564 C 0.78977 0.05758 0.73921 0.0
C2565 C 0.78122 0.05318 0.87129 0.0
C2566 C 0.78848 0.0592 0.66236 0.0
C2567 C 0.77763 0.05819 0.63475 0.0
C2568 C 0.78016 0.05497 0.78923 0.0
C2569 C 0.76826 0.05563 0.68682 0.0
C2570 C 0.77218 0.05185 0.92266 0.0
C2571 C 0.79269 0.05142 0.97243 0.0
N2572 N 0.76974 0.0541 0.7614 0.0
N2573 N 0.79115 0.05289 0.89788 0.0
H2574 H 0.95121 0.7539 0.99044 0.0
H2575 H 0.92207 0.70246 0.67025 0.0
H2576 H 0.92598 0.71601 0.03767 0.0
H2577 H 0.9445 0.7408 0.62221 0.0
H2578 H 0.92417 0.7071 0.80541 0.0
H2579 H 0.9496 0.74914 0.85577 0.0
C2580 C 0.94532 0.74458 0.97269 0.0
C2581 C 0.9387 0.73536 0.02588 0.0
C2582 C 0.92863 0.7145 0.76531 0.0
C2583 C 0.93689 0.72982 0.87122 0.0
C2584 C 0.92748 0.71185 0.68807 0.0
C2585 C 0.9331 0.72125 0.63462 0.0
C2586 C 0.93551 0.72665 0.78952 0.0
C2587 C 0.93986 0.73328 0.66116 0.0
C2588 C 0.94443 0.74186 0.89563 0.0
C2589 C 0.93137 0.72341 0.99914 0.0
N2590 N 0.9409 0.73562 0.73666 0.0
N2591 N 0.93064 0.721 0.92379 0.0
H2592 H 0.43489 0.05324 0.37621 0.0
H2593 H 0.46402 0.06633 0.9609 0.0
H2594 H 0.47214 0.08029 0.32654 0.0
H2595 H 0.42604 0.04111 0.0058 0.0
H2596 H 0.46716 0.07128 0.09516 0.0
H2597 H 0.43148 0.04834 0.24148 0.0
C2598 C 0.44236 0.05815 0.33717 0.0
C2599 C 0.45383 0.06722 0.36307 0.0
C2600 C 0.45813 0.06466 0.07569 0.0
C2601 C 0.44996 0.06166 0.20845 0.0
C2602 C 0.45631 0.06186 0.99876 0.0
C2603 C 0.44473 0.0533 0.97151 0.0
C2604 C 0.44831 0.05886 0.12622 0.0
C2605 C 0.43516 0.04766 0.024 0.0
C2606 C 0.44039 0.05537 0.26011 0.0
C2607 C 0.46311 0.07336 0.30938 0.0
N2608 N 0.43716 0.05054 0.09872 0.0
N2609 N 0.46098 0.07045 0.23486 0.0
H2610 H 0.9435 0.40011 0.3908 0.0
H2611 H 0.91872 0.38171 0.96731 0.0
H2612 H 0.90644 0.37309 0.33656 0.0
H2613 H 0.95572 0.40872 0.02253 0.0
H2614 H 0.91408 0.37823 0.10203 0.0
H2615 H 0.94827 0.40288 0.25628 0.0
C2616 C 0.93638 0.39464 0.3508 0.0
C2617 C 0.92452 0.38633 0.37536 0.0
C2618 C 0.92322 0.38493 0.08471 0.0
C2619 C 0.92991 0.38964 0.22053 0.0
C2620 C 0.92585 0.387 0.00764 0.0
C2621 C 0.93763 0.3956 0.9834 0.0
C2622 C 0.93241 0.39149 0.1381 0.0
C2623 C 0.94656 0.40195 0.03859 0.0
C2624 C 0.9391 0.39631 0.27374 0.0
C2625 C 0.91565 0.3797 0.32035 0.0
N2626 N 0.94376 0.39979 0.11326 0.0
N2627 N 0.91852 0.38151 0.24559 0.0
H2628 H 0.58596 0.55058 0.01554 0.0
H2629 H 0.62086 0.53489 0.33409 0.0
H2630 H 0.61197 0.53905 0.96606 0.0
H2631 H 0.59386 0.54515 0.38282 0.0
H2632 H 0.6182 0.53694 0.19915 0.0
H2633 H 0.58922 0.54926 0.15049 0.0
C2634 C 0.59238 0.54781 0.03303 0.0
C2635 C 0.59867 0.5449 0.97924 0.0
C2636 C 0.61288 0.53878 0.2394 0.0
C2637 C 0.60242 0.5433 0.13389 0.0
C2638 C 0.61437 0.53757 0.31652 0.0
C2639 C 0.60756 0.53981 0.37014 0.0
C2640 C 0.6045 0.54225 0.21547 0.0
C2641 C 0.59942 0.54346 0.34388 0.0
C2642 C 0.59421 0.54701 0.11014 0.0
C2643 C 0.60678 0.5412 0.00529 0.0
N2644 N 0.59809 0.54452 0.26847 0.0
N2645 N 0.60842 0.54052 0.08072 0.0
H2646 H 0.69932 0.77478 0.32295 0.0
H2647 H 0.75093 0.79488 0.00509 0.0
H2648 H 0.73749 0.78982 0.37307 0.0
H2649 H 0.71295 0.78131 0.95561 0.0
H2650 H 0.74613 0.79256 0.13997 0.0
H2651 H 0.70407 0.77652 0.18801 0.0
C2652 C 0.7087 0.77842 0.30563 0.0
C2653 C 0.71801 0.78218 0.35964 0.0
C2654 C 0.73884 0.79006 0.09956 0.0
C2655 C 0.72355 0.78427 0.20493 0.0
C2656 C 0.74159 0.79142 0.02242 0.0
C2657 C 0.73236 0.78832 0.96851 0.0
C2658 C 0.72677 0.78556 0.1233 0.0
C2659 C 0.72037 0.78369 0.99465 0.0
C2660 C 0.71141 0.77946 0.22851 0.0
C2661 C 0.73003 0.78698 0.33373 0.0
N2662 N 0.71794 0.7825 0.07005 0.0
N2663 N 0.73244 0.78786 0.25832 0.0
H2664 H 0.20112 0.94743 0.36131 0.0
H2665 H 0.21259 0.93267 0.93952 0.0
H2666 H 0.22106 0.92905 0.30804 0.0
H2667 H 0.19386 0.95231 0.99222 0.0
H2668 H 0.21609 0.93159 0.07401 0.0
H2669 H 0.19841 0.94936 0.22643 0.0
C2670 C 0.20485 0.94371 0.32131 0.0
C2671 C 0.21126 0.93799 0.34608 0.0
C2672 C 0.21125 0.93617 0.05618 0.0
C2673 C 0.20833 0.94031 0.1913 0.0
C2674 C 0.20932 0.93688 0.97917 0.0
C2675 C 0.20292 0.94261 0.95424 0.0
C2676 C 0.20674 0.94121 0.10892 0.0
C2677 C 0.1987 0.94767 0.00876 0.0
C2678 C 0.20338 0.9449 0.24419 0.0
C2679 C 0.21614 0.9336 0.29144 0.0
N2680 N 0.20067 0.94684 0.08349 0.0
N2681 N 0.21454 0.93482 0.21664 0.0
H2682 H 0.05352 0.28847 0.31228 0.0
H2683 H 0.05375 0.24488 0.98564 0.0
H2684 H 0.06112 0.25932 0.35057 0.0
H2685 H 0.04785 0.27505 0.94323 0.0
H2686 H 0.0558 0.2497 0.12001 0.0
H2687 H 0.05103 0.28355 0.17762 0.0
C2688 C 0.05473 0.28108 0.29255 0.0
C2689 C 0.05754 0.2743 0.34325 0.0
C2690 C 0.05404 0.25527 0.08141 0.0
C2691 C 0.05456 0.26853 0.18875 0.0
C2692 C 0.05277 0.25246 0.00447 0.0
C2693 C 0.05058 0.25954 0.95265 0.0
C2694 C 0.0531 0.26523 0.10722 0.0
C2695 C 0.04965 0.26941 0.98078 0.0
C2696 C 0.05323 0.27822 0.21553 0.0
C2697 C 0.0588 0.26469 0.31405 0.0
N2698 N 0.05091 0.27195 0.05611 0.0
N2699 N 0.05731 0.2621 0.23891 0.0
H2700 H 0.19163 0.25813 0.38613 0.0
H2701 H 0.22128 0.27577 0.973 0.0
H2702 H 0.22804 0.28775 0.34297 0.0
H2703 H 0.18702 0.24335 0.02105 0.0
H2704 H 0.22364 0.28075 0.10769 0.0
H2705 H 0.1895 0.25299 0.25197 0.0
C2706 C 0.19921 0.26354 0.34875 0.0
C2707 C 0.21005 0.27339 0.37646 0.0
C2708 C 0.21563 0.27252 0.08879 0.0
C2709 C 0.2076 0.26761 0.22205 0.0
C2710 C 0.21425 0.2697 0.01177 0.0
C2711 C 0.20393 0.25912 0.9855 0.0
C2712 C 0.20658 0.26476 0.14001 0.0
C2713 C 0.19519 0.25151 0.03872 0.0
C2714 C 0.19796 0.26061 0.27192 0.0
C2715 C 0.21946 0.28018 0.32454 0.0
N2716 N 0.19669 0.25451 0.11329 0.0
N2717 N 0.21801 0.27716 0.25 0.0
H2718 H 0.73633 0.94695 0.36673 0.0
H2719 H 0.71139 0.92811 0.94412 0.0
H2720 H 0.69922 0.92012 0.31239 0.0
H2721 H 0.74837 0.95547 0.99746 0.0
H2722 H 0.70667 0.92544 0.07868 0.0
H2723 H 0.74092 0.95028 0.23191 0.0
C2724 C 0.72917 0.94167 0.32654 0.0
C2725 C 0.71737 0.93318 0.35099 0.0
C2726 C 0.71581 0.93207 0.061 0.0
C2727 C 0.72253 0.9371 0.19631 0.0
C2728 C 0.7185 0.93367 0.98394 0.0
C2729 C 0.73031 0.94204 0.95916 0.0
C2730 C 0.72499 0.93886 0.11394 0.0
C2731 C 0.73919 0.94881 0.01389 0.0
C2732 C 0.73177 0.94366 0.24945 0.0
C2733 C 0.7084 0.92682 0.29608 0.0
N2734 N 0.73635 0.94705 0.08866 0.0
N2735 N 0.71117 0.92889 0.22137 0.0
H2736 H 0.03855 0.79538 0.99145 0.0
H2737 H 0.06439 0.76937 0.31004 0.0
H2738 H 0.05955 0.77793 0.94255 0.0
H2739 H 0.04483 0.78827 0.35932 0.0
H2740 H 0.06208 0.77177 0.17498 0.0
H2741 H 0.0402 0.7923 0.12629 0.0
C2742 C 0.04352 0.79092 0.00892 0.0
C2743 C 0.04894 0.78694 0.95523 0.0
C2744 C 0.0583 0.77541 0.21534 0.0
C2745 C 0.0508 0.78331 0.10991 0.0
C2746 C 0.05957 0.77398 0.2925 0.0
C2747 C 0.05484 0.77865 0.34629 0.0
C2748 C 0.05221 0.78152 0.19153 0.0
C2749 C 0.0488 0.78469 0.32015 0.0
C2750 C 0.04443 0.78912 0.08602 0.0
C2751 C 0.0551 0.78103 0.98148 0.0
N2752 N 0.04765 0.78594 0.24471 0.0
N2753 N 0.05589 0.77943 0.05685 0.0
H2754 H 0.95876 0.55513 0.00951 0.0
H2755 H 0.9074 0.53514 0.32857 0.0
H2756 H 0.92058 0.54028 0.96074 0.0
H2757 H 0.94525 0.54786 0.37711 0.0
H2758 H 0.91216 0.5376 0.19371 0.0
H2759 H 0.95411 0.55323 0.14465 0.0
C2760 C 0.94941 0.5515 0.02721 0.0
C2761 C 0.94005 0.54783 0.9736 0.0
C2762 C 0.91943 0.53988 0.2339 0.0
C2763 C 0.93463 0.54558 0.12831 0.0
C2764 C 0.91671 0.53843 0.311 0.0
C2765 C 0.92592 0.54126 0.36456 0.0
C2766 C 0.93146 0.54419 0.2099 0.0
C2767 C 0.93787 0.54569 0.33823 0.0
C2768 C 0.94674 0.55037 0.10438 0.0
C2769 C 0.92806 0.54305 0.99983 0.0
N2770 N 0.94028 0.54699 0.26284 0.0
N2771 N 0.9257 0.54208 0.07529 0.0
H2772 H 0.45503 0.37933 0.9513 0.0
H2773 H 0.44595 0.3959 0.37387 0.0
H2774 H 0.43941 0.40181 0.00535 0.0
H2775 H 0.4609 0.37281 0.32028 0.0
H2776 H 0.44303 0.39775 0.23942 0.0
H2777 H 0.45711 0.37671 0.08607 0.0
C2778 C 0.45212 0.38381 0.99141 0.0
C2779 C 0.44711 0.39089 0.96684 0.0
C2780 C 0.44691 0.39224 0.25703 0.0
C2781 C 0.44931 0.38776 0.12162 0.0
C2782 C 0.4485 0.3911 0.33404 0.0
C2783 C 0.45368 0.38417 0.35875 0.0
C2784 C 0.45053 0.38643 0.20402 0.0
C2785 C 0.45702 0.37836 0.30395 0.0
C2786 C 0.45323 0.38222 0.0685 0.0
C2787 C 0.44324 0.39621 0.02172 0.0
N2788 N 0.45541 0.37964 0.22922 0.0
N2789 N 0.44445 0.39456 0.09649 0.0
H2790 H 0.61015 0.08587 0.36674 0.0
H2791 H 0.59664 0.03588 0.04704 0.0
H2792 H 0.59606 0.04776 0.41501 0.0
H2793 H 0.60776 0.07339 0.99934 0.0
H2794 H 0.59722 0.04018 0.18242 0.0
H2795 H 0.61001 0.08156 0.23221 0.0
C2796 C 0.60698 0.07658 0.34924 0.0
C2797 C 0.60309 0.06717 0.40273 0.0
C2798 C 0.59952 0.04746 0.14229 0.0
C2799 C 0.60303 0.06218 0.24814 0.0
C2800 C 0.59925 0.04503 0.06501 0.0
C2801 C 0.60209 0.05426 0.0116 0.0
C2802 C 0.60273 0.05925 0.16651 0.0
C2803 C 0.60529 0.06593 0.0382 0.0
C2804 C 0.60696 0.07414 0.27224 0.0
C2805 C 0.59929 0.05535 0.37628 0.0
N2806 N 0.60553 0.06808 0.11365 0.0
N2807 N 0.59934 0.0532 0.30095 0.0
loop_
_geom_bond_atom_site_label_1
_geom_bond_atom_site_label_2
_geom_bond_distance
_geom_bond_site_symmetry_2
_ccdc_geom_bond_type
Co0 N4 2.148 . S
Co0 N10 2.128 1_554 S
Co0 N20 2.194 . S
Co0 O25 2.351 . S
Co0 O26 2.155 . S
Co0 O27 2.096 1_554 S
C1 N4 1.301 . S
C1 N5 1.328 . S
C1 H6 0.930 . S
C2 C3 1.333 . S
C2 N4 1.317 . S
C2 H7 0.930 . S
C3 C2 1.333 . S
C3 N5 1.350 . S
C3 H29 0.931 . S
N4 Co0 2.148 . S
N4 C1 1.301 . S
N4 C2 1.317 . S
N5 C1 1.328 . S
N5 C3 1.350 . S
H6 C1 0.930 . S
H7 C2 0.930 . S
C8 O9 1.224 . S
C8 O27 1.247 . S
O9 C8 1.224 . S
N10 Co0 2.128 1_556 S
N10 C11 1.355 . S
N10 C13 1.311 . S
C11 N10 1.355 . S
C11 C12 1.363 . S
C11 H23 0.929 . S
C12 C11 1.363 . S
C12 N14 1.375 . S
C12 H30 0.931 . S
C13 N10 1.311 . S
C13 N14 1.347 . S
C13 H24 0.929 . S
N14 C12 1.375 . S
N14 C13 1.347 . S
C15 C18 1.365 . S
C15 N20 1.328 . S
C15 H21 0.929 . S
C16 C17 1.362 1_556 S
C16 C19 1.378 . S
C16 H31 0.929 . S
C17 C16 1.362 1_554 S
C17 C18 1.366 . S
C18 C15 1.365 . S
C18 C17 1.366 . S
C18 H32 0.930 . S
C19 C16 1.378 . S
C19 N20 1.315 1_556 S
C19 H22 0.930 . S
N20 Co0 2.194 . S
N20 C15 1.328 . S
N20 C19 1.315 1_554 S
H21 C15 0.929 . S
H22 C19 0.930 . S
H23 C11 0.929 . S
H24 C13 0.929 . S
O25 Co0 2.351 . S
O25 C28 1.244 . S
O26 Co0 2.155 . S
O26 C28 1.240 . S
O27 Co0 2.096 1_556 S
O27 C8 1.247 . S
C28 O25 1.244 . S
C28 O26 1.240 . S
H29 C3 0.931 . S
H30 C12 0.931 . S
H31 C16 0.929 . S
H32 C18 0.930 . S
Co33 N37 2.148 . S
Co33 N43 2.128 1_554 S
Co33 N53 2.194 . S
Co33 O58 2.351 . S
Co33 O59 2.155 . S
Co33 O60 2.096 1_554 S
C34 N37 1.301 . S
C34 N38 1.328 . S
C34 H39 0.930 . S
C35 C36 1.333 . S
C35 N37 1.317 . S
C35 H40 0.930 . S
C36 C35 1.333 . S
C36 N38 1.350 . S
C36 H62 0.931 . S
N37 Co33 2.148 . S
N37 C34 1.301 . S
N37 C35 1.317 . S
N38 C34 1.328 . S
N38 C36 1.350 . S
H39 C34 0.930 . S
H40 C35 0.930 . S
C41 O42 1.224 . S
C41 O60 1.247 . S
O42 C41 1.224 . S
N43 Co33 2.128 1_556 S
N43 C44 1.355 . S
N43 C46 1.311 . S
C44 N43 1.355 . S
C44 C45 1.363 . S
C44 H56 0.929 . S
C45 C44 1.363 . S
C45 N47 1.375 . S
C45 H63 0.931 . S
C46 N43 1.311 . S
C46 N47 1.347 . S
C46 H57 0.929 . S
N47 C45 1.375 . S
N47 C46 1.347 . S
C48 C51 1.365 . S
C48 N53 1.328 . S
C48 H54 0.929 . S
C49 C50 1.362 1_556 S
C49 C52 1.378 . S
C49 H64 0.929 . S
C50 C49 1.362 1_554 S
C50 C51 1.366 . S
C51 C48 1.365 . S
C51 C50 1.366 . S
C51 H65 0.930 . S
C52 C49 1.378 . S
C52 N53 1.315 1_556 S
C52 H55 0.930 . S
N53 Co33 2.194 . S
N53 C48 1.328 . S
N53 C52 1.315 1_554 S
H54 C48 0.929 . S
H55 C52 0.930 . S
H56 C44 0.929 . S
H57 C46 0.929 . S
O58 Co33 2.351 . S
O58 C61 1.244 . S
O59 Co33 2.155 . S
O59 C61 1.240 . S
O60 Co33 2.096 1_556 S
O60 C41 1.247 . S
C61 O58 1.244 . S
C61 O59 1.240 . S
H62 C36 0.931 . S
H63 C45 0.931 . S
H64 C49 0.929 . S
H65 C51 0.930 . S
Co66 N70 2.148 . S
Co66 N76 2.128 1_554 S
Co66 N86 2.194 . S
Co66 O91 2.351 . S
Co66 O92 2.155 . S
Co66 O93 2.096 1_554 S
C67 N70 1.301 . S
C67 N71 1.328 . S
C67 H72 0.930 . S
C68 C69 1.333 . S
C68 N70 1.317 . S
C68 H73 0.930 . S
C69 C68 1.333 . S
C69 N71 1.350 . S
C69 H95 0.931 . S
N70 Co66 2.148 . S
N70 C67 1.301 . S
N70 C68 1.317 . S
N71 C67 1.328 . S
N71 C69 1.350 . S
H72 C67 0.930 . S
H73 C68 0.930 . S
C74 O75 1.224 . S
C74 O93 1.247 . S
O75 C74 1.224 . S
N76 Co66 2.128 1_556 S
N76 C77 1.355 . S
N76 C79 1.311 . S
C77 N76 1.355 . S
C77 C78 1.363 . S
C77 H89 0.929 . S
C78 C77 1.363 . S
C78 N80 1.375 . S
C78 H96 0.931 . S
C79 N76 1.311 . S
C79 N80 1.347 . S
C79 H90 0.929 . S
N80 C78 1.375 . S
N80 C79 1.347 . S
C81 C84 1.365 . S
C81 N86 1.328 . S
C81 H87 0.929 . S
C82 C83 1.362 1_556 S
C82 C85 1.378 . S
C82 H97 0.929 . S
C83 C82 1.362 1_554 S
C83 C84 1.366 . S
C84 C81 1.365 . S
C84 C83 1.366 . S
C84 H98 0.930 . S
C85 C82 1.378 . S
C85 N86 1.315 1_556 S
C85 H88 0.930 . S
N86 Co66 2.194 . S
N86 C81 1.328 . S
N86 C85 1.315 1_554 S
H87 C81 0.929 . S
H88 C85 0.930 . S
H89 C77 0.929 . S
H90 C79 0.929 . S
O91 Co66 2.351 . S
O91 C94 1.244 . S
O92 Co66 2.155 . S
O92 C94 1.240 . S
O93 Co66 2.096 1_556 S
O93 C74 1.247 . S
C94 O91 1.244 . S
C94 O92 1.240 . S
H95 C69 0.931 . S
H96 C78 0.931 . S
H97 C82 0.929 . S
H98 C84 0.930 . S
Co99 N103 2.148 . S
Co99 N109 2.128 1_556 S
Co99 N119 2.194 . S
Co99 O124 2.351 . S
Co99 O125 2.155 . S
Co99 O126 2.096 1_556 S
C100 N103 1.301 . S
C100 N104 1.328 . S
C100 H105 0.930 . S
C101 C102 1.333 . S
C101 N103 1.317 . S
C101 H106 0.930 . S
C102 C101 1.333 . S
C102 N104 1.350 . S
C102 H128 0.931 . S
N103 Co99 2.148 . S
N103 C100 1.301 . S
N103 C101 1.317 . S
N104 C100 1.328 . S
N104 C102 1.350 . S
H105 C100 0.930 . S
H106 C101 0.930 . S
C107 O108 1.224 . S
C107 O126 1.247 . S
O108 C107 1.224 . S
N109 Co99 2.128 1_554 S
N109 C110 1.355 . S
N109 C112 1.311 . S
C110 N109 1.355 . S
C110 C111 1.363 . S
C110 H122 0.929 . S
C111 C110 1.363 . S
C111 N113 1.375 . S
C111 H129 0.931 . S
C112 N109 1.311 . S
C112 N113 1.347 . S
C112 H123 0.929 . S
N113 C111 1.375 . S
N113 C112 1.347 . S
C114 C117 1.365 . S
C114 N119 1.328 . S
C114 H120 0.929 . S
C115 C116 1.362 1_554 S
C115 C118 1.378 . S
C115 H130 0.929 . S
C116 C115 1.362 1_556 S
C116 C117 1.366 . S
C117 C114 1.365 . S
C117 C116 1.366 . S
C117 H131 0.930 . S
C118 C115 1.378 . S
C118 N119 1.315 1_554 S
C118 H121 0.930 . S
N119 Co99 2.194 . S
N119 C114 1.328 . S
N119 C118 1.315 1_556 S
H120 C114 0.929 . S
H121 C118 0.930 . S
H122 C110 0.929 . S
H123 C112 0.929 . S
O124 Co99 2.351 . S
O124 C127 1.244 . S
O125 Co99 2.155 . S
O125 C127 1.240 . S
O126 Co99 2.096 1_554 S
O126 C107 1.247 . S
C127 O124 1.244 . S
C127 O125 1.240 . S
H128 C102 0.931 . S
H129 C111 0.931 . S
H130 C115 0.929 . S
H131 C117 0.930 . S
Co132 N136 2.148 . S
Co132 N142 2.128 1_556 S
Co132 N152 2.194 . S
Co132 O157 2.351 . S
Co132 O158 2.155 . S
Co132 O159 2.096 1_556 S
C133 N136 1.301 . S
C133 N137 1.328 . S
C133 H138 0.930 . S
C134 C135 1.333 . S
C134 N136 1.317 . S
C134 H139 0.930 . S
C135 C134 1.333 . S
C135 N137 1.350 . S
C135 H161 0.931 . S
N136 Co132 2.148 . S
N136 C133 1.301 . S
N136 C134 1.317 . S
N137 C133 1.328 . S
N137 C135 1.350 . S
H138 C133 0.930 . S
H139 C134 0.930 . S
C140 O141 1.224 . S
C140 O159 1.247 . S
O141 C140 1.224 . S
N142 Co132 2.128 1_554 S
N142 C143 1.355 . S
N142 C145 1.311 . S
C143 N142 1.355 . S
C143 C144 1.363 . S
C143 H155 0.929 . S
C144 C143 1.363 . S
C144 N146 1.375 . S
C144 H162 0.931 . S
C145 N142 1.311 . S
C145 N146 1.347 . S
C145 H156 0.929 . S
N146 C144 1.375 . S
N146 C145 1.347 . S
C147 C150 1.365 . S
C147 N152 1.328 . S
C147 H153 0.929 . S
C148 C149 1.362 1_554 S
C148 C151 1.378 . S
C148 H163 0.929 . S
C149 C148 1.362 1_556 S
C149 C150 1.366 . S
C150 C147 1.365 . S
C150 C149 1.366 . S
C150 H164 0.930 . S
C151 C148 1.378 . S
C151 N152 1.315 1_554 S
C151 H154 0.930 . S
N152 Co132 2.194 . S
N152 C147 1.328 . S
N152 C151 1.315 1_556 S
H153 C147 0.929 . S
H154 C151 0.930 . S
H155 C143 0.929 . S
H156 C145 0.929 . S
O157 Co132 2.351 . S
O157 C160 1.244 . S
O158 Co132 2.155 . S
O158 C160 1.240 . S
O159 Co132 2.096 1_554 S
O159 C140 1.247 . S
C160 O157 1.244 . S
C160 O158 1.240 . S
H161 C135 0.931 . S
H162 C144 0.931 . S
H163 C148 0.929 . S
H164 C150 0.930 . S
Co165 N169 2.148 . S
Co165 N175 2.128 1_556 S
Co165 N185 2.194 . S
Co165 O190 2.351 . S
Co165 O191 2.155 . S
Co165 O192 2.096 1_556 S
C166 N169 1.301 . S
C166 N170 1.328 . S
C166 H171 0.930 . S
C167 C168 1.333 . S
C167 N169 1.317 . S
C167 H172 0.930 . S
C168 C167 1.333 . S
C168 N170 1.350 . S
C168 H194 0.931 . S
N169 Co165 2.148 . S
N169 C166 1.301 . S
N169 C167 1.317 . S
N170 C166 1.328 . S
N170 C168 1.350 . S
H171 C166 0.930 . S
H172 C167 0.930 . S
C173 O174 1.224 . S
C173 O192 1.247 . S
O174 C173 1.224 . S
N175 Co165 2.128 1_554 S
N175 C176 1.355 . S
N175 C178 1.311 . S
C176 N175 1.355 . S
C176 C177 1.363 . S
C176 H188 0.929 . S
C177 C176 1.363 . S
C177 N179 1.375 . S
C177 H195 0.931 . S
C178 N175 1.311 . S
C178 N179 1.347 . S
C178 H189 0.929 . S
N179 C177 1.375 . S
N179 C178 1.347 . S
C180 C183 1.365 . S
C180 N185 1.328 . S
C180 H186 0.929 . S
C181 C182 1.362 1_554 S
C181 C184 1.378 . S
C181 H196 0.929 . S
C182 C181 1.362 1_556 S
C182 C183 1.366 . S
C183 C180 1.365 . S
C183 C182 1.366 . S
C183 H197 0.930 . S
C184 C181 1.378 . S
C184 N185 1.315 1_554 S
C184 H187 0.930 . S
N185 Co165 2.194 . S
N185 C180 1.328 . S
N185 C184 1.315 1_556 S
H186 C180 0.929 . S
H187 C184 0.930 . S
H188 C176 0.929 . S
H189 C178 0.929 . S
O190 Co165 2.351 . S
O190 C193 1.244 . S
O191 Co165 2.155 . S
O191 C193 1.240 . S
O192 Co165 2.096 1_554 S
O192 C173 1.247 . S
C193 O190 1.244 . S
C193 O191 1.240 . S
H194 C168 0.931 . S
H195 C177 0.931 . S
H196 C181 0.929 . S
H197 C183 0.930 . S
Co198 N202 2.148 . S
Co198 N208 2.128 1_556 S
Co198 N218 2.194 . S
Co198 O223 2.351 . S
Co198 O224 2.155 . S
Co198 O225 2.096 1_556 S
C199 N202 1.301 . S
C199 N203 1.328 . S
C199 H204 0.930 . S
C200 C201 1.333 . S
C200 N202 1.317 . S
C200 H205 0.930 . S
C201 C200 1.333 . S
C201 N203 1.350 . S
C201 H227 0.931 . S
N202 Co198 2.148 . S
N202 C199 1.301 . S
N202 C200 1.317 . S
N203 C199 1.328 . S
N203 C201 1.350 . S
H204 C199 0.930 . S
H205 C200 0.930 . S
C206 O207 1.224 . S
C206 O225 1.247 . S
O207 C206 1.224 . S
N208 Co198 2.128 1_554 S
N208 C209 1.355 . S
N208 C211 1.311 . S
C209 N208 1.355 . S
C209 C210 1.363 . S
C209 H221 0.929 . S
C210 C209 1.363 . S
C210 N212 1.375 . S
C210 H228 0.931 . S
C211 N208 1.311 . S
C211 N212 1.347 . S
C211 H222 0.929 . S
N212 C210 1.375 . S
N212 C211 1.347 . S
C213 C216 1.365 . S
C213 N218 1.328 . S
C213 H219 0.929 . S
C214 C215 1.362 1_554 S
C214 C217 1.378 . S
C214 H229 0.929 . S
C215 C214 1.362 1_556 S
C215 C216 1.366 . S
C216 C213 1.365 . S
C216 C215 1.366 . S
C216 H230 0.930 . S
C217 C214 1.378 . S
C217 N218 1.315 1_554 S
C217 H220 0.930 . S
N218 Co198 2.194 . S
N218 C213 1.328 . S
N218 C217 1.315 1_556 S
H219 C213 0.929 . S
H220 C217 0.930 . S
H221 C209 0.929 . S
H222 C211 0.929 . S
O223 Co198 2.351 . S
O223 C226 1.244 . S
O224 Co198 2.155 . S
O224 C226 1.240 . S
O225 Co198 2.096 1_554 S
O225 C206 1.247 . S
C226 O223 1.244 . S
C226 O224 1.240 . S
H227 C201 0.931 . S
H228 C210 0.931 . S
H229 C214 0.929 . S
H230 C216 0.930 . S
Co231 N235 2.148 . S
Co231 N241 2.128 1_556 S
Co231 N251 2.194 . S
Co231 O256 2.351 . S
Co231 O257 2.155 . S
Co231 O258 2.096 1_556 S
C232 N235 1.301 . S
C232 N236 1.328 . S
C232 H237 0.930 . S
C233 C234 1.333 . S
C233 N235 1.317 . S
C233 H238 0.930 . S
C234 C233 1.333 . S
C234 N236 1.350 . S
C234 H260 0.931 . S
N235 Co231 2.148 . S
N235 C232 1.301 . S
N235 C233 1.317 . S
N236 C232 1.328 . S
N236 C234 1.350 . S
H237 C232 0.930 . S
H238 C233 0.930 . S
C239 O240 1.224 . S
C239 O258 1.247 . S
O240 C239 1.224 . S
N241 Co231 2.128 1_554 S
N241 C242 1.355 . S
N241 C244 1.311 . S
C242 N241 1.355 . S
C242 C243 1.363 . S
C242 H254 0.929 . S
C243 C242 1.363 . S
C243 N245 1.375 . S
C243 H261 0.931 . S
C244 N241 1.311 . S
C244 N245 1.347 . S
C244 H255 0.929 . S
N245 C243 1.375 . S
N245 C244 1.347 . S
C246 C249 1.365 . S
C246 N251 1.328 . S
C246 H252 0.929 . S
C247 C248 1.362 1_554 S
C247 C250 1.378 . S
C247 H262 0.929 . S
C248 C247 1.362 1_556 S
C248 C249 1.366 . S
C249 C246 1.365 . S
C249 C248 1.366 . S
C249 H263 0.930 . S
C250 C247 1.378 . S
C250 N251 1.315 1_554 S
C250 H253 0.930 . S
N251 Co231 2.194 . S
N251 C246 1.328 . S
N251 C250 1.315 1_556 S
H252 C246 0.929 . S
H253 C250 0.930 . S
H254 C242 0.929 . S
H255 C244 0.929 . S
O256 Co231 2.351 . S
O256 C259 1.244 . S
O257 Co231 2.155 . S
O257 C259 1.240 . S
O258 Co231 2.096 1_554 S
O258 C239 1.247 . S
C259 O256 1.244 . S
C259 O257 1.240 . S
H260 C234 0.931 . S
H261 C243 0.931 . S
H262 C247 0.929 . S
H263 C249 0.930 . S
Co264 N268 2.148 . S
Co264 N274 2.128 1_556 S
Co264 N284 2.194 . S
Co264 O289 2.351 . S
Co264 O290 2.155 . S
Co264 O291 2.096 1_556 S
C265 N268 1.301 . S
C265 N269 1.328 . S
C265 H270 0.930 . S
C266 C267 1.333 . S
C266 N268 1.317 . S
C266 H271 0.930 . S
C267 C266 1.333 . S
C267 N269 1.350 . S
C267 H293 0.931 . S
N268 Co264 2.148 . S
N268 C265 1.301 . S
N268 C266 1.317 . S
N269 C265 1.328 . S
N269 C267 1.350 . S
H270 C265 0.930 . S
H271 C266 0.930 . S
C272 O273 1.224 . S
C272 O291 1.247 . S
O273 C272 1.224 . S
N274 Co264 2.128 1_554 S
N274 C275 1.355 . S
N274 C277 1.311 . S
C275 N274 1.355 . S
C275 C276 1.363 . S
C275 H287 0.929 . S
C276 C275 1.363 . S
C276 N278 1.375 . S
C276 H294 0.931 . S
C277 N274 1.311 . S
C277 N278 1.347 . S
C277 H288 0.929 . S
N278 C276 1.375 . S
N278 C277 1.347 . S
C279 C282 1.365 . S
C279 N284 1.328 . S
C279 H285 0.929 . S
C280 C281 1.362 1_554 S
C280 C283 1.378 . S
C280 H295 0.929 . S
C281 C280 1.362 1_556 S
C281 C282 1.366 . S
C282 C279 1.365 . S
C282 C281 1.366 . S
C282 H296 0.930 . S
C283 C280 1.378 . S
C283 N284 1.315 1_554 S
C283 H286 0.930 . S
N284 Co264 2.194 . S
N284 C279 1.328 . S
N284 C283 1.315 1_556 S
H285 C279 0.929 . S
H286 C283 0.930 . S
H287 C275 0.929 . S
H288 C277 0.929 . S
O289 Co264 2.351 . S
O289 C292 1.244 . S
O290 Co264 2.155 . S
O290 C292 1.240 . S
O291 Co264 2.096 1_554 S
O291 C272 1.247 . S
C292 O289 1.244 . S
C292 O290 1.240 . S
H293 C267 0.931 . S
H294 C276 0.931 . S
H295 C280 0.929 . S
H296 C282 0.930 . S
Co297 N301 2.148 . S
Co297 N307 2.128 1_554 S
Co297 N317 2.194 . S
Co297 O322 2.351 . S
Co297 O323 2.155 . S
Co297 O324 2.096 1_554 S
C298 N301 1.301 . S
C298 N302 1.328 . S
C298 H303 0.930 . S
C299 C300 1.333 . S
C299 N301 1.317 . S
C299 H304 0.930 . S
C300 C299 1.333 . S
C300 N302 1.350 . S
C300 H326 0.931 . S
N301 Co297 2.148 . S
N301 C298 1.301 . S
N301 C299 1.317 . S
N302 C298 1.328 . S
N302 C300 1.350 . S
H303 C298 0.930 . S
H304 C299 0.930 . S
C305 O306 1.224 . S
C305 O324 1.247 . S
O306 C305 1.224 . S
N307 Co297 2.128 1_556 S
N307 C308 1.355 . S
N307 C310 1.311 . S
C308 N307 1.355 . S
C308 C309 1.363 . S
C308 H320 0.929 . S
C309 C308 1.363 . S
C309 N311 1.375 . S
C309 H327 0.931 . S
C310 N307 1.311 . S
C310 N311 1.347 . S
C310 H321 0.929 . S
N311 C309 1.375 . S
N311 C310 1.347 . S
C312 C315 1.365 . S
C312 N317 1.328 . S
C312 H318 0.929 . S
C313 C314 1.362 1_556 S
C313 C316 1.378 . S
C313 H328 0.929 . S
C314 C313 1.362 1_554 S
C314 C315 1.366 . S
C315 C312 1.365 . S
C315 C314 1.366 . S
C315 H329 0.930 . S
C316 C313 1.378 . S
C316 N317 1.315 1_556 S
C316 H319 0.930 . S
N317 Co297 2.194 . S
N317 C312 1.328 . S
N317 C316 1.315 1_554 S
H318 C312 0.929 . S
H319 C316 0.930 . S
H320 C308 0.929 . S
H321 C310 0.929 . S
O322 Co297 2.351 . S
O322 C325 1.244 . S
O323 Co297 2.155 . S
O323 C325 1.240 . S
O324 Co297 2.096 1_556 S
O324 C305 1.247 . S
C325 O322 1.244 . S
C325 O323 1.240 . S
H326 C300 0.931 . S
H327 C309 0.931 . S
H328 C313 0.929 . S
H329 C315 0.930 . S
Co330 N334 2.148 . S
Co330 N340 2.128 1_554 S
Co330 N350 2.194 . S
Co330 O355 2.351 . S
Co330 O356 2.155 . S
Co330 O357 2.096 1_554 S
C331 N334 1.301 . S
C331 N335 1.328 . S
C331 H336 0.930 . S
C332 C333 1.333 . S
C332 N334 1.317 . S
C332 H337 0.930 . S
C333 C332 1.333 . S
C333 N335 1.350 . S
C333 H359 0.931 . S
N334 Co330 2.148 . S
N334 C331 1.301 . S
N334 C332 1.317 . S
N335 C331 1.328 . S
N335 C333 1.350 . S
H336 C331 0.930 . S
H337 C332 0.930 . S
C338 O339 1.224 . S
C338 O357 1.247 . S
O339 C338 1.224 . S
N340 Co330 2.128 1_556 S
N340 C341 1.355 . S
N340 C343 1.311 . S
C341 N340 1.355 . S
C341 C342 1.363 . S
C341 H353 0.929 . S
C342 C341 1.363 . S
C342 N344 1.375 . S
C342 H360 0.931 . S
C343 N340 1.311 . S
C343 N344 1.347 . S
C343 H354 0.929 . S
N344 C342 1.375 . S
N344 C343 1.347 . S
C345 C348 1.365 . S
C345 N350 1.328 . S
C345 H351 0.929 . S
C346 C347 1.362 1_556 S
C346 C349 1.378 . S
C346 H361 0.929 . S
C347 C346 1.362 1_554 S
C347 C348 1.366 . S
C348 C345 1.365 . S
C348 C347 1.366 . S
C348 H362 0.930 . S
C349 C346 1.378 . S
C349 N350 1.315 1_556 S
C349 H352 0.930 . S
N350 Co330 2.194 . S
N350 C345 1.328 . S
N350 C349 1.315 1_554 S
H351 C345 0.929 . S
H352 C349 0.930 . S
H353 C341 0.929 . S
H354 C343 0.929 . S
O355 Co330 2.351 . S
O355 C358 1.244 . S
O356 Co330 2.155 . S
O356 C358 1.240 . S
O357 Co330 2.096 1_556 S
O357 C338 1.247 . S
C358 O355 1.244 . S
C358 O356 1.240 . S
H359 C333 0.931 . S
H360 C342 0.931 . S
H361 C346 0.929 . S
H362 C348 0.930 . S
Co363 N367 2.148 . S
Co363 N373 2.128 1_554 S
Co363 N383 2.194 . S
Co363 O388 2.351 . S
Co363 O389 2.155 . S
Co363 O390 2.096 1_554 S
C364 N367 1.301 . S
C364 N368 1.328 . S
C364 H369 0.930 . S
C365 C366 1.333 . S
C365 N367 1.317 . S
C365 H370 0.930 . S
C366 C365 1.333 . S
C366 N368 1.350 . S
C366 H392 0.931 . S
N367 Co363 2.148 . S
N367 C364 1.301 . S
N367 C365 1.317 . S
N368 C364 1.328 . S
N368 C366 1.350 . S
H369 C364 0.930 . S
H370 C365 0.930 . S
C371 O372 1.224 . S
C371 O390 1.247 . S
O372 C371 1.224 . S
N373 Co363 2.128 1_556 S
N373 C374 1.355 . S
N373 C376 1.311 . S
C374 N373 1.355 . S
C374 C375 1.363 . S
C374 H386 0.929 . S
C375 C374 1.363 . S
C375 N377 1.375 . S
C375 H393 0.931 . S
C376 N373 1.311 . S
C376 N377 1.347 . S
C376 H387 0.929 . S
N377 C375 1.375 . S
N377 C376 1.347 . S
C378 C381 1.365 . S
C378 N383 1.328 . S
C378 H384 0.929 . S
C379 C380 1.362 1_556 S
C379 C382 1.378 . S
C379 H394 0.929 . S
C380 C379 1.362 1_554 S
C380 C381 1.366 . S
C381 C378 1.365 . S
C381 C380 1.366 . S
C381 H395 0.930 . S
C382 C379 1.378 . S
C382 N383 1.315 1_556 S
C382 H385 0.930 . S
N383 Co363 2.194 . S
N383 C378 1.328 . S
N383 C382 1.315 1_554 S
H384 C378 0.929 . S
H385 C382 0.930 . S
H386 C374 0.929 . S
H387 C376 0.929 . S
O388 Co363 2.351 . S
O388 C391 1.244 . S
O389 Co363 2.155 . S
O389 C391 1.240 . S
O390 Co363 2.096 1_556 S
O390 C371 1.247 . S
C391 O388 1.244 . S
C391 O389 1.240 . S
H392 C366 0.931 . S
H393 C375 0.931 . S
H394 C379 0.929 . S
H395 C381 0.930 . S
Co396 N400 2.148 . S
Co396 N406 2.128 . S
Co396 N416 2.194 . S
Co396 O421 2.351 . S
Co396 O422 2.155 . S
Co396 O423 2.096 . S
C397 N400 1.301 . S
C397 N401 1.328 . S
C397 H402 0.930 . S
C398 C399 1.333 . S
C398 N400 1.317 . S
C398 H403 0.930 . S
C399 C398 1.333 . S
C399 N401 1.350 . S
C399 H425 0.931 . S
N400 Co396 2.148 . S
N400 C397 1.301 . S
N400 C398 1.317 . S
N401 C397 1.328 . S
N401 C399 1.350 . S
H402 C397 0.930 . S
H403 C398 0.930 . S
C404 O405 1.224 . S
C404 O423 1.247 . S
O405 C404 1.224 . S
N406 Co396 2.128 . S
N406 C407 1.355 . S
N406 C409 1.311 . S
C407 N406 1.355 . S
C407 C408 1.363 . S
C407 H419 0.929 . S
C408 C407 1.363 . S
C408 N410 1.375 . S
C408 H426 0.931 . S
C409 N406 1.311 . S
C409 N410 1.347 . S
C409 H420 0.929 . S
N410 C408 1.375 . S
N410 C409 1.347 . S
C411 C414 1.365 . S
C411 N416 1.328 . S
C411 H417 0.929 . S
C412 C413 1.362 . S
C412 C415 1.378 . S
C412 H427 0.929 . S
C413 C412 1.362 . S
C413 C414 1.366 . S
C414 C411 1.365 . S
C414 C413 1.366 . S
C414 H428 0.930 . S
C415 C412 1.378 . S
C415 N416 1.315 . S
C415 H418 0.930 . S
N416 Co396 2.194 . S
N416 C411 1.328 . S
N416 C415 1.315 . S
H417 C411 0.929 . S
H418 C415 0.930 . S
H419 C407 0.929 . S
H420 C409 0.929 . S
O421 Co396 2.351 . S
O421 C424 1.244 . S
O422 Co396 2.155 . S
O422 C424 1.240 . S
O423 Co396 2.096 . S
O423 C404 1.247 . S
C424 O421 1.244 . S
C424 O422 1.240 . S
H425 C399 0.931 . S
H426 C408 0.931 . S
H427 C412 0.929 . S
H428 C414 0.930 . S
Co429 N433 2.148 . S
Co429 N439 2.128 . S
Co429 N449 2.194 . S
Co429 O454 2.351 . S
Co429 O455 2.155 . S
Co429 O456 2.096 . S
C430 N433 1.301 . S
C430 N434 1.328 . S
C430 H435 0.930 . S
C431 C432 1.333 . S
C431 N433 1.317 . S
C431 H436 0.930 . S
C432 C431 1.333 . S
C432 N434 1.350 . S
C432 H458 0.931 . S
N433 Co429 2.148 . S
N433 C430 1.301 . S
N433 C431 1.317 . S
N434 C430 1.328 . S
N434 C432 1.350 . S
H435 C430 0.930 . S
H436 C431 0.930 . S
C437 O438 1.224 . S
C437 O456 1.247 . S
O438 C437 1.224 . S
N439 Co429 2.128 . S
N439 C440 1.355 . S
N439 C442 1.311 . S
C440 N439 1.355 . S
C440 C441 1.363 . S
C440 H452 0.929 . S
C441 C440 1.363 . S
C441 N443 1.375 . S
C441 H459 0.931 . S
C442 N439 1.311 . S
C442 N443 1.347 . S
C442 H453 0.929 . S
N443 C441 1.375 . S
N443 C442 1.347 . S
C444 C447 1.365 . S
C444 N449 1.328 . S
C444 H450 0.929 . S
C445 C446 1.362 . S
C445 C448 1.378 . S
C445 H460 0.929 . S
C446 C445 1.362 . S
C446 C447 1.366 . S
C447 C444 1.365 . S
C447 C446 1.366 . S
C447 H461 0.930 . S
C448 C445 1.378 . S
C448 N449 1.315 . S
C448 H451 0.930 . S
N449 Co429 2.194 . S
N449 C444 1.328 . S
N449 C448 1.315 . S
H450 C444 0.929 . S
H451 C448 0.930 . S
H452 C440 0.929 . S
H453 C442 0.929 . S
O454 Co429 2.351 . S
O454 C457 1.244 . S
O455 Co429 2.155 . S
O455 C457 1.240 . S
O456 Co429 2.096 . S
O456 C437 1.247 . S
C457 O454 1.244 . S
C457 O455 1.240 . S
H458 C432 0.931 . S
H459 C441 0.931 . S
H460 C445 0.929 . S
H461 C447 0.930 . S
Co462 N466 2.148 . S
Co462 N472 2.128 . S
Co462 N482 2.194 . S
Co462 O487 2.351 . S
Co462 O488 2.155 . S
Co462 O489 2.096 . S
C463 N466 1.301 . S
C463 N467 1.328 . S
C463 H468 0.930 . S
C464 C465 1.333 . S
C464 N466 1.317 . S
C464 H469 0.930 . S
C465 C464 1.333 . S
C465 N467 1.350 . S
C465 H491 0.931 . S
N466 Co462 2.148 . S
N466 C463 1.301 . S
N466 C464 1.317 . S
N467 C463 1.328 . S
N467 C465 1.350 . S
H468 C463 0.930 . S
H469 C464 0.930 . S
C470 O471 1.224 . S
C470 O489 1.247 . S
O471 C470 1.224 . S
N472 Co462 2.128 . S
N472 C473 1.355 . S
N472 C475 1.311 . S
C473 N472 1.355 . S
C473 C474 1.363 . S
C473 H485 0.929 . S
C474 C473 1.363 . S
C474 N476 1.375 . S
C474 H492 0.931 . S
C475 N472 1.311 . S
C475 N476 1.347 . S
C475 H486 0.929 . S
N476 C474 1.375 . S
N476 C475 1.347 . S
C477 C480 1.365 . S
C477 N482 1.328 . S
C477 H483 0.929 . S
C478 C479 1.362 . S
C478 C481 1.378 . S
C478 H493 0.929 . S
C479 C478 1.362 . S
C479 C480 1.366 . S
C480 C477 1.365 . S
C480 C479 1.366 . S
C480 H494 0.930 . S
C481 C478 1.378 . S
C481 N482 1.315 . S
C481 H484 0.930 . S
N482 Co462 2.194 . S
N482 C477 1.328 . S
N482 C481 1.315 . S
H483 C477 0.929 . S
H484 C481 0.930 . S
H485 C473 0.929 . S
H486 C475 0.929 . S
O487 Co462 2.351 . S
O487 C490 1.244 . S
O488 Co462 2.155 . S
O488 C490 1.240 . S
O489 Co462 2.096 . S
O489 C470 1.247 . S
C490 O487 1.244 . S
C490 O488 1.240 . S
H491 C465 0.931 . S
H492 C474 0.931 . S
H493 C478 0.929 . S
H494 C480 0.930 . S
Co495 N499 2.148 . S
Co495 N505 2.128 . S
Co495 N515 2.194 . S
Co495 O520 2.351 . S
Co495 O521 2.155 . S
Co495 O522 2.096 . S
C496 N499 1.301 . S
C496 N500 1.328 . S
C496 H501 0.930 . S
C497 C498 1.333 . S
C497 N499 1.317 . S
C497 H502 0.930 . S
C498 C497 1.333 . S
C498 N500 1.350 . S
C498 H524 0.931 . S
N499 Co495 2.148 . S
N499 C496 1.301 . S
N499 C497 1.317 . S
N500 C496 1.328 . S
N500 C498 1.350 . S
H501 C496 0.930 . S
H502 C497 0.930 . S
C503 O504 1.224 . S
C503 O522 1.247 . S
O504 C503 1.224 . S
N505 Co495 2.128 . S
N505 C506 1.355 . S
N505 C508 1.311 . S
C506 N505 1.355 . S
C506 C507 1.363 . S
C506 H518 0.929 . S
C507 C506 1.363 . S
C507 N509 1.375 . S
C507 H525 0.931 . S
C508 N505 1.311 . S
C508 N509 1.347 . S
C508 H519 0.929 . S
N509 C507 1.375 . S
N509 C508 1.347 . S
C510 C513 1.365 . S
C510 N515 1.328 . S
C510 H516 0.929 . S
C511 C512 1.362 . S
C511 C514 1.378 . S
C511 H526 0.929 . S
C512 C511 1.362 . S
C512 C513 1.366 . S
C513 C510 1.365 . S
C513 C512 1.366 . S
C513 H527 0.930 . S
C514 C511 1.378 . S
C514 N515 1.315 . S
C514 H517 0.930 . S
N515 Co495 2.194 . S
N515 C510 1.328 . S
N515 C514 1.315 . S
H516 C510 0.929 . S
H517 C514 0.930 . S
H518 C506 0.929 . S
H519 C508 0.929 . S
O520 Co495 2.351 . S
O520 C523 1.244 . S
O521 Co495 2.155 . S
O521 C523 1.240 . S
O522 Co495 2.096 . S
O522 C503 1.247 . S
C523 O520 1.244 . S
C523 O521 1.240 . S
H524 C498 0.931 . S
H525 C507 0.931 . S
H526 C511 0.929 . S
H527 C513 0.930 . S
Co528 N532 2.148 . S
Co528 N538 2.128 . S
Co528 N548 2.194 . S
Co528 O553 2.351 . S
Co528 O554 2.155 . S
Co528 O555 2.096 . S
C529 N532 1.301 . S
C529 N533 1.328 . S
C529 H534 0.930 . S
C530 C531 1.333 . S
C530 N532 1.317 . S
C530 H535 0.930 . S
C531 C530 1.333 . S
C531 N533 1.350 . S
C531 H557 0.931 . S
N532 Co528 2.148 . S
N532 C529 1.301 . S
N532 C530 1.317 . S
N533 C529 1.328 . S
N533 C531 1.350 . S
H534 C529 0.930 . S
H535 C530 0.930 . S
C536 O537 1.224 . S
C536 O555 1.247 . S
O537 C536 1.224 . S
N538 Co528 2.128 . S
N538 C539 1.355 . S
N538 C541 1.311 . S
C539 N538 1.355 . S
C539 C540 1.363 . S
C539 H551 0.929 . S
C540 C539 1.363 . S
C540 N542 1.375 . S
C540 H558 0.931 . S
C541 N538 1.311 . S
C541 N542 1.347 . S
C541 H552 0.929 . S
N542 C540 1.375 . S
N542 C541 1.347 . S
C543 C546 1.365 . S
C543 N548 1.328 . S
C543 H549 0.929 . S
C544 C545 1.362 . S
C544 C547 1.378 . S
C544 H559 0.929 . S
C545 C544 1.362 . S
C545 C546 1.366 . S
C546 C543 1.365 . S
C546 C545 1.366 . S
C546 H560 0.930 . S
C547 C544 1.378 . S
C547 N548 1.315 . S
C547 H550 0.930 . S
N548 Co528 2.194 . S
N548 C543 1.328 . S
N548 C547 1.315 . S
H549 C543 0.929 . S
H550 C547 0.930 . S
H551 C539 0.929 . S
H552 C541 0.929 . S
O553 Co528 2.351 . S
O553 C556 1.244 . S
O554 Co528 2.155 . S
O554 C556 1.240 . S
O555 Co528 2.096 . S
O555 C536 1.247 . S
C556 O553 1.244 . S
C556 O554 1.240 . S
H557 C531 0.931 . S
H558 C540 0.931 . S
H559 C544 0.929 . S
H560 C546 0.930 . S
Co561 N565 2.148 . S
Co561 N571 2.128 . S
Co561 N581 2.194 . S
Co561 O586 2.351 . S
Co561 O587 2.155 . S
Co561 O588 2.096 . S
C562 N565 1.301 . S
C562 N566 1.328 . S
C562 H567 0.930 . S
C563 C564 1.333 . S
C563 N565 1.317 . S
C563 H568 0.930 . S
C564 C563 1.333 . S
C564 N566 1.350 . S
C564 H590 0.931 . S
N565 Co561 2.148 . S
N565 C562 1.301 . S
N565 C563 1.317 . S
N566 C562 1.328 . S
N566 C564 1.350 . S
H567 C562 0.930 . S
H568 C563 0.930 . S
C569 O570 1.224 . S
C569 O588 1.247 . S
O570 C569 1.224 . S
N571 Co561 2.128 . S
N571 C572 1.355 . S
N571 C574 1.311 . S
C572 N571 1.355 . S
C572 C573 1.363 . S
C572 H584 0.929 . S
C573 C572 1.363 . S
C573 N575 1.375 . S
C573 H591 0.931 . S
C574 N571 1.311 . S
C574 N575 1.347 . S
C574 H585 0.929 . S
N575 C573 1.375 . S
N575 C574 1.347 . S
C576 C579 1.365 . S
C576 N581 1.328 . S
C576 H582 0.929 . S
C577 C578 1.362 . S
C577 C580 1.378 . S
C577 H592 0.929 . S
C578 C577 1.362 . S
C578 C579 1.366 . S
C579 C576 1.365 . S
C579 C578 1.366 . S
C579 H593 0.930 . S
C580 C577 1.378 . S
C580 N581 1.315 . S
C580 H583 0.930 . S
N581 Co561 2.194 . S
N581 C576 1.328 . S
N581 C580 1.315 . S
H582 C576 0.929 . S
H583 C580 0.930 . S
H584 C572 0.929 . S
H585 C574 0.929 . S
O586 Co561 2.351 . S
O586 C589 1.244 . S
O587 Co561 2.155 . S
O587 C589 1.240 . S
O588 Co561 2.096 . S
O588 C569 1.247 . S
C589 O586 1.244 . S
C589 O587 1.240 . S
H590 C564 0.931 . S
H591 C573 0.931 . S
H592 C577 0.929 . S
H593 C579 0.930 . S
Co594 N598 2.148 . S
Co594 N604 2.128 . S
Co594 N614 2.194 . S
Co594 O619 2.351 . S
Co594 O620 2.155 . S
Co594 O621 2.096 . S
C595 N598 1.301 . S
C595 N599 1.328 . S
C595 H600 0.930 . S
C596 C597 1.333 . S
C596 N598 1.317 . S
C596 H601 0.930 . S
C597 C596 1.333 . S
C597 N599 1.350 . S
C597 H623 0.931 . S
N598 Co594 2.148 . S
N598 C595 1.301 . S
N598 C596 1.317 . S
N599 C595 1.328 . S
N599 C597 1.350 . S
H600 C595 0.930 . S
H601 C596 0.930 . S
C602 O603 1.224 . S
C602 O621 1.247 . S
O603 C602 1.224 . S
N604 Co594 2.128 . S
N604 C605 1.355 . S
N604 C607 1.311 . S
C605 N604 1.355 . S
C605 C606 1.363 . S
C605 H617 0.929 . S
C606 C605 1.363 . S
C606 N608 1.375 . S
C606 H624 0.931 . S
C607 N604 1.311 . S
C607 N608 1.347 . S
C607 H618 0.929 . S
N608 C606 1.375 . S
N608 C607 1.347 . S
C609 C612 1.365 . S
C609 N614 1.328 . S
C609 H615 0.929 . S
C610 C611 1.362 . S
C610 C613 1.378 . S
C610 H625 0.929 . S
C611 C610 1.362 . S
C611 C612 1.366 . S
C612 C609 1.365 . S
C612 C611 1.366 . S
C612 H626 0.930 . S
C613 C610 1.378 . S
C613 N614 1.315 . S
C613 H616 0.930 . S
N614 Co594 2.194 . S
N614 C609 1.328 . S
N614 C613 1.315 . S
H615 C609 0.929 . S
H616 C613 0.930 . S
H617 C605 0.929 . S
H618 C607 0.929 . S
O619 Co594 2.351 . S
O619 C622 1.244 . S
O620 Co594 2.155 . S
O620 C622 1.240 . S
O621 Co594 2.096 . S
O621 C602 1.247 . S
C622 O619 1.244 . S
C622 O620 1.240 . S
H623 C597 0.931 . S
H624 C606 0.931 . S
H625 C610 0.929 . S
H626 C612 0.930 . S
Co627 N631 2.148 . S
Co627 N637 2.128 . S
Co627 N647 2.194 . S
Co627 O652 2.351 . S
Co627 O653 2.155 . S
Co627 O654 2.096 . S
C628 N631 1.301 . S
C628 N632 1.328 . S
C628 H633 0.930 . S
C629 C630 1.333 . S
C629 N631 1.317 . S
C629 H634 0.930 . S
C630 C629 1.333 . S
C630 N632 1.350 . S
C630 H656 0.931 . S
N631 Co627 2.148 . S
N631 C628 1.301 . S
N631 C629 1.317 . S
N632 C628 1.328 . S
N632 C630 1.350 . S
H633 C628 0.930 . S
H634 C629 0.930 . S
C635 O636 1.224 . S
C635 O654 1.247 . S
O636 C635 1.224 . S
N637 Co627 2.128 . S
N637 C638 1.355 . S
N637 C640 1.311 . S
C638 N637 1.355 . S
C638 C639 1.363 . S
C638 H650 0.929 . S
C639 C638 1.363 . S
C639 N641 1.375 . S
C639 H657 0.931 . S
C640 N637 1.311 . S
C640 N641 1.347 . S
C640 H651 0.929 . S
N641 C639 1.375 . S
N641 C640 1.347 . S
C642 C645 1.365 . S
C642 N647 1.328 . S
C642 H648 0.929 . S
C643 C644 1.362 . S
C643 C646 1.378 . S
C643 H658 0.929 . S
C644 C643 1.362 . S
C644 C645 1.366 . S
C645 C642 1.365 . S
C645 C644 1.366 . S
C645 H659 0.930 . S
C646 C643 1.378 . S
C646 N647 1.315 . S
C646 H649 0.930 . S
N647 Co627 2.194 . S
N647 C642 1.328 . S
N647 C646 1.315 . S
H648 C642 0.929 . S
H649 C646 0.930 . S
H650 C638 0.929 . S
H651 C640 0.929 . S
O652 Co627 2.351 . S
O652 C655 1.244 . S
O653 Co627 2.155 . S
O653 C655 1.240 . S
O654 Co627 2.096 . S
O654 C635 1.247 . S
C655 O652 1.244 . S
C655 O653 1.240 . S
H656 C630 0.931 . S
H657 C639 0.931 . S
H658 C643 0.929 . S
H659 C645 0.930 . S
Co660 N664 2.148 . S
Co660 N670 2.128 . S
Co660 N680 2.194 . S
Co660 O685 2.351 . S
Co660 O686 2.155 . S
Co660 O687 2.096 . S
C661 N664 1.301 . S
C661 N665 1.328 . S
C661 H666 0.930 . S
C662 C663 1.333 . S
C662 N664 1.317 . S
C662 H667 0.930 . S
C663 C662 1.333 . S
C663 N665 1.350 . S
C663 H689 0.931 . S
N664 Co660 2.148 . S
N664 C661 1.301 . S
N664 C662 1.317 . S
N665 C661 1.328 . S
N665 C663 1.350 . S
H666 C661 0.930 . S
H667 C662 0.930 . S
C668 O669 1.224 . S
C668 O687 1.247 . S
O669 C668 1.224 . S
N670 Co660 2.128 . S
N670 C671 1.355 . S
N670 C673 1.311 . S
C671 N670 1.355 . S
C671 C672 1.363 . S
C671 H683 0.929 . S
C672 C671 1.363 . S
C672 N674 1.375 . S
C672 H690 0.931 . S
C673 N670 1.311 . S
C673 N674 1.347 . S
C673 H684 0.929 . S
N674 C672 1.375 . S
N674 C673 1.347 . S
C675 C678 1.365 . S
C675 N680 1.328 . S
C675 H681 0.929 . S
C676 C677 1.362 . S
C676 C679 1.378 . S
C676 H691 0.929 . S
C677 C676 1.362 . S
C677 C678 1.366 . S
C678 C675 1.365 . S
C678 C677 1.366 . S
C678 H692 0.930 . S
C679 C676 1.378 . S
C679 N680 1.315 . S
C679 H682 0.930 . S
N680 Co660 2.194 . S
N680 C675 1.328 . S
N680 C679 1.315 . S
H681 C675 0.929 . S
H682 C679 0.930 . S
H683 C671 0.929 . S
H684 C673 0.929 . S
O685 Co660 2.351 . S
O685 C688 1.244 . S
O686 Co660 2.155 . S
O686 C688 1.240 . S
O687 Co660 2.096 . S
O687 C668 1.247 . S
C688 O685 1.244 . S
C688 O686 1.240 . S
H689 C663 0.931 . S
H690 C672 0.931 . S
H691 C676 0.929 . S
H692 C678 0.930 . S
Co693 N697 2.148 . S
Co693 N703 2.128 . S
Co693 N713 2.194 . S
Co693 O718 2.351 . S
Co693 O719 2.155 . S
Co693 O720 2.096 . S
C694 N697 1.301 . S
C694 N698 1.328 . S
C694 H699 0.930 . S
C695 C696 1.333 . S
C695 N697 1.317 . S
C695 H700 0.930 . S
C696 C695 1.333 . S
C696 N698 1.350 . S
C696 H722 0.931 . S
N697 Co693 2.148 . S
N697 C694 1.301 . S
N697 C695 1.317 . S
N698 C694 1.328 . S
N698 C696 1.350 . S
H699 C694 0.930 . S
H700 C695 0.930 . S
C701 O702 1.224 . S
C701 O720 1.247 . S
O702 C701 1.224 . S
N703 Co693 2.128 . S
N703 C704 1.355 . S
N703 C706 1.311 . S
C704 N703 1.355 . S
C704 C705 1.363 . S
C704 H716 0.929 . S
C705 C704 1.363 . S
C705 N707 1.375 . S
C705 H723 0.931 . S
C706 N703 1.311 . S
C706 N707 1.347 . S
C706 H717 0.929 . S
N707 C705 1.375 . S
N707 C706 1.347 . S
C708 C711 1.365 . S
C708 N713 1.328 . S
C708 H714 0.929 . S
C709 C710 1.362 . S
C709 C712 1.378 . S
C709 H724 0.929 . S
C710 C709 1.362 . S
C710 C711 1.366 . S
C711 C708 1.365 . S
C711 C710 1.366 . S
C711 H725 0.930 . S
C712 C709 1.378 . S
C712 N713 1.315 . S
C712 H715 0.930 . S
N713 Co693 2.194 . S
N713 C708 1.328 . S
N713 C712 1.315 . S
H714 C708 0.929 . S
H715 C712 0.930 . S
H716 C704 0.929 . S
H717 C706 0.929 . S
O718 Co693 2.351 . S
O718 C721 1.244 . S
O719 Co693 2.155 . S
O719 C721 1.240 . S
O720 Co693 2.096 . S
O720 C701 1.247 . S
C721 O718 1.244 . S
C721 O719 1.240 . S
H722 C696 0.931 . S
H723 C705 0.931 . S
H724 C709 0.929 . S
H725 C711 0.930 . S
Co726 N730 2.148 . S
Co726 N736 2.128 . S
Co726 N746 2.194 . S
Co726 O751 2.351 . S
Co726 O752 2.155 . S
Co726 O753 2.096 . S
C727 N730 1.301 . S
C727 N731 1.328 . S
C727 H732 0.930 . S
C728 C729 1.333 . S
C728 N730 1.317 . S
C728 H733 0.930 . S
C729 C728 1.333 . S
C729 N731 1.350 . S
C729 H755 0.931 . S
N730 Co726 2.148 . S
N730 C727 1.301 . S
N730 C728 1.317 . S
N731 C727 1.328 . S
N731 C729 1.350 . S
H732 C727 0.930 . S
H733 C728 0.930 . S
C734 O735 1.224 . S
C734 O753 1.247 . S
O735 C734 1.224 . S
N736 Co726 2.128 . S
N736 C737 1.355 . S
N736 C739 1.311 . S
C737 N736 1.355 . S
C737 C738 1.363 . S
C737 H749 0.929 . S
C738 C737 1.363 . S
C738 N740 1.375 . S
C738 H756 0.931 . S
C739 N736 1.311 . S
C739 N740 1.347 . S
C739 H750 0.929 . S
N740 C738 1.375 . S
N740 C739 1.347 . S
C741 C744 1.365 . S
C741 N746 1.328 . S
C741 H747 0.929 . S
C742 C743 1.362 . S
C742 C745 1.378 . S
C742 H757 0.929 . S
C743 C742 1.362 . S
C743 C744 1.366 . S
C744 C741 1.365 . S
C744 C743 1.366 . S
C744 H758 0.930 . S
C745 C742 1.378 . S
C745 N746 1.315 . S
C745 H748 0.930 . S
N746 Co726 2.194 . S
N746 C741 1.328 . S
N746 C745 1.315 . S
H747 C741 0.929 . S
H748 C745 0.930 . S
H749 C737 0.929 . S
H750 C739 0.929 . S
O751 Co726 2.351 . S
O751 C754 1.244 . S
O752 Co726 2.155 . S
O752 C754 1.240 . S
O753 Co726 2.096 . S
O753 C734 1.247 . S
C754 O751 1.244 . S
C754 O752 1.240 . S
H755 C729 0.931 . S
H756 C738 0.931 . S
H757 C742 0.929 . S
H758 C744 0.930 . S
Co759 N763 2.148 . S
Co759 N769 2.128 . S
Co759 N779 2.194 . S
Co759 O784 2.351 . S
Co759 O785 2.155 . S
Co759 O786 2.096 . S
C760 N763 1.301 . S
C760 N764 1.328 . S
C760 H765 0.930 . S
C761 C762 1.333 . S
C761 N763 1.317 . S
C761 H766 0.930 . S
C762 C761 1.333 . S
C762 N764 1.350 . S
C762 H788 0.931 . S
N763 Co759 2.148 . S
N763 C760 1.301 . S
N763 C761 1.317 . S
N764 C760 1.328 . S
N764 C762 1.350 . S
H765 C760 0.930 . S
H766 C761 0.930 . S
C767 O768 1.224 . S
C767 O786 1.247 . S
O768 C767 1.224 . S
N769 Co759 2.128 . S
N769 C770 1.355 . S
N769 C772 1.311 . S
C770 N769 1.355 . S
C770 C771 1.363 . S
C770 H782 0.929 . S
C771 C770 1.363 . S
C771 N773 1.375 . S
C771 H789 0.931 . S
C772 N769 1.311 . S
C772 N773 1.347 . S
C772 H783 0.929 . S
N773 C771 1.375 . S
N773 C772 1.347 . S
C774 C777 1.365 . S
C774 N779 1.328 . S
C774 H780 0.929 . S
C775 C776 1.362 . S
C775 C778 1.378 . S
C775 H790 0.929 . S
C776 C775 1.362 . S
C776 C777 1.366 . S
C777 C774 1.365 . S
C777 C776 1.366 . S
C777 H791 0.930 . S
C778 C775 1.378 . S
C778 N779 1.315 . S
C778 H781 0.930 . S
N779 Co759 2.194 . S
N779 C774 1.328 . S
N779 C778 1.315 . S
H780 C774 0.929 . S
H781 C778 0.930 . S
H782 C770 0.929 . S
H783 C772 0.929 . S
O784 Co759 2.351 . S
O784 C787 1.244 . S
O785 Co759 2.155 . S
O785 C787 1.240 . S
O786 Co759 2.096 . S
O786 C767 1.247 . S
C787 O784 1.244 . S
C787 O785 1.240 . S
H788 C762 0.931 . S
H789 C771 0.931 . S
H790 C775 0.929 . S
H791 C777 0.930 . S
Co792 N796 2.148 . S
Co792 N802 2.128 . S
Co792 N812 2.194 . S
Co792 O817 2.351 . S
Co792 O818 2.155 . S
Co792 O819 2.096 . S
C793 N796 1.301 . S
C793 N797 1.328 . S
C793 H798 0.930 . S
C794 C795 1.333 . S
C794 N796 1.317 . S
C794 H799 0.930 . S
C795 C794 1.333 . S
C795 N797 1.350 . S
C795 H821 0.931 . S
N796 Co792 2.148 . S
N796 C793 1.301 . S
N796 C794 1.317 . S
N797 C793 1.328 . S
N797 C795 1.350 . S
H798 C793 0.930 . S
H799 C794 0.930 . S
C800 O801 1.224 . S
C800 O819 1.247 . S
O801 C800 1.224 . S
N802 Co792 2.128 . S
N802 C803 1.355 . S
N802 C805 1.311 . S
C803 N802 1.355 . S
C803 C804 1.363 . S
C803 H815 0.929 . S
C804 C803 1.363 . S
C804 N806 1.375 . S
C804 H822 0.931 . S
C805 N802 1.311 . S
C805 N806 1.347 . S
C805 H816 0.929 . S
N806 C804 1.375 . S
N806 C805 1.347 . S
C807 C810 1.365 . S
C807 N812 1.328 . S
C807 H813 0.929 . S
C808 C809 1.362 . S
C808 C811 1.378 . S
C808 H823 0.929 . S
C809 C808 1.362 . S
C809 C810 1.366 . S
C810 C807 1.365 . S
C810 C809 1.366 . S
C810 H824 0.930 . S
C811 C808 1.378 . S
C811 N812 1.315 . S
C811 H814 0.930 . S
N812 Co792 2.194 . S
N812 C807 1.328 . S
N812 C811 1.315 . S
H813 C807 0.929 . S
H814 C811 0.930 . S
H815 C803 0.929 . S
H816 C805 0.929 . S
O817 Co792 2.351 . S
O817 C820 1.244 . S
O818 Co792 2.155 . S
O818 C820 1.240 . S
O819 Co792 2.096 . S
O819 C800 1.247 . S
C820 O817 1.244 . S
C820 O818 1.240 . S
H821 C795 0.931 . S
H822 C804 0.931 . S
H823 C808 0.929 . S
H824 C810 0.930 . S
Co825 N829 2.148 . S
Co825 N835 2.128 . S
Co825 N845 2.194 . S
Co825 O850 2.351 . S
Co825 O851 2.155 . S
Co825 O852 2.096 . S
C826 N829 1.301 . S
C826 N830 1.328 . S
C826 H831 0.930 . S
C827 C828 1.333 . S
C827 N829 1.317 . S
C827 H832 0.930 . S
C828 C827 1.333 . S
C828 N830 1.350 . S
C828 H854 0.931 . S
N829 Co825 2.148 . S
N829 C826 1.301 . S
N829 C827 1.317 . S
N830 C826 1.328 . S
N830 C828 1.350 . S
H831 C826 0.930 . S
H832 C827 0.930 . S
C833 O834 1.224 . S
C833 O852 1.247 . S
O834 C833 1.224 . S
N835 Co825 2.128 . S
N835 C836 1.355 . S
N835 C838 1.311 . S
C836 N835 1.355 . S
C836 C837 1.363 . S
C836 H848 0.929 . S
C837 C836 1.363 . S
C837 N839 1.375 . S
C837 H855 0.931 . S
C838 N835 1.311 . S
C838 N839 1.347 . S
C838 H849 0.929 . S
N839 C837 1.375 . S
N839 C838 1.347 . S
C840 C843 1.365 . S
C840 N845 1.328 . S
C840 H846 0.929 . S
C841 C842 1.362 . S
C841 C844 1.378 . S
C841 H856 0.929 . S
C842 C841 1.362 . S
C842 C843 1.366 . S
C843 C840 1.365 . S
C843 C842 1.366 . S
C843 H857 0.930 . S
C844 C841 1.378 . S
C844 N845 1.315 . S
C844 H847 0.930 . S
N845 Co825 2.194 . S
N845 C840 1.328 . S
N845 C844 1.315 . S
H846 C840 0.929 . S
H847 C844 0.930 . S
H848 C836 0.929 . S
H849 C838 0.929 . S
O850 Co825 2.351 . S
O850 C853 1.244 . S
O851 Co825 2.155 . S
O851 C853 1.240 . S
O852 Co825 2.096 . S
O852 C833 1.247 . S
C853 O850 1.244 . S
C853 O851 1.240 . S
H854 C828 0.931 . S
H855 C837 0.931 . S
H856 C841 0.929 . S
H857 C843 0.930 . S
Co858 N862 2.148 . S
Co858 N868 2.128 . S
Co858 N878 2.194 . S
Co858 O883 2.351 . S
Co858 O884 2.155 . S
Co858 O885 2.096 . S
C859 N862 1.301 . S
C859 N863 1.328 . S
C859 H864 0.930 . S
C860 C861 1.333 . S
C860 N862 1.317 . S
C860 H865 0.930 . S
C861 C860 1.333 . S
C861 N863 1.350 . S
C861 H887 0.931 . S
N862 Co858 2.148 . S
N862 C859 1.301 . S
N862 C860 1.317 . S
N863 C859 1.328 . S
N863 C861 1.350 . S
H864 C859 0.930 . S
H865 C860 0.930 . S
C866 O867 1.224 . S
C866 O885 1.247 . S
O867 C866 1.224 . S
N868 Co858 2.128 . S
N868 C869 1.355 . S
N868 C871 1.311 . S
C869 N868 1.355 . S
C869 C870 1.363 . S
C869 H881 0.929 . S
C870 C869 1.363 . S
C870 N872 1.375 . S
C870 H888 0.931 . S
C871 N868 1.311 . S
C871 N872 1.347 . S
C871 H882 0.929 . S
N872 C870 1.375 . S
N872 C871 1.347 . S
C873 C876 1.365 . S
C873 N878 1.328 . S
C873 H879 0.929 . S
C874 C875 1.362 . S
C874 C877 1.378 . S
C874 H889 0.929 . S
C875 C874 1.362 . S
C875 C876 1.366 . S
C876 C873 1.365 . S
C876 C875 1.366 . S
C876 H890 0.930 . S
C877 C874 1.378 . S
C877 N878 1.315 . S
C877 H880 0.930 . S
N878 Co858 2.194 . S
N878 C873 1.328 . S
N878 C877 1.315 . S
H879 C873 0.929 . S
H880 C877 0.930 . S
H881 C869 0.929 . S
H882 C871 0.929 . S
O883 Co858 2.351 . S
O883 C886 1.244 . S
O884 Co858 2.155 . S
O884 C886 1.240 . S
O885 Co858 2.096 . S
O885 C866 1.247 . S
C886 O883 1.244 . S
C886 O884 1.240 . S
H887 C861 0.931 . S
H888 C870 0.931 . S
H889 C874 0.929 . S
H890 C876 0.930 . S
Co891 N895 2.148 . S
Co891 N901 2.128 . S
Co891 N911 2.194 . S
Co891 O916 2.351 . S
Co891 O917 2.155 . S
Co891 O918 2.096 . S
C892 N895 1.301 . S
C892 N896 1.328 . S
C892 H897 0.930 . S
C893 C894 1.333 . S
C893 N895 1.317 . S
C893 H898 0.930 . S
C894 C893 1.333 . S
C894 N896 1.350 . S
C894 H920 0.931 . S
N895 Co891 2.148 . S
N895 C892 1.301 . S
N895 C893 1.317 . S
N896 C892 1.328 . S
N896 C894 1.350 . S
H897 C892 0.930 . S
H898 C893 0.930 . S
C899 O900 1.224 . S
C899 O918 1.247 . S
O900 C899 1.224 . S
N901 Co891 2.128 . S
N901 C902 1.355 . S
N901 C904 1.311 . S
C902 N901 1.355 . S
C902 C903 1.363 . S
C902 H914 0.929 . S
C903 C902 1.363 . S
C903 N905 1.375 . S
C903 H921 0.931 . S
C904 N901 1.311 . S
C904 N905 1.347 . S
C904 H915 0.929 . S
N905 C903 1.375 . S
N905 C904 1.347 . S
C906 C909 1.365 . S
C906 N911 1.328 . S
C906 H912 0.929 . S
C907 C908 1.362 . S
C907 C910 1.378 . S
C907 H922 0.929 . S
C908 C907 1.362 . S
C908 C909 1.366 . S
C909 C906 1.365 . S
C909 C908 1.366 . S
C909 H923 0.930 . S
C910 C907 1.378 . S
C910 N911 1.315 . S
C910 H913 0.930 . S
N911 Co891 2.194 . S
N911 C906 1.328 . S
N911 C910 1.315 . S
H912 C906 0.929 . S
H913 C910 0.930 . S
H914 C902 0.929 . S
H915 C904 0.929 . S
O916 Co891 2.351 . S
O916 C919 1.244 . S
O917 Co891 2.155 . S
O917 C919 1.240 . S
O918 Co891 2.096 . S
O918 C899 1.247 . S
C919 O916 1.244 . S
C919 O917 1.240 . S
H920 C894 0.931 . S
H921 C903 0.931 . S
H922 C907 0.929 . S
H923 C909 0.930 . S
Co924 N928 2.148 . S
Co924 N934 2.128 . S
Co924 N944 2.194 . S
Co924 O949 2.351 . S
Co924 O950 2.155 . S
Co924 O951 2.096 . S
C925 N928 1.301 . S
C925 N929 1.328 . S
C925 H930 0.930 . S
C926 C927 1.333 . S
C926 N928 1.317 . S
C926 H931 0.930 . S
C927 C926 1.333 . S
C927 N929 1.350 . S
C927 H953 0.931 . S
N928 Co924 2.148 . S
N928 C925 1.301 . S
N928 C926 1.317 . S
N929 C925 1.328 . S
N929 C927 1.350 . S
H930 C925 0.930 . S
H931 C926 0.930 . S
C932 O933 1.224 . S
C932 O951 1.247 . S
O933 C932 1.224 . S
N934 Co924 2.128 . S
N934 C935 1.355 . S
N934 C937 1.311 . S
C935 N934 1.355 . S
C935 C936 1.363 . S
C935 H947 0.929 . S
C936 C935 1.363 . S
C936 N938 1.375 . S
C936 H954 0.931 . S
C937 N934 1.311 . S
C937 N938 1.347 . S
C937 H948 0.929 . S
N938 C936 1.375 . S
N938 C937 1.347 . S
C939 C942 1.365 . S
C939 N944 1.328 . S
C939 H945 0.929 . S
C940 C941 1.362 . S
C940 C943 1.378 . S
C940 H955 0.929 . S
C941 C940 1.362 . S
C941 C942 1.366 . S
C942 C939 1.365 . S
C942 C941 1.366 . S
C942 H956 0.930 . S
C943 C940 1.378 . S
C943 N944 1.315 . S
C943 H946 0.930 . S
N944 Co924 2.194 . S
N944 C939 1.328 . S
N944 C943 1.315 . S
H945 C939 0.929 . S
H946 C943 0.930 . S
H947 C935 0.929 . S
H948 C937 0.929 . S
O949 Co924 2.351 . S
O949 C952 1.244 . S
O950 Co924 2.155 . S
O950 C952 1.240 . S
O951 Co924 2.096 . S
O951 C932 1.247 . S
C952 O949 1.244 . S
C952 O950 1.240 . S
H953 C927 0.931 . S
H954 C936 0.931 . S
H955 C940 0.929 . S
H956 C942 0.930 . S
Co957 N961 2.148 . S
Co957 N967 2.128 . S
Co957 N977 2.194 . S
Co957 O982 2.351 . S
Co957 O983 2.155 . S
Co957 O984 2.096 . S
C958 N961 1.301 . S
C958 N962 1.328 . S
C958 H963 0.930 . S
C959 C960 1.333 . S
C959 N961 1.317 . S
C959 H964 0.930 . S
C960 C959 1.333 . S
C960 N962 1.350 . S
C960 H986 0.931 . S
N961 Co957 2.148 . S
N961 C958 1.301 . S
N961 C959 1.317 . S
N962 C958 1.328 . S
N962 C960 1.350 . S
H963 C958 0.930 . S
H964 C959 0.930 . S
C965 O966 1.224 . S
C965 O984 1.247 . S
O966 C965 1.224 . S
N967 Co957 2.128 . S
N967 C968 1.355 . S
N967 C970 1.311 . S
C968 N967 1.355 . S
C968 C969 1.363 . S
C968 H980 0.929 . S
C969 C968 1.363 . S
C969 N971 1.375 . S
C969 H987 0.931 . S
C970 N967 1.311 . S
C970 N971 1.347 . S
C970 H981 0.929 . S
N971 C969 1.375 . S
N971 C970 1.347 . S
C972 C975 1.365 . S
C972 N977 1.328 . S
C972 H978 0.929 . S
C973 C974 1.362 . S
C973 C976 1.378 . S
C973 H988 0.929 . S
C974 C973 1.362 . S
C974 C975 1.366 . S
C975 C972 1.365 . S
C975 C974 1.366 . S
C975 H989 0.930 . S
C976 C973 1.378 . S
C976 N977 1.315 . S
C976 H979 0.930 . S
N977 Co957 2.194 . S
N977 C972 1.328 . S
N977 C976 1.315 . S
H978 C972 0.929 . S
H979 C976 0.930 . S
H980 C968 0.929 . S
H981 C970 0.929 . S
O982 Co957 2.351 . S
O982 C985 1.244 . S
O983 Co957 2.155 . S
O983 C985 1.240 . S
O984 Co957 2.096 . S
O984 C965 1.247 . S
C985 O982 1.244 . S
C985 O983 1.240 . S
H986 C960 0.931 . S
H987 C969 0.931 . S
H988 C973 0.929 . S
H989 C975 0.930 . S
Co990 N994 2.148 . S
Co990 N1000 2.128 . S
Co990 N1010 2.194 . S
Co990 O1015 2.351 . S
Co990 O1016 2.155 . S
Co990 O1017 2.096 . S
C991 N994 1.301 . S
C991 N995 1.328 . S
C991 H996 0.930 . S
C992 C993 1.333 . S
C992 N994 1.317 . S
C992 H997 0.930 . S
C993 C992 1.333 . S
C993 N995 1.350 . S
C993 H1019 0.931 . S
N994 Co990 2.148 . S
N994 C991 1.301 . S
N994 C992 1.317 . S
N995 C991 1.328 . S
N995 C993 1.350 . S
H996 C991 0.930 . S
H997 C992 0.930 . S
C998 O999 1.224 . S
C998 O1017 1.247 . S
O999 C998 1.224 . S
N1000 Co990 2.128 . S
N1000 C1001 1.355 . S
N1000 C1003 1.311 . S
C1001 N1000 1.355 . S
C1001 C1002 1.363 . S
C1001 H1013 0.929 . S
C1002 C1001 1.363 . S
C1002 N1004 1.375 . S
C1002 H1020 0.931 . S
C1003 N1000 1.311 . S
C1003 N1004 1.347 . S
C1003 H1014 0.929 . S
N1004 C1002 1.375 . S
N1004 C1003 1.347 . S
C1005 C1008 1.365 . S
C1005 N1010 1.328 . S
C1005 H1011 0.929 . S
C1006 C1007 1.362 . S
C1006 C1009 1.378 . S
C1006 H1021 0.929 . S
C1007 C1006 1.362 . S
C1007 C1008 1.366 . S
C1008 C1005 1.365 . S
C1008 C1007 1.366 . S
C1008 H1022 0.930 . S
C1009 C1006 1.378 . S
C1009 N1010 1.315 . S
C1009 H1012 0.930 . S
N1010 Co990 2.194 . S
N1010 C1005 1.328 . S
N1010 C1009 1.315 . S
H1011 C1005 0.929 . S
H1012 C1009 0.930 . S
H1013 C1001 0.929 . S
H1014 C1003 0.929 . S
O1015 Co990 2.351 . S
O1015 C1018 1.244 . S
O1016 Co990 2.155 . S
O1016 C1018 1.240 . S
O1017 Co990 2.096 . S
O1017 C998 1.247 . S
C1018 O1015 1.244 . S
C1018 O1016 1.240 . S
H1019 C993 0.931 . S
H1020 C1002 0.931 . S
H1021 C1006 0.929 . S
H1022 C1008 0.930 . S
Co1023 N1027 2.148 . S
Co1023 N1033 2.128 . S
Co1023 N1043 2.194 . S
Co1023 O1048 2.351 . S
Co1023 O1049 2.155 . S
Co1023 O1050 2.096 . S
C1024 N1027 1.301 . S
C1024 N1028 1.328 . S
C1024 H1029 0.930 . S
C1025 C1026 1.333 . S
C1025 N1027 1.317 . S
C1025 H1030 0.930 . S
C1026 C1025 1.333 . S
C1026 N1028 1.350 . S
C1026 H1052 0.931 . S
N1027 Co1023 2.148 . S
N1027 C1024 1.301 . S
N1027 C1025 1.317 . S
N1028 C1024 1.328 . S
N1028 C1026 1.350 . S
H1029 C1024 0.930 . S
H1030 C1025 0.930 . S
C1031 O1032 1.224 . S
C1031 O1050 1.247 . S
O1032 C1031 1.224 . S
N1033 Co1023 2.128 . S
N1033 C1034 1.355 . S
N1033 C1036 1.311 . S
C1034 N1033 1.355 . S
C1034 C1035 1.363 . S
C1034 H1046 0.929 . S
C1035 C1034 1.363 . S
C1035 N1037 1.375 . S
C1035 H1053 0.931 . S
C1036 N1033 1.311 . S
C1036 N1037 1.347 . S
C1036 H1047 0.929 . S
N1037 C1035 1.375 . S
N1037 C1036 1.347 . S
C1038 C1041 1.365 . S
C1038 N1043 1.328 . S
C1038 H1044 0.929 . S
C1039 C1040 1.362 . S
C1039 C1042 1.378 . S
C1039 H1054 0.929 . S
C1040 C1039 1.362 . S
C1040 C1041 1.366 . S
C1041 C1038 1.365 . S
C1041 C1040 1.366 . S
C1041 H1055 0.930 . S
C1042 C1039 1.378 . S
C1042 N1043 1.315 . S
C1042 H1045 0.930 . S
N1043 Co1023 2.194 . S
N1043 C1038 1.328 . S
N1043 C1042 1.315 . S
H1044 C1038 0.929 . S
H1045 C1042 0.930 . S
H1046 C1034 0.929 . S
H1047 C1036 0.929 . S
O1048 Co1023 2.351 . S
O1048 C1051 1.244 . S
O1049 Co1023 2.155 . S
O1049 C1051 1.240 . S
O1050 Co1023 2.096 . S
O1050 C1031 1.247 . S
C1051 O1048 1.244 . S
C1051 O1049 1.240 . S
H1052 C1026 0.931 . S
H1053 C1035 0.931 . S
H1054 C1039 0.929 . S
H1055 C1041 0.930 . S
Co1056 N1060 2.148 . S
Co1056 N1066 2.128 . S
Co1056 N1076 2.194 . S
Co1056 O1081 2.351 . S
Co1056 O1082 2.155 . S
Co1056 O1083 2.096 . S
C1057 N1060 1.301 . S
C1057 N1061 1.328 . S
C1057 H1062 0.930 . S
C1058 C1059 1.333 . S
C1058 N1060 1.317 . S
C1058 H1063 0.930 . S
C1059 C1058 1.333 . S
C1059 N1061 1.350 . S
C1059 H1085 0.931 . S
N1060 Co1056 2.148 . S
N1060 C1057 1.301 . S
N1060 C1058 1.317 . S
N1061 C1057 1.328 . S
N1061 C1059 1.350 . S
H1062 C1057 0.930 . S
H1063 C1058 0.930 . S
C1064 O1065 1.224 . S
C1064 O1083 1.247 . S
O1065 C1064 1.224 . S
N1066 Co1056 2.128 . S
N1066 C1067 1.355 . S
N1066 C1069 1.311 . S
C1067 N1066 1.355 . S
C1067 C1068 1.363 . S
C1067 H1079 0.929 . S
C1068 C1067 1.363 . S
C1068 N1070 1.375 . S
C1068 H1086 0.931 . S
C1069 N1066 1.311 . S
C1069 N1070 1.347 . S
C1069 H1080 0.929 . S
N1070 C1068 1.375 . S
N1070 C1069 1.347 . S
C1071 C1074 1.365 . S
C1071 N1076 1.328 . S
C1071 H1077 0.929 . S
C1072 C1073 1.362 . S
C1072 C1075 1.378 . S
C1072 H1087 0.929 . S
C1073 C1072 1.362 . S
C1073 C1074 1.366 . S
C1074 C1071 1.365 . S
C1074 C1073 1.366 . S
C1074 H1088 0.930 . S
C1075 C1072 1.378 . S
C1075 N1076 1.315 . S
C1075 H1078 0.930 . S
N1076 Co1056 2.194 . S
N1076 C1071 1.328 . S
N1076 C1075 1.315 . S
H1077 C1071 0.929 . S
H1078 C1075 0.930 . S
H1079 C1067 0.929 . S
H1080 C1069 0.929 . S
O1081 Co1056 2.351 . S
O1081 C1084 1.244 . S
O1082 Co1056 2.155 . S
O1082 C1084 1.240 . S
O1083 Co1056 2.096 . S
O1083 C1064 1.247 . S
C1084 O1081 1.244 . S
C1084 O1082 1.240 . S
H1085 C1059 0.931 . S
H1086 C1068 0.931 . S
H1087 C1072 0.929 . S
H1088 C1074 0.930 . S
Co1089 N1093 2.148 . S
Co1089 N1099 2.128 . S
Co1089 N1109 2.194 . S
Co1089 O1114 2.351 . S
Co1089 O1115 2.155 . S
Co1089 O1116 2.096 . S
C1090 N1093 1.301 . S
C1090 N1094 1.328 . S
C1090 H1095 0.930 . S
C1091 C1092 1.333 . S
C1091 N1093 1.317 . S
C1091 H1096 0.930 . S
C1092 C1091 1.333 . S
C1092 N1094 1.350 . S
C1092 H1118 0.931 . S
N1093 Co1089 2.148 . S
N1093 C1090 1.301 . S
N1093 C1091 1.317 . S
N1094 C1090 1.328 . S
N1094 C1092 1.350 . S
H1095 C1090 0.930 . S
H1096 C1091 0.930 . S
C1097 O1098 1.224 . S
C1097 O1116 1.247 . S
O1098 C1097 1.224 . S
N1099 Co1089 2.128 . S
N1099 C1100 1.355 . S
N1099 C1102 1.311 . S
C1100 N1099 1.355 . S
C1100 C1101 1.363 . S
C1100 H1112 0.929 . S
C1101 C1100 1.363 . S
C1101 N1103 1.375 . S
C1101 H1119 0.931 . S
C1102 N1099 1.311 . S
C1102 N1103 1.347 . S
C1102 H1113 0.929 . S
N1103 C1101 1.375 . S
N1103 C1102 1.347 . S
C1104 C1107 1.365 . S
C1104 N1109 1.328 . S
C1104 H1110 0.929 . S
C1105 C1106 1.362 . S
C1105 C1108 1.378 . S
C1105 H1120 0.929 . S
C1106 C1105 1.362 . S
C1106 C1107 1.366 . S
C1107 C1104 1.365 . S
C1107 C1106 1.366 . S
C1107 H1121 0.930 . S
C1108 C1105 1.378 . S
C1108 N1109 1.315 . S
C1108 H1111 0.930 . S
N1109 Co1089 2.194 . S
N1109 C1104 1.328 . S
N1109 C1108 1.315 . S
H1110 C1104 0.929 . S
H1111 C1108 0.930 . S
H1112 C1100 0.929 . S
H1113 C1102 0.929 . S
O1114 Co1089 2.351 . S
O1114 C1117 1.244 . S
O1115 Co1089 2.155 . S
O1115 C1117 1.240 . S
O1116 Co1089 2.096 . S
O1116 C1097 1.247 . S
C1117 O1114 1.244 . S
C1117 O1115 1.240 . S
H1118 C1092 0.931 . S
H1119 C1101 0.931 . S
H1120 C1105 0.929 . S
H1121 C1107 0.930 . S
Co1122 N1126 2.148 . S
Co1122 N1132 2.128 . S
Co1122 N1142 2.194 . S
Co1122 O1147 2.351 . S
Co1122 O1148 2.155 . S
Co1122 O1149 2.096 . S
C1123 N1126 1.301 . S
C1123 N1127 1.328 . S
C1123 H1128 0.930 . S
C1124 C1125 1.333 . S
C1124 N1126 1.317 . S
C1124 H1129 0.930 . S
C1125 C1124 1.333 . S
C1125 N1127 1.350 . S
C1125 H1151 0.931 . S
N1126 Co1122 2.148 . S
N1126 C1123 1.301 . S
N1126 C1124 1.317 . S
N1127 C1123 1.328 . S
N1127 C1125 1.350 . S
H1128 C1123 0.930 . S
H1129 C1124 0.930 . S
C1130 O1131 1.224 . S
C1130 O1149 1.247 . S
O1131 C1130 1.224 . S
N1132 Co1122 2.128 . S
N1132 C1133 1.355 . S
N1132 C1135 1.311 . S
C1133 N1132 1.355 . S
C1133 C1134 1.363 . S
C1133 H1145 0.929 . S
C1134 C1133 1.363 . S
C1134 N1136 1.375 . S
C1134 H1152 0.931 . S
C1135 N1132 1.311 . S
C1135 N1136 1.347 . S
C1135 H1146 0.929 . S
N1136 C1134 1.375 . S
N1136 C1135 1.347 . S
C1137 C1140 1.365 . S
C1137 N1142 1.328 . S
C1137 H1143 0.929 . S
C1138 C1139 1.362 . S
C1138 C1141 1.378 . S
C1138 H1153 0.929 . S
C1139 C1138 1.362 . S
C1139 C1140 1.366 . S
C1140 C1137 1.365 . S
C1140 C1139 1.366 . S
C1140 H1154 0.930 . S
C1141 C1138 1.378 . S
C1141 N1142 1.315 . S
C1141 H1144 0.930 . S
N1142 Co1122 2.194 . S
N1142 C1137 1.328 . S
N1142 C1141 1.315 . S
H1143 C1137 0.929 . S
H1144 C1141 0.930 . S
H1145 C1133 0.929 . S
H1146 C1135 0.929 . S
O1147 Co1122 2.351 . S
O1147 C1150 1.244 . S
O1148 Co1122 2.155 . S
O1148 C1150 1.240 . S
O1149 Co1122 2.096 . S
O1149 C1130 1.247 . S
C1150 O1147 1.244 . S
C1150 O1148 1.240 . S
H1151 C1125 0.931 . S
H1152 C1134 0.931 . S
H1153 C1138 0.929 . S
H1154 C1140 0.930 . S
Co1155 N1159 2.148 . S
Co1155 N1165 2.128 . S
Co1155 N1175 2.194 . S
Co1155 O1180 2.351 . S
Co1155 O1181 2.155 . S
Co1155 O1182 2.096 . S
C1156 N1159 1.301 . S
C1156 N1160 1.328 . S
C1156 H1161 0.930 . S
C1157 C1158 1.333 . S
C1157 N1159 1.317 . S
C1157 H1162 0.930 . S
C1158 C1157 1.333 . S
C1158 N1160 1.350 . S
C1158 H1184 0.931 . S
N1159 Co1155 2.148 . S
N1159 C1156 1.301 . S
N1159 C1157 1.317 . S
N1160 C1156 1.328 . S
N1160 C1158 1.350 . S
H1161 C1156 0.930 . S
H1162 C1157 0.930 . S
C1163 O1164 1.224 . S
C1163 O1182 1.247 . S
O1164 C1163 1.224 . S
N1165 Co1155 2.128 . S
N1165 C1166 1.355 . S
N1165 C1168 1.311 . S
C1166 N1165 1.355 . S
C1166 C1167 1.363 . S
C1166 H1178 0.929 . S
C1167 C1166 1.363 . S
C1167 N1169 1.375 . S
C1167 H1185 0.931 . S
C1168 N1165 1.311 . S
C1168 N1169 1.347 . S
C1168 H1179 0.929 . S
N1169 C1167 1.375 . S
N1169 C1168 1.347 . S
C1170 C1173 1.365 . S
C1170 N1175 1.328 . S
C1170 H1176 0.929 . S
C1171 C1172 1.362 . S
C1171 C1174 1.378 . S
C1171 H1186 0.929 . S
C1172 C1171 1.362 . S
C1172 C1173 1.366 . S
C1173 C1170 1.365 . S
C1173 C1172 1.366 . S
C1173 H1187 0.930 . S
C1174 C1171 1.378 . S
C1174 N1175 1.315 . S
C1174 H1177 0.930 . S
N1175 Co1155 2.194 . S
N1175 C1170 1.328 . S
N1175 C1174 1.315 . S
H1176 C1170 0.929 . S
H1177 C1174 0.930 . S
H1178 C1166 0.929 . S
H1179 C1168 0.929 . S
O1180 Co1155 2.351 . S
O1180 C1183 1.244 . S
O1181 Co1155 2.155 . S
O1181 C1183 1.240 . S
O1182 Co1155 2.096 . S
O1182 C1163 1.247 . S
C1183 O1180 1.244 . S
C1183 O1181 1.240 . S
H1184 C1158 0.931 . S
H1185 C1167 0.931 . S
H1186 C1171 0.929 . S
H1187 C1173 0.930 . S
H1188 C1194 0.930 . S
H1189 C1198 0.930 . S
H1190 C1203 0.929 1_556 S
H1191 C1201 0.929 . S
H1192 C1196 0.929 . S
H1193 C1202 0.929 . S
C1194 H1188 0.930 . S
C1194 C1195 1.367 . S
C1194 C1202 1.378 . S
C1195 C1194 1.367 . S
C1195 C1203 1.433 . S
C1196 H1192 0.929 . S
C1196 C1198 1.378 . S
C1196 C1200 1.350 . S
C1197 C1200 1.463 . S
C1197 C1202 1.350 . S
C1197 N1205 1.427 . S
C1198 H1189 0.930 . S
C1198 C1196 1.378 . S
C1198 C1199 1.367 . S
C1199 C1198 1.367 . S
C1199 C1201 1.433 . S
C1200 C1196 1.350 . S
C1200 C1197 1.463 . S
C1200 N1204 1.427 . S
C1201 H1191 0.929 . S
C1201 C1199 1.433 . S
C1201 N1204 1.384 . S
C1202 H1193 0.929 . S
C1202 C1194 1.378 . S
C1202 C1197 1.350 . S
C1203 H1190 0.929 1_554 S
C1203 C1195 1.433 . S
C1203 N1205 1.384 . S
N1204 C1200 1.427 . S
N1204 C1201 1.384 . S
N1205 C1197 1.427 . S
N1205 C1203 1.384 . S
H1206 C1212 0.930 . S
H1207 C1216 0.930 . S
H1208 C1221 0.929 . S
H1209 C1219 0.929 . S
H1210 C1214 0.929 . S
H1211 C1220 0.929 . S
C1212 H1206 0.930 . S
C1212 C1213 1.367 . S
C1212 C1220 1.378 . S
C1213 C1212 1.367 . S
C1213 C1221 1.433 . S
C1214 H1210 0.929 . S
C1214 C1216 1.378 . S
C1214 C1218 1.350 . S
C1215 C1218 1.463 . S
C1215 C1220 1.350 . S
C1215 N1223 1.427 . S
C1216 H1207 0.930 . S
C1216 C1214 1.378 . S
C1216 C1217 1.367 . S
C1217 C1216 1.367 . S
C1217 C1219 1.433 . S
C1218 C1214 1.350 . S
C1218 C1215 1.463 . S
C1218 N1222 1.427 . S
C1219 H1209 0.929 . S
C1219 C1217 1.433 . S
C1219 N1222 1.384 . S
C1220 H1211 0.929 . S
C1220 C1212 1.378 . S
C1220 C1215 1.350 . S
C1221 H1208 0.929 . S
C1221 C1213 1.433 . S
C1221 N1223 1.384 . S
N1222 C1218 1.427 . S
N1222 C1219 1.384 . S
N1223 C1215 1.427 . S
N1223 C1221 1.384 . S
H1224 C1230 0.930 . S
H1225 C1234 0.930 . S
H1226 C1239 0.929 . S
H1227 C1237 0.929 . S
H1228 C1232 0.929 . S
H1229 C1238 0.929 . S
C1230 H1224 0.930 . S
C1230 C1231 1.367 . S
C1230 C1238 1.378 . S
C1231 C1230 1.367 . S
C1231 C1239 1.433 . S
C1232 H1228 0.929 . S
C1232 C1234 1.378 . S
C1232 C1236 1.350 . S
C1233 C1236 1.463 . S
C1233 C1238 1.350 . S
C1233 N1241 1.427 . S
C1234 H1225 0.930 . S
C1234 C1232 1.378 . S
C1234 C1235 1.367 . S
C1235 C1234 1.367 . S
C1235 C1237 1.433 . S
C1236 C1232 1.350 . S
C1236 C1233 1.463 . S
C1236 N1240 1.427 . S
C1237 H1227 0.929 . S
C1237 C1235 1.433 . S
C1237 N1240 1.384 . S
C1238 H1229 0.929 . S
C1238 C1230 1.378 . S
C1238 C1233 1.350 . S
C1239 H1226 0.929 . S
C1239 C1231 1.433 . S
C1239 N1241 1.384 . S
N1240 C1236 1.427 . S
N1240 C1237 1.384 . S
N1241 C1233 1.427 . S
N1241 C1239 1.384 . S
H1242 C1248 0.930 . S
H1243 C1252 0.930 . S
H1244 C1257 0.929 . S
H1245 C1255 0.920 1_554 S
H1246 C1250 0.929 . S
H1247 C1256 0.929 . S
C1248 H1242 0.930 . S
C1248 C1249 1.367 . S
C1248 C1256 1.378 . S
C1249 C1248 1.367 . S
C1249 C1257 1.433 . S
C1250 H1246 0.929 . S
C1250 C1252 1.378 . S
C1250 C1254 1.350 . S
C1251 C1254 1.463 . S
C1251 C1256 1.350 . S
C1251 N1259 1.427 . S
C1252 H1243 0.930 . S
C1252 C1250 1.378 . S
C1252 C1253 1.367 . S
C1253 C1252 1.367 . S
C1253 C1255 1.433 . S
C1254 C1250 1.350 . S
C1254 C1251 1.463 . S
C1254 N1258 1.427 . S
C1255 H1245 0.920 1_556 S
C1255 C1253 1.433 . S
C1255 N1258 1.384 . S
C1256 H1247 0.929 . S
C1256 C1248 1.378 . S
C1256 C1251 1.350 . S
C1257 H1244 0.929 . S
C1257 C1249 1.433 . S
C1257 N1259 1.384 . S
N1258 C1254 1.427 . S
N1258 C1255 1.384 . S
N1259 C1251 1.427 . S
N1259 C1257 1.384 . S
H1260 C1266 0.930 . S
H1261 C1270 0.930 . S
H1262 C1275 0.929 . S
H1263 C1273 0.929 . S
H1264 C1268 0.929 . S
H1265 C1274 0.929 . S
C1266 H1260 0.930 . S
C1266 C1267 1.367 . S
C1266 C1274 1.378 . S
C1267 C1266 1.367 . S
C1267 C1275 1.433 . S
C1268 H1264 0.929 . S
C1268 C1270 1.378 . S
C1268 C1272 1.350 . S
C1269 C1272 1.463 . S
C1269 C1274 1.350 . S
C1269 N1277 1.427 . S
C1270 H1261 0.930 . S
C1270 C1268 1.378 . S
C1270 C1271 1.367 . S
C1271 C1270 1.367 . S
C1271 C1273 1.433 . S
C1272 C1268 1.350 . S
C1272 C1269 1.463 . S
C1272 N1276 1.427 . S
C1273 H1263 0.929 . S
C1273 C1271 1.433 . S
C1273 N1276 1.384 . S
C1274 H1265 0.929 . S
C1274 C1266 1.378 . S
C1274 C1269 1.350 . S
C1275 H1262 0.929 . S
C1275 C1267 1.433 . S
C1275 N1277 1.384 . S
N1276 C1272 1.427 . S
N1276 C1273 1.384 . S
N1277 C1269 1.427 . S
N1277 C1275 1.384 . S
H1278 C1284 0.930 1_554 S
H1279 C1288 0.930 . S
H1280 C1293 0.929 . S
H1281 C1291 0.929 . S
H1282 C1286 0.929 . S
H1283 C1292 0.929 . S
C1284 H1278 0.930 1_556 S
C1284 C1285 1.367 . S
C1284 C1292 1.378 . S
C1285 C1284 1.367 . S
C1285 C1293 1.433 . S
C1286 H1282 0.929 . S
C1286 C1288 1.378 . S
C1286 C1290 1.350 . S
C1287 C1290 1.463 . S
C1287 C1292 1.350 . S
C1287 N1295 1.427 . S
C1288 H1279 0.930 . S
C1288 C1286 1.378 . S
C1288 C1289 1.367 . S
C1289 C1288 1.367 . S
C1289 C1291 1.433 . S
C1290 C1286 1.350 . S
C1290 C1287 1.463 . S
C1290 N1294 1.427 . S
C1291 H1281 0.929 . S
C1291 C1289 1.433 . S
C1291 N1294 1.384 . S
C1292 H1283 0.929 . S
C1292 C1284 1.378 . S
C1292 C1287 1.350 . S
C1293 H1280 0.929 . S
C1293 C1285 1.433 . S
C1293 N1295 1.384 . S
N1294 C1290 1.427 . S
N1294 C1291 1.384 . S
N1295 C1287 1.427 . S
N1295 C1293 1.384 . S
H1296 C1302 0.930 . S
H1297 C1306 0.930 . S
H1298 C1311 0.929 . S
H1299 C1309 0.929 . S
H1300 C1304 0.929 . S
H1301 C1310 0.929 . S
C1302 H1296 0.930 . S
C1302 C1303 1.367 . S
C1302 C1310 1.378 . S
C1303 C1302 1.367 . S
C1303 C1311 1.433 . S
C1304 H1300 0.929 . S
C1304 C1306 1.378 . S
C1304 C1308 1.350 . S
C1305 C1308 1.463 . S
C1305 C1310 1.350 . S
C1305 N1313 1.427 . S
C1306 H1297 0.930 . S
C1306 C1304 1.378 . S
C1306 C1307 1.367 . S
C1307 C1306 1.367 . S
C1307 C1309 1.433 . S
C1308 C1304 1.350 . S
C1308 C1305 1.463 . S
C1308 N1312 1.427 . S
C1309 H1299 0.929 . S
C1309 C1307 1.433 . S
C1309 N1312 1.384 . S
C1310 H1301 0.929 . S
C1310 C1302 1.378 . S
C1310 C1305 1.350 . S
C1311 H1298 0.929 . S
C1311 C1303 1.433 . S
C1311 N1313 1.384 . S
N1312 C1308 1.427 . S
N1312 C1309 1.384 . S
N1313 C1305 1.427 . S
N1313 C1311 1.384 . S
H1314 C1320 0.930 . S
H1315 C1324 0.930 1_554 S
H1316 C1329 0.929 . S
H1317 C1327 0.929 . S
H1318 C1322 0.929 . S
H1319 C1328 0.929 . S
C1320 H1314 0.930 . S
C1320 C1321 1.367 . S
C1320 C1328 1.378 . S
C1321 C1320 1.367 . S
C1321 C1329 1.433 . S
C1322 H1318 0.929 . S
C1322 C1324 1.378 . S
C1322 C1326 1.350 . S
C1323 C1326 1.463 . S
C1323 C1328 1.350 . S
C1323 N1331 1.427 . S
C1324 H1315 0.930 1_556 S
C1324 C1322 1.378 . S
C1324 C1325 1.367 . S
C1325 C1324 1.367 . S
C1325 C1327 1.433 . S
C1326 C1322 1.350 . S
C1326 C1323 1.463 . S
C1326 N1330 1.427 . S
C1327 H1317 0.929 . S
C1327 C1325 1.433 . S
C1327 N1330 1.384 . S
C1328 H1319 0.929 . S
C1328 C1320 1.378 . S
C1328 C1323 1.350 . S
C1329 H1316 0.929 . S
C1329 C1321 1.433 . S
C1329 N1331 1.384 . S
N1330 C1326 1.427 . S
N1330 C1327 1.384 . S
N1331 C1323 1.427 . S
N1331 C1329 1.384 . S
H1332 C1338 0.930 1_554 S
H1333 C1342 0.930 . S
H1334 C1347 0.929 . S
H1335 C1345 0.929 . S
H1336 C1340 0.929 . S
H1337 C1346 0.929 . S
C1338 H1332 0.930 1_556 S
C1338 C1339 1.367 . S
C1338 C1346 1.378 . S
C1339 C1338 1.367 . S
C1339 C1347 1.433 . S
C1340 H1336 0.929 . S
C1340 C1342 1.378 . S
C1340 C1344 1.350 . S
C1341 C1344 1.463 . S
C1341 C1346 1.350 . S
C1341 N1349 1.427 . S
C1342 H1333 0.930 . S
C1342 C1340 1.378 . S
C1342 C1343 1.367 . S
C1343 C1342 1.367 . S
C1343 C1345 1.433 . S
C1344 C1340 1.350 . S
C1344 C1341 1.463 . S
C1344 N1348 1.427 . S
C1345 H1335 0.929 . S
C1345 C1343 1.433 . S
C1345 N1348 1.384 . S
C1346 H1337 0.929 . S
C1346 C1338 1.378 . S
C1346 C1341 1.350 . S
C1347 H1334 0.929 . S
C1347 C1339 1.433 . S
C1347 N1349 1.384 . S
N1348 C1344 1.427 . S
N1348 C1345 1.384 . S
N1349 C1341 1.427 . S
N1349 C1347 1.384 . S
H1350 C1356 0.930 . S
H1351 C1360 0.930 . S
H1352 C1365 0.929 . S
H1353 C1363 0.929 . S
H1354 C1358 0.929 . S
H1355 C1364 0.929 . S
C1356 H1350 0.930 . S
C1356 C1357 1.367 . S
C1356 C1364 1.378 . S
C1357 C1356 1.367 . S
C1357 C1365 1.433 . S
C1358 H1354 0.929 . S
C1358 C1360 1.378 . S
C1358 C1362 1.350 . S
C1359 C1362 1.463 . S
C1359 C1364 1.350 . S
C1359 N1367 1.427 . S
C1360 H1351 0.930 . S
C1360 C1358 1.378 . S
C1360 C1361 1.367 . S
C1361 C1360 1.367 . S
C1361 C1363 1.433 . S
C1362 C1358 1.350 . S
C1362 C1359 1.463 . S
C1362 N1366 1.427 . S
C1363 H1353 0.929 . S
C1363 C1361 1.433 . S
C1363 N1366 1.384 . S
C1364 H1355 0.929 . S
C1364 C1356 1.378 . S
C1364 C1359 1.350 . S
C1365 H1352 0.929 . S
C1365 C1357 1.433 . S
C1365 N1367 1.384 . S
N1366 C1362 1.427 . S
N1366 C1363 1.384 . S
N1367 C1359 1.427 . S
N1367 C1365 1.384 . S
H1368 C1374 0.930 1_556 S
H1369 C1378 0.930 . S
H1370 C1383 0.929 . S
H1371 C1381 0.929 . S
H1372 C1376 0.929 . S
H1373 C1382 0.929 . S
C1374 H1368 0.930 1_554 S
C1374 C1375 1.367 . S
C1374 C1382 1.378 . S
C1375 C1374 1.367 . S
C1375 C1383 1.433 . S
C1376 H1372 0.929 . S
C1376 C1378 1.378 . S
C1376 C1380 1.350 . S
C1377 C1380 1.463 . S
C1377 C1382 1.350 . S
C1377 N1385 1.427 . S
C1378 H1369 0.930 . S
C1378 C1376 1.378 . S
C1378 C1379 1.367 . S
C1379 C1378 1.367 . S
C1379 C1381 1.433 . S
C1380 C1376 1.350 . S
C1380 C1377 1.463 . S
C1380 N1384 1.427 . S
C1381 H1371 0.929 . S
C1381 C1379 1.433 . S
C1381 N1384 1.384 . S
C1382 H1373 0.929 . S
C1382 C1374 1.378 . S
C1382 C1377 1.350 . S
C1383 H1370 0.929 . S
C1383 C1375 1.433 . S
C1383 N1385 1.384 . S
N1384 C1380 1.427 . S
N1384 C1381 1.384 . S
N1385 C1377 1.427 . S
N1385 C1383 1.384 . S
H1386 C1392 0.930 . S
H1387 C1396 0.930 . S
H1388 C1401 0.929 . S
H1389 C1399 0.929 . S
H1390 C1394 0.929 . S
H1391 C1400 0.929 . S
C1392 H1386 0.930 . S
C1392 C1393 1.367 . S
C1392 C1400 1.378 . S
C1393 C1392 1.367 . S
C1393 C1401 1.433 . S
C1394 H1390 0.929 . S
C1394 C1396 1.378 . S
C1394 C1398 1.350 . S
C1395 C1398 1.463 . S
C1395 C1400 1.350 . S
C1395 N1403 1.427 . S
C1396 H1387 0.930 . S
C1396 C1394 1.378 . S
C1396 C1397 1.367 . S
C1397 C1396 1.367 . S
C1397 C1399 1.433 . S
C1398 C1394 1.350 . S
C1398 C1395 1.463 . S
C1398 N1402 1.427 . S
C1399 H1389 0.929 . S
C1399 C1397 1.433 . S
C1399 N1402 1.384 . S
C1400 H1391 0.929 . S
C1400 C1392 1.378 . S
C1400 C1395 1.350 . S
C1401 H1388 0.929 . S
C1401 C1393 1.433 . S
C1401 N1403 1.384 . S
N1402 C1398 1.427 . S
N1402 C1399 1.384 . S
N1403 C1395 1.427 . S
N1403 C1401 1.384 . S
H1404 C1410 0.930 . S
H1405 C1414 0.930 . S
H1406 C1419 0.929 . S
H1407 C1417 0.929 . S
H1408 C1412 0.929 . S
H1409 C1418 0.929 . S
C1410 H1404 0.930 . S
C1410 C1411 1.367 . S
C1410 C1418 1.378 . S
C1411 C1410 1.367 . S
C1411 C1419 1.433 . S
C1412 H1408 0.929 . S
C1412 C1414 1.378 . S
C1412 C1416 1.350 . S
C1413 C1416 1.463 . S
C1413 C1418 1.350 . S
C1413 N1421 1.427 . S
C1414 H1405 0.930 . S
C1414 C1412 1.378 . S
C1414 C1415 1.367 . S
C1415 C1414 1.367 . S
C1415 C1417 1.433 . S
C1416 C1412 1.350 . S
C1416 C1413 1.463 . S
C1416 N1420 1.427 . S
C1417 H1407 0.929 . S
C1417 C1415 1.433 . S
C1417 N1420 1.384 . S
C1418 H1409 0.929 . S
C1418 C1410 1.378 . S
C1418 C1413 1.350 . S
C1419 H1406 0.929 . S
C1419 C1411 1.433 . S
C1419 N1421 1.384 . S
N1420 C1416 1.427 . S
N1420 C1417 1.384 . S
N1421 C1413 1.427 . S
N1421 C1419 1.384 . S
H1422 C1428 0.930 . S
H1423 C1432 0.930 . S
H1424 C1437 0.929 . S
H1425 C1435 0.929 . S
H1426 C1430 0.882 1_545 S
H1427 C1436 0.881 1_565 S
C1428 H1422 0.930 . S
C1428 C1429 1.367 . S
C1428 C1436 1.378 . S
C1429 C1428 1.367 . S
C1429 C1437 1.433 . S
C1430 H1426 0.882 1_565 S
C1430 C1432 1.378 . S
C1430 C1434 1.350 . S
C1431 C1434 1.463 1_545 S
C1431 C1436 1.350 . S
C1431 N1439 1.427 . S
C1432 H1423 0.930 . S
C1432 C1430 1.378 . S
C1432 C1433 1.367 . S
C1433 C1432 1.367 . S
C1433 C1435 1.433 . S
C1434 C1430 1.350 . S
C1434 C1431 1.463 1_565 S
C1434 N1438 1.427 . S
C1435 H1425 0.929 . S
C1435 C1433 1.433 . S
C1435 N1438 1.384 . S
C1436 H1427 0.881 1_545 S
C1436 C1428 1.378 . S
C1436 C1431 1.350 . S
C1437 H1424 0.929 . S
C1437 C1429 1.433 . S
C1437 N1439 1.384 . S
N1438 C1434 1.427 . S
N1438 C1435 1.384 . S
N1439 C1431 1.427 . S
N1439 C1437 1.384 . S
H1440 C1446 0.930 . S
H1441 C1450 0.930 . S
H1442 C1455 0.929 . S
H1443 C1453 0.929 . S
H1444 C1448 0.929 . S
H1445 C1454 0.929 . S
C1446 H1440 0.930 . S
C1446 C1447 1.367 . S
C1446 C1454 1.378 . S
C1447 C1446 1.367 . S
C1447 C1455 1.433 . S
C1448 H1444 0.929 . S
C1448 C1450 1.378 . S
C1448 C1452 1.350 . S
C1449 C1452 1.463 1_455 S
C1449 C1454 1.350 . S
C1449 N1457 1.427 . S
C1450 H1441 0.930 . S
C1450 C1448 1.378 . S
C1450 C1451 1.367 . S
C1451 C1450 1.367 . S
C1451 C1453 1.433 . S
C1452 C1448 1.350 . S
C1452 C1449 1.463 1_655 S
C1452 N1456 1.427 . S
C1453 H1443 0.929 . S
C1453 C1451 1.433 . S
C1453 N1456 1.384 . S
C1454 H1445 0.929 . S
C1454 C1446 1.378 . S
C1454 C1449 1.350 . S
C1455 H1442 0.929 . S
C1455 C1447 1.433 . S
C1455 N1457 1.384 . S
N1456 C1452 1.427 . S
N1456 C1453 1.384 . S
N1457 C1449 1.427 . S
N1457 C1455 1.384 . S
H1458 C1464 0.930 . S
H1459 C1468 0.930 . S
H1460 C1473 0.929 . S
H1461 C1471 0.929 . S
H1462 C1466 0.929 . S
H1463 C1472 0.929 . S
C1464 H1458 0.930 . S
C1464 C1465 1.367 . S
C1464 C1472 1.378 . S
C1465 C1464 1.367 . S
C1465 C1473 1.433 . S
C1466 H1462 0.929 . S
C1466 C1468 1.378 . S
C1466 C1470 1.350 . S
C1467 C1470 1.463 . S
C1467 C1472 1.350 . S
C1467 N1475 1.427 . S
C1468 H1459 0.930 . S
C1468 C1466 1.378 . S
C1468 C1469 1.367 . S
C1469 C1468 1.367 . S
C1469 C1471 1.433 . S
C1470 C1466 1.350 . S
C1470 C1467 1.463 . S
C1470 N1474 1.427 . S
C1471 H1461 0.929 . S
C1471 C1469 1.433 . S
C1471 N1474 1.384 . S
C1472 H1463 0.929 . S
C1472 C1464 1.378 . S
C1472 C1467 1.350 . S
C1473 H1460 0.929 . S
C1473 C1465 1.433 . S
C1473 N1475 1.384 . S
N1474 C1470 1.427 . S
N1474 C1471 1.384 . S
N1475 C1467 1.427 . S
N1475 C1473 1.384 . S
H1476 C1482 0.930 . S
H1477 C1486 0.930 . S
H1478 C1491 0.929 . S
H1479 C1489 0.929 . S
H1480 C1484 0.929 . S
H1481 C1490 0.929 . S
C1482 H1476 0.930 . S
C1482 C1483 1.367 . S
C1482 C1490 1.378 . S
C1483 C1482 1.367 . S
C1483 C1491 1.433 . S
C1484 H1480 0.929 . S
C1484 C1486 1.378 . S
C1484 C1488 1.350 . S
C1485 C1488 1.463 1_565 S
C1485 C1490 1.350 . S
C1485 N1493 1.427 . S
C1486 H1477 0.930 . S
C1486 C1484 1.378 . S
C1486 C1487 1.367 . S
C1487 C1486 1.367 . S
C1487 C1489 1.433 . S
C1488 C1484 1.350 . S
C1488 C1485 1.463 1_545 S
C1488 N1492 1.427 . S
C1489 H1479 0.929 . S
C1489 C1487 1.433 . S
C1489 N1492 1.384 . S
C1490 H1481 0.929 . S
C1490 C1482 1.378 . S
C1490 C1485 1.350 . S
C1491 H1478 0.929 . S
C1491 C1483 1.433 . S
C1491 N1493 1.384 . S
N1492 C1488 1.427 . S
N1492 C1489 1.384 . S
N1493 C1485 1.427 . S
N1493 C1491 1.384 . S
H1494 C1500 0.930 . S
H1495 C1504 0.930 . S
H1496 C1509 0.929 . S
H1497 C1507 0.929 . S
H1498 C1502 0.929 . S
H1499 C1508 0.929 . S
C1500 H1494 0.930 . S
C1500 C1501 1.367 . S
C1500 C1508 1.378 . S
C1501 C1500 1.367 . S
C1501 C1509 1.433 . S
C1502 H1498 0.929 . S
C1502 C1504 1.378 . S
C1502 C1506 1.350 . S
C1503 C1506 1.463 1_655 S
C1503 C1508 1.350 . S
C1503 N1511 1.427 . S
C1504 H1495 0.930 . S
C1504 C1502 1.378 . S
C1504 C1505 1.367 . S
C1505 C1504 1.367 . S
C1505 C1507 1.433 . S
C1506 C1502 1.350 . S
C1506 C1503 1.463 1_455 S
C1506 N1510 1.427 . S
C1507 H1497 0.929 . S
C1507 C1505 1.433 . S
C1507 N1510 1.384 . S
C1508 H1499 0.929 . S
C1508 C1500 1.378 . S
C1508 C1503 1.350 . S
C1509 H1496 0.929 . S
C1509 C1501 1.433 . S
C1509 N1511 1.384 . S
N1510 C1506 1.427 . S
N1510 C1507 1.384 . S
N1511 C1503 1.427 . S
N1511 C1509 1.384 . S
H1512 C1518 0.930 . S
H1513 C1522 0.930 . S
H1514 C1527 0.929 . S
H1515 C1525 0.929 . S
H1516 C1520 0.929 . S
H1517 C1526 0.929 . S
C1518 H1512 0.930 . S
C1518 C1519 1.367 1_556 S
C1518 C1526 1.378 . S
C1519 C1518 1.367 1_554 S
C1519 C1527 1.433 . S
C1520 H1516 0.929 . S
C1520 C1522 1.378 . S
C1520 C1524 1.350 . S
C1521 C1524 1.463 . S
C1521 C1526 1.350 1_554 S
C1521 N1529 1.427 . S
C1522 H1513 0.930 . S
C1522 C1520 1.378 . S
C1522 C1523 1.367 . S
C1523 C1522 1.367 . S
C1523 C1525 1.433 1_554 S
C1524 C1520 1.350 . S
C1524 C1521 1.463 . S
C1524 N1528 1.427 1_554 S
C1525 H1515 0.929 . S
C1525 C1523 1.433 1_556 S
C1525 N1528 1.384 . S
C1526 H1517 0.929 . S
C1526 C1518 1.378 . S
C1526 C1521 1.350 1_556 S
C1527 H1514 0.929 . S
C1527 C1519 1.433 . S
C1527 N1529 1.384 . S
N1528 C1524 1.427 1_556 S
N1528 C1525 1.384 . S
N1529 C1521 1.427 . S
N1529 C1527 1.384 . S
H1530 C1536 0.930 . S
H1531 C1540 0.930 . S
H1532 C1545 0.929 . S
H1533 C1543 0.929 . S
H1534 C1538 0.929 . S
H1535 C1544 0.929 . S
C1536 H1530 0.930 . S
C1536 C1537 1.367 1_556 S
C1536 C1544 1.378 . S
C1537 C1536 1.367 1_554 S
C1537 C1545 1.433 . S
C1538 H1534 0.929 . S
C1538 C1540 1.378 . S
C1538 C1542 1.350 . S
C1539 C1542 1.463 . S
C1539 C1544 1.350 1_554 S
C1539 N1547 1.427 . S
C1540 H1531 0.930 . S
C1540 C1538 1.378 . S
C1540 C1541 1.367 . S
C1541 C1540 1.367 . S
C1541 C1543 1.433 1_554 S
C1542 C1538 1.350 . S
C1542 C1539 1.463 . S
C1542 N1546 1.427 1_554 S
C1543 H1533 0.929 . S
C1543 C1541 1.433 1_556 S
C1543 N1546 1.384 . S
C1544 H1535 0.929 . S
C1544 C1536 1.378 . S
C1544 C1539 1.350 1_556 S
C1545 H1532 0.929 . S
C1545 C1537 1.433 . S
C1545 N1547 1.384 . S
N1546 C1542 1.427 1_556 S
N1546 C1543 1.384 . S
N1547 C1539 1.427 . S
N1547 C1545 1.384 . S
H1548 C1554 0.930 . S
H1549 C1558 0.930 . S
H1550 C1563 0.929 . S
H1551 C1561 0.929 . S
H1552 C1556 0.929 . S
H1553 C1562 0.929 . S
C1554 H1548 0.930 . S
C1554 C1555 1.367 1_556 S
C1554 C1562 1.378 . S
C1555 C1554 1.367 1_554 S
C1555 C1563 1.433 . S
C1556 H1552 0.929 . S
C1556 C1558 1.378 . S
C1556 C1560 1.350 . S
C1557 C1560 1.463 . S
C1557 C1562 1.350 1_554 S
C1557 N1565 1.427 . S
C1558 H1549 0.930 . S
C1558 C1556 1.378 . S
C1558 C1559 1.367 . S
C1559 C1558 1.367 . S
C1559 C1561 1.433 1_554 S
C1560 C1556 1.350 . S
C1560 C1557 1.463 . S
C1560 N1564 1.427 1_554 S
C1561 H1551 0.929 . S
C1561 C1559 1.433 1_556 S
C1561 N1564 1.384 . S
C1562 H1553 0.929 . S
C1562 C1554 1.378 . S
C1562 C1557 1.350 1_556 S
C1563 H1550 0.929 . S
C1563 C1555 1.433 . S
C1563 N1565 1.384 . S
N1564 C1560 1.427 1_556 S
N1564 C1561 1.384 . S
N1565 C1557 1.427 . S
N1565 C1563 1.384 . S
H1566 C1572 0.930 . S
H1567 C1576 0.930 . S
H1568 C1581 0.929 . S
H1569 C1579 0.929 . S
H1570 C1574 0.929 . S
H1571 C1580 0.929 . S
C1572 H1566 0.930 . S
C1572 C1573 1.367 1_554 S
C1572 C1580 1.378 . S
C1573 C1572 1.367 1_556 S
C1573 C1581 1.433 . S
C1574 H1570 0.929 . S
C1574 C1576 1.378 . S
C1574 C1578 1.350 . S
C1575 C1578 1.463 . S
C1575 C1580 1.350 1_556 S
C1575 N1583 1.427 . S
C1576 H1567 0.930 . S
C1576 C1574 1.378 . S
C1576 C1577 1.367 . S
C1577 C1576 1.367 . S
C1577 C1579 1.433 1_556 S
C1578 C1574 1.350 . S
C1578 C1575 1.463 . S
C1578 N1582 1.427 1_556 S
C1579 H1569 0.929 . S
C1579 C1577 1.433 1_554 S
C1579 N1582 1.384 . S
C1580 H1571 0.929 . S
C1580 C1572 1.378 . S
C1580 C1575 1.350 1_554 S
C1581 H1568 0.929 . S
C1581 C1573 1.433 . S
C1581 N1583 1.384 . S
N1582 C1578 1.427 1_554 S
N1582 C1579 1.384 . S
N1583 C1575 1.427 . S
N1583 C1581 1.384 . S
H1584 C1590 0.930 . S
H1585 C1594 0.930 . S
H1586 C1599 0.929 . S
H1587 C1597 0.929 . S
H1588 C1592 0.929 . S
H1589 C1598 0.929 . S
C1590 H1584 0.930 . S
C1590 C1591 1.367 . S
C1590 C1598 1.378 . S
C1591 C1590 1.367 . S
C1591 C1599 1.433 1_556 S
C1592 H1588 0.929 . S
C1592 C1594 1.378 . S
C1592 C1596 1.350 1_554 S
C1593 C1596 1.463 . S
C1593 C1598 1.350 . S
C1593 N1601 1.427 1_556 S
C1594 H1585 0.930 . S
C1594 C1592 1.378 . S
C1594 C1595 1.367 1_554 S
C1595 C1594 1.367 1_556 S
C1595 C1597 1.433 . S
C1596 C1592 1.350 1_556 S
C1596 C1593 1.463 . S
C1596 N1600 1.427 . S
C1597 H1587 0.929 . S
C1597 C1595 1.433 . S
C1597 N1600 1.384 . S
C1598 H1589 0.929 . S
C1598 C1590 1.378 . S
C1598 C1593 1.350 . S
C1599 H1586 0.929 . S
C1599 C1591 1.433 1_554 S
C1599 N1601 1.384 . S
N1600 C1596 1.427 . S
N1600 C1597 1.384 . S
N1601 C1593 1.427 1_554 S
N1601 C1599 1.384 . S
H1602 C1608 0.930 . S
H1603 C1612 0.930 . S
H1604 C1617 0.929 . S
H1605 C1615 0.929 . S
H1606 C1610 0.929 . S
H1607 C1616 0.929 . S
C1608 H1602 0.930 . S
C1608 C1609 1.367 . S
C1608 C1616 1.378 . S
C1609 C1608 1.367 . S
C1609 C1617 1.433 1_556 S
C1610 H1606 0.929 . S
C1610 C1612 1.378 . S
C1610 C1614 1.350 1_554 S
C1611 C1614 1.463 . S
C1611 C1616 1.350 . S
C1611 N1619 1.427 1_556 S
C1612 H1603 0.930 . S
C1612 C1610 1.378 . S
C1612 C1613 1.367 1_554 S
C1613 C1612 1.367 1_556 S
C1613 C1615 1.433 . S
C1614 C1610 1.350 1_556 S
C1614 C1611 1.463 . S
C1614 N1618 1.427 . S
C1615 H1605 0.929 . S
C1615 C1613 1.433 . S
C1615 N1618 1.384 . S
C1616 H1607 0.929 . S
C1616 C1608 1.378 . S
C1616 C1611 1.350 . S
C1617 H1604 0.929 . S
C1617 C1609 1.433 1_554 S
C1617 N1619 1.384 . S
N1618 C1614 1.427 . S
N1618 C1615 1.384 . S
N1619 C1611 1.427 1_554 S
N1619 C1617 1.384 . S
H1620 C1626 0.930 . S
H1621 C1630 0.930 . S
H1622 C1635 0.929 . S
H1623 C1633 0.929 . S
H1624 C1628 0.929 . S
H1625 C1634 0.929 . S
C1626 H1620 0.930 . S
C1626 C1627 1.367 . S
C1626 C1634 1.378 . S
C1627 C1626 1.367 . S
C1627 C1635 1.433 . S
C1628 H1624 0.929 . S
C1628 C1630 1.378 . S
C1628 C1632 1.350 . S
C1629 C1632 1.463 . S
C1629 C1634 1.350 . S
C1629 N1637 1.427 . S
C1630 H1621 0.930 . S
C1630 C1628 1.378 . S
C1630 C1631 1.367 . S
C1631 C1630 1.367 . S
C1631 C1633 1.433 . S
C1632 C1628 1.350 . S
C1632 C1629 1.463 . S
C1632 N1636 1.427 . S
C1633 H1623 0.929 . S
C1633 C1631 1.433 . S
C1633 N1636 1.384 . S
C1634 H1625 0.929 . S
C1634 C1626 1.378 . S
C1634 C1629 1.350 . S
C1635 H1622 0.929 . S
C1635 C1627 1.433 . S
C1635 N1637 1.384 . S
N1636 C1632 1.427 . S
N1636 C1633 1.384 . S
N1637 C1629 1.427 . S
N1637 C1635 1.384 . S
H1638 C1644 0.930 . S
H1639 C1648 0.930 . S
H1640 C1653 0.929 . S
H1641 C1651 0.929 . S
H1642 C1646 0.929 . S
H1643 C1652 0.929 . S
C1644 H1638 0.930 . S
C1644 C1645 1.367 . S
C1644 C1652 1.378 . S
C1645 C1644 1.367 . S
C1645 C1653 1.433 . S
C1646 H1642 0.929 . S
C1646 C1648 1.378 . S
C1646 C1650 1.350 . S
C1647 C1650 1.463 . S
C1647 C1652 1.350 . S
C1647 N1655 1.427 . S
C1648 H1639 0.930 . S
C1648 C1646 1.378 . S
C1648 C1649 1.367 . S
C1649 C1648 1.367 . S
C1649 C1651 1.433 . S
C1650 C1646 1.350 . S
C1650 C1647 1.463 . S
C1650 N1654 1.427 . S
C1651 H1641 0.929 . S
C1651 C1649 1.433 . S
C1651 N1654 1.384 . S
C1652 H1643 0.929 . S
C1652 C1644 1.378 . S
C1652 C1647 1.350 . S
C1653 H1640 0.929 . S
C1653 C1645 1.433 . S
C1653 N1655 1.384 . S
N1654 C1650 1.427 . S
N1654 C1651 1.384 . S
N1655 C1647 1.427 . S
N1655 C1653 1.384 . S
H1656 C1662 0.930 . S
H1657 C1666 0.930 . S
H1658 C1671 0.929 . S
H1659 C1669 0.929 . S
H1660 C1664 0.929 . S
H1661 C1670 0.929 . S
C1662 H1656 0.930 . S
C1662 C1663 1.367 . S
C1662 C1670 1.378 . S
C1663 C1662 1.367 . S
C1663 C1671 1.433 . S
C1664 H1660 0.929 . S
C1664 C1666 1.378 . S
C1664 C1668 1.350 . S
C1665 C1668 1.463 . S
C1665 C1670 1.350 . S
C1665 N1673 1.427 . S
C1666 H1657 0.930 . S
C1666 C1664 1.378 . S
C1666 C1667 1.367 . S
C1667 C1666 1.367 . S
C1667 C1669 1.433 . S
C1668 C1664 1.350 . S
C1668 C1665 1.463 . S
C1668 N1672 1.427 . S
C1669 H1659 0.929 . S
C1669 C1667 1.433 . S
C1669 N1672 1.384 . S
C1670 H1661 0.929 . S
C1670 C1662 1.378 . S
C1670 C1665 1.350 . S
C1671 H1658 0.929 . S
C1671 C1663 1.433 . S
C1671 N1673 1.384 . S
N1672 C1668 1.427 . S
N1672 C1669 1.384 . S
N1673 C1665 1.427 . S
N1673 C1671 1.384 . S
H1674 C1680 0.930 . S
H1675 C1684 0.930 . S
H1676 C1689 0.929 . S
H1677 C1687 0.929 . S
H1678 C1682 0.929 . S
H1679 C1688 0.929 . S
C1680 H1674 0.930 . S
C1680 C1681 1.367 . S
C1680 C1688 1.378 . S
C1681 C1680 1.367 . S
C1681 C1689 1.433 . S
C1682 H1678 0.929 . S
C1682 C1684 1.378 . S
C1682 C1686 1.350 . S
C1683 C1686 1.463 . S
C1683 C1688 1.350 . S
C1683 N1691 1.427 . S
C1684 H1675 0.930 . S
C1684 C1682 1.378 . S
C1684 C1685 1.367 . S
C1685 C1684 1.367 . S
C1685 C1687 1.433 . S
C1686 C1682 1.350 . S
C1686 C1683 1.463 . S
C1686 N1690 1.427 . S
C1687 H1677 0.929 . S
C1687 C1685 1.433 . S
C1687 N1690 1.384 . S
C1688 H1679 0.929 . S
C1688 C1680 1.378 . S
C1688 C1683 1.350 . S
C1689 H1676 0.929 . S
C1689 C1681 1.433 . S
C1689 N1691 1.384 . S
N1690 C1686 1.427 . S
N1690 C1687 1.384 . S
N1691 C1683 1.427 . S
N1691 C1689 1.384 . S
H1692 C1698 0.930 . S
H1693 C1702 0.930 . S
H1694 C1707 0.929 . S
H1695 C1705 0.929 . S
H1696 C1700 0.929 . S
H1697 C1706 0.929 . S
C1698 H1692 0.930 . S
C1698 C1699 1.367 . S
C1698 C1706 1.378 . S
C1699 C1698 1.367 . S
C1699 C1707 1.433 . S
C1700 H1696 0.929 . S
C1700 C1702 1.378 . S
C1700 C1704 1.350 . S
C1701 C1704 1.463 . S
C1701 C1706 1.350 . S
C1701 N1709 1.427 . S
C1702 H1693 0.930 . S
C1702 C1700 1.378 . S
C1702 C1703 1.367 . S
C1703 C1702 1.367 . S
C1703 C1705 1.433 . S
C1704 C1700 1.350 . S
C1704 C1701 1.463 . S
C1704 N1708 1.427 . S
C1705 H1695 0.929 . S
C1705 C1703 1.433 . S
C1705 N1708 1.384 . S
C1706 H1697 0.929 . S
C1706 C1698 1.378 . S
C1706 C1701 1.350 . S
C1707 H1694 0.929 . S
C1707 C1699 1.433 . S
C1707 N1709 1.384 . S
N1708 C1704 1.427 . S
N1708 C1705 1.384 . S
N1709 C1701 1.427 . S
N1709 C1707 1.384 . S
H1710 C1716 0.930 . S
H1711 C1720 0.930 . S
H1712 C1725 0.929 . S
H1713 C1723 0.929 . S
H1714 C1718 0.929 . S
H1715 C1724 0.929 . S
C1716 H1710 0.930 . S
C1716 C1717 1.367 . S
C1716 C1724 1.378 . S
C1717 C1716 1.367 . S
C1717 C1725 1.433 . S
C1718 H1714 0.929 . S
C1718 C1720 1.378 . S
C1718 C1722 1.350 . S
C1719 C1722 1.463 . S
C1719 C1724 1.350 . S
C1719 N1727 1.427 . S
C1720 H1711 0.930 . S
C1720 C1718 1.378 . S
C1720 C1721 1.367 . S
C1721 C1720 1.367 . S
C1721 C1723 1.433 . S
C1722 C1718 1.350 . S
C1722 C1719 1.463 . S
C1722 N1726 1.427 . S
C1723 H1713 0.929 . S
C1723 C1721 1.433 . S
C1723 N1726 1.384 . S
C1724 H1715 0.929 . S
C1724 C1716 1.378 . S
C1724 C1719 1.350 . S
C1725 H1712 0.929 . S
C1725 C1717 1.433 . S
C1725 N1727 1.384 . S
N1726 C1722 1.427 . S
N1726 C1723 1.384 . S
N1727 C1719 1.427 . S
N1727 C1725 1.384 . S
H1728 C1734 0.930 . S
H1729 C1738 0.930 . S
H1730 C1743 0.929 . S
H1731 C1741 0.929 . S
H1732 C1736 0.929 . S
H1733 C1742 0.929 . S
C1734 H1728 0.930 . S
C1734 C1735 1.367 . S
C1734 C1742 1.378 . S
C1735 C1734 1.367 . S
C1735 C1743 1.433 . S
C1736 H1732 0.929 . S
C1736 C1738 1.378 . S
C1736 C1740 1.350 . S
C1737 C1740 1.463 . S
C1737 C1742 1.350 . S
C1737 N1745 1.427 . S
C1738 H1729 0.930 . S
C1738 C1736 1.378 . S
C1738 C1739 1.367 . S
C1739 C1738 1.367 . S
C1739 C1741 1.433 . S
C1740 C1736 1.350 . S
C1740 C1737 1.463 . S
C1740 N1744 1.427 . S
C1741 H1731 0.929 . S
C1741 C1739 1.433 . S
C1741 N1744 1.384 . S
C1742 H1733 0.929 . S
C1742 C1734 1.378 . S
C1742 C1737 1.350 . S
C1743 H1730 0.929 . S
C1743 C1735 1.433 . S
C1743 N1745 1.384 . S
N1744 C1740 1.427 . S
N1744 C1741 1.384 . S
N1745 C1737 1.427 . S
N1745 C1743 1.384 . S
H1746 C1752 0.930 . S
H1747 C1756 0.930 . S
H1748 C1761 0.929 . S
H1749 C1759 0.929 . S
H1750 C1754 0.929 . S
H1751 C1760 0.929 . S
C1752 H1746 0.930 . S
C1752 C1753 1.367 . S
C1752 C1760 1.378 . S
C1753 C1752 1.367 . S
C1753 C1761 1.433 . S
C1754 H1750 0.929 . S
C1754 C1756 1.378 . S
C1754 C1758 1.350 . S
C1755 C1758 1.463 . S
C1755 C1760 1.350 . S
C1755 N1763 1.427 . S
C1756 H1747 0.930 . S
C1756 C1754 1.378 . S
C1756 C1757 1.367 . S
C1757 C1756 1.367 . S
C1757 C1759 1.433 . S
C1758 C1754 1.350 . S
C1758 C1755 1.463 . S
C1758 N1762 1.427 . S
C1759 H1749 0.929 . S
C1759 C1757 1.433 . S
C1759 N1762 1.384 . S
C1760 H1751 0.929 . S
C1760 C1752 1.378 . S
C1760 C1755 1.350 . S
C1761 H1748 0.929 . S
C1761 C1753 1.433 . S
C1761 N1763 1.384 . S
N1762 C1758 1.427 . S
N1762 C1759 1.384 . S
N1763 C1755 1.427 . S
N1763 C1761 1.384 . S
H1764 C1770 0.930 . S
H1765 C1774 0.930 . S
H1766 C1779 0.929 . S
H1767 C1777 0.929 . S
H1768 C1772 0.929 . S
H1769 C1778 0.929 . S
C1770 H1764 0.930 . S
C1770 C1771 1.367 . S
C1770 C1778 1.378 . S
C1771 C1770 1.367 . S
C1771 C1779 1.433 . S
C1772 H1768 0.929 . S
C1772 C1774 1.378 . S
C1772 C1776 1.350 . S
C1773 C1776 1.463 . S
C1773 C1778 1.350 . S
C1773 N1781 1.427 . S
C1774 H1765 0.930 . S
C1774 C1772 1.378 . S
C1774 C1775 1.367 . S
C1775 C1774 1.367 . S
C1775 C1777 1.433 . S
C1776 C1772 1.350 . S
C1776 C1773 1.463 . S
C1776 N1780 1.427 . S
C1777 H1767 0.929 . S
C1777 C1775 1.433 . S
C1777 N1780 1.384 . S
C1778 H1769 0.929 . S
C1778 C1770 1.378 . S
C1778 C1773 1.350 . S
C1779 H1766 0.929 . S
C1779 C1771 1.433 . S
C1779 N1781 1.384 . S
N1780 C1776 1.427 . S
N1780 C1777 1.384 . S
N1781 C1773 1.427 . S
N1781 C1779 1.384 . S
H1782 C1788 0.930 . S
H1783 C1792 0.930 . S
H1784 C1797 0.929 . S
H1785 C1795 0.929 . S
H1786 C1790 0.929 . S
H1787 C1796 0.929 . S
C1788 H1782 0.930 . S
C1788 C1789 1.367 . S
C1788 C1796 1.378 . S
C1789 C1788 1.367 . S
C1789 C1797 1.433 . S
C1790 H1786 0.929 . S
C1790 C1792 1.378 . S
C1790 C1794 1.350 . S
C1791 C1794 1.463 . S
C1791 C1796 1.350 . S
C1791 N1799 1.427 . S
C1792 H1783 0.930 . S
C1792 C1790 1.378 . S
C1792 C1793 1.367 . S
C1793 C1792 1.367 . S
C1793 C1795 1.433 . S
C1794 C1790 1.350 . S
C1794 C1791 1.463 . S
C1794 N1798 1.427 . S
C1795 H1785 0.929 . S
C1795 C1793 1.433 . S
C1795 N1798 1.384 . S
C1796 H1787 0.929 . S
C1796 C1788 1.378 . S
C1796 C1791 1.350 . S
C1797 H1784 0.929 . S
C1797 C1789 1.433 . S
C1797 N1799 1.384 . S
N1798 C1794 1.427 . S
N1798 C1795 1.384 . S
N1799 C1791 1.427 . S
N1799 C1797 1.384 . S
H1800 C1806 0.930 . S
H1801 C1810 0.930 . S
H1802 C1815 0.929 . S
H1803 C1813 0.929 . S
H1804 C1808 0.929 . S
H1805 C1814 0.929 . S
C1806 H1800 0.930 . S
C1806 C1807 1.367 . S
C1806 C1814 1.378 . S
C1807 C1806 1.367 . S
C1807 C1815 1.433 . S
C1808 H1804 0.929 . S
C1808 C1810 1.378 . S
C1808 C1812 1.350 . S
C1809 C1812 1.463 . S
C1809 C1814 1.350 . S
C1809 N1817 1.427 . S
C1810 H1801 0.930 . S
C1810 C1808 1.378 . S
C1810 C1811 1.367 . S
C1811 C1810 1.367 . S
C1811 C1813 1.433 . S
C1812 C1808 1.350 . S
C1812 C1809 1.463 . S
C1812 N1816 1.427 . S
C1813 H1803 0.929 . S
C1813 C1811 1.433 . S
C1813 N1816 1.384 . S
C1814 H1805 0.929 . S
C1814 C1806 1.378 . S
C1814 C1809 1.350 . S
C1815 H1802 0.929 . S
C1815 C1807 1.433 . S
C1815 N1817 1.384 . S
N1816 C1812 1.427 . S
N1816 C1813 1.384 . S
N1817 C1809 1.427 . S
N1817 C1815 1.384 . S
H1818 C1824 0.930 . S
H1819 C1828 0.930 . S
H1820 C1833 0.929 . S
H1821 C1831 0.929 . S
H1822 C1826 0.929 . S
H1823 C1832 0.929 . S
C1824 H1818 0.930 . S
C1824 C1825 1.367 . S
C1824 C1832 1.378 . S
C1825 C1824 1.367 . S
C1825 C1833 1.433 . S
C1826 H1822 0.929 . S
C1826 C1828 1.378 . S
C1826 C1830 1.350 . S
C1827 C1830 1.463 . S
C1827 C1832 1.350 . S
C1827 N1835 1.427 . S
C1828 H1819 0.930 . S
C1828 C1826 1.378 . S
C1828 C1829 1.367 . S
C1829 C1828 1.367 . S
C1829 C1831 1.433 . S
C1830 C1826 1.350 . S
C1830 C1827 1.463 . S
C1830 N1834 1.427 . S
C1831 H1821 0.929 . S
C1831 C1829 1.433 . S
C1831 N1834 1.384 . S
C1832 H1823 0.929 . S
C1832 C1824 1.378 . S
C1832 C1827 1.350 . S
C1833 H1820 0.929 . S
C1833 C1825 1.433 . S
C1833 N1835 1.384 . S
N1834 C1830 1.427 . S
N1834 C1831 1.384 . S
N1835 C1827 1.427 . S
N1835 C1833 1.384 . S
H1836 C1842 0.930 . S
H1837 C1846 0.930 . S
H1838 C1851 0.929 . S
H1839 C1849 0.929 . S
H1840 C1844 0.929 . S
H1841 C1850 0.929 . S
C1842 H1836 0.930 . S
C1842 C1843 1.367 . S
C1842 C1850 1.378 . S
C1843 C1842 1.367 . S
C1843 C1851 1.433 . S
C1844 H1840 0.929 . S
C1844 C1846 1.378 . S
C1844 C1848 1.350 . S
C1845 C1848 1.463 . S
C1845 C1850 1.350 . S
C1845 N1853 1.427 . S
C1846 H1837 0.930 . S
C1846 C1844 1.378 . S
C1846 C1847 1.367 . S
C1847 C1846 1.367 . S
C1847 C1849 1.433 . S
C1848 C1844 1.350 . S
C1848 C1845 1.463 . S
C1848 N1852 1.427 . S
C1849 H1839 0.929 . S
C1849 C1847 1.433 . S
C1849 N1852 1.384 . S
C1850 H1841 0.929 . S
C1850 C1842 1.378 . S
C1850 C1845 1.350 . S
C1851 H1838 0.929 . S
C1851 C1843 1.433 . S
C1851 N1853 1.384 . S
N1852 C1848 1.427 . S
N1852 C1849 1.384 . S
N1853 C1845 1.427 . S
N1853 C1851 1.384 . S
H1854 C1860 0.930 . S
H1855 C1864 0.930 . S
H1856 C1869 0.929 1_554 S
H1857 C1867 0.929 . S
H1858 C1862 0.929 . S
H1859 C1868 0.929 . S
C1860 H1854 0.930 . S
C1860 C1861 1.367 . S
C1860 C1868 1.378 . S
C1861 C1860 1.367 . S
C1861 C1869 1.433 . S
C1862 H1858 0.929 . S
C1862 C1864 1.378 . S
C1862 C1866 1.350 . S
C1863 C1866 1.463 . S
C1863 C1868 1.350 . S
C1863 N1871 1.427 . S
C1864 H1855 0.930 . S
C1864 C1862 1.378 . S
C1864 C1865 1.367 . S
C1865 C1864 1.367 . S
C1865 C1867 1.433 . S
C1866 C1862 1.350 . S
C1866 C1863 1.463 . S
C1866 N1870 1.427 . S
C1867 H1857 0.929 . S
C1867 C1865 1.433 . S
C1867 N1870 1.384 . S
C1868 H1859 0.929 . S
C1868 C1860 1.378 . S
C1868 C1863 1.350 . S
C1869 H1856 0.929 1_556 S
C1869 C1861 1.433 . S
C1869 N1871 1.384 . S
N1870 C1866 1.427 . S
N1870 C1867 1.384 . S
N1871 C1863 1.427 . S
N1871 C1869 1.384 . S
H1872 C1878 0.930 1_554 S
H1873 C1882 0.930 . S
H1874 C1887 0.929 . S
H1875 C1885 0.929 . S
H1876 C1880 0.929 . S
H1877 C1886 0.929 . S
C1878 H1872 0.930 1_556 S
C1878 C1879 1.367 . S
C1878 C1886 1.378 . S
C1879 C1878 1.367 . S
C1879 C1887 1.433 . S
C1880 H1876 0.929 . S
C1880 C1882 1.378 . S
C1880 C1884 1.350 . S
C1881 C1884 1.463 . S
C1881 C1886 1.350 . S
C1881 N1889 1.427 . S
C1882 H1873 0.930 . S
C1882 C1880 1.378 . S
C1882 C1883 1.367 . S
C1883 C1882 1.367 . S
C1883 C1885 1.433 . S
C1884 C1880 1.350 . S
C1884 C1881 1.463 . S
C1884 N1888 1.427 . S
C1885 H1875 0.929 . S
C1885 C1883 1.433 . S
C1885 N1888 1.384 . S
C1886 H1877 0.929 . S
C1886 C1878 1.378 . S
C1886 C1881 1.350 . S
C1887 H1874 0.929 . S
C1887 C1879 1.433 . S
C1887 N1889 1.384 . S
N1888 C1884 1.427 . S
N1888 C1885 1.384 . S
N1889 C1881 1.427 . S
N1889 C1887 1.384 . S
H1890 C1896 0.930 . S
H1891 C1900 0.930 . S
H1892 C1905 0.929 . S
H1893 C1903 0.929 . S
H1894 C1898 0.929 . S
H1895 C1904 0.929 . S
C1896 H1890 0.930 . S
C1896 C1897 1.367 . S
C1896 C1904 1.378 . S
C1897 C1896 1.367 . S
C1897 C1905 1.433 . S
C1898 H1894 0.929 . S
C1898 C1900 1.378 . S
C1898 C1902 1.350 . S
C1899 C1902 1.463 . S
C1899 C1904 1.350 . S
C1899 N1907 1.427 . S
C1900 H1891 0.930 . S
C1900 C1898 1.378 . S
C1900 C1901 1.367 . S
C1901 C1900 1.367 . S
C1901 C1903 1.433 . S
C1902 C1898 1.350 . S
C1902 C1899 1.463 . S
C1902 N1906 1.427 . S
C1903 H1893 0.929 . S
C1903 C1901 1.433 . S
C1903 N1906 1.384 . S
C1904 H1895 0.929 . S
C1904 C1896 1.378 . S
C1904 C1899 1.350 . S
C1905 H1892 0.929 . S
C1905 C1897 1.433 . S
C1905 N1907 1.384 . S
N1906 C1902 1.427 . S
N1906 C1903 1.384 . S
N1907 C1899 1.427 . S
N1907 C1905 1.384 . S
H1908 C1914 0.930 . S
H1909 C1918 0.930 . S
H1910 C1923 0.929 . S
H1911 C1921 0.929 . S
H1912 C1916 0.929 . S
H1913 C1922 0.929 . S
C1914 H1908 0.930 . S
C1914 C1915 1.367 . S
C1914 C1922 1.378 . S
C1915 C1914 1.367 . S
C1915 C1923 1.433 . S
C1916 H1912 0.929 . S
C1916 C1918 1.378 . S
C1916 C1920 1.350 . S
C1917 C1920 1.463 . S
C1917 C1922 1.350 . S
C1917 N1925 1.427 . S
C1918 H1909 0.930 . S
C1918 C1916 1.378 . S
C1918 C1919 1.367 . S
C1919 C1918 1.367 . S
C1919 C1921 1.433 . S
C1920 C1916 1.350 . S
C1920 C1917 1.463 . S
C1920 N1924 1.427 . S
C1921 H1911 0.929 . S
C1921 C1919 1.433 . S
C1921 N1924 1.384 . S
C1922 H1913 0.929 . S
C1922 C1914 1.378 . S
C1922 C1917 1.350 . S
C1923 H1910 0.929 . S
C1923 C1915 1.433 . S
C1923 N1925 1.384 . S
N1924 C1920 1.427 . S
N1924 C1921 1.384 . S
N1925 C1917 1.427 . S
N1925 C1923 1.384 . S
H1926 C1932 0.930 . S
H1927 C1936 0.930 . S
H1928 C1941 0.929 . S
H1929 C1939 0.929 . S
H1930 C1934 0.929 . S
H1931 C1940 0.929 . S
C1932 H1926 0.930 . S
C1932 C1933 1.367 . S
C1932 C1940 1.378 . S
C1933 C1932 1.367 . S
C1933 C1941 1.433 . S
C1934 H1930 0.929 . S
C1934 C1936 1.378 . S
C1934 C1938 1.350 . S
C1935 C1938 1.463 . S
C1935 C1940 1.350 . S
C1935 N1943 1.427 . S
C1936 H1927 0.930 . S
C1936 C1934 1.378 . S
C1936 C1937 1.367 . S
C1937 C1936 1.367 . S
C1937 C1939 1.433 . S
C1938 C1934 1.350 . S
C1938 C1935 1.463 . S
C1938 N1942 1.427 . S
C1939 H1929 0.929 . S
C1939 C1937 1.433 . S
C1939 N1942 1.384 . S
C1940 H1931 0.929 . S
C1940 C1932 1.378 . S
C1940 C1935 1.350 . S
C1941 H1928 0.929 . S
C1941 C1933 1.433 . S
C1941 N1943 1.384 . S
N1942 C1938 1.427 . S
N1942 C1939 1.384 . S
N1943 C1935 1.427 . S
N1943 C1941 1.384 . S
H1944 C1950 0.930 . S
H1945 C1954 0.930 . S
H1946 C1959 0.929 . S
H1947 C1957 0.929 . S
H1948 C1952 0.929 . S
H1949 C1958 0.929 . S
C1950 H1944 0.930 . S
C1950 C1951 1.367 . S
C1950 C1958 1.378 . S
C1951 C1950 1.367 . S
C1951 C1959 1.433 . S
C1952 H1948 0.929 . S
C1952 C1954 1.378 . S
C1952 C1956 1.350 . S
C1953 C1956 1.463 . S
C1953 C1958 1.350 . S
C1953 N1961 1.427 . S
C1954 H1945 0.930 . S
C1954 C1952 1.378 . S
C1954 C1955 1.367 . S
C1955 C1954 1.367 . S
C1955 C1957 1.433 . S
C1956 C1952 1.350 . S
C1956 C1953 1.463 . S
C1956 N1960 1.427 . S
C1957 H1947 0.929 . S
C1957 C1955 1.433 . S
C1957 N1960 1.384 . S
C1958 H1949 0.929 . S
C1958 C1950 1.378 . S
C1958 C1953 1.350 . S
C1959 H1946 0.929 . S
C1959 C1951 1.433 . S
C1959 N1961 1.384 . S
N1960 C1956 1.427 . S
N1960 C1957 1.384 . S
N1961 C1953 1.427 . S
N1961 C1959 1.384 . S
H1962 C1968 0.930 . S
H1963 C1972 0.930 . S
H1964 C1977 0.929 . S
H1965 C1975 0.929 . S
H1966 C1970 0.929 . S
H1967 C1976 0.929 . S
C1968 H1962 0.930 . S
C1968 C1969 1.367 . S
C1968 C1976 1.378 . S
C1969 C1968 1.367 . S
C1969 C1977 1.433 . S
C1970 H1966 0.929 . S
C1970 C1972 1.378 . S
C1970 C1974 1.350 . S
C1971 C1974 1.463 . S
C1971 C1976 1.350 . S
C1971 N1979 1.427 . S
C1972 H1963 0.930 . S
C1972 C1970 1.378 . S
C1972 C1973 1.367 . S
C1973 C1972 1.367 . S
C1973 C1975 1.433 . S
C1974 C1970 1.350 . S
C1974 C1971 1.463 . S
C1974 N1978 1.427 . S
C1975 H1965 0.929 . S
C1975 C1973 1.433 . S
C1975 N1978 1.384 . S
C1976 H1967 0.929 . S
C1976 C1968 1.378 . S
C1976 C1971 1.350 . S
C1977 H1964 0.929 . S
C1977 C1969 1.433 . S
C1977 N1979 1.384 . S
N1978 C1974 1.427 . S
N1978 C1975 1.384 . S
N1979 C1971 1.427 . S
N1979 C1977 1.384 . S
H1980 C1986 0.930 . S
H1981 C1990 0.930 . S
H1982 C1995 0.929 . S
H1983 C1993 0.929 . S
H1984 C1988 0.929 . S
H1985 C1994 0.929 . S
C1986 H1980 0.930 . S
C1986 C1987 1.367 . S
C1986 C1994 1.378 . S
C1987 C1986 1.367 . S
C1987 C1995 1.433 . S
C1988 H1984 0.929 . S
C1988 C1990 1.378 . S
C1988 C1992 1.350 . S
C1989 C1992 1.463 . S
C1989 C1994 1.350 . S
C1989 N1997 1.427 . S
C1990 H1981 0.930 . S
C1990 C1988 1.378 . S
C1990 C1991 1.367 . S
C1991 C1990 1.367 . S
C1991 C1993 1.433 . S
C1992 C1988 1.350 . S
C1992 C1989 1.463 . S
C1992 N1996 1.427 . S
C1993 H1983 0.929 . S
C1993 C1991 1.433 . S
C1993 N1996 1.384 . S
C1994 H1985 0.929 . S
C1994 C1986 1.378 . S
C1994 C1989 1.350 . S
C1995 H1982 0.929 . S
C1995 C1987 1.433 . S
C1995 N1997 1.384 . S
N1996 C1992 1.427 . S
N1996 C1993 1.384 . S
N1997 C1989 1.427 . S
N1997 C1995 1.384 . S
H1998 C2004 0.930 . S
H1999 C2008 0.930 . S
H2000 C2013 0.929 . S
H2001 C2011 0.929 . S
H2002 C2006 0.929 . S
H2003 C2012 0.929 . S
C2004 H1998 0.930 . S
C2004 C2005 1.367 . S
C2004 C2012 1.378 . S
C2005 C2004 1.367 . S
C2005 C2013 1.433 . S
C2006 H2002 0.929 . S
C2006 C2008 1.378 . S
C2006 C2010 1.350 . S
C2007 C2010 1.463 . S
C2007 C2012 1.350 . S
C2007 N2015 1.427 . S
C2008 H1999 0.930 . S
C2008 C2006 1.378 . S
C2008 C2009 1.367 . S
C2009 C2008 1.367 . S
C2009 C2011 1.433 . S
C2010 C2006 1.350 . S
C2010 C2007 1.463 . S
C2010 N2014 1.427 . S
C2011 H2001 0.929 . S
C2011 C2009 1.433 . S
C2011 N2014 1.384 . S
C2012 H2003 0.929 . S
C2012 C2004 1.378 . S
C2012 C2007 1.350 . S
C2013 H2000 0.929 . S
C2013 C2005 1.433 . S
C2013 N2015 1.384 . S
N2014 C2010 1.427 . S
N2014 C2011 1.384 . S
N2015 C2007 1.427 . S
N2015 C2013 1.384 . S
H2016 C2022 0.930 . S
H2017 C2026 0.930 . S
H2018 C2031 0.929 . S
H2019 C2029 0.929 1_554 S
H2020 C2024 0.929 . S
H2021 C2030 0.929 . S
C2022 H2016 0.930 . S
C2022 C2023 1.367 . S
C2022 C2030 1.378 . S
C2023 C2022 1.367 . S
C2023 C2031 1.433 . S
C2024 H2020 0.929 . S
C2024 C2026 1.378 . S
C2024 C2028 1.350 . S
C2025 C2028 1.463 . S
C2025 C2030 1.350 . S
C2025 N2033 1.427 . S
C2026 H2017 0.930 . S
C2026 C2024 1.378 . S
C2026 C2027 1.367 . S
C2027 C2026 1.367 . S
C2027 C2029 1.433 . S
C2028 C2024 1.350 . S
C2028 C2025 1.463 . S
C2028 N2032 1.427 . S
C2029 H2019 0.929 1_556 S
C2029 C2027 1.433 . S
C2029 N2032 1.384 . S
C2030 H2021 0.929 . S
C2030 C2022 1.378 . S
C2030 C2025 1.350 . S
C2031 H2018 0.929 . S
C2031 C2023 1.433 . S
C2031 N2033 1.384 . S
N2032 C2028 1.427 . S
N2032 C2029 1.384 . S
N2033 C2025 1.427 . S
N2033 C2031 1.384 . S
H2034 C2040 0.930 . S
H2035 C2044 0.930 . S
H2036 C2049 0.929 . S
H2037 C2047 0.929 . S
H2038 C2042 0.929 . S
H2039 C2048 0.929 . S
C2040 H2034 0.930 . S
C2040 C2041 1.367 . S
C2040 C2048 1.378 . S
C2041 C2040 1.367 . S
C2041 C2049 1.433 . S
C2042 H2038 0.929 . S
C2042 C2044 1.378 . S
C2042 C2046 1.350 . S
C2043 C2046 1.463 . S
C2043 C2048 1.350 . S
C2043 N2051 1.427 . S
C2044 H2035 0.930 . S
C2044 C2042 1.378 . S
C2044 C2045 1.367 . S
C2045 C2044 1.367 . S
C2045 C2047 1.433 . S
C2046 C2042 1.350 . S
C2046 C2043 1.463 . S
C2046 N2050 1.427 . S
C2047 H2037 0.929 . S
C2047 C2045 1.433 . S
C2047 N2050 1.384 . S
C2048 H2039 0.929 . S
C2048 C2040 1.378 . S
C2048 C2043 1.350 . S
C2049 H2036 0.929 . S
C2049 C2041 1.433 . S
C2049 N2051 1.384 . S
N2050 C2046 1.427 . S
N2050 C2047 1.384 . S
N2051 C2043 1.427 . S
N2051 C2049 1.384 . S
H2052 C2058 0.930 . S
H2053 C2062 0.930 . S
H2054 C2067 0.929 . S
H2055 C2065 0.929 . S
H2056 C2060 0.929 . S
H2057 C2066 0.929 . S
C2058 H2052 0.930 . S
C2058 C2059 1.367 . S
C2058 C2066 1.378 . S
C2059 C2058 1.367 . S
C2059 C2067 1.433 . S
C2060 H2056 0.929 . S
C2060 C2062 1.378 . S
C2060 C2064 1.350 . S
C2061 C2064 1.463 1_455 S
C2061 C2066 1.350 . S
C2061 N2069 1.427 . S
C2062 H2053 0.930 . S
C2062 C2060 1.378 . S
C2062 C2063 1.367 . S
C2063 C2062 1.367 . S
C2063 C2065 1.433 . S
C2064 C2060 1.350 . S
C2064 C2061 1.463 1_655 S
C2064 N2068 1.427 . S
C2065 H2055 0.929 . S
C2065 C2063 1.433 . S
C2065 N2068 1.384 . S
C2066 H2057 0.929 . S
C2066 C2058 1.378 . S
C2066 C2061 1.350 . S
C2067 H2054 0.929 . S
C2067 C2059 1.433 . S
C2067 N2069 1.384 . S
N2068 C2064 1.427 . S
N2068 C2065 1.384 . S
N2069 C2061 1.427 . S
N2069 C2067 1.384 . S
H2070 C2076 0.930 . S
H2071 C2080 0.930 . S
H2072 C2085 0.929 . S
H2073 C2083 0.929 . S
H2074 C2078 0.929 . S
H2075 C2084 0.929 . S
C2076 H2070 0.930 . S
C2076 C2077 1.367 . S
C2076 C2084 1.378 . S
C2077 C2076 1.367 . S
C2077 C2085 1.433 . S
C2078 H2074 0.929 . S
C2078 C2080 1.378 . S
C2078 C2082 1.350 . S
C2079 C2082 1.463 . S
C2079 C2084 1.350 . S
C2079 N2087 1.427 . S
C2080 H2071 0.930 . S
C2080 C2078 1.378 . S
C2080 C2081 1.367 . S
C2081 C2080 1.367 . S
C2081 C2083 1.433 . S
C2082 C2078 1.350 . S
C2082 C2079 1.463 . S
C2082 N2086 1.427 . S
C2083 H2073 0.929 . S
C2083 C2081 1.433 . S
C2083 N2086 1.384 . S
C2084 H2075 0.929 . S
C2084 C2076 1.378 . S
C2084 C2079 1.350 . S
C2085 H2072 0.929 . S
C2085 C2077 1.433 . S
C2085 N2087 1.384 . S
N2086 C2082 1.427 . S
N2086 C2083 1.384 . S
N2087 C2079 1.427 . S
N2087 C2085 1.384 . S
H2088 C2094 0.930 . S
H2089 C2098 0.930 . S
H2090 C2103 0.929 . S
H2091 C2101 0.929 . S
H2092 C2096 0.929 . S
H2093 C2102 0.929 . S
C2094 H2088 0.930 . S
C2094 C2095 1.367 . S
C2094 C2102 1.378 . S
C2095 C2094 1.367 . S
C2095 C2103 1.433 . S
C2096 H2092 0.929 . S
C2096 C2098 1.378 . S
C2096 C2100 1.350 . S
C2097 C2100 1.463 1_565 S
C2097 C2102 1.350 . S
C2097 N2105 1.427 . S
C2098 H2089 0.930 . S
C2098 C2096 1.378 . S
C2098 C2099 1.367 . S
C2099 C2098 1.367 . S
C2099 C2101 1.433 . S
C2100 C2096 1.350 . S
C2100 C2097 1.463 1_545 S
C2100 N2104 1.427 . S
C2101 H2091 0.929 . S
C2101 C2099 1.433 . S
C2101 N2104 1.384 . S
C2102 H2093 0.929 . S
C2102 C2094 1.378 . S
C2102 C2097 1.350 . S
C2103 H2090 0.929 . S
C2103 C2095 1.433 . S
C2103 N2105 1.384 . S
N2104 C2100 1.427 . S
N2104 C2101 1.384 . S
N2105 C2097 1.427 . S
N2105 C2103 1.384 . S
H2106 C2112 0.930 . S
H2107 C2116 0.930 . S
H2108 C2121 0.929 . S
H2109 C2119 0.929 . S
H2110 C2114 0.929 . S
H2111 C2120 0.929 . S
C2112 H2106 0.930 . S
C2112 C2113 1.367 . S
C2112 C2120 1.378 . S
C2113 C2112 1.367 . S
C2113 C2121 1.433 . S
C2114 H2110 0.929 . S
C2114 C2116 1.378 . S
C2114 C2118 1.350 . S
C2115 C2118 1.463 1_565 S
C2115 C2120 1.350 . S
C2115 N2123 1.427 . S
C2116 H2107 0.930 . S
C2116 C2114 1.378 . S
C2116 C2117 1.367 . S
C2117 C2116 1.367 . S
C2117 C2119 1.433 . S
C2118 C2114 1.350 . S
C2118 C2115 1.463 1_545 S
C2118 N2122 1.427 . S
C2119 H2109 0.929 . S
C2119 C2117 1.433 . S
C2119 N2122 1.384 . S
C2120 H2111 0.929 . S
C2120 C2112 1.378 . S
C2120 C2115 1.350 . S
C2121 H2108 0.929 . S
C2121 C2113 1.433 . S
C2121 N2123 1.384 . S
N2122 C2118 1.427 . S
N2122 C2119 1.384 . S
N2123 C2115 1.427 . S
N2123 C2121 1.384 . S
H2124 C2130 0.930 . S
H2125 C2134 0.930 . S
H2126 C2139 0.929 . S
H2127 C2137 0.929 . S
H2128 C2132 0.884 1_455 S
H2129 C2138 0.883 1_655 S
C2130 H2124 0.930 . S
C2130 C2131 1.367 . S
C2130 C2138 1.378 . S
C2131 C2130 1.367 . S
C2131 C2139 1.433 . S
C2132 H2128 0.884 1_655 S
C2132 C2134 1.378 . S
C2132 C2136 1.350 . S
C2133 C2136 1.463 1_455 S
C2133 C2138 1.350 . S
C2133 N2141 1.427 . S
C2134 H2125 0.930 . S
C2134 C2132 1.378 . S
C2134 C2135 1.367 . S
C2135 C2134 1.367 . S
C2135 C2137 1.433 . S
C2136 C2132 1.350 . S
C2136 C2133 1.463 1_655 S
C2136 N2140 1.427 . S
C2137 H2127 0.929 . S
C2137 C2135 1.433 . S
C2137 N2140 1.384 . S
C2138 H2129 0.883 1_455 S
C2138 C2130 1.378 . S
C2138 C2133 1.350 . S
C2139 H2126 0.929 . S
C2139 C2131 1.433 . S
C2139 N2141 1.384 . S
N2140 C2136 1.427 . S
N2140 C2137 1.384 . S
N2141 C2133 1.427 . S
N2141 C2139 1.384 . S
H2142 C2148 0.930 . S
H2143 C2152 0.930 . S
H2144 C2157 0.929 . S
H2145 C2155 0.929 . S
H2146 C2150 0.929 . S
H2147 C2156 0.929 . S
C2148 H2142 0.930 . S
C2148 C2149 1.367 . S
C2148 C2156 1.378 . S
C2149 C2148 1.367 . S
C2149 C2157 1.433 . S
C2150 H2146 0.929 . S
C2150 C2152 1.378 . S
C2150 C2154 1.350 . S
C2151 C2154 1.463 . S
C2151 C2156 1.350 . S
C2151 N2159 1.427 . S
C2152 H2143 0.930 . S
C2152 C2150 1.378 . S
C2152 C2153 1.367 . S
C2153 C2152 1.367 . S
C2153 C2155 1.433 . S
C2154 C2150 1.350 . S
C2154 C2151 1.463 . S
C2154 N2158 1.427 . S
C2155 H2145 0.929 . S
C2155 C2153 1.433 . S
C2155 N2158 1.384 . S
C2156 H2147 0.929 . S
C2156 C2148 1.378 . S
C2156 C2151 1.350 . S
C2157 H2144 0.929 . S
C2157 C2149 1.433 . S
C2157 N2159 1.384 . S
N2158 C2154 1.427 . S
N2158 C2155 1.384 . S
N2159 C2151 1.427 . S
N2159 C2157 1.384 . S
H2160 C2166 0.930 . S
H2161 C2170 0.930 . S
H2162 C2175 0.929 . S
H2163 C2173 0.929 . S
H2164 C2168 0.929 . S
H2165 C2174 0.929 . S
C2166 H2160 0.930 . S
C2166 C2167 1.367 . S
C2166 C2174 1.378 . S
C2167 C2166 1.367 . S
C2167 C2175 1.433 . S
C2168 H2164 0.929 . S
C2168 C2170 1.378 . S
C2168 C2172 1.350 . S
C2169 C2172 1.463 . S
C2169 C2174 1.350 . S
C2169 N2177 1.427 . S
C2170 H2161 0.930 . S
C2170 C2168 1.378 . S
C2170 C2171 1.367 . S
C2171 C2170 1.367 . S
C2171 C2173 1.433 . S
C2172 C2168 1.350 . S
C2172 C2169 1.463 . S
C2172 N2176 1.427 . S
C2173 H2163 0.929 . S
C2173 C2171 1.433 . S
C2173 N2176 1.384 . S
C2174 H2165 0.929 . S
C2174 C2166 1.378 . S
C2174 C2169 1.350 . S
C2175 H2162 0.929 . S
C2175 C2167 1.433 . S
C2175 N2177 1.384 . S
N2176 C2172 1.427 . S
N2176 C2173 1.384 . S
N2177 C2169 1.427 . S
N2177 C2175 1.384 . S
H2178 C2184 0.930 . S
H2179 C2188 0.930 . S
H2180 C2193 0.929 . S
H2181 C2191 0.929 . S
H2182 C2186 0.929 . S
H2183 C2192 0.929 . S
C2184 H2178 0.930 . S
C2184 C2185 1.367 . S
C2184 C2192 1.378 . S
C2185 C2184 1.367 . S
C2185 C2193 1.433 . S
C2186 H2182 0.929 . S
C2186 C2188 1.378 . S
C2186 C2190 1.350 . S
C2187 C2190 1.463 . S
C2187 C2192 1.350 . S
C2187 N2195 1.427 . S
C2188 H2179 0.930 . S
C2188 C2186 1.378 . S
C2188 C2189 1.367 . S
C2189 C2188 1.367 . S
C2189 C2191 1.433 . S
C2190 C2186 1.350 . S
C2190 C2187 1.463 . S
C2190 N2194 1.427 . S
C2191 H2181 0.929 . S
C2191 C2189 1.433 . S
C2191 N2194 1.384 . S
C2192 H2183 0.929 . S
C2192 C2184 1.378 . S
C2192 C2187 1.350 . S
C2193 H2180 0.929 . S
C2193 C2185 1.433 . S
C2193 N2195 1.384 . S
N2194 C2190 1.427 . S
N2194 C2191 1.384 . S
N2195 C2187 1.427 . S
N2195 C2193 1.384 . S
H2196 C2202 0.930 . S
H2197 C2206 0.930 . S
H2198 C2211 0.929 . S
H2199 C2209 0.929 . S
H2200 C2204 0.929 . S
H2201 C2210 0.929 . S
C2202 H2196 0.930 . S
C2202 C2203 1.367 . S
C2202 C2210 1.378 . S
C2203 C2202 1.367 . S
C2203 C2211 1.433 . S
C2204 H2200 0.929 . S
C2204 C2206 1.378 . S
C2204 C2208 1.350 . S
C2205 C2208 1.463 . S
C2205 C2210 1.350 . S
C2205 N2213 1.427 . S
C2206 H2197 0.930 . S
C2206 C2204 1.378 . S
C2206 C2207 1.367 . S
C2207 C2206 1.367 . S
C2207 C2209 1.433 . S
C2208 C2204 1.350 . S
C2208 C2205 1.463 . S
C2208 N2212 1.427 . S
C2209 H2199 0.929 . S
C2209 C2207 1.433 . S
C2209 N2212 1.384 . S
C2210 H2201 0.929 . S
C2210 C2202 1.378 . S
C2210 C2205 1.350 . S
C2211 H2198 0.929 . S
C2211 C2203 1.433 . S
C2211 N2213 1.384 . S
N2212 C2208 1.427 . S
N2212 C2209 1.384 . S
N2213 C2205 1.427 . S
N2213 C2211 1.384 . S
H2214 C2220 0.930 . S
H2215 C2224 0.930 . S
H2216 C2229 0.929 . S
H2217 C2227 0.929 . S
H2218 C2222 0.929 . S
H2219 C2228 0.929 . S
C2220 H2214 0.930 . S
C2220 C2221 1.367 . S
C2220 C2228 1.378 . S
C2221 C2220 1.367 . S
C2221 C2229 1.433 . S
C2222 H2218 0.929 . S
C2222 C2224 1.378 . S
C2222 C2226 1.350 . S
C2223 C2226 1.463 . S
C2223 C2228 1.350 . S
C2223 N2231 1.427 . S
C2224 H2215 0.930 . S
C2224 C2222 1.378 . S
C2224 C2225 1.367 . S
C2225 C2224 1.367 . S
C2225 C2227 1.433 . S
C2226 C2222 1.350 . S
C2226 C2223 1.463 . S
C2226 N2230 1.427 . S
C2227 H2217 0.929 . S
C2227 C2225 1.433 . S
C2227 N2230 1.384 . S
C2228 H2219 0.929 . S
C2228 C2220 1.378 . S
C2228 C2223 1.350 . S
C2229 H2216 0.929 . S
C2229 C2221 1.433 . S
C2229 N2231 1.384 . S
N2230 C2226 1.427 . S
N2230 C2227 1.384 . S
N2231 C2223 1.427 . S
N2231 C2229 1.384 . S
H2232 C2238 0.930 . S
H2233 C2242 0.930 . S
H2234 C2247 0.929 . S
H2235 C2245 0.929 . S
H2236 C2240 0.929 . S
H2237 C2246 0.929 . S
C2238 H2232 0.930 . S
C2238 C2239 1.367 . S
C2238 C2246 1.378 . S
C2239 C2238 1.367 . S
C2239 C2247 1.433 . S
C2240 H2236 0.929 . S
C2240 C2242 1.378 . S
C2240 C2244 1.350 . S
C2241 C2244 1.463 . S
C2241 C2246 1.350 . S
C2241 N2249 1.427 . S
C2242 H2233 0.930 . S
C2242 C2240 1.378 . S
C2242 C2243 1.367 . S
C2243 C2242 1.367 . S
C2243 C2245 1.433 . S
C2244 C2240 1.350 . S
C2244 C2241 1.463 . S
C2244 N2248 1.427 . S
C2245 H2235 0.929 . S
C2245 C2243 1.433 . S
C2245 N2248 1.384 . S
C2246 H2237 0.929 . S
C2246 C2238 1.378 . S
C2246 C2241 1.350 . S
C2247 H2234 0.929 . S
C2247 C2239 1.433 . S
C2247 N2249 1.384 . S
N2248 C2244 1.427 . S
N2248 C2245 1.384 . S
N2249 C2241 1.427 . S
N2249 C2247 1.384 . S
H2250 C2256 0.930 . S
H2251 C2260 0.930 . S
H2252 C2265 0.929 . S
H2253 C2263 0.929 . S
H2254 C2258 0.929 . S
H2255 C2264 0.929 . S
C2256 H2250 0.930 . S
C2256 C2257 1.367 . S
C2256 C2264 1.378 . S
C2257 C2256 1.367 . S
C2257 C2265 1.433 . S
C2258 H2254 0.929 . S
C2258 C2260 1.378 . S
C2258 C2262 1.350 . S
C2259 C2262 1.463 . S
C2259 C2264 1.350 . S
C2259 N2267 1.427 . S
C2260 H2251 0.930 . S
C2260 C2258 1.378 . S
C2260 C2261 1.367 . S
C2261 C2260 1.367 . S
C2261 C2263 1.433 . S
C2262 C2258 1.350 . S
C2262 C2259 1.463 . S
C2262 N2266 1.427 . S
C2263 H2253 0.929 . S
C2263 C2261 1.433 . S
C2263 N2266 1.384 . S
C2264 H2255 0.929 . S
C2264 C2256 1.378 . S
C2264 C2259 1.350 . S
C2265 H2252 0.929 . S
C2265 C2257 1.433 . S
C2265 N2267 1.384 . S
N2266 C2262 1.427 . S
N2266 C2263 1.384 . S
N2267 C2259 1.427 . S
N2267 C2265 1.384 . S
H2268 C2274 0.930 . S
H2269 C2278 0.930 . S
H2270 C2283 0.929 . S
H2271 C2281 0.929 . S
H2272 C2276 0.929 . S
H2273 C2282 0.929 . S
C2274 H2268 0.930 . S
C2274 C2275 1.367 . S
C2274 C2282 1.378 . S
C2275 C2274 1.367 . S
C2275 C2283 1.433 . S
C2276 H2272 0.929 . S
C2276 C2278 1.378 . S
C2276 C2280 1.350 . S
C2277 C2280 1.463 . S
C2277 C2282 1.350 . S
C2277 N2285 1.427 . S
C2278 H2269 0.930 . S
C2278 C2276 1.378 . S
C2278 C2279 1.367 . S
C2279 C2278 1.367 . S
C2279 C2281 1.433 . S
C2280 C2276 1.350 . S
C2280 C2277 1.463 . S
C2280 N2284 1.427 . S
C2281 H2271 0.929 . S
C2281 C2279 1.433 . S
C2281 N2284 1.384 . S
C2282 H2273 0.929 . S
C2282 C2274 1.378 . S
C2282 C2277 1.350 . S
C2283 H2270 0.929 . S
C2283 C2275 1.433 . S
C2283 N2285 1.384 . S
N2284 C2280 1.427 . S
N2284 C2281 1.384 . S
N2285 C2277 1.427 . S
N2285 C2283 1.384 . S
H2286 C2292 0.930 . S
H2287 C2296 0.930 . S
H2288 C2301 0.929 . S
H2289 C2299 0.929 . S
H2290 C2294 0.929 . S
H2291 C2300 0.929 . S
C2292 H2286 0.930 . S
C2292 C2293 1.367 . S
C2292 C2300 1.378 . S
C2293 C2292 1.367 . S
C2293 C2301 1.433 . S
C2294 H2290 0.929 . S
C2294 C2296 1.378 . S
C2294 C2298 1.350 . S
C2295 C2298 1.463 . S
C2295 C2300 1.350 . S
C2295 N2303 1.427 . S
C2296 H2287 0.930 . S
C2296 C2294 1.378 . S
C2296 C2297 1.367 . S
C2297 C2296 1.367 . S
C2297 C2299 1.433 . S
C2298 C2294 1.350 . S
C2298 C2295 1.463 . S
C2298 N2302 1.427 . S
C2299 H2289 0.929 . S
C2299 C2297 1.433 . S
C2299 N2302 1.384 . S
C2300 H2291 0.929 . S
C2300 C2292 1.378 . S
C2300 C2295 1.350 . S
C2301 H2288 0.929 . S
C2301 C2293 1.433 . S
C2301 N2303 1.384 . S
N2302 C2298 1.427 . S
N2302 C2299 1.384 . S
N2303 C2295 1.427 . S
N2303 C2301 1.384 . S
H2304 C2310 0.930 . S
H2305 C2314 0.930 . S
H2306 C2319 0.929 . S
H2307 C2317 0.929 . S
H2308 C2312 0.929 . S
H2309 C2318 0.929 . S
C2310 H2304 0.930 . S
C2310 C2311 1.367 . S
C2310 C2318 1.378 . S
C2311 C2310 1.367 . S
C2311 C2319 1.433 . S
C2312 H2308 0.929 . S
C2312 C2314 1.378 . S
C2312 C2316 1.350 . S
C2313 C2316 1.463 . S
C2313 C2318 1.350 . S
C2313 N2321 1.427 . S
C2314 H2305 0.930 . S
C2314 C2312 1.378 . S
C2314 C2315 1.367 . S
C2315 C2314 1.367 . S
C2315 C2317 1.433 . S
C2316 C2312 1.350 . S
C2316 C2313 1.463 . S
C2316 N2320 1.427 . S
C2317 H2307 0.929 . S
C2317 C2315 1.433 . S
C2317 N2320 1.384 . S
C2318 H2309 0.929 . S
C2318 C2310 1.378 . S
C2318 C2313 1.350 . S
C2319 H2306 0.929 . S
C2319 C2311 1.433 . S
C2319 N2321 1.384 . S
N2320 C2316 1.427 . S
N2320 C2317 1.384 . S
N2321 C2313 1.427 . S
N2321 C2319 1.384 . S
H2322 C2328 0.930 . S
H2323 C2332 0.930 . S
H2324 C2337 0.929 . S
H2325 C2335 0.929 . S
H2326 C2330 0.929 . S
H2327 C2336 0.929 . S
C2328 H2322 0.930 . S
C2328 C2329 1.367 . S
C2328 C2336 1.378 . S
C2329 C2328 1.367 . S
C2329 C2337 1.433 . S
C2330 H2326 0.929 . S
C2330 C2332 1.378 . S
C2330 C2334 1.350 . S
C2331 C2334 1.463 . S
C2331 C2336 1.350 . S
C2331 N2339 1.427 . S
C2332 H2323 0.930 . S
C2332 C2330 1.378 . S
C2332 C2333 1.367 . S
C2333 C2332 1.367 . S
C2333 C2335 1.433 . S
C2334 C2330 1.350 . S
C2334 C2331 1.463 . S
C2334 N2338 1.427 . S
C2335 H2325 0.929 . S
C2335 C2333 1.433 . S
C2335 N2338 1.384 . S
C2336 H2327 0.929 . S
C2336 C2328 1.378 . S
C2336 C2331 1.350 . S
C2337 H2324 0.929 . S
C2337 C2329 1.433 . S
C2337 N2339 1.384 . S
N2338 C2334 1.427 . S
N2338 C2335 1.384 . S
N2339 C2331 1.427 . S
N2339 C2337 1.384 . S
H2340 C2346 0.930 . S
H2341 C2350 0.930 . S
H2342 C2355 0.929 . S
H2343 C2353 0.929 . S
H2344 C2348 0.929 . S
H2345 C2354 0.929 . S
C2346 H2340 0.930 . S
C2346 C2347 1.367 . S
C2346 C2354 1.378 . S
C2347 C2346 1.367 . S
C2347 C2355 1.433 . S
C2348 H2344 0.929 . S
C2348 C2350 1.378 . S
C2348 C2352 1.350 . S
C2349 C2352 1.463 . S
C2349 C2354 1.350 . S
C2349 N2357 1.427 . S
C2350 H2341 0.930 . S
C2350 C2348 1.378 . S
C2350 C2351 1.367 . S
C2351 C2350 1.367 . S
C2351 C2353 1.433 . S
C2352 C2348 1.350 . S
C2352 C2349 1.463 . S
C2352 N2356 1.427 . S
C2353 H2343 0.929 . S
C2353 C2351 1.433 . S
C2353 N2356 1.384 . S
C2354 H2345 0.929 . S
C2354 C2346 1.378 . S
C2354 C2349 1.350 . S
C2355 H2342 0.929 . S
C2355 C2347 1.433 . S
C2355 N2357 1.384 . S
N2356 C2352 1.427 . S
N2356 C2353 1.384 . S
N2357 C2349 1.427 . S
N2357 C2355 1.384 . S
H2358 C2364 0.930 . S
H2359 C2368 0.930 . S
H2360 C2373 0.929 . S
H2361 C2371 0.929 . S
H2362 C2366 0.929 . S
H2363 C2372 0.929 . S
C2364 H2358 0.930 . S
C2364 C2365 1.367 . S
C2364 C2372 1.378 . S
C2365 C2364 1.367 . S
C2365 C2373 1.433 . S
C2366 H2362 0.929 . S
C2366 C2368 1.378 . S
C2366 C2370 1.350 . S
C2367 C2370 1.463 . S
C2367 C2372 1.350 . S
C2367 N2375 1.427 . S
C2368 H2359 0.930 . S
C2368 C2366 1.378 . S
C2368 C2369 1.367 . S
C2369 C2368 1.367 . S
C2369 C2371 1.433 . S
C2370 C2366 1.350 . S
C2370 C2367 1.463 . S
C2370 N2374 1.427 . S
C2371 H2361 0.929 . S
C2371 C2369 1.433 . S
C2371 N2374 1.384 . S
C2372 H2363 0.929 . S
C2372 C2364 1.378 . S
C2372 C2367 1.350 . S
C2373 H2360 0.929 . S
C2373 C2365 1.433 . S
C2373 N2375 1.384 . S
N2374 C2370 1.427 . S
N2374 C2371 1.384 . S
N2375 C2367 1.427 . S
N2375 C2373 1.384 . S
H2376 C2382 0.931 . S
H2377 C2386 0.930 . S
H2378 C2391 0.929 1_554 S
H2379 C2389 0.929 . S
H2380 C2384 0.929 . S
H2381 C2390 0.929 . S
C2382 H2376 0.931 . S
C2382 C2383 1.367 . S
C2382 C2390 1.376 1_554 S
C2383 C2382 1.367 . S
C2383 C2391 1.433 1_554 S
C2384 H2380 0.929 . S
C2384 C2386 1.378 . S
C2384 C2388 1.350 . S
C2385 C2388 1.463 . S
C2385 C2390 1.350 . S
C2385 N2393 1.427 . S
C2386 H2377 0.930 . S
C2386 C2384 1.378 . S
C2386 C2387 1.367 . S
C2387 C2386 1.367 . S
C2387 C2389 1.433 . S
C2388 C2384 1.350 . S
C2388 C2385 1.463 . S
C2388 N2392 1.427 . S
C2389 H2379 0.929 . S
C2389 C2387 1.433 . S
C2389 N2392 1.384 . S
C2390 H2381 0.929 . S
C2390 C2382 1.376 1_556 S
C2390 C2385 1.350 . S
C2391 H2378 0.929 1_556 S
C2391 C2383 1.433 1_556 S
C2391 N2393 1.384 . S
N2392 C2388 1.427 . S
N2392 C2389 1.384 . S
N2393 C2385 1.427 . S
N2393 C2391 1.384 . S
H2394 C2400 0.930 1_554 S
H2395 C2404 0.930 . S
H2396 C2409 0.935 . S
H2397 C2407 0.929 . S
H2398 C2402 0.929 . S
H2399 C2408 0.929 . S
C2400 H2394 0.930 1_556 S
C2400 C2401 1.367 1_556 S
C2400 C2408 1.378 . S
C2401 C2400 1.367 1_554 S
C2401 C2409 1.437 . S
C2402 H2398 0.929 . S
C2402 C2404 1.378 . S
C2402 C2406 1.350 . S
C2403 C2406 1.463 . S
C2403 C2408 1.350 . S
C2403 N2411 1.427 . S
C2404 H2395 0.930 . S
C2404 C2402 1.378 . S
C2404 C2405 1.367 . S
C2405 C2404 1.367 . S
C2405 C2407 1.433 . S
C2406 C2402 1.350 . S
C2406 C2403 1.463 . S
C2406 N2410 1.427 . S
C2407 H2397 0.929 . S
C2407 C2405 1.433 . S
C2407 N2410 1.384 . S
C2408 H2399 0.929 . S
C2408 C2400 1.378 . S
C2408 C2403 1.350 . S
C2409 H2396 0.935 . S
C2409 C2401 1.437 . S
C2409 N2411 1.375 1_554 S
N2410 C2406 1.427 . S
N2410 C2407 1.384 . S
N2411 C2403 1.427 . S
N2411 C2409 1.375 1_556 S
H2412 C2418 0.930 . S
H2413 C2422 0.930 1_554 S
H2414 C2427 0.929 . S
H2415 C2425 0.929 1_554 S
H2416 C2420 0.929 . S
H2417 C2426 0.929 . S
C2418 H2412 0.930 . S
C2418 C2419 1.367 . S
C2418 C2426 1.378 . S
C2419 C2418 1.367 . S
C2419 C2427 1.433 . S
C2420 H2416 0.929 . S
C2420 C2422 1.378 . S
C2420 C2424 1.350 . S
C2421 C2424 1.463 . S
C2421 C2426 1.350 . S
C2421 N2429 1.427 . S
C2422 H2413 0.930 1_556 S
C2422 C2420 1.378 . S
C2422 C2423 1.367 1_556 S
C2423 C2422 1.367 1_554 S
C2423 C2425 1.433 1_554 S
C2424 C2420 1.350 . S
C2424 C2421 1.463 . S
C2424 N2428 1.427 . S
C2425 H2415 0.929 1_556 S
C2425 C2423 1.433 1_556 S
C2425 N2428 1.384 . S
C2426 H2417 0.929 . S
C2426 C2418 1.378 . S
C2426 C2421 1.350 . S
C2427 H2414 0.929 . S
C2427 C2419 1.433 . S
C2427 N2429 1.384 . S
N2428 C2424 1.427 . S
N2428 C2425 1.384 . S
N2429 C2421 1.427 . S
N2429 C2427 1.384 . S
H2430 C2436 0.930 . S
H2431 C2440 0.930 1_554 S
H2432 C2445 0.929 . S
H2433 C2443 0.929 1_554 S
H2434 C2438 0.929 . S
H2435 C2444 0.929 . S
C2436 H2430 0.930 . S
C2436 C2437 1.367 . S
C2436 C2444 1.378 . S
C2437 C2436 1.367 . S
C2437 C2445 1.433 . S
C2438 H2434 0.929 . S
C2438 C2440 1.378 . S
C2438 C2442 1.350 . S
C2439 C2442 1.463 . S
C2439 C2444 1.350 . S
C2439 N2447 1.427 . S
C2440 H2431 0.930 1_556 S
C2440 C2438 1.378 . S
C2440 C2441 1.367 1_556 S
C2441 C2440 1.367 1_554 S
C2441 C2443 1.433 1_554 S
C2442 C2438 1.350 . S
C2442 C2439 1.463 . S
C2442 N2446 1.427 . S
C2443 H2433 0.929 1_556 S
C2443 C2441 1.433 1_556 S
C2443 N2446 1.384 . S
C2444 H2435 0.929 . S
C2444 C2436 1.378 . S
C2444 C2439 1.350 . S
C2445 H2432 0.929 . S
C2445 C2437 1.433 . S
C2445 N2447 1.384 . S
N2446 C2442 1.427 . S
N2446 C2443 1.384 . S
N2447 C2439 1.427 . S
N2447 C2445 1.384 . S
H2448 C2454 0.930 . S
H2449 C2458 0.930 1_554 S
H2450 C2463 0.929 . S
H2451 C2461 0.929 1_554 S
H2452 C2456 0.929 . S
H2453 C2462 0.929 . S
C2454 H2448 0.930 . S
C2454 C2455 1.367 . S
C2454 C2462 1.378 . S
C2455 C2454 1.367 . S
C2455 C2463 1.433 . S
C2456 H2452 0.929 . S
C2456 C2458 1.378 . S
C2456 C2460 1.350 . S
C2457 C2460 1.463 . S
C2457 C2462 1.350 . S
C2457 N2465 1.427 . S
C2458 H2449 0.930 1_556 S
C2458 C2456 1.378 . S
C2458 C2459 1.367 1_556 S
C2459 C2458 1.367 1_554 S
C2459 C2461 1.433 1_554 S
C2460 C2456 1.350 . S
C2460 C2457 1.463 . S
C2460 N2464 1.427 . S
C2461 H2451 0.929 1_556 S
C2461 C2459 1.433 1_556 S
C2461 N2464 1.384 . S
C2462 H2453 0.929 . S
C2462 C2454 1.378 . S
C2462 C2457 1.350 . S
C2463 H2450 0.929 . S
C2463 C2455 1.433 . S
C2463 N2465 1.384 . S
N2464 C2460 1.427 . S
N2464 C2461 1.384 . S
N2465 C2457 1.427 . S
N2465 C2463 1.384 . S
H2466 C2472 0.930 . S
H2467 C2476 0.930 . S
H2468 C2481 0.929 1_554 S
H2469 C2479 0.929 . S
H2470 C2474 0.929 . S
H2471 C2480 0.929 . S
C2472 H2466 0.930 . S
C2472 C2473 1.367 1_556 S
C2472 C2480 1.378 . S
C2473 C2472 1.367 1_554 S
C2473 C2481 1.433 1_554 S
C2474 H2470 0.929 . S
C2474 C2476 1.378 . S
C2474 C2478 1.350 . S
C2475 C2478 1.463 . S
C2475 C2480 1.350 . S
C2475 N2483 1.427 . S
C2476 H2467 0.930 . S
C2476 C2474 1.378 . S
C2476 C2477 1.367 . S
C2477 C2476 1.367 . S
C2477 C2479 1.433 . S
C2478 C2474 1.350 . S
C2478 C2475 1.463 . S
C2478 N2482 1.427 . S
C2479 H2469 0.929 . S
C2479 C2477 1.433 . S
C2479 N2482 1.384 . S
C2480 H2471 0.929 . S
C2480 C2472 1.378 . S
C2480 C2475 1.350 . S
C2481 H2468 0.929 1_556 S
C2481 C2473 1.433 1_556 S
C2481 N2483 1.384 . S
N2482 C2478 1.427 . S
N2482 C2479 1.384 . S
N2483 C2475 1.427 . S
N2483 C2481 1.384 . S
H2484 C2490 0.930 . S
H2485 C2494 0.930 1_554 S
H2486 C2499 0.929 . S
H2487 C2497 0.929 1_554 S
H2488 C2492 0.929 . S
H2489 C2498 0.929 . S
C2490 H2484 0.930 . S
C2490 C2491 1.367 . S
C2490 C2498 1.378 . S
C2491 C2490 1.367 . S
C2491 C2499 1.433 . S
C2492 H2488 0.929 . S
C2492 C2494 1.378 . S
C2492 C2496 1.350 . S
C2493 C2496 1.463 . S
C2493 C2498 1.350 . S
C2493 N2501 1.427 . S
C2494 H2485 0.930 1_556 S
C2494 C2492 1.378 . S
C2494 C2495 1.367 1_556 S
C2495 C2494 1.367 1_554 S
C2495 C2497 1.433 1_554 S
C2496 C2492 1.350 . S
C2496 C2493 1.463 . S
C2496 N2500 1.427 . S
C2497 H2487 0.929 1_556 S
C2497 C2495 1.433 1_556 S
C2497 N2500 1.384 . S
C2498 H2489 0.929 . S
C2498 C2490 1.378 . S
C2498 C2493 1.350 . S
C2499 H2486 0.929 . S
C2499 C2491 1.433 . S
C2499 N2501 1.384 . S
N2500 C2496 1.427 . S
N2500 C2497 1.384 . S
N2501 C2493 1.427 . S
N2501 C2499 1.384 . S
H2502 C2508 0.930 . S
H2503 C2512 0.930 . S
H2504 C2517 0.929 1_554 S
H2505 C2515 0.929 . S
H2506 C2510 0.929 . S
H2507 C2516 0.929 . S
C2508 H2502 0.930 . S
C2508 C2509 1.367 1_556 S
C2508 C2516 1.378 . S
C2509 C2508 1.367 1_554 S
C2509 C2517 1.433 1_554 S
C2510 H2506 0.929 . S
C2510 C2512 1.378 . S
C2510 C2514 1.350 . S
C2511 C2514 1.463 . S
C2511 C2516 1.350 . S
C2511 N2519 1.427 . S
C2512 H2503 0.930 . S
C2512 C2510 1.378 . S
C2512 C2513 1.367 . S
C2513 C2512 1.367 . S
C2513 C2515 1.433 . S
C2514 C2510 1.350 . S
C2514 C2511 1.463 . S
C2514 N2518 1.427 . S
C2515 H2505 0.929 . S
C2515 C2513 1.433 . S
C2515 N2518 1.384 . S
C2516 H2507 0.929 . S
C2516 C2508 1.378 . S
C2516 C2511 1.350 . S
C2517 H2504 0.929 1_556 S
C2517 C2509 1.433 1_556 S
C2517 N2519 1.384 . S
N2518 C2514 1.427 . S
N2518 C2515 1.384 . S
N2519 C2511 1.427 . S
N2519 C2517 1.384 . S
H2520 C2526 0.930 1_554 S
H2521 C2530 0.930 . S
H2522 C2535 0.929 1_554 S
H2523 C2533 0.929 . S
H2524 C2528 0.929 . S
H2525 C2534 0.929 . S
C2526 H2520 0.930 1_556 S
C2526 C2527 1.367 1_556 S
C2526 C2534 1.378 . S
C2527 C2526 1.367 1_554 S
C2527 C2535 1.433 1_554 S
C2528 H2524 0.929 . S
C2528 C2530 1.378 . S
C2528 C2532 1.350 . S
C2529 C2532 1.463 . S
C2529 C2534 1.350 . S
C2529 N2537 1.427 . S
C2530 H2521 0.930 . S
C2530 C2528 1.378 . S
C2530 C2531 1.367 . S
C2531 C2530 1.367 . S
C2531 C2533 1.433 . S
C2532 C2528 1.350 . S
C2532 C2529 1.463 . S
C2532 N2536 1.427 . S
C2533 H2523 0.929 . S
C2533 C2531 1.433 . S
C2533 N2536 1.384 . S
C2534 H2525 0.929 . S
C2534 C2526 1.378 . S
C2534 C2529 1.350 . S
C2535 H2522 0.929 1_556 S
C2535 C2527 1.433 1_556 S
C2535 N2537 1.384 . S
N2536 C2532 1.427 . S
N2536 C2533 1.384 . S
N2537 C2529 1.427 . S
N2537 C2535 1.384 . S
H2538 C2544 0.930 1_554 S
H2539 C2548 0.930 . S
H2540 C2553 0.929 1_554 S
H2541 C2551 0.929 . S
H2542 C2546 0.929 . S
H2543 C2552 0.929 . S
C2544 H2538 0.930 1_556 S
C2544 C2545 1.367 1_556 S
C2544 C2552 1.378 . S
C2545 C2544 1.367 1_554 S
C2545 C2553 1.433 1_554 S
C2546 H2542 0.929 . S
C2546 C2548 1.378 . S
C2546 C2550 1.350 . S
C2547 C2550 1.463 . S
C2547 C2552 1.350 . S
C2547 N2555 1.427 . S
C2548 H2539 0.930 . S
C2548 C2546 1.378 . S
C2548 C2549 1.367 . S
C2549 C2548 1.367 . S
C2549 C2551 1.433 . S
C2550 C2546 1.350 . S
C2550 C2547 1.463 . S
C2550 N2554 1.427 . S
C2551 H2541 0.929 . S
C2551 C2549 1.433 . S
C2551 N2554 1.384 . S
C2552 H2543 0.929 . S
C2552 C2544 1.378 . S
C2552 C2547 1.350 . S
C2553 H2540 0.929 1_556 S
C2553 C2545 1.433 1_556 S
C2553 N2555 1.384 . S
N2554 C2550 1.427 . S
N2554 C2551 1.384 . S
N2555 C2547 1.427 . S
N2555 C2553 1.384 . S
H2556 C2562 0.930 1_554 S
H2557 C2566 0.930 . S
H2558 C2571 0.929 1_554 S
H2559 C2569 0.929 . S
H2560 C2564 0.929 . S
H2561 C2570 0.929 . S
C2562 H2556 0.930 1_556 S
C2562 C2563 1.367 1_556 S
C2562 C2570 1.378 . S
C2563 C2562 1.367 1_554 S
C2563 C2571 1.433 1_554 S
C2564 H2560 0.929 . S
C2564 C2566 1.378 . S
C2564 C2568 1.350 . S
C2565 C2568 1.463 . S
C2565 C2570 1.350 . S
C2565 N2573 1.427 . S
C2566 H2557 0.930 . S
C2566 C2564 1.378 . S
C2566 C2567 1.367 . S
C2567 C2566 1.367 . S
C2567 C2569 1.433 . S
C2568 C2564 1.350 . S
C2568 C2565 1.463 . S
C2568 N2572 1.427 . S
C2569 H2559 0.929 . S
C2569 C2567 1.433 . S
C2569 N2572 1.384 . S
C2570 H2561 0.929 . S
C2570 C2562 1.378 . S
C2570 C2565 1.350 . S
C2571 H2558 0.929 1_556 S
C2571 C2563 1.433 1_556 S
C2571 N2573 1.384 . S
N2572 C2568 1.427 . S
N2572 C2569 1.384 . S
N2573 C2565 1.427 . S
N2573 C2571 1.384 . S
H2574 C2580 0.930 1_554 S
H2575 C2584 0.930 . S
H2576 C2589 0.928 1_554 S
H2577 C2587 0.929 . S
H2578 C2582 0.929 . S
H2579 C2588 0.929 . S
C2580 H2574 0.930 1_556 S
C2580 C2581 1.367 1_556 S
C2580 C2588 1.378 . S
C2581 C2580 1.367 1_554 S
C2581 C2589 1.433 1_554 S
C2582 H2578 0.929 . S
C2582 C2584 1.378 . S
C2582 C2586 1.350 . S
C2583 C2586 1.463 . S
C2583 C2588 1.350 . S
C2583 N2591 1.427 . S
C2584 H2575 0.930 . S
C2584 C2582 1.378 . S
C2584 C2585 1.367 . S
C2585 C2584 1.367 . S
C2585 C2587 1.433 . S
C2586 C2582 1.350 . S
C2586 C2583 1.463 . S
C2586 N2590 1.427 . S
C2587 H2577 0.929 . S
C2587 C2585 1.433 . S
C2587 N2590 1.384 . S
C2588 H2579 0.929 . S
C2588 C2580 1.378 . S
C2588 C2583 1.350 . S
C2589 H2576 0.928 1_556 S
C2589 C2581 1.433 1_556 S
C2589 N2591 1.385 . S
N2590 C2586 1.427 . S
N2590 C2587 1.384 . S
N2591 C2583 1.427 . S
N2591 C2589 1.385 . S
H2592 C2598 0.930 . S
H2593 C2602 0.930 1_556 S
H2594 C2607 0.929 . S
H2595 C2605 0.929 1_556 S
H2596 C2600 0.929 . S
H2597 C2606 0.929 . S
C2598 H2592 0.930 . S
C2598 C2599 1.367 . S
C2598 C2606 1.378 . S
C2599 C2598 1.367 . S
C2599 C2607 1.433 . S
C2600 H2596 0.929 . S
C2600 C2602 1.378 . S
C2600 C2604 1.350 . S
C2601 C2604 1.463 . S
C2601 C2606 1.350 . S
C2601 N2609 1.427 . S
C2602 H2593 0.930 1_554 S
C2602 C2600 1.378 . S
C2602 C2603 1.367 1_554 S
C2603 C2602 1.367 1_556 S
C2603 C2605 1.433 1_556 S
C2604 C2600 1.350 . S
C2604 C2601 1.463 . S
C2604 N2608 1.427 . S
C2605 H2595 0.929 1_554 S
C2605 C2603 1.433 1_554 S
C2605 N2608 1.384 . S
C2606 H2597 0.929 . S
C2606 C2598 1.378 . S
C2606 C2601 1.350 . S
C2607 H2594 0.929 . S
C2607 C2599 1.433 . S
C2607 N2609 1.384 . S
N2608 C2604 1.427 . S
N2608 C2605 1.384 . S
N2609 C2601 1.427 . S
N2609 C2607 1.384 . S
H2610 C2616 0.930 . S
H2611 C2620 0.930 1_556 S
H2612 C2625 0.929 . S
H2613 C2623 0.932 . S
H2614 C2618 0.929 . S
H2615 C2624 0.929 . S
C2616 H2610 0.930 . S
C2616 C2617 1.367 . S
C2616 C2624 1.378 . S
C2617 C2616 1.367 . S
C2617 C2625 1.433 . S
C2618 H2614 0.929 . S
C2618 C2620 1.378 . S
C2618 C2622 1.350 . S
C2619 C2622 1.463 . S
C2619 C2624 1.350 . S
C2619 N2627 1.427 . S
C2620 H2611 0.930 1_554 S
C2620 C2618 1.378 . S
C2620 C2621 1.367 1_554 S
C2621 C2620 1.367 1_556 S
C2621 C2623 1.433 1_556 S
C2622 C2618 1.350 . S
C2622 C2619 1.463 . S
C2622 N2626 1.427 . S
C2623 H2613 0.932 . S
C2623 C2621 1.433 1_554 S
C2623 N2626 1.384 . S
C2624 H2615 0.929 . S
C2624 C2616 1.378 . S
C2624 C2619 1.350 . S
C2625 H2612 0.929 . S
C2625 C2617 1.433 . S
C2625 N2627 1.384 . S
N2626 C2622 1.427 . S
N2626 C2623 1.384 . S
N2627 C2619 1.427 . S
N2627 C2625 1.384 . S
H2628 C2634 0.930 . S
H2629 C2638 0.930 . S
H2630 C2643 0.929 1_556 S
H2631 C2641 0.929 . S
H2632 C2636 0.929 . S
H2633 C2642 0.929 . S
C2634 H2628 0.930 . S
C2634 C2635 1.367 1_554 S
C2634 C2642 1.378 . S
C2635 C2634 1.367 1_556 S
C2635 C2643 1.433 1_556 S
C2636 H2632 0.929 . S
C2636 C2638 1.378 . S
C2636 C2640 1.350 . S
C2637 C2640 1.463 . S
C2637 C2642 1.350 . S
C2637 N2645 1.427 . S
C2638 H2629 0.930 . S
C2638 C2636 1.378 . S
C2638 C2639 1.367 . S
C2639 C2638 1.367 . S
C2639 C2641 1.433 . S
C2640 C2636 1.350 . S
C2640 C2637 1.463 . S
C2640 N2644 1.427 . S
C2641 H2631 0.929 . S
C2641 C2639 1.433 . S
C2641 N2644 1.384 . S
C2642 H2633 0.929 . S
C2642 C2634 1.378 . S
C2642 C2637 1.350 . S
C2643 H2630 0.929 1_554 S
C2643 C2635 1.433 1_554 S
C2643 N2645 1.384 . S
N2644 C2640 1.427 . S
N2644 C2641 1.384 . S
N2645 C2637 1.427 . S
N2645 C2643 1.384 . S
H2646 C2652 0.930 . S
H2647 C2656 0.930 1_556 S
H2648 C2661 0.929 . S
H2649 C2659 0.937 . S
H2650 C2654 0.929 . S
H2651 C2660 0.929 . S
C2652 H2646 0.930 . S
C2652 C2653 1.367 . S
C2652 C2660 1.378 . S
C2653 C2652 1.367 . S
C2653 C2661 1.433 . S
C2654 H2650 0.929 . S
C2654 C2656 1.378 . S
C2654 C2658 1.350 . S
C2655 C2658 1.463 . S
C2655 C2660 1.350 . S
C2655 N2663 1.427 . S
C2656 H2647 0.930 1_554 S
C2656 C2654 1.378 . S
C2656 C2657 1.367 1_554 S
C2657 C2656 1.367 1_556 S
C2657 C2659 1.438 . S
C2658 C2654 1.350 . S
C2658 C2655 1.463 . S
C2658 N2662 1.427 . S
C2659 H2649 0.937 . S
C2659 C2657 1.438 . S
C2659 N2662 1.370 1_556 S
C2660 H2651 0.929 . S
C2660 C2652 1.378 . S
C2660 C2655 1.350 . S
C2661 H2648 0.929 . S
C2661 C2653 1.433 . S
C2661 N2663 1.384 . S
N2662 C2658 1.427 . S
N2662 C2659 1.370 1_554 S
N2663 C2655 1.427 . S
N2663 C2661 1.384 . S
H2664 C2670 0.930 . S
H2665 C2674 0.930 . S
H2666 C2679 0.929 . S
H2667 C2677 0.929 1_556 S
H2668 C2672 0.929 . S
H2669 C2678 0.929 . S
C2670 H2664 0.930 . S
C2670 C2671 1.367 . S
C2670 C2678 1.378 . S
C2671 C2670 1.367 . S
C2671 C2679 1.433 . S
C2672 H2668 0.929 . S
C2672 C2674 1.378 1_554 S
C2672 C2676 1.350 . S
C2673 C2676 1.463 . S
C2673 C2678 1.350 . S
C2673 N2681 1.427 . S
C2674 H2665 0.930 . S
C2674 C2672 1.378 1_556 S
C2674 C2675 1.367 . S
C2675 C2674 1.367 . S
C2675 C2677 1.433 1_556 S
C2676 C2672 1.350 . S
C2676 C2673 1.463 . S
C2676 N2680 1.427 . S
C2677 H2667 0.929 1_554 S
C2677 C2675 1.433 1_554 S
C2677 N2680 1.384 . S
C2678 H2669 0.929 . S
C2678 C2670 1.378 . S
C2678 C2673 1.350 . S
C2679 H2666 0.929 . S
C2679 C2671 1.433 . S
C2679 N2681 1.384 . S
N2680 C2676 1.427 . S
N2680 C2677 1.384 . S
N2681 C2673 1.427 . S
N2681 C2679 1.384 . S
H2682 C2688 0.930 . S
H2683 C2692 0.930 1_556 S
H2684 C2697 0.929 . S
H2685 C2695 0.929 1_556 S
H2686 C2690 0.929 . S
H2687 C2696 0.929 . S
C2688 H2682 0.930 . S
C2688 C2689 1.367 . S
C2688 C2696 1.378 . S
C2689 C2688 1.367 . S
C2689 C2697 1.433 . S
C2690 H2686 0.929 . S
C2690 C2692 1.378 . S
C2690 C2694 1.350 . S
C2691 C2694 1.463 . S
C2691 C2696 1.350 . S
C2691 N2699 1.427 . S
C2692 H2683 0.930 1_554 S
C2692 C2690 1.378 . S
C2692 C2693 1.367 1_554 S
C2693 C2692 1.367 1_556 S
C2693 C2695 1.433 1_556 S
C2694 C2690 1.350 . S
C2694 C2691 1.463 . S
C2694 N2698 1.427 . S
C2695 H2685 0.929 1_554 S
C2695 C2693 1.433 1_554 S
C2695 N2698 1.384 . S
C2696 H2687 0.929 . S
C2696 C2688 1.378 . S
C2696 C2691 1.350 . S
C2697 H2684 0.929 . S
C2697 C2689 1.433 . S
C2697 N2699 1.384 . S
N2698 C2694 1.427 . S
N2698 C2695 1.384 . S
N2699 C2691 1.427 . S
N2699 C2697 1.384 . S
H2700 C2706 0.930 . S
H2701 C2710 0.930 1_556 S
H2702 C2715 0.929 . S
H2703 C2713 0.929 1_556 S
H2704 C2708 0.929 . S
H2705 C2714 0.929 . S
C2706 H2700 0.930 . S
C2706 C2707 1.367 . S
C2706 C2714 1.378 . S
C2707 C2706 1.367 . S
C2707 C2715 1.433 . S
C2708 H2704 0.929 . S
C2708 C2710 1.378 . S
C2708 C2712 1.350 . S
C2709 C2712 1.463 . S
C2709 C2714 1.350 . S
C2709 N2717 1.427 . S
C2710 H2701 0.930 1_554 S
C2710 C2708 1.378 . S
C2710 C2711 1.367 1_554 S
C2711 C2710 1.367 1_556 S
C2711 C2713 1.433 1_556 S
C2712 C2708 1.350 . S
C2712 C2709 1.463 . S
C2712 N2716 1.427 . S
C2713 H2703 0.929 1_554 S
C2713 C2711 1.433 1_554 S
C2713 N2716 1.384 . S
C2714 H2705 0.929 . S
C2714 C2706 1.378 . S
C2714 C2709 1.350 . S
C2715 H2702 0.929 . S
C2715 C2707 1.433 . S
C2715 N2717 1.384 . S
N2716 C2712 1.427 . S
N2716 C2713 1.384 . S
N2717 C2709 1.427 . S
N2717 C2715 1.384 . S
H2718 C2724 0.930 . S
H2719 C2728 0.930 . S
H2720 C2733 0.929 . S
H2721 C2731 0.929 1_556 S
H2722 C2726 0.929 . S
H2723 C2732 0.929 . S
C2724 H2718 0.930 . S
C2724 C2725 1.367 . S
C2724 C2732 1.378 . S
C2725 C2724 1.367 . S
C2725 C2733 1.433 . S
C2726 H2722 0.929 . S
C2726 C2728 1.378 1_554 S
C2726 C2730 1.350 . S
C2727 C2730 1.463 . S
C2727 C2732 1.350 . S
C2727 N2735 1.427 . S
C2728 H2719 0.930 . S
C2728 C2726 1.378 1_556 S
C2728 C2729 1.367 . S
C2729 C2728 1.367 . S
C2729 C2731 1.433 1_556 S
C2730 C2726 1.350 . S
C2730 C2727 1.463 . S
C2730 N2734 1.427 . S
C2731 H2721 0.929 1_554 S
C2731 C2729 1.433 1_554 S
C2731 N2734 1.384 . S
C2732 H2723 0.929 . S
C2732 C2724 1.378 . S
C2732 C2727 1.350 . S
C2733 H2720 0.929 . S
C2733 C2725 1.433 . S
C2733 N2735 1.384 . S
N2734 C2730 1.427 . S
N2734 C2731 1.384 . S
N2735 C2727 1.427 . S
N2735 C2733 1.384 . S
H2736 C2742 0.930 1_556 S
H2737 C2746 0.930 . S
H2738 C2751 0.929 . S
H2739 C2749 0.929 . S
H2740 C2744 0.929 . S
H2741 C2750 0.929 . S
C2742 H2736 0.930 1_554 S
C2742 C2743 1.367 1_554 S
C2742 C2750 1.378 . S
C2743 C2742 1.367 1_556 S
C2743 C2751 1.433 . S
C2744 H2740 0.929 . S
C2744 C2746 1.378 . S
C2744 C2748 1.350 . S
C2745 C2748 1.463 . S
C2745 C2750 1.350 . S
C2745 N2753 1.427 . S
C2746 H2737 0.930 . S
C2746 C2744 1.378 . S
C2746 C2747 1.367 . S
C2747 C2746 1.367 . S
C2747 C2749 1.433 . S
C2748 C2744 1.350 . S
C2748 C2745 1.463 . S
C2748 N2752 1.427 . S
C2749 H2739 0.929 . S
C2749 C2747 1.433 . S
C2749 N2752 1.384 . S
C2750 H2741 0.929 . S
C2750 C2742 1.378 . S
C2750 C2745 1.350 . S
C2751 H2738 0.929 . S
C2751 C2743 1.433 . S
C2751 N2753 1.384 1_556 S
N2752 C2748 1.427 . S
N2752 C2749 1.384 . S
N2753 C2745 1.427 . S
N2753 C2751 1.384 1_554 S
H2754 C2760 0.930 . S
H2755 C2764 0.930 . S
H2756 C2769 0.929 1_556 S
H2757 C2767 0.929 . S
H2758 C2762 0.929 . S
H2759 C2768 0.929 . S
C2760 H2754 0.930 . S
C2760 C2761 1.367 1_554 S
C2760 C2768 1.378 . S
C2761 C2760 1.367 1_556 S
C2761 C2769 1.433 1_556 S
C2762 H2758 0.929 . S
C2762 C2764 1.378 . S
C2762 C2766 1.350 . S
C2763 C2766 1.463 . S
C2763 C2768 1.350 . S
C2763 N2771 1.427 . S
C2764 H2755 0.930 . S
C2764 C2762 1.378 . S
C2764 C2765 1.367 . S
C2765 C2764 1.367 . S
C2765 C2767 1.433 . S
C2766 C2762 1.350 . S
C2766 C2763 1.463 . S
C2766 N2770 1.427 . S
C2767 H2757 0.929 . S
C2767 C2765 1.433 . S
C2767 N2770 1.384 . S
C2768 H2759 0.929 . S
C2768 C2760 1.378 . S
C2768 C2763 1.350 . S
C2769 H2756 0.929 1_554 S
C2769 C2761 1.433 1_554 S
C2769 N2771 1.384 . S
N2770 C2766 1.427 . S
N2770 C2767 1.384 . S
N2771 C2763 1.427 . S
N2771 C2769 1.384 . S
H2772 C2778 0.930 1_556 S
H2773 C2782 0.930 . S
H2774 C2787 0.929 . S
H2775 C2785 0.929 . S
H2776 C2780 0.929 . S
H2777 C2786 0.929 . S
C2778 H2772 0.930 1_554 S
C2778 C2779 1.367 1_554 S
C2778 C2786 1.378 . S
C2779 C2778 1.367 1_556 S
C2779 C2787 1.433 1_556 S
C2780 H2776 0.929 . S
C2780 C2782 1.378 . S
C2780 C2784 1.350 . S
C2781 C2784 1.463 . S
C2781 C2786 1.350 . S
C2781 N2789 1.427 . S
C2782 H2773 0.930 . S
C2782 C2780 1.378 . S
C2782 C2783 1.367 . S
C2783 C2782 1.367 . S
C2783 C2785 1.433 . S
C2784 C2780 1.350 . S
C2784 C2781 1.463 . S
C2784 N2788 1.427 . S
C2785 H2775 0.929 . S
C2785 C2783 1.433 . S
C2785 N2788 1.384 . S
C2786 H2777 0.929 . S
C2786 C2778 1.378 . S
C2786 C2781 1.350 . S
C2787 H2774 0.929 . S
C2787 C2779 1.433 1_554 S
C2787 N2789 1.384 . S
N2788 C2784 1.427 . S
N2788 C2785 1.384 . S
N2789 C2781 1.427 . S
N2789 C2787 1.384 . S
H2790 C2796 0.930 . S
H2791 C2800 0.930 . S
H2792 C2805 0.929 . S
H2793 C2803 0.929 1_556 S
H2794 C2798 0.929 . S
H2795 C2804 0.929 . S
C2796 H2790 0.930 . S
C2796 C2797 1.367 . S
C2796 C2804 1.378 . S
C2797 C2796 1.367 . S
C2797 C2805 1.433 . S
C2798 H2794 0.929 . S
C2798 C2800 1.378 . S
C2798 C2802 1.350 . S
C2799 C2802 1.463 . S
C2799 C2804 1.350 . S
C2799 N2807 1.427 . S
C2800 H2791 0.930 . S
C2800 C2798 1.378 . S
C2800 C2801 1.367 1_554 S
C2801 C2800 1.367 1_556 S
C2801 C2803 1.433 1_556 S
C2802 C2798 1.350 . S
C2802 C2799 1.463 . S
C2802 N2806 1.427 . S
C2803 H2793 0.929 1_554 S
C2803 C2801 1.433 1_554 S
C2803 N2806 1.384 . S
C2804 H2795 0.929 . S
C2804 C2796 1.378 . S
C2804 C2799 1.350 . S
C2805 H2792 0.929 . S
C2805 C2797 1.433 . S
C2805 N2807 1.384 . S
N2806 C2802 1.427 . S
N2806 C2803 1.384 . S
N2807 C2799 1.427 . S
N2807 C2805 1.384 . S
C1195 C28 1.024 . S
C1199 C523 1.023 . S
C1213 C556 1.029 . S
C1217 C61 1.022 . S
C1231 C94 1.023 . S
C1235 C589 1.032 . S
C1249 C820 1.028 . S
C1253 C127 1.021 . S
C1267 C853 1.033 . S
C1271 C160 1.024 . S
C1285 C193 1.034 . S
C1289 C886 1.031 . S
C1303 C226 1.032 . S
C1307 C1117 1.023 . S
C1321 C1150 1.032 . S
C1325 C259 1.034 . S
C1339 C292 1.033 . S
C1343 C1183 1.034 . S
C1357 C622 1.031 . S
C1361 C325 1.022 . S
C1375 C358 1.035 . S
C1379 C655 1.032 . S
C1393 C688 1.031 . S
C1397 C391 1.022 . S
C1411 C424 1.035 . S
C1415 C919 1.031 . S
C1429 C457 1.029 . S
C1433 C952 1.035 . S
C1447 C985 1.022 . S
C1451 C490 1.028 . S
C1465 C1018 1.035 . S
C1469 C721 1.030 . S
C1483 C1051 1.022 . S
C1487 C754 1.030 . S
C1501 C787 1.028 . S
C1505 C1084 1.022 . S
C1519 C17 1.474 . S
C1523 C380 1.470 . S
C1537 C50 1.474 . S
C1541 C314 1.471 . S
C1555 C83 1.476 . S
C1559 C347 1.470 . S
C1573 C248 1.469 . S
C1577 C116 1.476 . S
C1591 C281 1.469 . S
C1595 C149 1.476 . S
C1609 C182 1.470 . S
C1613 C215 1.474 . S
C1627 C413 1.475 . S
C1631 C776 1.470 . S
C1645 C710 1.469 . S
C1649 C446 1.476 . S
C1663 C479 1.469 . S
C1667 C743 1.476 . S
C1681 C512 1.470 . S
C1685 C644 1.475 . S
C1699 C545 1.469 . S
C1703 C677 1.477 . S
C1717 C578 1.468 . S
C1721 C611 1.477 . S
C1735 C809 1.476 . S
C1739 C1172 1.468 . S
C1753 C1106 1.473 . S
C1757 C842 1.471 . S
C1771 C1139 1.476 . S
C1775 C875 1.469 . S
C1789 C1040 1.470 . S
C1793 C908 1.475 . S
C1807 C941 1.468 . S
C1811 C1073 1.477 . S
C1825 C974 1.476 . S
C1829 C1007 1.469 . S
C1843 C965 1.536 . S
C1847 C8 1.530 . S
C1861 C41 1.528 . S
C1865 C899 1.531 . S
C1879 C74 1.535 . S
C1883 C932 1.534 . S
C1897 C437 1.533 . S
C1901 C107 1.527 . S
C1915 C140 1.532 . S
C1919 C470 1.528 . S
C1933 C173 1.536 . S
C1937 C404 1.531 . S
C1951 C767 1.533 . S
C1955 C206 1.528 . S
C1969 C239 1.528 . S
C1973 C701 1.534 . S
C1987 C734 1.531 . S
C1991 C272 1.536 . S
C2005 C1031 1.536 . S
C2009 C305 1.529 . S
C2023 C1064 1.531 . S
C2027 C338 1.528 . S
C2041 C998 1.531 . S
C2045 C371 1.536 . S
C2059 C503 1.535 . S
C2063 C833 1.528 . S
C2077 C866 1.528 . S
C2081 C536 1.532 . S
C2095 C569 1.536 . S
C2099 C800 1.529 . S
C2113 C602 1.528 . S
C2117 C1163 1.531 . S
C2131 C635 1.535 . S
C2135 C1097 1.534 . S
C2149 C668 1.534 . S
C2153 C1130 1.534 . S
C2167 N5 1.254 . S
C2171 N14 1.251 . S
C2185 N38 1.256 . S
C2189 N47 1.252 . S
C2203 N71 1.252 . S
C2207 N80 1.248 . S
C2221 N113 1.254 . S
C2225 N104 1.256 . S
C2239 N137 1.255 . S
C2243 N146 1.252 . S
C2257 N179 1.247 . S
C2261 N170 1.251 . S
C2275 N203 1.251 . S
C2279 N212 1.247 . S
C2293 N245 1.247 . S
C2297 N236 1.251 . S
C2311 N278 1.255 . S
C2315 N269 1.257 . S
C2329 N302 1.256 . S
C2333 N311 1.254 . S
C2347 N335 1.253 . S
C2351 N344 1.250 . S
C2365 N377 1.253 . S
C2369 N368 1.256 . S
C2383 N410 1.255 . S
C2387 N401 1.257 . S
C2401 N443 1.250 . S
C2405 N434 1.253 . S
C2419 N467 1.253 . S
C2423 N476 1.248 . S
C2437 N509 1.252 . S
C2441 N500 1.254 . S
C2455 N542 1.251 . S
C2459 N533 1.254 . S
C2473 N566 1.254 . S
C2477 N575 1.251 . S
C2491 N608 1.249 . S
C2495 N599 1.253 . S
C2509 N632 1.253 . S
C2513 N641 1.250 . S
C2527 N665 1.255 . S
C2531 N674 1.253 . S
C2545 N707 1.255 . S
C2549 N698 1.257 . S
C2563 N740 1.253 . S
C2567 N731 1.256 . S
C2581 N773 1.251 . S
C2585 N764 1.254 . S
C2599 N806 1.254 . S
C2603 N797 1.257 . S
C2617 N839 1.251 . S
C2621 N830 1.255 . S
C2635 N863 1.251 . S
C2639 N872 1.247 . S
C2653 N896 1.251 . S
C2657 N905 1.247 . S
C2671 N929 1.257 . S
C2675 N938 1.254 . S
C2689 N962 1.253 . S
C2693 N971 1.249 . S
C2707 N995 1.257 . S
C2711 N1004 1.255 . S
C2725 N1028 1.256 . S
C2729 N1037 1.253 . S
C2743 N1070 1.248 . S
C2747 N1061 1.251 . S
C2761 N1094 1.253 . S
C2765 N1103 1.250 . S
C2779 N1127 1.256 . S
C2783 N1136 1.253 . S
C2797 N1169 1.250 . S
C2801 N1160 1.253 . S
