# Generated by pormake.
# Topology wna, (6)-cn, num edge types: 1
# Building blocks:
#     Node 0, Type 0, BuildingBlock: KUMJIN_clean_sbu_1, # of connection points: 6
#     Node 1, Type 0, BuildingBlock: KUMJIN_clean_sbu_1, # of connection points: 6
#     Node 2, Type 0, BuildingBlock: KUMJIN_clean_sbu_1, # of connection points: 6
#     Node 3, Type 0, BuildingBlock: KUMJIN_clean_sbu_1, # of connection points: 6
#     Node 4, Type 0, BuildingBlock: KUMJIN_clean_sbu_1, # of connection points: 6
#     Node 5, Type 0, BuildingBlock: KUMJIN_clean_sbu_1, # of connection points: 6
#     Node 6, Type 0, BuildingBlock: KUMJIN_clean_sbu_1, # of connection points: 6
#     Node 7, Type 0, BuildingBlock: KUMJIN_clean_sbu_1, # of connection points: 6
#     Node 8, Type 0, BuildingBlock: KUMJIN_clean_sbu_1, # of connection points: 6
#     Node 9, Type 0, BuildingBlock: KUMJIN_clean_sbu_1, # of connection points: 6
#     Node 10, Type 0, BuildingBlock: KUMJIN_clean_sbu_1, # of connection points: 6
#     Node 11, Type 0, BuildingBlock: KUMJIN_clean_sbu_1, # of connection points: 6
#     Node 12, Type 0, BuildingBlock: KUMJIN_clean_sbu_1, # of connection points: 6
#     Node 13, Type 0, BuildingBlock: KUMJIN_clean_sbu_1, # of connection points: 6
#     Node 14, Type 0, BuildingBlock: KUMJIN_clean_sbu_1, # of connection points: 6
#     Node 15, Type 0, BuildingBlock: KUMJIN_clean_sbu_1, # of connection points: 6
#     Node 16, Type 0, BuildingBlock: KUMJIN_clean_sbu_1, # of connection points: 6
#     Node 17, Type 0, BuildingBlock: KUMJIN_clean_sbu_1, # of connection points: 6
#     Node 18, Type 0, BuildingBlock: KUMJIN_clean_sbu_1, # of connection points: 6
#     Node 19, Type 0, BuildingBlock: KUMJIN_clean_sbu_1, # of connection points: 6
#     Node 20, Type 0, BuildingBlock: KUMJIN_clean_sbu_1, # of connection points: 6
#     Node 21, Type 0, BuildingBlock: KUMJIN_clean_sbu_1, # of connection points: 6
#     Node 22, Type 0, BuildingBlock: KUMJIN_clean_sbu_1, # of connection points: 6
#     Node 23, Type 0, BuildingBlock: KUMJIN_clean_sbu_1, # of connection points: 6
#     Node 24, Type 0, BuildingBlock: KUMJIN_clean_sbu_1, # of connection points: 6
#     Node 25, Type 0, BuildingBlock: KUMJIN_clean_sbu_1, # of connection points: 6
#     Node 26, Type 0, BuildingBlock: KUMJIN_clean_sbu_1, # of connection points: 6
#     Node 27, Type 0, BuildingBlock: KUMJIN_clean_sbu_1, # of connection points: 6
#     Node 28, Type 0, BuildingBlock: KUMJIN_clean_sbu_1, # of connection points: 6
#     Node 29, Type 0, BuildingBlock: KUMJIN_clean_sbu_1, # of connection points: 6
#     Node 30, Type 0, BuildingBlock: KUMJIN_clean_sbu_1, # of connection points: 6
#     Node 31, Type 0, BuildingBlock: KUMJIN_clean_sbu_1, # of connection points: 6
#     Node 32, Type 0, BuildingBlock: KUMJIN_clean_sbu_1, # of connection points: 6
#     Node 33, Type 0, BuildingBlock: KUMJIN_clean_sbu_1, # of connection points: 6
#     Node 34, Type 0, BuildingBlock: KUMJIN_clean_sbu_1, # of connection points: 6
#     Node 35, Type 0, BuildingBlock: KUMJIN_clean_sbu_1, # of connection points: 6
#     Edge 36, Type (0, 0), None
#     Edge 37, Type (0, 0), None
#     Edge 38, Type (0, 0), None
#     Edge 39, Type (0, 0), None
#     Edge 40, Type (0, 0), None
#     Edge 41, Type (0, 0), None
#     Edge 42, Type (0, 0), None
#     Edge 43, Type (0, 0), None
#     Edge 44, Type (0, 0), None
#     Edge 45, Type (0, 0), None
#     Edge 46, Type (0, 0), None
#     Edge 47, Type (0, 0), None
#     Edge 48, Type (0, 0), None
#     Edge 49, Type (0, 0), None
#     Edge 50, Type (0, 0), None
#     Edge 51, Type (0, 0), None
#     Edge 52, Type (0, 0), None
#     Edge 53, Type (0, 0), None
#     Edge 54, Type (0, 0), None
#     Edge 55, Type (0, 0), None
#     Edge 56, Type (0, 0), None
#     Edge 57, Type (0, 0), None
#     Edge 58, Type (0, 0), None
#     Edge 59, Type (0, 0), None
#     Edge 60, Type (0, 0), None
#     Edge 61, Type (0, 0), None
#     Edge 62, Type (0, 0), None
#     Edge 63, Type (0, 0), None
#     Edge 64, Type (0, 0), None
#     Edge 65, Type (0, 0), None
#     Edge 66, Type (0, 0), None
#     Edge 67, Type (0, 0), None
#     Edge 68, Type (0, 0), None
#     Edge 69, Type (0, 0), None
#     Edge 70, Type (0, 0), None
#     Edge 71, Type (0, 0), None
#     Edge 72, Type (0, 0), None
#     Edge 73, Type (0, 0), None
#     Edge 74, Type (0, 0), None
#     Edge 75, Type (0, 0), None
#     Edge 76, Type (0, 0), None
#     Edge 77, Type (0, 0), None
#     Edge 78, Type (0, 0), None
#     Edge 79, Type (0, 0), None
#     Edge 80, Type (0, 0), None
#     Edge 81, Type (0, 0), None
#     Edge 82, Type (0, 0), None
#     Edge 83, Type (0, 0), None
#     Edge 84, Type (0, 0), None
#     Edge 85, Type (0, 0), None
#     Edge 86, Type (0, 0), None
#     Edge 87, Type (0, 0), None
#     Edge 88, Type (0, 0), None
#     Edge 89, Type (0, 0), None
#     Edge 90, Type (0, 0), None
#     Edge 91, Type (0, 0), None
#     Edge 92, Type (0, 0), None
#     Edge 93, Type (0, 0), None
#     Edge 94, Type (0, 0), None
#     Edge 95, Type (0, 0), None
#     Edge 96, Type (0, 0), None
#     Edge 97, Type (0, 0), None
#     Edge 98, Type (0, 0), None
#     Edge 99, Type (0, 0), None
#     Edge 100, Type (0, 0), None
#     Edge 101, Type (0, 0), None
#     Edge 102, Type (0, 0), None
#     Edge 103, Type (0, 0), None
#     Edge 104, Type (0, 0), None
#     Edge 105, Type (0, 0), None
#     Edge 106, Type (0, 0), None
#     Edge 107, Type (0, 0), None
#     Edge 108, Type (0, 0), None
#     Edge 109, Type (0, 0), None
#     Edge 110, Type (0, 0), None
#     Edge 111, Type (0, 0), None
#     Edge 112, Type (0, 0), None
#     Edge 113, Type (0, 0), None
#     Edge 114, Type (0, 0), None
#     Edge 115, Type (0, 0), None
#     Edge 116, Type (0, 0), None
#     Edge 117, Type (0, 0), None
#     Edge 118, Type (0, 0), None
#     Edge 119, Type (0, 0), None
#     Edge 120, Type (0, 0), None
#     Edge 121, Type (0, 0), None
#     Edge 122, Type (0, 0), None
#     Edge 123, Type (0, 0), None
#     Edge 124, Type (0, 0), None
#     Edge 125, Type (0, 0), None
#     Edge 126, Type (0, 0), None
#     Edge 127, Type (0, 0), None
#     Edge 128, Type (0, 0), None
#     Edge 129, Type (0, 0), None
#     Edge 130, Type (0, 0), None
#     Edge 131, Type (0, 0), None
#     Edge 132, Type (0, 0), None
#     Edge 133, Type (0, 0), None
#     Edge 134, Type (0, 0), None
#     Edge 135, Type (0, 0), None
#     Edge 136, Type (0, 0), None
#     Edge 137, Type (0, 0), None
#     Edge 138, Type (0, 0), None
#     Edge 139, Type (0, 0), None
#     Edge 140, Type (0, 0), None
#     Edge 141, Type (0, 0), None
#     Edge 142, Type (0, 0), None
#     Edge 143, Type (0, 0), None
# Relax obj value: 0.148
# Max RMSD: 0.270
# Mean RMSD: 0.241
data_MOF--net-wna--node1-KUMJIN_clean_sbu_1--edge1-none
_symmetry_space_group_name_H-M    P1
_symmetry_Int_Tables_number       1
_symmetry_cell_setting            triclinic
loop_
_symmetry_equiv_pos_as_xyz
'x, y, z'
_cell_length_a     19.138365
_cell_length_b     19.134568
_cell_length_c     100.10043
_cell_angle_alpha  89.988936
_cell_angle_beta   90.005506
_cell_angle_gamma 120.01351
loop_
_atom_site_label
_atom_site_type_symbol
_atom_site_fract_x
_atom_site_fract_y
_atom_site_fract_z
_atom_type_partial_charge
Eu0 Eu 0.10456 0.24677 0.19236 0.0
C1 C 0.88615 0.94062 0.13196 0.0
N2 N 0.92028 0.97078 0.14436 0.0
C3 C 0.85804 0.81054 0.15159 0.0
C4 C 0.82769 0.85506 0.12808 0.0
C5 C 0.91249 0.90964 0.15494 0.0
C6 C 0.80433 0.78597 0.13754 0.0
C7 C 0.85853 0.98349 0.11212 0.0
C8 C 0.89802 -0.00049 0.12443 0.0
C9 C 0.84171 0.91019 0.10598 0.0
C10 C 0.81975 0.84323 0.11429 0.0
Eu11 Eu 0.07044 0.18891 0.14977 0.0
N12 N 0.90156 0.05319 0.13341 0.0
C13 C 0.81178 0.0205 0.10994 0.0
C14 C 0.8381 0.06943 0.13223 0.0
C15 C 0.79776 0.05826 0.12055 0.0
H16 H 0.93666 0.93628 0.16412 0.0
H17 H 0.75023 0.07157 0.12099 0.0
H18 H 0.14449 0.41763 0.17424 0.0
H19 H 0.29056 0.2333 0.23183 0.0
H20 H 0.8224 0.0984 0.14003 0.0
H21 H 0.77077 0.00645 0.10187 0.0
H22 H 0.20785 0.18436 0.21113 0.0
H23 H 0.85955 0.76249 0.15964 0.0
H24 H 0.83154 0.89802 0.09551 0.0
H25 H 0.79879 0.78461 0.10995 0.0
H26 H 0.18634 0.55802 0.18056 0.0
H27 H 0.8297 0.79203 0.14527 0.0
H28 H 0.32911 0.36673 0.24098 0.0
N29 N 0.17489 0.38923 0.19313 0.0
C30 C 0.2183 0.41982 0.20451 0.0
C31 C 0.19424 0.51899 0.18748 0.0
C32 C 0.24398 0.49908 0.20854 0.0
C33 C 0.16934 0.43918 0.18402 0.0
C34 C 0.22793 0.54739 0.20007 0.0
N35 N 0.20893 0.2945 0.20807 0.0
C36 C 0.22778 0.24443 0.21484 0.0
C37 C 0.27967 0.39934 0.22422 0.0
C38 C 0.23638 0.37102 0.2122 0.0
C39 C 0.29548 0.3472 0.23171 0.0
C40 C 0.27037 0.26986 0.22688 0.0
H41 H 0.24465 0.60758 0.2029 0.0
H42 H 0.30229 0.58668 0.22439 0.0
H43 H 0.33619 0.50007 0.23779 0.0
O44 O 0.05586 0.15068 0.20698 0.0
O45 O 0.23193 0.28922 0.18148 0.0
O46 O 0.21239 0.2478 0.1587 0.0
O47 O 0.06761 0.26816 0.21186 0.0
O48 O 0.12439 0.14049 0.18717 0.0
O49 O 0.14302 0.14054 0.16409 0.0
O50 O 0.10973 0.31296 0.13796 0.0
O51 O 0.02082 0.17717 0.17269 0.0
O52 O 0.97277 0.1432 0.19188 0.0
O53 O 0.17596 0.25294 0.13638 0.0
O54 O 0.01889 0.28138 0.1598 0.0
O55 O 0.02019 0.29586 0.1833 0.0
C56 C 0.26378 0.28634 0.16953 0.0
C57 C 0.03696 0.17186 0.23016 0.0
C58 C 0.88533 0.08854 0.24501 0.0
C59 C 0.89772 0.10244 0.26129 0.0
C60 C 0.0707 0.24351 0.24255 0.0
C61 C 0.02327 0.23148 0.25732 0.0
C62 C 0.9518 0.08264 0.23109 0.0
C63 C 0.14226 0.11078 0.17665 0.0
C64 C 0.04377 0.19434 0.21563 0.0
C65 C 0.28446 0.52698 0.22083 0.0
C66 C 0.30357 0.47768 0.22851 0.0
C67 C 0.95572 0.11977 0.17986 0.0
C68 C 0.20368 0.34485 0.11729 0.0
C69 C 0.21724 0.34197 0.09169 0.0
C70 C 0.30042 0.38674 0.09354 0.0
C71 C 0.28777 0.39222 0.11768 0.0
C72 C 0.16878 0.32617 0.10377 0.0
C73 C 0.33473 0.41449 0.10613 0.0
C74 C 0.99653 0.30774 0.17121 0.0
C75 C 0.16627 0.30903 0.13139 0.0
H76 H 0.88224 0.04911 0.26798 0.0
H77 H 0.07964 0.20316 0.23677 0.0
H78 H 0.05247 0.28333 0.26394 0.0
H79 H 0.92558 0.04386 0.22251 0.0
H80 H 0.3397 0.397 0.08517 0.0
H81 H 0.31847 0.40848 0.1272 0.0
H82 H 0.1056 0.30026 0.10229 0.0
H83 H 0.39972 0.44879 0.10705 0.0
Eu84 Eu 0.74521 0.85439 0.19147 0.0
C85 C 0.05439 0.94412 0.13191 0.0
N86 N 0.02379 0.9484 0.14423 0.0
C87 C 0.18335 0.04438 0.15179 0.0
C88 C 0.13971 0.97097 0.12818 0.0
C89 C 0.08449 0.00092 0.15495 0.0
C90 C 0.20798 0.01575 0.13774 0.0
C91 C 0.01212 0.87495 0.11195 0.0
C92 C 0.99592 0.89802 0.12426 0.0
C93 C 0.08578 0.93161 0.10594 0.0
C94 C 0.15223 0.97579 0.11439 0.0
Eu95 Eu 0.80582 0.88034 0.1492 0.0
N96 N 0.94208 0.84768 0.13316 0.0
C97 C 0.97491 0.79117 0.10971 0.0
C98 C 0.92561 0.76797 0.13195 0.0
C99 C 0.93736 0.73929 0.12031 0.0
H100 H 0.05743 0.9984 0.16408 0.0
H101 H 0.92569 0.67921 0.12091 0.0
H102 H 0.57242 0.72027 0.17398 0.0
H103 H 0.76379 0.05688 0.23031 0.0
H104 H 0.89693 0.72329 0.13978 0.0
H105 H 0.98869 0.76412 0.10164 0.0
H106 H 0.80796 0.02186 0.20943 0.0
H107 H 0.23089 0.09355 0.15992 0.0
H108 H 0.09863 0.93432 0.09548 0.0
H109 H 0.21079 0.01365 0.11011 0.0
H110 H 0.4328 0.6224 0.18065 0.0
H111 H 0.20193 0.03472 0.14548 0.0
H112 H 0.62864 0.96555 0.23958 0.0
N113 N 0.60274 0.78044 0.19277 0.0
C114 C 0.57268 0.79497 0.20403 0.0
C115 C 0.47246 0.6697 0.18745 0.0
C116 C 0.49384 0.74181 0.20829 0.0
C117 C 0.55203 0.72411 0.18382 0.0
C118 C 0.44493 0.67643 0.20003 0.0
N119 N 0.6971 0.91271 0.20677 0.0
C120 C 0.74756 0.98305 0.21314 0.0
C121 C 0.59388 0.88104 0.22314 0.0
C122 C 0.62138 0.8638 0.21124 0.0
C123 C 0.64661 0.9507 0.23022 0.0
C124 C 0.72359 0.00195 0.22512 0.0
H125 H 0.38465 0.63383 0.20293 0.0
H126 H 0.40738 0.71507 0.22425 0.0
H127 H 0.49439 0.83821 0.23702 0.0
O128 O 0.84507 0.90777 0.20547 0.0
O129 O 0.69884 0.93188 0.17959 0.0
O130 O 0.74726 0.96207 0.15727 0.0
O131 O 0.72955 0.80175 0.2112 0.0
O132 O 0.8504 0.98111 0.18683 0.0
O133 O 0.85249 0.00014 0.16383 0.0
O134 O 0.68204 0.79517 0.13741 0.0
O135 O 0.81646 0.84262 0.17226 0.0
O136 O 0.84605 0.82255 0.19143 0.0
O137 O 0.74208 0.92165 0.13574 0.0
O138 O 0.71116 0.73772 0.15867 0.0
O139 O 0.69731 0.72248 0.18215 0.0
C140 C 0.70298 0.96757 0.16772 0.0
C141 C 0.82862 0.87176 0.22892 0.0
C142 C 0.91144 0.80015 0.24301 0.0
C143 C 0.89864 0.79691 0.25933 0.0
C144 C 0.75796 0.83376 0.24147 0.0
C145 C 0.7703 0.79622 0.256 0.0
C146 C 0.91758 0.87458 0.22948 0.0
C147 C 0.88088 0.02911 0.17645 0.0
C148 C 0.80366 0.85373 0.21452 0.0
C149 C 0.46676 0.75645 0.22049 0.0
C150 C 0.51627 0.82662 0.22779 0.0
C151 C 0.87271 0.83373 0.17958 0.0
C152 C 0.64946 0.85677 0.11685 0.0
C153 C 0.65206 0.87353 0.09133 0.0
C154 C 0.6062 0.91077 0.09318 0.0
C155 C 0.60118 0.89245 0.1173 0.0
C156 C 0.66872 0.84136 0.10335 0.0
C157 C 0.57835 0.91686 0.10577 0.0
C158 C 0.68472 0.68879 0.16991 0.0
C159 C 0.6859 0.85562 0.13084 0.0
H160 H 0.9522 0.83238 0.26612 0.0
H161 H 0.79859 0.88315 0.2357 0.0
H162 H 0.71929 0.77474 0.26281 0.0
H163 H 0.95543 0.8871 0.22076 0.0
H164 H 0.59505 0.93912 0.0848 0.0
H165 H 0.58458 0.90623 0.12684 0.0
H166 H 0.69568 0.80505 0.10185 0.0
H167 H 0.54325 0.94665 0.10672 0.0
Eu168 Eu 0.13854 0.88803 0.19183 0.0
C169 C 0.05035 0.10957 0.13228 0.0
N170 N 0.04585 0.07442 0.14458 0.0
C171 C 0.94813 0.1363 0.15195 0.0
C172 C 0.02349 0.16814 0.12851 0.0
C173 C 0.99259 0.08167 0.15519 0.0
C174 C 0.97776 0.19092 0.13803 0.0
C175 C 0.11995 0.13664 0.11237 0.0
C176 C 0.0964 0.09695 0.12464 0.0
C177 C 0.0637 0.15408 0.10632 0.0
C178 C 0.01927 0.17628 0.11472 0.0
Eu179 Eu 0.11213 0.92214 0.14942 0.0
N180 N 0.14635 0.09242 0.13352 0.0
C181 C 0.20377 0.18296 0.11019 0.0
C182 C 0.22602 0.15603 0.13245 0.0
C183 C 0.25538 0.1967 0.12081 0.0
H184 H 0.99503 0.05703 0.16435 0.0
H185 H 0.31616 0.24411 0.12131 0.0
H186 H 0.26911 0.84449 0.17389 0.0
H187 H 0.92863 0.69378 0.22921 0.0
H188 H 0.27048 0.17145 0.14028 0.0
H189 H 0.23101 0.2238 0.10211 0.0
H190 H 0.9664 0.77722 0.2087 0.0
H191 H 0.89804 0.13406 0.15996 0.0
H192 H 0.0616 0.16461 0.09586 0.0
H193 H 0.98158 0.19728 0.11043 0.0
H194 H 0.36637 0.80203 0.18063 0.0
H195 H 0.95824 0.16501 0.14569 0.0
H196 H 0.02683 0.66474 0.24002 0.0
N197 N 0.21042 0.81732 0.1928 0.0
C198 C 0.19649 0.77417 0.20423 0.0
C199 C 0.31986 0.79581 0.18749 0.0
C200 C 0.24956 0.74863 0.20857 0.0
C201 C 0.26575 0.82126 0.1838 0.0
C202 C 0.31405 0.76338 0.20021 0.0
N203 N 0.07834 0.78035 0.20679 0.0
C204 C 0.00591 0.75712 0.21267 0.0
C205 C 0.11117 0.71184 0.22351 0.0
C206 C 0.12789 0.75486 0.21147 0.0
C207 C 0.04023 0.69357 0.23032 0.0
C208 C 0.98528 0.71194 0.22443 0.0
H209 H 0.35653 0.74559 0.20315 0.0
H210 H 0.27746 0.69165 0.22484 0.0
H211 H 0.15546 0.65852 0.23779 0.0
O212 O 0.0933 0.93685 0.20668 0.0
O213 O 0.05218 0.76188 0.18134 0.0
O214 O 0.02849 0.78075 0.15862 0.0
O215 O 0.19945 0.9253 0.21124 0.0
O216 O 0.01205 0.86914 0.18695 0.0
O217 O 0.99267 0.85018 0.16391 0.0
O218 O 0.19738 0.88347 0.13767 0.0
O219 O 0.15021 0.97121 0.17248 0.0
O220 O 0.16625 0.0193 0.19174 0.0
O221 O 0.0713 0.81774 0.13589 0.0
O222 O 0.25406 0.96758 0.15851 0.0
O223 O 0.26976 0.96871 0.18192 0.0
C224 C 0.01616 0.73014 0.16955 0.0
C225 C 0.13574 0.95801 0.22964 0.0
C226 C 0.19748 0.10899 0.24452 0.0
C227 C 0.19878 0.0967 0.26077 0.0
C228 C 0.17573 0.92698 0.2421 0.0
C229 C 0.20836 0.97438 0.25693 0.0
C230 C 0.12755 0.04102 0.23052 0.0
C231 C 0.96387 0.85069 0.17649 0.0
C232 C 0.15009 0.94964 0.21513 0.0
C233 C 0.23582 0.70906 0.22098 0.0
C234 C 0.16642 0.6903 0.2284 0.0
C235 C 0.15822 0.03601 0.17979 0.0
C236 C 0.13641 0.79011 0.11697 0.0
C237 C 0.12016 0.77626 0.09142 0.0
C238 C 0.08332 0.69317 0.09327 0.0
C239 C 0.10126 0.70618 0.1174 0.0
C240 C 0.15185 0.82492 0.10348 0.0
C241 C 0.0773 0.6591 0.10586 0.0
C242 C 0.30311 0.98916 0.16964 0.0
C243 C 0.13716 0.82743 0.13099 0.0
H244 H 0.15937 0.11024 0.26744 0.0
H245 H 0.12537 0.9149 0.23633 0.0
H246 H 0.23141 0.94599 0.26367 0.0
H247 H 0.11252 0.06552 0.22198 0.0
H248 H 0.05506 0.65379 0.08489 0.0
H249 H 0.08746 0.67564 0.12693 0.0
H250 H 0.18813 0.88816 0.10199 0.0
H251 H 0.04752 0.59417 0.10682 0.0
Eu252 Eu 0.22953 0.09254 0.31642 0.0
C253 C 0.0579 0.98972 0.38381 0.0
N254 N 0.06726 0.06734 0.36666 0.0
C255 C 0.90758 0.08505 0.37742 0.0
C256 C 0.93864 0.93324 0.40393 0.0
C257 C 0.01774 0.12302 0.36411 0.0
C258 C 0.87605 0.01178 0.39238 0.0
C259 C 0.11975 0.91543 0.40286 0.0
C260 C 0.12725 0.95924 0.38856 0.0
C261 C 0.0509 0.89 0.41491 0.0
C262 C 0.96536 0.89288 0.41585 0.0
Eu263 Eu 0.21871 0.08239 0.35784 0.0
N264 N 0.19399 0.97497 0.37953 0.0
C265 C 0.17383 0.88805 0.40395 0.0
C266 C 0.22923 0.92686 0.38074 0.0
C267 C 0.21334 0.88133 0.39263 0.0
H268 H 0.05786 0.18284 0.3605 0.0
H269 H 0.23615 0.84021 0.39334 0.0
H270 H 0.357 0.15189 0.34199 0.0
H271 H 0.27296 0.25332 0.26901 0.0
H272 H 0.22554 0.97508 0.37633 0.0
H273 H 0.17551 0.85937 0.41312 0.0
H274 H 0.19173 0.17174 0.28861 0.0
H275 H 0.89885 0.12998 0.38179 0.0
H276 H 0.07214 0.88127 0.42423 0.0
H277 H 0.93386 0.87929 0.42528 0.0
H278 H 0.4995 0.22232 0.34515 0.0
H279 H 0.85924 0.01696 0.38238 0.0
H280 H 0.41995 0.32351 0.26972 0.0
N281 N 0.36474 0.16976 0.32109 0.0
C282 C 0.41174 0.21442 0.31079 0.0
C283 C 0.47751 0.21573 0.33514 0.0
C284 C 0.49545 0.25629 0.31201 0.0
C285 C 0.39561 0.17673 0.33346 0.0
C286 C 0.52807 0.25038 0.3241 0.0
N287 N 0.29441 0.18885 0.29935 0.0
C288 C 0.25668 0.20094 0.28884 0.0
C289 C 0.42344 0.27657 0.28921 0.0
C290 C 0.37582 0.22549 0.29967 0.0
C291 C 0.38554 0.28645 0.27812 0.0
C292 C 0.30203 0.24761 0.27786 0.0
H293 H 0.59202 0.28161 0.32542 0.0
H294 H 0.60617 0.34616 0.30294 0.0
H295 H 0.54498 0.3545 0.28216 0.0
O296 O 0.14222 0.04437 0.30027 0.0
O297 O 0.26853 0.22329 0.32279 0.0
O298 O 0.27599 0.21548 0.34634 0.0
O299 O 0.23275 0.00903 0.30179 0.0
O300 O 0.13729 0.12127 0.32551 0.0
O301 O 0.13212 0.12305 0.34903 0.0
O302 O 0.32776 0.10401 0.36989 0.0
O303 O 0.16675 0.9829 0.34123 0.0
O304 O 0.1081 0.00709 0.32441 0.0
O305 O 0.31195 0.20385 0.36548 0.0
O306 O 0.28226 0.01284 0.34732 0.0
O307 O 0.29308 0.02144 0.32403 0.0
C308 C 0.28845 0.25948 0.33471 0.0
C309 C 0.17775 0.00704 0.27949 0.0
C310 C 0.26954 0.11402 0.25713 0.0
C311 C 0.23527 0.07194 0.24241 0.0
C312 C 0.0935 0.96606 0.26873 0.0
C313 C 0.09934 0.9838 0.25226 0.0
C314 C 0.27293 0.0708 0.27434 0.0
C315 C 0.10891 0.13285 0.3369 0.0
C316 C 0.1715 0.00236 0.29506 0.0
C317 C 0.54279 0.3083 0.30175 0.0
C318 C 0.5073 0.31614 0.29015 0.0
C319 C 0.09939 0.96471 0.33486 0.0
C320 C 0.37203 0.20953 0.3874 0.0
C321 C 0.35604 0.22189 0.41275 0.0
C322 C 0.41139 0.30362 0.41082 0.0
C323 C 0.43483 0.28844 0.38758 0.0
C324 C 0.33305 0.1737 0.40042 0.0
C325 C 0.45321 0.33422 0.39892 0.0
C326 C 0.30946 0.99821 0.33563 0.0
C327 C 0.35171 0.17875 0.37277 0.0
H328 H 0.27492 0.06141 0.23513 0.0
H329 H 0.13677 0.98679 0.27475 0.0
H330 H 0.0427 0.94597 0.24723 0.0
H331 H 0.32167 0.1006 0.28132 0.0
H332 H 0.42042 0.34593 0.41871 0.0
H333 H 0.46715 0.31756 0.37852 0.0
H334 H 0.28473 0.11174 0.401 0.0
H335 H 0.49755 0.39677 0.39802 0.0
Eu336 Eu 0.9055 0.13983 0.31706 0.0
C337 C 0.00958 0.06969 0.38366 0.0
N338 N 0.9306 -3e-05 0.36668 0.0
C339 C 0.91388 0.82332 0.3779 0.0
C340 C 0.06701 0.00868 0.40393 0.0
C341 C 0.87529 0.89408 0.36429 0.0
C342 C 0.98816 0.86656 0.39273 0.0
C343 C 0.08542 0.2075 0.4024 0.0
C344 C 0.04065 0.17007 0.38822 0.0
C345 C 0.11143 0.16508 0.41448 0.0
C346 C 0.10838 0.07681 0.41561 0.0
Eu347 Eu 0.91599 0.1369 0.35792 0.0
N348 N 0.02456 0.22056 0.37918 0.0
C349 C 0.11309 0.2891 0.40332 0.0
C350 C 0.07357 0.30404 0.38011 0.0
C351 C 0.12017 0.33458 0.39188 0.0
H352 H 0.81769 0.86951 0.35933 0.0
H353 H 0.1622 0.39851 0.39241 0.0
H354 H 0.84722 0.2069 0.34295 0.0
H355 H 0.74317 0.02641 0.26967 0.0
H356 H 0.02444 0.25199 0.37591 0.0
H357 H 0.14136 0.31988 0.41248 0.0
H358 H 0.82286 0.02239 0.28928 0.0
H359 H 0.86778 0.76831 0.38183 0.0
H360 H 0.12124 0.19619 0.42371 0.0
H361 H 0.12282 0.05984 0.42507 0.0
H362 H 0.7779 0.28026 0.34635 0.0
H363 H 0.97954 0.84362 0.38282 0.0
H364 H 0.6765 0.10602 0.27058 0.0
N365 N 0.82963 0.19861 0.32204 0.0
C366 C 0.78561 0.20244 0.31178 0.0
C367 C 0.7846 0.26527 0.33631 0.0
C368 C 0.74437 0.2447 0.31317 0.0
C369 C 0.82275 0.22165 0.33449 0.0
C370 C 0.75051 0.28238 0.32533 0.0
N371 N 0.80905 0.10988 0.30011 0.0
C372 C 0.79542 0.0598 0.28957 0.0
C373 C 0.72329 0.15414 0.29016 0.0
C374 C 0.77396 0.15603 0.30055 0.0
C375 C 0.71283 0.10706 0.27897 0.0
C376 C 0.74961 0.06054 0.27861 0.0
H377 H 0.71937 0.31509 0.32671 0.0
H378 H 0.65302 0.26483 0.30457 0.0
H379 H 0.64602 0.19917 0.28339 0.0
O380 O 0.95248 0.0996 0.30093 0.0
O381 O 0.77499 0.04743 0.32342 0.0
O382 O 0.78268 0.06183 0.34692 0.0
O383 O 0.9871 0.22554 0.30213 0.0
O384 O 0.87569 0.01909 0.32636 0.0
O385 O 0.87735 0.00762 0.34963 0.0
O386 O 0.89445 0.22387 0.37018 0.0
O387 O 0.01504 0.1875 0.34135 0.0
O388 O 0.99139 0.10399 0.32476 0.0
O389 O 0.79462 0.10851 0.36564 0.0
O390 O 0.98666 0.27129 0.3478 0.0
O391 O 0.97716 0.27475 0.32458 0.0
C392 C 0.73892 0.03072 0.33535 0.0
C393 C 0.98788 0.17028 0.27996 0.0
C394 C 0.88318 0.15798 0.25741 0.0
C395 C 0.92497 0.16285 0.24283 0.0
C396 C 0.02626 0.12323 0.26942 0.0
C397 C 0.00857 0.11052 0.25291 0.0
C398 C 0.92684 0.20489 0.27452 0.0
C399 C 0.86647 0.97623 0.33735 0.0
C400 C 0.99356 0.17047 0.29552 0.0
C401 C 0.69177 0.2405 0.30307 0.0
C402 C 0.68406 0.19863 0.29133 0.0
C403 C 0.03474 0.13973 0.33499 0.0
C404 C 0.78869 0.1621 0.38763 0.0
C405 C 0.77718 0.13537 0.41304 0.0
C406 C 0.69523 0.10823 0.41115 0.0
C407 C 0.70929 0.14449 0.3878 0.0
C408 C 0.82502 0.16016 0.40066 0.0
C409 C 0.66378 0.11718 0.39917 0.0
C410 C 0.00096 0.31391 0.33621 0.0
C411 C 0.81974 0.17302 0.37302 0.0
H412 H 0.94004 0.21527 0.23594 0.0
H413 H 0.00687 0.14774 0.27531 0.0
H414 H 0.04429 0.08839 0.24799 0.0
H415 H 0.89878 0.22782 0.28117 0.0
H416 H 0.65333 0.07577 0.41914 0.0
H417 H 0.67955 0.14625 0.3787 0.0
H418 H 0.88717 0.17444 0.40121 0.0
H419 H 0.60081 0.09729 0.39825 0.0
Eu420 Eu 0.85446 0.7692 0.31644 0.0
C421 C 0.92951 0.94138 0.38377 0.0
N422 N 0.9983 0.93071 0.36688 0.0
C423 C 0.17544 0.09139 0.37745 0.0
C424 C 0.99165 0.0616 0.40381 0.0
C425 C 0.10351 0.98038 0.36434 0.0
C426 C 0.1333 0.12367 0.39234 0.0
C427 C 0.79259 0.88055 0.40264 0.0
C428 C 0.82933 0.87252 0.38845 0.0
C429 C 0.83559 0.94978 0.41462 0.0
C430 C 0.92395 0.03536 0.41559 0.0
Eu431 Eu 0.86256 0.77893 0.35859 0.0
N432 N 0.77857 0.80562 0.37949 0.0
C433 C 0.71117 0.82596 0.40373 0.0
C434 C 0.69519 0.76929 0.38064 0.0
C435 C 0.6651 0.78549 0.39244 0.0
H436 H 0.12402 0.94099 0.36066 0.0
H437 H 0.60105 0.76236 0.39308 0.0
H438 H 0.79099 0.6446 0.34237 0.0
H439 H 0.97399 0.72099 0.26963 0.0
H440 H 0.74746 0.77297 0.37631 0.0
H441 H 0.68068 0.82419 0.41288 0.0
H442 H 0.97404 0.80414 0.28901 0.0
H443 H 0.22981 0.10111 0.38159 0.0
H444 H 0.80563 0.92825 0.42393 0.0
H445 H 0.94148 0.06703 0.42502 0.0
H446 H 0.71998 0.50196 0.34603 0.0
H447 H 0.15549 0.13934 0.38235 0.0
H448 H 0.89479 0.57447 0.27047 0.0
N449 N 0.79585 0.63428 0.32141 0.0
C450 C 0.79297 0.58639 0.31123 0.0
C451 C 0.73373 0.52318 0.33594 0.0
C452 C 0.75258 0.50296 0.31275 0.0
C453 C 0.77545 0.60491 0.33396 0.0
C454 C 0.7166 0.47156 0.32502 0.0
N455 N 0.88565 0.70247 0.29967 0.0
C456 C 0.93725 0.73922 0.2893 0.0
C457 C 0.84326 0.57275 0.28976 0.0
C458 C 0.83985 0.62127 0.30006 0.0
C459 C 0.89213 0.60961 0.27875 0.0
C460 C 0.93845 0.69298 0.27844 0.0
H461 H 0.68539 0.40783 0.32652 0.0
H462 H 0.7342 0.39205 0.30426 0.0
H463 H 0.79943 0.45067 0.28303 0.0
O464 O 0.8971 0.85809 0.30036 0.0
O465 O 0.95114 0.73547 0.32379 0.0
O466 O 0.93551 0.72039 0.34734 0.0
O467 O 0.77525 0.75531 0.29988 0.0
O468 O 0.97381 0.86553 0.32576 0.0
O469 O 0.98804 0.86563 0.34926 0.0
O470 O 0.77607 0.6673 0.37016 0.0
O471 O 0.8347 0.82444 0.33995 0.0
O472 O 0.84125 0.87606 0.32135 0.0
O473 O 0.89477 0.6888 0.36625 0.0
O474 O 0.72699 0.71882 0.34838 0.0
O475 O 0.72214 0.70545 0.32494 0.0
C476 C 0.96711 0.71175 0.33554 0.0
C477 C 0.83365 0.81929 0.27844 0.0
C478 C 0.84231 0.7282 0.25542 0.0
C479 C 0.83655 0.76674 0.24101 0.0
C480 C 0.88102 0.90546 0.26812 0.0
C481 C 0.89176 0.90162 0.25155 0.0
C482 C 0.79724 0.72422 0.27275 0.0
C483 C 0.01652 0.89262 0.33698 0.0
C484 C 0.82851 0.82153 0.29398 0.0
C485 C 0.75751 0.45483 0.30269 0.0
C486 C 0.79908 0.48905 0.29092 0.0
C487 C 0.84211 0.88923 0.33381 0.0
C488 C 0.83898 0.62651 0.3879 0.0
C489 C 0.86557 0.64287 0.41327 0.0
C490 C 0.89392 0.58896 0.41149 0.0
C491 C 0.85758 0.56546 0.38816 0.0
C492 C 0.8405 0.66512 0.40086 0.0
C493 C 0.88584 0.54859 0.39954 0.0
C494 C 0.68407 0.69147 0.33668 0.0
C495 C 0.82915 0.64653 0.37327 0.0
H496 H 0.78463 0.73074 0.2338 0.0
H497 H 0.85633 0.86125 0.27395 0.0
H498 H 0.91365 0.95955 0.24683 0.0
H499 H 0.77534 0.67361 0.27941 0.0
H500 H 0.9264 0.58 0.41954 0.0
H501 H 0.85647 0.53403 0.3791 0.0
H502 H 0.82575 0.71269 0.40133 0.0
H503 H 0.90699 0.50646 0.39866 0.0
Eu504 Eu 0.92235 0.8083 0.85502 0.0
C505 C 0.77425 0.57641 0.80031 0.0
N506 N 0.81765 0.6054 0.81171 0.0
C507 C 0.79536 0.47412 0.81701 0.0
C508 C 0.74812 0.49766 0.79596 0.0
C509 C 0.8214 0.55381 0.8207 0.0
C510 C 0.76258 0.44763 0.8043 0.0
C511 C 0.71151 0.59977 0.78111 0.0
C512 C 0.75502 0.62594 0.79311 0.0
C513 C 0.68954 0.52288 0.7762 0.0
C514 C 0.70814 0.47195 0.78358 0.0
Eu515 Eu 0.88864 0.74795 0.81274 0.0
N516 N 0.78078 0.70099 0.79782 0.0
C517 C 0.69289 0.65253 0.77441 0.0
C518 C 0.75723 0.75024 0.79205 0.0
C519 C 0.71128 0.72571 0.78036 0.0
H520 H 0.8448 0.57355 0.8306 0.0
H521 H 0.69237 0.76409 0.77572 0.0
H522 H 0.05659 0.0608 0.84018 0.0
H523 H 0.23605 0.91569 0.8831 0.0
H524 H 0.77735 0.80975 0.79606 0.0
H525 H 0.66371 0.63723 0.76474 0.0
H526 H 0.17195 0.90075 0.86377 0.0
H527 H 0.80135 0.43362 0.82385 0.0
H528 H 0.65734 0.5021 0.76685 0.0
H529 H 0.69005 0.41266 0.77974 0.0
H530 H 0.13256 0.23479 0.84477 0.0
H531 H 0.74426 0.38723 0.80137 0.0
H532 H 0.22337 0.98931 0.90213 0.0
N533 N 0.0738 0.02693 0.85993 0.0
C534 C 0.10865 0.05743 0.87225 0.0
C535 C 0.13492 0.18673 0.85273 0.0
C536 C 0.16689 0.14283 0.8761 0.0
C537 C 0.0809 0.08765 0.84936 0.0
C538 C 0.18944 0.21161 0.86665 0.0
N539 N 0.09276 0.9452 0.87071 0.0
C540 C 0.15647 0.92937 0.87167 0.0
C541 C 0.13671 0.01434 0.89198 0.0
C542 C 0.09684 0.99868 0.87976 0.0
C543 C 0.18247 0.97609 0.89407 0.0
C544 C 0.19416 0.93643 0.88346 0.0
H545 H 0.16348 0.20519 0.859 0.0
H546 H 0.19513 0.21293 0.89428 0.0
H547 H 0.16317 0.09916 0.90868 0.0
O548 O 0.88441 0.68452 0.8668 0.0
O549 O 0.9714 0.81971 0.83193 0.0
O550 O 0.0196 0.85232 0.8127 0.0
O551 O 0.81836 0.74447 0.86861 0.0
O552 O 0.96737 0.7113 0.84614 0.0
O553 O 0.9692 0.69714 0.82276 0.0
O554 O 0.93808 0.84202 0.79794 0.0
O555 O 0.76231 0.7081 0.82313 0.0
O556 O 0.78105 0.7506 0.84584 0.0
O557 O 0.92565 0.72398 0.79334 0.0
O558 O 0.86949 0.8556 0.81755 0.0
O559 O 0.85014 0.85561 0.84056 0.0
C560 C 0.03622 0.87694 0.82465 0.0
C561 C 0.79156 0.652 0.88756 0.0
C562 C 0.7783 0.65356 0.91315 0.0
C563 C 0.69519 0.60724 0.91135 0.0
C564 C 0.70762 0.60336 0.88719 0.0
C565 C 0.66085 0.57984 0.89875 0.0
C566 C 0.82675 0.67109 0.90104 0.0
C567 C 0.98927 0.68394 0.83507 0.0
C568 C 0.82847 0.68856 0.87352 0.0
C569 C 0.17462 0.15445 0.88991 0.0
C570 C 0.1532 0.08735 0.89819 0.0
C571 C 0.73053 0.71239 0.8349 0.0
C572 C 0.95786 0.82057 0.77497 0.0
C573 C 0.10863 0.90985 0.76005 0.0
C574 C 0.09612 0.89618 0.74381 0.0
C575 C 0.92664 0.74949 0.76253 0.0
C576 C 0.04084 0.91186 0.77406 0.0
C577 C 0.97386 0.76421 0.74768 0.0
C578 C 0.85076 0.88515 0.828 0.0
C579 C 0.95049 0.79786 0.78947 0.0
H580 H 0.65591 0.59565 0.91978 0.0
H581 H 0.6768 0.58708 0.87768 0.0
H582 H 0.59589 0.54492 0.89783 0.0
H583 H 0.89009 0.69818 0.90246 0.0
H584 H 0.10946 0.94915 0.73716 0.0
H585 H 0.91462 0.78781 0.76831 0.0
H586 H 0.06547 0.95147 0.78259 0.0
H587 H 0.94541 0.71269 0.74096 0.0
Eu588 Eu 0.18816 0.11752 0.85484 0.0
C589 C 0.41897 0.19972 0.80007 0.0
N590 N 0.38888 0.21374 0.8114 0.0
C591 C 0.51905 0.32419 0.81684 0.0
C592 C 0.49816 0.25269 0.79594 0.0
C593 C 0.4393 0.26984 0.8204 0.0
C594 C 0.54692 0.31769 0.80428 0.0
C595 C 0.39759 0.11597 0.78059 0.0
C596 C 0.36972 0.13224 0.79254 0.0
C597 C 0.47588 0.16984 0.77618 0.0
C598 C 0.52558 0.23891 0.78371 0.0
Eu599 Eu 0.24648 0.14208 0.81229 0.0
N600 N 0.29323 0.08383 0.79674 0.0
C601 C 0.34502 0.04732 0.77327 0.0
C602 C 0.24266 0.01448 0.79012 0.0
C603 C 0.26768 0.99585 0.77818 0.0
H604 H 0.41825 0.274 0.83018 0.0
H605 H 0.23062 0.93868 0.77338 0.0
H606 H 0.93586 0.99797 0.84042 0.0
H607 H 0.06745 0.31762 0.88416 0.0
H608 H 0.1826 0.97498 0.7939 0.0
H609 H 0.36413 0.03226 0.76405 0.0
H610 H 0.09705 0.27439 0.86492 0.0
H611 H 0.55845 0.37158 0.82365 0.0
H612 H 0.49794 0.15871 0.76695 0.0
H613 H 0.58523 0.28041 0.78006 0.0
H614 H 0.76218 0.90025 0.84487 0.0
H615 H 0.60706 0.36067 0.80136 0.0
H616 H 0.00296 0.23043 0.90295 0.0
N617 N 0.96997 0.04847 0.86022 0.0
C618 C 0.93952 0.05224 0.8726 0.0
C619 C 0.81002 0.94977 0.85295 0.0
C620 C 0.85373 0.02449 0.87647 0.0
C621 C 0.90912 0.99513 0.84961 0.0
C622 C 0.78497 0.97844 0.86698 0.0
N623 N 0.05181 0.14952 0.87129 0.0
C624 C 0.06776 0.22911 0.87263 0.0
C625 C 0.98162 0.12099 0.89256 0.0
C626 C 0.9981 0.09865 0.8802 0.0
C627 C 0.01774 0.20445 0.89486 0.0
C628 C 0.05538 0.25713 0.88436 0.0
H629 H 0.79144 0.95939 0.85926 0.0
H630 H 0.78276 0.98143 0.89453 0.0
H631 H 0.89588 0.06079 0.90909 0.0
O632 O 0.31226 0.20318 0.86645 0.0
O633 O 0.17681 0.15615 0.83197 0.0
O634 O 0.14311 0.17051 0.81278 0.0
O635 O 0.25267 0.07691 0.86838 0.0
O636 O 0.28053 0.26166 0.84492 0.0
O637 O 0.29604 0.2753 0.82144 0.0
O638 O 0.15048 0.09542 0.79769 0.0
O639 O 0.28933 0.05761 0.82315 0.0
O640 O 0.2474 0.03486 0.8459 0.0
O641 O 0.26847 0.20014 0.79273 0.0
O642 O 0.14007 0.0159 0.81738 0.0
O643 O 0.14048 0.99674 0.84043 0.0
C644 C 0.11947 0.16379 0.82479 0.0
C645 C 0.34597 0.14369 0.88718 0.0
C646 C 0.34288 0.12472 0.91269 0.0
C647 C 0.39291 0.09226 0.91072 0.0
C648 C 0.39802 0.11249 0.88664 0.0
C649 C 0.42347 0.09042 0.89811 0.0
C650 C 0.32503 0.15646 0.90075 0.0
C651 C 0.30774 0.31058 0.83355 0.0
C652 C 0.3087 0.14335 0.87318 0.0
C653 C 0.8415 0.01953 0.89025 0.0
C654 C 0.90826 0.06383 0.89862 0.0
C655 C 0.28636 0.02264 0.83507 0.0
C656 C 0.17175 0.1341 0.77447 0.0
C657 C 0.08736 0.2012 0.7596 0.0
C658 C 0.10127 0.20272 0.74331 0.0
C659 C 0.24326 0.17231 0.76207 0.0
C660 C 0.08212 0.12918 0.77353 0.0
C661 C 0.23082 0.20734 0.74729 0.0
C662 C 0.11071 0.96789 0.82785 0.0
C663 C 0.19447 0.15065 0.78899 0.0
H664 H 0.40481 0.0636 0.91897 0.0
H665 H 0.4154 0.09989 0.87708 0.0
H666 H 0.46036 0.06265 0.89699 0.0
H667 H 0.29718 0.19169 0.90242 0.0
H668 H 0.04806 0.16462 0.73662 0.0
H669 H 0.20315 0.12295 0.76786 0.0
H670 H 0.04336 0.11649 0.78212 0.0
H671 H 0.28264 0.23019 0.74065 0.0
Eu672 Eu 0.87931 0.07204 0.85537 0.0
C673 C 0.79472 0.22114 0.80057 0.0
N674 N 0.78039 0.17658 0.81183 0.0
C675 C 0.66943 0.19566 0.81717 0.0
C676 C 0.74134 0.24655 0.79632 0.0
C677 C 0.72407 0.17078 0.82079 0.0
C678 C 0.67594 0.22983 0.80459 0.0
C679 C 0.88057 0.28618 0.78144 0.0
C680 C 0.86356 0.2415 0.79334 0.0
C681 C 0.82594 0.30911 0.7768 0.0
C682 C 0.75578 0.28826 0.78412 0.0
Eu683 Eu 0.85444 0.10812 0.81308 0.0
N684 N 0.91264 0.21488 0.7978 0.0
C685 C 0.9502 0.30329 0.77434 0.0
C686 C 0.98296 0.23494 0.79141 0.0
C687 C 0.00167 0.27783 0.77943 0.0
H688 H 0.72034 0.14653 0.83063 0.0
H689 H 0.05647 0.29249 0.7742 0.0
H690 H 0.99808 0.93957 0.84036 0.0
H691 H 0.68252 0.74933 0.88383 0.0
H692 H 0.02186 0.21341 0.7951 0.0
H693 H 0.96479 0.33593 0.76497 0.0
H694 H 0.72377 0.82362 0.865 0.0
H695 H 0.6221 0.18782 0.82398 0.0
H696 H 0.83736 0.34253 0.76757 0.0
H697 H 0.7143 0.30616 0.78037 0.0
H698 H 0.09369 0.86131 0.84439 0.0
H699 H 0.6331 0.24718 0.80169 0.0
H700 H 0.7679 0.7739 0.90303 0.0
N701 N 0.94819 0.92262 0.86023 0.0
C702 C 0.94458 0.88783 0.87253 0.0
C703 C 0.04447 0.85948 0.85254 0.0
C704 C 0.97202 0.82968 0.87621 0.0
C705 C 0.00078 0.91488 0.84947 0.0
C706 C 0.0166 0.80644 0.86661 0.0
N707 N 0.84826 0.90371 0.87143 0.0
C708 C 0.76884 0.84026 0.87277 0.0
C709 C 0.87729 0.86179 0.89262 0.0
C710 C 0.89931 0.90068 0.88027 0.0
C711 C 0.79387 0.81483 0.89496 0.0
C712 C 0.74141 0.79956 0.88443 0.0
H713 H 0.0351 0.83147 0.85886 0.0
H714 H 0.01493 0.80006 0.89409 0.0
H715 H 0.93715 0.83418 0.90896 0.0
O716 O 0.79334 0.10963 0.86711 0.0
O717 O 0.84183 0.02399 0.83231 0.0
O718 O 0.82308 0.97542 0.81308 0.0
O719 O 0.91977 0.17671 0.86894 0.0
O720 O 0.73724 0.02398 0.84575 0.0
O721 O 0.72256 0.02403 0.82227 0.0
O722 O 0.90814 0.0621 0.79904 0.0
O723 O 0.93158 0.23155 0.82512 0.0
O724 O 0.96128 0.21273 0.84745 0.0
O725 O 0.80198 0.07145 0.79332 0.0
O726 O 0.98102 0.13001 0.81774 0.0
O727 O -0.00087 0.14588 0.84077 0.0
C728 C 0.83359 0.95931 0.82494 0.0
C729 C 0.85337 0.20264 0.88783 0.0
C730 C 0.8713 0.21683 0.91335 0.0
C731 C 0.90722 0.2999 0.9115 0.0
C732 C 0.88665 0.28626 0.88739 0.0
C733 C 0.91079 0.33338 0.89891 0.0
C734 C 0.83932 0.16799 0.90133 0.0
C735 C 0.68868 0.0024 0.83448 0.0
C736 C 0.85332 0.16602 0.87379 0.0
C737 C 0.97737 0.82165 0.88996 0.0
C738 C 0.93405 0.84442 0.89851 0.0
C739 C 0.96695 0.26282 0.83703 0.0
C740 C 0.87107 0.04113 0.77561 0.0
C741 C 0.79893 0.88635 0.76161 0.0
C742 C 0.79577 0.8957 0.74528 0.0
C743 C 0.83329 0.07373 0.76303 0.0
C744 C 0.87345 0.95477 0.77513 0.0
C745 C 0.79568 0.0237 0.74853 0.0
C746 C 0.02861 0.14727 0.82815 0.0
C747 C 0.85405 0.04944 0.79 0.0
H748 H 0.93709 0.34009 0.91982 0.0
H749 H 0.89938 0.3167 0.87785 0.0
H750 H 0.94016 0.39823 0.89786 0.0
H751 H 0.80391 0.10473 0.90287 0.0
H752 H 0.83093 0.87721 0.73849 0.0
H753 H 0.88288 0.08275 0.76877 0.0
H754 H 0.88595 0.92958 0.78386 0.0
H755 H 0.77478 0.05351 0.74167 0.0
Eu756 Eu 0.77834 0.91485 0.64596 0.0
C757 C 0.58543 0.79174 0.69318 0.0
N758 N 0.63355 0.83687 0.68303 0.0
C759 C 0.52278 0.78795 0.66842 0.0
C760 C 0.50207 0.74875 0.6916 0.0
C761 C 0.60446 0.82801 0.67046 0.0
C762 C 0.47096 0.75341 0.67931 0.0
C763 C 0.5712 0.72738 0.71463 0.0
C764 C 0.61999 0.7795 0.70436 0.0
C765 C 0.48754 0.68797 0.71342 0.0
C766 C 0.45366 0.69556 0.70162 0.0
Eu767 Eu 0.76835 0.91301 0.68808 0.0
N768 N 0.70115 0.81482 0.70481 0.0
C769 C 0.60776 0.71516 0.72567 0.0
C770 C 0.73761 0.79974 0.7152 0.0
C771 C 0.6911 0.75216 0.72602 0.0
H772 H 0.64431 0.85222 0.66207 0.0
H773 H 0.71887 0.74446 0.73485 0.0
H774 H 0.94028 0.81528 0.64392 0.0
H775 H 0.76126 0.1592 0.61133 0.0
H776 H 0.8025 0.82785 0.71553 0.0
H777 H 0.5724 0.67724 0.73392 0.0
H778 H 0.77274 0.02427 0.62826 0.0
H779 H 0.50171 0.78049 0.65832 0.0
H780 H 0.44893 0.64921 0.72129 0.0
H781 H 0.39094 0.65628 0.69999 0.0
H782 H 0.10023 0.86962 0.62298 0.0
H783 H 0.40728 0.72076 0.67777 0.0
H784 H 0.82395 0.14189 0.5916 0.0
N785 N 0.93009 0.93084 0.6377 0.0
C786 C 0.94091 0.01039 0.6208 0.0
C787 C 0.09078 0.91441 0.62716 0.0
C788 C 0.06129 0.06852 0.60079 0.0
C789 C 0.97968 0.87522 0.64025 0.0
C790 C 0.12318 0.98884 0.61228 0.0
N791 N 0.80522 0.02565 0.62505 0.0
C792 C 0.76846 0.07228 0.62382 0.0
C793 C 0.88032 0.08657 0.6019 0.0
C794 C 0.87215 0.04177 0.6161 0.0
C795 C 0.82564 0.11323 0.60077 0.0
C796 C 0.78476 0.11858 0.61202 0.0
H797 H 0.13874 0.98228 0.62227 0.0
H798 H 0.06696 0.12417 0.57958 0.0
H799 H 0.92815 0.12099 0.58061 0.0
O800 O 0.66699 0.88991 0.63433 0.0
O801 O 0.82373 0.98811 0.66461 0.0
O802 O 0.87498 0.03335 0.68322 0.0
O803 O 0.6882 0.79254 0.63828 0.0
O804 O 0.71826 0.99038 0.65616 0.0
O805 O 0.70475 0.98175 0.6796 0.0
O806 O 0.85727 0.95892 0.70416 0.0
O807 O 0.73469 0.78264 0.68073 0.0
O808 O 0.71966 0.78325 0.65718 0.0
O809 O 0.75444 0.97785 0.70472 0.0
O810 O 0.86474 0.89007 0.6788 0.0
O811 O 0.865 0.87603 0.6553 0.0
C812 C 0.88834 0.04564 0.67075 0.0
C813 C 0.62627 0.7861 0.6166 0.0
C814 C 0.64268 0.77587 0.59124 0.0
C815 C 0.5891 0.69352 0.59303 0.0
C816 C 0.5655 0.70631 0.61636 0.0
C817 C 0.54884 0.66115 0.60499 0.0
C818 C 0.66478 0.82327 0.60364 0.0
C819 C 0.69086 0.00591 0.66786 0.0
C820 C 0.64616 0.81602 0.63124 0.0
C821 C 0.03522 0.11006 0.589 0.0
C822 C 0.94968 0.11285 0.58994 0.0
C823 C 0.71097 0.74299 0.66899 0.0
C824 C 0.81847 0.98295 0.72612 0.0
C825 C 0.72713 0.88362 0.74917 0.0
C826 C 0.76575 0.92803 0.76357 0.0
C827 C 0.90463 0.02156 0.73644 0.0
C828 C 0.72336 0.9246 0.73183 0.0
C829 C 0.90073 0.00719 0.75302 0.0
C830 C 0.89193 0.87451 0.66759 0.0
C831 C 0.82067 0.99072 0.71059 0.0
H832 H 0.58017 0.65207 0.58499 0.0
H833 H 0.53414 0.67594 0.62542 0.0
H834 H 0.50684 0.5978 0.60586 0.0
H835 H 0.71216 0.88568 0.60317 0.0
H836 H 0.72986 0.94413 0.77078 0.0
H837 H 0.86043 0.00213 0.73061 0.0
H838 H 0.67269 0.89607 0.72518 0.0
H839 H 0.95874 0.04305 0.75774 0.0
Eu840 Eu 0.08167 0.86205 0.64676 0.0
C841 C 0.21387 0.80145 0.694 0.0
N842 N 0.16926 0.8035 0.68367 0.0
C843 C 0.21527 0.73632 0.66973 0.0
C844 C 0.25571 0.75951 0.69286 0.0
C845 C 0.17626 0.77925 0.67133 0.0
C846 C 0.24985 0.72063 0.68081 0.0
C847 C 0.27578 0.85247 0.71556 0.0
C848 C 0.22482 0.84874 0.70507 0.0
C849 C 0.31519 0.80799 0.71472 0.0
C850 C 0.30739 0.7642 0.70318 0.0
Eu851 Eu 0.09177 0.86136 0.68821 0.0
N852 N 0.18806 0.89339 0.70531 0.0
C853 C 0.28556 0.90057 0.7266 0.0
C854 C 0.19995 0.94341 0.71578 0.0
C855 C 0.24665 0.94516 0.72678 0.0
H856 H 0.15148 0.79282 0.66277 0.0
H857 H 0.25228 0.98019 0.73559 0.0
H858 H 0.18208 0.1234 0.64413 0.0
H859 H 0.84101 0.60234 0.61109 0.0
H860 H 0.17062 0.97904 0.71595 0.0
H861 H 0.32256 0.90348 0.73502 0.0
H862 H 0.97433 0.74795 0.62829 0.0
H863 H 0.22192 0.72078 0.65973 0.0
H864 H 0.35326 0.80872 0.72277 0.0
H865 H 0.34491 0.7382 0.70212 0.0
H866 H 0.12968 0.2296 0.62282 0.0
H867 H 0.28108 0.68786 0.67954 0.0
H868 H 0.8594 0.68253 0.59141 0.0
N869 N 0.06665 0.99848 0.63794 0.0
C870 C 0.98917 0.93027 0.62078 0.0
C871 C 0.08451 0.17597 0.62718 0.0
C872 C 0.93296 0.99319 0.60064 0.0
C873 C 0.12233 0.10368 0.64051 0.0
C874 C 0.01143 0.13433 0.61219 0.0
N875 N 0.97433 0.77934 0.62506 0.0
C876 C 0.92688 0.69594 0.62377 0.0
C877 C 0.91504 0.79418 0.60171 0.0
C878 C 0.95868 0.83041 0.61602 0.0
C879 C 0.88794 0.71279 0.60059 0.0
C880 C 0.88157 0.66637 0.61186 0.0
H881 H 0.01673 0.15626 0.62219 0.0
H882 H 0.87918 0.94414 0.57928 0.0
H883 H 0.881 0.80773 0.58033 0.0
O884 O 0.10325 0.77463 0.63471 0.0
O885 O 0.98212 0.81446 0.66336 0.0
O886 O 0.00624 0.89722 0.68019 0.0
O887 O 0.2031 0.89036 0.6391 0.0
O888 O 0.01232 0.72902 0.65729 0.0
O889 O 0.02072 0.72673 0.68057 0.0
O890 O 0.04326 0.90027 0.70434 0.0
O891 O 0.22249 0.9531 0.6818 0.0
O892 O 0.21469 0.93773 0.65826 0.0
O893 O 0.00834 0.77447 0.70283 0.0
O894 O 0.12046 0.9823 0.67911 0.0
O895 O 0.12229 0.98928 0.65558 0.0
C896 C 0.96392 0.86359 0.66974 0.0
C897 C 0.20868 0.83581 0.61719 0.0
C898 C 0.22115 0.86426 0.59183 0.0
C899 C 0.30283 0.89052 0.59378 0.0
C900 C 0.28744 0.85151 0.617 0.0
C901 C 0.33324 0.87881 0.60567 0.0
C902 C 0.17294 0.83912 0.60417 0.0
C903 C 0.99758 0.68717 0.66898 0.0
C904 C 0.17796 0.82545 0.63182 0.0
C905 C 0.89267 0.92615 0.58872 0.0
C906 C 0.88969 0.83767 0.58966 0.0
C907 C 0.25867 0.96932 0.66988 0.0
C908 C 0.00629 0.82743 0.72512 0.0
C909 C 0.11348 0.84272 0.74744 0.0
C910 C 0.07157 0.83494 0.76218 0.0
C911 C 0.96541 0.87073 0.73589 0.0
C912 C 0.07011 0.79605 0.73025 0.0
C913 C 0.98333 0.88269 0.75235 0.0
C914 C 0.13205 0.02227 0.66771 0.0
C915 C 0.00147 0.82894 0.70955 0.0
H916 H 0.34519 0.92402 0.58591 0.0
H917 H 0.31643 0.848 0.62606 0.0
H918 H 0.39567 0.89656 0.60655 0.0
H919 H 0.11106 0.82564 0.60358 0.0
H920 H 0.06112 0.78479 0.76946 0.0
H921 H 0.98608 0.84818 0.72986 0.0
H922 H 0.09984 0.77707 0.72326 0.0
H923 H 0.94547 0.90139 0.7574 0.0
Eu924 Eu 0.13618 0.2193 0.64669 0.0
C925 C 0.20137 0.41503 0.69286 0.0
N926 N 0.19766 0.36731 0.68259 0.0
C927 C 0.26484 0.47923 0.66837 0.0
C928 C 0.24384 0.4986 0.69151 0.0
C929 C 0.22094 0.39742 0.67015 0.0
C930 C 0.28185 0.5303 0.67938 0.0
C931 C 0.15269 0.42869 0.71447 0.0
C932 C 0.15472 0.38008 0.70406 0.0
C933 C 0.19732 0.51246 0.71334 0.0
C934 C 0.23954 0.54685 0.70163 0.0
Eu935 Eu 0.139 0.23262 0.68754 0.0
N936 N 0.10856 0.2988 0.70447 0.0
C937 C 0.10543 0.39188 0.72564 0.0
C938 C 0.05835 0.26214 0.71499 0.0
C939 C 0.05891 0.30853 0.72596 0.0
H940 H 0.20626 0.35829 0.66168 0.0
H941 H 0.02474 0.28068 0.73489 0.0
H942 H 0.86888 0.05025 0.64523 0.0
H943 H 0.39793 0.2338 0.61237 0.0
H944 H 0.02103 0.19727 0.71527 0.0
H945 H 0.10429 0.42703 0.73404 0.0
H946 H 0.25144 0.2258 0.62878 0.0
H947 H 0.28002 0.50102 0.65834 0.0
H948 H 0.19778 0.55091 0.72129 0.0
H949 H 0.26396 0.61 0.70018 0.0
H950 H 0.76802 0.89928 0.62266 0.0
H951 H 0.31485 0.59417 0.67801 0.0
H952 H 0.31971 0.17681 0.59222 0.0
N953 N -0.00066 0.06779 0.63791 0.0
C954 C 0.06919 0.05859 0.62094 0.0
C955 C 0.82282 0.9079 0.62665 0.0
C956 C 0.00832 0.9402 0.60066 0.0
C957 C 0.89347 0.01724 0.64027 0.0
C958 C 0.86612 0.8769 0.61183 0.0
N959 N 0.22003 0.19441 0.62546 0.0
C960 C 0.30347 0.22866 0.62457 0.0
C961 C 0.20714 0.12062 0.60224 0.0
C962 C 0.16959 0.12793 0.6164 0.0
C963 C 0.28881 0.17425 0.60137 0.0
C964 C 0.33408 0.21224 0.61285 0.0
H965 H 0.84312 0.86255 0.62174 0.0
H966 H 0.05962 0.93567 0.57952 0.0
H967 H 0.19605 0.07357 0.58092 0.0
O968 O 0.22317 0.32796 0.63446 0.0
O969 O 0.18664 0.17085 0.66328 0.0
O970 O 0.10307 0.11083 0.67986 0.0
O971 O 0.1077 0.31221 0.63898 0.0
O972 O 0.27055 0.28309 0.65679 0.0
O973 O 0.27397 0.296 0.68 0.0
O974 O 0.09897 0.14537 0.70368 0.0
O975 O 0.04658 0.27068 0.68118 0.0
O976 O 0.06105 0.27748 0.65769 0.0
O977 O 0.22475 0.23707 0.70248 0.0
O978 O 0.01825 0.14166 0.67824 0.0
O979 O 0.00689 0.12866 0.65496 0.0
C980 C 0.13883 0.10328 0.66962 0.0
C981 C 0.16148 0.37208 0.61702 0.0
C982 C 0.1349 0.35707 0.59163 0.0
C983 C 0.10829 0.41232 0.59348 0.0
C984 C 0.14416 0.43408 0.61686 0.0
C985 C 0.11718 0.4526 0.60548 0.0
C986 C 0.15945 0.33381 0.604 0.0
C987 C 0.31316 0.31142 0.66837 0.0
C988 C 0.17226 0.35175 0.63162 0.0
C989 C 0.07654 0.96701 0.58899 0.0
C990 C 0.16483 0.05223 0.59014 0.0
C991 C 0.02986 0.29004 0.66925 0.0
C992 C 0.16952 0.18095 0.72466 0.0
C993 C 0.15646 0.27303 0.74718 0.0
C994 C 0.1617 0.23641 0.76177 0.0
C995 C 0.12303 0.09553 0.73521 0.0
C996 C 0.20351 0.27655 0.73007 0.0
C997 C 0.11028 0.1005 0.75172 0.0
C998 C 0.97544 0.1081 0.66724 0.0
C999 C 0.16981 0.17543 0.7091 0.0
H1000 H 0.07613 0.42204 0.58548 0.0
H1001 H 0.14591 0.46552 0.62596 0.0
H1002 H 0.09736 0.49572 0.60639 0.0
H1003 H 0.1735 0.28578 0.60344 0.0
H1004 H 0.21404 0.27414 0.76864 0.0
H1005 H 0.14725 0.13943 0.72931 0.0
H1006 H 0.22625 0.32755 0.72342 0.0
H1007 H 0.08858 0.04273 0.75666 0.0
Eu1008 Eu 0.76795 0.56827 0.52359 0.0
C1009 C 0.66164 0.39608 0.4558 0.0
N1010 N 0.73678 0.39768 0.47276 0.0
C1011 C 0.73572 0.22802 0.46183 0.0
C1012 C 0.59463 0.27772 0.43561 0.0
C1013 C 0.78357 0.33983 0.4753 0.0
C1014 C 0.66234 0.20278 0.44694 0.0
C1015 C 0.599 0.47037 0.43714 0.0
C1016 C 0.64001 0.47191 0.4513 0.0
C1017 C 0.56606 0.40164 0.42507 0.0
C1018 C 0.55939 0.31112 0.42385 0.0
Eu1019 Eu 0.7649 0.55279 0.48133 0.0
N1020 N 0.66154 0.53939 0.46041 0.0
C1021 C 0.58638 0.53457 0.43592 0.0
C1022 C 0.62154 0.58284 0.45935 0.0
C1023 C 0.5805 0.57368 0.4473 0.0
H1024 H 0.8406 0.3685 0.48049 0.0
H1025 H 0.53915 0.59535 0.44693 0.0
H1026 H 0.82402 0.68353 0.49729 0.0
H1027 H 0.91514 0.63501 0.57321 0.0
H1028 H 0.6665 0.57337 0.46365 0.0
H1029 H 0.5686 0.54577 0.42644 0.0
H1030 H 0.83765 0.54851 0.55463 0.0
H1031 H 0.77782 0.21282 0.45817 0.0
H1032 H 0.55537 0.42563 0.41624 0.0
H1033 H 0.54328 0.27987 0.41437 0.0
H1034 H 0.90675 0.82442 0.49193 0.0
H1035 H 0.66877 0.18682 0.45686 0.0
H1036 H 0.99445 0.78236 0.57004 0.0
N1037 N 0.84428 0.70195 0.51805 0.0
C1038 C 0.89139 0.75334 0.52777 0.0
C1039 C 0.89733 0.80663 0.50225 0.0
C1040 C 0.93632 0.83541 0.52534 0.0
C1041 C 0.85175 0.72636 0.5052 0.0
C1042 C 0.93198 0.86169 0.51272 0.0
N1043 N 0.86024 0.64292 0.54129 0.0
C1044 C 0.86738 0.61182 0.55313 0.0
C1045 C 0.9515 0.77607 0.54982 0.0
C1046 C 0.90017 0.72346 0.53971 0.0
C1047 C 0.95693 0.74406 0.56199 0.0
C1048 C 0.9125 0.66136 0.56378 0.0
H1049 H 0.96427 0.92439 0.51088 0.0
H1050 H 0.02871 0.94984 0.53275 0.0
H1051 H 0.03681 0.90029 0.55483 0.0
O1052 O 0.72696 0.47711 0.53953 0.0
O1053 O 0.89843 0.6027 0.51553 0.0
O1054 O 0.8947 0.61187 0.49194 0.0
O1055 O 0.712 0.58317 0.54141 0.0
O1056 O 0.79113 0.47106 0.51417 0.0
O1057 O 0.79225 0.4566 0.4907 0.0
O1058 O 0.79623 0.66821 0.47052 0.0
O1059 O 0.69329 0.50846 0.5002 0.0
O1060 O 0.64279 0.46515 0.51897 0.0
O1061 O 0.88921 0.6399 0.47391 0.0
O1062 O 0.68583 0.60864 0.49046 0.0
O1063 O 0.69431 0.62617 0.51389 0.0
C1064 C 0.93614 0.62421 0.50352 0.0
C1065 C 0.68767 0.50354 0.56209 0.0
C1066 C 0.54798 0.41926 0.57992 0.0
C1067 C 0.57196 0.43653 0.59571 0.0
C1068 C 0.73115 0.57869 0.5747 0.0
C1069 C 0.69316 0.56719 0.59042 0.0
C1070 C 0.60435 0.41342 0.56458 0.0
C1071 C 0.79776 0.4345 0.50321 0.0
C1072 C 0.69845 0.51486 0.54658 0.0
C1073 C 0.98988 0.88764 0.535 0.0
C1074 C 0.99594 0.85876 0.54741 0.0
C1075 C 0.6315 0.44846 0.50653 0.0
C1076 C 0.89656 0.70456 0.45249 0.0
C1077 C 0.89434 0.68921 0.4269 0.0
C1078 C 0.97839 0.7334 0.42788 0.0
C1079 C 0.97933 0.75396 0.4517 0.0
C1080 C 0.85215 0.67194 0.43978 0.0
C1081 C 0.01915 0.76627 0.4398 0.0
C1082 C 0.66895 0.63629 0.50182 0.0
C1083 C 0.86888 0.68596 0.46724 0.0
H1084 H 0.56036 0.38517 0.60261 0.0
H1085 H 0.71107 0.54169 0.56744 0.0
H1086 H 0.73073 0.6158 0.59722 0.0
H1087 H 0.57623 0.37141 0.55654 0.0
H1088 H 0.01421 0.74164 0.41906 0.0
H1089 H 0.01482 0.77984 0.46063 0.0
H1090 H 0.78755 0.63181 0.43988 0.0
H1091 H 0.08368 0.80264 0.43989 0.0
Eu1092 Eu 0.42923 0.2004 0.52322 0.0
C1093 C 0.60231 0.26652 0.45573 0.0
N1094 N 0.60033 0.33946 0.47275 0.0
C1095 C 0.77044 0.50846 0.46196 0.0
C1096 C 0.72098 0.3188 0.4356 0.0
C1097 C 0.65833 0.44414 0.4754 0.0
C1098 C 0.79579 0.46089 0.44704 0.0
C1099 C 0.52874 0.13053 0.43687 0.0
C1100 C 0.5267 0.16923 0.4511 0.0
C1101 C 0.59775 0.16706 0.42486 0.0
C1102 C 0.68808 0.25085 0.42376 0.0
Eu1103 Eu 0.44479 0.21199 0.48114 0.0
N1104 N 0.45901 0.12274 0.46015 0.0
C1105 C 0.46483 0.05375 0.43547 0.0
C1106 C 0.41516 0.03929 0.45886 0.0
C1107 C 0.4247 0.00812 0.44673 0.0
H1108 H 0.62947 0.47237 0.48056 0.0
H1109 H 0.40224 0.94494 0.44611 0.0
H1110 H 0.31194 0.13967 0.49723 0.0
H1111 H 0.36566 0.28281 0.57283 0.0
H1112 H 0.42504 0.09343 0.46333 0.0
H1113 H 0.45499 0.02511 0.42595 0.0
H1114 H 0.4505 0.293 0.55379 0.0
H1115 H 0.78561 0.56577 0.4583 0.0
H1116 H 0.57407 0.13341 0.41595 0.0
H1117 H 0.71959 0.26628 0.41431 0.0
H1118 H 0.17092 0.08167 0.49212 0.0
H1119 H 0.81175 0.48282 0.45699 0.0
H1120 H 0.21784 0.21094 0.57025 0.0
N1121 N 0.29469 0.14114 0.51804 0.0
C1122 C 0.24364 0.136 0.5279 0.0
C1123 C 0.1891 0.08965 0.50242 0.0
C1124 C 0.16141 0.09904 0.5256 0.0
C1125 C 0.26954 0.12437 0.50523 0.0
C1126 C 0.13449 0.06898 0.51298 0.0
N1127 N 0.35484 0.21673 0.54107 0.0
C1128 C 0.38701 0.2574 0.55267 0.0
C1129 C 0.22237 0.17329 0.55003 0.0
C1130 C 0.27421 0.17472 0.53978 0.0
C1131 C 0.25547 0.21185 0.56209 0.0
C1132 C 0.33848 0.25252 0.56352 0.0
H1133 H 0.07162 0.03859 0.51124 0.0
H1134 H 0.04729 0.07735 0.53327 0.0
H1135 H 0.09856 0.13435 0.55532 0.0
O1136 O 0.52357 0.25612 0.53853 0.0
O1137 O 0.39485 0.29617 0.51525 0.0
O1138 O 0.38483 0.28232 0.4917 0.0
O1139 O 0.41974 0.13391 0.54122 0.0
O1140 O 0.52584 0.32024 0.51377 0.0
O1141 O 0.54096 0.33605 0.49039 0.0
O1142 O 0.33025 0.12821 0.47005 0.0
O1143 O 0.48958 0.18455 0.50001 0.0
O1144 O 0.5301 0.17456 0.51885 0.0
O1145 O 0.35758 0.24894 0.47367 0.0
O1146 O 0.38824 0.07696 0.49035 0.0
O1147 O 0.37124 0.06838 0.51378 0.0
C1148 C 0.37282 0.31183 0.50328 0.0
C1149 C 0.50237 0.19396 0.56129 0.0
C1150 C 0.58346 0.13064 0.57811 0.0
C1151 C 0.56719 0.13433 0.59402 0.0
C1152 C 0.42794 0.16183 0.57399 0.0
C1153 C 0.43852 0.13073 0.5893 0.0
C1154 C 0.59123 0.19746 0.56333 0.0
C1155 C 0.56284 0.36362 0.50291 0.0
C1156 C 0.48864 0.19082 0.54588 0.0
C1157 C 0.10974 0.10035 0.5354 0.0
C1158 C 0.13949 0.13484 0.5478 0.0
C1159 C 0.54866 0.18181 0.50649 0.0
C1160 C 0.29457 0.19332 0.45206 0.0
C1161 C 0.31029 0.20626 0.42644 0.0
C1162 C 0.26849 0.24866 0.42742 0.0
C1163 C 0.24719 0.22899 0.45124 0.0
C1164 C 0.32635 0.18034 0.43934 0.0
C1165 C 0.2362 0.25756 0.43933 0.0
C1166 C 0.36081 0.03259 0.50174 0.0
C1167 C 0.31225 0.18305 0.46683 0.0
H1168 H 0.61888 0.17078 0.60105 0.0
H1169 H 0.46467 0.17903 0.56675 0.0
H1170 H 0.39069 0.11996 0.59624 0.0
H1171 H 0.63133 0.21013 0.55506 0.0
H1172 H 0.2613 0.27705 0.4186 0.0
H1173 H 0.22179 0.23944 0.46016 0.0
H1174 H 0.3651 0.15427 0.43949 0.0
H1175 H 0.20074 0.28671 0.4394 0.0
Eu1176 Eu 0.79766 0.22906 0.52367 0.0
C1177 C 0.73185 0.33679 0.45574 0.0
N1178 N 0.65855 0.2613 0.47269 0.0
C1179 C 0.48981 0.26266 0.46186 0.0
C1180 C 0.67993 0.40414 0.43567 0.0
C1181 C 0.55377 0.21437 0.47527 0.0
C1182 C 0.53771 0.33636 0.44706 0.0
C1183 C 0.86804 0.39983 0.43692 0.0
C1184 C 0.82913 0.35858 0.45113 0.0
C1185 C 0.83167 0.43268 0.42494 0.0
C1186 C 0.74807 0.43954 0.42385 0.0
Eu1187 Eu 0.78608 0.23363 0.48122 0.0
N1188 N 0.87554 0.33738 0.46019 0.0
C1189 C 0.94485 0.413 0.43551 0.0
C1190 C 0.95902 0.37716 0.4589 0.0
C1191 C 0.99027 0.41812 0.44677 0.0
H1192 H 0.52548 0.15703 0.48037 0.0
H1193 H 0.05337 0.45896 0.44612 0.0
H1194 H 0.85785 0.17294 0.49753 0.0
H1195 H 0.71745 0.08381 0.57349 0.0
H1196 H 0.90492 0.33283 0.46338 0.0
H1197 H 0.97373 0.43272 0.42602 0.0
H1198 H 0.70978 0.16185 0.55493 0.0
H1199 H 0.43291 0.22066 0.458 0.0
H1200 H 0.86452 0.44132 0.41599 0.0
H1201 H 0.73279 0.45579 0.4144 0.0
H1202 H 0.91498 0.08924 0.49229 0.0
H1203 H 0.51558 0.33019 0.45701 0.0
H1204 H 0.78567 0.00457 0.57048 0.0
N1205 N 0.85526 0.15265 0.5183 0.0
C1206 C 0.85939 0.10574 0.52809 0.0
C1207 C 0.90659 0.09884 0.5026 0.0
C1208 C 0.89614 0.0603 0.52572 0.0
C1209 C 0.87246 0.145 0.50548 0.0
C1210 C 0.92652 0.06397 0.5131 0.0
N1211 N 0.78043 0.13776 0.54154 0.0
C1212 C 0.74278 0.13154 0.55342 0.0
C1213 C 0.82232 0.0468 0.55022 0.0
C1214 C 0.82094 0.09765 0.54003 0.0
C1215 C 0.78496 0.04187 0.56239 0.0
C1216 C 0.7466 0.08626 0.56409 0.0
H1217 H 0.95649 0.03114 0.51129 0.0
H1218 H 0.91797 0.96786 0.53331 0.0
H1219 H 0.86097 0.9615 0.55537 0.0
O1220 O 0.74827 0.27142 0.53949 0.0
O1221 O 0.70202 0.09891 0.51539 0.0
O1222 O 0.71539 0.10339 0.49177 0.0
O1223 O 0.86884 0.28554 0.54144 0.0
O1224 O 0.6771 0.20541 0.51412 0.0
O1225 O 0.66211 0.20501 0.49062 0.0
O1226 O 0.87102 0.20387 0.47034 0.0
O1227 O 0.8128 0.30475 0.50018 0.0
O1228 O 0.81971 0.35412 0.51908 0.0
O1229 O 0.75025 0.10976 0.47378 0.0
O1230 O 0.92049 0.31204 0.49067 0.0
O1231 O 0.92898 0.30266 0.5141 0.0
C1232 C 0.68609 0.06158 0.50334 0.0
C1233 C 0.81457 0.3119 0.56205 0.0
C1234 C 0.87297 0.45309 0.57962 0.0
C1235 C 0.86718 0.43019 0.59545 0.0
C1236 C 0.84612 0.26857 0.57469 0.0
C1237 C 0.87418 0.30758 0.5903 0.0
C1238 C 0.80918 0.39608 0.56443 0.0
C1239 C 0.6341 0.19887 0.50313 0.0
C1240 C 0.81456 0.30001 0.54654 0.0
C1241 C 0.89484 0.00711 0.53547 0.0
C1242 C 0.86031 0.00203 0.54788 0.0
C1243 C 0.81415 0.36588 0.50666 0.0
C1244 C 0.8075 0.10342 0.4523 0.0
C1245 C 0.7936 0.10593 0.42672 0.0
C1246 C 0.75216 0.02181 0.42774 0.0
C1247 C 0.77346 0.02056 0.4515 0.0
C1248 C 0.81942 0.14805 0.4396 0.0
C1249 C 0.7446 0.98083 0.43964 0.0
C1250 C 0.96468 0.32849 0.50208 0.0
C1251 C 0.8167 0.13094 0.46706 0.0
H1252 H 0.82867 0.44306 0.60242 0.0
H1253 H 0.8292 0.28859 0.56742 0.0
H1254 H 0.88477 0.26994 0.59715 0.0
H1255 H 0.7954 0.42388 0.55633 0.0
H1256 H 0.72386 0.98614 0.41895 0.0
H1257 H 0.76415 0.9849 0.46041 0.0
H1258 H 0.84455 0.21275 0.43974 0.0
H1259 H 0.71616 0.91622 0.43974 0.0
Eu1260 Eu 0.89579 0.42479 0.64975 0.0
C1261 C 0.72361 0.32193 0.71786 0.0
N1262 N 0.73537 0.39995 0.70061 0.0
C1263 C 0.57677 0.42033 0.71082 0.0
C1264 C 0.60109 0.2673 0.73776 0.0
C1265 C 0.68698 0.4565 0.69781 0.0
C1266 C 0.54364 0.34766 0.72583 0.0
C1267 C 0.78097 0.24281 0.73698 0.0
C1268 C 0.79116 0.28913 0.72274 0.0
C1269 C 0.71004 0.21377 0.74892 0.0
C1270 C 0.62444 0.22169 0.74981 0.0
Eu1271 Eu 0.88548 0.41393 0.69192 0.0
N1272 N 0.85913 0.3055 0.71388 0.0
C1273 C 0.8347 0.21497 0.73812 0.0
C1274 C 0.89565 0.25872 0.71529 0.0
C1275 C 0.87863 0.21209 0.72709 0.0
H1276 H 0.72689 0.51586 0.69401 0.0
H1277 H 0.90351 0.17253 0.72792 0.0
H1278 H 0.02295 0.48426 0.67527 0.0
H1279 H 0.94629 0.58932 0.60243 0.0
H1280 H 0.89124 0.30646 0.7108 0.0
H1281 H 0.83477 0.18523 0.74723 0.0
H1282 H 0.86352 0.51089 0.6222 0.0
H1283 H 0.56774 0.46657 0.71445 0.0
H1284 H 0.65677 0.20974 0.75228 0.0
H1285 H 0.59824 0.24952 0.74317 0.0
H1286 H 0.16547 0.5569 0.67876 0.0
H1287 H 0.52951 0.35457 0.7158 0.0
H1288 H 0.09254 0.65451 0.60309 0.0
N1289 N 0.03209 0.4989 0.65429 0.0
C1290 C 0.08009 0.54274 0.64402 0.0
C1291 C 0.14399 0.54803 0.66869 0.0
C1292 C 0.16373 0.58498 0.64545 0.0
C1293 C 0.06217 0.50786 0.66679 0.0
C1294 C 0.19539 0.58122 0.65772 0.0
N1295 N 0.96414 0.52053 0.63261 0.0
C1296 C 0.92805 0.53626 0.62227 0.0
C1297 C 0.09411 0.60605 0.62251 0.0
C1298 C 0.04534 0.55478 0.63288 0.0
C1299 C 0.05745 0.61787 0.61147 0.0
C1300 C 0.97431 0.58221 0.61129 0.0
H1301 H 0.25932 0.61416 0.65917 0.0
H1302 H 0.2751 0.67578 0.6368 0.0
H1303 H 0.21637 0.68409 0.61571 0.0
O1304 O 0.80996 0.38352 0.63325 0.0
O1305 O 0.93679 0.55536 0.65695 0.0
O1306 O 0.94303 0.54702 0.68056 0.0
O1307 O 0.8852 0.33079 0.6359 0.0
O1308 O 0.80674 0.45612 0.65922 0.0
O1309 O 0.79908 0.45372 0.68276 0.0
O1310 O 0.99726 0.43873 0.70342 0.0
O1311 O 0.83372 0.31616 0.67511 0.0
O1312 O 0.77559 0.3411 0.6582 0.0
O1313 O 0.97758 0.53659 0.69924 0.0
O1314 O 0.94839 0.34529 0.68099 0.0
O1315 O 0.95844 0.35335 0.65759 0.0
C1316 C 0.95644 0.59119 0.66896 0.0
C1317 C 0.83754 0.33259 0.61309 0.0
C1318 C 0.93892 0.44697 0.59236 0.0
C1319 C 0.91023 0.41315 0.57711 0.0
C1320 C 0.75725 0.29821 0.60141 0.0
C1321 C 0.77014 0.32385 0.58499 0.0
C1322 C 0.93453 0.39488 0.60896 0.0
C1323 C 0.77771 0.46616 0.67065 0.0
C1324 C 0.82893 0.33169 0.62867 0.0
C1325 C 0.21209 0.63701 0.6353 0.0
C1326 C 0.17787 0.64485 0.62357 0.0
C1327 C 0.76684 0.29884 0.66867 0.0
C1328 C 0.04342 0.54577 0.72064 0.0
C1329 C 0.02729 0.55748 0.74577 0.0
C1330 C 0.08267 0.63909 0.74393 0.0
C1331 C 0.1093 0.62402 0.72102 0.0
C1332 C 0.00453 0.50954 0.73354 0.0
C1333 C 0.13013 0.66893 0.73263 0.0
C1334 C 0.97493 0.33051 0.66924 0.0
C1335 C 0.02038 0.51365 0.70617 0.0
H1336 H 0.9517 0.40615 0.56983 0.0
H1337 H 0.79733 0.31478 0.6081 0.0
H1338 H 0.71613 0.28819 0.57914 0.0
H1339 H 0.9805 0.42051 0.61651 0.0
H1340 H 0.08744 0.68133 0.75135 0.0
H1341 H 0.14283 0.65243 0.71201 0.0
H1342 H 0.95659 0.44746 0.73416 0.0
H1343 H 0.17887 0.7306 0.73259 0.0
Eu1344 Eu 0.57739 0.47174 0.64976 0.0
C1345 C 0.67687 0.40295 0.71745 0.0
N1346 N 0.59876 0.33371 0.7003 0.0
C1347 C 0.57803 0.15618 0.71176 0.0
C1348 C 0.73041 0.33832 0.73805 0.0
C1349 C 0.54282 0.22784 0.6979 0.0
C1350 C 0.65083 0.19868 0.72673 0.0
C1351 C 0.7555 0.5424 0.73599 0.0
C1352 C 0.70983 0.50423 0.72183 0.0
C1353 C 0.78367 0.50234 0.74829 0.0
C1354 C 0.7758 0.40918 0.74978 0.0
Eu1355 Eu 0.58502 0.47032 0.69123 0.0
N1356 N 0.69361 0.55462 0.71269 0.0
C1357 C 0.78317 0.62409 0.73676 0.0
C1358 C 0.74016 0.63814 0.71374 0.0
C1359 C 0.78689 0.66929 0.72547 0.0
H1360 H 0.48605 0.2036 0.6927 0.0
H1361 H 0.82665 0.73363 0.72605 0.0
H1362 H 0.51617 0.54048 0.67492 0.0
H1363 H 0.4127 0.35184 0.60264 0.0
H1364 H 0.69225 0.58526 0.70944 0.0
H1365 H 0.81204 0.65534 0.74582 0.0
H1366 H 0.49184 0.35058 0.62249 0.0
H1367 H 0.52987 0.10016 0.71523 0.0
H1368 H 0.78765 0.45377 0.752 0.0
H1369 H 0.74801 0.35404 0.74339 0.0
H1370 H 0.44574 0.61271 0.67796 0.0
H1371 H 0.6407 0.17566 0.71687 0.0
H1372 H 0.34627 0.43192 0.60289 0.0
N1373 N 0.50258 0.53377 0.65393 0.0
C1374 C 0.45877 0.53684 0.64355 0.0
C1375 C 0.45406 0.59869 0.66795 0.0
C1376 C 0.4167 0.57863 0.64471 0.0
C1377 C 0.49319 0.55581 0.66632 0.0
C1378 C 0.42096 0.61589 0.65683 0.0
N1379 N 0.48148 0.44222 0.63255 0.0
C1380 C 0.4659 0.38926 0.6224 0.0
C1381 C 0.39504 0.4846 0.62216 0.0
C1382 C 0.44671 0.48874 0.63259 0.0
C1383 C 0.38321 0.43477 0.61131 0.0
C1384 C 0.41949 0.38784 0.61137 0.0
H1385 H 0.38848 0.64754 0.65809 0.0
H1386 H 0.32585 0.59825 0.63569 0.0
H1387 H 0.31605 0.52702 0.61508 0.0
O1388 O 0.61938 0.42695 0.63337 0.0
O1389 O 0.44567 0.38103 0.65633 0.0
O1390 O 0.453 0.39641 0.67982 0.0
O1391 O 0.67254 0.55483 0.63602 0.0
O1392 O 0.5454 0.35236 0.65983 0.0
O1393 O 0.54768 0.34147 0.68308 0.0
O1394 O 0.55699 0.55546 0.70262 0.0
O1395 O 0.68397 0.52062 0.6748 0.0
O1396 O 0.66002 0.43488 0.65849 0.0
O1397 O 0.46136 0.43622 0.69868 0.0
O1398 O 0.65494 0.60475 0.6809 0.0
O1399 O 0.64759 0.60688 0.65753 0.0
C1400 C 0.40914 0.36541 0.66826 0.0
C1401 C 0.6703 0.50551 0.6132 0.0
C1402 C 0.55399 0.49084 0.59274 0.0
C1403 C 0.58698 0.49662 0.57741 0.0
C1404 C 0.70498 0.46059 0.60137 0.0
C1405 C 0.67827 0.44759 0.58499 0.0
C1406 C 0.60685 0.53895 0.60925 0.0
C1407 C 0.53573 0.30958 0.67086 0.0
C1408 C 0.67149 0.49762 0.62878 0.0
C1409 C 0.36448 0.57359 0.63446 0.0
C1410 C 0.35595 0.52937 0.62296 0.0
C1411 C 0.70341 0.47213 0.66865 0.0
C1412 C 0.45143 0.49368 0.72003 0.0
C1413 C 0.44079 0.47259 0.74548 0.0
C1414 C 0.36392 0.46497 0.74393 0.0
C1415 C 0.37654 0.48889 0.72029 0.0
C1416 C 0.48551 0.48764 0.733 0.0
C1417 C 0.33523 0.47757 0.73206 0.0
C1418 C 0.67007 0.64674 0.66918 0.0
C1419 C 0.48293 0.50186 0.70554 0.0
H1420 H 0.59283 0.54487 0.57018 0.0
H1421 H 0.68838 0.48357 0.60816 0.0
H1422 H 0.71397 0.42962 0.57904 0.0
H1423 H 0.58148 0.55909 0.61687 0.0
H1424 H 0.32245 0.4498 0.75187 0.0
H1425 H 0.34916 0.49411 0.71116 0.0
H1426 H 0.54439 0.49348 0.73367 0.0
H1427 H 0.27731 0.47418 0.73202 0.0
Eu1428 Eu 0.52381 0.10516 0.64935 0.0
C1429 C 0.59572 0.27513 0.7175 0.0
N1430 N 0.66527 0.26312 0.70085 0.0
C1431 C 0.84245 0.4221 0.71162 0.0
C1432 C 0.65949 0.39662 0.73761 0.0
C1433 C 0.7704 0.31186 0.69851 0.0
C1434 C 0.79986 0.45466 0.72643 0.0
C1435 C 0.45538 0.217 0.73579 0.0
C1436 C 0.49412 0.20762 0.72183 0.0
C1437 C 0.49471 0.28719 0.74785 0.0
C1438 C 0.58797 0.37278 0.74921 0.0
Eu1439 Eu 0.53197 0.11235 0.69223 0.0
N1440 N 0.44409 0.14016 0.7128 0.0
C1441 C 0.37392 0.16257 0.73652 0.0
C1442 C 0.36075 0.10444 0.7136 0.0
C1443 C 0.32926 0.12154 0.72515 0.0
H1444 H 0.79151 0.27338 0.69462 0.0
H1445 H 0.26514 0.09848 0.72555 0.0
H1446 H 0.46125 0.97778 0.67485 0.0
H1447 H 0.64365 0.05698 0.60247 0.0
H1448 H 0.41359 0.10717 0.70962 0.0
H1449 H 0.34259 0.16006 0.74556 0.0
H1450 H 0.6442 0.13905 0.62208 0.0
H1451 H 0.89874 0.43294 0.71518 0.0
H1452 H 0.54319 0.34034 0.75141 0.0
H1453 H 0.64345 0.39926 0.7429 0.0
H1454 H 0.3902 0.83542 0.6784 0.0
H1455 H 0.82277 0.46801 0.71653 0.0
H1456 H 0.56507 0.91072 0.6031 0.0
N1457 N 0.46312 0.9685 0.65382 0.0
C1458 C 0.45999 0.92075 0.64359 0.0
C1459 C 0.40256 0.85671 0.6683 0.0
C1460 C 0.42015 0.83708 0.64507 0.0
C1461 C 0.44436 0.93852 0.66637 0.0
C1462 C 0.38446 0.80524 0.65734 0.0
N1463 N 0.55287 0.03736 0.6323 0.0
C1464 C 0.60605 0.07431 0.62214 0.0
C1465 C 0.51242 0.90793 0.62232 0.0
C1466 C 0.50727 0.95605 0.63255 0.0
C1467 C 0.56167 0.94533 0.61139 0.0
C1468 C 0.60774 0.0286 0.61124 0.0
H1469 H 0.35344 0.74135 0.65882 0.0
H1470 H 0.40369 0.72656 0.63662 0.0
H1471 H 0.47269 0.7861 0.61573 0.0
O1472 O 0.57112 0.19506 0.63332 0.0
O1473 O 0.62092 0.07216 0.65645 0.0
O1474 O 0.60414 0.05545 0.68 0.0
O1475 O 0.44447 0.10424 0.63375 0.0
O1476 O 0.64201 0.19961 0.65936 0.0
O1477 O 0.65604 0.20009 0.68289 0.0
O1478 O 0.45012 0.99574 0.70308 0.0
O1479 O 0.5051 0.15828 0.6735 0.0
O1480 O 0.5093 0.20981 0.6549 0.0
O1481 O 0.57392 0.03039 0.70069 0.0
O1482 O 0.39749 0.05049 0.68164 0.0
O1483 O 0.3919 0.04013 0.65805 0.0
C1484 C 0.63596 0.04728 0.66813 0.0
C1485 C 0.5003 0.16232 0.61201 0.0
C1486 C 0.51096 0.06332 0.59067 0.0
C1487 C 0.50627 0.09488 0.57566 0.0
C1488 C 0.54766 0.24472 0.60075 0.0
C1489 C 0.55974 0.23419 0.58424 0.0
C1490 C 0.46397 0.06569 0.60737 0.0
C1491 C 0.68436 0.22684 0.67063 0.0
C1492 C 0.50099 0.16727 0.62756 0.0
C1493 C 0.42623 0.78931 0.63505 0.0
C1494 C 0.46942 0.82411 0.62343 0.0
C1495 C 0.51126 0.22265 0.66737 0.0
C1496 C 0.51229 0.95945 0.72175 0.0
C1497 C 0.53557 0.97448 0.74719 0.0
C1498 C 0.55271 0.91216 0.74589 0.0
C1499 C 0.51703 0.88931 0.72257 0.0
C1500 C 0.51775 0.00112 0.73456 0.0
C1501 C 0.53548 0.86549 0.73444 0.0
C1502 C 0.35452 0.02465 0.66989 0.0
C1503 C 0.50716 0.98191 0.70696 0.0
H1504 H 0.4571 0.05515 0.56833 0.0
H1505 H 0.52333 0.20348 0.60722 0.0
H1506 H 0.57983 0.28946 0.57869 0.0
H1507 H 0.44183 0.01794 0.61458 0.0
H1508 H 0.58438 0.90206 0.75381 0.0
H1509 H 0.51057 0.85431 0.71369 0.0
H1510 H 0.51037 0.05333 0.73494 0.0
H1511 H 0.54434 0.81409 0.73446 0.0
Eu1512 Eu 0.59407 0.14416 0.18709 0.0
C1513 C 0.43195 0.91311 0.13303 0.0
N1514 N 0.48114 0.9391 0.14386 0.0
C1515 C 0.46335 0.80725 0.14684 0.0
C1516 C 0.40467 0.8361 0.12768 0.0
C1517 C 0.49168 0.88588 0.15145 0.0
C1518 C 0.42354 0.78405 0.13455 0.0
C1519 C 0.36331 0.943 0.11552 0.0
C1520 C 0.40888 0.96437 0.12731 0.0
C1521 C 0.34116 0.86855 0.10949 0.0
C1522 C 0.36076 0.81455 0.11565 0.0
Eu1523 Eu 0.55622 0.08141 0.14436 0.0
N1524 N 0.4343 0.03702 0.13309 0.0
C1525 C 0.3444 0.99879 0.11 0.0
C1526 C 0.40619 0.08646 0.12898 0.0
C1527 C 0.36268 0.069 0.11709 0.0
H1528 H 0.5222 0.90319 0.16089 0.0
H1529 H 0.34572 0.11099 0.11321 0.0
H1530 H 0.67982 0.39154 0.18063 0.0
H1531 H 0.9149 0.23971 0.2158 0.0
H1532 H 0.42701 0.14426 0.13375 0.0
H1533 H 0.31525 0.98823 0.10036 0.0
H1534 H 0.84199 0.22345 0.19598 0.0
H1535 H 0.4743 0.76554 0.15253 0.0
H1536 H 0.30865 0.85223 0.10012 0.0
H1537 H 0.34189 0.75654 0.11105 0.0
H1538 H 0.77015 0.55538 0.18228 0.0
H1539 H 0.40554 0.7253 0.13064 0.0
H1540 H 0.90413 0.31156 0.23435 0.0
N1541 N 0.72351 0.35513 0.19659 0.0
C1542 C 0.76694 0.37995 0.20817 0.0
C1543 C 0.77926 0.5134 0.1905 0.0
C1544 C 0.82916 0.46459 0.21156 0.0
C1545 C 0.71951 0.41912 0.18836 0.0
C1546 C 0.84557 0.53594 0.20268 0.0
N1547 N 0.76791 0.27307 0.20345 0.0
C1548 C 0.82946 0.25277 0.20414 0.0
C1549 C 0.81475 0.3351 0.22538 0.0
C1550 C 0.77089 0.32135 0.21354 0.0
C1551 C 0.86107 0.29762 0.22668 0.0
C1552 C 0.87111 0.2595 0.21577 0.0
H1553 H 0.81652 0.53632 0.19573 0.0
H1554 H 0.87406 0.53255 0.22964 0.0
H1555 H 0.84524 0.41295 0.24292 0.0
O1556 O 0.54547 0.02167 0.19875 0.0
O1557 O 0.64024 0.15868 0.16377 0.0
O1558 O 0.6782 0.19845 0.1441 0.0
O1559 O 0.485 0.09067 0.20088 0.0
O1560 O 0.63545 0.0459 0.17762 0.0
O1561 O 0.63997 0.03529 0.1542 0.0
O1562 O 0.55652 0.12779 0.12473 0.0
O1563 O 0.43301 0.02915 0.15667 0.0
O1564 O 0.45202 0.08083 0.17879 0.0
O1565 O 0.61359 0.05683 0.12716 0.0
O1566 O 0.55201 0.19599 0.15029 0.0
O1567 O 0.51875 0.18087 0.17269 0.0
C1568 C 0.69989 0.21901 0.15617 0.0
C1569 C 0.45636 0.99353 0.21941 0.0
C1570 C 0.44389 0.98501 0.24497 0.0
C1571 C 0.3607 0.93957 0.24291 0.0
C1572 C 0.37307 0.94207 0.21884 0.0
C1573 C 0.32668 0.91344 0.23033 0.0
C1574 C 0.49218 0.00957 0.23282 0.0
C1575 C 0.65882 0.021 0.16649 0.0
C1576 C 0.49275 0.03156 0.20557 0.0
C1577 C 0.84825 0.4738 0.22504 0.0
C1578 C 0.8312 0.40495 0.23257 0.0
C1579 C 0.4015 0.03456 0.16844 0.0
C1580 C 0.65691 0.15351 0.10906 0.0
C1581 C 0.682 0.24114 0.09017 0.0
C1582 C 0.7591 0.25025 0.08895 0.0
C1583 C 0.71015 0.1334 0.10286 0.0
C1584 C 0.64745 0.21477 0.10291 0.0
C1585 C 0.76891 0.18793 0.09414 0.0
C1586 C 0.53533 0.22256 0.16138 0.0
C1587 C 0.59658 0.09889 0.11889 0.0
H1588 H 0.32082 0.92729 0.25127 0.0
H1589 H 0.34262 0.92638 0.20928 0.0
H1590 H 0.26231 0.87464 0.22944 0.0
H1591 H 0.55538 0.03694 0.23415 0.0
H1592 H 0.79819 0.28715 0.08103 0.0
H1593 H 0.70032 0.07342 0.10339 0.0
H1594 H 0.59653 0.22125 0.10569 0.0
H1595 H 0.81529 0.17648 0.09045 0.0
Eu1596 Eu 0.8308 0.43915 0.18989 0.0
C1597 C 0.08177 0.51886 0.13444 0.0
N1598 N 0.05546 0.543 0.14513 0.0
C1599 C 0.1865 0.65896 0.14772 0.0
C1600 C 0.15841 0.56874 0.12897 0.0
C1601 C 0.10782 0.60915 0.15236 0.0
C1602 C 0.21023 0.64039 0.13566 0.0
C1603 C 0.05157 0.42012 0.11695 0.0
C1604 C 0.03075 0.44409 0.12884 0.0
C1605 C 0.12548 0.47266 0.11079 0.0
C1606 C 0.17953 0.54635 0.11689 0.0
Eu1607 Eu 0.91322 0.47495 0.14573 0.0
N1608 N 0.95828 0.39683 0.13469 0.0
C1609 C 0.99549 0.34575 0.11137 0.0
C1610 C 0.90854 0.31946 0.13046 0.0
C1611 C 0.92535 0.2938 0.11846 0.0
H1612 H 0.0895 0.62512 0.16148 0.0
H1613 H 0.88273 0.23532 0.11445 0.0
H1614 H 0.50608 0.26207 0.18525 0.0
H1615 H 0.80056 0.62213 0.23511 0.0
H1616 H 0.85087 0.28212 0.13521 0.0
H1617 H 0.00554 0.32767 0.10166 0.0
H1618 H 0.77654 0.60924 0.21104 0.0
H1619 H 0.22763 0.71311 0.15315 0.0
H1620 H 0.14129 0.45665 0.10136 0.0
H1621 H 0.23702 0.58575 0.11215 0.0
H1622 H 0.38821 0.24448 0.19488 0.0
H1623 H 0.26861 0.68094 0.13164 0.0
H1624 H 0.7355 0.50084 0.24953 0.0
N1625 N 0.60779 0.35398 0.20079 0.0
C1626 C 0.59691 0.38583 0.21246 0.0
C1627 C 0.44627 0.28595 0.19929 0.0
C1628 C 0.52077 0.36727 0.21841 0.0
C1629 C 0.51793 0.28925 0.19448 0.0
C1630 C 0.44924 0.32743 0.21092 0.0
N1631 N 0.71661 0.47789 0.21155 0.0
C1632 C 0.74519 0.55521 0.2171 0.0
C1633 C 0.65873 0.4307 0.23339 0.0
C1634 C 0.66093 0.42245 0.21941 0.0
C1635 C 0.72331 0.497 0.23899 0.0
C1636 C 0.75932 0.56507 0.2309 0.0
H1637 H 0.39476 0.32051 0.21477 0.0
H1638 H 0.45763 0.33619 0.23755 0.0
H1639 H 0.58164 0.39268 0.25091 0.0
O1640 O 0.9647 0.52808 0.19918 0.0
O1641 O 0.82095 0.47497 0.16828 0.0
O1642 O 0.79658 0.47783 0.1474 0.0
O1643 O 0.91035 0.40328 0.20086 0.0
O1644 O 0.921 0.58209 0.17972 0.0
O1645 O 0.95581 0.59943 0.15661 0.0
O1646 O 0.87193 0.43215 0.12572 0.0
O1647 O 0.95846 0.4014 0.15906 0.0
O1648 O 0.89761 0.36068 0.18083 0.0
O1649 O 0.93509 0.55942 0.12889 0.0
O1650 O 0.79774 0.35726 0.14894 0.0
O1651 O 0.80345 0.33946 0.17194 0.0
C1652 C 0.76887 0.47324 0.15927 0.0
C1653 C 0.00913 0.47093 0.21926 0.0
C1654 C 0.01261 0.45834 0.2451 0.0
C1655 C 0.05206 0.41495 0.24282 0.0
C1656 C 0.05316 0.43075 0.21864 0.0
C1657 C 0.07792 0.40764 0.23012 0.0
C1658 C 0.00018 0.49424 0.23303 0.0
C1659 C 0.95911 0.63157 0.1687 0.0
C1660 C 0.96807 0.47002 0.20529 0.0
C1661 C 0.5156 0.36282 0.23252 0.0
C1662 C 0.58534 0.39114 0.24013 0.0
C1663 C 0.94856 0.36009 0.17057 0.0
C1664 C 0.8435 0.50464 0.10992 0.0
C1665 C 0.75556 0.44015 0.091 0.0
C1666 C 0.74554 0.5076 0.08974 0.0
C1667 C 0.8634 0.57691 0.10334 0.0
C1668 C 0.78327 0.43302 0.10375 0.0
C1669 C 0.80838 0.58023 0.09464 0.0
C1670 C 0.77196 0.30989 0.15937 0.0
C1671 C 0.89787 0.50148 0.1202 0.0
H1672 H 0.0616 0.38465 0.25107 0.0
H1673 H 0.06544 0.41324 0.20904 0.0
H1674 H 0.11272 0.37788 0.2291 0.0
H1675 H 0.98176 0.53722 0.23473 0.0
H1676 H 0.7079 0.50914 0.08188 0.0
H1677 H 0.92366 0.62663 0.10352 0.0
H1678 H 0.77747 0.37593 0.10661 0.0
H1679 H 0.81979 0.63762 0.09071 0.0
Eu1680 Eu 0.56092 0.39577 0.1877 0.0
C1681 C 0.47671 0.55881 0.13404 0.0
N1682 N 0.45296 0.50884 0.14479 0.0
C1683 C 0.33901 0.52698 0.14776 0.0
C1684 C 0.42727 0.58661 0.12871 0.0
C1685 C 0.38848 0.49742 0.15228 0.0
C1686 C 0.35656 0.56828 0.1356 0.0
C1687 C 0.57569 0.62832 0.11661 0.0
C1688 C 0.55129 0.5822 0.12836 0.0
C1689 C 0.52322 0.6501 0.11052 0.0
C1690 C 0.44954 0.63022 0.11665 0.0
Eu1691 Eu 0.5209 0.43423 0.14534 0.0
N1692 N 0.59857 0.5567 0.13413 0.0
C1693 C 0.65074 0.64816 0.11115 0.0
C1694 C 0.67611 0.58493 0.12998 0.0
C1695 C 0.70262 0.6297 0.1182 0.0
H1696 H 0.37382 0.465 0.16158 0.0
H1697 H 0.76176 0.64727 0.11433 0.0
H1698 H 0.66978 0.28799 0.17302 0.0
H1699 H 0.42477 0.18781 0.24247 0.0
H1700 H 0.71314 0.56404 0.1347 0.0
H1701 H 0.66948 0.67787 0.10156 0.0
H1702 H 0.39592 0.18799 0.21918 0.0
H1703 H 0.28609 0.51565 0.1534 0.0
H1704 H 0.53937 0.68269 0.10116 0.0
H1705 H 0.41028 0.64867 0.11197 0.0
H1706 H 0.7689 0.20898 0.1753 0.0
H1707 H 0.31627 0.58718 0.13177 0.0
H1708 H 0.56012 0.20407 0.2493 0.0
N1709 N 0.61337 0.25355 0.19083 0.0
C1710 C 0.61537 0.21694 0.2043 0.0
C1711 C 0.71751 0.20109 0.18362 0.0
C1712 C 0.64624 0.15761 0.20696 0.0
C1713 C 0.67203 0.25537 0.18134 0.0
C1714 C 0.68971 0.13931 0.19658 0.0
N1715 N 0.52279 0.24303 0.21383 0.0
C1716 C 0.45555 0.19976 0.22189 0.0
C1717 C 0.59542 0.20853 0.22876 0.0
C1718 C 0.58163 0.22741 0.21572 0.0
C1719 C 0.54495 0.20591 0.23898 0.0
C1720 C 0.46929 0.19348 0.23529 0.0
H1721 H 0.70802 0.17008 0.18935 0.0
H1722 H 0.69809 0.11602 0.22178 0.0
H1723 H 0.66209 0.16927 0.24084 0.0
O1724 O 0.48759 0.4485 0.19748 0.0
O1725 O 0.51098 0.33968 0.16785 0.0
O1726 O 0.51372 0.31211 0.14735 0.0
O1727 O 0.61549 0.5088 0.20006 0.0
O1728 O 0.41599 0.3447 0.17892 0.0
O1729 O 0.39373 0.35339 0.15585 0.0
O1730 O 0.56553 0.4338 0.1256 0.0
O1731 O 0.59123 0.55792 0.15754 0.0
O1732 O 0.63426 0.53942 0.17893 0.0
O1733 O 0.43777 0.37493 0.12828 0.0
O1734 O 0.63811 0.43309 0.14957 0.0
O1735 O 0.65539 0.47283 0.17118 0.0
C1736 C 0.51438 0.28854 0.15938 0.0
C1737 C 0.54655 0.54627 0.21758 0.0
C1738 C 0.54147 0.56081 0.24319 0.0
C1739 C 0.58299 0.644 0.24106 0.0
C1740 C 0.58425 0.63027 0.21692 0.0
C1741 C 0.59714 0.67733 0.22832 0.0
C1742 C 0.51664 0.51263 0.23093 0.0
C1743 C 0.36324 0.32915 0.1682 0.0
C1744 C 0.54904 0.50515 0.20403 0.0
C1745 C 0.6632 0.14445 0.22005 0.0
C1746 C 0.64711 0.1793 0.23084 0.0
C1747 C 0.63255 0.59013 0.16896 0.0
C1748 C 0.49135 0.33579 0.10952 0.0
C1749 C 0.55395 0.31288 0.09033 0.0
C1750 C 0.48611 0.23574 0.08905 0.0
C1751 C 0.41817 0.28335 0.1032 0.0
C1752 C 0.56219 0.34725 0.10311 0.0
C1753 C 0.41399 0.22583 0.09422 0.0
C1754 C 0.68132 0.45187 0.16056 0.0
C1755 C 0.49641 0.39366 0.11983 0.0
H1756 H 0.60872 0.68433 0.24945 0.0
H1757 H 0.60448 0.66006 0.20737 0.0
H1758 H 0.62366 0.74164 0.22746 0.0
H1759 H 0.46621 0.45317 0.23168 0.0
H1760 H 0.48392 0.19716 0.08104 0.0
H1761 H 0.36821 0.29331 0.10378 0.0
H1762 H 0.61942 0.39845 0.10591 0.0
H1763 H 0.35622 0.1802 0.09037 0.0
Eu1764 Eu 0.4435 0.2178 0.98101 0.0
C1765 C 0.24396 0.09995 0.02778 0.0
N1766 N 0.29318 0.14219 0.0175 0.0
C1767 C 0.18537 0.07869 0.00235 0.0
C1768 C 0.16133 0.05182 0.02582 0.0
C1769 C 0.26541 0.13029 0.0048 0.0
C1770 C 0.13235 0.04774 0.01317 0.0
C1771 C 0.22562 0.05559 0.05074 0.0
C1772 C 0.27632 0.10072 0.04001 0.0
C1773 C 0.14264 0.00848 0.04878 0.0
C1774 C 0.11069 0.00522 0.03623 0.0
Eu1775 Eu 0.42869 0.22213 0.02203 0.0
N1776 N 0.35721 0.14375 0.04134 0.0
C1777 C 0.2592 0.05979 0.0632 0.0
C1778 C 0.39056 0.14482 0.05351 0.0
C1779 C 0.3418 0.10603 0.06464 0.0
H1780 H 0.30563 0.1586 0.99658 0.0
H1781 H 0.36786 0.10339 0.074 0.0
H1782 H 0.61489 0.22835 0.9746 0.0
H1783 H 0.37821 0.42431 0.94388 0.0
H1784 H 0.455 0.17274 0.0547 0.0
H1785 H 0.22223 0.02613 0.07166 0.0
H1786 H 0.41184 0.30751 0.96209 0.0
H1787 H 0.16556 0.0652 0.99212 0.0
H1788 H 0.10296 0.97619 0.05697 0.0
H1789 H 0.04719 0.96597 0.0346 0.0
H1790 H 0.8084 0.30799 0.95401 0.0
H1791 H 0.06874 0.01421 0.01184 0.0
H1792 H 0.4374 0.41154 0.92408 0.0
N1793 N 0.59855 0.25152 0.97111 0.0
C1794 C 0.59541 0.32097 0.95472 0.0
C1795 C 0.77876 0.26669 0.96183 0.0
C1796 C 0.72603 0.39846 0.93467 0.0
C1797 C 0.66429 0.21501 0.97438 0.0
C1798 C 0.80042 0.34135 0.94653 0.0
N1799 N 0.44684 0.31443 0.95903 0.0
C1800 C 0.39637 0.34657 0.95707 0.0
C1801 C 0.51672 0.38615 0.93495 0.0
C1802 C 0.51509 0.34049 0.94986 0.0
C1803 C 0.44694 0.38839 0.93335 0.0
C1804 C 0.40248 0.38533 0.94465 0.0
H1805 H 0.77796 0.36223 0.94182 0.0
H1806 H 0.72869 0.46702 0.91377 0.0
H1807 H 0.57816 0.45174 0.91405 0.0
O1808 O 0.32815 0.17961 0.97086 0.0
O1809 O 0.52744 0.29801 0.9982 0.0
O1810 O 0.49486 0.35041 0.01431 0.0
O1811 O 0.37005 0.09341 0.97168 0.0
O1812 O 0.38641 0.29789 0.98924 0.0
O1813 O 0.36745 0.28993 0.01246 0.0
O1814 O 0.53108 0.27709 0.03649 0.0
O1815 O 0.38917 0.08853 0.01587 0.0
O1816 O 0.3774 0.0896 0.99247 0.0
O1817 O 0.41768 0.27995 0.03931 0.0
O1818 O 0.52919 0.19678 0.01445 0.0
O1819 O 0.52058 0.17148 0.99117 0.0
C1820 C 0.53687 0.36412 0.00361 0.0
C1821 C 0.2941 0.09169 0.95165 0.0
C1822 C 0.29776 0.10472 0.92639 0.0
C1823 C 0.21694 0.04149 0.92688 0.0
C1824 C 0.21549 0.02774 0.95071 0.0
C1825 C 0.17711 0.00493 0.93855 0.0
C1826 C 0.33611 0.13111 0.93933 0.0
C1827 C 0.35814 0.31508 1.00048 0.0
C1828 C 0.32084 0.11332 0.96603 0.0
C1829 C 0.69235 0.44092 0.92253 0.0
C1830 C 0.59457 0.43056 0.92275 0.0
C1831 C 0.36441 0.04898 0.00419 0.0
C1832 C 0.51903 0.35408 0.05528 0.0
C1833 C 0.5586 0.36415 0.0787 0.0
C1834 C 0.52966 0.41833 0.08063 0.0
C1835 C 0.48376 0.40114 0.05793 0.0
C1836 C 0.55683 0.33591 0.06561 0.0
C1837 C 0.48565 0.42883 0.07067 0.0
C1838 C 0.5524 0.17608 0.00322 0.0
C1839 C 0.49074 0.30343 0.04344 0.0
H1840 H 0.18077 0.01449 0.91845 0.0
H1841 H 0.1815 0.99753 0.95961 0.0
H1842 H 0.11465 0.95842 0.93801 0.0
H1843 H 0.39665 0.18126 0.93955 0.0
H1844 H 0.52956 0.44329 0.0903 0.0
H1845 H 0.44865 0.41093 0.05043 0.0
H1846 H 0.57319 0.29037 0.06393 0.0
H1847 H 0.44986 0.456 0.07291 0.0
Eu1848 Eu 0.773 0.22104 0.98142 0.0
C1849 C 0.89283 0.14135 0.02773 0.0
N1850 N 0.85046 0.14819 0.01745 0.0
C1851 C 0.91264 0.10264 0.00232 0.0
C1852 C 0.94026 0.10613 0.02579 0.0
C1853 C 0.86186 0.13198 0.00477 0.0
C1854 C 0.94316 0.08011 0.01316 0.0
C1855 C 0.93806 0.16834 0.05063 0.0
C1856 C 0.89251 0.17341 0.03992 0.0
C1857 C 0.98507 0.13235 0.04866 0.0
C1858 C 0.98719 0.1024 0.03617 0.0
Eu1859 Eu 0.77042 0.20332 0.02192 0.0
N1860 N 0.84931 0.21108 0.04123 0.0
C1861 C 0.93415 0.19808 0.06306 0.0
C1862 C 0.84835 0.24351 0.05338 0.0
C1863 C 0.88766 0.23416 0.0645 0.0
H1864 H 0.83338 0.14397 0.99659 0.0
H1865 H 0.89046 0.26314 0.07384 0.0
H1866 H 0.76172 0.38183 0.97494 0.0
H1867 H 0.56731 0.94942 0.94466 0.0
H1868 H 0.82028 0.27987 0.05457 0.0
H1869 H 0.96812 0.19517 0.0715 0.0
H1870 H 0.68476 0.09989 0.9626 0.0
H1871 H 0.92578 0.09617 0.99208 0.0
H1872 H 0.01784 0.12548 0.05684 0.0
H1873 H 0.026 0.07764 0.03455 0.0
H1874 H 0.68502 0.4959 0.95367 0.0
H1875 H 0.97517 0.04852 0.0119 0.0
H1876 H 0.58385 0.02114 0.92447 0.0
N1877 N 0.73924 0.34247 0.97142 0.0
C1878 C 0.67194 0.27008 0.95488 0.0
C1879 C 0.72508 0.50771 0.96171 0.0
C1880 C 0.5981 0.32348 0.93436 0.0
C1881 C 0.77494 0.44451 0.97469 0.0
C1882 C 0.65271 0.45467 0.94608 0.0
N1883 N 0.67814 0.12803 0.95945 0.0
C1884 C 0.64563 0.04531 0.95762 0.0
C1885 C 0.60984 0.12653 0.9351 0.0
C1886 C 0.65313 0.17025 0.95013 0.0
C1887 C 0.60712 0.05409 0.9337 0.0
C1888 C 0.60818 0.01256 0.94516 0.0
H1889 H 0.63257 0.41116 0.94136 0.0
H1890 H 0.53244 0.25864 0.91327 0.0
H1891 H 0.547 0.12241 0.91397 0.0
O1892 O 0.81103 0.14323 0.97143 0.0
O1893 O 0.693 0.22628 0.99839 0.0
O1894 O 0.64119 0.14075 0.01436 0.0
O1895 O 0.89788 0.27115 0.97227 0.0
O1896 O 0.69252 0.08373 0.98946 0.0
O1897 O 0.70223 0.07333 0.01259 0.0
O1898 O 0.71622 0.25133 0.03636 0.0
O1899 O 0.90467 0.29728 0.01549 0.0
O1900 O 0.90281 0.28512 0.99213 0.0
O1901 O 0.71311 0.13491 0.03927 0.0
O1902 O 0.79541 0.32916 0.0145 0.0
O1903 O 0.82003 0.34533 0.99126 0.0
C1904 C 0.62706 0.16927 0.00371 0.0
C1905 C 0.89954 0.19652 0.9523 0.0
C1906 C 0.88896 0.18972 0.92702 0.0
C1907 C 0.95076 0.17022 0.92757 0.0
C1908 C 0.96147 0.1789 0.95145 0.0
C1909 C 0.98455 0.16349 0.9393 0.0
C1910 C 0.862 0.2014 0.93991 0.0
C1911 C 0.67621 0.03838 1.00066 0.0
C1912 C 0.87761 0.20191 0.96664 0.0
C1913 C 0.55739 0.24783 0.92217 0.0
C1914 C 0.5674 0.16029 0.92263 0.0
C1915 C 0.944 0.31303 0.00373 0.0
C1916 C 0.63978 0.16329 0.05523 0.0
C1917 C 0.63043 0.19433 0.07857 0.0
C1918 C 0.57477 0.11152 0.08056 0.0
C1919 C 0.59214 0.08112 0.05799 0.0
C1920 C 0.65881 0.21995 0.06547 0.0
C1921 C 0.56386 0.05616 0.07074 0.0
C1922 C 0.8156 0.37287 0.00326 0.0
C1923 C 0.68988 0.18478 0.04336 0.0
H1924 H 0.97883 0.16211 0.91919 0.0
H1925 H 0.98954 0.17246 0.9604 0.0
H1926 H 0.02862 0.14437 0.93878 0.0
H1927 H 0.81287 0.21326 0.94006 0.0
H1928 H 0.5487 0.08709 0.0902 0.0
H1929 H 0.58203 0.0357 0.05057 0.0
H1930 H 0.70481 0.28162 0.06371 0.0
H1931 H 0.53606 0.99327 0.0731 0.0
Eu1932 Eu 0.76903 0.54766 0.98147 0.0
C1933 C 0.85128 0.74751 0.02766 0.0
N1934 N 0.844 0.69771 0.01745 0.0
C1935 C 0.88752 0.80462 1.00212 0.0
C1936 C 0.88568 0.83003 0.02557 0.0
C1937 C 0.85937 0.72477 0.00471 0.0
C1938 C 0.91011 0.85823 0.01285 0.0
C1939 C 0.82595 0.76707 0.05059 0.0
C1940 C 0.82006 0.7158 0.03993 0.0
C1941 C 0.86152 0.84995 0.04848 0.0
C1942 C 0.88997 0.88124 0.03589 0.0
Eu1943 Eu 0.78855 0.56233 0.02218 0.0
N1944 N 0.78214 0.63495 0.04137 0.0
C1945 C 0.79725 0.7341 0.06311 0.0
C1946 C 0.75016 0.60225 0.05358 0.0
C1947 C 0.76098 0.65154 0.06467 0.0
H1948 H 0.84713 0.68404 0.99659 0.0
H1949 H 0.73298 0.62573 0.07409 0.0
H1950 H 0.6085 0.37581 0.97458 0.0
H1951 H 0.04653 0.61799 0.94847 0.0
H1952 H 0.71336 0.53789 0.05487 0.0
H1953 H 0.80105 0.77152 0.07153 0.0
H1954 H 0.89022 0.57917 0.96352 0.0
H1955 H 0.89338 0.82389 0.99186 0.0
H1956 H 0.86888 0.89009 0.05661 0.0
H1957 H 0.91413 0.94466 0.03415 0.0
H1958 H 0.49716 0.18503 0.95327 0.0
H1959 H 0.94073 0.9217 0.01142 0.0
H1960 H 0.98723 0.54255 0.92792 0.0
N1961 N 0.64815 0.39249 0.97122 0.0
C1962 C 0.72283 0.39763 0.95502 0.0
C1963 C 0.48439 0.21329 0.9612 0.0
C1964 C 0.67294 0.27055 0.93452 0.0
C1965 C 0.54586 0.32629 0.97414 0.0
C1966 C 0.53955 0.19384 0.94581 0.0
N1967 N 0.86387 0.54578 0.96011 0.0
C1968 C 0.94633 0.5968 0.95898 0.0
C1969 C 0.8712 0.47816 0.93613 0.0
C1970 C 0.82359 0.47868 0.95066 0.0
C1971 C 0.94951 0.53992 0.93613 0.0
C1972 C 0.98404 0.58825 0.94758 0.0
H1973 H 0.58329 0.2168 0.94125 0.0
H1974 H 0.74119 0.27042 0.91378 0.0
H1975 H 0.87877 0.42067 0.91517 0.0
O1976 O 0.84598 0.66374 0.97145 0.0
O1977 O 0.76588 0.46426 0.99866 0.0
O1978 O 0.85117 0.49604 0.01456 0.0
O1979 O 0.71783 0.62099 0.97206 0.0
O1980 O 0.90677 0.60487 0.98951 0.0
O1981 O 0.91808 0.624 0.01268 0.0
O1982 O 0.74096 0.46066 0.03682 0.0
O1983 O 0.69445 0.60224 0.01606 0.0
O1984 O 0.70648 0.6134 0.99268 0.0
O1985 O 0.85739 0.57402 0.03948 0.0
O1986 O 0.66223 0.46168 0.01452 0.0
O1987 O 0.64554 0.47013 0.99124 0.0
C1988 C 0.82292 0.45456 0.00381 0.0
C1989 C 0.79331 0.69865 0.95218 0.0
C1990 C 0.80529 0.6973 0.92693 0.0
C1991 C 0.82543 0.77877 0.92758 0.0
C1992 C 0.80936 0.77777 0.95137 0.0
C1993 C 0.82733 0.81745 0.93929 0.0
C1994 C 0.79107 0.65746 0.93978 0.0
C1995 C 0.95255 0.63336 1.0007 0.0
C1996 C 0.78712 0.6708 0.96653 0.0
C1997 C 0.75073 0.30573 0.9227 0.0
C1998 C 0.83876 0.40292 0.92355 0.0
C1999 C 0.67911 0.62655 0.00436 0.0
C2000 C 0.83011 0.474 0.05572 0.0
C2001 C 0.80165 0.43573 0.07925 0.0
C2002 C 0.88475 0.46413 0.08104 0.0
C2003 C 0.91252 0.50913 0.05829 0.0
C2004 C 0.77461 0.43735 0.06618 0.0
C2005 C 0.93884 0.50753 0.071 0.0
C2006 C 0.6184 0.43834 0.00324 0.0
C2007 C 0.80763 0.5014 0.04377 0.0
H2008 H 0.837 0.81624 0.91924 0.0
H2009 H 0.81294 0.8112 0.96031 0.0
H2010 H 0.84514 0.88034 0.93884 0.0
H2011 H 0.77936 0.59648 0.93989 0.0
H2012 H 0.9103 0.4641 0.09066 0.0
H2013 H 0.95719 0.54354 0.05072 0.0
H2014 H 0.71279 0.42138 0.06458 0.0
H2015 H 0.00198 0.54267 0.07313 0.0
Eu2016 Eu 0.43507 0.91381 0.85884 0.0
C2017 C 0.21657 0.59979 0.80043 0.0
N2018 N 0.25311 0.63733 0.81389 0.0
C2019 C 0.20072 0.48096 0.82105 0.0
C2020 C 0.15763 0.50976 0.7977 0.0
C2021 C 0.25519 0.58047 0.8233 0.0
C2022 C 0.1391 0.44743 0.80804 0.0
C2023 C 0.20789 0.61344 0.77608 0.0
C2024 C 0.22667 0.6453 0.78915 0.0
C2025 C 0.17957 0.53273 0.77384 0.0
C2026 C 0.145 0.4807 0.78453 0.0
Eu2027 Eu 0.39568 0.83546 0.81674 0.0
N2028 N 0.242 0.71991 0.79119 0.0
C2029 C 0.20461 0.6617 0.766 0.0
C2030 C 0.19788 0.74358 0.78329 0.0
C2031 C 0.19108 0.724 0.76987 0.0
H2032 H 0.28754 0.61561 0.83161 0.0
H2033 H 0.18427 0.76266 0.7628 0.0
H2034 H 0.46561 0.09066 0.84235 0.0
H2035 H 0.64504 0.88407 0.89006 0.0
H2036 H 0.18593 0.79117 0.78611 0.0
H2037 H 0.20337 0.64566 0.75565 0.0
H2038 H 0.56286 0.84975 0.86961 0.0
H2039 H 0.20885 0.43788 0.82941 0.0
H2040 H 0.16985 0.5085 0.76378 0.0
H2041 H 0.1171 0.41751 0.78267 0.0
H2042 H 0.51728 0.22969 0.85033 0.0
H2043 H 0.16951 0.45915 0.81532 0.0
H2044 H 0.67633 0.00767 0.90268 0.0
N2045 N 0.51089 0.05634 0.85904 0.0
C2046 C 0.56136 0.08293 0.86973 0.0
C2047 C 0.52904 0.18836 0.85596 0.0
C2048 C 0.58934 0.16033 0.875 0.0
C2049 C 0.49897 0.10904 0.85154 0.0
C2050 C 0.57091 0.21258 0.86807 0.0
N2051 N 0.55773 0.95821 0.86988 0.0
C2052 C 0.5844 0.90806 0.87423 0.0
C2053 C 0.6293 0.05293 0.88736 0.0
C2054 C 0.58401 0.03144 0.87552 0.0
C2055 C 0.64762 0.99703 0.89301 0.0
C2056 C 0.62854 0.92618 0.88607 0.0
H2057 H 0.58933 0.27166 0.87191 0.0
H2058 H 0.65072 0.23928 0.8918 0.0
H2059 H 0.68321 0.14369 0.9028 0.0
O2060 O 0.43098 0.8636 0.87828 0.0
O2061 O 0.55838 0.96637 0.84672 0.0
O2062 O 0.53937 0.90436 0.8254 0.0
O2063 O 0.38601 0.94586 0.87632 0.0
O2064 O 0.43381 0.79543 0.85477 0.0
O2065 O 0.47296 0.81671 0.83309 0.0
O2066 O 0.44977 0.96183 0.8069 0.0
O2067 O 0.34082 0.82741 0.83686 0.0
O2068 O 0.31133 0.79966 0.85731 0.0
O2069 O 0.50928 0.8934 0.80445 0.0
O2070 O 0.34603 0.93043 0.82556 0.0
O2071 O 0.35246 0.95871 0.84868 0.0
C2072 C 0.59028 0.95668 0.83536 0.0
C2073 C 0.3438 0.85573 0.89527 0.0
C2074 C 0.31736 0.77448 0.91507 0.0
C2075 C 0.24701 0.77864 0.91706 0.0
C2076 C 0.29871 0.88591 0.90136 0.0
C2077 C 0.24251 0.8417 0.91113 0.0
C2078 C 0.35016 0.79476 0.90213 0.0
C2079 C 0.45287 0.77074 0.84386 0.0
C2080 C 0.40031 0.90113 0.88444 0.0
C2081 C 0.63242 0.1816 0.88712 0.0
C2082 C 0.65137 0.12743 0.89337 0.0
C2083 C 0.28853 0.77341 0.84534 0.0
C2084 C 0.54698 -0.00096 0.78676 0.0
C2085 C 0.56145 0.01738 0.76113 0.0
C2086 C 0.64462 0.05912 0.76324 0.0
C2087 C 0.63094 0.04556 0.7874 0.0
C2088 C 0.51333 0.99453 0.77339 0.0
C2089 C 0.67797 0.07914 0.77597 0.0
C2090 C 0.32921 0.96611 0.83634 0.0
C2091 C 0.50607 0.9563 0.80038 0.0
H2092 H 0.21462 0.75587 0.92616 0.0
H2093 H 0.31033 0.94504 0.89912 0.0
H2094 H 0.2029 0.86171 0.91514 0.0
H2095 H 0.39723 0.78235 0.89929 0.0
H2096 H 0.68482 0.07368 0.75484 0.0
H2097 H 0.66074 0.05581 0.79697 0.0
H2098 H 0.45434 0.9864 0.77256 0.0
H2099 H 0.74224 0.11724 0.77684 0.0
Eu2100 Eu 0.08288 0.52368 0.86068 0.0
C2101 C 0.37975 0.61159 0.79648 0.0
N2102 N 0.3552 0.63006 0.80808 0.0
C2103 C 0.51356 0.73281 0.81408 0.0
C2104 C 0.46424 0.63429 0.79302 0.0
C2105 C 0.41931 0.69803 0.81631 0.0
C2106 C 0.53567 0.68921 0.80184 0.0
C2107 C 0.33464 0.51907 0.77925 0.0
C2108 C 0.32108 0.54895 0.79114 0.0
C2109 C 0.40417 0.57277 0.77201 0.0
C2110 C 0.47312 0.62479 0.7795 0.0
Eu2111 Eu 0.14395 0.54768 0.81766 0.0
N2112 N 0.27298 0.50342 0.80123 0.0
C2113 C 0.29729 0.43528 0.77792 0.0
C2114 C 0.25293 0.42164 0.80049 0.0
C2115 C 0.25958 0.38696 0.78884 0.0
H2116 H 0.39157 0.70882 0.82416 0.0
H2117 H 0.23996 0.32342 0.78878 0.0
H2118 H 0.90592 0.38557 0.84358 0.0
H2119 H 0.11678 0.76063 0.89336 0.0
H2120 H 0.22386 0.37964 0.80865 0.0
H2121 H 0.31098 0.40628 0.77018 0.0
H2122 H 0.15137 0.71407 0.87271 0.0
H2123 H 0.55581 0.78372 0.82231 0.0
H2124 H 0.41203 0.56682 0.76165 0.0
H2125 H 0.53168 0.65799 0.77485 0.0
H2126 H 0.76711 0.29627 0.85158 0.0
H2127 H 0.53625 0.71855 0.8088 0.0
H2128 H 0.99014 0.66955 0.90535 0.0
N2129 N 0.9412 0.46015 0.86089 0.0
C2130 C 0.91536 0.48244 0.87185 0.0
C2131 C 0.80892 0.34793 0.85746 0.0
C2132 C 0.83772 0.43297 0.87697 0.0
C2133 C 0.88801 0.39792 0.85305 0.0
C2134 C 0.78543 0.36334 0.86981 0.0
N2135 N 0.04151 0.60173 0.87256 0.0
C2136 C 0.09247 0.67779 0.87717 0.0
C2137 C 0.94576 0.57829 0.88984 0.0
C2138 C 0.9676 0.55519 0.87798 0.0
C2139 C 0.00192 0.65162 0.89574 0.0
C2140 C 0.07408 0.70304 0.88908 0.0
H2141 H 0.72641 0.32248 0.87359 0.0
H2142 H 0.75741 0.41475 0.89354 0.0
H2143 H 0.85409 0.54144 0.90504 0.0
O2144 O 0.13065 0.56465 0.88058 0.0
O2145 O 0.03081 0.59538 0.8483 0.0
O2146 O 0.08023 0.62592 0.82598 0.0
O2147 O 0.05298 0.43797 0.87744 0.0
O2148 O 0.19742 0.64286 0.85474 0.0
O2149 O 0.18014 0.65862 0.83235 0.0
O2150 O 0.02159 0.47388 0.80593 0.0
O2151 O 0.15928 0.51653 0.84099 0.0
O2152 O 0.19988 0.51911 0.86067 0.0
O2153 O 0.09012 0.60342 0.80395 0.0
O2154 O 0.04593 0.40838 0.82713 0.0
O2155 O 0.03538 0.39382 0.85058 0.0
C2156 C 0.03479 0.63099 0.83639 0.0
C2157 C 0.15045 0.48018 0.89532 0.0
C2158 C 0.26193 0.53403 0.91073 0.0
C2159 C 0.25004 0.45658 0.91255 0.0
C2160 C 0.11947 0.40891 0.90289 0.0
C2161 C 0.17195 0.39298 0.91029 0.0
C2162 C 0.22839 0.54285 0.89873 0.0
C2163 C 0.22324 0.68525 0.84354 0.0
C2164 C 0.09822 0.49396 0.88598 0.0
C2165 C 0.81594 0.45393 0.88911 0.0
C2166 C 0.87042 0.52612 0.8956 0.0
C2167 C 0.21987 0.51756 0.84858 0.0
C2168 C 0.99359 0.53538 0.78528 0.0
C2169 C 0.9848 0.53922 0.75968 0.0
C2170 C 0.93915 0.57672 0.76174 0.0
C2171 C 0.94215 0.56724 0.78583 0.0
C2172 C 0.00948 0.51553 0.77184 0.0
C2173 C 0.91328 0.58479 0.77433 0.0
C2174 C 0.02071 0.36041 0.83829 0.0
C2175 C 0.03133 0.53665 0.79916 0.0
H2176 H 0.29219 0.44838 0.91849 0.0
H2177 H 0.05683 0.36516 0.90268 0.0
H2178 H 0.15166 0.33383 0.91452 0.0
H2179 H 0.25036 0.60298 0.89476 0.0
H2180 H 0.92663 0.60413 0.75338 0.0
H2181 H 0.92647 0.58202 0.79539 0.0
H2182 H 0.03676 0.47962 0.7705 0.0
H2183 H 0.87444 0.61029 0.77522 0.0
Eu2184 Eu 0.47654 0.56207 0.85891 0.0
C2185 C 0.38446 0.78842 0.79275 0.0
N2186 N 0.35265 0.74412 0.80427 0.0
C2187 C 0.28219 0.83528 0.80634 0.0
C2188 C 0.36528 0.84661 0.78715 0.0
C2189 C 0.28749 0.76753 0.81087 0.0
C2190 C 0.32411 0.87619 0.79489 0.0
C2191 C 0.42782 0.77301 0.77161 0.0
C2192 C 0.42078 0.76156 0.78557 0.0
C2193 C 0.38836 0.80804 0.76518 0.0
C2194 C 0.3601 0.84849 0.77308 0.0
Eu2195 Eu 0.43929 0.60696 0.81477 0.0
N2196 N 0.47663 0.75987 0.79315 0.0
C2197 C 0.49269 0.77341 0.7657 0.0
C2198 C 0.55347 0.80831 0.78741 0.0
C2199 C 0.56173 0.80437 0.77355 0.0
H2200 H 0.26197 0.75208 0.8201 0.0
H2201 H 0.61826 0.81949 0.76913 0.0
H2202 H 0.62516 0.53427 0.84305 0.0
H2203 H 0.23467 0.34989 0.88986 0.0
H2204 H 0.60813 0.8305 0.79328 0.0
H2205 H 0.49475 0.76475 0.75513 0.0
H2206 H 0.28386 0.43342 0.86965 0.0
H2207 H 0.23998 0.85018 0.81096 0.0
H2208 H 0.38961 0.81457 0.75443 0.0
H2209 H 0.33281 0.87988 0.76829 0.0
H2210 H 0.71357 0.48501 0.8515 0.0
H2211 H 0.31649 0.92398 0.79135 0.0
H2212 H 0.32659 0.31904 0.90272 0.0
N2213 N 0.54325 0.48669 0.85944 0.0
C2214 C 0.51917 0.4365 0.87017 0.0
C2215 C 0.65928 0.47181 0.8569 0.0
C2216 C 0.56888 0.40951 0.87562 0.0
C2217 C 0.60929 0.50026 0.8522 0.0
C2218 C 0.64076 0.42982 0.86899 0.0
N2219 N 0.39814 0.43984 0.87015 0.0
C2220 C 0.3208 0.41238 0.87432 0.0
C2221 C 0.42021 0.3675 0.88763 0.0
C2222 C 0.44469 0.41328 0.87583 0.0
C2223 C 0.34538 0.34836 0.89311 0.0
C2224 C 0.29386 0.36725 0.88605 0.0
H2225 H 0.68162 0.41276 0.87311 0.0
H2226 H 0.58543 0.34689 0.89232 0.0
H2227 H 0.45628 0.31306 0.90311 0.0
O2228 O 0.43956 0.5607 0.87941 0.0
O2229 O 0.40255 0.44245 0.84568 0.0
O2230 O 0.36094 0.46215 0.82395 0.0
O2231 O 0.5651 0.62948 0.87496 0.0
O2232 O 0.35861 0.55961 0.85575 0.0
O2233 O 0.34 0.53447 0.83278 0.0
O2234 O 0.52813 0.56233 0.80536 0.0
O2235 O 0.47612 0.65366 0.83634 0.0
O2236 O 0.47666 0.68033 0.85719 0.0
O2237 O 0.40335 0.49165 0.80376 0.0
O2238 O 0.58254 0.65977 0.82475 0.0
O2239 O 0.60021 0.64256 0.84783 0.0
C2240 C 0.36063 0.41081 0.83421 0.0
C2241 C 0.51472 0.66755 0.89436 0.0
C2242 C 0.44844 0.69418 0.91264 0.0
C2243 C 0.51754 0.76996 0.91425 0.0
C2244 C 0.5856 0.71567 0.90166 0.0
C2245 C 0.58999 0.77541 0.9102 0.0
C2246 C 0.44376 0.66181 0.89973 0.0
C2247 C 0.31076 0.53679 0.84536 0.0
C2248 C 0.51022 0.60837 0.88421 0.0
C2249 C 0.54623 0.36542 0.88764 0.0
C2250 C 0.47247 0.34555 0.89373 0.0
C2251 C 0.47364 0.70401 0.84528 0.0
C2252 C 0.47072 0.46085 0.78528 0.0
C2253 C 0.45785 0.44489 0.75944 0.0
C2254 C 0.41472 0.362 0.76171 0.0
C2255 C 0.43083 0.3766 0.78589 0.0
C2256 C 0.49372 0.49325 0.77151 0.0
C2257 C 0.40772 0.32878 0.7744 0.0
C2258 C 0.63212 0.67115 0.83575 0.0
C2259 C 0.47002 0.50086 0.79927 0.0
H2260 H 0.51813 0.81034 0.9218 0.0
H2261 H 0.63347 0.7024 0.90185 0.0
H2262 H 0.64713 0.81929 0.9145 0.0
H2263 H 0.38655 0.61688 0.89582 0.0
H2264 H 0.3844 0.32218 0.75346 0.0
H2265 H 0.41356 0.34676 0.79548 0.0
H2266 H 0.53642 0.55474 0.76981 0.0
H2267 H 0.37823 0.26419 0.77541 0.0
Eu2268 Eu 0.56273 0.76912 0.98233 0.0
C2269 C 0.39723 0.67133 0.04969 0.0
N2270 N 0.39282 0.74012 0.03331 0.0
C2271 C 0.21287 0.72463 0.04292 0.0
C2272 C 0.26878 0.59468 0.06999 0.0
C2273 C 0.32662 0.77613 0.03014 0.0
C2274 C 0.19259 0.65042 0.05834 0.0
C2275 C 0.47794 0.6074 0.06929 0.0
C2276 C 0.47822 0.65233 0.0544 0.0
C2277 C 0.40102 0.56333 0.08164 0.0
C2278 C 0.30334 0.55291 0.08206 0.0
Eu2279 Eu 0.54802 0.77391 0.02329 0.0
N2280 N 0.54589 0.67832 0.04513 0.0
C2281 C 0.54798 0.60517 0.0707 0.0
C2282 C 0.59632 0.64605 0.04688 0.0
C2283 C 0.59136 0.60767 0.05925 0.0
H2284 H 0.37614 0.76298 0.02984 0.0
H2285 H 0.61404 0.56717 0.05964 0.0
H2286 H 0.68214 0.83073 0.00831 0.0
H2287 H 0.6316 0.89422 0.93086 0.0
H2288 H 0.58105 0.68572 0.04204 0.0
H2289 H 0.55773 0.58153 0.0799 0.0
H2290 H 0.54184 0.82499 0.94987 0.0
H2291 H 0.18404 0.68347 0.05081 0.0
H2292 H 0.41782 0.54193 0.09028 0.0
H2293 H 0.26728 0.52691 0.09089 0.0
H2294 H 0.82172 0.92374 0.01344 0.0
H2295 H 0.21551 0.62989 0.06303 0.0
H2296 H 0.77682 0.97023 0.93373 0.0
N2297 N 0.69769 0.84868 0.98749 0.0
C2298 C 0.74843 0.89201 0.97744 0.0
C2299 C 0.80326 0.91116 0.00313 0.0
C2300 C 0.83056 0.94029 0.97977 0.0
C2301 C 0.72363 0.85958 1.0003 0.0
C2302 C 0.85776 0.94315 0.99254 0.0
N2303 N 0.63736 0.85022 0.96347 0.0
C2304 C 0.60593 0.85147 0.95125 0.0
C2305 C 0.77025 0.93857 0.95459 0.0
C2306 C 0.71797 0.89257 0.9651 0.0
C2307 C 0.73858 0.93595 0.94203 0.0
C2308 C 0.65623 0.89059 0.94029 0.0
H2309 H 0.92121 0.97591 0.99414 0.0
H2310 H 0.94515 0.02771 0.97154 0.0
H2311 H 0.89388 0.01738 0.94886 0.0
O2312 O 0.46387 0.71825 0.96725 0.0
O2313 O 0.60286 0.90313 0.98863 0.0
O2314 O 0.61343 0.90238 0.01205 0.0
O2315 O 0.57557 0.7121 0.96489 0.0
O2316 O 0.46146 0.79376 0.98991 0.0
O2317 O 0.47034 0.81942 0.01318 0.0
O2318 O 0.6641 0.81284 0.03326 0.0
O2319 O 0.46488 0.69354 0.0061 0.0
O2320 O 0.49522 0.64019 0.98994 0.0
O2321 O 0.6218 0.89868 0.03251 0.0
O2322 O 0.60449 0.69286 0.01521 0.0
O2323 O 0.62332 0.70057 0.99198 0.0
C2324 C 0.62692 0.94284 1.00033 0.0
C2325 C 0.47698 0.64518 0.94795 0.0
C2326 C 0.44135 0.64133 0.9243 0.0
C2327 C 0.4632 0.58173 0.92236 0.0
C2328 C 0.50784 0.59443 0.94513 0.0
C2329 C 0.50397 0.5665 0.93231 0.0
C2330 C 0.44454 0.6693 0.9375 0.0
C2331 C 0.43834 0.81461 1.00116 0.0
C2332 C 0.50439 0.69231 0.96026 0.0
C2333 C 0.88244 0.98804 0.9696 0.0
C2334 C 0.8528 0.98506 0.95689 0.0
C2335 C 0.45488 0.62686 1.00085 0.0
C2336 C 0.69938 0.90137 0.05238 0.0
C2337 C 0.6964 0.89068 0.07764 0.0
C2338 C 0.77738 0.95316 0.07706 0.0
C2339 C 0.77881 0.9639 0.05319 0.0
C2340 C 0.65742 0.8636 0.06478 0.0
C2341 C 0.81742 0.98748 0.06533 0.0
C2342 C 0.6327 0.67554 0.00399 0.0
C2343 C 0.67154 0.8792 0.03806 0.0
H2344 H 0.46061 0.55548 0.9127 0.0
H2345 H 0.54044 0.58104 0.95262 0.0
H2346 H 0.53691 0.53657 0.92992 0.0
H2347 H 0.43261 0.71766 0.93926 0.0
H2348 H 0.81334 0.98151 0.08548 0.0
H2349 H 0.8129 0.99259 0.04423 0.0
H2350 H 0.59641 0.81435 0.06466 0.0
H2351 H 0.88013 0.03288 0.06586 0.0
Eu2352 Eu 0.22116 0.79024 0.98245 0.0
C2353 C 0.32036 0.7219 0.04966 0.0
N2354 N 0.25196 0.64878 0.03325 0.0
C2355 C 0.2671 0.48418 0.04289 0.0
C2356 C 0.39657 0.67009 0.07005 0.0
C2357 C 0.21613 0.54667 0.03006 0.0
C2358 C 0.341 0.53805 0.05839 0.0
C2359 C 0.38411 0.86675 0.06922 0.0
C2360 C 0.33928 0.82194 0.05434 0.0
C2361 C 0.42798 0.83393 0.08161 0.0
C2362 C 0.43824 0.74657 0.0821 0.0
Eu2363 Eu 0.21782 0.76975 0.02317 0.0
N2364 N 0.31341 0.86358 0.04502 0.0
C2365 C 0.38709 0.93948 0.07052 0.0
C2366 C 0.34621 0.94643 0.04668 0.0
C2367 C 0.38494 0.98016 0.05901 0.0
H2368 H 0.22928 0.60935 0.02977 0.0
H2369 H 0.42572 0.04334 0.05929 0.0
H2370 H 0.15969 0.84774 0.00831 0.0
H2371 H 0.09751 0.73763 0.93047 0.0
H2372 H 0.30618 0.89135 0.0419 0.0
H2373 H 0.41082 0.97314 0.07969 0.0
H2374 H 0.17749 0.72721 0.94909 0.0
H2375 H 0.30802 0.49644 0.05082 0.0
H2376 H 0.45014 0.87268 0.09018 0.0
H2377 H 0.46449 0.73672 0.09093 0.0
H2378 H 0.06668 0.8942 0.01348 0.0
H2379 H 0.36142 0.58138 0.06308 0.0
H2380 H 0.01571 0.79946 0.93394 0.0
N2381 N 0.14125 0.84511 0.98751 0.0
C2382 C 0.09751 0.85205 0.97747 0.0
C2383 C 0.07906 0.88827 0.00316 0.0
C2384 C 0.04921 0.88586 0.97982 0.0
C2385 C 0.13047 0.8601 1.00032 0.0
C2386 C 0.04709 0.91085 0.99257 0.0
N2387 N 0.14253 0.78648 0.96327 0.0
C2388 C 0.14478 0.75822 0.95079 0.0
C2389 C 0.05037 0.82707 0.95465 0.0
C2390 C 0.09743 0.8217 0.96509 0.0
C2391 C 0.05177 0.79723 0.94211 0.0
C2392 C 0.10007 0.76387 0.94011 0.0
H2393 H 0.01517 0.94237 0.99416 0.0
H2394 H 0.96176 0.91338 0.97161 0.0
H2395 H 0.97191 0.87225 0.94894 0.0
O2396 O 0.27771 0.74397 0.96797 0.0
O2397 O 0.08744 0.69534 0.98857 0.0
O2398 O 0.08903 0.70677 0.01198 0.0
O2399 O 0.27881 0.85954 0.96534 0.0
O2400 O 0.19519 0.66339 0.98971 0.0
O2401 O 0.17293 0.64637 0.01304 0.0
O2402 O 0.17885 0.84669 0.03318 0.0
O2403 O 0.29787 0.7647 0.00613 0.0
O2404 O 0.34984 0.85113 0.99021 0.0
O2405 O 0.09306 0.71845 0.03248 0.0
O2406 O 0.29897 0.90767 0.0151 0.0
O2407 O 0.28902 0.91912 0.99197 0.0
C2408 C 0.04809 0.67971 1.0003 0.0
C2409 C 0.35877 0.83815 0.94988 0.0
C2410 C 0.37332 0.81457 0.92642 0.0
C2411 C 0.42528 0.89831 0.9249 0.0
C2412 C 0.40311 0.92128 0.94765 0.0
C2413 C 0.4318 0.95022 0.93508 0.0
C2414 C 0.34622 0.78462 0.9394 0.0
C2415 C 0.17607 0.6192 1.00092 0.0
C2416 C 0.30459 0.81168 0.96129 0.0
C2417 C 0.00132 0.89005 0.96967 0.0
C2418 C 0.00415 0.86335 0.95696 0.0
C2419 C 0.36375 0.82162 1.00076 0.0
C2420 C 0.09102 0.79379 0.0524 0.0
C2421 C 0.10314 0.80336 0.07767 0.0
C2422 C 0.04185 0.82354 0.07706 0.0
C2423 C 0.02904 0.81144 0.05322 0.0
C2424 C 0.12907 0.78992 0.0648 0.0
C2425 C 0.00669 0.82808 0.06533 0.0
C2426 C 0.3152 0.95348 0.00391 0.0
C2427 C 0.11271 0.78774 0.03804 0.0
H2428 H 0.44893 0.92513 0.91525 0.0
H2429 H 0.40942 0.96413 0.95531 0.0
H2430 H 0.45701 0.01344 0.9332 0.0
H2431 H 0.30359 0.72138 0.94076 0.0
H2432 H 0.01491 0.83339 0.08543 0.0
H2433 H 8e-05 0.81651 0.04427 0.0
H2434 H 0.17782 0.77747 0.06469 0.0
H2435 H 0.96197 0.84633 0.06584 0.0
Eu2436 Eu 0.20546 0.42963 0.98168 0.0
C2437 C 0.26978 0.59442 0.04962 0.0
N2438 N 0.3433 0.59926 0.03328 0.0
C2439 C 0.50765 0.779 0.04301 0.0
C2440 C 0.32122 0.72251 0.07003 0.0
C2441 C 0.44551 0.6655 0.03018 0.0
C2442 C 0.45344 0.79898 0.05843 0.0
C2443 C 0.12462 0.51321 0.06911 0.0
C2444 C 0.16971 0.51333 0.05425 0.0
C2445 C 0.15722 0.58975 0.08153 0.0
C2446 C 0.24451 0.6875 0.08205 0.0
Eu2447 Eu 0.22182 0.44391 0.02313 0.0
N2448 N 0.12795 0.44618 0.04488 0.0
C2449 C 0.05156 0.44371 0.0703 0.0
C2450 C 0.04482 0.39739 0.04638 0.0
C2451 C 0.0109 0.40242 0.05868 0.0
H2452 H 0.38283 0.6161 0.02985 0.0
H2453 H 0.94789 0.38121 0.05888 0.0
H2454 H 0.14657 0.31276 0.00808 0.0
H2455 H 0.25759 0.34822 0.93112 0.0
H2456 H 0.09985 0.4116 0.0417 0.0
H2457 H 0.01774 0.43349 0.07945 0.0
H2458 H 0.28177 0.43841 0.95049 0.0
H2459 H 0.49521 0.80769 0.0509 0.0
H2460 H 0.11853 0.57285 0.09011 0.0
H2461 H 0.25419 0.72334 0.09088 0.0
H2462 H 0.09788 0.17342 0.01395 0.0
H2463 H 0.40997 0.776 0.06309 0.0
H2464 H 0.18472 0.20336 0.9343 0.0
N2465 N 0.14535 0.29336 0.98733 0.0
C2466 C 0.13449 0.23967 0.97758 0.0
C2467 C 0.10316 0.19036 0.00356 0.0
C2468 C 0.10158 0.15822 0.98038 0.0
C2469 C 0.13187 0.26973 1.00028 0.0
C2470 C 0.07972 0.13393 0.99327 0.0
N2471 N 0.20267 0.34704 0.96329 0.0
C2472 C 0.23894 0.37617 0.95131 0.0
C2473 C 0.1575 0.21288 0.95495 0.0
C2474 C 0.16331 0.26696 0.96515 0.0
C2475 C 0.18827 0.24275 0.94239 0.0
C2476 C 0.2278 0.325 0.94049 0.0
H2477 H 0.04927 0.07089 0.99511 0.0
H2478 H 0.07492 0.04208 0.97293 0.0
H2479 H 0.11416 0.08821 0.94995 0.0
O2480 O 0.27367 0.53095 0.96789 0.0
O2481 O 0.29696 0.38791 0.98835 0.0
O2482 O 0.28539 0.37874 0.01181 0.0
O2483 O 0.14887 0.43781 0.9631 0.0
O2484 O 0.32978 0.52776 0.99026 0.0
O2485 O 0.34623 0.52118 0.01355 0.0
O2486 O 0.14418 0.32881 0.03342 0.0
O2487 O 0.22563 0.52806 0.00593 0.0
O2488 O 0.14389 0.49744 0.98923 0.0
O2489 O 0.27174 0.36933 0.03247 0.0
O2490 O 0.08507 0.38717 0.01453 0.0
O2491 O 0.07469 0.37183 0.99112 0.0
C2492 C 0.31217 0.36441 1.00012 0.0
C2493 C 0.21649 0.54846 0.94724 0.0
C2494 C 0.2439 0.56654 0.92309 0.0
C2495 C 0.19088 0.59673 0.9222 0.0
C2496 C 0.16284 0.57672 0.94581 0.0
C2497 C 0.15243 0.60265 0.93335 0.0
C2498 C 0.25997 0.54721 0.93595 0.0
C2499 C 0.37339 0.55232 1.00151 0.0
C2500 C 0.21267 0.50548 0.95967 0.0
C2501 C 0.09689 0.10415 0.97055 0.0
C2502 C 0.12207 0.13086 0.95767 0.0
C2503 C 0.16974 0.53778 1.00023 0.0
C2504 C 0.1977 0.29395 0.05263 0.0
C2505 C 0.18969 0.29745 0.07796 0.0
C2506 C 0.17099 0.21636 0.0774 0.0
C2507 C 0.18144 0.21476 0.05353 0.0
C2508 C 0.20165 0.33614 0.06503 0.0
C2509 C 0.1661 0.17634 0.0657 0.0
C2510 C 0.0398 0.36054 0.00322 0.0
C2511 C 0.20277 0.32086 0.03822 0.0
H2512 H 0.17499 0.61293 0.91279 0.0
H2513 H 0.12915 0.57767 0.9544 0.0
H2514 H 0.11436 0.62763 0.9318 0.0
H2515 H 0.30175 0.52563 0.93676 0.0
H2516 H 0.16245 0.18016 0.08582 0.0
H2517 H 0.17641 0.18051 0.04462 0.0
H2518 H 0.21309 0.39703 0.06485 0.0
H2519 H 0.14896 0.11366 0.06626 0.0
Eu2520 Eu 0.23282 0.44614 0.52351 0.0
C2521 C 0.10595 0.24413 0.47689 0.0
N2522 N 0.15206 0.29555 0.4867 0.0
C2523 C 0.09836 0.19044 0.50244 0.0
C2524 C 0.06066 0.16201 0.47929 0.0
C2525 C 0.14413 0.27081 0.49953 0.0
C2526 C 0.06392 0.13556 0.49194 0.0
C2527 C 0.04727 0.2218 0.45474 0.0
C2528 C 0.09777 0.27417 0.46495 0.0
C2529 C 0.00283 0.13902 0.45709 0.0
C2530 C 0.00763 0.10991 0.46954 0.0
Eu2531 Eu 0.22735 0.42991 0.48135 0.0
N2532 N 0.13656 0.35476 0.46353 0.0
C2533 C 0.04173 0.25424 0.44262 0.0
C2534 C 0.12837 0.38628 0.45182 0.0
C2535 C 0.08429 0.33716 0.44105 0.0
H2536 H 0.1717 0.31348 0.50748 0.0
H2537 H 0.08111 0.36386 0.4317 0.0
H2538 H 0.15643 0.63039 0.52425 0.0
H2539 H 0.45896 0.40497 0.55855 0.0
H2540 H 0.1566 0.44967 0.45053 0.0
H2541 H 0.00486 0.21618 0.43451 0.0
H2542 H 0.33256 0.42702 0.5413 0.0
H2543 H 0.08867 0.17239 0.51275 0.0
H2544 H 0.96242 0.09768 0.4496 0.0
H2545 H 0.96834 0.04761 0.47175 0.0
H2546 H 0.22022 0.78652 0.54659 0.0
H2547 H 0.0313 0.0728 0.49374 0.0
H2548 H 0.43362 0.45923 0.57861 0.0
N2549 N 0.26072 0.60153 0.53194 0.0
C2550 C 0.3365 0.60409 0.54887 0.0
C2551 C 0.26233 0.7719 0.54268 0.0
C2552 C 0.40425 0.72385 0.56886 0.0
C2553 C 0.21374 0.65935 0.52935 0.0
C2554 C 0.33625 0.79804 0.55745 0.0
N2555 N 0.33693 0.4608 0.5445 0.0
C2556 C 0.37664 0.41704 0.54582 0.0
C2557 C 0.3999 0.53136 0.56771 0.0
C2558 C 0.35834 0.52866 0.55352 0.0
C2559 C 0.41342 0.46796 0.56914 0.0
C2560 C 0.41819 0.42732 0.55791 0.0
H2561 H 0.32983 0.81371 0.54749 0.0
H2562 H 0.45623 0.72308 0.59012 0.0
H2563 H 0.44111 0.57663 0.58863 0.0
O2564 O 0.20337 0.3317 0.53445 0.0
O2565 O 0.30419 0.49052 0.50456 0.0
O2566 O 0.35394 0.53107 0.48566 0.0
O2567 O 0.10911 0.35809 0.53096 0.0
O2568 O 0.31112 0.38989 0.51409 0.0
O2569 O 0.30133 0.37192 0.49068 0.0
O2570 O 0.26524 0.52352 0.46591 0.0
O2571 O 0.09759 0.39571 0.48944 0.0
O2572 O 0.10215 0.38637 0.51302 0.0
O2573 O 0.28493 0.42039 0.46343 0.0
O2574 O 0.20453 0.52663 0.49089 0.0
O2575 O 0.20429 0.54191 0.51429 0.0
C2576 C 0.3657 0.54955 0.49802 0.0
C2577 C 0.10273 0.29462 0.55242 0.0
C2578 C 0.10524 0.31112 0.57797 0.0
C2579 C 0.02111 0.26858 0.57696 0.0
C2580 C 0.01986 0.24588 0.55321 0.0
C2581 C 0.98012 0.23515 0.56507 0.0
C2582 C 0.14736 0.32729 0.56511 0.0
C2583 C 0.32732 0.36199 0.50268 0.0
C2584 C 0.13039 0.31296 0.53769 0.0
C2585 C 0.43988 0.69139 0.58068 0.0
C2586 C 0.43295 0.60087 0.57965 0.0
C2587 C 0.0603 0.37404 0.50145 0.0
C2588 C 0.30764 0.50234 0.44327 0.0
C2589 C 0.45185 0.58344 0.4264 0.0
C2590 C 0.43163 0.56729 0.4105 0.0
C2591 C 0.26511 0.42794 0.43057 0.0
C2592 C 0.39309 0.59115 0.44122 0.0
C2593 C 0.30655 0.43863 0.41523 0.0
C2594 C 0.1983 0.56366 0.50177 0.0
C2595 C 0.2964 0.48892 0.45868 0.0
H2596 H 0.9855 0.26118 0.58577 0.0
H2597 H 0.98422 0.21945 0.5443 0.0
H2598 H 0.91553 0.19886 0.56497 0.0
H2599 H 0.21207 0.36675 0.56497 0.0
H2600 H 0.44679 0.61905 0.40349 0.0
H2601 H 0.28474 0.46465 0.43781 0.0
H2602 H 0.42054 0.6313 0.44949 0.0
H2603 H 0.26933 0.39085 0.40829 0.0
Eu2604 Eu 0.55207 0.78659 0.52315 0.0
C2605 C 0.75266 0.86029 0.47645 0.0
N2606 N 0.70163 0.85613 0.48624 0.0
C2607 C 0.80675 0.90756 0.50194 0.0
C2608 C 0.83486 0.89726 0.47881 0.0
C2609 C 0.72645 0.87319 0.49906 0.0
C2610 C 0.86156 0.92788 0.49143 0.0
C2611 C 0.77447 0.82303 0.45434 0.0
C2612 C 0.72227 0.82172 0.46452 0.0
C2613 C 0.85725 0.86112 0.45667 0.0
C2614 C 0.88674 0.89589 0.46907 0.0
Eu2615 Eu 0.56772 0.79868 0.48088 0.0
N2616 N 0.64165 0.78115 0.46303 0.0
C2617 C 0.74197 0.78559 0.44218 0.0
C2618 C 0.61014 0.74327 0.45117 0.0
C2619 C 0.65921 0.74723 0.44048 0.0
H2620 H 0.68386 0.85836 0.50701 0.0
H2621 H 0.63246 0.71806 0.43109 0.0
H2622 H 0.36789 0.52651 0.52419 0.0
H2623 H 0.59456 0.05565 0.55732 0.0
H2624 H 0.54682 0.71009 0.44968 0.0
H2625 H 0.77994 0.78629 0.43409 0.0
H2626 H 0.57263 0.90602 0.54068 0.0
H2627 H 0.82464 0.9157 0.51225 0.0
H2628 H 0.89841 0.86171 0.44919 0.0
H2629 H 0.94917 0.91915 0.47123 0.0
H2630 H 0.21248 0.43398 0.54657 0.0
H2631 H 0.92436 0.95838 0.49323 0.0
H2632 H 0.5463 0.97693 0.5779 0.0
N2633 N 0.39704 0.65966 0.53181 0.0
C2634 C 0.39578 0.73363 0.54872 0.0
C2635 C 0.2276 0.49128 0.54287 0.0
C2636 C 0.27785 0.68269 0.56898 0.0
C2637 C 0.33918 0.55495 0.52934 0.0
C2638 C 0.20269 0.53973 0.55775 0.0
N2639 N 0.53889 0.87703 0.54398 0.0
C2640 C 0.58231 0.96053 0.54499 0.0
C2641 C 0.47043 0.871 0.56729 0.0
C2642 C 0.47167 0.83121 0.55314 0.0
C2643 C 0.53465 0.94786 0.56844 0.0
C2644 C 0.5732 0.99266 0.557 0.0
H2645 H 0.1866 0.51712 0.54785 0.0
H2646 H 0.28048 0.73645 0.59019 0.0
H2647 H 0.42605 0.8706 0.58819 0.0
O2648 O 0.66755 0.87061 0.53395 0.0
O2649 O 0.50725 0.81332 0.50423 0.0
O2650 O 0.46434 0.82034 0.48542 0.0
O2651 O 0.63892 0.74915 0.5306 0.0
O2652 O 0.60822 0.92141 0.51396 0.0
O2653 O 0.62566 0.93023 0.49054 0.0
O2654 O 0.47599 0.74935 0.46507 0.0
O2655 O 0.60213 0.70265 0.48902 0.0
O2656 O 0.61131 0.71592 0.51261 0.0
O2657 O 0.58265 0.86984 0.46309 0.0
O2658 O 0.47075 0.67783 0.49035 0.0
O2659 O 0.45608 0.66288 0.51384 0.0
C2660 C 0.44727 0.81483 0.49784 0.0
C2661 C 0.70388 0.80658 0.552 0.0
C2662 C 0.68891 0.79357 0.57759 0.0
C2663 C 0.73329 0.75393 0.5766 0.0
C2664 C 0.75353 0.77348 0.55278 0.0
C2665 C 0.76613 0.74614 0.56467 0.0
C2666 C 0.67136 0.81832 0.56472 0.0
C2667 C 0.63583 0.96585 0.5026 0.0
C2668 C 0.68511 0.81557 0.53725 0.0
C2669 C 0.3115 0.75157 0.58069 0.0
C2670 C 0.40197 0.8355 0.5794 0.0
C2671 C 0.6236 0.68659 0.50105 0.0
C2672 C 0.50206 0.81519 0.4425 0.0
C2673 C 0.41842 0.87245 0.42489 0.0
C2674 C 0.43578 0.86685 0.40907 0.0
C2675 C 0.57711 0.84732 0.42988 0.0
C2676 C 0.41211 0.8089 0.44009 0.0
C2677 C 0.56593 0.87512 0.41425 0.0
C2678 C 0.43423 0.63486 0.50134 0.0
C2679 C 0.51387 0.81556 0.458 0.0
H2680 H 0.7416 0.72632 0.58541 0.0
H2681 H 0.77938 0.76393 0.54384 0.0
H2682 H 0.80253 0.71803 0.56457 0.0
H2683 H 0.63114 0.84267 0.56464 0.0
H2684 H 0.38456 0.828 0.40209 0.0
H2685 H 0.5401 0.83013 0.43713 0.0
H2686 H 0.37027 0.79455 0.44817 0.0
H2687 H 0.61438 0.88618 0.40742 0.0
Eu2688 Eu 0.21132 0.76576 0.5234 0.0
C2689 C 0.13715 0.89194 0.4766 0.0
N2690 N 0.14118 0.84496 0.48638 0.0
C2691 C 0.08923 0.89827 0.50205 0.0
C2692 C 0.09998 0.93697 0.47894 0.0
C2693 C 0.12395 0.85263 0.4992 0.0
C2694 C 0.06907 0.93284 0.49153 0.0
C2695 C 0.17508 0.95167 0.45454 0.0
C2696 C 0.17608 0.90051 0.46471 0.0
C2697 C 0.13681 0.99618 0.45685 0.0
C2698 C 0.10155 0.99038 0.46922 0.0
Eu2699 Eu 0.19855 0.76841 0.48099 0.0
N2700 N 0.21669 0.86051 0.46323 0.0
C2701 C 0.21279 0.95684 0.44241 0.0
C2702 C 0.25513 0.86736 0.45142 0.0
C2703 C 0.25101 0.91232 0.44071 0.0
H2704 H 0.13895 0.82512 0.50717 0.0
H2705 H 0.28018 0.91474 0.43132 0.0
H2706 H 0.4715 0.84146 0.52385 0.0
H2707 H 0.94494 0.5427 0.55869 0.0
H2708 H 0.28866 0.83754 0.45 0.0
H2709 H 0.21222 0.99423 0.43432 0.0
H2710 H 0.09307 0.66705 0.54126 0.0
H2711 H 0.08084 0.90791 0.51235 0.0
H2712 H 0.13639 0.03692 0.44938 0.0
H2713 H 0.07817 0.02935 0.47138 0.0
H2714 H 0.56515 0.77949 0.54622 0.0
H2715 H 0.03886 0.96546 0.49331 0.0
H2716 H 0.02541 0.56956 0.57877 0.0
N2717 N 0.33885 0.73789 0.53178 0.0
C2718 C 0.26624 0.66334 0.54887 0.0
C2719 C 0.50799 0.73705 0.54253 0.0
C2720 C 0.31892 0.59742 0.56903 0.0
C2721 C 0.44343 0.78455 0.52907 0.0
C2722 C 0.46075 0.66446 0.5575 0.0
N2723 N 0.12239 0.66266 0.54448 0.0
C2724 C 0.03903 0.62349 0.54586 0.0
C2725 C 0.13067 0.6013 0.56781 0.0
C2726 C 0.16906 0.64173 0.55354 0.0
C2727 C 0.0539 0.58832 0.56925 0.0
C2728 C 0.00813 0.58296 0.55802 0.0
H2729 H 0.48248 0.67024 0.54754 0.0
H2730 H 0.2668 0.54667 0.59035 0.0
H2731 H 0.13404 0.55929 0.58877 0.0
O2732 O 0.12773 0.7967 0.53449 0.0
O2733 O 0.18362 0.69383 0.50454 0.0
O2734 O 0.17619 0.6433 0.48574 0.0
O2735 O 0.24844 0.89006 0.53086 0.0
O2736 O 0.07634 0.68698 0.51419 0.0
O2737 O 0.06726 0.69484 0.49073 0.0
O2738 O 0.2485 0.72684 0.46511 0.0
O2739 O 0.29453 0.89892 0.48909 0.0
O2740 O 0.28146 0.89548 0.51269 0.0
O2741 O 0.12767 0.7122 0.46318 0.0
O2742 O 0.31886 0.79156 0.49042 0.0
O2743 O 0.33482 0.79327 0.51389 0.0
C2744 C 0.18192 0.63218 0.49819 0.0
C2745 C 0.19297 0.89742 0.55251 0.0
C2746 C 0.20569 0.8945 0.57814 0.0
C2747 C 0.24829 0.97872 0.57717 0.0
C2748 C 0.22899 0.98052 0.55334 0.0
C2749 C 0.25744 0.02 0.56525 0.0
C2750 C 0.17973 0.85256 0.56523 0.0
C2751 C 0.03182 0.66974 0.50281 0.0
C2752 C 0.18262 0.86951 0.53772 0.0
C2753 C 0.25122 0.5626 0.5809 0.0
C2754 C 0.16745 0.56908 0.57982 0.0
C2755 C 0.31061 0.9368 0.50109 0.0
C2756 C 0.18288 0.68747 0.44252 0.0
C2757 C 0.12702 0.54765 0.4247 0.0
C2758 C 0.13378 0.5716 0.40891 0.0
C2759 C 0.15146 0.73108 0.4299 0.0
C2760 C 0.18934 0.60396 0.44004 0.0
C2761 C 0.12483 0.69306 0.41419 0.0
C2762 C 0.36222 0.7984 0.50136 0.0
C2763 C 0.18229 0.69837 0.45804 0.0
H2764 H 0.27669 0.01425 0.58599 0.0
H2765 H 0.23977 0.01643 0.54442 0.0
H2766 H 0.28675 0.08464 0.56519 0.0
H2767 H 0.15345 0.7877 0.56508 0.0
H2768 H 0.17331 0.55975 0.402 0.0
H2769 H 0.16826 0.71091 0.43717 0.0
H2770 H 0.20286 0.57566 0.4481 0.0
H2771 H 0.11402 0.73076 0.40738 0.0
Eu2772 Eu 0.11388 0.58578 0.31331 0.0
C2773 C 0.92071 0.45964 0.36079 0.0
N2774 N 0.96799 0.50348 0.35045 0.0
C2775 C 0.85498 0.45516 0.33631 0.0
C2776 C 0.83692 0.41768 0.35955 0.0
C2777 C 0.93695 0.49418 0.33802 0.0
C2778 C 0.80437 0.42205 0.34739 0.0
C2779 C 0.90828 0.39544 0.38217 0.0
C2780 C 0.95627 0.4473 0.37179 0.0
C2781 C 0.82445 0.35634 0.38127 0.0
C2782 C 0.7893 0.36513 0.36973 0.0
Eu2783 Eu 0.10467 0.57805 0.35477 0.0
N2784 N 0.03754 0.48186 0.37191 0.0
C2785 C 0.9458 0.38332 0.39306 0.0
C2786 C 0.07446 0.46598 0.38211 0.0
C2787 C 0.029 0.41943 0.39309 0.0
H2788 H 0.97553 0.51719 0.32945 0.0
H2789 H 0.05779 0.41238 0.40185 0.0
H2790 H 0.28162 0.4868 0.31183 0.0
H2791 H 0.09242 0.82759 0.27852 0.0
H2792 H 0.13906 0.49179 0.38208 0.0
H2793 H 0.91133 0.34625 0.40145 0.0
H2794 H 0.10643 0.69326 0.29516 0.0
H2795 H 0.83282 0.44691 0.32629 0.0
H2796 H 0.78653 0.31617 0.3891 0.0
H2797 H 0.72614 0.32627 0.36837 0.0
H2798 H 0.42867 0.53098 0.28919 0.0
H2799 H 0.74028 0.38966 0.3461 0.0
H2800 H 0.15595 0.81285 0.25874 0.0
N2801 N 0.26429 0.59959 0.30425 0.0
C2802 C 0.27317 0.67778 0.28711 0.0
C2803 C 0.42115 0.57909 0.29279 0.0
C2804 C 0.3914 0.73151 0.26652 0.0
C2805 C 0.3142 0.54363 0.30664 0.0
C2806 C 0.45147 0.65193 0.27783 0.0
N2807 N 0.13826 0.69447 0.29187 0.0
C2808 C 0.1012 0.74091 0.29081 0.0
C2809 C 0.21234 0.75638 0.26857 0.0
C2810 C 0.20485 0.71069 0.28273 0.0
C2811 C 0.15836 0.78405 0.2678 0.0
C2812 C 0.11697 0.78783 0.2791 0.0
H2813 H 0.46464 0.64209 0.2877 0.0
H2814 H 0.39331 0.74914 0.26118 0.0
H2815 H 0.33314 0.78865 0.25257 0.0
O2816 O 0.00084 0.55785 0.30189 0.0
O2817 O 0.16249 0.68463 0.32976 0.0
O2818 O 0.22425 0.66084 0.34609 0.0
O2819 O 0.0243 0.46215 0.30585 0.0
O2820 O 0.04946 0.65585 0.32363 0.0
O2821 O 0.03987 0.6484 0.347 0.0
O2822 O 0.19122 0.61957 0.3712 0.0
O2823 O 0.06383 0.44639 0.34824 0.0
O2824 O 0.05584 0.45373 0.32475 0.0
O2825 O 0.11651 0.67275 0.3686 0.0
O2826 O 0.1922 0.54625 0.34469 0.0
O2827 O 0.20539 0.54846 0.32144 0.0
C2828 C 0.23043 0.7041 0.3359 0.0
C2829 C 0.95705 0.45227 0.28449 0.0
C2830 C 0.96783 0.44129 0.25906 0.0
C2831 C 0.8986 0.36438 0.26062 0.0
C2832 C 0.88679 0.37746 0.28423 0.0
C2833 C 0.857 0.33596 0.27247 0.0
C2834 C 0.99732 0.48622 0.27152 0.0
C2835 C 0.02254 0.67094 0.33535 0.0
C2836 C 0.98035 0.48379 0.29898 0.0
C2837 C 0.36591 0.77686 0.25479 0.0
C2838 C 0.28058 0.78462 0.25627 0.0
C2839 C 0.04297 0.40987 0.33631 0.0
C2840 C 0.16344 0.67 0.39141 0.0
C2841 C 0.06154 0.55383 0.41189 0.0
C2842 C 0.08889 0.58683 0.42721 0.0
C2843 C 0.24306 0.70449 0.40324 0.0
C2844 C 0.06646 0.60674 0.39536 0.0
C2845 C 0.2293 0.6778 0.41963 0.0
C2846 C 0.22535 0.53659 0.33367 0.0
C2847 C 0.1726 0.67152 0.37583 0.0
H2848 H 0.87248 0.32272 0.2527 0.0
H2849 H 0.854 0.35024 0.29335 0.0
H2850 H 0.80239 0.27806 0.27252 0.0
H2851 H 0.05035 0.54514 0.27084 0.0
H2852 H 0.0466 0.59284 0.43444 0.0
H2853 H 0.20345 0.68797 0.39645 0.0
H2854 H 0.02088 0.5815 0.38775 0.0
H2855 H 0.28304 0.71334 0.42557 0.0
Eu2856 Eu 0.41877 0.53271 0.31229 0.0
C2857 C 0.53827 0.46082 0.36104 0.0
N2858 N 0.49367 0.46389 0.3508 0.0
C2859 C 0.54513 0.40349 0.33634 0.0
C2860 C 0.58214 0.42102 0.35958 0.0
C2861 C 0.50498 0.44514 0.33826 0.0
C2862 C 0.57845 0.38542 0.34732 0.0
C2863 C 0.60342 0.51331 0.38232 0.0
C2864 C 0.5502 0.50813 0.37207 0.0
C2865 C 0.64411 0.47019 0.38124 0.0
C2866 C 0.63579 0.42699 0.36963 0.0
Eu2867 Eu 0.41773 0.52466 0.35523 0.0
N2868 N 0.51451 0.55373 0.3723 0.0
C2869 C 0.61528 0.56264 0.39323 0.0
C2870 C 0.53076 0.60696 0.38245 0.0
C2871 C 0.57813 0.60873 0.39336 0.0
H2872 H 0.48264 0.46199 0.32977 0.0
H2873 H 0.58566 0.64472 0.40212 0.0
H2874 H 0.51737 0.79244 0.30995 0.0
H2875 H 0.16723 0.26593 0.27877 0.0
H2876 H 0.50425 0.64517 0.38249 0.0
H2877 H 0.65326 0.56608 0.40153 0.0
H2878 H 0.30549 0.41451 0.29493 0.0
H2879 H 0.55413 0.39119 0.32625 0.0
H2880 H 0.68521 0.47335 0.38896 0.0
H2881 H 0.67579 0.4042 0.36809 0.0
H2882 H 0.46511 0.89962 0.28939 0.0
H2883 H 0.61149 0.35458 0.34584 0.0
H2884 H 0.18243 0.34395 0.25887 0.0
N2885 N 0.40136 0.66616 0.30371 0.0
C2886 C 0.31983 0.59666 0.28705 0.0
C2887 C 0.41954 0.84337 0.29296 0.0
C2888 C 0.26216 0.66047 0.26694 0.0
C2889 C 0.45777 0.77132 0.30607 0.0
C2890 C 0.34446 0.80084 0.27814 0.0
N2891 N 0.30313 0.44497 0.29172 0.0
C2892 C 0.25617 0.36157 0.29082 0.0
C2893 C 0.23771 0.45642 0.26873 0.0
C2894 C 0.28574 0.49506 0.2827 0.0
C2895 C 0.21105 0.37507 0.26794 0.0
C2896 C 0.20776 0.33017 0.27925 0.0
H2897 H 0.35403 0.82368 0.28805 0.0
H2898 H 0.24348 0.64446 0.26166 0.0
H2899 H 0.20215 0.54427 0.25313 0.0
O2900 O 0.45268 0.45064 0.30131 0.0
O2901 O 0.34586 0.50575 0.33103 0.0
O2902 O 0.29874 0.51035 0.34964 0.0
O2903 O 0.54251 0.57414 0.30379 0.0
O2904 O 0.34626 0.39831 0.32294 0.0
O2905 O 0.35085 0.39272 0.34653 0.0
O2906 O 0.37549 0.57216 0.37127 0.0
O2907 O 0.54785 0.62168 0.34808 0.0
O2908 O 0.54786 0.60472 0.32453 0.0
O2909 O 0.33839 0.44523 0.37074 0.0
O2910 O 0.44151 0.64273 0.34516 0.0
O2911 O 0.45542 0.65692 0.32164 0.0
C2912 C 0.28778 0.5121 0.33715 0.0
C2913 C 0.55119 0.5128 0.28263 0.0
C2914 C 0.55885 0.53537 0.25716 0.0
C2915 C 0.63852 0.55306 0.25843 0.0
C2916 C 0.62642 0.51838 0.2818 0.0
C2917 C 0.66854 0.53684 0.26991 0.0
C2918 C 0.51456 0.5176 0.26981 0.0
C2919 C 0.32902 0.35534 0.33469 0.0
C2920 C 0.5237 0.50745 0.29745 0.0
C2921 C 0.21451 0.58904 0.25534 0.0
C2922 C 0.20684 0.4958 0.25668 0.0
C2923 C 0.5878 0.6366 0.3364 0.0
C2924 C 0.33647 0.50068 0.39253 0.0
C2925 C 0.44638 0.51101 0.4138 0.0
C2926 C 0.41038 0.50621 0.42884 0.0
C2927 C 0.30166 0.54794 0.40384 0.0
C2928 C 0.39672 0.46421 0.3971 0.0
C2929 C 0.32453 0.55986 0.42034 0.0
C2930 C 0.45676 0.68515 0.3339 0.0
C2931 C 0.33245 0.50192 0.37698 0.0
H2932 H 0.67993 0.58442 0.25044 0.0
H2933 H 0.65539 0.51259 0.29068 0.0
H2934 H 0.72905 0.54641 0.26992 0.0
H2935 H 0.4548 0.50982 0.26946 0.0
H2936 H 0.40102 0.457 0.43615 0.0
H2937 H 0.31845 0.52368 0.39734 0.0
H2938 H 0.42219 0.44218 0.38985 0.0
H2939 H 0.28943 0.5799 0.42593 0.0
Eu2940 Eu 0.47073 0.88638 0.31266 0.0
C2941 C 0.5359 0.08043 0.36076 0.0
N2942 N 0.5321 0.03284 0.35045 0.0
C2943 C 0.59516 0.14526 0.33617 0.0
C2944 C 0.57734 0.16418 0.35942 0.0
C2945 C 0.55353 0.06337 0.33798 0.0
C2946 C 0.61311 0.19632 0.34719 0.0
C2947 C 0.48602 0.09346 0.38227 0.0
C2948 C 0.48881 0.04517 0.37184 0.0
C2949 C 0.531 0.17729 0.38132 0.0
C2950 C 0.57345 0.2121 0.36964 0.0
Eu2951 Eu 0.47006 0.89636 0.35484 0.0
N2952 N 0.44193 0.96392 0.37203 0.0
C2953 C 0.43726 0.05627 0.39326 0.0
C2954 C 0.38984 0.92732 0.38232 0.0
C2955 C 0.38983 0.97311 0.39334 0.0
H2956 H 0.53815 0.02443 0.32947 0.0
H2957 H 0.35457 0.94466 0.40217 0.0
H2958 H 0.21021 0.7276 0.31055 0.0
H2959 H 0.73033 0.90531 0.27663 0.0
H2960 H 0.35076 0.86274 0.38233 0.0
H2961 H 0.43549 0.09097 0.40168 0.0
H2962 H 0.58402 0.89215 0.29383 0.0
H2963 H 0.60793 0.16699 0.32611 0.0
H2964 H 0.52999 0.21541 0.38922 0.0
H2965 H 0.59779 0.27525 0.36824 0.0
H2966 H 0.10054 0.56875 0.29006 0.0
H2967 H 0.64432 0.26032 0.34579 0.0
H2968 H 0.64887 0.83616 0.25735 0.0
N2969 N 0.33463 0.73619 0.30396 0.0
C2970 C 0.40095 0.72459 0.28671 0.0
C2971 C 0.15567 0.57754 0.29373 0.0
C2972 C 0.33312 0.60216 0.26679 0.0
C2973 C 0.22968 0.68774 0.30675 0.0
C2974 C 0.19522 0.54453 0.27871 0.0
N2975 N 0.55291 0.86019 0.29071 0.0
C2976 C 0.63623 0.89711 0.28927 0.0
C2977 C 0.53749 0.78217 0.2676 0.0
C2978 C 0.50133 0.79225 0.28184 0.0
C2979 C 0.61904 0.83599 0.26646 0.0
C2980 C 0.66586 0.8801 0.27747 0.0
H2981 H 0.17418 0.53041 0.28874 0.0
H2982 H 0.34808 0.59934 0.26138 0.0
H2983 H 0.44642 0.65802 0.25229 0.0
O2984 O 0.55773 0.99819 0.30116 0.0
O2985 O 0.51683 0.8346 0.32946 0.0
O2986 O 0.43357 0.77625 0.34634 0.0
O2987 O 0.4402 0.97847 0.30534 0.0
O2988 O 0.6022 0.94942 0.3236 0.0
O2989 O 0.60417 0.95926 0.34701 0.0
O2990 O 0.42578 0.8103 0.37131 0.0
O2991 O 0.38052 0.93739 0.34765 0.0
O2992 O 0.39523 0.94389 0.32403 0.0
O2993 O 0.55372 0.88587 0.36865 0.0
O2994 O 0.34977 0.80735 0.34535 0.0
O2995 O 0.3445 0.79993 0.32181 0.0
C2996 C 0.46726 0.76764 0.33589 0.0
C2997 C 0.49681 0.04434 0.28395 0.0
C2998 C 0.46824 0.02768 0.25886 0.0
C2999 C 0.44187 0.08292 0.26069 0.0
C3000 C 0.48438 0.11018 0.28356 0.0
C3001 C 0.45989 0.1307 0.27196 0.0
C3002 C 0.494 0.00534 0.27105 0.0
C3003 C 0.64351 0.97587 0.33536 0.0
C3004 C 0.50594 0.0213 0.29841 0.0
C3005 C 0.40214 0.62565 0.25474 0.0
C3006 C 0.49566 0.71128 0.25565 0.0
C3007 C 0.36439 0.95715 0.33564 0.0
C3008 C 0.50445 0.83804 0.39145 0.0
C3009 C 0.49032 0.93879 0.41216 0.0
C3010 C 0.49566 0.91031 0.42742 0.0
C3011 C 0.45901 0.75768 0.40314 0.0
C3012 C 0.53839 0.93489 0.39558 0.0
C3013 C 0.44599 0.77039 0.41955 0.0
C3014 C 0.31069 0.77847 0.33392 0.0
C3015 C 0.49666 0.82943 0.37588 0.0
H3016 H 0.40382 0.0871 0.2533 0.0
H3017 H 0.48971 0.14386 0.29255 0.0
H3018 H 0.44694 0.17941 0.27198 0.0
H3019 H 0.50837 0.95757 0.27043 0.0
H3020 H 0.54396 0.95206 0.4347 0.0
H3021 H 0.48228 0.7978 0.39645 0.0
H3022 H 0.55853 0.98086 0.38804 0.0
H3023 H 0.42805 0.71644 0.4254 0.0
loop_
_geom_bond_atom_site_label_1
_geom_bond_atom_site_label_2
_geom_bond_distance
_geom_bond_site_symmetry_2
_ccdc_geom_bond_type
Eu0 N29 2.600 . S
Eu0 N35 2.562 . S
Eu0 O44 2.462 . S
Eu0 O45 2.373 . S
Eu0 O47 2.432 . S
Eu0 O48 2.291 . S
Eu0 O52 2.335 . S
Eu0 O55 2.372 . S
Eu0 C64 2.787 . S
C1 N2 1.365 1_655 S
C1 C4 1.405 1_545 S
C1 C8 1.448 . S
N2 C1 1.365 1_455 S
N2 C5 1.308 1_545 S
N2 Eu11 2.600 . S
C3 C5 1.407 . S
C3 C6 1.367 1_455 S
C3 H23 0.931 . S
C4 C1 1.405 1_565 S
C4 C6 1.403 . S
C4 C10 1.439 . S
C5 N2 1.308 1_565 S
C5 C3 1.407 . S
C5 H16 0.930 1_565 S
C6 C3 1.367 1_655 S
C6 C4 1.403 . S
C6 H27 0.929 . S
C7 C8 1.430 . S
C7 C9 1.387 1_545 S
C7 C13 1.404 . S
C8 C1 1.448 . S
C8 C7 1.430 . S
C8 N12 1.351 . S
C9 C7 1.387 1_565 S
C9 C10 1.374 . S
C9 H24 0.931 . S
C10 C4 1.439 . S
C10 C9 1.374 . S
C10 H25 0.931 . S
Eu11 N2 2.600 . S
Eu11 N12 2.562 1_455 S
Eu11 O46 2.335 . S
Eu11 O49 2.372 . S
Eu11 O50 2.462 . S
Eu11 O51 2.373 . S
Eu11 O53 2.432 . S
Eu11 O54 2.291 . S
Eu11 C75 2.787 . S
N12 C8 1.351 . S
N12 Eu11 2.562 1_655 S
N12 C14 1.325 . S
C13 C7 1.404 . S
C13 C15 1.366 . S
C13 H21 0.930 . S
C14 N12 1.325 . S
C14 C15 1.416 . S
C14 H20 0.929 . S
C15 C13 1.366 . S
C15 C14 1.416 . S
C15 H17 0.930 . S
H16 C5 0.930 1_545 S
H17 C15 0.930 . S
H18 C33 0.930 . S
H19 C40 0.930 . S
H20 C14 0.929 . S
H21 C13 0.930 . S
H22 C36 0.929 . S
H23 C3 0.931 . S
H24 C9 0.931 . S
H25 C10 0.931 . S
H26 C31 0.931 . S
H27 C6 0.929 . S
H28 C39 0.930 . S
N29 Eu0 2.600 . S
N29 C30 1.365 . S
N29 C33 1.319 . S
C30 N29 1.365 . S
C30 C32 1.405 . S
C30 C38 1.448 . S
C31 H26 0.931 . S
C31 C33 1.397 . S
C31 C34 1.367 . S
C32 C30 1.405 . S
C32 C34 1.403 . S
C32 C65 1.439 . S
C33 H18 0.930 . S
C33 N29 1.319 . S
C33 C31 1.397 . S
C34 C31 1.367 . S
C34 C32 1.403 . S
C34 H41 0.929 . S
N35 Eu0 2.562 . S
N35 C36 1.325 . S
N35 C38 1.351 . S
C36 H22 0.929 . S
C36 N35 1.325 . S
C36 C40 1.416 . S
C37 C38 1.430 . S
C37 C39 1.404 . S
C37 C66 1.387 . S
C38 C30 1.448 . S
C38 N35 1.351 . S
C38 C37 1.430 . S
C39 H28 0.930 . S
C39 C37 1.404 . S
C39 C40 1.366 . S
C40 H19 0.930 . S
C40 C36 1.416 . S
C40 C39 1.366 . S
H41 C34 0.929 . S
H42 C65 0.931 . S
H43 C66 0.931 . S
O44 Eu0 2.462 . S
O44 C64 1.252 . S
O45 Eu0 2.373 . S
O45 C56 1.249 . S
O46 Eu11 2.335 . S
O46 C56 1.264 . S
O47 Eu0 2.432 . S
O47 C64 1.268 . S
O48 Eu0 2.291 . S
O48 C63 1.255 . S
O49 Eu11 2.372 . S
O49 C63 1.257 . S
O50 Eu11 2.462 . S
O50 C75 1.252 . S
O51 Eu11 2.373 . S
O51 C67 1.249 1_455 S
O52 Eu0 2.335 . S
O52 C67 1.264 1_455 S
O53 Eu11 2.432 . S
O53 C75 1.268 . S
O54 Eu11 2.291 . S
O54 C74 1.255 . S
O55 Eu0 2.372 . S
O55 C74 1.257 . S
C56 O45 1.249 . S
C56 O46 1.264 . S
C57 C60 1.382 . S
C57 C62 1.390 . S
C57 C64 1.506 . S
C58 C59 1.398 1_455 S
C58 C62 1.392 . S
C59 C58 1.398 1_655 S
C59 C61 1.372 . S
C59 H76 0.931 . S
C60 C57 1.382 . S
C60 C61 1.390 1_455 S
C60 H77 0.931 . S
C61 C59 1.372 . S
C61 C60 1.390 1_655 S
C61 H78 0.929 . S
C62 C57 1.390 . S
C62 C58 1.392 . S
C62 H79 0.930 . S
C63 O48 1.255 . S
C63 O49 1.257 . S
C64 Eu0 2.787 . S
C64 O44 1.252 . S
C64 O47 1.268 . S
C64 C57 1.506 . S
C65 C32 1.439 . S
C65 H42 0.931 . S
C65 C66 1.374 . S
C66 C37 1.387 . S
C66 H43 0.931 . S
C66 C65 1.374 . S
C67 O51 1.249 1_655 S
C67 O52 1.264 1_655 S
C68 C71 1.382 . S
C68 C72 1.390 . S
C68 C75 1.506 . S
C69 C70 1.398 . S
C69 C72 1.392 . S
C70 C69 1.398 . S
C70 C73 1.372 . S
C70 H80 0.931 . S
C71 C68 1.382 . S
C71 C73 1.390 . S
C71 H81 0.931 . S
C72 C68 1.390 . S
C72 C69 1.392 . S
C72 H82 0.930 . S
C73 C70 1.372 . S
C73 C71 1.390 . S
C73 H83 0.929 . S
C74 O54 1.255 . S
C74 O55 1.257 . S
C75 Eu11 2.787 . S
C75 O50 1.252 . S
C75 O53 1.268 . S
C75 C68 1.506 . S
H76 C59 0.931 . S
H77 C60 0.931 . S
H78 C61 0.929 . S
H79 C62 0.930 . S
H80 C70 0.931 . S
H81 C71 0.931 . S
H82 C72 0.930 . S
H83 C73 0.929 . S
Eu84 N113 2.600 . S
Eu84 N119 2.562 . S
Eu84 O128 2.462 . S
Eu84 O129 2.373 . S
Eu84 O131 2.432 . S
Eu84 O132 2.291 1_565 S
Eu84 O136 2.335 . S
Eu84 O139 2.372 . S
Eu84 C148 2.787 . S
C85 N86 1.365 1_565 S
C85 C88 1.405 1_665 S
C85 C92 1.448 . S
N86 C85 1.365 1_545 S
N86 C89 1.317 1_655 S
N86 Eu95 2.600 1_545 S
C87 C89 1.409 . S
C87 C90 1.367 . S
C87 H107 0.931 . S
C88 C85 1.405 1_445 S
C88 C90 1.403 . S
C88 C94 1.439 1_545 S
C89 N86 1.317 1_455 S
C89 C87 1.409 . S
C89 H100 0.919 1_455 S
C90 C87 1.367 . S
C90 C88 1.403 . S
C90 H111 0.929 . S
C91 C92 1.430 . S
C91 C93 1.387 1_655 S
C91 C97 1.404 . S
C92 C85 1.448 . S
C92 C91 1.430 . S
C92 N96 1.351 . S
C93 C91 1.387 1_455 S
C93 C94 1.374 . S
C93 H108 0.931 . S
C94 C88 1.439 1_565 S
C94 C93 1.374 . S
C94 H109 0.931 . S
Eu95 N86 2.600 1_565 S
Eu95 N96 2.562 . S
Eu95 O130 2.335 . S
Eu95 O133 2.372 1_565 S
Eu95 O134 2.462 . S
Eu95 O135 2.373 . S
Eu95 O137 2.432 1_565 S
Eu95 O138 2.291 . S
Eu95 C159 2.787 . S
N96 C92 1.351 . S
N96 Eu95 2.562 . S
N96 C98 1.325 . S
C97 C91 1.404 . S
C97 C99 1.366 . S
C97 H105 0.930 . S
C98 N96 1.325 . S
C98 C99 1.416 . S
C98 H104 0.929 . S
C99 C97 1.366 . S
C99 C98 1.416 . S
C99 H101 0.930 . S
H100 C89 0.919 1_655 S
H101 C99 0.930 . S
H102 C117 0.930 . S
H103 C124 0.930 . S
H104 C98 0.929 . S
H105 C97 0.930 . S
H106 C120 0.929 . S
H107 C87 0.931 . S
H108 C93 0.931 . S
H109 C94 0.931 . S
H110 C115 0.931 . S
H111 C90 0.929 . S
H112 C123 0.930 . S
N113 Eu84 2.600 . S
N113 C114 1.365 . S
N113 C117 1.319 . S
C114 N113 1.365 . S
C114 C116 1.405 . S
C114 C122 1.448 . S
C115 H110 0.931 . S
C115 C117 1.397 . S
C115 C118 1.367 . S
C116 C114 1.405 . S
C116 C118 1.403 . S
C116 C149 1.439 . S
C117 H102 0.930 . S
C117 N113 1.319 . S
C117 C115 1.397 . S
C118 C115 1.367 . S
C118 C116 1.403 . S
C118 H125 0.929 . S
N119 Eu84 2.562 . S
N119 C120 1.325 1_565 S
N119 C122 1.351 . S
C120 H106 0.929 . S
C120 N119 1.325 1_545 S
C120 C124 1.416 . S
C121 C122 1.430 . S
C121 C123 1.404 1_565 S
C121 C150 1.387 . S
C122 C114 1.448 . S
C122 N119 1.351 . S
C122 C121 1.430 . S
C123 H112 0.930 . S
C123 C121 1.404 1_545 S
C123 C124 1.366 . S
C124 H103 0.930 . S
C124 C120 1.416 . S
C124 C123 1.366 . S
H125 C118 0.929 . S
H126 C149 0.931 . S
H127 C150 0.931 . S
O128 Eu84 2.462 . S
O128 C148 1.252 . S
O129 Eu84 2.373 . S
O129 C140 1.249 . S
O130 Eu95 2.335 . S
O130 C140 1.264 . S
O131 Eu84 2.432 . S
O131 C148 1.268 . S
O132 Eu84 2.291 1_545 S
O132 C147 1.255 . S
O133 Eu95 2.372 1_545 S
O133 C147 1.257 . S
O134 Eu95 2.462 . S
O134 C159 1.252 . S
O135 Eu95 2.373 . S
O135 C151 1.249 . S
O136 Eu84 2.335 . S
O136 C151 1.264 . S
O137 Eu95 2.432 1_545 S
O137 C159 1.268 1_545 S
O138 Eu95 2.291 . S
O138 C158 1.255 . S
O139 Eu84 2.372 . S
O139 C158 1.257 . S
C140 O129 1.249 . S
C140 O130 1.264 . S
C141 C144 1.382 . S
C141 C146 1.390 . S
C141 C148 1.506 . S
C142 C143 1.398 . S
C142 C146 1.392 . S
C143 C142 1.398 . S
C143 C145 1.372 . S
C143 H160 0.931 . S
C144 C141 1.382 . S
C144 C145 1.390 . S
C144 H161 0.931 . S
C145 C143 1.372 . S
C145 C144 1.390 . S
C145 H162 0.929 . S
C146 C141 1.390 . S
C146 C142 1.392 . S
C146 H163 0.930 . S
C147 O132 1.255 . S
C147 O133 1.257 . S
C148 Eu84 2.787 . S
C148 O128 1.252 . S
C148 O131 1.268 . S
C148 C141 1.506 . S
C149 C116 1.439 . S
C149 H126 0.931 . S
C149 C150 1.374 . S
C150 C121 1.387 . S
C150 H127 0.931 . S
C150 C149 1.374 . S
C151 O135 1.249 . S
C151 O136 1.264 . S
C152 C155 1.382 1_565 S
C152 C156 1.390 . S
C152 C159 1.506 . S
C153 C154 1.398 . S
C153 C156 1.392 . S
C154 C153 1.398 . S
C154 C157 1.372 1_565 S
C154 H164 0.931 . S
C155 C152 1.382 1_545 S
C155 C157 1.390 . S
C155 H165 0.931 . S
C156 C152 1.390 . S
C156 C153 1.392 . S
C156 H166 0.930 . S
C157 C154 1.372 1_545 S
C157 C155 1.390 . S
C157 H167 0.929 . S
C158 O138 1.255 . S
C158 O139 1.257 . S
C159 Eu95 2.787 . S
C159 O134 1.252 . S
C159 O137 1.268 1_565 S
C159 C152 1.506 . S
H160 C143 0.931 . S
H161 C144 0.931 . S
H162 C145 0.929 . S
H163 C146 0.930 . S
H164 C154 0.931 . S
H165 C155 0.931 . S
H166 C156 0.930 . S
H167 C157 0.929 . S
Eu168 N197 2.600 . S
Eu168 N203 2.562 . S
Eu168 O212 2.462 . S
Eu168 O213 2.373 . S
Eu168 O215 2.432 . S
Eu168 O216 2.291 1_455 S
Eu168 O220 2.335 . S
Eu168 O223 2.372 . S
Eu168 C232 2.787 . S
C169 N170 1.365 1_445 S
C169 C172 1.405 1_455 S
C169 C176 1.448 . S
N170 C169 1.365 1_665 S
N170 C173 1.319 . S
N170 Eu179 2.600 1_655 S
C171 C173 1.397 . S
C171 C174 1.367 1_565 S
C171 H191 0.931 . S
C172 C169 1.405 1_655 S
C172 C174 1.403 . S
C172 C178 1.439 1_655 S
C173 N170 1.319 . S
C173 C171 1.397 . S
C173 H184 0.930 . S
C174 C171 1.367 1_545 S
C174 C172 1.403 . S
C174 H195 0.929 . S
C175 C176 1.430 . S
C175 C177 1.387 . S
C175 C181 1.404 . S
C176 C169 1.448 . S
C176 C175 1.430 . S
C176 N180 1.351 . S
C177 C175 1.387 . S
C177 C178 1.374 . S
C177 H192 0.931 . S
C178 C172 1.439 1_455 S
C178 C177 1.374 . S
C178 H193 0.931 . S
Eu179 N170 2.600 1_455 S
Eu179 N180 2.562 1_565 S
Eu179 O214 2.335 . S
Eu179 O217 2.372 1_455 S
Eu179 O218 2.462 . S
Eu179 O219 2.373 . S
Eu179 O221 2.432 1_455 S
Eu179 O222 2.291 . S
Eu179 C243 2.787 . S
N180 C176 1.351 . S
N180 Eu179 2.562 1_545 S
N180 C182 1.325 . S
C181 C175 1.404 . S
C181 C183 1.366 . S
C181 H189 0.930 . S
C182 N180 1.325 . S
C182 C183 1.416 . S
C182 H188 0.929 . S
C183 C181 1.366 . S
C183 C182 1.416 . S
C183 H185 0.930 . S
H184 C173 0.930 . S
H185 C183 0.930 . S
H186 C201 0.930 . S
H187 C208 0.930 . S
H188 C182 0.929 . S
H189 C181 0.930 . S
H190 C204 0.929 . S
H191 C171 0.931 . S
H192 C177 0.931 . S
H193 C178 0.931 . S
H194 C199 0.931 . S
H195 C174 0.929 . S
H196 C207 0.930 . S
N197 Eu168 2.600 . S
N197 C198 1.365 . S
N197 C201 1.319 . S
C198 N197 1.365 . S
C198 C200 1.405 . S
C198 C206 1.448 . S
C199 H194 0.931 . S
C199 C201 1.397 . S
C199 C202 1.367 . S
C200 C198 1.405 . S
C200 C202 1.403 . S
C200 C233 1.439 . S
C201 H186 0.930 . S
C201 N197 1.319 . S
C201 C199 1.397 . S
C202 C199 1.367 . S
C202 C200 1.403 . S
C202 H209 0.929 . S
N203 Eu168 2.562 . S
N203 C204 1.325 1_455 S
N203 C206 1.351 . S
C204 H190 0.929 . S
C204 N203 1.325 1_655 S
C204 C208 1.416 . S
C205 C206 1.430 . S
C205 C207 1.404 1_455 S
C205 C234 1.387 . S
C206 C198 1.448 . S
C206 N203 1.351 . S
C206 C205 1.430 . S
C207 H196 0.930 . S
C207 C205 1.404 1_655 S
C207 C208 1.366 . S
C208 H187 0.930 . S
C208 C204 1.416 . S
C208 C207 1.366 . S
H209 C202 0.929 . S
H210 C233 0.931 . S
H211 C234 0.931 . S
O212 Eu168 2.462 . S
O212 C232 1.252 . S
O213 Eu168 2.373 . S
O213 C224 1.249 . S
O214 Eu179 2.335 . S
O214 C224 1.264 . S
O215 Eu168 2.432 . S
O215 C232 1.268 . S
O216 Eu168 2.291 1_655 S
O216 C231 1.255 . S
O217 Eu179 2.372 1_655 S
O217 C231 1.257 . S
O218 Eu179 2.462 . S
O218 C243 1.252 . S
O219 Eu179 2.373 . S
O219 C235 1.249 1_565 S
O220 Eu168 2.335 . S
O220 C235 1.264 1_565 S
O221 Eu179 2.432 1_655 S
O221 C243 1.268 1_655 S
O222 Eu179 2.291 . S
O222 C242 1.255 . S
O223 Eu168 2.372 . S
O223 C242 1.257 . S
C224 O213 1.249 . S
C224 O214 1.264 . S
C225 C228 1.382 . S
C225 C230 1.390 . S
C225 C232 1.506 . S
C226 C227 1.398 1_565 S
C226 C230 1.392 . S
C227 C226 1.398 1_545 S
C227 C229 1.372 . S
C227 H244 0.931 . S
C228 C225 1.382 . S
C228 C229 1.390 1_565 S
C228 H245 0.931 . S
C229 C227 1.372 . S
C229 C228 1.390 1_545 S
C229 H246 0.929 . S
C230 C225 1.390 . S
C230 C226 1.392 . S
C230 H247 0.930 . S
C231 O216 1.255 . S
C231 O217 1.257 . S
C232 Eu168 2.787 . S
C232 O212 1.252 . S
C232 O215 1.268 . S
C232 C225 1.506 . S
C233 C200 1.439 . S
C233 H210 0.931 . S
C233 C234 1.374 . S
C234 C205 1.387 . S
C234 H211 0.931 . S
C234 C233 1.374 . S
C235 O219 1.249 1_545 S
C235 O220 1.264 1_545 S
C236 C239 1.382 1_455 S
C236 C240 1.390 . S
C236 C243 1.506 . S
C237 C238 1.398 . S
C237 C240 1.392 . S
C238 C237 1.398 . S
C238 C241 1.372 1_455 S
C238 H248 0.931 . S
C239 C236 1.382 1_655 S
C239 C241 1.390 . S
C239 H249 0.931 . S
C240 C236 1.390 . S
C240 C237 1.392 . S
C240 H250 0.930 . S
C241 C238 1.372 1_655 S
C241 C239 1.390 . S
C241 H251 0.929 . S
C242 O222 1.255 . S
C242 O223 1.257 . S
C243 Eu179 2.787 . S
C243 O218 1.252 . S
C243 O221 1.268 1_455 S
C243 C236 1.506 . S
H244 C227 0.931 . S
H245 C228 0.931 . S
H246 C229 0.929 . S
H247 C230 0.930 . S
H248 C238 0.931 . S
H249 C239 0.931 . S
H250 C240 0.930 . S
H251 C241 0.929 . S
Eu252 N281 2.600 . S
Eu252 N287 2.562 . S
Eu252 O296 2.462 . S
Eu252 O297 2.373 . S
Eu252 O299 2.432 . S
Eu252 O300 2.291 . S
Eu252 O304 2.335 . S
Eu252 O307 2.372 . S
Eu252 C316 2.787 . S
C253 N254 1.365 1_565 S
C253 C256 1.405 1_455 S
C253 C260 1.448 . S
N254 C253 1.365 1_545 S
N254 C257 1.319 . S
N254 Eu263 2.600 . S
C255 C257 1.397 1_655 S
C255 C258 1.367 1_545 S
C255 H275 0.931 . S
C256 C253 1.405 1_655 S
C256 C258 1.403 . S
C256 C262 1.439 . S
C257 N254 1.319 . S
C257 C255 1.397 1_455 S
C257 H268 0.930 . S
C258 C255 1.367 1_565 S
C258 C256 1.403 . S
C258 H279 0.929 . S
C259 C260 1.430 . S
C259 C261 1.387 1_455 S
C259 C265 1.404 . S
C260 C253 1.448 . S
C260 C259 1.430 . S
C260 N264 1.351 1_565 S
C261 C259 1.387 1_655 S
C261 C262 1.374 . S
C261 H276 0.931 . S
C262 C256 1.439 . S
C262 C261 1.374 . S
C262 H277 0.931 . S
Eu263 N254 2.600 . S
Eu263 N264 2.562 . S
Eu263 O298 2.335 . S
Eu263 O301 2.372 . S
Eu263 O302 2.462 . S
Eu263 O303 2.373 . S
Eu263 O305 2.432 . S
Eu263 O306 2.291 . S
Eu263 C327 2.787 . S
N264 C260 1.351 1_545 S
N264 Eu263 2.562 . S
N264 C266 1.325 1_545 S
C265 C259 1.404 . S
C265 C267 1.366 . S
C265 H273 0.930 . S
C266 N264 1.325 1_565 S
C266 C267 1.416 . S
C266 H272 0.929 . S
C267 C265 1.366 . S
C267 C266 1.416 . S
C267 H269 0.930 . S
H268 C257 0.930 . S
H269 C267 0.930 . S
H270 C285 0.930 . S
H271 C292 0.930 . S
H272 C266 0.929 . S
H273 C265 0.930 . S
H274 C288 0.929 . S
H275 C255 0.931 . S
H276 C261 0.931 . S
H277 C262 0.931 . S
H278 C283 0.931 . S
H279 C258 0.929 . S
H280 C291 0.930 . S
N281 Eu252 2.600 . S
N281 C282 1.365 . S
N281 C285 1.319 . S
C282 N281 1.365 . S
C282 C284 1.405 . S
C282 C290 1.448 . S
C283 H278 0.931 . S
C283 C285 1.397 . S
C283 C286 1.367 . S
C284 C282 1.405 . S
C284 C286 1.403 . S
C284 C317 1.439 . S
C285 H270 0.930 . S
C285 N281 1.319 . S
C285 C283 1.397 . S
C286 C283 1.367 . S
C286 C284 1.403 . S
C286 H293 0.929 . S
N287 Eu252 2.562 . S
N287 C288 1.325 . S
N287 C290 1.351 . S
C288 H274 0.929 . S
C288 N287 1.325 . S
C288 C292 1.416 . S
C289 C290 1.430 . S
C289 C291 1.404 . S
C289 C318 1.387 . S
C290 C282 1.448 . S
C290 N287 1.351 . S
C290 C289 1.430 . S
C291 H280 0.930 . S
C291 C289 1.404 . S
C291 C292 1.366 . S
C292 H271 0.930 . S
C292 C288 1.416 . S
C292 C291 1.366 . S
H293 C286 0.929 . S
H294 C317 0.931 . S
H295 C318 0.931 . S
O296 Eu252 2.462 . S
O296 C316 1.252 . S
O297 Eu252 2.373 . S
O297 C308 1.249 . S
O298 Eu263 2.335 . S
O298 C308 1.264 . S
O299 Eu252 2.432 . S
O299 C316 1.268 . S
O300 Eu252 2.291 . S
O300 C315 1.255 . S
O301 Eu263 2.372 . S
O301 C315 1.257 . S
O302 Eu263 2.462 . S
O302 C327 1.252 . S
O303 Eu263 2.373 . S
O303 C319 1.249 1_545 S
O304 Eu252 2.335 . S
O304 C319 1.264 1_545 S
O305 Eu263 2.432 . S
O305 C327 1.268 . S
O306 Eu263 2.291 . S
O306 C326 1.255 . S
O307 Eu252 2.372 . S
O307 C326 1.257 . S
C308 O297 1.249 . S
C308 O298 1.264 . S
C309 C312 1.382 . S
C309 C314 1.390 . S
C309 C316 1.506 . S
C310 C311 1.398 1_545 S
C310 C314 1.392 . S
C311 C310 1.398 1_565 S
C311 C313 1.372 . S
C311 H328 0.931 . S
C312 C309 1.382 . S
C312 C313 1.390 1_545 S
C312 H329 0.931 . S
C313 C311 1.372 . S
C313 C312 1.390 1_565 S
C313 H330 0.929 . S
C314 C309 1.390 . S
C314 C310 1.392 . S
C314 H331 0.930 . S
C315 O300 1.255 . S
C315 O301 1.257 . S
C316 Eu252 2.787 . S
C316 O296 1.252 . S
C316 O299 1.268 . S
C316 C309 1.506 . S
C317 C284 1.439 . S
C317 H294 0.931 . S
C317 C318 1.374 . S
C318 C289 1.387 . S
C318 H295 0.931 . S
C318 C317 1.374 . S
C319 O303 1.249 1_565 S
C319 O304 1.264 1_565 S
C320 C323 1.382 . S
C320 C324 1.390 . S
C320 C327 1.506 . S
C321 C322 1.398 . S
C321 C324 1.392 . S
C322 C321 1.398 . S
C322 C325 1.372 . S
C322 H332 0.931 . S
C323 C320 1.382 . S
C323 C325 1.390 . S
C323 H333 0.931 . S
C324 C320 1.390 . S
C324 C321 1.392 . S
C324 H334 0.930 . S
C325 C322 1.372 . S
C325 C323 1.390 . S
C325 H335 0.929 . S
C326 O306 1.255 . S
C326 O307 1.257 . S
C327 Eu263 2.787 . S
C327 O302 1.252 . S
C327 O305 1.268 . S
C327 C320 1.506 . S
H328 C311 0.931 . S
H329 C312 0.931 . S
H330 C313 0.929 . S
H331 C314 0.930 . S
H332 C322 0.931 . S
H333 C323 0.931 . S
H334 C324 0.930 . S
H335 C325 0.929 . S
Eu336 N365 2.600 . S
Eu336 N371 2.562 . S
Eu336 O380 2.462 . S
Eu336 O381 2.373 . S
Eu336 O383 2.432 . S
Eu336 O384 2.291 1_545 S
Eu336 O388 2.335 . S
Eu336 O391 2.372 . S
Eu336 C400 2.787 . S
C337 N338 1.365 1_445 S
C337 C340 1.405 1_545 S
C337 C344 1.448 . S
N338 C337 1.365 1_665 S
N338 C341 1.319 . S
N338 Eu347 2.600 1_565 S
C339 C341 1.397 . S
C339 C342 1.367 1_655 S
C339 H359 0.931 . S
C340 C337 1.405 1_565 S
C340 C342 1.403 . S
C340 C346 1.439 1_565 S
C341 N338 1.319 . S
C341 C339 1.397 . S
C341 H352 0.930 . S
C342 C339 1.367 1_455 S
C342 C340 1.403 . S
C342 H363 0.929 . S
C343 C344 1.430 . S
C343 C345 1.387 . S
C343 C349 1.404 . S
C344 C337 1.448 . S
C344 C343 1.430 . S
C344 N348 1.351 1_455 S
C345 C343 1.387 . S
C345 C346 1.374 . S
C345 H360 0.931 . S
C346 C340 1.439 1_545 S
C346 C345 1.374 . S
C346 H361 0.931 . S
Eu347 N338 2.600 1_545 S
Eu347 N348 2.562 . S
Eu347 O382 2.335 . S
Eu347 O385 2.372 1_545 S
Eu347 O386 2.462 . S
Eu347 O387 2.373 . S
Eu347 O389 2.432 1_545 S
Eu347 O390 2.291 . S
Eu347 C411 2.787 . S
N348 C344 1.351 1_655 S
N348 Eu347 2.562 . S
N348 C350 1.325 1_655 S
C349 C343 1.404 . S
C349 C351 1.366 . S
C349 H357 0.930 . S
C350 N348 1.325 1_455 S
C350 C351 1.416 . S
C350 H356 0.929 . S
C351 C349 1.366 . S
C351 C350 1.416 . S
C351 H353 0.930 . S
H352 C341 0.930 . S
H353 C351 0.930 . S
H354 C369 0.930 . S
H355 C376 0.930 . S
H356 C350 0.929 . S
H357 C349 0.930 . S
H358 C372 0.929 . S
H359 C339 0.931 . S
H360 C345 0.931 . S
H361 C346 0.931 . S
H362 C367 0.931 . S
H363 C342 0.929 . S
H364 C375 0.930 . S
N365 Eu336 2.600 . S
N365 C366 1.365 . S
N365 C369 1.319 . S
C366 N365 1.365 . S
C366 C368 1.405 . S
C366 C374 1.448 . S
C367 H362 0.931 . S
C367 C369 1.397 . S
C367 C370 1.367 . S
C368 C366 1.405 . S
C368 C370 1.403 . S
C368 C401 1.439 . S
C369 H354 0.930 . S
C369 N365 1.319 . S
C369 C367 1.397 . S
C370 C367 1.367 . S
C370 C368 1.403 . S
C370 H377 0.929 . S
N371 Eu336 2.562 . S
N371 C372 1.325 1_545 S
N371 C374 1.351 . S
C372 H358 0.929 . S
C372 N371 1.325 1_565 S
C372 C376 1.416 . S
C373 C374 1.430 . S
C373 C375 1.404 1_545 S
C373 C402 1.387 . S
C374 C366 1.448 . S
C374 N371 1.351 . S
C374 C373 1.430 . S
C375 H364 0.930 . S
C375 C373 1.404 1_565 S
C375 C376 1.366 . S
C376 H355 0.930 . S
C376 C372 1.416 . S
C376 C375 1.366 . S
H377 C370 0.929 . S
H378 C401 0.931 . S
H379 C402 0.931 . S
O380 Eu336 2.462 . S
O380 C400 1.252 . S
O381 Eu336 2.373 . S
O381 C392 1.249 . S
O382 Eu347 2.335 . S
O382 C392 1.264 . S
O383 Eu336 2.432 . S
O383 C400 1.268 . S
O384 Eu336 2.291 1_565 S
O384 C399 1.255 . S
O385 Eu347 2.372 1_565 S
O385 C399 1.257 . S
O386 Eu347 2.462 . S
O386 C411 1.252 . S
O387 Eu347 2.373 . S
O387 C403 1.249 1_655 S
O388 Eu336 2.335 . S
O388 C403 1.264 1_655 S
O389 Eu347 2.432 1_565 S
O389 C411 1.268 1_565 S
O390 Eu347 2.291 . S
O390 C410 1.255 . S
O391 Eu336 2.372 . S
O391 C410 1.257 . S
C392 O381 1.249 . S
C392 O382 1.264 . S
C393 C396 1.382 . S
C393 C398 1.390 . S
C393 C400 1.506 . S
C394 C395 1.398 1_655 S
C394 C398 1.392 . S
C395 C394 1.398 1_455 S
C395 C397 1.372 . S
C395 H412 0.931 . S
C396 C393 1.382 . S
C396 C397 1.390 1_655 S
C396 H413 0.931 . S
C397 C395 1.372 . S
C397 C396 1.390 1_455 S
C397 H414 0.929 . S
C398 C393 1.390 . S
C398 C394 1.392 . S
C398 H415 0.930 . S
C399 O384 1.255 . S
C399 O385 1.257 . S
C400 Eu336 2.787 . S
C400 O380 1.252 . S
C400 O383 1.268 . S
C400 C393 1.506 . S
C401 C368 1.439 . S
C401 H378 0.931 . S
C401 C402 1.374 . S
C402 C373 1.387 . S
C402 H379 0.931 . S
C402 C401 1.374 . S
C403 O387 1.249 1_455 S
C403 O388 1.264 1_455 S
C404 C407 1.382 1_545 S
C404 C408 1.390 . S
C404 C411 1.506 . S
C405 C406 1.398 . S
C405 C408 1.392 . S
C406 C405 1.398 . S
C406 C409 1.372 1_545 S
C406 H416 0.931 . S
C407 C404 1.382 1_565 S
C407 C409 1.390 . S
C407 H417 0.931 . S
C408 C404 1.390 . S
C408 C405 1.392 . S
C408 H418 0.930 . S
C409 C406 1.372 1_565 S
C409 C407 1.390 . S
C409 H419 0.929 . S
C410 O390 1.255 . S
C410 O391 1.257 . S
C411 Eu347 2.787 . S
C411 O386 1.252 . S
C411 O389 1.268 1_545 S
C411 C404 1.506 . S
H412 C395 0.931 . S
H413 C396 0.931 . S
H414 C397 0.929 . S
H415 C398 0.930 . S
H416 C406 0.931 . S
H417 C407 0.931 . S
H418 C408 0.930 . S
H419 C409 0.929 . S
Eu420 N449 2.600 . S
Eu420 N455 2.562 . S
Eu420 O464 2.462 . S
Eu420 O465 2.373 . S
Eu420 O467 2.432 . S
Eu420 O468 2.291 1_655 S
Eu420 O472 2.335 . S
Eu420 O475 2.372 . S
Eu420 C484 2.787 . S
C421 N422 1.365 1_655 S
C421 C424 1.405 1_665 S
C421 C428 1.448 . S
N422 C421 1.365 1_455 S
N422 C425 1.319 . S
N422 Eu431 2.600 1_455 S
C423 C425 1.397 1_545 S
C423 C426 1.367 . S
C423 H443 0.931 . S
C424 C421 1.405 1_445 S
C424 C426 1.403 . S
C424 C430 1.439 1_455 S
C425 N422 1.319 . S
C425 C423 1.397 1_565 S
C425 H436 0.930 . S
C426 C423 1.367 . S
C426 C424 1.403 . S
C426 H447 0.929 . S
C427 C428 1.430 . S
C427 C429 1.387 1_565 S
C427 C433 1.404 . S
C428 C421 1.448 . S
C428 C427 1.430 . S
C428 N432 1.351 . S
C429 C427 1.387 1_545 S
C429 C430 1.374 . S
C429 H444 0.931 . S
C430 C424 1.439 1_655 S
C430 C429 1.374 . S
C430 H445 0.931 . S
Eu431 N422 2.600 1_655 S
Eu431 N432 2.562 . S
Eu431 O466 2.335 . S
Eu431 O469 2.372 1_655 S
Eu431 O470 2.462 . S
Eu431 O471 2.373 . S
Eu431 O473 2.432 1_655 S
Eu431 O474 2.291 . S
Eu431 C495 2.787 . S
N432 C428 1.351 . S
N432 Eu431 2.562 . S
N432 C434 1.325 . S
C433 C427 1.404 . S
C433 C435 1.366 . S
C433 H441 0.930 . S
C434 N432 1.325 . S
C434 C435 1.416 . S
C434 H440 0.929 . S
C435 C433 1.366 . S
C435 C434 1.416 . S
C435 H437 0.930 . S
H436 C425 0.930 . S
H437 C435 0.930 . S
H438 C453 0.930 . S
H439 C460 0.930 . S
H440 C434 0.929 . S
H441 C433 0.930 . S
H442 C456 0.929 . S
H443 C423 0.931 . S
H444 C429 0.931 . S
H445 C430 0.931 . S
H446 C451 0.931 . S
H447 C426 0.929 . S
H448 C459 0.930 . S
N449 Eu420 2.600 . S
N449 C450 1.365 . S
N449 C453 1.319 . S
C450 N449 1.365 . S
C450 C452 1.405 . S
C450 C458 1.448 . S
C451 H446 0.931 . S
C451 C453 1.397 . S
C451 C454 1.367 . S
C452 C450 1.405 . S
C452 C454 1.403 . S
C452 C485 1.439 . S
C453 H438 0.930 . S
C453 N449 1.319 . S
C453 C451 1.397 . S
C454 C451 1.367 . S
C454 C452 1.403 . S
C454 H461 0.929 . S
N455 Eu420 2.562 . S
N455 C456 1.325 1_655 S
N455 C458 1.351 . S
C456 H442 0.929 . S
C456 N455 1.325 1_455 S
C456 C460 1.416 . S
C457 C458 1.430 . S
C457 C459 1.404 1_655 S
C457 C486 1.387 . S
C458 C450 1.448 . S
C458 N455 1.351 . S
C458 C457 1.430 . S
C459 H448 0.930 . S
C459 C457 1.404 1_455 S
C459 C460 1.366 . S
C460 H439 0.930 . S
C460 C456 1.416 . S
C460 C459 1.366 . S
H461 C454 0.929 . S
H462 C485 0.931 . S
H463 C486 0.931 . S
O464 Eu420 2.462 . S
O464 C484 1.252 . S
O465 Eu420 2.373 . S
O465 C476 1.249 . S
O466 Eu431 2.335 . S
O466 C476 1.264 . S
O467 Eu420 2.432 . S
O467 C484 1.268 . S
O468 Eu420 2.291 1_455 S
O468 C483 1.255 . S
O469 Eu431 2.372 1_455 S
O469 C483 1.257 . S
O470 Eu431 2.462 . S
O470 C495 1.252 . S
O471 Eu431 2.373 . S
O471 C487 1.249 . S
O472 Eu420 2.335 . S
O472 C487 1.264 . S
O473 Eu431 2.432 1_455 S
O473 C495 1.268 1_455 S
O474 Eu431 2.291 . S
O474 C494 1.255 . S
O475 Eu420 2.372 . S
O475 C494 1.257 . S
C476 O465 1.249 . S
C476 O466 1.264 . S
C477 C480 1.382 . S
C477 C482 1.390 . S
C477 C484 1.506 . S
C478 C479 1.398 . S
C478 C482 1.392 . S
C479 C478 1.398 . S
C479 C481 1.372 . S
C479 H496 0.931 . S
C480 C477 1.382 . S
C480 C481 1.390 . S
C480 H497 0.931 . S
C481 C479 1.372 . S
C481 C480 1.390 . S
C481 H498 0.929 . S
C482 C477 1.390 . S
C482 C478 1.392 . S
C482 H499 0.930 . S
C483 O468 1.255 . S
C483 O469 1.257 . S
C484 Eu420 2.787 . S
C484 O464 1.252 . S
C484 O467 1.268 . S
C484 C477 1.506 . S
C485 C452 1.439 . S
C485 H462 0.931 . S
C485 C486 1.374 . S
C486 C457 1.387 . S
C486 H463 0.931 . S
C486 C485 1.374 . S
C487 O471 1.249 . S
C487 O472 1.264 . S
C488 C491 1.382 1_655 S
C488 C492 1.390 . S
C488 C495 1.506 . S
C489 C490 1.398 . S
C489 C492 1.392 . S
C490 C489 1.398 . S
C490 C493 1.372 1_655 S
C490 H500 0.931 . S
C491 C488 1.382 1_455 S
C491 C493 1.390 . S
C491 H501 0.931 . S
C492 C488 1.390 . S
C492 C489 1.392 . S
C492 H502 0.930 . S
C493 C490 1.372 1_455 S
C493 C491 1.390 . S
C493 H503 0.929 . S
C494 O474 1.255 . S
C494 O475 1.257 . S
C495 Eu431 2.787 . S
C495 O470 1.252 . S
C495 O473 1.268 1_655 S
C495 C488 1.506 . S
H496 C479 0.931 . S
H497 C480 0.931 . S
H498 C481 0.929 . S
H499 C482 0.930 . S
H500 C490 0.931 . S
H501 C491 0.931 . S
H502 C492 0.930 . S
H503 C493 0.929 . S
Eu504 N533 2.600 . S
Eu504 N539 2.562 1_655 S
Eu504 O548 2.462 . S
Eu504 O549 2.373 . S
Eu504 O551 2.432 . S
Eu504 O552 2.291 . S
Eu504 O556 2.335 . S
Eu504 O559 2.372 . S
Eu504 C568 2.787 . S
C505 N506 1.365 . S
C505 C508 1.405 . S
C505 C512 1.448 . S
N506 C505 1.365 . S
N506 C509 1.319 . S
N506 Eu515 2.600 . S
C507 C509 1.397 . S
C507 C510 1.367 . S
C507 H527 0.931 . S
C508 C505 1.405 . S
C508 C510 1.403 . S
C508 C514 1.439 . S
C509 N506 1.319 . S
C509 C507 1.397 . S
C509 H520 0.930 . S
C510 C507 1.367 . S
C510 C508 1.403 . S
C510 H531 0.929 . S
C511 C512 1.430 . S
C511 C513 1.387 . S
C511 C517 1.404 . S
C512 C505 1.448 . S
C512 C511 1.430 . S
C512 N516 1.351 . S
C513 C511 1.387 . S
C513 C514 1.374 . S
C513 H528 0.931 . S
C514 C508 1.439 . S
C514 C513 1.374 . S
C514 H529 0.931 . S
Eu515 N506 2.600 . S
Eu515 N516 2.562 . S
Eu515 O550 2.335 . S
Eu515 O553 2.372 . S
Eu515 O554 2.462 . S
Eu515 O555 2.373 . S
Eu515 O557 2.432 . S
Eu515 O558 2.291 . S
Eu515 C579 2.787 . S
N516 C512 1.351 . S
N516 Eu515 2.562 . S
N516 C518 1.325 . S
C517 C511 1.404 . S
C517 C519 1.366 . S
C517 H525 0.930 . S
C518 N516 1.325 . S
C518 C519 1.416 . S
C518 H524 0.929 . S
C519 C517 1.366 . S
C519 C518 1.416 . S
C519 H521 0.930 . S
H520 C509 0.930 . S
H521 C519 0.930 . S
H522 C537 0.930 1_565 S
H523 C544 0.930 . S
H524 C518 0.929 . S
H525 C517 0.930 . S
H526 C540 0.929 . S
H527 C507 0.931 . S
H528 C513 0.931 . S
H529 C514 0.931 . S
H530 C535 0.931 . S
H531 C510 0.929 . S
H532 C543 0.930 . S
N533 Eu504 2.600 . S
N533 C534 1.365 1_655 S
N533 C537 1.308 1_565 S
C534 N533 1.365 1_455 S
C534 C536 1.405 1_565 S
C534 C542 1.448 . S
C535 H530 0.931 . S
C535 C537 1.407 . S
C535 C538 1.367 1_655 S
C536 C534 1.405 1_545 S
C536 C538 1.403 . S
C536 C569 1.439 . S
C537 H522 0.930 1_545 S
C537 N533 1.308 1_545 S
C537 C535 1.407 . S
C538 C535 1.367 1_455 S
C538 C536 1.403 . S
C538 H545 0.929 . S
N539 Eu504 2.562 1_455 S
N539 C540 1.325 . S
N539 C542 1.351 . S
C540 H526 0.929 . S
C540 N539 1.325 . S
C540 C544 1.416 . S
C541 C542 1.430 . S
C541 C543 1.404 . S
C541 C570 1.387 1_565 S
C542 C534 1.448 . S
C542 N539 1.351 . S
C542 C541 1.430 . S
C543 H532 0.930 . S
C543 C541 1.404 . S
C543 C544 1.366 . S
C544 H523 0.930 . S
C544 C540 1.416 . S
C544 C543 1.366 . S
H545 C538 0.929 . S
H546 C569 0.931 . S
H547 C570 0.931 . S
O548 Eu504 2.462 . S
O548 C568 1.252 . S
O549 Eu504 2.373 . S
O549 C560 1.249 1_655 S
O550 Eu515 2.335 . S
O550 C560 1.264 1_655 S
O551 Eu504 2.432 . S
O551 C568 1.268 . S
O552 Eu504 2.291 . S
O552 C567 1.255 . S
O553 Eu515 2.372 . S
O553 C567 1.257 . S
O554 Eu515 2.462 . S
O554 C579 1.252 . S
O555 Eu515 2.373 . S
O555 C571 1.249 . S
O556 Eu504 2.335 . S
O556 C571 1.264 . S
O557 Eu515 2.432 . S
O557 C579 1.268 . S
O558 Eu515 2.291 . S
O558 C578 1.255 . S
O559 Eu504 2.372 . S
O559 C578 1.257 . S
C560 O549 1.249 1_455 S
C560 O550 1.264 1_455 S
C561 C564 1.382 . S
C561 C566 1.390 . S
C561 C568 1.506 . S
C562 C563 1.398 . S
C562 C566 1.392 . S
C563 C562 1.398 . S
C563 C565 1.372 . S
C563 H580 0.931 . S
C564 C561 1.382 . S
C564 C565 1.390 . S
C564 H581 0.931 . S
C565 C563 1.372 . S
C565 C564 1.390 . S
C565 H582 0.929 . S
C566 C561 1.390 . S
C566 C562 1.392 . S
C566 H583 0.930 . S
C567 O552 1.255 . S
C567 O553 1.257 . S
C568 Eu504 2.787 . S
C568 O548 1.252 . S
C568 O551 1.268 . S
C568 C561 1.506 . S
C569 C536 1.439 . S
C569 H546 0.931 . S
C569 C570 1.374 . S
C570 C541 1.387 1_545 S
C570 H547 0.931 . S
C570 C569 1.374 . S
C571 O555 1.249 . S
C571 O556 1.264 . S
C572 C575 1.382 . S
C572 C576 1.390 . S
C572 C579 1.506 . S
C573 C574 1.398 1_655 S
C573 C576 1.392 . S
C574 C573 1.398 1_455 S
C574 C577 1.372 . S
C574 H584 0.931 . S
C575 C572 1.382 . S
C575 C577 1.390 1_655 S
C575 H585 0.931 . S
C576 C572 1.390 . S
C576 C573 1.392 . S
C576 H586 0.930 . S
C577 C574 1.372 . S
C577 C575 1.390 1_455 S
C577 H587 0.929 . S
C578 O558 1.255 . S
C578 O559 1.257 . S
C579 Eu515 2.787 . S
C579 O554 1.252 . S
C579 O557 1.268 . S
C579 C572 1.506 . S
H580 C563 0.931 . S
H581 C564 0.931 . S
H582 C565 0.929 . S
H583 C566 0.930 . S
H584 C574 0.931 . S
H585 C575 0.931 . S
H586 C576 0.930 . S
H587 C577 0.929 . S
Eu588 N617 2.600 1_545 S
Eu588 N623 2.562 . S
Eu588 O632 2.462 . S
Eu588 O633 2.373 . S
Eu588 O635 2.432 1_545 S
Eu588 O636 2.291 . S
Eu588 O640 2.335 . S
Eu588 O643 2.372 1_545 S
Eu588 C652 2.787 . S
C589 N590 1.365 . S
C589 C592 1.405 . S
C589 C596 1.448 . S
N590 C589 1.365 . S
N590 C593 1.319 . S
N590 Eu599 2.600 . S
C591 C593 1.397 . S
C591 C594 1.367 . S
C591 H611 0.931 . S
C592 C589 1.405 . S
C592 C594 1.403 . S
C592 C598 1.439 . S
C593 N590 1.319 . S
C593 C591 1.397 . S
C593 H604 0.930 . S
C594 C591 1.367 . S
C594 C592 1.403 . S
C594 H615 0.929 . S
C595 C596 1.430 . S
C595 C597 1.387 . S
C595 C601 1.404 1_545 S
C596 C589 1.448 . S
C596 C595 1.430 . S
C596 N600 1.351 . S
C597 C595 1.387 . S
C597 C598 1.374 . S
C597 H612 0.931 . S
C598 C592 1.439 . S
C598 C597 1.374 . S
C598 H613 0.931 . S
Eu599 N590 2.600 . S
Eu599 N600 2.562 . S
Eu599 O634 2.335 . S
Eu599 O637 2.372 . S
Eu599 O638 2.462 . S
Eu599 O639 2.373 . S
Eu599 O641 2.432 . S
Eu599 O642 2.291 1_545 S
Eu599 C663 2.787 . S
N600 C596 1.351 . S
N600 Eu599 2.562 . S
N600 C602 1.325 1_545 S
C601 C595 1.404 1_565 S
C601 C603 1.366 . S
C601 H609 0.930 . S
C602 N600 1.325 1_565 S
C602 C603 1.416 . S
C602 H608 0.929 . S
C603 C601 1.366 . S
C603 C602 1.416 . S
C603 H605 0.930 . S
H604 C593 0.930 . S
H605 C603 0.930 . S
H606 C621 0.919 1_455 S
H607 C628 0.930 . S
H608 C602 0.929 . S
H609 C601 0.930 . S
H610 C624 0.929 . S
H611 C591 0.931 . S
H612 C597 0.931 . S
H613 C598 0.931 . S
H614 C619 0.931 . S
H615 C594 0.929 . S
H616 C627 0.930 . S
N617 Eu588 2.600 1_565 S
N617 C618 1.365 1_565 S
N617 C621 1.317 1_455 S
C618 N617 1.365 1_545 S
C618 C620 1.405 1_445 S
C618 C626 1.448 . S
C619 H614 0.931 . S
C619 C621 1.409 . S
C619 C622 1.367 . S
C620 C618 1.405 1_665 S
C620 C622 1.403 . S
C620 C653 1.439 1_565 S
C621 H606 0.919 1_655 S
C621 N617 1.317 1_655 S
C621 C619 1.409 . S
C622 C619 1.367 . S
C622 C620 1.403 . S
C622 H629 0.929 . S
N623 Eu588 2.562 . S
N623 C624 1.325 . S
N623 C626 1.351 . S
C624 H610 0.929 . S
C624 N623 1.325 . S
C624 C628 1.416 . S
C625 C626 1.430 . S
C625 C627 1.404 . S
C625 C654 1.387 1_455 S
C626 C618 1.448 . S
C626 N623 1.351 . S
C626 C625 1.430 . S
C627 H616 0.930 . S
C627 C625 1.404 . S
C627 C628 1.366 . S
C628 H607 0.930 . S
C628 C624 1.416 . S
C628 C627 1.366 . S
H629 C622 0.929 . S
H630 C653 0.931 . S
H631 C654 0.931 . S
O632 Eu588 2.462 . S
O632 C652 1.252 . S
O633 Eu588 2.373 . S
O633 C644 1.249 . S
O634 Eu599 2.335 . S
O634 C644 1.264 . S
O635 Eu588 2.432 1_565 S
O635 C652 1.268 1_565 S
O636 Eu588 2.291 . S
O636 C651 1.255 . S
O637 Eu599 2.372 . S
O637 C651 1.257 . S
O638 Eu599 2.462 . S
O638 C663 1.252 . S
O639 Eu599 2.373 . S
O639 C655 1.249 . S
O640 Eu588 2.335 . S
O640 C655 1.264 . S
O641 Eu599 2.432 . S
O641 C663 1.268 . S
O642 Eu599 2.291 1_565 S
O642 C662 1.255 . S
O643 Eu588 2.372 1_565 S
O643 C662 1.257 . S
C644 O633 1.249 . S
C644 O634 1.264 . S
C645 C648 1.382 1_545 S
C645 C650 1.390 . S
C645 C652 1.506 . S
C646 C647 1.398 . S
C646 C650 1.392 . S
C647 C646 1.398 . S
C647 C649 1.372 1_545 S
C647 H664 0.931 . S
C648 C645 1.382 1_565 S
C648 C649 1.390 . S
C648 H665 0.931 . S
C649 C647 1.372 1_565 S
C649 C648 1.390 . S
C649 H666 0.929 . S
C650 C645 1.390 . S
C650 C646 1.392 . S
C650 H667 0.930 . S
C651 O636 1.255 . S
C651 O637 1.257 . S
C652 Eu588 2.787 . S
C652 O632 1.252 . S
C652 O635 1.268 1_545 S
C652 C645 1.506 . S
C653 C620 1.439 1_545 S
C653 H630 0.931 . S
C653 C654 1.374 . S
C654 C625 1.387 1_655 S
C654 H631 0.931 . S
C654 C653 1.374 . S
C655 O639 1.249 . S
C655 O640 1.264 . S
C656 C659 1.382 . S
C656 C660 1.390 . S
C656 C663 1.506 . S
C657 C658 1.398 . S
C657 C660 1.392 . S
C658 C657 1.398 . S
C658 C661 1.372 . S
C658 H668 0.931 . S
C659 C656 1.382 . S
C659 C661 1.390 . S
C659 H669 0.931 . S
C660 C656 1.390 . S
C660 C657 1.392 . S
C660 H670 0.930 . S
C661 C658 1.372 . S
C661 C659 1.390 . S
C661 H671 0.929 . S
C662 O642 1.255 . S
C662 O643 1.257 . S
C663 Eu599 2.787 . S
C663 O638 1.252 . S
C663 O641 1.268 . S
C663 C656 1.506 . S
H664 C647 0.931 . S
H665 C648 0.931 . S
H666 C649 0.929 . S
H667 C650 0.930 . S
H668 C658 0.931 . S
H669 C659 0.931 . S
H670 C660 0.930 . S
H671 C661 0.929 . S
Eu672 N701 2.600 1_655 S
Eu672 N707 2.562 1_545 S
Eu672 O716 2.462 . S
Eu672 O717 2.373 . S
Eu672 O719 2.432 1_655 S
Eu672 O720 2.291 . S
Eu672 O724 2.335 . S
Eu672 O727 2.372 1_655 S
Eu672 C736 2.787 . S
C673 N674 1.365 . S
C673 C676 1.405 . S
C673 C680 1.448 . S
N674 C673 1.365 . S
N674 C677 1.319 . S
N674 Eu683 2.600 . S
C675 C677 1.397 . S
C675 C678 1.367 . S
C675 H695 0.931 . S
C676 C673 1.405 . S
C676 C678 1.403 . S
C676 C682 1.439 . S
C677 N674 1.319 . S
C677 C675 1.397 . S
C677 H688 0.930 . S
C678 C675 1.367 . S
C678 C676 1.403 . S
C678 H699 0.929 . S
C679 C680 1.430 . S
C679 C681 1.387 . S
C679 C685 1.404 1_655 S
C680 C673 1.448 . S
C680 C679 1.430 . S
C680 N684 1.351 . S
C681 C679 1.387 . S
C681 C682 1.374 . S
C681 H696 0.931 . S
C682 C676 1.439 . S
C682 C681 1.374 . S
C682 H697 0.931 . S
Eu683 N674 2.600 . S
Eu683 N684 2.562 . S
Eu683 O718 2.335 . S
Eu683 O721 2.372 . S
Eu683 O722 2.462 . S
Eu683 O723 2.373 . S
Eu683 O725 2.432 . S
Eu683 O726 2.291 1_655 S
Eu683 C747 2.787 . S
N684 C680 1.351 . S
N684 Eu683 2.562 . S
N684 C686 1.325 1_655 S
C685 C679 1.404 1_455 S
C685 C687 1.366 . S
C685 H693 0.930 . S
C686 N684 1.325 1_455 S
C686 C687 1.416 . S
C686 H692 0.929 . S
C687 C685 1.366 . S
C687 C686 1.416 . S
C687 H689 0.930 . S
H688 C677 0.930 . S
H689 C687 0.930 . S
H690 C705 0.930 . S
H691 C712 0.930 . S
H692 C686 0.929 . S
H693 C685 0.930 . S
H694 C708 0.929 . S
H695 C675 0.931 . S
H696 C681 0.931 . S
H697 C682 0.931 . S
H698 C703 0.931 . S
H699 C678 0.929 . S
H700 C711 0.930 . S
N701 Eu672 2.600 1_455 S
N701 C702 1.365 1_445 S
N701 C705 1.319 . S
C702 N701 1.365 1_665 S
C702 C704 1.405 1_655 S
C702 C710 1.448 . S
C703 H698 0.931 . S
C703 C705 1.397 . S
C703 C706 1.367 1_545 S
C704 C702 1.405 1_455 S
C704 C706 1.403 . S
C704 C737 1.439 1_455 S
C705 H690 0.930 . S
C705 N701 1.319 . S
C705 C703 1.397 . S
C706 C703 1.367 1_565 S
C706 C704 1.403 . S
C706 H713 0.929 . S
N707 Eu672 2.562 1_565 S
N707 C708 1.325 . S
N707 C710 1.351 . S
C708 H694 0.929 . S
C708 N707 1.325 . S
C708 C712 1.416 . S
C709 C710 1.430 . S
C709 C711 1.404 . S
C709 C738 1.387 . S
C710 C702 1.448 . S
C710 N707 1.351 . S
C710 C709 1.430 . S
C711 H700 0.930 . S
C711 C709 1.404 . S
C711 C712 1.366 . S
C712 H691 0.930 . S
C712 C708 1.416 . S
C712 C711 1.366 . S
H713 C706 0.929 . S
H714 C737 0.931 . S
H715 C738 0.931 . S
O716 Eu672 2.462 . S
O716 C736 1.252 . S
O717 Eu672 2.373 . S
O717 C728 1.249 1_545 S
O718 Eu683 2.335 . S
O718 C728 1.264 1_545 S
O719 Eu672 2.432 1_455 S
O719 C736 1.268 1_455 S
O720 Eu672 2.291 . S
O720 C735 1.255 . S
O721 Eu683 2.372 . S
O721 C735 1.257 . S
O722 Eu683 2.462 . S
O722 C747 1.252 . S
O723 Eu683 2.373 . S
O723 C739 1.249 . S
O724 Eu672 2.335 . S
O724 C739 1.264 . S
O725 Eu683 2.432 . S
O725 C747 1.268 . S
O726 Eu683 2.291 1_455 S
O726 C746 1.255 . S
O727 Eu672 2.372 1_455 S
O727 C746 1.257 . S
C728 O717 1.249 1_565 S
C728 O718 1.264 1_565 S
C729 C732 1.382 1_655 S
C729 C734 1.390 . S
C729 C736 1.506 . S
C730 C731 1.398 . S
C730 C734 1.392 . S
C731 C730 1.398 . S
C731 C733 1.372 1_655 S
C731 H748 0.931 . S
C732 C729 1.382 1_455 S
C732 C733 1.390 . S
C732 H749 0.931 . S
C733 C731 1.372 1_455 S
C733 C732 1.390 . S
C733 H750 0.929 . S
C734 C729 1.390 . S
C734 C730 1.392 . S
C734 H751 0.930 . S
C735 O720 1.255 . S
C735 O721 1.257 . S
C736 Eu672 2.787 . S
C736 O716 1.252 . S
C736 O719 1.268 1_655 S
C736 C729 1.506 . S
C737 C704 1.439 1_655 S
C737 H714 0.931 . S
C737 C738 1.374 . S
C738 C709 1.387 . S
C738 H715 0.931 . S
C738 C737 1.374 . S
C739 O723 1.249 . S
C739 O724 1.264 . S
C740 C743 1.382 . S
C740 C744 1.390 . S
C740 C747 1.506 . S
C741 C742 1.398 1_545 S
C741 C744 1.392 . S
C742 C741 1.398 1_565 S
C742 C745 1.372 . S
C742 H752 0.931 . S
C743 C740 1.382 . S
C743 C745 1.390 1_545 S
C743 H753 0.931 . S
C744 C740 1.390 . S
C744 C741 1.392 . S
C744 H754 0.930 . S
C745 C742 1.372 . S
C745 C743 1.390 1_565 S
C745 H755 0.929 . S
C746 O726 1.255 . S
C746 O727 1.257 . S
C747 Eu683 2.787 . S
C747 O722 1.252 . S
C747 O725 1.268 . S
C747 C740 1.506 . S
H748 C731 0.931 . S
H749 C732 0.931 . S
H750 C733 0.929 . S
H751 C734 0.930 . S
H752 C742 0.931 . S
H753 C743 0.931 . S
H754 C744 0.930 . S
H755 C745 0.929 . S
Eu756 N785 2.600 . S
Eu756 N791 2.562 . S
Eu756 O800 2.462 . S
Eu756 O801 2.373 . S
Eu756 O803 2.432 . S
Eu756 O804 2.291 . S
Eu756 O808 2.335 . S
Eu756 O811 2.372 . S
Eu756 C820 2.787 . S
C757 N758 1.365 . S
C757 C760 1.405 . S
C757 C764 1.448 . S
N758 C757 1.365 . S
N758 C761 1.319 . S
N758 Eu767 2.600 . S
C759 C761 1.397 . S
C759 C762 1.367 . S
C759 H779 0.931 . S
C760 C757 1.405 . S
C760 C762 1.403 . S
C760 C766 1.439 . S
C761 N758 1.319 . S
C761 C759 1.397 . S
C761 H772 0.930 . S
C762 C759 1.367 . S
C762 C760 1.403 . S
C762 H783 0.929 . S
C763 C764 1.430 . S
C763 C765 1.387 . S
C763 C769 1.404 . S
C764 C757 1.448 . S
C764 C763 1.430 . S
C764 N768 1.351 . S
C765 C763 1.387 . S
C765 C766 1.374 . S
C765 H780 0.931 . S
C766 C760 1.439 . S
C766 C765 1.374 . S
C766 H781 0.931 . S
Eu767 N758 2.600 . S
Eu767 N768 2.562 . S
Eu767 O802 2.335 . S
Eu767 O805 2.372 . S
Eu767 O806 2.462 . S
Eu767 O807 2.373 . S
Eu767 O809 2.432 . S
Eu767 O810 2.291 . S
Eu767 C831 2.787 . S
N768 C764 1.351 . S
N768 Eu767 2.562 . S
N768 C770 1.325 . S
C769 C763 1.404 . S
C769 C771 1.366 . S
C769 H777 0.930 . S
C770 N768 1.325 . S
C770 C771 1.416 . S
C770 H776 0.929 . S
C771 C769 1.366 . S
C771 C770 1.416 . S
C771 H773 0.930 . S
H772 C761 0.930 . S
H773 C771 0.930 . S
H774 C789 0.930 . S
H775 C796 0.930 . S
H776 C770 0.929 . S
H777 C769 0.930 . S
H778 C792 0.929 . S
H779 C759 0.931 . S
H780 C765 0.931 . S
H781 C766 0.931 . S
H782 C787 0.931 . S
H783 C762 0.929 . S
H784 C795 0.930 . S
N785 Eu756 2.600 . S
N785 C786 1.365 1_565 S
N785 C789 1.319 . S
C786 N785 1.365 1_545 S
C786 C788 1.405 1_655 S
C786 C794 1.448 . S
C787 H782 0.931 . S
C787 C789 1.397 1_455 S
C787 C790 1.367 1_565 S
C788 C786 1.405 1_455 S
C788 C790 1.403 . S
C788 C821 1.439 . S
C789 H774 0.930 . S
C789 N785 1.319 . S
C789 C787 1.397 1_655 S
C790 C787 1.367 1_545 S
C790 C788 1.403 . S
C790 H797 0.929 . S
N791 Eu756 2.562 . S
N791 C792 1.325 1_565 S
N791 C794 1.351 1_565 S
C792 H778 0.929 . S
C792 N791 1.325 1_545 S
C792 C796 1.416 . S
C793 C794 1.430 . S
C793 C795 1.404 . S
C793 C822 1.387 1_655 S
C794 C786 1.448 . S
C794 N791 1.351 1_545 S
C794 C793 1.430 . S
C795 H784 0.930 . S
C795 C793 1.404 . S
C795 C796 1.366 . S
C796 H775 0.930 . S
C796 C792 1.416 . S
C796 C795 1.366 . S
H797 C790 0.929 . S
H798 C821 0.931 . S
H799 C822 0.931 . S
O800 Eu756 2.462 . S
O800 C820 1.252 . S
O801 Eu756 2.373 . S
O801 C812 1.249 1_565 S
O802 Eu767 2.335 . S
O802 C812 1.264 1_565 S
O803 Eu756 2.432 . S
O803 C820 1.268 . S
O804 Eu756 2.291 . S
O804 C819 1.255 . S
O805 Eu767 2.372 . S
O805 C819 1.257 . S
O806 Eu767 2.462 . S
O806 C831 1.252 . S
O807 Eu767 2.373 . S
O807 C823 1.249 . S
O808 Eu756 2.335 . S
O808 C823 1.264 . S
O809 Eu767 2.432 . S
O809 C831 1.268 . S
O810 Eu767 2.291 . S
O810 C830 1.255 . S
O811 Eu756 2.372 . S
O811 C830 1.257 . S
C812 O801 1.249 1_545 S
C812 O802 1.264 1_545 S
C813 C816 1.382 . S
C813 C818 1.390 . S
C813 C820 1.506 . S
C814 C815 1.398 . S
C814 C818 1.392 . S
C815 C814 1.398 . S
C815 C817 1.372 . S
C815 H832 0.931 . S
C816 C813 1.382 . S
C816 C817 1.390 . S
C816 H833 0.931 . S
C817 C815 1.372 . S
C817 C816 1.390 . S
C817 H834 0.929 . S
C818 C813 1.390 . S
C818 C814 1.392 . S
C818 H835 0.930 . S
C819 O804 1.255 . S
C819 O805 1.257 . S
C820 Eu756 2.787 . S
C820 O800 1.252 . S
C820 O803 1.268 . S
C820 C813 1.506 . S
C821 C788 1.439 . S
C821 H798 0.931 . S
C821 C822 1.374 . S
C822 C793 1.387 1_455 S
C822 H799 0.931 . S
C822 C821 1.374 . S
C823 O807 1.249 . S
C823 O808 1.264 . S
C824 C827 1.382 . S
C824 C828 1.390 . S
C824 C831 1.506 . S
C825 C826 1.398 1_565 S
C825 C828 1.392 . S
C826 C825 1.398 1_545 S
C826 C829 1.372 . S
C826 H836 0.931 . S
C827 C824 1.382 . S
C827 C829 1.390 1_565 S
C827 H837 0.931 . S
C828 C824 1.390 . S
C828 C825 1.392 . S
C828 H838 0.930 . S
C829 C826 1.372 . S
C829 C827 1.390 1_545 S
C829 H839 0.929 . S
C830 O810 1.255 . S
C830 O811 1.257 . S
C831 Eu767 2.787 . S
C831 O806 1.252 . S
C831 O809 1.268 . S
C831 C824 1.506 . S
H832 C815 0.931 . S
H833 C816 0.931 . S
H834 C817 0.929 . S
H835 C818 0.930 . S
H836 C826 0.931 . S
H837 C827 0.931 . S
H838 C828 0.930 . S
H839 C829 0.929 . S
Eu840 N869 2.600 1_565 S
Eu840 N875 2.562 . S
Eu840 O884 2.462 . S
Eu840 O885 2.373 . S
Eu840 O887 2.432 1_565 S
Eu840 O888 2.291 . S
Eu840 O892 2.335 . S
Eu840 O895 2.372 1_565 S
Eu840 C904 2.787 . S
C841 N842 1.365 . S
C841 C844 1.405 . S
C841 C848 1.448 . S
N842 C841 1.365 . S
N842 C845 1.319 . S
N842 Eu851 2.600 . S
C843 C845 1.397 . S
C843 C846 1.367 . S
C843 H863 0.931 . S
C844 C841 1.405 . S
C844 C846 1.403 . S
C844 C850 1.439 . S
C845 N842 1.319 . S
C845 C843 1.397 . S
C845 H856 0.930 . S
C846 C843 1.367 . S
C846 C844 1.403 . S
C846 H867 0.929 . S
C847 C848 1.430 . S
C847 C849 1.387 . S
C847 C853 1.404 1_565 S
C848 C841 1.448 . S
C848 C847 1.430 . S
C848 N852 1.351 . S
C849 C847 1.387 . S
C849 C850 1.374 . S
C849 H864 0.931 . S
C850 C844 1.439 . S
C850 C849 1.374 . S
C850 H865 0.931 . S
Eu851 N842 2.600 . S
Eu851 N852 2.562 . S
Eu851 O886 2.335 . S
Eu851 O889 2.372 . S
Eu851 O890 2.462 . S
Eu851 O891 2.373 . S
Eu851 O893 2.432 . S
Eu851 O894 2.291 1_565 S
Eu851 C915 2.787 . S
N852 C848 1.351 . S
N852 Eu851 2.562 . S
N852 C854 1.325 1_565 S
C853 C847 1.404 1_545 S
C853 C855 1.366 . S
C853 H861 0.930 . S
C854 N852 1.325 1_545 S
C854 C855 1.416 . S
C854 H860 0.929 . S
C855 C853 1.366 . S
C855 C854 1.416 . S
C855 H857 0.930 . S
H856 C845 0.930 . S
H857 C855 0.930 . S
H858 C873 0.930 . S
H859 C880 0.930 . S
H860 C854 0.929 . S
H861 C853 0.930 . S
H862 C876 0.929 . S
H863 C843 0.931 . S
H864 C849 0.931 . S
H865 C850 0.931 . S
H866 C871 0.931 . S
H867 C846 0.929 . S
H868 C879 0.930 . S
N869 Eu840 2.600 1_545 S
N869 C870 1.365 1_445 S
N869 C873 1.319 . S
C870 N869 1.365 1_665 S
C870 C872 1.405 1_565 S
C870 C878 1.448 . S
C871 H866 0.931 . S
C871 C873 1.397 . S
C871 C874 1.367 1_455 S
C872 C870 1.405 1_545 S
C872 C874 1.403 . S
C872 C905 1.439 1_545 S
C873 H858 0.930 . S
C873 N869 1.319 . S
C873 C871 1.397 . S
C874 C871 1.367 1_655 S
C874 C872 1.403 . S
C874 H881 0.929 . S
N875 Eu840 2.562 . S
N875 C876 1.325 1_455 S
N875 C878 1.351 1_455 S
C876 H862 0.929 . S
C876 N875 1.325 1_655 S
C876 C880 1.416 . S
C877 C878 1.430 . S
C877 C879 1.404 . S
C877 C906 1.387 . S
C878 C870 1.448 . S
C878 N875 1.351 1_655 S
C878 C877 1.430 . S
C879 H868 0.930 . S
C879 C877 1.404 . S
C879 C880 1.366 . S
C880 H859 0.930 . S
C880 C876 1.416 . S
C880 C879 1.366 . S
H881 C874 0.929 . S
H882 C905 0.931 . S
H883 C906 0.931 . S
O884 Eu840 2.462 . S
O884 C904 1.252 . S
O885 Eu840 2.373 . S
O885 C896 1.249 1_455 S
O886 Eu851 2.335 . S
O886 C896 1.264 1_455 S
O887 Eu840 2.432 1_545 S
O887 C904 1.268 1_545 S
O888 Eu840 2.291 . S
O888 C903 1.255 . S
O889 Eu851 2.372 . S
O889 C903 1.257 . S
O890 Eu851 2.462 . S
O890 C915 1.252 . S
O891 Eu851 2.373 . S
O891 C907 1.249 . S
O892 Eu840 2.335 . S
O892 C907 1.264 . S
O893 Eu851 2.432 . S
O893 C915 1.268 . S
O894 Eu851 2.291 1_545 S
O894 C914 1.255 . S
O895 Eu840 2.372 1_545 S
O895 C914 1.257 . S
C896 O885 1.249 1_655 S
C896 O886 1.264 1_655 S
C897 C900 1.382 1_565 S
C897 C902 1.390 . S
C897 C904 1.506 . S
C898 C899 1.398 . S
C898 C902 1.392 . S
C899 C898 1.398 . S
C899 C901 1.372 1_565 S
C899 H916 0.931 . S
C900 C897 1.382 1_545 S
C900 C901 1.390 . S
C900 H917 0.931 . S
C901 C899 1.372 1_545 S
C901 C900 1.390 . S
C901 H918 0.929 . S
C902 C897 1.390 . S
C902 C898 1.392 . S
C902 H919 0.930 . S
C903 O888 1.255 . S
C903 O889 1.257 . S
C904 Eu840 2.787 . S
C904 O884 1.252 . S
C904 O887 1.268 1_565 S
C904 C897 1.506 . S
C905 C872 1.439 1_565 S
C905 H882 0.931 . S
C905 C906 1.374 . S
C906 C877 1.387 . S
C906 H883 0.931 . S
C906 C905 1.374 . S
C907 O891 1.249 . S
C907 O892 1.264 . S
C908 C911 1.382 . S
C908 C912 1.390 . S
C908 C915 1.506 . S
C909 C910 1.398 1_455 S
C909 C912 1.392 . S
C910 C909 1.398 1_655 S
C910 C913 1.372 . S
C910 H920 0.931 . S
C911 C908 1.382 . S
C911 C913 1.390 1_455 S
C911 H921 0.931 . S
C912 C908 1.390 . S
C912 C909 1.392 . S
C912 H922 0.930 . S
C913 C910 1.372 . S
C913 C911 1.390 1_655 S
C913 H923 0.929 . S
C914 O894 1.255 . S
C914 O895 1.257 . S
C915 Eu851 2.787 . S
C915 O890 1.252 . S
C915 O893 1.268 . S
C915 C908 1.506 . S
H916 C899 0.931 . S
H917 C900 0.931 . S
H918 C901 0.929 . S
H919 C902 0.930 . S
H920 C910 0.931 . S
H921 C911 0.931 . S
H922 C912 0.930 . S
H923 C913 0.929 . S
Eu924 N953 2.600 1_455 S
Eu924 N959 2.562 . S
Eu924 O968 2.462 . S
Eu924 O969 2.373 . S
Eu924 O971 2.432 1_455 S
Eu924 O972 2.291 . S
Eu924 O976 2.335 . S
Eu924 O979 2.372 1_455 S
Eu924 C988 2.787 . S
C925 N926 1.365 . S
C925 C928 1.405 . S
C925 C932 1.448 . S
N926 C925 1.365 . S
N926 C929 1.319 . S
N926 Eu935 2.600 . S
C927 C929 1.397 . S
C927 C930 1.367 . S
C927 H947 0.931 . S
C928 C925 1.405 . S
C928 C930 1.403 . S
C928 C934 1.439 . S
C929 N926 1.319 . S
C929 C927 1.397 . S
C929 H940 0.930 . S
C930 C927 1.367 . S
C930 C928 1.403 . S
C930 H951 0.929 . S
C931 C932 1.430 . S
C931 C933 1.387 . S
C931 C937 1.404 1_455 S
C932 C925 1.448 . S
C932 C931 1.430 . S
C932 N936 1.351 . S
C933 C931 1.387 . S
C933 C934 1.374 . S
C933 H948 0.931 . S
C934 C928 1.439 . S
C934 C933 1.374 . S
C934 H949 0.931 . S
Eu935 N926 2.600 . S
Eu935 N936 2.562 . S
Eu935 O970 2.335 . S
Eu935 O973 2.372 . S
Eu935 O974 2.462 . S
Eu935 O975 2.373 . S
Eu935 O977 2.432 . S
Eu935 O978 2.291 1_455 S
Eu935 C999 2.787 . S
N936 C932 1.351 . S
N936 Eu935 2.562 . S
N936 C938 1.325 1_455 S
C937 C931 1.404 1_655 S
C937 C939 1.366 . S
C937 H945 0.930 . S
C938 N936 1.325 1_655 S
C938 C939 1.416 . S
C938 H944 0.929 . S
C939 C937 1.366 . S
C939 C938 1.416 . S
C939 H941 0.930 . S
H940 C929 0.930 . S
H941 C939 0.930 . S
H942 C957 0.930 . S
H943 C964 0.930 . S
H944 C938 0.929 . S
H945 C937 0.930 . S
H946 C960 0.929 . S
H947 C927 0.931 . S
H948 C933 0.931 . S
H949 C934 0.931 . S
H950 C955 0.931 . S
H951 C930 0.929 . S
H952 C963 0.930 . S
N953 Eu924 2.600 1_655 S
N953 C954 1.365 1_655 S
N953 C957 1.319 . S
C954 N953 1.365 1_455 S
C954 C956 1.405 1_445 S
C954 C962 1.448 . S
C955 H950 0.931 . S
C955 C957 1.397 1_565 S
C955 C958 1.367 . S
C956 C954 1.405 1_665 S
C956 C958 1.403 . S
C956 C989 1.439 1_655 S
C957 H942 0.930 . S
C957 N953 1.319 . S
C957 C955 1.397 1_545 S
C958 C955 1.367 . S
C958 C956 1.403 . S
C958 H965 0.929 . S
N959 Eu924 2.562 . S
N959 C960 1.325 . S
N959 C962 1.351 . S
C960 H946 0.929 . S
C960 N959 1.325 . S
C960 C964 1.416 . S
C961 C962 1.430 . S
C961 C963 1.404 . S
C961 C990 1.387 1_545 S
C962 C954 1.448 . S
C962 N959 1.351 . S
C962 C961 1.430 . S
C963 H952 0.930 . S
C963 C961 1.404 . S
C963 C964 1.366 . S
C964 H943 0.930 . S
C964 C960 1.416 . S
C964 C963 1.366 . S
H965 C958 0.929 . S
H966 C989 0.931 . S
H967 C990 0.931 . S
O968 Eu924 2.462 . S
O968 C988 1.252 . S
O969 Eu924 2.373 . S
O969 C980 1.249 . S
O970 Eu935 2.335 . S
O970 C980 1.264 . S
O971 Eu924 2.432 1_655 S
O971 C988 1.268 1_655 S
O972 Eu924 2.291 . S
O972 C987 1.255 . S
O973 Eu935 2.372 . S
O973 C987 1.257 . S
O974 Eu935 2.462 . S
O974 C999 1.252 . S
O975 Eu935 2.373 . S
O975 C991 1.249 . S
O976 Eu924 2.335 . S
O976 C991 1.264 . S
O977 Eu935 2.432 . S
O977 C999 1.268 . S
O978 Eu935 2.291 1_655 S
O978 C998 1.255 . S
O979 Eu924 2.372 1_655 S
O979 C998 1.257 . S
C980 O969 1.249 . S
C980 O970 1.264 . S
C981 C984 1.382 1_455 S
C981 C986 1.390 . S
C981 C988 1.506 . S
C982 C983 1.398 . S
C982 C986 1.392 . S
C983 C982 1.398 . S
C983 C985 1.372 1_455 S
C983 H1000 0.931 . S
C984 C981 1.382 1_655 S
C984 C985 1.390 . S
C984 H1001 0.931 . S
C985 C983 1.372 1_655 S
C985 C984 1.390 . S
C985 H1002 0.929 . S
C986 C981 1.390 . S
C986 C982 1.392 . S
C986 H1003 0.930 . S
C987 O972 1.255 . S
C987 O973 1.257 . S
C988 Eu924 2.787 . S
C988 O968 1.252 . S
C988 O971 1.268 1_455 S
C988 C981 1.506 . S
C989 C956 1.439 1_455 S
C989 H966 0.931 . S
C989 C990 1.374 . S
C990 C961 1.387 1_565 S
C990 H967 0.931 . S
C990 C989 1.374 . S
C991 O975 1.249 . S
C991 O976 1.264 . S
C992 C995 1.382 . S
C992 C996 1.390 . S
C992 C999 1.506 . S
C993 C994 1.398 . S
C993 C996 1.392 . S
C994 C993 1.398 . S
C994 C997 1.372 . S
C994 H1004 0.931 . S
C995 C992 1.382 . S
C995 C997 1.390 . S
C995 H1005 0.931 . S
C996 C992 1.390 . S
C996 C993 1.392 . S
C996 H1006 0.930 . S
C997 C994 1.372 . S
C997 C995 1.390 . S
C997 H1007 0.929 . S
C998 O978 1.255 . S
C998 O979 1.257 . S
C999 Eu935 2.787 . S
C999 O974 1.252 . S
C999 O977 1.268 . S
C999 C992 1.506 . S
H1000 C983 0.931 . S
H1001 C984 0.931 . S
H1002 C985 0.929 . S
H1003 C986 0.930 . S
H1004 C994 0.931 . S
H1005 C995 0.931 . S
H1006 C996 0.930 . S
H1007 C997 0.929 . S
Eu1008 N1037 2.600 . S
Eu1008 N1043 2.562 . S
Eu1008 O1052 2.462 . S
Eu1008 O1053 2.373 . S
Eu1008 O1055 2.432 . S
Eu1008 O1056 2.291 . S
Eu1008 O1060 2.335 . S
Eu1008 O1063 2.372 . S
Eu1008 C1072 2.787 . S
C1009 N1010 1.365 . S
C1009 C1012 1.405 . S
C1009 C1016 1.448 . S
N1010 C1009 1.365 . S
N1010 C1013 1.319 . S
N1010 Eu1019 2.600 . S
C1011 C1013 1.397 . S
C1011 C1014 1.367 . S
C1011 H1031 0.931 . S
C1012 C1009 1.405 . S
C1012 C1014 1.403 . S
C1012 C1018 1.439 . S
C1013 N1010 1.319 . S
C1013 C1011 1.397 . S
C1013 H1024 0.930 . S
C1014 C1011 1.367 . S
C1014 C1012 1.403 . S
C1014 H1035 0.929 . S
C1015 C1016 1.430 . S
C1015 C1017 1.387 . S
C1015 C1021 1.404 . S
C1016 C1009 1.448 . S
C1016 C1015 1.430 . S
C1016 N1020 1.351 . S
C1017 C1015 1.387 . S
C1017 C1018 1.374 . S
C1017 H1032 0.931 . S
C1018 C1012 1.439 . S
C1018 C1017 1.374 . S
C1018 H1033 0.931 . S
Eu1019 N1010 2.600 . S
Eu1019 N1020 2.562 . S
Eu1019 O1054 2.335 . S
Eu1019 O1057 2.372 . S
Eu1019 O1058 2.462 . S
Eu1019 O1059 2.373 . S
Eu1019 O1061 2.432 . S
Eu1019 O1062 2.291 . S
Eu1019 C1083 2.787 . S
N1020 C1016 1.351 . S
N1020 Eu1019 2.562 . S
N1020 C1022 1.325 . S
C1021 C1015 1.404 . S
C1021 C1023 1.366 . S
C1021 H1029 0.930 . S
C1022 N1020 1.325 . S
C1022 C1023 1.416 . S
C1022 H1028 0.929 . S
C1023 C1021 1.366 . S
C1023 C1022 1.416 . S
C1023 H1025 0.930 . S
H1024 C1013 0.930 . S
H1025 C1023 0.930 . S
H1026 C1041 0.930 . S
H1027 C1048 0.930 . S
H1028 C1022 0.929 . S
H1029 C1021 0.930 . S
H1030 C1044 0.929 . S
H1031 C1011 0.931 . S
H1032 C1017 0.931 . S
H1033 C1018 0.931 . S
H1034 C1039 0.931 . S
H1035 C1014 0.929 . S
H1036 C1047 0.930 . S
N1037 Eu1008 2.600 . S
N1037 C1038 1.365 . S
N1037 C1041 1.319 . S
C1038 N1037 1.365 . S
C1038 C1040 1.405 1_655 S
C1038 C1046 1.436 1_655 S
C1039 H1034 0.931 . S
C1039 C1041 1.397 . S
C1039 C1042 1.367 . S
C1040 C1038 1.405 1_455 S
C1040 C1042 1.403 1_455 S
C1040 C1073 1.439 . S
C1041 H1026 0.930 . S
C1041 N1037 1.319 . S
C1041 C1039 1.397 . S
C1042 C1039 1.367 . S
C1042 C1040 1.403 1_655 S
C1042 H1049 0.929 . S
N1043 Eu1008 2.562 . S
N1043 C1044 1.325 . S
N1043 C1046 1.351 1_655 S
C1044 H1030 0.929 . S
C1044 N1043 1.325 . S
C1044 C1048 1.416 1_655 S
C1045 C1046 1.442 . S
C1045 C1047 1.404 . S
C1045 C1074 1.387 . S
C1046 C1038 1.436 1_455 S
C1046 N1043 1.351 1_455 S
C1046 C1045 1.442 . S
C1047 H1036 0.930 . S
C1047 C1045 1.404 . S
C1047 C1048 1.366 . S
C1048 H1027 0.930 . S
C1048 C1044 1.416 1_455 S
C1048 C1047 1.366 . S
H1049 C1042 0.929 . S
H1050 C1073 0.931 . S
H1051 C1074 0.931 . S
O1052 Eu1008 2.462 . S
O1052 C1072 1.252 . S
O1053 Eu1008 2.373 . S
O1053 C1064 1.249 . S
O1054 Eu1019 2.335 . S
O1054 C1064 1.264 . S
O1055 Eu1008 2.432 . S
O1055 C1072 1.268 . S
O1056 Eu1008 2.291 . S
O1056 C1071 1.255 . S
O1057 Eu1019 2.372 . S
O1057 C1071 1.257 . S
O1058 Eu1019 2.462 . S
O1058 C1083 1.252 . S
O1059 Eu1019 2.373 . S
O1059 C1075 1.249 . S
O1060 Eu1008 2.335 . S
O1060 C1075 1.264 . S
O1061 Eu1019 2.432 . S
O1061 C1083 1.268 . S
O1062 Eu1019 2.291 . S
O1062 C1082 1.255 . S
O1063 Eu1008 2.372 . S
O1063 C1082 1.257 . S
C1064 O1053 1.249 . S
C1064 O1054 1.264 . S
C1065 C1068 1.382 . S
C1065 C1070 1.390 . S
C1065 C1072 1.506 . S
C1066 C1067 1.398 . S
C1066 C1070 1.392 . S
C1067 C1066 1.398 . S
C1067 C1069 1.372 . S
C1067 H1084 0.931 . S
C1068 C1065 1.382 . S
C1068 C1069 1.390 . S
C1068 H1085 0.931 . S
C1069 C1067 1.372 . S
C1069 C1068 1.390 . S
C1069 H1086 0.929 . S
C1070 C1065 1.390 . S
C1070 C1066 1.392 . S
C1070 H1087 0.930 . S
C1071 O1056 1.255 . S
C1071 O1057 1.257 . S
C1072 Eu1008 2.787 . S
C1072 O1052 1.252 . S
C1072 O1055 1.268 . S
C1072 C1065 1.506 . S
C1073 C1040 1.439 . S
C1073 H1050 0.931 . S
C1073 C1074 1.374 . S
C1074 C1045 1.387 . S
C1074 H1051 0.931 . S
C1074 C1073 1.374 . S
C1075 O1059 1.249 . S
C1075 O1060 1.264 . S
C1076 C1079 1.382 . S
C1076 C1080 1.390 . S
C1076 C1083 1.506 . S
C1077 C1078 1.398 . S
C1077 C1080 1.392 . S
C1078 C1077 1.398 . S
C1078 C1081 1.372 . S
C1078 H1088 0.931 . S
C1079 C1076 1.382 . S
C1079 C1081 1.390 . S
C1079 H1089 0.931 . S
C1080 C1076 1.390 . S
C1080 C1077 1.392 . S
C1080 H1090 0.930 . S
C1081 C1078 1.372 . S
C1081 C1079 1.390 . S
C1081 H1091 0.929 . S
C1082 O1062 1.255 . S
C1082 O1063 1.257 . S
C1083 Eu1019 2.787 . S
C1083 O1058 1.252 . S
C1083 O1061 1.268 . S
C1083 C1076 1.506 . S
H1084 C1067 0.931 . S
H1085 C1068 0.931 . S
H1086 C1069 0.929 . S
H1087 C1070 0.930 . S
H1088 C1078 0.931 . S
H1089 C1079 0.931 . S
H1090 C1080 0.930 . S
H1091 C1081 0.929 . S
Eu1092 N1121 2.600 . S
Eu1092 N1127 2.562 . S
Eu1092 O1136 2.462 . S
Eu1092 O1137 2.373 . S
Eu1092 O1139 2.432 . S
Eu1092 O1140 2.291 . S
Eu1092 O1144 2.335 . S
Eu1092 O1147 2.372 . S
Eu1092 C1156 2.787 . S
C1093 N1094 1.365 . S
C1093 C1096 1.405 . S
C1093 C1100 1.448 . S
N1094 C1093 1.365 . S
N1094 C1097 1.319 . S
N1094 Eu1103 2.600 . S
C1095 C1097 1.397 . S
C1095 C1098 1.367 . S
C1095 H1115 0.931 . S
C1096 C1093 1.405 . S
C1096 C1098 1.403 . S
C1096 C1102 1.439 . S
C1097 N1094 1.319 . S
C1097 C1095 1.397 . S
C1097 H1108 0.930 . S
C1098 C1095 1.367 . S
C1098 C1096 1.403 . S
C1098 H1119 0.929 . S
C1099 C1100 1.430 . S
C1099 C1101 1.387 . S
C1099 C1105 1.404 . S
C1100 C1093 1.448 . S
C1100 C1099 1.430 . S
C1100 N1104 1.351 . S
C1101 C1099 1.387 . S
C1101 C1102 1.374 . S
C1101 H1116 0.931 . S
C1102 C1096 1.439 . S
C1102 C1101 1.374 . S
C1102 H1117 0.931 . S
Eu1103 N1094 2.600 . S
Eu1103 N1104 2.562 . S
Eu1103 O1138 2.335 . S
Eu1103 O1141 2.372 . S
Eu1103 O1142 2.462 . S
Eu1103 O1143 2.373 . S
Eu1103 O1145 2.432 . S
Eu1103 O1146 2.291 . S
Eu1103 C1167 2.787 . S
N1104 C1100 1.351 . S
N1104 Eu1103 2.562 . S
N1104 C1106 1.325 . S
C1105 C1099 1.404 . S
C1105 C1107 1.366 . S
C1105 H1113 0.930 . S
C1106 N1104 1.325 . S
C1106 C1107 1.416 . S
C1106 H1112 0.929 . S
C1107 C1105 1.366 . S
C1107 C1106 1.416 . S
C1107 H1109 0.930 . S
H1108 C1097 0.930 . S
H1109 C1107 0.930 . S
H1110 C1125 0.930 . S
H1111 C1132 0.930 . S
H1112 C1106 0.929 . S
H1113 C1105 0.930 . S
H1114 C1128 0.929 . S
H1115 C1095 0.931 . S
H1116 C1101 0.931 . S
H1117 C1102 0.931 . S
H1118 C1123 0.931 1_565 S
H1119 C1098 0.929 . S
H1120 C1131 0.930 . S
N1121 Eu1092 2.600 . S
N1121 C1122 1.365 . S
N1121 C1125 1.319 . S
C1122 N1121 1.365 . S
C1122 C1124 1.405 . S
C1122 C1130 1.448 . S
C1123 H1118 0.931 1_545 S
C1123 C1125 1.397 . S
C1123 C1126 1.367 . S
C1124 C1122 1.405 . S
C1124 C1126 1.403 . S
C1124 C1157 1.439 . S
C1125 H1110 0.930 . S
C1125 N1121 1.319 . S
C1125 C1123 1.397 . S
C1126 C1123 1.367 . S
C1126 C1124 1.403 . S
C1126 H1133 0.929 . S
N1127 Eu1092 2.562 . S
N1127 C1128 1.325 . S
N1127 C1130 1.351 . S
C1128 H1114 0.929 . S
C1128 N1127 1.325 . S
C1128 C1132 1.416 . S
C1129 C1130 1.430 . S
C1129 C1131 1.404 . S
C1129 C1158 1.387 . S
C1130 C1122 1.448 . S
C1130 N1127 1.351 . S
C1130 C1129 1.430 . S
C1131 H1120 0.930 . S
C1131 C1129 1.404 . S
C1131 C1132 1.366 . S
C1132 H1111 0.930 . S
C1132 C1128 1.416 . S
C1132 C1131 1.366 . S
H1133 C1126 0.929 . S
H1134 C1157 0.931 . S
H1135 C1158 0.931 . S
O1136 Eu1092 2.462 . S
O1136 C1156 1.252 . S
O1137 Eu1092 2.373 . S
O1137 C1148 1.249 . S
O1138 Eu1103 2.335 . S
O1138 C1148 1.264 . S
O1139 Eu1092 2.432 . S
O1139 C1156 1.268 . S
O1140 Eu1092 2.291 . S
O1140 C1155 1.255 . S
O1141 Eu1103 2.372 . S
O1141 C1155 1.257 . S
O1142 Eu1103 2.462 . S
O1142 C1167 1.252 . S
O1143 Eu1103 2.373 . S
O1143 C1159 1.249 . S
O1144 Eu1092 2.335 . S
O1144 C1159 1.264 . S
O1145 Eu1103 2.432 . S
O1145 C1167 1.268 . S
O1146 Eu1103 2.291 . S
O1146 C1166 1.255 . S
O1147 Eu1092 2.372 . S
O1147 C1166 1.257 . S
C1148 O1137 1.249 . S
C1148 O1138 1.264 . S
C1149 C1152 1.382 . S
C1149 C1154 1.390 . S
C1149 C1156 1.506 . S
C1150 C1151 1.398 . S
C1150 C1154 1.392 . S
C1151 C1150 1.398 . S
C1151 C1153 1.372 . S
C1151 H1168 0.931 . S
C1152 C1149 1.382 . S
C1152 C1153 1.390 . S
C1152 H1169 0.931 . S
C1153 C1151 1.372 . S
C1153 C1152 1.390 . S
C1153 H1170 0.929 . S
C1154 C1149 1.390 . S
C1154 C1150 1.392 . S
C1154 H1171 0.930 . S
C1155 O1140 1.255 . S
C1155 O1141 1.257 . S
C1156 Eu1092 2.787 . S
C1156 O1136 1.252 . S
C1156 O1139 1.268 . S
C1156 C1149 1.506 . S
C1157 C1124 1.439 . S
C1157 H1134 0.931 . S
C1157 C1158 1.374 . S
C1158 C1129 1.387 . S
C1158 H1135 0.931 . S
C1158 C1157 1.374 . S
C1159 O1143 1.249 . S
C1159 O1144 1.264 . S
C1160 C1163 1.382 . S
C1160 C1164 1.390 . S
C1160 C1167 1.506 . S
C1161 C1162 1.398 . S
C1161 C1164 1.392 . S
C1162 C1161 1.398 . S
C1162 C1165 1.372 . S
C1162 H1172 0.931 . S
C1163 C1160 1.382 . S
C1163 C1165 1.390 . S
C1163 H1173 0.931 . S
C1164 C1160 1.390 . S
C1164 C1161 1.392 . S
C1164 H1174 0.930 . S
C1165 C1162 1.372 . S
C1165 C1163 1.390 . S
C1165 H1175 0.929 . S
C1166 O1146 1.255 . S
C1166 O1147 1.257 . S
C1167 Eu1103 2.787 . S
C1167 O1142 1.252 . S
C1167 O1145 1.268 . S
C1167 C1160 1.506 . S
H1168 C1151 0.931 . S
H1169 C1152 0.931 . S
H1170 C1153 0.929 . S
H1171 C1154 0.930 . S
H1172 C1162 0.931 . S
H1173 C1163 0.931 . S
H1174 C1164 0.930 . S
H1175 C1165 0.929 . S
Eu1176 N1205 2.600 . S
Eu1176 N1211 2.562 . S
Eu1176 O1220 2.462 . S
Eu1176 O1221 2.373 . S
Eu1176 O1223 2.432 . S
Eu1176 O1224 2.291 . S
Eu1176 O1228 2.335 . S
Eu1176 O1231 2.372 . S
Eu1176 C1240 2.787 . S
C1177 N1178 1.365 . S
C1177 C1180 1.405 . S
C1177 C1184 1.448 . S
N1178 C1177 1.365 . S
N1178 C1181 1.319 . S
N1178 Eu1187 2.600 . S
C1179 C1181 1.397 . S
C1179 C1182 1.367 . S
C1179 H1199 0.931 . S
C1180 C1177 1.405 . S
C1180 C1182 1.403 . S
C1180 C1186 1.439 . S
C1181 N1178 1.319 . S
C1181 C1179 1.397 . S
C1181 H1192 0.930 . S
C1182 C1179 1.367 . S
C1182 C1180 1.403 . S
C1182 H1203 0.929 . S
C1183 C1184 1.430 . S
C1183 C1185 1.387 . S
C1183 C1189 1.404 . S
C1184 C1177 1.448 . S
C1184 C1183 1.430 . S
C1184 N1188 1.351 . S
C1185 C1183 1.387 . S
C1185 C1186 1.374 . S
C1185 H1200 0.931 . S
C1186 C1180 1.439 . S
C1186 C1185 1.374 . S
C1186 H1201 0.931 . S
Eu1187 N1178 2.600 . S
Eu1187 N1188 2.562 . S
Eu1187 O1222 2.335 . S
Eu1187 O1225 2.372 . S
Eu1187 O1226 2.462 . S
Eu1187 O1227 2.373 . S
Eu1187 O1229 2.432 . S
Eu1187 O1230 2.291 . S
Eu1187 C1251 2.787 . S
N1188 C1184 1.351 . S
N1188 Eu1187 2.562 . S
N1188 C1190 1.325 . S
C1189 C1183 1.404 . S
C1189 C1191 1.366 . S
C1189 H1197 0.930 . S
C1190 N1188 1.325 . S
C1190 C1191 1.416 . S
C1190 H1196 0.929 . S
C1191 C1189 1.366 . S
C1191 C1190 1.416 . S
C1191 H1193 0.930 . S
H1192 C1181 0.930 . S
H1193 C1191 0.930 . S
H1194 C1209 0.930 . S
H1195 C1216 0.930 . S
H1196 C1190 0.929 . S
H1197 C1189 0.930 . S
H1198 C1212 0.929 . S
H1199 C1179 0.931 . S
H1200 C1185 0.931 . S
H1201 C1186 0.931 . S
H1202 C1207 0.931 1_455 S
H1203 C1182 0.929 . S
H1204 C1215 0.930 . S
N1205 Eu1176 2.600 . S
N1205 C1206 1.365 . S
N1205 C1209 1.319 . S
C1206 N1205 1.365 . S
C1206 C1208 1.405 1_545 S
C1206 C1214 1.449 1_545 S
C1207 H1202 0.931 1_655 S
C1207 C1209 1.397 . S
C1207 C1210 1.367 . S
C1208 C1206 1.405 1_565 S
C1208 C1210 1.403 1_565 S
C1208 C1241 1.439 . S
C1209 H1194 0.930 . S
C1209 N1205 1.319 . S
C1209 C1207 1.397 . S
C1210 C1207 1.367 . S
C1210 C1208 1.403 1_545 S
C1210 H1217 0.935 . S
N1211 Eu1176 2.562 . S
N1211 C1212 1.325 . S
N1211 C1214 1.339 1_545 S
C1212 H1198 0.929 . S
C1212 N1211 1.325 . S
C1212 C1216 1.416 1_545 S
C1213 C1214 1.441 . S
C1213 C1215 1.404 . S
C1213 C1242 1.387 . S
C1214 C1206 1.449 1_565 S
C1214 N1211 1.339 1_565 S
C1214 C1213 1.441 . S
C1215 H1204 0.930 . S
C1215 C1213 1.404 . S
C1215 C1216 1.366 . S
C1216 H1195 0.930 . S
C1216 C1212 1.416 1_565 S
C1216 C1215 1.366 . S
H1217 C1210 0.935 . S
H1218 C1241 0.931 . S
H1219 C1242 0.931 . S
O1220 Eu1176 2.462 . S
O1220 C1240 1.252 . S
O1221 Eu1176 2.373 . S
O1221 C1232 1.249 . S
O1222 Eu1187 2.335 . S
O1222 C1232 1.264 . S
O1223 Eu1176 2.432 . S
O1223 C1240 1.268 . S
O1224 Eu1176 2.291 . S
O1224 C1239 1.255 . S
O1225 Eu1187 2.372 . S
O1225 C1239 1.257 . S
O1226 Eu1187 2.462 . S
O1226 C1251 1.252 . S
O1227 Eu1187 2.373 . S
O1227 C1243 1.249 . S
O1228 Eu1176 2.335 . S
O1228 C1243 1.264 . S
O1229 Eu1187 2.432 . S
O1229 C1251 1.268 . S
O1230 Eu1187 2.291 . S
O1230 C1250 1.255 . S
O1231 Eu1176 2.372 . S
O1231 C1250 1.257 . S
C1232 O1221 1.249 . S
C1232 O1222 1.264 . S
C1233 C1236 1.382 . S
C1233 C1238 1.390 . S
C1233 C1240 1.506 . S
C1234 C1235 1.398 . S
C1234 C1238 1.392 . S
C1235 C1234 1.398 . S
C1235 C1237 1.372 . S
C1235 H1252 0.931 . S
C1236 C1233 1.382 . S
C1236 C1237 1.390 . S
C1236 H1253 0.931 . S
C1237 C1235 1.372 . S
C1237 C1236 1.390 . S
C1237 H1254 0.929 . S
C1238 C1233 1.390 . S
C1238 C1234 1.392 . S
C1238 H1255 0.930 . S
C1239 O1224 1.255 . S
C1239 O1225 1.257 . S
C1240 Eu1176 2.787 . S
C1240 O1220 1.252 . S
C1240 O1223 1.268 . S
C1240 C1233 1.506 . S
C1241 C1208 1.439 . S
C1241 H1218 0.931 . S
C1241 C1242 1.374 . S
C1242 C1213 1.387 . S
C1242 H1219 0.931 . S
C1242 C1241 1.374 . S
C1243 O1227 1.249 . S
C1243 O1228 1.264 . S
C1244 C1247 1.382 . S
C1244 C1248 1.390 . S
C1244 C1251 1.506 . S
C1245 C1246 1.398 . S
C1245 C1248 1.392 . S
C1246 C1245 1.398 . S
C1246 C1249 1.372 . S
C1246 H1256 0.931 . S
C1247 C1244 1.382 . S
C1247 C1249 1.390 . S
C1247 H1257 0.931 . S
C1248 C1244 1.390 . S
C1248 C1245 1.392 . S
C1248 H1258 0.930 . S
C1249 C1246 1.372 . S
C1249 C1247 1.390 . S
C1249 H1259 0.929 . S
C1250 O1230 1.255 . S
C1250 O1231 1.257 . S
C1251 Eu1187 2.787 . S
C1251 O1226 1.252 . S
C1251 O1229 1.268 . S
C1251 C1244 1.506 . S
H1252 C1235 0.931 . S
H1253 C1236 0.931 . S
H1254 C1237 0.929 . S
H1255 C1238 0.930 . S
H1256 C1246 0.931 . S
H1257 C1247 0.931 . S
H1258 C1248 0.930 . S
H1259 C1249 0.929 . S
Eu1260 N1289 2.600 1_655 S
Eu1260 N1295 2.562 . S
Eu1260 O1304 2.462 . S
Eu1260 O1305 2.373 1_655 S
Eu1260 O1307 2.432 . S
Eu1260 O1308 2.291 . S
Eu1260 O1312 2.335 . S
Eu1260 O1315 2.372 1_655 S
Eu1260 C1324 2.787 . S
C1261 N1262 1.365 . S
C1261 C1264 1.405 . S
C1261 C1268 1.448 . S
N1262 C1261 1.365 . S
N1262 C1265 1.319 . S
N1262 Eu1271 2.600 . S
C1263 C1265 1.397 . S
C1263 C1266 1.367 . S
C1263 H1283 0.931 . S
C1264 C1261 1.405 . S
C1264 C1266 1.403 . S
C1264 C1270 1.439 . S
C1265 N1262 1.319 . S
C1265 C1263 1.397 . S
C1265 H1276 0.930 . S
C1266 C1263 1.367 . S
C1266 C1264 1.403 . S
C1266 H1287 0.929 . S
C1267 C1268 1.430 . S
C1267 C1269 1.387 . S
C1267 C1273 1.404 . S
C1268 C1261 1.448 . S
C1268 C1267 1.430 . S
C1268 N1272 1.351 . S
C1269 C1267 1.387 . S
C1269 C1270 1.374 . S
C1269 H1284 0.931 . S
C1270 C1264 1.439 . S
C1270 C1269 1.374 . S
C1270 H1285 0.931 . S
Eu1271 N1262 2.600 . S
Eu1271 N1272 2.562 . S
Eu1271 O1306 2.335 . S
Eu1271 O1309 2.372 . S
Eu1271 O1310 2.462 . S
Eu1271 O1311 2.373 . S
Eu1271 O1313 2.432 . S
Eu1271 O1314 2.291 . S
Eu1271 C1335 2.787 . S
N1272 C1268 1.351 . S
N1272 Eu1271 2.562 . S
N1272 C1274 1.325 . S
C1273 C1267 1.404 . S
C1273 C1275 1.366 . S
C1273 H1281 0.930 . S
C1274 N1272 1.325 . S
C1274 C1275 1.416 . S
C1274 H1280 0.929 . S
C1275 C1273 1.366 . S
C1275 C1274 1.416 . S
C1275 H1277 0.930 . S
H1276 C1265 0.930 . S
H1277 C1275 0.930 . S
H1278 C1293 0.930 . S
H1279 C1300 0.930 . S
H1280 C1274 0.929 . S
H1281 C1273 0.930 . S
H1282 C1296 0.929 . S
H1283 C1263 0.931 . S
H1284 C1269 0.931 . S
H1285 C1270 0.931 . S
H1286 C1291 0.931 . S
H1287 C1266 0.929 . S
H1288 C1299 0.930 . S
N1289 Eu1260 2.600 1_455 S
N1289 C1290 1.365 . S
N1289 C1293 1.319 . S
C1290 N1289 1.365 . S
C1290 C1292 1.405 . S
C1290 C1298 1.448 . S
C1291 H1286 0.931 . S
C1291 C1293 1.397 . S
C1291 C1294 1.367 . S
C1292 C1290 1.405 . S
C1292 C1294 1.403 . S
C1292 C1325 1.439 . S
C1293 H1278 0.930 . S
C1293 N1289 1.319 . S
C1293 C1291 1.397 . S
C1294 C1291 1.367 . S
C1294 C1292 1.403 . S
C1294 H1301 0.929 . S
N1295 Eu1260 2.562 . S
N1295 C1296 1.325 . S
N1295 C1298 1.351 1_655 S
C1296 H1282 0.929 . S
C1296 N1295 1.325 . S
C1296 C1300 1.416 . S
C1297 C1298 1.430 . S
C1297 C1299 1.404 . S
C1297 C1326 1.387 . S
C1298 C1290 1.448 . S
C1298 N1295 1.351 1_455 S
C1298 C1297 1.430 . S
C1299 H1288 0.930 . S
C1299 C1297 1.404 . S
C1299 C1300 1.366 1_455 S
C1300 H1279 0.930 . S
C1300 C1296 1.416 . S
C1300 C1299 1.366 1_655 S
H1301 C1294 0.929 . S
H1302 C1325 0.931 . S
H1303 C1326 0.931 . S
O1304 Eu1260 2.462 . S
O1304 C1324 1.252 . S
O1305 Eu1260 2.373 1_455 S
O1305 C1316 1.249 . S
O1306 Eu1271 2.335 . S
O1306 C1316 1.264 1_655 S
O1307 Eu1260 2.432 . S
O1307 C1324 1.268 . S
O1308 Eu1260 2.291 . S
O1308 C1323 1.255 . S
O1309 Eu1271 2.372 . S
O1309 C1323 1.257 . S
O1310 Eu1271 2.462 . S
O1310 C1335 1.252 . S
O1311 Eu1271 2.373 . S
O1311 C1327 1.249 . S
O1312 Eu1260 2.335 . S
O1312 C1327 1.264 . S
O1313 Eu1271 2.432 . S
O1313 C1335 1.268 . S
O1314 Eu1271 2.291 . S
O1314 C1334 1.255 1_655 S
O1315 Eu1260 2.372 1_455 S
O1315 C1334 1.257 . S
C1316 O1305 1.249 . S
C1316 O1306 1.264 1_455 S
C1317 C1320 1.382 . S
C1317 C1322 1.390 . S
C1317 C1324 1.506 . S
C1318 C1319 1.398 . S
C1318 C1322 1.392 . S
C1319 C1318 1.398 . S
C1319 C1321 1.372 . S
C1319 H1336 0.931 . S
C1320 C1317 1.382 . S
C1320 C1321 1.390 . S
C1320 H1337 0.931 . S
C1321 C1319 1.372 . S
C1321 C1320 1.390 . S
C1321 H1338 0.929 . S
C1322 C1317 1.390 . S
C1322 C1318 1.392 . S
C1322 H1339 0.930 . S
C1323 O1308 1.255 . S
C1323 O1309 1.257 . S
C1324 Eu1260 2.787 . S
C1324 O1304 1.252 . S
C1324 O1307 1.268 . S
C1324 C1317 1.506 . S
C1325 C1292 1.439 . S
C1325 H1302 0.931 . S
C1325 C1326 1.374 . S
C1326 C1297 1.387 . S
C1326 H1303 0.931 . S
C1326 C1325 1.374 . S
C1327 O1311 1.249 . S
C1327 O1312 1.264 . S
C1328 C1331 1.382 . S
C1328 C1332 1.390 1_655 S
C1328 C1335 1.506 . S
C1329 C1330 1.398 . S
C1329 C1332 1.392 . S
C1330 C1329 1.398 . S
C1330 C1333 1.372 1_455 S
C1330 H1340 0.931 . S
C1331 C1328 1.382 . S
C1331 C1333 1.390 . S
C1331 H1341 0.931 . S
C1332 C1328 1.390 1_455 S
C1332 C1329 1.392 . S
C1332 H1342 0.930 . S
C1333 C1330 1.372 1_655 S
C1333 C1331 1.390 . S
C1333 H1343 0.929 . S
C1334 O1314 1.255 1_455 S
C1334 O1315 1.257 . S
C1335 Eu1271 2.787 . S
C1335 O1310 1.252 . S
C1335 O1313 1.268 . S
C1335 C1328 1.506 . S
H1336 C1319 0.931 . S
H1337 C1320 0.931 . S
H1338 C1321 0.929 . S
H1339 C1322 0.930 . S
H1340 C1330 0.931 . S
H1341 C1331 0.931 . S
H1342 C1332 0.930 . S
H1343 C1333 0.929 . S
Eu1344 N1373 2.600 . S
Eu1344 N1379 2.562 . S
Eu1344 O1388 2.462 . S
Eu1344 O1389 2.373 . S
Eu1344 O1391 2.432 . S
Eu1344 O1392 2.291 . S
Eu1344 O1396 2.335 . S
Eu1344 O1399 2.372 . S
Eu1344 C1408 2.787 . S
C1345 N1346 1.365 . S
C1345 C1348 1.405 . S
C1345 C1352 1.448 . S
N1346 C1345 1.365 . S
N1346 C1349 1.319 . S
N1346 Eu1355 2.600 . S
C1347 C1349 1.397 . S
C1347 C1350 1.367 . S
C1347 H1367 0.931 . S
C1348 C1345 1.405 . S
C1348 C1350 1.403 . S
C1348 C1354 1.439 . S
C1349 N1346 1.319 . S
C1349 C1347 1.397 . S
C1349 H1360 0.930 . S
C1350 C1347 1.367 . S
C1350 C1348 1.403 . S
C1350 H1371 0.929 . S
C1351 C1352 1.430 . S
C1351 C1353 1.387 . S
C1351 C1357 1.404 . S
C1352 C1345 1.448 . S
C1352 C1351 1.430 . S
C1352 N1356 1.351 . S
C1353 C1351 1.387 . S
C1353 C1354 1.374 . S
C1353 H1368 0.931 . S
C1354 C1348 1.439 . S
C1354 C1353 1.374 . S
C1354 H1369 0.931 . S
Eu1355 N1346 2.600 . S
Eu1355 N1356 2.562 . S
Eu1355 O1390 2.335 . S
Eu1355 O1393 2.372 . S
Eu1355 O1394 2.462 . S
Eu1355 O1395 2.373 . S
Eu1355 O1397 2.432 . S
Eu1355 O1398 2.291 . S
Eu1355 C1419 2.787 . S
N1356 C1352 1.351 . S
N1356 Eu1355 2.562 . S
N1356 C1358 1.325 . S
C1357 C1351 1.404 . S
C1357 C1359 1.366 . S
C1357 H1365 0.930 . S
C1358 N1356 1.325 . S
C1358 C1359 1.416 . S
C1358 H1364 0.929 . S
C1359 C1357 1.366 . S
C1359 C1358 1.416 . S
C1359 H1361 0.930 . S
H1360 C1349 0.930 . S
H1361 C1359 0.930 . S
H1362 C1377 0.930 . S
H1363 C1384 0.930 . S
H1364 C1358 0.929 . S
H1365 C1357 0.930 . S
H1366 C1380 0.929 . S
H1367 C1347 0.931 . S
H1368 C1353 0.931 . S
H1369 C1354 0.931 . S
H1370 C1375 0.931 . S
H1371 C1350 0.929 . S
H1372 C1383 0.930 . S
N1373 Eu1344 2.600 . S
N1373 C1374 1.365 . S
N1373 C1377 1.319 . S
C1374 N1373 1.365 . S
C1374 C1376 1.405 . S
C1374 C1382 1.448 . S
C1375 H1370 0.931 . S
C1375 C1377 1.397 . S
C1375 C1378 1.367 . S
C1376 C1374 1.405 . S
C1376 C1378 1.403 . S
C1376 C1409 1.439 . S
C1377 H1362 0.930 . S
C1377 N1373 1.319 . S
C1377 C1375 1.397 . S
C1378 C1375 1.367 . S
C1378 C1376 1.403 . S
C1378 H1385 0.929 . S
N1379 Eu1344 2.562 . S
N1379 C1380 1.325 . S
N1379 C1382 1.351 . S
C1380 H1366 0.929 . S
C1380 N1379 1.325 . S
C1380 C1384 1.416 . S
C1381 C1382 1.430 . S
C1381 C1383 1.404 . S
C1381 C1410 1.387 . S
C1382 C1374 1.448 . S
C1382 N1379 1.351 . S
C1382 C1381 1.430 . S
C1383 H1372 0.930 . S
C1383 C1381 1.404 . S
C1383 C1384 1.366 . S
C1384 H1363 0.930 . S
C1384 C1380 1.416 . S
C1384 C1383 1.366 . S
H1385 C1378 0.929 . S
H1386 C1409 0.931 . S
H1387 C1410 0.931 . S
O1388 Eu1344 2.462 . S
O1388 C1408 1.252 . S
O1389 Eu1344 2.373 . S
O1389 C1400 1.249 . S
O1390 Eu1355 2.335 . S
O1390 C1400 1.264 . S
O1391 Eu1344 2.432 . S
O1391 C1408 1.268 . S
O1392 Eu1344 2.291 . S
O1392 C1407 1.255 . S
O1393 Eu1355 2.372 . S
O1393 C1407 1.257 . S
O1394 Eu1355 2.462 . S
O1394 C1419 1.252 . S
O1395 Eu1355 2.373 . S
O1395 C1411 1.249 . S
O1396 Eu1344 2.335 . S
O1396 C1411 1.264 . S
O1397 Eu1355 2.432 . S
O1397 C1419 1.268 . S
O1398 Eu1355 2.291 . S
O1398 C1418 1.255 . S
O1399 Eu1344 2.372 . S
O1399 C1418 1.257 . S
C1400 O1389 1.249 . S
C1400 O1390 1.264 . S
C1401 C1404 1.382 . S
C1401 C1406 1.390 . S
C1401 C1408 1.506 . S
C1402 C1403 1.398 . S
C1402 C1406 1.392 . S
C1403 C1402 1.398 . S
C1403 C1405 1.372 . S
C1403 H1420 0.931 . S
C1404 C1401 1.382 . S
C1404 C1405 1.390 . S
C1404 H1421 0.931 . S
C1405 C1403 1.372 . S
C1405 C1404 1.390 . S
C1405 H1422 0.929 . S
C1406 C1401 1.390 . S
C1406 C1402 1.392 . S
C1406 H1423 0.930 . S
C1407 O1392 1.255 . S
C1407 O1393 1.257 . S
C1408 Eu1344 2.787 . S
C1408 O1388 1.252 . S
C1408 O1391 1.268 . S
C1408 C1401 1.506 . S
C1409 C1376 1.439 . S
C1409 H1386 0.931 . S
C1409 C1410 1.374 . S
C1410 C1381 1.387 . S
C1410 H1387 0.931 . S
C1410 C1409 1.374 . S
C1411 O1395 1.249 . S
C1411 O1396 1.264 . S
C1412 C1415 1.382 . S
C1412 C1416 1.390 . S
C1412 C1419 1.506 . S
C1413 C1414 1.398 . S
C1413 C1416 1.392 . S
C1414 C1413 1.398 . S
C1414 C1417 1.372 . S
C1414 H1424 0.931 . S
C1415 C1412 1.382 . S
C1415 C1417 1.390 . S
C1415 H1425 0.931 . S
C1416 C1412 1.390 . S
C1416 C1413 1.392 . S
C1416 H1426 0.930 . S
C1417 C1414 1.372 . S
C1417 C1415 1.390 . S
C1417 H1427 0.929 . S
C1418 O1398 1.255 . S
C1418 O1399 1.257 . S
C1419 Eu1355 2.787 . S
C1419 O1394 1.252 . S
C1419 O1397 1.268 . S
C1419 C1412 1.506 . S
H1420 C1403 0.931 . S
H1421 C1404 0.931 . S
H1422 C1405 0.929 . S
H1423 C1406 0.930 . S
H1424 C1414 0.931 . S
H1425 C1415 0.931 . S
H1426 C1416 0.930 . S
H1427 C1417 0.929 . S
Eu1428 N1457 2.600 1_545 S
Eu1428 N1463 2.562 . S
Eu1428 O1472 2.462 . S
Eu1428 O1473 2.373 1_545 S
Eu1428 O1475 2.432 . S
Eu1428 O1476 2.291 . S
Eu1428 O1480 2.335 . S
Eu1428 O1483 2.372 1_545 S
Eu1428 C1492 2.787 . S
C1429 N1430 1.365 . S
C1429 C1432 1.405 . S
C1429 C1436 1.448 . S
N1430 C1429 1.365 . S
N1430 C1433 1.319 . S
N1430 Eu1439 2.600 . S
C1431 C1433 1.397 . S
C1431 C1434 1.367 . S
C1431 H1451 0.931 . S
C1432 C1429 1.405 . S
C1432 C1434 1.403 . S
C1432 C1438 1.439 . S
C1433 N1430 1.319 . S
C1433 C1431 1.397 . S
C1433 H1444 0.930 . S
C1434 C1431 1.367 . S
C1434 C1432 1.403 . S
C1434 H1455 0.929 . S
C1435 C1436 1.430 . S
C1435 C1437 1.387 . S
C1435 C1441 1.404 . S
C1436 C1429 1.448 . S
C1436 C1435 1.430 . S
C1436 N1440 1.351 . S
C1437 C1435 1.387 . S
C1437 C1438 1.374 . S
C1437 H1452 0.931 . S
C1438 C1432 1.439 . S
C1438 C1437 1.374 . S
C1438 H1453 0.931 . S
Eu1439 N1430 2.600 . S
Eu1439 N1440 2.562 . S
Eu1439 O1474 2.335 . S
Eu1439 O1477 2.372 . S
Eu1439 O1478 2.462 . S
Eu1439 O1479 2.373 . S
Eu1439 O1481 2.432 . S
Eu1439 O1482 2.291 . S
Eu1439 C1503 2.787 . S
N1440 C1436 1.351 . S
N1440 Eu1439 2.562 . S
N1440 C1442 1.325 . S
C1441 C1435 1.404 . S
C1441 C1443 1.366 . S
C1441 H1449 0.930 . S
C1442 N1440 1.325 . S
C1442 C1443 1.416 . S
C1442 H1448 0.929 . S
C1443 C1441 1.366 . S
C1443 C1442 1.416 . S
C1443 H1445 0.930 . S
H1444 C1433 0.930 . S
H1445 C1443 0.930 . S
H1446 C1461 0.930 . S
H1447 C1468 0.930 . S
H1448 C1442 0.929 . S
H1449 C1441 0.930 . S
H1450 C1464 0.929 . S
H1451 C1431 0.931 . S
H1452 C1437 0.931 . S
H1453 C1438 0.931 . S
H1454 C1459 0.931 . S
H1455 C1434 0.929 . S
H1456 C1467 0.930 . S
N1457 Eu1428 2.600 1_565 S
N1457 C1458 1.365 . S
N1457 C1461 1.319 . S
C1458 N1457 1.365 . S
C1458 C1460 1.405 . S
C1458 C1466 1.448 . S
C1459 H1454 0.931 . S
C1459 C1461 1.397 . S
C1459 C1462 1.367 . S
C1460 C1458 1.405 . S
C1460 C1462 1.403 . S
C1460 C1493 1.439 . S
C1461 H1446 0.930 . S
C1461 N1457 1.319 . S
C1461 C1459 1.397 . S
C1462 C1459 1.367 . S
C1462 C1460 1.403 . S
C1462 H1469 0.929 . S
N1463 Eu1428 2.562 . S
N1463 C1464 1.325 . S
N1463 C1466 1.351 1_545 S
C1464 H1450 0.929 . S
C1464 N1463 1.325 . S
C1464 C1468 1.416 . S
C1465 C1466 1.430 . S
C1465 C1467 1.404 . S
C1465 C1494 1.387 . S
C1466 C1458 1.448 . S
C1466 N1463 1.351 1_565 S
C1466 C1465 1.430 . S
C1467 H1456 0.930 . S
C1467 C1465 1.404 . S
C1467 C1468 1.366 1_565 S
C1468 H1447 0.930 . S
C1468 C1464 1.416 . S
C1468 C1467 1.366 1_545 S
H1469 C1462 0.929 . S
H1470 C1493 0.931 . S
H1471 C1494 0.931 . S
O1472 Eu1428 2.462 . S
O1472 C1492 1.252 . S
O1473 Eu1428 2.373 1_565 S
O1473 C1484 1.249 . S
O1474 Eu1439 2.335 . S
O1474 C1484 1.264 1_545 S
O1475 Eu1428 2.432 . S
O1475 C1492 1.268 . S
O1476 Eu1428 2.291 . S
O1476 C1491 1.255 . S
O1477 Eu1439 2.372 . S
O1477 C1491 1.257 . S
O1478 Eu1439 2.462 . S
O1478 C1503 1.252 . S
O1479 Eu1439 2.373 . S
O1479 C1495 1.249 . S
O1480 Eu1428 2.335 . S
O1480 C1495 1.264 . S
O1481 Eu1439 2.432 . S
O1481 C1503 1.268 . S
O1482 Eu1439 2.291 . S
O1482 C1502 1.255 1_545 S
O1483 Eu1428 2.372 1_565 S
O1483 C1502 1.257 . S
C1484 O1473 1.249 . S
C1484 O1474 1.264 1_565 S
C1485 C1488 1.382 . S
C1485 C1490 1.390 . S
C1485 C1492 1.506 . S
C1486 C1487 1.398 . S
C1486 C1490 1.392 . S
C1487 C1486 1.398 . S
C1487 C1489 1.372 . S
C1487 H1504 0.931 . S
C1488 C1485 1.382 . S
C1488 C1489 1.390 . S
C1488 H1505 0.931 . S
C1489 C1487 1.372 . S
C1489 C1488 1.390 . S
C1489 H1506 0.929 . S
C1490 C1485 1.390 . S
C1490 C1486 1.392 . S
C1490 H1507 0.930 . S
C1491 O1476 1.255 . S
C1491 O1477 1.257 . S
C1492 Eu1428 2.787 . S
C1492 O1472 1.252 . S
C1492 O1475 1.268 . S
C1492 C1485 1.506 . S
C1493 C1460 1.439 . S
C1493 H1470 0.931 . S
C1493 C1494 1.374 . S
C1494 C1465 1.387 . S
C1494 H1471 0.931 . S
C1494 C1493 1.374 . S
C1495 O1479 1.249 . S
C1495 O1480 1.264 . S
C1496 C1499 1.382 . S
C1496 C1500 1.390 1_545 S
C1496 C1503 1.506 . S
C1497 C1498 1.398 . S
C1497 C1500 1.392 . S
C1498 C1497 1.398 . S
C1498 C1501 1.372 1_565 S
C1498 H1508 0.931 . S
C1499 C1496 1.382 . S
C1499 C1501 1.390 . S
C1499 H1509 0.931 . S
C1500 C1496 1.390 1_565 S
C1500 C1497 1.392 . S
C1500 H1510 0.930 . S
C1501 C1498 1.372 1_545 S
C1501 C1499 1.390 . S
C1501 H1511 0.929 . S
C1502 O1482 1.255 1_565 S
C1502 O1483 1.257 . S
C1503 Eu1439 2.787 . S
C1503 O1478 1.252 . S
C1503 O1481 1.268 . S
C1503 C1496 1.506 . S
H1504 C1487 0.931 . S
H1505 C1488 0.931 . S
H1506 C1489 0.929 . S
H1507 C1490 0.930 . S
H1508 C1498 0.931 . S
H1509 C1499 0.931 . S
H1510 C1500 0.930 . S
H1511 C1501 0.929 . S
Eu1512 N1541 2.600 . S
Eu1512 N1547 2.562 . S
Eu1512 O1556 2.462 . S
Eu1512 O1557 2.373 . S
Eu1512 O1559 2.432 . S
Eu1512 O1560 2.291 . S
Eu1512 O1564 2.335 . S
Eu1512 O1567 2.372 . S
Eu1512 C1576 2.787 . S
C1513 N1514 1.365 . S
C1513 C1516 1.405 . S
C1513 C1520 1.448 . S
N1514 C1513 1.365 . S
N1514 C1517 1.319 . S
N1514 Eu1523 2.600 1_565 S
C1515 C1517 1.397 . S
C1515 C1518 1.367 . S
C1515 H1535 0.931 . S
C1516 C1513 1.405 . S
C1516 C1518 1.403 . S
C1516 C1522 1.439 . S
C1517 N1514 1.319 . S
C1517 C1515 1.397 . S
C1517 H1528 0.930 . S
C1518 C1515 1.367 . S
C1518 C1516 1.403 . S
C1518 H1539 0.929 . S
C1519 C1520 1.430 . S
C1519 C1521 1.387 . S
C1519 C1525 1.404 . S
C1520 C1513 1.448 . S
C1520 C1519 1.430 . S
C1520 N1524 1.351 1_565 S
C1521 C1519 1.387 . S
C1521 C1522 1.374 . S
C1521 H1536 0.931 . S
C1522 C1516 1.439 . S
C1522 C1521 1.374 . S
C1522 H1537 0.931 . S
Eu1523 N1514 2.600 1_545 S
Eu1523 N1524 2.562 . S
Eu1523 O1558 2.335 . S
Eu1523 O1561 2.372 1_545 S
Eu1523 O1562 2.462 . S
Eu1523 O1563 2.373 1_545 S
Eu1523 O1565 2.432 . S
Eu1523 O1566 2.291 . S
Eu1523 C1587 2.787 . S
N1524 C1520 1.351 1_545 S
N1524 Eu1523 2.562 . S
N1524 C1526 1.325 . S
C1525 C1519 1.404 . S
C1525 C1527 1.366 1_565 S
C1525 H1533 0.930 . S
C1526 N1524 1.325 . S
C1526 C1527 1.416 . S
C1526 H1532 0.929 . S
C1527 C1525 1.366 1_545 S
C1527 C1526 1.416 . S
C1527 H1529 0.930 . S
H1528 C1517 0.930 . S
H1529 C1527 0.930 . S
H1530 C1545 0.930 . S
H1531 C1552 0.930 . S
H1532 C1526 0.929 . S
H1533 C1525 0.930 . S
H1534 C1548 0.929 . S
H1535 C1515 0.931 . S
H1536 C1521 0.931 . S
H1537 C1522 0.931 . S
H1538 C1543 0.931 . S
H1539 C1518 0.929 . S
H1540 C1551 0.930 . S
N1541 Eu1512 2.600 . S
N1541 C1542 1.365 . S
N1541 C1545 1.319 . S
C1542 N1541 1.365 . S
C1542 C1544 1.405 . S
C1542 C1550 1.448 . S
C1543 H1538 0.931 . S
C1543 C1545 1.397 . S
C1543 C1546 1.367 . S
C1544 C1542 1.405 . S
C1544 C1546 1.403 . S
C1544 C1577 1.439 . S
C1545 H1530 0.930 . S
C1545 N1541 1.319 . S
C1545 C1543 1.397 . S
C1546 C1543 1.367 . S
C1546 C1544 1.403 . S
C1546 H1553 0.929 . S
N1547 Eu1512 2.562 . S
N1547 C1548 1.325 . S
N1547 C1550 1.351 . S
C1548 H1534 0.929 . S
C1548 N1547 1.325 . S
C1548 C1552 1.416 . S
C1549 C1550 1.430 . S
C1549 C1551 1.404 . S
C1549 C1578 1.387 . S
C1550 C1542 1.448 . S
C1550 N1547 1.351 . S
C1550 C1549 1.430 . S
C1551 H1540 0.930 . S
C1551 C1549 1.404 . S
C1551 C1552 1.366 . S
C1552 H1531 0.930 . S
C1552 C1548 1.416 . S
C1552 C1551 1.366 . S
H1553 C1546 0.929 . S
H1554 C1577 0.931 . S
H1555 C1578 0.931 . S
O1556 Eu1512 2.462 . S
O1556 C1576 1.252 . S
O1557 Eu1512 2.373 . S
O1557 C1568 1.249 . S
O1558 Eu1523 2.335 . S
O1558 C1568 1.264 . S
O1559 Eu1512 2.432 . S
O1559 C1576 1.268 . S
O1560 Eu1512 2.291 . S
O1560 C1575 1.255 1_545 S
O1561 Eu1523 2.372 1_565 S
O1561 C1575 1.257 . S
O1562 Eu1523 2.462 . S
O1562 C1587 1.252 . S
O1563 Eu1523 2.373 1_565 S
O1563 C1579 1.249 . S
O1564 Eu1512 2.335 . S
O1564 C1579 1.264 1_545 S
O1565 Eu1523 2.432 . S
O1565 C1587 1.268 . S
O1566 Eu1523 2.291 . S
O1566 C1586 1.255 . S
O1567 Eu1512 2.372 . S
O1567 C1586 1.257 . S
C1568 O1557 1.249 . S
C1568 O1558 1.264 . S
C1569 C1572 1.382 . S
C1569 C1574 1.390 1_545 S
C1569 C1576 1.506 . S
C1570 C1571 1.406 . S
C1570 C1574 1.392 . S
C1571 C1570 1.406 . S
C1571 C1573 1.363 1_565 S
C1571 H1588 0.932 . S
C1572 C1569 1.382 . S
C1572 C1573 1.390 . S
C1572 H1589 0.931 . S
C1573 C1571 1.363 1_545 S
C1573 C1572 1.390 . S
C1573 H1590 0.929 . S
C1574 C1569 1.390 1_565 S
C1574 C1570 1.392 . S
C1574 H1591 0.930 . S
C1575 O1560 1.255 1_565 S
C1575 O1561 1.257 . S
C1576 Eu1512 2.787 . S
C1576 O1556 1.252 . S
C1576 O1559 1.268 . S
C1576 C1569 1.506 . S
C1577 C1544 1.439 . S
C1577 H1554 0.931 . S
C1577 C1578 1.374 . S
C1578 C1549 1.387 . S
C1578 H1555 0.931 . S
C1578 C1577 1.374 . S
C1579 O1563 1.249 . S
C1579 O1564 1.264 1_565 S
C1580 C1583 1.382 . S
C1580 C1584 1.390 . S
C1580 C1587 1.506 . S
C1581 C1582 1.398 . S
C1581 C1584 1.392 . S
C1582 C1581 1.398 . S
C1582 C1585 1.372 . S
C1582 H1592 0.931 . S
C1583 C1580 1.382 . S
C1583 C1585 1.390 . S
C1583 H1593 0.931 . S
C1584 C1580 1.390 . S
C1584 C1581 1.392 . S
C1584 H1594 0.930 . S
C1585 C1582 1.372 . S
C1585 C1583 1.390 . S
C1585 H1595 0.929 . S
C1586 O1566 1.255 . S
C1586 O1567 1.257 . S
C1587 Eu1523 2.787 . S
C1587 O1562 1.252 . S
C1587 O1565 1.268 . S
C1587 C1580 1.506 . S
H1588 C1571 0.932 . S
H1589 C1572 0.931 . S
H1590 C1573 0.929 . S
H1591 C1574 0.930 . S
H1592 C1582 0.931 . S
H1593 C1583 0.931 . S
H1594 C1584 0.930 . S
H1595 C1585 0.929 . S
Eu1596 N1625 2.600 . S
Eu1596 N1631 2.562 . S
Eu1596 O1640 2.462 . S
Eu1596 O1641 2.373 . S
Eu1596 O1643 2.432 . S
Eu1596 O1644 2.291 . S
Eu1596 O1648 2.335 . S
Eu1596 O1651 2.372 . S
Eu1596 C1660 2.787 . S
C1597 N1598 1.365 . S
C1597 C1600 1.405 . S
C1597 C1604 1.448 . S
N1598 C1597 1.365 . S
N1598 C1601 1.319 . S
N1598 Eu1607 2.600 1_455 S
C1599 C1601 1.397 . S
C1599 C1602 1.367 . S
C1599 H1619 0.931 . S
C1600 C1597 1.405 . S
C1600 C1602 1.403 . S
C1600 C1606 1.439 . S
C1601 N1598 1.319 . S
C1601 C1599 1.397 . S
C1601 H1612 0.930 . S
C1602 C1599 1.367 . S
C1602 C1600 1.403 . S
C1602 H1623 0.929 . S
C1603 C1604 1.430 . S
C1603 C1605 1.387 . S
C1603 C1609 1.404 . S
C1604 C1597 1.448 . S
C1604 C1603 1.430 . S
C1604 N1608 1.351 1_455 S
C1605 C1603 1.387 . S
C1605 C1606 1.374 . S
C1605 H1620 0.931 . S
C1606 C1600 1.439 . S
C1606 C1605 1.374 . S
C1606 H1621 0.931 . S
Eu1607 N1598 2.600 1_655 S
Eu1607 N1608 2.562 . S
Eu1607 O1642 2.335 . S
Eu1607 O1645 2.372 1_655 S
Eu1607 O1646 2.462 . S
Eu1607 O1647 2.373 1_655 S
Eu1607 O1649 2.432 . S
Eu1607 O1650 2.291 . S
Eu1607 C1671 2.787 . S
N1608 C1604 1.351 1_655 S
N1608 Eu1607 2.562 . S
N1608 C1610 1.325 . S
C1609 C1603 1.404 . S
C1609 C1611 1.366 1_455 S
C1609 H1617 0.930 . S
C1610 N1608 1.325 . S
C1610 C1611 1.416 . S
C1610 H1616 0.929 . S
C1611 C1609 1.366 1_655 S
C1611 C1610 1.416 . S
C1611 H1613 0.930 . S
H1612 C1601 0.930 . S
H1613 C1611 0.930 . S
H1614 C1629 0.930 . S
H1615 C1636 0.930 . S
H1616 C1610 0.929 . S
H1617 C1609 0.930 . S
H1618 C1632 0.929 . S
H1619 C1599 0.931 . S
H1620 C1605 0.931 . S
H1621 C1606 0.931 . S
H1622 C1627 0.931 . S
H1623 C1602 0.929 . S
H1624 C1635 0.930 . S
N1625 Eu1596 2.600 . S
N1625 C1626 1.365 . S
N1625 C1629 1.319 . S
C1626 N1625 1.365 . S
C1626 C1628 1.405 . S
C1626 C1634 1.448 . S
C1627 H1622 0.931 . S
C1627 C1629 1.397 . S
C1627 C1630 1.367 . S
C1628 C1626 1.405 . S
C1628 C1630 1.403 . S
C1628 C1661 1.439 . S
C1629 H1614 0.930 . S
C1629 N1625 1.319 . S
C1629 C1627 1.397 . S
C1630 C1627 1.367 . S
C1630 C1628 1.403 . S
C1630 H1637 0.929 . S
N1631 Eu1596 2.562 . S
N1631 C1632 1.325 . S
N1631 C1634 1.351 . S
C1632 H1618 0.929 . S
C1632 N1631 1.325 . S
C1632 C1636 1.416 . S
C1633 C1634 1.430 . S
C1633 C1635 1.404 . S
C1633 C1662 1.387 . S
C1634 C1626 1.448 . S
C1634 N1631 1.351 . S
C1634 C1633 1.430 . S
C1635 H1624 0.930 . S
C1635 C1633 1.404 . S
C1635 C1636 1.366 . S
C1636 H1615 0.930 . S
C1636 C1632 1.416 . S
C1636 C1635 1.366 . S
H1637 C1630 0.929 . S
H1638 C1661 0.931 . S
H1639 C1662 0.931 . S
O1640 Eu1596 2.462 . S
O1640 C1660 1.252 . S
O1641 Eu1596 2.373 . S
O1641 C1652 1.249 . S
O1642 Eu1607 2.335 . S
O1642 C1652 1.264 . S
O1643 Eu1596 2.432 . S
O1643 C1660 1.268 . S
O1644 Eu1596 2.291 . S
O1644 C1659 1.255 1_655 S
O1645 Eu1607 2.372 1_455 S
O1645 C1659 1.257 . S
O1646 Eu1607 2.462 . S
O1646 C1671 1.252 . S
O1647 Eu1607 2.373 1_455 S
O1647 C1663 1.249 . S
O1648 Eu1596 2.335 . S
O1648 C1663 1.264 1_655 S
O1649 Eu1607 2.432 . S
O1649 C1671 1.268 . S
O1650 Eu1607 2.291 . S
O1650 C1670 1.255 . S
O1651 Eu1596 2.372 . S
O1651 C1670 1.257 . S
C1652 O1641 1.249 . S
C1652 O1642 1.264 . S
C1653 C1656 1.382 . S
C1653 C1658 1.390 1_655 S
C1653 C1660 1.506 . S
C1654 C1655 1.399 . S
C1654 C1658 1.392 . S
C1655 C1654 1.399 . S
C1655 C1657 1.368 1_455 S
C1655 H1672 0.934 . S
C1656 C1653 1.382 . S
C1656 C1657 1.390 . S
C1656 H1673 0.931 . S
C1657 C1655 1.368 1_655 S
C1657 C1656 1.390 . S
C1657 H1674 0.929 . S
C1658 C1653 1.390 1_455 S
C1658 C1654 1.392 . S
C1658 H1675 0.930 . S
C1659 O1644 1.255 1_455 S
C1659 O1645 1.257 . S
C1660 Eu1596 2.787 . S
C1660 O1640 1.252 . S
C1660 O1643 1.268 . S
C1660 C1653 1.506 . S
C1661 C1628 1.439 . S
C1661 H1638 0.931 . S
C1661 C1662 1.374 . S
C1662 C1633 1.387 . S
C1662 H1639 0.931 . S
C1662 C1661 1.374 . S
C1663 O1647 1.249 . S
C1663 O1648 1.264 1_455 S
C1664 C1667 1.382 . S
C1664 C1668 1.390 . S
C1664 C1671 1.506 . S
C1665 C1666 1.398 . S
C1665 C1668 1.392 . S
C1666 C1665 1.398 . S
C1666 C1669 1.372 . S
C1666 H1676 0.931 . S
C1667 C1664 1.382 . S
C1667 C1669 1.390 . S
C1667 H1677 0.931 . S
C1668 C1664 1.390 . S
C1668 C1665 1.392 . S
C1668 H1678 0.930 . S
C1669 C1666 1.372 . S
C1669 C1667 1.390 . S
C1669 H1679 0.929 . S
C1670 O1650 1.255 . S
C1670 O1651 1.257 . S
C1671 Eu1607 2.787 . S
C1671 O1646 1.252 . S
C1671 O1649 1.268 . S
C1671 C1664 1.506 . S
H1672 C1655 0.934 . S
H1673 C1656 0.931 . S
H1674 C1657 0.929 . S
H1675 C1658 0.930 . S
H1676 C1666 0.931 . S
H1677 C1667 0.931 . S
H1678 C1668 0.930 . S
H1679 C1669 0.929 . S
Eu1680 N1709 2.600 . S
Eu1680 N1715 2.562 . S
Eu1680 O1724 2.462 . S
Eu1680 O1725 2.373 . S
Eu1680 O1727 2.432 . S
Eu1680 O1728 2.291 . S
Eu1680 O1732 2.335 . S
Eu1680 O1735 2.372 . S
Eu1680 C1744 2.787 . S
C1681 N1682 1.365 . S
C1681 C1684 1.405 . S
C1681 C1688 1.448 . S
N1682 C1681 1.365 . S
N1682 C1685 1.319 . S
N1682 Eu1691 2.600 . S
C1683 C1685 1.397 . S
C1683 C1686 1.367 . S
C1683 H1703 0.931 . S
C1684 C1681 1.405 . S
C1684 C1686 1.403 . S
C1684 C1690 1.439 . S
C1685 N1682 1.319 . S
C1685 C1683 1.397 . S
C1685 H1696 0.930 . S
C1686 C1683 1.367 . S
C1686 C1684 1.403 . S
C1686 H1707 0.929 . S
C1687 C1688 1.430 . S
C1687 C1689 1.387 . S
C1687 C1693 1.404 . S
C1688 C1681 1.448 . S
C1688 C1687 1.430 . S
C1688 N1692 1.351 . S
C1689 C1687 1.387 . S
C1689 C1690 1.374 . S
C1689 H1704 0.931 . S
C1690 C1684 1.439 . S
C1690 C1689 1.374 . S
C1690 H1705 0.931 . S
Eu1691 N1682 2.600 . S
Eu1691 N1692 2.562 . S
Eu1691 O1726 2.335 . S
Eu1691 O1729 2.372 . S
Eu1691 O1730 2.462 . S
Eu1691 O1731 2.373 . S
Eu1691 O1733 2.432 . S
Eu1691 O1734 2.291 . S
Eu1691 C1755 2.787 . S
N1692 C1688 1.351 . S
N1692 Eu1691 2.562 . S
N1692 C1694 1.325 . S
C1693 C1687 1.404 . S
C1693 C1695 1.366 . S
C1693 H1701 0.930 . S
C1694 N1692 1.325 . S
C1694 C1695 1.416 . S
C1694 H1700 0.929 . S
C1695 C1693 1.366 . S
C1695 C1694 1.416 . S
C1695 H1697 0.930 . S
H1696 C1685 0.930 . S
H1697 C1695 0.930 . S
H1698 C1713 0.930 . S
H1699 C1720 0.930 . S
H1700 C1694 0.929 . S
H1701 C1693 0.930 . S
H1702 C1716 0.929 . S
H1703 C1683 0.931 . S
H1704 C1689 0.931 . S
H1705 C1690 0.931 . S
H1706 C1711 0.931 . S
H1707 C1686 0.929 . S
H1708 C1719 0.930 . S
N1709 Eu1680 2.600 . S
N1709 C1710 1.365 . S
N1709 C1713 1.319 . S
C1710 N1709 1.365 . S
C1710 C1712 1.405 . S
C1710 C1718 1.448 . S
C1711 H1706 0.931 . S
C1711 C1713 1.397 . S
C1711 C1714 1.367 . S
C1712 C1710 1.405 . S
C1712 C1714 1.403 . S
C1712 C1745 1.439 . S
C1713 H1698 0.930 . S
C1713 N1709 1.319 . S
C1713 C1711 1.397 . S
C1714 C1711 1.367 . S
C1714 C1712 1.403 . S
C1714 H1721 0.929 . S
N1715 Eu1680 2.562 . S
N1715 C1716 1.325 . S
N1715 C1718 1.351 . S
C1716 H1702 0.929 . S
C1716 N1715 1.325 . S
C1716 C1720 1.416 . S
C1717 C1718 1.430 . S
C1717 C1719 1.404 . S
C1717 C1746 1.387 . S
C1718 C1710 1.448 . S
C1718 N1715 1.351 . S
C1718 C1717 1.430 . S
C1719 H1708 0.930 . S
C1719 C1717 1.404 . S
C1719 C1720 1.366 . S
C1720 H1699 0.930 . S
C1720 C1716 1.416 . S
C1720 C1719 1.366 . S
H1721 C1714 0.929 . S
H1722 C1745 0.931 . S
H1723 C1746 0.931 . S
O1724 Eu1680 2.462 . S
O1724 C1744 1.252 . S
O1725 Eu1680 2.373 . S
O1725 C1736 1.249 . S
O1726 Eu1691 2.335 . S
O1726 C1736 1.264 . S
O1727 Eu1680 2.432 . S
O1727 C1744 1.268 . S
O1728 Eu1680 2.291 . S
O1728 C1743 1.255 . S
O1729 Eu1691 2.372 . S
O1729 C1743 1.257 . S
O1730 Eu1691 2.462 . S
O1730 C1755 1.252 . S
O1731 Eu1691 2.373 . S
O1731 C1747 1.249 . S
O1732 Eu1680 2.335 . S
O1732 C1747 1.264 . S
O1733 Eu1691 2.432 . S
O1733 C1755 1.268 . S
O1734 Eu1691 2.291 . S
O1734 C1754 1.255 . S
O1735 Eu1680 2.372 . S
O1735 C1754 1.257 . S
C1736 O1725 1.249 . S
C1736 O1726 1.264 . S
C1737 C1740 1.382 . S
C1737 C1742 1.390 . S
C1737 C1744 1.506 . S
C1738 C1739 1.398 . S
C1738 C1742 1.392 . S
C1739 C1738 1.398 . S
C1739 C1741 1.372 . S
C1739 H1756 0.931 . S
C1740 C1737 1.382 . S
C1740 C1741 1.390 . S
C1740 H1757 0.931 . S
C1741 C1739 1.372 . S
C1741 C1740 1.390 . S
C1741 H1758 0.929 . S
C1742 C1737 1.390 . S
C1742 C1738 1.392 . S
C1742 H1759 0.930 . S
C1743 O1728 1.255 . S
C1743 O1729 1.257 . S
C1744 Eu1680 2.787 . S
C1744 O1724 1.252 . S
C1744 O1727 1.268 . S
C1744 C1737 1.506 . S
C1745 C1712 1.439 . S
C1745 H1722 0.931 . S
C1745 C1746 1.374 . S
C1746 C1717 1.387 . S
C1746 H1723 0.931 . S
C1746 C1745 1.374 . S
C1747 O1731 1.249 . S
C1747 O1732 1.264 . S
C1748 C1751 1.382 . S
C1748 C1752 1.390 . S
C1748 C1755 1.506 . S
C1749 C1750 1.398 . S
C1749 C1752 1.392 . S
C1750 C1749 1.398 . S
C1750 C1753 1.372 . S
C1750 H1760 0.931 . S
C1751 C1748 1.382 . S
C1751 C1753 1.390 . S
C1751 H1761 0.931 . S
C1752 C1748 1.390 . S
C1752 C1749 1.392 . S
C1752 H1762 0.930 . S
C1753 C1750 1.372 . S
C1753 C1751 1.390 . S
C1753 H1763 0.929 . S
C1754 O1734 1.255 . S
C1754 O1735 1.257 . S
C1755 Eu1691 2.787 . S
C1755 O1730 1.252 . S
C1755 O1733 1.268 . S
C1755 C1748 1.506 . S
H1756 C1739 0.931 . S
H1757 C1740 0.931 . S
H1758 C1741 0.929 . S
H1759 C1742 0.930 . S
H1760 C1750 0.931 . S
H1761 C1751 0.931 . S
H1762 C1752 0.930 . S
H1763 C1753 0.929 . S
Eu1764 N1793 2.600 . S
Eu1764 N1799 2.562 . S
Eu1764 O1808 2.462 . S
Eu1764 O1809 2.373 . S
Eu1764 O1811 2.432 . S
Eu1764 O1812 2.291 . S
Eu1764 O1816 2.335 . S
Eu1764 O1819 2.372 . S
Eu1764 C1828 2.787 . S
C1765 N1766 1.365 . S
C1765 C1768 1.405 . S
C1765 C1772 1.448 . S
N1766 C1765 1.365 . S
N1766 C1769 1.319 . S
N1766 Eu1775 2.600 . S
C1767 C1769 1.397 . S
C1767 C1770 1.367 . S
C1767 H1787 0.931 . S
C1768 C1765 1.405 . S
C1768 C1770 1.403 . S
C1768 C1774 1.439 1_545 S
C1769 N1766 1.319 . S
C1769 C1767 1.397 . S
C1769 H1780 0.930 . S
C1770 C1767 1.367 . S
C1770 C1768 1.403 . S
C1770 H1791 0.929 . S
C1771 C1772 1.430 1_565 S
C1771 C1773 1.387 . S
C1771 C1777 1.404 . S
C1772 C1765 1.448 . S
C1772 C1771 1.430 1_545 S
C1772 N1776 1.351 . S
C1773 C1771 1.387 . S
C1773 C1774 1.374 . S
C1773 H1788 0.931 . S
C1774 C1768 1.439 1_565 S
C1774 C1773 1.374 . S
C1774 H1789 0.931 . S
Eu1775 N1766 2.600 . S
Eu1775 N1776 2.562 . S
Eu1775 O1810 2.335 . S
Eu1775 O1813 2.372 . S
Eu1775 O1814 2.462 . S
Eu1775 O1815 2.373 . S
Eu1775 O1817 2.432 . S
Eu1775 O1818 2.291 . S
Eu1775 C1839 2.787 . S
N1776 C1772 1.351 . S
N1776 Eu1775 2.562 . S
N1776 C1778 1.325 . S
C1777 C1771 1.404 . S
C1777 C1779 1.366 . S
C1777 H1785 0.930 . S
C1778 N1776 1.325 . S
C1778 C1779 1.416 1_545 S
C1778 H1784 0.929 . S
C1779 C1777 1.366 . S
C1779 C1778 1.416 1_565 S
C1779 H1781 0.930 . S
H1780 C1769 0.930 . S
H1781 C1779 0.930 . S
H1782 C1797 0.930 . S
H1783 C1804 0.930 . S
H1784 C1778 0.929 . S
H1785 C1777 0.930 . S
H1786 C1800 0.929 . S
H1787 C1767 0.931 . S
H1788 C1773 0.931 . S
H1789 C1774 0.931 . S
H1790 C1795 0.931 . S
H1791 C1770 0.929 . S
H1792 C1803 0.930 . S
N1793 Eu1764 2.600 . S
N1793 C1794 1.365 . S
N1793 C1797 1.319 . S
C1794 N1793 1.365 . S
C1794 C1796 1.405 . S
C1794 C1802 1.448 . S
C1795 H1790 0.931 . S
C1795 C1797 1.397 . S
C1795 C1798 1.367 . S
C1796 C1794 1.405 . S
C1796 C1798 1.403 . S
C1796 C1829 1.439 . S
C1797 H1782 0.930 . S
C1797 N1793 1.319 . S
C1797 C1795 1.397 . S
C1798 C1795 1.367 . S
C1798 C1796 1.403 . S
C1798 H1805 0.929 . S
N1799 Eu1764 2.562 . S
N1799 C1800 1.325 . S
N1799 C1802 1.351 . S
C1800 H1786 0.929 . S
C1800 N1799 1.325 . S
C1800 C1804 1.416 . S
C1801 C1802 1.430 . S
C1801 C1803 1.404 . S
C1801 C1830 1.387 . S
C1802 C1794 1.448 . S
C1802 N1799 1.351 . S
C1802 C1801 1.430 . S
C1803 H1792 0.930 . S
C1803 C1801 1.404 . S
C1803 C1804 1.366 . S
C1804 H1783 0.930 . S
C1804 C1800 1.416 . S
C1804 C1803 1.366 . S
H1805 C1798 0.929 . S
H1806 C1829 0.931 . S
H1807 C1830 0.931 . S
O1808 Eu1764 2.462 . S
O1808 C1828 1.252 . S
O1809 Eu1764 2.373 . S
O1809 C1820 1.249 1_556 S
O1810 Eu1775 2.335 . S
O1810 C1820 1.264 . S
O1811 Eu1764 2.432 . S
O1811 C1828 1.268 . S
O1812 Eu1764 2.291 . S
O1812 C1827 1.255 . S
O1813 Eu1775 2.372 . S
O1813 C1827 1.257 1_554 S
O1814 Eu1775 2.462 . S
O1814 C1839 1.252 . S
O1815 Eu1775 2.373 . S
O1815 C1831 1.249 1_554 S
O1816 Eu1764 2.335 . S
O1816 C1831 1.264 . S
O1817 Eu1775 2.432 . S
O1817 C1839 1.268 . S
O1818 Eu1775 2.291 . S
O1818 C1838 1.255 . S
O1819 Eu1764 2.372 . S
O1819 C1838 1.257 1_556 S
C1820 O1809 1.249 1_554 S
C1820 O1810 1.264 . S
C1821 C1824 1.382 . S
C1821 C1826 1.390 . S
C1821 C1828 1.506 . S
C1822 C1823 1.398 . S
C1822 C1826 1.392 . S
C1823 C1822 1.398 . S
C1823 C1825 1.372 . S
C1823 H1840 0.931 . S
C1824 C1821 1.382 . S
C1824 C1825 1.390 . S
C1824 H1841 0.931 . S
C1825 C1823 1.372 . S
C1825 C1824 1.390 . S
C1825 H1842 0.929 . S
C1826 C1821 1.390 . S
C1826 C1822 1.392 . S
C1826 H1843 0.930 . S
C1827 O1812 1.255 . S
C1827 O1813 1.257 1_556 S
C1828 Eu1764 2.787 . S
C1828 O1808 1.252 . S
C1828 O1811 1.268 . S
C1828 C1821 1.506 . S
C1829 C1796 1.439 . S
C1829 H1806 0.931 . S
C1829 C1830 1.374 . S
C1830 C1801 1.387 . S
C1830 H1807 0.931 . S
C1830 C1829 1.374 . S
C1831 O1815 1.249 1_556 S
C1831 O1816 1.264 . S
C1832 C1835 1.382 . S
C1832 C1836 1.390 . S
C1832 C1839 1.506 . S
C1833 C1834 1.398 . S
C1833 C1836 1.392 . S
C1834 C1833 1.398 . S
C1834 C1837 1.372 . S
C1834 H1844 0.931 . S
C1835 C1832 1.382 . S
C1835 C1837 1.390 . S
C1835 H1845 0.931 . S
C1836 C1832 1.390 . S
C1836 C1833 1.392 . S
C1836 H1846 0.930 . S
C1837 C1834 1.372 . S
C1837 C1835 1.390 . S
C1837 H1847 0.929 . S
C1838 O1818 1.255 . S
C1838 O1819 1.257 1_554 S
C1839 Eu1775 2.787 . S
C1839 O1814 1.252 . S
C1839 O1817 1.268 . S
C1839 C1832 1.506 . S
H1840 C1823 0.931 . S
H1841 C1824 0.931 . S
H1842 C1825 0.929 . S
H1843 C1826 0.930 . S
H1844 C1834 0.931 . S
H1845 C1835 0.931 . S
H1846 C1836 0.930 . S
H1847 C1837 0.929 . S
Eu1848 N1877 2.600 . S
Eu1848 N1883 2.562 . S
Eu1848 O1892 2.462 . S
Eu1848 O1893 2.373 . S
Eu1848 O1895 2.432 . S
Eu1848 O1896 2.291 . S
Eu1848 O1900 2.335 . S
Eu1848 O1903 2.372 . S
Eu1848 C1912 2.787 . S
C1849 N1850 1.365 . S
C1849 C1852 1.405 . S
C1849 C1856 1.448 . S
N1850 C1849 1.365 . S
N1850 C1853 1.319 . S
N1850 Eu1859 2.600 . S
C1851 C1853 1.397 . S
C1851 C1854 1.367 . S
C1851 H1871 0.931 1_545 S
C1852 C1849 1.405 . S
C1852 C1854 1.403 . S
C1852 C1858 1.439 1_655 S
C1853 N1850 1.319 . S
C1853 C1851 1.397 . S
C1853 H1864 0.930 . S
C1854 C1851 1.367 . S
C1854 C1852 1.403 . S
C1854 H1875 0.929 . S
C1855 C1856 1.430 1_455 S
C1855 C1857 1.387 . S
C1855 C1861 1.404 . S
C1856 C1849 1.448 . S
C1856 C1855 1.430 1_655 S
C1856 N1860 1.351 . S
C1857 C1855 1.387 . S
C1857 C1858 1.374 . S
C1857 H1872 0.931 . S
C1858 C1852 1.439 1_455 S
C1858 C1857 1.374 . S
C1858 H1873 0.931 . S
Eu1859 N1850 2.600 . S
Eu1859 N1860 2.562 . S
Eu1859 O1894 2.335 . S
Eu1859 O1897 2.372 . S
Eu1859 O1898 2.462 . S
Eu1859 O1899 2.373 . S
Eu1859 O1901 2.432 . S
Eu1859 O1902 2.291 . S
Eu1859 C1923 2.787 . S
N1860 C1856 1.351 . S
N1860 Eu1859 2.562 . S
N1860 C1862 1.325 . S
C1861 C1855 1.404 . S
C1861 C1863 1.366 . S
C1861 H1869 0.930 . S
C1862 N1860 1.325 . S
C1862 C1863 1.416 1_655 S
C1862 H1868 0.929 . S
C1863 C1861 1.366 . S
C1863 C1862 1.416 1_455 S
C1863 H1865 0.930 . S
H1864 C1853 0.930 . S
H1865 C1863 0.930 . S
H1866 C1881 0.930 . S
H1867 C1888 0.930 1_565 S
H1868 C1862 0.929 . S
H1869 C1861 0.930 . S
H1870 C1884 0.929 . S
H1871 C1851 0.931 1_565 S
H1872 C1857 0.931 . S
H1873 C1858 0.931 . S
H1874 C1879 0.931 . S
H1875 C1854 0.929 . S
H1876 C1887 0.930 . S
N1877 Eu1848 2.600 . S
N1877 C1878 1.365 . S
N1877 C1881 1.319 . S
C1878 N1877 1.365 . S
C1878 C1880 1.405 . S
C1878 C1886 1.448 . S
C1879 H1874 0.931 . S
C1879 C1881 1.397 . S
C1879 C1882 1.367 . S
C1880 C1878 1.405 . S
C1880 C1882 1.403 . S
C1880 C1913 1.439 . S
C1881 H1866 0.930 . S
C1881 N1877 1.319 . S
C1881 C1879 1.397 . S
C1882 C1879 1.367 . S
C1882 C1880 1.403 . S
C1882 H1889 0.929 . S
N1883 Eu1848 2.562 . S
N1883 C1884 1.325 . S
N1883 C1886 1.351 . S
C1884 H1870 0.929 . S
C1884 N1883 1.325 . S
C1884 C1888 1.416 . S
C1885 C1886 1.430 . S
C1885 C1887 1.404 . S
C1885 C1914 1.387 . S
C1886 C1878 1.448 . S
C1886 N1883 1.351 . S
C1886 C1885 1.430 . S
C1887 H1876 0.930 . S
C1887 C1885 1.404 . S
C1887 C1888 1.366 . S
C1888 H1867 0.930 1_545 S
C1888 C1884 1.416 . S
C1888 C1887 1.366 . S
H1889 C1882 0.929 . S
H1890 C1913 0.931 . S
H1891 C1914 0.931 . S
O1892 Eu1848 2.462 . S
O1892 C1912 1.252 . S
O1893 Eu1848 2.373 . S
O1893 C1904 1.249 1_556 S
O1894 Eu1859 2.335 . S
O1894 C1904 1.264 . S
O1895 Eu1848 2.432 . S
O1895 C1912 1.268 . S
O1896 Eu1848 2.291 . S
O1896 C1911 1.255 . S
O1897 Eu1859 2.372 . S
O1897 C1911 1.257 1_554 S
O1898 Eu1859 2.462 . S
O1898 C1923 1.252 . S
O1899 Eu1859 2.373 . S
O1899 C1915 1.249 1_554 S
O1900 Eu1848 2.335 . S
O1900 C1915 1.264 . S
O1901 Eu1859 2.432 . S
O1901 C1923 1.268 . S
O1902 Eu1859 2.291 . S
O1902 C1922 1.255 . S
O1903 Eu1848 2.372 . S
O1903 C1922 1.257 1_556 S
C1904 O1893 1.249 1_554 S
C1904 O1894 1.264 . S
C1905 C1908 1.382 . S
C1905 C1910 1.390 . S
C1905 C1912 1.506 . S
C1906 C1907 1.398 . S
C1906 C1910 1.392 . S
C1907 C1906 1.398 . S
C1907 C1909 1.372 . S
C1907 H1924 0.931 . S
C1908 C1905 1.382 . S
C1908 C1909 1.390 . S
C1908 H1925 0.931 . S
C1909 C1907 1.372 . S
C1909 C1908 1.390 . S
C1909 H1926 0.929 . S
C1910 C1905 1.390 . S
C1910 C1906 1.392 . S
C1910 H1927 0.930 . S
C1911 O1896 1.255 . S
C1911 O1897 1.257 1_556 S
C1912 Eu1848 2.787 . S
C1912 O1892 1.252 . S
C1912 O1895 1.268 . S
C1912 C1905 1.506 . S
C1913 C1880 1.439 . S
C1913 H1890 0.931 . S
C1913 C1914 1.374 . S
C1914 C1885 1.387 . S
C1914 H1891 0.931 . S
C1914 C1913 1.374 . S
C1915 O1899 1.249 1_556 S
C1915 O1900 1.264 . S
C1916 C1919 1.382 . S
C1916 C1920 1.390 . S
C1916 C1923 1.506 . S
C1917 C1918 1.398 . S
C1917 C1920 1.392 . S
C1918 C1917 1.398 . S
C1918 C1921 1.372 . S
C1918 H1928 0.931 . S
C1919 C1916 1.382 . S
C1919 C1921 1.390 . S
C1919 H1929 0.931 . S
C1920 C1916 1.390 . S
C1920 C1917 1.392 . S
C1920 H1930 0.930 . S
C1921 C1918 1.372 . S
C1921 C1919 1.390 . S
C1921 H1931 0.929 . S
C1922 O1902 1.255 . S
C1922 O1903 1.257 1_554 S
C1923 Eu1859 2.787 . S
C1923 O1898 1.252 . S
C1923 O1901 1.268 . S
C1923 C1916 1.506 . S
H1924 C1907 0.931 . S
H1925 C1908 0.931 . S
H1926 C1909 0.929 . S
H1927 C1910 0.930 . S
H1928 C1918 0.931 . S
H1929 C1919 0.931 . S
H1930 C1920 0.930 . S
H1931 C1921 0.929 . S
Eu1932 N1961 2.600 . S
Eu1932 N1967 2.562 . S
Eu1932 O1976 2.462 . S
Eu1932 O1977 2.373 . S
Eu1932 O1979 2.432 . S
Eu1932 O1980 2.291 . S
Eu1932 O1984 2.335 . S
Eu1932 O1987 2.372 . S
Eu1932 C1996 2.787 . S
C1933 N1934 1.365 . S
C1933 C1936 1.405 . S
C1933 C1940 1.448 . S
N1934 C1933 1.365 . S
N1934 C1937 1.319 . S
N1934 Eu1943 2.600 . S
C1935 C1937 1.397 . S
C1935 C1938 1.367 . S
C1935 H1955 0.931 1_655 S
C1936 C1933 1.405 . S
C1936 C1938 1.403 . S
C1936 C1942 1.439 . S
C1937 N1934 1.319 . S
C1937 C1935 1.397 . S
C1937 H1948 0.930 . S
C1938 C1935 1.367 . S
C1938 C1936 1.403 . S
C1938 H1959 0.929 . S
C1939 C1940 1.430 . S
C1939 C1941 1.387 . S
C1939 C1945 1.404 . S
C1940 C1933 1.448 . S
C1940 C1939 1.430 . S
C1940 N1944 1.351 . S
C1941 C1939 1.387 . S
C1941 C1942 1.374 . S
C1941 H1956 0.931 . S
C1942 C1936 1.439 . S
C1942 C1941 1.374 . S
C1942 H1957 0.931 . S
Eu1943 N1934 2.600 . S
Eu1943 N1944 2.562 . S
Eu1943 O1978 2.335 . S
Eu1943 O1981 2.372 . S
Eu1943 O1982 2.462 . S
Eu1943 O1983 2.373 . S
Eu1943 O1985 2.432 . S
Eu1943 O1986 2.291 . S
Eu1943 C2007 2.787 . S
N1944 C1940 1.351 . S
N1944 Eu1943 2.562 . S
N1944 C1946 1.325 . S
C1945 C1939 1.404 . S
C1945 C1947 1.366 . S
C1945 H1953 0.930 . S
C1946 N1944 1.325 . S
C1946 C1947 1.416 . S
C1946 H1952 0.929 . S
C1947 C1945 1.366 . S
C1947 C1946 1.416 . S
C1947 H1949 0.930 . S
H1948 C1937 0.930 . S
H1949 C1947 0.930 . S
H1950 C1965 0.930 . S
H1951 C1972 0.930 1_455 S
H1952 C1946 0.929 . S
H1953 C1945 0.930 . S
H1954 C1968 0.929 . S
H1955 C1935 0.931 1_455 S
H1956 C1941 0.931 . S
H1957 C1942 0.931 . S
H1958 C1963 0.931 . S
H1959 C1938 0.929 . S
H1960 C1971 0.930 . S
N1961 Eu1932 2.600 . S
N1961 C1962 1.365 . S
N1961 C1965 1.319 . S
C1962 N1961 1.365 . S
C1962 C1964 1.405 . S
C1962 C1970 1.448 . S
C1963 H1958 0.931 . S
C1963 C1965 1.397 . S
C1963 C1966 1.367 . S
C1964 C1962 1.405 . S
C1964 C1966 1.403 . S
C1964 C1997 1.439 . S
C1965 H1950 0.930 . S
C1965 N1961 1.319 . S
C1965 C1963 1.397 . S
C1966 C1963 1.367 . S
C1966 C1964 1.403 . S
C1966 H1973 0.929 . S
N1967 Eu1932 2.562 . S
N1967 C1968 1.325 . S
N1967 C1970 1.351 . S
C1968 H1954 0.929 . S
C1968 N1967 1.325 . S
C1968 C1972 1.416 . S
C1969 C1970 1.430 . S
C1969 C1971 1.404 . S
C1969 C1998 1.387 . S
C1970 C1962 1.448 . S
C1970 N1967 1.351 . S
C1970 C1969 1.430 . S
C1971 H1960 0.930 . S
C1971 C1969 1.404 . S
C1971 C1972 1.366 . S
C1972 H1951 0.930 1_655 S
C1972 C1968 1.416 . S
C1972 C1971 1.366 . S
H1973 C1966 0.929 . S
H1974 C1997 0.931 . S
H1975 C1998 0.931 . S
O1976 Eu1932 2.462 . S
O1976 C1996 1.252 . S
O1977 Eu1932 2.373 . S
O1977 C1988 1.249 1_556 S
O1978 Eu1943 2.335 . S
O1978 C1988 1.264 . S
O1979 Eu1932 2.432 . S
O1979 C1996 1.268 . S
O1980 Eu1932 2.291 . S
O1980 C1995 1.255 . S
O1981 Eu1943 2.372 . S
O1981 C1995 1.257 1_554 S
O1982 Eu1943 2.462 . S
O1982 C2007 1.252 . S
O1983 Eu1943 2.373 . S
O1983 C1999 1.249 1_554 S
O1984 Eu1932 2.335 . S
O1984 C1999 1.264 . S
O1985 Eu1943 2.432 . S
O1985 C2007 1.268 . S
O1986 Eu1943 2.291 . S
O1986 C2006 1.255 . S
O1987 Eu1932 2.372 . S
O1987 C2006 1.257 1_556 S
C1988 O1977 1.249 1_554 S
C1988 O1978 1.264 . S
C1989 C1992 1.382 . S
C1989 C1994 1.390 . S
C1989 C1996 1.506 . S
C1990 C1991 1.398 . S
C1990 C1994 1.392 . S
C1991 C1990 1.398 . S
C1991 C1993 1.372 . S
C1991 H2008 0.931 . S
C1992 C1989 1.382 . S
C1992 C1993 1.390 . S
C1992 H2009 0.931 . S
C1993 C1991 1.372 . S
C1993 C1992 1.390 . S
C1993 H2010 0.929 . S
C1994 C1989 1.390 . S
C1994 C1990 1.392 . S
C1994 H2011 0.930 . S
C1995 O1980 1.255 . S
C1995 O1981 1.257 1_556 S
C1996 Eu1932 2.787 . S
C1996 O1976 1.252 . S
C1996 O1979 1.268 . S
C1996 C1989 1.506 . S
C1997 C1964 1.439 . S
C1997 H1974 0.931 . S
C1997 C1998 1.374 . S
C1998 C1969 1.387 . S
C1998 H1975 0.931 . S
C1998 C1997 1.374 . S
C1999 O1983 1.249 1_556 S
C1999 O1984 1.264 . S
C2000 C2003 1.382 . S
C2000 C2004 1.390 . S
C2000 C2007 1.506 . S
C2001 C2002 1.398 . S
C2001 C2004 1.392 . S
C2002 C2001 1.398 . S
C2002 C2005 1.372 . S
C2002 H2012 0.931 . S
C2003 C2000 1.382 . S
C2003 C2005 1.390 . S
C2003 H2013 0.931 . S
C2004 C2000 1.390 . S
C2004 C2001 1.392 . S
C2004 H2014 0.930 . S
C2005 C2002 1.372 . S
C2005 C2003 1.390 . S
C2005 H2015 0.929 . S
C2006 O1986 1.255 . S
C2006 O1987 1.257 1_554 S
C2007 Eu1943 2.787 . S
C2007 O1982 1.252 . S
C2007 O1985 1.268 . S
C2007 C2000 1.506 . S
H2008 C1991 0.931 . S
H2009 C1992 0.931 . S
H2010 C1993 0.929 . S
H2011 C1994 0.930 . S
H2012 C2002 0.931 . S
H2013 C2003 0.931 . S
H2014 C2004 0.930 . S
H2015 C2005 0.929 . S
Eu2016 N2045 2.600 1_565 S
Eu2016 N2051 2.562 . S
Eu2016 O2060 2.462 . S
Eu2016 O2061 2.373 1_565 S
Eu2016 O2063 2.432 . S
Eu2016 O2064 2.291 . S
Eu2016 O2068 2.335 . S
Eu2016 O2071 2.372 1_565 S
Eu2016 C2080 2.787 . S
C2017 N2018 1.365 . S
C2017 C2020 1.405 . S
C2017 C2024 1.448 . S
N2018 C2017 1.365 . S
N2018 C2021 1.319 . S
N2018 Eu2027 2.600 . S
C2019 C2021 1.397 . S
C2019 C2022 1.367 . S
C2019 H2039 0.931 . S
C2020 C2017 1.405 . S
C2020 C2022 1.403 . S
C2020 C2026 1.439 . S
C2021 N2018 1.319 . S
C2021 C2019 1.397 . S
C2021 H2032 0.930 . S
C2022 C2019 1.367 . S
C2022 C2020 1.403 . S
C2022 H2043 0.929 . S
C2023 C2024 1.430 . S
C2023 C2025 1.387 . S
C2023 C2029 1.404 . S
C2024 C2017 1.448 . S
C2024 C2023 1.430 . S
C2024 N2028 1.351 . S
C2025 C2023 1.387 . S
C2025 C2026 1.374 . S
C2025 H2040 0.931 . S
C2026 C2020 1.439 . S
C2026 C2025 1.374 . S
C2026 H2041 0.931 . S
Eu2027 N2018 2.600 . S
Eu2027 N2028 2.562 . S
Eu2027 O2062 2.335 . S
Eu2027 O2065 2.372 . S
Eu2027 O2066 2.462 . S
Eu2027 O2067 2.373 . S
Eu2027 O2069 2.432 . S
Eu2027 O2070 2.291 . S
Eu2027 C2091 2.787 . S
N2028 C2024 1.351 . S
N2028 Eu2027 2.562 . S
N2028 C2030 1.325 . S
C2029 C2023 1.404 . S
C2029 C2031 1.366 . S
C2029 H2037 0.930 . S
C2030 N2028 1.325 . S
C2030 C2031 1.416 . S
C2030 H2036 0.929 . S
C2031 C2029 1.366 . S
C2031 C2030 1.416 . S
C2031 H2033 0.930 . S
H2032 C2021 0.930 . S
H2033 C2031 0.930 . S
H2034 C2049 0.930 . S
H2035 C2056 0.930 . S
H2036 C2030 0.929 . S
H2037 C2029 0.930 . S
H2038 C2052 0.929 . S
H2039 C2019 0.931 . S
H2040 C2025 0.931 . S
H2041 C2026 0.931 . S
H2042 C2047 0.931 . S
H2043 C2022 0.929 . S
H2044 C2055 0.930 . S
N2045 Eu2016 2.600 1_545 S
N2045 C2046 1.365 . S
N2045 C2049 1.319 . S
C2046 N2045 1.365 . S
C2046 C2048 1.405 . S
C2046 C2054 1.448 . S
C2047 H2042 0.931 . S
C2047 C2049 1.397 . S
C2047 C2050 1.367 . S
C2048 C2046 1.405 . S
C2048 C2050 1.403 . S
C2048 C2081 1.439 . S
C2049 H2034 0.930 . S
C2049 N2045 1.319 . S
C2049 C2047 1.397 . S
C2050 C2047 1.367 . S
C2050 C2048 1.403 . S
C2050 H2057 0.929 . S
N2051 Eu2016 2.562 . S
N2051 C2052 1.325 . S
N2051 C2054 1.351 1_565 S
C2052 H2038 0.929 . S
C2052 N2051 1.325 . S
C2052 C2056 1.416 . S
C2053 C2054 1.430 . S
C2053 C2055 1.404 . S
C2053 C2082 1.387 . S
C2054 C2046 1.448 . S
C2054 N2051 1.351 1_545 S
C2054 C2053 1.430 . S
C2055 H2044 0.930 . S
C2055 C2053 1.404 . S
C2055 C2056 1.366 1_545 S
C2056 H2035 0.930 . S
C2056 C2052 1.416 . S
C2056 C2055 1.366 1_565 S
H2057 C2050 0.929 . S
H2058 C2081 0.931 . S
H2059 C2082 0.931 . S
O2060 Eu2016 2.462 . S
O2060 C2080 1.252 . S
O2061 Eu2016 2.373 1_545 S
O2061 C2072 1.249 . S
O2062 Eu2027 2.335 . S
O2062 C2072 1.264 1_565 S
O2063 Eu2016 2.432 . S
O2063 C2080 1.268 . S
O2064 Eu2016 2.291 . S
O2064 C2079 1.255 . S
O2065 Eu2027 2.372 . S
O2065 C2079 1.257 . S
O2066 Eu2027 2.462 . S
O2066 C2091 1.252 . S
O2067 Eu2027 2.373 . S
O2067 C2083 1.249 . S
O2068 Eu2016 2.335 . S
O2068 C2083 1.264 . S
O2069 Eu2027 2.432 . S
O2069 C2091 1.268 . S
O2070 Eu2027 2.291 . S
O2070 C2090 1.255 1_565 S
O2071 Eu2016 2.372 1_545 S
O2071 C2090 1.257 . S
C2072 O2061 1.249 . S
C2072 O2062 1.264 1_545 S
C2073 C2076 1.382 . S
C2073 C2078 1.390 . S
C2073 C2080 1.506 . S
C2074 C2075 1.398 . S
C2074 C2078 1.392 . S
C2075 C2074 1.398 . S
C2075 C2077 1.372 . S
C2075 H2092 0.931 . S
C2076 C2073 1.382 . S
C2076 C2077 1.390 . S
C2076 H2093 0.931 . S
C2077 C2075 1.372 . S
C2077 C2076 1.390 . S
C2077 H2094 0.929 . S
C2078 C2073 1.390 . S
C2078 C2074 1.392 . S
C2078 H2095 0.930 . S
C2079 O2064 1.255 . S
C2079 O2065 1.257 . S
C2080 Eu2016 2.787 . S
C2080 O2060 1.252 . S
C2080 O2063 1.268 . S
C2080 C2073 1.506 . S
C2081 C2048 1.439 . S
C2081 H2058 0.931 . S
C2081 C2082 1.374 . S
C2082 C2053 1.387 . S
C2082 H2059 0.931 . S
C2082 C2081 1.374 . S
C2083 O2067 1.249 . S
C2083 O2068 1.264 . S
C2084 C2087 1.382 . S
C2084 C2088 1.390 1_565 S
C2084 C2091 1.506 . S
C2085 C2086 1.406 . S
C2085 C2088 1.392 . S
C2086 C2085 1.406 . S
C2086 C2089 1.363 1_545 S
C2086 H2096 0.932 . S
C2087 C2084 1.382 . S
C2087 C2089 1.390 . S
C2087 H2097 0.931 . S
C2088 C2084 1.390 1_545 S
C2088 C2085 1.392 . S
C2088 H2098 0.930 . S
C2089 C2086 1.363 1_565 S
C2089 C2087 1.390 . S
C2089 H2099 0.929 . S
C2090 O2070 1.255 1_545 S
C2090 O2071 1.257 . S
C2091 Eu2027 2.787 . S
C2091 O2066 1.252 . S
C2091 O2069 1.268 . S
C2091 C2084 1.506 . S
H2092 C2075 0.931 . S
H2093 C2076 0.931 . S
H2094 C2077 0.929 . S
H2095 C2078 0.930 . S
H2096 C2086 0.932 . S
H2097 C2087 0.931 . S
H2098 C2088 0.930 . S
H2099 C2089 0.929 . S
Eu2100 N2129 2.600 1_455 S
Eu2100 N2135 2.562 . S
Eu2100 O2144 2.462 . S
Eu2100 O2145 2.373 1_455 S
Eu2100 O2147 2.432 . S
Eu2100 O2148 2.291 . S
Eu2100 O2152 2.335 . S
Eu2100 O2155 2.372 1_455 S
Eu2100 C2164 2.787 . S
C2101 N2102 1.365 . S
C2101 C2104 1.405 . S
C2101 C2108 1.448 . S
N2102 C2101 1.365 . S
N2102 C2105 1.319 . S
N2102 Eu2111 2.600 . S
C2103 C2105 1.397 . S
C2103 C2106 1.367 . S
C2103 H2123 0.931 . S
C2104 C2101 1.405 . S
C2104 C2106 1.403 . S
C2104 C2110 1.439 . S
C2105 N2102 1.319 . S
C2105 C2103 1.397 . S
C2105 H2116 0.930 . S
C2106 C2103 1.367 . S
C2106 C2104 1.403 . S
C2106 H2127 0.929 . S
C2107 C2108 1.430 . S
C2107 C2109 1.387 . S
C2107 C2113 1.404 . S
C2108 C2101 1.448 . S
C2108 C2107 1.430 . S
C2108 N2112 1.351 . S
C2109 C2107 1.387 . S
C2109 C2110 1.374 . S
C2109 H2124 0.931 . S
C2110 C2104 1.439 . S
C2110 C2109 1.374 . S
C2110 H2125 0.931 . S
Eu2111 N2102 2.600 . S
Eu2111 N2112 2.562 . S
Eu2111 O2146 2.335 . S
Eu2111 O2149 2.372 . S
Eu2111 O2150 2.462 . S
Eu2111 O2151 2.373 . S
Eu2111 O2153 2.432 . S
Eu2111 O2154 2.291 . S
Eu2111 C2175 2.787 . S
N2112 C2108 1.351 . S
N2112 Eu2111 2.562 . S
N2112 C2114 1.325 . S
C2113 C2107 1.404 . S
C2113 C2115 1.366 . S
C2113 H2121 0.930 . S
C2114 N2112 1.325 . S
C2114 C2115 1.416 . S
C2114 H2120 0.929 . S
C2115 C2113 1.366 . S
C2115 C2114 1.416 . S
C2115 H2117 0.930 . S
H2116 C2105 0.930 . S
H2117 C2115 0.930 . S
H2118 C2133 0.930 . S
H2119 C2140 0.930 . S
H2120 C2114 0.929 . S
H2121 C2113 0.930 . S
H2122 C2136 0.929 . S
H2123 C2103 0.931 . S
H2124 C2109 0.931 . S
H2125 C2110 0.931 . S
H2126 C2131 0.931 . S
H2127 C2106 0.929 . S
H2128 C2139 0.930 . S
N2129 Eu2100 2.600 1_655 S
N2129 C2130 1.365 . S
N2129 C2133 1.319 . S
C2130 N2129 1.365 . S
C2130 C2132 1.405 . S
C2130 C2138 1.448 . S
C2131 H2126 0.931 . S
C2131 C2133 1.397 . S
C2131 C2134 1.367 . S
C2132 C2130 1.405 . S
C2132 C2134 1.403 . S
C2132 C2165 1.439 . S
C2133 H2118 0.930 . S
C2133 N2129 1.319 . S
C2133 C2131 1.397 . S
C2134 C2131 1.367 . S
C2134 C2132 1.403 . S
C2134 H2141 0.929 . S
N2135 Eu2100 2.562 . S
N2135 C2136 1.325 . S
N2135 C2138 1.351 1_455 S
C2136 H2122 0.929 . S
C2136 N2135 1.325 . S
C2136 C2140 1.416 . S
C2137 C2138 1.430 . S
C2137 C2139 1.404 . S
C2137 C2166 1.387 . S
C2138 C2130 1.448 . S
C2138 N2135 1.351 1_655 S
C2138 C2137 1.430 . S
C2139 H2128 0.930 . S
C2139 C2137 1.404 . S
C2139 C2140 1.366 1_655 S
C2140 H2119 0.930 . S
C2140 C2136 1.416 . S
C2140 C2139 1.366 1_455 S
H2141 C2134 0.929 . S
H2142 C2165 0.931 . S
H2143 C2166 0.931 . S
O2144 Eu2100 2.462 . S
O2144 C2164 1.252 . S
O2145 Eu2100 2.373 1_655 S
O2145 C2156 1.249 . S
O2146 Eu2111 2.335 . S
O2146 C2156 1.264 1_455 S
O2147 Eu2100 2.432 . S
O2147 C2164 1.268 . S
O2148 Eu2100 2.291 . S
O2148 C2163 1.255 . S
O2149 Eu2111 2.372 . S
O2149 C2163 1.257 . S
O2150 Eu2111 2.462 . S
O2150 C2175 1.252 . S
O2151 Eu2111 2.373 . S
O2151 C2167 1.249 . S
O2152 Eu2100 2.335 . S
O2152 C2167 1.264 . S
O2153 Eu2111 2.432 . S
O2153 C2175 1.268 . S
O2154 Eu2111 2.291 . S
O2154 C2174 1.255 1_455 S
O2155 Eu2100 2.372 1_655 S
O2155 C2174 1.257 . S
C2156 O2145 1.249 . S
C2156 O2146 1.264 1_655 S
C2157 C2160 1.382 . S
C2157 C2162 1.390 . S
C2157 C2164 1.506 . S
C2158 C2159 1.398 . S
C2158 C2162 1.392 . S
C2159 C2158 1.398 . S
C2159 C2161 1.372 . S
C2159 H2176 0.931 . S
C2160 C2157 1.382 . S
C2160 C2161 1.390 . S
C2160 H2177 0.931 . S
C2161 C2159 1.372 . S
C2161 C2160 1.390 . S
C2161 H2178 0.929 . S
C2162 C2157 1.390 . S
C2162 C2158 1.392 . S
C2162 H2179 0.930 . S
C2163 O2148 1.255 . S
C2163 O2149 1.257 . S
C2164 Eu2100 2.787 . S
C2164 O2144 1.252 . S
C2164 O2147 1.268 . S
C2164 C2157 1.506 . S
C2165 C2132 1.439 . S
C2165 H2142 0.931 . S
C2165 C2166 1.374 . S
C2166 C2137 1.387 . S
C2166 H2143 0.931 . S
C2166 C2165 1.374 . S
C2167 O2151 1.249 . S
C2167 O2152 1.264 . S
C2168 C2171 1.382 . S
C2168 C2172 1.390 1_455 S
C2168 C2175 1.506 . S
C2169 C2170 1.399 . S
C2169 C2172 1.392 . S
C2170 C2169 1.399 . S
C2170 C2173 1.368 1_655 S
C2170 H2180 0.934 . S
C2171 C2168 1.382 . S
C2171 C2173 1.390 . S
C2171 H2181 0.931 . S
C2172 C2168 1.390 1_655 S
C2172 C2169 1.392 . S
C2172 H2182 0.930 . S
C2173 C2170 1.368 1_455 S
C2173 C2171 1.390 . S
C2173 H2183 0.929 . S
C2174 O2154 1.255 1_655 S
C2174 O2155 1.257 . S
C2175 Eu2111 2.787 . S
C2175 O2150 1.252 . S
C2175 O2153 1.268 . S
C2175 C2168 1.506 . S
H2176 C2159 0.931 . S
H2177 C2160 0.931 . S
H2178 C2161 0.929 . S
H2179 C2162 0.930 . S
H2180 C2170 0.934 . S
H2181 C2171 0.931 . S
H2182 C2172 0.930 . S
H2183 C2173 0.929 . S
Eu2184 N2213 2.600 . S
Eu2184 N2219 2.562 . S
Eu2184 O2228 2.462 . S
Eu2184 O2229 2.373 . S
Eu2184 O2231 2.432 . S
Eu2184 O2232 2.291 . S
Eu2184 O2236 2.335 . S
Eu2184 O2239 2.372 . S
Eu2184 C2248 2.787 . S
C2185 N2186 1.365 . S
C2185 C2188 1.405 . S
C2185 C2192 1.448 . S
N2186 C2185 1.365 . S
N2186 C2189 1.319 . S
N2186 Eu2195 2.600 . S
C2187 C2189 1.397 . S
C2187 C2190 1.367 . S
C2187 H2207 0.931 . S
C2188 C2185 1.405 . S
C2188 C2190 1.403 . S
C2188 C2194 1.439 . S
C2189 N2186 1.319 . S
C2189 C2187 1.397 . S
C2189 H2200 0.930 . S
C2190 C2187 1.367 . S
C2190 C2188 1.403 . S
C2190 H2211 0.929 . S
C2191 C2192 1.430 . S
C2191 C2193 1.387 . S
C2191 C2197 1.404 . S
C2192 C2185 1.448 . S
C2192 C2191 1.430 . S
C2192 N2196 1.351 . S
C2193 C2191 1.387 . S
C2193 C2194 1.374 . S
C2193 H2208 0.931 . S
C2194 C2188 1.439 . S
C2194 C2193 1.374 . S
C2194 H2209 0.931 . S
Eu2195 N2186 2.600 . S
Eu2195 N2196 2.562 . S
Eu2195 O2230 2.335 . S
Eu2195 O2233 2.372 . S
Eu2195 O2234 2.462 . S
Eu2195 O2235 2.373 . S
Eu2195 O2237 2.432 . S
Eu2195 O2238 2.291 . S
Eu2195 C2259 2.787 . S
N2196 C2192 1.351 . S
N2196 Eu2195 2.562 . S
N2196 C2198 1.325 . S
C2197 C2191 1.404 . S
C2197 C2199 1.366 . S
C2197 H2205 0.930 . S
C2198 N2196 1.325 . S
C2198 C2199 1.416 . S
C2198 H2204 0.929 . S
C2199 C2197 1.366 . S
C2199 C2198 1.416 . S
C2199 H2201 0.930 . S
H2200 C2189 0.930 . S
H2201 C2199 0.930 . S
H2202 C2217 0.930 . S
H2203 C2224 0.930 . S
H2204 C2198 0.929 . S
H2205 C2197 0.930 . S
H2206 C2220 0.929 . S
H2207 C2187 0.931 . S
H2208 C2193 0.931 . S
H2209 C2194 0.931 . S
H2210 C2215 0.931 . S
H2211 C2190 0.929 . S
H2212 C2223 0.930 . S
N2213 Eu2184 2.600 . S
N2213 C2214 1.365 . S
N2213 C2217 1.319 . S
C2214 N2213 1.365 . S
C2214 C2216 1.405 . S
C2214 C2222 1.448 . S
C2215 H2210 0.931 . S
C2215 C2217 1.397 . S
C2215 C2218 1.367 . S
C2216 C2214 1.405 . S
C2216 C2218 1.403 . S
C2216 C2249 1.439 . S
C2217 H2202 0.930 . S
C2217 N2213 1.319 . S
C2217 C2215 1.397 . S
C2218 C2215 1.367 . S
C2218 C2216 1.403 . S
C2218 H2225 0.929 . S
N2219 Eu2184 2.562 . S
N2219 C2220 1.325 . S
N2219 C2222 1.351 . S
C2220 H2206 0.929 . S
C2220 N2219 1.325 . S
C2220 C2224 1.416 . S
C2221 C2222 1.430 . S
C2221 C2223 1.404 . S
C2221 C2250 1.387 . S
C2222 C2214 1.448 . S
C2222 N2219 1.351 . S
C2222 C2221 1.430 . S
C2223 H2212 0.930 . S
C2223 C2221 1.404 . S
C2223 C2224 1.366 . S
C2224 H2203 0.930 . S
C2224 C2220 1.416 . S
C2224 C2223 1.366 . S
H2225 C2218 0.929 . S
H2226 C2249 0.931 . S
H2227 C2250 0.931 . S
O2228 Eu2184 2.462 . S
O2228 C2248 1.252 . S
O2229 Eu2184 2.373 . S
O2229 C2240 1.249 . S
O2230 Eu2195 2.335 . S
O2230 C2240 1.264 . S
O2231 Eu2184 2.432 . S
O2231 C2248 1.268 . S
O2232 Eu2184 2.291 . S
O2232 C2247 1.255 . S
O2233 Eu2195 2.372 . S
O2233 C2247 1.257 . S
O2234 Eu2195 2.462 . S
O2234 C2259 1.252 . S
O2235 Eu2195 2.373 . S
O2235 C2251 1.249 . S
O2236 Eu2184 2.335 . S
O2236 C2251 1.264 . S
O2237 Eu2195 2.432 . S
O2237 C2259 1.268 . S
O2238 Eu2195 2.291 . S
O2238 C2258 1.255 . S
O2239 Eu2184 2.372 . S
O2239 C2258 1.257 . S
C2240 O2229 1.249 . S
C2240 O2230 1.264 . S
C2241 C2244 1.382 . S
C2241 C2246 1.390 . S
C2241 C2248 1.506 . S
C2242 C2243 1.398 . S
C2242 C2246 1.392 . S
C2243 C2242 1.398 . S
C2243 C2245 1.372 . S
C2243 H2260 0.931 . S
C2244 C2241 1.382 . S
C2244 C2245 1.390 . S
C2244 H2261 0.931 . S
C2245 C2243 1.372 . S
C2245 C2244 1.390 . S
C2245 H2262 0.929 . S
C2246 C2241 1.390 . S
C2246 C2242 1.392 . S
C2246 H2263 0.930 . S
C2247 O2232 1.255 . S
C2247 O2233 1.257 . S
C2248 Eu2184 2.787 . S
C2248 O2228 1.252 . S
C2248 O2231 1.268 . S
C2248 C2241 1.506 . S
C2249 C2216 1.439 . S
C2249 H2226 0.931 . S
C2249 C2250 1.374 . S
C2250 C2221 1.387 . S
C2250 H2227 0.931 . S
C2250 C2249 1.374 . S
C2251 O2235 1.249 . S
C2251 O2236 1.264 . S
C2252 C2255 1.382 . S
C2252 C2256 1.390 . S
C2252 C2259 1.506 . S
C2253 C2254 1.398 . S
C2253 C2256 1.392 . S
C2254 C2253 1.398 . S
C2254 C2257 1.372 . S
C2254 H2264 0.931 . S
C2255 C2252 1.382 . S
C2255 C2257 1.390 . S
C2255 H2265 0.931 . S
C2256 C2252 1.390 . S
C2256 C2253 1.392 . S
C2256 H2266 0.930 . S
C2257 C2254 1.372 . S
C2257 C2255 1.390 . S
C2257 H2267 0.929 . S
C2258 O2238 1.255 . S
C2258 O2239 1.257 . S
C2259 Eu2195 2.787 . S
C2259 O2234 1.252 . S
C2259 O2237 1.268 . S
C2259 C2252 1.506 . S
H2260 C2243 0.931 . S
H2261 C2244 0.931 . S
H2262 C2245 0.929 . S
H2263 C2246 0.930 . S
H2264 C2254 0.931 . S
H2265 C2255 0.931 . S
H2266 C2256 0.930 . S
H2267 C2257 0.929 . S
Eu2268 N2297 2.600 . S
Eu2268 N2303 2.562 . S
Eu2268 O2312 2.462 . S
Eu2268 O2313 2.373 . S
Eu2268 O2315 2.432 . S
Eu2268 O2316 2.291 . S
Eu2268 O2320 2.335 . S
Eu2268 O2323 2.372 . S
Eu2268 C2332 2.787 . S
C2269 N2270 1.365 . S
C2269 C2272 1.405 . S
C2269 C2276 1.448 . S
N2270 C2269 1.365 . S
N2270 C2273 1.319 . S
N2270 Eu2279 2.600 . S
C2271 C2273 1.397 . S
C2271 C2274 1.367 . S
C2271 H2291 0.931 . S
C2272 C2269 1.405 . S
C2272 C2274 1.403 . S
C2272 C2278 1.439 . S
C2273 N2270 1.319 . S
C2273 C2271 1.397 . S
C2273 H2284 0.930 . S
C2274 C2271 1.367 . S
C2274 C2272 1.403 . S
C2274 H2295 0.929 . S
C2275 C2276 1.430 . S
C2275 C2277 1.387 . S
C2275 C2281 1.404 . S
C2276 C2269 1.448 . S
C2276 C2275 1.430 . S
C2276 N2280 1.351 . S
C2277 C2275 1.387 . S
C2277 C2278 1.374 . S
C2277 H2292 0.931 . S
C2278 C2272 1.439 . S
C2278 C2277 1.374 . S
C2278 H2293 0.931 . S
Eu2279 N2270 2.600 . S
Eu2279 N2280 2.562 . S
Eu2279 O2314 2.335 . S
Eu2279 O2317 2.372 . S
Eu2279 O2318 2.462 . S
Eu2279 O2319 2.373 . S
Eu2279 O2321 2.432 . S
Eu2279 O2322 2.291 . S
Eu2279 C2343 2.787 . S
N2280 C2276 1.351 . S
N2280 Eu2279 2.562 . S
N2280 C2282 1.325 . S
C2281 C2275 1.404 . S
C2281 C2283 1.366 . S
C2281 H2289 0.930 . S
C2282 N2280 1.325 . S
C2282 C2283 1.416 . S
C2282 H2288 0.929 . S
C2283 C2281 1.366 . S
C2283 C2282 1.416 . S
C2283 H2285 0.930 . S
H2284 C2273 0.930 . S
H2285 C2283 0.930 . S
H2286 C2301 0.930 . S
H2287 C2308 0.930 . S
H2288 C2282 0.929 . S
H2289 C2281 0.930 . S
H2290 C2304 0.929 . S
H2291 C2271 0.931 . S
H2292 C2277 0.931 . S
H2293 C2278 0.931 . S
H2294 C2299 0.931 . S
H2295 C2274 0.929 . S
H2296 C2307 0.930 . S
N2297 Eu2268 2.600 . S
N2297 C2298 1.365 . S
N2297 C2301 1.319 . S
C2298 N2297 1.365 . S
C2298 C2300 1.405 . S
C2298 C2306 1.448 . S
C2299 H2294 0.931 . S
C2299 C2301 1.397 . S
C2299 C2302 1.367 . S
C2300 C2298 1.405 . S
C2300 C2302 1.403 . S
C2300 C2333 1.439 1_565 S
C2301 H2286 0.930 . S
C2301 N2297 1.319 . S
C2301 C2299 1.397 . S
C2302 C2299 1.367 . S
C2302 C2300 1.403 . S
C2302 H2309 0.929 . S
N2303 Eu2268 2.562 . S
N2303 C2304 1.325 . S
N2303 C2306 1.351 . S
C2304 H2290 0.929 . S
C2304 N2303 1.325 . S
C2304 C2308 1.416 1_565 S
C2305 C2306 1.430 1_545 S
C2305 C2307 1.404 . S
C2305 C2334 1.387 . S
C2306 C2298 1.448 . S
C2306 N2303 1.351 . S
C2306 C2305 1.430 1_565 S
C2307 H2296 0.930 . S
C2307 C2305 1.404 . S
C2307 C2308 1.366 . S
C2308 H2287 0.930 . S
C2308 C2304 1.416 1_545 S
C2308 C2307 1.366 . S
H2309 C2302 0.929 . S
H2310 C2333 0.931 . S
H2311 C2334 0.931 . S
O2312 Eu2268 2.462 . S
O2312 C2332 1.252 . S
O2313 Eu2268 2.373 . S
O2313 C2324 1.249 1_556 S
O2314 Eu2279 2.335 . S
O2314 C2324 1.264 . S
O2315 Eu2268 2.432 . S
O2315 C2332 1.268 . S
O2316 Eu2268 2.291 . S
O2316 C2331 1.255 . S
O2317 Eu2279 2.372 . S
O2317 C2331 1.257 1_554 S
O2318 Eu2279 2.462 . S
O2318 C2343 1.252 . S
O2319 Eu2279 2.373 . S
O2319 C2335 1.249 1_554 S
O2320 Eu2268 2.335 . S
O2320 C2335 1.264 . S
O2321 Eu2279 2.432 . S
O2321 C2343 1.268 . S
O2322 Eu2279 2.291 . S
O2322 C2342 1.255 . S
O2323 Eu2268 2.372 . S
O2323 C2342 1.257 1_556 S
C2324 O2313 1.249 1_554 S
C2324 O2314 1.264 . S
C2325 C2328 1.382 . S
C2325 C2330 1.390 . S
C2325 C2332 1.506 . S
C2326 C2327 1.398 . S
C2326 C2330 1.392 . S
C2327 C2326 1.398 . S
C2327 C2329 1.372 . S
C2327 H2344 0.931 . S
C2328 C2325 1.382 . S
C2328 C2329 1.390 . S
C2328 H2345 0.931 . S
C2329 C2327 1.372 . S
C2329 C2328 1.390 . S
C2329 H2346 0.929 . S
C2330 C2325 1.390 . S
C2330 C2326 1.392 . S
C2330 H2347 0.930 . S
C2331 O2316 1.255 . S
C2331 O2317 1.257 1_556 S
C2332 Eu2268 2.787 . S
C2332 O2312 1.252 . S
C2332 O2315 1.268 . S
C2332 C2325 1.506 . S
C2333 C2300 1.439 1_545 S
C2333 H2310 0.931 . S
C2333 C2334 1.374 . S
C2334 C2305 1.387 . S
C2334 H2311 0.931 . S
C2334 C2333 1.374 . S
C2335 O2319 1.249 1_556 S
C2335 O2320 1.264 . S
C2336 C2339 1.382 . S
C2336 C2340 1.390 . S
C2336 C2343 1.506 . S
C2337 C2338 1.398 . S
C2337 C2340 1.392 . S
C2338 C2337 1.398 . S
C2338 C2341 1.372 . S
C2338 H2348 0.931 . S
C2339 C2336 1.382 . S
C2339 C2341 1.390 . S
C2339 H2349 0.931 . S
C2340 C2336 1.390 . S
C2340 C2337 1.392 . S
C2340 H2350 0.930 . S
C2341 C2338 1.372 . S
C2341 C2339 1.390 . S
C2341 H2351 0.929 . S
C2342 O2322 1.255 . S
C2342 O2323 1.257 1_554 S
C2343 Eu2279 2.787 . S
C2343 O2318 1.252 . S
C2343 O2321 1.268 . S
C2343 C2336 1.506 . S
H2344 C2327 0.931 . S
H2345 C2328 0.931 . S
H2346 C2329 0.929 . S
H2347 C2330 0.930 . S
H2348 C2338 0.931 . S
H2349 C2339 0.931 . S
H2350 C2340 0.930 . S
H2351 C2341 0.929 . S
Eu2352 N2381 2.600 . S
Eu2352 N2387 2.562 . S
Eu2352 O2396 2.462 . S
Eu2352 O2397 2.373 . S
Eu2352 O2399 2.432 . S
Eu2352 O2400 2.291 . S
Eu2352 O2404 2.335 . S
Eu2352 O2407 2.372 . S
Eu2352 C2416 2.787 . S
C2353 N2354 1.365 . S
C2353 C2356 1.405 . S
C2353 C2360 1.448 . S
N2354 C2353 1.365 . S
N2354 C2357 1.319 . S
N2354 Eu2363 2.600 . S
C2355 C2357 1.397 . S
C2355 C2358 1.367 . S
C2355 H2375 0.931 . S
C2356 C2353 1.405 . S
C2356 C2358 1.403 . S
C2356 C2362 1.439 . S
C2357 N2354 1.319 . S
C2357 C2355 1.397 . S
C2357 H2368 0.930 . S
C2358 C2355 1.367 . S
C2358 C2356 1.403 . S
C2358 H2379 0.929 . S
C2359 C2360 1.430 . S
C2359 C2361 1.387 . S
C2359 C2365 1.404 . S
C2360 C2353 1.448 . S
C2360 C2359 1.430 . S
C2360 N2364 1.351 . S
C2361 C2359 1.387 . S
C2361 C2362 1.374 . S
C2361 H2376 0.931 . S
C2362 C2356 1.439 . S
C2362 C2361 1.374 . S
C2362 H2377 0.931 . S
Eu2363 N2354 2.600 . S
Eu2363 N2364 2.562 . S
Eu2363 O2398 2.335 . S
Eu2363 O2401 2.372 . S
Eu2363 O2402 2.462 . S
Eu2363 O2403 2.373 . S
Eu2363 O2405 2.432 . S
Eu2363 O2406 2.291 . S
Eu2363 C2427 2.787 . S
N2364 C2360 1.351 . S
N2364 Eu2363 2.562 . S
N2364 C2366 1.325 . S
C2365 C2359 1.404 . S
C2365 C2367 1.366 . S
C2365 H2373 0.930 . S
C2366 N2364 1.325 . S
C2366 C2367 1.416 . S
C2366 H2372 0.929 . S
C2367 C2365 1.366 . S
C2367 C2366 1.416 . S
C2367 H2369 0.930 1_565 S
H2368 C2357 0.930 . S
H2369 C2367 0.930 1_545 S
H2370 C2385 0.930 . S
H2371 C2392 0.930 . S
H2372 C2366 0.929 . S
H2373 C2365 0.930 . S
H2374 C2388 0.929 . S
H2375 C2355 0.931 . S
H2376 C2361 0.931 . S
H2377 C2362 0.931 . S
H2378 C2383 0.931 1_545 S
H2379 C2358 0.929 . S
H2380 C2391 0.930 . S
N2381 Eu2352 2.600 . S
N2381 C2382 1.365 . S
N2381 C2385 1.319 . S
C2382 N2381 1.365 . S
C2382 C2384 1.405 . S
C2382 C2390 1.448 . S
C2383 H2378 0.931 1_565 S
C2383 C2385 1.397 . S
C2383 C2386 1.367 . S
C2384 C2382 1.405 . S
C2384 C2386 1.403 . S
C2384 C2417 1.439 1_455 S
C2385 H2370 0.930 . S
C2385 N2381 1.319 . S
C2385 C2383 1.397 . S
C2386 C2383 1.367 . S
C2386 C2384 1.403 . S
C2386 H2393 0.929 . S
N2387 Eu2352 2.562 . S
N2387 C2388 1.325 . S
N2387 C2390 1.351 . S
C2388 H2374 0.929 . S
C2388 N2387 1.325 . S
C2388 C2392 1.416 1_455 S
C2389 C2390 1.430 1_655 S
C2389 C2391 1.404 . S
C2389 C2418 1.387 . S
C2390 C2382 1.448 . S
C2390 N2387 1.351 . S
C2390 C2389 1.430 1_455 S
C2391 H2380 0.930 . S
C2391 C2389 1.404 . S
C2391 C2392 1.366 . S
C2392 H2371 0.930 . S
C2392 C2388 1.416 1_655 S
C2392 C2391 1.366 . S
H2393 C2386 0.929 . S
H2394 C2417 0.931 . S
H2395 C2418 0.931 . S
O2396 Eu2352 2.462 . S
O2396 C2416 1.252 . S
O2397 Eu2352 2.373 . S
O2397 C2408 1.249 1_556 S
O2398 Eu2363 2.335 . S
O2398 C2408 1.264 . S
O2399 Eu2352 2.432 . S
O2399 C2416 1.268 . S
O2400 Eu2352 2.291 . S
O2400 C2415 1.255 . S
O2401 Eu2363 2.372 . S
O2401 C2415 1.257 1_554 S
O2402 Eu2363 2.462 . S
O2402 C2427 1.252 . S
O2403 Eu2363 2.373 . S
O2403 C2419 1.249 1_554 S
O2404 Eu2352 2.335 . S
O2404 C2419 1.264 . S
O2405 Eu2363 2.432 . S
O2405 C2427 1.268 . S
O2406 Eu2363 2.291 . S
O2406 C2426 1.255 . S
O2407 Eu2352 2.372 . S
O2407 C2426 1.257 1_556 S
C2408 O2397 1.249 1_554 S
C2408 O2398 1.264 . S
C2409 C2412 1.382 . S
C2409 C2414 1.390 . S
C2409 C2416 1.506 . S
C2410 C2411 1.398 . S
C2410 C2414 1.392 . S
C2411 C2410 1.398 . S
C2411 C2413 1.372 . S
C2411 H2428 0.931 . S
C2412 C2409 1.382 . S
C2412 C2413 1.390 . S
C2412 H2429 0.931 . S
C2413 C2411 1.372 . S
C2413 C2412 1.390 . S
C2413 H2430 0.929 . S
C2414 C2409 1.390 . S
C2414 C2410 1.392 . S
C2414 H2431 0.930 . S
C2415 O2400 1.255 . S
C2415 O2401 1.257 1_556 S
C2416 Eu2352 2.787 . S
C2416 O2396 1.252 . S
C2416 O2399 1.268 . S
C2416 C2409 1.506 . S
C2417 C2384 1.439 1_655 S
C2417 H2394 0.931 . S
C2417 C2418 1.374 . S
C2418 C2389 1.387 . S
C2418 H2395 0.931 . S
C2418 C2417 1.374 . S
C2419 O2403 1.249 1_556 S
C2419 O2404 1.264 . S
C2420 C2423 1.382 . S
C2420 C2424 1.390 . S
C2420 C2427 1.506 . S
C2421 C2422 1.398 . S
C2421 C2424 1.392 . S
C2422 C2421 1.398 . S
C2422 C2425 1.372 . S
C2422 H2432 0.931 . S
C2423 C2420 1.382 . S
C2423 C2425 1.390 . S
C2423 H2433 0.931 . S
C2424 C2420 1.390 . S
C2424 C2421 1.392 . S
C2424 H2434 0.930 . S
C2425 C2422 1.372 . S
C2425 C2423 1.390 . S
C2425 H2435 0.929 . S
C2426 O2406 1.255 . S
C2426 O2407 1.257 1_554 S
C2427 Eu2363 2.787 . S
C2427 O2402 1.252 . S
C2427 O2405 1.268 . S
C2427 C2420 1.506 . S
H2428 C2411 0.931 . S
H2429 C2412 0.931 . S
H2430 C2413 0.929 . S
H2431 C2414 0.930 . S
H2432 C2422 0.931 . S
H2433 C2423 0.931 . S
H2434 C2424 0.930 . S
H2435 C2425 0.929 . S
Eu2436 N2465 2.600 . S
Eu2436 N2471 2.562 . S
Eu2436 O2480 2.462 . S
Eu2436 O2481 2.373 . S
Eu2436 O2483 2.432 . S
Eu2436 O2484 2.291 . S
Eu2436 O2488 2.335 . S
Eu2436 O2491 2.372 . S
Eu2436 C2500 2.787 . S
C2437 N2438 1.365 . S
C2437 C2440 1.405 . S
C2437 C2444 1.448 . S
N2438 C2437 1.365 . S
N2438 C2441 1.319 . S
N2438 Eu2447 2.600 . S
C2439 C2441 1.397 . S
C2439 C2442 1.367 . S
C2439 H2459 0.931 . S
C2440 C2437 1.405 . S
C2440 C2442 1.403 . S
C2440 C2446 1.439 . S
C2441 N2438 1.319 . S
C2441 C2439 1.397 . S
C2441 H2452 0.930 . S
C2442 C2439 1.367 . S
C2442 C2440 1.403 . S
C2442 H2463 0.929 . S
C2443 C2444 1.430 . S
C2443 C2445 1.387 . S
C2443 C2449 1.404 . S
C2444 C2437 1.448 . S
C2444 C2443 1.430 . S
C2444 N2448 1.351 . S
C2445 C2443 1.387 . S
C2445 C2446 1.374 . S
C2445 H2460 0.931 . S
C2446 C2440 1.439 . S
C2446 C2445 1.374 . S
C2446 H2461 0.931 . S
Eu2447 N2438 2.600 . S
Eu2447 N2448 2.562 . S
Eu2447 O2482 2.335 . S
Eu2447 O2485 2.372 . S
Eu2447 O2486 2.462 . S
Eu2447 O2487 2.373 . S
Eu2447 O2489 2.432 . S
Eu2447 O2490 2.291 . S
Eu2447 C2511 2.787 . S
N2448 C2444 1.351 . S
N2448 Eu2447 2.562 . S
N2448 C2450 1.325 . S
C2449 C2443 1.404 . S
C2449 C2451 1.366 . S
C2449 H2457 0.930 . S
C2450 N2448 1.325 . S
C2450 C2451 1.416 . S
C2450 H2456 0.929 . S
C2451 C2449 1.366 . S
C2451 C2450 1.416 . S
C2451 H2453 0.930 1_455 S
H2452 C2441 0.930 . S
H2453 C2451 0.930 1_655 S
H2454 C2469 0.930 . S
H2455 C2476 0.930 . S
H2456 C2450 0.929 . S
H2457 C2449 0.930 . S
H2458 C2472 0.929 . S
H2459 C2439 0.931 . S
H2460 C2445 0.931 . S
H2461 C2446 0.931 . S
H2462 C2467 0.931 1_655 S
H2463 C2442 0.929 . S
H2464 C2475 0.930 . S
N2465 Eu2436 2.600 . S
N2465 C2466 1.365 . S
N2465 C2469 1.319 . S
C2466 N2465 1.365 . S
C2466 C2468 1.405 . S
C2466 C2474 1.448 . S
C2467 H2462 0.931 1_455 S
C2467 C2469 1.397 . S
C2467 C2470 1.367 . S
C2468 C2466 1.405 . S
C2468 C2470 1.403 . S
C2468 C2501 1.439 . S
C2469 H2454 0.930 . S
C2469 N2465 1.319 . S
C2469 C2467 1.397 . S
C2470 C2467 1.367 . S
C2470 C2468 1.403 . S
C2470 H2477 0.929 . S
N2471 Eu2436 2.562 . S
N2471 C2472 1.325 . S
N2471 C2474 1.351 . S
C2472 H2458 0.929 . S
C2472 N2471 1.325 . S
C2472 C2476 1.416 . S
C2473 C2474 1.430 . S
C2473 C2475 1.404 . S
C2473 C2502 1.387 . S
C2474 C2466 1.448 . S
C2474 N2471 1.351 . S
C2474 C2473 1.430 . S
C2475 H2464 0.930 . S
C2475 C2473 1.404 . S
C2475 C2476 1.366 . S
C2476 H2455 0.930 . S
C2476 C2472 1.416 . S
C2476 C2475 1.366 . S
H2477 C2470 0.929 . S
H2478 C2501 0.931 . S
H2479 C2502 0.931 . S
O2480 Eu2436 2.462 . S
O2480 C2500 1.252 . S
O2481 Eu2436 2.373 . S
O2481 C2492 1.249 1_556 S
O2482 Eu2447 2.335 . S
O2482 C2492 1.264 . S
O2483 Eu2436 2.432 . S
O2483 C2500 1.268 . S
O2484 Eu2436 2.291 . S
O2484 C2499 1.255 . S
O2485 Eu2447 2.372 . S
O2485 C2499 1.257 1_554 S
O2486 Eu2447 2.462 . S
O2486 C2511 1.252 . S
O2487 Eu2447 2.373 . S
O2487 C2503 1.249 1_554 S
O2488 Eu2436 2.335 . S
O2488 C2503 1.264 . S
O2489 Eu2447 2.432 . S
O2489 C2511 1.268 . S
O2490 Eu2447 2.291 . S
O2490 C2510 1.255 . S
O2491 Eu2436 2.372 . S
O2491 C2510 1.257 1_556 S
C2492 O2481 1.249 1_554 S
C2492 O2482 1.264 . S
C2493 C2496 1.382 . S
C2493 C2498 1.390 . S
C2493 C2500 1.506 . S
C2494 C2495 1.398 . S
C2494 C2498 1.392 . S
C2495 C2494 1.398 . S
C2495 C2497 1.372 . S
C2495 H2512 0.931 . S
C2496 C2493 1.382 . S
C2496 C2497 1.390 . S
C2496 H2513 0.931 . S
C2497 C2495 1.372 . S
C2497 C2496 1.390 . S
C2497 H2514 0.929 . S
C2498 C2493 1.390 . S
C2498 C2494 1.392 . S
C2498 H2515 0.930 . S
C2499 O2484 1.255 . S
C2499 O2485 1.257 1_556 S
C2500 Eu2436 2.787 . S
C2500 O2480 1.252 . S
C2500 O2483 1.268 . S
C2500 C2493 1.506 . S
C2501 C2468 1.439 . S
C2501 H2478 0.931 . S
C2501 C2502 1.374 . S
C2502 C2473 1.387 . S
C2502 H2479 0.931 . S
C2502 C2501 1.374 . S
C2503 O2487 1.249 1_556 S
C2503 O2488 1.264 . S
C2504 C2507 1.382 . S
C2504 C2508 1.390 . S
C2504 C2511 1.506 . S
C2505 C2506 1.398 . S
C2505 C2508 1.392 . S
C2506 C2505 1.398 . S
C2506 C2509 1.372 . S
C2506 H2516 0.931 . S
C2507 C2504 1.382 . S
C2507 C2509 1.390 . S
C2507 H2517 0.931 . S
C2508 C2504 1.390 . S
C2508 C2505 1.392 . S
C2508 H2518 0.930 . S
C2509 C2506 1.372 . S
C2509 C2507 1.390 . S
C2509 H2519 0.929 . S
C2510 O2490 1.255 . S
C2510 O2491 1.257 1_554 S
C2511 Eu2447 2.787 . S
C2511 O2486 1.252 . S
C2511 O2489 1.268 . S
C2511 C2504 1.506 . S
H2512 C2495 0.931 . S
H2513 C2496 0.931 . S
H2514 C2497 0.929 . S
H2515 C2498 0.930 . S
H2516 C2506 0.931 . S
H2517 C2507 0.931 . S
H2518 C2508 0.930 . S
H2519 C2509 0.929 . S
Eu2520 N2549 2.600 . S
Eu2520 N2555 2.562 . S
Eu2520 O2564 2.462 . S
Eu2520 O2565 2.373 . S
Eu2520 O2567 2.432 . S
Eu2520 O2568 2.291 . S
Eu2520 O2572 2.335 . S
Eu2520 O2575 2.372 . S
Eu2520 C2584 2.787 . S
C2521 N2522 1.365 . S
C2521 C2524 1.405 1_455 S
C2521 C2528 1.436 1_455 S
N2522 C2521 1.365 . S
N2522 C2525 1.319 . S
N2522 Eu2531 2.600 . S
C2523 C2525 1.397 . S
C2523 C2526 1.367 . S
C2523 H2543 0.931 . S
C2524 C2521 1.405 1_655 S
C2524 C2526 1.403 1_655 S
C2524 C2530 1.439 . S
C2525 N2522 1.319 . S
C2525 C2523 1.397 . S
C2525 H2536 0.930 . S
C2526 C2523 1.367 . S
C2526 C2524 1.403 1_455 S
C2526 H2547 0.929 . S
C2527 C2528 1.442 . S
C2527 C2529 1.387 . S
C2527 C2533 1.404 . S
C2528 C2521 1.436 1_655 S
C2528 C2527 1.442 . S
C2528 N2532 1.351 1_655 S
C2529 C2527 1.387 . S
C2529 C2530 1.374 . S
C2529 H2544 0.931 . S
C2530 C2524 1.439 . S
C2530 C2529 1.374 . S
C2530 H2545 0.931 . S
Eu2531 N2522 2.600 . S
Eu2531 N2532 2.562 . S
Eu2531 O2566 2.335 . S
Eu2531 O2569 2.372 . S
Eu2531 O2570 2.462 . S
Eu2531 O2571 2.373 . S
Eu2531 O2573 2.432 . S
Eu2531 O2574 2.291 . S
Eu2531 C2595 2.787 . S
N2532 C2528 1.351 1_455 S
N2532 Eu2531 2.562 . S
N2532 C2534 1.325 . S
C2533 C2527 1.404 . S
C2533 C2535 1.366 . S
C2533 H2541 0.930 . S
C2534 N2532 1.325 . S
C2534 C2535 1.416 1_455 S
C2534 H2540 0.929 . S
C2535 C2533 1.366 . S
C2535 C2534 1.416 1_655 S
C2535 H2537 0.930 . S
H2536 C2525 0.930 . S
H2537 C2535 0.930 . S
H2538 C2553 0.930 . S
H2539 C2560 0.930 . S
H2540 C2534 0.929 . S
H2541 C2533 0.930 . S
H2542 C2556 0.929 . S
H2543 C2523 0.931 . S
H2544 C2529 0.931 . S
H2545 C2530 0.931 . S
H2546 C2551 0.931 . S
H2547 C2526 0.929 . S
H2548 C2559 0.930 . S
N2549 Eu2520 2.600 . S
N2549 C2550 1.365 . S
N2549 C2553 1.319 . S
C2550 N2549 1.365 . S
C2550 C2552 1.405 . S
C2550 C2558 1.448 . S
C2551 H2546 0.931 . S
C2551 C2553 1.397 . S
C2551 C2554 1.367 . S
C2552 C2550 1.405 . S
C2552 C2554 1.403 . S
C2552 C2585 1.439 . S
C2553 H2538 0.930 . S
C2553 N2549 1.319 . S
C2553 C2551 1.397 . S
C2554 C2551 1.367 . S
C2554 C2552 1.403 . S
C2554 H2561 0.929 . S
N2555 Eu2520 2.562 . S
N2555 C2556 1.325 . S
N2555 C2558 1.351 . S
C2556 H2542 0.929 . S
C2556 N2555 1.325 . S
C2556 C2560 1.416 . S
C2557 C2558 1.430 . S
C2557 C2559 1.404 . S
C2557 C2586 1.387 . S
C2558 C2550 1.448 . S
C2558 N2555 1.351 . S
C2558 C2557 1.430 . S
C2559 H2548 0.930 . S
C2559 C2557 1.404 . S
C2559 C2560 1.366 . S
C2560 H2539 0.930 . S
C2560 C2556 1.416 . S
C2560 C2559 1.366 . S
H2561 C2554 0.929 . S
H2562 C2585 0.931 . S
H2563 C2586 0.931 . S
O2564 Eu2520 2.462 . S
O2564 C2584 1.252 . S
O2565 Eu2520 2.373 . S
O2565 C2576 1.249 . S
O2566 Eu2531 2.335 . S
O2566 C2576 1.264 . S
O2567 Eu2520 2.432 . S
O2567 C2584 1.268 . S
O2568 Eu2520 2.291 . S
O2568 C2583 1.255 . S
O2569 Eu2531 2.372 . S
O2569 C2583 1.257 . S
O2570 Eu2531 2.462 . S
O2570 C2595 1.252 . S
O2571 Eu2531 2.373 . S
O2571 C2587 1.249 . S
O2572 Eu2520 2.335 . S
O2572 C2587 1.264 . S
O2573 Eu2531 2.432 . S
O2573 C2595 1.268 . S
O2574 Eu2531 2.291 . S
O2574 C2594 1.255 . S
O2575 Eu2520 2.372 . S
O2575 C2594 1.257 . S
C2576 O2565 1.249 . S
C2576 O2566 1.264 . S
C2577 C2580 1.382 . S
C2577 C2582 1.390 . S
C2577 C2584 1.506 . S
C2578 C2579 1.398 . S
C2578 C2582 1.392 . S
C2579 C2578 1.398 . S
C2579 C2581 1.372 . S
C2579 H2596 0.931 . S
C2580 C2577 1.382 . S
C2580 C2581 1.390 . S
C2580 H2597 0.931 . S
C2581 C2579 1.372 . S
C2581 C2580 1.390 . S
C2581 H2598 0.929 . S
C2582 C2577 1.390 . S
C2582 C2578 1.392 . S
C2582 H2599 0.930 . S
C2583 O2568 1.255 . S
C2583 O2569 1.257 . S
C2584 Eu2520 2.787 . S
C2584 O2564 1.252 . S
C2584 O2567 1.268 . S
C2584 C2577 1.506 . S
C2585 C2552 1.439 . S
C2585 H2562 0.931 . S
C2585 C2586 1.374 . S
C2586 C2557 1.387 . S
C2586 H2563 0.931 . S
C2586 C2585 1.374 . S
C2587 O2571 1.249 . S
C2587 O2572 1.264 . S
C2588 C2591 1.382 . S
C2588 C2592 1.390 . S
C2588 C2595 1.506 . S
C2589 C2590 1.398 . S
C2589 C2592 1.392 . S
C2590 C2589 1.398 . S
C2590 C2593 1.372 . S
C2590 H2600 0.931 . S
C2591 C2588 1.382 . S
C2591 C2593 1.390 . S
C2591 H2601 0.931 . S
C2592 C2588 1.390 . S
C2592 C2589 1.392 . S
C2592 H2602 0.930 . S
C2593 C2590 1.372 . S
C2593 C2591 1.390 . S
C2593 H2603 0.929 . S
C2594 O2574 1.255 . S
C2594 O2575 1.257 . S
C2595 Eu2531 2.787 . S
C2595 O2570 1.252 . S
C2595 O2573 1.268 . S
C2595 C2588 1.506 . S
H2596 C2579 0.931 . S
H2597 C2580 0.931 . S
H2598 C2581 0.929 . S
H2599 C2582 0.930 . S
H2600 C2590 0.931 . S
H2601 C2591 0.931 . S
H2602 C2592 0.930 . S
H2603 C2593 0.929 . S
Eu2604 N2633 2.600 . S
Eu2604 N2639 2.562 . S
Eu2604 O2648 2.462 . S
Eu2604 O2649 2.373 . S
Eu2604 O2651 2.432 . S
Eu2604 O2652 2.291 . S
Eu2604 O2656 2.335 . S
Eu2604 O2659 2.372 . S
Eu2604 C2668 2.787 . S
C2605 N2606 1.365 . S
C2605 C2608 1.405 . S
C2605 C2612 1.448 . S
N2606 C2605 1.365 . S
N2606 C2609 1.319 . S
N2606 Eu2615 2.600 . S
C2607 C2609 1.397 . S
C2607 C2610 1.367 . S
C2607 H2627 0.931 1_565 S
C2608 C2605 1.405 . S
C2608 C2610 1.403 . S
C2608 C2614 1.439 . S
C2609 N2606 1.319 . S
C2609 C2607 1.397 . S
C2609 H2620 0.930 . S
C2610 C2607 1.367 . S
C2610 C2608 1.403 . S
C2610 H2631 0.929 . S
C2611 C2612 1.430 . S
C2611 C2613 1.387 . S
C2611 C2617 1.404 . S
C2612 C2605 1.448 . S
C2612 C2611 1.430 . S
C2612 N2616 1.351 . S
C2613 C2611 1.387 . S
C2613 C2614 1.374 . S
C2613 H2628 0.931 . S
C2614 C2608 1.439 . S
C2614 C2613 1.374 . S
C2614 H2629 0.931 . S
Eu2615 N2606 2.600 . S
Eu2615 N2616 2.562 . S
Eu2615 O2650 2.335 . S
Eu2615 O2653 2.372 . S
Eu2615 O2654 2.462 . S
Eu2615 O2655 2.373 . S
Eu2615 O2657 2.432 . S
Eu2615 O2658 2.291 . S
Eu2615 C2679 2.787 . S
N2616 C2612 1.351 . S
N2616 Eu2615 2.562 . S
N2616 C2618 1.325 . S
C2617 C2611 1.404 . S
C2617 C2619 1.366 . S
C2617 H2625 0.930 . S
C2618 N2616 1.325 . S
C2618 C2619 1.416 . S
C2618 H2624 0.929 . S
C2619 C2617 1.366 . S
C2619 C2618 1.416 . S
C2619 H2621 0.930 . S
H2620 C2609 0.930 . S
H2621 C2619 0.930 . S
H2622 C2637 0.930 . S
H2623 C2644 0.930 . S
H2624 C2618 0.929 . S
H2625 C2617 0.930 . S
H2626 C2640 0.929 . S
H2627 C2607 0.931 1_545 S
H2628 C2613 0.931 . S
H2629 C2614 0.931 . S
H2630 C2635 0.931 . S
H2631 C2610 0.929 . S
H2632 C2643 0.930 . S
N2633 Eu2604 2.600 . S
N2633 C2634 1.365 . S
N2633 C2637 1.319 . S
C2634 N2633 1.365 . S
C2634 C2636 1.405 . S
C2634 C2642 1.448 . S
C2635 H2630 0.931 . S
C2635 C2637 1.397 . S
C2635 C2638 1.367 . S
C2636 C2634 1.405 . S
C2636 C2638 1.403 . S
C2636 C2669 1.439 . S
C2637 H2622 0.930 . S
C2637 N2633 1.319 . S
C2637 C2635 1.397 . S
C2638 C2635 1.367 . S
C2638 C2636 1.403 . S
C2638 H2645 0.929 . S
N2639 Eu2604 2.562 . S
N2639 C2640 1.325 . S
N2639 C2642 1.351 . S
C2640 H2626 0.929 . S
C2640 N2639 1.325 . S
C2640 C2644 1.416 . S
C2641 C2642 1.430 . S
C2641 C2643 1.404 . S
C2641 C2670 1.387 . S
C2642 C2634 1.448 . S
C2642 N2639 1.351 . S
C2642 C2641 1.430 . S
C2643 H2632 0.930 . S
C2643 C2641 1.404 . S
C2643 C2644 1.366 . S
C2644 H2623 0.930 . S
C2644 C2640 1.416 . S
C2644 C2643 1.366 . S
H2645 C2638 0.929 . S
H2646 C2669 0.931 . S
H2647 C2670 0.931 . S
O2648 Eu2604 2.462 . S
O2648 C2668 1.252 . S
O2649 Eu2604 2.373 . S
O2649 C2660 1.249 . S
O2650 Eu2615 2.335 . S
O2650 C2660 1.264 . S
O2651 Eu2604 2.432 . S
O2651 C2668 1.268 . S
O2652 Eu2604 2.291 . S
O2652 C2667 1.255 . S
O2653 Eu2615 2.372 . S
O2653 C2667 1.257 . S
O2654 Eu2615 2.462 . S
O2654 C2679 1.252 . S
O2655 Eu2615 2.373 . S
O2655 C2671 1.249 . S
O2656 Eu2604 2.335 . S
O2656 C2671 1.264 . S
O2657 Eu2615 2.432 . S
O2657 C2679 1.268 . S
O2658 Eu2615 2.291 . S
O2658 C2678 1.255 . S
O2659 Eu2604 2.372 . S
O2659 C2678 1.257 . S
C2660 O2649 1.249 . S
C2660 O2650 1.264 . S
C2661 C2664 1.382 . S
C2661 C2666 1.390 . S
C2661 C2668 1.506 . S
C2662 C2663 1.398 . S
C2662 C2666 1.392 . S
C2663 C2662 1.398 . S
C2663 C2665 1.372 . S
C2663 H2680 0.931 . S
C2664 C2661 1.382 . S
C2664 C2665 1.390 . S
C2664 H2681 0.931 . S
C2665 C2663 1.372 . S
C2665 C2664 1.390 . S
C2665 H2682 0.929 . S
C2666 C2661 1.390 . S
C2666 C2662 1.392 . S
C2666 H2683 0.930 . S
C2667 O2652 1.255 . S
C2667 O2653 1.257 . S
C2668 Eu2604 2.787 . S
C2668 O2648 1.252 . S
C2668 O2651 1.268 . S
C2668 C2661 1.506 . S
C2669 C2636 1.439 . S
C2669 H2646 0.931 . S
C2669 C2670 1.374 . S
C2670 C2641 1.387 . S
C2670 H2647 0.931 . S
C2670 C2669 1.374 . S
C2671 O2655 1.249 . S
C2671 O2656 1.264 . S
C2672 C2675 1.382 . S
C2672 C2676 1.390 . S
C2672 C2679 1.506 . S
C2673 C2674 1.398 . S
C2673 C2676 1.392 . S
C2674 C2673 1.398 . S
C2674 C2677 1.372 . S
C2674 H2684 0.931 . S
C2675 C2672 1.382 . S
C2675 C2677 1.390 . S
C2675 H2685 0.931 . S
C2676 C2672 1.390 . S
C2676 C2673 1.392 . S
C2676 H2686 0.930 . S
C2677 C2674 1.372 . S
C2677 C2675 1.390 . S
C2677 H2687 0.929 . S
C2678 O2658 1.255 . S
C2678 O2659 1.257 . S
C2679 Eu2615 2.787 . S
C2679 O2654 1.252 . S
C2679 O2657 1.268 . S
C2679 C2672 1.506 . S
H2680 C2663 0.931 . S
H2681 C2664 0.931 . S
H2682 C2665 0.929 . S
H2683 C2666 0.930 . S
H2684 C2674 0.931 . S
H2685 C2675 0.931 . S
H2686 C2676 0.930 . S
H2687 C2677 0.929 . S
Eu2688 N2717 2.600 . S
Eu2688 N2723 2.562 . S
Eu2688 O2732 2.462 . S
Eu2688 O2733 2.373 . S
Eu2688 O2735 2.432 . S
Eu2688 O2736 2.291 . S
Eu2688 O2740 2.335 . S
Eu2688 O2743 2.372 . S
Eu2688 C2752 2.787 . S
C2689 N2690 1.365 . S
C2689 C2692 1.405 1_565 S
C2689 C2696 1.449 1_565 S
N2690 C2689 1.365 . S
N2690 C2693 1.319 . S
N2690 Eu2699 2.600 . S
C2691 C2693 1.397 . S
C2691 C2694 1.367 . S
C2691 H2711 0.931 1_455 S
C2692 C2689 1.405 1_545 S
C2692 C2694 1.403 1_545 S
C2692 C2698 1.439 . S
C2693 N2690 1.319 . S
C2693 C2691 1.397 . S
C2693 H2704 0.930 . S
C2694 C2691 1.367 . S
C2694 C2692 1.403 1_565 S
C2694 H2715 0.935 . S
C2695 C2696 1.441 . S
C2695 C2697 1.387 . S
C2695 C2701 1.404 . S
C2696 C2689 1.449 1_545 S
C2696 C2695 1.441 . S
C2696 N2700 1.339 1_545 S
C2697 C2695 1.387 . S
C2697 C2698 1.374 . S
C2697 H2712 0.931 . S
C2698 C2692 1.439 . S
C2698 C2697 1.374 . S
C2698 H2713 0.931 . S
Eu2699 N2690 2.600 . S
Eu2699 N2700 2.562 . S
Eu2699 O2734 2.335 . S
Eu2699 O2737 2.372 . S
Eu2699 O2738 2.462 . S
Eu2699 O2739 2.373 . S
Eu2699 O2741 2.432 . S
Eu2699 O2742 2.291 . S
Eu2699 C2763 2.787 . S
N2700 C2696 1.339 1_565 S
N2700 Eu2699 2.562 . S
N2700 C2702 1.325 . S
C2701 C2695 1.404 . S
C2701 C2703 1.366 . S
C2701 H2709 0.930 . S
C2702 N2700 1.325 . S
C2702 C2703 1.416 1_565 S
C2702 H2708 0.929 . S
C2703 C2701 1.366 . S
C2703 C2702 1.416 1_545 S
C2703 H2705 0.930 . S
H2704 C2693 0.930 . S
H2705 C2703 0.930 . S
H2706 C2721 0.930 . S
H2707 C2728 0.930 . S
H2708 C2702 0.929 . S
H2709 C2701 0.930 . S
H2710 C2724 0.929 . S
H2711 C2691 0.931 1_655 S
H2712 C2697 0.931 . S
H2713 C2698 0.931 . S
H2714 C2719 0.931 . S
H2715 C2694 0.935 . S
H2716 C2727 0.930 . S
N2717 Eu2688 2.600 . S
N2717 C2718 1.365 . S
N2717 C2721 1.319 . S
C2718 N2717 1.365 . S
C2718 C2720 1.405 . S
C2718 C2726 1.448 . S
C2719 H2714 0.931 . S
C2719 C2721 1.397 . S
C2719 C2722 1.367 . S
C2720 C2718 1.405 . S
C2720 C2722 1.403 . S
C2720 C2753 1.439 . S
C2721 H2706 0.930 . S
C2721 N2717 1.319 . S
C2721 C2719 1.397 . S
C2722 C2719 1.367 . S
C2722 C2720 1.403 . S
C2722 H2729 0.929 . S
N2723 Eu2688 2.562 . S
N2723 C2724 1.325 . S
N2723 C2726 1.351 . S
C2724 H2710 0.929 . S
C2724 N2723 1.325 . S
C2724 C2728 1.416 . S
C2725 C2726 1.430 . S
C2725 C2727 1.404 . S
C2725 C2754 1.387 . S
C2726 C2718 1.448 . S
C2726 N2723 1.351 . S
C2726 C2725 1.430 . S
C2727 H2716 0.930 . S
C2727 C2725 1.404 . S
C2727 C2728 1.366 . S
C2728 H2707 0.930 . S
C2728 C2724 1.416 . S
C2728 C2727 1.366 . S
H2729 C2722 0.929 . S
H2730 C2753 0.931 . S
H2731 C2754 0.931 . S
O2732 Eu2688 2.462 . S
O2732 C2752 1.252 . S
O2733 Eu2688 2.373 . S
O2733 C2744 1.249 . S
O2734 Eu2699 2.335 . S
O2734 C2744 1.264 . S
O2735 Eu2688 2.432 . S
O2735 C2752 1.268 . S
O2736 Eu2688 2.291 . S
O2736 C2751 1.255 . S
O2737 Eu2699 2.372 . S
O2737 C2751 1.257 . S
O2738 Eu2699 2.462 . S
O2738 C2763 1.252 . S
O2739 Eu2699 2.373 . S
O2739 C2755 1.249 . S
O2740 Eu2688 2.335 . S
O2740 C2755 1.264 . S
O2741 Eu2699 2.432 . S
O2741 C2763 1.268 . S
O2742 Eu2699 2.291 . S
O2742 C2762 1.255 . S
O2743 Eu2688 2.372 . S
O2743 C2762 1.257 . S
C2744 O2733 1.249 . S
C2744 O2734 1.264 . S
C2745 C2748 1.382 . S
C2745 C2750 1.390 . S
C2745 C2752 1.506 . S
C2746 C2747 1.398 . S
C2746 C2750 1.392 . S
C2747 C2746 1.398 . S
C2747 C2749 1.372 . S
C2747 H2764 0.931 . S
C2748 C2745 1.382 . S
C2748 C2749 1.390 . S
C2748 H2765 0.931 . S
C2749 C2747 1.372 . S
C2749 C2748 1.390 . S
C2749 H2766 0.929 . S
C2750 C2745 1.390 . S
C2750 C2746 1.392 . S
C2750 H2767 0.930 . S
C2751 O2736 1.255 . S
C2751 O2737 1.257 . S
C2752 Eu2688 2.787 . S
C2752 O2732 1.252 . S
C2752 O2735 1.268 . S
C2752 C2745 1.506 . S
C2753 C2720 1.439 . S
C2753 H2730 0.931 . S
C2753 C2754 1.374 . S
C2754 C2725 1.387 . S
C2754 H2731 0.931 . S
C2754 C2753 1.374 . S
C2755 O2739 1.249 . S
C2755 O2740 1.264 . S
C2756 C2759 1.382 . S
C2756 C2760 1.390 . S
C2756 C2763 1.506 . S
C2757 C2758 1.398 . S
C2757 C2760 1.392 . S
C2758 C2757 1.398 . S
C2758 C2761 1.372 . S
C2758 H2768 0.931 . S
C2759 C2756 1.382 . S
C2759 C2761 1.390 . S
C2759 H2769 0.931 . S
C2760 C2756 1.390 . S
C2760 C2757 1.392 . S
C2760 H2770 0.930 . S
C2761 C2758 1.372 . S
C2761 C2759 1.390 . S
C2761 H2771 0.929 . S
C2762 O2742 1.255 . S
C2762 O2743 1.257 . S
C2763 Eu2699 2.787 . S
C2763 O2738 1.252 . S
C2763 O2741 1.268 . S
C2763 C2756 1.506 . S
H2764 C2747 0.931 . S
H2765 C2748 0.931 . S
H2766 C2749 0.929 . S
H2767 C2750 0.930 . S
H2768 C2758 0.931 . S
H2769 C2759 0.931 . S
H2770 C2760 0.930 . S
H2771 C2761 0.929 . S
Eu2772 N2801 2.600 . S
Eu2772 N2807 2.562 . S
Eu2772 O2816 2.462 . S
Eu2772 O2817 2.373 . S
Eu2772 O2819 2.432 . S
Eu2772 O2820 2.291 . S
Eu2772 O2824 2.335 . S
Eu2772 O2827 2.372 . S
Eu2772 C2836 2.787 . S
C2773 N2774 1.365 . S
C2773 C2776 1.405 . S
C2773 C2780 1.448 . S
N2774 C2773 1.365 . S
N2774 C2777 1.319 . S
N2774 Eu2783 2.600 1_655 S
C2775 C2777 1.397 . S
C2775 C2778 1.367 . S
C2775 H2795 0.931 . S
C2776 C2773 1.405 . S
C2776 C2778 1.403 . S
C2776 C2782 1.439 . S
C2777 N2774 1.319 . S
C2777 C2775 1.397 . S
C2777 H2788 0.930 . S
C2778 C2775 1.367 . S
C2778 C2776 1.403 . S
C2778 H2799 0.929 . S
C2779 C2780 1.430 . S
C2779 C2781 1.387 . S
C2779 C2785 1.404 . S
C2780 C2773 1.448 . S
C2780 C2779 1.430 . S
C2780 N2784 1.351 1_655 S
C2781 C2779 1.387 . S
C2781 C2782 1.374 . S
C2781 H2796 0.931 . S
C2782 C2776 1.439 . S
C2782 C2781 1.374 . S
C2782 H2797 0.931 . S
Eu2783 N2774 2.600 1_455 S
Eu2783 N2784 2.562 . S
Eu2783 O2818 2.335 . S
Eu2783 O2821 2.372 1_455 S
Eu2783 O2822 2.462 . S
Eu2783 O2823 2.373 1_455 S
Eu2783 O2825 2.432 . S
Eu2783 O2826 2.291 . S
Eu2783 C2847 2.787 . S
N2784 C2780 1.351 1_455 S
N2784 Eu2783 2.562 . S
N2784 C2786 1.325 . S
C2785 C2779 1.404 . S
C2785 C2787 1.366 1_655 S
C2785 H2793 0.930 . S
C2786 N2784 1.325 . S
C2786 C2787 1.416 . S
C2786 H2792 0.929 . S
C2787 C2785 1.366 1_455 S
C2787 C2786 1.416 . S
C2787 H2789 0.930 . S
H2788 C2777 0.930 . S
H2789 C2787 0.930 . S
H2790 C2805 0.930 . S
H2791 C2812 0.930 . S
H2792 C2786 0.929 . S
H2793 C2785 0.930 . S
H2794 C2808 0.929 . S
H2795 C2775 0.931 . S
H2796 C2781 0.931 . S
H2797 C2782 0.931 . S
H2798 C2803 0.931 . S
H2799 C2778 0.929 . S
H2800 C2811 0.930 . S
N2801 Eu2772 2.600 . S
N2801 C2802 1.365 . S
N2801 C2805 1.319 . S
C2802 N2801 1.365 . S
C2802 C2804 1.405 . S
C2802 C2810 1.448 . S
C2803 H2798 0.931 . S
C2803 C2805 1.397 . S
C2803 C2806 1.367 . S
C2804 C2802 1.405 . S
C2804 C2806 1.403 . S
C2804 C2837 1.439 . S
C2805 H2790 0.930 . S
C2805 N2801 1.319 . S
C2805 C2803 1.397 . S
C2806 C2803 1.367 . S
C2806 C2804 1.403 . S
C2806 H2813 0.929 . S
N2807 Eu2772 2.562 . S
N2807 C2808 1.325 . S
N2807 C2810 1.351 . S
C2808 H2794 0.929 . S
C2808 N2807 1.325 . S
C2808 C2812 1.416 . S
C2809 C2810 1.430 . S
C2809 C2811 1.404 . S
C2809 C2838 1.387 . S
C2810 C2802 1.448 . S
C2810 N2807 1.351 . S
C2810 C2809 1.430 . S
C2811 H2800 0.930 . S
C2811 C2809 1.404 . S
C2811 C2812 1.366 . S
C2812 H2791 0.930 . S
C2812 C2808 1.416 . S
C2812 C2811 1.366 . S
H2813 C2806 0.929 . S
H2814 C2837 0.931 . S
H2815 C2838 0.931 . S
O2816 Eu2772 2.462 . S
O2816 C2836 1.252 . S
O2817 Eu2772 2.373 . S
O2817 C2828 1.249 . S
O2818 Eu2783 2.335 . S
O2818 C2828 1.264 . S
O2819 Eu2772 2.432 . S
O2819 C2836 1.268 . S
O2820 Eu2772 2.291 . S
O2820 C2835 1.255 1_455 S
O2821 Eu2783 2.372 1_655 S
O2821 C2835 1.257 . S
O2822 Eu2783 2.462 . S
O2822 C2847 1.252 . S
O2823 Eu2783 2.373 1_655 S
O2823 C2839 1.249 . S
O2824 Eu2772 2.335 . S
O2824 C2839 1.264 1_455 S
O2825 Eu2783 2.432 . S
O2825 C2847 1.268 . S
O2826 Eu2783 2.291 . S
O2826 C2846 1.255 . S
O2827 Eu2772 2.372 . S
O2827 C2846 1.257 . S
C2828 O2817 1.249 . S
C2828 O2818 1.264 . S
C2829 C2832 1.382 . S
C2829 C2834 1.390 1_455 S
C2829 C2836 1.506 . S
C2830 C2831 1.398 . S
C2830 C2834 1.392 . S
C2831 C2830 1.398 . S
C2831 C2833 1.372 1_655 S
C2831 H2848 0.931 . S
C2832 C2829 1.382 . S
C2832 C2833 1.390 . S
C2832 H2849 0.931 . S
C2833 C2831 1.372 1_455 S
C2833 C2832 1.390 . S
C2833 H2850 0.929 . S
C2834 C2829 1.390 1_655 S
C2834 C2830 1.392 . S
C2834 H2851 0.930 . S
C2835 O2820 1.255 1_655 S
C2835 O2821 1.257 . S
C2836 Eu2772 2.787 . S
C2836 O2816 1.252 . S
C2836 O2819 1.268 . S
C2836 C2829 1.506 . S
C2837 C2804 1.439 . S
C2837 H2814 0.931 . S
C2837 C2838 1.374 . S
C2838 C2809 1.387 . S
C2838 H2815 0.931 . S
C2838 C2837 1.374 . S
C2839 O2823 1.249 . S
C2839 O2824 1.264 1_655 S
C2840 C2843 1.382 . S
C2840 C2844 1.390 . S
C2840 C2847 1.506 . S
C2841 C2842 1.398 . S
C2841 C2844 1.392 . S
C2842 C2841 1.398 . S
C2842 C2845 1.372 . S
C2842 H2852 0.931 . S
C2843 C2840 1.382 . S
C2843 C2845 1.390 . S
C2843 H2853 0.931 . S
C2844 C2840 1.390 . S
C2844 C2841 1.392 . S
C2844 H2854 0.930 . S
C2845 C2842 1.372 . S
C2845 C2843 1.390 . S
C2845 H2855 0.929 . S
C2846 O2826 1.255 . S
C2846 O2827 1.257 . S
C2847 Eu2783 2.787 . S
C2847 O2822 1.252 . S
C2847 O2825 1.268 . S
C2847 C2840 1.506 . S
H2848 C2831 0.931 . S
H2849 C2832 0.931 . S
H2850 C2833 0.929 . S
H2851 C2834 0.930 . S
H2852 C2842 0.931 . S
H2853 C2843 0.931 . S
H2854 C2844 0.930 . S
H2855 C2845 0.929 . S
Eu2856 N2885 2.600 . S
Eu2856 N2891 2.562 . S
Eu2856 O2900 2.462 . S
Eu2856 O2901 2.373 . S
Eu2856 O2903 2.432 . S
Eu2856 O2904 2.291 . S
Eu2856 O2908 2.335 . S
Eu2856 O2911 2.372 . S
Eu2856 C2920 2.787 . S
C2857 N2858 1.365 . S
C2857 C2860 1.405 . S
C2857 C2864 1.448 . S
N2858 C2857 1.365 . S
N2858 C2861 1.319 . S
N2858 Eu2867 2.600 . S
C2859 C2861 1.397 . S
C2859 C2862 1.367 . S
C2859 H2879 0.931 . S
C2860 C2857 1.405 . S
C2860 C2862 1.403 . S
C2860 C2866 1.439 . S
C2861 N2858 1.319 . S
C2861 C2859 1.397 . S
C2861 H2872 0.930 . S
C2862 C2859 1.367 . S
C2862 C2860 1.403 . S
C2862 H2883 0.929 . S
C2863 C2864 1.430 . S
C2863 C2865 1.387 . S
C2863 C2869 1.404 . S
C2864 C2857 1.448 . S
C2864 C2863 1.430 . S
C2864 N2868 1.351 . S
C2865 C2863 1.387 . S
C2865 C2866 1.374 . S
C2865 H2880 0.931 . S
C2866 C2860 1.439 . S
C2866 C2865 1.374 . S
C2866 H2881 0.931 . S
Eu2867 N2858 2.600 . S
Eu2867 N2868 2.562 . S
Eu2867 O2902 2.335 . S
Eu2867 O2905 2.372 . S
Eu2867 O2906 2.462 . S
Eu2867 O2907 2.373 . S
Eu2867 O2909 2.432 . S
Eu2867 O2910 2.291 . S
Eu2867 C2931 2.787 . S
N2868 C2864 1.351 . S
N2868 Eu2867 2.562 . S
N2868 C2870 1.325 . S
C2869 C2863 1.404 . S
C2869 C2871 1.366 . S
C2869 H2877 0.930 . S
C2870 N2868 1.325 . S
C2870 C2871 1.416 . S
C2870 H2876 0.929 . S
C2871 C2869 1.366 . S
C2871 C2870 1.416 . S
C2871 H2873 0.930 . S
H2872 C2861 0.930 . S
H2873 C2871 0.930 . S
H2874 C2889 0.930 . S
H2875 C2896 0.930 . S
H2876 C2870 0.929 . S
H2877 C2869 0.930 . S
H2878 C2892 0.929 . S
H2879 C2859 0.931 . S
H2880 C2865 0.931 . S
H2881 C2866 0.931 . S
H2882 C2887 0.931 . S
H2883 C2862 0.929 . S
H2884 C2895 0.930 . S
N2885 Eu2856 2.600 . S
N2885 C2886 1.365 . S
N2885 C2889 1.319 . S
C2886 N2885 1.365 . S
C2886 C2888 1.405 . S
C2886 C2894 1.448 . S
C2887 H2882 0.931 . S
C2887 C2889 1.397 . S
C2887 C2890 1.367 . S
C2888 C2886 1.405 . S
C2888 C2890 1.403 . S
C2888 C2921 1.439 . S
C2889 H2874 0.930 . S
C2889 N2885 1.319 . S
C2889 C2887 1.397 . S
C2890 C2887 1.367 . S
C2890 C2888 1.403 . S
C2890 H2897 0.929 . S
N2891 Eu2856 2.562 . S
N2891 C2892 1.325 . S
N2891 C2894 1.351 . S
C2892 H2878 0.929 . S
C2892 N2891 1.325 . S
C2892 C2896 1.416 . S
C2893 C2894 1.430 . S
C2893 C2895 1.404 . S
C2893 C2922 1.387 . S
C2894 C2886 1.448 . S
C2894 N2891 1.351 . S
C2894 C2893 1.430 . S
C2895 H2884 0.930 . S
C2895 C2893 1.404 . S
C2895 C2896 1.366 . S
C2896 H2875 0.930 . S
C2896 C2892 1.416 . S
C2896 C2895 1.366 . S
H2897 C2890 0.929 . S
H2898 C2921 0.931 . S
H2899 C2922 0.931 . S
O2900 Eu2856 2.462 . S
O2900 C2920 1.252 . S
O2901 Eu2856 2.373 . S
O2901 C2912 1.249 . S
O2902 Eu2867 2.335 . S
O2902 C2912 1.264 . S
O2903 Eu2856 2.432 . S
O2903 C2920 1.268 . S
O2904 Eu2856 2.291 . S
O2904 C2919 1.255 . S
O2905 Eu2867 2.372 . S
O2905 C2919 1.257 . S
O2906 Eu2867 2.462 . S
O2906 C2931 1.252 . S
O2907 Eu2867 2.373 . S
O2907 C2923 1.249 . S
O2908 Eu2856 2.335 . S
O2908 C2923 1.264 . S
O2909 Eu2867 2.432 . S
O2909 C2931 1.268 . S
O2910 Eu2867 2.291 . S
O2910 C2930 1.255 . S
O2911 Eu2856 2.372 . S
O2911 C2930 1.257 . S
C2912 O2901 1.249 . S
C2912 O2902 1.264 . S
C2913 C2916 1.382 . S
C2913 C2918 1.390 . S
C2913 C2920 1.506 . S
C2914 C2915 1.398 . S
C2914 C2918 1.392 . S
C2915 C2914 1.398 . S
C2915 C2917 1.372 . S
C2915 H2932 0.931 . S
C2916 C2913 1.382 . S
C2916 C2917 1.390 . S
C2916 H2933 0.931 . S
C2917 C2915 1.372 . S
C2917 C2916 1.390 . S
C2917 H2934 0.929 . S
C2918 C2913 1.390 . S
C2918 C2914 1.392 . S
C2918 H2935 0.930 . S
C2919 O2904 1.255 . S
C2919 O2905 1.257 . S
C2920 Eu2856 2.787 . S
C2920 O2900 1.252 . S
C2920 O2903 1.268 . S
C2920 C2913 1.506 . S
C2921 C2888 1.439 . S
C2921 H2898 0.931 . S
C2921 C2922 1.374 . S
C2922 C2893 1.387 . S
C2922 H2899 0.931 . S
C2922 C2921 1.374 . S
C2923 O2907 1.249 . S
C2923 O2908 1.264 . S
C2924 C2927 1.382 . S
C2924 C2928 1.390 . S
C2924 C2931 1.506 . S
C2925 C2926 1.398 . S
C2925 C2928 1.392 . S
C2926 C2925 1.398 . S
C2926 C2929 1.372 . S
C2926 H2936 0.931 . S
C2927 C2924 1.382 . S
C2927 C2929 1.390 . S
C2927 H2937 0.931 . S
C2928 C2924 1.390 . S
C2928 C2925 1.392 . S
C2928 H2938 0.930 . S
C2929 C2926 1.372 . S
C2929 C2927 1.390 . S
C2929 H2939 0.929 . S
C2930 O2910 1.255 . S
C2930 O2911 1.257 . S
C2931 Eu2867 2.787 . S
C2931 O2906 1.252 . S
C2931 O2909 1.268 . S
C2931 C2924 1.506 . S
H2932 C2915 0.931 . S
H2933 C2916 0.931 . S
H2934 C2917 0.929 . S
H2935 C2918 0.930 . S
H2936 C2926 0.931 . S
H2937 C2927 0.931 . S
H2938 C2928 0.930 . S
H2939 C2929 0.929 . S
Eu2940 N2969 2.600 . S
Eu2940 N2975 2.562 . S
Eu2940 O2984 2.462 . S
Eu2940 O2985 2.373 . S
Eu2940 O2987 2.432 . S
Eu2940 O2988 2.291 . S
Eu2940 O2992 2.335 . S
Eu2940 O2995 2.372 . S
Eu2940 C3004 2.787 . S
C2941 N2942 1.365 . S
C2941 C2944 1.405 . S
C2941 C2948 1.448 . S
N2942 C2941 1.365 . S
N2942 C2945 1.319 . S
N2942 Eu2951 2.600 1_545 S
C2943 C2945 1.397 . S
C2943 C2946 1.367 . S
C2943 H2963 0.931 . S
C2944 C2941 1.405 . S
C2944 C2946 1.403 . S
C2944 C2950 1.439 . S
C2945 N2942 1.319 . S
C2945 C2943 1.397 . S
C2945 H2956 0.930 . S
C2946 C2943 1.367 . S
C2946 C2944 1.403 . S
C2946 H2967 0.929 . S
C2947 C2948 1.430 . S
C2947 C2949 1.387 . S
C2947 C2953 1.404 . S
C2948 C2941 1.448 . S
C2948 C2947 1.430 . S
C2948 N2952 1.351 1_545 S
C2949 C2947 1.387 . S
C2949 C2950 1.374 . S
C2949 H2964 0.931 . S
C2950 C2944 1.439 . S
C2950 C2949 1.374 . S
C2950 H2965 0.931 . S
Eu2951 N2942 2.600 1_565 S
Eu2951 N2952 2.562 . S
Eu2951 O2986 2.335 . S
Eu2951 O2989 2.372 1_565 S
Eu2951 O2990 2.462 . S
Eu2951 O2991 2.373 1_565 S
Eu2951 O2993 2.432 . S
Eu2951 O2994 2.291 . S
Eu2951 C3015 2.787 . S
N2952 C2948 1.351 1_565 S
N2952 Eu2951 2.562 . S
N2952 C2954 1.325 . S
C2953 C2947 1.404 . S
C2953 C2955 1.366 1_545 S
C2953 H2961 0.930 . S
C2954 N2952 1.325 . S
C2954 C2955 1.416 . S
C2954 H2960 0.929 . S
C2955 C2953 1.366 1_565 S
C2955 C2954 1.416 . S
C2955 H2957 0.930 . S
H2956 C2945 0.930 . S
H2957 C2955 0.930 . S
H2958 C2973 0.930 . S
H2959 C2980 0.930 . S
H2960 C2954 0.929 . S
H2961 C2953 0.930 . S
H2962 C2976 0.929 . S
H2963 C2943 0.931 . S
H2964 C2949 0.931 . S
H2965 C2950 0.931 . S
H2966 C2971 0.931 . S
H2967 C2946 0.929 . S
H2968 C2979 0.930 . S
N2969 Eu2940 2.600 . S
N2969 C2970 1.365 . S
N2969 C2973 1.319 . S
C2970 N2969 1.365 . S
C2970 C2972 1.405 . S
C2970 C2978 1.448 . S
C2971 H2966 0.931 . S
C2971 C2973 1.397 . S
C2971 C2974 1.367 . S
C2972 C2970 1.405 . S
C2972 C2974 1.403 . S
C2972 C3005 1.439 . S
C2973 H2958 0.930 . S
C2973 N2969 1.319 . S
C2973 C2971 1.397 . S
C2974 C2971 1.367 . S
C2974 C2972 1.403 . S
C2974 H2981 0.929 . S
N2975 Eu2940 2.562 . S
N2975 C2976 1.325 . S
N2975 C2978 1.351 . S
C2976 H2962 0.929 . S
C2976 N2975 1.325 . S
C2976 C2980 1.416 . S
C2977 C2978 1.430 . S
C2977 C2979 1.404 . S
C2977 C3006 1.387 . S
C2978 C2970 1.448 . S
C2978 N2975 1.351 . S
C2978 C2977 1.430 . S
C2979 H2968 0.930 . S
C2979 C2977 1.404 . S
C2979 C2980 1.366 . S
C2980 H2959 0.930 . S
C2980 C2976 1.416 . S
C2980 C2979 1.366 . S
H2981 C2974 0.929 . S
H2982 C3005 0.931 . S
H2983 C3006 0.931 . S
O2984 Eu2940 2.462 . S
O2984 C3004 1.252 . S
O2985 Eu2940 2.373 . S
O2985 C2996 1.249 . S
O2986 Eu2951 2.335 . S
O2986 C2996 1.264 . S
O2987 Eu2940 2.432 . S
O2987 C3004 1.268 . S
O2988 Eu2940 2.291 . S
O2988 C3003 1.255 1_565 S
O2989 Eu2951 2.372 1_545 S
O2989 C3003 1.257 . S
O2990 Eu2951 2.462 . S
O2990 C3015 1.252 . S
O2991 Eu2951 2.373 1_545 S
O2991 C3007 1.249 . S
O2992 Eu2940 2.335 . S
O2992 C3007 1.264 1_565 S
O2993 Eu2951 2.432 . S
O2993 C3015 1.268 . S
O2994 Eu2951 2.291 . S
O2994 C3014 1.255 . S
O2995 Eu2940 2.372 . S
O2995 C3014 1.257 . S
C2996 O2985 1.249 . S
C2996 O2986 1.264 . S
C2997 C3000 1.382 . S
C2997 C3002 1.390 1_565 S
C2997 C3004 1.506 . S
C2998 C2999 1.398 . S
C2998 C3002 1.392 . S
C2999 C2998 1.398 . S
C2999 C3001 1.372 1_545 S
C2999 H3016 0.931 . S
C3000 C2997 1.382 . S
C3000 C3001 1.390 . S
C3000 H3017 0.931 . S
C3001 C2999 1.372 1_565 S
C3001 C3000 1.390 . S
C3001 H3018 0.929 . S
C3002 C2997 1.390 1_545 S
C3002 C2998 1.392 . S
C3002 H3019 0.930 . S
C3003 O2988 1.255 1_545 S
C3003 O2989 1.257 . S
C3004 Eu2940 2.787 . S
C3004 O2984 1.252 . S
C3004 O2987 1.268 . S
C3004 C2997 1.506 . S
C3005 C2972 1.439 . S
C3005 H2982 0.931 . S
C3005 C3006 1.374 . S
C3006 C2977 1.387 . S
C3006 H2983 0.931 . S
C3006 C3005 1.374 . S
C3007 O2991 1.249 . S
C3007 O2992 1.264 1_545 S
C3008 C3011 1.382 . S
C3008 C3012 1.390 . S
C3008 C3015 1.506 . S
C3009 C3010 1.398 . S
C3009 C3012 1.392 . S
C3010 C3009 1.398 . S
C3010 C3013 1.372 . S
C3010 H3020 0.931 . S
C3011 C3008 1.382 . S
C3011 C3013 1.390 . S
C3011 H3021 0.931 . S
C3012 C3008 1.390 . S
C3012 C3009 1.392 . S
C3012 H3022 0.930 . S
C3013 C3010 1.372 . S
C3013 C3011 1.390 . S
C3013 H3023 0.929 . S
C3014 O2994 1.255 . S
C3014 O2995 1.257 . S
C3015 Eu2951 2.787 . S
C3015 O2990 1.252 . S
C3015 O2993 1.268 . S
C3015 C3008 1.506 . S
H3016 C2999 0.931 . S
H3017 C3000 0.931 . S
H3018 C3001 0.929 . S
H3019 C3002 0.930 . S
H3020 C3010 0.931 . S
H3021 C3011 0.931 . S
H3022 C3012 0.930 . S
H3023 C3013 0.929 . S
C63 C235 1.962 . S
C67 C147 1.962 . S
C231 C151 1.962 . S
C315 C403 2.076 . S
C487 C399 2.076 . S
C483 C319 2.075 . S
C578 C728 1.962 . S
C662 C560 1.962 . S
C746 C644 1.962 . S
C830 C896 2.076 . S
C980 C914 2.076 . S
C812 C998 2.075 . S
C1243 C1071 2.058 . S
C1155 C1075 2.057 . S
C1159 C1239 2.058 . S
C1323 C1411 2.089 . S
C1495 C1407 2.089 . S
C1327 C1491 2.088 . S
C1586 C1736 2.003 . S
C1670 C1568 2.002 . S
C1652 C1754 2.003 . S
C1904 C1838 1.767 . S
C1922 C1988 1.766 . S
C1820 C2006 1.765 . S
C2079 C2251 2.003 . S
C2163 C2083 2.002 . S
C2247 C2167 2.003 . S
C2331 C2419 1.767 . S
C2415 C2503 1.766 . S
C2499 C2335 1.765 . S
C2594 C2744 2.058 . S
C2678 C2576 2.057 . S
C2660 C2762 2.058 . S
C2846 C2912 2.089 . S
C2930 C2996 2.089 . S
C2828 C3014 2.088 . S
C56 C1743 2.158 . S
C1575 C140 2.158 . S
C224 C1659 2.158 . S
C308 C2919 2.039 . S
C3003 C392 2.040 . S
C476 C2835 2.040 . S
C2258 C571 2.158 . S
C655 C2090 2.158 . S
C739 C2174 2.158 . S
C1418 C823 2.039 . S
C1502 C907 2.040 . S
C1334 C991 2.040 . S
C1064 C2751 2.106 1_655 S
C1148 C2583 2.108 . S
C2667 C1232 2.107 1_565 S
C903 C1316 2.104 . S
C987 C1400 2.104 . S
C819 C1484 2.104 . S
C242 C1579 2.163 . S
C1663 C74 2.164 . S
C1747 C158 2.164 . S
C2426 C1831 2.299 1_564 S
C2510 C1915 2.299 1_454 S
C1999 C2342 2.300 1_556 S
C735 C2072 2.163 . S
C567 C2156 2.164 . S
C651 C2240 2.164 . S
C2324 C1911 2.299 1_564 S
C1995 C2408 2.299 1_656 S
C2492 C1827 2.300 1_554 S
C2587 C1250 2.106 1_455 S
C2671 C1082 2.108 . S
C2755 C1166 2.107 1_565 S
C2839 C410 2.104 . S
C494 C2923 2.104 . S
C326 C3007 2.104 . S
C2505 C69 2.745 . S
C2337 C153 2.745 . S
C237 C2421 2.745 . S
C1161 C321 2.849 . S
C405 C1245 2.849 . S
C489 C1077 2.848 . S
C562 C1990 2.745 . S
C646 C1822 2.745 . S
C730 C1906 2.745 . S
C2662 C814 2.849 . S
C2746 C898 2.849 . S
C2578 C982 2.848 . S
C1329 C2169 2.836 1_455 S
C1413 C2253 2.836 . S
C1497 C2085 2.837 1_565 S
C1570 C2998 2.837 1_565 S
C2830 C1654 2.836 1_655 S
C1738 C2914 2.836 . S
C394 C58 0.855 1_655 S
C478 C142 0.856 . S
C310 C226 0.856 1_545 S
C573 C909 0.855 1_655 S
C993 C657 0.856 . S
C741 C825 0.856 1_545 S
C1402 C1066 0.902 . S
C1486 C1150 0.902 . S
C1318 C1234 0.901 . S
C1917 C1581 1.110 . S
C1665 C2001 1.110 . S
C1749 C1833 1.110 . S
C2074 C2410 1.110 . S
C2494 C2158 1.110 . S
C2242 C2326 1.110 . S
C2589 C2925 0.902 . S
C3009 C2673 0.902 . S
C2757 C2841 0.901 . S
