# Generated by pormake.
# Topology unb, (4)-cn, num edge types: 1
# Building blocks:
#     Node 0, Type 0, BuildingBlock: GALJAG_clean_sbu_0, # of connection points: 4
#     Node 1, Type 0, BuildingBlock: GALJAG_clean_sbu_0, # of connection points: 4
#     Node 2, Type 0, BuildingBlock: GALJAG_clean_sbu_0, # of connection points: 4
#     Node 3, Type 0, BuildingBlock: GALJAG_clean_sbu_0, # of connection points: 4
#     Node 4, Type 0, BuildingBlock: GALJAG_clean_sbu_0, # of connection points: 4
#     Node 5, Type 0, BuildingBlock: GALJAG_clean_sbu_0, # of connection points: 4
#     Node 6, Type 0, BuildingBlock: GALJAG_clean_sbu_0, # of connection points: 4
#     Node 7, Type 0, BuildingBlock: GALJAG_clean_sbu_0, # of connection points: 4
#     Node 8, Type 0, BuildingBlock: GALJAG_clean_sbu_0, # of connection points: 4
#     Node 9, Type 0, BuildingBlock: GALJAG_clean_sbu_0, # of connection points: 4
#     Node 10, Type 0, BuildingBlock: GALJAG_clean_sbu_0, # of connection points: 4
#     Node 11, Type 0, BuildingBlock: GALJAG_clean_sbu_0, # of connection points: 4
#     Node 12, Type 0, BuildingBlock: GALJAG_clean_sbu_0, # of connection points: 4
#     Node 13, Type 0, BuildingBlock: GALJAG_clean_sbu_0, # of connection points: 4
#     Node 14, Type 0, BuildingBlock: GALJAG_clean_sbu_0, # of connection points: 4
#     Node 15, Type 0, BuildingBlock: GALJAG_clean_sbu_0, # of connection points: 4
#     Node 16, Type 0, BuildingBlock: GALJAG_clean_sbu_0, # of connection points: 4
#     Node 17, Type 0, BuildingBlock: GALJAG_clean_sbu_0, # of connection points: 4
#     Edge 18, Type (0, 0), BuildingBlock: ZUJKAS_clean_linker_0, # of connection points: 2
#     Edge 19, Type (0, 0), BuildingBlock: ZUJKAS_clean_linker_0, # of connection points: 2
#     Edge 20, Type (0, 0), BuildingBlock: ZUJKAS_clean_linker_0, # of connection points: 2
#     Edge 21, Type (0, 0), BuildingBlock: ZUJKAS_clean_linker_0, # of connection points: 2
#     Edge 22, Type (0, 0), BuildingBlock: ZUJKAS_clean_linker_0, # of connection points: 2
#     Edge 23, Type (0, 0), BuildingBlock: ZUJKAS_clean_linker_0, # of connection points: 2
#     Edge 24, Type (0, 0), BuildingBlock: ZUJKAS_clean_linker_0, # of connection points: 2
#     Edge 25, Type (0, 0), BuildingBlock: ZUJKAS_clean_linker_0, # of connection points: 2
#     Edge 26, Type (0, 0), BuildingBlock: ZUJKAS_clean_linker_0, # of connection points: 2
#     Edge 27, Type (0, 0), BuildingBlock: ZUJKAS_clean_linker_0, # of connection points: 2
#     Edge 28, Type (0, 0), BuildingBlock: ZUJKAS_clean_linker_0, # of connection points: 2
#     Edge 29, Type (0, 0), BuildingBlock: ZUJKAS_clean_linker_0, # of connection points: 2
#     Edge 30, Type (0, 0), BuildingBlock: ZUJKAS_clean_linker_0, # of connection points: 2
#     Edge 31, Type (0, 0), BuildingBlock: ZUJKAS_clean_linker_0, # of connection points: 2
#     Edge 32, Type (0, 0), BuildingBlock: ZUJKAS_clean_linker_0, # of connection points: 2
#     Edge 33, Type (0, 0), BuildingBlock: ZUJKAS_clean_linker_0, # of connection points: 2
#     Edge 34, Type (0, 0), BuildingBlock: ZUJKAS_clean_linker_0, # of connection points: 2
#     Edge 35, Type (0, 0), BuildingBlock: ZUJKAS_clean_linker_0, # of connection points: 2
#     Edge 36, Type (0, 0), BuildingBlock: ZUJKAS_clean_linker_0, # of connection points: 2
#     Edge 37, Type (0, 0), BuildingBlock: ZUJKAS_clean_linker_0, # of connection points: 2
#     Edge 38, Type (0, 0), BuildingBlock: ZUJKAS_clean_linker_0, # of connection points: 2
#     Edge 39, Type (0, 0), BuildingBlock: ZUJKAS_clean_linker_0, # of connection points: 2
#     Edge 40, Type (0, 0), BuildingBlock: ZUJKAS_clean_linker_0, # of connection points: 2
#     Edge 41, Type (0, 0), BuildingBlock: ZUJKAS_clean_linker_0, # of connection points: 2
#     Edge 42, Type (0, 0), BuildingBlock: ZUJKAS_clean_linker_0, # of connection points: 2
#     Edge 43, Type (0, 0), BuildingBlock: ZUJKAS_clean_linker_0, # of connection points: 2
#     Edge 44, Type (0, 0), BuildingBlock: ZUJKAS_clean_linker_0, # of connection points: 2
#     Edge 45, Type (0, 0), BuildingBlock: ZUJKAS_clean_linker_0, # of connection points: 2
#     Edge 46, Type (0, 0), BuildingBlock: ZUJKAS_clean_linker_0, # of connection points: 2
#     Edge 47, Type (0, 0), BuildingBlock: ZUJKAS_clean_linker_0, # of connection points: 2
#     Edge 48, Type (0, 0), BuildingBlock: ZUJKAS_clean_linker_0, # of connection points: 2
#     Edge 49, Type (0, 0), BuildingBlock: ZUJKAS_clean_linker_0, # of connection points: 2
#     Edge 50, Type (0, 0), BuildingBlock: ZUJKAS_clean_linker_0, # of connection points: 2
#     Edge 51, Type (0, 0), BuildingBlock: ZUJKAS_clean_linker_0, # of connection points: 2
#     Edge 52, Type (0, 0), BuildingBlock: ZUJKAS_clean_linker_0, # of connection points: 2
#     Edge 53, Type (0, 0), BuildingBlock: ZUJKAS_clean_linker_0, # of connection points: 2
# Relax obj value: 0.185
# Max RMSD: 0.140
# Mean RMSD: 0.139
data_MOF--net-unb--node1-GALJAG_clean_sbu_0--edge1-ZUJKAS_clean_linker_0
_symmetry_space_group_name_H-M    P1
_symmetry_Int_Tables_number       1
_symmetry_cell_setting            triclinic
loop_
_symmetry_equiv_pos_as_xyz
'x, y, z'
_cell_length_a     80.251865
_cell_length_b     80.270838
_cell_length_c     35.028933
_cell_angle_alpha  90.05181
_cell_angle_beta   89.96814
_cell_angle_gamma 120.03757
loop_
_atom_site_label
_atom_site_type_symbol
_atom_site_fract_x
_atom_site_fract_y
_atom_site_fract_z
_atom_type_partial_charge
In0 In 0.13138 0.26455 0.08005 0.0
O1 O 0.14638 0.29149 0.11705 0.0
O2 O 0.12956 0.26475 0.14521 0.0
C3 C 0.13998 0.2812 0.01066 0.0
C4 C 0.15261 0.24712 0.07667 0.0
C5 C 0.09275 0.24636 0.07278 0.0
O6 O 0.14205 0.2907 0.0408 0.0
O7 O 0.13366 0.2635 0.01571 0.0
O8 O 0.10174 0.2375 0.07918 0.0
O9 O 0.10315 0.26443 0.07181 0.0
C10 C 0.14019 0.28274 0.14829 0.0
O11 O 0.13459 0.23793 0.08111 0.0
O12 O 0.16003 0.26517 0.07587 0.0
In13 In 0.72843 0.86603 0.08079 0.0
O14 O 0.75354 0.89671 0.08625 0.0
O15 O 0.72608 0.89293 0.07237 0.0
C16 C 0.75023 0.84928 0.07406 0.0
C17 C 0.71065 0.85708 0.14944 0.0
C18 C 0.71037 0.85384 0.01296 0.0
O19 O 0.75707 0.86719 0.07121 0.0
O20 O 0.73249 0.83984 0.08168 0.0
O21 O 0.70241 0.84581 0.044 0.0
O22 O 0.72718 0.86791 0.01637 0.0
C23 C 0.74376 0.90452 0.07769 0.0
O24 O 0.70193 0.85572 0.11864 0.0
O25 O 0.7284 0.86306 0.1457 0.0
In26 In 0.12626 0.86038 0.08074 0.0
O27 O 0.0969 0.85823 0.08124 0.0
O28 O 0.09772 0.83218 0.07833 0.0
C29 C 0.14558 0.89891 0.07103 0.0
C30 C 0.13532 0.85137 0.14919 0.0
C31 C 0.135 0.8512 0.01241 0.0
O32 O 0.12784 0.88957 0.07859 0.0
O33 O 0.15369 0.88894 0.06994 0.0
O34 O 0.14521 0.85388 0.04169 0.0
O35 O 0.12044 0.85296 0.01781 0.0
C36 C 0.08754 0.84013 0.07831 0.0
O37 O 0.13577 0.84345 0.11844 0.0
O38 O 0.13025 0.86382 0.14552 0.0
In39 In 0.26338 0.12947 0.91502 0.0
O40 O 0.28987 0.14585 0.87731 0.0
O41 O 0.26314 0.1283 0.8497 0.0
C42 C 0.28263 0.13661 0.98173 0.0
C43 C 0.24675 0.15128 0.92083 0.0
C44 C 0.24159 0.09091 0.92294 0.0
O45 O 0.28761 0.13107 0.95238 0.0
O46 O 0.26824 0.13871 0.97719 0.0
O47 O 0.23456 0.10186 0.9233 0.0
O48 O 0.25947 0.09932 0.91701 0.0
C49 C 0.28098 0.13968 0.84622 0.0
O50 O 0.23716 0.1333 0.91557 0.0
O51 O 0.26479 0.15834 0.9215 0.0
In52 In 0.86372 0.13345 0.91411 0.0
O53 O 0.85556 0.15057 0.8742 0.0
O54 O 0.86018 0.12911 0.84932 0.0
C55 C 0.85509 0.14428 0.98059 0.0
C56 C 0.84188 0.09519 0.92546 0.0
C57 C 0.90249 0.15248 0.91763 0.0
O58 O 0.84731 0.14454 0.94944 0.0
O59 O 0.86718 0.1387 0.97801 0.0
O60 O 0.89261 0.13442 0.91442 0.0
O61 O 0.89285 0.16098 0.91727 0.0
C62 C 0.85581 0.14201 0.84423 0.0
O63 O 0.85985 0.10347 0.92064 0.0
O64 O 0.83481 0.10607 0.92284 0.0
In65 In 0.85774 0.72523 0.91698 0.0
O66 O 0.88622 0.75323 0.92542 0.0
O67 O 0.88702 0.72725 0.92161 0.0
C68 C 0.84409 0.74835 0.93922 0.0
C69 C 0.84757 0.71051 0.84559 0.0
C70 C 0.84371 0.69717 0.97005 0.0
O71 O 0.85145 0.74165 0.96184 0.0
O72 O 0.84376 0.74362 0.90468 0.0
O73 O 0.8602 0.70374 0.95549 0.0
O74 O 0.83393 0.70414 0.95658 0.0
C75 C 0.89628 0.7452 0.92681 0.0
O76 O 0.83833 0.70166 0.87495 0.0
O77 O 0.86183 0.72694 0.85206 0.0
In78 In 0.79707 0.59783 0.41275 0.0
O79 O 0.81374 0.6246 0.44983 0.0
O80 O 0.79325 0.59882 0.47722 0.0
C81 C 0.80616 0.6139 0.34278 0.0
C82 C 0.81727 0.57928 0.41233 0.0
C83 C 0.75859 0.5801 0.40365 0.0
O84 O 0.80677 0.62341 0.37204 0.0
O85 O 0.80118 0.59659 0.34908 0.0
O86 O 0.76727 0.57104 0.41125 0.0
O87 O 0.76922 0.59815 0.40234 0.0
C88 C 0.80562 0.61641 0.48059 0.0
O89 O 0.79917 0.57059 0.41544 0.0
O90 O 0.82523 0.59739 0.41143 0.0
In91 In 0.39347 0.19755 0.41321 0.0
O92 O 0.3675 0.18855 0.45185 0.0
O93 O 0.39408 0.1961 0.47849 0.0
C94 C 0.37362 0.18498 0.34727 0.0
C95 C 0.41085 0.23602 0.40593 0.0
C96 C 0.41435 0.17987 0.40461 0.0
O97 O 0.36848 0.17499 0.37731 0.0
O98 O 0.38846 0.20127 0.35074 0.0
O99 O 0.42198 0.19792 0.4064 0.0
O100 O 0.39635 0.17079 0.40884 0.0
C101 C 0.37642 0.19045 0.48258 0.0
O102 O 0.42012 0.22728 0.41065 0.0
O103 O 0.39276 0.2254 0.40655 0.0
In104 In 0.79443 0.19506 0.41345 0.0
O105 O 0.80372 0.17824 0.45165 0.0
O106 O 0.79784 0.19848 0.47837 0.0
C107 C 0.80403 0.18636 0.34566 0.0
C108 C 0.75569 0.17428 0.40997 0.0
C109 C 0.81474 0.23362 0.4049 0.0
O110 O 0.81184 0.18576 0.37651 0.0
O111 O 0.79139 0.19119 0.34919 0.0
O112 O 0.79674 0.2245 0.40956 0.0
O113 O 0.82258 0.22338 0.40624 0.0
C114 C 0.80299 0.18608 0.48229 0.0
O115 O 0.76474 0.19231 0.41429 0.0
O116 O 0.76614 0.16668 0.40905 0.0
In117 In 0.93043 0.46409 0.24856 0.0
O118 O 0.95644 0.48071 0.20974 0.0
O119 O 0.92985 0.46153 0.18331 0.0
C120 C 0.94915 0.47243 0.31589 0.0
C121 C 0.91242 0.48472 0.2556 0.0
C122 C 0.912 0.42544 0.25547 0.0
O123 O 0.95759 0.47406 0.28451 0.0
O124 O 0.93142 0.46662 0.31313 0.0
O125 O 0.90325 0.43462 0.25017 0.0
O126 O 0.93011 0.43566 0.25559 0.0
C127 C 0.9475 0.4735 0.17909 0.0
O128 O 0.90347 0.46678 0.25011 0.0
O129 O 0.9305 0.49238 0.25572 0.0
In130 In 0.52899 0.46447 0.24727 0.0
O131 O 0.52483 0.43424 0.24471 0.0
O132 O 0.50001 0.43692 0.2525 0.0
C133 C 0.56771 0.48466 0.25137 0.0
C134 C 0.51963 0.47391 0.17981 0.0
C135 C 0.52222 0.47276 0.31812 0.0
O136 O 0.55842 0.46665 0.24687 0.0
O137 O 0.55751 0.49255 0.25213 0.0
O138 O 0.51916 0.47994 0.28871 0.0
O139 O 0.52858 0.46153 0.31157 0.0
C140 C 0.50689 0.42585 0.25026 0.0
O141 O 0.51389 0.47671 0.21141 0.0
O142 O 0.53007 0.46631 0.18222 0.0
In143 In 0.52633 0.06331 0.24565 0.0
O144 O 0.5086 0.03786 0.20624 0.0
O145 O 0.53101 0.06325 0.18112 0.0
C146 C 0.51569 0.04416 0.31248 0.0
C147 C 0.56462 0.0805 0.2576 0.0
C148 C 0.50754 0.08327 0.24828 0.0
O149 O 0.51631 0.03623 0.28179 0.0
O150 O 0.52031 0.06158 0.30926 0.0
O151 O 0.52554 0.0913 0.24408 0.0
O152 O 0.49895 0.06513 0.24934 0.0
C153 C 0.51759 0.04616 0.17627 0.0
O154 O 0.55611 0.08985 0.25147 0.0
O155 O 0.55397 0.06247 0.25604 0.0
In156 In 0.4663 0.93221 0.74444 0.0
O157 O 0.48285 0.95796 0.78381 0.0
O158 O 0.46128 0.93203 0.80891 0.0
C159 C 0.47623 0.95151 0.67772 0.0
C160 C 0.48696 0.91413 0.74166 0.0
C161 C 0.42787 0.91318 0.73343 0.0
O162 O 0.475 0.95908 0.70841 0.0
O163 O 0.47262 0.93439 0.68087 0.0
O164 O 0.437 0.90472 0.74229 0.0
O165 O 0.438 0.93127 0.73182 0.0
C166 C 0.47404 0.9494 0.81375 0.0
O167 O 0.46881 0.90521 0.74177 0.0
O168 O 0.49472 0.93216 0.74454 0.0
In169 In 0.06215 0.53238 0.74756 0.0
O170 O 0.08852 0.5624 0.74999 0.0
O171 O 0.0616 0.56023 0.73784 0.0
C172 C 0.0815 0.51301 0.74156 0.0
C173 C 0.04441 0.52252 0.81638 0.0
C174 C 0.04396 0.52298 0.6796 0.0
O175 O 0.08984 0.53109 0.74428 0.0
O176 O 0.06339 0.50463 0.74362 0.0
O177 O 0.03519 0.52141 0.71053 0.0
O178 O 0.06177 0.52935 0.68308 0.0
C179 C 0.07952 0.57104 0.74173 0.0
O180 O 0.03576 0.51544 0.78541 0.0
O181 O 0.06208 0.53458 0.81278 0.0
In182 In 0.46267 0.52587 0.74317 0.0
O183 O 0.43297 0.52318 0.74801 0.0
O184 O 0.43448 0.49922 0.72674 0.0
C185 C 0.47543 0.56242 0.72041 0.0
C186 C 0.47224 0.51997 0.81416 0.0
C187 C 0.47884 0.51455 0.6893 0.0
O188 O 0.46403 0.54793 0.70097 0.0
O189 O 0.48018 0.55855 0.75214 0.0
O190 O 0.46304 0.50305 0.70511 0.0
O191 O 0.48681 0.53159 0.70171 0.0
C192 C 0.42402 0.50635 0.73457 0.0
O193 O 0.48004 0.5184 0.78427 0.0
O194 O 0.45967 0.5247 0.80847 0.0
In195 In 0.59785 0.79503 0.58254 0.0
O196 O 0.62258 0.80144 0.54194 0.0
O197 O 0.59797 0.801 0.51861 0.0
C198 C 0.61859 0.80093 0.64694 0.0
C199 C 0.58311 0.8183 0.59502 0.0
C200 C 0.57392 0.7566 0.58483 0.0
O201 O 0.62572 0.81087 0.6172 0.0
O202 O 0.60123 0.78795 0.64387 0.0
O203 O 0.569 0.76855 0.59537 0.0
O204 O 0.59084 0.76403 0.57189 0.0
C205 C 0.61455 0.80342 0.51276 0.0
O206 O 0.57334 0.80167 0.58098 0.0
O207 O 0.6005 0.82349 0.6013 0.0
In208 In 0.19771 0.80261 0.5834 0.0
O209 O 0.18533 0.81633 0.54416 0.0
O210 O 0.19593 0.79953 0.51834 0.0
C211 C 0.18664 0.81678 0.64183 0.0
C212 C 0.18019 0.76526 0.6046 0.0
C213 C 0.23639 0.81896 0.58347 0.0
O214 O 0.20402 0.8227 0.63384 0.0
O215 O 0.17469 0.80408 0.61949 0.0
O216 O 0.22532 0.80097 0.58457 0.0
O217 O 0.22794 0.82857 0.58042 0.0
C218 C 0.18823 0.80976 0.51373 0.0
O219 O 0.19307 0.7787 0.62418 0.0
O220 O 0.1763 0.77054 0.57355 0.0
In221 In 0.19163 0.39474 0.58209 0.0
O222 O 0.17743 0.36863 0.54283 0.0
O223 O 0.19342 0.39604 0.51677 0.0
C224 C 0.1798 0.37059 0.64252 0.0
C225 C 0.22941 0.41599 0.59929 0.0
C226 C 0.17389 0.41568 0.58475 0.0
O227 O 0.17244 0.38069 0.63367 0.0
O228 O 0.19292 0.37226 0.62032 0.0
O229 O 0.19193 0.42334 0.58174 0.0
O230 O 0.16484 0.39752 0.58445 0.0
C231 C 0.18331 0.37808 0.51227 0.0
O232 O 0.21671 0.41847 0.6151 0.0
O233 O 0.22315 0.40306 0.57397 0.0
H234 H 0.19474 0.39527 0.44236 0.0
H235 H 0.18716 0.37951 0.37969 0.0
H236 H 0.15445 0.32416 0.43411 0.0
H237 H 0.16177 0.33976 0.49668 0.0
H238 H 0.19554 0.35124 0.35284 0.0
H239 H 0.11688 0.32405 0.35432 0.0
H240 H 0.13336 0.34249 0.38665 0.0
H241 H 0.12564 0.31762 0.39567 0.0
C242 C 0.18585 0.37975 0.44092 0.0
C243 C 0.17876 0.36875 0.47437 0.0
C244 C 0.18156 0.37079 0.40515 0.0
C245 C 0.17001 0.35071 0.40229 0.0
C246 C 0.16306 0.3397 0.43567 0.0
H247 H 0.12885 0.26695 0.21924 0.0
H248 H 0.13672 0.28383 0.28066 0.0
C249 C 0.16734 0.34863 0.47139 0.0
C250 C 0.16565 0.34118 0.36449 0.0
H251 H 0.12861 0.31231 0.30497 0.0
C252 C 0.18093 0.34283 0.3422 0.0
C253 C 0.14656 0.3302 0.35083 0.0
C254 C 0.12966 0.32858 0.37291 0.0
C255 C 0.1776 0.33339 0.30689 0.0
C256 C 0.1585 0.32231 0.29333 0.0
C257 C 0.14323 0.32077 0.31553 0.0
C258 C 0.15402 0.31218 0.25615 0.0
C259 C 0.1945 0.33496 0.2849 0.0
C260 C 0.16099 0.32256 0.22205 0.0
C261 C 0.15656 0.31297 0.18699 0.0
C262 C 0.14496 0.29283 0.18542 0.0
C263 C 0.13786 0.28247 0.21958 0.0
C264 C 0.14232 0.29208 0.25465 0.0
H265 H 0.20736 0.33975 0.30339 0.0
H266 H 0.19087 0.32095 0.2717 0.0
H267 H 0.19836 0.34568 0.26171 0.0
H268 H 0.16971 0.33811 0.22253 0.0
H269 H 0.16213 0.32134 0.16111 0.0
H270 H 0.65099 0.81164 0.4951 0.0
H271 H 0.66701 0.82099 0.43298 0.0
H272 H 0.61549 0.81571 0.38287 0.0
H273 H 0.59949 0.80673 0.44512 0.0
H274 H 0.65749 0.80117 0.36517 0.0
H275 H 0.65627 0.86935 0.34943 0.0
H276 H 0.65109 0.85651 0.39411 0.0
H277 H 0.633 0.84864 0.3575 0.0
C278 C 0.64308 0.81251 0.47086 0.0
C279 C 0.62402 0.80856 0.47499 0.0
C280 C 0.65225 0.81785 0.4354 0.0
C281 C 0.64256 0.81937 0.40345 0.0
C282 C 0.62339 0.81507 0.40734 0.0
H283 H 0.67305 0.8456 0.16444 0.0
H284 H 0.65654 0.83621 0.22618 0.0
C285 C 0.61423 0.80982 0.44285 0.0
C286 C 0.65244 0.82511 0.36597 0.0
H287 H 0.6665 0.85889 0.29546 0.0
C288 C 0.65953 0.81383 0.35 0.0
C289 C 0.6551 0.84165 0.34625 0.0
C290 C 0.64863 0.85486 0.3628 0.0
C291 C 0.66897 0.81849 0.31457 0.0
C292 C 0.67156 0.83497 0.29485 0.0
C293 C 0.66443 0.84623 0.3107 0.0
C294 C 0.68166 0.8408 0.25769 0.0
C295 C 0.67582 0.80557 0.29816 0.0
C296 C 0.70131 0.84673 0.25516 0.0
C297 C 0.71079 0.85216 0.21999 0.0
C298 C 0.70077 0.85175 0.18679 0.0
C299 C 0.68114 0.84601 0.18952 0.0
C300 C 0.67169 0.84066 0.22472 0.0
H301 H 0.66902 0.79134 0.31258 0.0
H302 H 0.67268 0.80329 0.26712 0.0
H303 H 0.69164 0.8125 0.30195 0.0
H304 H 0.70932 0.84721 0.28043 0.0
H305 H 0.72594 0.85658 0.21879 0.0
H306 H 0.19152 0.79597 0.44441 0.0
H307 H 0.18287 0.80294 0.38166 0.0
H308 H 0.16438 0.83943 0.43481 0.0
H309 H 0.17303 0.83264 0.49749 0.0
H310 H 0.14587 0.79659 0.35735 0.0
H311 H 0.20253 0.87368 0.35087 0.0
H312 H 0.20366 0.85689 0.38355 0.0
H313 H 0.18831 0.86667 0.39373 0.0
C314 C 0.18566 0.80552 0.44268 0.0
C315 C 0.18302 0.81383 0.47581 0.0
C316 C 0.18072 0.80946 0.40687 0.0
C317 C 0.17324 0.82189 0.40363 0.0
C318 C 0.17044 0.83006 0.43668 0.0
H319 H 0.13441 0.86581 0.21928 0.0
H320 H 0.1432 0.85791 0.28082 0.0
C321 C 0.17531 0.82609 0.47246 0.0
C322 C 0.16799 0.82606 0.36577 0.0
H323 H 0.1784 0.86251 0.30304 0.0
C324 C 0.15303 0.81096 0.34529 0.0
C325 C 0.17736 0.84485 0.3503 0.0
C326 C 0.19398 0.86146 0.37052 0.0
C327 C 0.14686 0.81424 0.31003 0.0
C328 C 0.15619 0.83305 0.29459 0.0
C329 C 0.17124 0.84812 0.315 0.0
C330 C 0.15054 0.83747 0.25732 0.0
C331 C 0.13008 0.79764 0.29014 0.0
C332 C 0.15194 0.82872 0.2237 0.0
C333 C 0.14686 0.83315 0.18856 0.0
C334 C 0.14047 0.84654 0.18641 0.0
C335 C 0.13924 0.8554 0.22007 0.0
C336 C 0.14427 0.85092 0.25521 0.0
H337 H 0.12141 0.7856 0.31011 0.0
H338 H 0.12052 0.80228 0.27681 0.0
H339 H 0.13558 0.79209 0.26727 0.0
H340 H 0.15715 0.81862 0.22457 0.0
H341 H 0.14809 0.82619 0.16307 0.0
H342 H 0.39295 0.19568 0.55306 0.0
H343 H 0.37661 0.18738 0.61516 0.0
H344 H 0.32196 0.16677 0.55895 0.0
H345 H 0.33812 0.17505 0.49687 0.0
H346 H 0.35027 0.20055 0.64583 0.0
H347 H 0.31623 0.12122 0.62837 0.0
H348 H 0.33695 0.13802 0.60092 0.0
H349 H 0.31351 0.13417 0.58925 0.0
C350 C 0.37746 0.1894 0.55397 0.0
C351 C 0.36679 0.18595 0.52015 0.0
C352 C 0.36817 0.1847 0.58939 0.0
C353 C 0.3481 0.1763 0.59145 0.0
C354 C 0.33745 0.17304 0.55781 0.0
H355 H 0.26456 0.13066 0.77539 0.0
H356 H 0.28094 0.14031 0.71354 0.0
C357 C 0.34671 0.17784 0.52244 0.0
C358 C 0.33824 0.17097 0.62881 0.0
H359 H 0.30747 0.13237 0.68295 0.0
C360 C 0.34096 0.18566 0.65412 0.0
C361 C 0.32604 0.15154 0.63921 0.0
C362 C 0.32304 0.13526 0.61323 0.0
C363 C 0.3315 0.18142 0.68952 0.0
C364 C 0.31942 0.16195 0.70015 0.0
C365 C 0.31673 0.14727 0.67473 0.0
C366 C 0.30955 0.15646 0.73764 0.0
C367 C 0.33418 0.19784 0.71475 0.0
C368 C 0.32022 0.16214 0.77164 0.0
C369 C 0.31091 0.15676 0.80693 0.0
C370 C 0.29076 0.14537 0.80884 0.0
C371 C 0.2801 0.13947 0.77478 0.0
C372 C 0.28943 0.14496 0.73947 0.0
H373 H 0.3391 0.21129 0.69815 0.0
H374 H 0.32061 0.19433 0.72972 0.0
H375 H 0.34531 0.20064 0.73656 0.0
H376 H 0.33579 0.17059 0.7709 0.0
H377 H 0.31951 0.16139 0.83271 0.0
H378 H 0.81362 0.15936 0.49687 0.0
H379 H 0.82223 0.15145 0.5585 0.0
H380 H 0.81276 0.19413 0.61336 0.0
H381 H 0.80385 0.20194 0.55185 0.0
H382 H 0.8519 0.17561 0.6075 0.0
H383 H 0.78076 0.14611 0.67835 0.0
H384 H 0.78382 0.14983 0.62742 0.0
H385 H 0.78992 0.1698 0.65885 0.0
C386 C 0.81327 0.16699 0.5221 0.0
C387 C 0.80798 0.18121 0.51961 0.0
C388 C 0.81821 0.16247 0.55724 0.0
C389 C 0.81787 0.17202 0.59053 0.0
C390 C 0.81273 0.18632 0.58811 0.0
H391 H 0.84595 0.16909 0.82762 0.0
H392 H 0.83735 0.17636 0.76537 0.0
C393 C 0.80774 0.19083 0.55295 0.0
C394 C 0.82343 0.16735 0.62759 0.0
H395 H 0.80698 0.15102 0.7175 0.0
C396 C 0.84207 0.17013 0.63152 0.0
C397 C 0.81054 0.1602 0.6588 0.0
C398 C 0.79008 0.15612 0.65569 0.0
C399 C 0.84831 0.16635 0.66617 0.0
C400 C 0.83546 0.15932 0.69743 0.0
C401 C 0.8168 0.15645 0.69345 0.0
C402 C 0.84113 0.15507 0.73476 0.0
C403 C 0.86874 0.17033 0.66931 0.0
C404 C 0.846 0.1406 0.73815 0.0
C405 C 0.85096 0.13642 0.7737 0.0
C406 C 0.85101 0.14659 0.80643 0.0
C407 C 0.84608 0.16104 0.8029 0.0
C408 C 0.84114 0.1652 0.7674 0.0
H409 H 0.87799 0.17989 0.64604 0.0
H410 H 0.87515 0.17709 0.69718 0.0
H411 H 0.86877 0.15654 0.66734 0.0
H412 H 0.84574 0.13238 0.71339 0.0
H413 H 0.85458 0.12514 0.77561 0.0
H414 H 0.8657 0.72661 0.77825 0.0
H415 H 0.85806 0.71175 0.71479 0.0
H416 H 0.81086 0.66014 0.76256 0.0
H417 H 0.81822 0.67498 0.82586 0.0
H418 H 0.85784 0.67848 0.69262 0.0
H419 H 0.78575 0.67063 0.67166 0.0
H420 H 0.80225 0.68599 0.70802 0.0
H421 H 0.78803 0.66045 0.7156 0.0
C422 C 0.85357 0.71218 0.77513 0.0
C423 C 0.84251 0.70198 0.80698 0.0
C424 C 0.84924 0.7037 0.73891 0.0
C425 C 0.83373 0.68495 0.73388 0.0
C426 C 0.82263 0.67478 0.76563 0.0
H427 H 0.78865 0.60219 0.54965 0.0
H428 H 0.796 0.61932 0.61074 0.0
C429 C 0.82693 0.68324 0.80183 0.0
C430 C 0.82973 0.67564 0.69583 0.0
H431 H 0.79477 0.6537 0.62806 0.0
C432 C 0.84412 0.67321 0.67832 0.0
C433 C 0.8118 0.66874 0.67731 0.0
C434 C 0.79612 0.67173 0.6939 0.0
C435 C 0.84088 0.66363 0.6432 0.0
C436 C 0.82286 0.65654 0.62494 0.0
C437 C 0.80853 0.65911 0.64226 0.0
C438 C 0.81856 0.64628 0.58793 0.0
C439 C 0.85655 0.66073 0.62637 0.0
C440 C 0.82871 0.65585 0.55487 0.0
C441 C 0.82454 0.64612 0.51997 0.0
C442 C 0.81011 0.62667 0.51754 0.0
C443 C 0.79989 0.61716 0.55067 0.0
C444 C 0.80404 0.62692 0.58554 0.0
H445 H 0.86775 0.66316 0.6478 0.0
H446 H 0.85048 0.64596 0.61463 0.0
H447 H 0.86361 0.67107 0.60264 0.0
H448 H 0.83977 0.67089 0.55604 0.0
H449 H 0.83259 0.65385 0.49489 0.0
H450 H 0.98517 0.49917 0.16395 0.0
H451 H 0.00118 0.50743 0.10174 0.0
H452 H 0.94771 0.46737 0.04708 0.0
H453 H 0.93151 0.4592 0.10922 0.0
H454 H 0.00467 0.48298 0.04961 0.0
H455 H 0.96558 0.51695 0.98586 0.0
H456 H 0.96516 0.51237 0.0364 0.0
H457 H 0.95035 0.49313 0.00421 0.0
C458 C 0.97679 0.49219 0.13866 0.0
C459 C 0.95707 0.4786 0.14141 0.0
C460 C 0.98596 0.49691 0.10317 0.0
C461 C 0.97558 0.4882 0.06978 0.0
C462 C 0.9559 0.47454 0.07243 0.0
H463 H 0.00663 0.4967 0.83034 0.0
H464 H 0.99018 0.48803 0.89212 0.0
C465 C 0.9467 0.46981 0.10795 0.0
C466 C 0.98552 0.49308 0.03234 0.0
H467 H 0.98622 0.51205 0.94476 0.0
C468 C 0.0007 0.4894 0.02671 0.0
C469 C 0.98026 0.50142 0.00254 0.0
C470 C 0.96456 0.50638 0.00751 0.0
C471 C 0.01061 0.49359 0.99182 0.0
C472 C 0.00539 0.50198 0.96206 0.0
C473 C 0.99017 0.50561 0.96765 0.0
C474 C 0.01553 0.50712 0.92485 0.0
C475 C 0.0263 0.48863 0.98687 0.0
C476 C 0.03521 0.52086 0.92278 0.0
C477 C 0.04465 0.52581 0.88753 0.0
C478 C 0.03454 0.5172 0.85374 0.0
C479 C 0.01481 0.50355 0.85589 0.0
C480 C 0.00539 0.49859 0.89113 0.0
H481 H 0.02517 0.47791 0.00831 0.0
H482 H 0.02583 0.48281 0.95787 0.0
H483 H 0.04051 0.50184 0.99057 0.0
H484 H 0.04321 0.52789 0.94839 0.0
H485 H 0.05983 0.53646 0.88673 0.0
H486 H 0.5313 0.47026 0.10867 0.0
H487 H 0.52297 0.479 0.0476 0.0
H488 H 0.48791 0.49765 0.10638 0.0
H489 H 0.49643 0.48924 0.16764 0.0
H490 H 0.48683 0.46493 0.01536 0.0
H491 H 0.52194 0.54383 0.03884 0.0
H492 H 0.52685 0.52839 0.06845 0.0
H493 H 0.50524 0.52951 0.0755 0.0
C494 C 0.52189 0.47631 0.1086 0.0
C495 C 0.51458 0.47915 0.14292 0.0
C496 C 0.51714 0.48128 0.07371 0.0
C497 C 0.50507 0.48924 0.07251 0.0
C498 C 0.49759 0.49192 0.10672 0.0
H499 H 0.45801 0.5232 0.88303 0.0
H500 H 0.46554 0.51563 0.94632 0.0
C501 C 0.50237 0.48699 0.14166 0.0
C502 C 0.49988 0.49419 0.03532 0.0
H503 H 0.50277 0.5315 0.98317 0.0
C504 C 0.49035 0.47949 0.00827 0.0
C505 C 0.50445 0.51319 0.02624 0.0
C506 C 0.51533 0.5297 0.05361 0.0
C507 C 0.48516 0.48325 0.97244 0.0
C508 C 0.48986 0.50226 0.96326 0.0
C509 C 0.49919 0.51694 0.9904 0.0
C510 C 0.48562 0.50724 0.92522 0.0
C511 C 0.47449 0.46682 0.94481 0.0
C512 C 0.49469 0.50534 0.89262 0.0
C513 C 0.49047 0.50969 0.85657 0.0
C514 C 0.47713 0.51605 0.85252 0.0
C515 C 0.4683 0.51827 0.8853 0.0
C516 C 0.47259 0.51397 0.92141 0.0
H517 H 0.46791 0.45264 0.95937 0.0
H518 H 0.46299 0.46811 0.92983 0.0
H519 H 0.48471 0.4672 0.92301 0.0
H520 H 0.50503 0.50047 0.89507 0.0
H521 H 0.49756 0.50792 0.83186 0.0
H522 H 0.48947 0.0095 0.16003 0.0
H523 H 0.48221 0.99309 0.09825 0.0
H524 H 0.52763 0.04445 0.04594 0.0
H525 H 0.53515 0.06091 0.10779 0.0
H526 H 0.47144 0.00305 0.02958 0.0
H527 H 0.54014 0.00267 0.01415 0.0
H528 H 0.53243 0.00772 0.05895 0.0
H529 H 0.54293 0.02599 0.0228 0.0
C530 C 0.49794 0.01729 0.13538 0.0
C531 C 0.51295 0.03646 0.13875 0.0
C532 C 0.49376 0.0079 0.10013 0.0
C533 C 0.50457 0.01746 0.06769 0.0
C534 C 0.51937 0.0367 0.07081 0.0
H535 H 0.50136 0.98634 0.83017 0.0
H536 H 0.50823 0.00262 0.89204 0.0
C537 C 0.52357 0.04611 0.10609 0.0
C538 C 0.50015 0.00733 0.03052 0.0
H539 H 0.51923 0.99221 0.96066 0.0
C540 C 0.48184 0.0006 0.01454 0.0
C541 C 0.51377 0.00416 0.01107 0.0
C542 C 0.53337 0.01034 0.0277 0.0
C543 C 0.47689 0.99106 0.9792 0.0
C544 C 0.49053 0.98794 0.95972 0.0
C545 C 0.50882 0.99465 0.97572 0.0
C546 C 0.48619 0.97794 0.92242 0.0
C547 C 0.45727 0.98479 0.96259 0.0
C548 C 0.47166 0.9586 0.91917 0.0
C549 C 0.4677 0.94924 0.88384 0.0
C550 C 0.47827 0.95908 0.85127 0.0
C551 C 0.49294 0.9784 0.85474 0.0
C552 C 0.49689 0.98771 0.89004 0.0
H553 H 0.45032 0.9922 0.9765 0.0
H554 H 0.45826 0.98767 0.93143 0.0
H555 H 0.44786 0.96908 0.96695 0.0
H556 H 0.46347 0.95071 0.944 0.0
H557 H 0.45637 0.93433 0.88204 0.0
H558 H 0.15176 0.31849 0.99152 0.0
H559 H 0.15802 0.33242 0.92725 0.0
H560 H 0.14451 0.27754 0.87932 0.0
H561 H 0.13796 0.26347 0.9432 0.0
H562 H 0.1846 0.33471 0.87279 0.0
H563 H 0.1096 0.29177 0.81938 0.0
H564 H 0.11558 0.29344 0.86944 0.0
H565 H 0.11928 0.27766 0.83863 0.0
C566 C 0.15011 0.30941 0.96725 0.0
C567 C 0.14426 0.28989 0.97228 0.0
C568 C 0.15369 0.31737 0.93064 0.0
C569 C 0.15142 0.30591 0.89859 0.0
C570 C 0.14594 0.28651 0.90364 0.0
H571 H 0.19521 0.34943 0.67038 0.0
H572 H 0.18809 0.33259 0.73179 0.0
C573 C 0.14231 0.27854 0.94016 0.0
C574 C 0.15501 0.31431 0.85986 0.0
H575 H 0.13353 0.31077 0.77383 0.0
C576 C 0.17346 0.32951 0.85112 0.0
C577 C 0.14035 0.30755 0.83187 0.0
C578 C 0.12003 0.29183 0.84029 0.0
C579 C 0.1777 0.33812 0.81492 0.0
C580 C 0.16316 0.33107 0.78667 0.0
C581 C 0.14468 0.31594 0.79548 0.0
C582 C 0.16659 0.33994 0.74841 0.0
C583 C 0.19756 0.35497 0.80752 0.0
C584 C 0.15632 0.34897 0.73695 0.0
C585 C 0.16024 0.35844 0.70191 0.0
C586 C 0.17446 0.35898 0.67769 0.0
C587 C 0.18424 0.34931 0.68858 0.0
C588 C 0.18028 0.33981 0.72369 0.0
H589 H 0.20557 0.36128 0.83446 0.0
H590 H 0.2059 0.35007 0.79027 0.0
H591 H 0.19673 0.3664 0.79125 0.0
H592 H 0.14562 0.34913 0.7556 0.0
H593 H 0.15243 0.36573 0.69422 0.0
H594 H 0.60534 0.78196 0.71435 0.0
H595 H 0.62176 0.79023 0.77608 0.0
H596 H 0.6721 0.83697 0.7236 0.0
H597 H 0.65564 0.82895 0.66172 0.0
H598 H 0.65657 0.79308 0.79993 0.0
H599 H 0.65872 0.86324 0.80937 0.0
H600 H 0.64393 0.84494 0.77513 0.0
H601 H 0.66932 0.86002 0.76685 0.0
C602 C 0.61995 0.79393 0.71589 0.0
C603 C 0.62917 0.80493 0.68331 0.0
C604 C 0.6293 0.79861 0.75115 0.0
C605 C 0.64799 0.81439 0.75445 0.0
C606 C 0.65752 0.82496 0.72171 0.0
H607 H 0.72513 0.86968 0.94378 0.0
H608 H 0.70988 0.85921 0.88128 0.0
C609 C 0.64816 0.8203 0.6864 0.0
C610 C 0.65726 0.82003 0.79238 0.0
H611 H 0.67498 0.85643 0.8578 0.0
C612 C 0.66058 0.8069 0.81268 0.0
C613 C 0.66234 0.83804 0.80891 0.0
C614 C 0.65826 0.85234 0.78917 0.0
C615 C 0.66922 0.81148 0.8489 0.0
C616 C 0.67437 0.82952 0.8653 0.0
C617 C 0.67101 0.84262 0.84503 0.0
C618 C 0.68357 0.83531 0.90326 0.0
C619 C 0.67312 0.79716 0.86899 0.0
C620 C 0.67372 0.82539 0.93632 0.0
C621 C 0.68239 0.83135 0.97216 0.0
C622 C 0.70101 0.84736 0.97539 0.0
C623 C 0.71078 0.85727 0.94219 0.0
C624 C 0.70211 0.85133 0.90648 0.0
H625 H 0.67236 0.78601 0.84911 0.0
H626 H 0.68753 0.80452 0.8827 0.0
H627 H 0.66219 0.78982 0.89167 0.0
H628 H 0.65925 0.81319 0.93443 0.0
H629 H 0.67452 0.82349 -0.00271 0.0
H630 H 0.11249 0.83991 0.94894 0.0
H631 H 0.12085 0.8341 0.88515 0.0
H632 H 0.17718 0.84816 0.92569 0.0
H633 H 0.16867 0.85344 0.98994 0.0
H634 H 0.14879 0.85882 0.83793 0.0
H635 H 0.1604 0.79788 0.87163 0.0
H636 H 0.14907 0.80639 0.90471 0.0
H637 H 0.17487 0.81881 0.90018 0.0
C638 C 0.12659 0.84158 0.94434 0.0
C639 C 0.13991 0.84701 0.9744 0.0
C640 C 0.13136 0.83829 0.90788 0.0
C641 C 0.14953 0.84044 0.90078 0.0
C642 C 0.1629 0.84596 0.93074 0.0
H643 H 0.21012 0.84073 0.69735 0.0
H644 H 0.2006 0.84747 0.75924 0.0
C645 C 0.15807 0.84906 0.96737 0.0
C646 C 0.15465 0.83751 0.86171 0.0
H647 H 0.17042 0.812 0.81003 0.0
C648 C 0.1534 0.84849 0.83179 0.0
C649 C 0.16057 0.82395 0.85376 0.0
C650 C 0.16113 0.81095 0.88419 0.0
C651 C 0.15824 0.8465 0.79424 0.0
C652 C 0.16451 0.83327 0.78661 0.0
C653 C 0.16568 0.82222 0.8163 0.0
C654 C 0.17007 0.83072 0.7479 0.0
C655 C 0.15692 0.85867 0.76293 0.0
C656 C 0.15596 0.8193 0.72108 0.0
C657 C 0.16133 0.81533 0.68575 0.0
C658 C 0.18088 0.82279 0.67687 0.0
C659 C 0.19495 0.83482 0.70336 0.0
C660 C 0.18957 0.83866 0.73871 0.0
H661 H 0.15316 0.86933 0.77404 0.0
H662 H 0.17085 0.86642 0.74745 0.0
H663 H 0.14578 0.84923 0.742 0.0
H664 H 0.14083 0.813 0.72796 0.0
H665 H 0.15019 0.80599 0.6659 0.0
H666 H 0.3469 0.14813 0.32775 0.0
H667 H 0.33186 0.13655 0.2651 0.0
H668 H 0.3624 0.19467 0.22189 0.0
H669 H 0.37795 0.20616 0.28378 0.0
H670 H 0.30866 0.14405 0.22471 0.0
H671 H 0.37519 0.1674 0.14153 0.0
H672 H 0.37499 0.1673 0.19303 0.0
H673 H 0.37621 0.18725 0.16701 0.0
C674 C 0.3504 0.15839 0.3048 0.0
C675 C 0.36367 0.178 0.31044 0.0
C676 C 0.34186 0.15177 0.26906 0.0
C677 C 0.3464 0.16469 0.23855 0.0
C678 C 0.35919 0.18436 0.2446 0.0
H679 H 0.27901 0.15526 0.04299 0.0
H680 H 0.29436 0.16017 0.10527 0.0
C681 C 0.36792 0.19093 0.28009 0.0
C682 C 0.33722 0.15782 0.20074 0.0
H683 H 0.34707 0.16115 0.10539 0.0
C684 C 0.31706 0.14755 0.19864 0.0
C685 C 0.34817 0.16196 0.16678 0.0
C686 C 0.36983 0.17138 0.16722 0.0
C687 C 0.30754 0.14218 0.16339 0.0
C688 C 0.31852 0.14779 0.12933 0.0
C689 C 0.33866 0.15716 0.13148 0.0
C690 C 0.30942 0.14488 0.09128 0.0
C691 C 0.28584 0.13054 0.1631 0.0
C692 C 0.31349 0.13544 0.06209 0.0
C693 C 0.30506 0.133 0.02607 0.0
C694 C 0.29237 0.1399 0.01887 0.0
C695 C 0.28857 0.1496 0.04792 0.0
C696 C 0.29719 0.15226 0.08364 0.0
H697 H 0.28024 0.12186 0.18958 0.0
H698 H 0.27996 0.14044 0.16177 0.0
H699 H 0.28039 0.12069 0.13815 0.0
H700 H 0.32306 0.12981 0.06727 0.0
H701 H 0.30821 0.12546 0.00413 0.0
H702 H 0.87076 0.1454 0.05003 0.0
H703 H 0.86189 0.15304 0.11167 0.0
H704 H 0.81964 0.16292 0.05619 0.0
H705 H 0.82833 0.15512 0.9943 0.0
H706 H 0.86243 0.18735 0.13453 0.0
H707 H 0.78907 0.12305 0.14047 0.0
H708 H 0.80735 0.12484 0.10794 0.0
H709 H 0.79449 0.1373 0.09785 0.0
C710 C 0.85959 0.14921 0.05094 0.0
C711 C 0.85014 0.14957 0.01744 0.0
C712 C 0.85457 0.15358 0.08613 0.0
C713 C 0.83996 0.15827 0.08843 0.0
C714 C 0.83074 0.159 0.05498 0.0
H715 H 0.78844 0.18619 0.27661 0.0
H716 H 0.79766 0.17979 0.21413 0.0
C717 C 0.83577 0.15465 0.0197 0.0
C718 C 0.83446 0.16242 0.12595 0.0
H719 H 0.79743 0.14608 0.18972 0.0
C720 C 0.84825 0.17833 0.1467 0.0
C721 C 0.81595 0.15057 0.14158 0.0
C722 C 0.80087 0.13288 0.12104 0.0
C723 C 0.8439 0.18289 0.18263 0.0
C724 C 0.8254 0.171 0.19832 0.0
C725 C 0.8116 0.15513 0.17751 0.0
C726 C 0.82 0.17487 0.23621 0.0
C727 C 0.85899 0.20056 0.20319 0.0
C728 C 0.82937 0.17395 0.26927 0.0
C729 C 0.82414 0.17759 0.30503 0.0
C730 C 0.8094 0.18211 0.30818 0.0
C731 C 0.79989 0.18279 0.27503 0.0
C732 C 0.80512 0.17913 0.23935 0.0
H733 H 0.87061 0.21054 0.18361 0.0
H734 H 0.85247 0.20844 0.21691 0.0
H735 H 0.86561 0.19614 0.2259 0.0
H736 H 0.84067 0.17034 0.26742 0.0
H737 H 0.83165 0.17691 0.33014 0.0
H738 H 0.86231 0.68043 0.00353 0.0
H739 H 0.85465 0.66355 0.06476 0.0
H740 H 0.80412 0.6692 0.07472 0.0
H741 H 0.81148 0.68574 0.01319 0.0
H742 H 0.85326 0.67993 0.13218 0.0
H743 H 0.78356 0.61346 0.10548 0.0
H744 H 0.799 0.62824 0.06732 0.0
H745 H 0.78363 0.63505 0.09189 0.0
C746 C 0.84932 0.67767 0.01835 0.0
C747 C 0.83748 0.68438 0.00363 0.0
C748 C 0.845 0.66809 0.05335 0.0
C749 C 0.82876 0.66503 0.07415 0.0
C750 C 0.81652 0.67108 0.05881 0.0
H751 H 0.81371 0.64962 0.31996 0.0
H752 H 0.81943 0.66226 0.25464 0.0
C753 C 0.82078 0.68059 0.02371 0.0
C754 C 0.82563 0.65711 0.1133 0.0
H755 H 0.79297 0.62124 0.1706 0.0
C756 C 0.84013 0.66702 0.14055 0.0
C757 C 0.80854 0.64023 0.12403 0.0
C758 C 0.79286 0.62851 0.09558 0.0
C759 C 0.83792 0.66062 0.17843 0.0
C760 C 0.82058 0.6441 0.18946 0.0
C761 C 0.80618 0.63403 0.1621 0.0
C762 C 0.81728 0.6367 0.22903 0.0
C763 C 0.8543 0.67143 0.2061 0.0
C764 C 0.81384 0.61805 0.23609 0.0
C765 C 0.81043 0.61078 0.27318 0.0
C766 C 0.81037 0.62202 0.3039 0.0
C767 C 0.81383 0.64071 0.29685 0.0
C768 C 0.81717 0.64796 0.25962 0.0
H769 H 0.86816 0.68053 0.19107 0.0
H770 H 0.85124 0.68102 0.22395 0.0
H771 H 0.85597 0.66137 0.22532 0.0
H772 H 0.81384 0.60913 0.21286 0.0
H773 H 0.80778 0.5963 0.27774 0.0
H774 H 0.98727 0.4855 0.32958 0.0
H775 H 0.0036 0.49334 0.39165 0.0
H776 H 0.94992 0.47791 0.44771 0.0
H777 H 0.9335 0.46987 0.38605 0.0
H778 H 0.00574 0.52072 0.44511 0.0
H779 H 0.96977 0.44714 0.5067 0.0
H780 H 0.96929 0.45155 0.45628 0.0
H781 H 0.95351 0.45448 0.48855 0.0
C782 C 0.97896 0.48368 0.35518 0.0
C783 C 0.95912 0.47701 0.35304 0.0
C784 C 0.98828 0.48816 0.39054 0.0
C785 C 0.97788 0.48592 0.42422 0.0
C786 C 0.95811 0.47936 0.4221 0.0
H787 H 0.00584 0.50914 0.66438 0.0
H788 H 0.98999 0.50051 0.60186 0.0
C789 C 0.94878 0.47488 0.38683 0.0
C790 C 0.9878 0.4911 0.46154 0.0
H791 H 0.98849 0.47296 0.54924 0.0
C792 C 0.00209 0.51028 0.46783 0.0
C793 C 0.98289 0.47741 0.49107 0.0
C794 C 0.96815 0.45645 0.48533 0.0
C795 C 0.01138 0.51626 0.50324 0.0
C796 C 0.00642 0.5026 0.53282 0.0
C797 C 0.99218 0.48339 0.52649 0.0
C798 C 0.01602 0.50791 0.57045 0.0
C799 C 0.0261 0.53723 0.50899 0.0
C800 C 0.03581 0.51468 0.57339 0.0
C801 C 0.04488 0.51963 0.60893 0.0
C802 C 0.03426 0.51776 0.64216 0.0
C803 C 0.01438 0.51078 0.63922 0.0
C804 C 0.00532 0.50583 0.6036 0.0
H805 H 0.02467 0.54652 0.48725 0.0
H806 H 0.02472 0.54219 0.53782 0.0
H807 H 0.04075 0.53917 0.50644 0.0
H808 H 0.04423 0.51601 0.54821 0.0
H809 H 0.06019 0.52485 0.61035 0.0
H810 H 0.46453 0.47879 0.65822 0.0
H811 H 0.47401 0.4706 0.59781 0.0
H812 H 0.51854 0.52983 0.58366 0.0
H813 H 0.50944 0.53802 0.64438 0.0
H814 H 0.4719 0.48509 0.52941 0.0
H815 H 0.54677 0.5016 0.55517 0.0
H816 H 0.53065 0.49917 0.59348 0.0
H817 H 0.54306 0.52127 0.5669 0.0
C818 C 0.47662 0.48997 0.64264 0.0
C819 C 0.48624 0.50904 0.65596 0.0
C820 C 0.48199 0.48528 0.60813 0.0
C821 C 0.49707 0.49957 0.58641 0.0
C822 C 0.50713 0.5185 0.60033 0.0
H823 H 0.51029 0.49777 0.34066 0.0
H824 H 0.50436 0.50438 0.40608 0.0
C825 C 0.50185 0.52318 0.63495 0.0
C826 C 0.50104 0.49507 0.54763 0.0
H827 H 0.53657 0.49768 0.49001 0.0
C828 C 0.48601 0.48769 0.52087 0.0
C829 C 0.51941 0.49838 0.53666 0.0
C830 C 0.53585 0.50536 0.56466 0.0
C831 C 0.48891 0.48381 0.4832 0.0
C832 C 0.50746 0.48783 0.47182 0.0
C833 C 0.52242 0.49487 0.49874 0.0
C834 C 0.51149 0.48432 0.43232 0.0
C835 C 0.47201 0.47518 0.45611 0.0
C836 C 0.51794 0.47127 0.42559 0.0
C837 C 0.52147 0.4676 0.38841 0.0
C838 C 0.51865 0.47696 0.3573 0.0
C839 C 0.51244 0.49024 0.36409 0.0
C840 C 0.50897 0.49396 0.40138 0.0
H841 H 0.45807 0.46839 0.47163 0.0
H842 H 0.47262 0.48671 0.43768 0.0
H843 H 0.47239 0.4642 0.43742 0.0
H844 H 0.52003 0.46374 0.44911 0.0
H845 H 0.52631 0.45733 0.38407 0.0
H846 H 0.47974 0.93778 0.60894 0.0
H847 H 0.48658 0.95399 0.54709 0.0
H848 H 0.48969 0.00386 0.60068 0.0
H849 H 0.48305 0.98781 0.66287 0.0
H850 H 0.46483 0.968 0.51025 0.0
H851 H 0.53986 0.02619 0.53848 0.0
H852 H 0.52768 0.00498 0.56801 0.0
H853 H 0.52243 0.02416 0.57316 0.0
C854 C 0.48201 0.95225 0.60761 0.0
C855 C 0.48094 0.96158 0.64071 0.0
C856 C 0.48588 0.96146 0.57228 0.0
C857 C 0.48884 0.98017 0.56947 0.0
C858 C 0.48778 0.98954 0.60244 0.0
H859 H 0.51248 0.05841 0.38086 0.0
H860 H 0.505 0.04232 0.44288 0.0
C861 C 0.48392 0.98034 0.63785 0.0
C862 C 0.49245 0.98959 0.53176 0.0
H863 H 0.52574 0.028 0.48044 0.0
C864 C 0.47816 0.98109 0.50362 0.0
C865 C 0.50984 0.00666 0.52339 0.0
C866 C 0.52593 0.01599 0.55219 0.0
C867 C 0.4807 0.98938 0.46732 0.0
C868 C 0.49813 0.00641 0.45889 0.0
C869 C 0.51239 0.01493 0.48708 0.0
C870 C 0.50189 0.0157 0.42101 0.0
C871 C 0.46457 0.98007 0.4386 0.0
C872 C 0.50266 0.00603 0.38823 0.0
C873 C 0.50687 0.01516 0.35271 0.0
C874 C 0.51052 0.03415 0.34955 0.0
C875 C 0.5097 0.04376 0.38243 0.0
C876 C 0.50546 0.03462 0.41786 0.0
H877 H 0.45058 0.9702 0.45251 0.0
H878 H 0.46307 0.99109 0.42223 0.0
H879 H 0.46781 0.97152 0.41812 0.0
H880 H 0.50032 0.99155 0.39023 0.0
H881 H 0.50753 0.00747 0.32787 0.0
H882 H 0.19118 0.26389 0.0628 0.0
H883 H 0.20828 0.24833 0.03649 0.0
H884 H 0.15607 0.19326 0.04174 0.0
H885 H 0.13885 0.20865 0.06803 0.0
H886 H 0.21163 0.2151 0.06451 0.0
H887 H 0.17311 0.20251 0.92618 0.0
H888 H 0.17434 0.21971 0.96097 0.0
H889 H 0.1582 0.19446 0.96813 0.0
C890 C 0.18343 0.24842 0.05901 0.0
C891 C 0.16365 0.23749 0.06721 0.0
C892 C 0.1932 0.23959 0.04392 0.0
C893 C 0.1833 0.21975 0.03662 0.0
C894 C 0.16384 0.20865 0.04672 0.0
H895 H 0.20843 0.13834 0.92971 0.0
H896 H 0.1937 0.1561 0.95628 0.0
C897 C 0.15408 0.21745 0.06193 0.0
C898 C 0.19306 0.21077 0.01675 0.0
H899 H 0.19314 0.1889 0.9332 0.0
C900 C 0.20771 0.20944 0.03575 0.0
C901 C 0.18785 0.2035 0.97922 0.0
C902 C 0.17262 0.2052 0.95717 0.0
C903 C 0.21697 0.20047 0.01852 0.0
C904 C 0.21169 0.19308 0.981 0.0
C905 C 0.19717 0.19462 0.9619 0.0
C906 C 0.22054 0.183 0.96171 0.0
C907 C 0.23186 0.19843 0.0411 0.0
C908 C 0.24041 0.19247 0.95459 0.0
C909 C 0.24888 0.18235 0.93947 0.0
C910 C 0.23756 0.16265 0.93094 0.0
C911 C 0.21752 0.1535 0.93605 0.0
C912 C 0.20909 0.16361 0.9513 0.0
H913 H 0.23084 0.20058 0.07216 0.0
H914 H 0.2303 0.18401 0.03666 0.0
H915 H 0.24644 0.20944 0.03136 0.0
H916 H 0.24943 0.20756 0.96155 0.0
H917 H 0.26434 0.1898 0.93564 0.0
H918 H 0.80305 0.07426 0.93727 0.0
H919 H 0.78481 0.04198 0.96511 0.0
H920 H 0.83657 0.03834 0.97001 0.0
H921 H 0.85491 0.07052 0.9421 0.0
H922 H 0.78247 0.00525 0.93885 0.0
H923 H 0.81469 0.03015 0.08279 0.0
H924 H 0.81476 0.04635 0.04691 0.0
H925 H 0.83134 0.03755 0.04349 0.0
C926 C 0.81049 0.06647 0.94382 0.0
C927 C 0.83042 0.07492 0.93766 0.0
C928 C 0.80007 0.04809 0.95977 0.0
C929 C 0.80945 0.038 0.97009 0.0
C930 C 0.82917 0.04608 0.96266 0.0
H931 H 0.782 0.93123 0.07676 0.0
H932 H 0.79689 0.96419 0.05267 0.0
C933 C 0.83958 0.06439 0.94652 0.0
C934 C 0.79875 0.01916 0.98935 0.0
H935 H 0.79532 0.99649 0.0738 0.0
C936 C 0.78511 0.00329 0.96842 0.0
C937 C 0.80233 0.0168 0.0279 0.0
C938 C 0.81646 0.03361 0.05183 0.0
C939 C 0.77536 0.98485 0.98472 0.0
C940 C 0.77906 0.98242 0.02326 0.0
C941 C 0.79248 -0.00158 0.04434 0.0
C942 C 0.76989 0.96321 0.04151 0.0
C943 C 0.76177 0.96806 0.96008 0.0
C944 C 0.7498 0.95203 0.04465 0.0
C945 C 0.74124 0.93315 0.05824 0.0
C946 C 0.75268 0.92527 0.06931 0.0
C947 C 0.77282 0.93691 0.06838 0.0
C948 C 0.78135 0.95573 0.05457 0.0
H949 H 0.76412 0.97163 0.92919 0.0
H950 H 0.76346 0.95535 0.96541 0.0
H951 H 0.74672 0.96404 0.96702 0.0
H952 H 0.74072 0.95772 0.03564 0.0
H953 H 0.72568 0.92455 0.05889 0.0
H954 H 0.91993 0.73027 0.9366 0.0
H955 H 0.9524 0.74649 0.96365 0.0
H956 H 0.95125 0.79956 0.97015 0.0
H957 H 0.91866 0.78339 0.94353 0.0
H958 H 0.98675 0.77919 0.93959 0.0
H959 H 0.96241 0.79068 0.08067 0.0
H960 H 0.94591 0.77446 0.04527 0.0
H961 H 0.9556 0.79997 0.0407 0.0
C962 C 0.92667 0.74545 0.94339 0.0
C963 C 0.91672 0.75555 0.93821 0.0
C964 C 0.94519 0.75467 0.95891 0.0
C965 C 0.95401 0.77409 0.96962 0.0
C966 C 0.94448 0.78444 0.96283 0.0
H967 H 0.06341 0.85464 0.07071 0.0
H968 H 0.03044 0.83785 0.04614 0.0
C969 C 0.92595 0.77523 0.94734 0.0
C970 C 0.97305 0.78339 0.98853 0.0
H971 H 0.99609 0.80495 0.07155 0.0
C972 C 0.98881 0.78476 0.96848 0.0
C973 C 0.9756 0.79058 0.02626 0.0
C974 C 0.95897 0.78873 0.0497 0.0
C975 C 0.00722 0.79352 0.9849 0.0
C976 C 0.00978 0.80074 0.02261 0.0
C977 C 0.99401 0.79934 0.04269 0.0
C978 C 0.02889 0.81024 0.04123 0.0
C979 C 0.02385 0.79538 0.96144 0.0
C980 C 0.03859 0.80006 0.04802 0.0
C981 C 0.0574 0.80959 0.06208 0.0
C982 C 0.06675 0.82944 0.06974 0.0
C983 C 0.05658 0.83934 0.06501 0.0
C984 C 0.03778 0.8298 0.05091 0.0
H985 H 0.02034 0.79322 0.9305 0.0
H986 H 0.03684 0.80974 0.96554 0.0
H987 H 0.02739 0.7843 0.97073 0.0
H988 H 0.03179 0.78485 0.04146 0.0
H989 H 0.06485 0.80157 0.0656 0.0
H990 H 0.83958 0.756 0.01281 0.0
H991 H 0.82464 0.77405 0.03623 0.0
H992 H 0.81566 0.78595 0.92032 0.0
H993 H 0.83014 0.76731 0.89658 0.0
H994 H 0.83403 0.81097 0.02793 0.0
H995 H 0.76214 0.76314 0.96448 0.0
H996 H 0.7807 0.75674 0.96604 0.0
H997 H 0.78127 0.77301 0.93008 0.0
C998 C 0.83443 0.76245 0.99225 0.0
C999 C 0.83588 0.76013 0.95284 0.0
C1000 C 0.82592 0.7728 0.00571 0.0
C1001 C 0.81874 0.78108 0.98006 0.0
C1002 C 0.82068 0.77928 0.94062 0.0
H1003 H 0.78605 0.86573 0.04261 0.0
H1004 H 0.80332 0.84954 0.02136 0.0
C1005 C 0.82905 0.76875 0.92709 0.0
C1006 C 0.80916 0.79147 0.99494 0.0
H1007 H 0.76682 0.79181 0.99366 0.0
C1008 C 0.81932 0.80678 0.0205 0.0
C1009 C 0.78987 0.78575 0.98573 0.0
C1010 C 0.77777 0.76865 0.96039 0.0
C1011 C 0.81075 0.81661 0.03693 0.0
C1012 C 0.79167 0.8113 0.02673 0.0
C1013 C 0.78149 0.79593 0.00132 0.0
C1014 C 0.78187 0.82142 0.04194 0.0
C1015 C 0.82208 0.83225 0.06575 0.0
C1016 C 0.76394 0.81098 0.06015 0.0
C1017 C 0.75389 0.82015 0.07176 0.0
C1018 C 0.76164 0.83995 0.0655 0.0
C1019 C 0.77981 0.85049 0.04818 0.0
C1020 C 0.78976 0.84127 0.03618 0.0
H1021 H 0.83368 0.83048 0.07897 0.0
H1022 H 0.82897 0.84643 0.05119 0.0
H1023 H 0.81263 0.8324 0.08876 0.0
H1024 H 0.75757 0.79564 0.0648 0.0
H1025 H 0.73989 0.81167 0.08496 0.0
H1026 H 0.13054 0.92278 0.06677 0.0
H1027 H 0.14615 0.9555 0.04079 0.0
H1028 H 0.19861 0.95394 0.0242 0.0
H1029 H 0.1831 0.92121 0.04979 0.0
H1030 H 0.18054 0.98976 0.06315 0.0
H1031 H 0.18561 0.9658 0.91694 0.0
H1032 H 0.17034 0.94933 0.9534 0.0
H1033 H 0.19579 0.95806 0.95375 0.0
C1034 C 0.14547 0.92949 0.05798 0.0
C1035 C 0.15558 0.91941 0.06005 0.0
C1036 C 0.15433 0.94814 0.0431 0.0
C1037 C 0.17338 0.95692 0.0299 0.0
C1038 C 0.18376 0.94722 0.03353 0.0
H1039 H 0.2542 0.06511 0.92718 0.0
H1040 H 0.23656 0.03221 0.9519 0.0
C1041 C 0.17493 0.9286 0.04841 0.0
C1042 C 0.18229 0.97608 0.01165 0.0
H1043 H 0.20177 -0.00049 0.92784 0.0
C1044 C 0.18508 0.99192 0.03352 0.0
C1045 C 0.18812 0.97875 0.97295 0.0
C1046 C 0.18469 0.96208 0.94771 0.0
C1047 C 0.19409 0.01052 0.01797 0.0
C1048 C 0.2001 0.01322 0.97938 0.0
C1049 C 0.19712 0.99735 0.95741 0.0
C1050 C 0.21011 0.03253 0.9617 0.0
C1051 C 0.19762 0.0272 0.04327 0.0
C1052 C 0.20083 0.04333 0.95787 0.0
C1053 C 0.21085 0.06211 0.94371 0.0
C1054 C 0.23028 0.07033 0.93302 0.0
C1055 C 0.23925 0.05916 0.93525 0.0
C1056 C 0.22922 0.04039 0.9494 0.0
H1057 H 0.19609 0.02331 0.07402 0.0
H1058 H 0.21223 0.0397 0.03842 0.0
H1059 H 0.18697 0.03172 0.03638 0.0
H1060 H 0.18596 0.03735 0.96652 0.0
H1061 H 0.20355 0.07036 0.94218 0.0
H1062 H 0.92644 0.19106 0.92703 0.0
H1063 H 0.95943 0.20719 0.95149 0.0
H1064 H 0.95799 0.15277 0.95503 0.0
H1065 H 0.92516 0.13661 0.92994 0.0
H1066 H 0.96947 0.19945 0.02165 0.0
H1067 H 0.01016 0.18784 0.90664 0.0
H1068 H 0.98645 0.18458 0.89922 0.0
H1069 H 0.98928 0.16617 0.92239 0.0
C1070 C 0.93332 0.18261 0.93219 0.0
C1071 C 0.92325 0.16258 0.92655 0.0
C1072 C 0.95212 0.19182 0.94629 0.0
C1073 C 0.96119 0.1812 0.95484 0.0
C1074 C 0.95141 0.1613 0.94795 0.0
H1075 H 0.06841 0.20769 0.06545 0.0
H1076 H 0.03566 0.19154 0.03961 0.0
C1077 C 0.93262 0.15208 0.93371 0.0
C1078 C 0.98021 0.19065 0.97391 0.0
H1079 H 0.02627 0.19933 0.96609 0.0
C1080 C 0.98193 0.19954 0.0094 0.0
C1081 C -0.00362 0.19062 0.95797 0.0
C1082 C 0.99558 0.18195 0.9193 0.0
C1083 C -0.00064 0.2082 0.02963 0.0
C1084 C 0.0155 0.20815 0.0137 0.0
C1085 C 0.01379 0.19924 0.97828 0.0
C1086 C 0.0345 0.21772 0.03276 0.0
C1087 C 0.00026 0.21703 0.06816 0.0
C1088 C 0.04453 0.23774 0.03792 0.0
C1089 C 0.0632 0.24699 0.05271 0.0
C1090 C 0.07216 0.23636 0.06242 0.0
C1091 C 0.06184 0.21624 0.05838 0.0
C1092 C 0.04318 0.20701 0.0435 0.0
H1093 H 0.98569 0.21165 0.0805 0.0
H1094 H 0.00899 0.21396 0.08851 0.0
H1095 H 0.00716 0.23288 0.06503 0.0
H1096 H 0.03818 0.24629 0.02924 0.0
H1097 H 0.07084 0.26252 0.05528 0.0
H1098 H 0.80246 0.5407 0.40246 0.0
H1099 H 0.81932 0.5246 0.37784 0.0
H1100 H 0.8727 0.57872 0.37752 0.0
H1101 H 0.85598 0.59494 0.40222 0.0
H1102 H 0.83938 0.53553 0.30613 0.0
H1103 H 0.88693 0.54033 0.42605 0.0
H1104 H 0.86588 0.54266 0.43287 0.0
H1105 H 0.88759 0.56241 0.41391 0.0
C1106 C 0.81787 0.54909 0.39802 0.0
C1107 C 0.82791 0.56908 0.40421 0.0
C1108 C 0.82745 0.53989 0.38382 0.0
C1109 C 0.84723 0.55048 0.37601 0.0
C1110 C 0.85747 0.57027 0.38385 0.0
H1111 H 0.92877 0.52292 0.27257 0.0
H1112 H 0.91271 0.5395 0.29884 0.0
C1113 C 0.84789 0.57951 0.3979 0.0
C1114 C 0.85679 0.54117 0.35649 0.0
H1115 H 0.89217 0.52975 0.36641 0.0
C1116 C 0.85086 0.53415 0.31933 0.0
C1117 C 0.87186 0.53962 0.37373 0.0
C1118 C 0.8784 0.5465 0.41395 0.0
C1119 C 0.85978 0.52578 0.29866 0.0
C1120 C 0.87476 0.52406 0.31599 0.0
C1121 C 0.88072 0.53115 0.35316 0.0
C1122 C 0.88414 0.51452 0.29656 0.0
C1123 C 0.85336 0.51922 0.25822 0.0
C1124 C 0.87334 0.49507 0.28605 0.0
C1125 C 0.88245 0.4856 0.27081 0.0
C1126 C 0.90254 0.4954 0.26619 0.0
C1127 C 0.91326 0.51503 0.27566 0.0
C1128 C 0.90413 0.52449 0.29082 0.0
H1129 H 0.84592 0.52646 0.24568 0.0
H1130 H 0.86575 0.52209 0.23973 0.0
H1131 H 0.84309 0.50349 0.25814 0.0
H1132 H 0.85795 0.48701 0.2909 0.0
H1133 H 0.87384 0.47043 0.26407 0.0
H1134 H 0.5195 0.4001 0.25602 0.0
H1135 H 0.50154 0.36721 0.28034 0.0
H1136 H 0.45041 0.37188 0.28901 0.0
H1137 H 0.4684 0.40497 0.26535 0.0
H1138 H 0.45866 0.35957 0.35534 0.0
H1139 H 0.46121 0.31682 0.23355 0.0
H1140 H 0.48454 0.33614 0.2468 0.0
H1141 H 0.46676 0.34145 0.22848 0.0
C1142 C 0.50433 0.39398 0.26231 0.0
C1143 C 0.49535 0.40509 0.25879 0.0
C1144 C 0.49406 0.37515 0.27609 0.0
C1145 C 0.47459 0.36703 0.28615 0.0
C1146 C 0.46541 0.37786 0.28129 0.0
H1147 H 0.39394 0.25767 0.39218 0.0
H1148 H 0.40921 0.29017 0.36523 0.0
C1149 C 0.47569 0.39673 0.26764 0.0
C1150 C 0.46433 0.34792 0.30476 0.0
H1151 H 0.45234 0.30095 0.29407 0.0
C1152 C 0.45708 0.3467 0.3418 0.0
C1153 C 0.46234 0.33118 0.28705 0.0
C1154 C 0.46896 0.33138 0.24664 0.0
C1155 C 0.44835 0.32928 0.36202 0.0
C1156 C 0.44675 0.31267 0.34459 0.0
C1157 C 0.45376 0.3138 0.30741 0.0
C1158 C 0.43784 0.2939 0.36436 0.0
C1159 C 0.44136 0.32883 0.4022 0.0
C1160 C 0.44895 0.2854 0.37311 0.0
C1161 C 0.44031 0.2669 0.38861 0.0
C1162 C 0.42036 0.25654 0.39521 0.0
C1163 C 0.40936 0.26535 0.38757 0.0
C1164 C 0.41805 0.2839 0.37222 0.0
H1165 H 0.44703 0.34352 0.41413 0.0
H1166 H 0.42541 0.32151 0.40221 0.0
H1167 H 0.44569 0.32058 0.42124 0.0
H1168 H 0.46426 0.29292 0.36715 0.0
H1169 H 0.44914 0.26046 0.39405 0.0
H1170 H 0.58569 0.06328 0.2743 0.0
H1171 H 0.61802 0.07842 0.30217 0.0
H1172 H 0.62152 0.13376 0.2973 0.0
H1173 H 0.58922 0.11877 0.26955 0.0
H1174 H 0.6541 0.11006 0.27396 0.0
H1175 H 0.63085 0.12639 0.41166 0.0
H1176 H 0.61406 0.10922 0.3778 0.0
H1177 H 0.6242 0.13456 0.36966 0.0
C1178 C 0.59344 0.0787 0.27877 0.0
C1179 C 0.58491 0.08984 0.26994 0.0
C1180 C 0.61186 0.0873 0.29475 0.0
C1181 C 0.62194 0.10711 0.30239 0.0
C1182 C 0.61378 0.11838 0.29221 0.0
H1183 H 0.73126 0.18835 0.40074 0.0
H1184 H 0.69822 0.17097 0.37663 0.0
C1185 C 0.59541 0.10982 0.27612 0.0
C1186 C 0.64088 0.11598 0.32151 0.0
H1187 H 0.66439 0.13931 0.40291 0.0
C1188 C 0.65638 0.11636 0.30224 0.0
C1189 C 0.64369 0.12414 0.35839 0.0
C1190 C 0.62731 0.12347 0.38084 0.0
C1191 C 0.67483 0.12522 0.31847 0.0
C1192 C 0.67769 0.13348 0.35532 0.0
C1193 C 0.66212 0.13292 0.37473 0.0
C1194 C 0.69691 0.14341 0.37352 0.0
C1195 C 0.69122 0.12618 0.29551 0.0
C1196 C 0.70681 0.1335 0.38116 0.0
C1197 C 0.72569 0.1434 0.39482 0.0
C1198 C 0.7349 0.16333 0.4014 0.0
C1199 C 0.72455 0.173 0.39588 0.0
C1200 C 0.7057 0.1631 0.38205 0.0
H1201 H 0.6876 0.12344 0.26468 0.0
H1202 H 0.70443 0.14046 0.29863 0.0
H1203 H 0.69444 0.11506 0.30603 0.0
H1204 H 0.7001 0.1182 0.37563 0.0
H1205 H 0.73328 0.13555 0.39905 0.0
H1206 H 0.46935 0.06893 0.26241 0.0
H1207 H 0.45407 0.08652 0.28721 0.0
H1208 H 0.50832 0.13964 0.28062 0.0
H1209 H 0.52367 0.12219 0.25538 0.0
H1210 H 0.46567 0.10733 0.3559 0.0
H1211 H 0.47019 0.15409 0.23482 0.0
H1212 H 0.47285 0.13321 0.22861 0.0
H1213 H 0.49247 0.15521 0.24701 0.0
C1214 C 0.47793 0.08442 0.2654 0.0
C1215 C 0.49771 0.09419 0.257 0.0
C1216 C 0.4692 0.09442 0.27969 0.0
C1217 C 0.48005 0.11437 0.28557 0.0
C1218 C 0.49962 0.12429 0.27571 0.0
H1219 H 0.45272 0.19658 0.38853 0.0
H1220 H 0.46968 0.18079 0.3627 0.0
C1221 C 0.50838 0.11429 0.26138 0.0
C1222 C 0.47129 0.12446 0.30512 0.0
H1223 H 0.46026 0.16009 0.29453 0.0
C1224 C 0.46441 0.11882 0.34246 0.0
C1225 C 0.46988 0.13956 0.2876 0.0
C1226 C 0.47658 0.14582 0.24719 0.0
C1227 C 0.45619 0.12795 0.36289 0.0
C1228 C 0.45453 0.14287 0.34522 0.0
C1229 C 0.46161 0.14866 0.30802 0.0
C1230 C 0.44478 0.15215 0.36414 0.0
C1231 C 0.44961 0.12171 0.40339 0.0
C1232 C 0.42524 0.14123 0.37389 0.0
C1233 C 0.41556 0.15017 0.38878 0.0
C1234 C 0.42522 0.17023 0.39388 0.0
C1235 C 0.44493 0.18109 0.38508 0.0
C1236 C 0.45461 0.17212 0.37019 0.0
H1237 H 0.45684 0.11433 0.41621 0.0
H1238 H 0.45247 0.1342 0.42163 0.0
H1239 H 0.43388 0.11145 0.40349 0.0
H1240 H 0.4173 0.12586 0.36878 0.0
H1241 H 0.40034 0.14145 0.39503 0.0
H1242 H 0.80027 0.25751 0.39257 0.0
H1243 H 0.81738 0.29019 0.36662 0.0
H1244 H 0.8704 0.28877 0.36698 0.0
H1245 H 0.85334 0.25597 0.39232 0.0
H1246 H 0.84881 0.32413 0.39311 0.0
H1247 H 0.86557 0.30115 0.25566 0.0
H1248 H 0.8484 0.28427 0.28934 0.0
H1249 H 0.87378 0.29425 0.29719 0.0
C1250 C 0.81562 0.26424 0.3875 0.0
C1251 C 0.82546 0.25415 0.39419 0.0
C1252 C 0.82535 0.28288 0.37261 0.0
C1253 C 0.84505 0.2917 0.3641 0.0
C1254 C 0.85509 0.28202 0.37249 0.0
H1255 H 0.92782 0.40299 0.27123 0.0
H1256 H 0.91125 0.37008 0.29627 0.0
C1257 C 0.84537 0.26336 0.38727 0.0
C1258 C 0.85497 0.31091 0.34584 0.0
H1259 H 0.87947 0.33474 0.26556 0.0
C1260 C 0.85546 0.32645 0.36519 0.0
C1261 C 0.86358 0.31384 0.30934 0.0
C1262 C 0.8627 0.29748 0.28644 0.0
C1263 C 0.86462 0.34497 0.34925 0.0
C1264 C 0.87325 0.3479 0.31282 0.0
C1265 C 0.87281 0.33239 0.29349 0.0
C1266 C 0.88293 0.36706 0.29453 0.0
C1267 C 0.8653 0.36133 0.37178 0.0
C1268 C 0.87235 0.37593 0.28407 0.0
C1269 C 0.88174 0.39466 0.26964 0.0
C1270 C 0.90186 0.4048 0.26541 0.0
C1271 C 0.91231 0.39553 0.27423 0.0
C1272 C 0.90289 0.37677 0.28858 0.0
H1273 H 0.8618 0.35757 0.40239 0.0
H1274 H 0.87975 0.37441 0.36974 0.0
H1275 H 0.85462 0.36485 0.35987 0.0
H1276 H 0.85688 0.3685 0.28787 0.0
H1277 H 0.8733 0.4014 0.26299 0.0
H1278 H 0.5906 0.52333 0.262 0.0
H1279 H 0.62383 0.5403 0.28518 0.0
H1280 H 0.62459 0.48695 0.28542 0.0
H1281 H 0.59155 0.46996 0.26151 0.0
H1282 H 0.63528 0.53311 0.35364 0.0
H1283 H 0.67577 0.52336 0.2358 0.0
H1284 H 0.65162 0.51915 0.22981 0.0
H1285 H 0.6556 0.50118 0.25181 0.0
C1286 C 0.59801 0.51529 0.26619 0.0
C1287 C 0.58851 0.49533 0.25992 0.0
C1288 C 0.61695 0.525 0.27955 0.0
C1289 C 0.62672 0.51492 0.28674 0.0
C1290 C 0.61746 0.49508 0.27932 0.0
H1291 H 0.73399 0.54152 0.39589 0.0
H1292 H 0.70132 0.52568 0.36968 0.0
C1293 C 0.59855 0.48538 0.26579 0.0
C1294 C 0.64594 0.52481 0.30501 0.0
H1295 H 0.69221 0.53434 0.29527 0.0
C1296 C 0.64778 0.53353 0.34074 0.0
C1297 C 0.66217 0.52524 0.28818 0.0
C1298 C 0.66129 0.51689 0.24912 0.0
C1299 C 0.66535 0.54237 0.36044 0.0
C1300 C 0.6815 0.54262 0.34378 0.0
C1301 C 0.67971 0.53398 0.30802 0.0
C1302 C 0.70052 0.55205 0.36266 0.0
C1303 C 0.66643 0.55102 0.39925 0.0
C1304 C 0.71073 0.57206 0.36777 0.0
C1305 C 0.72936 0.58114 0.38272 0.0
C1306 C 0.73809 0.57032 0.3927 0.0
C1307 C 0.7276 0.55021 0.38863 0.0
C1308 C 0.70899 0.54116 0.37353 0.0
H1309 H 0.65192 0.54585 0.41169 0.0
H1310 H 0.67499 0.54756 0.41929 0.0
H1311 H 0.67366 0.56691 0.39657 0.0
H1312 H 0.70451 0.58073 0.35905 0.0
H1313 H 0.73714 0.59667 0.38533 0.0
H1314 H 0.60134 0.85453 0.62524 0.0
H1315 H 0.58634 0.87203 0.65231 0.0
H1316 H 0.53036 0.8256 0.62004 0.0
H1317 H 0.54519 0.80803 0.5928 0.0
H1318 H 0.55872 0.88221 0.61522 0.0
H1319 H 0.52929 0.83296 0.73988 0.0
H1320 H 0.54902 0.83502 0.71143 0.0
H1321 H 0.52483 0.82173 0.69366 0.0
C1322 C 0.58586 0.84816 0.62348 0.0
C1323 C 0.57441 0.82988 0.60707 0.0
C1324 C 0.57734 0.85815 0.63899 0.0
C1325 C 0.55728 0.84993 0.6386 0.0
C1326 C 0.54587 0.83203 0.62098 0.0
H1327 H 0.47304 0.8764 0.72387 0.0
H1328 H 0.49136 0.86153 0.70118 0.0
C1329 C 0.55437 0.82208 0.60527 0.0
C1330 C 0.54816 0.8598 0.65748 0.0
H1331 H 0.51952 0.85613 0.73276 0.0
C1332 C 0.55025 0.87665 0.64106 0.0
C1333 C 0.53717 0.85241 0.69114 0.0
C1334 C 0.53499 0.83461 0.71037 0.0
C1335 C 0.54104 0.88602 0.65679 0.0
C1336 C 0.5299 0.87855 0.69038 0.0
C1337 C 0.52811 0.86185 0.7071 0.0
C1338 C 0.51917 0.88728 0.70745 0.0
C1339 C 0.54274 0.90337 0.63645 0.0
C1340 C 0.52879 0.9065 0.71983 0.0
C1341 C 0.51835 0.91507 0.73262 0.0
C1342 C 0.49813 0.90447 0.73366 0.0
C1343 C 0.48861 0.88493 0.72334 0.0
C1344 C 0.49905 0.87642 0.71031 0.0
H1345 H 0.5477 0.90431 0.6065 0.0
H1346 H 0.52874 0.90303 0.63624 0.0
H1347 H 0.55339 0.91662 0.65157 0.0
H1348 H 0.54435 0.91498 0.7188 0.0
H1349 H 0.52607 0.93013 0.74064 0.0
H1350 H 0.18528 0.75169 0.67211 0.0
H1351 H 0.16766 0.7187 0.6961 0.0
H1352 H 0.13424 0.70041 0.59243 0.0
H1353 H 0.1519 0.73349 0.56803 0.0
H1354 H 0.12677 0.6957 0.70682 0.0
H1355 H 0.15566 0.663 0.6054 0.0
H1356 H 0.16716 0.68865 0.61316 0.0
H1357 H 0.14588 0.67668 0.58426 0.0
C1358 C 0.17427 0.74064 0.65426 0.0
C1359 C 0.17 0.74514 0.61811 0.0
C1360 C 0.16419 0.72183 0.66808 0.0
C1361 C 0.14978 0.70715 0.64592 0.0
C1362 C 0.1455 0.71154 0.60973 0.0
H1363 H 0.06337 0.59245 0.71975 0.0
H1364 H 0.08017 0.62601 0.69846 0.0
C1365 C 0.15556 0.73041 0.59589 0.0
C1366 C 0.13906 0.68734 0.66118 0.0
H1367 H 0.13132 0.6419 0.64786 0.0
C1368 C 0.12772 0.6839 0.69396 0.0
C1369 C 0.14053 0.6721 0.64448 0.0
C1370 C 0.15307 0.67521 0.61005 0.0
C1371 C 0.11767 0.66551 0.7104 0.0
C1372 C 0.11893 0.65022 0.69338 0.0
C1373 C 0.13036 0.65369 0.66072 0.0
C1374 C 0.10868 0.63048 0.70913 0.0
C1375 C 0.10608 0.66265 0.7462 0.0
C1376 C 0.11917 0.62194 0.72225 0.0
C1377 C 0.10963 0.60281 0.73441 0.0
C1378 C 0.08943 0.59185 0.73334 0.0
C1379 C 0.07894 0.60058 0.7211 0.0
C1380 C 0.0885 0.61975 0.70901 0.0
H1381 H 0.11003 0.67654 0.76034 0.0
H1382 H 0.09057 0.65543 0.73875 0.0
H1383 H 0.10816 0.65334 0.76682 0.0
H1384 H 0.13476 0.63001 0.72247 0.0
H1385 H 0.1181 0.59645 0.74357 0.0
H1386 H 0.40329 0.47253 0.69631 0.0
H1387 H 0.36992 0.45781 0.6748 0.0
H1388 H 0.36444 0.50275 0.73068 0.0
H1389 H 0.39807 0.51789 0.75142 0.0
H1390 H 0.33603 0.4437 0.71271 0.0
H1391 H 0.34826 0.50573 0.62266 0.0
H1392 H 0.36777 0.50365 0.64307 0.0
H1393 H 0.35467 0.5118 0.67185 0.0
C1394 C 0.39495 0.47922 0.70424 0.0
C1395 C 0.40331 0.49644 0.72528 0.0
C1396 C 0.37589 0.4708 0.69189 0.0
C1397 C 0.36484 0.47942 0.70042 0.0
C1398 C 0.37289 0.49615 0.7229 0.0
H1399 H 0.24621 0.44576 0.6498 0.0
H1400 H 0.27926 0.46141 0.67406 0.0
C1401 C 0.39203 0.50469 0.73501 0.0
C1402 C 0.34498 0.47091 0.68531 0.0
H1403 H 0.31599 0.48033 0.62877 0.0
C1404 C 0.33166 0.4517 0.6943 0.0
C1405 C 0.33935 0.48137 0.66113 0.0
C1406 C 0.35329 0.50171 0.64876 0.0
C1407 C 0.3128 0.4427 0.68004 0.0
C1408 C 0.3072 0.45318 0.65604 0.0
C1409 C 0.32041 0.4724 0.64724 0.0
C1410 C 0.28761 0.44434 0.63986 0.0
C1411 C 0.2989 0.42212 0.69099 0.0
C1412 C 0.28161 0.42991 0.612 0.0
C1413 C 0.2628 0.42104 0.59788 0.0
C1414 C 0.24973 0.42645 0.61156 0.0
C1415 C 0.25597 0.44127 0.63878 0.0
C1416 C 0.2748 0.45021 0.65268 0.0
H1417 H 0.30438 0.4172 0.71505 0.0
H1418 H 0.28475 0.42042 0.69917 0.0
H1419 H 0.29655 0.41263 0.66609 0.0
H1420 H 0.29142 0.42537 0.60151 0.0
H1421 H 0.25839 0.40966 0.57692 0.0
H1422 H 0.13555 0.40198 0.59512 0.0
H1423 H 0.12035 0.41954 0.62047 0.0
H1424 H 0.17544 0.47186 0.62205 0.0
H1425 H 0.19074 0.45445 0.59628 0.0
H1426 H 0.13031 0.43819 0.69154 0.0
H1427 H 0.13961 0.48901 0.5749 0.0
H1428 H 0.14182 0.46795 0.56719 0.0
H1429 H 0.16121 0.4891 0.58873 0.0
C1430 C 0.14437 0.41732 0.60003 0.0
C1431 C 0.16434 0.42686 0.59374 0.0
C1432 C 0.13567 0.4273 0.61465 0.0
C1433 C 0.14676 0.44699 0.62299 0.0
C1434 C 0.16658 0.45673 0.61525 0.0
H1435 H 0.12011 0.5285 0.73051 0.0
H1436 H 0.13667 0.51227 0.70496 0.0
C1437 C 0.1753 0.44676 0.60059 0.0
C1438 C 0.13785 0.4569 0.64271 0.0
H1439 H 0.12831 0.49365 0.63428 0.0
C1440 C 0.12979 0.45027 0.67899 0.0
C1441 C 0.13737 0.47274 0.62636 0.0
C1442 C 0.14531 0.48006 0.58702 0.0
C1443 C 0.12135 0.45915 0.69952 0.0
C1444 C 0.12069 0.47487 0.68302 0.0
C1445 C 0.1289 0.48161 0.64688 0.0
C1446 C 0.11102 0.48419 0.70214 0.0
C1447 C 0.11348 0.45184 0.73891 0.0
C1448 C 0.09118 0.4737 0.70954 0.0
C1449 C 0.0817 0.4829 0.72427 0.0
C1450 C 0.09191 0.50279 0.73156 0.0
C1451 C 0.11189 0.51314 0.7253 0.0
C1452 C 0.12135 0.50392 0.71057 0.0
H1453 H 0.11979 0.44352 0.75148 0.0
H1454 H 0.11635 0.46389 0.75844 0.0
H1455 H 0.09767 0.44216 0.73707 0.0
H1456 H 0.08289 0.45853 0.70261 0.0
H1457 H 0.06628 0.47458 0.72854 0.0
H1458 H 0.47216 0.57306 0.6484 0.0
H1459 H 0.48795 0.60549 0.62168 0.0
H1460 H 0.51266 0.6289 0.73184 0.0
H1461 H 0.49741 0.59633 0.75849 0.0
H1462 H 0.48559 0.63664 0.63643 0.0
H1463 H 0.55988 0.65224 0.66559 0.0
H1464 H 0.53922 0.62851 0.67096 0.0
H1465 H 0.54551 0.64623 0.70804 0.0
C1466 C 0.48092 0.58512 0.667 0.0
C1467 C 0.4837 0.58218 0.70547 0.0
C1468 C 0.48993 0.60364 0.65166 0.0
C1469 C 0.50183 0.61959 0.67453 0.0
C1470 C 0.504 0.61676 0.71339 0.0
H1471 H 0.54059 0.73865 0.62539 0.0
H1472 H 0.52239 0.70482 0.64348 0.0
C1473 C 0.49516 0.59818 0.72867 0.0
C1474 C 0.51197 0.63912 0.65752 0.0
H1475 H 0.5564 0.67873 0.64593 0.0
C1476 C 0.50109 0.64581 0.6383 0.0
C1477 C 0.53223 0.65091 0.65915 0.0
C1478 C 0.54491 0.64404 0.67668 0.0
C1479 C 0.50988 0.66414 0.62152 0.0
C1480 C 0.53003 0.67633 0.62507 0.0
C1481 C 0.54094 0.66945 0.64347 0.0
C1482 C 0.54009 0.6965 0.61121 0.0
C1483 C 0.49749 0.67009 0.59972 0.0
C1484 C 0.55632 0.70321 0.58744 0.0
C1485 C 0.567 0.72269 0.57763 0.0
C1486 C 0.56158 0.73574 0.5913 0.0
C1487 C 0.54501 0.72889 0.61408 0.0
C1488 C 0.53449 0.7095 0.62426 0.0
H1489 H 0.48431 0.65736 0.58848 0.0
H1490 H 0.49283 0.67789 0.61921 0.0
H1491 H 0.50545 0.67969 0.57545 0.0
H1492 H 0.56095 0.69345 0.57716 0.0
H1493 H 0.57974 0.72759 0.56011 0.0
H1494 H 0.25703 0.80141 0.60148 0.0
H1495 H 0.29011 0.81693 0.62564 0.0
H1496 H 0.29577 0.87267 0.60764 0.0
H1497 H 0.26269 0.85731 0.58391 0.0
H1498 H 0.32651 0.84541 0.59518 0.0
H1499 H 0.3052 0.8712 0.72325 0.0
H1500 H 0.28784 0.85306 0.6916 0.0
H1501 H 0.29945 0.87805 0.67853 0.0
C1502 C 0.26545 0.81698 0.60202 0.0
C1503 C 0.25723 0.82816 0.59119 0.0
C1504 C 0.2843 0.82581 0.61591 0.0
C1505 C 0.29516 0.8459 0.6192 0.0
C1506 C 0.28743 0.85712 0.60605 0.0
H1507 H 0.40596 0.92849 0.71028 0.0
H1508 H 0.37345 0.9113 0.68355 0.0
C1509 C 0.2686 0.84832 0.59226 0.0
C1510 C 0.31417 0.85512 0.6382 0.0
H1511 H 0.33851 0.88248 0.71543 0.0
C1512 C 0.32916 0.85344 0.62156 0.0
C1513 C 0.31747 0.86547 0.67274 0.0
C1514 C 0.30162 0.86695 0.69285 0.0
C1515 C 0.34759 0.86235 0.638 0.0
C1516 C 0.35093 0.8729 0.6723 0.0
C1517 C 0.33588 0.87439 0.68913 0.0
C1518 C 0.37012 0.88301 0.69056 0.0
C1519 C 0.36346 0.86087 0.61801 0.0
C1520 C 0.37874 0.87273 0.70443 0.0
C1521 C 0.3973 0.88251 0.71981 0.0
C1522 C 0.40747 0.90271 0.72169 0.0
C1523 C 0.39848 0.91291 0.70919 0.0
C1524 C 0.37994 0.90313 0.69384 0.0
H1525 H 0.35968 0.85605 0.58793 0.0
H1526 H 0.37708 0.87493 0.61832 0.0
H1527 H 0.36604 0.85023 0.63316 0.0
H1528 H 0.37122 0.85716 0.70288 0.0
H1529 H 0.40385 0.87427 0.72932 0.0
loop_
_geom_bond_atom_site_label_1
_geom_bond_atom_site_label_2
_geom_bond_distance
_geom_bond_site_symmetry_2
_ccdc_geom_bond_type
In0 O1 2.294 . S
In0 O2 2.326 . S
In0 O6 2.266 . S
In0 O7 2.326 1_554 S
In0 O8 2.266 . S
In0 O9 2.326 . S
In0 O11 2.294 . S
In0 O12 2.326 . S
O1 In0 2.294 . S
O1 C10 1.240 . S
O2 In0 2.326 . S
O2 C10 1.252 . S
C3 O6 1.252 1_556 S
C3 O7 1.260 . S
C4 O11 1.240 . S
C4 O12 1.252 . S
C5 O8 1.252 . S
C5 O9 1.260 . S
O6 In0 2.266 . S
O6 C3 1.252 1_554 S
O7 In0 2.326 1_556 S
O7 C3 1.260 . S
O8 In0 2.266 . S
O8 C5 1.252 . S
O9 In0 2.326 . S
O9 C5 1.260 . S
C10 O1 1.240 . S
C10 O2 1.252 . S
O11 In0 2.294 . S
O11 C4 1.240 . S
O12 In0 2.326 . S
O12 C4 1.252 . S
In13 O14 2.294 . S
In13 O15 2.326 . S
In13 O19 2.266 . S
In13 O20 2.326 . S
In13 O21 2.266 . S
In13 O22 2.326 1_554 S
In13 O24 2.294 . S
In13 O25 2.326 . S
O14 In13 2.294 . S
O14 C23 1.240 . S
O15 In13 2.326 . S
O15 C23 1.252 . S
C16 O19 1.252 . S
C16 O20 1.260 . S
C17 O24 1.240 . S
C17 O25 1.252 . S
C18 O21 1.252 1_556 S
C18 O22 1.260 . S
O19 In13 2.266 . S
O19 C16 1.252 . S
O20 In13 2.326 . S
O20 C16 1.260 . S
O21 In13 2.266 . S
O21 C18 1.252 1_554 S
O22 In13 2.326 1_556 S
O22 C18 1.260 . S
C23 O14 1.240 . S
C23 O15 1.252 . S
O24 In13 2.294 . S
O24 C17 1.240 . S
O25 In13 2.326 . S
O25 C17 1.252 . S
In26 O27 2.294 . S
In26 O28 2.326 . S
In26 O32 2.266 . S
In26 O33 2.326 . S
In26 O34 2.266 . S
In26 O35 2.326 1_554 S
In26 O37 2.294 . S
In26 O38 2.326 . S
O27 In26 2.294 . S
O27 C36 1.240 . S
O28 In26 2.326 . S
O28 C36 1.252 . S
C29 O32 1.252 . S
C29 O33 1.260 . S
C30 O37 1.240 . S
C30 O38 1.252 . S
C31 O34 1.252 1_556 S
C31 O35 1.260 . S
O32 In26 2.266 . S
O32 C29 1.252 . S
O33 In26 2.326 . S
O33 C29 1.260 . S
O34 In26 2.266 . S
O34 C31 1.252 1_554 S
O35 In26 2.326 1_556 S
O35 C31 1.260 . S
C36 O27 1.240 . S
C36 O28 1.252 . S
O37 In26 2.294 . S
O37 C30 1.240 . S
O38 In26 2.326 . S
O38 C30 1.252 . S
In39 O40 2.294 . S
In39 O41 2.326 . S
In39 O45 2.266 . S
In39 O46 2.326 1_556 S
In39 O47 2.266 . S
In39 O48 2.326 . S
In39 O50 2.294 . S
In39 O51 2.326 . S
O40 In39 2.294 . S
O40 C49 1.240 . S
O41 In39 2.326 . S
O41 C49 1.252 . S
C42 O45 1.252 1_554 S
C42 O46 1.260 . S
C43 O50 1.240 . S
C43 O51 1.252 . S
C44 O47 1.252 . S
C44 O48 1.260 . S
O45 In39 2.266 . S
O45 C42 1.252 1_556 S
O46 In39 2.326 1_554 S
O46 C42 1.260 . S
O47 In39 2.266 . S
O47 C44 1.252 . S
O48 In39 2.326 . S
O48 C44 1.260 . S
C49 O40 1.240 . S
C49 O41 1.252 . S
O50 In39 2.294 . S
O50 C43 1.240 . S
O51 In39 2.326 . S
O51 C43 1.252 . S
In52 O53 2.294 . S
In52 O54 2.326 . S
In52 O58 2.266 . S
In52 O59 2.326 1_556 S
In52 O60 2.266 . S
In52 O61 2.326 . S
In52 O63 2.294 . S
In52 O64 2.326 . S
O53 In52 2.294 . S
O53 C62 1.240 . S
O54 In52 2.326 . S
O54 C62 1.252 . S
C55 O58 1.252 1_554 S
C55 O59 1.260 . S
C56 O63 1.240 . S
C56 O64 1.252 . S
C57 O60 1.252 . S
C57 O61 1.260 . S
O58 In52 2.266 . S
O58 C55 1.252 1_556 S
O59 In52 2.326 1_554 S
O59 C55 1.260 . S
O60 In52 2.266 . S
O60 C57 1.252 . S
O61 In52 2.326 . S
O61 C57 1.260 . S
C62 O53 1.240 . S
C62 O54 1.252 . S
O63 In52 2.294 . S
O63 C56 1.240 . S
O64 In52 2.326 . S
O64 C56 1.252 . S
In65 O66 2.294 . S
In65 O67 2.326 . S
In65 O71 2.266 . S
In65 O72 2.326 . S
In65 O73 2.266 . S
In65 O74 2.326 1_556 S
In65 O76 2.294 . S
In65 O77 2.326 . S
O66 In65 2.294 . S
O66 C75 1.240 . S
O67 In65 2.326 . S
O67 C75 1.252 . S
C68 O71 1.252 . S
C68 O72 1.260 . S
C69 O76 1.240 . S
C69 O77 1.252 . S
C70 O73 1.252 1_554 S
C70 O74 1.260 . S
O71 In65 2.266 . S
O71 C68 1.252 . S
O72 In65 2.326 . S
O72 C68 1.260 . S
O73 In65 2.266 . S
O73 C70 1.252 1_556 S
O74 In65 2.326 1_554 S
O74 C70 1.260 . S
C75 O66 1.240 . S
C75 O67 1.252 . S
O76 In65 2.294 . S
O76 C69 1.240 . S
O77 In65 2.326 . S
O77 C69 1.252 . S
In78 O79 2.294 . S
In78 O80 2.326 . S
In78 O84 2.266 . S
In78 O85 2.326 . S
In78 O86 2.266 . S
In78 O87 2.326 . S
In78 O89 2.294 . S
In78 O90 2.326 . S
O79 In78 2.294 . S
O79 C88 1.240 . S
O80 In78 2.326 . S
O80 C88 1.252 . S
C81 O84 1.252 . S
C81 O85 1.260 . S
C82 O89 1.240 . S
C82 O90 1.252 . S
C83 O86 1.252 . S
C83 O87 1.260 . S
O84 In78 2.266 . S
O84 C81 1.252 . S
O85 In78 2.326 . S
O85 C81 1.260 . S
O86 In78 2.266 . S
O86 C83 1.252 . S
O87 In78 2.326 . S
O87 C83 1.260 . S
C88 O79 1.240 . S
C88 O80 1.252 . S
O89 In78 2.294 . S
O89 C82 1.240 . S
O90 In78 2.326 . S
O90 C82 1.252 . S
In91 O92 2.294 . S
In91 O93 2.326 . S
In91 O97 2.266 . S
In91 O98 2.326 . S
In91 O99 2.266 . S
In91 O100 2.326 . S
In91 O102 2.294 . S
In91 O103 2.326 . S
O92 In91 2.294 . S
O92 C101 1.240 . S
O93 In91 2.326 . S
O93 C101 1.252 . S
C94 O97 1.252 . S
C94 O98 1.260 . S
C95 O102 1.240 . S
C95 O103 1.252 . S
C96 O99 1.252 . S
C96 O100 1.260 . S
O97 In91 2.266 . S
O97 C94 1.252 . S
O98 In91 2.326 . S
O98 C94 1.260 . S
O99 In91 2.266 . S
O99 C96 1.252 . S
O100 In91 2.326 . S
O100 C96 1.260 . S
C101 O92 1.240 . S
C101 O93 1.252 . S
O102 In91 2.294 . S
O102 C95 1.240 . S
O103 In91 2.326 . S
O103 C95 1.252 . S
In104 O105 2.294 . S
In104 O106 2.326 . S
In104 O110 2.266 . S
In104 O111 2.326 . S
In104 O112 2.266 . S
In104 O113 2.326 . S
In104 O115 2.294 . S
In104 O116 2.326 . S
O105 In104 2.294 . S
O105 C114 1.240 . S
O106 In104 2.326 . S
O106 C114 1.252 . S
C107 O110 1.252 . S
C107 O111 1.260 . S
C108 O115 1.240 . S
C108 O116 1.252 . S
C109 O112 1.252 . S
C109 O113 1.260 . S
O110 In104 2.266 . S
O110 C107 1.252 . S
O111 In104 2.326 . S
O111 C107 1.260 . S
O112 In104 2.266 . S
O112 C109 1.252 . S
O113 In104 2.326 . S
O113 C109 1.260 . S
C114 O105 1.240 . S
C114 O106 1.252 . S
O115 In104 2.294 . S
O115 C108 1.240 . S
O116 In104 2.326 . S
O116 C108 1.252 . S
In117 O118 2.294 . S
In117 O119 2.326 . S
In117 O123 2.266 . S
In117 O124 2.326 . S
In117 O125 2.266 . S
In117 O126 2.326 . S
In117 O128 2.294 . S
In117 O129 2.326 . S
O118 In117 2.294 . S
O118 C127 1.240 . S
O119 In117 2.326 . S
O119 C127 1.252 . S
C120 O123 1.252 . S
C120 O124 1.260 . S
C121 O128 1.240 . S
C121 O129 1.252 . S
C122 O125 1.252 . S
C122 O126 1.260 . S
O123 In117 2.266 . S
O123 C120 1.252 . S
O124 In117 2.326 . S
O124 C120 1.260 . S
O125 In117 2.266 . S
O125 C122 1.252 . S
O126 In117 2.326 . S
O126 C122 1.260 . S
C127 O118 1.240 . S
C127 O119 1.252 . S
O128 In117 2.294 . S
O128 C121 1.240 . S
O129 In117 2.326 . S
O129 C121 1.252 . S
In130 O131 2.294 . S
In130 O132 2.326 . S
In130 O136 2.266 . S
In130 O137 2.326 . S
In130 O138 2.266 . S
In130 O139 2.326 . S
In130 O141 2.294 . S
In130 O142 2.326 . S
O131 In130 2.294 . S
O131 C140 1.240 . S
O132 In130 2.326 . S
O132 C140 1.252 . S
C133 O136 1.252 . S
C133 O137 1.260 . S
C134 O141 1.240 . S
C134 O142 1.252 . S
C135 O138 1.252 . S
C135 O139 1.260 . S
O136 In130 2.266 . S
O136 C133 1.252 . S
O137 In130 2.326 . S
O137 C133 1.260 . S
O138 In130 2.266 . S
O138 C135 1.252 . S
O139 In130 2.326 . S
O139 C135 1.260 . S
C140 O131 1.240 . S
C140 O132 1.252 . S
O141 In130 2.294 . S
O141 C134 1.240 . S
O142 In130 2.326 . S
O142 C134 1.252 . S
In143 O144 2.294 . S
In143 O145 2.326 . S
In143 O149 2.266 . S
In143 O150 2.326 . S
In143 O151 2.266 . S
In143 O152 2.326 . S
In143 O154 2.294 . S
In143 O155 2.326 . S
O144 In143 2.294 . S
O144 C153 1.240 . S
O145 In143 2.326 . S
O145 C153 1.252 . S
C146 O149 1.252 . S
C146 O150 1.260 . S
C147 O154 1.240 . S
C147 O155 1.252 . S
C148 O151 1.252 . S
C148 O152 1.260 . S
O149 In143 2.266 . S
O149 C146 1.252 . S
O150 In143 2.326 . S
O150 C146 1.260 . S
O151 In143 2.266 . S
O151 C148 1.252 . S
O152 In143 2.326 . S
O152 C148 1.260 . S
C153 O144 1.240 . S
C153 O145 1.252 . S
O154 In143 2.294 . S
O154 C147 1.240 . S
O155 In143 2.326 . S
O155 C147 1.252 . S
In156 O157 2.294 . S
In156 O158 2.326 . S
In156 O162 2.266 . S
In156 O163 2.326 . S
In156 O164 2.266 . S
In156 O165 2.326 . S
In156 O167 2.294 . S
In156 O168 2.326 . S
O157 In156 2.294 . S
O157 C166 1.240 . S
O158 In156 2.326 . S
O158 C166 1.252 . S
C159 O162 1.252 . S
C159 O163 1.260 . S
C160 O167 1.240 . S
C160 O168 1.252 . S
C161 O164 1.252 . S
C161 O165 1.260 . S
O162 In156 2.266 . S
O162 C159 1.252 . S
O163 In156 2.326 . S
O163 C159 1.260 . S
O164 In156 2.266 . S
O164 C161 1.252 . S
O165 In156 2.326 . S
O165 C161 1.260 . S
C166 O157 1.240 . S
C166 O158 1.252 . S
O167 In156 2.294 . S
O167 C160 1.240 . S
O168 In156 2.326 . S
O168 C160 1.252 . S
In169 O170 2.294 . S
In169 O171 2.326 . S
In169 O175 2.266 . S
In169 O176 2.326 . S
In169 O177 2.266 . S
In169 O178 2.326 . S
In169 O180 2.294 . S
In169 O181 2.326 . S
O170 In169 2.294 . S
O170 C179 1.240 . S
O171 In169 2.326 . S
O171 C179 1.252 . S
C172 O175 1.252 . S
C172 O176 1.260 . S
C173 O180 1.240 . S
C173 O181 1.252 . S
C174 O177 1.252 . S
C174 O178 1.260 . S
O175 In169 2.266 . S
O175 C172 1.252 . S
O176 In169 2.326 . S
O176 C172 1.260 . S
O177 In169 2.266 . S
O177 C174 1.252 . S
O178 In169 2.326 . S
O178 C174 1.260 . S
C179 O170 1.240 . S
C179 O171 1.252 . S
O180 In169 2.294 . S
O180 C173 1.240 . S
O181 In169 2.326 . S
O181 C173 1.252 . S
In182 O183 2.294 . S
In182 O184 2.326 . S
In182 O188 2.266 . S
In182 O189 2.326 . S
In182 O190 2.266 . S
In182 O191 2.326 . S
In182 O193 2.294 . S
In182 O194 2.326 . S
O183 In182 2.294 . S
O183 C192 1.240 . S
O184 In182 2.326 . S
O184 C192 1.252 . S
C185 O188 1.252 . S
C185 O189 1.260 . S
C186 O193 1.240 . S
C186 O194 1.252 . S
C187 O190 1.252 . S
C187 O191 1.260 . S
O188 In182 2.266 . S
O188 C185 1.252 . S
O189 In182 2.326 . S
O189 C185 1.260 . S
O190 In182 2.266 . S
O190 C187 1.252 . S
O191 In182 2.326 . S
O191 C187 1.260 . S
C192 O183 1.240 . S
C192 O184 1.252 . S
O193 In182 2.294 . S
O193 C186 1.240 . S
O194 In182 2.326 . S
O194 C186 1.252 . S
In195 O196 2.294 . S
In195 O197 2.326 . S
In195 O201 2.266 . S
In195 O202 2.326 . S
In195 O203 2.266 . S
In195 O204 2.326 . S
In195 O206 2.294 . S
In195 O207 2.326 . S
O196 In195 2.294 . S
O196 C205 1.240 . S
O197 In195 2.326 . S
O197 C205 1.252 . S
C198 O201 1.252 . S
C198 O202 1.260 . S
C199 O206 1.240 . S
C199 O207 1.252 . S
C200 O203 1.252 . S
C200 O204 1.260 . S
O201 In195 2.266 . S
O201 C198 1.252 . S
O202 In195 2.326 . S
O202 C198 1.260 . S
O203 In195 2.266 . S
O203 C200 1.252 . S
O204 In195 2.326 . S
O204 C200 1.260 . S
C205 O196 1.240 . S
C205 O197 1.252 . S
O206 In195 2.294 . S
O206 C199 1.240 . S
O207 In195 2.326 . S
O207 C199 1.252 . S
In208 O209 2.294 . S
In208 O210 2.326 . S
In208 O214 2.266 . S
In208 O215 2.326 . S
In208 O216 2.266 . S
In208 O217 2.326 . S
In208 O219 2.294 . S
In208 O220 2.326 . S
O209 In208 2.294 . S
O209 C218 1.240 . S
O210 In208 2.326 . S
O210 C218 1.252 . S
C211 O214 1.252 . S
C211 O215 1.260 . S
C212 O219 1.240 . S
C212 O220 1.252 . S
C213 O216 1.252 . S
C213 O217 1.260 . S
O214 In208 2.266 . S
O214 C211 1.252 . S
O215 In208 2.326 . S
O215 C211 1.260 . S
O216 In208 2.266 . S
O216 C213 1.252 . S
O217 In208 2.326 . S
O217 C213 1.260 . S
C218 O209 1.240 . S
C218 O210 1.252 . S
O219 In208 2.294 . S
O219 C212 1.240 . S
O220 In208 2.326 . S
O220 C212 1.252 . S
In221 O222 2.294 . S
In221 O223 2.326 . S
In221 O227 2.266 . S
In221 O228 2.326 . S
In221 O229 2.266 . S
In221 O230 2.326 . S
In221 O232 2.294 . S
In221 O233 2.326 . S
O222 In221 2.294 . S
O222 C231 1.240 . S
O223 In221 2.326 . S
O223 C231 1.252 . S
C224 O227 1.252 . S
C224 O228 1.260 . S
C225 O232 1.240 . S
C225 O233 1.252 . S
C226 O229 1.252 . S
C226 O230 1.260 . S
O227 In221 2.266 . S
O227 C224 1.252 . S
O228 In221 2.326 . S
O228 C224 1.260 . S
O229 In221 2.266 . S
O229 C226 1.252 . S
O230 In221 2.326 . S
O230 C226 1.260 . S
C231 O222 1.240 . S
C231 O223 1.252 . S
O232 In221 2.294 . S
O232 C225 1.240 . S
O233 In221 2.326 . S
O233 C225 1.252 . S
H234 C242 0.929 . S
H235 C244 0.930 . S
H236 C246 0.930 . S
H237 C249 0.929 . S
H238 C252 0.930 . S
H239 C254 0.960 . S
H240 C254 0.960 . S
H241 C254 0.960 . S
C242 H234 0.929 . S
C242 C243 1.377 . S
C242 C244 1.384 . S
C243 C242 1.377 . S
C243 C249 1.390 . S
C244 H235 0.930 . S
C244 C242 1.384 . S
C244 C245 1.372 . S
C245 C244 1.372 . S
C245 C246 1.400 . S
C245 C250 1.490 . S
C246 H236 0.930 . S
C246 C245 1.400 . S
C246 C249 1.386 . S
H247 C263 0.930 . S
H248 C264 0.931 . S
C249 H237 0.929 . S
C249 C243 1.390 . S
C249 C246 1.386 . S
C250 C245 1.490 . S
C250 C252 1.395 . S
C250 C253 1.403 . S
H251 C257 0.930 . S
C252 H238 0.930 . S
C252 C250 1.395 . S
C252 C255 1.403 . S
C253 C250 1.403 . S
C253 C254 1.524 . S
C253 C257 1.400 . S
C254 H239 0.960 . S
C254 H240 0.960 . S
C254 H241 0.960 . S
C254 C253 1.524 . S
C255 C252 1.403 . S
C255 C256 1.392 . S
C255 C259 1.495 . S
C256 C255 1.392 . S
C256 C257 1.385 . S
C256 C258 1.478 . S
C257 H251 0.930 . S
C257 C253 1.400 . S
C257 C256 1.385 . S
C258 C256 1.478 . S
C258 C260 1.381 . S
C258 C264 1.383 . S
C259 C255 1.495 . S
C259 H265 0.959 . S
C259 H266 0.961 . S
C259 H267 0.960 . S
C260 C258 1.381 . S
C260 C261 1.394 . S
C260 H268 0.930 . S
C261 C260 1.394 . S
C261 C262 1.383 . S
C261 H269 0.929 . S
C262 C261 1.383 . S
C262 C263 1.377 . S
C263 H247 0.930 . S
C263 C262 1.377 . S
C263 C264 1.379 . S
C264 H248 0.931 . S
C264 C258 1.383 . S
C264 C263 1.379 . S
H265 C259 0.959 . S
H266 C259 0.961 . S
H267 C259 0.960 . S
H268 C260 0.930 . S
H269 C261 0.929 . S
H270 C278 0.929 . S
H271 C280 0.930 . S
H272 C282 0.930 . S
H273 C285 0.929 . S
H274 C288 0.930 . S
H275 C290 0.960 . S
H276 C290 0.960 . S
H277 C290 0.960 . S
C278 H270 0.929 . S
C278 C279 1.377 . S
C278 C280 1.384 . S
C279 C278 1.377 . S
C279 C285 1.390 . S
C280 H271 0.930 . S
C280 C278 1.384 . S
C280 C281 1.372 . S
C281 C280 1.372 . S
C281 C282 1.400 . S
C281 C286 1.490 . S
C282 H272 0.930 . S
C282 C281 1.400 . S
C282 C285 1.386 . S
H283 C299 0.930 . S
H284 C300 0.931 . S
C285 H273 0.929 . S
C285 C279 1.390 . S
C285 C282 1.386 . S
C286 C281 1.490 . S
C286 C288 1.395 . S
C286 C289 1.403 . S
H287 C293 0.930 . S
C288 H274 0.930 . S
C288 C286 1.395 . S
C288 C291 1.403 . S
C289 C286 1.403 . S
C289 C290 1.524 . S
C289 C293 1.400 . S
C290 H275 0.960 . S
C290 H276 0.960 . S
C290 H277 0.960 . S
C290 C289 1.524 . S
C291 C288 1.403 . S
C291 C292 1.392 . S
C291 C295 1.495 . S
C292 C291 1.392 . S
C292 C293 1.385 . S
C292 C294 1.478 . S
C293 H287 0.930 . S
C293 C289 1.400 . S
C293 C292 1.385 . S
C294 C292 1.478 . S
C294 C296 1.381 . S
C294 C300 1.383 . S
C295 C291 1.495 . S
C295 H301 0.959 . S
C295 H302 0.961 . S
C295 H303 0.960 . S
C296 C294 1.381 . S
C296 C297 1.394 . S
C296 H304 0.930 . S
C297 C296 1.394 . S
C297 C298 1.383 . S
C297 H305 0.929 . S
C298 C297 1.383 . S
C298 C299 1.377 . S
C299 H283 0.930 . S
C299 C298 1.377 . S
C299 C300 1.379 . S
C300 H284 0.931 . S
C300 C294 1.383 . S
C300 C299 1.379 . S
H301 C295 0.959 . S
H302 C295 0.961 . S
H303 C295 0.960 . S
H304 C296 0.930 . S
H305 C297 0.929 . S
H306 C314 0.929 . S
H307 C316 0.930 . S
H308 C318 0.930 . S
H309 C321 0.929 . S
H310 C324 0.930 . S
H311 C326 0.960 . S
H312 C326 0.960 . S
H313 C326 0.960 . S
C314 H306 0.929 . S
C314 C315 1.377 . S
C314 C316 1.384 . S
C315 C314 1.377 . S
C315 C321 1.390 . S
C316 H307 0.930 . S
C316 C314 1.384 . S
C316 C317 1.372 . S
C317 C316 1.372 . S
C317 C318 1.400 . S
C317 C322 1.490 . S
C318 H308 0.930 . S
C318 C317 1.400 . S
C318 C321 1.386 . S
H319 C335 0.930 . S
H320 C336 0.931 . S
C321 H309 0.929 . S
C321 C315 1.390 . S
C321 C318 1.386 . S
C322 C317 1.490 . S
C322 C324 1.395 . S
C322 C325 1.403 . S
H323 C329 0.930 . S
C324 H310 0.930 . S
C324 C322 1.395 . S
C324 C327 1.403 . S
C325 C322 1.403 . S
C325 C326 1.524 . S
C325 C329 1.400 . S
C326 H311 0.960 . S
C326 H312 0.960 . S
C326 H313 0.960 . S
C326 C325 1.524 . S
C327 C324 1.403 . S
C327 C328 1.392 . S
C327 C331 1.495 . S
C328 C327 1.392 . S
C328 C329 1.385 . S
C328 C330 1.478 . S
C329 H323 0.930 . S
C329 C325 1.400 . S
C329 C328 1.385 . S
C330 C328 1.478 . S
C330 C332 1.381 . S
C330 C336 1.383 . S
C331 C327 1.495 . S
C331 H337 0.959 . S
C331 H338 0.961 . S
C331 H339 0.960 . S
C332 C330 1.381 . S
C332 C333 1.394 . S
C332 H340 0.930 . S
C333 C332 1.394 . S
C333 C334 1.383 . S
C333 H341 0.929 . S
C334 C333 1.383 . S
C334 C335 1.377 . S
C335 H319 0.930 . S
C335 C334 1.377 . S
C335 C336 1.379 . S
C336 H320 0.931 . S
C336 C330 1.383 . S
C336 C335 1.379 . S
H337 C331 0.959 . S
H338 C331 0.961 . S
H339 C331 0.960 . S
H340 C332 0.930 . S
H341 C333 0.929 . S
H342 C350 0.929 . S
H343 C352 0.930 . S
H344 C354 0.930 . S
H345 C357 0.929 . S
H346 C360 0.930 . S
H347 C362 0.960 . S
H348 C362 0.960 . S
H349 C362 0.960 . S
C350 H342 0.929 . S
C350 C351 1.377 . S
C350 C352 1.384 . S
C351 C350 1.377 . S
C351 C357 1.390 . S
C352 H343 0.930 . S
C352 C350 1.384 . S
C352 C353 1.372 . S
C353 C352 1.372 . S
C353 C354 1.400 . S
C353 C358 1.490 . S
C354 H344 0.930 . S
C354 C353 1.400 . S
C354 C357 1.386 . S
H355 C371 0.930 . S
H356 C372 0.931 . S
C357 H345 0.929 . S
C357 C351 1.390 . S
C357 C354 1.386 . S
C358 C353 1.490 . S
C358 C360 1.395 . S
C358 C361 1.403 . S
H359 C365 0.930 . S
C360 H346 0.930 . S
C360 C358 1.395 . S
C360 C363 1.403 . S
C361 C358 1.403 . S
C361 C362 1.524 . S
C361 C365 1.400 . S
C362 H347 0.960 . S
C362 H348 0.960 . S
C362 H349 0.960 . S
C362 C361 1.524 . S
C363 C360 1.403 . S
C363 C364 1.392 . S
C363 C367 1.495 . S
C364 C363 1.392 . S
C364 C365 1.385 . S
C364 C366 1.478 . S
C365 H359 0.930 . S
C365 C361 1.400 . S
C365 C364 1.385 . S
C366 C364 1.478 . S
C366 C368 1.381 . S
C366 C372 1.383 . S
C367 C363 1.495 . S
C367 H373 0.959 . S
C367 H374 0.961 . S
C367 H375 0.960 . S
C368 C366 1.381 . S
C368 C369 1.394 . S
C368 H376 0.930 . S
C369 C368 1.394 . S
C369 C370 1.383 . S
C369 H377 0.929 . S
C370 C369 1.383 . S
C370 C371 1.377 . S
C371 H355 0.930 . S
C371 C370 1.377 . S
C371 C372 1.379 . S
C372 H356 0.931 . S
C372 C366 1.383 . S
C372 C371 1.379 . S
H373 C367 0.959 . S
H374 C367 0.961 . S
H375 C367 0.960 . S
H376 C368 0.930 . S
H377 C369 0.929 . S
H378 C386 0.929 . S
H379 C388 0.930 . S
H380 C390 0.930 . S
H381 C393 0.929 . S
H382 C396 0.930 . S
H383 C398 0.960 . S
H384 C398 0.960 . S
H385 C398 0.960 . S
C386 H378 0.929 . S
C386 C387 1.377 . S
C386 C388 1.384 . S
C387 C386 1.377 . S
C387 C393 1.390 . S
C388 H379 0.930 . S
C388 C386 1.384 . S
C388 C389 1.372 . S
C389 C388 1.372 . S
C389 C390 1.400 . S
C389 C394 1.490 . S
C390 H380 0.930 . S
C390 C389 1.400 . S
C390 C393 1.386 . S
H391 C407 0.930 . S
H392 C408 0.931 . S
C393 H381 0.929 . S
C393 C387 1.390 . S
C393 C390 1.386 . S
C394 C389 1.490 . S
C394 C396 1.395 . S
C394 C397 1.403 . S
H395 C401 0.930 . S
C396 H382 0.930 . S
C396 C394 1.395 . S
C396 C399 1.403 . S
C397 C394 1.403 . S
C397 C398 1.524 . S
C397 C401 1.400 . S
C398 H383 0.960 . S
C398 H384 0.960 . S
C398 H385 0.960 . S
C398 C397 1.524 . S
C399 C396 1.403 . S
C399 C400 1.392 . S
C399 C403 1.495 . S
C400 C399 1.392 . S
C400 C401 1.385 . S
C400 C402 1.478 . S
C401 H395 0.930 . S
C401 C397 1.400 . S
C401 C400 1.385 . S
C402 C400 1.478 . S
C402 C404 1.381 . S
C402 C408 1.383 . S
C403 C399 1.495 . S
C403 H409 0.959 . S
C403 H410 0.961 . S
C403 H411 0.960 . S
C404 C402 1.381 . S
C404 C405 1.394 . S
C404 H412 0.930 . S
C405 C404 1.394 . S
C405 C406 1.383 . S
C405 H413 0.929 . S
C406 C405 1.383 . S
C406 C407 1.377 . S
C407 H391 0.930 . S
C407 C406 1.377 . S
C407 C408 1.379 . S
C408 H392 0.931 . S
C408 C402 1.383 . S
C408 C407 1.379 . S
H409 C403 0.959 . S
H410 C403 0.961 . S
H411 C403 0.960 . S
H412 C404 0.930 . S
H413 C405 0.929 . S
H414 C422 0.929 . S
H415 C424 0.930 . S
H416 C426 0.930 . S
H417 C429 0.929 . S
H418 C432 0.930 . S
H419 C434 0.960 . S
H420 C434 0.960 . S
H421 C434 0.960 . S
C422 H414 0.929 . S
C422 C423 1.377 . S
C422 C424 1.384 . S
C423 C422 1.377 . S
C423 C429 1.390 . S
C424 H415 0.930 . S
C424 C422 1.384 . S
C424 C425 1.372 . S
C425 C424 1.372 . S
C425 C426 1.400 . S
C425 C430 1.490 . S
C426 H416 0.930 . S
C426 C425 1.400 . S
C426 C429 1.386 . S
H427 C443 0.930 . S
H428 C444 0.931 . S
C429 H417 0.929 . S
C429 C423 1.390 . S
C429 C426 1.386 . S
C430 C425 1.490 . S
C430 C432 1.395 . S
C430 C433 1.403 . S
H431 C437 0.930 . S
C432 H418 0.930 . S
C432 C430 1.395 . S
C432 C435 1.403 . S
C433 C430 1.403 . S
C433 C434 1.524 . S
C433 C437 1.400 . S
C434 H419 0.960 . S
C434 H420 0.960 . S
C434 H421 0.960 . S
C434 C433 1.524 . S
C435 C432 1.403 . S
C435 C436 1.392 . S
C435 C439 1.495 . S
C436 C435 1.392 . S
C436 C437 1.385 . S
C436 C438 1.478 . S
C437 H431 0.930 . S
C437 C433 1.400 . S
C437 C436 1.385 . S
C438 C436 1.478 . S
C438 C440 1.381 . S
C438 C444 1.383 . S
C439 C435 1.495 . S
C439 H445 0.959 . S
C439 H446 0.961 . S
C439 H447 0.960 . S
C440 C438 1.381 . S
C440 C441 1.394 . S
C440 H448 0.930 . S
C441 C440 1.394 . S
C441 C442 1.383 . S
C441 H449 0.929 . S
C442 C441 1.383 . S
C442 C443 1.377 . S
C443 H427 0.930 . S
C443 C442 1.377 . S
C443 C444 1.379 . S
C444 H428 0.931 . S
C444 C438 1.383 . S
C444 C443 1.379 . S
H445 C439 0.959 . S
H446 C439 0.961 . S
H447 C439 0.960 . S
H448 C440 0.930 . S
H449 C441 0.929 . S
H450 C458 0.929 . S
H451 C460 0.930 . S
H452 C462 0.930 . S
H453 C465 0.929 . S
H454 C468 0.930 . S
H455 C470 0.960 1_556 S
H456 C470 0.960 . S
H457 C470 0.960 . S
C458 H450 0.929 . S
C458 C459 1.377 . S
C458 C460 1.384 . S
C459 C458 1.377 . S
C459 C465 1.390 . S
C460 H451 0.930 . S
C460 C458 1.384 . S
C460 C461 1.372 . S
C461 C460 1.372 . S
C461 C462 1.400 . S
C461 C466 1.490 . S
C462 H452 0.930 . S
C462 C461 1.400 . S
C462 C465 1.386 . S
H463 C479 0.930 . S
H464 C480 0.931 . S
C465 H453 0.929 . S
C465 C459 1.390 . S
C465 C462 1.386 . S
C466 C461 1.490 . S
C466 C468 1.395 1_655 S
C466 C469 1.403 . S
H467 C473 0.930 . S
C468 H454 0.930 . S
C468 C466 1.395 1_455 S
C468 C471 1.403 1_554 S
C469 C466 1.403 . S
C469 C470 1.524 . S
C469 C473 1.400 1_554 S
C470 H455 0.960 1_554 S
C470 H456 0.960 . S
C470 H457 0.960 . S
C470 C469 1.524 . S
C471 C468 1.403 1_556 S
C471 C472 1.392 . S
C471 C475 1.495 . S
C472 C471 1.392 . S
C472 C473 1.385 1_455 S
C472 C474 1.478 . S
C473 H467 0.930 . S
C473 C469 1.400 1_556 S
C473 C472 1.385 1_655 S
C474 C472 1.478 . S
C474 C476 1.381 . S
C474 C480 1.383 . S
C475 C471 1.495 . S
C475 H481 0.959 1_556 S
C475 H482 0.961 . S
C475 H483 0.960 . S
C476 C474 1.381 . S
C476 C477 1.394 . S
C476 H484 0.930 . S
C477 C476 1.394 . S
C477 C478 1.383 . S
C477 H485 0.929 . S
C478 C477 1.383 . S
C478 C479 1.377 . S
C479 H463 0.930 . S
C479 C478 1.377 . S
C479 C480 1.379 . S
C480 H464 0.931 . S
C480 C474 1.383 . S
C480 C479 1.379 . S
H481 C475 0.959 1_554 S
H482 C475 0.961 . S
H483 C475 0.960 . S
H484 C476 0.930 . S
H485 C477 0.929 . S
H486 C494 0.929 . S
H487 C496 0.930 . S
H488 C498 0.930 . S
H489 C501 0.929 . S
H490 C504 0.930 . S
H491 C506 0.960 . S
H492 C506 0.960 . S
H493 C506 0.960 . S
C494 H486 0.929 . S
C494 C495 1.377 . S
C494 C496 1.384 . S
C495 C494 1.377 . S
C495 C501 1.390 . S
C496 H487 0.930 . S
C496 C494 1.384 . S
C496 C497 1.372 . S
C497 C496 1.372 . S
C497 C498 1.400 . S
C497 C502 1.490 . S
C498 H488 0.930 . S
C498 C497 1.400 . S
C498 C501 1.386 . S
H499 C515 0.930 . S
H500 C516 0.931 . S
C501 H489 0.929 . S
C501 C495 1.390 . S
C501 C498 1.386 . S
C502 C497 1.490 . S
C502 C504 1.395 . S
C502 C505 1.403 . S
H503 C509 0.930 . S
C504 H490 0.930 . S
C504 C502 1.395 . S
C504 C507 1.403 1_554 S
C505 C502 1.403 . S
C505 C506 1.524 . S
C505 C509 1.400 1_554 S
C506 H491 0.960 . S
C506 H492 0.960 . S
C506 H493 0.960 . S
C506 C505 1.524 . S
C507 C504 1.403 1_556 S
C507 C508 1.392 . S
C507 C511 1.495 . S
C508 C507 1.392 . S
C508 C509 1.385 . S
C508 C510 1.478 . S
C509 H503 0.930 . S
C509 C505 1.400 1_556 S
C509 C508 1.385 . S
C510 C508 1.478 . S
C510 C512 1.381 . S
C510 C516 1.383 . S
C511 C507 1.495 . S
C511 H517 0.959 . S
C511 H518 0.961 . S
C511 H519 0.960 . S
C512 C510 1.381 . S
C512 C513 1.394 . S
C512 H520 0.930 . S
C513 C512 1.394 . S
C513 C514 1.383 . S
C513 H521 0.929 . S
C514 C513 1.383 . S
C514 C515 1.377 . S
C515 H499 0.930 . S
C515 C514 1.377 . S
C515 C516 1.379 . S
C516 H500 0.931 . S
C516 C510 1.383 . S
C516 C515 1.379 . S
H517 C511 0.959 . S
H518 C511 0.961 . S
H519 C511 0.960 . S
H520 C512 0.930 . S
H521 C513 0.929 . S
H522 C530 0.929 . S
H523 C532 0.930 1_565 S
H524 C534 0.930 . S
H525 C537 0.929 . S
H526 C540 0.930 . S
H527 C542 0.960 . S
H528 C542 0.960 . S
H529 C542 0.960 1_545 S
C530 H522 0.929 . S
C530 C531 1.377 . S
C530 C532 1.384 . S
C531 C530 1.377 . S
C531 C537 1.390 . S
C532 H523 0.930 1_545 S
C532 C530 1.384 . S
C532 C533 1.372 . S
C533 C532 1.372 . S
C533 C534 1.400 . S
C533 C538 1.490 . S
C534 H524 0.930 . S
C534 C533 1.400 . S
C534 C537 1.386 . S
H535 C551 0.930 . S
H536 C552 0.931 1_545 S
C537 H525 0.929 . S
C537 C531 1.390 . S
C537 C534 1.386 . S
C538 C533 1.490 . S
C538 C540 1.395 . S
C538 C541 1.403 1_545 S
H539 C545 0.930 . S
C540 H526 0.930 . S
C540 C538 1.395 . S
C540 C543 1.405 1_554 S
C541 C538 1.403 1_565 S
C541 C542 1.524 . S
C541 C545 1.400 1_554 S
C542 H527 0.960 . S
C542 H528 0.960 . S
C542 H529 0.960 1_565 S
C542 C541 1.524 . S
C543 C540 1.405 1_556 S
C543 C544 1.387 1_545 S
C543 C547 1.499 . S
C544 C543 1.387 1_565 S
C544 C545 1.385 . S
C544 C546 1.478 . S
C545 H539 0.930 . S
C545 C541 1.400 1_556 S
C545 C544 1.385 . S
C546 C544 1.478 . S
C546 C548 1.381 . S
C546 C552 1.383 . S
C547 C543 1.499 . S
C547 H553 0.959 . S
C547 H554 0.961 . S
C547 H555 0.960 1_545 S
C548 C546 1.381 . S
C548 C549 1.394 . S
C548 H556 0.930 . S
C549 C548 1.394 . S
C549 C550 1.383 . S
C549 H557 0.929 . S
C550 C549 1.383 . S
C550 C551 1.377 . S
C551 H535 0.930 . S
C551 C550 1.377 . S
C551 C552 1.379 . S
C552 H536 0.931 1_565 S
C552 C546 1.383 . S
C552 C551 1.379 . S
H553 C547 0.959 . S
H554 C547 0.961 . S
H555 C547 0.960 1_565 S
H556 C548 0.930 . S
H557 C549 0.929 . S
H558 C566 0.929 . S
H559 C568 0.930 . S
H560 C570 0.930 . S
H561 C573 0.929 . S
H562 C576 0.930 . S
H563 C578 0.960 . S
H564 C578 0.960 . S
H565 C578 0.960 . S
C566 H558 0.929 . S
C566 C567 1.377 . S
C566 C568 1.384 . S
C567 C566 1.377 . S
C567 C573 1.390 . S
C568 H559 0.930 . S
C568 C566 1.384 . S
C568 C569 1.372 . S
C569 C568 1.372 . S
C569 C570 1.400 . S
C569 C574 1.490 . S
C570 H560 0.930 . S
C570 C569 1.400 . S
C570 C573 1.386 . S
H571 C587 0.930 . S
H572 C588 0.931 . S
C573 H561 0.929 . S
C573 C567 1.390 . S
C573 C570 1.386 . S
C574 C569 1.490 . S
C574 C576 1.395 . S
C574 C577 1.403 . S
H575 C581 0.930 . S
C576 H562 0.930 . S
C576 C574 1.395 . S
C576 C579 1.403 . S
C577 C574 1.403 . S
C577 C578 1.524 . S
C577 C581 1.400 . S
C578 H563 0.960 . S
C578 H564 0.960 . S
C578 H565 0.960 . S
C578 C577 1.524 . S
C579 C576 1.403 . S
C579 C580 1.392 . S
C579 C583 1.495 . S
C580 C579 1.392 . S
C580 C581 1.385 . S
C580 C582 1.478 . S
C581 H575 0.930 . S
C581 C577 1.400 . S
C581 C580 1.385 . S
C582 C580 1.478 . S
C582 C584 1.381 . S
C582 C588 1.383 . S
C583 C579 1.495 . S
C583 H589 0.959 . S
C583 H590 0.961 . S
C583 H591 0.960 . S
C584 C582 1.381 . S
C584 C585 1.394 . S
C584 H592 0.930 . S
C585 C584 1.394 . S
C585 C586 1.383 . S
C585 H593 0.929 . S
C586 C585 1.383 . S
C586 C587 1.377 . S
C587 H571 0.930 . S
C587 C586 1.377 . S
C587 C588 1.379 . S
C588 H572 0.931 . S
C588 C582 1.383 . S
C588 C587 1.379 . S
H589 C583 0.959 . S
H590 C583 0.961 . S
H591 C583 0.960 . S
H592 C584 0.930 . S
H593 C585 0.929 . S
H594 C602 0.929 . S
H595 C604 0.930 . S
H596 C606 0.930 . S
H597 C609 0.929 . S
H598 C612 0.930 . S
H599 C614 0.960 . S
H600 C614 0.960 . S
H601 C614 0.960 . S
C602 H594 0.929 . S
C602 C603 1.377 . S
C602 C604 1.384 . S
C603 C602 1.377 . S
C603 C609 1.390 . S
C604 H595 0.930 . S
C604 C602 1.384 . S
C604 C605 1.372 . S
C605 C604 1.372 . S
C605 C606 1.400 . S
C605 C610 1.490 . S
C606 H596 0.930 . S
C606 C605 1.400 . S
C606 C609 1.386 . S
H607 C623 0.930 . S
H608 C624 0.931 . S
C609 H597 0.929 . S
C609 C603 1.390 . S
C609 C606 1.386 . S
C610 C605 1.490 . S
C610 C612 1.395 . S
C610 C613 1.403 . S
H611 C617 0.930 . S
C612 H598 0.930 . S
C612 C610 1.395 . S
C612 C615 1.403 . S
C613 C610 1.403 . S
C613 C614 1.524 . S
C613 C617 1.400 . S
C614 H599 0.960 . S
C614 H600 0.960 . S
C614 H601 0.960 . S
C614 C613 1.524 . S
C615 C612 1.403 . S
C615 C616 1.392 . S
C615 C619 1.495 . S
C616 C615 1.392 . S
C616 C617 1.385 . S
C616 C618 1.478 . S
C617 H611 0.930 . S
C617 C613 1.400 . S
C617 C616 1.385 . S
C618 C616 1.478 . S
C618 C620 1.381 . S
C618 C624 1.383 . S
C619 C615 1.495 . S
C619 H625 0.959 . S
C619 H626 0.961 . S
C619 H627 0.960 . S
C620 C618 1.381 . S
C620 C621 1.394 . S
C620 H628 0.930 . S
C621 C620 1.394 . S
C621 C622 1.383 . S
C621 H629 0.908 1_556 S
C622 C621 1.383 . S
C622 C623 1.377 . S
C623 H607 0.930 . S
C623 C622 1.377 . S
C623 C624 1.379 . S
C624 H608 0.931 . S
C624 C618 1.383 . S
C624 C623 1.379 . S
H625 C619 0.959 . S
H626 C619 0.961 . S
H627 C619 0.960 . S
H628 C620 0.930 . S
H629 C621 0.908 1_554 S
H630 C638 0.929 . S
H631 C640 0.930 . S
H632 C642 0.930 . S
H633 C645 0.929 . S
H634 C648 0.930 . S
H635 C650 0.960 . S
H636 C650 0.960 . S
H637 C650 0.960 . S
C638 H630 0.929 . S
C638 C639 1.377 . S
C638 C640 1.384 . S
C639 C638 1.377 . S
C639 C645 1.390 . S
C640 H631 0.930 . S
C640 C638 1.384 . S
C640 C641 1.372 . S
C641 C640 1.372 . S
C641 C642 1.400 . S
C641 C646 1.490 . S
C642 H632 0.930 . S
C642 C641 1.400 . S
C642 C645 1.386 . S
H643 C659 0.930 . S
H644 C660 0.931 . S
C645 H633 0.929 . S
C645 C639 1.390 . S
C645 C642 1.386 . S
C646 C641 1.490 . S
C646 C648 1.395 . S
C646 C649 1.403 . S
H647 C653 0.930 . S
C648 H634 0.930 . S
C648 C646 1.395 . S
C648 C651 1.403 . S
C649 C646 1.403 . S
C649 C650 1.524 . S
C649 C653 1.400 . S
C650 H635 0.960 . S
C650 H636 0.960 . S
C650 H637 0.960 . S
C650 C649 1.524 . S
C651 C648 1.403 . S
C651 C652 1.392 . S
C651 C655 1.495 . S
C652 C651 1.392 . S
C652 C653 1.385 . S
C652 C654 1.478 . S
C653 H647 0.930 . S
C653 C649 1.400 . S
C653 C652 1.385 . S
C654 C652 1.478 . S
C654 C656 1.381 . S
C654 C660 1.383 . S
C655 C651 1.495 . S
C655 H661 0.959 . S
C655 H662 0.961 . S
C655 H663 0.960 . S
C656 C654 1.381 . S
C656 C657 1.394 . S
C656 H664 0.930 . S
C657 C656 1.394 . S
C657 C658 1.383 . S
C657 H665 0.929 . S
C658 C657 1.383 . S
C658 C659 1.377 . S
C659 H643 0.930 . S
C659 C658 1.377 . S
C659 C660 1.379 . S
C660 H644 0.931 . S
C660 C654 1.383 . S
C660 C659 1.379 . S
H661 C655 0.959 . S
H662 C655 0.961 . S
H663 C655 0.960 . S
H664 C656 0.930 . S
H665 C657 0.929 . S
H666 C674 0.929 . S
H667 C676 0.930 . S
H668 C678 0.930 . S
H669 C681 0.929 . S
H670 C684 0.930 . S
H671 C686 0.960 . S
H672 C686 0.960 . S
H673 C686 0.960 . S
C674 H666 0.929 . S
C674 C675 1.377 . S
C674 C676 1.384 . S
C675 C674 1.377 . S
C675 C681 1.390 . S
C676 H667 0.930 . S
C676 C674 1.384 . S
C676 C677 1.372 . S
C677 C676 1.372 . S
C677 C678 1.400 . S
C677 C682 1.490 . S
C678 H668 0.930 . S
C678 C677 1.400 . S
C678 C681 1.386 . S
H679 C695 0.930 . S
H680 C696 0.931 . S
C681 H669 0.929 . S
C681 C675 1.390 . S
C681 C678 1.386 . S
C682 C677 1.490 . S
C682 C684 1.395 . S
C682 C685 1.403 . S
H683 C689 0.930 . S
C684 H670 0.930 . S
C684 C682 1.395 . S
C684 C687 1.403 . S
C685 C682 1.403 . S
C685 C686 1.524 . S
C685 C689 1.400 . S
C686 H671 0.960 . S
C686 H672 0.960 . S
C686 H673 0.960 . S
C686 C685 1.524 . S
C687 C684 1.403 . S
C687 C688 1.392 . S
C687 C691 1.495 . S
C688 C687 1.392 . S
C688 C689 1.385 . S
C688 C690 1.478 . S
C689 H683 0.930 . S
C689 C685 1.400 . S
C689 C688 1.385 . S
C690 C688 1.478 . S
C690 C692 1.381 . S
C690 C696 1.383 . S
C691 C687 1.495 . S
C691 H697 0.959 . S
C691 H698 0.961 . S
C691 H699 0.960 . S
C692 C690 1.381 . S
C692 C693 1.394 . S
C692 H700 0.930 . S
C693 C692 1.394 . S
C693 C694 1.383 . S
C693 H701 0.929 . S
C694 C693 1.383 . S
C694 C695 1.377 . S
C695 H679 0.930 . S
C695 C694 1.377 . S
C695 C696 1.379 . S
C696 H680 0.931 . S
C696 C690 1.383 . S
C696 C695 1.379 . S
H697 C691 0.959 . S
H698 C691 0.961 . S
H699 C691 0.960 . S
H700 C692 0.930 . S
H701 C693 0.929 . S
H702 C710 0.929 . S
H703 C712 0.930 . S
H704 C714 0.930 . S
H705 C717 0.929 . S
H706 C720 0.930 . S
H707 C722 0.960 . S
H708 C722 0.960 . S
H709 C722 0.960 . S
C710 H702 0.929 . S
C710 C711 1.377 . S
C710 C712 1.384 . S
C711 C710 1.377 . S
C711 C717 1.390 . S
C712 H703 0.930 . S
C712 C710 1.384 . S
C712 C713 1.372 . S
C713 C712 1.372 . S
C713 C714 1.400 . S
C713 C718 1.490 . S
C714 H704 0.930 . S
C714 C713 1.400 . S
C714 C717 1.386 . S
H715 C731 0.930 . S
H716 C732 0.931 . S
C717 H705 0.929 . S
C717 C711 1.390 . S
C717 C714 1.386 . S
C718 C713 1.490 . S
C718 C720 1.395 . S
C718 C721 1.403 . S
H719 C725 0.930 . S
C720 H706 0.930 . S
C720 C718 1.395 . S
C720 C723 1.403 . S
C721 C718 1.403 . S
C721 C722 1.524 . S
C721 C725 1.400 . S
C722 H707 0.960 . S
C722 H708 0.960 . S
C722 H709 0.960 . S
C722 C721 1.524 . S
C723 C720 1.403 . S
C723 C724 1.392 . S
C723 C727 1.495 . S
C724 C723 1.392 . S
C724 C725 1.385 . S
C724 C726 1.478 . S
C725 H719 0.930 . S
C725 C721 1.400 . S
C725 C724 1.385 . S
C726 C724 1.478 . S
C726 C728 1.381 . S
C726 C732 1.383 . S
C727 C723 1.495 . S
C727 H733 0.959 . S
C727 H734 0.961 . S
C727 H735 0.960 . S
C728 C726 1.381 . S
C728 C729 1.394 . S
C728 H736 0.930 . S
C729 C728 1.394 . S
C729 C730 1.383 . S
C729 H737 0.929 . S
C730 C729 1.383 . S
C730 C731 1.377 . S
C731 H715 0.930 . S
C731 C730 1.377 . S
C731 C732 1.379 . S
C732 H716 0.931 . S
C732 C726 1.383 . S
C732 C731 1.379 . S
H733 C727 0.959 . S
H734 C727 0.961 . S
H735 C727 0.960 . S
H736 C728 0.930 . S
H737 C729 0.929 . S
H738 C746 0.929 . S
H739 C748 0.930 . S
H740 C750 0.930 . S
H741 C753 0.929 . S
H742 C756 0.930 . S
H743 C758 0.960 . S
H744 C758 0.960 . S
H745 C758 0.960 . S
C746 H738 0.929 . S
C746 C747 1.377 . S
C746 C748 1.384 . S
C747 C746 1.377 . S
C747 C753 1.390 . S
C748 H739 0.930 . S
C748 C746 1.384 . S
C748 C749 1.372 . S
C749 C748 1.372 . S
C749 C750 1.400 . S
C749 C754 1.490 . S
C750 H740 0.930 . S
C750 C749 1.400 . S
C750 C753 1.386 . S
H751 C767 0.930 . S
H752 C768 0.931 . S
C753 H741 0.929 . S
C753 C747 1.390 . S
C753 C750 1.386 . S
C754 C749 1.490 . S
C754 C756 1.395 . S
C754 C757 1.403 . S
H755 C761 0.930 . S
C756 H742 0.930 . S
C756 C754 1.395 . S
C756 C759 1.403 . S
C757 C754 1.403 . S
C757 C758 1.524 . S
C757 C761 1.400 . S
C758 H743 0.960 . S
C758 H744 0.960 . S
C758 H745 0.960 . S
C758 C757 1.524 . S
C759 C756 1.403 . S
C759 C760 1.392 . S
C759 C763 1.495 . S
C760 C759 1.392 . S
C760 C761 1.385 . S
C760 C762 1.478 . S
C761 H755 0.930 . S
C761 C757 1.400 . S
C761 C760 1.385 . S
C762 C760 1.478 . S
C762 C764 1.381 . S
C762 C768 1.383 . S
C763 C759 1.495 . S
C763 H769 0.959 . S
C763 H770 0.961 . S
C763 H771 0.960 . S
C764 C762 1.381 . S
C764 C765 1.394 . S
C764 H772 0.930 . S
C765 C764 1.394 . S
C765 C766 1.383 . S
C765 H773 0.929 . S
C766 C765 1.383 . S
C766 C767 1.377 . S
C767 H751 0.930 . S
C767 C766 1.377 . S
C767 C768 1.379 . S
C768 H752 0.931 . S
C768 C762 1.383 . S
C768 C767 1.379 . S
H769 C763 0.959 . S
H770 C763 0.961 . S
H771 C763 0.960 . S
H772 C764 0.930 . S
H773 C765 0.929 . S
H774 C782 0.931 1_455 S
H775 C784 0.930 1_455 S
H776 C786 0.930 . S
H777 C789 0.929 . S
H778 C792 0.930 . S
H779 C794 0.960 . S
H780 C794 0.960 . S
H781 C794 0.960 . S
C782 H774 0.931 1_655 S
C782 C783 1.377 . S
C782 C784 1.384 . S
C783 C782 1.377 . S
C783 C789 1.390 . S
C784 H775 0.930 1_655 S
C784 C782 1.384 . S
C784 C785 1.372 . S
C785 C784 1.372 . S
C785 C786 1.400 . S
C785 C790 1.490 . S
C786 H776 0.930 . S
C786 C785 1.400 . S
C786 C789 1.386 . S
H787 C803 0.917 1_655 S
H788 C804 0.931 1_655 S
C789 H777 0.929 . S
C789 C783 1.390 . S
C789 C786 1.386 . S
C790 C785 1.490 . S
C790 C792 1.395 1_655 S
C790 C793 1.403 . S
H791 C797 0.930 . S
C792 H778 0.930 . S
C792 C790 1.395 1_455 S
C792 C795 1.403 . S
C793 C790 1.403 . S
C793 C794 1.524 . S
C793 C797 1.400 . S
C794 H779 0.960 . S
C794 H780 0.960 . S
C794 H781 0.960 . S
C794 C793 1.524 . S
C795 C792 1.403 . S
C795 C796 1.392 . S
C795 C799 1.495 . S
C796 C795 1.392 . S
C796 C797 1.385 1_455 S
C796 C798 1.478 . S
C797 H791 0.930 . S
C797 C793 1.400 . S
C797 C796 1.385 1_655 S
C798 C796 1.478 . S
C798 C800 1.381 . S
C798 C804 1.383 . S
C799 C795 1.495 . S
C799 H805 0.959 . S
C799 H806 0.961 . S
C799 H807 0.960 . S
C800 C798 1.381 . S
C800 C801 1.394 . S
C800 H808 0.930 . S
C801 C800 1.394 . S
C801 C802 1.383 . S
C801 H809 0.929 . S
C802 C801 1.383 . S
C802 C803 1.377 . S
C803 H787 0.917 1_455 S
C803 C802 1.377 . S
C803 C804 1.379 . S
C804 H788 0.931 1_455 S
C804 C798 1.383 . S
C804 C803 1.379 . S
H805 C799 0.959 . S
H806 C799 0.961 . S
H807 C799 0.960 . S
H808 C800 0.930 . S
H809 C801 0.929 . S
H810 C818 0.929 . S
H811 C820 0.930 . S
H812 C822 0.930 . S
H813 C825 0.929 . S
H814 C828 0.930 . S
H815 C830 0.960 . S
H816 C830 0.960 . S
H817 C830 0.960 . S
C818 H810 0.929 . S
C818 C819 1.377 . S
C818 C820 1.384 . S
C819 C818 1.377 . S
C819 C825 1.390 . S
C820 H811 0.930 . S
C820 C818 1.384 . S
C820 C821 1.372 . S
C821 C820 1.372 . S
C821 C822 1.400 . S
C821 C826 1.490 . S
C822 H812 0.930 . S
C822 C821 1.400 . S
C822 C825 1.386 . S
H823 C839 0.930 . S
H824 C840 0.931 . S
C825 H813 0.929 . S
C825 C819 1.390 . S
C825 C822 1.386 . S
C826 C821 1.490 . S
C826 C828 1.395 . S
C826 C829 1.403 . S
H827 C833 0.930 . S
C828 H814 0.930 . S
C828 C826 1.395 . S
C828 C831 1.403 . S
C829 C826 1.403 . S
C829 C830 1.524 . S
C829 C833 1.400 . S
C830 H815 0.960 . S
C830 H816 0.960 . S
C830 H817 0.960 . S
C830 C829 1.524 . S
C831 C828 1.403 . S
C831 C832 1.392 . S
C831 C835 1.495 . S
C832 C831 1.392 . S
C832 C833 1.385 . S
C832 C834 1.478 . S
C833 H827 0.930 . S
C833 C829 1.400 . S
C833 C832 1.385 . S
C834 C832 1.478 . S
C834 C836 1.381 . S
C834 C840 1.383 . S
C835 C831 1.495 . S
C835 H841 0.959 . S
C835 H842 0.961 . S
C835 H843 0.960 . S
C836 C834 1.381 . S
C836 C837 1.394 . S
C836 H844 0.930 . S
C837 C836 1.394 . S
C837 C838 1.383 . S
C837 H845 0.929 . S
C838 C837 1.383 . S
C838 C839 1.377 . S
C839 H823 0.930 . S
C839 C838 1.377 . S
C839 C840 1.379 . S
C840 H824 0.931 . S
C840 C834 1.383 . S
C840 C839 1.379 . S
H841 C835 0.959 . S
H842 C835 0.961 . S
H843 C835 0.960 . S
H844 C836 0.930 . S
H845 C837 0.929 . S
H846 C854 0.929 . S
H847 C856 0.930 . S
H848 C858 0.930 1_545 S
H849 C861 0.929 . S
H850 C864 0.930 . S
H851 C866 0.960 . S
H852 C866 0.960 . S
H853 C866 0.960 . S
C854 H846 0.929 . S
C854 C855 1.377 . S
C854 C856 1.384 . S
C855 C854 1.377 . S
C855 C861 1.390 . S
C856 H847 0.930 . S
C856 C854 1.384 . S
C856 C857 1.372 . S
C857 C856 1.372 . S
C857 C858 1.400 . S
C857 C862 1.490 . S
C858 H848 0.930 1_565 S
C858 C857 1.400 . S
C858 C861 1.386 . S
H859 C875 0.930 . S
H860 C876 0.931 . S
C861 H849 0.929 . S
C861 C855 1.390 . S
C861 C858 1.386 . S
C862 C857 1.490 . S
C862 C864 1.395 . S
C862 C865 1.403 1_565 S
H863 C869 0.930 . S
C864 H850 0.930 . S
C864 C862 1.395 . S
C864 C867 1.403 . S
C865 C862 1.403 1_545 S
C865 C866 1.524 . S
C865 C869 1.400 . S
C866 H851 0.960 . S
C866 H852 0.960 . S
C866 H853 0.960 . S
C866 C865 1.524 . S
C867 C864 1.403 . S
C867 C868 1.392 1_565 S
C867 C871 1.495 . S
C868 C867 1.392 1_545 S
C868 C869 1.385 . S
C868 C870 1.478 . S
C869 H863 0.930 . S
C869 C865 1.400 . S
C869 C868 1.385 . S
C870 C868 1.478 . S
C870 C872 1.381 . S
C870 C876 1.383 . S
C871 C867 1.495 . S
C871 H877 0.959 . S
C871 H878 0.961 . S
C871 H879 0.960 . S
C872 C870 1.381 . S
C872 C873 1.394 . S
C872 H880 0.930 1_545 S
C873 C872 1.394 . S
C873 C874 1.383 . S
C873 H881 0.929 . S
C874 C873 1.383 . S
C874 C875 1.377 . S
C875 H859 0.930 . S
C875 C874 1.377 . S
C875 C876 1.379 . S
C876 H860 0.931 . S
C876 C870 1.383 . S
C876 C875 1.379 . S
H877 C871 0.959 . S
H878 C871 0.961 . S
H879 C871 0.960 . S
H880 C872 0.930 1_565 S
H881 C873 0.929 . S
H882 C890 0.929 . S
H883 C892 0.930 . S
H884 C894 0.930 . S
H885 C897 0.929 . S
H886 C900 0.930 . S
H887 C902 0.960 . S
H888 C902 0.960 . S
H889 C902 0.960 . S
C890 H882 0.929 . S
C890 C891 1.377 . S
C890 C892 1.384 . S
C891 C890 1.377 . S
C891 C897 1.390 . S
C892 H883 0.930 . S
C892 C890 1.384 . S
C892 C893 1.372 . S
C893 C892 1.372 . S
C893 C894 1.400 . S
C893 C898 1.490 . S
C894 H884 0.930 . S
C894 C893 1.400 . S
C894 C897 1.386 . S
H895 C911 0.930 . S
H896 C912 0.931 1_554 S
C897 H885 0.929 . S
C897 C891 1.390 . S
C897 C894 1.386 . S
C898 C893 1.490 . S
C898 C900 1.395 . S
C898 C901 1.403 1_554 S
H899 C905 0.930 . S
C900 H886 0.930 . S
C900 C898 1.395 . S
C900 C903 1.403 . S
C901 C898 1.403 1_556 S
C901 C902 1.524 . S
C901 C905 1.400 . S
C902 H887 0.960 . S
C902 H888 0.960 . S
C902 H889 0.960 . S
C902 C901 1.524 . S
C903 C900 1.403 . S
C903 C904 1.392 1_554 S
C903 C907 1.495 . S
C904 C903 1.392 1_556 S
C904 C905 1.385 . S
C904 C906 1.478 . S
C905 H899 0.930 . S
C905 C901 1.400 . S
C905 C904 1.385 . S
C906 C904 1.478 . S
C906 C908 1.381 . S
C906 C912 1.383 . S
C907 C903 1.495 . S
C907 H913 0.959 . S
C907 H914 0.961 . S
C907 H915 0.960 . S
C908 C906 1.381 . S
C908 C909 1.394 . S
C908 H916 0.930 . S
C909 C908 1.394 . S
C909 C910 1.383 . S
C909 H917 0.929 . S
C910 C909 1.383 . S
C910 C911 1.377 . S
C911 H895 0.930 . S
C911 C910 1.377 . S
C911 C912 1.379 . S
C912 H896 0.931 1_556 S
C912 C906 1.383 . S
C912 C911 1.379 . S
H913 C907 0.959 . S
H914 C907 0.961 . S
H915 C907 0.960 . S
H916 C908 0.930 . S
H917 C909 0.929 . S
H918 C926 0.929 . S
H919 C928 0.930 . S
H920 C930 0.930 . S
H921 C933 0.929 . S
H922 C936 0.930 . S
H923 C938 0.960 . S
H924 C938 0.960 . S
H925 C938 0.960 . S
C926 H918 0.929 . S
C926 C927 1.377 . S
C926 C928 1.384 . S
C927 C926 1.377 . S
C927 C933 1.390 . S
C928 H919 0.930 . S
C928 C926 1.384 . S
C928 C929 1.372 . S
C929 C928 1.372 . S
C929 C930 1.400 . S
C929 C934 1.490 . S
C930 H920 0.930 . S
C930 C929 1.400 . S
C930 C933 1.386 . S
H931 C947 0.930 . S
H932 C948 0.931 1_556 S
C933 H921 0.929 . S
C933 C927 1.390 . S
C933 C930 1.386 . S
C934 C929 1.490 . S
C934 C936 1.395 . S
C934 C937 1.403 1_556 S
H935 C941 0.930 . S
C936 H922 0.930 . S
C936 C934 1.395 . S
C936 C939 1.403 1_545 S
C937 C934 1.403 1_554 S
C937 C938 1.524 . S
C937 C941 1.400 1_545 S
C938 H923 0.960 . S
C938 H924 0.960 . S
C938 H925 0.960 . S
C938 C937 1.524 . S
C939 C936 1.403 1_565 S
C939 C940 1.392 1_556 S
C939 C943 1.495 . S
C940 C939 1.392 1_554 S
C940 C941 1.385 . S
C940 C942 1.478 . S
C941 H935 0.930 . S
C941 C937 1.400 1_565 S
C941 C940 1.385 . S
C942 C940 1.478 . S
C942 C944 1.381 . S
C942 C948 1.383 . S
C943 C939 1.495 . S
C943 H949 0.959 . S
C943 H950 0.961 . S
C943 H951 0.960 . S
C944 C942 1.381 . S
C944 C945 1.394 . S
C944 H952 0.930 . S
C945 C944 1.394 . S
C945 C946 1.383 . S
C945 H953 0.929 . S
C946 C945 1.383 . S
C946 C947 1.377 . S
C947 H931 0.930 . S
C947 C946 1.377 . S
C947 C948 1.379 . S
C948 H932 0.931 1_554 S
C948 C942 1.383 . S
C948 C947 1.379 . S
H949 C943 0.959 . S
H950 C943 0.961 . S
H951 C943 0.960 . S
H952 C944 0.930 . S
H953 C945 0.929 . S
H954 C962 0.929 . S
H955 C964 0.930 . S
H956 C966 0.930 . S
H957 C969 0.929 . S
H958 C972 0.930 . S
H959 C974 0.960 . S
H960 C974 0.960 . S
H961 C974 0.960 . S
C962 H954 0.929 . S
C962 C963 1.377 . S
C962 C964 1.384 . S
C963 C962 1.377 . S
C963 C969 1.390 . S
C964 H955 0.930 . S
C964 C962 1.384 . S
C964 C965 1.372 . S
C965 C964 1.372 . S
C965 C966 1.400 . S
C965 C970 1.490 . S
C966 H956 0.930 . S
C966 C965 1.400 . S
C966 C969 1.386 . S
H967 C983 0.930 . S
H968 C984 0.931 . S
C969 H957 0.929 . S
C969 C963 1.390 . S
C969 C966 1.386 . S
C970 C965 1.490 . S
C970 C972 1.395 . S
C970 C973 1.403 1_556 S
H971 C977 0.930 . S
C972 H958 0.930 . S
C972 C970 1.395 . S
C972 C975 1.403 1_655 S
C973 C970 1.403 1_554 S
C973 C974 1.524 . S
C973 C977 1.400 1_655 S
C974 H959 0.960 . S
C974 H960 0.960 . S
C974 H961 0.960 . S
C974 C973 1.524 . S
C975 C972 1.403 1_455 S
C975 C976 1.392 1_556 S
C975 C979 1.495 . S
C976 C975 1.392 1_554 S
C976 C977 1.385 . S
C976 C978 1.478 . S
C977 H971 0.930 . S
C977 C973 1.400 1_455 S
C977 C976 1.385 . S
C978 C976 1.478 . S
C978 C980 1.381 . S
C978 C984 1.383 . S
C979 C975 1.495 . S
C979 H985 0.959 . S
C979 H986 0.961 . S
C979 H987 0.960 . S
C980 C978 1.381 . S
C980 C981 1.394 . S
C980 H988 0.930 . S
C981 C980 1.394 . S
C981 C982 1.383 . S
C981 H989 0.929 . S
C982 C981 1.383 . S
C982 C983 1.377 . S
C983 H967 0.930 . S
C983 C982 1.377 . S
C983 C984 1.379 . S
C984 H968 0.931 . S
C984 C978 1.383 . S
C984 C983 1.379 . S
H985 C979 0.959 . S
H986 C979 0.961 . S
H987 C979 0.960 . S
H988 C980 0.930 . S
H989 C981 0.929 . S
H990 C998 0.929 . S
H991 C1000 0.930 . S
H992 C1002 0.930 . S
H993 C1005 0.929 . S
H994 C1008 0.930 . S
H995 C1010 0.960 . S
H996 C1010 0.960 . S
H997 C1010 0.960 . S
C998 H990 0.929 . S
C998 C999 1.377 1_554 S
C998 C1000 1.384 . S
C999 C998 1.377 1_556 S
C999 C1005 1.390 . S
C1000 H991 0.930 . S
C1000 C998 1.384 . S
C1000 C1001 1.372 1_554 S
C1001 C1000 1.372 1_556 S
C1001 C1002 1.400 . S
C1001 C1006 1.490 . S
C1002 H992 0.930 . S
C1002 C1001 1.400 . S
C1002 C1005 1.386 . S
H1003 C1019 0.930 . S
H1004 C1020 0.931 . S
C1005 H993 0.929 . S
C1005 C999 1.390 . S
C1005 C1002 1.386 . S
C1006 C1001 1.490 . S
C1006 C1008 1.395 1_556 S
C1006 C1009 1.403 . S
H1007 C1013 0.930 . S
C1008 H994 0.930 . S
C1008 C1006 1.395 1_554 S
C1008 C1011 1.403 . S
C1009 C1006 1.403 . S
C1009 C1010 1.524 . S
C1009 C1013 1.400 . S
C1010 H995 0.960 . S
C1010 H996 0.960 . S
C1010 H997 0.960 . S
C1010 C1009 1.524 . S
C1011 C1008 1.403 . S
C1011 C1012 1.392 . S
C1011 C1015 1.495 . S
C1012 C1011 1.392 . S
C1012 C1013 1.385 1_554 S
C1012 C1014 1.478 . S
C1013 H1007 0.930 . S
C1013 C1009 1.400 . S
C1013 C1012 1.385 1_556 S
C1014 C1012 1.478 . S
C1014 C1016 1.381 . S
C1014 C1020 1.383 1_554 S
C1015 C1011 1.495 . S
C1015 H1021 0.959 . S
C1015 H1022 0.961 . S
C1015 H1023 0.960 . S
C1016 C1014 1.381 . S
C1016 C1017 1.394 . S
C1016 H1024 0.930 . S
C1017 C1016 1.394 . S
C1017 C1018 1.383 . S
C1017 H1025 0.929 . S
C1018 C1017 1.383 . S
C1018 C1019 1.377 1_554 S
C1019 H1003 0.930 . S
C1019 C1018 1.377 1_556 S
C1019 C1020 1.379 . S
C1020 H1004 0.931 . S
C1020 C1014 1.383 1_556 S
C1020 C1019 1.379 . S
H1021 C1015 0.959 . S
H1022 C1015 0.961 . S
H1023 C1015 0.960 . S
H1024 C1016 0.930 . S
H1025 C1017 0.929 . S
H1026 C1034 0.929 . S
H1027 C1036 0.930 . S
H1028 C1038 0.930 1_556 S
H1029 C1041 0.929 . S
H1030 C1044 0.930 . S
H1031 C1046 0.960 . S
H1032 C1046 0.960 . S
H1033 C1046 0.960 . S
C1034 H1026 0.929 . S
C1034 C1035 1.377 . S
C1034 C1036 1.384 . S
C1035 C1034 1.377 . S
C1035 C1041 1.390 . S
C1036 H1027 0.930 . S
C1036 C1034 1.384 . S
C1036 C1037 1.372 . S
C1037 C1036 1.372 . S
C1037 C1038 1.400 . S
C1037 C1042 1.490 . S
C1038 H1028 0.930 1_554 S
C1038 C1037 1.400 . S
C1038 C1041 1.386 . S
H1039 C1055 0.930 . S
H1040 C1056 0.931 . S
C1041 H1029 0.929 . S
C1041 C1035 1.390 . S
C1041 C1038 1.386 . S
C1042 C1037 1.490 . S
C1042 C1044 1.395 . S
C1042 C1045 1.403 1_554 S
H1043 C1049 0.930 . S
C1044 H1030 0.930 . S
C1044 C1042 1.395 . S
C1044 C1047 1.403 1_565 S
C1045 C1042 1.403 1_556 S
C1045 C1046 1.524 . S
C1045 C1049 1.400 1_565 S
C1046 H1031 0.960 . S
C1046 H1032 0.960 . S
C1046 H1033 0.960 . S
C1046 C1045 1.524 . S
C1047 C1044 1.403 1_545 S
C1047 C1048 1.376 1_554 S
C1047 C1051 1.495 . S
C1048 C1047 1.376 1_556 S
C1048 C1049 1.399 . S
C1048 C1050 1.481 . S
C1049 H1043 0.930 . S
C1049 C1045 1.400 1_545 S
C1049 C1048 1.399 . S
C1050 C1048 1.481 . S
C1050 C1052 1.381 . S
C1050 C1056 1.383 . S
C1051 C1047 1.495 . S
C1051 H1057 0.959 . S
C1051 H1058 0.961 . S
C1051 H1059 0.960 . S
C1052 C1050 1.381 . S
C1052 C1053 1.394 . S
C1052 H1060 0.930 1_556 S
C1053 C1052 1.394 . S
C1053 C1054 1.383 . S
C1053 H1061 0.929 . S
C1054 C1053 1.383 . S
C1054 C1055 1.377 . S
C1055 H1039 0.930 . S
C1055 C1054 1.377 . S
C1055 C1056 1.379 . S
C1056 H1040 0.931 . S
C1056 C1050 1.383 . S
C1056 C1055 1.379 . S
H1057 C1051 0.959 . S
H1058 C1051 0.961 . S
H1059 C1051 0.960 . S
H1060 C1052 0.930 1_554 S
H1061 C1053 0.929 . S
H1062 C1070 0.929 . S
H1063 C1072 0.930 . S
H1064 C1074 0.931 1_554 S
H1065 C1077 0.929 1_554 S
H1066 C1080 0.930 . S
H1067 C1082 0.960 . S
H1068 C1082 0.960 . S
H1069 C1082 0.960 . S
C1070 H1062 0.929 . S
C1070 C1071 1.377 . S
C1070 C1072 1.384 . S
C1071 C1070 1.377 . S
C1071 C1077 1.390 . S
C1072 H1063 0.930 . S
C1072 C1070 1.384 . S
C1072 C1073 1.372 . S
C1073 C1072 1.372 . S
C1073 C1074 1.399 . S
C1073 C1078 1.490 . S
C1074 H1064 0.931 1_556 S
C1074 C1073 1.399 . S
C1074 C1077 1.385 . S
H1075 C1091 0.930 . S
H1076 C1092 0.931 . S
C1077 H1065 0.929 1_556 S
C1077 C1071 1.390 . S
C1077 C1074 1.385 . S
C1078 C1073 1.490 . S
C1078 C1080 1.395 1_556 S
C1078 C1081 1.403 . S
H1079 C1085 0.930 . S
C1080 H1066 0.930 . S
C1080 C1078 1.395 1_554 S
C1080 C1083 1.403 1_655 S
C1081 C1078 1.403 . S
C1081 C1082 1.524 . S
C1081 C1085 1.400 1_655 S
C1082 H1067 0.960 . S
C1082 H1068 0.960 . S
C1082 H1069 0.960 . S
C1082 C1081 1.524 . S
C1083 C1080 1.403 1_455 S
C1083 C1084 1.392 . S
C1083 C1087 1.495 . S
C1084 C1083 1.392 . S
C1084 C1085 1.385 1_554 S
C1084 C1086 1.478 . S
C1085 H1079 0.930 . S
C1085 C1081 1.400 1_455 S
C1085 C1084 1.385 1_556 S
C1086 C1084 1.478 . S
C1086 C1088 1.381 1_554 S
C1086 C1092 1.383 . S
C1087 C1083 1.495 . S
C1087 H1093 0.959 . S
C1087 H1094 0.961 . S
C1087 H1095 0.960 . S
C1088 C1086 1.381 1_556 S
C1088 C1089 1.394 1_556 S
C1088 H1096 0.930 . S
C1089 C1088 1.394 1_554 S
C1089 C1090 1.383 . S
C1089 H1097 0.929 1_554 S
C1090 C1089 1.383 . S
C1090 C1091 1.377 . S
C1091 H1075 0.930 . S
C1091 C1090 1.377 . S
C1091 C1092 1.379 . S
C1092 H1076 0.931 . S
C1092 C1086 1.383 . S
C1092 C1091 1.379 . S
H1093 C1087 0.959 . S
H1094 C1087 0.961 . S
H1095 C1087 0.960 . S
H1096 C1088 0.930 . S
H1097 C1089 0.929 1_556 S
H1098 C1106 0.929 . S
H1099 C1108 0.930 . S
H1100 C1110 0.930 . S
H1101 C1113 0.929 . S
H1102 C1116 0.930 . S
H1103 C1118 0.960 . S
H1104 C1118 0.960 . S
H1105 C1118 0.960 . S
C1106 H1098 0.929 . S
C1106 C1107 1.377 . S
C1106 C1108 1.384 . S
C1107 C1106 1.377 . S
C1107 C1113 1.390 . S
C1108 H1099 0.930 . S
C1108 C1106 1.384 . S
C1108 C1109 1.372 . S
C1109 C1108 1.372 . S
C1109 C1110 1.400 . S
C1109 C1114 1.490 . S
C1110 H1100 0.930 . S
C1110 C1109 1.400 . S
C1110 C1113 1.386 . S
H1111 C1127 0.930 . S
H1112 C1128 0.931 . S
C1113 H1101 0.929 . S
C1113 C1107 1.390 . S
C1113 C1110 1.386 . S
C1114 C1109 1.490 . S
C1114 C1116 1.395 . S
C1114 C1117 1.403 . S
H1115 C1121 0.930 . S
C1116 H1102 0.930 . S
C1116 C1114 1.395 . S
C1116 C1119 1.403 . S
C1117 C1114 1.403 . S
C1117 C1118 1.524 . S
C1117 C1121 1.400 . S
C1118 H1103 0.960 . S
C1118 H1104 0.960 . S
C1118 H1105 0.960 . S
C1118 C1117 1.524 . S
C1119 C1116 1.403 . S
C1119 C1120 1.392 . S
C1119 C1123 1.495 . S
C1120 C1119 1.392 . S
C1120 C1121 1.385 . S
C1120 C1122 1.478 . S
C1121 H1115 0.930 . S
C1121 C1117 1.400 . S
C1121 C1120 1.385 . S
C1122 C1120 1.478 . S
C1122 C1124 1.381 . S
C1122 C1128 1.383 . S
C1123 C1119 1.495 . S
C1123 H1129 0.959 . S
C1123 H1130 0.961 . S
C1123 H1131 0.960 . S
C1124 C1122 1.381 . S
C1124 C1125 1.394 . S
C1124 H1132 0.930 . S
C1125 C1124 1.394 . S
C1125 C1126 1.383 . S
C1125 H1133 0.929 . S
C1126 C1125 1.383 . S
C1126 C1127 1.377 . S
C1127 H1111 0.930 . S
C1127 C1126 1.377 . S
C1127 C1128 1.379 . S
C1128 H1112 0.931 . S
C1128 C1122 1.383 . S
C1128 C1127 1.379 . S
H1129 C1123 0.959 . S
H1130 C1123 0.961 . S
H1131 C1123 0.960 . S
H1132 C1124 0.930 . S
H1133 C1125 0.929 . S
H1134 C1142 0.929 . S
H1135 C1144 0.930 . S
H1136 C1146 0.930 . S
H1137 C1149 0.929 . S
H1138 C1152 0.930 . S
H1139 C1154 0.960 . S
H1140 C1154 0.960 . S
H1141 C1154 0.960 . S
C1142 H1134 0.929 . S
C1142 C1143 1.377 . S
C1142 C1144 1.384 . S
C1143 C1142 1.377 . S
C1143 C1149 1.390 . S
C1144 H1135 0.930 . S
C1144 C1142 1.384 . S
C1144 C1145 1.372 . S
C1145 C1144 1.372 . S
C1145 C1146 1.400 . S
C1145 C1150 1.490 . S
C1146 H1136 0.930 . S
C1146 C1145 1.400 . S
C1146 C1149 1.386 . S
H1147 C1163 0.930 . S
H1148 C1164 0.931 . S
C1149 H1137 0.929 . S
C1149 C1143 1.390 . S
C1149 C1146 1.386 . S
C1150 C1145 1.490 . S
C1150 C1152 1.395 . S
C1150 C1153 1.403 . S
H1151 C1157 0.930 . S
C1152 H1138 0.930 . S
C1152 C1150 1.395 . S
C1152 C1155 1.403 . S
C1153 C1150 1.403 . S
C1153 C1154 1.524 . S
C1153 C1157 1.400 . S
C1154 H1139 0.960 . S
C1154 H1140 0.960 . S
C1154 H1141 0.960 . S
C1154 C1153 1.524 . S
C1155 C1152 1.403 . S
C1155 C1156 1.392 . S
C1155 C1159 1.495 . S
C1156 C1155 1.392 . S
C1156 C1157 1.385 . S
C1156 C1158 1.478 . S
C1157 H1151 0.930 . S
C1157 C1153 1.400 . S
C1157 C1156 1.385 . S
C1158 C1156 1.478 . S
C1158 C1160 1.381 . S
C1158 C1164 1.383 . S
C1159 C1155 1.495 . S
C1159 H1165 0.959 . S
C1159 H1166 0.961 . S
C1159 H1167 0.960 . S
C1160 C1158 1.381 . S
C1160 C1161 1.394 . S
C1160 H1168 0.930 . S
C1161 C1160 1.394 . S
C1161 C1162 1.383 . S
C1161 H1169 0.929 . S
C1162 C1161 1.383 . S
C1162 C1163 1.377 . S
C1163 H1147 0.930 . S
C1163 C1162 1.377 . S
C1163 C1164 1.379 . S
C1164 H1148 0.931 . S
C1164 C1158 1.383 . S
C1164 C1163 1.379 . S
H1165 C1159 0.959 . S
H1166 C1159 0.961 . S
H1167 C1159 0.960 . S
H1168 C1160 0.930 . S
H1169 C1161 0.929 . S
H1170 C1178 0.929 . S
H1171 C1180 0.930 . S
H1172 C1182 0.930 . S
H1173 C1185 0.929 . S
H1174 C1188 0.930 . S
H1175 C1190 0.960 . S
H1176 C1190 0.960 . S
H1177 C1190 0.960 . S
C1178 H1170 0.929 . S
C1178 C1179 1.377 . S
C1178 C1180 1.384 . S
C1179 C1178 1.377 . S
C1179 C1185 1.390 . S
C1180 H1171 0.930 . S
C1180 C1178 1.384 . S
C1180 C1181 1.372 . S
C1181 C1180 1.372 . S
C1181 C1182 1.400 . S
C1181 C1186 1.490 . S
C1182 H1172 0.930 . S
C1182 C1181 1.400 . S
C1182 C1185 1.386 . S
H1183 C1199 0.930 . S
H1184 C1200 0.931 . S
C1185 H1173 0.929 . S
C1185 C1179 1.390 . S
C1185 C1182 1.386 . S
C1186 C1181 1.490 . S
C1186 C1188 1.395 . S
C1186 C1189 1.403 . S
H1187 C1193 0.930 . S
C1188 H1174 0.930 . S
C1188 C1186 1.395 . S
C1188 C1191 1.403 . S
C1189 C1186 1.403 . S
C1189 C1190 1.524 . S
C1189 C1193 1.400 . S
C1190 H1175 0.960 . S
C1190 H1176 0.960 . S
C1190 H1177 0.960 . S
C1190 C1189 1.524 . S
C1191 C1188 1.403 . S
C1191 C1192 1.392 . S
C1191 C1195 1.495 . S
C1192 C1191 1.392 . S
C1192 C1193 1.385 . S
C1192 C1194 1.478 . S
C1193 H1187 0.930 . S
C1193 C1189 1.400 . S
C1193 C1192 1.385 . S
C1194 C1192 1.478 . S
C1194 C1196 1.381 . S
C1194 C1200 1.383 . S
C1195 C1191 1.495 . S
C1195 H1201 0.959 . S
C1195 H1202 0.961 . S
C1195 H1203 0.960 . S
C1196 C1194 1.381 . S
C1196 C1197 1.394 . S
C1196 H1204 0.930 . S
C1197 C1196 1.394 . S
C1197 C1198 1.383 . S
C1197 H1205 0.929 . S
C1198 C1197 1.383 . S
C1198 C1199 1.377 . S
C1199 H1183 0.930 . S
C1199 C1198 1.377 . S
C1199 C1200 1.379 . S
C1200 H1184 0.931 . S
C1200 C1194 1.383 . S
C1200 C1199 1.379 . S
H1201 C1195 0.959 . S
H1202 C1195 0.961 . S
H1203 C1195 0.960 . S
H1204 C1196 0.930 . S
H1205 C1197 0.929 . S
H1206 C1214 0.929 . S
H1207 C1216 0.930 . S
H1208 C1218 0.930 . S
H1209 C1221 0.929 . S
H1210 C1224 0.930 . S
H1211 C1226 0.960 . S
H1212 C1226 0.960 . S
H1213 C1226 0.960 . S
C1214 H1206 0.929 . S
C1214 C1215 1.377 . S
C1214 C1216 1.384 . S
C1215 C1214 1.377 . S
C1215 C1221 1.390 . S
C1216 H1207 0.930 . S
C1216 C1214 1.384 . S
C1216 C1217 1.372 . S
C1217 C1216 1.372 . S
C1217 C1218 1.400 . S
C1217 C1222 1.490 . S
C1218 H1208 0.930 . S
C1218 C1217 1.400 . S
C1218 C1221 1.386 . S
H1219 C1235 0.930 . S
H1220 C1236 0.931 . S
C1221 H1209 0.929 . S
C1221 C1215 1.390 . S
C1221 C1218 1.386 . S
C1222 C1217 1.490 . S
C1222 C1224 1.395 . S
C1222 C1225 1.403 . S
H1223 C1229 0.930 . S
C1224 H1210 0.930 . S
C1224 C1222 1.395 . S
C1224 C1227 1.403 . S
C1225 C1222 1.403 . S
C1225 C1226 1.524 . S
C1225 C1229 1.400 . S
C1226 H1211 0.960 . S
C1226 H1212 0.960 . S
C1226 H1213 0.960 . S
C1226 C1225 1.524 . S
C1227 C1224 1.403 . S
C1227 C1228 1.392 . S
C1227 C1231 1.495 . S
C1228 C1227 1.392 . S
C1228 C1229 1.385 . S
C1228 C1230 1.478 . S
C1229 H1223 0.930 . S
C1229 C1225 1.400 . S
C1229 C1228 1.385 . S
C1230 C1228 1.478 . S
C1230 C1232 1.381 . S
C1230 C1236 1.383 . S
C1231 C1227 1.495 . S
C1231 H1237 0.959 . S
C1231 H1238 0.961 . S
C1231 H1239 0.960 . S
C1232 C1230 1.381 . S
C1232 C1233 1.394 . S
C1232 H1240 0.930 . S
C1233 C1232 1.394 . S
C1233 C1234 1.383 . S
C1233 H1241 0.929 . S
C1234 C1233 1.383 . S
C1234 C1235 1.377 . S
C1235 H1219 0.930 . S
C1235 C1234 1.377 . S
C1235 C1236 1.379 . S
C1236 H1220 0.931 . S
C1236 C1230 1.383 . S
C1236 C1235 1.379 . S
H1237 C1231 0.959 . S
H1238 C1231 0.961 . S
H1239 C1231 0.960 . S
H1240 C1232 0.930 . S
H1241 C1233 0.929 . S
H1242 C1250 0.929 . S
H1243 C1252 0.930 . S
H1244 C1254 0.930 . S
H1245 C1257 0.929 . S
H1246 C1260 0.930 . S
H1247 C1262 0.960 . S
H1248 C1262 0.960 . S
H1249 C1262 0.960 . S
C1250 H1242 0.929 . S
C1250 C1251 1.377 . S
C1250 C1252 1.384 . S
C1251 C1250 1.377 . S
C1251 C1257 1.390 . S
C1252 H1243 0.930 . S
C1252 C1250 1.384 . S
C1252 C1253 1.372 . S
C1253 C1252 1.372 . S
C1253 C1254 1.400 . S
C1253 C1258 1.490 . S
C1254 H1244 0.930 . S
C1254 C1253 1.400 . S
C1254 C1257 1.386 . S
H1255 C1271 0.930 . S
H1256 C1272 0.931 . S
C1257 H1245 0.929 . S
C1257 C1251 1.390 . S
C1257 C1254 1.386 . S
C1258 C1253 1.490 . S
C1258 C1260 1.395 . S
C1258 C1261 1.403 . S
H1259 C1265 0.930 . S
C1260 H1246 0.930 . S
C1260 C1258 1.395 . S
C1260 C1263 1.403 . S
C1261 C1258 1.403 . S
C1261 C1262 1.524 . S
C1261 C1265 1.400 . S
C1262 H1247 0.960 . S
C1262 H1248 0.960 . S
C1262 H1249 0.960 . S
C1262 C1261 1.524 . S
C1263 C1260 1.403 . S
C1263 C1264 1.392 . S
C1263 C1267 1.495 . S
C1264 C1263 1.392 . S
C1264 C1265 1.385 . S
C1264 C1266 1.478 . S
C1265 H1259 0.930 . S
C1265 C1261 1.400 . S
C1265 C1264 1.385 . S
C1266 C1264 1.478 . S
C1266 C1268 1.381 . S
C1266 C1272 1.383 . S
C1267 C1263 1.495 . S
C1267 H1273 0.959 . S
C1267 H1274 0.961 . S
C1267 H1275 0.960 . S
C1268 C1266 1.381 . S
C1268 C1269 1.394 . S
C1268 H1276 0.930 . S
C1269 C1268 1.394 . S
C1269 C1270 1.383 . S
C1269 H1277 0.929 . S
C1270 C1269 1.383 . S
C1270 C1271 1.377 . S
C1271 H1255 0.930 . S
C1271 C1270 1.377 . S
C1271 C1272 1.379 . S
C1272 H1256 0.931 . S
C1272 C1266 1.383 . S
C1272 C1271 1.379 . S
H1273 C1267 0.959 . S
H1274 C1267 0.961 . S
H1275 C1267 0.960 . S
H1276 C1268 0.930 . S
H1277 C1269 0.929 . S
H1278 C1286 0.929 . S
H1279 C1288 0.930 . S
H1280 C1290 0.930 . S
H1281 C1293 0.929 . S
H1282 C1296 0.930 . S
H1283 C1298 0.960 . S
H1284 C1298 0.960 . S
H1285 C1298 0.960 . S
C1286 H1278 0.929 . S
C1286 C1287 1.377 . S
C1286 C1288 1.384 . S
C1287 C1286 1.377 . S
C1287 C1293 1.390 . S
C1288 H1279 0.930 . S
C1288 C1286 1.384 . S
C1288 C1289 1.372 . S
C1289 C1288 1.372 . S
C1289 C1290 1.400 . S
C1289 C1294 1.490 . S
C1290 H1280 0.930 . S
C1290 C1289 1.400 . S
C1290 C1293 1.386 . S
H1291 C1307 0.930 . S
H1292 C1308 0.931 . S
C1293 H1281 0.929 . S
C1293 C1287 1.390 . S
C1293 C1290 1.386 . S
C1294 C1289 1.490 . S
C1294 C1296 1.395 . S
C1294 C1297 1.403 . S
H1295 C1301 0.930 . S
C1296 H1282 0.930 . S
C1296 C1294 1.395 . S
C1296 C1299 1.403 . S
C1297 C1294 1.403 . S
C1297 C1298 1.524 . S
C1297 C1301 1.400 . S
C1298 H1283 0.960 . S
C1298 H1284 0.960 . S
C1298 H1285 0.960 . S
C1298 C1297 1.524 . S
C1299 C1296 1.403 . S
C1299 C1300 1.392 . S
C1299 C1303 1.495 . S
C1300 C1299 1.392 . S
C1300 C1301 1.385 . S
C1300 C1302 1.478 . S
C1301 H1295 0.930 . S
C1301 C1297 1.400 . S
C1301 C1300 1.385 . S
C1302 C1300 1.478 . S
C1302 C1304 1.381 . S
C1302 C1308 1.383 . S
C1303 C1299 1.495 . S
C1303 H1309 0.959 . S
C1303 H1310 0.961 . S
C1303 H1311 0.960 . S
C1304 C1302 1.381 . S
C1304 C1305 1.394 . S
C1304 H1312 0.930 . S
C1305 C1304 1.394 . S
C1305 C1306 1.383 . S
C1305 H1313 0.929 . S
C1306 C1305 1.383 . S
C1306 C1307 1.377 . S
C1307 H1291 0.930 . S
C1307 C1306 1.377 . S
C1307 C1308 1.379 . S
C1308 H1292 0.931 . S
C1308 C1302 1.383 . S
C1308 C1307 1.379 . S
H1309 C1303 0.959 . S
H1310 C1303 0.961 . S
H1311 C1303 0.960 . S
H1312 C1304 0.930 . S
H1313 C1305 0.929 . S
H1314 C1322 0.929 . S
H1315 C1324 0.930 . S
H1316 C1326 0.930 . S
H1317 C1329 0.929 . S
H1318 C1332 0.930 . S
H1319 C1334 0.960 . S
H1320 C1334 0.960 . S
H1321 C1334 0.960 . S
C1322 H1314 0.929 . S
C1322 C1323 1.377 . S
C1322 C1324 1.384 . S
C1323 C1322 1.377 . S
C1323 C1329 1.390 . S
C1324 H1315 0.930 . S
C1324 C1322 1.384 . S
C1324 C1325 1.372 . S
C1325 C1324 1.372 . S
C1325 C1326 1.400 . S
C1325 C1330 1.490 . S
C1326 H1316 0.930 . S
C1326 C1325 1.400 . S
C1326 C1329 1.386 . S
H1327 C1343 0.930 . S
H1328 C1344 0.931 . S
C1329 H1317 0.929 . S
C1329 C1323 1.390 . S
C1329 C1326 1.386 . S
C1330 C1325 1.490 . S
C1330 C1332 1.395 . S
C1330 C1333 1.403 . S
H1331 C1337 0.930 . S
C1332 H1318 0.930 . S
C1332 C1330 1.395 . S
C1332 C1335 1.403 . S
C1333 C1330 1.403 . S
C1333 C1334 1.524 . S
C1333 C1337 1.400 . S
C1334 H1319 0.960 . S
C1334 H1320 0.960 . S
C1334 H1321 0.960 . S
C1334 C1333 1.524 . S
C1335 C1332 1.403 . S
C1335 C1336 1.392 . S
C1335 C1339 1.495 . S
C1336 C1335 1.392 . S
C1336 C1337 1.385 . S
C1336 C1338 1.478 . S
C1337 H1331 0.930 . S
C1337 C1333 1.400 . S
C1337 C1336 1.385 . S
C1338 C1336 1.478 . S
C1338 C1340 1.381 . S
C1338 C1344 1.383 . S
C1339 C1335 1.495 . S
C1339 H1345 0.959 . S
C1339 H1346 0.961 . S
C1339 H1347 0.960 . S
C1340 C1338 1.381 . S
C1340 C1341 1.394 . S
C1340 H1348 0.930 . S
C1341 C1340 1.394 . S
C1341 C1342 1.383 . S
C1341 H1349 0.929 . S
C1342 C1341 1.383 . S
C1342 C1343 1.377 . S
C1343 H1327 0.930 . S
C1343 C1342 1.377 . S
C1343 C1344 1.379 . S
C1344 H1328 0.931 . S
C1344 C1338 1.383 . S
C1344 C1343 1.379 . S
H1345 C1339 0.959 . S
H1346 C1339 0.961 . S
H1347 C1339 0.960 . S
H1348 C1340 0.930 . S
H1349 C1341 0.929 . S
H1350 C1358 0.929 . S
H1351 C1360 0.930 . S
H1352 C1362 0.930 . S
H1353 C1365 0.929 . S
H1354 C1368 0.930 . S
H1355 C1370 0.960 . S
H1356 C1370 0.960 . S
H1357 C1370 0.960 . S
C1358 H1350 0.929 . S
C1358 C1359 1.377 . S
C1358 C1360 1.384 . S
C1359 C1358 1.377 . S
C1359 C1365 1.390 . S
C1360 H1351 0.930 . S
C1360 C1358 1.384 . S
C1360 C1361 1.372 . S
C1361 C1360 1.372 . S
C1361 C1362 1.400 . S
C1361 C1366 1.490 . S
C1362 H1352 0.930 . S
C1362 C1361 1.400 . S
C1362 C1365 1.386 . S
H1363 C1379 0.930 . S
H1364 C1380 0.931 . S
C1365 H1353 0.929 . S
C1365 C1359 1.390 . S
C1365 C1362 1.386 . S
C1366 C1361 1.490 . S
C1366 C1368 1.395 . S
C1366 C1369 1.403 . S
H1367 C1373 0.930 . S
C1368 H1354 0.930 . S
C1368 C1366 1.395 . S
C1368 C1371 1.403 . S
C1369 C1366 1.403 . S
C1369 C1370 1.524 . S
C1369 C1373 1.400 . S
C1370 H1355 0.960 . S
C1370 H1356 0.960 . S
C1370 H1357 0.960 . S
C1370 C1369 1.524 . S
C1371 C1368 1.403 . S
C1371 C1372 1.392 . S
C1371 C1375 1.495 . S
C1372 C1371 1.392 . S
C1372 C1373 1.385 . S
C1372 C1374 1.478 . S
C1373 H1367 0.930 . S
C1373 C1369 1.400 . S
C1373 C1372 1.385 . S
C1374 C1372 1.478 . S
C1374 C1376 1.381 . S
C1374 C1380 1.383 . S
C1375 C1371 1.495 . S
C1375 H1381 0.959 . S
C1375 H1382 0.961 . S
C1375 H1383 0.960 . S
C1376 C1374 1.381 . S
C1376 C1377 1.394 . S
C1376 H1384 0.930 . S
C1377 C1376 1.394 . S
C1377 C1378 1.383 . S
C1377 H1385 0.929 . S
C1378 C1377 1.383 . S
C1378 C1379 1.377 . S
C1379 H1363 0.930 . S
C1379 C1378 1.377 . S
C1379 C1380 1.379 . S
C1380 H1364 0.931 . S
C1380 C1374 1.383 . S
C1380 C1379 1.379 . S
H1381 C1375 0.959 . S
H1382 C1375 0.961 . S
H1383 C1375 0.960 . S
H1384 C1376 0.930 . S
H1385 C1377 0.929 . S
H1386 C1394 0.929 . S
H1387 C1396 0.930 . S
H1388 C1398 0.930 . S
H1389 C1401 0.929 . S
H1390 C1404 0.930 . S
H1391 C1406 0.960 . S
H1392 C1406 0.960 . S
H1393 C1406 0.960 . S
C1394 H1386 0.929 . S
C1394 C1395 1.377 . S
C1394 C1396 1.384 . S
C1395 C1394 1.377 . S
C1395 C1401 1.390 . S
C1396 H1387 0.930 . S
C1396 C1394 1.384 . S
C1396 C1397 1.372 . S
C1397 C1396 1.372 . S
C1397 C1398 1.400 . S
C1397 C1402 1.490 . S
C1398 H1388 0.930 . S
C1398 C1397 1.400 . S
C1398 C1401 1.386 . S
H1399 C1415 0.930 . S
H1400 C1416 0.931 . S
C1401 H1389 0.929 . S
C1401 C1395 1.390 . S
C1401 C1398 1.386 . S
C1402 C1397 1.490 . S
C1402 C1404 1.395 . S
C1402 C1405 1.403 . S
H1403 C1409 0.930 . S
C1404 H1390 0.930 . S
C1404 C1402 1.395 . S
C1404 C1407 1.403 . S
C1405 C1402 1.403 . S
C1405 C1406 1.524 . S
C1405 C1409 1.400 . S
C1406 H1391 0.960 . S
C1406 H1392 0.960 . S
C1406 H1393 0.960 . S
C1406 C1405 1.524 . S
C1407 C1404 1.403 . S
C1407 C1408 1.392 . S
C1407 C1411 1.495 . S
C1408 C1407 1.392 . S
C1408 C1409 1.385 . S
C1408 C1410 1.478 . S
C1409 H1403 0.930 . S
C1409 C1405 1.400 . S
C1409 C1408 1.385 . S
C1410 C1408 1.478 . S
C1410 C1412 1.381 . S
C1410 C1416 1.383 . S
C1411 C1407 1.495 . S
C1411 H1417 0.959 . S
C1411 H1418 0.961 . S
C1411 H1419 0.960 . S
C1412 C1410 1.381 . S
C1412 C1413 1.394 . S
C1412 H1420 0.930 . S
C1413 C1412 1.394 . S
C1413 C1414 1.383 . S
C1413 H1421 0.929 . S
C1414 C1413 1.383 . S
C1414 C1415 1.377 . S
C1415 H1399 0.930 . S
C1415 C1414 1.377 . S
C1415 C1416 1.379 . S
C1416 H1400 0.931 . S
C1416 C1410 1.383 . S
C1416 C1415 1.379 . S
H1417 C1411 0.959 . S
H1418 C1411 0.961 . S
H1419 C1411 0.960 . S
H1420 C1412 0.930 . S
H1421 C1413 0.929 . S
H1422 C1430 0.929 . S
H1423 C1432 0.930 . S
H1424 C1434 0.930 . S
H1425 C1437 0.929 . S
H1426 C1440 0.930 . S
H1427 C1442 0.960 . S
H1428 C1442 0.960 . S
H1429 C1442 0.960 . S
C1430 H1422 0.929 . S
C1430 C1431 1.377 . S
C1430 C1432 1.384 . S
C1431 C1430 1.377 . S
C1431 C1437 1.390 . S
C1432 H1423 0.930 . S
C1432 C1430 1.384 . S
C1432 C1433 1.372 . S
C1433 C1432 1.372 . S
C1433 C1434 1.400 . S
C1433 C1438 1.490 . S
C1434 H1424 0.930 . S
C1434 C1433 1.400 . S
C1434 C1437 1.386 . S
H1435 C1451 0.930 . S
H1436 C1452 0.931 . S
C1437 H1425 0.929 . S
C1437 C1431 1.390 . S
C1437 C1434 1.386 . S
C1438 C1433 1.490 . S
C1438 C1440 1.395 . S
C1438 C1441 1.403 . S
H1439 C1445 0.930 . S
C1440 H1426 0.930 . S
C1440 C1438 1.395 . S
C1440 C1443 1.403 . S
C1441 C1438 1.403 . S
C1441 C1442 1.524 . S
C1441 C1445 1.400 . S
C1442 H1427 0.960 . S
C1442 H1428 0.960 . S
C1442 H1429 0.960 . S
C1442 C1441 1.524 . S
C1443 C1440 1.403 . S
C1443 C1444 1.392 . S
C1443 C1447 1.495 . S
C1444 C1443 1.392 . S
C1444 C1445 1.385 . S
C1444 C1446 1.478 . S
C1445 H1439 0.930 . S
C1445 C1441 1.400 . S
C1445 C1444 1.385 . S
C1446 C1444 1.478 . S
C1446 C1448 1.381 . S
C1446 C1452 1.383 . S
C1447 C1443 1.495 . S
C1447 H1453 0.959 . S
C1447 H1454 0.961 . S
C1447 H1455 0.960 . S
C1448 C1446 1.381 . S
C1448 C1449 1.394 . S
C1448 H1456 0.930 . S
C1449 C1448 1.394 . S
C1449 C1450 1.383 . S
C1449 H1457 0.929 . S
C1450 C1449 1.383 . S
C1450 C1451 1.377 . S
C1451 H1435 0.930 . S
C1451 C1450 1.377 . S
C1451 C1452 1.379 . S
C1452 H1436 0.931 . S
C1452 C1446 1.383 . S
C1452 C1451 1.379 . S
H1453 C1447 0.959 . S
H1454 C1447 0.961 . S
H1455 C1447 0.960 . S
H1456 C1448 0.930 . S
H1457 C1449 0.929 . S
H1458 C1466 0.929 . S
H1459 C1468 0.930 . S
H1460 C1470 0.930 . S
H1461 C1473 0.929 . S
H1462 C1476 0.930 . S
H1463 C1478 0.960 . S
H1464 C1478 0.960 . S
H1465 C1478 0.960 . S
C1466 H1458 0.929 . S
C1466 C1467 1.377 . S
C1466 C1468 1.384 . S
C1467 C1466 1.377 . S
C1467 C1473 1.390 . S
C1468 H1459 0.930 . S
C1468 C1466 1.384 . S
C1468 C1469 1.372 . S
C1469 C1468 1.372 . S
C1469 C1470 1.400 . S
C1469 C1474 1.490 . S
C1470 H1460 0.930 . S
C1470 C1469 1.400 . S
C1470 C1473 1.386 . S
H1471 C1487 0.930 . S
H1472 C1488 0.931 . S
C1473 H1461 0.929 . S
C1473 C1467 1.390 . S
C1473 C1470 1.386 . S
C1474 C1469 1.490 . S
C1474 C1476 1.395 . S
C1474 C1477 1.403 . S
H1475 C1481 0.930 . S
C1476 H1462 0.930 . S
C1476 C1474 1.395 . S
C1476 C1479 1.403 . S
C1477 C1474 1.403 . S
C1477 C1478 1.524 . S
C1477 C1481 1.400 . S
C1478 H1463 0.960 . S
C1478 H1464 0.960 . S
C1478 H1465 0.960 . S
C1478 C1477 1.524 . S
C1479 C1476 1.403 . S
C1479 C1480 1.392 . S
C1479 C1483 1.495 . S
C1480 C1479 1.392 . S
C1480 C1481 1.385 . S
C1480 C1482 1.478 . S
C1481 H1475 0.930 . S
C1481 C1477 1.400 . S
C1481 C1480 1.385 . S
C1482 C1480 1.478 . S
C1482 C1484 1.381 . S
C1482 C1488 1.383 . S
C1483 C1479 1.495 . S
C1483 H1489 0.959 . S
C1483 H1490 0.961 . S
C1483 H1491 0.960 . S
C1484 C1482 1.381 . S
C1484 C1485 1.394 . S
C1484 H1492 0.930 . S
C1485 C1484 1.394 . S
C1485 C1486 1.383 . S
C1485 H1493 0.929 . S
C1486 C1485 1.383 . S
C1486 C1487 1.377 . S
C1487 H1471 0.930 . S
C1487 C1486 1.377 . S
C1487 C1488 1.379 . S
C1488 H1472 0.931 . S
C1488 C1482 1.383 . S
C1488 C1487 1.379 . S
H1489 C1483 0.959 . S
H1490 C1483 0.961 . S
H1491 C1483 0.960 . S
H1492 C1484 0.930 . S
H1493 C1485 0.929 . S
H1494 C1502 0.929 . S
H1495 C1504 0.930 . S
H1496 C1506 0.930 . S
H1497 C1509 0.929 . S
H1498 C1512 0.930 . S
H1499 C1514 0.960 . S
H1500 C1514 0.960 . S
H1501 C1514 0.960 . S
C1502 H1494 0.929 . S
C1502 C1503 1.377 . S
C1502 C1504 1.384 . S
C1503 C1502 1.377 . S
C1503 C1509 1.390 . S
C1504 H1495 0.930 . S
C1504 C1502 1.384 . S
C1504 C1505 1.372 . S
C1505 C1504 1.372 . S
C1505 C1506 1.400 . S
C1505 C1510 1.490 . S
C1506 H1496 0.930 . S
C1506 C1505 1.400 . S
C1506 C1509 1.386 . S
H1507 C1523 0.930 . S
H1508 C1524 0.931 . S
C1509 H1497 0.929 . S
C1509 C1503 1.390 . S
C1509 C1506 1.386 . S
C1510 C1505 1.490 . S
C1510 C1512 1.395 . S
C1510 C1513 1.403 . S
H1511 C1517 0.930 . S
C1512 H1498 0.930 . S
C1512 C1510 1.395 . S
C1512 C1515 1.403 . S
C1513 C1510 1.403 . S
C1513 C1514 1.524 . S
C1513 C1517 1.400 . S
C1514 H1499 0.960 . S
C1514 H1500 0.960 . S
C1514 H1501 0.960 . S
C1514 C1513 1.524 . S
C1515 C1512 1.403 . S
C1515 C1516 1.392 . S
C1515 C1519 1.495 . S
C1516 C1515 1.392 . S
C1516 C1517 1.385 . S
C1516 C1518 1.478 . S
C1517 H1511 0.930 . S
C1517 C1513 1.400 . S
C1517 C1516 1.385 . S
C1518 C1516 1.478 . S
C1518 C1520 1.381 . S
C1518 C1524 1.383 . S
C1519 C1515 1.495 . S
C1519 H1525 0.959 . S
C1519 H1526 0.961 . S
C1519 H1527 0.960 . S
C1520 C1518 1.381 . S
C1520 C1521 1.394 . S
C1520 H1528 0.930 . S
C1521 C1520 1.394 . S
C1521 C1522 1.383 . S
C1521 H1529 0.929 . S
C1522 C1521 1.383 . S
C1522 C1523 1.377 . S
C1523 H1507 0.930 . S
C1523 C1522 1.377 . S
C1523 C1524 1.379 . S
C1524 H1508 0.931 . S
C1524 C1518 1.383 . S
C1524 C1523 1.379 . S
H1525 C1519 0.959 . S
H1526 C1519 0.961 . S
H1527 C1519 0.960 . S
H1528 C1520 0.930 . S
H1529 C1521 0.929 . S
C243 C231 2.005 . S
C262 C10 2.002 . S
C279 C205 2.006 . S
C298 C17 2.001 . S
C315 C218 2.005 . S
C334 C30 2.002 . S
C351 C101 2.005 . S
C370 C49 2.002 . S
C387 C114 2.006 . S
C406 C62 2.003 . S
C423 C69 2.006 . S
C442 C88 2.003 . S
C459 C127 2.006 . S
C478 C173 2.003 . S
C495 C134 2.005 . S
C514 C186 2.003 . S
C531 C153 2.005 . S
C550 C166 2.000 . S
C567 C3 0.169 . S
C586 C224 0.097 . S
C603 C198 0.149 . S
C622 C18 0.230 . S
C639 C31 0.177 . S
C658 C211 0.251 . S
C675 C94 0.162 . S
C694 C42 0.122 . S
C711 C55 0.159 . S
C730 C107 0.135 . S
C747 C70 0.183 . S
C766 C81 0.232 . S
C783 C120 0.184 . S
C802 C174 0.114 . S
C819 C187 0.187 . S
C838 C135 0.203 . S
C855 C159 0.167 . S
C874 C146 0.265 . S
C891 C4 1.902 . S
C910 C43 1.897 . S
C927 C56 1.902 . S
C946 C23 1.896 . S
C963 C75 1.903 . S
C982 C36 1.892 . S
C999 C68 1.796 . S
C1018 C16 1.789 . S
C1035 C29 1.794 . S
C1054 C44 1.789 . S
C1071 C57 1.796 . S
C1090 C5 1.797 . S
C1107 C82 1.904 . S
C1126 C121 1.913 . S
C1143 C140 1.903 . S
C1162 C95 1.912 . S
C1179 C147 1.903 . S
C1198 C108 1.895 . S
C1215 C148 1.796 . S
C1234 C96 1.797 . S
C1251 C109 1.795 . S
C1270 C122 1.787 . S
C1287 C133 1.797 . S
C1306 C83 1.796 . S
C1323 C199 1.901 . S
C1342 C160 1.904 . S
C1359 C212 1.902 . S
C1378 C179 1.911 . S
C1395 C192 1.901 . S
C1414 C225 1.905 . S
C1431 C226 1.797 . S
C1450 C172 1.795 . S
C1467 C185 1.796 . S
C1486 C200 1.789 . S
C1503 C213 1.795 . S
C1522 C161 1.787 . S
