# Generated by pormake.
# Topology fch, (5)-cn, num edge types: 1
# Building blocks:
#     Node 0, Type 0, BuildingBlock: XOMCOT_clean_sbu_1, # of connection points: 5
#     Node 1, Type 0, BuildingBlock: XOMCOT_clean_sbu_1, # of connection points: 5
#     Node 2, Type 0, BuildingBlock: XOMCOT_clean_sbu_1, # of connection points: 5
#     Node 3, Type 0, BuildingBlock: XOMCOT_clean_sbu_1, # of connection points: 5
#     Node 4, Type 0, BuildingBlock: XOMCOT_clean_sbu_1, # of connection points: 5
#     Node 5, Type 0, BuildingBlock: XOMCOT_clean_sbu_1, # of connection points: 5
#     Node 6, Type 0, BuildingBlock: XOMCOT_clean_sbu_1, # of connection points: 5
#     Node 7, Type 0, BuildingBlock: XOMCOT_clean_sbu_1, # of connection points: 5
#     Node 8, Type 0, BuildingBlock: XOMCOT_clean_sbu_1, # of connection points: 5
#     Node 9, Type 0, BuildingBlock: XOMCOT_clean_sbu_1, # of connection points: 5
#     Node 10, Type 0, BuildingBlock: XOMCOT_clean_sbu_1, # of connection points: 5
#     Node 11, Type 0, BuildingBlock: XOMCOT_clean_sbu_1, # of connection points: 5
#     Node 12, Type 0, BuildingBlock: XOMCOT_clean_sbu_1, # of connection points: 5
#     Node 13, Type 0, BuildingBlock: XOMCOT_clean_sbu_1, # of connection points: 5
#     Node 14, Type 0, BuildingBlock: XOMCOT_clean_sbu_1, # of connection points: 5
#     Node 15, Type 0, BuildingBlock: XOMCOT_clean_sbu_1, # of connection points: 5
#     Node 16, Type 0, BuildingBlock: XOMCOT_clean_sbu_1, # of connection points: 5
#     Node 17, Type 0, BuildingBlock: XOMCOT_clean_sbu_1, # of connection points: 5
#     Node 18, Type 0, BuildingBlock: XOMCOT_clean_sbu_1, # of connection points: 5
#     Node 19, Type 0, BuildingBlock: XOMCOT_clean_sbu_1, # of connection points: 5
#     Node 20, Type 0, BuildingBlock: XOMCOT_clean_sbu_1, # of connection points: 5
#     Node 21, Type 0, BuildingBlock: XOMCOT_clean_sbu_1, # of connection points: 5
#     Node 22, Type 0, BuildingBlock: XOMCOT_clean_sbu_1, # of connection points: 5
#     Node 23, Type 0, BuildingBlock: XOMCOT_clean_sbu_1, # of connection points: 5
#     Node 24, Type 0, BuildingBlock: XOMCOT_clean_sbu_1, # of connection points: 5
#     Node 25, Type 0, BuildingBlock: XOMCOT_clean_sbu_1, # of connection points: 5
#     Node 26, Type 0, BuildingBlock: XOMCOT_clean_sbu_1, # of connection points: 5
#     Node 27, Type 0, BuildingBlock: XOMCOT_clean_sbu_1, # of connection points: 5
#     Node 28, Type 0, BuildingBlock: XOMCOT_clean_sbu_1, # of connection points: 5
#     Node 29, Type 0, BuildingBlock: XOMCOT_clean_sbu_1, # of connection points: 5
#     Node 30, Type 0, BuildingBlock: XOMCOT_clean_sbu_1, # of connection points: 5
#     Node 31, Type 0, BuildingBlock: XOMCOT_clean_sbu_1, # of connection points: 5
#     Node 32, Type 0, BuildingBlock: XOMCOT_clean_sbu_1, # of connection points: 5
#     Node 33, Type 0, BuildingBlock: XOMCOT_clean_sbu_1, # of connection points: 5
#     Node 34, Type 0, BuildingBlock: XOMCOT_clean_sbu_1, # of connection points: 5
#     Node 35, Type 0, BuildingBlock: XOMCOT_clean_sbu_1, # of connection points: 5
#     Node 36, Type 0, BuildingBlock: XOMCOT_clean_sbu_1, # of connection points: 5
#     Node 37, Type 0, BuildingBlock: XOMCOT_clean_sbu_1, # of connection points: 5
#     Node 38, Type 0, BuildingBlock: XOMCOT_clean_sbu_1, # of connection points: 5
#     Node 39, Type 0, BuildingBlock: XOMCOT_clean_sbu_1, # of connection points: 5
#     Node 40, Type 0, BuildingBlock: XOMCOT_clean_sbu_1, # of connection points: 5
#     Node 41, Type 0, BuildingBlock: XOMCOT_clean_sbu_1, # of connection points: 5
#     Node 42, Type 0, BuildingBlock: XOMCOT_clean_sbu_1, # of connection points: 5
#     Node 43, Type 0, BuildingBlock: XOMCOT_clean_sbu_1, # of connection points: 5
#     Node 44, Type 0, BuildingBlock: XOMCOT_clean_sbu_1, # of connection points: 5
#     Node 45, Type 0, BuildingBlock: XOMCOT_clean_sbu_1, # of connection points: 5
#     Node 46, Type 0, BuildingBlock: XOMCOT_clean_sbu_1, # of connection points: 5
#     Node 47, Type 0, BuildingBlock: XOMCOT_clean_sbu_1, # of connection points: 5
#     Edge 48, Type (0, 0), BuildingBlock: AJUNOK_clean_linker_0, # of connection points: 2
#     Edge 49, Type (0, 0), BuildingBlock: AJUNOK_clean_linker_0, # of connection points: 2
#     Edge 50, Type (0, 0), BuildingBlock: AJUNOK_clean_linker_0, # of connection points: 2
#     Edge 51, Type (0, 0), BuildingBlock: AJUNOK_clean_linker_0, # of connection points: 2
#     Edge 52, Type (0, 0), BuildingBlock: AJUNOK_clean_linker_0, # of connection points: 2
#     Edge 53, Type (0, 0), BuildingBlock: AJUNOK_clean_linker_0, # of connection points: 2
#     Edge 54, Type (0, 0), BuildingBlock: AJUNOK_clean_linker_0, # of connection points: 2
#     Edge 55, Type (0, 0), BuildingBlock: AJUNOK_clean_linker_0, # of connection points: 2
#     Edge 56, Type (0, 0), BuildingBlock: AJUNOK_clean_linker_0, # of connection points: 2
#     Edge 57, Type (0, 0), BuildingBlock: AJUNOK_clean_linker_0, # of connection points: 2
#     Edge 58, Type (0, 0), BuildingBlock: AJUNOK_clean_linker_0, # of connection points: 2
#     Edge 59, Type (0, 0), BuildingBlock: AJUNOK_clean_linker_0, # of connection points: 2
#     Edge 60, Type (0, 0), BuildingBlock: AJUNOK_clean_linker_0, # of connection points: 2
#     Edge 61, Type (0, 0), BuildingBlock: AJUNOK_clean_linker_0, # of connection points: 2
#     Edge 62, Type (0, 0), BuildingBlock: AJUNOK_clean_linker_0, # of connection points: 2
#     Edge 63, Type (0, 0), BuildingBlock: AJUNOK_clean_linker_0, # of connection points: 2
#     Edge 64, Type (0, 0), BuildingBlock: AJUNOK_clean_linker_0, # of connection points: 2
#     Edge 65, Type (0, 0), BuildingBlock: AJUNOK_clean_linker_0, # of connection points: 2
#     Edge 66, Type (0, 0), BuildingBlock: AJUNOK_clean_linker_0, # of connection points: 2
#     Edge 67, Type (0, 0), BuildingBlock: AJUNOK_clean_linker_0, # of connection points: 2
#     Edge 68, Type (0, 0), BuildingBlock: AJUNOK_clean_linker_0, # of connection points: 2
#     Edge 69, Type (0, 0), BuildingBlock: AJUNOK_clean_linker_0, # of connection points: 2
#     Edge 70, Type (0, 0), BuildingBlock: AJUNOK_clean_linker_0, # of connection points: 2
#     Edge 71, Type (0, 0), BuildingBlock: AJUNOK_clean_linker_0, # of connection points: 2
#     Edge 72, Type (0, 0), BuildingBlock: AJUNOK_clean_linker_0, # of connection points: 2
#     Edge 73, Type (0, 0), BuildingBlock: AJUNOK_clean_linker_0, # of connection points: 2
#     Edge 74, Type (0, 0), BuildingBlock: AJUNOK_clean_linker_0, # of connection points: 2
#     Edge 75, Type (0, 0), BuildingBlock: AJUNOK_clean_linker_0, # of connection points: 2
#     Edge 76, Type (0, 0), BuildingBlock: AJUNOK_clean_linker_0, # of connection points: 2
#     Edge 77, Type (0, 0), BuildingBlock: AJUNOK_clean_linker_0, # of connection points: 2
#     Edge 78, Type (0, 0), BuildingBlock: AJUNOK_clean_linker_0, # of connection points: 2
#     Edge 79, Type (0, 0), BuildingBlock: AJUNOK_clean_linker_0, # of connection points: 2
#     Edge 80, Type (0, 0), BuildingBlock: AJUNOK_clean_linker_0, # of connection points: 2
#     Edge 81, Type (0, 0), BuildingBlock: AJUNOK_clean_linker_0, # of connection points: 2
#     Edge 82, Type (0, 0), BuildingBlock: AJUNOK_clean_linker_0, # of connection points: 2
#     Edge 83, Type (0, 0), BuildingBlock: AJUNOK_clean_linker_0, # of connection points: 2
#     Edge 84, Type (0, 0), BuildingBlock: AJUNOK_clean_linker_0, # of connection points: 2
#     Edge 85, Type (0, 0), BuildingBlock: AJUNOK_clean_linker_0, # of connection points: 2
#     Edge 86, Type (0, 0), BuildingBlock: AJUNOK_clean_linker_0, # of connection points: 2
#     Edge 87, Type (0, 0), BuildingBlock: AJUNOK_clean_linker_0, # of connection points: 2
#     Edge 88, Type (0, 0), BuildingBlock: AJUNOK_clean_linker_0, # of connection points: 2
#     Edge 89, Type (0, 0), BuildingBlock: AJUNOK_clean_linker_0, # of connection points: 2
#     Edge 90, Type (0, 0), BuildingBlock: AJUNOK_clean_linker_0, # of connection points: 2
#     Edge 91, Type (0, 0), BuildingBlock: AJUNOK_clean_linker_0, # of connection points: 2
#     Edge 92, Type (0, 0), BuildingBlock: AJUNOK_clean_linker_0, # of connection points: 2
#     Edge 93, Type (0, 0), BuildingBlock: AJUNOK_clean_linker_0, # of connection points: 2
#     Edge 94, Type (0, 0), BuildingBlock: AJUNOK_clean_linker_0, # of connection points: 2
#     Edge 95, Type (0, 0), BuildingBlock: AJUNOK_clean_linker_0, # of connection points: 2
#     Edge 96, Type (0, 0), BuildingBlock: AJUNOK_clean_linker_0, # of connection points: 2
#     Edge 97, Type (0, 0), BuildingBlock: AJUNOK_clean_linker_0, # of connection points: 2
#     Edge 98, Type (0, 0), BuildingBlock: AJUNOK_clean_linker_0, # of connection points: 2
#     Edge 99, Type (0, 0), BuildingBlock: AJUNOK_clean_linker_0, # of connection points: 2
#     Edge 100, Type (0, 0), BuildingBlock: AJUNOK_clean_linker_0, # of connection points: 2
#     Edge 101, Type (0, 0), BuildingBlock: AJUNOK_clean_linker_0, # of connection points: 2
#     Edge 102, Type (0, 0), BuildingBlock: AJUNOK_clean_linker_0, # of connection points: 2
#     Edge 103, Type (0, 0), BuildingBlock: AJUNOK_clean_linker_0, # of connection points: 2
#     Edge 104, Type (0, 0), BuildingBlock: AJUNOK_clean_linker_0, # of connection points: 2
#     Edge 105, Type (0, 0), BuildingBlock: AJUNOK_clean_linker_0, # of connection points: 2
#     Edge 106, Type (0, 0), BuildingBlock: AJUNOK_clean_linker_0, # of connection points: 2
#     Edge 107, Type (0, 0), BuildingBlock: AJUNOK_clean_linker_0, # of connection points: 2
#     Edge 108, Type (0, 0), BuildingBlock: AJUNOK_clean_linker_0, # of connection points: 2
#     Edge 109, Type (0, 0), BuildingBlock: AJUNOK_clean_linker_0, # of connection points: 2
#     Edge 110, Type (0, 0), BuildingBlock: AJUNOK_clean_linker_0, # of connection points: 2
#     Edge 111, Type (0, 0), BuildingBlock: AJUNOK_clean_linker_0, # of connection points: 2
#     Edge 112, Type (0, 0), BuildingBlock: AJUNOK_clean_linker_0, # of connection points: 2
#     Edge 113, Type (0, 0), BuildingBlock: AJUNOK_clean_linker_0, # of connection points: 2
#     Edge 114, Type (0, 0), BuildingBlock: AJUNOK_clean_linker_0, # of connection points: 2
#     Edge 115, Type (0, 0), BuildingBlock: AJUNOK_clean_linker_0, # of connection points: 2
#     Edge 116, Type (0, 0), BuildingBlock: AJUNOK_clean_linker_0, # of connection points: 2
#     Edge 117, Type (0, 0), BuildingBlock: AJUNOK_clean_linker_0, # of connection points: 2
#     Edge 118, Type (0, 0), BuildingBlock: AJUNOK_clean_linker_0, # of connection points: 2
#     Edge 119, Type (0, 0), BuildingBlock: AJUNOK_clean_linker_0, # of connection points: 2
#     Edge 120, Type (0, 0), BuildingBlock: AJUNOK_clean_linker_0, # of connection points: 2
#     Edge 121, Type (0, 0), BuildingBlock: AJUNOK_clean_linker_0, # of connection points: 2
#     Edge 122, Type (0, 0), BuildingBlock: AJUNOK_clean_linker_0, # of connection points: 2
#     Edge 123, Type (0, 0), BuildingBlock: AJUNOK_clean_linker_0, # of connection points: 2
#     Edge 124, Type (0, 0), BuildingBlock: AJUNOK_clean_linker_0, # of connection points: 2
#     Edge 125, Type (0, 0), BuildingBlock: AJUNOK_clean_linker_0, # of connection points: 2
#     Edge 126, Type (0, 0), BuildingBlock: AJUNOK_clean_linker_0, # of connection points: 2
#     Edge 127, Type (0, 0), BuildingBlock: AJUNOK_clean_linker_0, # of connection points: 2
#     Edge 128, Type (0, 0), BuildingBlock: AJUNOK_clean_linker_0, # of connection points: 2
#     Edge 129, Type (0, 0), BuildingBlock: AJUNOK_clean_linker_0, # of connection points: 2
#     Edge 130, Type (0, 0), BuildingBlock: AJUNOK_clean_linker_0, # of connection points: 2
#     Edge 131, Type (0, 0), BuildingBlock: AJUNOK_clean_linker_0, # of connection points: 2
#     Edge 132, Type (0, 0), BuildingBlock: AJUNOK_clean_linker_0, # of connection points: 2
#     Edge 133, Type (0, 0), BuildingBlock: AJUNOK_clean_linker_0, # of connection points: 2
#     Edge 134, Type (0, 0), BuildingBlock: AJUNOK_clean_linker_0, # of connection points: 2
#     Edge 135, Type (0, 0), BuildingBlock: AJUNOK_clean_linker_0, # of connection points: 2
#     Edge 136, Type (0, 0), BuildingBlock: AJUNOK_clean_linker_0, # of connection points: 2
#     Edge 137, Type (0, 0), BuildingBlock: AJUNOK_clean_linker_0, # of connection points: 2
#     Edge 138, Type (0, 0), BuildingBlock: AJUNOK_clean_linker_0, # of connection points: 2
#     Edge 139, Type (0, 0), BuildingBlock: AJUNOK_clean_linker_0, # of connection points: 2
#     Edge 140, Type (0, 0), BuildingBlock: AJUNOK_clean_linker_0, # of connection points: 2
#     Edge 141, Type (0, 0), BuildingBlock: AJUNOK_clean_linker_0, # of connection points: 2
#     Edge 142, Type (0, 0), BuildingBlock: AJUNOK_clean_linker_0, # of connection points: 2
#     Edge 143, Type (0, 0), BuildingBlock: AJUNOK_clean_linker_0, # of connection points: 2
#     Edge 144, Type (0, 0), BuildingBlock: AJUNOK_clean_linker_0, # of connection points: 2
#     Edge 145, Type (0, 0), BuildingBlock: AJUNOK_clean_linker_0, # of connection points: 2
#     Edge 146, Type (0, 0), BuildingBlock: AJUNOK_clean_linker_0, # of connection points: 2
#     Edge 147, Type (0, 0), BuildingBlock: AJUNOK_clean_linker_0, # of connection points: 2
#     Edge 148, Type (0, 0), BuildingBlock: AJUNOK_clean_linker_0, # of connection points: 2
#     Edge 149, Type (0, 0), BuildingBlock: AJUNOK_clean_linker_0, # of connection points: 2
#     Edge 150, Type (0, 0), BuildingBlock: AJUNOK_clean_linker_0, # of connection points: 2
#     Edge 151, Type (0, 0), BuildingBlock: AJUNOK_clean_linker_0, # of connection points: 2
#     Edge 152, Type (0, 0), BuildingBlock: AJUNOK_clean_linker_0, # of connection points: 2
#     Edge 153, Type (0, 0), BuildingBlock: AJUNOK_clean_linker_0, # of connection points: 2
#     Edge 154, Type (0, 0), BuildingBlock: AJUNOK_clean_linker_0, # of connection points: 2
#     Edge 155, Type (0, 0), BuildingBlock: AJUNOK_clean_linker_0, # of connection points: 2
#     Edge 156, Type (0, 0), BuildingBlock: AJUNOK_clean_linker_0, # of connection points: 2
#     Edge 157, Type (0, 0), BuildingBlock: AJUNOK_clean_linker_0, # of connection points: 2
#     Edge 158, Type (0, 0), BuildingBlock: AJUNOK_clean_linker_0, # of connection points: 2
#     Edge 159, Type (0, 0), BuildingBlock: AJUNOK_clean_linker_0, # of connection points: 2
#     Edge 160, Type (0, 0), BuildingBlock: AJUNOK_clean_linker_0, # of connection points: 2
#     Edge 161, Type (0, 0), BuildingBlock: AJUNOK_clean_linker_0, # of connection points: 2
#     Edge 162, Type (0, 0), BuildingBlock: AJUNOK_clean_linker_0, # of connection points: 2
#     Edge 163, Type (0, 0), BuildingBlock: AJUNOK_clean_linker_0, # of connection points: 2
#     Edge 164, Type (0, 0), BuildingBlock: AJUNOK_clean_linker_0, # of connection points: 2
#     Edge 165, Type (0, 0), BuildingBlock: AJUNOK_clean_linker_0, # of connection points: 2
#     Edge 166, Type (0, 0), BuildingBlock: AJUNOK_clean_linker_0, # of connection points: 2
#     Edge 167, Type (0, 0), BuildingBlock: AJUNOK_clean_linker_0, # of connection points: 2
# Relax obj value: 0.588
# Max RMSD: 0.227
# Mean RMSD: 0.227
data_MOF--net-fch--node1-XOMCOT_clean_sbu_1--edge1-AJUNOK_clean_linker_0
_symmetry_space_group_name_H-M    P1
_symmetry_Int_Tables_number       1
_symmetry_cell_setting            triclinic
loop_
_symmetry_equiv_pos_as_xyz
'x, y, z'
_cell_length_a     60.255188
_cell_length_b     60.275112
_cell_length_c     60.238007
_cell_angle_alpha  90.001075
_cell_angle_beta   90.003252
_cell_angle_gamma 90.001763
loop_
_atom_site_label
_atom_site_type_symbol
_atom_site_fract_x
_atom_site_fract_y
_atom_site_fract_z
_atom_type_partial_charge
C0 C 0.01619 0.38306 0.13313 0.0
C1 C 0.99605 0.37731 0.12392 0.0
N2 N 0.98853 0.39465 0.11191 0.0
N3 N 0.02113 0.40401 0.12716 0.0
C4 C 0.00403 0.41062 0.1143 0.0
H5 H 0.0268 0.37254 0.14307 0.0
Co6 Co 0.04719 0.41924 0.13235 0.0
C7 C 0.0331 0.46544 0.1416 0.0
O8 O 0.04833 0.46622 0.15721 0.0
N9 N 0.07421 0.43485 0.13657 0.0
C10 C 0.1061 0.45013 0.14756 0.0
C11 C 0.09189 0.43245 0.15027 0.0
C12 C 0.0791 0.4532 0.12467 0.0
N13 N 0.09763 0.46339 0.13179 0.0
O14 O 0.05328 0.41875 0.10132 0.0
H15 H 0.0946 0.41908 0.1618 0.0
H16 H 0.06862 0.45955 0.11154 0.0
O17 O 0.0309 0.44785 0.12982 0.0
C18 C 0.06658 0.40288 0.09707 0.0
O19 O 0.07277 0.38991 0.11348 0.0
N20 N 0.04183 0.4178 0.16321 0.0
C21 C 0.04632 0.42428 0.20831 0.0
C22 C 0.02773 0.43277 0.19717 0.0
C23 C 0.02539 0.42867 0.17443 0.0
C24 C 0.05644 0.40504 0.17474 0.0
C25 C 0.05954 0.40855 0.1974 0.0
H26 H 0.01159 0.43599 0.16562 0.0
H27 H 0.06736 0.39386 0.1659 0.0
H28 H 0.00304 0.42688 0.10678 0.0
H29 H 0.98784 0.36142 0.12551 0.0
H30 H 0.12102 0.45341 0.15703 0.0
H31 H 0.01625 0.44386 0.20543 0.0
H32 H 0.0731 0.40036 0.20588 0.0
C33 C 0.61935 0.01636 0.13299 0.0
C34 C 0.62501 0.99584 0.1248 0.0
N35 N 0.60714 0.98716 0.11449 0.0
N36 N 0.59804 0.02062 0.12787 0.0
C37 C 0.59107 0.00267 0.11638 0.0
H38 H 0.63022 0.02776 0.1416 0.0
Co39 Co 0.58409 0.04724 0.13353 0.0
C40 C 0.53665 0.03742 0.14091 0.0
O41 O 0.53711 0.05146 0.15761 0.0
N42 N 0.57007 0.07506 0.13857 0.0
C43 C 0.55461 0.1059 0.15198 0.0
C44 C 0.57137 0.09065 0.15472 0.0
C45 C 0.55332 0.08226 0.12552 0.0
N46 N 0.54309 0.10038 0.13367 0.0
O47 O 0.58471 0.05391 0.10257 0.0
H48 H 0.58301 0.09096 0.16825 0.0
H49 H 0.54783 0.07343 0.11088 0.0
O50 O 0.55446 0.03324 0.13001 0.0
C51 C 0.59979 0.06762 0.09707 0.0
O52 O 0.6137 0.07441 0.11244 0.0
N53 N 0.58506 0.04094 0.16417 0.0
C54 C 0.57915 0.04553 0.2093 0.0
C55 C 0.56817 0.0285 0.1978 0.0
C56 C 0.57208 0.02592 0.17507 0.0
C57 C 0.5997 0.0535 0.1759 0.0
C58 C 0.59674 0.05646 0.19868 0.0
H59 H 0.56295 0.01341 0.16604 0.0
H60 H 0.61177 0.06352 0.16716 0.0
H61 H 0.57467 0.00113 0.10924 0.0
H62 H 0.64128 0.98829 0.1257 0.0
H63 H 0.55059 0.11917 0.16337 0.0
H64 H 0.55537 0.01867 0.2057 0.0
H65 H 0.6067 0.06863 0.20738 0.0
C66 C 0.98729 0.61621 0.13538 0.0
C67 C 0.00713 0.62216 0.1257 0.0
N68 N 0.01212 0.60707 0.10993 0.0
N69 N 0.98002 0.59728 0.12598 0.0
C70 C 0.99545 0.59213 0.11057 0.0
H71 H 0.97873 0.62508 0.14842 0.0
Co72 Co 0.95382 0.58223 0.1316 0.0
C73 C 0.9676 0.53605 0.14079 0.0
O74 O 0.95244 0.53563 0.15648 0.0
N75 N 0.92671 0.56691 0.13629 0.0
C76 C 0.89463 0.55226 0.14762 0.0
C77 C 0.90919 0.56969 0.15013 0.0
C78 C 0.92136 0.5486 0.12451 0.0
N79 N 0.9027 0.53877 0.13183 0.0
O80 O 0.94698 0.58264 0.10066 0.0
H81 H 0.90679 0.58318 0.16158 0.0
H82 H 0.93158 0.54208 0.11126 0.0
O83 O 0.96993 0.5535 0.1288 0.0
C84 C 0.93392 0.59876 0.09668 0.0
O85 O 0.92962 0.6127 0.1129 0.0
N86 N 0.9598 0.58356 0.16241 0.0
C87 C 0.95771 0.57818 0.20796 0.0
C88 C 0.97554 0.56926 0.19596 0.0
C89 C 0.97673 0.57287 0.17306 0.0
C90 C 0.94555 0.59631 0.17439 0.0
C91 C 0.94358 0.59326 0.19725 0.0
H92 H 0.99021 0.56554 0.16378 0.0
H93 H 0.93425 0.60736 0.16589 0.0
H94 H 0.99422 0.57788 0.0997 0.0
H95 H 0.01724 0.63628 0.13027 0.0
H96 H 0.87972 0.54933 0.1572 0.0
H97 H 0.98765 0.55865 0.20395 0.0
H98 H 0.93006 0.60123 0.20599 0.0
C99 C 0.38437 0.99067 0.13299 0.0
C100 C 0.37767 0.0093 0.1215 0.0
N101 N 0.38974 0.01084 0.10269 0.0
N102 N 0.40087 0.98072 0.12164 0.0
C103 C 0.40297 0.9928 0.10283 0.0
H104 H 0.37895 0.98597 0.14945 0.0
Co105 Co 0.42125 0.95898 0.13061 0.0
C106 C 0.44915 0.00039 0.12673 0.0
O107 O 0.43229 0.01364 0.13064 0.0
N108 N 0.44246 0.93754 0.13926 0.0
C109 C 0.47342 0.92425 0.15443 0.0
C110 C 0.45797 0.94075 0.1552 0.0
C111 C 0.4491 0.91872 0.129 0.0
N112 N 0.46821 0.91062 0.13762 0.0
O113 O 0.42327 0.94934 0.10023 0.0
H114 H 0.45968 0.95536 0.1653 0.0
H115 H 0.44114 0.91204 0.11439 0.0
O116 O 0.44625 0.97939 0.12659 0.0
C117 C 0.40726 0.93596 0.09658 0.0
O118 O 0.39369 0.93136 0.11303 0.0
N119 N 0.41731 0.96627 0.16082 0.0
C120 C 0.42225 0.95847 0.20587 0.0
C121 C 0.4306 0.978 0.19641 0.0
C122 C 0.42772 0.98181 0.17369 0.0
C123 C 0.40602 0.94924 0.17053 0.0
C124 C 0.4084 0.94489 0.19312 0.0
H125 H 0.43634 0.99562 0.1666 0.0
H126 H 0.39751 0.9373 0.16018 0.0
H127 H 0.41595 0.98994 0.09075 0.0
H128 H 0.36652 0.02192 0.12775 0.0
H129 H 0.48884 0.92395 0.16368 0.0
H130 H 0.44093 0.98915 0.20602 0.0
H131 H 0.40139 0.92982 0.19996 0.0
C132 C 0.00817 0.61185 0.85897 0.0
C133 C 0.98814 0.61707 0.86868 0.0
N134 N 0.98413 0.60225 0.88497 0.0
N135 N 0.01652 0.59367 0.86893 0.0
C136 C 0.00152 0.5882 0.88464 0.0
H137 H 0.01622 0.62082 0.84567 0.0
Co138 Co 0.04359 0.58011 0.86427 0.0
C139 C 0.03237 0.53234 0.85825 0.0
O140 O 0.04783 0.53083 0.84291 0.0
N141 N 0.07145 0.56649 0.86045 0.0
C142 C 0.1052 0.55426 0.85131 0.0
C143 C 0.08902 0.56977 0.84679 0.0
C144 C 0.07799 0.54975 0.87373 0.0
N145 N 0.09811 0.54178 0.86835 0.0
O146 O 0.04967 0.58159 0.89547 0.0
H147 H 0.09047 0.5825 0.83433 0.0
H148 H 0.06754 0.54273 0.88652 0.0
O149 O 0.0291 0.55086 0.86816 0.0
C150 C 0.05868 0.59949 0.90213 0.0
O151 O 0.06118 0.61575 0.88781 0.0
N152 N 0.03821 0.57992 0.83334 0.0
C153 C 0.04208 0.57398 0.7879 0.0
C154 C 0.02547 0.56285 0.79979 0.0
C155 C 0.02321 0.56678 0.82255 0.0
C156 C 0.05132 0.59391 0.8214 0.0
C157 C 0.05404 0.59081 0.79861 0.0
H158 H 0.01039 0.55813 0.83158 0.0
H159 H 0.0613 0.60614 0.82995 0.0
H160 H 0.00366 0.57451 0.89608 0.0
H161 H 0.97732 0.63059 0.86395 0.0
H162 H 0.1209 0.5523 0.8428 0.0
H163 H 0.01504 0.55058 0.79179 0.0
H164 H 0.06656 0.60032 0.78989 0.0
C165 C 0.3869 0.01241 0.87041 0.0
C166 C 0.38288 0.99185 0.87956 0.0
N167 N 0.40086 0.98573 0.89144 0.0
N168 N 0.40741 0.01904 0.87629 0.0
C169 C 0.41547 0.00251 0.88909 0.0
H170 H 0.37555 0.02208 0.86042 0.0
Co171 Co 0.42063 0.04603 0.87044 0.0
C172 C 0.46798 0.03457 0.86176 0.0
O173 O 0.46828 0.04976 0.84609 0.0
N174 N 0.43412 0.07405 0.86542 0.0
C175 C 0.44666 0.10649 0.85271 0.0
C176 C 0.42987 0.09105 0.85134 0.0
C177 C 0.45252 0.08064 0.87637 0.0
N178 N 0.46109 0.09958 0.86823 0.0
O179 O 0.41948 0.05294 0.90136 0.0
H180 H 0.41595 0.09234 0.84022 0.0
H181 H 0.46041 0.07088 0.88922 0.0
O182 O 0.45037 0.03182 0.87339 0.0
C183 C 0.4022 0.06461 0.90487 0.0
O184 O 0.38886 0.06872 0.8881 0.0
N185 N 0.4197 0.03972 0.83972 0.0
C186 C 0.42483 0.04211 0.79421 0.0
C187 C 0.43517 0.02508 0.80621 0.0
C188 C 0.43174 0.0237 0.82912 0.0
C189 C 0.40568 0.05271 0.8277 0.0
C190 C 0.40846 0.05478 0.80479 0.0
H191 H 0.44007 0.01083 0.8384 0.0
H192 H 0.39372 0.06306 0.83617 0.0
H193 H 0.43182 0.00277 0.89646 0.0
H194 H 0.36775 0.98231 0.87793 0.0
H195 H 0.44872 0.12092 0.84222 0.0
H196 H 0.44667 0.01383 0.79819 0.0
H197 H 0.39917 0.06731 0.79586 0.0
C198 C 0.98459 0.38092 0.86564 0.0
C199 C 0.00466 0.37537 0.87505 0.0
N200 N 0.01186 0.39278 0.88714 0.0
N201 N 0.97936 0.40181 0.87155 0.0
C202 C 0.99622 0.40861 0.88463 0.0
H203 H 0.97423 0.3703 0.85553 0.0
Co204 Co 0.95306 0.4162 0.86552 0.0
C205 C 0.96512 0.46365 0.85912 0.0
O206 O 0.95026 0.46503 0.84321 0.0
N207 N 0.92571 0.4306 0.86024 0.0
C208 C 0.89305 0.44383 0.84874 0.0
C209 C 0.9093 0.42822 0.845 0.0
C210 C 0.91833 0.44698 0.87359 0.0
N211 N 0.89885 0.45541 0.86684 0.0
O212 O 0.94585 0.41534 0.89635 0.0
H213 H 0.90866 0.4161 0.83191 0.0
H214 H 0.92768 0.45342 0.88753 0.0
O215 O 0.96793 0.44527 0.86943 0.0
C216 C 0.93206 0.40018 0.90143 0.0
O217 O 0.92555 0.38646 0.88576 0.0
N218 N 0.95984 0.4156 0.83495 0.0
C219 C 0.9578 0.42136 0.78944 0.0
C220 C 0.97433 0.43206 0.80185 0.0
C221 C 0.97562 0.42823 0.82469 0.0
C222 C 0.94708 0.40164 0.82262 0.0
C223 C 0.94522 0.40471 0.79974 0.0
H224 H 0.98824 0.43666 0.8342 0.0
H225 H 0.93641 0.3898 0.83088 0.0
H226 H 0.99697 0.42487 0.89217 0.0
H227 H 0.01307 0.35958 0.87351 0.0
H228 H 0.87821 0.44651 0.83898 0.0
H229 H 0.98527 0.44411 0.79422 0.0
H230 H 0.93269 0.39553 0.79069 0.0
C231 C 0.61841 0.97865 0.86916 0.0
C232 C 0.62466 0.9986 0.87837 0.0
N233 N 0.60691 0.00745 0.88873 0.0
N234 N 0.59678 0.9751 0.87349 0.0
C235 C 0.59021 0.99288 0.88542 0.0
H236 H 0.62898 0.96727 0.86017 0.0
Co237 Co 0.58111 0.9498 0.8663 0.0
C238 C 0.53434 0.96462 0.85922 0.0
O239 O 0.53236 0.94989 0.84327 0.0
N240 N 0.56545 0.9234 0.85957 0.0
C241 C 0.55115 0.8923 0.84546 0.0
C242 C 0.56798 0.9076 0.84377 0.0
C243 C 0.54775 0.9164 0.87138 0.0
N244 N 0.53836 0.89803 0.86279 0.0
O245 O 0.58099 0.94139 0.89691 0.0
H246 H 0.58106 0.90671 0.83166 0.0
H247 H 0.54147 0.92508 0.8858 0.0
O248 O 0.55266 0.96619 0.86995 0.0
C249 C 0.59652 0.9276 0.90082 0.0
O250 O 0.61017 0.92265 0.88455 0.0
N251 N 0.58301 0.95745 0.83603 0.0
C252 C 0.57727 0.95381 0.79088 0.0
C253 C 0.56713 0.97127 0.80243 0.0
C254 C 0.57082 0.97323 0.82527 0.0
C255 C 0.59727 0.94455 0.82422 0.0
C256 C 0.59425 0.94193 0.80142 0.0
H257 H 0.56238 0.98612 0.83439 0.0
H258 H 0.60884 0.93391 0.83289 0.0
H259 H 0.57347 0.99517 0.89145 0.0
H260 H 0.64108 0.00586 0.8778 0.0
H261 H 0.54837 0.8784 0.83445 0.0
H262 H 0.55506 0.98189 0.79442 0.0
H263 H 0.60353 0.92927 0.79265 0.0
C264 C 0.13399 0.01705 0.38161 0.0
C265 C 0.12331 0.99854 0.37338 0.0
N266 N 0.1096 0.9907 0.38924 0.0
N267 N 0.12723 0.02055 0.40264 0.0
C268 C 0.11236 0.00434 0.40674 0.0
H269 H 0.14602 0.02717 0.37296 0.0
Co270 Co 0.13561 0.04274 0.42213 0.0
C271 C 0.11834 0.02535 0.46427 0.0
O272 O 0.10647 0.04343 0.4668 0.0
N273 N 0.1441 0.06505 0.44244 0.0
C274 C 0.15795 0.0798 0.47333 0.0
C275 C 0.16005 0.06311 0.45813 0.0
C276 C 0.13292 0.08357 0.44832 0.0
N277 N 0.14047 0.09235 0.46754 0.0
O278 O 0.10544 0.05269 0.42283 0.0
H279 H 0.17109 0.04921 0.46011 0.0
H280 H 0.11833 0.08947 0.43978 0.0
O281 O 0.13053 0.02304 0.44709 0.0
C282 C 0.1003 0.06549 0.40683 0.0
O283 O 0.11564 0.07032 0.39209 0.0
N284 N 0.16519 0.03395 0.41981 0.0
C285 C 0.21058 0.03545 0.42608 0.0
C286 C 0.19814 0.018 0.43514 0.0
C287 C 0.17525 0.01719 0.43131 0.0
C288 C 0.17744 0.04918 0.4085 0.0
C289 C 0.20032 0.05026 0.41143 0.0
H290 H 0.16554 0.00464 0.43959 0.0
H291 H 0.1691 0.06207 0.39918 0.0
H292 H 0.10414 0.00222 0.42255 0.0
H293 H 0.12557 0.99131 0.35709 0.0
H294 H 0.16683 0.08088 0.48892 0.0
H295 H 0.20574 0.00615 0.44633 0.0
H296 H 0.20952 0.06387 0.40411 0.0
C297 C 0.98766 0.12927 0.3843 0.0
C298 C 0.00818 0.1202 0.38001 0.0
N299 N 0.01528 0.10961 0.39842 0.0
N300 N 0.98189 0.1246 0.40536 0.0
C301 C 0.99898 0.11259 0.41354 0.0
H302 H 0.97741 0.13839 0.37272 0.0
Co303 Co 0.95491 0.13171 0.41828 0.0
C304 C 0.96335 0.13055 0.46783 0.0
O305 O 0.94729 0.14458 0.47232 0.0
N306 N 0.92699 0.13845 0.43091 0.0
C307 C 0.89677 0.15464 0.44494 0.0
C308 C 0.91405 0.15686 0.43024 0.0
C309 C 0.91618 0.1248 0.44501 0.0
N310 N 0.89824 0.13445 0.4541 0.0
O311 O 0.9458 0.10154 0.41549 0.0
H312 H 0.91697 0.17154 0.4206 0.0
H313 H 0.92268 0.10895 0.45043 0.0
O314 O 0.96742 0.12504 0.44771 0.0
C315 C 0.93585 0.09598 0.39773 0.0
O316 O 0.93373 0.11078 0.38185 0.0
N317 N 0.96367 0.16169 0.41994 0.0
C318 C 0.95991 0.20664 0.42783 0.0
C319 C 0.97351 0.19355 0.44139 0.0
C320 C 0.97561 0.17098 0.4368 0.0
C321 C 0.9548 0.17493 0.4039 0.0
C322 C 0.95231 0.19767 0.40773 0.0
H323 H 0.98563 0.16105 0.4477 0.0
H324 H 0.94662 0.16744 0.38977 0.0
H325 H 0.9995 0.10622 0.43028 0.0
H326 H 0.01701 0.12102 0.36439 0.0
H327 H 0.88475 0.16722 0.44941 0.0
H328 H 0.98109 0.20033 0.45622 0.0
H329 H 0.9424 0.20745 0.39636 0.0
C330 C 0.86093 0.98887 0.38412 0.0
C331 C 0.8689 0.00969 0.37906 0.0
N332 N 0.88591 0.01425 0.39287 0.0
N333 N 0.8727 0.98053 0.4012 0.0
C334 C 0.88778 0.99633 0.40615 0.0
H335 H 0.84749 0.98034 0.37584 0.0
Co336 Co 0.87006 0.95281 0.41409 0.0
C337 C 0.87072 0.96191 0.46314 0.0
O338 O 0.85642 0.94582 0.46667 0.0
N339 N 0.86814 0.92419 0.42688 0.0
C340 C 0.85834 0.8912 0.44037 0.0
C341 C 0.85329 0.90743 0.42515 0.0
C342 C 0.88294 0.91674 0.44194 0.0
N343 N 0.87686 0.89732 0.4512 0.0
O344 O 0.90075 0.94734 0.4086 0.0
H345 H 0.83908 0.90697 0.41433 0.0
H346 H 0.89709 0.92638 0.44736 0.0
O347 O 0.87719 0.9661 0.44329 0.0
C348 C 0.90401 0.93501 0.39177 0.0
O349 O 0.88692 0.92977 0.37927 0.0
N350 N 0.83942 0.95768 0.41819 0.0
C351 C 0.79471 0.95303 0.42782 0.0
C352 C 0.80757 0.96869 0.43925 0.0
C353 C 0.82993 0.97124 0.43369 0.0
C354 C 0.82625 0.94581 0.40421 0.0
C355 C 0.80383 0.94272 0.40905 0.0
H356 H 0.83967 0.98336 0.44256 0.0
H357 H 0.83366 0.9369 0.39049 0.0
H358 H 0.90027 0.99452 0.41894 0.0
H359 H 0.86247 0.02068 0.3664 0.0
H360 H 0.84813 0.87697 0.44434 0.0
H361 H 0.80065 0.97821 0.45284 0.0
H362 H 0.79424 0.93118 0.39916 0.0
C363 C 0.01403 0.8635 0.38068 0.0
C364 C 0.99434 0.87182 0.37264 0.0
N365 N 0.98759 0.8883 0.38617 0.0
N366 N 0.01965 0.87443 0.39941 0.0
C367 C 0.00363 0.89 0.40169 0.0
H368 H 0.02372 0.85073 0.37277 0.0
Co369 Co 0.04534 0.8721 0.41694 0.0
C370 C 0.0092 0.87476 0.45057 0.0
O371 O 0.9975 0.8609 0.43846 0.0
N372 N 0.07107 0.87035 0.4335 0.0
C373 C 0.10304 0.85857 0.44757 0.0
C374 C 0.08854 0.85678 0.42998 0.0
C375 C 0.07556 0.8807 0.45275 0.0
N376 N 0.09464 0.87355 0.46184 0.0
O377 O 0.05148 0.90244 0.41106 0.0
H378 H 0.09024 0.84577 0.41591 0.0
H379 H 0.06472 0.89275 0.4604 0.0
O380 O 0.02842 0.88075 0.44372 0.0
C381 C 0.06513 0.90624 0.39541 0.0
O382 O 0.07276 0.88935 0.38391 0.0
N383 N 0.04095 0.84147 0.42259 0.0
C384 C 0.04935 0.79674 0.43175 0.0
C385 C 0.04262 0.8112 0.44857 0.0
C386 C 0.03917 0.83351 0.44382 0.0
C387 C 0.04707 0.82745 0.40589 0.0
C388 C 0.05115 0.80497 0.41004 0.0
H389 H 0.03746 0.84444 0.45783 0.0
H390 H 0.05129 0.83407 0.38979 0.0
H391 H 0.00353 0.90221 0.41485 0.0
H392 H 0.98599 0.86641 0.3577 0.0
H393 H 0.11838 0.84949 0.4498 0.0
H394 H 0.04151 0.80565 0.46564 0.0
H395 H 0.05733 0.7946 0.39673 0.0
C396 C 0.13467 0.98803 0.62072 0.0
C397 C 0.12711 0.00889 0.62616 0.0
N398 N 0.11446 0.01642 0.60929 0.0
N399 N 0.12683 0.9825 0.60055 0.0
C400 C 0.11442 -2e-05 0.5941 0.0
H401 H 0.14468 0.97729 0.63105 0.0
Co402 Co 0.13009 0.95539 0.58681 0.0
C403 C 0.13219 0.9652 0.53829 0.0
O404 O 0.14772 0.95005 0.53607 0.0
N405 N 0.13258 0.92721 0.57312 0.0
C406 C 0.14292 0.89503 0.55811 0.0
C407 C 0.14771 0.91063 0.57409 0.0
C408 C 0.11801 0.9203 0.55756 0.0
N409 N 0.12435 0.90139 0.5475 0.0
O410 O 0.09925 0.9499 0.59091 0.0
H411 H 0.16196 0.90992 0.58483 0.0
H412 H 0.10379 0.93001 0.55246 0.0
O413 O 0.12405 0.96919 0.55756 0.0
C414 C 0.09507 0.93724 0.60727 0.0
O415 O 0.11164 0.93056 0.61978 0.0
N416 N 0.16079 0.96058 0.58426 0.0
C417 C 0.20615 0.95799 0.57702 0.0
C418 C 0.19337 0.97387 0.5658 0.0
C419 C 0.17067 0.97542 0.57024 0.0
C420 C 0.17354 0.94816 0.59814 0.0
C421 C 0.19626 0.946 0.59436 0.0
H422 H 0.16099 0.98772 0.56154 0.0
H423 H 0.16567 0.93818 0.61083 0.0
H424 H 0.10517 0.0005 0.57872 0.0
H425 H 0.13003 0.01742 0.64169 0.0
H426 H 0.15332 0.88111 0.55359 0.0
H427 H 0.20067 0.98431 0.55311 0.0
H428 H 0.20554 0.93387 0.60382 0.0
C429 C 0.0122 0.13577 0.61841 0.0
C430 C 0.99225 0.12607 0.62406 0.0
N431 N 0.98698 0.11098 0.60837 0.0
N432 N 0.01925 0.12703 0.5991 0.0
C433 C 0.00375 0.11187 0.59357 0.0
H434 H 0.02092 0.14839 0.62771 0.0
Co435 Co 0.04496 0.13301 0.58346 0.0
C436 C 0.0307 0.13364 0.53548 0.0
O437 O 0.04573 0.14862 0.53048 0.0
N438 N 0.07154 0.13834 0.56765 0.0
C439 C 0.1018 0.15208 0.55144 0.0
C440 C 0.0866 0.15498 0.56821 0.0
C441 C 0.07905 0.1248 0.55146 0.0
N442 N 0.09667 0.13328 0.5406 0.0
O443 O 0.05338 0.10264 0.58615 0.0
H444 H 0.08686 0.16858 0.57976 0.0
H445 H 0.07109 0.10928 0.54729 0.0
O446 O 0.02895 0.12659 0.55547 0.0
C447 C 0.06738 0.09973 0.6017 0.0
O448 O 0.07249 0.11676 0.61433 0.0
N449 N 0.03745 0.16332 0.58236 0.0
C450 C 0.04414 0.20769 0.57353 0.0
C451 C 0.02783 0.19588 0.56188 0.0
C452 C 0.02418 0.17359 0.56713 0.0
C453 C 0.04927 0.17576 0.59705 0.0
C454 C 0.05317 0.19816 0.59274 0.0
H455 H 0.01204 0.16444 0.55773 0.0
H456 H 0.05839 0.16762 0.61021 0.0
H457 H 0.00459 0.10199 0.57864 0.0
H458 H 0.98237 0.12991 0.63857 0.0
H459 H 0.11516 0.1633 0.54718 0.0
H460 H 0.01941 0.20311 0.54773 0.0
H461 H 0.06485 0.20721 0.60297 0.0
C462 C 0.86318 0.01479 0.61371 0.0
C463 C 0.87083 0.9943 0.62038 0.0
N464 N 0.88506 0.9867 0.60486 0.0
N465 N 0.87251 0.01998 0.59407 0.0
C466 C 0.88599 0.00274 0.58929 0.0
H467 H 0.85176 0.02534 0.62267 0.0
Co468 Co 0.86878 0.04582 0.57797 0.0
C469 C 0.86728 0.02908 0.53066 0.0
O470 O 0.8514 0.04296 0.52518 0.0
N471 N 0.86556 0.07268 0.56213 0.0
C472 C 0.85653 0.10726 0.55233 0.0
C473 C 0.85464 0.09127 0.56851 0.0
C474 C 0.87515 0.07849 0.54271 0.0
N475 N 0.86907 0.09887 0.53599 0.0
O476 O 0.89954 0.05224 0.58118 0.0
H477 H 0.84618 0.09352 0.58411 0.0
H478 H 0.8866 0.06812 0.53359 0.0
O479 O 0.87489 0.02885 0.55049 0.0
C480 C 0.90314 0.06568 0.59709 0.0
O481 O 0.88624 0.07203 0.60933 0.0
N482 N 0.83796 0.04048 0.57627 0.0
C483 C 0.79298 0.04598 0.56851 0.0
C484 C 0.80467 0.02882 0.55798 0.0
C485 C 0.8272 0.02585 0.56272 0.0
C486 C 0.82595 0.05413 0.58966 0.0
C487 C 0.80343 0.05759 0.58572 0.0
H488 H 0.83603 0.01262 0.55457 0.0
H489 H 0.83427 0.06368 0.60236 0.0
H490 H 0.89629 0.00191 0.57461 0.0
H491 H 0.86658 0.98593 0.63569 0.0
H492 H 0.84914 0.12364 0.55242 0.0
H493 H 0.79671 0.01845 0.54564 0.0
H494 H 0.79472 0.07029 0.59501 0.0
C495 C 0.98784 0.86329 0.61562 0.0
C496 C 0.0066 0.87312 0.62408 0.0
N497 N 0.01107 0.89149 0.61209 0.0
N498 N 0.98059 0.87514 0.5981 0.0
C499 C 0.99461 0.89259 0.59688 0.0
H500 H 0.98011 0.84842 0.62194 0.0
Co501 Co 0.9553 0.87002 0.58109 0.0
C502 C 0.99019 0.87944 0.54493 0.0
O503 O 0.00753 0.87397 0.55696 0.0
N504 N 0.92951 0.86528 0.56478 0.0
C505 C 0.89832 0.85186 0.55022 0.0
C506 C 0.913 0.85037 0.5677 0.0
C507 C 0.9239 0.8763 0.54621 0.0
N508 N 0.90546 0.86811 0.53671 0.0
O509 O 0.94661 0.90017 0.58522 0.0
H510 H 0.91164 0.839 0.58148 0.0
H511 H 0.9336 0.88974 0.5393 0.0
O512 O 0.97067 0.8782 0.55323 0.0
C513 C 0.93152 0.90284 0.59976 0.0
O514 O 0.92511 0.88552 0.61135 0.0
N515 N 0.9624 0.83969 0.57764 0.0
C516 C 0.95449 0.79509 0.56864 0.0
C517 C 0.96763 0.80782 0.55437 0.0
C518 C 0.97114 0.83017 0.55898 0.0
C519 C 0.95229 0.82673 0.5932 0.0
C520 C 0.94793 0.80436 0.58895 0.0
H521 H 0.97933 0.83963 0.54642 0.0
H522 H 0.94509 0.8344 0.60775 0.0
H523 H 0.99328 0.90521 0.58422 0.0
H524 H 0.01637 0.86696 0.63783 0.0
H525 H 0.88362 0.84186 0.54768 0.0
H526 H 0.97389 0.80097 0.53896 0.0
H527 H 0.93791 0.79503 0.60059 0.0
C528 C 0.38196 0.13408 0.01355 0.0
C529 C 0.37319 0.12387 0.99504 0.0
N530 N 0.38621 0.10645 0.98965 0.0
N531 N 0.40048 0.12318 0.01969 0.0
C532 C 0.40178 0.10574 0.00568 0.0
H533 H 0.37595 0.14917 0.02116 0.0
Co534 Co 0.42212 0.13077 0.04062 0.0
C535 C 0.44851 0.12646 0.99805 0.0
O536 O 0.43179 0.13263 0.98548 0.0
N537 N 0.44424 0.13812 0.06139 0.0
C538 C 0.475 0.15333 0.07495 0.0
C539 C 0.46011 0.15362 0.05795 0.0
C540 C 0.4503 0.12828 0.08065 0.0
N541 N 0.469 0.13733 0.08924 0.0
O542 O 0.42317 0.10019 0.04958 0.0
H543 H 0.4622 0.16329 0.04309 0.0
H544 H 0.44215 0.11379 0.08744 0.0
O545 O 0.44622 0.12581 0.01914 0.0
C546 C 0.4059 0.0955 0.06096 0.0
O547 O 0.39188 0.11157 0.06552 0.0
N548 N 0.41915 0.16121 0.03386 0.0
C549 C 0.42264 0.20664 0.04064 0.0
C550 C 0.43187 0.19687 0.02168 0.0
C551 C 0.42971 0.17402 0.01838 0.0
C552 C 0.40775 0.17095 0.05081 0.0
C553 C 0.40936 0.1937 0.05461 0.0
H554 H 0.43898 0.16689 0.00502 0.0
H555 H 0.39933 0.16062 0.06284 0.0
H556 H 0.41561 0.09428 0.00562 0.0
H557 H 0.35905 0.12967 0.98561 0.0
H558 H 0.49047 0.16247 0.07538 0.0
H559 H 0.4421 0.2065 0.01046 0.0
H560 H 0.40198 0.20067 0.06945 0.0
C561 C 0.38416 0.86615 0.9884 0.0
C562 C 0.37654 0.87674 0.0072 0.0
N563 N 0.39045 0.89364 0.01203 0.0
N564 N 0.40284 0.87629 0.98149 0.0
C565 C 0.4054 0.8937 0.9954 0.0
H566 H 0.37737 0.85118 0.98121 0.0
Co567 Co 0.42371 0.86736 0.96035 0.0
C568 C 0.45075 0.86997 0.00252 0.0
O569 O 0.43389 0.86486 0.0154 0.0
N570 N 0.44507 0.85878 0.93941 0.0
C571 C 0.47603 0.84403 0.92594 0.0
C572 C 0.46183 0.84448 0.94356 0.0
C573 C 0.44961 0.86688 0.919 0.0
N574 N 0.4685 0.85825 0.91048 0.0
O575 O 0.42652 0.89761 0.95121 0.0
H576 H 0.46491 0.83634 0.95919 0.0
H577 H 0.44028 0.88004 0.91117 0.0
O578 O 0.44811 0.87106 0.98151 0.0
C579 C 0.41108 0.90213 0.93745 0.0
O580 O 0.39692 0.88635 0.93231 0.0
N581 N 0.4194 0.83708 0.96715 0.0
C582 C 0.4235 0.79209 0.95821 0.0
C583 C 0.43305 0.80115 0.97735 0.0
C584 C 0.43058 0.82376 0.98175 0.0
C585 C 0.40748 0.82786 0.95026 0.0
C586 C 0.4094 0.80532 0.94536 0.0
H587 H 0.44013 0.83039 0.99516 0.0
H588 H 0.39866 0.83856 0.93885 0.0
H589 H 0.41976 0.9045 0.99501 0.0
H590 H 0.36267 0.87145 0.01731 0.0
H591 H 0.49204 0.83587 0.92572 0.0
H592 H 0.44384 0.79125 0.98778 0.0
H593 H 0.40169 0.79886 0.93045 0.0
C594 C 0.13459 0.38109 0.98685 0.0
C595 C 0.12528 0.37569 0.00705 0.0
N596 N 0.11031 0.39147 0.01242 0.0
N597 N 0.12574 0.40032 0.97976 0.0
C598 C 0.11088 0.40605 0.99548 0.0
H599 H 0.14708 0.37171 0.978 0.0
Co600 Co 0.13114 0.41589 0.95394 0.0
C601 C 0.13497 0.46338 0.96865 0.0
O602 O 0.15008 0.46728 0.95341 0.0
N603 N 0.13576 0.43178 0.92726 0.0
C604 C 0.14833 0.44849 0.89676 0.0
C605 C 0.15166 0.4313 0.91138 0.0
C606 C 0.12223 0.44843 0.92083 0.0
N607 N 0.13002 0.45956 0.90307 0.0
O608 O 0.10034 0.41429 0.94688 0.0
H609 H 0.16521 0.41973 0.91033 0.0
H610 H 0.10732 0.45284 0.92978 0.0
O611 O 0.12641 0.444 0.97038 0.0
C612 C 0.0959 0.39892 0.93311 0.0
O613 O 0.1121 0.38583 0.92665 0.0
N614 N 0.16177 0.41593 0.96024 0.0
C615 C 0.20667 0.42297 0.9546 0.0
C616 C 0.19526 0.43387 0.9717 0.0
C617 C 0.17268 0.42952 0.97474 0.0
C618 C 0.17358 0.40171 0.94727 0.0
C619 C 0.19619 0.40523 0.94379 0.0
H620 H 0.16385 0.43832 0.98759 0.0
H621 H 0.16491 0.38954 0.93732 0.0
H622 H 0.10101 0.42097 0.99463 0.0
H623 H 0.1293 0.36132 0.01704 0.0
H624 H 0.15917 0.4531 0.88318 0.0
H625 H 0.20317 0.4468 0.98137 0.0
H626 H 0.20485 0.39553 0.93138 0.0
C627 C 0.61638 0.13004 0.9829 0.0
C628 C 0.62132 0.12186 0.00361 0.0
N629 N 0.60347 0.11076 0.0113 0.0
N630 N 0.59546 0.12431 0.97761 0.0
C631 C 0.58796 0.11257 0.99518 0.0
H632 H 0.62746 0.13912 0.9721 0.0
Co633 Co 0.583 0.12958 0.95019 0.0
C634 C 0.53442 0.13326 0.95716 0.0
O635 O 0.53397 0.14984 0.94299 0.0
N636 N 0.57096 0.13423 0.92144 0.0
C637 C 0.5596 0.14676 0.88847 0.0
C638 C 0.57456 0.14967 0.90548 0.0
C639 C 0.55494 0.12119 0.91273 0.0
N640 N 0.54716 0.12895 0.89331 0.0
O641 O 0.5859 0.09896 0.94318 0.0
H642 H 0.58682 0.16264 0.90587 0.0
H643 H 0.54774 0.10721 0.92143 0.0
O644 O 0.55285 0.12389 0.96219 0.0
C645 C 0.60198 0.0936 0.93061 0.0
O646 O 0.61591 0.10915 0.92429 0.0
N647 N 0.58122 0.16 0.95716 0.0
C648 C 0.57298 0.20509 0.95606 0.0
C649 C 0.56205 0.19162 0.97157 0.0
C650 C 0.56693 0.16899 0.97229 0.0
C651 C 0.59536 0.17349 0.94588 0.0
C652 C 0.59109 0.19619 0.94445 0.0
H653 H 0.5581 0.1586 0.98392 0.0
H654 H 0.60864 0.16631 0.93616 0.0
H655 H 0.5715 0.10549 0.99607 0.0
H656 H 0.63706 0.12348 0.01212 0.0
H657 H 0.55756 0.15729 0.87406 0.0
H658 H 0.5491 0.19824 0.98213 0.0
H659 H 0.60075 0.20622 0.93309 0.0
C660 C 0.86703 0.61613 0.98444 0.0
C661 C 0.87545 0.62211 0.00482 0.0
N662 N 0.88648 0.60459 0.01333 0.0
N663 N 0.87275 0.59497 0.98015 0.0
C664 C 0.88472 0.58843 0.99792 0.0
H665 H 0.85787 0.62667 0.97316 0.0
Co666 Co 0.86756 0.57984 0.95401 0.0
C667 C 0.85909 0.53312 0.96806 0.0
O668 O 0.84344 0.53165 0.95292 0.0
N669 N 0.86313 0.56466 0.92697 0.0
C670 C 0.85202 0.55087 0.89447 0.0
C671 C 0.84951 0.56797 0.90939 0.0
C672 C 0.87475 0.54634 0.92142 0.0
N673 N 0.86759 0.53705 0.90242 0.0
O674 O 0.89854 0.5798 0.94787 0.0
H675 H 0.83832 0.58171 0.90714 0.0
H676 H 0.8879 0.53956 0.93158 0.0
O677 O 0.87012 0.55118 0.97018 0.0
C678 C 0.90471 0.59743 0.93802 0.0
O679 O 0.8901 0.61336 0.93514 0.0
N680 N 0.83672 0.58149 0.95935 0.0
C681 C 0.79134 0.57643 0.95461 0.0
C682 C 0.80247 0.56632 0.97242 0.0
C683 C 0.82526 0.56984 0.97503 0.0
C684 C 0.82549 0.59526 0.94543 0.0
C685 C 0.80272 0.59256 0.94227 0.0
H686 H 0.83383 0.56171 0.98849 0.0
H687 H 0.8346 0.60673 0.93505 0.0
H688 H 0.89228 0.57222 0.99945 0.0
H689 H 0.87419 0.63835 0.01236 0.0
H690 H 0.84267 0.54845 0.87932 0.0
H691 H 0.7942 0.55452 0.98312 0.0
H692 H 0.79447 0.60182 0.92925 0.0
C693 C 0.62067 0.86812 0.01583 0.0
C694 C 0.62516 0.87557 0.9947 0.0
N695 N 0.60675 0.88539 0.9866 0.0
N696 N 0.59956 0.87325 0.021 0.0
C697 C 0.59158 0.88399 0.00302 0.0
H698 H 0.63212 0.85983 0.02689 0.0
Co699 Co 0.5862 0.86786 0.04805 0.0
C700 C 0.53912 0.85873 0.0389 0.0
O701 O 0.5409 0.84208 0.05289 0.0
N702 N 0.57239 0.86327 0.07621 0.0
C703 C 0.55528 0.85072 0.10658 0.0
C704 C 0.57261 0.8473 0.09205 0.0
C705 C 0.55581 0.8769 0.0827 0.0
N706 N 0.54435 0.8691 0.10022 0.0
O707 O 0.58714 0.89891 0.05453 0.0
H708 H 0.58371 0.83334 0.09289 0.0
H709 H 0.55153 0.89182 0.07377 0.0
O710 O 0.55617 0.87076 0.03457 0.0
C711 C 0.60314 0.90338 0.06759 0.0
O712 O 0.61732 0.88748 0.07222 0.0
N713 N 0.58711 0.83719 0.04195 0.0
C714 C 0.5802 0.79219 0.04531 0.0
C715 C 0.57081 0.80402 0.02761 0.0
C716 C 0.57522 0.82672 0.02573 0.0
C717 C 0.60058 0.82507 0.0554 0.0
C718 C 0.59695 0.80236 0.05786 0.0
H719 H 0.56704 0.83615 0.01284 0.0
H720 H 0.61212 0.83345 0.06631 0.0
H721 H 0.57502 0.89079 0.00199 0.0
H722 H 0.64096 0.87435 0.98625 0.0
H723 H 0.55044 0.83983 0.12003 0.0
H724 H 0.55871 0.79641 0.01671 0.0
H725 H 0.60563 0.79335 0.07077 0.0
C726 C 0.13677 0.61194 0.00664 0.0
C727 C 0.12734 0.61705 0.98646 0.0
N728 N 0.1102 0.60312 0.98291 0.0
N729 N 0.12586 0.59463 0.01562 0.0
C730 C 0.1098 0.58959 0.00078 0.0
H731 H 0.15055 0.62046 0.01434 0.0
Co732 Co 0.13043 0.58208 0.04338 0.0
C733 C 0.1302 0.53262 0.03478 0.0
O734 O 0.14336 0.52837 0.05163 0.0
N735 N 0.13439 0.56987 0.07195 0.0
C736 C 0.14656 0.55856 0.10503 0.0
C737 C 0.15018 0.57291 0.08769 0.0
C738 C 0.12054 0.55481 0.08104 0.0
N739 N 0.12792 0.54721 0.1007 0.0
O740 O 0.09959 0.58513 0.04991 0.0
H741 H 0.16379 0.58442 0.08696 0.0
H742 H 0.10628 0.54805 0.07246 0.0
O743 O 0.12465 0.55265 0.03031 0.0
C744 C 0.09313 0.60317 0.05874 0.0
O745 O 0.10744 0.61949 0.06085 0.0
N746 N 0.16121 0.57993 0.03751 0.0
C747 C 0.20586 0.57164 0.04423 0.0
C748 C 0.19368 0.55853 0.02942 0.0
C749 C 0.17131 0.56335 0.02582 0.0
C750 C 0.17385 0.59543 0.04801 0.0
C751 C 0.19631 0.59136 0.05206 0.0
H752 H 0.1621 0.55289 0.01472 0.0
H753 H 0.16591 0.60956 0.05575 0.0
H754 H 0.09763 0.57662 0.00334 0.0
H755 H 0.13287 0.62992 0.97522 0.0
H756 H 0.15714 0.55613 0.11936 0.0
H757 H 0.20082 0.54379 0.02201 0.0
H758 H 0.20559 0.60259 0.06259 0.0
C759 C 0.86838 0.38226 0.01492 0.0
C760 C 0.87702 0.37717 0.9944 0.0
N761 N 0.88789 0.39512 0.98661 0.0
N762 N 0.87358 0.40338 0.01993 0.0
C763 C 0.88544 0.41081 0.00242 0.0
H764 H 0.85937 0.37116 0.02578 0.0
Co765 Co 0.86824 0.41709 0.04677 0.0
C766 C 0.86116 0.46485 0.03611 0.0
O767 O 0.84643 0.46587 0.05217 0.0
N768 N 0.86362 0.43072 0.07472 0.0
C769 C 0.85223 0.44347 0.10761 0.0
C770 C 0.84858 0.42796 0.09125 0.0
C771 C 0.87692 0.4471 0.08224 0.0
N772 N 0.87012 0.45535 0.10181 0.0
O773 O 0.89923 0.41608 0.05322 0.0
H774 H 0.83558 0.41575 0.09185 0.0
H775 H 0.8906 0.4539 0.07277 0.0
O776 O 0.8715 0.44663 0.03243 0.0
C777 C 0.90421 0.40024 0.06629 0.0
O778 O 0.88843 0.38641 0.07225 0.0
N779 N 0.83751 0.41647 0.04081 0.0
C780 C 0.79249 0.42292 0.04579 0.0
C781 C 0.80389 0.43365 0.02859 0.0
C782 C 0.82659 0.42964 0.02593 0.0
C783 C 0.82572 0.40203 0.05353 0.0
C784 C 0.80305 0.40537 0.05683 0.0
H785 H 0.83553 0.43846 0.01317 0.0
H786 H 0.83438 0.38972 0.06332 0.0
H787 H 0.8922 0.42739 0.00137 0.0
H788 H 0.87588 0.36128 0.98611 0.0
H789 H 0.84238 0.44603 0.12242 0.0
H790 H 0.79589 0.44626 0.01861 0.0
H791 H 0.79436 0.39562 0.06919 0.0
C792 C 0.51947 0.88096 0.62626 0.0
C793 C 0.49937 0.87496 0.61727 0.0
N794 N 0.48935 0.89333 0.60934 0.0
N795 N 0.5221 0.90301 0.62414 0.0
C796 C 0.50347 0.91016 0.61391 0.0
H797 H 0.53178 0.86989 0.63319 0.0
Co798 Co 0.54818 0.91766 0.63066 0.0
C799 C 0.53629 0.9653 0.6362 0.0
O800 O 0.55132 0.96682 0.65195 0.0
N801 N 0.57546 0.93201 0.63662 0.0
C802 C 0.60742 0.9454 0.64976 0.0
C803 C 0.59103 0.92979 0.65274 0.0
C804 C 0.58358 0.94823 0.62349 0.0
N805 N 0.60261 0.95683 0.63129 0.0
O806 O 0.55623 0.91646 0.60002 0.0
H807 H 0.59091 0.91786 0.66602 0.0
H808 H 0.5749 0.9546 0.60909 0.0
O809 O 0.53341 0.94678 0.62613 0.0
C810 C 0.56957 0.90065 0.59577 0.0
O811 O 0.57474 0.88697 0.61195 0.0
N812 N 0.54061 0.91724 0.661 0.0
C813 C 0.54269 0.92282 0.70646 0.0
C814 C 0.52677 0.93434 0.69402 0.0
C815 C 0.52538 0.93058 0.67118 0.0
C816 C 0.55258 0.90262 0.67334 0.0
C817 C 0.55442 0.90551 0.69624 0.0
H818 H 0.51319 0.9396 0.66167 0.0
H819 H 0.56294 0.89049 0.66509 0.0
H820 H 0.50046 0.92734 0.60977 0.0
H821 H 0.49301 0.85822 0.61598 0.0
H822 H 0.62162 0.94828 0.66039 0.0
H823 H 0.51645 0.94695 0.70161 0.0
H824 H 0.56646 0.89576 0.70535 0.0
C825 C 0.11628 0.51439 0.62654 0.0
C826 C 0.12163 0.49386 0.61799 0.0
N827 N 0.104 0.48614 0.60655 0.0
N828 N 0.0953 0.5194 0.62071 0.0
C829 C 0.08828 0.50194 0.60857 0.0
H830 H 0.12702 0.52511 0.63612 0.0
Co831 Co 0.08025 0.54555 0.62617 0.0
C832 C 0.03355 0.53116 0.63377 0.0
O833 O 0.03203 0.54545 0.65019 0.0
N834 N 0.06485 0.57262 0.63093 0.0
C835 C 0.05033 0.60408 0.64393 0.0
C836 C 0.06806 0.58975 0.64512 0.0
C837 C 0.046 0.57811 0.62008 0.0
N838 N 0.03618 0.59632 0.62854 0.0
O839 O 0.08136 0.55236 0.59521 0.0
H840 H 0.08202 0.59192 0.65606 0.0
H841 H 0.03909 0.56826 0.60676 0.0
O842 O 0.05162 0.52962 0.62267 0.0
C843 C 0.09827 0.56453 0.59164 0.0
O844 O 0.11149 0.56901 0.6084 0.0
N845 N 0.0812 0.53954 0.65695 0.0
C846 C 0.07481 0.54439 0.70204 0.0
C847 C 0.06517 0.52642 0.6908 0.0
C848 C 0.06936 0.52375 0.6681 0.0
C849 C 0.09482 0.55329 0.66856 0.0
C850 C 0.09149 0.55649 0.69123 0.0
H851 H 0.06146 0.51031 0.65929 0.0
H852 H 0.10658 0.56362 0.65977 0.0
H853 H 0.07186 0.50077 0.60146 0.0
H854 H 0.13739 0.48543 0.61977 0.0
H855 H 0.04763 0.61856 0.65422 0.0
H856 H 0.05324 0.5157 0.69892 0.0
H857 H 0.1006 0.56942 0.69978 0.0
C858 C 0.48522 0.11191 0.63598 0.0
C859 C 0.50571 0.11684 0.62702 0.0
N860 N 0.51043 0.10153 0.61138 0.0
N861 N 0.47721 0.09359 0.62598 0.0
C862 C 0.49273 0.08791 0.61091 0.0
H863 H 0.47684 0.12091 0.64906 0.0
Co864 Co 0.45116 0.07819 0.63071 0.0
C865 C 0.46683 0.03177 0.63765 0.0
O866 O 0.45246 0.02957 0.65393 0.0
N867 N 0.42438 0.06216 0.63468 0.0
C868 C 0.39315 0.04663 0.64704 0.0
C869 C 0.40691 0.06478 0.64857 0.0
C870 C 0.41967 0.04321 0.62366 0.0
N871 N 0.40163 0.03279 0.63176 0.0
O872 O 0.44495 0.07978 0.59965 0.0
H873 H 0.40414 0.0786 0.65955 0.0
H874 H 0.42995 0.03671 0.61046 0.0
O875 O 0.46789 0.05003 0.62683 0.0
C876 C 0.43232 0.0962 0.59544 0.0
O877 O 0.42557 0.10862 0.61206 0.0
N878 N 0.45663 0.07858 0.66164 0.0
C879 C 0.45295 0.07275 0.70707 0.0
C880 C 0.47078 0.06326 0.69545 0.0
C881 C 0.47287 0.06725 0.67266 0.0
C882 C 0.44245 0.09166 0.67336 0.0
C883 C 0.4398 0.08852 0.69613 0.0
H884 H 0.48649 0.05976 0.66375 0.0
H885 H 0.43173 0.10313 0.66466 0.0
H886 H 0.49085 0.07415 0.59953 0.0
H887 H 0.51647 0.13037 0.6319 0.0
H888 H 0.37859 0.04345 0.65707 0.0
H889 H 0.48203 0.05171 0.70338 0.0
H890 H 0.42673 0.09732 0.7048 0.0
C891 C 0.88169 0.48086 0.62656 0.0
C892 C 0.87593 0.50114 0.61782 0.0
N893 N 0.89423 0.51049 0.60893 0.0
N894 N 0.90352 0.4775 0.62334 0.0
C895 C 0.91076 0.49584 0.61271 0.0
H896 H 0.87057 0.46894 0.63409 0.0
Co897 Co 0.9181 0.45121 0.62903 0.0
C898 C 0.96591 0.46291 0.63377 0.0
O899 O 0.96772 0.44779 0.64939 0.0
N900 N 0.93261 0.42379 0.63416 0.0
C901 C 0.9478 0.39321 0.64827 0.0
C902 C 0.93124 0.40865 0.65069 0.0
C903 C 0.94911 0.41604 0.6211 0.0
N904 N 0.95921 0.39798 0.62968 0.0
O905 O 0.91592 0.44372 0.59826 0.0
H906 H 0.9196 0.40868 0.6642 0.0
H907 H 0.95448 0.42443 0.60616 0.0
O908 O 0.9472 0.46591 0.62409 0.0
C909 C 0.8993 0.43117 0.59465 0.0
O910 O 0.88621 0.42628 0.6114 0.0
N911 N 0.91839 0.45822 0.65957 0.0
C912 C 0.92546 0.45371 0.70455 0.0
C913 C 0.93671 0.47024 0.69267 0.0
C914 C 0.93226 0.4728 0.67003 0.0
C915 C 0.90369 0.44625 0.67183 0.0
C916 C 0.90729 0.44323 0.6945 0.0
H917 H 0.9413 0.48517 0.66078 0.0
H918 H 0.89108 0.43653 0.66351 0.0
H919 H 0.92779 0.49829 0.60769 0.0
H920 H 0.85938 0.50812 0.61738 0.0
H921 H 0.95173 0.38035 0.66014 0.0
H922 H 0.94996 0.47974 0.70023 0.0
H923 H 0.89731 0.43132 0.70355 0.0
C924 C 0.50922 0.11662 0.36549 0.0
C925 C 0.49023 0.124 0.37596 0.0
N926 N 0.48589 0.11047 0.3933 0.0
N927 N 0.5167 0.09847 0.37616 0.0
C928 C 0.50296 0.09605 0.39373 0.0
H929 H 0.51602 0.12304 0.35017 0.0
Co930 Co 0.53777 0.07727 0.36778 0.0
C931 C 0.49523 0.05108 0.37025 0.0
O932 O 0.483 0.06804 0.36402 0.0
N933 N 0.55854 0.05563 0.35988 0.0
C934 C 0.57185 0.02356 0.34764 0.0
C935 C 0.55421 0.03775 0.34705 0.0
C936 C 0.57912 0.05192 0.36791 0.0
N937 N 0.58741 0.03222 0.36108 0.0
O938 O 0.54678 0.075 0.39815 0.0
H939 H 0.53849 0.03405 0.33935 0.0
H940 H 0.58733 0.06276 0.37959 0.0
O941 O 0.51625 0.05328 0.3719 0.0
C942 C 0.56038 0.09058 0.40257 0.0
O943 O 0.56518 0.1048 0.38672 0.0
N944 N 0.53126 0.08091 0.33736 0.0
C945 C 0.54138 0.07634 0.29261 0.0
C946 C 0.52255 0.06605 0.30149 0.0
C947 C 0.51759 0.06868 0.32397 0.0
C948 C 0.54782 0.09335 0.32827 0.0
C949 C 0.5533 0.09123 0.30586 0.0
H950 H 0.50463 0.05847 0.33052 0.0
H951 H 0.5586 0.10286 0.33904 0.0
H952 H 0.50368 0.08193 0.40482 0.0
H953 H 0.4796 0.13727 0.37019 0.0
H954 H 0.57215 0.007 0.34066 0.0
H955 H 0.51284 0.0546 0.29159 0.0
H956 H 0.56798 0.09947 0.29958 0.0
C957 C 0.88293 0.51343 0.36789 0.0
C958 C 0.87804 0.49305 0.37701 0.0
N959 N 0.89565 0.48623 0.38904 0.0
N960 N 0.90361 0.51931 0.37394 0.0
C961 C 0.91088 0.5025 0.38686 0.0
H962 H 0.87204 0.52346 0.35774 0.0
Co963 Co 0.91762 0.54587 0.36754 0.0
C964 C 0.96655 0.53492 0.36823 0.0
O965 O 0.9714 0.55014 0.35339 0.0
N966 N 0.9315 0.57334 0.36162 0.0
C967 C 0.9453 0.60456 0.3473 0.0
C968 C 0.92985 0.58797 0.34463 0.0
C969 C 0.94696 0.58238 0.37504 0.0
N970 N 0.95621 0.60078 0.36637 0.0
O971 O 0.91464 0.55457 0.39789 0.0
H972 H 0.9186 0.58687 0.33082 0.0
H973 H 0.9523 0.57478 0.39042 0.0
O974 O 0.94642 0.53198 0.3743 0.0
C975 C 0.89908 0.56842 0.40132 0.0
O976 O 0.88591 0.57347 0.38469 0.0
N977 N 0.9193 0.53785 0.33734 0.0
C978 C 0.92727 0.5432 0.29251 0.0
C979 C 0.94028 0.52849 0.30494 0.0
C980 C 0.9356 0.52555 0.32747 0.0
C981 C 0.90377 0.54812 0.32455 0.0
C982 C 0.90765 0.55141 0.30195 0.0
H983 H 0.94605 0.51465 0.33701 0.0
H984 H 0.89 0.55654 0.33244 0.0
H985 H 0.92712 0.50214 0.39443 0.0
H986 H 0.86258 0.48408 0.37515 0.0
H987 H 0.94891 0.61763 0.33553 0.0
H988 H 0.95492 0.52082 0.29786 0.0
H989 H 0.89658 0.56198 0.29252 0.0
C990 C 0.4846 0.88327 0.36499 0.0
C991 C 0.50546 0.87943 0.37343 0.0
N992 N 0.51187 0.89744 0.38511 0.0
N993 N 0.47794 0.90367 0.37112 0.0
C994 C 0.49479 0.91188 0.38341 0.0
H995 H 0.47472 0.87182 0.35532 0.0
Co996 Co 0.4503 0.91574 0.3656 0.0
C997 C 0.45742 0.96366 0.35807 0.0
O998 O 0.44332 0.96251 0.34145 0.0
N999 N 0.42158 0.92791 0.36085 0.0
C1000 C 0.38962 0.94169 0.34811 0.0
C1001 C 0.40557 0.92556 0.34521 0.0
C1002 C 0.41393 0.94449 0.37383 0.0
N1003 N 0.39522 0.9538 0.36597 0.0
O1004 O 0.44385 0.91483 0.39659 0.0
H1005 H 0.40543 0.91369 0.33188 0.0
H1006 H 0.42291 0.95076 0.38807 0.0
O1007 O 0.46238 0.94611 0.36903 0.0
C1008 C 0.43531 0.89697 0.40386 0.0
O1009 O 0.4332 0.88013 0.39017 0.0
N1010 N 0.45657 0.91543 0.3349 0.0
C1011 C 0.45348 0.92208 0.28961 0.0
C1012 C 0.46985 0.93314 0.30196 0.0
C1013 C 0.47171 0.92885 0.32468 0.0
C1014 C 0.44438 0.90105 0.32249 0.0
C1015 C 0.44202 0.90451 0.2997 0.0
H1016 H 0.48382 0.93796 0.33426 0.0
H1017 H 0.43443 0.88853 0.33065 0.0
H1018 H 0.49445 0.9281 0.39095 0.0
H1019 H 0.51499 0.86434 0.37148 0.0
H1020 H 0.3758 0.94497 0.33712 0.0
H1021 H 0.47974 0.94627 0.29473 0.0
H1022 H 0.4301 0.89471 0.29046 0.0
C1023 C 0.11439 0.48825 0.36714 0.0
C1024 C 0.11855 0.50887 0.3761 0.0
N1025 N 0.10263 0.51342 0.3912 0.0
N1026 N 0.09576 0.48001 0.37632 0.0
C1027 C 0.08928 0.49547 0.39118 0.0
H1028 H 0.12402 0.48004 0.35441 0.0
Co1029 Co 0.08132 0.45368 0.36991 0.0
C1030 C 0.03271 0.46632 0.36984 0.0
O1031 O 0.02763 0.4513 0.35488 0.0
N1032 N 0.06676 0.42654 0.36399 0.0
C1033 C 0.05193 0.39661 0.3482 0.0
C1034 C 0.06841 0.41225 0.34675 0.0
C1035 C 0.05022 0.41805 0.37651 0.0
N1036 N 0.04029 0.40047 0.36684 0.0
O1037 O 0.08437 0.44498 0.40029 0.0
H1038 H 0.08022 0.41311 0.33339 0.0
H1039 H 0.04455 0.42565 0.39177 0.0
O1040 O 0.05278 0.46837 0.3765 0.0
C1041 C 0.10122 0.43262 0.4034 0.0
O1042 O 0.11419 0.42833 0.3864 0.0
N1043 N 0.07992 0.4617 0.3396 0.0
C1044 C 0.07388 0.45892 0.29407 0.0
C1045 C 0.0606 0.47314 0.30681 0.0
C1046 C 0.06438 0.47485 0.32962 0.0
C1047 C 0.09551 0.45133 0.32695 0.0
C1048 C 0.09252 0.44922 0.30407 0.0
H1049 H 0.05404 0.48586 0.33912 0.0
H1050 H 0.10872 0.4422 0.33499 0.0
H1051 H 0.07447 0.49391 0.40116 0.0
H1052 H 0.13203 0.51983 0.37155 0.0
H1053 H 0.04812 0.38428 0.33573 0.0
H1054 H 0.04678 0.48194 0.29941 0.0
H1055 H 0.10349 0.43841 0.2948 0.0
C1056 C 0.63478 0.51129 0.88395 0.0
C1057 C 0.62549 0.49126 0.87802 0.0
N1058 N 0.6099 0.48596 0.8932 0.0
N1059 N 0.6253 0.51835 0.90293 0.0
C1060 C 0.61025 0.50263 0.90814 0.0
H1061 H 0.64758 0.52013 0.87501 0.0
Co1062 Co 0.63023 0.54463 0.91801 0.0
C1063 C 0.6395 0.53049 0.96442 0.0
O1064 O 0.65505 0.54576 0.96538 0.0
N1065 N 0.63432 0.57172 0.93328 0.0
C1066 C 0.64529 0.6041 0.94744 0.0
C1067 C 0.64754 0.58958 0.92995 0.0
C1068 C 0.62303 0.57678 0.95196 0.0
N1069 N 0.63021 0.59565 0.9615 0.0
O1070 O 0.5991 0.55051 0.91806 0.0
H1071 H 0.65837 0.59229 0.916 0.0
H1072 H 0.6102 0.5663 0.95887 0.0
O1073 O 0.62791 0.5283 0.94669 0.0
C1074 C 0.59215 0.55903 0.90002 0.0
O1075 O 0.60615 0.56112 0.88343 0.0
N1076 N 0.66118 0.53955 0.91645 0.0
C1077 C 0.70641 0.54372 0.9223 0.0
C1078 C 0.69517 0.52546 0.9313 0.0
C1079 C 0.6724 0.52323 0.92747 0.0
C1080 C 0.67269 0.55396 0.90341 0.0
C1081 C 0.69543 0.5569 0.9066 0.0
H1082 H 0.66363 0.50948 0.93489 0.0
H1083 H 0.66383 0.56469 0.89209 0.0
H1084 H 0.59939 0.50364 0.92242 0.0
H1085 H 0.63017 0.48126 0.86386 0.0
H1086 H 0.65453 0.61929 0.94995 0.0
H1087 H 0.70358 0.51391 0.94221 0.0
H1088 H 0.70384 0.57045 0.89831 0.0
C1089 C 0.48636 0.6345 0.88385 0.0
C1090 C 0.50607 0.62431 0.87833 0.0
N1091 N 0.51082 0.60913 0.89409 0.0
N1092 N 0.47893 0.62597 0.90313 0.0
C1093 C 0.49413 0.61057 0.90893 0.0
H1094 H 0.47801 0.6473 0.87445 0.0
Co1095 Co 0.45294 0.63258 0.91813 0.0
C1096 C 0.46746 0.6392 0.96513 0.0
O1097 O 0.45328 0.65563 0.9673 0.0
N1098 N 0.42622 0.63857 0.93346 0.0
C1099 C 0.3955 0.65266 0.94856 0.0
C1100 C 0.41017 0.65413 0.93111 0.0
C1101 C 0.41988 0.62699 0.95155 0.0
N1102 N 0.40203 0.63587 0.96168 0.0
O1103 O 0.44509 0.60191 0.91794 0.0
H1104 H 0.40886 0.66604 0.91787 0.0
H1105 H 0.42875 0.6126 0.95757 0.0
O1106 O 0.46898 0.62883 0.94663 0.0
C1107 C 0.43576 0.59593 0.89995 0.0
O1108 O 0.43388 0.61053 0.88386 0.0
N1109 N 0.45984 0.66307 0.91662 0.0
C1110 C 0.45472 0.70817 0.92227 0.0
C1111 C 0.47203 0.69696 0.93313 0.0
C1112 C 0.47488 0.67426 0.92932 0.0
C1113 C 0.44693 0.67454 0.90208 0.0
C1114 C 0.44375 0.69728 0.90487 0.0
H1115 H 0.48782 0.66553 0.93808 0.0
H1116 H 0.43685 0.66559 0.89021 0.0
H1117 H 0.49278 0.6003 0.92361 0.0
H1118 H 0.51628 0.62813 0.86406 0.0
H1119 H 0.38147 0.66345 0.95161 0.0
H1120 H 0.48197 0.70508 0.94572 0.0
H1121 H 0.43141 0.70575 0.89491 0.0
C1122 C 0.36141 0.48905 0.88272 0.0
C1123 C 0.37022 0.50955 0.87767 0.0
N1124 N 0.38616 0.51426 0.89267 0.0
N1125 N 0.37161 0.48109 0.90096 0.0
C1126 C 0.38657 0.49676 0.90659 0.0
H1127 H 0.34841 0.48053 0.87375 0.0
Co1128 Co 0.36753 0.45425 0.91525 0.0
C1129 C 0.36237 0.46627 0.9628 0.0
O1130 O 0.34657 0.45134 0.96463 0.0
N1131 N 0.36441 0.42666 0.93011 0.0
C1132 C 0.35301 0.39616 0.94759 0.0
C1133 C 0.34892 0.4104 0.93022 0.0
C1134 C 0.37849 0.42077 0.94655 0.0
N1135 N 0.37137 0.40309 0.95825 0.0
O1136 O 0.39854 0.44855 0.91313 0.0
H1137 H 0.33486 0.40907 0.91929 0.0
H1138 H 0.39313 0.43027 0.95058 0.0
O1139 O 0.37193 0.46922 0.94404 0.0
C1140 C 0.40475 0.43896 0.89538 0.0
O1141 O 0.39005 0.43577 0.87959 0.0
N1142 N 0.33666 0.45939 0.9159 0.0
C1143 C 0.29132 0.45583 0.9222 0.0
C1144 C 0.30329 0.47276 0.93275 0.0
C1145 C 0.32602 0.47482 0.92865 0.0
C1146 C 0.32463 0.44599 0.90228 0.0
C1147 C 0.30186 0.44341 0.90559 0.0
H1148 H 0.33517 0.4878 0.93693 0.0
H1149 H 0.33312 0.43543 0.89049 0.0
H1150 H 0.3979 0.49517 0.92044 0.0
H1151 H 0.36499 0.52027 0.86424 0.0
H1152 H 0.34239 0.38265 0.95282 0.0
H1153 H 0.2954 0.48352 0.9448 0.0
H1154 H 0.29311 0.43056 0.89658 0.0
C1155 C 0.50923 0.36059 0.88601 0.0
C1156 C 0.48946 0.37014 0.87971 0.0
N1157 N 0.48563 0.38782 0.89291 0.0
N1158 N 0.51762 0.37196 0.90334 0.0
C1159 C 0.50292 0.38843 0.90712 0.0
H1160 H 0.51694 0.34625 0.87848 0.0
Co1161 Co 0.54411 0.36744 0.91823 0.0
C1162 C 0.5307 0.36561 0.96636 0.0
O1163 O 0.54615 0.35089 0.97084 0.0
N1164 N 0.57146 0.36365 0.93298 0.0
C1165 C 0.60415 0.35241 0.94617 0.0
C1166 C 0.58836 0.34915 0.93001 0.0
C1167 C 0.57831 0.37651 0.94999 0.0
N1168 N 0.59759 0.36951 0.95886 0.0
O1169 O 0.55084 0.39819 0.91579 0.0
H1170 H 0.58946 0.33667 0.91728 0.0
H1171 H 0.56869 0.39019 0.95654 0.0
O1172 O 0.52846 0.37301 0.94655 0.0
C1173 C 0.5598 0.40448 0.89775 0.0
O1174 O 0.56195 0.39008 0.88152 0.0
N1175 N 0.53819 0.33673 0.9196 0.0
C1176 C 0.54231 0.29158 0.92669 0.0
C1177 C 0.52602 0.3037 0.93802 0.0
C1178 C 0.5238 0.32638 0.93374 0.0
C1179 C 0.55076 0.32441 0.90545 0.0
C1180 C 0.55366 0.30177 0.90915 0.0
H1181 H 0.51139 0.3356 0.94271 0.0
H1182 H 0.56038 0.33261 0.89271 0.0
H1183 H 0.50506 0.40086 0.91991 0.0
H1184 H 0.47855 0.36416 0.86676 0.0
H1185 H 0.61868 0.34223 0.94899 0.0
H1186 H 0.51622 0.29616 0.95106 0.0
H1187 H 0.56565 0.29265 0.89934 0.0
C1188 C 0.63121 0.48453 0.11708 0.0
C1189 C 0.62195 0.50472 0.1224 0.0
N1190 N 0.61068 0.51227 0.10459 0.0
N1191 N 0.62601 0.47953 0.09594 0.0
C1192 C 0.61356 0.49669 0.08873 0.0
H1193 H 0.64057 0.47385 0.12806 0.0
Co1194 Co 0.6316 0.45289 0.08198 0.0
C1195 C 0.63906 0.46414 0.03443 0.0
O1196 O 0.65432 0.44857 0.0337 0.0
N1197 N 0.63638 0.42516 0.06807 0.0
C1198 C 0.64777 0.39236 0.0552 0.0
C1199 C 0.65105 0.40838 0.07114 0.0
C1200 C 0.62357 0.41809 0.05111 0.0
N1201 N 0.63056 0.39873 0.04259 0.0
O1202 O 0.6007 0.44612 0.08309 0.0
H1203 H 0.66351 0.4074 0.0839 0.0
H1204 H 0.61009 0.42773 0.04415 0.0
O1205 O 0.62824 0.46747 0.05247 0.0
C1206 C 0.59632 0.43298 0.09906 0.0
O1207 O 0.61252 0.42722 0.11249 0.0
N1208 N 0.66227 0.45911 0.08265 0.0
C1209 C 0.70777 0.45631 0.07747 0.0
C1210 C 0.6958 0.47306 0.06663 0.0
C1211 C 0.67293 0.47469 0.07011 0.0
C1212 C 0.67421 0.44623 0.09683 0.0
C1213 C 0.69708 0.44394 0.09403 0.0
H1214 H 0.66374 0.48742 0.06149 0.0
H1215 H 0.66565 0.43586 0.10873 0.0
H1216 H 0.60662 0.49762 0.07222 0.0
H1217 H 0.62289 0.51288 0.13838 0.0
H1218 H 0.65738 0.37736 0.05291 0.0
H1219 H 0.70382 0.4839 0.05474 0.0
H1220 H 0.70582 0.43132 0.10336 0.0
C1221 C 0.50823 0.63783 0.1112 0.0
C1222 C 0.48789 0.62855 0.11583 0.0
N1223 N 0.48435 0.61174 0.10149 0.0
N1224 N 0.51728 0.62715 0.09378 0.0
C1225 C 0.50237 0.61137 0.08821 0.0
H1226 H 0.51592 0.65145 0.11999 0.0
Co1227 Co 0.5448 0.6319 0.08114 0.0
C1228 C 0.53568 0.63671 0.03279 0.0
O1229 O 0.55155 0.65161 0.03146 0.0
N1230 N 0.57321 0.63593 0.06847 0.0
C1231 C 0.60652 0.64689 0.05655 0.0
C1232 C 0.58967 0.65099 0.07141 0.0
C1233 C 0.58123 0.62217 0.05273 0.0
N1234 N 0.60107 0.6287 0.04496 0.0
O1235 O 0.55112 0.60095 0.0834 0.0
H1236 H 0.58981 0.66438 0.08321 0.0
H1237 H 0.57192 0.6084 0.04592 0.0
O1238 O 0.5315 0.62739 0.05145 0.0
C1239 C 0.56406 0.59607 0.09936 0.0
O1240 O 0.56996 0.61192 0.11314 0.0
N1241 N 0.53906 0.6627 0.08028 0.0
C1242 C 0.54333 0.70799 0.07422 0.0
C1243 C 0.52757 0.69601 0.06201 0.0
C1244 C 0.52505 0.67331 0.06597 0.0
C1245 C 0.55096 0.67477 0.0952 0.0
C1246 C 0.5539 0.69751 0.0921 0.0
H1247 H 0.51287 0.66422 0.05652 0.0
H1248 H 0.56022 0.66631 0.10806 0.0
H1249 H 0.50493 0.59952 0.07495 0.0
H1250 H 0.47649 0.63403 0.12858 0.0
H1251 H 0.62135 0.65673 0.0541 0.0
H1252 H 0.51813 0.70386 0.04887 0.0
H1253 H 0.56576 0.70627 0.10238 0.0
C1254 C 0.36825 0.51634 0.11955 0.0
C1255 C 0.37852 0.49711 0.12657 0.0
N1256 N 0.39078 0.48904 0.10965 0.0
N1257 N 0.37385 0.52018 0.09825 0.0
C1258 C 0.38755 0.50333 0.09274 0.0
H1259 H 0.35743 0.52685 0.12929 0.0
Co1260 Co 0.36594 0.54367 0.07991 0.0
C1261 C 0.37979 0.52611 0.0366 0.0
O1262 O 0.39289 0.54331 0.03377 0.0
N1263 N 0.35802 0.56696 0.06057 0.0
C1264 C 0.34347 0.58283 0.03067 0.0
C1265 C 0.34151 0.5658 0.04543 0.0
C1266 C 0.36958 0.58527 0.05472 0.0
N1267 N 0.36145 0.59492 0.03608 0.0
O1268 O 0.3966 0.55185 0.07798 0.0
H1269 H 0.33001 0.55222 0.04361 0.0
H1270 H 0.38447 0.59049 0.06318 0.0
O1271 O 0.36829 0.52443 0.05429 0.0
C1272 C 0.40289 0.56196 0.09545 0.0
O1273 O 0.38829 0.56513 0.11135 0.0
N1274 N 0.33594 0.53692 0.08366 0.0
C1275 C 0.29045 0.54072 0.07859 0.0
C1276 C 0.30165 0.52199 0.07041 0.0
C1277 C 0.32458 0.52018 0.0735 0.0
C1278 C 0.32493 0.55341 0.09446 0.0
C1279 C 0.30208 0.55579 0.09195 0.0
H1280 H 0.3333 0.50659 0.06589 0.0
H1281 H 0.33427 0.56628 0.1028 0.0
H1282 H 0.39467 0.50134 0.0764 0.0
H1283 H 0.37709 0.48966 0.14286 0.0
H1284 H 0.33383 0.58454 0.0156 0.0
H1285 H 0.29305 0.50978 0.06041 0.0
H1286 H 0.29406 0.57045 0.09856 0.0
C1287 C 0.48609 0.36383 0.11795 0.0
C1288 C 0.5065 0.37273 0.12326 0.0
N1289 N 0.51275 0.38647 0.10671 0.0
N1290 N 0.47974 0.37171 0.09803 0.0
C1291 C 0.49626 0.38541 0.09163 0.0
H1292 H 0.47629 0.35277 0.12813 0.0
Co1293 Co 0.45287 0.36782 0.08387 0.0
C1294 C 0.4645 0.36583 0.03528 0.0
O1295 O 0.44874 0.35126 0.03141 0.0
N1296 N 0.42516 0.3648 0.06968 0.0
C1297 C 0.39226 0.35527 0.05575 0.0
C1298 C 0.4079 0.35058 0.07176 0.0
C1299 C 0.41881 0.3787 0.05336 0.0
N1300 N 0.39934 0.37293 0.04409 0.0
O1301 O 0.44703 0.39881 0.08703 0.0
H1302 H 0.40653 0.33737 0.08373 0.0
H1303 H 0.42939 0.39179 0.0472 0.0
O1304 O 0.46769 0.37313 0.055 0.0
C1305 C 0.43417 0.40366 0.10309 0.0
O1306 O 0.42751 0.38758 0.11624 0.0
N1307 N 0.45801 0.33707 0.08214 0.0
C1308 C 0.45194 0.29233 0.07385 0.0
C1309 C 0.46852 0.30417 0.06258 0.0
C1310 C 0.47178 0.32658 0.06751 0.0
C1311 C 0.44532 0.32485 0.09626 0.0
C1312 C 0.44167 0.30237 0.09217 0.0
H1313 H 0.48434 0.33562 0.05853 0.0
H1314 H 0.43611 0.3331 0.10929 0.0
H1315 H 0.49612 0.39448 0.07616 0.0
H1316 H 0.51577 0.36971 0.13834 0.0
H1317 H 0.37717 0.34605 0.05257 0.0
H1318 H 0.47778 0.29669 0.04911 0.0
H1319 H 0.42985 0.29336 0.10228 0.0
C1320 C 0.88083 0.63369 0.51415 0.0
C1321 C 0.8756 0.62597 0.49332 0.0
N1322 N 0.89347 0.61534 0.48503 0.0
N1323 N 0.90186 0.62795 0.51899 0.0
C1324 C 0.90912 0.61662 0.50105 0.0
H1325 H 0.86982 0.64232 0.52539 0.0
Co1326 Co 0.9149 0.63266 0.54628 0.0
C1327 C 0.96317 0.63764 0.53848 0.0
O1328 O 0.9635 0.65373 0.55319 0.0
N1329 N 0.92769 0.6367 0.5748 0.0
C1330 C 0.94037 0.6477 0.60785 0.0
C1331 C 0.92533 0.65195 0.59118 0.0
C1332 C 0.94332 0.62273 0.58272 0.0
N1333 N 0.95159 0.62926 0.60238 0.0
O1334 O 0.91286 0.60178 0.55244 0.0
H1335 H 0.91394 0.66569 0.59131 0.0
H1336 H 0.94982 0.60886 0.57333 0.0
O1337 O 0.94485 0.62809 0.53337 0.0
C1338 C 0.89731 0.59615 0.56555 0.0
O1339 O 0.88321 0.61145 0.5721 0.0
N1340 N 0.9156 0.66325 0.54035 0.0
C1341 C 0.92112 0.70865 0.54244 0.0
C1342 C 0.93263 0.69631 0.52646 0.0
C1343 C 0.92916 0.67343 0.52529 0.0
C1344 C 0.90112 0.67558 0.55252 0.0
C1345 C 0.90416 0.69842 0.55454 0.0
H1346 H 0.93847 0.66385 0.51334 0.0
H1347 H 0.88868 0.66736 0.56252 0.0
H1348 H 0.92539 0.60912 0.49989 0.0
H1349 H 0.85958 0.62732 0.48533 0.0
H1350 H 0.94328 0.65767 0.62251 0.0
H1351 H 0.94524 0.70395 0.51617 0.0
H1352 H 0.89434 0.70771 0.56639 0.0
C1353 C 0.88012 0.36438 0.48305 0.0
C1354 C 0.87237 0.374 0.50228 0.0
N1355 N 0.88711 0.38951 0.50892 0.0
N1356 N 0.89969 0.3737 0.47764 0.0
C1357 C 0.90293 0.38961 0.49307 0.0
H1358 H 0.87234 0.35098 0.474 0.0
Co1359 Co 0.91859 0.3657 0.45457 0.0
C1360 C 0.95327 0.37057 0.49223 0.0
O1361 O 0.94052 0.36805 0.50975 0.0
N1362 N 0.93836 0.35776 0.43133 0.0
C1363 C 0.96753 0.34169 0.41536 0.0
C1364 C 0.95244 0.34028 0.43212 0.0
C1365 C 0.94562 0.36965 0.41368 0.0
N1366 N 0.96349 0.36029 0.40376 0.0
O1367 O 0.92009 0.39613 0.44591 0.0
H1368 H 0.95356 0.32835 0.44534 0.0
H1369 H 0.93929 0.38583 0.40931 0.0
O1370 O 0.94503 0.36945 0.47274 0.0
C1371 C 0.9041 0.40125 0.43304 0.0
O1372 O 0.88962 0.38578 0.42788 0.0
N1373 N 0.91535 0.33555 0.46178 0.0
C1374 C 0.92169 0.29039 0.45661 0.0
C1375 C 0.92913 0.30109 0.47591 0.0
C1376 C 0.92553 0.3239 0.47835 0.0
C1377 C 0.90467 0.32469 0.44507 0.0
C1378 C 0.90791 0.30203 0.44195 0.0
H1379 H 0.93296 0.33217 0.49224 0.0
H1380 H 0.89608 0.33415 0.43246 0.0
H1381 H 0.91741 0.40022 0.49342 0.0
H1382 H 0.85729 0.36948 0.51091 0.0
H1383 H 0.98211 0.33131 0.41383 0.0
H1384 H 0.93953 0.29253 0.48781 0.0
H1385 H 0.90138 0.29415 0.42717 0.0
C1386 C 0.62792 0.88169 0.47904 0.0
C1387 C 0.61954 0.87554 0.4994 0.0
N1388 N 0.61168 0.89384 0.50961 0.0
N1389 N 0.62531 0.90371 0.47646 0.0
C1390 C 0.61521 0.91064 0.49523 0.0
H1391 H 0.63508 0.87079 0.4667 0.0
Co1392 Co 0.63265 0.91949 0.45123 0.0
C1393 C 0.64164 0.96535 0.4666 0.0
O1394 O 0.65845 0.96636 0.45273 0.0
N1395 N 0.63945 0.93551 0.42506 0.0
C1396 C 0.65313 0.95063 0.39413 0.0
C1397 C 0.65472 0.93311 0.40871 0.0
C1398 C 0.6281 0.95388 0.41915 0.0
N1399 N 0.63667 0.9639 0.40114 0.0
O1400 O 0.60198 0.9205 0.44317 0.0
H1401 H 0.66628 0.91962 0.40695 0.0
H1402 H 0.61384 0.95997 0.42821 0.0
O1403 O 0.62984 0.94771 0.46779 0.0
C1404 C 0.59724 0.90592 0.42862 0.0
O1405 O 0.61305 0.89238 0.4221 0.0
N1406 N 0.66293 0.91677 0.45864 0.0
C1407 C 0.70849 0.92075 0.4567 0.0
C1408 C 0.6967 0.93064 0.47418 0.0
C1409 C 0.67372 0.92766 0.47535 0.0
C1410 C 0.67457 0.90303 0.44505 0.0
C1411 C 0.69752 0.90523 0.44328 0.0
H1412 H 0.66456 0.93581 0.48842 0.0
H1413 H 0.66578 0.89228 0.43367 0.0
H1414 H 0.61041 0.92765 0.49837 0.0
H1415 H 0.61875 0.85881 0.50585 0.0
H1416 H 0.66332 0.95344 0.3796 0.0
H1417 H 0.7047 0.94201 0.48557 0.0
H1418 H 0.70628 0.89632 0.43035 0.0
C1419 C 0.11772 0.6335 0.48219 0.0
C1420 C 0.12651 0.62265 0.50031 0.0
N1421 N 0.11243 0.60631 0.50637 0.0
N1422 N 0.09814 0.62409 0.47694 0.0
C1423 C 0.09609 0.60685 0.4911 0.0
H1424 H 0.1246 0.64798 0.47414 0.0
Co1425 Co 0.07676 0.63321 0.45649 0.0
C1426 C 0.04998 0.62982 0.49922 0.0
O1427 O 0.06688 0.63412 0.51233 0.0
N1428 N 0.05488 0.64214 0.43612 0.0
C1429 C 0.02416 0.65814 0.42338 0.0
C1430 C 0.03962 0.65815 0.43995 0.0
C1431 C 0.04819 0.63268 0.41693 0.0
N1432 N 0.02937 0.64194 0.40897 0.0
O1433 O 0.07353 0.60293 0.4475 0.0
H1434 H 0.03837 0.66792 0.45488 0.0
H1435 H 0.05582 0.61809 0.40982 0.0
O1436 O 0.05264 0.6297 0.47817 0.0
C1437 C 0.08851 0.59849 0.43322 0.0
O1438 O 0.10198 0.61451 0.42705 0.0
N1439 N 0.08177 0.66322 0.46327 0.0
C1440 C 0.07938 0.70857 0.45648 0.0
C1441 C 0.07153 0.69934 0.47631 0.0
C1442 C 0.07291 0.67639 0.47948 0.0
C1443 C 0.09241 0.67247 0.44558 0.0
C1444 C 0.09115 0.69518 0.44165 0.0
H1445 H 0.06457 0.66953 0.49359 0.0
H1446 H 0.09962 0.66181 0.43306 0.0
H1447 H 0.08151 0.59636 0.49171 0.0
H1448 H 0.14157 0.62723 0.50895 0.0
H1449 H 0.00883 0.66751 0.42348 0.0
H1450 H 0.0625 0.70939 0.48817 0.0
H1451 H 0.09771 0.70192 0.42633 0.0
C1452 C 0.36644 0.11521 0.48558 0.0
C1453 C 0.3772 0.12435 0.50359 0.0
N1454 N 0.39515 0.1118 0.50843 0.0
N1455 N 0.37741 0.09681 0.47925 0.0
C1456 C 0.39535 0.09592 0.49264 0.0
H1457 H 0.35083 0.12072 0.47866 0.0
Co1458 Co 0.36929 0.07453 0.45929 0.0
C1459 C 0.3753 0.04915 0.50229 0.0
O1460 O 0.36946 0.06604 0.51479 0.0
N1461 N 0.36137 0.05172 0.43946 0.0
C1462 C 0.34624 0.0202 0.42768 0.0
C1463 C 0.34756 0.03486 0.44482 0.0
C1464 C 0.36864 0.04648 0.41886 0.0
N1465 N 0.3596 0.02732 0.41133 0.0
O1466 O 0.39949 0.07371 0.44912 0.0
H1467 H 0.3403 0.03206 0.4609 0.0
H1468 H 0.38139 0.05561 0.41014 0.0
O1469 O 0.37539 0.05118 0.48117 0.0
C1470 C 0.40195 0.08903 0.4347 0.0
O1471 O 0.38457 0.10106 0.42934 0.0
N1472 N 0.33908 0.07714 0.4671 0.0
C1473 C 0.29467 0.06875 0.45862 0.0
C1474 C 0.30443 0.06119 0.47834 0.0
C1475 C 0.32682 0.06578 0.48247 0.0
C1476 C 0.32878 0.08778 0.45002 0.0
C1477 C 0.3065 0.08378 0.44541 0.0
H1478 H 0.3344 0.05744 0.49621 0.0
H1479 H 0.33859 0.09709 0.43823 0.0
H1480 H 0.40666 0.082 0.49259 0.0
H1481 H 0.37123 0.13816 0.51339 0.0
H1482 H 0.33814 0.00418 0.42831 0.0
H1483 H 0.29563 0.04992 0.48924 0.0
H1484 H 0.29919 0.09081 0.43057 0.0
C1485 C 0.12165 0.36393 0.51353 0.0
C1486 C 0.12944 0.37403 0.49456 0.0
N1487 N 0.11479 0.3898 0.48836 0.0
N1488 N 0.10213 0.3732 0.51922 0.0
C1489 C 0.09903 0.3896 0.50427 0.0
H1490 H 0.12935 0.35022 0.52217 0.0
Co1491 Co 0.08302 0.36464 0.54196 0.0
C1492 C 0.04913 0.37019 0.50403 0.0
O1493 O 0.06242 0.36788 0.4869 0.0
N1494 N 0.063 0.35617 0.56494 0.0
C1495 C 0.03413 0.33929 0.58075 0.0
C1496 C 0.05011 0.33776 0.56484 0.0
C1497 C 0.05412 0.36868 0.5814 0.0
N1498 N 0.03644 0.35883 0.59118 0.0
O1499 O 0.08138 0.39487 0.55113 0.0
H1500 H 0.05034 0.32481 0.5526 0.0
H1501 H 0.05921 0.38548 0.58501 0.0
O1502 O 0.05673 0.36873 0.52375 0.0
C1503 C 0.09701 0.40018 0.56434 0.0
O1504 O 0.11151 0.38488 0.56994 0.0
N1505 N 0.08641 0.33467 0.53403 0.0
C1506 C 0.08124 0.28926 0.53823 0.0
C1507 C 0.07274 0.30031 0.5196 0.0
C1508 C 0.07583 0.3232 0.51758 0.0
C1509 C 0.09791 0.32362 0.55007 0.0
C1510 C 0.09536 0.3008 0.55266 0.0
H1511 H 0.06768 0.33156 0.50418 0.0
H1512 H 0.10669 0.33296 0.56265 0.0
H1513 H 0.08458 0.40026 0.50421 0.0
H1514 H 0.14446 0.36962 0.48578 0.0
H1515 H 0.02025 0.32803 0.58247 0.0
H1516 H 0.0622 0.29172 0.50783 0.0
H1517 H 0.10233 0.29282 0.56718 0.0
C1518 C 0.62745 0.11582 0.51278 0.0
C1519 C 0.61769 0.11976 0.49247 0.0
N1520 N 0.60752 0.10098 0.48569 0.0
N1521 N 0.62361 0.09462 0.51863 0.0
C1522 C 0.61151 0.08602 0.50184 0.0
H1523 H 0.63629 0.12772 0.5229 0.0
Co1524 Co 0.63042 0.08112 0.5453 0.0
C1525 C 0.64112 0.03472 0.53292 0.0
O1526 O 0.6576 0.03503 0.54724 0.0
N1527 N 0.63625 0.06714 0.57285 0.0
C1528 C 0.64852 0.05367 0.60514 0.0
C1529 C 0.65027 0.07081 0.59007 0.0
C1530 C 0.62523 0.04857 0.57882 0.0
N1531 N 0.63308 0.03949 0.5976 0.0
O1532 O 0.59968 0.07996 0.55237 0.0
H1533 H 0.66136 0.0847 0.59186 0.0
H1534 H 0.61213 0.04127 0.56895 0.0
O1535 O 0.62874 0.05183 0.53069 0.0
C1536 C 0.59232 0.09735 0.56182 0.0
O1537 O 0.60559 0.11454 0.56378 0.0
N1538 N 0.66097 0.0837 0.53871 0.0
C1539 C 0.70655 0.07896 0.5409 0.0
C1540 C 0.69462 0.06916 0.52346 0.0
C1541 C 0.6717 0.07255 0.52214 0.0
C1542 C 0.67279 0.09726 0.55234 0.0
C1543 C 0.69572 0.09467 0.55425 0.0
H1544 H 0.66246 0.0644 0.50912 0.0
H1545 H 0.66416 0.10851 0.56335 0.0
H1546 H 0.60572 0.06907 0.50152 0.0
H1547 H 0.61763 0.1354 0.48364 0.0
H1548 H 0.65837 0.05141 0.61999 0.0
H1549 H 0.70241 0.05757 0.51215 0.0
H1550 H 0.70459 0.10364 0.56706 0.0
C1551 C 0.35983 0.8855 0.51003 0.0
C1552 C 0.36868 0.88054 0.48959 0.0
N1553 N 0.38552 0.89469 0.48559 0.0
N1554 N 0.37081 0.90292 0.51872 0.0
C1555 C 0.38634 0.90823 0.50344 0.0
H1556 H 0.34651 0.87671 0.51822 0.0
Co1557 Co 0.3669 0.9142 0.54698 0.0
C1558 C 0.36515 0.96316 0.54228 0.0
O1559 O 0.34934 0.96387 0.55729 0.0
N1560 N 0.36364 0.92512 0.57635 0.0
C1561 C 0.35286 0.93606 0.61006 0.0
C1562 C 0.34841 0.922 0.59262 0.0
C1563 C 0.37795 0.93991 0.5852 0.0
N1564 N 0.37145 0.94733 0.60521 0.0
O1565 O 0.39776 0.91039 0.5528 0.0
H1566 H 0.33449 0.91083 0.59212 0.0
H1567 H 0.39189 0.94673 0.57614 0.0
O1568 O 0.37313 0.9445 0.53594 0.0
C1569 C 0.40359 0.89485 0.56582 0.0
O1570 O 0.38839 0.8808 0.57271 0.0
N1571 N 0.33623 0.91715 0.54141 0.0
C1572 C 0.29157 0.92637 0.54584 0.0
C1573 C 0.30435 0.93815 0.53041 0.0
C1574 C 0.32678 0.93279 0.52796 0.0
C1575 C 0.32303 0.90261 0.55254 0.0
C1576 C 0.30058 0.9073 0.55561 0.0
H1577 H 0.33674 0.94231 0.51651 0.0
H1578 H 0.33044 0.88868 0.56111 0.0
H1579 H 0.39855 0.92121 0.50572 0.0
H1580 H 0.36314 0.8675 0.47855 0.0
H1581 H 0.34273 0.9385 0.6247 0.0
H1582 H 0.29757 0.9523 0.52165 0.0
H1583 H 0.29081 0.8971 0.56673 0.0
C1584 C 0.04497 0.44424 0.26816 0.0
C1585 C 0.0668 0.45195 0.27153 0.0
C1586 C 0.03834 0.43529 0.24771 0.0
C1587 C 0.05337 0.43357 0.22998 0.0
H1588 H 0.03307 0.44452 0.28165 0.0
H1589 H 0.02149 0.42928 0.24589 0.0
S1590 S 0.11157 0.45383 0.22939 0.0
N1591 N 0.10282 0.45894 0.25487 0.0
N1592 N 0.09043 0.44217 0.21642 0.0
C1593 C 0.07502 0.4419 0.2329 0.0
C1594 C 0.08173 0.45105 0.25368 0.0
C1595 C 0.56449 0.03877 0.24771 0.0
C1596 C 0.57039 0.05373 0.23082 0.0
C1597 C 0.55475 0.04626 0.26747 0.0
C1598 C 0.55051 0.06896 0.27103 0.0
H1599 H 0.56749 0.02117 0.24567 0.0
H1600 H 0.55081 0.03422 0.28024 0.0
S1601 S 0.56111 0.1147 0.2314 0.0
N1602 N 0.56997 0.09223 0.21846 0.0
N1603 N 0.55208 0.10619 0.25585 0.0
C1604 C 0.55613 0.08407 0.25427 0.0
C1605 C 0.56595 0.07648 0.23411 0.0
C1606 C 0.95049 0.54664 0.23393 0.0
C1607 C 0.95208 0.56971 0.23038 0.0
C1608 C 0.94246 0.53806 0.25404 0.0
C1609 C 0.93557 0.55225 0.2712 0.0
H1610 H 0.95479 0.53514 0.2208 0.0
H1611 H 0.9412 0.52023 0.25601 0.0
S1612 S 0.93921 0.61374 0.27135 0.0
N1613 N 0.94805 0.60644 0.24645 0.0
N1614 N 0.93293 0.59037 0.2842 0.0
C1615 C 0.93788 0.5753 0.26816 0.0
C1616 C 0.94612 0.58401 0.24777 0.0
C1617 C 0.4233 0.9343 0.26394 0.0
C1618 C 0.44613 0.93079 0.26776 0.0
C1619 C 0.41566 0.94375 0.24412 0.0
C1620 C 0.43058 0.95034 0.2275 0.0
H1621 H 0.41121 0.93 0.27654 0.0
H1622 H 0.39797 0.94597 0.24178 0.0
S1623 S 0.49176 0.94334 0.22842 0.0
N1624 N 0.48343 0.93364 0.25267 0.0
N1625 N 0.46908 0.95166 0.21547 0.0
C1626 C 0.45341 0.94681 0.23096 0.0
C1627 C 0.46119 0.93701 0.25108 0.0
C1628 C 0.06246 0.53694 0.7412 0.0
C1629 C 0.06598 0.55201 0.72375 0.0
C1630 C 0.05396 0.54411 0.76168 0.0
C1631 C 0.0486 0.56656 0.76537 0.0
H1632 H 0.0667 0.51959 0.73916 0.0
H1633 H 0.05217 0.53209 0.77494 0.0
S1634 S 0.05199 0.61203 0.72413 0.0
N1635 N 0.06143 0.59002 0.71083 0.0
N1636 N 0.04575 0.60341 0.74939 0.0
C1637 C 0.05134 0.58162 0.74784 0.0
C1638 C 0.05993 0.57436 0.72701 0.0
C1639 C 0.4241 0.05932 0.73367 0.0
C1640 C 0.44649 0.06471 0.72947 0.0
C1641 C 0.41726 0.05139 0.75443 0.0
C1642 C 0.43257 0.04831 0.77171 0.0
H1643 H 0.41174 0.06112 0.72074 0.0
H1644 H 0.39985 0.04772 0.75701 0.0
S1645 S 0.49283 0.0609 0.76979 0.0
N1646 N 0.48379 0.06703 0.74464 0.0
N1647 N 0.47095 0.05197 0.78365 0.0
C1648 C 0.45501 0.05351 0.76777 0.0
C1649 C 0.46197 0.06172 0.74665 0.0
C1650 C 0.94748 0.45218 0.76367 0.0
C1651 C 0.95168 0.42941 0.767 0.0
C1652 C 0.93902 0.46007 0.74345 0.0
C1653 C 0.93431 0.44541 0.72595 0.0
H1654 H 0.95006 0.46392 0.77705 0.0
H1655 H 0.9357 0.47764 0.74166 0.0
S1656 S 0.94512 0.38477 0.72521 0.0
N1657 N 0.95237 0.39269 0.75044 0.0
N1658 N 0.93651 0.40743 0.71244 0.0
C1659 C 0.93923 0.42275 0.72878 0.0
C1660 C 0.94788 0.41476 0.74931 0.0
C1661 C 0.56434 0.96063 0.75185 0.0
C1662 C 0.56799 0.9459 0.76953 0.0
C1663 C 0.55525 0.95314 0.73176 0.0
C1664 C 0.54935 0.9307 0.72877 0.0
H1665 H 0.56894 0.97794 0.75341 0.0
H1666 H 0.5535 0.96485 0.71823 0.0
S1667 S 0.55265 0.88624 0.77109 0.0
N1668 N 0.56293 0.90836 0.78356 0.0
N1669 N 0.54598 0.89435 0.74577 0.0
C1670 C 0.5521 0.91604 0.74662 0.0
C1671 C 0.56136 0.92362 0.76702 0.0
C1672 C 0.23499 0.04832 0.45677 0.0
C1673 C 0.23281 0.04093 0.43472 0.0
C1674 C 0.25507 0.05717 0.46453 0.0
C1675 C 0.27359 0.05896 0.45045 0.0
H1676 H 0.22079 0.04806 0.46782 0.0
H1677 H 0.25593 0.0632 0.48145 0.0
S1678 S 0.27699 0.03919 0.39212 0.0
N1679 N 0.25101 0.0344 0.39945 0.0
N1680 N 0.28906 0.05029 0.41408 0.0
C1681 C 0.27183 0.05062 0.42864 0.0
C1682 C 0.25134 0.04182 0.42075 0.0
C1683 C 0.95098 0.2468 0.42194 0.0
C1684 C 0.95119 0.22817 0.43592 0.0
C1685 C 0.94121 0.26674 0.4288 0.0
C1686 C 0.93115 0.26874 0.44983 0.0
H1687 H 0.95842 0.24595 0.40559 0.0
H1688 H 0.94173 0.28082 0.41761 0.0
S1689 S 0.92597 0.22443 0.49209 0.0
N1690 N 0.93957 0.21266 0.47141 0.0
N1691 N 0.92142 0.2503 0.48429 0.0
C1692 C 0.9312 0.25027 0.46396 0.0
C1693 C 0.94113 0.22994 0.45699 0.0
C1694 C 0.75476 0.94404 0.4211 0.0
C1695 C 0.77253 0.94622 0.43604 0.0
C1696 C 0.73427 0.93563 0.42804 0.0
C1697 C 0.73073 0.92898 0.45017 0.0
H1698 H 0.75674 0.9488 0.40387 0.0
H1699 H 0.72099 0.93449 0.41596 0.0
S1700 S 0.77205 0.93066 0.49569 0.0
N1701 N 0.78543 0.94062 0.47393 0.0
N1702 N 0.74669 0.92496 0.48697 0.0
C1703 C 0.74824 0.93127 0.46537 0.0
C1704 C 0.76918 0.93983 0.4583 0.0
C1705 C 0.07106 0.77085 0.45598 0.0
C1706 C 0.05698 0.77403 0.43752 0.0
C1707 C 0.07842 0.74965 0.46205 0.0
C1708 C 0.07227 0.73097 0.44964 0.0
H1709 H 0.07656 0.78488 0.46578 0.0
H1710 H 0.08908 0.74785 0.47643 0.0
S1711 S 0.0349 0.7299 0.40074 0.0
N1712 N 0.0365 0.75641 0.40754 0.0
N1713 N 0.05078 0.7166 0.41869 0.0
C1714 C 0.05826 0.73382 0.4312 0.0
C1715 C 0.05056 0.75535 0.42515 0.0
C1716 C 0.25278 0.93966 0.53884 0.0
C1717 C 0.27015 0.93531 0.55374 0.0
C1718 C 0.23236 0.94784 0.54647 0.0
C1719 C 0.22874 0.95215 0.56919 0.0
H1720 H 0.25483 0.93621 0.52131 0.0
H1721 H 0.21906 0.95009 0.53457 0.0
S1722 S 0.27025 0.94652 0.61428 0.0
N1723 N 0.28331 0.93785 0.5918 0.0
N1724 N 0.24504 0.95349 0.60608 0.0
C1725 C 0.24639 0.94881 0.58405 0.0
C1726 C 0.26707 0.94034 0.57632 0.0
C1727 C 0.04002 0.24557 0.55673 0.0
C1728 C 0.05379 0.22827 0.56411 0.0
C1729 C 0.04908 0.26488 0.54743 0.0
C1730 C 0.0722 0.26748 0.54505 0.0
H1731 H 0.02217 0.24436 0.55855 0.0
H1732 H 0.03794 0.2782 0.54275 0.0
S1733 S 0.11521 0.22597 0.55925 0.0
N1734 N 0.09159 0.21417 0.56655 0.0
N1735 N 0.1085 0.25061 0.54933 0.0
C1736 C 0.08608 0.25004 0.55168 0.0
C1737 C 0.0769 0.2304 0.56112 0.0
C1738 C 0.75355 0.05638 0.57617 0.0
C1739 C 0.77071 0.05298 0.56076 0.0
C1740 C 0.73303 0.06499 0.5695 0.0
C1741 C 0.72891 0.07072 0.5472 0.0
H1742 H 0.75603 0.05238 0.59353 0.0
H1743 H 0.72019 0.06695 0.58193 0.0
S1744 S 0.76883 0.06609 0.5006 0.0
N1745 N 0.78257 0.05659 0.52234 0.0
N1746 N 0.74393 0.07289 0.50983 0.0
C1747 C 0.74592 0.06739 0.53161 0.0
C1748 C 0.76683 0.05851 0.53839 0.0
C1749 C 0.9375 0.73446 0.57007 0.0
C1750 C 0.92882 0.731 0.54868 0.0
C1751 C 0.94599 0.75514 0.57636 0.0
C1752 C 0.94598 0.77312 0.56149 0.0
H1753 H 0.93806 0.72092 0.5819 0.0
H1754 H 0.95279 0.75702 0.5929 0.0
S1755 S 0.9232 0.77286 0.50412 0.0
N1756 N 0.91984 0.74712 0.51293 0.0
N1757 N 0.93499 0.78639 0.52485 0.0
C1758 C 0.93686 0.76991 0.54014 0.0
C1759 C 0.92849 0.74874 0.5337 0.0
C1760 C 0.45233 0.23377 0.0504 0.0
C1761 C 0.4296 0.22908 0.04777 0.0
C1762 C 0.45949 0.25414 0.05906 0.0
C1763 C 0.44415 0.27053 0.06541 0.0
H1764 H 0.46468 0.22137 0.04625 0.0
H1765 H 0.47713 0.25695 0.06107 0.0
S1766 S 0.38283 0.26705 0.05986 0.0
N1767 N 0.39187 0.24272 0.05107 0.0
N1768 N 0.40519 0.28125 0.06689 0.0
C1769 C 0.42136 0.26619 0.06234 0.0
C1770 C 0.41412 0.24541 0.05365 0.0
C1771 C 0.46134 0.74675 0.93657 0.0
C1772 C 0.44643 0.72976 0.9308 0.0
C1773 C 0.45374 0.76667 0.94587 0.0
C1774 C 0.43099 0.77031 0.94975 0.0
H1775 H 0.47897 0.74469 0.93376 0.0
H1776 H 0.46573 0.77951 0.94971 0.0
S1777 S 0.38533 0.73056 0.93936 0.0
N1778 N 0.4079 0.71743 0.93106 0.0
N1779 N 0.39375 0.75517 0.948 0.0
C1780 C 0.41593 0.75347 0.94428 0.0
C1781 C 0.42363 0.73312 0.93496 0.0
C1782 C 0.26581 0.44485 0.95299 0.0
C1783 C 0.26902 0.4493 0.93025 0.0
C1784 C 0.24565 0.43627 0.96086 0.0
C1785 C 0.22808 0.43172 0.94622 0.0
H1786 H 0.27921 0.44741 0.9647 0.0
H1787 H 0.24394 0.4328 0.97842 0.0
S1788 S 0.22718 0.443 0.88562 0.0
N1789 N 0.25241 0.4502 0.89354 0.0
N1790 N 0.21446 0.43423 0.90826 0.0
C1791 C 0.23084 0.43682 0.92357 0.0
C1792 C 0.25133 0.44554 0.91559 0.0
C1793 C 0.57183 0.26587 0.93985 0.0
C1794 C 0.54935 0.26946 0.93465 0.0
C1795 C 0.57925 0.24526 0.94757 0.0
C1796 C 0.56445 0.22746 0.95036 0.0
H1797 H 0.5838 0.27917 0.938 0.0
H1798 H 0.59673 0.2432 0.95121 0.0
S1799 S 0.50399 0.22818 0.93827 0.0
N1800 N 0.51238 0.25364 0.93258 0.0
N1801 N 0.52628 0.21464 0.9467 0.0
C1802 C 0.54185 0.23091 0.94536 0.0
C1803 C 0.5343 0.25197 0.9376 0.0
C1804 C 0.76593 0.56402 0.92424 0.0
C1805 C 0.7693 0.5683 0.94702 0.0
C1806 C 0.74577 0.55552 0.91637 0.0
C1807 C 0.72833 0.55065 0.93099 0.0
H1808 H 0.77908 0.56704 0.91236 0.0
H1809 H 0.74382 0.55274 0.8987 0.0
S1810 S 0.72805 0.55972 0.99192 0.0
N1811 N 0.75303 0.56772 0.98396 0.0
N1812 N 0.71525 0.55138 0.96917 0.0
C1813 C 0.73142 0.55474 0.95379 0.0
C1814 C 0.75187 0.56361 0.96181 0.0
C1815 C 0.56718 0.75336 0.03767 0.0
C1816 C 0.57041 0.77089 0.05269 0.0
C1817 C 0.55759 0.73332 0.04464 0.0
C1818 C 0.55077 0.73021 0.06681 0.0
H1819 H 0.57246 0.75501 0.02056 0.0
H1820 H 0.55613 0.71991 0.03275 0.0
S1821 S 0.55281 0.77213 0.11175 0.0
N1822 N 0.56408 0.78465 0.09014 0.0
N1823 N 0.54618 0.74696 0.10317 0.0
C1824 C 0.55316 0.74791 0.08174 0.0
C1825 C 0.56292 0.76826 0.07468 0.0
C1826 C 0.26404 0.54751 0.04738 0.0
C1827 C 0.26802 0.5466 0.07041 0.0
C1828 C 0.24399 0.55577 0.03895 0.0
C1829 C 0.22728 0.56355 0.05324 0.0
H1830 H 0.27681 0.54247 0.03577 0.0
H1831 H 0.24169 0.55644 0.02112 0.0
S1832 S 0.22856 0.56241 0.11485 0.0
N1833 N 0.25304 0.55264 0.10733 0.0
N1834 N 0.21526 0.56803 0.09155 0.0
C1835 C 0.23079 0.56208 0.07631 0.0
C1836 C 0.25118 0.55365 0.08487 0.0
C1837 C 0.75361 0.4364 0.03922 0.0
C1838 C 0.77104 0.43174 0.054 0.0
C1839 C 0.73347 0.44519 0.04691 0.0
C1840 C 0.73012 0.44974 0.06962 0.0
H1841 H 0.75542 0.43287 0.02168 0.0
H1842 H 0.72018 0.44781 0.03508 0.0
S1843 S 0.77161 0.44332 0.11455 0.0
N1844 N 0.78441 0.43434 0.09205 0.0
N1845 N 0.74649 0.45067 0.10643 0.0
C1846 C 0.74768 0.4459 0.08441 0.0
C1847 C 0.76815 0.43696 0.07661 0.0
C1848 C 0.99268 0.50933 0.1206 0.0
C1849 C 0.98444 0.51824 0.14056 0.0
C1850 C 0.00808 0.49172 0.1208 0.0
C1851 C 0.01621 0.48317 0.14098 0.0
H1852 H 0.98687 0.5157 0.10482 0.0
H1853 H 0.014 0.48509 0.10518 0.0
S1854 S 7e-05 0.50111 0.19767 0.0
N1855 N 0.98542 0.51703 0.1809 0.0
N1856 N 0.01487 0.48495 0.18127 0.0
C1857 C 0.00824 0.4922 0.16094 0.0
C1858 C 0.99223 0.5095 0.16073 0.0
C1859 C 0.49582 0.04032 0.1387 0.0
C1860 C 0.51505 0.02778 0.13465 0.0
C1861 C 0.47475 0.03162 0.13489 0.0
C1862 C 0.47189 0.00969 0.12744 0.0
H1863 H 0.497 0.05702 0.14525 0.0
H1864 H 0.46059 0.04201 0.13871 0.0
S1865 S 0.51701 0.97 0.11366 0.0
N1866 N 0.53013 0.99264 0.12187 0.0
N1867 N 0.49025 0.97577 0.11527 0.0
C1868 C 0.49101 0.99703 0.12275 0.0
C1869 C 0.51265 0.00618 0.12623 0.0
C1870 C 0.99278 0.48732 0.84025 0.0
C1871 C 0.98243 0.48086 0.86011 0.0
C1872 C 0.00927 0.5036 0.84009 0.0
C1873 C 0.01562 0.51453 0.8597 0.0
H1874 H 0.98821 0.47959 0.82466 0.0
H1875 H 0.01671 0.50803 0.82432 0.0
S1876 S 0.99318 0.50402 0.91602 0.0
N1877 N 0.97968 0.48635 0.89994 0.0
N1878 N 0.01013 0.51797 0.89953 0.0
C1879 C 0.00524 0.50845 0.87969 0.0
C1880 C 0.98881 0.49129 0.87994 0.0
C1881 C 0.5096 0.9907 0.88068 0.0
C1882 C 0.51782 0.98272 0.86031 0.0
C1883 C 0.49326 0.00746 0.88127 0.0
C1884 C 0.48545 0.01731 0.86155 0.0
H1885 H 0.51542 0.98359 0.89613 0.0
H1886 H 0.48688 0.0129 0.89718 0.0
S1887 S 0.50239 0.00268 0.8041 0.0
N1888 N 0.51685 0.98585 0.82011 0.0
N1889 N 0.48754 0.018 0.82124 0.0
C1890 C 0.49405 0.00976 0.84122 0.0
C1891 C 0.5099 0.9923 0.84059 0.0
C1892 C 0.11387 0.01502 0.50428 0.0
C1893 C 0.11956 0.00884 0.48246 0.0
C1894 C 0.11718 0.00051 0.52219 0.0
C1895 C 0.12636 0.97929 0.51897 0.0
H1896 H 0.10756 0.0315 0.50772 0.0
H1897 H 0.1133 0.00633 0.53874 0.0
S1898 S 0.1409 0.95389 0.46467 0.0
N1899 N 0.13236 0.97913 0.45836 0.0
N1900 N 0.13904 0.95205 0.49194 0.0
C1901 C 0.13107 0.97252 0.49708 0.0
C1902 C 0.12755 0.98723 0.47886 0.0
C1903 C 0.01911 0.12952 0.49608 0.0
C1904 C 0.01353 0.12841 0.51871 0.0
C1905 C 0.00286 0.12813 0.47956 0.0
C1906 C 0.98026 0.12649 0.48508 0.0
H1907 H 0.03609 0.13246 0.49103 0.0
H1908 H 0.00798 0.13003 0.46244 0.0
S1909 S 0.95676 0.12165 0.54174 0.0
N1910 N 0.98378 0.12402 0.54571 0.0
N1911 N 0.9531 0.12234 0.51457 0.0
C1912 C 0.97444 0.12444 0.50756 0.0
C1913 C 0.9911 0.12521 0.52442 0.0
C1914 C 0.87711 0.01704 0.49242 0.0
C1915 C 0.87327 0.0115 0.51473 0.0
C1916 C 0.87808 0.00067 0.47591 0.0
C1917 C 0.87477 0.97816 0.48115 0.0
H1918 H 0.87862 0.03424 0.4876 0.0
H1919 H 0.87997 0.00589 0.4588 0.0
S1920 S 0.86699 0.95482 0.5377 0.0
N1921 N 0.86861 0.98188 0.54164 0.0
N1922 N 0.86977 0.95104 0.51068 0.0
C1923 C 0.8724 0.9723 0.50367 0.0
C1924 C 0.87185 0.98899 0.52048 0.0
C1925 C 0.01284 0.89004 0.51177 0.0
C1926 C 0.99301 0.88138 0.52052 0.0
C1927 C 0.01736 0.88916 0.48892 0.0
C1928 C 0.00239 0.87925 0.47391 0.0
H1929 H 0.02526 0.897 0.52276 0.0
H1930 H 0.03315 0.89548 0.4832 0.0
S1931 S 0.9476 0.85491 0.48827 0.0
N1932 N 0.95797 0.86315 0.51222 0.0
N1933 N 0.96619 0.86189 0.46944 0.0
C1934 C 0.98202 0.87149 0.48235 0.0
C1935 C 0.97741 0.87242 0.5056 0.0
C1936 C 0.51121 0.12715 0.99096 0.0
C1937 C 0.51345 0.1267 0.96776 0.0
C1938 C 0.49014 0.12583 0.00091 0.0
C1939 C 0.47077 0.12388 0.9879 0.0
H1940 H 0.52561 0.12996 0.00136 0.0
H1941 H 0.48898 0.12753 0.01877 0.0
S1942 S 0.46864 0.11767 0.92667 0.0
N1943 N 0.4952 0.12143 0.93226 0.0
N1944 N 0.45576 0.11822 0.95082 0.0
C1945 C 0.47317 0.12154 0.96479 0.0
C1946 C 0.49449 0.12317 0.95474 0.0
C1947 C 0.47695 0.85753 0.03167 0.0
C1948 C 0.47341 0.86919 0.01182 0.0
C1949 C 0.49827 0.8544 0.04004 0.0
C1950 C 0.51701 0.86325 0.02927 0.0
H1951 H 0.46322 0.85011 0.0406 0.0
H1952 H 0.49997 0.84502 0.05529 0.0
S1953 S 0.51672 0.89585 0.97705 0.0
N1954 N 0.49032 0.88999 0.98159 0.0
N1955 N 0.53062 0.88463 0.99786 0.0
C1956 C 0.51375 0.87548 0.00967 0.0
C1957 C 0.4919 0.87832 0.00083 0.0
C1958 C 0.13405 0.50317 0.97979 0.0
C1959 C 0.13041 0.48081 0.98541 0.0
C1960 C 0.13183 0.52012 0.99551 0.0
C1961 C 0.12725 0.51522 0.01783 0.0
H1962 H 0.13925 0.50766 0.96319 0.0
H1963 H 0.13514 0.53702 0.99036 0.0
S1964 S 0.11621 0.45955 0.04152 0.0
N1965 N 0.12105 0.45486 0.01494 0.0
N1966 N 0.11846 0.48666 0.04486 0.0
C1967 C 0.12326 0.49304 0.02376 0.0
C1968 C 0.12456 0.47583 0.00749 0.0
C1969 C 0.88026 0.50678 0.99266 0.0
C1970 C 0.86 0.51598 0.98555 0.0
C1971 C 0.88072 0.48993 0.00891 0.0
C1972 C 0.86103 0.48254 0.01909 0.0
H1973 H 0.8957 0.51227 0.98529 0.0
H1974 H 0.89654 0.48286 0.01373 0.0
S1975 S 0.80385 0.50174 0.0064 0.0
N1976 N 0.8199 0.51621 0.9896 0.0
N1977 N 0.82083 0.48587 0.02086 0.0
C1978 C 0.8408 0.49199 0.01229 0.0
C1979 C 0.84028 0.50838 0.99533 0.0
C1980 C 0.495 0.00808 0.65565 0.0
C1981 C 0.48489 0.01537 0.63598 0.0
C1982 C 0.51191 0.99227 0.65527 0.0
C1983 C 0.519 0.98263 0.63523 0.0
H1984 H 0.4899 0.01478 0.67155 0.0
H1985 H 0.51911 0.98716 0.67094 0.0
S1986 S 0.49755 0.99577 0.5791 0.0
N1987 N 0.48322 0.01215 0.59582 0.0
N1988 N 0.51451 0.98135 0.59516 0.0
C1989 C 0.50892 0.98959 0.61537 0.0
C1990 C 0.49204 0.00631 0.61572 0.0
C1991 C 0.99421 0.48632 0.6521 0.0
C1992 C 0.9834 0.48001 0.6324 0.0
C1993 C 0.01032 0.50293 0.65215 0.0
C1994 C 0.01676 0.51349 0.63242 0.0
H1995 H 0.98982 0.47874 0.66781 0.0
H1996 H 0.01793 0.50745 0.66781 0.0
S1997 S 0.99379 0.50311 0.57635 0.0
N1998 N 0.97997 0.48587 0.59262 0.0
N1999 N 0.01135 0.51657 0.59258 0.0
C2000 C 0.00646 0.50719 0.61248 0.0
C2001 C 0.98943 0.49062 0.61252 0.0
C2002 C 0.45515 0.00468 0.35773 0.0
C2003 C 0.46698 0.98549 0.3637 0.0
C2004 C 0.46398 0.02578 0.36112 0.0
C2005 C 0.4853 0.02863 0.37016 0.0
H2006 H 0.43895 0.00344 0.35002 0.0
H2007 H 0.45425 0.03991 0.35575 0.0
S2008 S 0.52282 0.98372 0.38954 0.0
N2009 N 0.50071 0.97059 0.38006 0.0
N2010 N 0.5177 0.01042 0.38612 0.0
C2011 C 0.49713 0.00961 0.37689 0.0
C2012 C 0.48789 0.988 0.37372 0.0
C2013 C 0.99358 0.47873 0.37456 0.0
C2014 C 0.01632 0.48398 0.37441 0.0
C2015 C 0.9774 0.49543 0.37433 0.0
C2016 C 0.98343 0.51797 0.37347 0.0
H2017 H 0.98826 0.46157 0.37386 0.0
H2018 H 0.96013 0.49058 0.37323 0.0
S2019 S 0.04062 0.54061 0.37489 0.0
N2020 N 0.04395 0.51344 0.37521 0.0
N2021 N 0.01354 0.54472 0.37435 0.0
C2022 C 0.00604 0.52346 0.37458 0.0
C2023 C 0.02251 0.50648 0.37521 0.0
C2024 C 0.61888 0.5056 0.991 0.0
C2025 C 0.63898 0.51334 0.98195 0.0
C2026 C 0.61879 0.48989 0.00836 0.0
C2027 C 0.63878 0.4809 0.01649 0.0
H2028 H 0.60323 0.51209 0.98498 0.0
H2029 H 0.60307 0.4845 0.01521 0.0
S2030 S 0.69572 0.49556 0.99802 0.0
N2031 N 0.67923 0.51105 0.98262 0.0
N2032 N 0.67907 0.48094 0.01409 0.0
C2033 C 0.65887 0.48834 0.00726 0.0
C2034 C 0.65897 0.50471 0.99026 0.0
C2035 C 0.49683 0.65652 0.98788 0.0
C2036 C 0.48532 0.63725 0.98168 0.0
C2037 C 0.51356 0.65583 0.0039 0.0
C2038 C 0.519 0.63596 0.01485 0.0
H2039 H 0.49289 0.67231 0.98025 0.0
H2040 H 0.52182 0.67121 0.00822 0.0
S2041 S 0.49347 0.58092 0.00483 0.0
N2042 N 0.48063 0.59762 0.98724 0.0
N2043 N 0.51145 0.59651 0.0185 0.0
C2044 C 0.50752 0.61653 0.00894 0.0
C2045 C 0.49086 0.61712 0.99201 0.0
C2046 C 0.38415 0.51475 0.99679 0.0
C2047 C 0.37674 0.50979 0.01841 0.0
C2048 C 0.37983 0.50041 0.97896 0.0
C2049 C 0.36768 0.48071 0.982 0.0
H2050 H 0.39296 0.53006 0.99346 0.0
H2051 H 0.38561 0.50512 0.9626 0.0
S2052 S 0.34676 0.45879 0.03572 0.0
N2053 N 0.35885 0.48248 0.04215 0.0
N2054 N 0.34938 0.45637 0.00857 0.0
C2055 C 0.36057 0.47533 0.00361 0.0
C2056 C 0.36551 0.48961 0.02182 0.0
C2057 C 0.50367 0.37083 0.02281 0.0
C2058 C 0.48093 0.37024 0.01765 0.0
C2059 C 0.51975 0.37045 0.00597 0.0
C2060 C 0.51364 0.37011 0.98342 0.0
H2061 H 0.50912 0.37012 0.03994 0.0
H2062 H 0.53708 0.36961 0.01067 0.0
S2063 S 0.45615 0.37095 0.96133 0.0
N2064 N 0.45303 0.37094 0.98856 0.0
N2065 N 0.48321 0.37095 0.95688 0.0
C2066 C 0.49094 0.37112 0.97807 0.0
C2067 C 0.47459 0.37099 0.99522 0.0
C2068 C 0.98717 0.63309 0.50497 0.0
C2069 C 0.98427 0.63124 0.52802 0.0
C2070 C 0.00844 0.63156 0.49549 0.0
C2071 C 0.02739 0.62805 0.50882 0.0
H2072 H 0.97315 0.63702 0.4944 0.0
H2073 H 0.01013 0.6342 0.47779 0.0
S2074 S 0.02757 0.61806 0.5696 0.0
N2075 N 0.00133 0.62314 0.56357 0.0
N2076 N 0.04114 0.61967 0.54587 0.0
C2077 C 0.02427 0.6245 0.53169 0.0
C2078 C 0.00274 0.62627 0.54127 0.0
C2079 C 0.01035 0.3688 0.51882 0.0
C2080 C 0.02481 0.37198 0.50073 0.0
C2081 C 0.98729 0.36892 0.516 0.0
C2082 C 0.97769 0.3723 0.49497 0.0
H2083 H 0.01683 0.36566 0.5353 0.0
H2084 H 0.97697 0.36585 0.53039 0.0
S2085 S 0.00825 0.38386 0.44263 0.0
N2086 N 0.02788 0.38024 0.46135 0.0
N2087 N 0.98455 0.38068 0.45599 0.0
C2088 C 0.99196 0.37639 0.47687 0.0
C2089 C 0.01548 0.37618 0.47976 0.0
C2090 C 0.65972 0.00546 0.51087 0.0
C2091 C 0.63997 0.0164 0.51673 0.0
C2092 C 0.65987 0.98893 0.49467 0.0
C2093 C 0.64021 0.98229 0.48408 0.0
H2094 H 0.67538 0.01011 0.51839 0.0
H2095 H 0.67556 0.98123 0.49042 0.0
S2096 S 0.58397 0.00498 0.4939 0.0
N2097 N 0.60012 0.01926 0.51087 0.0
N2098 N 0.60037 0.98731 0.4808 0.0
C2099 C 0.62021 0.99255 0.49012 0.0
C2100 C 0.62011 0.00989 0.50632 0.0
C2101 C 0.37294 0.98652 0.50896 0.0
C2102 C 0.37237 0.98414 0.53213 0.0
C2103 C 0.37527 0.00758 0.49924 0.0
C2104 C 0.37724 0.02682 0.51244 0.0
H2105 H 0.37018 0.97228 0.49833 0.0
H2106 H 0.37431 0.00885 0.48133 0.0
S2107 S 0.38136 0.02837 0.57387 0.0
N2108 N 0.37703 0.00198 0.56794 0.0
N2109 N 0.38201 0.04142 0.54981 0.0
C2110 C 0.37869 0.02422 0.53559 0.0
C2111 C 0.37605 0.00289 0.54542 0.0
C2112 C 0.13548 0.51033 0.11639 0.0
C2113 C 0.12038 0.52738 0.11133 0.0
C2114 C 0.12797 0.48951 0.1235 0.0
C2115 C 0.10517 0.48516 0.12565 0.0
H2116 H 0.1531 0.51281 0.11387 0.0
H2117 H 0.13997 0.4765 0.12657 0.0
S2118 S 0.05935 0.52562 0.11747 0.0
N2119 N 0.08206 0.53947 0.11093 0.0
N2120 N 0.06778 0.50054 0.12456 0.0
C2121 C 0.09004 0.50253 0.12169 0.0
C2122 C 0.09771 0.52361 0.11445 0.0
C2123 C 0.50719 0.09601 0.11443 0.0
C2124 C 0.52254 0.10965 0.12567 0.0
C2125 C 0.48828 0.10485 0.10434 0.0
C2126 C 0.48404 0.12771 0.10501 0.0
H2127 H 0.51017 0.07841 0.11268 0.0
H2128 H 0.47786 0.09394 0.09458 0.0
S2129 S 0.51709 0.17032 0.13456 0.0
N2130 N 0.53097 0.14702 0.13844 0.0
N2131 N 0.49499 0.1635 0.11987 0.0
C2132 C 0.49819 0.14129 0.11763 0.0
C2133 C 0.51756 0.13233 0.12783 0.0
C2134 C 0.8717 0.51313 0.12439 0.0
C2135 C 0.89464 0.51715 0.1258 0.0
C2136 C 0.86363 0.49242 0.11754 0.0
C2137 C 0.8783 0.47519 0.11193 0.0
H2138 H 0.85999 0.52629 0.1279 0.0
H2139 H 0.84591 0.49014 0.11568 0.0
S2140 S 0.93954 0.47599 0.11607 0.0
N2141 N 0.93174 0.50118 0.1235 0.0
N2142 N 0.91642 0.46253 0.1102 0.0
C2143 C 0.90114 0.47862 0.11427 0.0
C2144 C 0.90937 0.49955 0.12131 0.0
C2145 C 0.49883 0.88385 0.14022 0.0
C2146 C 0.48427 0.89649 0.12706 0.0
C2147 C 0.51807 0.8744 0.13122 0.0
C2148 C 0.52352 0.87734 0.10872 0.0
H2149 H 0.49584 0.88223 0.15787 0.0
H2150 H 0.52925 0.86563 0.1422 0.0
S2151 S 0.48944 0.90716 0.06664 0.0
N2152 N 0.47576 0.91025 0.09012 0.0
N2153 N 0.51131 0.892 0.07298 0.0
C2154 C 0.50829 0.88883 0.09509 0.0
C2155 C 0.48877 0.89846 0.10429 0.0
C2156 C 0.1183 0.50652 0.86367 0.0
C2157 C 0.10813 0.52226 0.87754 0.0
C2158 C 0.1254 0.48604 0.87213 0.0
C2159 C 0.12245 0.48062 0.89467 0.0
H2160 H 0.12002 0.50973 0.84607 0.0
H2161 H 0.13275 0.47416 0.86084 0.0
S2162 S 0.09838 0.51745 0.93801 0.0
N2163 N 0.09708 0.53204 0.91494 0.0
N2164 N 0.10981 0.49361 0.93089 0.0
C2165 C 0.11285 0.49664 0.90876 0.0
C2166 C 0.1059 0.51746 0.90017 0.0
C2167 C 0.52187 0.09963 0.88118 0.0
C2168 C 0.5266 0.12229 0.88339 0.0
C2169 C 0.50059 0.09241 0.87555 0.0
C2170 C 0.4832 0.10762 0.8721 0.0
H2171 H 0.53462 0.08741 0.88454 0.0
H2172 H 0.49764 0.07475 0.87431 0.0
S2173 S 0.48696 0.16879 0.87629 0.0
N2174 N 0.51233 0.15997 0.88177 0.0
N2175 N 0.47214 0.14633 0.87107 0.0
C2176 C 0.48787 0.13038 0.8735 0.0
C2177 C 0.50962 0.13775 0.87924 0.0
C2178 C 0.88255 0.49241 0.8617 0.0
C2179 C 0.88844 0.47477 0.87573 0.0
C2180 C 0.87538 0.51268 0.87052 0.0
C2181 C 0.8739 0.51583 0.8936 0.0
H2182 H 0.88444 0.49079 0.8439 0.0
H2183 H 0.87169 0.5262 0.85928 0.0
S2184 S 0.88435 0.47328 0.93701 0.0
N2185 N 0.89041 0.46076 0.9134 0.0
N2186 N 0.87648 0.4986 0.93012 0.0
C2187 C 0.87867 0.49781 0.90769 0.0
C2188 C 0.88606 0.47732 0.8987 0.0
C2189 C 0.50159 0.90063 0.88024 0.0
C2190 C 0.51841 0.88759 0.87064 0.0
C2191 C 0.48383 0.89088 0.89151 0.0
C2192 C 0.48225 0.8677 0.89347 0.0
H2193 H 0.5027 0.91856 0.87995 0.0
H2194 H 0.47231 0.90159 0.90017 0.0
S2195 S 0.51959 0.82614 0.86782 0.0
N2196 N 0.53085 0.8503 0.86148 0.0
N2197 N 0.49689 0.83196 0.88202 0.0
C2198 C 0.49767 0.85449 0.882 0.0
C2199 C 0.51591 0.86442 0.87072 0.0
C2200 C 0.14022 0.11896 0.49842 0.0
C2201 C 0.12844 0.10594 0.48305 0.0
C2202 C 0.12964 0.1283 0.51688 0.0
C2203 C 0.10687 0.12491 0.52066 0.0
H2204 H 0.15798 0.12108 0.49666 0.0
H2205 H 0.13957 0.13742 0.52874 0.0
S2206 S 0.06793 0.09412 0.48402 0.0
N2207 N 0.09237 0.09139 0.47207 0.0
N2208 N 0.07239 0.10956 0.50618 0.0
C2209 C 0.09462 0.11305 0.50468 0.0
C2210 C 0.1054 0.10347 0.48595 0.0
C2211 C 0.88393 0.12998 0.51419 0.0
C2212 C 0.87406 0.1089 0.51506 0.0
C2213 C 0.89076 0.13898 0.49386 0.0
C2214 C 0.88775 0.12711 0.474 0.0
H2215 H 0.88717 0.13904 0.52938 0.0
H2216 H 0.89939 0.15474 0.49372 0.0
S2217 S 0.8596 0.0732 0.46709 0.0
N2218 N 0.85922 0.07777 0.49415 0.0
N2219 N 0.87257 0.09463 0.45601 0.0
C2220 C 0.87694 0.10666 0.47456 0.0
C2221 C 0.86993 0.09755 0.49512 0.0
C2222 C 0.89743 0.89737 0.50982 0.0
C2223 C 0.89676 0.87487 0.51563 0.0
C2224 C 0.89141 0.90438 0.48865 0.0
C2225 C 0.88427 0.88921 0.4724 0.0
H2226 H 0.90278 0.90967 0.52178 0.0
H2227 H 0.89214 0.92193 0.48514 0.0
S2228 S 0.88122 0.82813 0.47878 0.0
N2229 N 0.88959 0.83715 0.50329 0.0
N2230 N 0.87789 0.85046 0.46323 0.0
C2231 C 0.88358 0.86657 0.47793 0.0
C2232 C 0.88983 0.85937 0.49962 0.0
C2233 C 0.10862 0.90907 0.51059 0.0
C2234 C 0.1166 0.89368 0.52626 0.0
C2235 C 0.10198 0.90237 0.48946 0.0
C2236 C 0.10307 0.88003 0.48311 0.0
H2237 H 0.10777 0.92656 0.51448 0.0
H2238 H 0.09601 0.91478 0.4779 0.0
S2239 S 0.12099 0.83285 0.51824 0.0
N2240 N 0.12416 0.85488 0.53426 0.0
N2241 N 0.11159 0.84225 0.49426 0.0
C2242 C 0.11081 0.86436 0.49853 0.0
C2243 C 0.11757 0.87119 0.52018 0.0
C2244 C 0.61831 0.99402 0.6375 0.0
C2245 C 0.61326 0.97639 0.62308 0.0
C2246 C 0.62543 0.01453 0.62914 0.0
C2247 C 0.62764 0.01792 0.60616 0.0
H2248 H 0.6157 0.99223 0.65519 0.0
H2249 H 0.62836 0.02807 0.64058 0.0
S2250 S 0.61984 0.97555 0.56203 0.0
N2251 N 0.61318 0.96267 0.58527 0.0
N2252 N 0.62687 0.00095 0.56946 0.0
C2253 C 0.62388 -0.00011 0.59177 0.0
C2254 C 0.6166 0.97917 0.60027 0.0
C2255 C 0.9886 0.63533 0.61858 0.0
C2256 C 0.97148 0.6208 0.61228 0.0
C2257 C 0.0096 0.62719 0.62441 0.0
C2258 C 0.01413 0.60429 0.62398 0.0
H2259 H 0.98609 0.6531 0.61784 0.0
H2260 H 0.02264 0.6389 0.62831 0.0
S2261 S 0.97341 0.55944 0.61219 0.0
N2262 N 0.9594 0.58266 0.60841 0.0
N2263 N 0.99868 0.56718 0.61945 0.0
C2264 C 0.99662 0.58961 0.61897 0.0
C2265 C 0.97534 0.59792 0.61311 0.0
C2266 C 0.36424 0.98398 0.62165 0.0
C2267 C 0.37931 0.96733 0.61536 0.0
C2268 C 0.37169 0.00522 0.62747 0.0
C2269 C 0.39442 0.0105 0.62704 0.0
H2270 H 0.34655 0.98093 0.62089 0.0
H2271 H 0.35953 0.01785 0.63137 0.0
S2272 S 0.44059 0.97135 0.61495 0.0
N2273 N 0.41783 0.95656 0.61128 0.0
N2274 N 0.43203 0.99631 0.62231 0.0
C2275 C 0.40968 0.99351 0.62196 0.0
C2276 C 0.40206 0.97195 0.61611 0.0
C2277 C 0.99495 0.40109 0.60985 0.0
C2278 C 0.97969 0.3882 0.62202 0.0
C2279 C 0.01426 0.39178 0.60097 0.0
C2280 C 0.0193 0.36925 0.60419 0.0
H2281 H 0.99187 0.4185 0.60679 0.0
H2282 H 0.02467 0.40212 0.59063 0.0
S2283 S 0.98664 0.32891 0.63731 0.0
N2284 N 0.97185 0.35193 0.63801 0.0
N2285 N 0.00903 0.33494 0.62274 0.0
C2286 C 0.00509 0.35657 0.61771 0.0
C2287 C 0.9851 0.36589 0.62629 0.0
C2288 C 0.6274 0.98572 0.36793 0.0
C2289 C 0.62879 0.98403 0.39112 0.0
C2290 C 0.61564 0.0031 0.35803 0.0
C2291 C 0.60483 0.01927 0.37097 0.0
H2292 H 0.63402 0.97271 0.35746 0.0
H2293 H 0.61359 0.00302 0.34017 0.0
S2294 S 0.60778 0.02466 0.43234 0.0
N2295 N 0.6221 0.00203 0.42663 0.0
N2296 N 0.59907 0.03414 0.40815 0.0
C2297 C 0.60807 0.01897 0.3941 0.0
C2298 C 0.62023 0.00139 0.40415 0.0
C2299 C 0.01086 0.60861 0.39475 0.0
C2300 C 0.01366 0.63173 0.39425 0.0
C2301 C 0.99237 0.59869 0.38502 0.0
C2302 C 0.97601 0.61143 0.37432 0.0
H2303 H 0.02221 0.59818 0.40397 0.0
H2304 H 0.99055 0.58092 0.3865 0.0
S2305 S 0.97709 0.67235 0.36602 0.0
N2306 N -8e-05 0.66693 0.3802 0.0
N2307 N 0.96472 0.6482 0.36216 0.0
C2308 C 0.97931 0.6344 0.37239 0.0
C2309 C 0.99825 0.64456 0.3823 0.0
C2310 C 0.39116 0.00975 0.39277 0.0
C2311 C 0.36816 0.0128 0.39452 0.0
C2312 C 0.39983 0.99088 0.38249 0.0
C2313 C 0.38586 0.97446 0.37344 0.0
H2314 H 0.4025 0.02097 0.40104 0.0
H2315 H 0.41762 0.98867 0.38259 0.0
S2316 S 0.32446 0.9768 0.37053 0.0
N2317 N 0.3316 -0.00031 0.3838 0.0
N2318 N 0.34793 0.9639 0.36463 0.0
C2319 C 0.36289 0.97836 0.37327 0.0
C2320 C 0.35406 0.99765 0.38374 0.0
C2321 C 0.0034 0.40344 0.38433 0.0
C2322 C 0.01952 0.39057 0.37334 0.0
C2323 C 0.98388 0.39389 0.39248 0.0
C2324 C 0.97976 0.37106 0.38996 0.0
H2325 H 0.00611 0.42094 0.38724 0.0
H2326 H 0.97285 0.40418 0.40221 0.0
S2327 S 0.01462 0.33092 0.35894 0.0
N2328 N 0.02883 0.35433 0.35822 0.0
N2329 N 0.99156 0.33665 0.37257 0.0
C2330 C 0.99471 0.3585 0.37716 0.0
C2331 C 0.01476 0.36814 0.36914 0.0
C2332 C 0.62313 0.62677 0.98706 0.0
C2333 C 0.62456 0.60381 0.98319 0.0
C2334 C 0.6166 0.63497 0.00781 0.0
C2335 C 0.61133 0.62043 0.02524 0.0
H2336 H 0.62632 0.6384 0.97374 0.0
H2337 H 0.61463 0.6527 0.00994 0.0
S2338 S 0.61558 0.55922 0.02487 0.0
N2339 N 0.62266 0.56683 0.99951 0.0
N2340 N 0.60986 0.58243 0.03825 0.0
C2341 C 0.61371 0.59758 0.02198 0.0
C2342 C 0.62045 0.5892 0.00099 0.0
C2343 C 0.36949 0.63034 0.98581 0.0
C2344 C 0.3925 0.62912 0.98251 0.0
C2345 C 0.35968 0.62102 0.00468 0.0
C2346 C 0.37243 0.60975 0.02076 0.0
H2347 H 0.35887 0.63747 0.9732 0.0
H2348 H 0.34177 0.62149 0.00602 0.0
S2349 S 0.43408 0.60701 0.02218 0.0
N2350 N 0.42825 0.62014 0.9989 0.0
N2351 N 0.40987 0.60128 0.0336 0.0
C2352 C 0.39571 0.61037 0.01862 0.0
C2353 C 0.40571 0.62028 0.9996 0.0
C2354 C 0.38109 0.36658 0.00796 0.0
C2355 C 0.39086 0.38116 0.02334 0.0
C2356 C 0.37514 0.3738 0.98666 0.0
C2357 C 0.37886 0.39582 0.97985 0.0
H2358 H 0.37863 0.34929 0.01215 0.0
H2359 H 0.36787 0.36193 0.97532 0.0
S2360 S 0.40357 0.44068 0.01452 0.0
N2361 N 0.40305 0.41879 0.03086 0.0
N2362 N 0.39283 0.43227 0.99079 0.0
C2363 C 0.38856 0.41061 0.99525 0.0
C2364 C 0.39424 0.40331 0.017 0.0
C2365 C 0.59993 0.3883 0.01807 0.0
C2366 C 0.6228 0.38918 0.02226 0.0
C2367 C 0.59189 0.38177 0.99736 0.0
C2368 C 0.60644 0.37601 0.98002 0.0
H2369 H 0.58823 0.39301 0.03088 0.0
H2370 H 0.57412 0.38122 0.99493 0.0
S2371 S 0.66789 0.37663 0.98237 0.0
N2372 N 0.65999 0.38432 0.00748 0.0
N2373 N 0.64482 0.37205 0.96828 0.0
C2374 C 0.62939 0.37662 0.98406 0.0
C2375 C 0.63759 0.38321 0.00526 0.0
C2376 C 0.09725 0.38878 0.07331 0.0
C2377 C 0.07682 0.39997 0.07493 0.0
C2378 C 0.10781 0.38582 0.05286 0.0
C2379 C 0.09833 0.39373 0.03308 0.0
H2380 H 0.10547 0.38257 0.08805 0.0
H2381 H 0.12383 0.3777 0.05267 0.0
S2382 S 0.04394 0.42241 0.02803 0.0
N2383 N 0.04691 0.41816 0.05495 0.0
N2384 N 0.06638 0.41195 0.01626 0.0
C2385 C 0.07757 0.40451 0.03435 0.0
C2386 C 0.06693 0.40778 0.05533 0.0
C2387 C 0.61339 0.10805 0.05087 0.0
C2388 C 0.60183 0.0996 0.03245 0.0
C2389 C 0.61273 0.09742 0.07149 0.0
C2390 C 0.60036 0.07788 0.07469 0.0
H2391 H 0.62291 0.12321 0.04942 0.0
H2392 H 0.62185 0.10483 0.0851 0.0
S2393 S 0.56785 0.04819 0.03161 0.0
N2394 N 0.57829 0.06988 0.01851 0.0
N2395 N 0.57658 0.05015 0.05753 0.0
C2396 C 0.58866 0.06915 0.05645 0.0
C2397 C 0.58948 0.07995 0.0353 0.0
C2398 C 0.92946 0.58948 0.05626 0.0
C2399 C 0.92186 0.60068 0.07529 0.0
C2400 C 0.91789 0.59088 0.03605 0.0
C2401 C 0.89823 0.60342 0.03417 0.0
H2402 H 0.94452 0.57969 0.05692 0.0
H2403 H 0.9245 0.58227 0.02174 0.0
S2404 S 0.87016 0.63408 0.07956 0.0
N2405 N 0.89272 0.62379 0.09116 0.0
N2406 N 0.87094 0.62594 0.05342 0.0
C2407 C 0.89027 0.61433 0.05315 0.0
C2408 C 0.90208 0.61307 0.07364 0.0
C2409 C 0.40229 0.92615 0.03432 0.0
C2410 C 0.39363 0.90443 0.03324 0.0
C2411 C 0.40736 0.93622 0.0548 0.0
C2412 C 0.40386 0.92491 0.0749 0.0
H2413 H 0.40514 0.9354 0.01918 0.0
H2414 H 0.41361 0.95308 0.05492 0.0
S2415 S 0.38437 0.86688 0.08127 0.0
N2416 N 0.38397 0.87132 0.05425 0.0
N2417 N 0.39286 0.89036 0.09248 0.0
C2418 C 0.39572 0.90308 0.07404 0.0
C2419 C 0.39074 0.8928 0.0533 0.0
C2420 C 0.07476 0.58147 0.93612 0.0
C2421 C 0.06934 0.60091 0.92433 0.0
C2422 C 0.08768 0.58231 0.95552 0.0
C2423 C 0.09552 0.60264 0.96396 0.0
H2424 H 0.06967 0.56541 0.92989 0.0
H2425 H 0.09221 0.56689 0.96354 0.0
S2426 S 0.08249 0.65854 0.94167 0.0
N2427 N 0.07062 0.64124 0.92405 0.0
N2428 N 0.09436 0.64281 0.96069 0.0
C2429 C 0.08901 0.62226 0.95313 0.0
C2430 C 0.07602 0.6214 0.93332 0.0
C2431 C 0.39697 0.07383 0.96709 0.0
C2432 C 0.38818 0.09549 0.96839 0.0
C2433 C 0.40183 0.06388 0.94654 0.0
C2434 C 0.39778 0.07516 0.92655 0.0
H2435 H 0.4004 0.06463 0.98214 0.0
H2436 H 0.40857 0.04722 0.94629 0.0
S2437 S 0.37687 0.13272 0.92052 0.0
N2438 N 0.37721 0.12833 0.94754 0.0
N2439 N 0.38553 0.10937 0.90915 0.0
C2440 C 0.38905 0.09675 0.92754 0.0
C2441 C 0.3844 0.10698 0.94838 0.0
C2442 C 0.89163 0.38497 0.94718 0.0
C2443 C 0.89942 0.39686 0.96567 0.0
C2444 C 0.90246 0.38606 0.92667 0.0
C2445 C 0.92156 0.39917 0.92368 0.0
H2446 H 0.8768 0.37491 0.94847 0.0
H2447 H 0.89555 0.37668 0.91298 0.0
S2448 S 0.94956 0.43272 0.96708 0.0
N2449 N 0.92814 0.42145 0.97993 0.0
N2450 N 0.94821 0.42395 0.94115 0.0
C2451 C 0.92966 0.41114 0.94202 0.0
C2452 C 0.91867 0.4099 0.96305 0.0
C2453 C 0.58829 0.92496 0.94171 0.0
C2454 C 0.59883 0.91641 0.92268 0.0
C2455 C 0.5908 0.9147 0.96252 0.0
C2456 C 0.6039 0.8955 0.96506 0.0
H2457 H 0.5783 0.93986 0.94059 0.0
H2458 H 0.58276 0.92206 0.9768 0.0
S2459 S 0.63277 0.86497 0.92007 0.0
N2460 N 0.62154 0.88658 0.90757 0.0
N2461 N 0.62587 0.86731 0.94647 0.0
C2462 C 0.61394 0.88644 0.94608 0.0
C2463 C 0.61149 0.89687 0.92496 0.0
C2464 C 0.05499 0.10553 0.38939 0.0
C2465 C 0.03624 0.09826 0.40123 0.0
C2466 C 0.07548 0.09479 0.39139 0.0
C2467 C 0.07824 0.07635 0.40545 0.0
H2468 H 0.05392 0.11983 0.37859 0.0
H2469 H 0.08933 0.1012 0.38189 0.0
S2470 S 0.03434 0.05002 0.43964 0.0
N2471 N 0.02164 0.07079 0.42706 0.0
N2472 N 0.06041 0.051 0.43127 0.0
C2473 C 0.05972 0.06888 0.41754 0.0
C2474 C 0.03869 0.07973 0.41535 0.0
C2475 C 0.9188 0.06237 0.41531 0.0
C2476 C 0.92447 0.07423 0.39598 0.0
C2477 C 0.9064 0.0427 0.41415 0.0
C2478 C 0.89923 0.03412 0.39363 0.0
H2479 H 0.92342 0.06862 0.43153 0.0
H2480 H 0.9019 0.03444 0.42946 0.0
S2481 S 0.91189 0.0574 0.33806 0.0
N2482 N 0.92332 0.07505 0.35563 0.0
N2483 N 0.90034 0.03794 0.3535 0.0
C2484 C 0.90543 0.04539 0.37417 0.0
C2485 C 0.91798 0.06545 0.37534 0.0
C2486 C 0.94539 0.93346 0.39587 0.0
C2487 C 0.92555 0.92362 0.38857 0.0
C2488 C 0.9657 0.92214 0.39429 0.0
C2489 C 0.96689 0.90042 0.38567 0.0
H2490 H 0.94521 0.94998 0.40296 0.0
H2491 H 0.98056 0.93041 0.40007 0.0
S2492 S 0.91925 0.86674 0.36575 0.0
N2493 N 0.90819 0.89074 0.37288 0.0
N2494 N 0.94607 0.86925 0.37068 0.0
C2495 C 0.94709 0.89043 0.37832 0.0
C2496 C 0.9265 0.90207 0.37962 0.0
C2497 C 0.10514 0.95161 0.37803 0.0
C2498 C 0.0968 0.9705 0.38884 0.0
C2499 C 0.0943 0.93111 0.3796 0.0
C2500 C 0.07469 0.92867 0.3921 0.0
H2501 H 0.12068 0.95244 0.36905 0.0
H2502 H 0.10186 0.91692 0.37157 0.0
S2503 S 0.04429 0.97384 0.4209 0.0
N2504 N 0.06643 0.98609 0.41037 0.0
N2505 N 0.04623 0.94747 0.41372 0.0
C2506 C 0.06557 0.94769 0.4021 0.0
C2507 C 0.07657 0.96861 0.40039 0.0
C2508 C 0.07143 0.90557 0.61898 0.0
C2509 C 0.07295 0.92701 0.60996 0.0
C2510 C 0.05112 0.89444 0.62016 0.0
C2511 C 0.03133 0.90437 0.61267 0.0
H2512 H 0.08621 0.89689 0.62443 0.0
H2513 H 0.05121 0.87757 0.62624 0.0
S2514 S 0.02605 0.96168 0.59049 0.0
N2515 N 0.05291 0.95856 0.59493 0.0
N2516 N 0.01438 0.93807 0.59808 0.0
C2517 C 0.03247 0.92632 0.60461 0.0
C2518 C 0.05335 0.93752 0.60302 0.0
C2519 C 0.07071 0.05878 0.59505 0.0
C2520 C 0.07937 0.0784 0.60425 0.0
C2521 C 0.08215 0.03858 0.5969 0.0
C2522 C 0.10276 0.03726 0.60788 0.0
H2523 H 0.05491 0.05899 0.58646 0.0
H2524 H 0.07471 0.02384 0.58983 0.0
S2525 S 0.13355 0.0842 0.63315 0.0
N2526 N 0.11033 0.09539 0.62391 0.0
N2527 N 0.13193 0.0576 0.62687 0.0
C2528 C 0.11173 0.05681 0.61687 0.0
C2529 C 0.10003 0.07732 0.61516 0.0
C2530 C 0.92642 0.09652 0.61179 0.0
C2531 C 0.92514 0.07613 0.60048 0.0
C2532 C 0.94668 0.10751 0.61461 0.0
C2533 C 0.96659 0.09851 0.60644 0.0
H2534 H 0.91156 0.10443 0.61808 0.0
H2535 H 0.9466 0.12351 0.62276 0.0
S2536 S 0.97257 0.04429 0.57766 0.0
N2537 N 0.94564 0.04668 0.58212 0.0
N2538 N 0.98393 0.06694 0.58809 0.0
C2539 C 0.96567 0.07773 0.5957 0.0
C2540 C 0.94491 0.06665 0.59257 0.0
C2541 C 0.91814 0.96435 0.59527 0.0
C2542 C 0.8967 0.96578 0.60448 0.0
C2543 C 0.92943 0.94401 0.59401 0.0
C2544 C 0.91974 0.92434 0.60201 0.0
H2545 H 0.9263 0.97909 0.58906 0.0
H2546 H 0.94587 0.94372 0.58673 0.0
S2547 S 0.86323 0.91887 0.6261 0.0
N2548 N 0.86576 0.94556 0.62055 0.0
N2549 N 0.88699 0.90748 0.61864 0.0
C2550 C 0.89826 0.92555 0.6112 0.0
C2551 C 0.88675 0.94622 0.61233 0.0
C2552 C 0.41467 0.03708 0.083 0.0
C2553 C 0.39311 0.03068 0.08964 0.0
C2554 C 0.41868 0.05772 0.07294 0.0
C2555 C 0.40129 0.07279 0.06923 0.0
H2556 H 0.42878 0.02653 0.08643 0.0
H2557 H 0.4356 0.06224 0.06891 0.0
S2558 S 0.34146 0.06268 0.08035 0.0
N2559 N 0.35399 0.04008 0.08943 0.0
N2560 N 0.36135 0.07888 0.07074 0.0
C2561 C 0.37953 0.06611 0.07469 0.0
C2562 C 0.37548 0.04509 0.08483 0.0
C2563 C 0.39688 0.92541 0.90642 0.0
C2564 C 0.40942 0.92386 0.92609 0.0
C2565 C 0.39425 0.9456 0.8953 0.0
C2566 C 0.40396 0.96519 0.90337 0.0
H2567 H 0.38906 0.91084 0.89937 0.0
H2568 H 0.38471 0.94581 0.88007 0.0
S2569 S 0.43742 0.97043 0.95493 0.0
N2570 N 0.43126 0.94377 0.95352 0.0
N2571 N 0.42591 0.98196 0.93289 0.0
C2572 C 0.41647 0.96398 0.92313 0.0
C2573 C 0.4193 0.94327 0.93441 0.0
C2574 C 0.05136 0.38326 0.89154 0.0
C2575 C 0.03236 0.3942 0.89946 0.0
C2576 C 0.07163 0.38466 0.90279 0.0
C2577 C 0.07381 0.39714 0.92242 0.0
H2578 H 0.05071 0.37388 0.87623 0.0
H2579 H 0.0858 0.37617 0.8957 0.0
S2580 S 0.0286 0.42739 0.95128 0.0
N2581 N 0.01659 0.41671 0.92907 0.0
N2582 N 0.05489 0.41977 0.94998 0.0
C2583 C 0.05485 0.40789 0.93081 0.0
C2584 C 0.0341 0.40633 0.91939 0.0
C2585 C 0.61863 0.04646 0.89239 0.0
C2586 C 0.60595 0.02847 0.90013 0.0
C2587 C 0.61753 0.06726 0.90266 0.0
C2588 C 0.60366 0.07098 0.9211 0.0
H2589 H 0.62912 0.04459 0.87792 0.0
H2590 H 0.62733 0.08063 0.89573 0.0
S2591 S 0.56866 0.0288 0.9492 0.0
N2592 N 0.58034 0.01527 0.92842 0.0
N2593 N 0.57791 0.05452 0.94749 0.0
C2594 C 0.59126 0.05301 0.92937 0.0
C2595 C 0.59247 0.03174 0.91894 0.0
C2596 C 0.93741 0.57953 0.91966 0.0
C2597 C 0.92653 0.59889 0.92686 0.0
C2598 C 0.95645 0.58075 0.9063 0.0
C2599 C 0.9653 0.60135 0.89971 0.0
H2600 H 0.93067 0.56333 0.92358 0.0
H2601 H 0.96387 0.56546 0.90047 0.0
S2602 S 0.94497 0.6568 0.917 0.0
N2603 N 0.92725 0.6392 0.92827 0.0
N2604 N 0.9632 0.64143 0.90351 0.0
C2605 C 0.95523 0.62077 0.90776 0.0
C2606 C 0.93583 0.61955 0.92127 0.0
C2607 C 0.59335 0.96382 0.08352 0.0
C2608 C 0.60585 0.96611 0.10315 0.0
C2609 C 0.59255 0.94354 0.07199 0.0
C2610 C 0.6043 0.92485 0.07965 0.0
H2611 H 0.58443 0.9779 0.07682 0.0
H2612 H 0.58283 0.94256 0.05689 0.0
S2613 S 0.63734 0.92157 0.13167 0.0
N2614 N 0.62856 0.94748 0.13072 0.0
N2615 N 0.62752 0.90965 0.10906 0.0
C2616 C 0.61644 0.92686 0.09955 0.0
C2617 C 0.6171 0.94739 0.11129 0.0
C2618 C 0.06038 0.58506 0.07686 0.0
C2619 C 0.07117 0.60454 0.06978 0.0
C2620 C 0.04096 0.58602 0.08967 0.0
C2621 C 0.03147 0.60648 0.09577 0.0
H2622 H 0.06741 0.56893 0.07319 0.0
H2623 H 0.0337 0.57062 0.09539 0.0
S2624 S 0.05147 0.66217 0.07871 0.0
N2625 N 0.06984 0.64481 0.06815 0.0
N2626 N 0.03306 0.64658 0.0917 0.0
C2627 C 0.0415 0.62603 0.0879 0.0
C2628 C 0.06138 0.62506 0.07501 0.0
C2629 C 0.94913 0.38461 0.10749 0.0
C2630 C 0.96796 0.39592 0.09968 0.0
C2631 C 0.9288 0.38592 0.09635 0.0
C2632 C 0.92635 0.3987 0.07693 0.0
H2633 H 0.94998 0.37499 0.12264 0.0
H2634 H 0.91477 0.37712 0.10334 0.0
S2635 S 0.97097 0.43005 0.04838 0.0
N2636 N 0.98325 0.41913 0.07032 0.0
N2637 N 0.94479 0.42208 0.04971 0.0
C2638 C 0.94509 0.40987 0.06867 0.0
C2639 C 0.96594 0.40837 0.07995 0.0
C2640 C 0.57337 0.9117 0.55573 0.0
C2641 C 0.58035 0.89847 0.57369 0.0
C2642 C 0.58366 0.91012 0.53486 0.0
C2643 C 0.6013 0.89525 0.53114 0.0
H2644 H 0.55982 0.92333 0.55774 0.0
H2645 H 0.57758 0.92042 0.52146 0.0
S2646 S 0.62714 0.85824 0.57298 0.0
N2647 N 0.60683 0.87069 0.58647 0.0
N2648 N 0.62619 0.86811 0.54745 0.0
C2649 C 0.60867 0.88221 0.549 0.0
C2650 C 0.5982 0.88374 0.5702 0.0
C2651 C 0.10058 0.57424 0.52921 0.0
C2652 C 0.11092 0.59518 0.52759 0.0
C2653 C 0.09634 0.56434 0.54993 0.0
C2654 C 0.10252 0.57494 0.56978 0.0
H2655 H 0.09545 0.56558 0.51432 0.0
H2656 H 0.0883 0.54827 0.55041 0.0
S2657 S 0.12837 0.6306 0.57498 0.0
N2658 N 0.12587 0.62667 0.548 0.0
N2659 N 0.11862 0.60784 0.58664 0.0
C2660 C 0.11288 0.5958 0.56842 0.0
C2661 C 0.11695 0.60597 0.54743 0.0
C2662 C 0.40361 0.11185 0.57024 0.0
C2663 C 0.42406 0.10091 0.57278 0.0
C2664 C 0.39481 0.11628 0.54921 0.0
C2665 C 0.4062 0.11023 0.52972 0.0
H2666 H 0.39391 0.11648 0.58466 0.0
H2667 H 0.37848 0.12368 0.54838 0.0
S2668 S 0.46189 0.08384 0.52738 0.0
N2669 N 0.45635 0.08558 0.55418 0.0
N2670 N 0.44025 0.09467 0.51449 0.0
C2671 C 0.42724 0.10021 0.53205 0.0
C2672 C 0.43603 0.09533 0.55358 0.0
C2673 C 0.89912 0.42122 0.53222 0.0
C2674 C 0.88855 0.40043 0.53025 0.0
C2675 C 0.90261 0.43116 0.55305 0.0
C2676 C 0.89546 0.42077 0.57268 0.0
H2677 H 0.90488 0.42981 0.51753 0.0
H2678 H 0.91088 0.44711 0.55377 0.0
S2679 S 0.86853 0.36553 0.57701 0.0
N2680 N 0.87226 0.36928 0.55014 0.0
N2681 N 0.87814 0.38819 0.58899 0.0
C2682 C 0.88486 0.40004 0.57099 0.0
C2683 C 0.88154 0.38983 0.54987 0.0
C2684 C 0.59009 0.10703 0.42615 0.0
C2685 C 0.57201 0.09234 0.42421 0.0
C2686 C 0.60152 0.10961 0.44618 0.0
C2687 C 0.59539 0.0977 0.46525 0.0
H2688 H 0.59566 0.11665 0.41202 0.0
H2689 H 0.61548 0.12091 0.44663 0.0
S2690 S 0.54873 0.05752 0.4693 0.0
N2691 N 0.54837 0.06573 0.44315 0.0
N2692 N 0.56946 0.071 0.4811 0.0
C2693 C 0.57728 0.08291 0.46363 0.0
C2694 C 0.5657 0.08015 0.44306 0.0
C2695 C 0.90824 0.57256 0.44182 0.0
C2696 C 0.89729 0.58049 0.42275 0.0
C2697 C 0.90708 0.58407 0.46207 0.0
C2698 C 0.89501 0.60398 0.464 0.0
H2699 H 0.91764 0.55725 0.44116 0.0
H2700 H 0.91541 0.57716 0.47641 0.0
S2701 S 0.86526 0.63302 0.41858 0.0
N2702 N 0.87502 0.61026 0.40691 0.0
N2703 N 0.8733 0.63193 0.44474 0.0
C2704 C 0.88443 0.61233 0.44496 0.0
C2705 C 0.88546 0.60059 0.42442 0.0
C2706 C 0.41868 0.91583 0.43706 0.0
C2707 C 0.42494 0.89611 0.42617 0.0
C2708 C 0.40633 0.91528 0.45684 0.0
C2709 C 0.39979 0.89502 0.46639 0.0
H2710 H 0.42258 0.93182 0.42985 0.0
H2711 H 0.40115 0.9308 0.46426 0.0
S2712 S 0.41496 0.83881 0.44642 0.0
N2713 N 0.42565 0.85579 0.42777 0.0
N2714 N 0.40273 0.85485 0.46496 0.0
C2715 C 0.40698 0.87524 0.45633 0.0
C2716 C 0.41949 0.87577 0.43623 0.0
C2717 C 0.1024 0.4218 0.46567 0.0
C2718 C 0.11319 0.40109 0.46721 0.0
C2719 C 0.09854 0.43199 0.44503 0.0
C2720 C 0.10556 0.42197 0.42515 0.0
H2721 H 0.0967 0.43011 0.48054 0.0
H2722 H 0.09008 0.44785 0.44465 0.0
S2723 S 0.13312 0.36717 0.41969 0.0
N2724 N 0.12964 0.37045 0.44665 0.0
N2725 N 0.12311 0.38988 0.40817 0.0
C2726 C 0.11645 0.40137 0.42642 0.0
C2727 C 0.12012 0.39087 0.44735 0.0
C2728 C 0.55938 0.57759 0.91765 0.0
C2729 C 0.56991 0.56939 0.89849 0.0
C2730 C 0.53982 0.59016 0.91613 0.0
C2731 C 0.53006 0.59493 0.89541 0.0
H2732 H 0.56677 0.5751 0.93385 0.0
H2733 H 0.53273 0.59686 0.93122 0.0
S2734 S 0.54926 0.57435 0.84065 0.0
N2735 N 0.56794 0.56502 0.8584 0.0
N2736 N 0.53103 0.58826 0.85565 0.0
C2737 C 0.5398 0.58582 0.87628 0.0
C2738 C 0.55974 0.57313 0.8778 0.0
C2739 C 0.40549 0.54275 0.91502 0.0
C2740 C 0.39966 0.53398 0.89414 0.0
C2741 C 0.41791 0.56237 0.91683 0.0
C2742 C 0.42491 0.57397 0.89781 0.0
H2743 H 0.39988 0.53473 0.93009 0.0
H2744 H 0.42139 0.56886 0.93324 0.0
S2745 S 0.41649 0.5564 0.83934 0.0
N2746 N 0.40372 0.53723 0.85416 0.0
N2747 N 0.42672 0.57422 0.85747 0.0
C2748 C 0.41991 0.56492 0.87686 0.0
C2749 C 0.40735 0.54492 0.87504 0.0
C2750 C 0.45848 0.41121 0.91287 0.0
C2751 C 0.46657 0.40233 0.89283 0.0
C2752 C 0.43898 0.42389 0.91345 0.0
C2753 C 0.42685 0.42826 0.89397 0.0
H2754 H 0.46684 0.40775 0.92836 0.0
H2755 H 0.43298 0.42957 0.92942 0.0
S2756 S 0.44307 0.41217 0.83674 0.0
N2757 N 0.4625 0.40126 0.85269 0.0
N2758 N 0.42574 0.42486 0.85375 0.0
C2759 C 0.43545 0.42057 0.87366 0.0
C2760 C 0.45531 0.40767 0.87309 0.0
C2761 C 0.57787 0.43729 0.9156 0.0
C2762 C 0.57067 0.42645 0.8962 0.0
C2763 C 0.59041 0.45685 0.91447 0.0
C2764 C 0.59614 0.46639 0.89392 0.0
H2765 H 0.57449 0.43021 0.93179 0.0
H2766 H 0.59622 0.46419 0.92981 0.0
S2767 S 0.57877 0.44612 0.83841 0.0
N2768 N 0.5686 0.42767 0.85592 0.0
N2769 N 0.59172 0.46469 0.85384 0.0
C2770 C 0.58822 0.45624 0.87445 0.0
C2771 C 0.57558 0.43623 0.87559 0.0
C2772 C 0.57291 0.40169 0.11253 0.0
C2773 C 0.57441 0.42207 0.1012 0.0
C2774 C 0.55273 0.39036 0.1144 0.0
C2775 C 0.53313 0.39898 0.10516 0.0
H2776 H 0.58757 0.39411 0.11967 0.0
H2777 H 0.55259 0.37447 0.12276 0.0
S2778 S 0.52766 0.45295 0.0758 0.0
N2779 N 0.55437 0.45105 0.08162 0.0
N2780 N 0.51619 0.43013 0.08573 0.0
C2781 C 0.53424 0.41968 0.09429 0.0
C2782 C 0.55493 0.43113 0.09216 0.0
C2783 C 0.59395 0.57155 0.11415 0.0
C2784 C 0.57494 0.57403 0.10079 0.0
C2785 C 0.60542 0.5514 0.11522 0.0
C2786 C 0.59835 0.53277 0.1031 0.0
H2787 H 0.60037 0.58541 0.12362 0.0
H2788 H 0.62021 0.55054 0.12538 0.0
S2789 S 0.54851 0.52997 0.06687 0.0
N2790 N 0.54902 0.55588 0.07575 0.0
N2791 N 0.57021 0.51773 0.07828 0.0
C2792 C 0.57908 0.53484 0.08997 0.0
C2793 C 0.56747 0.55551 0.08871 0.0
C2794 C 0.43757 0.57735 0.07822 0.0
C2795 C 0.42519 0.57214 0.09732 0.0
C2796 C 0.4572 0.58987 0.07969 0.0
C2797 C 0.46522 0.59739 0.10034 0.0
H2798 H 0.43166 0.57242 0.06199 0.0
H2799 H 0.46573 0.59433 0.06452 0.0
S2800 S 0.44145 0.58408 0.15556 0.0
N2801 N 0.424 0.57285 0.13768 0.0
N2802 N 0.46105 0.59577 0.14042 0.0
C2803 C 0.45383 0.59087 0.11962 0.0
C2804 C 0.43382 0.57835 0.11812 0.0
C2805 C 0.40595 0.42932 0.11936 0.0
C2806 C 0.42457 0.42621 0.10555 0.0
C2807 C 0.3954 0.44996 0.121 0.0
C2808 C 0.40302 0.46843 0.10898 0.0
H2809 H 0.39902 0.41556 0.1286 0.0
H2810 H 0.3807 0.45126 0.13125 0.0
S2811 S 0.45271 0.46984 0.07246 0.0
N2812 N 0.45113 0.4438 0.08079 0.0
N2813 N 0.43165 0.48276 0.08432 0.0
C2814 C 0.42216 0.46581 0.09576 0.0
C2815 C 0.43284 0.44469 0.09395 0.0
C2816 C 0.88145 0.56937 0.59289 0.0
C2817 C 0.89658 0.57369 0.57563 0.0
C2818 C 0.88092 0.5488 0.60363 0.0
C2819 C 0.8954 0.53155 0.59754 0.0
H2820 H 0.87005 0.58208 0.59848 0.0
H2821 H 0.86923 0.54652 0.61708 0.0
S2822 S 0.93754 0.53386 0.55254 0.0
N2823 N 0.92621 0.55879 0.55257 0.0
N2824 N 0.92474 0.51986 0.5723 0.0
C2825 C 0.91046 0.53548 0.58007 0.0
C2826 C 0.91113 0.55658 0.56921 0.0
C2827 C 0.88723 0.44635 0.39257 0.0
C2828 C 0.89799 0.46539 0.40068 0.0
C2829 C 0.88935 0.42584 0.40323 0.0
C2830 C 0.90245 0.42338 0.42242 0.0
H2831 H 0.87732 0.4472 0.37761 0.0
H2832 H 0.88079 0.41172 0.39612 0.0
S2833 S 0.93306 0.46822 0.45137 0.0
N2834 N 0.92135 0.48066 0.42994 0.0
N2835 N 0.92584 0.44185 0.44958 0.0
C2836 C 0.91328 0.44223 0.43085 0.0
C2837 C 0.91094 0.46328 0.42009 0.0
C2838 C 0.55196 0.88981 0.38802 0.0
C2839 C 0.5329 0.90043 0.3963 0.0
C2840 C 0.5725 0.89181 0.39863 0.0
C2841 C 0.57505 0.90465 0.41798 0.0
H2842 H 0.55108 0.87996 0.37303 0.0
H2843 H 0.58655 0.88323 0.39141 0.0
S2844 S 0.5304 0.93568 0.44688 0.0
N2845 N 0.51784 0.924 0.4255 0.0
N2846 N 0.55672 0.92823 0.44511 0.0
C2847 C 0.55624 0.91562 0.42642 0.0
C2848 C 0.53514 0.91342 0.41567 0.0
C2849 C 0.10485 0.55424 0.39182 0.0
C2850 C 0.09881 0.53431 0.40231 0.0
C2851 C 0.10102 0.57479 0.40187 0.0
C2852 C 0.0908 0.57637 0.42281 0.0
H2853 H 0.11239 0.55402 0.37551 0.0
H2854 H 0.10609 0.58961 0.39304 0.0
S2855 S 0.07242 0.5293 0.45784 0.0
N2856 N 0.08266 0.51747 0.43533 0.0
N2857 N 0.07495 0.5563 0.45396 0.0
C2858 C 0.08443 0.55667 0.4335 0.0
C2859 C 0.08857 0.53561 0.42333 0.0
C2860 C 0.46383 0.09839 0.42586 0.0
C2861 C 0.46472 0.10655 0.40392 0.0
C2862 C 0.44359 0.0921 0.43569 0.0
C2863 C 0.42351 0.09382 0.42393 0.0
H2864 H 0.47896 0.09677 0.43542 0.0
H2865 H 0.44361 0.08625 0.4527 0.0
S2866 S 0.41687 0.11169 0.36536 0.0
N2867 N 0.4437 0.1141 0.37026 0.0
N2868 N 0.40586 0.1029 0.38884 0.0
C2869 C 0.4242 0.10159 0.40193 0.0
C2870 C 0.44472 0.10783 0.3919 0.0
C2871 C 0.11319 0.44637 0.60391 0.0
C2872 C 0.10213 0.46503 0.59537 0.0
C2873 C 0.1114 0.42559 0.59369 0.0
C2874 C 0.09837 0.42253 0.57453 0.0
H2875 H 0.12307 0.44774 0.61886 0.0
H2876 H 0.12015 0.41175 0.6011 0.0
S2877 S 0.06724 0.46633 0.54451 0.0
N2878 N 0.07867 0.47937 0.56574 0.0
N2879 N 0.07485 0.44012 0.54687 0.0
C2880 C 0.08732 0.44105 0.56565 0.0
C2881 C 0.0893 0.46233 0.57597 0.0
C2882 C 0.54117 0.11931 0.59105 0.0
C2883 C 0.53026 0.09995 0.59808 0.0
C2884 C 0.56082 0.11823 0.57868 0.0
C2885 C 0.57032 0.09772 0.57277 0.0
H2886 H 0.53446 0.13546 0.59518 0.0
H2887 H 0.56875 0.13364 0.57392 0.0
S2888 S 0.54869 0.04203 0.58779 0.0
N2889 N 0.53076 0.05957 0.59879 0.0
N2890 N 0.56738 0.05752 0.57508 0.0
C2891 C 0.55941 0.07817 0.57939 0.0
C2892 C 0.53947 0.07929 0.59217 0.0
C2893 C 0.45167 0.87858 0.60312 0.0
C2894 C 0.46823 0.8942 0.59796 0.0
C2895 C 0.43113 0.87867 0.59226 0.0
C2896 C 0.42614 0.89446 0.57579 0.0
H2897 H 0.45444 0.86631 0.61593 0.0
H2898 H 0.41896 0.86637 0.59714 0.0
S2899 S 0.46399 0.93864 0.5554 0.0
N2900 N 0.47853 0.92546 0.57451 0.0
N2901 N 0.43968 0.92605 0.55456 0.0
C2902 C 0.44258 0.91016 0.57031 0.0
C2903 C 0.46363 0.90997 0.5813 0.0
loop_
_geom_bond_atom_site_label_1
_geom_bond_atom_site_label_2
_geom_bond_distance
_geom_bond_site_symmetry_2
_ccdc_geom_bond_type
C0 C1 1.351 . S
C0 N3 1.368 . S
C0 H5 0.931 . S
C1 C0 1.351 . S
C1 N2 1.373 1_455 S
C1 H29 0.930 . S
N2 C1 1.373 1_655 S
N2 C4 1.340 1_655 S
N3 C0 1.368 . S
N3 C4 1.321 . S
N3 Co6 2.135 . S
C4 N2 1.340 1_455 S
C4 N3 1.321 . S
C4 H28 0.930 1_455 S
H5 C0 0.931 . S
Co6 N3 2.135 . S
Co6 N9 2.121 . S
Co6 O14 2.055 . S
Co6 O17 2.039 . S
Co6 N20 2.140 . S
C7 O8 1.227 . S
C7 O17 1.265 . S
O8 C7 1.227 . S
N9 Co6 2.121 . S
N9 C11 1.375 . S
N9 C12 1.313 . S
C10 C11 1.338 . S
C10 N13 1.377 . S
C10 H30 0.930 . S
C11 N9 1.375 . S
C11 C10 1.338 . S
C11 H15 0.931 . S
C12 N9 1.313 . S
C12 N13 1.344 . S
C12 H16 0.930 . S
N13 C10 1.377 . S
N13 C12 1.344 . S
O14 Co6 2.055 . S
O14 C18 1.253 . S
H15 C11 0.931 . S
H16 C12 0.930 . S
O17 Co6 2.039 . S
O17 C7 1.265 . S
C18 O14 1.253 . S
C18 O19 1.227 . S
O19 C18 1.227 . S
N20 Co6 2.140 . S
N20 C23 1.346 . S
N20 C24 1.345 . S
C21 C22 1.387 . S
C21 C25 1.391 . S
C22 C21 1.387 . S
C22 C23 1.369 . S
C22 H31 0.929 . S
C23 N20 1.346 . S
C23 C22 1.369 . S
C23 H26 0.928 . S
C24 N20 1.345 . S
C24 C25 1.371 . S
C24 H27 0.931 . S
C25 C21 1.391 . S
C25 C24 1.371 . S
C25 H32 0.930 . S
H26 C23 0.928 . S
H27 C24 0.931 . S
H28 C4 0.930 1_655 S
H29 C1 0.930 . S
H30 C10 0.930 . S
H31 C22 0.929 . S
H32 C25 0.930 . S
C33 C34 1.351 . S
C33 N36 1.368 . S
C33 H38 0.931 . S
C34 C33 1.351 . S
C34 N35 1.373 1_545 S
C34 H62 0.930 . S
N35 C34 1.373 1_565 S
N35 C37 1.340 1_565 S
N36 C33 1.368 . S
N36 C37 1.321 . S
N36 Co39 2.135 . S
C37 N35 1.340 1_545 S
C37 N36 1.321 . S
C37 H61 0.930 1_545 S
H38 C33 0.931 . S
Co39 N36 2.135 . S
Co39 N42 2.121 . S
Co39 O47 2.055 . S
Co39 O50 2.039 . S
Co39 N53 2.140 . S
C40 O41 1.227 . S
C40 O50 1.265 . S
O41 C40 1.227 . S
N42 Co39 2.121 . S
N42 C44 1.375 . S
N42 C45 1.313 . S
C43 C44 1.338 . S
C43 N46 1.377 . S
C43 H63 0.930 . S
C44 N42 1.375 . S
C44 C43 1.338 . S
C44 H48 0.931 . S
C45 N42 1.313 . S
C45 N46 1.344 . S
C45 H49 0.930 . S
N46 C43 1.377 . S
N46 C45 1.344 . S
O47 Co39 2.055 . S
O47 C51 1.253 . S
H48 C44 0.931 . S
H49 C45 0.930 . S
O50 Co39 2.039 . S
O50 C40 1.265 . S
C51 O47 1.253 . S
C51 O52 1.227 . S
O52 C51 1.227 . S
N53 Co39 2.140 . S
N53 C56 1.346 . S
N53 C57 1.345 . S
C54 C55 1.387 . S
C54 C58 1.391 . S
C55 C54 1.387 . S
C55 C56 1.369 . S
C55 H64 0.929 . S
C56 N53 1.346 . S
C56 C55 1.369 . S
C56 H59 0.928 . S
C57 N53 1.345 . S
C57 C58 1.371 . S
C57 H60 0.931 . S
C58 C54 1.391 . S
C58 C57 1.371 . S
C58 H65 0.930 . S
H59 C56 0.928 . S
H60 C57 0.931 . S
H61 C37 0.930 1_565 S
H62 C34 0.930 . S
H63 C43 0.930 . S
H64 C55 0.929 . S
H65 C58 0.930 . S
C66 C67 1.351 . S
C66 N69 1.368 . S
C66 H71 0.931 . S
C67 C66 1.351 . S
C67 N68 1.373 1_655 S
C67 H95 0.930 . S
N68 C67 1.373 1_455 S
N68 C70 1.340 1_455 S
N69 C66 1.368 . S
N69 C70 1.321 . S
N69 Co72 2.135 . S
C70 N68 1.340 1_655 S
C70 N69 1.321 . S
C70 H94 0.930 1_655 S
H71 C66 0.931 . S
Co72 N69 2.135 . S
Co72 N75 2.121 . S
Co72 O80 2.055 . S
Co72 O83 2.039 . S
Co72 N86 2.140 . S
C73 O74 1.227 . S
C73 O83 1.265 . S
O74 C73 1.227 . S
N75 Co72 2.121 . S
N75 C77 1.375 . S
N75 C78 1.313 . S
C76 C77 1.338 . S
C76 N79 1.377 . S
C76 H96 0.930 . S
C77 N75 1.375 . S
C77 C76 1.338 . S
C77 H81 0.931 . S
C78 N75 1.313 . S
C78 N79 1.344 . S
C78 H82 0.930 . S
N79 C76 1.377 . S
N79 C78 1.344 . S
O80 Co72 2.055 . S
O80 C84 1.253 . S
H81 C77 0.931 . S
H82 C78 0.930 . S
O83 Co72 2.039 . S
O83 C73 1.265 . S
C84 O80 1.253 . S
C84 O85 1.227 . S
O85 C84 1.227 . S
N86 Co72 2.140 . S
N86 C89 1.346 . S
N86 C90 1.345 . S
C87 C88 1.387 . S
C87 C91 1.391 . S
C88 C87 1.387 . S
C88 C89 1.369 . S
C88 H97 0.929 . S
C89 N86 1.346 . S
C89 C88 1.369 . S
C89 H92 0.928 . S
C90 N86 1.345 . S
C90 C91 1.371 . S
C90 H93 0.931 . S
C91 C87 1.391 . S
C91 C90 1.371 . S
C91 H98 0.930 . S
H92 C89 0.928 . S
H93 C90 0.931 . S
H94 C70 0.930 1_455 S
H95 C67 0.930 . S
H96 C76 0.930 . S
H97 C88 0.929 . S
H98 C91 0.930 . S
C99 C100 1.351 . S
C99 N102 1.368 . S
C99 H104 0.931 . S
C100 C99 1.351 . S
C100 N101 1.373 1_565 S
C100 H128 0.930 . S
N101 C100 1.373 1_545 S
N101 C103 1.340 1_545 S
N102 C99 1.368 . S
N102 C103 1.321 . S
N102 Co105 2.135 . S
C103 N101 1.340 1_565 S
C103 N102 1.321 . S
C103 H127 0.930 1_565 S
H104 C99 0.931 . S
Co105 N102 2.135 . S
Co105 N108 2.121 . S
Co105 O113 2.055 . S
Co105 O116 2.039 . S
Co105 N119 2.140 . S
C106 O107 1.227 . S
C106 O116 1.265 . S
O107 C106 1.227 . S
N108 Co105 2.121 . S
N108 C110 1.375 . S
N108 C111 1.313 . S
C109 C110 1.338 . S
C109 N112 1.377 . S
C109 H129 0.930 . S
C110 N108 1.375 . S
C110 C109 1.338 . S
C110 H114 0.931 . S
C111 N108 1.313 . S
C111 N112 1.344 . S
C111 H115 0.930 . S
N112 C109 1.377 . S
N112 C111 1.344 . S
O113 Co105 2.055 . S
O113 C117 1.253 . S
H114 C110 0.931 . S
H115 C111 0.930 . S
O116 Co105 2.039 . S
O116 C106 1.265 . S
C117 O113 1.253 . S
C117 O118 1.227 . S
O118 C117 1.227 . S
N119 Co105 2.140 . S
N119 C122 1.346 . S
N119 C123 1.345 . S
C120 C121 1.387 . S
C120 C124 1.391 . S
C121 C120 1.387 . S
C121 C122 1.369 . S
C121 H130 0.929 . S
C122 N119 1.346 . S
C122 C121 1.369 . S
C122 H125 0.928 . S
C123 N119 1.345 . S
C123 C124 1.371 . S
C123 H126 0.931 . S
C124 C120 1.391 . S
C124 C123 1.371 . S
C124 H131 0.930 . S
H125 C122 0.928 . S
H126 C123 0.931 . S
H127 C103 0.930 1_545 S
H128 C100 0.930 . S
H129 C109 0.930 . S
H130 C121 0.929 . S
H131 C124 0.930 . S
C132 C133 1.351 . S
C132 N135 1.368 . S
C132 H137 0.931 . S
C133 C132 1.351 . S
C133 N134 1.373 1_455 S
C133 H161 0.930 . S
N134 C133 1.373 1_655 S
N134 C136 1.340 1_655 S
N135 C132 1.368 . S
N135 C136 1.321 . S
N135 Co138 2.135 . S
C136 N134 1.340 1_455 S
C136 N135 1.321 . S
C136 H160 0.930 1_455 S
H137 C132 0.931 . S
Co138 N135 2.135 . S
Co138 N141 2.121 . S
Co138 O146 2.055 . S
Co138 O149 2.039 . S
Co138 N152 2.140 . S
C139 O140 1.227 . S
C139 O149 1.265 . S
O140 C139 1.227 . S
N141 Co138 2.121 . S
N141 C143 1.375 . S
N141 C144 1.313 . S
C142 C143 1.338 . S
C142 N145 1.377 . S
C142 H162 0.930 . S
C143 N141 1.375 . S
C143 C142 1.338 . S
C143 H147 0.931 . S
C144 N141 1.313 . S
C144 N145 1.344 . S
C144 H148 0.930 . S
N145 C142 1.377 . S
N145 C144 1.344 . S
O146 Co138 2.055 . S
O146 C150 1.253 . S
H147 C143 0.931 . S
H148 C144 0.930 . S
O149 Co138 2.039 . S
O149 C139 1.265 . S
C150 O146 1.253 . S
C150 O151 1.227 . S
O151 C150 1.227 . S
N152 Co138 2.140 . S
N152 C155 1.346 . S
N152 C156 1.345 . S
C153 C154 1.387 . S
C153 C157 1.391 . S
C154 C153 1.387 . S
C154 C155 1.369 . S
C154 H163 0.929 . S
C155 N152 1.346 . S
C155 C154 1.369 . S
C155 H158 0.928 . S
C156 N152 1.345 . S
C156 C157 1.371 . S
C156 H159 0.931 . S
C157 C153 1.391 . S
C157 C156 1.371 . S
C157 H164 0.930 . S
H158 C155 0.928 . S
H159 C156 0.931 . S
H160 C136 0.930 1_655 S
H161 C133 0.930 . S
H162 C142 0.930 . S
H163 C154 0.929 . S
H164 C157 0.930 . S
C165 C166 1.351 . S
C165 N168 1.368 . S
C165 H170 0.931 . S
C166 C165 1.351 . S
C166 N167 1.373 1_545 S
C166 H194 0.930 . S
N167 C166 1.373 1_565 S
N167 C169 1.340 1_565 S
N168 C165 1.368 . S
N168 C169 1.321 . S
N168 Co171 2.135 . S
C169 N167 1.340 1_545 S
C169 N168 1.321 . S
C169 H193 0.930 1_545 S
H170 C165 0.931 . S
Co171 N168 2.135 . S
Co171 N174 2.121 . S
Co171 O179 2.055 . S
Co171 O182 2.039 . S
Co171 N185 2.140 . S
C172 O173 1.227 . S
C172 O182 1.265 . S
O173 C172 1.227 . S
N174 Co171 2.121 . S
N174 C176 1.375 . S
N174 C177 1.313 . S
C175 C176 1.338 . S
C175 N178 1.377 . S
C175 H195 0.930 . S
C176 N174 1.375 . S
C176 C175 1.338 . S
C176 H180 0.931 . S
C177 N174 1.313 . S
C177 N178 1.344 . S
C177 H181 0.930 . S
N178 C175 1.377 . S
N178 C177 1.344 . S
O179 Co171 2.055 . S
O179 C183 1.253 . S
H180 C176 0.931 . S
H181 C177 0.930 . S
O182 Co171 2.039 . S
O182 C172 1.265 . S
C183 O179 1.253 . S
C183 O184 1.227 . S
O184 C183 1.227 . S
N185 Co171 2.140 . S
N185 C188 1.346 . S
N185 C189 1.345 . S
C186 C187 1.387 . S
C186 C190 1.391 . S
C187 C186 1.387 . S
C187 C188 1.369 . S
C187 H196 0.929 . S
C188 N185 1.346 . S
C188 C187 1.369 . S
C188 H191 0.928 . S
C189 N185 1.345 . S
C189 C190 1.371 . S
C189 H192 0.931 . S
C190 C186 1.391 . S
C190 C189 1.371 . S
C190 H197 0.930 . S
H191 C188 0.928 . S
H192 C189 0.931 . S
H193 C169 0.930 1_565 S
H194 C166 0.930 . S
H195 C175 0.930 . S
H196 C187 0.929 . S
H197 C190 0.930 . S
C198 C199 1.351 . S
C198 N201 1.368 . S
C198 H203 0.931 . S
C199 C198 1.351 . S
C199 N200 1.373 1_655 S
C199 H227 0.930 . S
N200 C199 1.373 1_455 S
N200 C202 1.340 1_455 S
N201 C198 1.368 . S
N201 C202 1.321 . S
N201 Co204 2.135 . S
C202 N200 1.340 1_655 S
C202 N201 1.321 . S
C202 H226 0.930 1_655 S
H203 C198 0.931 . S
Co204 N201 2.135 . S
Co204 N207 2.121 . S
Co204 O212 2.055 . S
Co204 O215 2.039 . S
Co204 N218 2.140 . S
C205 O206 1.227 . S
C205 O215 1.265 . S
O206 C205 1.227 . S
N207 Co204 2.121 . S
N207 C209 1.375 . S
N207 C210 1.313 . S
C208 C209 1.338 . S
C208 N211 1.377 . S
C208 H228 0.930 . S
C209 N207 1.375 . S
C209 C208 1.338 . S
C209 H213 0.931 . S
C210 N207 1.313 . S
C210 N211 1.344 . S
C210 H214 0.930 . S
N211 C208 1.377 . S
N211 C210 1.344 . S
O212 Co204 2.055 . S
O212 C216 1.253 . S
H213 C209 0.931 . S
H214 C210 0.930 . S
O215 Co204 2.039 . S
O215 C205 1.265 . S
C216 O212 1.253 . S
C216 O217 1.227 . S
O217 C216 1.227 . S
N218 Co204 2.140 . S
N218 C221 1.346 . S
N218 C222 1.345 . S
C219 C220 1.387 . S
C219 C223 1.391 . S
C220 C219 1.387 . S
C220 C221 1.369 . S
C220 H229 0.929 . S
C221 N218 1.346 . S
C221 C220 1.369 . S
C221 H224 0.928 . S
C222 N218 1.345 . S
C222 C223 1.371 . S
C222 H225 0.931 . S
C223 C219 1.391 . S
C223 C222 1.371 . S
C223 H230 0.930 . S
H224 C221 0.928 . S
H225 C222 0.931 . S
H226 C202 0.930 1_455 S
H227 C199 0.930 . S
H228 C208 0.930 . S
H229 C220 0.929 . S
H230 C223 0.930 . S
C231 C232 1.351 . S
C231 N234 1.368 . S
C231 H236 0.931 . S
C232 C231 1.351 . S
C232 N233 1.373 1_565 S
C232 H260 0.930 . S
N233 C232 1.373 1_545 S
N233 C235 1.340 1_545 S
N234 C231 1.368 . S
N234 C235 1.321 . S
N234 Co237 2.135 . S
C235 N233 1.340 1_565 S
C235 N234 1.321 . S
C235 H259 0.930 1_565 S
H236 C231 0.931 . S
Co237 N234 2.135 . S
Co237 N240 2.121 . S
Co237 O245 2.055 . S
Co237 O248 2.039 . S
Co237 N251 2.140 . S
C238 O239 1.227 . S
C238 O248 1.265 . S
O239 C238 1.227 . S
N240 Co237 2.121 . S
N240 C242 1.375 . S
N240 C243 1.313 . S
C241 C242 1.338 . S
C241 N244 1.377 . S
C241 H261 0.930 . S
C242 N240 1.375 . S
C242 C241 1.338 . S
C242 H246 0.931 . S
C243 N240 1.313 . S
C243 N244 1.344 . S
C243 H247 0.930 . S
N244 C241 1.377 . S
N244 C243 1.344 . S
O245 Co237 2.055 . S
O245 C249 1.253 . S
H246 C242 0.931 . S
H247 C243 0.930 . S
O248 Co237 2.039 . S
O248 C238 1.265 . S
C249 O245 1.253 . S
C249 O250 1.227 . S
O250 C249 1.227 . S
N251 Co237 2.140 . S
N251 C254 1.346 . S
N251 C255 1.345 . S
C252 C253 1.387 . S
C252 C256 1.391 . S
C253 C252 1.387 . S
C253 C254 1.369 . S
C253 H262 0.929 . S
C254 N251 1.346 . S
C254 C253 1.369 . S
C254 H257 0.928 . S
C255 N251 1.345 . S
C255 C256 1.371 . S
C255 H258 0.931 . S
C256 C252 1.391 . S
C256 C255 1.371 . S
C256 H263 0.930 . S
H257 C254 0.928 . S
H258 C255 0.931 . S
H259 C235 0.930 1_545 S
H260 C232 0.930 . S
H261 C241 0.930 . S
H262 C253 0.929 . S
H263 C256 0.930 . S
C264 C265 1.351 . S
C264 N267 1.368 . S
C264 H269 0.931 . S
C265 C264 1.351 . S
C265 N266 1.373 1_545 S
C265 H293 0.930 . S
N266 C265 1.373 1_565 S
N266 C268 1.340 1_565 S
N267 C264 1.368 . S
N267 C268 1.321 . S
N267 Co270 2.135 . S
C268 N266 1.340 1_545 S
C268 N267 1.321 . S
C268 H292 0.930 1_545 S
H269 C264 0.931 . S
Co270 N267 2.135 . S
Co270 N273 2.121 . S
Co270 O278 2.055 . S
Co270 O281 2.039 . S
Co270 N284 2.140 . S
C271 O272 1.227 . S
C271 O281 1.265 . S
O272 C271 1.227 . S
N273 Co270 2.121 . S
N273 C275 1.375 . S
N273 C276 1.313 . S
C274 C275 1.338 . S
C274 N277 1.377 . S
C274 H294 0.930 . S
C275 N273 1.375 . S
C275 C274 1.338 . S
C275 H279 0.931 . S
C276 N273 1.313 . S
C276 N277 1.344 . S
C276 H280 0.930 . S
N277 C274 1.377 . S
N277 C276 1.344 . S
O278 Co270 2.055 . S
O278 C282 1.253 . S
H279 C275 0.931 . S
H280 C276 0.930 . S
O281 Co270 2.039 . S
O281 C271 1.265 . S
C282 O278 1.253 . S
C282 O283 1.227 . S
O283 C282 1.227 . S
N284 Co270 2.140 . S
N284 C287 1.346 . S
N284 C288 1.345 . S
C285 C286 1.387 . S
C285 C289 1.391 . S
C286 C285 1.387 . S
C286 C287 1.369 . S
C286 H295 0.929 . S
C287 N284 1.346 . S
C287 C286 1.369 . S
C287 H290 0.928 . S
C288 N284 1.345 . S
C288 C289 1.371 . S
C288 H291 0.931 . S
C289 C285 1.391 . S
C289 C288 1.371 . S
C289 H296 0.930 . S
H290 C287 0.928 . S
H291 C288 0.931 . S
H292 C268 0.930 1_565 S
H293 C265 0.930 . S
H294 C274 0.930 . S
H295 C286 0.929 . S
H296 C289 0.930 . S
C297 C298 1.351 . S
C297 N300 1.368 . S
C297 H302 0.931 . S
C298 C297 1.351 . S
C298 N299 1.373 1_655 S
C298 H326 0.930 . S
N299 C298 1.373 1_455 S
N299 C301 1.340 1_455 S
N300 C297 1.368 . S
N300 C301 1.321 . S
N300 Co303 2.135 . S
C301 N299 1.340 1_655 S
C301 N300 1.321 . S
C301 H325 0.930 1_655 S
H302 C297 0.931 . S
Co303 N300 2.135 . S
Co303 N306 2.121 . S
Co303 O311 2.055 . S
Co303 O314 2.039 . S
Co303 N317 2.140 . S
C304 O305 1.227 . S
C304 O314 1.265 . S
O305 C304 1.227 . S
N306 Co303 2.121 . S
N306 C308 1.375 . S
N306 C309 1.313 . S
C307 C308 1.338 . S
C307 N310 1.377 . S
C307 H327 0.930 . S
C308 N306 1.375 . S
C308 C307 1.338 . S
C308 H312 0.931 . S
C309 N306 1.313 . S
C309 N310 1.344 . S
C309 H313 0.930 . S
N310 C307 1.377 . S
N310 C309 1.344 . S
O311 Co303 2.055 . S
O311 C315 1.253 . S
H312 C308 0.931 . S
H313 C309 0.930 . S
O314 Co303 2.039 . S
O314 C304 1.265 . S
C315 O311 1.253 . S
C315 O316 1.227 . S
O316 C315 1.227 . S
N317 Co303 2.140 . S
N317 C320 1.346 . S
N317 C321 1.345 . S
C318 C319 1.387 . S
C318 C322 1.391 . S
C319 C318 1.387 . S
C319 C320 1.369 . S
C319 H328 0.929 . S
C320 N317 1.346 . S
C320 C319 1.369 . S
C320 H323 0.928 . S
C321 N317 1.345 . S
C321 C322 1.371 . S
C321 H324 0.931 . S
C322 C318 1.391 . S
C322 C321 1.371 . S
C322 H329 0.930 . S
H323 C320 0.928 . S
H324 C321 0.931 . S
H325 C301 0.930 1_455 S
H326 C298 0.930 . S
H327 C307 0.930 . S
H328 C319 0.929 . S
H329 C322 0.930 . S
C330 C331 1.351 . S
C330 N333 1.368 . S
C330 H335 0.931 . S
C331 C330 1.351 . S
C331 N332 1.373 1_565 S
C331 H359 0.930 . S
N332 C331 1.373 1_545 S
N332 C334 1.340 1_545 S
N333 C330 1.368 . S
N333 C334 1.321 . S
N333 Co336 2.135 . S
C334 N332 1.340 1_565 S
C334 N333 1.321 . S
C334 H358 0.930 1_565 S
H335 C330 0.931 . S
Co336 N333 2.135 . S
Co336 N339 2.121 . S
Co336 O344 2.055 . S
Co336 O347 2.039 . S
Co336 N350 2.140 . S
C337 O338 1.227 . S
C337 O347 1.265 . S
O338 C337 1.227 . S
N339 Co336 2.121 . S
N339 C341 1.375 . S
N339 C342 1.313 . S
C340 C341 1.338 . S
C340 N343 1.377 . S
C340 H360 0.930 . S
C341 N339 1.375 . S
C341 C340 1.338 . S
C341 H345 0.931 . S
C342 N339 1.313 . S
C342 N343 1.344 . S
C342 H346 0.930 . S
N343 C340 1.377 . S
N343 C342 1.344 . S
O344 Co336 2.055 . S
O344 C348 1.253 . S
H345 C341 0.931 . S
H346 C342 0.930 . S
O347 Co336 2.039 . S
O347 C337 1.265 . S
C348 O344 1.253 . S
C348 O349 1.227 . S
O349 C348 1.227 . S
N350 Co336 2.140 . S
N350 C353 1.346 . S
N350 C354 1.345 . S
C351 C352 1.387 . S
C351 C355 1.391 . S
C352 C351 1.387 . S
C352 C353 1.369 . S
C352 H361 0.929 . S
C353 N350 1.346 . S
C353 C352 1.369 . S
C353 H356 0.928 . S
C354 N350 1.345 . S
C354 C355 1.371 . S
C354 H357 0.931 . S
C355 C351 1.391 . S
C355 C354 1.371 . S
C355 H362 0.930 . S
H356 C353 0.928 . S
H357 C354 0.931 . S
H358 C334 0.930 1_545 S
H359 C331 0.930 . S
H360 C340 0.930 . S
H361 C352 0.929 . S
H362 C355 0.930 . S
C363 C364 1.351 . S
C363 N366 1.368 . S
C363 H368 0.931 . S
C364 C363 1.351 . S
C364 N365 1.373 1_455 S
C364 H392 0.930 . S
N365 C364 1.373 1_655 S
N365 C367 1.340 1_655 S
N366 C363 1.368 . S
N366 C367 1.321 . S
N366 Co369 2.135 . S
C367 N365 1.340 1_455 S
C367 N366 1.321 . S
C367 H391 0.930 1_455 S
H368 C363 0.931 . S
Co369 N366 2.135 . S
Co369 N372 2.121 . S
Co369 O377 2.055 . S
Co369 O380 2.039 . S
Co369 N383 2.140 . S
C370 O371 1.227 . S
C370 O380 1.265 . S
O371 C370 1.227 . S
N372 Co369 2.121 . S
N372 C374 1.375 . S
N372 C375 1.313 . S
C373 C374 1.338 . S
C373 N376 1.377 . S
C373 H393 0.930 . S
C374 N372 1.375 . S
C374 C373 1.338 . S
C374 H378 0.931 . S
C375 N372 1.313 . S
C375 N376 1.344 . S
C375 H379 0.930 . S
N376 C373 1.377 . S
N376 C375 1.344 . S
O377 Co369 2.055 . S
O377 C381 1.253 . S
H378 C374 0.931 . S
H379 C375 0.930 . S
O380 Co369 2.039 . S
O380 C370 1.265 . S
C381 O377 1.253 . S
C381 O382 1.227 . S
O382 C381 1.227 . S
N383 Co369 2.140 . S
N383 C386 1.346 . S
N383 C387 1.345 . S
C384 C385 1.387 . S
C384 C388 1.391 . S
C385 C384 1.387 . S
C385 C386 1.369 . S
C385 H394 0.929 . S
C386 N383 1.346 . S
C386 C385 1.369 . S
C386 H389 0.928 . S
C387 N383 1.345 . S
C387 C388 1.371 . S
C387 H390 0.931 . S
C388 C384 1.391 . S
C388 C387 1.371 . S
C388 H395 0.930 . S
H389 C386 0.928 . S
H390 C387 0.931 . S
H391 C367 0.930 1_655 S
H392 C364 0.930 . S
H393 C373 0.930 . S
H394 C385 0.929 . S
H395 C388 0.930 . S
C396 C397 1.351 . S
C396 N399 1.368 . S
C396 H401 0.931 . S
C397 C396 1.351 . S
C397 N398 1.373 1_565 S
C397 H425 0.930 . S
N398 C397 1.373 1_545 S
N398 C400 1.340 1_545 S
N399 C396 1.368 . S
N399 C400 1.321 . S
N399 Co402 2.135 . S
C400 N398 1.340 1_565 S
C400 N399 1.321 . S
C400 H424 0.930 1_565 S
H401 C396 0.931 . S
Co402 N399 2.135 . S
Co402 N405 2.121 . S
Co402 O410 2.055 . S
Co402 O413 2.039 . S
Co402 N416 2.140 . S
C403 O404 1.227 . S
C403 O413 1.265 . S
O404 C403 1.227 . S
N405 Co402 2.121 . S
N405 C407 1.375 . S
N405 C408 1.313 . S
C406 C407 1.338 . S
C406 N409 1.377 . S
C406 H426 0.930 . S
C407 N405 1.375 . S
C407 C406 1.338 . S
C407 H411 0.931 . S
C408 N405 1.313 . S
C408 N409 1.344 . S
C408 H412 0.930 . S
N409 C406 1.377 . S
N409 C408 1.344 . S
O410 Co402 2.055 . S
O410 C414 1.253 . S
H411 C407 0.931 . S
H412 C408 0.930 . S
O413 Co402 2.039 . S
O413 C403 1.265 . S
C414 O410 1.253 . S
C414 O415 1.227 . S
O415 C414 1.227 . S
N416 Co402 2.140 . S
N416 C419 1.346 . S
N416 C420 1.345 . S
C417 C418 1.387 . S
C417 C421 1.391 . S
C418 C417 1.387 . S
C418 C419 1.369 . S
C418 H427 0.929 . S
C419 N416 1.346 . S
C419 C418 1.369 . S
C419 H422 0.928 . S
C420 N416 1.345 . S
C420 C421 1.371 . S
C420 H423 0.931 . S
C421 C417 1.391 . S
C421 C420 1.371 . S
C421 H428 0.930 . S
H422 C419 0.928 . S
H423 C420 0.931 . S
H424 C400 0.930 1_545 S
H425 C397 0.930 . S
H426 C406 0.930 . S
H427 C418 0.929 . S
H428 C421 0.930 . S
C429 C430 1.351 . S
C429 N432 1.368 . S
C429 H434 0.931 . S
C430 C429 1.351 . S
C430 N431 1.373 1_455 S
C430 H458 0.930 . S
N431 C430 1.373 1_655 S
N431 C433 1.340 1_655 S
N432 C429 1.368 . S
N432 C433 1.321 . S
N432 Co435 2.135 . S
C433 N431 1.340 1_455 S
C433 N432 1.321 . S
C433 H457 0.930 1_455 S
H434 C429 0.931 . S
Co435 N432 2.135 . S
Co435 N438 2.121 . S
Co435 O443 2.055 . S
Co435 O446 2.039 . S
Co435 N449 2.140 . S
C436 O437 1.227 . S
C436 O446 1.265 . S
O437 C436 1.227 . S
N438 Co435 2.121 . S
N438 C440 1.375 . S
N438 C441 1.313 . S
C439 C440 1.338 . S
C439 N442 1.377 . S
C439 H459 0.930 . S
C440 N438 1.375 . S
C440 C439 1.338 . S
C440 H444 0.931 . S
C441 N438 1.313 . S
C441 N442 1.344 . S
C441 H445 0.930 . S
N442 C439 1.377 . S
N442 C441 1.344 . S
O443 Co435 2.055 . S
O443 C447 1.253 . S
H444 C440 0.931 . S
H445 C441 0.930 . S
O446 Co435 2.039 . S
O446 C436 1.265 . S
C447 O443 1.253 . S
C447 O448 1.227 . S
O448 C447 1.227 . S
N449 Co435 2.140 . S
N449 C452 1.346 . S
N449 C453 1.345 . S
C450 C451 1.387 . S
C450 C454 1.391 . S
C451 C450 1.387 . S
C451 C452 1.369 . S
C451 H460 0.929 . S
C452 N449 1.346 . S
C452 C451 1.369 . S
C452 H455 0.928 . S
C453 N449 1.345 . S
C453 C454 1.371 . S
C453 H456 0.931 . S
C454 C450 1.391 . S
C454 C453 1.371 . S
C454 H461 0.930 . S
H455 C452 0.928 . S
H456 C453 0.931 . S
H457 C433 0.930 1_655 S
H458 C430 0.930 . S
H459 C439 0.930 . S
H460 C451 0.929 . S
H461 C454 0.930 . S
C462 C463 1.351 . S
C462 N465 1.368 . S
C462 H467 0.931 . S
C463 C462 1.351 . S
C463 N464 1.373 1_545 S
C463 H491 0.930 . S
N464 C463 1.373 1_565 S
N464 C466 1.340 1_565 S
N465 C462 1.368 . S
N465 C466 1.321 . S
N465 Co468 2.135 . S
C466 N464 1.340 1_545 S
C466 N465 1.321 . S
C466 H490 0.930 1_545 S
H467 C462 0.931 . S
Co468 N465 2.135 . S
Co468 N471 2.121 . S
Co468 O476 2.055 . S
Co468 O479 2.039 . S
Co468 N482 2.140 . S
C469 O470 1.227 . S
C469 O479 1.265 . S
O470 C469 1.227 . S
N471 Co468 2.121 . S
N471 C473 1.375 . S
N471 C474 1.313 . S
C472 C473 1.338 . S
C472 N475 1.377 . S
C472 H492 0.930 . S
C473 N471 1.375 . S
C473 C472 1.338 . S
C473 H477 0.931 . S
C474 N471 1.313 . S
C474 N475 1.344 . S
C474 H478 0.930 . S
N475 C472 1.377 . S
N475 C474 1.344 . S
O476 Co468 2.055 . S
O476 C480 1.253 . S
H477 C473 0.931 . S
H478 C474 0.930 . S
O479 Co468 2.039 . S
O479 C469 1.265 . S
C480 O476 1.253 . S
C480 O481 1.227 . S
O481 C480 1.227 . S
N482 Co468 2.140 . S
N482 C485 1.346 . S
N482 C486 1.345 . S
C483 C484 1.387 . S
C483 C487 1.391 . S
C484 C483 1.387 . S
C484 C485 1.369 . S
C484 H493 0.929 . S
C485 N482 1.346 . S
C485 C484 1.369 . S
C485 H488 0.928 . S
C486 N482 1.345 . S
C486 C487 1.371 . S
C486 H489 0.931 . S
C487 C483 1.391 . S
C487 C486 1.371 . S
C487 H494 0.930 . S
H488 C485 0.928 . S
H489 C486 0.931 . S
H490 C466 0.930 1_565 S
H491 C463 0.930 . S
H492 C472 0.930 . S
H493 C484 0.929 . S
H494 C487 0.930 . S
C495 C496 1.351 . S
C495 N498 1.368 . S
C495 H500 0.931 . S
C496 C495 1.351 . S
C496 N497 1.373 1_655 S
C496 H524 0.930 . S
N497 C496 1.373 1_455 S
N497 C499 1.340 1_455 S
N498 C495 1.368 . S
N498 C499 1.321 . S
N498 Co501 2.135 . S
C499 N497 1.340 1_655 S
C499 N498 1.321 . S
C499 H523 0.930 1_655 S
H500 C495 0.931 . S
Co501 N498 2.135 . S
Co501 N504 2.121 . S
Co501 O509 2.055 . S
Co501 O512 2.039 . S
Co501 N515 2.140 . S
C502 O503 1.227 . S
C502 O512 1.265 . S
O503 C502 1.227 . S
N504 Co501 2.121 . S
N504 C506 1.375 . S
N504 C507 1.313 . S
C505 C506 1.338 . S
C505 N508 1.377 . S
C505 H525 0.930 . S
C506 N504 1.375 . S
C506 C505 1.338 . S
C506 H510 0.931 . S
C507 N504 1.313 . S
C507 N508 1.344 . S
C507 H511 0.930 . S
N508 C505 1.377 . S
N508 C507 1.344 . S
O509 Co501 2.055 . S
O509 C513 1.253 . S
H510 C506 0.931 . S
H511 C507 0.930 . S
O512 Co501 2.039 . S
O512 C502 1.265 . S
C513 O509 1.253 . S
C513 O514 1.227 . S
O514 C513 1.227 . S
N515 Co501 2.140 . S
N515 C518 1.346 . S
N515 C519 1.345 . S
C516 C517 1.387 . S
C516 C520 1.391 . S
C517 C516 1.387 . S
C517 C518 1.369 . S
C517 H526 0.929 . S
C518 N515 1.346 . S
C518 C517 1.369 . S
C518 H521 0.928 . S
C519 N515 1.345 . S
C519 C520 1.371 . S
C519 H522 0.931 . S
C520 C516 1.391 . S
C520 C519 1.371 . S
C520 H527 0.930 . S
H521 C518 0.928 . S
H522 C519 0.931 . S
H523 C499 0.930 1_455 S
H524 C496 0.930 . S
H525 C505 0.930 . S
H526 C517 0.929 . S
H527 C520 0.930 . S
C528 C529 1.351 . S
C528 N531 1.368 . S
C528 H533 0.931 . S
C529 C528 1.351 . S
C529 N530 1.373 1_554 S
C529 H557 0.930 . S
N530 C529 1.373 1_556 S
N530 C532 1.340 1_556 S
N531 C528 1.368 . S
N531 C532 1.321 . S
N531 Co534 2.135 . S
C532 N530 1.340 1_554 S
C532 N531 1.321 . S
C532 H556 0.930 1_554 S
H533 C528 0.931 . S
Co534 N531 2.135 . S
Co534 N537 2.121 . S
Co534 O542 2.055 . S
Co534 O545 2.039 . S
Co534 N548 2.140 . S
C535 O536 1.227 . S
C535 O545 1.265 . S
O536 C535 1.227 . S
N537 Co534 2.121 . S
N537 C539 1.375 . S
N537 C540 1.313 . S
C538 C539 1.338 . S
C538 N541 1.377 . S
C538 H558 0.930 . S
C539 N537 1.375 . S
C539 C538 1.338 . S
C539 H543 0.931 . S
C540 N537 1.313 . S
C540 N541 1.344 . S
C540 H544 0.930 . S
N541 C538 1.377 . S
N541 C540 1.344 . S
O542 Co534 2.055 . S
O542 C546 1.253 . S
H543 C539 0.931 . S
H544 C540 0.930 . S
O545 Co534 2.039 . S
O545 C535 1.265 . S
C546 O542 1.253 . S
C546 O547 1.227 . S
O547 C546 1.227 . S
N548 Co534 2.140 . S
N548 C551 1.346 . S
N548 C552 1.345 . S
C549 C550 1.387 . S
C549 C553 1.391 . S
C550 C549 1.387 . S
C550 C551 1.369 . S
C550 H559 0.929 . S
C551 N548 1.346 . S
C551 C550 1.369 . S
C551 H554 0.928 . S
C552 N548 1.345 . S
C552 C553 1.371 . S
C552 H555 0.931 . S
C553 C549 1.391 . S
C553 C552 1.371 . S
C553 H560 0.930 . S
H554 C551 0.928 . S
H555 C552 0.931 . S
H556 C532 0.930 1_556 S
H557 C529 0.930 . S
H558 C538 0.930 . S
H559 C550 0.929 . S
H560 C553 0.930 . S
C561 C562 1.351 . S
C561 N564 1.368 . S
C561 H566 0.931 . S
C562 C561 1.351 . S
C562 N563 1.373 1_556 S
C562 H590 0.930 . S
N563 C562 1.373 1_554 S
N563 C565 1.340 1_554 S
N564 C561 1.368 . S
N564 C565 1.321 . S
N564 Co567 2.135 . S
C565 N563 1.340 1_556 S
C565 N564 1.321 . S
C565 H589 0.930 1_556 S
H566 C561 0.931 . S
Co567 N564 2.135 . S
Co567 N570 2.121 . S
Co567 O575 2.055 . S
Co567 O578 2.039 . S
Co567 N581 2.140 . S
C568 O569 1.227 . S
C568 O578 1.265 . S
O569 C568 1.227 . S
N570 Co567 2.121 . S
N570 C572 1.375 . S
N570 C573 1.313 . S
C571 C572 1.338 . S
C571 N574 1.377 . S
C571 H591 0.930 . S
C572 N570 1.375 . S
C572 C571 1.338 . S
C572 H576 0.931 . S
C573 N570 1.313 . S
C573 N574 1.344 . S
C573 H577 0.930 . S
N574 C571 1.377 . S
N574 C573 1.344 . S
O575 Co567 2.055 . S
O575 C579 1.253 . S
H576 C572 0.931 . S
H577 C573 0.930 . S
O578 Co567 2.039 . S
O578 C568 1.265 . S
C579 O575 1.253 . S
C579 O580 1.227 . S
O580 C579 1.227 . S
N581 Co567 2.140 . S
N581 C584 1.346 . S
N581 C585 1.345 . S
C582 C583 1.387 . S
C582 C586 1.391 . S
C583 C582 1.387 . S
C583 C584 1.369 . S
C583 H592 0.929 . S
C584 N581 1.346 . S
C584 C583 1.369 . S
C584 H587 0.928 . S
C585 N581 1.345 . S
C585 C586 1.371 . S
C585 H588 0.931 . S
C586 C582 1.391 . S
C586 C585 1.371 . S
C586 H593 0.930 . S
H587 C584 0.928 . S
H588 C585 0.931 . S
H589 C565 0.930 1_554 S
H590 C562 0.930 . S
H591 C571 0.930 . S
H592 C583 0.929 . S
H593 C586 0.930 . S
C594 C595 1.351 . S
C594 N597 1.368 . S
C594 H599 0.931 . S
C595 C594 1.351 . S
C595 N596 1.373 1_556 S
C595 H623 0.930 . S
N596 C595 1.373 1_554 S
N596 C598 1.340 1_554 S
N597 C594 1.368 . S
N597 C598 1.321 . S
N597 Co600 2.135 . S
C598 N596 1.340 1_556 S
C598 N597 1.321 . S
C598 H622 0.930 1_556 S
H599 C594 0.931 . S
Co600 N597 2.135 . S
Co600 N603 2.121 . S
Co600 O608 2.055 . S
Co600 O611 2.039 . S
Co600 N614 2.140 . S
C601 O602 1.227 . S
C601 O611 1.265 . S
O602 C601 1.227 . S
N603 Co600 2.121 . S
N603 C605 1.375 . S
N603 C606 1.313 . S
C604 C605 1.338 . S
C604 N607 1.377 . S
C604 H624 0.930 . S
C605 N603 1.375 . S
C605 C604 1.338 . S
C605 H609 0.931 . S
C606 N603 1.313 . S
C606 N607 1.344 . S
C606 H610 0.930 . S
N607 C604 1.377 . S
N607 C606 1.344 . S
O608 Co600 2.055 . S
O608 C612 1.253 . S
H609 C605 0.931 . S
H610 C606 0.930 . S
O611 Co600 2.039 . S
O611 C601 1.265 . S
C612 O608 1.253 . S
C612 O613 1.227 . S
O613 C612 1.227 . S
N614 Co600 2.140 . S
N614 C617 1.346 . S
N614 C618 1.345 . S
C615 C616 1.387 . S
C615 C619 1.391 . S
C616 C615 1.387 . S
C616 C617 1.369 . S
C616 H625 0.929 . S
C617 N614 1.346 . S
C617 C616 1.369 . S
C617 H620 0.928 . S
C618 N614 1.345 . S
C618 C619 1.371 . S
C618 H621 0.931 . S
C619 C615 1.391 . S
C619 C618 1.371 . S
C619 H626 0.930 . S
H620 C617 0.928 . S
H621 C618 0.931 . S
H622 C598 0.930 1_554 S
H623 C595 0.930 . S
H624 C604 0.930 . S
H625 C616 0.929 . S
H626 C619 0.930 . S
C627 C628 1.351 . S
C627 N630 1.368 . S
C627 H632 0.931 . S
C628 C627 1.351 . S
C628 N629 1.373 1_556 S
C628 H656 0.930 . S
N629 C628 1.373 1_554 S
N629 C631 1.340 1_554 S
N630 C627 1.368 . S
N630 C631 1.321 . S
N630 Co633 2.135 . S
C631 N629 1.340 1_556 S
C631 N630 1.321 . S
C631 H655 0.930 1_556 S
H632 C627 0.931 . S
Co633 N630 2.135 . S
Co633 N636 2.121 . S
Co633 O641 2.055 . S
Co633 O644 2.039 . S
Co633 N647 2.140 . S
C634 O635 1.227 . S
C634 O644 1.265 . S
O635 C634 1.227 . S
N636 Co633 2.121 . S
N636 C638 1.375 . S
N636 C639 1.313 . S
C637 C638 1.338 . S
C637 N640 1.377 . S
C637 H657 0.930 . S
C638 N636 1.375 . S
C638 C637 1.338 . S
C638 H642 0.931 . S
C639 N636 1.313 . S
C639 N640 1.344 . S
C639 H643 0.930 . S
N640 C637 1.377 . S
N640 C639 1.344 . S
O641 Co633 2.055 . S
O641 C645 1.253 . S
H642 C638 0.931 . S
H643 C639 0.930 . S
O644 Co633 2.039 . S
O644 C634 1.265 . S
C645 O641 1.253 . S
C645 O646 1.227 . S
O646 C645 1.227 . S
N647 Co633 2.140 . S
N647 C650 1.346 . S
N647 C651 1.345 . S
C648 C649 1.387 . S
C648 C652 1.391 . S
C649 C648 1.387 . S
C649 C650 1.369 . S
C649 H658 0.929 . S
C650 N647 1.346 . S
C650 C649 1.369 . S
C650 H653 0.928 . S
C651 N647 1.345 . S
C651 C652 1.371 . S
C651 H654 0.931 . S
C652 C648 1.391 . S
C652 C651 1.371 . S
C652 H659 0.930 . S
H653 C650 0.928 . S
H654 C651 0.931 . S
H655 C631 0.930 1_554 S
H656 C628 0.930 . S
H657 C637 0.930 . S
H658 C649 0.929 . S
H659 C652 0.930 . S
C660 C661 1.351 . S
C660 N663 1.368 . S
C660 H665 0.931 . S
C661 C660 1.351 . S
C661 N662 1.373 1_556 S
C661 H689 0.930 . S
N662 C661 1.373 1_554 S
N662 C664 1.340 1_554 S
N663 C660 1.368 . S
N663 C664 1.321 . S
N663 Co666 2.135 . S
C664 N662 1.340 1_556 S
C664 N663 1.321 . S
C664 H688 0.930 1_556 S
H665 C660 0.931 . S
Co666 N663 2.135 . S
Co666 N669 2.121 . S
Co666 O674 2.055 . S
Co666 O677 2.039 . S
Co666 N680 2.140 . S
C667 O668 1.227 . S
C667 O677 1.265 . S
O668 C667 1.227 . S
N669 Co666 2.121 . S
N669 C671 1.375 . S
N669 C672 1.313 . S
C670 C671 1.338 . S
C670 N673 1.377 . S
C670 H690 0.930 . S
C671 N669 1.375 . S
C671 C670 1.338 . S
C671 H675 0.931 . S
C672 N669 1.313 . S
C672 N673 1.344 . S
C672 H676 0.930 . S
N673 C670 1.377 . S
N673 C672 1.344 . S
O674 Co666 2.055 . S
O674 C678 1.253 . S
H675 C671 0.931 . S
H676 C672 0.930 . S
O677 Co666 2.039 . S
O677 C667 1.265 . S
C678 O674 1.253 . S
C678 O679 1.227 . S
O679 C678 1.227 . S
N680 Co666 2.140 . S
N680 C683 1.346 . S
N680 C684 1.345 . S
C681 C682 1.387 . S
C681 C685 1.391 . S
C682 C681 1.387 . S
C682 C683 1.369 . S
C682 H691 0.929 . S
C683 N680 1.346 . S
C683 C682 1.369 . S
C683 H686 0.928 . S
C684 N680 1.345 . S
C684 C685 1.371 . S
C684 H687 0.931 . S
C685 C681 1.391 . S
C685 C684 1.371 . S
C685 H692 0.930 . S
H686 C683 0.928 . S
H687 C684 0.931 . S
H688 C664 0.930 1_554 S
H689 C661 0.930 . S
H690 C670 0.930 . S
H691 C682 0.929 . S
H692 C685 0.930 . S
C693 C694 1.351 . S
C693 N696 1.368 . S
C693 H698 0.931 . S
C694 C693 1.351 . S
C694 N695 1.373 1_554 S
C694 H722 0.930 . S
N695 C694 1.373 1_556 S
N695 C697 1.340 1_556 S
N696 C693 1.368 . S
N696 C697 1.321 . S
N696 Co699 2.135 . S
C697 N695 1.340 1_554 S
C697 N696 1.321 . S
C697 H721 0.930 1_554 S
H698 C693 0.931 . S
Co699 N696 2.135 . S
Co699 N702 2.121 . S
Co699 O707 2.055 . S
Co699 O710 2.039 . S
Co699 N713 2.140 . S
C700 O701 1.227 . S
C700 O710 1.265 . S
O701 C700 1.227 . S
N702 Co699 2.121 . S
N702 C704 1.375 . S
N702 C705 1.313 . S
C703 C704 1.338 . S
C703 N706 1.377 . S
C703 H723 0.930 . S
C704 N702 1.375 . S
C704 C703 1.338 . S
C704 H708 0.931 . S
C705 N702 1.313 . S
C705 N706 1.344 . S
C705 H709 0.930 . S
N706 C703 1.377 . S
N706 C705 1.344 . S
O707 Co699 2.055 . S
O707 C711 1.253 . S
H708 C704 0.931 . S
H709 C705 0.930 . S
O710 Co699 2.039 . S
O710 C700 1.265 . S
C711 O707 1.253 . S
C711 O712 1.227 . S
O712 C711 1.227 . S
N713 Co699 2.140 . S
N713 C716 1.346 . S
N713 C717 1.345 . S
C714 C715 1.387 . S
C714 C718 1.391 . S
C715 C714 1.387 . S
C715 C716 1.369 . S
C715 H724 0.929 . S
C716 N713 1.346 . S
C716 C715 1.369 . S
C716 H719 0.928 . S
C717 N713 1.345 . S
C717 C718 1.371 . S
C717 H720 0.931 . S
C718 C714 1.391 . S
C718 C717 1.371 . S
C718 H725 0.930 . S
H719 C716 0.928 . S
H720 C717 0.931 . S
H721 C697 0.930 1_556 S
H722 C694 0.930 . S
H723 C703 0.930 . S
H724 C715 0.929 . S
H725 C718 0.930 . S
C726 C727 1.351 . S
C726 N729 1.368 . S
C726 H731 0.931 . S
C727 C726 1.351 . S
C727 N728 1.373 1_554 S
C727 H755 0.930 . S
N728 C727 1.373 1_556 S
N728 C730 1.340 1_556 S
N729 C726 1.368 . S
N729 C730 1.321 . S
N729 Co732 2.135 . S
C730 N728 1.340 1_554 S
C730 N729 1.321 . S
C730 H754 0.930 1_554 S
H731 C726 0.931 . S
Co732 N729 2.135 . S
Co732 N735 2.121 . S
Co732 O740 2.055 . S
Co732 O743 2.039 . S
Co732 N746 2.140 . S
C733 O734 1.227 . S
C733 O743 1.265 . S
O734 C733 1.227 . S
N735 Co732 2.121 . S
N735 C737 1.375 . S
N735 C738 1.313 . S
C736 C737 1.338 . S
C736 N739 1.377 . S
C736 H756 0.930 . S
C737 N735 1.375 . S
C737 C736 1.338 . S
C737 H741 0.931 . S
C738 N735 1.313 . S
C738 N739 1.344 . S
C738 H742 0.930 . S
N739 C736 1.377 . S
N739 C738 1.344 . S
O740 Co732 2.055 . S
O740 C744 1.253 . S
H741 C737 0.931 . S
H742 C738 0.930 . S
O743 Co732 2.039 . S
O743 C733 1.265 . S
C744 O740 1.253 . S
C744 O745 1.227 . S
O745 C744 1.227 . S
N746 Co732 2.140 . S
N746 C749 1.346 . S
N746 C750 1.345 . S
C747 C748 1.387 . S
C747 C751 1.391 . S
C748 C747 1.387 . S
C748 C749 1.369 . S
C748 H757 0.929 . S
C749 N746 1.346 . S
C749 C748 1.369 . S
C749 H752 0.928 . S
C750 N746 1.345 . S
C750 C751 1.371 . S
C750 H753 0.931 . S
C751 C747 1.391 . S
C751 C750 1.371 . S
C751 H758 0.930 . S
H752 C749 0.928 . S
H753 C750 0.931 . S
H754 C730 0.930 1_556 S
H755 C727 0.930 . S
H756 C736 0.930 . S
H757 C748 0.929 . S
H758 C751 0.930 . S
C759 C760 1.351 . S
C759 N762 1.368 . S
C759 H764 0.931 . S
C760 C759 1.351 . S
C760 N761 1.373 1_554 S
C760 H788 0.930 . S
N761 C760 1.373 1_556 S
N761 C763 1.340 1_556 S
N762 C759 1.368 . S
N762 C763 1.321 . S
N762 Co765 2.135 . S
C763 N761 1.340 1_554 S
C763 N762 1.321 . S
C763 H787 0.930 1_554 S
H764 C759 0.931 . S
Co765 N762 2.135 . S
Co765 N768 2.121 . S
Co765 O773 2.055 . S
Co765 O776 2.039 . S
Co765 N779 2.140 . S
C766 O767 1.227 . S
C766 O776 1.265 . S
O767 C766 1.227 . S
N768 Co765 2.121 . S
N768 C770 1.375 . S
N768 C771 1.313 . S
C769 C770 1.338 . S
C769 N772 1.377 . S
C769 H789 0.930 . S
C770 N768 1.375 . S
C770 C769 1.338 . S
C770 H774 0.931 . S
C771 N768 1.313 . S
C771 N772 1.344 . S
C771 H775 0.930 . S
N772 C769 1.377 . S
N772 C771 1.344 . S
O773 Co765 2.055 . S
O773 C777 1.253 . S
H774 C770 0.931 . S
H775 C771 0.930 . S
O776 Co765 2.039 . S
O776 C766 1.265 . S
C777 O773 1.253 . S
C777 O778 1.227 . S
O778 C777 1.227 . S
N779 Co765 2.140 . S
N779 C782 1.346 . S
N779 C783 1.345 . S
C780 C781 1.387 . S
C780 C784 1.391 . S
C781 C780 1.387 . S
C781 C782 1.369 . S
C781 H790 0.929 . S
C782 N779 1.346 . S
C782 C781 1.369 . S
C782 H785 0.928 . S
C783 N779 1.345 . S
C783 C784 1.371 . S
C783 H786 0.931 . S
C784 C780 1.391 . S
C784 C783 1.371 . S
C784 H791 0.930 . S
H785 C782 0.928 . S
H786 C783 0.931 . S
H787 C763 0.930 1_556 S
H788 C760 0.930 . S
H789 C769 0.930 . S
H790 C781 0.929 . S
H791 C784 0.930 . S
C792 C793 1.351 . S
C792 N795 1.368 . S
C792 H797 0.931 . S
C793 C792 1.351 . S
C793 N794 1.373 . S
C793 H821 0.930 . S
N794 C793 1.373 . S
N794 C796 1.340 . S
N795 C792 1.368 . S
N795 C796 1.321 . S
N795 Co798 2.135 . S
C796 N794 1.340 . S
C796 N795 1.321 . S
C796 H820 0.930 . S
H797 C792 0.931 . S
Co798 N795 2.135 . S
Co798 N801 2.121 . S
Co798 O806 2.055 . S
Co798 O809 2.039 . S
Co798 N812 2.140 . S
C799 O800 1.227 . S
C799 O809 1.265 . S
O800 C799 1.227 . S
N801 Co798 2.121 . S
N801 C803 1.375 . S
N801 C804 1.313 . S
C802 C803 1.338 . S
C802 N805 1.377 . S
C802 H822 0.930 . S
C803 N801 1.375 . S
C803 C802 1.338 . S
C803 H807 0.931 . S
C804 N801 1.313 . S
C804 N805 1.344 . S
C804 H808 0.930 . S
N805 C802 1.377 . S
N805 C804 1.344 . S
O806 Co798 2.055 . S
O806 C810 1.253 . S
H807 C803 0.931 . S
H808 C804 0.930 . S
O809 Co798 2.039 . S
O809 C799 1.265 . S
C810 O806 1.253 . S
C810 O811 1.227 . S
O811 C810 1.227 . S
N812 Co798 2.140 . S
N812 C815 1.346 . S
N812 C816 1.345 . S
C813 C814 1.387 . S
C813 C817 1.391 . S
C814 C813 1.387 . S
C814 C815 1.369 . S
C814 H823 0.929 . S
C815 N812 1.346 . S
C815 C814 1.369 . S
C815 H818 0.928 . S
C816 N812 1.345 . S
C816 C817 1.371 . S
C816 H819 0.931 . S
C817 C813 1.391 . S
C817 C816 1.371 . S
C817 H824 0.930 . S
H818 C815 0.928 . S
H819 C816 0.931 . S
H820 C796 0.930 . S
H821 C793 0.930 . S
H822 C802 0.930 . S
H823 C814 0.929 . S
H824 C817 0.930 . S
C825 C826 1.351 . S
C825 N828 1.368 . S
C825 H830 0.931 . S
C826 C825 1.351 . S
C826 N827 1.373 . S
C826 H854 0.930 . S
N827 C826 1.373 . S
N827 C829 1.340 . S
N828 C825 1.368 . S
N828 C829 1.321 . S
N828 Co831 2.135 . S
C829 N827 1.340 . S
C829 N828 1.321 . S
C829 H853 0.930 . S
H830 C825 0.931 . S
Co831 N828 2.135 . S
Co831 N834 2.121 . S
Co831 O839 2.055 . S
Co831 O842 2.039 . S
Co831 N845 2.140 . S
C832 O833 1.227 . S
C832 O842 1.265 . S
O833 C832 1.227 . S
N834 Co831 2.121 . S
N834 C836 1.375 . S
N834 C837 1.313 . S
C835 C836 1.338 . S
C835 N838 1.377 . S
C835 H855 0.930 . S
C836 N834 1.375 . S
C836 C835 1.338 . S
C836 H840 0.931 . S
C837 N834 1.313 . S
C837 N838 1.344 . S
C837 H841 0.930 . S
N838 C835 1.377 . S
N838 C837 1.344 . S
O839 Co831 2.055 . S
O839 C843 1.253 . S
H840 C836 0.931 . S
H841 C837 0.930 . S
O842 Co831 2.039 . S
O842 C832 1.265 . S
C843 O839 1.253 . S
C843 O844 1.227 . S
O844 C843 1.227 . S
N845 Co831 2.140 . S
N845 C848 1.346 . S
N845 C849 1.345 . S
C846 C847 1.387 . S
C846 C850 1.391 . S
C847 C846 1.387 . S
C847 C848 1.369 . S
C847 H856 0.929 . S
C848 N845 1.346 . S
C848 C847 1.369 . S
C848 H851 0.928 . S
C849 N845 1.345 . S
C849 C850 1.371 . S
C849 H852 0.931 . S
C850 C846 1.391 . S
C850 C849 1.371 . S
C850 H857 0.930 . S
H851 C848 0.928 . S
H852 C849 0.931 . S
H853 C829 0.930 . S
H854 C826 0.930 . S
H855 C835 0.930 . S
H856 C847 0.929 . S
H857 C850 0.930 . S
C858 C859 1.351 . S
C858 N861 1.368 . S
C858 H863 0.931 . S
C859 C858 1.351 . S
C859 N860 1.373 . S
C859 H887 0.930 . S
N860 C859 1.373 . S
N860 C862 1.340 . S
N861 C858 1.368 . S
N861 C862 1.321 . S
N861 Co864 2.135 . S
C862 N860 1.340 . S
C862 N861 1.321 . S
C862 H886 0.930 . S
H863 C858 0.931 . S
Co864 N861 2.135 . S
Co864 N867 2.121 . S
Co864 O872 2.055 . S
Co864 O875 2.039 . S
Co864 N878 2.140 . S
C865 O866 1.227 . S
C865 O875 1.265 . S
O866 C865 1.227 . S
N867 Co864 2.121 . S
N867 C869 1.375 . S
N867 C870 1.313 . S
C868 C869 1.338 . S
C868 N871 1.377 . S
C868 H888 0.930 . S
C869 N867 1.375 . S
C869 C868 1.338 . S
C869 H873 0.931 . S
C870 N867 1.313 . S
C870 N871 1.344 . S
C870 H874 0.930 . S
N871 C868 1.377 . S
N871 C870 1.344 . S
O872 Co864 2.055 . S
O872 C876 1.253 . S
H873 C869 0.931 . S
H874 C870 0.930 . S
O875 Co864 2.039 . S
O875 C865 1.265 . S
C876 O872 1.253 . S
C876 O877 1.227 . S
O877 C876 1.227 . S
N878 Co864 2.140 . S
N878 C881 1.346 . S
N878 C882 1.345 . S
C879 C880 1.387 . S
C879 C883 1.391 . S
C880 C879 1.387 . S
C880 C881 1.369 . S
C880 H889 0.929 . S
C881 N878 1.346 . S
C881 C880 1.369 . S
C881 H884 0.928 . S
C882 N878 1.345 . S
C882 C883 1.371 . S
C882 H885 0.931 . S
C883 C879 1.391 . S
C883 C882 1.371 . S
C883 H890 0.930 . S
H884 C881 0.928 . S
H885 C882 0.931 . S
H886 C862 0.930 . S
H887 C859 0.930 . S
H888 C868 0.930 . S
H889 C880 0.929 . S
H890 C883 0.930 . S
C891 C892 1.351 . S
C891 N894 1.368 . S
C891 H896 0.931 . S
C892 C891 1.351 . S
C892 N893 1.373 . S
C892 H920 0.930 . S
N893 C892 1.373 . S
N893 C895 1.340 . S
N894 C891 1.368 . S
N894 C895 1.321 . S
N894 Co897 2.135 . S
C895 N893 1.340 . S
C895 N894 1.321 . S
C895 H919 0.930 . S
H896 C891 0.931 . S
Co897 N894 2.135 . S
Co897 N900 2.121 . S
Co897 O905 2.055 . S
Co897 O908 2.039 . S
Co897 N911 2.140 . S
C898 O899 1.227 . S
C898 O908 1.265 . S
O899 C898 1.227 . S
N900 Co897 2.121 . S
N900 C902 1.375 . S
N900 C903 1.313 . S
C901 C902 1.338 . S
C901 N904 1.377 . S
C901 H921 0.930 . S
C902 N900 1.375 . S
C902 C901 1.338 . S
C902 H906 0.931 . S
C903 N900 1.313 . S
C903 N904 1.344 . S
C903 H907 0.930 . S
N904 C901 1.377 . S
N904 C903 1.344 . S
O905 Co897 2.055 . S
O905 C909 1.253 . S
H906 C902 0.931 . S
H907 C903 0.930 . S
O908 Co897 2.039 . S
O908 C898 1.265 . S
C909 O905 1.253 . S
C909 O910 1.227 . S
O910 C909 1.227 . S
N911 Co897 2.140 . S
N911 C914 1.346 . S
N911 C915 1.345 . S
C912 C913 1.387 . S
C912 C916 1.391 . S
C913 C912 1.387 . S
C913 C914 1.369 . S
C913 H922 0.929 . S
C914 N911 1.346 . S
C914 C913 1.369 . S
C914 H917 0.928 . S
C915 N911 1.345 . S
C915 C916 1.371 . S
C915 H918 0.931 . S
C916 C912 1.391 . S
C916 C915 1.371 . S
C916 H923 0.930 . S
H917 C914 0.928 . S
H918 C915 0.931 . S
H919 C895 0.930 . S
H920 C892 0.930 . S
H921 C901 0.930 . S
H922 C913 0.929 . S
H923 C916 0.930 . S
C924 C925 1.351 . S
C924 N927 1.368 . S
C924 H929 0.931 . S
C925 C924 1.351 . S
C925 N926 1.373 . S
C925 H953 0.930 . S
N926 C925 1.373 . S
N926 C928 1.340 . S
N927 C924 1.368 . S
N927 C928 1.321 . S
N927 Co930 2.135 . S
C928 N926 1.340 . S
C928 N927 1.321 . S
C928 H952 0.930 . S
H929 C924 0.931 . S
Co930 N927 2.135 . S
Co930 N933 2.121 . S
Co930 O938 2.055 . S
Co930 O941 2.039 . S
Co930 N944 2.140 . S
C931 O932 1.227 . S
C931 O941 1.265 . S
O932 C931 1.227 . S
N933 Co930 2.121 . S
N933 C935 1.375 . S
N933 C936 1.313 . S
C934 C935 1.338 . S
C934 N937 1.377 . S
C934 H954 0.930 . S
C935 N933 1.375 . S
C935 C934 1.338 . S
C935 H939 0.931 . S
C936 N933 1.313 . S
C936 N937 1.344 . S
C936 H940 0.930 . S
N937 C934 1.377 . S
N937 C936 1.344 . S
O938 Co930 2.055 . S
O938 C942 1.253 . S
H939 C935 0.931 . S
H940 C936 0.930 . S
O941 Co930 2.039 . S
O941 C931 1.265 . S
C942 O938 1.253 . S
C942 O943 1.227 . S
O943 C942 1.227 . S
N944 Co930 2.140 . S
N944 C947 1.346 . S
N944 C948 1.345 . S
C945 C946 1.387 . S
C945 C949 1.391 . S
C946 C945 1.387 . S
C946 C947 1.369 . S
C946 H955 0.929 . S
C947 N944 1.346 . S
C947 C946 1.369 . S
C947 H950 0.928 . S
C948 N944 1.345 . S
C948 C949 1.371 . S
C948 H951 0.931 . S
C949 C945 1.391 . S
C949 C948 1.371 . S
C949 H956 0.930 . S
H950 C947 0.928 . S
H951 C948 0.931 . S
H952 C928 0.930 . S
H953 C925 0.930 . S
H954 C934 0.930 . S
H955 C946 0.929 . S
H956 C949 0.930 . S
C957 C958 1.351 . S
C957 N960 1.368 . S
C957 H962 0.931 . S
C958 C957 1.351 . S
C958 N959 1.373 . S
C958 H986 0.930 . S
N959 C958 1.373 . S
N959 C961 1.340 . S
N960 C957 1.368 . S
N960 C961 1.321 . S
N960 Co963 2.135 . S
C961 N959 1.340 . S
C961 N960 1.321 . S
C961 H985 0.930 . S
H962 C957 0.931 . S
Co963 N960 2.135 . S
Co963 N966 2.121 . S
Co963 O971 2.055 . S
Co963 O974 2.039 . S
Co963 N977 2.140 . S
C964 O965 1.227 . S
C964 O974 1.265 . S
O965 C964 1.227 . S
N966 Co963 2.121 . S
N966 C968 1.375 . S
N966 C969 1.313 . S
C967 C968 1.338 . S
C967 N970 1.377 . S
C967 H987 0.930 . S
C968 N966 1.375 . S
C968 C967 1.338 . S
C968 H972 0.931 . S
C969 N966 1.313 . S
C969 N970 1.344 . S
C969 H973 0.930 . S
N970 C967 1.377 . S
N970 C969 1.344 . S
O971 Co963 2.055 . S
O971 C975 1.253 . S
H972 C968 0.931 . S
H973 C969 0.930 . S
O974 Co963 2.039 . S
O974 C964 1.265 . S
C975 O971 1.253 . S
C975 O976 1.227 . S
O976 C975 1.227 . S
N977 Co963 2.140 . S
N977 C980 1.346 . S
N977 C981 1.345 . S
C978 C979 1.387 . S
C978 C982 1.391 . S
C979 C978 1.387 . S
C979 C980 1.369 . S
C979 H988 0.929 . S
C980 N977 1.346 . S
C980 C979 1.369 . S
C980 H983 0.928 . S
C981 N977 1.345 . S
C981 C982 1.371 . S
C981 H984 0.931 . S
C982 C978 1.391 . S
C982 C981 1.371 . S
C982 H989 0.930 . S
H983 C980 0.928 . S
H984 C981 0.931 . S
H985 C961 0.930 . S
H986 C958 0.930 . S
H987 C967 0.930 . S
H988 C979 0.929 . S
H989 C982 0.930 . S
C990 C991 1.351 . S
C990 N993 1.368 . S
C990 H995 0.931 . S
C991 C990 1.351 . S
C991 N992 1.373 . S
C991 H1019 0.930 . S
N992 C991 1.373 . S
N992 C994 1.340 . S
N993 C990 1.368 . S
N993 C994 1.321 . S
N993 Co996 2.135 . S
C994 N992 1.340 . S
C994 N993 1.321 . S
C994 H1018 0.930 . S
H995 C990 0.931 . S
Co996 N993 2.135 . S
Co996 N999 2.121 . S
Co996 O1004 2.055 . S
Co996 O1007 2.039 . S
Co996 N1010 2.140 . S
C997 O998 1.227 . S
C997 O1007 1.265 . S
O998 C997 1.227 . S
N999 Co996 2.121 . S
N999 C1001 1.375 . S
N999 C1002 1.313 . S
C1000 C1001 1.338 . S
C1000 N1003 1.377 . S
C1000 H1020 0.930 . S
C1001 N999 1.375 . S
C1001 C1000 1.338 . S
C1001 H1005 0.931 . S
C1002 N999 1.313 . S
C1002 N1003 1.344 . S
C1002 H1006 0.930 . S
N1003 C1000 1.377 . S
N1003 C1002 1.344 . S
O1004 Co996 2.055 . S
O1004 C1008 1.253 . S
H1005 C1001 0.931 . S
H1006 C1002 0.930 . S
O1007 Co996 2.039 . S
O1007 C997 1.265 . S
C1008 O1004 1.253 . S
C1008 O1009 1.227 . S
O1009 C1008 1.227 . S
N1010 Co996 2.140 . S
N1010 C1013 1.346 . S
N1010 C1014 1.345 . S
C1011 C1012 1.387 . S
C1011 C1015 1.391 . S
C1012 C1011 1.387 . S
C1012 C1013 1.369 . S
C1012 H1021 0.929 . S
C1013 N1010 1.346 . S
C1013 C1012 1.369 . S
C1013 H1016 0.928 . S
C1014 N1010 1.345 . S
C1014 C1015 1.371 . S
C1014 H1017 0.931 . S
C1015 C1011 1.391 . S
C1015 C1014 1.371 . S
C1015 H1022 0.930 . S
H1016 C1013 0.928 . S
H1017 C1014 0.931 . S
H1018 C994 0.930 . S
H1019 C991 0.930 . S
H1020 C1000 0.930 . S
H1021 C1012 0.929 . S
H1022 C1015 0.930 . S
C1023 C1024 1.351 . S
C1023 N1026 1.368 . S
C1023 H1028 0.931 . S
C1024 C1023 1.351 . S
C1024 N1025 1.373 . S
C1024 H1052 0.930 . S
N1025 C1024 1.373 . S
N1025 C1027 1.340 . S
N1026 C1023 1.368 . S
N1026 C1027 1.321 . S
N1026 Co1029 2.135 . S
C1027 N1025 1.340 . S
C1027 N1026 1.321 . S
C1027 H1051 0.930 . S
H1028 C1023 0.931 . S
Co1029 N1026 2.135 . S
Co1029 N1032 2.121 . S
Co1029 O1037 2.055 . S
Co1029 O1040 2.039 . S
Co1029 N1043 2.140 . S
C1030 O1031 1.227 . S
C1030 O1040 1.265 . S
O1031 C1030 1.227 . S
N1032 Co1029 2.121 . S
N1032 C1034 1.375 . S
N1032 C1035 1.313 . S
C1033 C1034 1.338 . S
C1033 N1036 1.377 . S
C1033 H1053 0.930 . S
C1034 N1032 1.375 . S
C1034 C1033 1.338 . S
C1034 H1038 0.931 . S
C1035 N1032 1.313 . S
C1035 N1036 1.344 . S
C1035 H1039 0.930 . S
N1036 C1033 1.377 . S
N1036 C1035 1.344 . S
O1037 Co1029 2.055 . S
O1037 C1041 1.253 . S
H1038 C1034 0.931 . S
H1039 C1035 0.930 . S
O1040 Co1029 2.039 . S
O1040 C1030 1.265 . S
C1041 O1037 1.253 . S
C1041 O1042 1.227 . S
O1042 C1041 1.227 . S
N1043 Co1029 2.140 . S
N1043 C1046 1.346 . S
N1043 C1047 1.345 . S
C1044 C1045 1.387 . S
C1044 C1048 1.391 . S
C1045 C1044 1.387 . S
C1045 C1046 1.369 . S
C1045 H1054 0.929 . S
C1046 N1043 1.346 . S
C1046 C1045 1.369 . S
C1046 H1049 0.928 . S
C1047 N1043 1.345 . S
C1047 C1048 1.371 . S
C1047 H1050 0.931 . S
C1048 C1044 1.391 . S
C1048 C1047 1.371 . S
C1048 H1055 0.930 . S
H1049 C1046 0.928 . S
H1050 C1047 0.931 . S
H1051 C1027 0.930 . S
H1052 C1024 0.930 . S
H1053 C1033 0.930 . S
H1054 C1045 0.929 . S
H1055 C1048 0.930 . S
C1056 C1057 1.351 . S
C1056 N1059 1.368 . S
C1056 H1061 0.931 . S
C1057 C1056 1.351 . S
C1057 N1058 1.373 . S
C1057 H1085 0.930 . S
N1058 C1057 1.373 . S
N1058 C1060 1.340 . S
N1059 C1056 1.368 . S
N1059 C1060 1.321 . S
N1059 Co1062 2.135 . S
C1060 N1058 1.340 . S
C1060 N1059 1.321 . S
C1060 H1084 0.930 . S
H1061 C1056 0.931 . S
Co1062 N1059 2.135 . S
Co1062 N1065 2.121 . S
Co1062 O1070 2.055 . S
Co1062 O1073 2.039 . S
Co1062 N1076 2.140 . S
C1063 O1064 1.227 . S
C1063 O1073 1.265 . S
O1064 C1063 1.227 . S
N1065 Co1062 2.121 . S
N1065 C1067 1.375 . S
N1065 C1068 1.313 . S
C1066 C1067 1.338 . S
C1066 N1069 1.377 . S
C1066 H1086 0.930 . S
C1067 N1065 1.375 . S
C1067 C1066 1.338 . S
C1067 H1071 0.931 . S
C1068 N1065 1.313 . S
C1068 N1069 1.344 . S
C1068 H1072 0.930 . S
N1069 C1066 1.377 . S
N1069 C1068 1.344 . S
O1070 Co1062 2.055 . S
O1070 C1074 1.253 . S
H1071 C1067 0.931 . S
H1072 C1068 0.930 . S
O1073 Co1062 2.039 . S
O1073 C1063 1.265 . S
C1074 O1070 1.253 . S
C1074 O1075 1.227 . S
O1075 C1074 1.227 . S
N1076 Co1062 2.140 . S
N1076 C1079 1.346 . S
N1076 C1080 1.345 . S
C1077 C1078 1.387 . S
C1077 C1081 1.391 . S
C1078 C1077 1.387 . S
C1078 C1079 1.369 . S
C1078 H1087 0.929 . S
C1079 N1076 1.346 . S
C1079 C1078 1.369 . S
C1079 H1082 0.928 . S
C1080 N1076 1.345 . S
C1080 C1081 1.371 . S
C1080 H1083 0.931 . S
C1081 C1077 1.391 . S
C1081 C1080 1.371 . S
C1081 H1088 0.930 . S
H1082 C1079 0.928 . S
H1083 C1080 0.931 . S
H1084 C1060 0.930 . S
H1085 C1057 0.930 . S
H1086 C1066 0.930 . S
H1087 C1078 0.929 . S
H1088 C1081 0.930 . S
C1089 C1090 1.351 . S
C1089 N1092 1.368 . S
C1089 H1094 0.931 . S
C1090 C1089 1.351 . S
C1090 N1091 1.373 . S
C1090 H1118 0.930 . S
N1091 C1090 1.373 . S
N1091 C1093 1.340 . S
N1092 C1089 1.368 . S
N1092 C1093 1.321 . S
N1092 Co1095 2.135 . S
C1093 N1091 1.340 . S
C1093 N1092 1.321 . S
C1093 H1117 0.930 . S
H1094 C1089 0.931 . S
Co1095 N1092 2.135 . S
Co1095 N1098 2.121 . S
Co1095 O1103 2.055 . S
Co1095 O1106 2.039 . S
Co1095 N1109 2.140 . S
C1096 O1097 1.227 . S
C1096 O1106 1.265 . S
O1097 C1096 1.227 . S
N1098 Co1095 2.121 . S
N1098 C1100 1.375 . S
N1098 C1101 1.313 . S
C1099 C1100 1.338 . S
C1099 N1102 1.377 . S
C1099 H1119 0.930 . S
C1100 N1098 1.375 . S
C1100 C1099 1.338 . S
C1100 H1104 0.931 . S
C1101 N1098 1.313 . S
C1101 N1102 1.344 . S
C1101 H1105 0.930 . S
N1102 C1099 1.377 . S
N1102 C1101 1.344 . S
O1103 Co1095 2.055 . S
O1103 C1107 1.253 . S
H1104 C1100 0.931 . S
H1105 C1101 0.930 . S
O1106 Co1095 2.039 . S
O1106 C1096 1.265 . S
C1107 O1103 1.253 . S
C1107 O1108 1.227 . S
O1108 C1107 1.227 . S
N1109 Co1095 2.140 . S
N1109 C1112 1.346 . S
N1109 C1113 1.345 . S
C1110 C1111 1.387 . S
C1110 C1114 1.391 . S
C1111 C1110 1.387 . S
C1111 C1112 1.369 . S
C1111 H1120 0.929 . S
C1112 N1109 1.346 . S
C1112 C1111 1.369 . S
C1112 H1115 0.928 . S
C1113 N1109 1.345 . S
C1113 C1114 1.371 . S
C1113 H1116 0.931 . S
C1114 C1110 1.391 . S
C1114 C1113 1.371 . S
C1114 H1121 0.930 . S
H1115 C1112 0.928 . S
H1116 C1113 0.931 . S
H1117 C1093 0.930 . S
H1118 C1090 0.930 . S
H1119 C1099 0.930 . S
H1120 C1111 0.929 . S
H1121 C1114 0.930 . S
C1122 C1123 1.351 . S
C1122 N1125 1.368 . S
C1122 H1127 0.931 . S
C1123 C1122 1.351 . S
C1123 N1124 1.373 . S
C1123 H1151 0.930 . S
N1124 C1123 1.373 . S
N1124 C1126 1.340 . S
N1125 C1122 1.368 . S
N1125 C1126 1.321 . S
N1125 Co1128 2.135 . S
C1126 N1124 1.340 . S
C1126 N1125 1.321 . S
C1126 H1150 0.930 . S
H1127 C1122 0.931 . S
Co1128 N1125 2.135 . S
Co1128 N1131 2.121 . S
Co1128 O1136 2.055 . S
Co1128 O1139 2.039 . S
Co1128 N1142 2.140 . S
C1129 O1130 1.227 . S
C1129 O1139 1.265 . S
O1130 C1129 1.227 . S
N1131 Co1128 2.121 . S
N1131 C1133 1.375 . S
N1131 C1134 1.313 . S
C1132 C1133 1.338 . S
C1132 N1135 1.377 . S
C1132 H1152 0.930 . S
C1133 N1131 1.375 . S
C1133 C1132 1.338 . S
C1133 H1137 0.931 . S
C1134 N1131 1.313 . S
C1134 N1135 1.344 . S
C1134 H1138 0.930 . S
N1135 C1132 1.377 . S
N1135 C1134 1.344 . S
O1136 Co1128 2.055 . S
O1136 C1140 1.253 . S
H1137 C1133 0.931 . S
H1138 C1134 0.930 . S
O1139 Co1128 2.039 . S
O1139 C1129 1.265 . S
C1140 O1136 1.253 . S
C1140 O1141 1.227 . S
O1141 C1140 1.227 . S
N1142 Co1128 2.140 . S
N1142 C1145 1.346 . S
N1142 C1146 1.345 . S
C1143 C1144 1.387 . S
C1143 C1147 1.391 . S
C1144 C1143 1.387 . S
C1144 C1145 1.369 . S
C1144 H1153 0.929 . S
C1145 N1142 1.346 . S
C1145 C1144 1.369 . S
C1145 H1148 0.928 . S
C1146 N1142 1.345 . S
C1146 C1147 1.371 . S
C1146 H1149 0.931 . S
C1147 C1143 1.391 . S
C1147 C1146 1.371 . S
C1147 H1154 0.930 . S
H1148 C1145 0.928 . S
H1149 C1146 0.931 . S
H1150 C1126 0.930 . S
H1151 C1123 0.930 . S
H1152 C1132 0.930 . S
H1153 C1144 0.929 . S
H1154 C1147 0.930 . S
C1155 C1156 1.351 . S
C1155 N1158 1.368 . S
C1155 H1160 0.931 . S
C1156 C1155 1.351 . S
C1156 N1157 1.373 . S
C1156 H1184 0.930 . S
N1157 C1156 1.373 . S
N1157 C1159 1.340 . S
N1158 C1155 1.368 . S
N1158 C1159 1.321 . S
N1158 Co1161 2.135 . S
C1159 N1157 1.340 . S
C1159 N1158 1.321 . S
C1159 H1183 0.930 . S
H1160 C1155 0.931 . S
Co1161 N1158 2.135 . S
Co1161 N1164 2.121 . S
Co1161 O1169 2.055 . S
Co1161 O1172 2.039 . S
Co1161 N1175 2.140 . S
C1162 O1163 1.227 . S
C1162 O1172 1.265 . S
O1163 C1162 1.227 . S
N1164 Co1161 2.121 . S
N1164 C1166 1.375 . S
N1164 C1167 1.313 . S
C1165 C1166 1.338 . S
C1165 N1168 1.377 . S
C1165 H1185 0.930 . S
C1166 N1164 1.375 . S
C1166 C1165 1.338 . S
C1166 H1170 0.931 . S
C1167 N1164 1.313 . S
C1167 N1168 1.344 . S
C1167 H1171 0.930 . S
N1168 C1165 1.377 . S
N1168 C1167 1.344 . S
O1169 Co1161 2.055 . S
O1169 C1173 1.253 . S
H1170 C1166 0.931 . S
H1171 C1167 0.930 . S
O1172 Co1161 2.039 . S
O1172 C1162 1.265 . S
C1173 O1169 1.253 . S
C1173 O1174 1.227 . S
O1174 C1173 1.227 . S
N1175 Co1161 2.140 . S
N1175 C1178 1.346 . S
N1175 C1179 1.345 . S
C1176 C1177 1.387 . S
C1176 C1180 1.391 . S
C1177 C1176 1.387 . S
C1177 C1178 1.369 . S
C1177 H1186 0.929 . S
C1178 N1175 1.346 . S
C1178 C1177 1.369 . S
C1178 H1181 0.928 . S
C1179 N1175 1.345 . S
C1179 C1180 1.371 . S
C1179 H1182 0.931 . S
C1180 C1176 1.391 . S
C1180 C1179 1.371 . S
C1180 H1187 0.930 . S
H1181 C1178 0.928 . S
H1182 C1179 0.931 . S
H1183 C1159 0.930 . S
H1184 C1156 0.930 . S
H1185 C1165 0.930 . S
H1186 C1177 0.929 . S
H1187 C1180 0.930 . S
C1188 C1189 1.351 . S
C1188 N1191 1.368 . S
C1188 H1193 0.931 . S
C1189 C1188 1.351 . S
C1189 N1190 1.373 . S
C1189 H1217 0.930 . S
N1190 C1189 1.373 . S
N1190 C1192 1.340 . S
N1191 C1188 1.368 . S
N1191 C1192 1.321 . S
N1191 Co1194 2.135 . S
C1192 N1190 1.340 . S
C1192 N1191 1.321 . S
C1192 H1216 0.930 . S
H1193 C1188 0.931 . S
Co1194 N1191 2.135 . S
Co1194 N1197 2.121 . S
Co1194 O1202 2.055 . S
Co1194 O1205 2.039 . S
Co1194 N1208 2.140 . S
C1195 O1196 1.227 . S
C1195 O1205 1.265 . S
O1196 C1195 1.227 . S
N1197 Co1194 2.121 . S
N1197 C1199 1.375 . S
N1197 C1200 1.313 . S
C1198 C1199 1.338 . S
C1198 N1201 1.377 . S
C1198 H1218 0.930 . S
C1199 N1197 1.375 . S
C1199 C1198 1.338 . S
C1199 H1203 0.931 . S
C1200 N1197 1.313 . S
C1200 N1201 1.344 . S
C1200 H1204 0.930 . S
N1201 C1198 1.377 . S
N1201 C1200 1.344 . S
O1202 Co1194 2.055 . S
O1202 C1206 1.253 . S
H1203 C1199 0.931 . S
H1204 C1200 0.930 . S
O1205 Co1194 2.039 . S
O1205 C1195 1.265 . S
C1206 O1202 1.253 . S
C1206 O1207 1.227 . S
O1207 C1206 1.227 . S
N1208 Co1194 2.140 . S
N1208 C1211 1.346 . S
N1208 C1212 1.345 . S
C1209 C1210 1.387 . S
C1209 C1213 1.391 . S
C1210 C1209 1.387 . S
C1210 C1211 1.369 . S
C1210 H1219 0.929 . S
C1211 N1208 1.346 . S
C1211 C1210 1.369 . S
C1211 H1214 0.928 . S
C1212 N1208 1.345 . S
C1212 C1213 1.371 . S
C1212 H1215 0.931 . S
C1213 C1209 1.391 . S
C1213 C1212 1.371 . S
C1213 H1220 0.930 . S
H1214 C1211 0.928 . S
H1215 C1212 0.931 . S
H1216 C1192 0.930 . S
H1217 C1189 0.930 . S
H1218 C1198 0.930 . S
H1219 C1210 0.929 . S
H1220 C1213 0.930 . S
C1221 C1222 1.351 . S
C1221 N1224 1.368 . S
C1221 H1226 0.931 . S
C1222 C1221 1.351 . S
C1222 N1223 1.373 . S
C1222 H1250 0.930 . S
N1223 C1222 1.373 . S
N1223 C1225 1.340 . S
N1224 C1221 1.368 . S
N1224 C1225 1.321 . S
N1224 Co1227 2.135 . S
C1225 N1223 1.340 . S
C1225 N1224 1.321 . S
C1225 H1249 0.930 . S
H1226 C1221 0.931 . S
Co1227 N1224 2.135 . S
Co1227 N1230 2.121 . S
Co1227 O1235 2.055 . S
Co1227 O1238 2.039 . S
Co1227 N1241 2.140 . S
C1228 O1229 1.227 . S
C1228 O1238 1.265 . S
O1229 C1228 1.227 . S
N1230 Co1227 2.121 . S
N1230 C1232 1.375 . S
N1230 C1233 1.313 . S
C1231 C1232 1.338 . S
C1231 N1234 1.377 . S
C1231 H1251 0.930 . S
C1232 N1230 1.375 . S
C1232 C1231 1.338 . S
C1232 H1236 0.931 . S
C1233 N1230 1.313 . S
C1233 N1234 1.344 . S
C1233 H1237 0.930 . S
N1234 C1231 1.377 . S
N1234 C1233 1.344 . S
O1235 Co1227 2.055 . S
O1235 C1239 1.253 . S
H1236 C1232 0.931 . S
H1237 C1233 0.930 . S
O1238 Co1227 2.039 . S
O1238 C1228 1.265 . S
C1239 O1235 1.253 . S
C1239 O1240 1.227 . S
O1240 C1239 1.227 . S
N1241 Co1227 2.140 . S
N1241 C1244 1.346 . S
N1241 C1245 1.345 . S
C1242 C1243 1.387 . S
C1242 C1246 1.391 . S
C1243 C1242 1.387 . S
C1243 C1244 1.369 . S
C1243 H1252 0.929 . S
C1244 N1241 1.346 . S
C1244 C1243 1.369 . S
C1244 H1247 0.928 . S
C1245 N1241 1.345 . S
C1245 C1246 1.371 . S
C1245 H1248 0.931 . S
C1246 C1242 1.391 . S
C1246 C1245 1.371 . S
C1246 H1253 0.930 . S
H1247 C1244 0.928 . S
H1248 C1245 0.931 . S
H1249 C1225 0.930 . S
H1250 C1222 0.930 . S
H1251 C1231 0.930 . S
H1252 C1243 0.929 . S
H1253 C1246 0.930 . S
C1254 C1255 1.351 . S
C1254 N1257 1.368 . S
C1254 H1259 0.931 . S
C1255 C1254 1.351 . S
C1255 N1256 1.373 . S
C1255 H1283 0.930 . S
N1256 C1255 1.373 . S
N1256 C1258 1.340 . S
N1257 C1254 1.368 . S
N1257 C1258 1.321 . S
N1257 Co1260 2.135 . S
C1258 N1256 1.340 . S
C1258 N1257 1.321 . S
C1258 H1282 0.930 . S
H1259 C1254 0.931 . S
Co1260 N1257 2.135 . S
Co1260 N1263 2.121 . S
Co1260 O1268 2.055 . S
Co1260 O1271 2.039 . S
Co1260 N1274 2.140 . S
C1261 O1262 1.227 . S
C1261 O1271 1.265 . S
O1262 C1261 1.227 . S
N1263 Co1260 2.121 . S
N1263 C1265 1.375 . S
N1263 C1266 1.313 . S
C1264 C1265 1.338 . S
C1264 N1267 1.377 . S
C1264 H1284 0.930 . S
C1265 N1263 1.375 . S
C1265 C1264 1.338 . S
C1265 H1269 0.931 . S
C1266 N1263 1.313 . S
C1266 N1267 1.344 . S
C1266 H1270 0.930 . S
N1267 C1264 1.377 . S
N1267 C1266 1.344 . S
O1268 Co1260 2.055 . S
O1268 C1272 1.253 . S
H1269 C1265 0.931 . S
H1270 C1266 0.930 . S
O1271 Co1260 2.039 . S
O1271 C1261 1.265 . S
C1272 O1268 1.253 . S
C1272 O1273 1.227 . S
O1273 C1272 1.227 . S
N1274 Co1260 2.140 . S
N1274 C1277 1.346 . S
N1274 C1278 1.345 . S
C1275 C1276 1.387 . S
C1275 C1279 1.391 . S
C1276 C1275 1.387 . S
C1276 C1277 1.369 . S
C1276 H1285 0.929 . S
C1277 N1274 1.346 . S
C1277 C1276 1.369 . S
C1277 H1280 0.928 . S
C1278 N1274 1.345 . S
C1278 C1279 1.371 . S
C1278 H1281 0.931 . S
C1279 C1275 1.391 . S
C1279 C1278 1.371 . S
C1279 H1286 0.930 . S
H1280 C1277 0.928 . S
H1281 C1278 0.931 . S
H1282 C1258 0.930 . S
H1283 C1255 0.930 . S
H1284 C1264 0.930 . S
H1285 C1276 0.929 . S
H1286 C1279 0.930 . S
C1287 C1288 1.351 . S
C1287 N1290 1.368 . S
C1287 H1292 0.931 . S
C1288 C1287 1.351 . S
C1288 N1289 1.373 . S
C1288 H1316 0.930 . S
N1289 C1288 1.373 . S
N1289 C1291 1.340 . S
N1290 C1287 1.368 . S
N1290 C1291 1.321 . S
N1290 Co1293 2.135 . S
C1291 N1289 1.340 . S
C1291 N1290 1.321 . S
C1291 H1315 0.930 . S
H1292 C1287 0.931 . S
Co1293 N1290 2.135 . S
Co1293 N1296 2.121 . S
Co1293 O1301 2.055 . S
Co1293 O1304 2.039 . S
Co1293 N1307 2.140 . S
C1294 O1295 1.227 . S
C1294 O1304 1.265 . S
O1295 C1294 1.227 . S
N1296 Co1293 2.121 . S
N1296 C1298 1.375 . S
N1296 C1299 1.313 . S
C1297 C1298 1.338 . S
C1297 N1300 1.377 . S
C1297 H1317 0.930 . S
C1298 N1296 1.375 . S
C1298 C1297 1.338 . S
C1298 H1302 0.931 . S
C1299 N1296 1.313 . S
C1299 N1300 1.344 . S
C1299 H1303 0.930 . S
N1300 C1297 1.377 . S
N1300 C1299 1.344 . S
O1301 Co1293 2.055 . S
O1301 C1305 1.253 . S
H1302 C1298 0.931 . S
H1303 C1299 0.930 . S
O1304 Co1293 2.039 . S
O1304 C1294 1.265 . S
C1305 O1301 1.253 . S
C1305 O1306 1.227 . S
O1306 C1305 1.227 . S
N1307 Co1293 2.140 . S
N1307 C1310 1.346 . S
N1307 C1311 1.345 . S
C1308 C1309 1.387 . S
C1308 C1312 1.391 . S
C1309 C1308 1.387 . S
C1309 C1310 1.369 . S
C1309 H1318 0.929 . S
C1310 N1307 1.346 . S
C1310 C1309 1.369 . S
C1310 H1313 0.928 . S
C1311 N1307 1.345 . S
C1311 C1312 1.371 . S
C1311 H1314 0.931 . S
C1312 C1308 1.391 . S
C1312 C1311 1.371 . S
C1312 H1319 0.930 . S
H1313 C1310 0.928 . S
H1314 C1311 0.931 . S
H1315 C1291 0.930 . S
H1316 C1288 0.930 . S
H1317 C1297 0.930 . S
H1318 C1309 0.929 . S
H1319 C1312 0.930 . S
C1320 C1321 1.351 . S
C1320 N1323 1.368 . S
C1320 H1325 0.931 . S
C1321 C1320 1.351 . S
C1321 N1322 1.373 . S
C1321 H1349 0.930 . S
N1322 C1321 1.373 . S
N1322 C1324 1.340 . S
N1323 C1320 1.368 . S
N1323 C1324 1.321 . S
N1323 Co1326 2.135 . S
C1324 N1322 1.340 . S
C1324 N1323 1.321 . S
C1324 H1348 0.930 . S
H1325 C1320 0.931 . S
Co1326 N1323 2.135 . S
Co1326 N1329 2.121 . S
Co1326 O1334 2.055 . S
Co1326 O1337 2.039 . S
Co1326 N1340 2.140 . S
C1327 O1328 1.227 . S
C1327 O1337 1.265 . S
O1328 C1327 1.227 . S
N1329 Co1326 2.121 . S
N1329 C1331 1.375 . S
N1329 C1332 1.313 . S
C1330 C1331 1.338 . S
C1330 N1333 1.377 . S
C1330 H1350 0.930 . S
C1331 N1329 1.375 . S
C1331 C1330 1.338 . S
C1331 H1335 0.931 . S
C1332 N1329 1.313 . S
C1332 N1333 1.344 . S
C1332 H1336 0.930 . S
N1333 C1330 1.377 . S
N1333 C1332 1.344 . S
O1334 Co1326 2.055 . S
O1334 C1338 1.253 . S
H1335 C1331 0.931 . S
H1336 C1332 0.930 . S
O1337 Co1326 2.039 . S
O1337 C1327 1.265 . S
C1338 O1334 1.253 . S
C1338 O1339 1.227 . S
O1339 C1338 1.227 . S
N1340 Co1326 2.140 . S
N1340 C1343 1.346 . S
N1340 C1344 1.345 . S
C1341 C1342 1.387 . S
C1341 C1345 1.391 . S
C1342 C1341 1.387 . S
C1342 C1343 1.369 . S
C1342 H1351 0.929 . S
C1343 N1340 1.346 . S
C1343 C1342 1.369 . S
C1343 H1346 0.928 . S
C1344 N1340 1.345 . S
C1344 C1345 1.371 . S
C1344 H1347 0.931 . S
C1345 C1341 1.391 . S
C1345 C1344 1.371 . S
C1345 H1352 0.930 . S
H1346 C1343 0.928 . S
H1347 C1344 0.931 . S
H1348 C1324 0.930 . S
H1349 C1321 0.930 . S
H1350 C1330 0.930 . S
H1351 C1342 0.929 . S
H1352 C1345 0.930 . S
C1353 C1354 1.351 . S
C1353 N1356 1.368 . S
C1353 H1358 0.931 . S
C1354 C1353 1.351 . S
C1354 N1355 1.373 . S
C1354 H1382 0.930 . S
N1355 C1354 1.373 . S
N1355 C1357 1.340 . S
N1356 C1353 1.368 . S
N1356 C1357 1.321 . S
N1356 Co1359 2.135 . S
C1357 N1355 1.340 . S
C1357 N1356 1.321 . S
C1357 H1381 0.930 . S
H1358 C1353 0.931 . S
Co1359 N1356 2.135 . S
Co1359 N1362 2.121 . S
Co1359 O1367 2.055 . S
Co1359 O1370 2.039 . S
Co1359 N1373 2.140 . S
C1360 O1361 1.227 . S
C1360 O1370 1.265 . S
O1361 C1360 1.227 . S
N1362 Co1359 2.121 . S
N1362 C1364 1.375 . S
N1362 C1365 1.313 . S
C1363 C1364 1.338 . S
C1363 N1366 1.377 . S
C1363 H1383 0.930 . S
C1364 N1362 1.375 . S
C1364 C1363 1.338 . S
C1364 H1368 0.931 . S
C1365 N1362 1.313 . S
C1365 N1366 1.344 . S
C1365 H1369 0.930 . S
N1366 C1363 1.377 . S
N1366 C1365 1.344 . S
O1367 Co1359 2.055 . S
O1367 C1371 1.253 . S
H1368 C1364 0.931 . S
H1369 C1365 0.930 . S
O1370 Co1359 2.039 . S
O1370 C1360 1.265 . S
C1371 O1367 1.253 . S
C1371 O1372 1.227 . S
O1372 C1371 1.227 . S
N1373 Co1359 2.140 . S
N1373 C1376 1.346 . S
N1373 C1377 1.345 . S
C1374 C1375 1.387 . S
C1374 C1378 1.391 . S
C1375 C1374 1.387 . S
C1375 C1376 1.369 . S
C1375 H1384 0.929 . S
C1376 N1373 1.346 . S
C1376 C1375 1.369 . S
C1376 H1379 0.928 . S
C1377 N1373 1.345 . S
C1377 C1378 1.371 . S
C1377 H1380 0.931 . S
C1378 C1374 1.391 . S
C1378 C1377 1.371 . S
C1378 H1385 0.930 . S
H1379 C1376 0.928 . S
H1380 C1377 0.931 . S
H1381 C1357 0.930 . S
H1382 C1354 0.930 . S
H1383 C1363 0.930 . S
H1384 C1375 0.929 . S
H1385 C1378 0.930 . S
C1386 C1387 1.351 . S
C1386 N1389 1.368 . S
C1386 H1391 0.931 . S
C1387 C1386 1.351 . S
C1387 N1388 1.373 . S
C1387 H1415 0.930 . S
N1388 C1387 1.373 . S
N1388 C1390 1.340 . S
N1389 C1386 1.368 . S
N1389 C1390 1.321 . S
N1389 Co1392 2.135 . S
C1390 N1388 1.340 . S
C1390 N1389 1.321 . S
C1390 H1414 0.930 . S
H1391 C1386 0.931 . S
Co1392 N1389 2.135 . S
Co1392 N1395 2.121 . S
Co1392 O1400 2.055 . S
Co1392 O1403 2.039 . S
Co1392 N1406 2.140 . S
C1393 O1394 1.227 . S
C1393 O1403 1.265 . S
O1394 C1393 1.227 . S
N1395 Co1392 2.121 . S
N1395 C1397 1.375 . S
N1395 C1398 1.313 . S
C1396 C1397 1.338 . S
C1396 N1399 1.377 . S
C1396 H1416 0.930 . S
C1397 N1395 1.375 . S
C1397 C1396 1.338 . S
C1397 H1401 0.931 . S
C1398 N1395 1.313 . S
C1398 N1399 1.344 . S
C1398 H1402 0.930 . S
N1399 C1396 1.377 . S
N1399 C1398 1.344 . S
O1400 Co1392 2.055 . S
O1400 C1404 1.253 . S
H1401 C1397 0.931 . S
H1402 C1398 0.930 . S
O1403 Co1392 2.039 . S
O1403 C1393 1.265 . S
C1404 O1400 1.253 . S
C1404 O1405 1.227 . S
O1405 C1404 1.227 . S
N1406 Co1392 2.140 . S
N1406 C1409 1.346 . S
N1406 C1410 1.345 . S
C1407 C1408 1.387 . S
C1407 C1411 1.391 . S
C1408 C1407 1.387 . S
C1408 C1409 1.369 . S
C1408 H1417 0.929 . S
C1409 N1406 1.346 . S
C1409 C1408 1.369 . S
C1409 H1412 0.928 . S
C1410 N1406 1.345 . S
C1410 C1411 1.371 . S
C1410 H1413 0.931 . S
C1411 C1407 1.391 . S
C1411 C1410 1.371 . S
C1411 H1418 0.930 . S
H1412 C1409 0.928 . S
H1413 C1410 0.931 . S
H1414 C1390 0.930 . S
H1415 C1387 0.930 . S
H1416 C1396 0.930 . S
H1417 C1408 0.929 . S
H1418 C1411 0.930 . S
C1419 C1420 1.351 . S
C1419 N1422 1.368 . S
C1419 H1424 0.931 . S
C1420 C1419 1.351 . S
C1420 N1421 1.373 . S
C1420 H1448 0.930 . S
N1421 C1420 1.373 . S
N1421 C1423 1.340 . S
N1422 C1419 1.368 . S
N1422 C1423 1.321 . S
N1422 Co1425 2.135 . S
C1423 N1421 1.340 . S
C1423 N1422 1.321 . S
C1423 H1447 0.930 . S
H1424 C1419 0.931 . S
Co1425 N1422 2.135 . S
Co1425 N1428 2.121 . S
Co1425 O1433 2.055 . S
Co1425 O1436 2.039 . S
Co1425 N1439 2.140 . S
C1426 O1427 1.227 . S
C1426 O1436 1.265 . S
O1427 C1426 1.227 . S
N1428 Co1425 2.121 . S
N1428 C1430 1.375 . S
N1428 C1431 1.313 . S
C1429 C1430 1.338 . S
C1429 N1432 1.377 . S
C1429 H1449 0.930 . S
C1430 N1428 1.375 . S
C1430 C1429 1.338 . S
C1430 H1434 0.931 . S
C1431 N1428 1.313 . S
C1431 N1432 1.344 . S
C1431 H1435 0.930 . S
N1432 C1429 1.377 . S
N1432 C1431 1.344 . S
O1433 Co1425 2.055 . S
O1433 C1437 1.253 . S
H1434 C1430 0.931 . S
H1435 C1431 0.930 . S
O1436 Co1425 2.039 . S
O1436 C1426 1.265 . S
C1437 O1433 1.253 . S
C1437 O1438 1.227 . S
O1438 C1437 1.227 . S
N1439 Co1425 2.140 . S
N1439 C1442 1.346 . S
N1439 C1443 1.345 . S
C1440 C1441 1.387 . S
C1440 C1444 1.391 . S
C1441 C1440 1.387 . S
C1441 C1442 1.369 . S
C1441 H1450 0.929 . S
C1442 N1439 1.346 . S
C1442 C1441 1.369 . S
C1442 H1445 0.928 . S
C1443 N1439 1.345 . S
C1443 C1444 1.371 . S
C1443 H1446 0.931 . S
C1444 C1440 1.391 . S
C1444 C1443 1.371 . S
C1444 H1451 0.930 . S
H1445 C1442 0.928 . S
H1446 C1443 0.931 . S
H1447 C1423 0.930 . S
H1448 C1420 0.930 . S
H1449 C1429 0.930 . S
H1450 C1441 0.929 . S
H1451 C1444 0.930 . S
C1452 C1453 1.351 . S
C1452 N1455 1.368 . S
C1452 H1457 0.931 . S
C1453 C1452 1.351 . S
C1453 N1454 1.373 . S
C1453 H1481 0.930 . S
N1454 C1453 1.373 . S
N1454 C1456 1.340 . S
N1455 C1452 1.368 . S
N1455 C1456 1.321 . S
N1455 Co1458 2.135 . S
C1456 N1454 1.340 . S
C1456 N1455 1.321 . S
C1456 H1480 0.930 . S
H1457 C1452 0.931 . S
Co1458 N1455 2.135 . S
Co1458 N1461 2.121 . S
Co1458 O1466 2.055 . S
Co1458 O1469 2.039 . S
Co1458 N1472 2.140 . S
C1459 O1460 1.227 . S
C1459 O1469 1.265 . S
O1460 C1459 1.227 . S
N1461 Co1458 2.121 . S
N1461 C1463 1.375 . S
N1461 C1464 1.313 . S
C1462 C1463 1.338 . S
C1462 N1465 1.377 . S
C1462 H1482 0.930 . S
C1463 N1461 1.375 . S
C1463 C1462 1.338 . S
C1463 H1467 0.931 . S
C1464 N1461 1.313 . S
C1464 N1465 1.344 . S
C1464 H1468 0.930 . S
N1465 C1462 1.377 . S
N1465 C1464 1.344 . S
O1466 Co1458 2.055 . S
O1466 C1470 1.253 . S
H1467 C1463 0.931 . S
H1468 C1464 0.930 . S
O1469 Co1458 2.039 . S
O1469 C1459 1.265 . S
C1470 O1466 1.253 . S
C1470 O1471 1.227 . S
O1471 C1470 1.227 . S
N1472 Co1458 2.140 . S
N1472 C1475 1.346 . S
N1472 C1476 1.345 . S
C1473 C1474 1.387 . S
C1473 C1477 1.391 . S
C1474 C1473 1.387 . S
C1474 C1475 1.369 . S
C1474 H1483 0.929 . S
C1475 N1472 1.346 . S
C1475 C1474 1.369 . S
C1475 H1478 0.928 . S
C1476 N1472 1.345 . S
C1476 C1477 1.371 . S
C1476 H1479 0.931 . S
C1477 C1473 1.391 . S
C1477 C1476 1.371 . S
C1477 H1484 0.930 . S
H1478 C1475 0.928 . S
H1479 C1476 0.931 . S
H1480 C1456 0.930 . S
H1481 C1453 0.930 . S
H1482 C1462 0.930 . S
H1483 C1474 0.929 . S
H1484 C1477 0.930 . S
C1485 C1486 1.351 . S
C1485 N1488 1.368 . S
C1485 H1490 0.931 . S
C1486 C1485 1.351 . S
C1486 N1487 1.373 . S
C1486 H1514 0.930 . S
N1487 C1486 1.373 . S
N1487 C1489 1.340 . S
N1488 C1485 1.368 . S
N1488 C1489 1.321 . S
N1488 Co1491 2.135 . S
C1489 N1487 1.340 . S
C1489 N1488 1.321 . S
C1489 H1513 0.930 . S
H1490 C1485 0.931 . S
Co1491 N1488 2.135 . S
Co1491 N1494 2.121 . S
Co1491 O1499 2.055 . S
Co1491 O1502 2.039 . S
Co1491 N1505 2.140 . S
C1492 O1493 1.227 . S
C1492 O1502 1.265 . S
O1493 C1492 1.227 . S
N1494 Co1491 2.121 . S
N1494 C1496 1.375 . S
N1494 C1497 1.313 . S
C1495 C1496 1.338 . S
C1495 N1498 1.377 . S
C1495 H1515 0.930 . S
C1496 N1494 1.375 . S
C1496 C1495 1.338 . S
C1496 H1500 0.931 . S
C1497 N1494 1.313 . S
C1497 N1498 1.344 . S
C1497 H1501 0.930 . S
N1498 C1495 1.377 . S
N1498 C1497 1.344 . S
O1499 Co1491 2.055 . S
O1499 C1503 1.253 . S
H1500 C1496 0.931 . S
H1501 C1497 0.930 . S
O1502 Co1491 2.039 . S
O1502 C1492 1.265 . S
C1503 O1499 1.253 . S
C1503 O1504 1.227 . S
O1504 C1503 1.227 . S
N1505 Co1491 2.140 . S
N1505 C1508 1.346 . S
N1505 C1509 1.345 . S
C1506 C1507 1.387 . S
C1506 C1510 1.391 . S
C1507 C1506 1.387 . S
C1507 C1508 1.369 . S
C1507 H1516 0.929 . S
C1508 N1505 1.346 . S
C1508 C1507 1.369 . S
C1508 H1511 0.928 . S
C1509 N1505 1.345 . S
C1509 C1510 1.371 . S
C1509 H1512 0.931 . S
C1510 C1506 1.391 . S
C1510 C1509 1.371 . S
C1510 H1517 0.930 . S
H1511 C1508 0.928 . S
H1512 C1509 0.931 . S
H1513 C1489 0.930 . S
H1514 C1486 0.930 . S
H1515 C1495 0.930 . S
H1516 C1507 0.929 . S
H1517 C1510 0.930 . S
C1518 C1519 1.351 . S
C1518 N1521 1.368 . S
C1518 H1523 0.931 . S
C1519 C1518 1.351 . S
C1519 N1520 1.373 . S
C1519 H1547 0.930 . S
N1520 C1519 1.373 . S
N1520 C1522 1.340 . S
N1521 C1518 1.368 . S
N1521 C1522 1.321 . S
N1521 Co1524 2.135 . S
C1522 N1520 1.340 . S
C1522 N1521 1.321 . S
C1522 H1546 0.930 . S
H1523 C1518 0.931 . S
Co1524 N1521 2.135 . S
Co1524 N1527 2.121 . S
Co1524 O1532 2.055 . S
Co1524 O1535 2.039 . S
Co1524 N1538 2.140 . S
C1525 O1526 1.227 . S
C1525 O1535 1.265 . S
O1526 C1525 1.227 . S
N1527 Co1524 2.121 . S
N1527 C1529 1.375 . S
N1527 C1530 1.313 . S
C1528 C1529 1.338 . S
C1528 N1531 1.377 . S
C1528 H1548 0.930 . S
C1529 N1527 1.375 . S
C1529 C1528 1.338 . S
C1529 H1533 0.931 . S
C1530 N1527 1.313 . S
C1530 N1531 1.344 . S
C1530 H1534 0.930 . S
N1531 C1528 1.377 . S
N1531 C1530 1.344 . S
O1532 Co1524 2.055 . S
O1532 C1536 1.253 . S
H1533 C1529 0.931 . S
H1534 C1530 0.930 . S
O1535 Co1524 2.039 . S
O1535 C1525 1.265 . S
C1536 O1532 1.253 . S
C1536 O1537 1.227 . S
O1537 C1536 1.227 . S
N1538 Co1524 2.140 . S
N1538 C1541 1.346 . S
N1538 C1542 1.345 . S
C1539 C1540 1.387 . S
C1539 C1543 1.391 . S
C1540 C1539 1.387 . S
C1540 C1541 1.369 . S
C1540 H1549 0.929 . S
C1541 N1538 1.346 . S
C1541 C1540 1.369 . S
C1541 H1544 0.928 . S
C1542 N1538 1.345 . S
C1542 C1543 1.371 . S
C1542 H1545 0.931 . S
C1543 C1539 1.391 . S
C1543 C1542 1.371 . S
C1543 H1550 0.930 . S
H1544 C1541 0.928 . S
H1545 C1542 0.931 . S
H1546 C1522 0.930 . S
H1547 C1519 0.930 . S
H1548 C1528 0.930 . S
H1549 C1540 0.929 . S
H1550 C1543 0.930 . S
C1551 C1552 1.351 . S
C1551 N1554 1.368 . S
C1551 H1556 0.931 . S
C1552 C1551 1.351 . S
C1552 N1553 1.373 . S
C1552 H1580 0.930 . S
N1553 C1552 1.373 . S
N1553 C1555 1.340 . S
N1554 C1551 1.368 . S
N1554 C1555 1.321 . S
N1554 Co1557 2.135 . S
C1555 N1553 1.340 . S
C1555 N1554 1.321 . S
C1555 H1579 0.930 . S
H1556 C1551 0.931 . S
Co1557 N1554 2.135 . S
Co1557 N1560 2.121 . S
Co1557 O1565 2.055 . S
Co1557 O1568 2.039 . S
Co1557 N1571 2.140 . S
C1558 O1559 1.227 . S
C1558 O1568 1.265 . S
O1559 C1558 1.227 . S
N1560 Co1557 2.121 . S
N1560 C1562 1.375 . S
N1560 C1563 1.313 . S
C1561 C1562 1.338 . S
C1561 N1564 1.377 . S
C1561 H1581 0.930 . S
C1562 N1560 1.375 . S
C1562 C1561 1.338 . S
C1562 H1566 0.931 . S
C1563 N1560 1.313 . S
C1563 N1564 1.344 . S
C1563 H1567 0.930 . S
N1564 C1561 1.377 . S
N1564 C1563 1.344 . S
O1565 Co1557 2.055 . S
O1565 C1569 1.253 . S
H1566 C1562 0.931 . S
H1567 C1563 0.930 . S
O1568 Co1557 2.039 . S
O1568 C1558 1.265 . S
C1569 O1565 1.253 . S
C1569 O1570 1.227 . S
O1570 C1569 1.227 . S
N1571 Co1557 2.140 . S
N1571 C1574 1.346 . S
N1571 C1575 1.345 . S
C1572 C1573 1.387 . S
C1572 C1576 1.391 . S
C1573 C1572 1.387 . S
C1573 C1574 1.369 . S
C1573 H1582 0.929 . S
C1574 N1571 1.346 . S
C1574 C1573 1.369 . S
C1574 H1577 0.928 . S
C1575 N1571 1.345 . S
C1575 C1576 1.371 . S
C1575 H1578 0.931 . S
C1576 C1572 1.391 . S
C1576 C1575 1.371 . S
C1576 H1583 0.930 . S
H1577 C1574 0.928 . S
H1578 C1575 0.931 . S
H1579 C1555 0.930 . S
H1580 C1552 0.930 . S
H1581 C1561 0.930 . S
H1582 C1573 0.929 . S
H1583 C1576 0.930 . S
C1584 C1585 1.369 . S
C1584 C1586 1.419 . S
C1584 H1588 0.930 . S
C1585 C1584 1.369 . S
C1585 C1594 1.429 . S
C1586 C1584 1.419 . S
C1586 C1587 1.363 . S
C1586 H1589 0.929 . S
C1587 C1586 1.363 . S
C1587 C1593 1.428 . S
H1588 C1584 0.930 . S
H1589 C1586 0.929 . S
S1590 N1591 1.613 . S
S1590 N1592 1.610 . S
N1591 S1590 1.613 . S
N1591 C1594 1.350 . S
N1592 S1590 1.610 . S
N1592 C1593 1.351 . S
C1593 C1587 1.428 . S
C1593 N1592 1.351 . S
C1593 C1594 1.434 . S
C1594 C1585 1.429 . S
C1594 N1591 1.350 . S
C1594 C1593 1.434 . S
C1595 C1596 1.369 . S
C1595 C1597 1.419 . S
C1595 H1599 0.930 . S
C1596 C1595 1.369 . S
C1596 C1605 1.429 . S
C1597 C1595 1.419 . S
C1597 C1598 1.363 . S
C1597 H1600 0.929 . S
C1598 C1597 1.363 . S
C1598 C1604 1.428 . S
H1599 C1595 0.930 . S
H1600 C1597 0.929 . S
S1601 N1602 1.613 . S
S1601 N1603 1.610 . S
N1602 S1601 1.613 . S
N1602 C1605 1.350 . S
N1603 S1601 1.610 . S
N1603 C1604 1.351 . S
C1604 C1598 1.428 . S
C1604 N1603 1.351 . S
C1604 C1605 1.434 . S
C1605 C1596 1.429 . S
C1605 N1602 1.350 . S
C1605 C1604 1.434 . S
C1606 C1607 1.369 . S
C1606 C1608 1.419 . S
C1606 H1610 0.930 . S
C1607 C1606 1.369 . S
C1607 C1616 1.429 . S
C1608 C1606 1.419 . S
C1608 C1609 1.363 . S
C1608 H1611 0.929 . S
C1609 C1608 1.363 . S
C1609 C1615 1.428 . S
H1610 C1606 0.930 . S
H1611 C1608 0.929 . S
S1612 N1613 1.613 . S
S1612 N1614 1.610 . S
N1613 S1612 1.613 . S
N1613 C1616 1.350 . S
N1614 S1612 1.610 . S
N1614 C1615 1.351 . S
C1615 C1609 1.428 . S
C1615 N1614 1.351 . S
C1615 C1616 1.434 . S
C1616 C1607 1.429 . S
C1616 N1613 1.350 . S
C1616 C1615 1.434 . S
C1617 C1618 1.369 . S
C1617 C1619 1.419 . S
C1617 H1621 0.930 . S
C1618 C1617 1.369 . S
C1618 C1627 1.429 . S
C1619 C1617 1.419 . S
C1619 C1620 1.363 . S
C1619 H1622 0.929 . S
C1620 C1619 1.363 . S
C1620 C1626 1.428 . S
H1621 C1617 0.930 . S
H1622 C1619 0.929 . S
S1623 N1624 1.613 . S
S1623 N1625 1.610 . S
N1624 S1623 1.613 . S
N1624 C1627 1.350 . S
N1625 S1623 1.610 . S
N1625 C1626 1.351 . S
C1626 C1620 1.428 . S
C1626 N1625 1.351 . S
C1626 C1627 1.434 . S
C1627 C1618 1.429 . S
C1627 N1624 1.350 . S
C1627 C1626 1.434 . S
C1628 C1629 1.369 . S
C1628 C1630 1.419 . S
C1628 H1632 0.930 . S
C1629 C1628 1.369 . S
C1629 C1638 1.429 . S
C1630 C1628 1.419 . S
C1630 C1631 1.363 . S
C1630 H1633 0.929 . S
C1631 C1630 1.363 . S
C1631 C1637 1.428 . S
H1632 C1628 0.930 . S
H1633 C1630 0.929 . S
S1634 N1635 1.613 . S
S1634 N1636 1.610 . S
N1635 S1634 1.613 . S
N1635 C1638 1.350 . S
N1636 S1634 1.610 . S
N1636 C1637 1.351 . S
C1637 C1631 1.428 . S
C1637 N1636 1.351 . S
C1637 C1638 1.434 . S
C1638 C1629 1.429 . S
C1638 N1635 1.350 . S
C1638 C1637 1.434 . S
C1639 C1640 1.369 . S
C1639 C1641 1.419 . S
C1639 H1643 0.930 . S
C1640 C1639 1.369 . S
C1640 C1649 1.429 . S
C1641 C1639 1.419 . S
C1641 C1642 1.363 . S
C1641 H1644 0.929 . S
C1642 C1641 1.363 . S
C1642 C1648 1.428 . S
H1643 C1639 0.930 . S
H1644 C1641 0.929 . S
S1645 N1646 1.613 . S
S1645 N1647 1.610 . S
N1646 S1645 1.613 . S
N1646 C1649 1.350 . S
N1647 S1645 1.610 . S
N1647 C1648 1.351 . S
C1648 C1642 1.428 . S
C1648 N1647 1.351 . S
C1648 C1649 1.434 . S
C1649 C1640 1.429 . S
C1649 N1646 1.350 . S
C1649 C1648 1.434 . S
C1650 C1651 1.369 . S
C1650 C1652 1.419 . S
C1650 H1654 0.930 . S
C1651 C1650 1.369 . S
C1651 C1660 1.429 . S
C1652 C1650 1.419 . S
C1652 C1653 1.363 . S
C1652 H1655 0.929 . S
C1653 C1652 1.363 . S
C1653 C1659 1.428 . S
H1654 C1650 0.930 . S
H1655 C1652 0.929 . S
S1656 N1657 1.613 . S
S1656 N1658 1.610 . S
N1657 S1656 1.613 . S
N1657 C1660 1.350 . S
N1658 S1656 1.610 . S
N1658 C1659 1.351 . S
C1659 C1653 1.428 . S
C1659 N1658 1.351 . S
C1659 C1660 1.434 . S
C1660 C1651 1.429 . S
C1660 N1657 1.350 . S
C1660 C1659 1.434 . S
C1661 C1662 1.369 . S
C1661 C1663 1.419 . S
C1661 H1665 0.930 . S
C1662 C1661 1.369 . S
C1662 C1671 1.429 . S
C1663 C1661 1.419 . S
C1663 C1664 1.363 . S
C1663 H1666 0.929 . S
C1664 C1663 1.363 . S
C1664 C1670 1.428 . S
H1665 C1661 0.930 . S
H1666 C1663 0.929 . S
S1667 N1668 1.613 . S
S1667 N1669 1.610 . S
N1668 S1667 1.613 . S
N1668 C1671 1.350 . S
N1669 S1667 1.610 . S
N1669 C1670 1.351 . S
C1670 C1664 1.428 . S
C1670 N1669 1.351 . S
C1670 C1671 1.434 . S
C1671 C1662 1.429 . S
C1671 N1668 1.350 . S
C1671 C1670 1.434 . S
C1672 C1673 1.369 . S
C1672 C1674 1.419 . S
C1672 H1676 0.930 . S
C1673 C1672 1.369 . S
C1673 C1682 1.429 . S
C1674 C1672 1.419 . S
C1674 C1675 1.363 . S
C1674 H1677 0.929 . S
C1675 C1674 1.363 . S
C1675 C1681 1.428 . S
H1676 C1672 0.930 . S
H1677 C1674 0.929 . S
S1678 N1679 1.613 . S
S1678 N1680 1.610 . S
N1679 S1678 1.613 . S
N1679 C1682 1.350 . S
N1680 S1678 1.610 . S
N1680 C1681 1.351 . S
C1681 C1675 1.428 . S
C1681 N1680 1.351 . S
C1681 C1682 1.434 . S
C1682 C1673 1.429 . S
C1682 N1679 1.350 . S
C1682 C1681 1.434 . S
C1683 C1684 1.369 . S
C1683 C1685 1.419 . S
C1683 H1687 0.930 . S
C1684 C1683 1.369 . S
C1684 C1693 1.429 . S
C1685 C1683 1.419 . S
C1685 C1686 1.363 . S
C1685 H1688 0.929 . S
C1686 C1685 1.363 . S
C1686 C1692 1.428 . S
H1687 C1683 0.930 . S
H1688 C1685 0.929 . S
S1689 N1690 1.613 . S
S1689 N1691 1.610 . S
N1690 S1689 1.613 . S
N1690 C1693 1.350 . S
N1691 S1689 1.610 . S
N1691 C1692 1.351 . S
C1692 C1686 1.428 . S
C1692 N1691 1.351 . S
C1692 C1693 1.434 . S
C1693 C1684 1.429 . S
C1693 N1690 1.350 . S
C1693 C1692 1.434 . S
C1694 C1695 1.369 . S
C1694 C1696 1.419 . S
C1694 H1698 0.930 . S
C1695 C1694 1.369 . S
C1695 C1704 1.429 . S
C1696 C1694 1.419 . S
C1696 C1697 1.363 . S
C1696 H1699 0.929 . S
C1697 C1696 1.363 . S
C1697 C1703 1.428 . S
H1698 C1694 0.930 . S
H1699 C1696 0.929 . S
S1700 N1701 1.613 . S
S1700 N1702 1.610 . S
N1701 S1700 1.613 . S
N1701 C1704 1.350 . S
N1702 S1700 1.610 . S
N1702 C1703 1.351 . S
C1703 C1697 1.428 . S
C1703 N1702 1.351 . S
C1703 C1704 1.434 . S
C1704 C1695 1.429 . S
C1704 N1701 1.350 . S
C1704 C1703 1.434 . S
C1705 C1706 1.369 . S
C1705 C1707 1.419 . S
C1705 H1709 0.930 . S
C1706 C1705 1.369 . S
C1706 C1715 1.429 . S
C1707 C1705 1.419 . S
C1707 C1708 1.363 . S
C1707 H1710 0.929 . S
C1708 C1707 1.363 . S
C1708 C1714 1.428 . S
H1709 C1705 0.930 . S
H1710 C1707 0.929 . S
S1711 N1712 1.613 . S
S1711 N1713 1.610 . S
N1712 S1711 1.613 . S
N1712 C1715 1.350 . S
N1713 S1711 1.610 . S
N1713 C1714 1.351 . S
C1714 C1708 1.428 . S
C1714 N1713 1.351 . S
C1714 C1715 1.434 . S
C1715 C1706 1.429 . S
C1715 N1712 1.350 . S
C1715 C1714 1.434 . S
C1716 C1717 1.369 . S
C1716 C1718 1.419 . S
C1716 H1720 0.930 . S
C1717 C1716 1.369 . S
C1717 C1726 1.429 . S
C1718 C1716 1.419 . S
C1718 C1719 1.363 . S
C1718 H1721 0.929 . S
C1719 C1718 1.363 . S
C1719 C1725 1.428 . S
H1720 C1716 0.930 . S
H1721 C1718 0.929 . S
S1722 N1723 1.613 . S
S1722 N1724 1.610 . S
N1723 S1722 1.613 . S
N1723 C1726 1.350 . S
N1724 S1722 1.610 . S
N1724 C1725 1.351 . S
C1725 C1719 1.428 . S
C1725 N1724 1.351 . S
C1725 C1726 1.434 . S
C1726 C1717 1.429 . S
C1726 N1723 1.350 . S
C1726 C1725 1.434 . S
C1727 C1728 1.369 . S
C1727 C1729 1.419 . S
C1727 H1731 0.930 . S
C1728 C1727 1.369 . S
C1728 C1737 1.429 . S
C1729 C1727 1.419 . S
C1729 C1730 1.363 . S
C1729 H1732 0.929 . S
C1730 C1729 1.363 . S
C1730 C1736 1.428 . S
H1731 C1727 0.930 . S
H1732 C1729 0.929 . S
S1733 N1734 1.613 . S
S1733 N1735 1.610 . S
N1734 S1733 1.613 . S
N1734 C1737 1.350 . S
N1735 S1733 1.610 . S
N1735 C1736 1.351 . S
C1736 C1730 1.428 . S
C1736 N1735 1.351 . S
C1736 C1737 1.434 . S
C1737 C1728 1.429 . S
C1737 N1734 1.350 . S
C1737 C1736 1.434 . S
C1738 C1739 1.369 . S
C1738 C1740 1.419 . S
C1738 H1742 0.930 . S
C1739 C1738 1.369 . S
C1739 C1748 1.429 . S
C1740 C1738 1.419 . S
C1740 C1741 1.363 . S
C1740 H1743 0.929 . S
C1741 C1740 1.363 . S
C1741 C1747 1.428 . S
H1742 C1738 0.930 . S
H1743 C1740 0.929 . S
S1744 N1745 1.613 . S
S1744 N1746 1.610 . S
N1745 S1744 1.613 . S
N1745 C1748 1.350 . S
N1746 S1744 1.610 . S
N1746 C1747 1.351 . S
C1747 C1741 1.428 . S
C1747 N1746 1.351 . S
C1747 C1748 1.434 . S
C1748 C1739 1.429 . S
C1748 N1745 1.350 . S
C1748 C1747 1.434 . S
C1749 C1750 1.369 . S
C1749 C1751 1.419 . S
C1749 H1753 0.930 . S
C1750 C1749 1.369 . S
C1750 C1759 1.429 . S
C1751 C1749 1.419 . S
C1751 C1752 1.363 . S
C1751 H1754 0.929 . S
C1752 C1751 1.363 . S
C1752 C1758 1.428 . S
H1753 C1749 0.930 . S
H1754 C1751 0.929 . S
S1755 N1756 1.613 . S
S1755 N1757 1.610 . S
N1756 S1755 1.613 . S
N1756 C1759 1.350 . S
N1757 S1755 1.610 . S
N1757 C1758 1.351 . S
C1758 C1752 1.428 . S
C1758 N1757 1.351 . S
C1758 C1759 1.434 . S
C1759 C1750 1.429 . S
C1759 N1756 1.350 . S
C1759 C1758 1.434 . S
C1760 C1761 1.369 . S
C1760 C1762 1.419 . S
C1760 H1764 0.930 . S
C1761 C1760 1.369 . S
C1761 C1770 1.429 . S
C1762 C1760 1.419 . S
C1762 C1763 1.363 . S
C1762 H1765 0.929 . S
C1763 C1762 1.363 . S
C1763 C1769 1.428 . S
H1764 C1760 0.930 . S
H1765 C1762 0.929 . S
S1766 N1767 1.613 . S
S1766 N1768 1.610 . S
N1767 S1766 1.613 . S
N1767 C1770 1.350 . S
N1768 S1766 1.610 . S
N1768 C1769 1.351 . S
C1769 C1763 1.428 . S
C1769 N1768 1.351 . S
C1769 C1770 1.434 . S
C1770 C1761 1.429 . S
C1770 N1767 1.350 . S
C1770 C1769 1.434 . S
C1771 C1772 1.369 . S
C1771 C1773 1.419 . S
C1771 H1775 0.930 . S
C1772 C1771 1.369 . S
C1772 C1781 1.429 . S
C1773 C1771 1.419 . S
C1773 C1774 1.363 . S
C1773 H1776 0.929 . S
C1774 C1773 1.363 . S
C1774 C1780 1.428 . S
H1775 C1771 0.930 . S
H1776 C1773 0.929 . S
S1777 N1778 1.613 . S
S1777 N1779 1.610 . S
N1778 S1777 1.613 . S
N1778 C1781 1.350 . S
N1779 S1777 1.610 . S
N1779 C1780 1.351 . S
C1780 C1774 1.428 . S
C1780 N1779 1.351 . S
C1780 C1781 1.434 . S
C1781 C1772 1.429 . S
C1781 N1778 1.350 . S
C1781 C1780 1.434 . S
C1782 C1783 1.369 . S
C1782 C1784 1.419 . S
C1782 H1786 0.930 . S
C1783 C1782 1.369 . S
C1783 C1792 1.429 . S
C1784 C1782 1.419 . S
C1784 C1785 1.363 . S
C1784 H1787 0.929 . S
C1785 C1784 1.363 . S
C1785 C1791 1.428 . S
H1786 C1782 0.930 . S
H1787 C1784 0.929 . S
S1788 N1789 1.613 . S
S1788 N1790 1.610 . S
N1789 S1788 1.613 . S
N1789 C1792 1.350 . S
N1790 S1788 1.610 . S
N1790 C1791 1.351 . S
C1791 C1785 1.428 . S
C1791 N1790 1.351 . S
C1791 C1792 1.434 . S
C1792 C1783 1.429 . S
C1792 N1789 1.350 . S
C1792 C1791 1.434 . S
C1793 C1794 1.369 . S
C1793 C1795 1.419 . S
C1793 H1797 0.930 . S
C1794 C1793 1.369 . S
C1794 C1803 1.429 . S
C1795 C1793 1.419 . S
C1795 C1796 1.363 . S
C1795 H1798 0.929 . S
C1796 C1795 1.363 . S
C1796 C1802 1.428 . S
H1797 C1793 0.930 . S
H1798 C1795 0.929 . S
S1799 N1800 1.613 . S
S1799 N1801 1.610 . S
N1800 S1799 1.613 . S
N1800 C1803 1.350 . S
N1801 S1799 1.610 . S
N1801 C1802 1.351 . S
C1802 C1796 1.428 . S
C1802 N1801 1.351 . S
C1802 C1803 1.434 . S
C1803 C1794 1.429 . S
C1803 N1800 1.350 . S
C1803 C1802 1.434 . S
C1804 C1805 1.369 . S
C1804 C1806 1.419 . S
C1804 H1808 0.930 . S
C1805 C1804 1.369 . S
C1805 C1814 1.429 . S
C1806 C1804 1.419 . S
C1806 C1807 1.363 . S
C1806 H1809 0.929 . S
C1807 C1806 1.363 . S
C1807 C1813 1.428 . S
H1808 C1804 0.930 . S
H1809 C1806 0.929 . S
S1810 N1811 1.613 . S
S1810 N1812 1.610 . S
N1811 S1810 1.613 . S
N1811 C1814 1.350 . S
N1812 S1810 1.610 . S
N1812 C1813 1.351 . S
C1813 C1807 1.428 . S
C1813 N1812 1.351 . S
C1813 C1814 1.434 . S
C1814 C1805 1.429 . S
C1814 N1811 1.350 . S
C1814 C1813 1.434 . S
C1815 C1816 1.369 . S
C1815 C1817 1.419 . S
C1815 H1819 0.930 . S
C1816 C1815 1.369 . S
C1816 C1825 1.429 . S
C1817 C1815 1.419 . S
C1817 C1818 1.363 . S
C1817 H1820 0.929 . S
C1818 C1817 1.363 . S
C1818 C1824 1.428 . S
H1819 C1815 0.930 . S
H1820 C1817 0.929 . S
S1821 N1822 1.613 . S
S1821 N1823 1.610 . S
N1822 S1821 1.613 . S
N1822 C1825 1.350 . S
N1823 S1821 1.610 . S
N1823 C1824 1.351 . S
C1824 C1818 1.428 . S
C1824 N1823 1.351 . S
C1824 C1825 1.434 . S
C1825 C1816 1.429 . S
C1825 N1822 1.350 . S
C1825 C1824 1.434 . S
C1826 C1827 1.369 . S
C1826 C1828 1.419 . S
C1826 H1830 0.930 . S
C1827 C1826 1.369 . S
C1827 C1836 1.429 . S
C1828 C1826 1.419 . S
C1828 C1829 1.363 . S
C1828 H1831 0.929 . S
C1829 C1828 1.363 . S
C1829 C1835 1.428 . S
H1830 C1826 0.930 . S
H1831 C1828 0.929 . S
S1832 N1833 1.613 . S
S1832 N1834 1.610 . S
N1833 S1832 1.613 . S
N1833 C1836 1.350 . S
N1834 S1832 1.610 . S
N1834 C1835 1.351 . S
C1835 C1829 1.428 . S
C1835 N1834 1.351 . S
C1835 C1836 1.434 . S
C1836 C1827 1.429 . S
C1836 N1833 1.350 . S
C1836 C1835 1.434 . S
C1837 C1838 1.369 . S
C1837 C1839 1.419 . S
C1837 H1841 0.930 . S
C1838 C1837 1.369 . S
C1838 C1847 1.429 . S
C1839 C1837 1.419 . S
C1839 C1840 1.363 . S
C1839 H1842 0.929 . S
C1840 C1839 1.363 . S
C1840 C1846 1.428 . S
H1841 C1837 0.930 . S
H1842 C1839 0.929 . S
S1843 N1844 1.613 . S
S1843 N1845 1.610 . S
N1844 S1843 1.613 . S
N1844 C1847 1.350 . S
N1845 S1843 1.610 . S
N1845 C1846 1.351 . S
C1846 C1840 1.428 . S
C1846 N1845 1.351 . S
C1846 C1847 1.434 . S
C1847 C1838 1.429 . S
C1847 N1844 1.350 . S
C1847 C1846 1.434 . S
C1848 C1849 1.369 . S
C1848 C1850 1.422 . S
C1848 H1852 0.930 . S
C1849 C1848 1.369 . S
C1849 C1858 1.429 1_655 S
C1850 C1848 1.422 . S
C1850 C1851 1.359 1_655 S
C1850 H1853 0.928 . S
C1851 C1850 1.359 1_455 S
C1851 C1857 1.428 . S
H1852 C1848 0.930 . S
H1853 C1850 0.928 . S
S1854 N1855 1.613 . S
S1854 N1856 1.610 . S
N1855 S1854 1.613 . S
N1855 C1858 1.350 . S
N1856 S1854 1.610 . S
N1856 C1857 1.351 . S
C1857 C1851 1.428 . S
C1857 N1856 1.351 . S
C1857 C1858 1.434 . S
C1858 C1849 1.429 1_455 S
C1858 N1855 1.350 . S
C1858 C1857 1.434 . S
C1859 C1860 1.369 . S
C1859 C1861 1.419 . S
C1859 H1863 0.930 . S
C1860 C1859 1.369 . S
C1860 C1869 1.429 1_545 S
C1861 C1859 1.419 . S
C1861 C1862 1.363 1_545 S
C1861 H1864 0.929 . S
C1862 C1861 1.363 1_565 S
C1862 C1868 1.428 . S
H1863 C1859 0.930 . S
H1864 C1861 0.929 . S
S1865 N1866 1.613 . S
S1865 N1867 1.610 . S
N1866 S1865 1.613 . S
N1866 C1869 1.350 . S
N1867 S1865 1.610 . S
N1867 C1868 1.351 . S
C1868 C1862 1.428 . S
C1868 N1867 1.351 . S
C1868 C1869 1.434 . S
C1869 C1860 1.429 1_565 S
C1869 N1866 1.350 . S
C1869 C1868 1.434 . S
C1870 C1871 1.369 1_455 S
C1870 C1872 1.419 . S
C1870 H1874 0.930 . S
C1871 C1870 1.369 1_655 S
C1871 C1880 1.429 . S
C1872 C1870 1.419 . S
C1872 C1873 1.363 . S
C1872 H1875 0.929 . S
C1873 C1872 1.363 . S
C1873 C1879 1.428 1_455 S
H1874 C1870 0.930 . S
H1875 C1872 0.929 . S
S1876 N1877 1.613 . S
S1876 N1878 1.610 . S
N1877 S1876 1.613 . S
N1877 C1880 1.350 . S
N1878 S1876 1.610 . S
N1878 C1879 1.351 . S
C1879 C1873 1.428 1_655 S
C1879 N1878 1.351 . S
C1879 C1880 1.434 . S
C1880 C1871 1.429 . S
C1880 N1877 1.350 . S
C1880 C1879 1.434 . S
C1881 C1882 1.369 1_545 S
C1881 C1883 1.419 . S
C1881 H1885 0.930 . S
C1882 C1881 1.369 1_565 S
C1882 C1891 1.429 . S
C1883 C1881 1.419 . S
C1883 C1884 1.363 . S
C1883 H1886 0.929 . S
C1884 C1883 1.363 . S
C1884 C1890 1.428 1_545 S
H1885 C1881 0.930 . S
H1886 C1883 0.929 . S
S1887 N1888 1.613 . S
S1887 N1889 1.610 . S
N1888 S1887 1.613 . S
N1888 C1891 1.350 . S
N1889 S1887 1.610 . S
N1889 C1890 1.351 . S
C1890 C1884 1.428 1_565 S
C1890 N1889 1.351 . S
C1890 C1891 1.434 . S
C1891 C1882 1.429 . S
C1891 N1888 1.350 . S
C1891 C1890 1.434 . S
C1892 C1893 1.369 . S
C1892 C1894 1.419 . S
C1892 H1896 0.930 . S
C1893 C1892 1.369 . S
C1893 C1902 1.429 1_545 S
C1894 C1892 1.419 . S
C1894 C1895 1.363 1_545 S
C1894 H1897 0.929 . S
C1895 C1894 1.363 1_565 S
C1895 C1901 1.428 . S
H1896 C1892 0.930 . S
H1897 C1894 0.929 . S
S1898 N1899 1.613 . S
S1898 N1900 1.610 . S
N1899 S1898 1.613 . S
N1899 C1902 1.350 . S
N1900 S1898 1.610 . S
N1900 C1901 1.351 . S
C1901 C1895 1.428 . S
C1901 N1900 1.351 . S
C1901 C1902 1.434 . S
C1902 C1893 1.429 1_565 S
C1902 N1899 1.350 . S
C1902 C1901 1.434 . S
C1903 C1904 1.369 . S
C1903 C1905 1.419 . S
C1903 H1907 0.930 . S
C1904 C1903 1.369 . S
C1904 C1913 1.429 1_455 S
C1905 C1903 1.419 . S
C1905 C1906 1.363 1_455 S
C1905 H1908 0.929 . S
C1906 C1905 1.363 1_655 S
C1906 C1912 1.428 . S
H1907 C1903 0.930 . S
H1908 C1905 0.929 . S
S1909 N1910 1.613 . S
S1909 N1911 1.610 . S
N1910 S1909 1.613 . S
N1910 C1913 1.350 . S
N1911 S1909 1.610 . S
N1911 C1912 1.351 . S
C1912 C1906 1.428 . S
C1912 N1911 1.351 . S
C1912 C1913 1.434 . S
C1913 C1904 1.429 1_655 S
C1913 N1910 1.350 . S
C1913 C1912 1.434 . S
C1914 C1915 1.369 . S
C1914 C1916 1.419 . S
C1914 H1918 0.930 . S
C1915 C1914 1.369 . S
C1915 C1924 1.429 1_545 S
C1916 C1914 1.419 . S
C1916 C1917 1.363 1_545 S
C1916 H1919 0.929 . S
C1917 C1916 1.363 1_565 S
C1917 C1923 1.428 . S
H1918 C1914 0.930 . S
H1919 C1916 0.929 . S
S1920 N1921 1.613 . S
S1920 N1922 1.610 . S
N1921 S1920 1.613 . S
N1921 C1924 1.350 . S
N1922 S1920 1.610 . S
N1922 C1923 1.351 . S
C1923 C1917 1.428 . S
C1923 N1922 1.351 . S
C1923 C1924 1.434 . S
C1924 C1915 1.429 1_565 S
C1924 N1921 1.350 . S
C1924 C1923 1.434 . S
C1925 C1926 1.369 . S
C1925 C1927 1.419 1_655 S
C1925 H1929 0.930 . S
C1926 C1925 1.369 . S
C1926 C1935 1.429 . S
C1927 C1925 1.419 1_455 S
C1927 C1928 1.363 . S
C1927 H1930 0.929 . S
C1928 C1927 1.363 . S
C1928 C1934 1.428 . S
H1929 C1925 0.930 . S
H1930 C1927 0.929 . S
S1931 N1932 1.613 . S
S1931 N1933 1.610 1_655 S
N1932 S1931 1.613 . S
N1932 C1935 1.350 . S
N1933 S1931 1.610 1_455 S
N1933 C1934 1.351 . S
C1934 C1928 1.428 . S
C1934 N1933 1.351 . S
C1934 C1935 1.434 1_455 S
C1935 C1926 1.429 . S
C1935 N1932 1.350 . S
C1935 C1934 1.434 1_655 S
C1936 C1937 1.369 1_554 S
C1936 C1938 1.419 . S
C1936 H1940 0.930 . S
C1937 C1936 1.369 1_556 S
C1937 C1946 1.429 . S
C1938 C1936 1.419 . S
C1938 C1939 1.363 . S
C1938 H1941 0.929 . S
C1939 C1938 1.363 . S
C1939 C1945 1.428 1_554 S
H1940 C1936 0.930 . S
H1941 C1938 0.929 . S
S1942 N1943 1.613 . S
S1942 N1944 1.610 . S
N1943 S1942 1.613 . S
N1943 C1946 1.350 . S
N1944 S1942 1.610 . S
N1944 C1945 1.351 . S
C1945 C1939 1.428 1_556 S
C1945 N1944 1.351 . S
C1945 C1946 1.434 . S
C1946 C1937 1.429 . S
C1946 N1943 1.350 . S
C1946 C1945 1.434 . S
C1947 C1948 1.369 . S
C1947 C1949 1.419 . S
C1947 H1951 0.930 . S
C1948 C1947 1.369 . S
C1948 C1957 1.429 1_556 S
C1949 C1947 1.419 . S
C1949 C1950 1.363 1_556 S
C1949 H1952 0.929 . S
C1950 C1949 1.363 1_554 S
C1950 C1956 1.428 . S
H1951 C1947 0.930 . S
H1952 C1949 0.929 . S
S1953 N1954 1.613 . S
S1953 N1955 1.610 . S
N1954 S1953 1.613 . S
N1954 C1957 1.350 . S
N1955 S1953 1.610 . S
N1955 C1956 1.351 . S
C1956 C1950 1.428 . S
C1956 N1955 1.351 . S
C1956 C1957 1.434 . S
C1957 C1948 1.429 1_554 S
C1957 N1954 1.350 . S
C1957 C1956 1.434 . S
C1958 C1959 1.369 . S
C1958 C1960 1.419 . S
C1958 H1962 0.930 . S
C1959 C1958 1.369 . S
C1959 C1968 1.429 1_556 S
C1960 C1958 1.419 . S
C1960 C1961 1.363 1_556 S
C1960 H1963 0.929 . S
C1961 C1960 1.363 1_554 S
C1961 C1967 1.428 . S
H1962 C1958 0.930 . S
H1963 C1960 0.929 . S
S1964 N1965 1.613 . S
S1964 N1966 1.610 . S
N1965 S1964 1.613 . S
N1965 C1968 1.350 . S
N1966 S1964 1.610 . S
N1966 C1967 1.351 . S
C1967 C1961 1.428 . S
C1967 N1966 1.351 . S
C1967 C1968 1.434 . S
C1968 C1959 1.429 1_554 S
C1968 N1965 1.350 . S
C1968 C1967 1.434 . S
C1969 C1970 1.369 . S
C1969 C1971 1.419 . S
C1969 H1973 0.930 . S
C1970 C1969 1.369 . S
C1970 C1979 1.429 1_556 S
C1971 C1969 1.419 . S
C1971 C1972 1.363 1_556 S
C1971 H1974 0.929 . S
C1972 C1971 1.363 1_554 S
C1972 C1978 1.428 . S
H1973 C1969 0.930 . S
H1974 C1971 0.929 . S
S1975 N1976 1.613 . S
S1975 N1977 1.610 . S
N1976 S1975 1.613 . S
N1976 C1979 1.350 . S
N1977 S1975 1.610 . S
N1977 C1978 1.351 . S
C1978 C1972 1.428 . S
C1978 N1977 1.351 . S
C1978 C1979 1.434 . S
C1979 C1970 1.429 1_554 S
C1979 N1976 1.350 . S
C1979 C1978 1.434 . S
C1980 C1981 1.369 . S
C1980 C1982 1.419 1_545 S
C1980 H1984 0.930 . S
C1981 C1980 1.369 . S
C1981 C1990 1.429 . S
C1982 C1980 1.419 1_565 S
C1982 C1983 1.363 . S
C1982 H1985 0.929 . S
C1983 C1982 1.363 . S
C1983 C1989 1.428 . S
H1984 C1980 0.930 . S
H1985 C1982 0.929 . S
S1986 N1987 1.613 . S
S1986 N1988 1.610 1_545 S
N1987 S1986 1.613 . S
N1987 C1990 1.350 . S
N1988 S1986 1.610 1_565 S
N1988 C1989 1.351 . S
C1989 C1983 1.428 . S
C1989 N1988 1.351 . S
C1989 C1990 1.434 1_565 S
C1990 C1981 1.429 . S
C1990 N1987 1.350 . S
C1990 C1989 1.434 1_545 S
C1991 C1992 1.369 . S
C1991 C1993 1.419 1_655 S
C1991 H1995 0.930 . S
C1992 C1991 1.369 . S
C1992 C2001 1.429 . S
C1993 C1991 1.419 1_455 S
C1993 C1994 1.363 . S
C1993 H1996 0.929 . S
C1994 C1993 1.363 . S
C1994 C2000 1.428 . S
H1995 C1991 0.930 . S
H1996 C1993 0.929 . S
S1997 N1998 1.613 . S
S1997 N1999 1.610 1_655 S
N1998 S1997 1.613 . S
N1998 C2001 1.350 . S
N1999 S1997 1.610 1_455 S
N1999 C2000 1.351 . S
C2000 C1994 1.428 . S
C2000 N1999 1.351 . S
C2000 C2001 1.434 1_455 S
C2001 C1992 1.429 . S
C2001 N1998 1.350 . S
C2001 C2000 1.434 1_655 S
C2002 C2003 1.369 . S
C2002 C2004 1.419 1_565 S
C2002 H2006 0.930 . S
C2003 C2002 1.369 . S
C2003 C2012 1.429 . S
C2004 C2002 1.419 1_545 S
C2004 C2005 1.363 . S
C2004 H2007 0.929 . S
C2005 C2004 1.363 . S
C2005 C2011 1.428 . S
H2006 C2002 0.930 . S
H2007 C2004 0.929 . S
S2008 N2009 1.613 . S
S2008 N2010 1.610 1_565 S
N2009 S2008 1.613 . S
N2009 C2012 1.350 . S
N2010 S2008 1.610 1_545 S
N2010 C2011 1.351 . S
C2011 C2005 1.428 . S
C2011 N2010 1.351 . S
C2011 C2012 1.434 1_545 S
C2012 C2003 1.429 . S
C2012 N2009 1.350 . S
C2012 C2011 1.434 1_565 S
C2013 C2014 1.369 . S
C2013 C2015 1.419 1_455 S
C2013 H2017 0.930 . S
C2014 C2013 1.369 . S
C2014 C2023 1.429 . S
C2015 C2013 1.419 1_655 S
C2015 C2016 1.363 . S
C2015 H2018 0.929 . S
C2016 C2015 1.363 . S
C2016 C2022 1.428 . S
H2017 C2013 0.930 . S
H2018 C2015 0.929 . S
S2019 N2020 1.613 . S
S2019 N2021 1.610 1_455 S
N2020 S2019 1.613 . S
N2020 C2023 1.350 . S
N2021 S2019 1.610 1_655 S
N2021 C2022 1.351 . S
C2022 C2016 1.428 . S
C2022 N2021 1.351 . S
C2022 C2023 1.434 1_655 S
C2023 C2014 1.429 . S
C2023 N2020 1.350 . S
C2023 C2022 1.434 1_455 S
C2024 C2025 1.369 . S
C2024 C2026 1.419 1_556 S
C2024 H2028 0.930 . S
C2025 C2024 1.369 . S
C2025 C2034 1.429 . S
C2026 C2024 1.419 1_554 S
C2026 C2027 1.363 . S
C2026 H2029 0.929 . S
C2027 C2026 1.363 . S
C2027 C2033 1.428 . S
H2028 C2024 0.930 . S
H2029 C2026 0.929 . S
S2030 N2031 1.613 . S
S2030 N2032 1.610 1_556 S
N2031 S2030 1.613 . S
N2031 C2034 1.350 . S
N2032 S2030 1.610 1_554 S
N2032 C2033 1.351 . S
C2033 C2027 1.428 . S
C2033 N2032 1.351 . S
C2033 C2034 1.434 1_554 S
C2034 C2025 1.429 . S
C2034 N2031 1.350 . S
C2034 C2033 1.434 1_556 S
C2035 C2036 1.369 . S
C2035 C2037 1.419 1_556 S
C2035 H2039 0.930 . S
C2036 C2035 1.369 . S
C2036 C2045 1.429 . S
C2037 C2035 1.419 1_554 S
C2037 C2038 1.363 . S
C2037 H2040 0.929 . S
C2038 C2037 1.363 . S
C2038 C2044 1.428 . S
H2039 C2035 0.930 . S
H2040 C2037 0.929 . S
S2041 N2042 1.613 1_554 S
S2041 N2043 1.610 . S
N2042 S2041 1.613 1_556 S
N2042 C2045 1.350 . S
N2043 S2041 1.610 . S
N2043 C2044 1.351 . S
C2044 C2038 1.428 . S
C2044 N2043 1.351 . S
C2044 C2045 1.434 1_554 S
C2045 C2036 1.429 . S
C2045 N2042 1.350 . S
C2045 C2044 1.434 1_556 S
C2046 C2047 1.369 . S
C2046 C2048 1.419 1_554 S
C2046 H2050 0.930 . S
C2047 C2046 1.369 . S
C2047 C2056 1.429 . S
C2048 C2046 1.419 1_556 S
C2048 C2049 1.363 . S
C2048 H2051 0.929 . S
C2049 C2048 1.363 . S
C2049 C2055 1.428 . S
H2050 C2046 0.930 . S
H2051 C2048 0.929 . S
S2052 N2053 1.613 . S
S2052 N2054 1.610 1_554 S
N2053 S2052 1.613 . S
N2053 C2056 1.350 . S
N2054 S2052 1.610 1_556 S
N2054 C2055 1.351 . S
C2055 C2049 1.428 . S
C2055 N2054 1.351 . S
C2055 C2056 1.434 1_556 S
C2056 C2047 1.429 . S
C2056 N2053 1.350 . S
C2056 C2055 1.434 1_554 S
C2057 C2058 1.369 . S
C2057 C2059 1.419 1_554 S
C2057 H2061 0.930 . S
C2058 C2057 1.369 . S
C2058 C2067 1.429 . S
C2059 C2057 1.419 1_556 S
C2059 C2060 1.363 . S
C2059 H2062 0.929 . S
C2060 C2059 1.363 . S
C2060 C2066 1.428 . S
H2061 C2057 0.930 . S
H2062 C2059 0.929 . S
S2063 N2064 1.613 1_556 S
S2063 N2065 1.610 . S
N2064 S2063 1.613 1_554 S
N2064 C2067 1.350 . S
N2065 S2063 1.610 . S
N2065 C2066 1.351 . S
C2066 C2060 1.428 . S
C2066 N2065 1.351 . S
C2066 C2067 1.434 1_556 S
C2067 C2058 1.429 . S
C2067 N2064 1.350 . S
C2067 C2066 1.434 1_554 S
C2068 C2069 1.369 . S
C2068 C2070 1.419 1_655 S
C2068 H2072 0.930 . S
C2069 C2068 1.369 . S
C2069 C2078 1.429 . S
C2070 C2068 1.419 1_455 S
C2070 C2071 1.363 . S
C2070 H2073 0.929 . S
C2071 C2070 1.363 . S
C2071 C2077 1.428 . S
H2072 C2068 0.930 . S
H2073 C2070 0.929 . S
S2074 N2075 1.613 1_455 S
S2074 N2076 1.610 . S
N2075 S2074 1.613 1_655 S
N2075 C2078 1.350 . S
N2076 S2074 1.610 . S
N2076 C2077 1.351 . S
C2077 C2071 1.428 . S
C2077 N2076 1.351 . S
C2077 C2078 1.434 1_455 S
C2078 C2069 1.429 . S
C2078 N2075 1.350 . S
C2078 C2077 1.434 1_655 S
C2079 C2080 1.369 . S
C2079 C2081 1.419 1_455 S
C2079 H2083 0.930 . S
C2080 C2079 1.369 . S
C2080 C2089 1.429 . S
C2081 C2079 1.419 1_655 S
C2081 C2082 1.363 . S
C2081 H2084 0.929 . S
C2082 C2081 1.363 . S
C2082 C2088 1.428 . S
H2083 C2079 0.930 . S
H2084 C2081 0.929 . S
S2085 N2086 1.613 . S
S2085 N2087 1.610 1_455 S
N2086 S2085 1.613 . S
N2086 C2089 1.350 . S
N2087 S2085 1.610 1_655 S
N2087 C2088 1.351 . S
C2088 C2082 1.428 . S
C2088 N2087 1.351 . S
C2088 C2089 1.434 1_655 S
C2089 C2080 1.429 . S
C2089 N2086 1.350 . S
C2089 C2088 1.434 1_455 S
C2090 C2091 1.369 . S
C2090 C2092 1.419 1_545 S
C2090 H2094 0.930 . S
C2091 C2090 1.369 . S
C2091 C2100 1.429 . S
C2092 C2090 1.419 1_565 S
C2092 C2093 1.363 . S
C2092 H2095 0.929 . S
C2093 C2092 1.363 . S
C2093 C2099 1.428 . S
H2094 C2090 0.930 . S
H2095 C2092 0.929 . S
S2096 N2097 1.613 . S
S2096 N2098 1.610 1_545 S
N2097 S2096 1.613 . S
N2097 C2100 1.350 . S
N2098 S2096 1.610 1_565 S
N2098 C2099 1.351 . S
C2099 C2093 1.428 . S
C2099 N2098 1.351 . S
C2099 C2100 1.434 1_565 S
C2100 C2091 1.429 . S
C2100 N2097 1.350 . S
C2100 C2099 1.434 1_545 S
C2101 C2102 1.369 . S
C2101 C2103 1.419 1_565 S
C2101 H2105 0.930 . S
C2102 C2101 1.369 . S
C2102 C2111 1.429 . S
C2103 C2101 1.419 1_545 S
C2103 C2104 1.363 . S
C2103 H2106 0.929 . S
C2104 C2103 1.363 . S
C2104 C2110 1.428 . S
H2105 C2101 0.930 . S
H2106 C2103 0.929 . S
S2107 N2108 1.613 1_545 S
S2107 N2109 1.610 . S
N2108 S2107 1.613 1_565 S
N2108 C2111 1.350 . S
N2109 S2107 1.610 . S
N2109 C2110 1.351 . S
C2110 C2104 1.428 . S
C2110 N2109 1.351 . S
C2110 C2111 1.434 1_545 S
C2111 C2102 1.429 . S
C2111 N2108 1.350 . S
C2111 C2110 1.434 1_565 S
C2112 C2113 1.369 . S
C2112 C2114 1.419 . S
C2112 H2116 0.930 . S
C2113 C2112 1.369 . S
C2113 C2122 1.429 . S
C2114 C2112 1.419 . S
C2114 C2115 1.363 . S
C2114 H2117 0.929 . S
C2115 C2114 1.363 . S
C2115 C2121 1.428 . S
H2116 C2112 0.930 . S
H2117 C2114 0.929 . S
S2118 N2119 1.613 . S
S2118 N2120 1.610 . S
N2119 S2118 1.613 . S
N2119 C2122 1.350 . S
N2120 S2118 1.610 . S
N2120 C2121 1.351 . S
C2121 C2115 1.428 . S
C2121 N2120 1.351 . S
C2121 C2122 1.434 . S
C2122 C2113 1.429 . S
C2122 N2119 1.350 . S
C2122 C2121 1.434 . S
C2123 C2124 1.369 . S
C2123 C2125 1.419 . S
C2123 H2127 0.930 . S
C2124 C2123 1.369 . S
C2124 C2133 1.429 . S
C2125 C2123 1.419 . S
C2125 C2126 1.363 . S
C2125 H2128 0.929 . S
C2126 C2125 1.363 . S
C2126 C2132 1.428 . S
H2127 C2123 0.930 . S
H2128 C2125 0.929 . S
S2129 N2130 1.613 . S
S2129 N2131 1.610 . S
N2130 S2129 1.613 . S
N2130 C2133 1.350 . S
N2131 S2129 1.610 . S
N2131 C2132 1.351 . S
C2132 C2126 1.428 . S
C2132 N2131 1.351 . S
C2132 C2133 1.434 . S
C2133 C2124 1.429 . S
C2133 N2130 1.350 . S
C2133 C2132 1.434 . S
C2134 C2135 1.369 . S
C2134 C2136 1.419 . S
C2134 H2138 0.930 . S
C2135 C2134 1.369 . S
C2135 C2144 1.429 . S
C2136 C2134 1.419 . S
C2136 C2137 1.363 . S
C2136 H2139 0.929 . S
C2137 C2136 1.363 . S
C2137 C2143 1.428 . S
H2138 C2134 0.930 . S
H2139 C2136 0.929 . S
S2140 N2141 1.613 . S
S2140 N2142 1.610 . S
N2141 S2140 1.613 . S
N2141 C2144 1.350 . S
N2142 S2140 1.610 . S
N2142 C2143 1.351 . S
C2143 C2137 1.428 . S
C2143 N2142 1.351 . S
C2143 C2144 1.434 . S
C2144 C2135 1.429 . S
C2144 N2141 1.350 . S
C2144 C2143 1.434 . S
C2145 C2146 1.369 . S
C2145 C2147 1.419 . S
C2145 H2149 0.930 . S
C2146 C2145 1.369 . S
C2146 C2155 1.429 . S
C2147 C2145 1.419 . S
C2147 C2148 1.363 . S
C2147 H2150 0.929 . S
C2148 C2147 1.363 . S
C2148 C2154 1.428 . S
H2149 C2145 0.930 . S
H2150 C2147 0.929 . S
S2151 N2152 1.613 . S
S2151 N2153 1.610 . S
N2152 S2151 1.613 . S
N2152 C2155 1.350 . S
N2153 S2151 1.610 . S
N2153 C2154 1.351 . S
C2154 C2148 1.428 . S
C2154 N2153 1.351 . S
C2154 C2155 1.434 . S
C2155 C2146 1.429 . S
C2155 N2152 1.350 . S
C2155 C2154 1.434 . S
C2156 C2157 1.369 . S
C2156 C2158 1.419 . S
C2156 H2160 0.930 . S
C2157 C2156 1.369 . S
C2157 C2166 1.429 . S
C2158 C2156 1.419 . S
C2158 C2159 1.363 . S
C2158 H2161 0.929 . S
C2159 C2158 1.363 . S
C2159 C2165 1.428 . S
H2160 C2156 0.930 . S
H2161 C2158 0.929 . S
S2162 N2163 1.613 . S
S2162 N2164 1.610 . S
N2163 S2162 1.613 . S
N2163 C2166 1.350 . S
N2164 S2162 1.610 . S
N2164 C2165 1.351 . S
C2165 C2159 1.428 . S
C2165 N2164 1.351 . S
C2165 C2166 1.434 . S
C2166 C2157 1.429 . S
C2166 N2163 1.350 . S
C2166 C2165 1.434 . S
C2167 C2168 1.369 . S
C2167 C2169 1.419 . S
C2167 H2171 0.930 . S
C2168 C2167 1.369 . S
C2168 C2177 1.429 . S
C2169 C2167 1.419 . S
C2169 C2170 1.363 . S
C2169 H2172 0.929 . S
C2170 C2169 1.363 . S
C2170 C2176 1.428 . S
H2171 C2167 0.930 . S
H2172 C2169 0.929 . S
S2173 N2174 1.613 . S
S2173 N2175 1.610 . S
N2174 S2173 1.613 . S
N2174 C2177 1.350 . S
N2175 S2173 1.610 . S
N2175 C2176 1.351 . S
C2176 C2170 1.428 . S
C2176 N2175 1.351 . S
C2176 C2177 1.434 . S
C2177 C2168 1.429 . S
C2177 N2174 1.350 . S
C2177 C2176 1.434 . S
C2178 C2179 1.369 . S
C2178 C2180 1.419 . S
C2178 H2182 0.930 . S
C2179 C2178 1.369 . S
C2179 C2188 1.429 . S
C2180 C2178 1.419 . S
C2180 C2181 1.363 . S
C2180 H2183 0.929 . S
C2181 C2180 1.363 . S
C2181 C2187 1.428 . S
H2182 C2178 0.930 . S
H2183 C2180 0.929 . S
S2184 N2185 1.613 . S
S2184 N2186 1.610 . S
N2185 S2184 1.613 . S
N2185 C2188 1.350 . S
N2186 S2184 1.610 . S
N2186 C2187 1.351 . S
C2187 C2181 1.428 . S
C2187 N2186 1.351 . S
C2187 C2188 1.434 . S
C2188 C2179 1.429 . S
C2188 N2185 1.350 . S
C2188 C2187 1.434 . S
C2189 C2190 1.369 . S
C2189 C2191 1.419 . S
C2189 H2193 0.930 . S
C2190 C2189 1.369 . S
C2190 C2199 1.429 . S
C2191 C2189 1.419 . S
C2191 C2192 1.363 . S
C2191 H2194 0.929 . S
C2192 C2191 1.363 . S
C2192 C2198 1.428 . S
H2193 C2189 0.930 . S
H2194 C2191 0.929 . S
S2195 N2196 1.613 . S
S2195 N2197 1.610 . S
N2196 S2195 1.613 . S
N2196 C2199 1.350 . S
N2197 S2195 1.610 . S
N2197 C2198 1.351 . S
C2198 C2192 1.428 . S
C2198 N2197 1.351 . S
C2198 C2199 1.434 . S
C2199 C2190 1.429 . S
C2199 N2196 1.350 . S
C2199 C2198 1.434 . S
C2200 C2201 1.369 . S
C2200 C2202 1.419 . S
C2200 H2204 0.930 . S
C2201 C2200 1.369 . S
C2201 C2210 1.429 . S
C2202 C2200 1.419 . S
C2202 C2203 1.363 . S
C2202 H2205 0.929 . S
C2203 C2202 1.363 . S
C2203 C2209 1.428 . S
H2204 C2200 0.930 . S
H2205 C2202 0.929 . S
S2206 N2207 1.613 . S
S2206 N2208 1.610 . S
N2207 S2206 1.613 . S
N2207 C2210 1.350 . S
N2208 S2206 1.610 . S
N2208 C2209 1.351 . S
C2209 C2203 1.428 . S
C2209 N2208 1.351 . S
C2209 C2210 1.434 . S
C2210 C2201 1.429 . S
C2210 N2207 1.350 . S
C2210 C2209 1.434 . S
C2211 C2212 1.369 . S
C2211 C2213 1.419 . S
C2211 H2215 0.930 . S
C2212 C2211 1.369 . S
C2212 C2221 1.429 . S
C2213 C2211 1.419 . S
C2213 C2214 1.363 . S
C2213 H2216 0.929 . S
C2214 C2213 1.363 . S
C2214 C2220 1.428 . S
H2215 C2211 0.930 . S
H2216 C2213 0.929 . S
S2217 N2218 1.613 . S
S2217 N2219 1.610 . S
N2218 S2217 1.613 . S
N2218 C2221 1.350 . S
N2219 S2217 1.610 . S
N2219 C2220 1.351 . S
C2220 C2214 1.428 . S
C2220 N2219 1.351 . S
C2220 C2221 1.434 . S
C2221 C2212 1.429 . S
C2221 N2218 1.350 . S
C2221 C2220 1.434 . S
C2222 C2223 1.369 . S
C2222 C2224 1.419 . S
C2222 H2226 0.930 . S
C2223 C2222 1.369 . S
C2223 C2232 1.429 . S
C2224 C2222 1.419 . S
C2224 C2225 1.363 . S
C2224 H2227 0.929 . S
C2225 C2224 1.363 . S
C2225 C2231 1.428 . S
H2226 C2222 0.930 . S
H2227 C2224 0.929 . S
S2228 N2229 1.613 . S
S2228 N2230 1.610 . S
N2229 S2228 1.613 . S
N2229 C2232 1.350 . S
N2230 S2228 1.610 . S
N2230 C2231 1.351 . S
C2231 C2225 1.428 . S
C2231 N2230 1.351 . S
C2231 C2232 1.434 . S
C2232 C2223 1.429 . S
C2232 N2229 1.350 . S
C2232 C2231 1.434 . S
C2233 C2234 1.369 . S
C2233 C2235 1.419 . S
C2233 H2237 0.930 . S
C2234 C2233 1.369 . S
C2234 C2243 1.429 . S
C2235 C2233 1.419 . S
C2235 C2236 1.363 . S
C2235 H2238 0.929 . S
C2236 C2235 1.363 . S
C2236 C2242 1.428 . S
H2237 C2233 0.930 . S
H2238 C2235 0.929 . S
S2239 N2240 1.613 . S
S2239 N2241 1.610 . S
N2240 S2239 1.613 . S
N2240 C2243 1.350 . S
N2241 S2239 1.610 . S
N2241 C2242 1.351 . S
C2242 C2236 1.428 . S
C2242 N2241 1.351 . S
C2242 C2243 1.434 . S
C2243 C2234 1.429 . S
C2243 N2240 1.350 . S
C2243 C2242 1.434 . S
C2244 C2245 1.369 . S
C2244 C2246 1.419 1_565 S
C2244 H2248 0.930 . S
C2245 C2244 1.369 . S
C2245 C2254 1.429 . S
C2246 C2244 1.419 1_545 S
C2246 C2247 1.363 . S
C2246 H2249 0.929 . S
C2247 C2246 1.363 . S
C2247 C2253 1.428 . S
H2248 C2244 0.930 . S
H2249 C2246 0.929 . S
S2250 N2251 1.613 . S
S2250 N2252 1.610 1_565 S
N2251 S2250 1.613 . S
N2251 C2254 1.350 . S
N2252 S2250 1.610 1_545 S
N2252 C2253 1.351 . S
C2253 C2247 1.428 . S
C2253 N2252 1.351 . S
C2253 C2254 1.434 1_545 S
C2254 C2245 1.429 . S
C2254 N2251 1.350 . S
C2254 C2253 1.434 1_565 S
C2255 C2256 1.369 . S
C2255 C2257 1.419 1_655 S
C2255 H2259 0.930 . S
C2256 C2255 1.369 . S
C2256 C2265 1.429 . S
C2257 C2255 1.419 1_455 S
C2257 C2258 1.363 . S
C2257 H2260 0.929 . S
C2258 C2257 1.363 . S
C2258 C2264 1.428 . S
H2259 C2255 0.930 . S
H2260 C2257 0.929 . S
S2261 N2262 1.613 . S
S2261 N2263 1.610 1_655 S
N2262 S2261 1.613 . S
N2262 C2265 1.350 . S
N2263 S2261 1.610 1_455 S
N2263 C2264 1.351 . S
C2264 C2258 1.428 . S
C2264 N2263 1.351 . S
C2264 C2265 1.434 1_455 S
C2265 C2256 1.429 . S
C2265 N2262 1.350 . S
C2265 C2264 1.434 1_655 S
C2266 C2267 1.369 . S
C2266 C2268 1.419 1_565 S
C2266 H2270 0.930 . S
C2267 C2266 1.369 . S
C2267 C2276 1.429 . S
C2268 C2266 1.419 1_545 S
C2268 C2269 1.363 . S
C2268 H2271 0.929 . S
C2269 C2268 1.363 . S
C2269 C2275 1.428 . S
H2270 C2266 0.930 . S
H2271 C2268 0.929 . S
S2272 N2273 1.613 . S
S2272 N2274 1.610 1_565 S
N2273 S2272 1.613 . S
N2273 C2276 1.350 . S
N2274 S2272 1.610 1_545 S
N2274 C2275 1.351 . S
C2275 C2269 1.428 . S
C2275 N2274 1.351 . S
C2275 C2276 1.434 1_545 S
C2276 C2267 1.429 . S
C2276 N2273 1.350 . S
C2276 C2275 1.434 1_565 S
C2277 C2278 1.369 . S
C2277 C2279 1.419 1_655 S
C2277 H2281 0.930 . S
C2278 C2277 1.369 . S
C2278 C2287 1.429 . S
C2279 C2277 1.419 1_455 S
C2279 C2280 1.363 . S
C2279 H2282 0.929 . S
C2280 C2279 1.363 . S
C2280 C2286 1.428 . S
H2281 C2277 0.930 . S
H2282 C2279 0.929 . S
S2283 N2284 1.613 . S
S2283 N2285 1.610 1_655 S
N2284 S2283 1.613 . S
N2284 C2287 1.350 . S
N2285 S2283 1.610 1_455 S
N2285 C2286 1.351 . S
C2286 C2280 1.428 . S
C2286 N2285 1.351 . S
C2286 C2287 1.434 1_455 S
C2287 C2278 1.429 . S
C2287 N2284 1.350 . S
C2287 C2286 1.434 1_655 S
C2288 C2289 1.369 . S
C2288 C2290 1.419 1_565 S
C2288 H2292 0.930 . S
C2289 C2288 1.369 . S
C2289 C2298 1.429 . S
C2290 C2288 1.419 1_545 S
C2290 C2291 1.363 . S
C2290 H2293 0.929 . S
C2291 C2290 1.363 . S
C2291 C2297 1.428 . S
H2292 C2288 0.930 . S
H2293 C2290 0.929 . S
S2294 N2295 1.613 1_545 S
S2294 N2296 1.610 . S
N2295 S2294 1.613 1_565 S
N2295 C2298 1.350 . S
N2296 S2294 1.610 . S
N2296 C2297 1.351 . S
C2297 C2291 1.428 . S
C2297 N2296 1.351 . S
C2297 C2298 1.434 1_545 S
C2298 C2289 1.429 . S
C2298 N2295 1.350 . S
C2298 C2297 1.434 1_565 S
C2299 C2300 1.369 . S
C2299 C2301 1.419 1_455 S
C2299 H2303 0.930 . S
C2300 C2299 1.369 . S
C2300 C2309 1.429 . S
C2301 C2299 1.419 1_655 S
C2301 C2302 1.363 . S
C2301 H2304 0.929 . S
C2302 C2301 1.363 . S
C2302 C2308 1.428 . S
H2303 C2299 0.930 . S
H2304 C2301 0.929 . S
S2305 N2306 1.613 1_655 S
S2305 N2307 1.610 . S
N2306 S2305 1.613 1_455 S
N2306 C2309 1.350 . S
N2307 S2305 1.610 . S
N2307 C2308 1.351 . S
C2308 C2302 1.428 . S
C2308 N2307 1.351 . S
C2308 C2309 1.434 1_655 S
C2309 C2300 1.429 . S
C2309 N2306 1.350 . S
C2309 C2308 1.434 1_455 S
C2310 C2311 1.369 . S
C2310 C2312 1.419 1_545 S
C2310 H2314 0.930 . S
C2311 C2310 1.369 . S
C2311 C2320 1.429 . S
C2312 C2310 1.419 1_565 S
C2312 C2313 1.363 . S
C2312 H2315 0.929 . S
C2313 C2312 1.363 . S
C2313 C2319 1.428 . S
H2314 C2310 0.930 . S
H2315 C2312 0.929 . S
S2316 N2317 1.613 1_565 S
S2316 N2318 1.610 . S
N2317 S2316 1.613 1_545 S
N2317 C2320 1.350 . S
N2318 S2316 1.610 . S
N2318 C2319 1.351 . S
C2319 C2313 1.428 . S
C2319 N2318 1.351 . S
C2319 C2320 1.434 1_565 S
C2320 C2311 1.429 . S
C2320 N2317 1.350 . S
C2320 C2319 1.434 1_545 S
C2321 C2322 1.369 . S
C2321 C2323 1.419 1_455 S
C2321 H2325 0.930 . S
C2322 C2321 1.369 . S
C2322 C2331 1.429 . S
C2323 C2321 1.419 1_655 S
C2323 C2324 1.363 . S
C2323 H2326 0.929 . S
C2324 C2323 1.363 . S
C2324 C2330 1.428 . S
H2325 C2321 0.930 . S
H2326 C2323 0.929 . S
S2327 N2328 1.613 . S
S2327 N2329 1.610 1_455 S
N2328 S2327 1.613 . S
N2328 C2331 1.350 . S
N2329 S2327 1.610 1_655 S
N2329 C2330 1.351 . S
C2330 C2324 1.428 . S
C2330 N2329 1.351 . S
C2330 C2331 1.434 1_655 S
C2331 C2322 1.429 . S
C2331 N2328 1.350 . S
C2331 C2330 1.434 1_455 S
C2332 C2333 1.369 . S
C2332 C2334 1.419 1_556 S
C2332 H2336 0.930 . S
C2333 C2332 1.369 . S
C2333 C2342 1.429 . S
C2334 C2332 1.419 1_554 S
C2334 C2335 1.363 . S
C2334 H2337 0.929 . S
C2335 C2334 1.363 . S
C2335 C2341 1.428 . S
H2336 C2332 0.930 . S
H2337 C2334 0.929 . S
S2338 N2339 1.613 1_554 S
S2338 N2340 1.610 . S
N2339 S2338 1.613 1_556 S
N2339 C2342 1.350 . S
N2340 S2338 1.610 . S
N2340 C2341 1.351 . S
C2341 C2335 1.428 . S
C2341 N2340 1.351 . S
C2341 C2342 1.434 1_554 S
C2342 C2333 1.429 . S
C2342 N2339 1.350 . S
C2342 C2341 1.434 1_556 S
C2343 C2344 1.369 . S
C2343 C2345 1.419 1_556 S
C2343 H2347 0.930 . S
C2344 C2343 1.369 . S
C2344 C2353 1.429 . S
C2345 C2343 1.419 1_554 S
C2345 C2346 1.363 . S
C2345 H2348 0.929 . S
C2346 C2345 1.363 . S
C2346 C2352 1.428 . S
H2347 C2343 0.930 . S
H2348 C2345 0.929 . S
S2349 N2350 1.613 1_554 S
S2349 N2351 1.610 . S
N2350 S2349 1.613 1_556 S
N2350 C2353 1.350 . S
N2351 S2349 1.610 . S
N2351 C2352 1.351 . S
C2352 C2346 1.428 . S
C2352 N2351 1.351 . S
C2352 C2353 1.434 1_554 S
C2353 C2344 1.429 . S
C2353 N2350 1.350 . S
C2353 C2352 1.434 1_556 S
C2354 C2355 1.369 . S
C2354 C2356 1.419 1_554 S
C2354 H2358 0.930 . S
C2355 C2354 1.369 . S
C2355 C2364 1.429 . S
C2356 C2354 1.419 1_556 S
C2356 C2357 1.363 . S
C2356 H2359 0.929 . S
C2357 C2356 1.363 . S
C2357 C2363 1.428 . S
H2358 C2354 0.930 . S
H2359 C2356 0.929 . S
S2360 N2361 1.613 . S
S2360 N2362 1.610 1_554 S
N2361 S2360 1.613 . S
N2361 C2364 1.350 . S
N2362 S2360 1.610 1_556 S
N2362 C2363 1.351 . S
C2363 C2357 1.428 . S
C2363 N2362 1.351 . S
C2363 C2364 1.434 1_556 S
C2364 C2355 1.429 . S
C2364 N2361 1.350 . S
C2364 C2363 1.434 1_554 S
C2365 C2366 1.369 . S
C2365 C2367 1.419 1_554 S
C2365 H2369 0.930 . S
C2366 C2365 1.369 . S
C2366 C2375 1.429 . S
C2367 C2365 1.419 1_556 S
C2367 C2368 1.363 . S
C2367 H2370 0.929 . S
C2368 C2367 1.363 . S
C2368 C2374 1.428 . S
H2369 C2365 0.930 . S
H2370 C2367 0.929 . S
S2371 N2372 1.613 1_556 S
S2371 N2373 1.610 . S
N2372 S2371 1.613 1_554 S
N2372 C2375 1.350 . S
N2373 S2371 1.610 . S
N2373 C2374 1.351 . S
C2374 C2368 1.428 . S
C2374 N2373 1.351 . S
C2374 C2375 1.434 1_556 S
C2375 C2366 1.429 . S
C2375 N2372 1.350 . S
C2375 C2374 1.434 1_554 S
C2376 C2377 1.369 . S
C2376 C2378 1.419 . S
C2376 H2380 0.930 . S
C2377 C2376 1.369 . S
C2377 C2386 1.429 . S
C2378 C2376 1.419 . S
C2378 C2379 1.363 . S
C2378 H2381 0.929 . S
C2379 C2378 1.363 . S
C2379 C2385 1.428 . S
H2380 C2376 0.930 . S
H2381 C2378 0.929 . S
S2382 N2383 1.613 . S
S2382 N2384 1.610 . S
N2383 S2382 1.613 . S
N2383 C2386 1.350 . S
N2384 S2382 1.610 . S
N2384 C2385 1.351 . S
C2385 C2379 1.428 . S
C2385 N2384 1.351 . S
C2385 C2386 1.434 . S
C2386 C2377 1.429 . S
C2386 N2383 1.350 . S
C2386 C2385 1.434 . S
C2387 C2388 1.369 . S
C2387 C2389 1.419 . S
C2387 H2391 0.930 . S
C2388 C2387 1.369 . S
C2388 C2397 1.429 . S
C2389 C2387 1.419 . S
C2389 C2390 1.363 . S
C2389 H2392 0.929 . S
C2390 C2389 1.363 . S
C2390 C2396 1.428 . S
H2391 C2387 0.930 . S
H2392 C2389 0.929 . S
S2393 N2394 1.613 . S
S2393 N2395 1.610 . S
N2394 S2393 1.613 . S
N2394 C2397 1.350 . S
N2395 S2393 1.610 . S
N2395 C2396 1.351 . S
C2396 C2390 1.428 . S
C2396 N2395 1.351 . S
C2396 C2397 1.434 . S
C2397 C2388 1.429 . S
C2397 N2394 1.350 . S
C2397 C2396 1.434 . S
C2398 C2399 1.369 . S
C2398 C2400 1.419 . S
C2398 H2402 0.930 . S
C2399 C2398 1.369 . S
C2399 C2408 1.429 . S
C2400 C2398 1.419 . S
C2400 C2401 1.363 . S
C2400 H2403 0.929 . S
C2401 C2400 1.363 . S
C2401 C2407 1.428 . S
H2402 C2398 0.930 . S
H2403 C2400 0.929 . S
S2404 N2405 1.613 . S
S2404 N2406 1.610 . S
N2405 S2404 1.613 . S
N2405 C2408 1.350 . S
N2406 S2404 1.610 . S
N2406 C2407 1.351 . S
C2407 C2401 1.428 . S
C2407 N2406 1.351 . S
C2407 C2408 1.434 . S
C2408 C2399 1.429 . S
C2408 N2405 1.350 . S
C2408 C2407 1.434 . S
C2409 C2410 1.369 . S
C2409 C2411 1.419 . S
C2409 H2413 0.930 . S
C2410 C2409 1.369 . S
C2410 C2419 1.429 . S
C2411 C2409 1.419 . S
C2411 C2412 1.363 . S
C2411 H2414 0.929 . S
C2412 C2411 1.363 . S
C2412 C2418 1.428 . S
H2413 C2409 0.930 . S
H2414 C2411 0.929 . S
S2415 N2416 1.613 . S
S2415 N2417 1.610 . S
N2416 S2415 1.613 . S
N2416 C2419 1.350 . S
N2417 S2415 1.610 . S
N2417 C2418 1.351 . S
C2418 C2412 1.428 . S
C2418 N2417 1.351 . S
C2418 C2419 1.434 . S
C2419 C2410 1.429 . S
C2419 N2416 1.350 . S
C2419 C2418 1.434 . S
C2420 C2421 1.369 . S
C2420 C2422 1.419 . S
C2420 H2424 0.930 . S
C2421 C2420 1.369 . S
C2421 C2430 1.429 . S
C2422 C2420 1.419 . S
C2422 C2423 1.363 . S
C2422 H2425 0.929 . S
C2423 C2422 1.363 . S
C2423 C2429 1.428 . S
H2424 C2420 0.930 . S
H2425 C2422 0.929 . S
S2426 N2427 1.613 . S
S2426 N2428 1.610 . S
N2427 S2426 1.613 . S
N2427 C2430 1.350 . S
N2428 S2426 1.610 . S
N2428 C2429 1.351 . S
C2429 C2423 1.428 . S
C2429 N2428 1.351 . S
C2429 C2430 1.434 . S
C2430 C2421 1.429 . S
C2430 N2427 1.350 . S
C2430 C2429 1.434 . S
C2431 C2432 1.369 . S
C2431 C2433 1.419 . S
C2431 H2435 0.930 . S
C2432 C2431 1.369 . S
C2432 C2441 1.429 . S
C2433 C2431 1.419 . S
C2433 C2434 1.363 . S
C2433 H2436 0.929 . S
C2434 C2433 1.363 . S
C2434 C2440 1.428 . S
H2435 C2431 0.930 . S
H2436 C2433 0.929 . S
S2437 N2438 1.613 . S
S2437 N2439 1.610 . S
N2438 S2437 1.613 . S
N2438 C2441 1.350 . S
N2439 S2437 1.610 . S
N2439 C2440 1.351 . S
C2440 C2434 1.428 . S
C2440 N2439 1.351 . S
C2440 C2441 1.434 . S
C2441 C2432 1.429 . S
C2441 N2438 1.350 . S
C2441 C2440 1.434 . S
C2442 C2443 1.369 . S
C2442 C2444 1.419 . S
C2442 H2446 0.930 . S
C2443 C2442 1.369 . S
C2443 C2452 1.429 . S
C2444 C2442 1.419 . S
C2444 C2445 1.363 . S
C2444 H2447 0.929 . S
C2445 C2444 1.363 . S
C2445 C2451 1.428 . S
H2446 C2442 0.930 . S
H2447 C2444 0.929 . S
S2448 N2449 1.613 . S
S2448 N2450 1.610 . S
N2449 S2448 1.613 . S
N2449 C2452 1.350 . S
N2450 S2448 1.610 . S
N2450 C2451 1.351 . S
C2451 C2445 1.428 . S
C2451 N2450 1.351 . S
C2451 C2452 1.434 . S
C2452 C2443 1.429 . S
C2452 N2449 1.350 . S
C2452 C2451 1.434 . S
C2453 C2454 1.369 . S
C2453 C2455 1.419 . S
C2453 H2457 0.930 . S
C2454 C2453 1.369 . S
C2454 C2463 1.429 . S
C2455 C2453 1.419 . S
C2455 C2456 1.363 . S
C2455 H2458 0.929 . S
C2456 C2455 1.363 . S
C2456 C2462 1.428 . S
H2457 C2453 0.930 . S
H2458 C2455 0.929 . S
S2459 N2460 1.613 . S
S2459 N2461 1.610 . S
N2460 S2459 1.613 . S
N2460 C2463 1.350 . S
N2461 S2459 1.610 . S
N2461 C2462 1.351 . S
C2462 C2456 1.428 . S
C2462 N2461 1.351 . S
C2462 C2463 1.434 . S
C2463 C2454 1.429 . S
C2463 N2460 1.350 . S
C2463 C2462 1.434 . S
C2464 C2465 1.369 . S
C2464 C2466 1.419 . S
C2464 H2468 0.930 . S
C2465 C2464 1.369 . S
C2465 C2474 1.429 . S
C2466 C2464 1.419 . S
C2466 C2467 1.363 . S
C2466 H2469 0.929 . S
C2467 C2466 1.363 . S
C2467 C2473 1.428 . S
H2468 C2464 0.930 . S
H2469 C2466 0.929 . S
S2470 N2471 1.613 . S
S2470 N2472 1.610 . S
N2471 S2470 1.613 . S
N2471 C2474 1.350 . S
N2472 S2470 1.610 . S
N2472 C2473 1.351 . S
C2473 C2467 1.428 . S
C2473 N2472 1.351 . S
C2473 C2474 1.434 . S
C2474 C2465 1.429 . S
C2474 N2471 1.350 . S
C2474 C2473 1.434 . S
C2475 C2476 1.369 . S
C2475 C2477 1.419 . S
C2475 H2479 0.930 . S
C2476 C2475 1.369 . S
C2476 C2485 1.429 . S
C2477 C2475 1.419 . S
C2477 C2478 1.363 . S
C2477 H2480 0.929 . S
C2478 C2477 1.363 . S
C2478 C2484 1.428 . S
H2479 C2475 0.930 . S
H2480 C2477 0.929 . S
S2481 N2482 1.613 . S
S2481 N2483 1.610 . S
N2482 S2481 1.613 . S
N2482 C2485 1.350 . S
N2483 S2481 1.610 . S
N2483 C2484 1.351 . S
C2484 C2478 1.428 . S
C2484 N2483 1.351 . S
C2484 C2485 1.434 . S
C2485 C2476 1.429 . S
C2485 N2482 1.350 . S
C2485 C2484 1.434 . S
C2486 C2487 1.369 . S
C2486 C2488 1.419 . S
C2486 H2490 0.930 . S
C2487 C2486 1.369 . S
C2487 C2496 1.429 . S
C2488 C2486 1.419 . S
C2488 C2489 1.363 . S
C2488 H2491 0.929 . S
C2489 C2488 1.363 . S
C2489 C2495 1.428 . S
H2490 C2486 0.930 . S
H2491 C2488 0.929 . S
S2492 N2493 1.613 . S
S2492 N2494 1.610 . S
N2493 S2492 1.613 . S
N2493 C2496 1.350 . S
N2494 S2492 1.610 . S
N2494 C2495 1.351 . S
C2495 C2489 1.428 . S
C2495 N2494 1.351 . S
C2495 C2496 1.434 . S
C2496 C2487 1.429 . S
C2496 N2493 1.350 . S
C2496 C2495 1.434 . S
C2497 C2498 1.369 . S
C2497 C2499 1.419 . S
C2497 H2501 0.930 . S
C2498 C2497 1.369 . S
C2498 C2507 1.429 . S
C2499 C2497 1.419 . S
C2499 C2500 1.363 . S
C2499 H2502 0.929 . S
C2500 C2499 1.363 . S
C2500 C2506 1.428 . S
H2501 C2497 0.930 . S
H2502 C2499 0.929 . S
S2503 N2504 1.613 . S
S2503 N2505 1.610 . S
N2504 S2503 1.613 . S
N2504 C2507 1.350 . S
N2505 S2503 1.610 . S
N2505 C2506 1.351 . S
C2506 C2500 1.428 . S
C2506 N2505 1.351 . S
C2506 C2507 1.434 . S
C2507 C2498 1.429 . S
C2507 N2504 1.350 . S
C2507 C2506 1.434 . S
C2508 C2509 1.369 . S
C2508 C2510 1.419 . S
C2508 H2512 0.930 . S
C2509 C2508 1.369 . S
C2509 C2518 1.429 . S
C2510 C2508 1.419 . S
C2510 C2511 1.363 . S
C2510 H2513 0.929 . S
C2511 C2510 1.363 . S
C2511 C2517 1.428 . S
H2512 C2508 0.930 . S
H2513 C2510 0.929 . S
S2514 N2515 1.613 . S
S2514 N2516 1.610 . S
N2515 S2514 1.613 . S
N2515 C2518 1.350 . S
N2516 S2514 1.610 . S
N2516 C2517 1.351 . S
C2517 C2511 1.428 . S
C2517 N2516 1.351 . S
C2517 C2518 1.434 . S
C2518 C2509 1.429 . S
C2518 N2515 1.350 . S
C2518 C2517 1.434 . S
C2519 C2520 1.369 . S
C2519 C2521 1.419 . S
C2519 H2523 0.930 . S
C2520 C2519 1.369 . S
C2520 C2529 1.429 . S
C2521 C2519 1.419 . S
C2521 C2522 1.363 . S
C2521 H2524 0.929 . S
C2522 C2521 1.363 . S
C2522 C2528 1.428 . S
H2523 C2519 0.930 . S
H2524 C2521 0.929 . S
S2525 N2526 1.613 . S
S2525 N2527 1.610 . S
N2526 S2525 1.613 . S
N2526 C2529 1.350 . S
N2527 S2525 1.610 . S
N2527 C2528 1.351 . S
C2528 C2522 1.428 . S
C2528 N2527 1.351 . S
C2528 C2529 1.434 . S
C2529 C2520 1.429 . S
C2529 N2526 1.350 . S
C2529 C2528 1.434 . S
C2530 C2531 1.369 . S
C2530 C2532 1.419 . S
C2530 H2534 0.930 . S
C2531 C2530 1.369 . S
C2531 C2540 1.429 . S
C2532 C2530 1.419 . S
C2532 C2533 1.363 . S
C2532 H2535 0.929 . S
C2533 C2532 1.363 . S
C2533 C2539 1.428 . S
H2534 C2530 0.930 . S
H2535 C2532 0.929 . S
S2536 N2537 1.613 . S
S2536 N2538 1.610 . S
N2537 S2536 1.613 . S
N2537 C2540 1.350 . S
N2538 S2536 1.610 . S
N2538 C2539 1.351 . S
C2539 C2533 1.428 . S
C2539 N2538 1.351 . S
C2539 C2540 1.434 . S
C2540 C2531 1.429 . S
C2540 N2537 1.350 . S
C2540 C2539 1.434 . S
C2541 C2542 1.369 . S
C2541 C2543 1.419 . S
C2541 H2545 0.930 . S
C2542 C2541 1.369 . S
C2542 C2551 1.429 . S
C2543 C2541 1.419 . S
C2543 C2544 1.363 . S
C2543 H2546 0.929 . S
C2544 C2543 1.363 . S
C2544 C2550 1.428 . S
H2545 C2541 0.930 . S
H2546 C2543 0.929 . S
S2547 N2548 1.613 . S
S2547 N2549 1.610 . S
N2548 S2547 1.613 . S
N2548 C2551 1.350 . S
N2549 S2547 1.610 . S
N2549 C2550 1.351 . S
C2550 C2544 1.428 . S
C2550 N2549 1.351 . S
C2550 C2551 1.434 . S
C2551 C2542 1.429 . S
C2551 N2548 1.350 . S
C2551 C2550 1.434 . S
C2552 C2553 1.369 . S
C2552 C2554 1.419 . S
C2552 H2556 0.930 . S
C2553 C2552 1.369 . S
C2553 C2562 1.429 . S
C2554 C2552 1.419 . S
C2554 C2555 1.363 . S
C2554 H2557 0.929 . S
C2555 C2554 1.363 . S
C2555 C2561 1.428 . S
H2556 C2552 0.930 . S
H2557 C2554 0.929 . S
S2558 N2559 1.613 . S
S2558 N2560 1.610 . S
N2559 S2558 1.613 . S
N2559 C2562 1.350 . S
N2560 S2558 1.610 . S
N2560 C2561 1.351 . S
C2561 C2555 1.428 . S
C2561 N2560 1.351 . S
C2561 C2562 1.434 . S
C2562 C2553 1.429 . S
C2562 N2559 1.350 . S
C2562 C2561 1.434 . S
C2563 C2564 1.369 . S
C2563 C2565 1.419 . S
C2563 H2567 0.930 . S
C2564 C2563 1.369 . S
C2564 C2573 1.429 . S
C2565 C2563 1.419 . S
C2565 C2566 1.363 . S
C2565 H2568 0.929 . S
C2566 C2565 1.363 . S
C2566 C2572 1.428 . S
H2567 C2563 0.930 . S
H2568 C2565 0.929 . S
S2569 N2570 1.613 . S
S2569 N2571 1.610 . S
N2570 S2569 1.613 . S
N2570 C2573 1.350 . S
N2571 S2569 1.610 . S
N2571 C2572 1.351 . S
C2572 C2566 1.428 . S
C2572 N2571 1.351 . S
C2572 C2573 1.434 . S
C2573 C2564 1.429 . S
C2573 N2570 1.350 . S
C2573 C2572 1.434 . S
C2574 C2575 1.369 . S
C2574 C2576 1.419 . S
C2574 H2578 0.930 . S
C2575 C2574 1.369 . S
C2575 C2584 1.429 . S
C2576 C2574 1.419 . S
C2576 C2577 1.363 . S
C2576 H2579 0.929 . S
C2577 C2576 1.363 . S
C2577 C2583 1.428 . S
H2578 C2574 0.930 . S
H2579 C2576 0.929 . S
S2580 N2581 1.613 . S
S2580 N2582 1.610 . S
N2581 S2580 1.613 . S
N2581 C2584 1.350 . S
N2582 S2580 1.610 . S
N2582 C2583 1.351 . S
C2583 C2577 1.428 . S
C2583 N2582 1.351 . S
C2583 C2584 1.434 . S
C2584 C2575 1.429 . S
C2584 N2581 1.350 . S
C2584 C2583 1.434 . S
C2585 C2586 1.369 . S
C2585 C2587 1.419 . S
C2585 H2589 0.930 . S
C2586 C2585 1.369 . S
C2586 C2595 1.429 . S
C2587 C2585 1.419 . S
C2587 C2588 1.363 . S
C2587 H2590 0.929 . S
C2588 C2587 1.363 . S
C2588 C2594 1.428 . S
H2589 C2585 0.930 . S
H2590 C2587 0.929 . S
S2591 N2592 1.613 . S
S2591 N2593 1.610 . S
N2592 S2591 1.613 . S
N2592 C2595 1.350 . S
N2593 S2591 1.610 . S
N2593 C2594 1.351 . S
C2594 C2588 1.428 . S
C2594 N2593 1.351 . S
C2594 C2595 1.434 . S
C2595 C2586 1.429 . S
C2595 N2592 1.350 . S
C2595 C2594 1.434 . S
C2596 C2597 1.369 . S
C2596 C2598 1.419 . S
C2596 H2600 0.930 . S
C2597 C2596 1.369 . S
C2597 C2606 1.429 . S
C2598 C2596 1.419 . S
C2598 C2599 1.363 . S
C2598 H2601 0.929 . S
C2599 C2598 1.363 . S
C2599 C2605 1.428 . S
H2600 C2596 0.930 . S
H2601 C2598 0.929 . S
S2602 N2603 1.613 . S
S2602 N2604 1.610 . S
N2603 S2602 1.613 . S
N2603 C2606 1.350 . S
N2604 S2602 1.610 . S
N2604 C2605 1.351 . S
C2605 C2599 1.428 . S
C2605 N2604 1.351 . S
C2605 C2606 1.434 . S
C2606 C2597 1.429 . S
C2606 N2603 1.350 . S
C2606 C2605 1.434 . S
C2607 C2608 1.369 . S
C2607 C2609 1.419 . S
C2607 H2611 0.930 . S
C2608 C2607 1.369 . S
C2608 C2617 1.429 . S
C2609 C2607 1.419 . S
C2609 C2610 1.363 . S
C2609 H2612 0.929 . S
C2610 C2609 1.363 . S
C2610 C2616 1.428 . S
H2611 C2607 0.930 . S
H2612 C2609 0.929 . S
S2613 N2614 1.613 . S
S2613 N2615 1.610 . S
N2614 S2613 1.613 . S
N2614 C2617 1.350 . S
N2615 S2613 1.610 . S
N2615 C2616 1.351 . S
C2616 C2610 1.428 . S
C2616 N2615 1.351 . S
C2616 C2617 1.434 . S
C2617 C2608 1.429 . S
C2617 N2614 1.350 . S
C2617 C2616 1.434 . S
C2618 C2619 1.369 . S
C2618 C2620 1.419 . S
C2618 H2622 0.930 . S
C2619 C2618 1.369 . S
C2619 C2628 1.429 . S
C2620 C2618 1.419 . S
C2620 C2621 1.363 . S
C2620 H2623 0.929 . S
C2621 C2620 1.363 . S
C2621 C2627 1.428 . S
H2622 C2618 0.930 . S
H2623 C2620 0.929 . S
S2624 N2625 1.613 . S
S2624 N2626 1.610 . S
N2625 S2624 1.613 . S
N2625 C2628 1.350 . S
N2626 S2624 1.610 . S
N2626 C2627 1.351 . S
C2627 C2621 1.428 . S
C2627 N2626 1.351 . S
C2627 C2628 1.434 . S
C2628 C2619 1.429 . S
C2628 N2625 1.350 . S
C2628 C2627 1.434 . S
C2629 C2630 1.369 . S
C2629 C2631 1.419 . S
C2629 H2633 0.930 . S
C2630 C2629 1.369 . S
C2630 C2639 1.429 . S
C2631 C2629 1.419 . S
C2631 C2632 1.363 . S
C2631 H2634 0.929 . S
C2632 C2631 1.363 . S
C2632 C2638 1.428 . S
H2633 C2629 0.930 . S
H2634 C2631 0.929 . S
S2635 N2636 1.613 . S
S2635 N2637 1.610 . S
N2636 S2635 1.613 . S
N2636 C2639 1.350 . S
N2637 S2635 1.610 . S
N2637 C2638 1.351 . S
C2638 C2632 1.428 . S
C2638 N2637 1.351 . S
C2638 C2639 1.434 . S
C2639 C2630 1.429 . S
C2639 N2636 1.350 . S
C2639 C2638 1.434 . S
C2640 C2641 1.369 . S
C2640 C2642 1.419 . S
C2640 H2644 0.930 . S
C2641 C2640 1.369 . S
C2641 C2650 1.429 . S
C2642 C2640 1.419 . S
C2642 C2643 1.363 . S
C2642 H2645 0.929 . S
C2643 C2642 1.363 . S
C2643 C2649 1.428 . S
H2644 C2640 0.930 . S
H2645 C2642 0.929 . S
S2646 N2647 1.613 . S
S2646 N2648 1.610 . S
N2647 S2646 1.613 . S
N2647 C2650 1.350 . S
N2648 S2646 1.610 . S
N2648 C2649 1.351 . S
C2649 C2643 1.428 . S
C2649 N2648 1.351 . S
C2649 C2650 1.434 . S
C2650 C2641 1.429 . S
C2650 N2647 1.350 . S
C2650 C2649 1.434 . S
C2651 C2652 1.369 . S
C2651 C2653 1.419 . S
C2651 H2655 0.930 . S
C2652 C2651 1.369 . S
C2652 C2661 1.429 . S
C2653 C2651 1.419 . S
C2653 C2654 1.363 . S
C2653 H2656 0.929 . S
C2654 C2653 1.363 . S
C2654 C2660 1.428 . S
H2655 C2651 0.930 . S
H2656 C2653 0.929 . S
S2657 N2658 1.613 . S
S2657 N2659 1.610 . S
N2658 S2657 1.613 . S
N2658 C2661 1.350 . S
N2659 S2657 1.610 . S
N2659 C2660 1.351 . S
C2660 C2654 1.428 . S
C2660 N2659 1.351 . S
C2660 C2661 1.434 . S
C2661 C2652 1.429 . S
C2661 N2658 1.350 . S
C2661 C2660 1.434 . S
C2662 C2663 1.369 . S
C2662 C2664 1.419 . S
C2662 H2666 0.930 . S
C2663 C2662 1.369 . S
C2663 C2672 1.429 . S
C2664 C2662 1.419 . S
C2664 C2665 1.363 . S
C2664 H2667 0.929 . S
C2665 C2664 1.363 . S
C2665 C2671 1.428 . S
H2666 C2662 0.930 . S
H2667 C2664 0.929 . S
S2668 N2669 1.613 . S
S2668 N2670 1.610 . S
N2669 S2668 1.613 . S
N2669 C2672 1.350 . S
N2670 S2668 1.610 . S
N2670 C2671 1.351 . S
C2671 C2665 1.428 . S
C2671 N2670 1.351 . S
C2671 C2672 1.434 . S
C2672 C2663 1.429 . S
C2672 N2669 1.350 . S
C2672 C2671 1.434 . S
C2673 C2674 1.369 . S
C2673 C2675 1.419 . S
C2673 H2677 0.930 . S
C2674 C2673 1.369 . S
C2674 C2683 1.429 . S
C2675 C2673 1.419 . S
C2675 C2676 1.363 . S
C2675 H2678 0.929 . S
C2676 C2675 1.363 . S
C2676 C2682 1.428 . S
H2677 C2673 0.930 . S
H2678 C2675 0.929 . S
S2679 N2680 1.613 . S
S2679 N2681 1.610 . S
N2680 S2679 1.613 . S
N2680 C2683 1.350 . S
N2681 S2679 1.610 . S
N2681 C2682 1.351 . S
C2682 C2676 1.428 . S
C2682 N2681 1.351 . S
C2682 C2683 1.434 . S
C2683 C2674 1.429 . S
C2683 N2680 1.350 . S
C2683 C2682 1.434 . S
C2684 C2685 1.369 . S
C2684 C2686 1.419 . S
C2684 H2688 0.930 . S
C2685 C2684 1.369 . S
C2685 C2694 1.429 . S
C2686 C2684 1.419 . S
C2686 C2687 1.363 . S
C2686 H2689 0.929 . S
C2687 C2686 1.363 . S
C2687 C2693 1.428 . S
H2688 C2684 0.930 . S
H2689 C2686 0.929 . S
S2690 N2691 1.613 . S
S2690 N2692 1.610 . S
N2691 S2690 1.613 . S
N2691 C2694 1.350 . S
N2692 S2690 1.610 . S
N2692 C2693 1.351 . S
C2693 C2687 1.428 . S
C2693 N2692 1.351 . S
C2693 C2694 1.434 . S
C2694 C2685 1.429 . S
C2694 N2691 1.350 . S
C2694 C2693 1.434 . S
C2695 C2696 1.369 . S
C2695 C2697 1.419 . S
C2695 H2699 0.930 . S
C2696 C2695 1.369 . S
C2696 C2705 1.429 . S
C2697 C2695 1.419 . S
C2697 C2698 1.363 . S
C2697 H2700 0.929 . S
C2698 C2697 1.363 . S
C2698 C2704 1.428 . S
H2699 C2695 0.930 . S
H2700 C2697 0.929 . S
S2701 N2702 1.613 . S
S2701 N2703 1.610 . S
N2702 S2701 1.613 . S
N2702 C2705 1.350 . S
N2703 S2701 1.610 . S
N2703 C2704 1.351 . S
C2704 C2698 1.428 . S
C2704 N2703 1.351 . S
C2704 C2705 1.434 . S
C2705 C2696 1.429 . S
C2705 N2702 1.350 . S
C2705 C2704 1.434 . S
C2706 C2707 1.369 . S
C2706 C2708 1.419 . S
C2706 H2710 0.930 . S
C2707 C2706 1.369 . S
C2707 C2716 1.429 . S
C2708 C2706 1.419 . S
C2708 C2709 1.363 . S
C2708 H2711 0.929 . S
C2709 C2708 1.363 . S
C2709 C2715 1.428 . S
H2710 C2706 0.930 . S
H2711 C2708 0.929 . S
S2712 N2713 1.613 . S
S2712 N2714 1.610 . S
N2713 S2712 1.613 . S
N2713 C2716 1.350 . S
N2714 S2712 1.610 . S
N2714 C2715 1.351 . S
C2715 C2709 1.428 . S
C2715 N2714 1.351 . S
C2715 C2716 1.434 . S
C2716 C2707 1.429 . S
C2716 N2713 1.350 . S
C2716 C2715 1.434 . S
C2717 C2718 1.369 . S
C2717 C2719 1.419 . S
C2717 H2721 0.930 . S
C2718 C2717 1.369 . S
C2718 C2727 1.429 . S
C2719 C2717 1.419 . S
C2719 C2720 1.363 . S
C2719 H2722 0.929 . S
C2720 C2719 1.363 . S
C2720 C2726 1.428 . S
H2721 C2717 0.930 . S
H2722 C2719 0.929 . S
S2723 N2724 1.613 . S
S2723 N2725 1.610 . S
N2724 S2723 1.613 . S
N2724 C2727 1.350 . S
N2725 S2723 1.610 . S
N2725 C2726 1.351 . S
C2726 C2720 1.428 . S
C2726 N2725 1.351 . S
C2726 C2727 1.434 . S
C2727 C2718 1.429 . S
C2727 N2724 1.350 . S
C2727 C2726 1.434 . S
C2728 C2729 1.369 . S
C2728 C2730 1.419 . S
C2728 H2732 0.930 . S
C2729 C2728 1.369 . S
C2729 C2738 1.429 . S
C2730 C2728 1.419 . S
C2730 C2731 1.363 . S
C2730 H2733 0.929 . S
C2731 C2730 1.363 . S
C2731 C2737 1.428 . S
H2732 C2728 0.930 . S
H2733 C2730 0.929 . S
S2734 N2735 1.613 . S
S2734 N2736 1.610 . S
N2735 S2734 1.613 . S
N2735 C2738 1.350 . S
N2736 S2734 1.610 . S
N2736 C2737 1.351 . S
C2737 C2731 1.428 . S
C2737 N2736 1.351 . S
C2737 C2738 1.434 . S
C2738 C2729 1.429 . S
C2738 N2735 1.350 . S
C2738 C2737 1.434 . S
C2739 C2740 1.369 . S
C2739 C2741 1.419 . S
C2739 H2743 0.930 . S
C2740 C2739 1.369 . S
C2740 C2749 1.429 . S
C2741 C2739 1.419 . S
C2741 C2742 1.363 . S
C2741 H2744 0.929 . S
C2742 C2741 1.363 . S
C2742 C2748 1.428 . S
H2743 C2739 0.930 . S
H2744 C2741 0.929 . S
S2745 N2746 1.613 . S
S2745 N2747 1.610 . S
N2746 S2745 1.613 . S
N2746 C2749 1.350 . S
N2747 S2745 1.610 . S
N2747 C2748 1.351 . S
C2748 C2742 1.428 . S
C2748 N2747 1.351 . S
C2748 C2749 1.434 . S
C2749 C2740 1.429 . S
C2749 N2746 1.350 . S
C2749 C2748 1.434 . S
C2750 C2751 1.369 . S
C2750 C2752 1.419 . S
C2750 H2754 0.930 . S
C2751 C2750 1.369 . S
C2751 C2760 1.429 . S
C2752 C2750 1.419 . S
C2752 C2753 1.363 . S
C2752 H2755 0.929 . S
C2753 C2752 1.363 . S
C2753 C2759 1.428 . S
H2754 C2750 0.930 . S
H2755 C2752 0.929 . S
S2756 N2757 1.613 . S
S2756 N2758 1.610 . S
N2757 S2756 1.613 . S
N2757 C2760 1.350 . S
N2758 S2756 1.610 . S
N2758 C2759 1.351 . S
C2759 C2753 1.428 . S
C2759 N2758 1.351 . S
C2759 C2760 1.434 . S
C2760 C2751 1.429 . S
C2760 N2757 1.350 . S
C2760 C2759 1.434 . S
C2761 C2762 1.369 . S
C2761 C2763 1.419 . S
C2761 H2765 0.930 . S
C2762 C2761 1.369 . S
C2762 C2771 1.429 . S
C2763 C2761 1.419 . S
C2763 C2764 1.363 . S
C2763 H2766 0.929 . S
C2764 C2763 1.363 . S
C2764 C2770 1.428 . S
H2765 C2761 0.930 . S
H2766 C2763 0.929 . S
S2767 N2768 1.613 . S
S2767 N2769 1.610 . S
N2768 S2767 1.613 . S
N2768 C2771 1.350 . S
N2769 S2767 1.610 . S
N2769 C2770 1.351 . S
C2770 C2764 1.428 . S
C2770 N2769 1.351 . S
C2770 C2771 1.434 . S
C2771 C2762 1.429 . S
C2771 N2768 1.350 . S
C2771 C2770 1.434 . S
C2772 C2773 1.369 . S
C2772 C2774 1.419 . S
C2772 H2776 0.930 . S
C2773 C2772 1.369 . S
C2773 C2782 1.429 . S
C2774 C2772 1.419 . S
C2774 C2775 1.363 . S
C2774 H2777 0.929 . S
C2775 C2774 1.363 . S
C2775 C2781 1.428 . S
H2776 C2772 0.930 . S
H2777 C2774 0.929 . S
S2778 N2779 1.613 . S
S2778 N2780 1.610 . S
N2779 S2778 1.613 . S
N2779 C2782 1.350 . S
N2780 S2778 1.610 . S
N2780 C2781 1.351 . S
C2781 C2775 1.428 . S
C2781 N2780 1.351 . S
C2781 C2782 1.434 . S
C2782 C2773 1.429 . S
C2782 N2779 1.350 . S
C2782 C2781 1.434 . S
C2783 C2784 1.369 . S
C2783 C2785 1.419 . S
C2783 H2787 0.930 . S
C2784 C2783 1.369 . S
C2784 C2793 1.429 . S
C2785 C2783 1.419 . S
C2785 C2786 1.363 . S
C2785 H2788 0.929 . S
C2786 C2785 1.363 . S
C2786 C2792 1.428 . S
H2787 C2783 0.930 . S
H2788 C2785 0.929 . S
S2789 N2790 1.613 . S
S2789 N2791 1.610 . S
N2790 S2789 1.613 . S
N2790 C2793 1.350 . S
N2791 S2789 1.610 . S
N2791 C2792 1.351 . S
C2792 C2786 1.428 . S
C2792 N2791 1.351 . S
C2792 C2793 1.434 . S
C2793 C2784 1.429 . S
C2793 N2790 1.350 . S
C2793 C2792 1.434 . S
C2794 C2795 1.369 . S
C2794 C2796 1.419 . S
C2794 H2798 0.930 . S
C2795 C2794 1.369 . S
C2795 C2804 1.429 . S
C2796 C2794 1.419 . S
C2796 C2797 1.363 . S
C2796 H2799 0.929 . S
C2797 C2796 1.363 . S
C2797 C2803 1.428 . S
H2798 C2794 0.930 . S
H2799 C2796 0.929 . S
S2800 N2801 1.613 . S
S2800 N2802 1.610 . S
N2801 S2800 1.613 . S
N2801 C2804 1.350 . S
N2802 S2800 1.610 . S
N2802 C2803 1.351 . S
C2803 C2797 1.428 . S
C2803 N2802 1.351 . S
C2803 C2804 1.434 . S
C2804 C2795 1.429 . S
C2804 N2801 1.350 . S
C2804 C2803 1.434 . S
C2805 C2806 1.369 . S
C2805 C2807 1.419 . S
C2805 H2809 0.930 . S
C2806 C2805 1.369 . S
C2806 C2815 1.429 . S
C2807 C2805 1.419 . S
C2807 C2808 1.363 . S
C2807 H2810 0.929 . S
C2808 C2807 1.363 . S
C2808 C2814 1.428 . S
H2809 C2805 0.930 . S
H2810 C2807 0.929 . S
S2811 N2812 1.613 . S
S2811 N2813 1.610 . S
N2812 S2811 1.613 . S
N2812 C2815 1.350 . S
N2813 S2811 1.610 . S
N2813 C2814 1.351 . S
C2814 C2808 1.428 . S
C2814 N2813 1.351 . S
C2814 C2815 1.434 . S
C2815 C2806 1.429 . S
C2815 N2812 1.350 . S
C2815 C2814 1.434 . S
C2816 C2817 1.369 . S
C2816 C2818 1.419 . S
C2816 H2820 0.930 . S
C2817 C2816 1.369 . S
C2817 C2826 1.429 . S
C2818 C2816 1.419 . S
C2818 C2819 1.363 . S
C2818 H2821 0.929 . S
C2819 C2818 1.363 . S
C2819 C2825 1.428 . S
H2820 C2816 0.930 . S
H2821 C2818 0.929 . S
S2822 N2823 1.613 . S
S2822 N2824 1.610 . S
N2823 S2822 1.613 . S
N2823 C2826 1.350 . S
N2824 S2822 1.610 . S
N2824 C2825 1.351 . S
C2825 C2819 1.428 . S
C2825 N2824 1.351 . S
C2825 C2826 1.434 . S
C2826 C2817 1.429 . S
C2826 N2823 1.350 . S
C2826 C2825 1.434 . S
C2827 C2828 1.369 . S
C2827 C2829 1.419 . S
C2827 H2831 0.930 . S
C2828 C2827 1.369 . S
C2828 C2837 1.429 . S
C2829 C2827 1.419 . S
C2829 C2830 1.363 . S
C2829 H2832 0.929 . S
C2830 C2829 1.363 . S
C2830 C2836 1.428 . S
H2831 C2827 0.930 . S
H2832 C2829 0.929 . S
S2833 N2834 1.613 . S
S2833 N2835 1.610 . S
N2834 S2833 1.613 . S
N2834 C2837 1.350 . S
N2835 S2833 1.610 . S
N2835 C2836 1.351 . S
C2836 C2830 1.428 . S
C2836 N2835 1.351 . S
C2836 C2837 1.434 . S
C2837 C2828 1.429 . S
C2837 N2834 1.350 . S
C2837 C2836 1.434 . S
C2838 C2839 1.369 . S
C2838 C2840 1.419 . S
C2838 H2842 0.930 . S
C2839 C2838 1.369 . S
C2839 C2848 1.429 . S
C2840 C2838 1.419 . S
C2840 C2841 1.363 . S
C2840 H2843 0.929 . S
C2841 C2840 1.363 . S
C2841 C2847 1.428 . S
H2842 C2838 0.930 . S
H2843 C2840 0.929 . S
S2844 N2845 1.613 . S
S2844 N2846 1.610 . S
N2845 S2844 1.613 . S
N2845 C2848 1.350 . S
N2846 S2844 1.610 . S
N2846 C2847 1.351 . S
C2847 C2841 1.428 . S
C2847 N2846 1.351 . S
C2847 C2848 1.434 . S
C2848 C2839 1.429 . S
C2848 N2845 1.350 . S
C2848 C2847 1.434 . S
C2849 C2850 1.369 . S
C2849 C2851 1.419 . S
C2849 H2853 0.930 . S
C2850 C2849 1.369 . S
C2850 C2859 1.429 . S
C2851 C2849 1.419 . S
C2851 C2852 1.363 . S
C2851 H2854 0.929 . S
C2852 C2851 1.363 . S
C2852 C2858 1.428 . S
H2853 C2849 0.930 . S
H2854 C2851 0.929 . S
S2855 N2856 1.613 . S
S2855 N2857 1.610 . S
N2856 S2855 1.613 . S
N2856 C2859 1.350 . S
N2857 S2855 1.610 . S
N2857 C2858 1.351 . S
C2858 C2852 1.428 . S
C2858 N2857 1.351 . S
C2858 C2859 1.434 . S
C2859 C2850 1.429 . S
C2859 N2856 1.350 . S
C2859 C2858 1.434 . S
C2860 C2861 1.369 . S
C2860 C2862 1.419 . S
C2860 H2864 0.930 . S
C2861 C2860 1.369 . S
C2861 C2870 1.429 . S
C2862 C2860 1.419 . S
C2862 C2863 1.363 . S
C2862 H2865 0.929 . S
C2863 C2862 1.363 . S
C2863 C2869 1.428 . S
H2864 C2860 0.930 . S
H2865 C2862 0.929 . S
S2866 N2867 1.613 . S
S2866 N2868 1.610 . S
N2867 S2866 1.613 . S
N2867 C2870 1.350 . S
N2868 S2866 1.610 . S
N2868 C2869 1.351 . S
C2869 C2863 1.428 . S
C2869 N2868 1.351 . S
C2869 C2870 1.434 . S
C2870 C2861 1.429 . S
C2870 N2867 1.350 . S
C2870 C2869 1.434 . S
C2871 C2872 1.369 . S
C2871 C2873 1.419 . S
C2871 H2875 0.930 . S
C2872 C2871 1.369 . S
C2872 C2881 1.429 . S
C2873 C2871 1.419 . S
C2873 C2874 1.363 . S
C2873 H2876 0.929 . S
C2874 C2873 1.363 . S
C2874 C2880 1.428 . S
H2875 C2871 0.930 . S
H2876 C2873 0.929 . S
S2877 N2878 1.613 . S
S2877 N2879 1.610 . S
N2878 S2877 1.613 . S
N2878 C2881 1.350 . S
N2879 S2877 1.610 . S
N2879 C2880 1.351 . S
C2880 C2874 1.428 . S
C2880 N2879 1.351 . S
C2880 C2881 1.434 . S
C2881 C2872 1.429 . S
C2881 N2878 1.350 . S
C2881 C2880 1.434 . S
C2882 C2883 1.369 . S
C2882 C2884 1.419 . S
C2882 H2886 0.930 . S
C2883 C2882 1.369 . S
C2883 C2892 1.429 . S
C2884 C2882 1.419 . S
C2884 C2885 1.363 . S
C2884 H2887 0.929 . S
C2885 C2884 1.363 . S
C2885 C2891 1.428 . S
H2886 C2882 0.930 . S
H2887 C2884 0.929 . S
S2888 N2889 1.613 . S
S2888 N2890 1.610 . S
N2889 S2888 1.613 . S
N2889 C2892 1.350 . S
N2890 S2888 1.610 . S
N2890 C2891 1.351 . S
C2891 C2885 1.428 . S
C2891 N2890 1.351 . S
C2891 C2892 1.434 . S
C2892 C2883 1.429 . S
C2892 N2889 1.350 . S
C2892 C2891 1.434 . S
C2893 C2894 1.369 . S
C2893 C2895 1.419 . S
C2893 H2897 0.930 . S
C2894 C2893 1.369 . S
C2894 C2903 1.429 . S
C2895 C2893 1.419 . S
C2895 C2896 1.363 . S
C2895 H2898 0.929 . S
C2896 C2895 1.363 . S
C2896 C2902 1.428 . S
H2897 C2893 0.930 . S
H2898 C2895 0.929 . S
S2899 N2900 1.613 . S
S2899 N2901 1.610 . S
N2900 S2899 1.613 . S
N2900 C2903 1.350 . S
N2901 S2899 1.610 . S
N2901 C2902 1.351 . S
C2902 C2896 1.428 . S
C2902 N2901 1.351 . S
C2902 C2903 1.434 . S
C2903 C2894 1.429 . S
C2903 N2900 1.350 . S
C2903 C2902 1.434 . S
C1585 C1044 1.527 . S
C1587 C21 1.518 . S
C1596 C54 1.527 . S
C1598 C945 1.521 . S
C1607 C87 1.526 . S
C1609 C978 1.517 . S
C1618 C1011 1.515 . S
C1620 C120 1.520 . S
C1629 C846 1.525 . S
C1631 C153 1.524 . S
C1640 C879 1.518 . S
C1642 C186 1.517 . S
C1651 C219 1.527 . S
C1653 C912 1.521 . S
C1662 C252 1.527 . S
C1664 C813 1.519 . S
C1673 C285 1.522 . S
C1675 C1473 1.516 . S
C1684 C318 1.515 . S
C1686 C1374 1.523 . S
C1695 C351 1.515 . S
C1697 C1407 1.521 . S
C1706 C384 1.527 . S
C1708 C1440 1.518 . S
C1717 C1572 1.520 . S
C1719 C417 1.526 . S
C1728 C450 1.518 . S
C1730 C1506 1.526 . S
C1739 C483 1.515 . S
C1741 C1539 1.524 . S
C1750 C1341 1.520 . S
C1752 C516 1.516 . S
C1761 C549 1.526 . S
C1763 C1308 1.518 . S
C1772 C1110 1.520 . S
C1774 C582 1.526 . S
C1783 C1143 1.525 . S
C1785 C615 1.517 . S
C1794 C1176 1.517 . S
C1796 C648 1.518 . S
C1805 C681 1.516 . S
C1807 C1077 1.518 . S
C1816 C714 1.517 . S
C1818 C1242 1.525 . S
C1827 C1275 1.525 . S
C1829 C747 1.524 . S
C1838 C780 1.524 . S
C1840 C1209 1.524 . S
C1849 C73 1.311 . S
C1851 C7 1.309 . S
C1860 C40 1.312 . S
C1862 C106 1.310 . S
C1871 C205 1.309 . S
C1873 C139 1.312 . S
C1882 C238 1.310 . S
C1884 C172 1.310 . S
C1893 C271 1.312 . S
C1895 C403 1.310 . S
C1904 C436 1.311 . S
C1906 C304 1.309 . S
C1915 C469 1.311 . S
C1917 C337 1.309 . S
C1926 C502 1.310 . S
C1928 C370 1.310 . S
C1937 C634 1.310 . S
C1939 C535 1.312 . S
C1948 C568 1.311 . S
C1950 C700 1.311 . S
C1959 C601 1.311 . S
C1961 C733 1.309 . S
C1970 C667 1.311 . S
C1972 C766 1.309 . S
C1981 C865 1.312 . S
C1983 C799 1.310 . S
C1992 C898 1.312 . S
C1994 C832 1.310 . S
C2003 C997 1.311 . S
C2005 C931 1.311 . S
C2014 C1030 1.312 . S
C2016 C964 1.310 . S
C2025 C1063 1.311 . S
C2027 C1195 1.309 . S
C2036 C1096 1.309 . S
C2038 C1228 1.312 . S
C2047 C1261 1.311 . S
C2049 C1129 1.309 . S
C2058 C1294 1.309 . S
C2060 C1162 1.311 . S
C2069 C1327 1.310 . S
C2071 C1426 1.311 . S
C2080 C1492 1.311 . S
C2082 C1360 1.311 . S
C2091 C1525 1.311 . S
C2093 C1393 1.311 . S
C2102 C1558 1.310 . S
C2104 C1459 1.312 . S
C2113 N739 0.910 . S
C2115 N13 0.891 . S
C2124 N46 0.913 . S
C2126 N541 0.895 . S
C2135 N79 0.887 . S
C2137 N772 0.907 . S
C2146 N112 0.912 . S
C2148 N706 0.892 . S
C2157 N145 0.906 . S
C2159 N607 0.890 . S
C2168 N640 0.891 . S
C2170 N178 0.910 . S
C2179 N211 0.900 . S
C2181 N673 0.892 . S
C2190 N244 0.913 . S
C2192 N574 0.896 . S
C2201 N277 0.901 . S
C2203 N442 0.891 . S
C2212 N475 0.887 . S
C2214 N310 0.907 . S
C2223 N508 0.905 . S
C2225 N343 0.907 . S
C2234 N409 0.904 . S
C2236 N376 0.907 . S
C2245 N805 0.906 . S
C2247 N1531 0.890 . S
C2256 N1333 0.913 . S
C2258 N838 0.893 . S
C2267 N1564 0.911 . S
C2269 N871 0.891 . S
C2278 N904 0.913 . S
C2280 N1498 0.896 . S
C2289 N1399 0.887 . S
C2291 N937 0.905 . S
C2300 N1432 0.899 . S
C2302 N970 0.909 . S
C2311 N1465 0.888 . S
C2313 N1003 0.909 . S
C2322 N1036 0.913 . S
C2324 N1366 0.897 . S
C2333 N1069 0.889 . S
C2335 N1234 0.901 . S
C2344 N1102 0.894 . S
C2346 N1267 0.895 . S
C2355 N1300 0.907 . S
C2357 N1135 0.890 . S
C2366 N1201 0.890 . S
C2368 N1168 0.910 . S
C2377 C18 2.160 . S
C2379 N596 1.929 . S
C2388 N629 1.931 . S
C2390 C51 2.158 . S
C2399 C84 2.158 . S
C2401 N662 1.937 . S
C2410 N563 1.938 . S
C2412 C117 2.159 . S
C2421 C150 2.160 . S
C2423 N728 1.934 . S
C2432 N530 1.938 . S
C2434 C183 2.158 . S
C2443 N761 1.928 . S
C2445 C216 2.159 . S
C2454 C249 2.158 . S
C2456 N695 1.937 . S
C2465 N299 1.927 . S
C2467 C282 2.160 . S
C2476 C315 2.160 . S
C2478 N332 1.932 . S
C2487 C348 2.157 . S
C2489 N365 1.936 . S
C2498 N266 1.930 . S
C2500 C381 2.158 . S
C2509 C414 2.160 . S
C2511 N497 1.928 . S
C2520 C447 2.158 . S
C2522 N398 1.937 . S
C2531 C480 2.160 . S
C2533 N431 1.929 . S
C2542 N464 1.938 . S
C2544 C513 2.158 . S
C2553 N101 1.931 . S
C2555 C546 2.160 . S
C2564 C579 2.159 . S
C2566 N167 1.929 . S
C2575 N200 1.929 . S
C2577 C612 2.158 . S
C2586 N233 1.927 . S
C2588 C645 2.159 . S
C2597 C678 2.160 . S
C2599 N134 1.935 . S
C2608 N35 1.933 . S
C2610 C711 2.160 . S
C2619 C744 2.160 . S
C2621 N68 1.932 . S
C2630 N2 1.928 . S
C2632 C777 2.159 . S
C2641 C810 2.158 . S
C2643 N1388 1.937 . S
C2652 N1421 1.938 . S
C2654 C843 2.158 . S
C2663 C876 2.160 . S
C2665 N1454 1.931 . S
C2674 N1355 1.938 . S
C2676 C909 2.158 . S
C2685 C942 2.158 . S
C2687 N1520 1.930 . S
C2696 C975 2.158 . S
C2698 N1322 1.937 . S
C2707 C1008 2.160 . S
C2709 N1553 1.935 . S
C2718 N1487 1.937 . S
C2720 C1041 2.159 . S
C2729 C1074 2.160 . S
C2731 N1091 1.935 . S
C2740 N1124 1.929 . S
C2742 C1107 2.160 . S
C2751 N1157 1.929 . S
C2753 C1140 2.160 . S
C2762 C1173 2.160 . S
C2764 N1058 1.933 . S
C2773 C1206 2.159 . S
C2775 N1289 1.929 . S
C2784 C1239 2.160 . S
C2786 N1190 1.930 . S
C2795 C1272 2.160 . S
C2797 N1223 1.933 . S
C2806 C1305 2.160 . S
C2808 N1256 1.929 . S
C2817 C1338 2.160 . S
C2819 N893 1.929 . S
C2828 N959 1.931 . S
C2830 C1371 2.158 . S
C2839 N992 1.928 . S
C2841 C1404 2.159 . S
C2850 N1025 1.927 . S
C2852 C1437 2.159 . S
C2861 N926 1.938 . S
C2863 C1470 2.158 . S
C2872 N827 1.929 . S
C2874 C1503 2.158 . S
C2883 N860 1.936 . S
C2885 C1536 2.158 . S
C2894 N794 1.929 . S
C2896 C1569 2.158 . S
