# Generated by pormake.
# Topology zfl, (5)-cn, num edge types: 1
# Building blocks:
#     Node 0, Type 0, BuildingBlock: XOMCOT_clean_sbu_0, # of connection points: 5
#     Node 1, Type 0, BuildingBlock: XOMCOT_clean_sbu_0, # of connection points: 5
#     Node 2, Type 0, BuildingBlock: XOMCOT_clean_sbu_0, # of connection points: 5
#     Node 3, Type 0, BuildingBlock: XOMCOT_clean_sbu_0, # of connection points: 5
#     Node 4, Type 0, BuildingBlock: XOMCOT_clean_sbu_0, # of connection points: 5
#     Node 5, Type 0, BuildingBlock: XOMCOT_clean_sbu_0, # of connection points: 5
#     Node 6, Type 0, BuildingBlock: XOMCOT_clean_sbu_0, # of connection points: 5
#     Node 7, Type 0, BuildingBlock: XOMCOT_clean_sbu_0, # of connection points: 5
#     Node 8, Type 0, BuildingBlock: XOMCOT_clean_sbu_0, # of connection points: 5
#     Node 9, Type 0, BuildingBlock: XOMCOT_clean_sbu_0, # of connection points: 5
#     Node 10, Type 0, BuildingBlock: XOMCOT_clean_sbu_0, # of connection points: 5
#     Node 11, Type 0, BuildingBlock: XOMCOT_clean_sbu_0, # of connection points: 5
#     Node 12, Type 0, BuildingBlock: XOMCOT_clean_sbu_0, # of connection points: 5
#     Node 13, Type 0, BuildingBlock: XOMCOT_clean_sbu_0, # of connection points: 5
#     Node 14, Type 0, BuildingBlock: XOMCOT_clean_sbu_0, # of connection points: 5
#     Node 15, Type 0, BuildingBlock: XOMCOT_clean_sbu_0, # of connection points: 5
#     Edge 16, Type (0, 0), BuildingBlock: XUDNAN_clean_linker_2, # of connection points: 2
#     Edge 17, Type (0, 0), BuildingBlock: XUDNAN_clean_linker_2, # of connection points: 2
#     Edge 18, Type (0, 0), BuildingBlock: XUDNAN_clean_linker_2, # of connection points: 2
#     Edge 19, Type (0, 0), BuildingBlock: XUDNAN_clean_linker_2, # of connection points: 2
#     Edge 20, Type (0, 0), BuildingBlock: XUDNAN_clean_linker_2, # of connection points: 2
#     Edge 21, Type (0, 0), BuildingBlock: XUDNAN_clean_linker_2, # of connection points: 2
#     Edge 22, Type (0, 0), BuildingBlock: XUDNAN_clean_linker_2, # of connection points: 2
#     Edge 23, Type (0, 0), BuildingBlock: XUDNAN_clean_linker_2, # of connection points: 2
#     Edge 24, Type (0, 0), BuildingBlock: XUDNAN_clean_linker_2, # of connection points: 2
#     Edge 25, Type (0, 0), BuildingBlock: XUDNAN_clean_linker_2, # of connection points: 2
#     Edge 26, Type (0, 0), BuildingBlock: XUDNAN_clean_linker_2, # of connection points: 2
#     Edge 27, Type (0, 0), BuildingBlock: XUDNAN_clean_linker_2, # of connection points: 2
#     Edge 28, Type (0, 0), BuildingBlock: XUDNAN_clean_linker_2, # of connection points: 2
#     Edge 29, Type (0, 0), BuildingBlock: XUDNAN_clean_linker_2, # of connection points: 2
#     Edge 30, Type (0, 0), BuildingBlock: XUDNAN_clean_linker_2, # of connection points: 2
#     Edge 31, Type (0, 0), BuildingBlock: XUDNAN_clean_linker_2, # of connection points: 2
#     Edge 32, Type (0, 0), BuildingBlock: XUDNAN_clean_linker_2, # of connection points: 2
#     Edge 33, Type (0, 0), BuildingBlock: XUDNAN_clean_linker_2, # of connection points: 2
#     Edge 34, Type (0, 0), BuildingBlock: XUDNAN_clean_linker_2, # of connection points: 2
#     Edge 35, Type (0, 0), BuildingBlock: XUDNAN_clean_linker_2, # of connection points: 2
#     Edge 36, Type (0, 0), BuildingBlock: XUDNAN_clean_linker_2, # of connection points: 2
#     Edge 37, Type (0, 0), BuildingBlock: XUDNAN_clean_linker_2, # of connection points: 2
#     Edge 38, Type (0, 0), BuildingBlock: XUDNAN_clean_linker_2, # of connection points: 2
#     Edge 39, Type (0, 0), BuildingBlock: XUDNAN_clean_linker_2, # of connection points: 2
#     Edge 40, Type (0, 0), BuildingBlock: XUDNAN_clean_linker_2, # of connection points: 2
#     Edge 41, Type (0, 0), BuildingBlock: XUDNAN_clean_linker_2, # of connection points: 2
#     Edge 42, Type (0, 0), BuildingBlock: XUDNAN_clean_linker_2, # of connection points: 2
#     Edge 43, Type (0, 0), BuildingBlock: XUDNAN_clean_linker_2, # of connection points: 2
#     Edge 44, Type (0, 0), BuildingBlock: XUDNAN_clean_linker_2, # of connection points: 2
#     Edge 45, Type (0, 0), BuildingBlock: XUDNAN_clean_linker_2, # of connection points: 2
#     Edge 46, Type (0, 0), BuildingBlock: XUDNAN_clean_linker_2, # of connection points: 2
#     Edge 47, Type (0, 0), BuildingBlock: XUDNAN_clean_linker_2, # of connection points: 2
#     Edge 48, Type (0, 0), BuildingBlock: XUDNAN_clean_linker_2, # of connection points: 2
#     Edge 49, Type (0, 0), BuildingBlock: XUDNAN_clean_linker_2, # of connection points: 2
#     Edge 50, Type (0, 0), BuildingBlock: XUDNAN_clean_linker_2, # of connection points: 2
#     Edge 51, Type (0, 0), BuildingBlock: XUDNAN_clean_linker_2, # of connection points: 2
#     Edge 52, Type (0, 0), BuildingBlock: XUDNAN_clean_linker_2, # of connection points: 2
#     Edge 53, Type (0, 0), BuildingBlock: XUDNAN_clean_linker_2, # of connection points: 2
#     Edge 54, Type (0, 0), BuildingBlock: XUDNAN_clean_linker_2, # of connection points: 2
#     Edge 55, Type (0, 0), BuildingBlock: XUDNAN_clean_linker_2, # of connection points: 2
# Relax obj value: 0.226
# Max RMSD: 0.259
# Mean RMSD: 0.259
data_MOF--net-zfl--node1-XOMCOT_clean_sbu_0--edge1-XUDNAN_clean_linker_2
_symmetry_space_group_name_H-M    P1
_symmetry_Int_Tables_number       1
_symmetry_cell_setting            triclinic
loop_
_symmetry_equiv_pos_as_xyz
'x, y, z'
_cell_length_a     31.972772
_cell_length_b     32.107484
_cell_length_c     59.3269
_cell_angle_alpha  89.92225
_cell_angle_beta   90.034966
_cell_angle_gamma 89.998418
loop_
_atom_site_label
_atom_site_type_symbol
_atom_site_fract_x
_atom_site_fract_y
_atom_site_fract_z
_atom_type_partial_charge
Co0 Co 0.58186 0.11692 0.10648 0.0
C1 C 0.59751 0.02923 0.11414 0.0
C2 C 0.6494 0.05796 0.09739 0.0
C3 C 0.6526 0.01553 0.09489 0.0
N4 N 0.61473 0.06667 0.10946 0.0
N5 N 0.61951 0.99759 0.1051 0.0
H6 H 0.56599 0.0257 0.1205 0.0
H7 H 0.66803 0.08093 0.0886 0.0
C8 C 0.66427 0.1446 0.12791 0.0
O9 O 0.67156 0.10611 0.13425 0.0
N10 N 0.547 0.16615 0.10291 0.0
C11 C 0.5147 0.17047 0.08842 0.0
C12 C 0.49628 0.2084 0.09173 0.0
C13 C 0.54729 0.20179 0.11509 0.0
N14 N 0.51671 0.22834 0.1084 0.0
C15 C 0.51563 0.09626 0.13643 0.0
C16 C 0.56033 0.09429 0.17626 0.0
C17 C 0.51896 0.07971 0.17632 0.0
C18 C 0.49625 0.08211 0.15612 0.0
C19 C 0.57863 0.10814 0.15609 0.0
N20 N 0.55683 0.10749 0.13625 0.0
H21 H 0.49763 0.09688 0.12103 0.0
H22 H 0.61043 0.1183 0.15675 0.0
H23 H 0.50395 0.14748 0.07651 0.0
H24 H 0.56913 0.20797 0.12862 0.0
O25 O 0.54311 0.0839 0.08846 0.0
O26 O 0.59656 0.11923 0.07465 0.0
O27 O 0.62946 0.15421 0.11835 0.0
C28 C 0.56541 0.09399 0.07097 0.0
H29 H 0.67462 0.99953 0.08408 0.0
H30 H 0.46889 0.21975 0.08293 0.0
H31 H 0.57908 0.09344 0.19146 0.0
H32 H 0.46384 0.07242 0.1554 0.0
Co33 Co 0.40968 0.56294 0.61449 0.0
C34 C 0.49295 0.6007 0.61399 0.0
C35 C 0.45116 0.63208 0.59161 0.0
C36 C 0.49166 0.64178 0.58551 0.0
N37 N 0.45188 0.60557 0.60933 0.0
N38 N 0.51779 0.62168 0.59961 0.0
H39 H 0.50513 0.5772 0.62509 0.0
H40 H 0.42352 0.63916 0.5818 0.0
C41 C 0.36532 0.64449 0.62351 0.0
O42 O 0.40074 0.6606 0.63053 0.0
N43 N 0.3691 0.5193 0.61886 0.0
C44 C 0.37647 0.48337 0.62993 0.0
C45 C 0.34308 0.45718 0.6268 0.0
C46 C 0.33127 0.51459 0.60908 0.0
N47 N 0.31482 0.4767 0.61365 0.0
C48 C 0.45483 0.5414 0.65475 0.0
C49 C 0.39654 0.56887 0.68555 0.0
C50 C 0.43257 0.54858 0.69358 0.0
C51 C 0.46208 0.53533 0.67769 0.0
C52 C 0.39082 0.575 0.66232 0.0
N53 N 0.42026 0.56215 0.6471 0.0
H54 H 0.47635 0.52709 0.64317 0.0
H55 H 0.36149 0.58798 0.65678 0.0
H56 H 0.40495 0.47595 0.63888 0.0
H57 H 0.3171 0.53745 0.59803 0.0
O58 O 0.44992 0.52154 0.6052 0.0
O59 O 0.40717 0.55462 0.58198 0.0
O60 O 0.36363 0.60631 0.61725 0.0
C61 C 0.43764 0.52816 0.58464 0.0
H62 H 0.50111 0.65859 0.57053 0.0
H63 H 0.34007 0.42587 0.63341 0.0
H64 H 0.37199 0.57843 0.69699 0.0
H65 H 0.49041 0.51944 0.68279 0.0
Co66 Co 0.95532 0.40273 0.10757 0.0
C67 C 0.92883 0.48376 0.12412 0.0
C68 C 0.87617 0.44954 0.11151 0.0
C69 C 0.864 0.49016 0.11551 0.0
N70 N 0.91691 0.44583 0.11684 0.0
N71 N 0.89744 0.51174 0.12312 0.0
H72 H 0.96081 0.49132 0.12846 0.0
H73 H 0.85769 0.42559 0.10344 0.0
C74 C 0.91063 0.32952 0.12881 0.0
O75 O 0.94466 0.3223 0.1406 0.0
N76 N 0.99543 0.36029 0.09728 0.0
C77 C 0.03299 0.36907 0.08784 0.0
C78 C 0.05263 0.333 0.08177 0.0
C79 C 0.99279 0.31807 0.09619 0.0
N80 N 0.02755 0.30091 0.08703 0.0
C81 C 0.02006 0.40674 0.14073 0.0
C82 C 0.96882 0.415 0.17799 0.0
C83 C 0.0118 0.42249 0.18034 0.0
C84 C 0.03755 0.41692 0.16153 0.0
C85 C 0.9524 0.40506 0.1567 0.0
N86 N 0.97793 0.40153 0.13825 0.0
H87 H 0.04039 0.40635 0.12631 0.0
H88 H 0.91886 0.40252 0.15482 0.0
H89 H 0.04625 0.39972 0.08565 0.0
H90 H 0.96599 0.29995 0.10117 0.0
O91 O 0.99104 0.44614 0.09612 0.0
O92 O 0.94161 0.41521 0.0761 0.0
O93 O 0.91039 0.35897 0.1142 0.0
C94 C 0.97059 0.44379 0.07727 0.0
H95 H 0.83395 0.50352 0.11122 0.0
H96 H 0.08357 0.33052 0.07448 0.0
H97 H 0.94778 0.41956 0.19207 0.0
H98 H 0.0709 0.42259 0.16261 0.0
Co99 Co 0.11183 0.93671 0.6058 0.0
C100 C 0.02439 0.91103 0.6072 0.0
C101 C 0.06227 0.86385 0.59206 0.0
C102 C 0.02082 0.85525 0.58752 0.0
N103 N 0.06449 0.89902 0.60444 0.0
N104 N 0.99715 0.88538 0.59689 0.0
H105 H 0.01541 0.9411 0.61357 0.0
H106 H 0.08894 0.84814 0.58477 0.0
C107 C 0.14076 0.85628 0.6265 0.0
O108 O 0.10374 0.85326 0.63597 0.0
N109 N 0.15758 0.97618 0.60658 0.0
C110 C 0.1537 0.01726 0.60213 0.0
C111 C 0.19202 0.03588 0.6041 0.0
C112 C 0.19836 0.97055 0.61182 0.0
N113 N 0.21994 0.00665 0.6102 0.0
C114 C 0.06688 0.98163 0.64003 0.0
C115 C 0.10722 0.94768 0.67683 0.0
C116 C 0.07234 0.97326 0.68042 0.0
C117 C 0.05316 0.99171 0.66171 0.0
C118 C 0.12024 0.93892 0.65485 0.0
N119 N 0.09796 0.95303 0.6367 0.0
H120 H 0.05168 0.99639 0.62589 0.0
H121 H 0.14826 0.9208 0.65269 0.0
H122 H 0.12494 0.03315 0.59797 0.0
H123 H 0.21207 0.94102 0.61658 0.0
O124 O 0.07778 0.97638 0.58902 0.0
O125 O 0.11962 0.92942 0.57375 0.0
O126 O 0.15053 0.88935 0.61556 0.0
C127 C 0.09235 0.95896 0.57087 0.0
H128 H 0.0094 0.83089 0.57653 0.0
H129 H 0.19879 0.06865 0.60177 0.0
H130 H 0.12424 0.93444 0.69092 0.0
H131 H 0.02681 0.01258 0.66374 0.0
Co132 Co 0.5633 0.40372 0.91534 0.0
C133 C 0.58791 0.48947 0.9076 0.0
C134 C 0.64198 0.45256 0.91538 0.0
C135 C 0.65341 0.49399 0.91506 0.0
N136 N 0.60078 0.44998 0.91086 0.0
N137 N 0.61918 0.51708 0.91036 0.0
H138 H 0.5554 0.49801 0.90545 0.0
H139 H 0.66177 0.42684 0.92021 0.0
C140 C 0.63484 0.3454 0.9142 0.0
O141 O 0.63825 0.35352 0.93579 0.0
N142 N 0.5247 0.35782 0.91977 0.0
C143 C 0.4931 0.35558 0.93484 0.0
C144 C 0.47288 0.31828 0.9323 0.0
C145 C 0.52267 0.32188 0.908 0.0
N146 N 0.49147 0.29709 0.91549 0.0
C147 C 0.49879 0.4248 0.88432 0.0
C148 C 0.54908 0.43093 0.84651 0.0
C149 C 0.50743 0.44458 0.84517 0.0
C150 C 0.48196 0.44037 0.86428 0.0
C151 C 0.56486 0.41589 0.86701 0.0
N152 N 0.53991 0.41383 0.88566 0.0
H153 H 0.47924 0.42328 0.89916 0.0
H154 H 0.59767 0.40813 0.8682 0.0
H155 H 0.4844 0.37935 0.94678 0.0
H156 H 0.54362 0.31393 0.89435 0.0
O157 O 0.5274 0.44052 0.93294 0.0
O158 O 0.57829 0.40213 0.94704 0.0
O159 O 0.60616 0.36327 0.90259 0.0
C160 C 0.54889 0.42926 0.95052 0.0
H161 H 0.68393 0.50625 0.91933 0.0
H162 H 0.44594 0.3079 0.94182 0.0
H163 H 0.56991 0.43398 0.83221 0.0
H164 H 0.44952 0.45006 0.86391 0.0
Co165 Co 0.11938 0.56111 0.40665 0.0
C166 C 0.04073 0.59516 0.38924 0.0
C167 C 0.07216 0.63976 0.40989 0.0
C168 C 0.03131 0.65272 0.40671 0.0
N169 N 0.0779 0.60319 0.39909 0.0
N170 N 0.01186 0.62448 0.39361 0.0
H171 H 0.03247 0.56586 0.38176 0.0
H172 H 0.0945 0.65357 0.42137 0.0
C173 C 0.16766 0.63258 0.386 0.0
O174 O 0.13833 0.63745 0.37071 0.0
N175 N 0.15907 0.51776 0.41438 0.0
C176 C 0.14825 0.47756 0.41742 0.0
C177 C 0.18338 0.45475 0.42206 0.0
C178 C 0.20122 0.51872 0.41677 0.0
N179 N 0.21667 0.48044 0.42167 0.0
C180 C 0.08506 0.5116 0.37067 0.0
C181 C 0.14338 0.53192 0.33831 0.0
C182 C 0.10719 0.51033 0.33157 0.0
C183 C 0.07869 0.4987 0.34843 0.0
C184 C 0.14796 0.54492 0.36069 0.0
N185 N 0.11713 0.53783 0.37615 0.0
H186 H 0.06268 0.50218 0.3833 0.0
H187 H 0.17641 0.56064 0.36536 0.0
H188 H 0.11691 0.46527 0.41593 0.0
H189 H 0.22011 0.54649 0.41502 0.0
O190 O 0.07458 0.52959 0.4215 0.0
O191 O 0.11465 0.57664 0.43789 0.0
O192 O 0.16646 0.60158 0.39962 0.0
C193 C 0.08364 0.55078 0.43957 0.0
H194 H 0.01618 0.67872 0.41496 0.0
H195 H 0.18455 0.42145 0.42491 0.0
H196 H 0.16795 0.53918 0.32639 0.0
H197 H 0.0507 0.4812 0.34451 0.0
Co198 Co 0.93856 0.11092 0.90277 0.0
C199 C 0.91227 0.02327 0.90497 0.0
C200 C 0.87213 0.06187 0.92475 0.0
C201 C 0.86453 0.02068 0.93028 0.0
N202 N 0.90246 0.06347 0.90892 0.0
N203 N 0.88987 0.99669 0.91766 0.0
H204 H 0.9386 0.01315 0.89519 0.0
H205 H 0.85939 0.08877 0.93329 0.0
C206 C 0.85364 0.13656 0.8854 0.0
O207 O 0.8477 0.09847 0.878 0.0
N208 N 0.97549 0.15764 0.89728 0.0
C209 C 0.00801 0.15893 0.88279 0.0
C210 C 0.02818 0.19638 0.88508 0.0
C211 C 0.97683 0.19424 0.90848 0.0
N212 N 0.00873 0.21845 0.90126 0.0
C213 C 0.97852 0.06073 0.86935 0.0
C214 C 0.93997 0.09272 0.83149 0.0
C215 C 0.96755 0.059 0.82912 0.0
C216 C 0.98764 0.04389 0.84838 0.0
C217 C 0.93143 0.10869 0.85308 0.0
N218 N 0.94893 0.0911 0.87191 0.0
H219 H 0.99555 0.0488 0.88363 0.0
H220 H 0.91149 0.1356 0.85435 0.0
H221 H 0.01765 0.13413 0.87172 0.0
H222 H 0.95534 0.20272 0.92179 0.0
O223 O 0.98328 0.08181 0.91837 0.0
O224 O 0.93777 0.12402 0.9346 0.0
O225 O 0.88883 0.14683 0.89408 0.0
C226 C 0.96902 0.09844 0.93677 0.0
H227 H 0.84416 0.00945 0.94353 0.0
H228 H 0.0561 0.20598 0.87616 0.0
H229 H 0.92485 0.10632 0.8169 0.0
H230 H 0.01072 0.01926 0.84728 0.0
Co231 Co 0.39286 0.95681 0.40396 0.0
C232 C 0.48016 0.93043 0.40888 0.0
C233 C 0.44011 0.87772 0.41266 0.0
C234 C 0.48091 0.86539 0.41656 0.0
N235 N 0.43982 0.91852 0.40719 0.0
N236 N 0.50613 0.89883 0.41417 0.0
H237 H 0.48999 0.96241 0.40813 0.0
H238 H 0.41275 0.8585 0.41496 0.0
C239 C 0.35452 0.8777 0.3842 0.0
O240 O 0.38496 0.87434 0.36946 0.0
N241 N 0.34758 0.9962 0.4012 0.0
C242 C 0.35099 0.03356 0.391 0.0
C243 C 0.31364 0.05422 0.39288 0.0
C244 C 0.30839 0.99487 0.40966 0.0
N245 N 0.28692 0.03002 0.40461 0.0
C246 C 0.44313 0.98358 0.366 0.0
C247 C 0.38399 0.96851 0.3331 0.0
C248 C 0.42313 0.98428 0.32651 0.0
C249 C 0.45268 0.99219 0.34345 0.0
C250 C 0.3758 0.96023 0.35587 0.0
N251 N 0.4058 0.96606 0.372 0.0
H252 H 0.46546 0.99251 0.37861 0.0
H253 H 0.34485 0.94994 0.36057 0.0
H254 H 0.37901 0.04521 0.38298 0.0
H255 H 0.29596 0.96897 0.41924 0.0
O256 O 0.42665 1.00047 0.41797 0.0
O257 O 0.3859 0.95594 0.43613 0.0
O258 O 0.35304 0.90882 0.39767 0.0
C259 C 0.41243 0.98648 0.43715 0.0
H260 H 0.49074 0.83447 0.4215 0.0
H261 H 0.30693 0.08518 0.38659 0.0
H262 H 0.3594 0.96346 0.32084 0.0
H263 H 0.48311 1.00497 0.33941 0.0
Co264 Co 0.4542 0.90579 0.9034 0.0
C265 C 0.41688 0.98276 0.88798 0.0
C266 C 0.38092 0.95628 0.91482 0.0
C267 C 0.36914 0.99715 0.91212 0.0
N268 N 0.41076 0.94706 0.89953 0.0
N269 N 0.39244 0.01398 0.8955 0.0
H270 H 0.44357 0.9877 0.87707 0.0
H271 H 0.37182 0.93618 0.92862 0.0
C272 C 0.37353 0.85545 0.89585 0.0
O273 O 0.35309 0.8896 0.89084 0.0
N274 N 0.49987 0.86634 0.90797 0.0
C275 C 0.53986 0.87708 0.91261 0.0
C276 C 0.56274 0.84207 0.91687 0.0
C277 C 0.49922 0.82422 0.90964 0.0
N278 N 0.53734 0.80886 0.91518 0.0
C279 C 0.5052 0.91937 0.8645 0.0
C280 C 0.44309 0.91284 0.83238 0.0
C281 C 0.48289 0.92653 0.82573 0.0
C282 C 0.51443 0.9285 0.84201 0.0
C283 C 0.43541 0.9029 0.85505 0.0
N284 N 0.46603 0.9072 0.87099 0.0
H285 H 0.52921 0.92475 0.87686 0.0
H286 H 0.40417 0.8944 0.85979 0.0
H287 H 0.55211 0.90839 0.91328 0.0
H288 H 0.47151 0.80529 0.90767 0.0
O289 O 0.49006 0.95125 0.9124 0.0
O290 O 0.45181 0.91442 0.93613 0.0
O291 O 0.41305 0.85668 0.90011 0.0
C292 C 0.47804 0.94505 0.93303 0.0
H293 H 0.34869 0.01436 0.92327 0.0
H294 H 0.5957 0.84114 0.92103 0.0
H295 H 0.41775 0.91112 0.82029 0.0
H296 H 0.54537 0.93974 0.8377 0.0
Co297 Co 0.62241 0.44952 0.41181 0.0
C298 C 0.5356 0.42381 0.40438 0.0
C299 C 0.57342 0.37176 0.41394 0.0
C300 C 0.5319 0.36036 0.41535 0.0
N301 N 0.57583 0.41165 0.4069 0.0
N302 N 0.50812 0.39345 0.40961 0.0
H303 H 0.52627 0.45572 0.40197 0.0
H304 H 0.59958 0.35358 0.42001 0.0
C305 C 0.6627 0.37428 0.38914 0.0
O306 O 0.63257 0.37201 0.37413 0.0
N307 N 0.66811 0.48846 0.41725 0.0
C308 C 0.66693 0.52254 0.4306 0.0
C309 C 0.7043 0.54336 0.42904 0.0
C310 C 0.70651 0.48939 0.40766 0.0
N311 N 0.7291 0.52269 0.41455 0.0
C312 C 0.58373 0.4986 0.37682 0.0
C313 C 0.63738 0.47714 0.3424 0.0
C314 C 0.60156 0.50055 0.33702 0.0
C315 C 0.57521 0.51224 0.35485 0.0
C316 C 0.64415 0.46343 0.36449 0.0
N317 N 0.61625 0.47221 0.38126 0.0
H318 H 0.56356 0.509 0.39022 0.0
H319 H 0.67201 0.4457 0.36784 0.0
H320 H 0.64055 0.53272 0.44051 0.0
H321 H 0.71778 0.46644 0.39583 0.0
O322 O 0.58387 0.48536 0.42863 0.0
O323 O 0.62192 0.43447 0.44314 0.0
O324 O 0.66425 0.40473 0.40304 0.0
C325 C 0.59394 0.46311 0.44624 0.0
H326 H 0.52029 0.3311 0.42189 0.0
H327 H 0.712 0.57244 0.43727 0.0
H328 H 0.66018 0.46914 0.32964 0.0
H329 H 0.54754 0.53089 0.35194 0.0
Co330 Co 0.07468 0.61029 0.90729 0.0
C331 C 0.09923 0.52217 0.91171 0.0
C332 C 0.13534 0.56095 0.93359 0.0
C333 C 0.14195 0.51987 0.93959 0.0
N334 N 0.10814 0.56237 0.91614 0.0
N335 N 0.11924 0.4958 0.92564 0.0
H336 H 0.07531 0.51187 0.90028 0.0
H337 H 0.14672 0.58794 0.94259 0.0
C338 C 0.16303 0.62936 0.8928 0.0
O339 O 0.16783 0.58964 0.88823 0.0
N340 N 0.04021 0.65795 0.89917 0.0
C341 C 0.01301 0.66076 0.8818 0.0
C342 C 0.99297 0.69847 0.88271 0.0
C343 C 0.03579 0.69419 0.91057 0.0
N344 N 1.00711 0.71944 0.90081 0.0
C345 C 0.0345 0.55848 0.87458 0.0
C346 C 0.0791 0.58184 0.83685 0.0
C347 C 0.04854 0.55063 0.83481 0.0
C348 C 0.02577 0.5397 0.85401 0.0
C349 C 0.08733 0.59975 0.85808 0.0
N350 N 0.0662 0.5868 0.87692 0.0
H351 H 0.01565 0.54936 0.88878 0.0
H352 H 0.10991 0.62456 0.85899 0.0
H353 H 1.00678 0.63697 0.86944 0.0
H354 H 0.05284 0.7018 0.92578 0.0
O355 O 0.02752 0.58459 0.92254 0.0
O356 O 0.07294 0.62668 0.9388 0.0
O357 O 0.12696 0.64312 0.89866 0.0
C358 C 0.04087 0.60205 0.9409 0.0
H359 H 0.15987 0.50873 0.95386 0.0
H360 H 0.96863 0.70901 0.87136 0.0
H361 H 0.0967 0.59206 0.82227 0.0
H362 H 1.0008 0.51694 0.85315 0.0
Co363 Co 0.89634 0.05339 0.40426 0.0
C364 C 0.97829 0.09449 0.4012 0.0
C365 C 0.93295 0.1334 0.41706 0.0
C366 C 0.9723 0.14874 0.4219 0.0
N367 N 0.93661 0.09893 0.40413 0.0
N368 N 1.00051 0.1242 0.41167 0.0
H369 H 0.9931 0.06651 0.3953 0.0
H370 H 0.90433 0.14321 0.42518 0.0
C371 C 0.84633 0.12675 0.38853 0.0
O372 O 0.87468 0.13226 0.37279 0.0
N373 N 0.85741 0.00751 0.40524 0.0
C374 C 0.86665 0.96834 0.39881 0.0
C375 C 0.83282 0.94325 0.40303 0.0
C376 C 0.81785 0.00596 0.41313 0.0
N377 N 0.80225 0.96683 0.41202 0.0
C378 C 0.93672 0.03149 0.36289 0.0
C379 C 0.86635 0.03109 0.33596 0.0
C380 C 0.90466 0.01811 0.32684 0.0
C381 C 0.94009 0.01896 0.34056 0.0
C382 C 0.86461 0.04478 0.35844 0.0
N383 N 0.89983 0.04558 0.3716 0.0
H384 H 0.96329 0.02614 0.37344 0.0
H385 H 0.83452 0.05251 0.36558 0.0
H386 H 0.89614 0.95866 0.39159 0.0
H387 H 0.80114 0.03252 0.41982 0.0
O388 O 0.94037 0.01571 0.41304 0.0
O389 O 0.90173 0.05172 0.437 0.0
O390 O 0.84893 0.09541 0.40189 0.0
C391 C 0.93271 0.02602 0.43377 0.0
H392 H 0.97971 0.17294 0.43395 0.0
H393 H 0.83054 0.91029 0.39939 0.0
H394 H 0.83797 0.02971 0.32601 0.0
H395 H 0.96981 0.00719 0.33452 0.0
Co396 Co 0.44152 0.61483 0.11795 0.0
C397 C 0.42331 0.53761 0.14098 0.0
C398 C 0.37147 0.55645 0.12049 0.0
C399 C 0.36723 0.51479 0.12552 0.0
N400 N 0.4069 0.57077 0.13008 0.0
N401 N 0.4003 0.50286 0.13809 0.0
H402 H 0.45506 0.53715 0.14735 0.0
H403 H 0.35325 0.57339 0.10814 0.0
C404 C 0.36017 0.65951 0.13178 0.0
O405 O 0.34861 0.62874 0.14493 0.0
N406 N 0.47766 0.65777 0.10518 0.0
C407 C 0.51035 0.6512 0.09115 0.0
C408 C 0.52695 0.68864 0.08484 0.0
C409 C 0.4755 0.69972 0.10746 0.0
N410 N 0.5051 0.71907 0.09496 0.0
C411 C 0.50845 0.61928 0.14894 0.0
C412 C 0.46186 0.61632 0.1881 0.0
C413 C 0.50456 0.60648 0.18908 0.0
C414 C 0.52823 0.61038 0.16934 0.0
C415 C 0.44317 0.62516 0.16719 0.0
N416 N 0.46609 0.62424 0.14773 0.0
H417 H 0.52692 0.61811 0.13373 0.0
H418 H 0.40993 0.62889 0.1667 0.0
H419 H 0.52212 0.62137 0.08573 0.0
H420 H 0.45252 0.71578 0.11762 0.0
O421 O 0.47975 0.57186 0.10829 0.0
O422 O 0.42777 0.5962 0.08746 0.0
O423 O 0.39553 0.65869 0.12151 0.0
C424 C 0.45885 0.57015 0.08953 0.0
H425 H 0.34461 0.49381 0.11807 0.0
H426 H 0.55342 0.69323 0.07373 0.0
H427 H 0.4424 0.61372 0.20297 0.0
H428 H 0.56144 0.60365 0.16938 0.0
Co429 Co 0.91006 0.44553 0.60764 0.0
C430 C 0.99916 0.42237 0.60338 0.0
C431 C 0.95977 0.37995 0.58547 0.0
C432 C 1.0009 0.37065 0.58053 0.0
N433 N 0.95872 0.41199 0.60019 0.0
N434 N 0.02547 0.39778 0.59169 0.0
H435 H 0.0095 0.44872 0.61301 0.0
H436 H 0.93248 0.36586 0.57786 0.0
C437 C 0.88697 0.35813 0.6207 0.0
O438 O 0.92487 0.3544 0.62905 0.0
N439 N 0.8621 0.48009 0.61437 0.0
C440 C 0.8618 0.5122 0.62899 0.0
C441 C 0.82348 0.53128 0.62816 0.0
C442 C 0.82406 0.48065 0.6044 0.0
N443 N 0.79977 0.51162 0.6127 0.0
C444 C 0.95899 0.47571 0.64487 0.0
C445 C 0.91708 0.43538 0.67913 0.0
C446 C 0.95135 0.46081 0.68464 0.0
C447 C 0.97198 0.48142 0.6671 0.0
C448 C 0.90486 0.43073 0.65653 0.0
N449 N 0.92702 0.44918 0.63949 0.0
H450 H 0.97414 0.4941 0.63208 0.0
H451 H 0.87678 0.41334 0.65301 0.0
H452 H 0.888 0.52218 0.63911 0.0
H453 H 0.81463 0.45935 0.59122 0.0
O454 O 0.93904 0.49396 0.59633 0.0
O455 O 0.90041 0.452 0.57538 0.0
O456 O 0.875 0.39322 0.61259 0.0
C457 C 0.92533 0.48403 0.57644 0.0
H458 H 0.01172 0.34748 0.56866 0.0
H459 H 0.81434 0.5587 0.63755 0.0
H460 H 0.89911 0.4201 0.69222 0.0
H461 H 0.99813 0.50194 0.67045 0.0
Co462 Co 0.04947 0.90341 0.10535 0.0
C463 C 0.08328 0.98703 0.11329 0.0
C464 C 0.1304 0.94586 0.1009 0.0
C465 C 0.14427 0.98629 0.09847 0.0
N466 N 0.09181 0.94619 0.11012 0.0
N467 N 0.11413 0.01218 0.10595 0.0
H468 H 0.05265 0.99881 0.1172 0.0
H469 H 0.14517 0.91877 0.09359 0.0
C470 C 0.1229 0.85593 0.12457 0.0
O471 O 0.12554 0.8835 0.14084 0.0
N472 N 1.00635 0.86158 0.10005 0.0
C473 C 0.96823 0.8689 0.09101 0.0
C474 C 0.94407 0.83388 0.09306 0.0
C475 C 1.00471 0.82153 0.10727 0.0
N476 N 0.96674 0.80424 0.10346 0.0
C477 C 0.01034 0.94017 0.14363 0.0
C478 C 0.02138 0.87621 0.17412 0.0
C479 C 1.00123 0.91277 0.1811 0.0
C480 C 0.99563 0.94474 0.1655 0.0
C481 C 0.03671 0.87327 0.15196 0.0
N482 N 0.03228 0.90569 0.13709 0.0
H483 H 1.00249 0.96435 0.13189 0.0
H484 H 0.05145 0.84463 0.14688 0.0
H485 H 0.95748 0.89809 0.08407 0.0
H486 H 0.02986 0.80592 0.11606 0.0
O487 O 0.01293 0.94626 0.09386 0.0
O488 O 0.05737 0.9107 0.07288 0.0
O489 O 0.09316 0.85808 0.1101 0.0
C490 C 0.03014 0.94077 0.07431 0.0
H491 H 0.17236 0.99583 0.0897 0.0
H492 H 0.91181 0.8308 0.08776 0.0
H493 H 0.02538 0.85035 0.18567 0.0
H494 H 0.97872 0.97279 0.16999 0.0
Co495 Co 0.61337 0.06708 0.60453 0.0
C496 C 0.53651 0.09575 0.6244 0.0
C497 C 0.55572 0.13783 0.59849 0.0
C498 C 0.51401 0.14458 0.60299 0.0
N499 N 0.57007 0.10714 0.61204 0.0
N500 N 0.50179 0.11736 0.61902 0.0
H501 H 0.53559 0.06719 0.63407 0.0
H502 H 0.57281 0.15081 0.5844 0.0
C503 C 0.6616 0.14765 0.61412 0.0
O504 O 0.62665 0.16725 0.61855 0.0
N505 N 0.65419 0.02441 0.59649 0.0
C506 C 0.64445 0.98635 0.58826 0.0
C507 C 0.68032 0.96571 0.58264 0.0
C508 C 0.69656 0.02598 0.59594 0.0
N509 N 0.71298 0.99051 0.58737 0.0
C510 C 0.6037 0.00875 0.64073 0.0
C511 C 0.60639 0.06675 0.67508 0.0
C512 C 0.59196 0.02646 0.67986 0.0
C513 C 0.59252 0.99678 0.66261 0.0
C514 C 0.61831 0.0772 0.65308 0.0
N515 N 0.6149 0.0489 0.63597 0.0
H516 H 0.59996 0.98647 0.62729 0.0
H517 H 0.6263 0.1091 0.64954 0.0
H518 H 0.61332 0.97391 0.58618 0.0
H519 H 0.71501 0.05258 0.60101 0.0
O520 O 0.56822 0.03218 0.59396 0.0
O521 O 0.60289 0.07682 0.57251 0.0
O522 O 0.66139 0.10852 0.60953 0.0
C523 C 0.57275 0.04968 0.57433 0.0
H524 H 0.49339 0.16463 0.5934 0.0
H525 H 0.68235 0.93468 0.57559 0.0
H526 H 0.60627 0.09057 0.68799 0.0
H527 H 0.58116 0.96546 0.6656 0.0
H528 H 0.52582 0.10429 0.221 0.0
H529 H 0.47011 0.00984 0.17814 0.0
H530 H 0.43925 0.97609 0.21154 0.0
H531 H 0.55199 0.03574 0.26711 0.0
H532 H 0.53973 0.07328 0.28868 0.0
H533 H 0.55711 0.09066 0.26137 0.0
H534 H 0.49045 0.13593 0.2573 0.0
H535 H 0.4729 0.11872 0.28462 0.0
H536 H 0.43976 0.11198 0.26031 0.0
H537 H 0.41523 0.95155 0.2496 0.0
H538 H 0.39934 0.93836 0.28964 0.0
H539 H 0.46944 0.04906 0.30815 0.0
C540 C 0.50725 0.07644 0.21864 0.0
C541 C 0.50018 0.06001 0.1968 0.0
C542 C 0.47539 0.0236 0.19455 0.0
C543 C 0.45792 1.00397 0.21347 0.0
C544 C 0.46536 0.021 0.23468 0.0
C545 C 0.48935 0.05644 0.2374 0.0
C546 C 0.49238 0.06828 0.26213 0.0
C547 C 0.53802 0.0669 0.2703 0.0
C548 C 0.47269 0.11128 0.26633 0.0
C549 C 0.46656 0.03383 0.27284 0.0
C550 C 0.45128 0.00692 0.25667 0.0
C551 C 0.42683 0.97258 0.2624 0.0
C552 C 0.41771 0.9655 0.28524 0.0
C553 C 0.43286 0.99266 0.30223 0.0
C554 C 0.45765 0.02732 0.29575 0.0
H555 H 0.51608 0.42049 0.8008 0.0
H556 H 0.46294 0.51709 0.84305 0.0
H557 H 0.43733 0.5539 0.80916 0.0
H558 H 0.55025 0.4871 0.75584 0.0
H559 H 0.53691 0.45083 0.73382 0.0
H560 H 0.55081 0.43189 0.76141 0.0
H561 H 0.48067 0.39167 0.76375 0.0
H562 H 0.46663 0.41039 0.73613 0.0
H563 H 0.43218 0.41934 0.75967 0.0
H564 H 0.41961 0.58158 0.77041 0.0
H565 H 0.40904 0.5966 0.73 0.0
H566 H 0.47027 0.47987 0.71316 0.0
C567 C 0.49908 0.4494 0.80288 0.0
C568 C 0.49136 0.46583 0.82459 0.0
C569 C 0.46874 0.50362 0.82662 0.0
C570 C 0.45426 0.52488 0.80746 0.0
C571 C 0.46234 0.50786 0.78632 0.0
C572 C 0.48395 0.47082 0.78392 0.0
C573 C 0.48803 0.45902 0.75928 0.0
C574 C 0.53425 0.45711 0.75218 0.0
C575 C 0.46553 0.41766 0.75443 0.0
C576 C 0.46573 0.4954 0.74823 0.0
C577 C 0.45126 0.5233 0.76408 0.0
C578 C 0.43048 0.55973 0.75784 0.0
C579 C 0.42437 0.56786 0.73478 0.0
C580 C 0.43873 0.53959 0.71814 0.0
C581 C 0.45944 0.50273 0.7252 0.0
H582 H 1.00393 0.39505 0.22445 0.0
H583 H 0.05919 0.49225 0.18324 0.0
H584 H 0.09002 0.52422 0.21716 0.0
H585 H 0.97933 0.4597 0.27261 0.0
H586 H 0.99274 0.42052 0.29317 0.0
H587 H 0.97426 0.40527 0.2657 0.0
H588 H 0.04097 0.36078 0.25989 0.0
H589 H 0.05967 0.37596 0.28733 0.0
H590 H 0.09165 0.38481 0.26277 0.0
H591 H 0.11339 0.54683 0.25518 0.0
H592 H 0.12945 0.55829 0.29513 0.0
H593 H 0.06359 0.44402 0.31228 0.0
C594 C 0.02242 0.42312 0.22267 0.0
C595 C 0.0294 0.44109 0.20121 0.0
C596 C 0.0539 0.47772 0.19949 0.0
C597 C 0.07141 0.4962 0.21866 0.0
C598 C 0.06443 0.47757 0.23951 0.0
C599 C 0.04072 0.44179 0.24171 0.0
C600 C 0.03888 0.42797 0.26619 0.0
C601 C 0.99361 0.4284 0.27493 0.0
C602 C 0.059 0.38482 0.26922 0.0
C603 C 0.06498 0.46175 0.27732 0.0
C604 C 0.0792 0.49005 0.26157 0.0
C605 C 0.10291 0.52458 0.26767 0.0
C606 C 0.11228 0.53054 0.29051 0.0
C607 C 0.09846 0.50189 0.30717 0.0
C608 C 0.07458 0.46686 0.30025 0.0
H609 H 0.04867 0.04632 0.70138 0.0
H610 H 0.05634 0.91259 0.71119 0.0
H611 H 0.02546 0.92016 0.74906 0.0
H612 H 0.07722 0.07351 0.75797 0.0
H613 H 0.04248 0.11763 0.75958 0.0
H614 H 0.06323 0.10162 0.73274 0.0
H615 H 0.98792 0.09532 0.71697 0.0
H616 H 0.96693 0.11099 0.74385 0.0
H617 H 0.95055 0.06259 0.73126 0.0
H618 H 0.99442 0.94152 0.78553 0.0
H619 H 0.9708 0.97601 0.82031 0.0
H620 H 0.98495 0.09673 0.78817 0.0
C621 C 0.04356 0.01869 0.7115 0.0
C622 C 0.05487 0.97881 0.70339 0.0
C623 C 0.04826 0.94341 0.71718 0.0
C624 C 0.03042 0.94737 0.73862 0.0
C625 C 0.01953 0.987 0.74611 0.0
C626 C 0.02618 0.02214 0.73314 0.0
C627 C 0.01358 0.06123 0.74584 0.0
C628 C 0.05138 0.0902 0.74924 0.0
C629 C 0.9776 0.08386 0.73376 0.0
C630 C 0.99911 0.0425 0.76802 0.0
C631 C 1.00239 0.99957 0.7676 0.0
C632 C 0.99179 0.97511 0.7861 0.0
C633 C 0.97852 0.99501 0.80579 0.0
C634 C 0.97631 0.03906 0.80701 0.0
C635 C 0.98591 0.06303 0.78766 0.0
H636 H 0.5468 0.90681 0.7964 0.0
H637 H 0.43723 0.98525 0.80354 0.0
H638 H 0.45366 0.01945 0.76724 0.0
H639 H 0.61412 0.98213 0.77187 0.0
H640 H 0.63863 0.9468 0.75233 0.0
H641 H 0.61785 0.92746 0.77854 0.0
H642 H 0.57171 0.87465 0.75686 0.0
H643 H 0.59269 0.89352 0.73058 0.0
H644 H 0.53695 0.89311 0.7351 0.0
H645 H 0.48504 0.04894 0.73182 0.0
H646 H 0.52435 0.06602 0.69713 0.0
H647 H 0.61116 0.96556 0.71116 0.0
C648 C 0.52606 0.93084 0.79013 0.0
C649 C 0.49059 0.9433 0.80271 0.0
C650 C 0.46418 0.97488 0.79402 0.0
C651 C 0.47346 0.99467 0.77351 0.0
C652 C 0.50895 0.98213 0.76168 0.0
C653 C 0.53442 0.9504 0.76942 0.0
C654 C 0.57029 0.94253 0.75319 0.0
C655 C 0.61273 0.9502 0.76467 0.0
C656 C 0.56774 0.89833 0.74335 0.0
C657 C 0.56141 0.97526 0.73531 0.0
C658 C 0.5261 0.99802 0.74071 0.0
C659 C 0.51247 0.03106 0.72732 0.0
C660 C 0.53513 0.04073 0.70776 0.0
C661 C 0.57075 0.01719 0.70156 0.0
C662 C 0.58397 0.98396 0.71552 0.0
H663 H 0.55975 0.5703 0.32004 0.0
H664 H 0.61872 0.45454 0.29911 0.0
H665 H 0.60235 0.4709 0.25971 0.0
H666 H 0.47388 0.56321 0.28055 0.0
H667 H 0.47162 0.61849 0.27535 0.0
H668 H 0.48994 0.59929 0.30215 0.0
H669 H 0.55888 0.64063 0.2972 0.0
H670 H 0.54081 0.6599 0.27037 0.0
H671 H 0.59005 0.63276 0.27226 0.0
H672 H 0.58 0.49873 0.22259 0.0
H673 H 0.5498 0.53512 0.18986 0.0
H674 H 0.50053 0.63099 0.23399 0.0
C675 C 0.56909 0.54814 0.30728 0.0
C676 C 0.59136 0.5113 0.31301 0.0
C677 C 0.60295 0.48359 0.29545 0.0
C678 C 0.5934 0.49238 0.27289 0.0
C679 C 0.57164 0.52879 0.26794 0.0
C680 C 0.55925 0.55612 0.28458 0.0
C681 C 0.53488 0.59239 0.27454 0.0
C682 C 0.48991 0.59338 0.2837 0.0
C683 C 0.55752 0.63388 0.27885 0.0
C684 C 0.53562 0.58106 0.24968 0.0
C685 C 0.55736 0.54437 0.24634 0.0
C686 C 0.56296 0.52751 0.22497 0.0
C687 C 0.54589 0.54859 0.20646 0.0
C688 C 0.52318 0.58613 0.20931 0.0
C689 C 0.51777 0.6024 0.23129 0.0
H690 H 0.03675 0.58554 0.7926 0.0
H691 H 0.03818 0.46731 0.8281 0.0
H692 H 0.01407 0.43163 0.79368 0.0
H693 H 0.94468 0.56693 0.7611 0.0
H694 H 0.96267 0.59194 0.73567 0.0
H695 H 0.98274 0.60827 0.76261 0.0
H696 H 0.05848 0.59466 0.749 0.0
H697 H 0.03866 0.5787 0.72192 0.0
H698 H 0.07205 0.54425 0.73782 0.0
H699 H 0.98532 0.40916 0.75624 0.0
H700 H 0.95887 0.40086 0.71734 0.0
H701 H 0.97624 0.53325 0.70578 0.0
C702 C 0.03286 0.55205 0.79295 0.0
C703 C 0.03925 0.52925 0.81309 0.0
C704 C 0.03312 0.48549 0.81294 0.0
C705 C 0.01948 0.4649 0.79346 0.0
C706 C 0.01226 0.48835 0.7741 0.0
C707 C 0.01915 0.53088 0.77357 0.0
C708 C 1.00789 0.54876 0.75065 0.0
C709 C 0.97239 0.58087 0.75264 0.0
C710 C 0.04658 0.5677 0.73917 0.0
C711 C 0.99329 0.50974 0.73853 0.0
C712 C 0.996 0.47527 0.75239 0.0
C713 C 0.98332 0.43591 0.74517 0.0
C714 C 0.968 0.43154 0.7231 0.0
C715 C 0.96556 0.46628 0.70842 0.0
C716 C 0.97824 0.50591 0.71642 0.0
H717 H 0.01989 0.97482 0.21048 0.0
H718 H 0.94322 0.86451 0.2029 0.0
H719 H 0.90672 0.88135 0.23871 0.0
H720 H 0.03105 0.96804 0.27165 0.0
H721 H 0.02978 0.0238 0.27505 0.0
H722 H 0.05001 1.00147 0.24946 0.0
H723 H 0.99724 0.04564 0.2264 0.0
H724 H 0.97618 0.06736 0.25195 0.0
H725 H 0.94211 0.04129 0.23229 0.0
H726 H 0.8756 0.91388 0.27432 0.0
H727 H 0.8601 0.95284 0.30944 0.0
H728 H 0.95901 0.04031 0.29358 0.0
C729 C 0.99589 0.95386 0.21661 0.0
C730 C 0.98437 0.91829 0.20413 0.0
C731 C 0.95275 0.8916 0.21248 0.0
C732 C 0.93164 0.90119 0.23262 0.0
C733 C 0.94293 0.93733 0.24422 0.0
C734 C 0.97497 0.96272 0.23671 0.0
C735 C 0.9817 0.99937 0.25229 0.0
C736 C 0.02574 0.99807 0.26274 0.0
C737 C 0.97383 0.04086 0.23999 0.0
C738 C 0.94828 0.99095 0.26973 0.0
C739 C 0.92583 0.95534 0.2647 0.0
C740 C 0.89313 0.94169 0.27844 0.0
C741 C 0.88421 0.9642 0.29819 0.0
C742 C 0.9082 0.99963 0.30405 0.0
C743 C 0.94007 0.01344 0.28939 0.0
H744 H 0.69265 0.21127 0.10194 0.0
H745 H 0.71081 0.14788 0.16581 0.0
H746 H 0.77243 0.19149 0.17354 0.0
H747 H 0.79927 0.21715 0.08769 0.0
H748 H 0.79758 0.26816 0.07499 0.0
H749 H 0.75141 0.23604 0.07526 0.0
H750 H 0.71005 0.29461 0.09523 0.0
H751 H 0.75604 0.32712 0.09483 0.0
H752 H 0.72993 0.31633 0.12111 0.0
H753 H 0.83559 0.2355 0.17306 0.0
H754 H 0.89586 0.2807 0.16533 0.0
H755 H 0.83983 0.31816 0.10175 0.0
C756 C 0.70891 0.20763 0.11783 0.0
C757 C 0.69655 0.17641 0.13343 0.0
C758 C 0.71947 0.17166 0.1537 0.0
C759 C 0.75459 0.19632 0.15825 0.0
C760 C 0.76684 0.2258 0.14235 0.0
C761 C 0.74467 0.23201 0.12261 0.0
C762 C 0.76671 0.26421 0.10787 0.0
C763 C 0.77949 0.24524 0.0851 0.0
C764 C 0.73903 0.30287 0.10457 0.0
C765 C 0.80496 0.27429 0.12224 0.0
C766 C 0.80403 0.25173 0.14208 0.0
C767 C 0.83645 0.25373 0.15771 0.0
C768 C 0.87079 0.27944 0.15307 0.0
C769 C 0.87284 0.30323 0.13295 0.0
C770 C 0.83912 0.30076 0.11739 0.0
H771 H 0.2272 0.85415 0.62144 0.0
H772 H 0.11896 0.77544 0.63311 0.0
H773 H 0.16419 0.71337 0.63298 0.0
H774 H 0.28328 0.78398 0.58495 0.0
H775 H 0.33401 0.79569 0.59659 0.0
H776 H 0.29324 0.83441 0.59716 0.0
H777 H 0.30142 0.84107 0.64042 0.0
H778 H 0.34233 0.80249 0.63999 0.0
H779 H 0.2973 0.79517 0.65782 0.0
H780 H 0.22025 0.65911 0.62975 0.0
H781 H 0.28477 0.61692 0.62752 0.0
H782 H 0.3582 0.72993 0.62079 0.0
C783 C 0.21312 0.82384 0.62399 0.0
C784 C 0.16941 0.81976 0.62725 0.0
C785 C 0.15229 0.77952 0.63071 0.0
C786 C 0.17773 0.74394 0.63056 0.0
C787 C 0.22053 0.7489 0.62724 0.0
C788 C 0.2383 0.78781 0.62435 0.0
C789 C 0.2855 0.78425 0.6219 0.0
C790 C 0.29984 0.80055 0.59877 0.0
C791 C 0.30795 0.8071 0.64118 0.0
C792 C 0.29128 0.73734 0.62372 0.0
C793 C 0.25328 0.71757 0.6265 0.0
C794 C 0.25026 0.67427 0.6278 0.0
C795 C 0.28707 0.65053 0.62643 0.0
C796 C 0.32656 0.67005 0.62417 0.0
C797 C 0.32852 0.7141 0.6228 0.0
H798 H 0.84103 0.20501 0.91222 0.0
H799 H 0.78723 0.13723 0.85609 0.0
H800 H 0.72757 0.18639 0.8553 0.0
H801 H 0.74523 0.22176 0.94049 0.0
H802 H 0.759 0.27271 0.95084 0.0
H803 H 0.7993 0.23494 0.94537 0.0
H804 H 0.83627 0.28704 0.91859 0.0
H805 H 0.79603 0.32503 0.92399 0.0
H806 H 0.80748 0.30959 0.89546 0.0
H807 H 0.67219 0.24301 0.86147 0.0
H808 H 0.6243 0.29758 0.87603 0.0
H809 H 0.71276 0.32479 0.92945 0.0
C810 C 0.81709 0.20096 0.89949 0.0
C811 C 0.81911 0.16754 0.88402 0.0
C812 C 0.7865 0.16271 0.86803 0.0
C813 C 0.75253 0.19058 0.86741 0.0
C814 C 0.75124 0.22296 0.88307 0.0
C815 C 0.78259 0.22801 0.89892 0.0
C816 C 0.77239 0.26325 0.91498 0.0
C817 C 0.76876 0.24719 0.93936 0.0
C818 C 0.80498 0.2983 0.91313 0.0
C819 C 0.73028 0.27704 0.90587 0.0
C820 C 0.71881 0.25397 0.88722 0.0
C821 C 0.68096 0.26123 0.87606 0.0
C822 C 0.65399 0.29237 0.88437 0.0
C823 C 0.66464 0.31535 0.90391 0.0
C824 C 0.70354 0.30765 0.91454 0.0
H825 H 0.20313 0.68495 0.35421 0.0
H826 H 0.20287 0.6563 0.42569 0.0
H827 H 0.2493 0.71631 0.43277 0.0
H828 H 0.31416 0.71534 0.35242 0.0
H829 H 0.30567 0.75571 0.33177 0.0
H830 H 0.27223 0.71054 0.33225 0.0
H831 H 0.20741 0.75845 0.33567 0.0
H832 H 0.24066 0.80374 0.33544 0.0
H833 H 0.20466 0.79557 0.35839 0.0
H834 H 0.28978 0.78328 0.43266 0.0
H835 H 0.33203 0.84602 0.42481 0.0
H836 H 0.31394 0.82783 0.35305 0.0
C837 C 0.21326 0.69114 0.3713 0.0
C838 C 0.19928 0.66594 0.38943 0.0
C839 C 0.21337 0.6749 0.41153 0.0
C840 C 0.23953 0.70914 0.41575 0.0
C841 C 0.25223 0.73372 0.39761 0.0
C842 C 0.2405 0.72461 0.37575 0.0
C843 C 0.26005 0.75532 0.35928 0.0
C844 C 0.2898 0.73289 0.34297 0.0
C845 C 0.22617 0.77971 0.34644 0.0
C846 C 0.28397 0.78348 0.37536 0.0
C847 C 0.27831 0.77078 0.39742 0.0
C848 C 0.29501 0.79309 0.41544 0.0
C849 C 0.31874 0.82887 0.41081 0.0
C850 C 0.3265 0.84162 0.38834 0.0
C851 C 0.30886 0.81851 0.37038 0.0
H852 H 0.16571 0.71551 0.89632 0.0
H853 H 0.2451 0.60703 0.88774 0.0
H854 H 0.30753 0.65209 0.88828 0.0
H855 H 0.22672 0.78426 0.86066 0.0
H856 H 0.21803 0.82934 0.87812 0.0
H857 H 0.17958 0.78839 0.87717 0.0
H858 H 0.18372 0.78105 0.9206 0.0
H859 H 0.22237 0.82182 0.92166 0.0
H860 H 0.23365 0.77156 0.93379 0.0
H861 H 0.36251 0.70955 0.89102 0.0
H862 H 0.40384 0.77484 0.89293 0.0
H863 H 0.28864 0.84555 0.89845 0.0
C864 C 0.19618 0.70121 0.89446 0.0
C865 C 0.20022 0.65753 0.89198 0.0
C866 C 0.24088 0.64031 0.88957 0.0
C867 C 0.27672 0.66569 0.88994 0.0
C868 C 0.27169 0.70851 0.89258 0.0
C869 C 0.23239 0.72619 0.89458 0.0
C870 C 0.23558 0.77314 0.89684 0.0
C871 C 0.21368 0.79507 0.87702 0.0
C872 C 0.21778 0.78774 0.91958 0.0
C873 C 0.28268 0.77906 0.89585 0.0
C874 C 0.30309 0.74142 0.89358 0.0
C875 C 0.34676 0.73922 0.89269 0.0
C876 C 0.37007 0.77646 0.89388 0.0
C877 C 0.3497 0.81547 0.89573 0.0
C878 C 0.30537 0.81638 0.89683 0.0
H879 H 0.80932 0.17899 0.35745 0.0
H880 H 0.81334 0.15061 0.42891 0.0
H881 H 0.76792 0.21128 0.4366 0.0
H882 H 0.80993 0.28929 0.3614 0.0
H883 H 0.7729 0.29797 0.33896 0.0
H884 H 0.80528 0.25206 0.33881 0.0
H885 H 0.73944 0.20533 0.33647 0.0
H886 H 0.70684 0.25111 0.33634 0.0
H887 H 0.69867 0.21108 0.35721 0.0
H888 H 0.72815 0.27898 0.43688 0.0
H889 H 0.68659 0.34235 0.42945 0.0
H890 H 0.70115 0.32357 0.35751 0.0
C891 C 0.80019 0.18533 0.37468 0.0
C892 C 0.81495 0.16008 0.39262 0.0
C893 C 0.80219 0.16926 0.41491 0.0
C894 C 0.77663 0.20386 0.41945 0.0
C895 C 0.76323 0.22855 0.40146 0.0
C896 C 0.77366 0.21915 0.37946 0.0
C897 C 0.75385 0.25009 0.36319 0.0
C898 C 0.78751 0.27375 0.3498 0.0
C899 C 0.72285 0.22809 0.34737 0.0
C900 C 0.73131 0.2788 0.37953 0.0
C901 C 0.7378 0.2661 0.40154 0.0
C902 C 0.72233 0.28882 0.41971 0.0
C903 C 0.69903 0.32498 0.41532 0.0
C904 C 0.6905 0.33783 0.39292 0.0
C905 C 0.70688 0.31429 0.37479 0.0
H906 H 0.16478 0.80991 0.15666 0.0
H907 H 0.1602 0.83503 0.08491 0.0
H908 H 0.22282 0.7909 0.07926 0.0
H909 H 0.27601 0.80635 0.16339 0.0
H910 H 0.27576 0.76302 0.18274 0.0
H911 H 0.23142 0.79755 0.18136 0.0
H912 H 0.18241 0.73502 0.17341 0.0
H913 H 0.22652 0.70025 0.17505 0.0
H914 H 0.19394 0.7006 0.15024 0.0
H915 H 0.28946 0.74785 0.08196 0.0
H916 H 0.34666 0.69889 0.09155 0.0
H917 H 0.30334 0.69501 0.16075 0.0
C918 C 0.1769 0.80585 0.13977 0.0
C919 C 0.15777 0.826 0.12121 0.0
C920 C 0.17422 0.81967 0.09932 0.0
C921 C 0.20999 0.79493 0.09599 0.0
C922 C 0.22849 0.77587 0.11465 0.0
C923 C 0.21185 0.78012 0.13604 0.0
C924 C 0.23619 0.75417 0.15299 0.0
C925 C 0.25602 0.78194 0.17119 0.0
C926 C 0.20809 0.72051 0.16354 0.0
C927 C 0.26936 0.73507 0.13788 0.0
C928 C 0.26491 0.74869 0.1159 0.0
C929 C 0.29288 0.73661 0.09907 0.0
C930 C 0.3255 0.70905 0.1047 0.0
C931 C 0.32939 0.69304 0.12685 0.0
C932 C 0.30103 0.70658 0.14364 0.0
H933 H 0.6709 0.23225 0.61113 0.0
H934 H 0.7422 0.11817 0.61906 0.0
H935 H 0.80739 0.15965 0.62167 0.0
H936 H 0.74671 0.28583 0.57639 0.0
H937 H 0.73632 0.33603 0.58876 0.0
H938 H 0.69561 0.2973 0.58762 0.0
H939 H 0.68575 0.30308 0.63084 0.0
H940 H 0.72651 0.34172 0.63212 0.0
H941 H 0.73007 0.29536 0.64918 0.0
H942 H 0.86447 0.21436 0.62499 0.0
H943 H 0.90947 0.2767 0.62616 0.0
H944 H 0.80112 0.35524 0.61439 0.0
C945 C 0.7002 0.21587 0.61343 0.0
C946 C 0.70134 0.17181 0.61499 0.0
C947 C 0.74047 0.15176 0.61774 0.0
C948 C 0.77764 0.17513 0.61932 0.0
C949 C 0.77526 0.21853 0.61787 0.0
C950 C 0.73754 0.23865 0.61475 0.0
C951 C 0.74345 0.28553 0.61332 0.0
C952 C 0.72971 0.30214 0.59014 0.0
C953 C 0.72006 0.30772 0.63251 0.0
C954 C 0.79044 0.28884 0.61632 0.0
C955 C 0.80814 0.24983 0.61907 0.0
C956 C 0.8509 0.24496 0.6227 0.0
C957 C 0.87621 0.28069 0.62342 0.0
C958 C 0.85897 0.32102 0.62032 0.0
C959 C 0.81539 0.32493 0.61668 0.0
H960 H 0.50934 0.77864 0.12752 0.0
H961 H 0.5206 0.75732 0.0557 0.0
H962 H 0.54789 0.82848 0.05049 0.0
H963 H 0.48106 0.89269 0.12299 0.0
H964 H 0.51098 0.90581 0.14774 0.0
H965 H 0.48667 0.85532 0.1455 0.0
H966 H 0.55857 0.82041 0.1524 0.0
H967 H 0.58324 0.87068 0.15424 0.0
H968 H 0.60187 0.83293 0.13414 0.0
H969 H 0.58277 0.89646 0.05344 0.0
H970 H 0.61625 0.96288 0.06381 0.0
H971 H 0.58203 0.94308 0.1337 0.0
C972 C 0.51618 0.78971 0.11068 0.0
C973 C 0.51287 0.76278 0.09196 0.0
C974 C 0.52308 0.77766 0.07018 0.0
C975 C 0.53855 0.81794 0.06708 0.0
C976 C 0.54336 0.84315 0.08593 0.0
C977 C 0.53181 0.83014 0.10728 0.0
C978 C 0.54274 0.86296 0.12474 0.0
C979 C 0.50299 0.88022 0.1359 0.0
C980 C 0.57343 0.84569 0.14242 0.0
C981 C 0.56346 0.89553 0.10992 0.0
C982 C 0.56331 0.88333 0.0876 0.0
C983 C 0.58263 0.90672 0.0708 0.0
C984 C 0.60207 0.94405 0.07689 0.0
C985 C 0.60214 0.95762 0.09958 0.0
C986 C 0.58236 0.93316 0.11627 0.0
H987 H 0.73971 0.54327 0.63962 0.0
H988 H 0.76631 0.50894 0.57051 0.0
H989 H 0.69752 0.53763 0.55873 0.0
H990 H 0.62964 0.51861 0.63825 0.0
H991 H 0.61577 0.56133 0.65645 0.0
H992 H 0.66651 0.53744 0.65886 0.0
H993 H 0.70128 0.60964 0.65306 0.0
H994 H 0.65062 0.63362 0.65022 0.0
H995 H 0.68899 0.63963 0.62821 0.0
H996 H 0.62575 0.57267 0.55481 0.0
H997 H 0.55509 0.60315 0.55973 0.0
H998 H 0.57709 0.61397 0.63149 0.0
C999 C 0.73104 0.54175 0.622 0.0
C1000 C 0.75834 0.52413 0.60593 0.0
C1001 C 0.74565 0.52204 0.58309 0.0
C1002 C 0.70687 0.5386 0.57626 0.0
C1003 C 0.68117 0.5568 0.59253 0.0
C1004 C 0.6926 0.55782 0.61499 0.0
C1005 C 0.6593 0.57806 0.62938 0.0
C1006 C 0.64177 0.547 0.64675 0.0
C1007 C 0.67607 0.61758 0.64089 0.0
C1008 C 0.62724 0.58859 0.61154 0.0
C1009 C 0.64038 0.57644 0.59034 0.0
C1010 C 0.61535 0.58247 0.57133 0.0
C1011 C 0.5755 0.60026 0.57421 0.0
C1012 C 0.56109 0.61152 0.59596 0.0
C1013 C 0.5877 0.60615 0.61469 0.0
H1014 H 0.96761 0.55846 0.11614 0.0
H1015 H 0.83595 0.56685 0.13331 0.0
H1016 H 0.84119 0.64367 0.13302 0.0
H1017 H 1.00231 0.6497 0.14947 0.0
H1018 H 0.04032 0.66464 0.12855 0.0
H1019 H 0.02704 0.61052 0.13231 0.0
H1020 H 0.00863 0.60541 0.09014 0.0
H1021 H 0.02079 0.65955 0.08598 0.0
H1022 H 0.96996 0.63989 0.07821 0.0
H1023 H 0.85936 0.71884 0.128 0.0
H1024 H 0.8888 0.78756 0.11848 0.0
H1025 H 0.0091 0.73061 0.10485 0.0
C1026 C 0.94006 0.57621 0.12049 0.0
C1027 C 0.9013 0.55642 0.12493 0.0
C1028 C 0.86585 0.58124 0.1298 0.0
C1029 C 0.86862 0.62487 0.1298 0.0
C1030 C 0.90715 0.64324 0.12503 0.0
C1031 C 0.94232 0.61972 0.1206 0.0
C1032 C 0.97938 0.64714 0.11465 0.0
C1033 C 0.01433 0.64274 0.1323 0.0
C1034 C 0.9956 0.63744 0.09082 0.0
C1035 C 0.95924 0.6898 0.11576 0.0
C1036 C 0.91767 0.68677 0.12203 0.0
C1037 C 0.89192 0.7216 0.12325 0.0
C1038 C 0.90887 0.76046 0.11765 0.0
C1039 C 0.95118 0.76436 0.11082 0.0
C1040 C 0.97684 0.72857 0.11027 0.0
H1041 H 0.77822 0.99806 0.6164 0.0
H1042 H 0.74361 0.95655 0.54954 0.0
H1043 H 0.81378 0.92586 0.54437 0.0
H1044 H 0.8904 0.02063 0.60327 0.0
H1045 H 0.90782 1.0018 0.63032 0.0
H1046 H 0.85678 0.02508 0.62753 0.0
H1047 H 0.8236 0.95856 0.64467 0.0
H1048 H 0.87439 0.93478 0.64707 0.0
H1049 H 0.83342 0.9088 0.63166 0.0
H1050 H 0.88478 0.8943 0.54769 0.0
H1051 H 0.95484 0.86854 0.55817 0.0
H1052 H 0.94323 0.92828 0.62343 0.0
C1053 C 0.78612 0.98368 0.60047 0.0
C1054 C 0.7559 0.97983 0.58326 0.0
C1055 C 0.76662 0.9598 0.56282 0.0
C1056 C 0.80627 0.94227 0.55977 0.0
C1057 C 0.8349 0.94501 0.57736 0.0
C1058 C 0.82565 0.96563 0.59722 0.0
C1059 C 0.8614 0.96189 0.6139 0.0
C1060 C 0.88022 1.00491 0.61905 0.0
C1061 C 0.84734 0.93968 0.6356 0.0
C1062 C 0.89156 0.93523 0.60048 0.0
C1063 C 0.87576 0.92605 0.57942 0.0
C1064 C 0.89761 0.90136 0.56412 0.0
C1065 C 0.93717 0.88638 0.57034 0.0
C1066 C 0.95444 0.89609 0.59169 0.0
C1067 C 0.93091 0.92045 0.60698 0.0
H1068 H 0.56368 0.56725 0.88866 0.0
H1069 H 0.66186 0.56679 0.9392 0.0
H1070 H 0.64804 0.6408 0.94713 0.0
H1071 H 0.58399 0.67112 0.86755 0.0
H1072 H 0.52953 0.68315 0.86314 0.0
H1073 H 0.54733 0.63004 0.86132 0.0
H1074 H 0.49274 0.60858 0.8914 0.0
H1075 H 0.47516 0.66175 0.89359 0.0
H1076 H 0.49261 0.63431 0.9184 0.0
H1077 H 0.62259 0.71316 0.95066 0.0
H1078 H 0.59247 0.78327 0.94658 0.0
H1079 H 0.51098 0.73884 0.89331 0.0
C1080 C 0.58233 0.58286 0.90132 0.0
C1081 C 0.61398 0.56128 0.91326 0.0
C1082 C 0.63798 0.58278 0.92959 0.0
C1083 C 0.63001 0.62469 0.9344 0.0
C1084 C 0.59806 0.64473 0.92268 0.0
C1085 C 0.57493 0.62485 0.90625 0.0
C1086 C 0.54309 0.65416 0.89578 0.0
C1087 C 0.55151 0.65996 0.87045 0.0
C1088 C 0.49824 0.63877 0.90006 0.0
C1089 C 0.55215 0.6937 0.90887 0.0
C1090 C 0.58368 0.68719 0.92445 0.0
C1091 C 0.5981 0.71876 0.93843 0.0
C1092 C 0.58087 0.75847 0.93594 0.0
C1093 C 0.54977 0.76652 0.91947 0.0
C1094 C 0.53447 0.73342 0.90613 0.0
H1095 H 0.78763 0.56417 0.43888 0.0
H1096 H 0.76247 0.512 0.37288 0.0
H1097 H 0.83032 0.53918 0.35918 0.0
H1098 H 0.83881 0.65838 0.42032 0.0
H1099 H 0.8771 0.6577 0.44264 0.0
H1100 H 0.82622 0.63504 0.44713 0.0
H1101 H 0.86048 0.56474 0.45833 0.0
H1102 H 0.91139 0.58741 0.45424 0.0
H1103 H 0.89719 0.54063 0.43934 0.0
H1104 H 0.90139 0.57099 0.353 0.0
H1105 H 0.97341 0.59882 0.35583 0.0
H1106 H 0.95186 0.63085 0.42571 0.0
C1107 C 0.79629 0.55872 0.4215 0.0
C1108 C 0.7697 0.53614 0.40689 0.0
C1109 C 0.78251 0.52889 0.38439 0.0
C1110 C 0.82076 0.5446 0.37643 0.0
C1111 C 0.84587 0.56734 0.3912 0.0
C1112 C 0.83439 0.57394 0.41334 0.0
C1113 C 0.86798 0.59747 0.42611 0.0
C1114 C 0.85153 0.63965 0.43454 0.0
C1115 C 0.88528 0.57099 0.44566 0.0
C1116 C 0.90025 0.60315 0.40769 0.0
C1117 C 0.88674 0.58579 0.38763 0.0
C1118 C 0.91207 0.58505 0.36854 0.0
C1119 C 0.95273 0.60111 0.37023 0.0
C1120 C 0.9677 0.61771 0.3908 0.0
C1121 C 0.94068 0.61966 0.40959 0.0
H1122 H 0.90697 0.9429 0.88432 0.0
H1123 H 0.8979 0.95347 0.95687 0.0
H1124 H 0.92782 0.88249 0.96102 0.0
H1125 H 0.88184 0.83179 0.88052 0.0
H1126 H 0.91826 0.82366 0.85776 0.0
H1127 H 0.89322 0.87351 0.86109 0.0
H1128 H 0.96596 0.90909 0.8622 0.0
H1129 H 0.9913 0.85932 0.8593 0.0
H1130 H 1.00392 0.8925 0.88283 0.0
H1131 H 0.96472 0.81177 0.95664 0.0
H1132 H 0.99744 0.74557 0.94415 0.0
H1133 H 0.98167 0.7833 0.87451 0.0
C1134 C 0.91044 0.92978 0.90105 0.0
C1135 C 0.89978 0.95325 0.92027 0.0
C1136 C 0.90509 0.9355 0.94194 0.0
C1137 C 0.92246 0.89546 0.94442 0.0
C1138 C 0.93393 0.87364 0.92503 0.0
C1139 C 0.92744 0.89006 0.90375 0.0
C1140 C 0.94312 0.86116 0.88554 0.0
C1141 C 0.90695 0.84666 0.87034 0.0
C1142 C 0.97815 0.88176 0.87166 0.0
C1143 C 0.9598 0.82586 0.89981 0.0
C1144 C 0.95457 0.83353 0.92255 0.0
C1145 C 0.96861 0.80538 0.93885 0.0
C1146 C 0.98749 0.76808 0.93165 0.0
C1147 C 0.99184 0.75926 0.90838 0.0
C1148 C 0.97824 0.78894 0.8924 0.0
H1149 H 0.55692 0.96473 0.40349 0.0
H1150 H 0.55863 0.84027 0.43254 0.0
H1151 H 0.63486 0.84636 0.43784 0.0
H1152 H 0.64978 0.95899 0.37373 0.0
H1153 H 0.66532 0.01195 0.3793 0.0
H1154 H 0.61075 0.9984 0.37883 0.0
H1155 H 0.60171 0.02791 0.41927 0.0
H1156 H 0.6563 0.04189 0.41969 0.0
H1157 H 0.63508 0.0092 0.4416 0.0
H1158 H 0.71184 0.86456 0.4375 0.0
H1159 H 0.78275 0.89336 0.43155 0.0
H1160 H 0.72898 0.00708 0.40497 0.0
C1161 C 0.57252 0.93881 0.41147 0.0
C1162 C 0.55087 0.90202 0.41774 0.0
C1163 C 0.57393 0.86878 0.42746 0.0
C1164 C 0.61737 0.87206 0.43071 0.0
C1165 C 0.63729 0.90894 0.42444 0.0
C1166 C 0.61547 0.94179 0.41517 0.0
C1167 C 0.64412 0.97768 0.40917 0.0
C1168 C 0.64238 0.98729 0.38375 0.0
C1169 C 0.63367 0.01646 0.42328 0.0
C1170 C 0.68589 0.95945 0.4159 0.0
C1171 C 0.68129 0.91984 0.42479 0.0
C1172 C 0.71571 0.89572 0.43085 0.0
C1173 C 0.75579 0.91223 0.42735 0.0
C1174 C 0.76113 0.9525 0.41798 0.0
C1175 C 0.72566 0.97664 0.41262 0.0
H1176 H 0.45931 0.23482 0.94064 0.0
H1177 H 0.49706 0.26724 0.87269 0.0
H1178 H 0.47236 0.19833 0.85925 0.0
H1179 H 0.4891 0.12675 0.93785 0.0
H1180 H 0.44579 0.10994 0.955 0.0
H1181 H 0.46735 0.16125 0.95873 0.0
H1182 H 0.39369 0.19317 0.9522 0.0
H1183 H 0.37209 0.14195 0.94808 0.0
H1184 H 0.36568 0.18125 0.92662 0.0
H1185 H 0.44276 0.12513 0.85368 0.0
H1186 H 0.41486 0.05321 0.85694 0.0
H1187 H 0.39575 0.07182 0.92851 0.0
C1188 C 0.46217 0.22758 0.9229 0.0
C1189 C 0.4797 0.25641 0.90764 0.0
C1190 C 0.48387 0.24541 0.88464 0.0
C1191 C 0.46967 0.20655 0.87688 0.0
C1192 C 0.45168 0.17918 0.89238 0.0
C1193 C 0.44836 0.18917 0.91496 0.0
C1194 C 0.42869 0.15435 0.92841 0.0
C1195 C 0.45957 0.13706 0.94602 0.0
C1196 C 0.3876 0.16854 0.93947 0.0
C1197 C 0.42075 0.12327 0.90984 0.0
C1198 C 0.43432 0.1379 0.88917 0.0
C1199 C 0.43176 0.11356 0.86976 0.0
C1200 C 0.41577 0.07295 0.87171 0.0
C1201 C 0.40235 0.05737 0.89285 0.0
C1202 C 0.4044 0.08326 0.912 0.0
H1203 H 0.28595 0.50582 0.39855 0.0
H1204 H 0.24342 0.42448 0.45219 0.0
H1205 H 0.31381 0.39348 0.45493 0.0
H1206 H 0.34969 0.43218 0.37118 0.0
H1207 H 0.39111 0.4678 0.36385 0.0
H1208 H 0.33849 0.48676 0.36727 0.0
H1209 H 0.3638 0.53991 0.39715 0.0
H1210 H 0.41663 0.52153 0.39354 0.0
H1211 H 0.39324 0.52179 0.42117 0.0
H1212 H 0.38674 0.36775 0.45021 0.0
H1213 H 0.45995 0.35261 0.44037 0.0
H1214 H 0.45618 0.4494 0.38922 0.0
C1215 C 0.29193 0.48227 0.41122 0.0
C1216 C 0.25932 0.4675 0.42519 0.0
C1217 C 0.26797 0.436 0.44128 0.0
C1218 C 0.30782 0.41824 0.44297 0.0
C1219 C 0.33892 0.43235 0.42846 0.0
C1220 C 0.33175 0.46397 0.41307 0.0
C1221 C 0.37052 0.4721 0.39898 0.0
C1222 C 0.36192 0.46423 0.37383 0.0
C1223 C 0.38702 0.51647 0.40296 0.0
C1224 C 0.40015 0.43968 0.40863 0.0
C1225 C 0.38125 0.41721 0.42565 0.0
C1226 C 0.402 0.38524 0.43696 0.0
C1227 C 0.44354 0.37652 0.43104 0.0
C1228 C 0.46406 0.39964 0.41394 0.0
C1229 C 0.44162 0.43134 0.40248 0.0
H1230 H 0.04135 0.28138 0.87688 0.0
H1231 H 1.00674 0.24521 0.94471 0.0
H1232 H 0.03603 0.31155 0.9593 0.0
H1233 H 0.13833 0.33018 0.89025 0.0
H1234 H 0.13212 0.37143 0.86988 0.0
H1235 H 0.10817 0.32148 0.865 0.0
H1236 H 0.03555 0.35669 0.8607 0.0
H1237 H 0.05942 0.40676 0.86517 0.0
H1238 H 0.01661 0.39025 0.88279 0.0
H1239 H 0.07141 0.38207 0.96616 0.0
H1240 H 0.10175 0.45319 0.96402 0.0
H1241 H 0.11184 0.44158 0.89157 0.0
C1242 C 0.03995 0.28746 0.8948 0.0
C1243 C 0.02206 0.25825 0.90972 0.0
C1244 C 0.02009 0.26745 0.93303 0.0
C1245 C 0.03698 0.3048 0.94144 0.0
C1246 C 0.05532 0.33256 0.92625 0.0
C1247 C 0.05625 0.32449 0.90337 0.0
C1248 C 0.0764 0.35964 0.89037 0.0
C1249 C 0.11611 0.34477 0.87816 0.0
C1250 C 0.04513 0.37951 0.87379 0.0
C1251 C 0.08691 0.38883 0.90947 0.0
C1252 C 0.07495 0.37271 0.93011 0.0
C1253 C 0.08104 0.39483 0.95009 0.0
C1254 C 0.09865 0.43492 0.94879 0.0
C1255 C 0.10942 0.45234 0.92765 0.0
C1256 C 0.10417 0.42859 0.90791 0.0
H1257 H 0.23239 0.07256 0.37871 0.0
H1258 H 0.24617 0.01262 0.44373 0.0
H1259 H 0.17518 0.03699 0.45453 0.0
H1260 H 0.17622 0.16312 0.39717 0.0
H1261 H 0.14267 0.16452 0.37275 0.0
H1262 H 0.19462 0.14317 0.37057 0.0
H1263 H 0.16444 0.07376 0.35523 0.0
H1264 H 0.11257 0.09524 0.35691 0.0
H1265 H 0.12452 0.04697 0.37106 0.0
H1266 H 0.10199 0.06849 0.45774 0.0
H1267 H 0.03059 0.09652 0.45131 0.0
H1268 H 0.06574 0.1342 0.384 0.0
C1269 C 0.22053 0.06477 0.39527 0.0
C1270 C 0.24473 0.04108 0.4105 0.0
C1271 C 0.22791 0.03062 0.43183 0.0
C1272 C 0.1879 0.04468 0.43814 0.0
C1273 C 0.16521 0.06885 0.42282 0.0
C1274 C 0.1808 0.07819 0.40169 0.0
C1275 C 0.14966 0.10259 0.38776 0.0
C1276 C 0.16683 0.14592 0.38171 0.0
C1277 C 0.13704 0.07817 0.36649 0.0
C1278 C 0.11388 0.10564 0.40429 0.0
C1279 C 0.12351 0.0865 0.42456 0.0
C1280 C 0.09446 0.08406 0.44206 0.0
C1281 C 0.05426 0.10047 0.43843 0.0
C1282 C 0.04361 0.11867 0.41746 0.0
C1283 C 0.07394 0.12177 0.40039 0.0
H1284 H 0.47672 0.2903 0.08606 0.0
H1285 H 0.53182 0.2587 0.15069 0.0
H1286 H 0.50757 0.32633 0.16605 0.0
H1287 H 0.49862 0.40028 0.08734 0.0
H1288 H 0.44992 0.41383 0.07389 0.0
H1289 H 0.47425 0.36446 0.06801 0.0
H1290 H 0.4062 0.32635 0.07989 0.0
H1291 H 0.38172 0.37554 0.086 0.0
H1292 H 0.38439 0.33579 0.10744 0.0
H1293 H 0.47543 0.39846 0.17408 0.0
H1294 H 0.43945 0.46719 0.17369 0.0
H1295 H 0.40247 0.44664 0.10441 0.0
C1296 C 0.48364 0.29726 0.10349 0.0
C1297 C 0.50592 0.26886 0.1172 0.0
C1298 C 0.51509 0.27999 0.13979 0.0
C1299 C 0.50119 0.31823 0.14868 0.0
C1300 C 0.4782 0.34488 0.13476 0.0
C1301 C 0.46974 0.33477 0.1126 0.0
C1302 C 0.44381 0.3679 0.10107 0.0
C1303 C 0.4681 0.38779 0.08142 0.0
C1304 C 0.40153 0.35033 0.09314 0.0
C1305 C 0.4383 0.39817 0.12027 0.0
C1306 C 0.45867 0.38482 0.13955 0.0
C1307 C 0.45906 0.40888 0.15914 0.0
C1308 C 0.43846 0.44763 0.15885 0.0
C1309 C 0.41724 0.46143 0.13927 0.0
C1310 C 0.41714 0.43616 0.11986 0.0
H1311 H 0.24066 0.51654 0.60827 0.0
H1312 H 0.30176 0.39679 0.60137 0.0
H1313 H 0.23429 0.36437 0.59129 0.0
H1314 H 0.15128 0.47935 0.63486 0.0
H1315 H 0.1151 0.51441 0.62131 0.0
H1316 H 0.16886 0.52948 0.62494 0.0
H1317 H 0.17561 0.54253 0.58198 0.0
H1318 H 0.12167 0.52773 0.57822 0.0
H1319 H 0.16212 0.50159 0.56252 0.0
H1320 H 0.15947 0.34374 0.58532 0.0
H1321 H 0.08239 0.33651 0.58476 0.0
H1322 H 0.07008 0.46958 0.59547 0.0
C1323 C 0.23985 0.48376 0.60404 0.0
C1324 C 0.27628 0.45913 0.60553 0.0
C1325 C 0.27405 0.41608 0.60045 0.0
C1326 C 0.23596 0.39747 0.59457 0.0
C1327 C 0.20035 0.42235 0.5938 0.0
C1328 C 0.20193 0.46461 0.59832 0.0
C1329 C 0.15857 0.48357 0.59815 0.0
C1330 C 0.14784 0.50282 0.62118 0.0
C1331 C 0.15425 0.51576 0.57907 0.0
C1332 C 0.13242 0.44519 0.5935 0.0
C1333 C 0.15709 0.41031 0.5907 0.0
C1334 C 0.1398 0.37094 0.58721 0.0
C1335 C 0.09606 0.3671 0.58686 0.0
C1336 C 0.07022 0.40232 0.59023 0.0
C1337 C 0.08888 0.4419 0.59318 0.0
H1338 H 0.01035 0.23718 0.11595 0.0
H1339 H 0.07072 0.26719 0.05259 0.0
H1340 H 0.10004 0.19621 0.05074 0.0
H1341 H 0.09214 0.17801 0.1387 0.0
H1342 H 0.05972 0.13908 0.15192 0.0
H1343 H 0.03971 0.19086 0.14745 0.0
H1344 H 0.97671 0.16115 0.12514 0.0
H1345 H 0.99611 0.10919 0.12997 0.0
H1346 H 0.98608 0.12686 0.10163 0.0
H1347 H 0.12724 0.12426 0.05708 0.0
H1348 H 0.14509 0.0531 0.06938 0.0
H1349 H 0.06821 0.06919 0.12899 0.0
C1350 C 0.02877 0.22831 0.10143 0.0
C1351 C 0.03835 0.25763 0.08441 0.0
C1352 C 0.0633 0.24523 0.06586 0.0
C1353 C 0.08006 0.20502 0.06466 0.0
C1354 C 0.07149 0.17736 0.08213 0.0
C1355 C 0.04594 0.18814 0.1 0.0
C1356 C 0.04293 0.15272 0.11688 0.0
C1357 C 0.05963 0.16598 0.14011 0.0
C1358 C 0.99777 0.13652 0.11849 0.0
C1359 C 0.07144 0.12089 0.1059 0.0
C1360 C 0.08747 0.13573 0.08585 0.0
C1361 C 0.1148 0.1122 0.07274 0.0
C1362 C 0.12525 0.07195 0.08004 0.0
C1363 C 0.10839 0.05555 0.10028 0.0
C1364 C 0.08158 0.08081 0.11345 0.0
H1365 H 0.43524 0.12089 0.59042 0.0
H1366 H 0.47386 0.07845 0.6567 0.0
H1367 H 0.40631 0.04177 0.66116 0.0
H1368 H 0.32585 0.1387 0.60439 0.0
H1369 H 0.30803 0.12122 0.57717 0.0
H1370 H 0.35878 0.14496 0.57996 0.0
H1371 H 0.39282 0.07955 0.56171 0.0
H1372 H 0.342 0.05584 0.55911 0.0
H1373 H 0.38315 0.02904 0.57396 0.0
H1374 H 0.33589 1.00549 0.65695 0.0
H1375 H 0.26435 0.98169 0.64666 0.0
H1376 H 0.27235 0.0506 0.58408 0.0
C1377 C 0.4292 0.10501 0.60617 0.0
C1378 C 0.4599 0.10267 0.62325 0.0
C1379 C 0.45082 0.0805 0.64336 0.0
C1380 C 0.41266 0.05946 0.646 0.0
C1381 C 0.38376 0.06116 0.62844 0.0
C1382 C 0.39132 0.08404 0.60911 0.0
C1383 C 0.35533 0.08095 0.59267 0.0
C1384 C 0.33584 0.12401 0.58831 0.0
C1385 C 0.36918 0.06013 0.57055 0.0
C1386 C 0.32614 0.05304 0.60584 0.0
C1387 C 0.34324 0.04129 0.62628 0.0
C1388 C 0.32209 0.01474 0.64105 0.0
C1389 C 0.28182 1.00104 0.63504 0.0
C1390 C 0.26328 0.01447 0.61466 0.0
C1391 C 0.28606 0.04013 0.59979 0.0
H1392 H 0.46476 0.93876 0.97933 0.0
H1393 H 0.52662 0.01385 0.92835 0.0
H1394 H 0.55443 0.05986 0.95782 0.0
H1395 H 0.43634 0.02516 0.01588 0.0
H1396 H 0.44577 0.99687 0.04165 0.0
H1397 H 0.43002 0.96937 0.01659 0.0
H1398 H 0.49564 0.9222 0.01969 0.0
H1399 H 0.51122 0.94956 0.04481 0.0
H1400 H 0.54668 0.94589 0.02129 0.0
H1401 H 0.57819 0.09663 0.99253 0.0
H1402 H 0.59365 0.12364 0.0306 0.0
H1403 H 0.51574 0.02696 0.0598 0.0
C1404 C 0.48411 0.9649 0.97442 0.0
C1405 C 0.49364 0.97241 0.95144 0.0
C1406 C 0.51902 0.0071 0.94576 0.0
C1407 C 0.53502 0.03357 0.96241 0.0
C1408 C 0.5255 0.02518 0.98484 0.0
C1409 C 0.50053 0.99186 0.99095 0.0
C1410 C 0.49525 0.99022 0.01642 0.0
C1411 C 0.4491 0.99574 0.02302 0.0
C1412 C 0.51328 0.94955 0.02611 0.0
C1413 C 0.52127 0.02763 0.02353 0.0
C1414 C 0.53854 0.04719 1.005 0.0
C1415 C 0.56464 0.08175 1.00718 0.0
C1416 C 0.57333 0.09684 0.02888 0.0
C1417 C 0.55569 0.07769 0.04815 0.0
C1418 C 0.52927 0.04261 0.04536 0.0
H1419 H 0.43413 0.55043 0.53964 0.0
H1420 H 0.49496 0.46594 0.58654 0.0
H1421 H 0.54027 0.44041 0.55604 0.0
H1422 H 0.4379 0.48049 0.49026 0.0
H1423 H 0.44854 0.52227 0.47077 0.0
H1424 H 0.41856 0.53218 0.49591 0.0
H1425 H 0.4707 0.5904 0.50709 0.0
H1426 H 0.50116 0.58034 0.48215 0.0
H1427 H 0.52557 0.5783 0.50953 0.0
H1428 H 0.58132 0.42647 0.52178 0.0
H1429 H 0.61463 0.42205 0.4846 0.0
H1430 H 0.52853 0.51522 0.45865 0.0
C1431 C 0.45638 0.52593 0.54333 0.0
C1432 C 0.46078 0.50991 0.56546 0.0
C1433 C 0.49086 0.47852 0.56973 0.0
C1434 C 0.51682 0.46384 0.55252 0.0
C1435 C 0.51236 0.48078 0.53105 0.0
C1436 C 0.48276 0.51085 0.52624 0.0
C1437 C 0.48579 0.52456 0.50175 0.0
C1438 C 0.44529 0.51425 0.48892 0.0
C1439 C 0.49644 0.57117 0.50004 0.0
C1440 C 0.52194 0.49773 0.4937 0.0
C1441 C 0.53659 0.47276 0.51098 0.0
C1442 C 0.57002 0.44564 0.50805 0.0
C1443 C 0.5888 0.44348 0.48682 0.0
C1444 C 0.57427 0.4683 0.46866 0.0
C1445 C 0.54043 0.49597 0.47221 0.0
H1446 H 0.95583 0.43703 0.03119 0.0
H1447 H 1.00499 0.52001 0.08248 0.0
H1448 H 0.02214 0.57182 0.05332 0.0
H1449 H 0.03514 0.45954 0.9907 0.0
H1450 H 1.00124 0.45697 0.96647 0.0
H1451 H 0.9891 0.42716 0.99134 0.0
H1452 H 0.91603 0.46173 0.99337 0.0
H1453 H 0.92779 0.49165 0.96843 0.0
H1454 H 0.91201 0.51773 0.99394 0.0
H1455 H 0.03748 0.61353 0.01918 0.0
H1456 H 0.05373 0.6408 0.98122 0.0
H1457 H 0.99566 0.53191 0.95131 0.0
C1458 C 0.9696 0.46638 0.03624 0.0
C1459 C 0.9789 0.47452 0.05914 0.0
C1460 C 0.99765 0.51299 0.06506 0.0
C1461 C 1.00727 0.54282 0.04866 0.0
C1462 C 0.99812 0.53391 0.02627 0.0
C1463 C 0.97997 0.49659 0.01993 0.0
C1464 C 0.97631 0.49403 0.99443 0.0
C1465 C 1.00197 0.45725 0.9852 0.0
C1466 C 0.93029 0.49112 0.98712 0.0
C1467 C 0.99539 0.53555 0.98759 0.0
C1468 C 1.00747 0.55811 1.00628 0.0
C1469 C 0.02778 0.5964 1.00437 0.0
C1470 C 0.03681 0.61171 0.98276 0.0
C1471 C 0.02544 0.58887 0.96333 0.0
C1472 C 1.00383 0.55061 0.96585 0.0
H1473 H 0.9234 0.03563 0.47992 0.0
H1474 H 1.00724 0.98676 0.4288 0.0
H1475 H 0.05771 0.9671 0.45819 0.0
H1476 H 1.00291 0.0778 0.51622 0.0
H1477 H 0.97715 0.06335 0.54209 0.0
H1478 H 0.9467 0.07374 0.51715 0.0
H1479 H 0.91219 1.00086 0.52028 0.0
H1480 H 0.94228 0.99045 0.54534 0.0
H1481 H 0.9449 0.9552 0.52179 0.0
H1482 H 0.09904 0.95186 0.49257 0.0
H1483 H 0.12831 0.94044 0.53057 0.0
H1484 H 0.01906 0.99916 0.5601 0.0
C1485 C 0.95225 0.02054 0.47499 0.0
C1486 C 0.96118 0.01248 0.45205 0.0
C1487 C 0.9994 0.99287 0.44625 0.0
C1488 C 0.02846 0.98172 0.46282 0.0
C1489 C 0.01886 0.99011 0.48521 0.0
C1490 C 0.98165 0.00877 0.49143 0.0
C1491 C 0.97925 0.01371 0.51686 0.0
C1492 C 0.97634 0.0599 0.52346 0.0
C1493 C 0.94248 0.98856 0.52663 0.0
C1494 C 0.02098 0.99511 0.52382 0.0
C1495 C 0.04321 0.98168 0.50524 0.0
C1496 C 0.08206 0.96239 0.50727 0.0
C1497 C 0.09845 0.95609 0.5289 0.0
C1498 C 0.07619 0.96929 0.54822 0.0
C1499 C 0.03711 0.98942 0.54559 0.0
H1500 H 0.49481 0.49228 0.96257 0.0
H1501 H 0.58009 0.40036 0.99036 0.0
H1502 H 0.56288 0.42411 0.02878 0.0
H1503 H 0.51966 0.57329 1.00204 0.0
H1504 H 0.46692 0.59286 1.00377 0.0
H1505 H 0.48464 0.56763 0.97842 0.0
H1506 H 0.42295 0.51555 0.98109 0.0
H1507 H 0.40517 0.54048 1.00653 0.0
H1508 H 0.41595 0.48538 1.00646 0.0
H1509 H 0.53802 0.45823 0.06393 0.0
H1510 H 0.50907 0.50257 0.09395 0.0
H1511 H 0.43991 0.57363 0.04402 0.0
C1512 C 0.50972 0.47708 0.97676 0.0
C1513 C 0.53875 0.44435 0.97347 0.0
C1514 C 0.55784 0.42549 0.99245 0.0
C1515 C 0.54813 0.43866 0.01436 0.0
C1516 C 0.51938 0.47088 0.01704 0.0
C1517 C 0.50056 0.49005 0.99881 0.0
C1518 C 0.47183 0.52497 1.00646 0.0
C1519 C 0.48666 0.56718 0.99712 0.0
C1520 C 0.42627 0.51604 0.99973 0.0
C1521 C 0.47761 0.52249 0.03183 0.0
C1522 C 0.50505 0.49087 0.03749 0.0
C1523 C 0.5164 0.48298 0.05973 0.0
C1524 C 0.49982 0.50843 0.07666 0.0
C1525 C 0.47226 0.54157 0.07134 0.0
C1526 C 0.46054 0.54826 0.04862 0.0
H1527 H 0.026 0.4908 0.45292 0.0
H1528 H 0.08477 0.60638 0.47385 0.0
H1529 H 0.0446 0.60501 0.50913 0.0
H1530 H 0.92231 0.51099 0.47872 0.0
H1531 H 0.91569 0.45752 0.48721 0.0
H1532 H 0.94609 0.46987 0.4625 0.0
H1533 H 0.00881 0.42893 0.47964 0.0
H1534 H 0.97833 0.41741 0.50438 0.0
H1535 H 0.02813 0.44322 0.50713 0.0
H1536 H 1.00197 0.59019 0.54286 0.0
H1537 H 0.96208 0.56009 0.57444 0.0
H1538 H 0.93016 0.45335 0.53307 0.0
C1539 C 0.03001 0.51595 0.46486 0.0
C1540 C 0.05859 0.54871 0.46058 0.0
C1541 C 0.06331 0.58083 0.47674 0.0
C1542 C 0.04037 0.58053 0.49681 0.0
C1543 C 0.01271 0.54785 0.50064 0.0
C1544 C 1.00748 0.51595 0.48526 0.0
C1545 C 0.97766 0.48318 0.49446 0.0
C1546 C 0.93809 0.48021 0.47984 0.0
C1547 C 0.99955 0.44068 0.49653 0.0
C1548 C 0.96773 0.50138 0.51751 0.0
C1549 C 0.98796 0.53899 0.52049 0.0
C1550 C 0.98558 0.56099 0.54067 0.0
C1551 C 0.96278 0.54366 0.55851 0.0
C1552 C 0.94259 0.50468 0.55615 0.0
C1553 C 0.94443 0.48369 0.53519 0.0
H1554 H 0.04148 0.93054 0.02831 0.0
H1555 H 1.00144 0.01944 0.07898 0.0
H1556 H 0.98791 0.07142 0.04941 0.0
H1557 H 0.09119 0.00602 0.99039 0.0
H1558 H 0.07322 0.98053 0.96512 0.0
H1559 H 0.08265 0.95051 0.99031 0.0
H1560 H 1.00688 0.92188 0.98874 0.0
H1561 H 0.99745 0.95157 0.96349 0.0
H1562 H 0.96368 0.9579 0.98755 0.0
H1563 H 0.97423 0.11241 0.01478 0.0
H1564 H 0.95952 0.13939 0.97659 0.0
H1565 H 0.00836 0.02528 0.94766 0.0
C1566 C 0.03008 0.96103 0.03309 0.0
C1567 C 0.02222 0.97084 0.05591 0.0
C1568 C 1.00713 0.011 0.06158 0.0
C1569 C 0.99964 0.04092 0.04492 0.0
C1570 C 1.00718 0.03028 0.02258 0.0
C1571 C 0.02188 0.99133 0.01654 0.0
C1572 C 0.02517 0.98757 0.99109 0.0
C1573 C 0.07078 0.98076 0.9838 0.0
C1574 C 0.99659 0.95267 0.98221 0.0
C1575 C 0.0095 0.03022 0.9839 0.0
C1576 C 0.99961 0.05439 1.00238 0.0
C1577 C 0.98231 0.09403 1.00014 0.0
C1578 C 0.97409 0.10912 0.97841 0.0
C1579 C 0.98335 0.08471 0.95923 0.0
C1580 C 1.00195 0.04504 0.96204 0.0
H1581 H 0.4877 0.0248 0.4473 0.0
H1582 H 0.37259 0.9792 0.47719 0.0
H1583 H 0.40048 0.99366 0.51507 0.0
H1584 H 0.55557 0.98077 0.48767 0.0
H1585 H 0.59201 0.02359 0.48832 0.0
H1586 H 0.56172 0.01373 0.46329 0.0
H1587 H 0.53337 0.08927 0.46437 0.0
H1588 H 0.56363 0.09932 0.48943 0.0
H1589 H 0.50793 0.10802 0.48951 0.0
H1590 H 0.44216 1.00573 0.54937 0.0
H1591 H 0.49389 0.02044 0.57903 0.0
H1592 H 0.58321 0.05984 0.52819 0.0
C1593 C 0.46805 0.019 0.46183 0.0
C1594 C 0.42778 1.0012 0.4593 0.0
C1595 C 0.40341 0.99294 0.47872 0.0
C1596 C 0.41899 1.00102 0.50032 0.0
C1597 C 0.45912 0.01739 0.50232 0.0
C1598 C 0.4833 0.02675 0.48369 0.0
C1599 C 0.52626 0.04226 0.49087 0.0
C1600 C 0.56093 0.01336 0.48201 0.0
C1601 C 0.53319 0.08741 0.48308 0.0
C1602 C 0.52244 0.03958 0.5164 0.0
C1603 C 0.48336 0.02505 0.5225 0.0
C1604 C 0.47263 0.01778 0.54489 0.0
C1605 C 0.50242 0.02589 0.5616 0.0
C1606 C 0.54258 0.04125 0.55594 0.0
C1607 C 0.55262 0.04845 0.533 0.0
loop_
_geom_bond_atom_site_label_1
_geom_bond_atom_site_label_2
_geom_bond_distance
_geom_bond_site_symmetry_2
_ccdc_geom_bond_type
Co0 N4 2.148 . S
Co0 N10 2.128 . S
Co0 N20 2.194 . S
Co0 O25 2.351 . S
Co0 O26 2.155 . S
Co0 O27 2.096 . S
C1 N4 1.301 . S
C1 N5 1.328 1_545 S
C1 H6 0.930 . S
C2 C3 1.333 . S
C2 N4 1.317 . S
C2 H7 0.930 . S
C3 C2 1.333 . S
C3 N5 1.350 1_545 S
C3 H29 0.942 . S
N4 Co0 2.148 . S
N4 C1 1.301 . S
N4 C2 1.317 . S
N5 C1 1.328 1_565 S
N5 C3 1.350 1_565 S
H6 C1 0.930 . S
H7 C2 0.930 . S
C8 O9 1.224 . S
C8 O27 1.247 . S
O9 C8 1.224 . S
N10 Co0 2.128 . S
N10 C11 1.355 . S
N10 C13 1.311 . S
C11 N10 1.355 . S
C11 C12 1.363 . S
C11 H23 0.929 . S
C12 C11 1.363 . S
C12 N14 1.375 . S
C12 H30 0.931 . S
C13 N10 1.311 . S
C13 N14 1.347 . S
C13 H24 0.929 . S
N14 C12 1.375 . S
N14 C13 1.347 . S
C15 C18 1.365 . S
C15 N20 1.328 . S
C15 H21 0.929 . S
C16 C17 1.362 . S
C16 C19 1.378 . S
C16 H31 0.929 . S
C17 C16 1.362 . S
C17 C18 1.366 . S
C18 C15 1.365 . S
C18 C17 1.366 . S
C18 H32 0.930 . S
C19 C16 1.378 . S
C19 N20 1.315 . S
C19 H22 0.930 . S
N20 Co0 2.194 . S
N20 C15 1.328 . S
N20 C19 1.315 . S
H21 C15 0.929 . S
H22 C19 0.930 . S
H23 C11 0.929 . S
H24 C13 0.929 . S
O25 Co0 2.351 . S
O25 C28 1.244 . S
O26 Co0 2.155 . S
O26 C28 1.240 . S
O27 Co0 2.096 . S
O27 C8 1.247 . S
C28 O25 1.244 . S
C28 O26 1.240 . S
H29 C3 0.942 . S
H30 C12 0.931 . S
H31 C16 0.929 . S
H32 C18 0.930 . S
Co33 N37 2.148 . S
Co33 N43 2.128 . S
Co33 N53 2.194 . S
Co33 O58 2.351 . S
Co33 O59 2.155 . S
Co33 O60 2.096 . S
C34 N37 1.301 . S
C34 N38 1.328 . S
C34 H39 0.930 . S
C35 C36 1.333 . S
C35 N37 1.317 . S
C35 H40 0.930 . S
C36 C35 1.333 . S
C36 N38 1.350 . S
C36 H62 0.931 . S
N37 Co33 2.148 . S
N37 C34 1.301 . S
N37 C35 1.317 . S
N38 C34 1.328 . S
N38 C36 1.350 . S
H39 C34 0.930 . S
H40 C35 0.930 . S
C41 O42 1.224 . S
C41 O60 1.247 . S
O42 C41 1.224 . S
N43 Co33 2.128 . S
N43 C44 1.355 . S
N43 C46 1.311 . S
C44 N43 1.355 . S
C44 C45 1.363 . S
C44 H56 0.929 . S
C45 C44 1.363 . S
C45 N47 1.375 . S
C45 H63 0.931 . S
C46 N43 1.311 . S
C46 N47 1.347 . S
C46 H57 0.929 . S
N47 C45 1.375 . S
N47 C46 1.347 . S
C48 C51 1.365 . S
C48 N53 1.328 . S
C48 H54 0.929 . S
C49 C50 1.362 . S
C49 C52 1.378 . S
C49 H64 0.929 . S
C50 C49 1.362 . S
C50 C51 1.366 . S
C51 C48 1.365 . S
C51 C50 1.366 . S
C51 H65 0.930 . S
C52 C49 1.378 . S
C52 N53 1.315 . S
C52 H55 0.930 . S
N53 Co33 2.194 . S
N53 C48 1.328 . S
N53 C52 1.315 . S
H54 C48 0.929 . S
H55 C52 0.930 . S
H56 C44 0.929 . S
H57 C46 0.929 . S
O58 Co33 2.351 . S
O58 C61 1.244 . S
O59 Co33 2.155 . S
O59 C61 1.240 . S
O60 Co33 2.096 . S
O60 C41 1.247 . S
C61 O58 1.244 . S
C61 O59 1.240 . S
H62 C36 0.931 . S
H63 C45 0.931 . S
H64 C49 0.929 . S
H65 C51 0.930 . S
Co66 N70 2.148 . S
Co66 N76 2.128 . S
Co66 N86 2.194 1_655 S
Co66 O91 2.351 1_655 S
Co66 O92 2.155 . S
Co66 O93 2.096 . S
C67 N70 1.301 . S
C67 N71 1.328 . S
C67 H72 0.930 . S
C68 C69 1.333 . S
C68 N70 1.317 . S
C68 H73 0.930 . S
C69 C68 1.333 . S
C69 N71 1.350 . S
C69 H95 0.931 . S
N70 Co66 2.148 . S
N70 C67 1.301 . S
N70 C68 1.317 . S
N71 C67 1.328 . S
N71 C69 1.350 . S
H72 C67 0.930 . S
H73 C68 0.930 . S
C74 O75 1.224 . S
C74 O93 1.247 . S
O75 C74 1.224 . S
N76 Co66 2.128 . S
N76 C77 1.355 1_655 S
N76 C79 1.311 . S
C77 N76 1.355 1_455 S
C77 C78 1.363 . S
C77 H89 0.929 . S
C78 C77 1.363 . S
C78 N80 1.375 . S
C78 H96 0.931 . S
C79 N76 1.311 . S
C79 N80 1.347 1_655 S
C79 H90 0.929 . S
N80 C78 1.375 . S
N80 C79 1.347 1_455 S
C81 C84 1.365 . S
C81 N86 1.328 . S
C81 H87 0.929 . S
C82 C83 1.362 . S
C82 C85 1.378 1_455 S
C82 H97 0.929 1_455 S
C83 C82 1.362 . S
C83 C84 1.366 . S
C84 C81 1.365 . S
C84 C83 1.366 . S
C84 H98 0.930 . S
C85 C82 1.378 1_655 S
C85 N86 1.315 1_655 S
C85 H88 0.930 . S
N86 Co66 2.194 1_455 S
N86 C81 1.328 . S
N86 C85 1.315 1_455 S
H87 C81 0.929 . S
H88 C85 0.930 . S
H89 C77 0.929 . S
H90 C79 0.929 . S
O91 Co66 2.351 1_455 S
O91 C94 1.244 . S
O92 Co66 2.155 . S
O92 C94 1.240 1_655 S
O93 Co66 2.096 . S
O93 C74 1.247 . S
C94 O91 1.244 . S
C94 O92 1.240 1_455 S
H95 C69 0.931 . S
H96 C78 0.931 . S
H97 C82 0.929 1_655 S
H98 C84 0.930 . S
Co99 N103 2.148 . S
Co99 N109 2.128 . S
Co99 N119 2.194 1_565 S
Co99 O124 2.351 1_565 S
Co99 O125 2.155 . S
Co99 O126 2.096 . S
C100 N103 1.301 . S
C100 N104 1.328 1_455 S
C100 H105 0.930 . S
C101 C102 1.333 . S
C101 N103 1.317 . S
C101 H106 0.930 . S
C102 C101 1.333 . S
C102 N104 1.350 1_455 S
C102 H128 0.942 . S
N103 Co99 2.148 . S
N103 C100 1.301 . S
N103 C101 1.317 . S
N104 C100 1.328 1_655 S
N104 C102 1.350 1_655 S
H105 C100 0.930 . S
H106 C101 0.930 . S
C107 O108 1.224 . S
C107 O126 1.247 . S
O108 C107 1.224 . S
N109 Co99 2.128 . S
N109 C110 1.355 1_565 S
N109 C112 1.311 . S
C110 N109 1.355 1_545 S
C110 C111 1.363 . S
C110 H122 0.929 . S
C111 C110 1.363 . S
C111 N113 1.375 . S
C111 H129 0.931 . S
C112 N109 1.311 . S
C112 N113 1.347 1_565 S
C112 H123 0.929 . S
N113 C111 1.375 . S
N113 C112 1.347 1_545 S
C114 C117 1.365 . S
C114 N119 1.328 . S
C114 H120 0.929 . S
C115 C116 1.362 . S
C115 C118 1.378 1_545 S
C115 H130 0.929 1_545 S
C116 C115 1.362 . S
C116 C117 1.366 . S
C117 C114 1.365 . S
C117 C116 1.366 . S
C117 H131 0.930 . S
C118 C115 1.378 1_565 S
C118 N119 1.315 1_565 S
C118 H121 0.930 . S
N119 Co99 2.194 1_545 S
N119 C114 1.328 . S
N119 C118 1.315 1_545 S
H120 C114 0.929 . S
H121 C118 0.930 . S
H122 C110 0.929 . S
H123 C112 0.929 . S
O124 Co99 2.351 1_545 S
O124 C127 1.244 . S
O125 Co99 2.155 . S
O125 C127 1.240 1_565 S
O126 Co99 2.096 . S
O126 C107 1.247 . S
C127 O124 1.244 . S
C127 O125 1.240 1_545 S
H128 C102 0.942 . S
H129 C111 0.931 . S
H130 C115 0.929 1_565 S
H131 C117 0.930 . S
Co132 N136 2.148 . S
Co132 N142 2.128 . S
Co132 N152 2.194 . S
Co132 O157 2.351 . S
Co132 O158 2.155 . S
Co132 O159 2.096 . S
C133 N136 1.301 . S
C133 N137 1.328 . S
C133 H138 0.930 . S
C134 C135 1.333 . S
C134 N136 1.317 . S
C134 H139 0.930 . S
C135 C134 1.333 . S
C135 N137 1.350 . S
C135 H161 0.931 . S
N136 Co132 2.148 . S
N136 C133 1.301 . S
N136 C134 1.317 . S
N137 C133 1.328 . S
N137 C135 1.350 . S
H138 C133 0.930 . S
H139 C134 0.930 . S
C140 O141 1.224 . S
C140 O159 1.247 . S
O141 C140 1.224 . S
N142 Co132 2.128 . S
N142 C143 1.355 . S
N142 C145 1.311 . S
C143 N142 1.355 . S
C143 C144 1.363 . S
C143 H155 0.929 . S
C144 C143 1.363 . S
C144 N146 1.375 . S
C144 H162 0.931 . S
C145 N142 1.311 . S
C145 N146 1.347 . S
C145 H156 0.929 . S
N146 C144 1.375 . S
N146 C145 1.347 . S
C147 C150 1.365 . S
C147 N152 1.328 . S
C147 H153 0.929 . S
C148 C149 1.362 . S
C148 C151 1.378 . S
C148 H163 0.929 . S
C149 C148 1.362 . S
C149 C150 1.366 . S
C150 C147 1.365 . S
C150 C149 1.366 . S
C150 H164 0.930 . S
C151 C148 1.378 . S
C151 N152 1.315 . S
C151 H154 0.930 . S
N152 Co132 2.194 . S
N152 C147 1.328 . S
N152 C151 1.315 . S
H153 C147 0.929 . S
H154 C151 0.930 . S
H155 C143 0.929 . S
H156 C145 0.929 . S
O157 Co132 2.351 . S
O157 C160 1.244 . S
O158 Co132 2.155 . S
O158 C160 1.240 . S
O159 Co132 2.096 . S
O159 C140 1.247 . S
C160 O157 1.244 . S
C160 O158 1.240 . S
H161 C135 0.931 . S
H162 C144 0.931 . S
H163 C148 0.929 . S
H164 C150 0.930 . S
Co165 N169 2.148 . S
Co165 N175 2.128 . S
Co165 N185 2.194 . S
Co165 O190 2.351 . S
Co165 O191 2.155 . S
Co165 O192 2.096 . S
C166 N169 1.301 . S
C166 N170 1.328 1_455 S
C166 H171 0.930 . S
C167 C168 1.333 . S
C167 N169 1.317 . S
C167 H172 0.930 . S
C168 C167 1.333 . S
C168 N170 1.350 1_455 S
C168 H194 0.942 . S
N169 Co165 2.148 . S
N169 C166 1.301 . S
N169 C167 1.317 . S
N170 C166 1.328 1_655 S
N170 C168 1.350 1_655 S
H171 C166 0.930 . S
H172 C167 0.930 . S
C173 O174 1.224 . S
C173 O192 1.247 . S
O174 C173 1.224 . S
N175 Co165 2.128 . S
N175 C176 1.355 . S
N175 C178 1.311 . S
C176 N175 1.355 . S
C176 C177 1.363 . S
C176 H188 0.929 . S
C177 C176 1.363 . S
C177 N179 1.375 . S
C177 H195 0.931 . S
C178 N175 1.311 . S
C178 N179 1.347 . S
C178 H189 0.929 . S
N179 C177 1.375 . S
N179 C178 1.347 . S
C180 C183 1.365 . S
C180 N185 1.328 . S
C180 H186 0.929 . S
C181 C182 1.362 . S
C181 C184 1.378 . S
C181 H196 0.929 . S
C182 C181 1.362 . S
C182 C183 1.366 . S
C183 C180 1.365 . S
C183 C182 1.366 . S
C183 H197 0.930 . S
C184 C181 1.378 . S
C184 N185 1.315 . S
C184 H187 0.930 . S
N185 Co165 2.194 . S
N185 C180 1.328 . S
N185 C184 1.315 . S
H186 C180 0.929 . S
H187 C184 0.930 . S
H188 C176 0.929 . S
H189 C178 0.929 . S
O190 Co165 2.351 . S
O190 C193 1.244 . S
O191 Co165 2.155 . S
O191 C193 1.240 . S
O192 Co165 2.096 . S
O192 C173 1.247 . S
C193 O190 1.244 . S
C193 O191 1.240 . S
H194 C168 0.942 . S
H195 C177 0.931 . S
H196 C181 0.929 . S
H197 C183 0.930 . S
Co198 N202 2.148 . S
Co198 N208 2.128 . S
Co198 N218 2.194 1_655 S
Co198 O223 2.351 1_655 S
Co198 O224 2.155 . S
Co198 O225 2.096 . S
C199 N202 1.301 . S
C199 N203 1.328 1_545 S
C199 H204 0.930 . S
C200 C201 1.333 . S
C200 N202 1.317 . S
C200 H205 0.930 . S
C201 C200 1.333 . S
C201 N203 1.350 1_545 S
C201 H227 0.942 . S
N202 Co198 2.148 . S
N202 C199 1.301 . S
N202 C200 1.317 . S
N203 C199 1.328 1_565 S
N203 C201 1.350 1_565 S
H204 C199 0.930 . S
H205 C200 0.930 . S
C206 O207 1.224 . S
C206 O225 1.247 . S
O207 C206 1.224 . S
N208 Co198 2.128 . S
N208 C209 1.355 1_655 S
N208 C211 1.311 . S
C209 N208 1.355 1_455 S
C209 C210 1.363 . S
C209 H221 0.929 . S
C210 C209 1.363 . S
C210 N212 1.375 . S
C210 H228 0.931 . S
C211 N208 1.311 . S
C211 N212 1.347 1_655 S
C211 H222 0.929 . S
N212 C210 1.375 . S
N212 C211 1.347 1_455 S
C213 C216 1.365 . S
C213 N218 1.328 . S
C213 H219 0.929 . S
C214 C215 1.362 . S
C214 C217 1.378 1_455 S
C214 H229 0.929 1_455 S
C215 C214 1.362 . S
C215 C216 1.366 . S
C216 C213 1.365 . S
C216 C215 1.366 . S
C216 H230 0.930 . S
C217 C214 1.378 1_655 S
C217 N218 1.315 1_655 S
C217 H220 0.930 . S
N218 Co198 2.194 1_455 S
N218 C213 1.328 . S
N218 C217 1.315 1_455 S
H219 C213 0.929 . S
H220 C217 0.930 . S
H221 C209 0.929 . S
H222 C211 0.929 . S
O223 Co198 2.351 1_455 S
O223 C226 1.244 . S
O224 Co198 2.155 . S
O224 C226 1.240 1_655 S
O225 Co198 2.096 . S
O225 C206 1.247 . S
C226 O223 1.244 . S
C226 O224 1.240 1_455 S
H227 C201 0.942 . S
H228 C210 0.931 . S
H229 C214 0.929 1_655 S
H230 C216 0.930 . S
Co231 N235 2.148 . S
Co231 N241 2.128 . S
Co231 N251 2.194 1_565 S
Co231 O256 2.351 1_565 S
Co231 O257 2.155 . S
Co231 O258 2.096 . S
C232 N235 1.301 . S
C232 N236 1.328 . S
C232 H237 0.930 . S
C233 C234 1.333 . S
C233 N235 1.317 . S
C233 H238 0.930 . S
C234 C233 1.333 . S
C234 N236 1.350 . S
C234 H260 0.931 . S
N235 Co231 2.148 . S
N235 C232 1.301 . S
N235 C233 1.317 . S
N236 C232 1.328 . S
N236 C234 1.350 . S
H237 C232 0.930 . S
H238 C233 0.930 . S
C239 O240 1.224 . S
C239 O258 1.247 . S
O240 C239 1.224 . S
N241 Co231 2.128 . S
N241 C242 1.355 1_565 S
N241 C244 1.311 . S
C242 N241 1.355 1_545 S
C242 C243 1.363 . S
C242 H254 0.929 . S
C243 C242 1.363 . S
C243 N245 1.375 . S
C243 H261 0.931 . S
C244 N241 1.311 . S
C244 N245 1.347 1_565 S
C244 H255 0.929 . S
N245 C243 1.375 . S
N245 C244 1.347 1_545 S
C246 C249 1.365 . S
C246 N251 1.328 . S
C246 H252 0.929 . S
C247 C248 1.362 . S
C247 C250 1.378 1_545 S
C247 H262 0.929 1_545 S
C248 C247 1.362 . S
C248 C249 1.366 . S
C249 C246 1.365 . S
C249 C248 1.366 . S
C249 H263 0.930 . S
C250 C247 1.378 1_565 S
C250 N251 1.315 1_565 S
C250 H253 0.930 . S
N251 Co231 2.194 1_545 S
N251 C246 1.328 . S
N251 C250 1.315 1_545 S
H252 C246 0.929 . S
H253 C250 0.930 . S
H254 C242 0.929 . S
H255 C244 0.929 . S
O256 Co231 2.351 1_545 S
O256 C259 1.244 . S
O257 Co231 2.155 . S
O257 C259 1.240 1_565 S
O258 Co231 2.096 . S
O258 C239 1.247 . S
C259 O256 1.244 . S
C259 O257 1.240 1_545 S
H260 C234 0.931 . S
H261 C243 0.931 . S
H262 C247 0.929 1_565 S
H263 C249 0.930 . S
Co264 N268 2.148 . S
Co264 N274 2.128 . S
Co264 N284 2.194 . S
Co264 O289 2.351 . S
Co264 O290 2.155 . S
Co264 O291 2.096 . S
C265 N268 1.301 . S
C265 N269 1.328 1_565 S
C265 H270 0.930 . S
C266 C267 1.333 . S
C266 N268 1.317 . S
C266 H271 0.930 . S
C267 C266 1.333 . S
C267 N269 1.350 1_565 S
C267 H293 0.942 . S
N268 Co264 2.148 . S
N268 C265 1.301 . S
N268 C266 1.317 . S
N269 C265 1.328 1_545 S
N269 C267 1.350 1_545 S
H270 C265 0.930 . S
H271 C266 0.930 . S
C272 O273 1.224 . S
C272 O291 1.247 . S
O273 C272 1.224 . S
N274 Co264 2.128 . S
N274 C275 1.355 . S
N274 C277 1.311 . S
C275 N274 1.355 . S
C275 C276 1.363 . S
C275 H287 0.929 . S
C276 C275 1.363 . S
C276 N278 1.375 . S
C276 H294 0.931 . S
C277 N274 1.311 . S
C277 N278 1.347 . S
C277 H288 0.929 . S
N278 C276 1.375 . S
N278 C277 1.347 . S
C279 C282 1.365 . S
C279 N284 1.328 . S
C279 H285 0.929 . S
C280 C281 1.362 . S
C280 C283 1.378 . S
C280 H295 0.929 . S
C281 C280 1.362 . S
C281 C282 1.366 . S
C282 C279 1.365 . S
C282 C281 1.366 . S
C282 H296 0.930 . S
C283 C280 1.378 . S
C283 N284 1.315 . S
C283 H286 0.930 . S
N284 Co264 2.194 . S
N284 C279 1.328 . S
N284 C283 1.315 . S
H285 C279 0.929 . S
H286 C283 0.930 . S
H287 C275 0.929 . S
H288 C277 0.929 . S
O289 Co264 2.351 . S
O289 C292 1.244 . S
O290 Co264 2.155 . S
O290 C292 1.240 . S
O291 Co264 2.096 . S
O291 C272 1.247 . S
C292 O289 1.244 . S
C292 O290 1.240 . S
H293 C267 0.942 . S
H294 C276 0.931 . S
H295 C280 0.929 . S
H296 C282 0.930 . S
Co297 N301 2.148 . S
Co297 N307 2.128 . S
Co297 N317 2.194 . S
Co297 O322 2.351 . S
Co297 O323 2.155 . S
Co297 O324 2.096 . S
C298 N301 1.301 . S
C298 N302 1.328 . S
C298 H303 0.930 . S
C299 C300 1.333 . S
C299 N301 1.317 . S
C299 H304 0.930 . S
C300 C299 1.333 . S
C300 N302 1.350 . S
C300 H326 0.931 . S
N301 Co297 2.148 . S
N301 C298 1.301 . S
N301 C299 1.317 . S
N302 C298 1.328 . S
N302 C300 1.350 . S
H303 C298 0.930 . S
H304 C299 0.930 . S
C305 O306 1.224 . S
C305 O324 1.247 . S
O306 C305 1.224 . S
N307 Co297 2.128 . S
N307 C308 1.355 . S
N307 C310 1.311 . S
C308 N307 1.355 . S
C308 C309 1.363 . S
C308 H320 0.929 . S
C309 C308 1.363 . S
C309 N311 1.375 . S
C309 H327 0.931 . S
C310 N307 1.311 . S
C310 N311 1.347 . S
C310 H321 0.929 . S
N311 C309 1.375 . S
N311 C310 1.347 . S
C312 C315 1.365 . S
C312 N317 1.328 . S
C312 H318 0.929 . S
C313 C314 1.362 . S
C313 C316 1.378 . S
C313 H328 0.929 . S
C314 C313 1.362 . S
C314 C315 1.366 . S
C315 C312 1.365 . S
C315 C314 1.366 . S
C315 H329 0.930 . S
C316 C313 1.378 . S
C316 N317 1.315 . S
C316 H319 0.930 . S
N317 Co297 2.194 . S
N317 C312 1.328 . S
N317 C316 1.315 . S
H318 C312 0.929 . S
H319 C316 0.930 . S
H320 C308 0.929 . S
H321 C310 0.929 . S
O322 Co297 2.351 . S
O322 C325 1.244 . S
O323 Co297 2.155 . S
O323 C325 1.240 . S
O324 Co297 2.096 . S
O324 C305 1.247 . S
C325 O322 1.244 . S
C325 O323 1.240 . S
H326 C300 0.931 . S
H327 C309 0.931 . S
H328 C313 0.929 . S
H329 C315 0.930 . S
Co330 N334 2.148 . S
Co330 N340 2.128 . S
Co330 N350 2.194 1_455 S
Co330 O355 2.351 1_455 S
Co330 O356 2.155 . S
Co330 O357 2.096 . S
C331 N334 1.301 . S
C331 N335 1.328 . S
C331 H336 0.930 . S
C332 C333 1.333 . S
C332 N334 1.317 . S
C332 H337 0.930 . S
C333 C332 1.333 . S
C333 N335 1.350 . S
C333 H359 0.931 . S
N334 Co330 2.148 . S
N334 C331 1.301 . S
N334 C332 1.317 . S
N335 C331 1.328 . S
N335 C333 1.350 . S
H336 C331 0.930 . S
H337 C332 0.930 . S
C338 O339 1.224 . S
C338 O357 1.247 . S
O339 C338 1.224 . S
N340 Co330 2.128 . S
N340 C341 1.355 1_455 S
N340 C343 1.311 . S
C341 N340 1.355 1_655 S
C341 C342 1.363 . S
C341 H353 0.929 . S
C342 C341 1.363 . S
C342 N344 1.375 . S
C342 H360 0.931 . S
C343 N340 1.311 . S
C343 N344 1.347 1_455 S
C343 H354 0.929 . S
N344 C342 1.375 . S
N344 C343 1.347 1_655 S
C345 C348 1.365 . S
C345 N350 1.328 . S
C345 H351 0.929 . S
C346 C347 1.362 . S
C346 C349 1.378 1_655 S
C346 H361 0.929 1_655 S
C347 C346 1.362 . S
C347 C348 1.366 . S
C348 C345 1.365 . S
C348 C347 1.366 . S
C348 H362 0.930 . S
C349 C346 1.378 1_455 S
C349 N350 1.315 1_455 S
C349 H352 0.930 . S
N350 Co330 2.194 1_655 S
N350 C345 1.328 . S
N350 C349 1.315 1_655 S
H351 C345 0.929 . S
H352 C349 0.930 . S
H353 C341 0.929 . S
H354 C343 0.929 . S
O355 Co330 2.351 1_655 S
O355 C358 1.244 . S
O356 Co330 2.155 . S
O356 C358 1.240 1_455 S
O357 Co330 2.096 . S
O357 C338 1.247 . S
C358 O355 1.244 . S
C358 O356 1.240 1_655 S
H359 C333 0.931 . S
H360 C342 0.931 . S
H361 C346 0.929 1_455 S
H362 C348 0.930 . S
Co363 N367 2.148 . S
Co363 N373 2.128 . S
Co363 N383 2.194 1_545 S
Co363 O388 2.351 1_545 S
Co363 O389 2.155 . S
Co363 O390 2.096 . S
C364 N367 1.301 . S
C364 N368 1.328 1_655 S
C364 H369 0.930 . S
C365 C366 1.333 . S
C365 N367 1.317 . S
C365 H370 0.930 . S
C366 C365 1.333 . S
C366 N368 1.350 1_655 S
C366 H392 0.942 . S
N367 Co363 2.148 . S
N367 C364 1.301 . S
N367 C365 1.317 . S
N368 C364 1.328 1_455 S
N368 C366 1.350 1_455 S
H369 C364 0.930 . S
H370 C365 0.930 . S
C371 O372 1.224 . S
C371 O390 1.247 . S
O372 C371 1.224 . S
N373 Co363 2.128 . S
N373 C374 1.355 1_545 S
N373 C376 1.311 . S
C374 N373 1.355 1_565 S
C374 C375 1.363 . S
C374 H386 0.929 . S
C375 C374 1.363 . S
C375 N377 1.375 . S
C375 H393 0.931 . S
C376 N373 1.311 . S
C376 N377 1.347 1_545 S
C376 H387 0.929 . S
N377 C375 1.375 . S
N377 C376 1.347 1_565 S
C378 C381 1.365 . S
C378 N383 1.328 . S
C378 H384 0.929 . S
C379 C380 1.362 . S
C379 C382 1.378 1_565 S
C379 H394 0.929 1_565 S
C380 C379 1.362 . S
C380 C381 1.366 . S
C381 C378 1.365 . S
C381 C380 1.366 . S
C381 H395 0.930 . S
C382 C379 1.378 1_545 S
C382 N383 1.315 1_545 S
C382 H385 0.930 . S
N383 Co363 2.194 1_565 S
N383 C378 1.328 . S
N383 C382 1.315 1_565 S
H384 C378 0.929 . S
H385 C382 0.930 . S
H386 C374 0.929 . S
H387 C376 0.929 . S
O388 Co363 2.351 1_565 S
O388 C391 1.244 . S
O389 Co363 2.155 . S
O389 C391 1.240 1_545 S
O390 Co363 2.096 . S
O390 C371 1.247 . S
C391 O388 1.244 . S
C391 O389 1.240 1_565 S
H392 C366 0.942 . S
H393 C375 0.931 . S
H394 C379 0.929 1_545 S
H395 C381 0.930 . S
Co396 N400 2.148 . S
Co396 N406 2.128 . S
Co396 N416 2.194 . S
Co396 O421 2.351 . S
Co396 O422 2.155 . S
Co396 O423 2.096 . S
C397 N400 1.301 . S
C397 N401 1.328 . S
C397 H402 0.930 . S
C398 C399 1.333 . S
C398 N400 1.317 . S
C398 H403 0.930 . S
C399 C398 1.333 . S
C399 N401 1.350 . S
C399 H425 0.931 . S
N400 Co396 2.148 . S
N400 C397 1.301 . S
N400 C398 1.317 . S
N401 C397 1.328 . S
N401 C399 1.350 . S
H402 C397 0.930 . S
H403 C398 0.930 . S
C404 O405 1.224 . S
C404 O423 1.247 . S
O405 C404 1.224 . S
N406 Co396 2.128 . S
N406 C407 1.355 . S
N406 C409 1.311 . S
C407 N406 1.355 . S
C407 C408 1.363 . S
C407 H419 0.929 . S
C408 C407 1.363 . S
C408 N410 1.375 . S
C408 H426 0.931 . S
C409 N406 1.311 . S
C409 N410 1.347 . S
C409 H420 0.929 . S
N410 C408 1.375 . S
N410 C409 1.347 . S
C411 C414 1.365 . S
C411 N416 1.328 . S
C411 H417 0.929 . S
C412 C413 1.362 . S
C412 C415 1.378 . S
C412 H427 0.929 . S
C413 C412 1.362 . S
C413 C414 1.366 . S
C414 C411 1.365 . S
C414 C413 1.366 . S
C414 H428 0.930 . S
C415 C412 1.378 . S
C415 N416 1.315 . S
C415 H418 0.930 . S
N416 Co396 2.194 . S
N416 C411 1.328 . S
N416 C415 1.315 . S
H417 C411 0.929 . S
H418 C415 0.930 . S
H419 C407 0.929 . S
H420 C409 0.929 . S
O421 Co396 2.351 . S
O421 C424 1.244 . S
O422 Co396 2.155 . S
O422 C424 1.240 . S
O423 Co396 2.096 . S
O423 C404 1.247 . S
C424 O421 1.244 . S
C424 O422 1.240 . S
H425 C399 0.931 . S
H426 C408 0.931 . S
H427 C412 0.929 . S
H428 C414 0.930 . S
Co429 N433 2.148 . S
Co429 N439 2.128 . S
Co429 N449 2.194 . S
Co429 O454 2.351 . S
Co429 O455 2.155 . S
Co429 O456 2.096 . S
C430 N433 1.301 . S
C430 N434 1.328 1_655 S
C430 H435 0.930 . S
C431 C432 1.333 . S
C431 N433 1.317 . S
C431 H436 0.930 . S
C432 C431 1.333 . S
C432 N434 1.350 1_655 S
C432 H458 0.942 . S
N433 Co429 2.148 . S
N433 C430 1.301 . S
N433 C431 1.317 . S
N434 C430 1.328 1_455 S
N434 C432 1.350 1_455 S
H435 C430 0.930 . S
H436 C431 0.930 . S
C437 O438 1.224 . S
C437 O456 1.247 . S
O438 C437 1.224 . S
N439 Co429 2.128 . S
N439 C440 1.355 . S
N439 C442 1.311 . S
C440 N439 1.355 . S
C440 C441 1.363 . S
C440 H452 0.929 . S
C441 C440 1.363 . S
C441 N443 1.375 . S
C441 H459 0.931 . S
C442 N439 1.311 . S
C442 N443 1.347 . S
C442 H453 0.929 . S
N443 C441 1.375 . S
N443 C442 1.347 . S
C444 C447 1.365 . S
C444 N449 1.328 . S
C444 H450 0.929 . S
C445 C446 1.362 . S
C445 C448 1.378 . S
C445 H460 0.929 . S
C446 C445 1.362 . S
C446 C447 1.366 . S
C447 C444 1.365 . S
C447 C446 1.366 . S
C447 H461 0.930 . S
C448 C445 1.378 . S
C448 N449 1.315 . S
C448 H451 0.930 . S
N449 Co429 2.194 . S
N449 C444 1.328 . S
N449 C448 1.315 . S
H450 C444 0.929 . S
H451 C448 0.930 . S
H452 C440 0.929 . S
H453 C442 0.929 . S
O454 Co429 2.351 . S
O454 C457 1.244 . S
O455 Co429 2.155 . S
O455 C457 1.240 . S
O456 Co429 2.096 . S
O456 C437 1.247 . S
C457 O454 1.244 . S
C457 O455 1.240 . S
H458 C432 0.942 . S
H459 C441 0.931 . S
H460 C445 0.929 . S
H461 C447 0.930 . S
Co462 N466 2.148 . S
Co462 N472 2.128 . S
Co462 N482 2.194 1_455 S
Co462 O487 2.351 1_455 S
Co462 O488 2.155 . S
Co462 O489 2.096 . S
C463 N466 1.301 . S
C463 N467 1.328 1_565 S
C463 H468 0.930 . S
C464 C465 1.333 . S
C464 N466 1.317 . S
C464 H469 0.930 . S
C465 C464 1.333 . S
C465 N467 1.350 1_565 S
C465 H491 0.942 . S
N466 Co462 2.148 . S
N466 C463 1.301 . S
N466 C464 1.317 . S
N467 C463 1.328 1_545 S
N467 C465 1.350 1_545 S
H468 C463 0.930 . S
H469 C464 0.930 . S
C470 O471 1.224 . S
C470 O489 1.247 . S
O471 C470 1.224 . S
N472 Co462 2.128 . S
N472 C473 1.355 1_455 S
N472 C475 1.311 . S
C473 N472 1.355 1_655 S
C473 C474 1.363 . S
C473 H485 0.929 . S
C474 C473 1.363 . S
C474 N476 1.375 . S
C474 H492 0.931 . S
C475 N472 1.311 . S
C475 N476 1.347 1_455 S
C475 H486 0.929 . S
N476 C474 1.375 . S
N476 C475 1.347 1_655 S
C477 C480 1.365 . S
C477 N482 1.328 . S
C477 H483 0.929 . S
C478 C479 1.362 . S
C478 C481 1.378 1_655 S
C478 H493 0.929 1_655 S
C479 C478 1.362 . S
C479 C480 1.366 . S
C480 C477 1.365 . S
C480 C479 1.366 . S
C480 H494 0.930 . S
C481 C478 1.378 1_455 S
C481 N482 1.315 1_455 S
C481 H484 0.930 . S
N482 Co462 2.194 1_655 S
N482 C477 1.328 . S
N482 C481 1.315 1_655 S
H483 C477 0.929 . S
H484 C481 0.930 . S
H485 C473 0.929 . S
H486 C475 0.929 . S
O487 Co462 2.351 1_655 S
O487 C490 1.244 . S
O488 Co462 2.155 . S
O488 C490 1.240 1_455 S
O489 Co462 2.096 . S
O489 C470 1.247 . S
C490 O487 1.244 . S
C490 O488 1.240 1_655 S
H491 C465 0.942 . S
H492 C474 0.931 . S
H493 C478 0.929 1_455 S
H494 C480 0.930 . S
Co495 N499 2.148 . S
Co495 N505 2.128 . S
Co495 N515 2.194 1_545 S
Co495 O520 2.351 1_545 S
Co495 O521 2.155 . S
Co495 O522 2.096 . S
C496 N499 1.301 . S
C496 N500 1.328 . S
C496 H501 0.930 . S
C497 C498 1.333 . S
C497 N499 1.317 . S
C497 H502 0.930 . S
C498 C497 1.333 . S
C498 N500 1.350 . S
C498 H524 0.931 . S
N499 Co495 2.148 . S
N499 C496 1.301 . S
N499 C497 1.317 . S
N500 C496 1.328 . S
N500 C498 1.350 . S
H501 C496 0.930 . S
H502 C497 0.930 . S
C503 O504 1.224 . S
C503 O522 1.247 . S
O504 C503 1.224 . S
N505 Co495 2.128 . S
N505 C506 1.355 1_545 S
N505 C508 1.311 . S
C506 N505 1.355 1_565 S
C506 C507 1.363 . S
C506 H518 0.929 . S
C507 C506 1.363 . S
C507 N509 1.375 . S
C507 H525 0.931 . S
C508 N505 1.311 . S
C508 N509 1.347 1_545 S
C508 H519 0.929 . S
N509 C507 1.375 . S
N509 C508 1.347 1_565 S
C510 C513 1.365 . S
C510 N515 1.328 . S
C510 H516 0.929 . S
C511 C512 1.362 . S
C511 C514 1.378 1_565 S
C511 H526 0.929 1_565 S
C512 C511 1.362 . S
C512 C513 1.366 . S
C513 C510 1.365 . S
C513 C512 1.366 . S
C513 H527 0.930 . S
C514 C511 1.378 1_545 S
C514 N515 1.315 1_545 S
C514 H517 0.930 . S
N515 Co495 2.194 1_565 S
N515 C510 1.328 . S
N515 C514 1.315 1_565 S
H516 C510 0.929 . S
H517 C514 0.930 . S
H518 C506 0.929 . S
H519 C508 0.929 . S
O520 Co495 2.351 1_565 S
O520 C523 1.244 . S
O521 Co495 2.155 . S
O521 C523 1.240 1_545 S
O522 Co495 2.096 . S
O522 C503 1.247 . S
C523 O520 1.244 . S
C523 O521 1.240 1_565 S
H524 C498 0.931 . S
H525 C507 0.931 . S
H526 C511 0.929 1_545 S
H527 C513 0.930 . S
H528 C540 0.930 . S
H529 C542 0.930 . S
H530 C543 0.930 . S
H531 C547 0.959 . S
H532 C547 0.959 . S
H533 C547 0.961 . S
H534 C548 0.960 . S
H535 C548 0.961 . S
H536 C548 0.959 . S
H537 C551 0.929 . S
H538 C552 0.931 . S
H539 C554 0.930 . S
C540 H528 0.930 . S
C540 C541 1.399 . S
C540 C545 1.399 . S
C541 C540 1.399 . S
C541 C542 1.376 . S
C542 H529 0.930 . S
C542 C541 1.376 . S
C542 C543 1.388 . S
C543 H530 0.930 . S
C543 C542 1.388 . S
C543 C544 1.390 . S
C544 C543 1.390 . S
C544 C545 1.394 . S
C544 C550 1.465 . S
C545 C540 1.399 . S
C545 C544 1.394 . S
C545 C546 1.516 . S
C546 C545 1.516 . S
C546 C547 1.502 . S
C546 C548 1.561 . S
C546 C549 1.526 . S
C547 H531 0.959 . S
C547 H532 0.959 . S
C547 H533 0.961 . S
C547 C546 1.502 . S
C548 H534 0.960 . S
C548 H535 0.961 . S
C548 H536 0.959 . S
C548 C546 1.561 . S
C549 C546 1.526 . S
C549 C550 1.396 . S
C549 C554 1.390 . S
C550 C544 1.465 . S
C550 C549 1.396 . S
C550 C551 1.399 . S
C551 H537 0.929 . S
C551 C550 1.399 . S
C551 C552 1.385 . S
C552 H538 0.931 . S
C552 C551 1.385 . S
C552 C553 1.389 . S
C553 C552 1.389 . S
C553 C554 1.387 . S
C554 H539 0.930 . S
C554 C549 1.390 . S
C554 C553 1.387 . S
H555 C567 0.930 . S
H556 C569 0.930 . S
H557 C570 0.930 . S
H558 C574 0.959 . S
H559 C574 0.959 . S
H560 C574 0.961 . S
H561 C575 0.960 . S
H562 C575 0.961 . S
H563 C575 0.959 . S
H564 C578 0.929 . S
H565 C579 0.931 . S
H566 C581 0.930 . S
C567 H555 0.930 . S
C567 C568 1.399 . S
C567 C572 1.399 . S
C568 C567 1.399 . S
C568 C569 1.376 . S
C569 H556 0.930 . S
C569 C568 1.376 . S
C569 C570 1.388 . S
C570 H557 0.930 . S
C570 C569 1.388 . S
C570 C571 1.390 . S
C571 C570 1.390 . S
C571 C572 1.394 . S
C571 C577 1.465 . S
C572 C567 1.399 . S
C572 C571 1.394 . S
C572 C573 1.516 . S
C573 C572 1.516 . S
C573 C574 1.502 . S
C573 C575 1.561 . S
C573 C576 1.526 . S
C574 H558 0.959 . S
C574 H559 0.959 . S
C574 H560 0.961 . S
C574 C573 1.502 . S
C575 H561 0.960 . S
C575 H562 0.961 . S
C575 H563 0.959 . S
C575 C573 1.561 . S
C576 C573 1.526 . S
C576 C577 1.396 . S
C576 C581 1.390 . S
C577 C571 1.465 . S
C577 C576 1.396 . S
C577 C578 1.399 . S
C578 H564 0.929 . S
C578 C577 1.399 . S
C578 C579 1.385 . S
C579 H565 0.931 . S
C579 C578 1.385 . S
C579 C580 1.389 . S
C580 C579 1.389 . S
C580 C581 1.387 . S
C581 H566 0.930 . S
C581 C576 1.390 . S
C581 C580 1.387 . S
H582 C594 0.930 . S
H583 C596 0.930 . S
H584 C597 0.930 . S
H585 C601 0.959 . S
H586 C601 0.959 . S
H587 C601 0.961 . S
H588 C602 0.960 . S
H589 C602 0.961 . S
H590 C602 0.959 . S
H591 C605 0.929 . S
H592 C606 0.931 . S
H593 C608 0.930 . S
C594 H582 0.930 . S
C594 C595 1.399 . S
C594 C599 1.399 . S
C595 C594 1.399 . S
C595 C596 1.376 . S
C596 H583 0.930 . S
C596 C595 1.376 . S
C596 C597 1.388 . S
C597 H584 0.930 . S
C597 C596 1.388 . S
C597 C598 1.390 . S
C598 C597 1.390 . S
C598 C599 1.394 . S
C598 C604 1.465 . S
C599 C594 1.399 . S
C599 C598 1.394 . S
C599 C600 1.516 . S
C600 C599 1.516 . S
C600 C601 1.502 . S
C600 C602 1.561 . S
C600 C603 1.526 . S
C601 H585 0.959 . S
C601 H586 0.959 . S
C601 H587 0.961 . S
C601 C600 1.502 . S
C602 H588 0.960 . S
C602 H589 0.961 . S
C602 H590 0.959 . S
C602 C600 1.561 . S
C603 C600 1.526 . S
C603 C604 1.396 . S
C603 C608 1.390 . S
C604 C598 1.465 . S
C604 C603 1.396 . S
C604 C605 1.399 . S
C605 H591 0.929 . S
C605 C604 1.399 . S
C605 C606 1.385 . S
C606 H592 0.931 . S
C606 C605 1.385 . S
C606 C607 1.389 . S
C607 C606 1.389 . S
C607 C608 1.387 . S
C608 H593 0.930 . S
C608 C603 1.390 . S
C608 C607 1.387 . S
H609 C621 0.930 . S
H610 C623 0.930 . S
H611 C624 0.930 . S
H612 C628 0.959 . S
H613 C628 0.959 . S
H614 C628 0.961 . S
H615 C629 0.960 . S
H616 C629 0.961 . S
H617 C629 0.959 . S
H618 C632 0.929 . S
H619 C633 0.931 . S
H620 C635 0.930 . S
C621 H609 0.930 . S
C621 C622 1.399 . S
C621 C626 1.399 . S
C622 C621 1.399 . S
C622 C623 1.376 . S
C623 H610 0.930 . S
C623 C622 1.376 . S
C623 C624 1.388 . S
C624 H611 0.930 . S
C624 C623 1.388 . S
C624 C625 1.390 . S
C625 C624 1.390 . S
C625 C626 1.394 . S
C625 C631 1.465 . S
C626 C621 1.399 . S
C626 C625 1.394 . S
C626 C627 1.516 . S
C627 C626 1.516 . S
C627 C628 1.502 . S
C627 C629 1.561 . S
C627 C630 1.526 . S
C628 H612 0.959 . S
C628 H613 0.959 . S
C628 H614 0.961 . S
C628 C627 1.502 . S
C629 H615 0.960 . S
C629 H616 0.961 . S
C629 H617 0.959 . S
C629 C627 1.561 . S
C630 C627 1.526 . S
C630 C631 1.396 . S
C630 C635 1.390 . S
C631 C625 1.465 . S
C631 C630 1.396 . S
C631 C632 1.399 . S
C632 H618 0.929 . S
C632 C631 1.399 . S
C632 C633 1.385 . S
C633 H619 0.931 . S
C633 C632 1.385 . S
C633 C634 1.389 . S
C634 C633 1.389 . S
C634 C635 1.387 . S
C635 H620 0.930 . S
C635 C630 1.390 . S
C635 C634 1.387 . S
H636 C648 0.930 . S
H637 C650 0.930 . S
H638 C651 0.930 . S
H639 C655 0.959 . S
H640 C655 0.959 . S
H641 C655 0.961 . S
H642 C656 0.960 . S
H643 C656 0.961 . S
H644 C656 0.959 . S
H645 C659 0.928 . S
H646 C660 0.953 . S
H647 C662 0.930 . S
C648 H636 0.930 . S
C648 C649 1.399 . S
C648 C653 1.399 . S
C649 C648 1.399 . S
C649 C650 1.376 . S
C650 H637 0.930 . S
C650 C649 1.376 . S
C650 C651 1.388 . S
C651 H638 0.930 . S
C651 C650 1.388 . S
C651 C652 1.390 . S
C652 C651 1.390 . S
C652 C653 1.394 . S
C652 C658 1.465 . S
C653 C648 1.399 . S
C653 C652 1.394 . S
C653 C654 1.516 . S
C654 C653 1.516 . S
C654 C655 1.502 . S
C654 C656 1.561 . S
C654 C657 1.526 . S
C655 H639 0.959 . S
C655 H640 0.959 . S
C655 H641 0.961 . S
C655 C654 1.502 . S
C656 H642 0.960 . S
C656 H643 0.961 . S
C656 H644 0.959 . S
C656 C654 1.561 . S
C657 C654 1.526 . S
C657 C658 1.396 . S
C657 C662 1.390 . S
C658 C652 1.465 . S
C658 C657 1.396 . S
C658 C659 1.399 . S
C659 H645 0.928 . S
C659 C658 1.399 . S
C659 C660 1.385 . S
C660 H646 0.953 . S
C660 C659 1.385 . S
C660 C661 1.389 . S
C661 C660 1.389 . S
C661 C662 1.387 . S
C662 H647 0.930 . S
C662 C657 1.390 . S
C662 C661 1.387 . S
H663 C675 0.930 . S
H664 C677 0.930 . S
H665 C678 0.930 . S
H666 C682 0.959 . S
H667 C682 0.959 . S
H668 C682 0.961 . S
H669 C683 0.960 . S
H670 C683 0.961 . S
H671 C683 0.959 . S
H672 C686 0.929 . S
H673 C687 0.931 . S
H674 C689 0.930 . S
C675 H663 0.930 . S
C675 C676 1.399 . S
C675 C680 1.399 . S
C676 C675 1.399 . S
C676 C677 1.376 . S
C677 H664 0.930 . S
C677 C676 1.376 . S
C677 C678 1.388 . S
C678 H665 0.930 . S
C678 C677 1.388 . S
C678 C679 1.390 . S
C679 C678 1.390 . S
C679 C680 1.394 . S
C679 C685 1.465 . S
C680 C675 1.399 . S
C680 C679 1.394 . S
C680 C681 1.516 . S
C681 C680 1.516 . S
C681 C682 1.502 . S
C681 C683 1.561 . S
C681 C684 1.526 . S
C682 H666 0.959 . S
C682 H667 0.959 . S
C682 H668 0.961 . S
C682 C681 1.502 . S
C683 H669 0.960 . S
C683 H670 0.961 . S
C683 H671 0.959 . S
C683 C681 1.561 . S
C684 C681 1.526 . S
C684 C685 1.396 . S
C684 C689 1.390 . S
C685 C679 1.465 . S
C685 C684 1.396 . S
C685 C686 1.399 . S
C686 H672 0.929 . S
C686 C685 1.399 . S
C686 C687 1.385 . S
C687 H673 0.931 . S
C687 C686 1.385 . S
C687 C688 1.389 . S
C688 C687 1.389 . S
C688 C689 1.387 . S
C689 H674 0.930 . S
C689 C684 1.390 . S
C689 C688 1.387 . S
H690 C702 0.930 . S
H691 C704 0.930 . S
H692 C705 0.930 . S
H693 C709 0.959 . S
H694 C709 0.959 . S
H695 C709 0.961 . S
H696 C710 0.960 . S
H697 C710 0.961 . S
H698 C710 0.959 . S
H699 C713 0.929 . S
H700 C714 0.931 . S
H701 C716 0.930 . S
C702 H690 0.930 . S
C702 C703 1.399 . S
C702 C707 1.399 . S
C703 C702 1.399 . S
C703 C704 1.376 . S
C704 H691 0.930 . S
C704 C703 1.376 . S
C704 C705 1.388 . S
C705 H692 0.930 . S
C705 C704 1.388 . S
C705 C706 1.390 . S
C706 C705 1.390 . S
C706 C707 1.394 . S
C706 C712 1.465 . S
C707 C702 1.399 . S
C707 C706 1.394 . S
C707 C708 1.516 . S
C708 C707 1.516 . S
C708 C709 1.502 . S
C708 C710 1.561 . S
C708 C711 1.526 . S
C709 H693 0.959 . S
C709 H694 0.959 . S
C709 H695 0.961 . S
C709 C708 1.502 . S
C710 H696 0.960 . S
C710 H697 0.961 . S
C710 H698 0.959 . S
C710 C708 1.561 . S
C711 C708 1.526 . S
C711 C712 1.396 . S
C711 C716 1.390 . S
C712 C706 1.465 . S
C712 C711 1.396 . S
C712 C713 1.399 . S
C713 H699 0.929 . S
C713 C712 1.399 . S
C713 C714 1.385 . S
C714 H700 0.931 . S
C714 C713 1.385 . S
C714 C715 1.389 . S
C715 C714 1.389 . S
C715 C716 1.387 . S
C716 H701 0.930 . S
C716 C711 1.390 . S
C716 C715 1.387 . S
H717 C729 0.930 . S
H718 C731 0.930 . S
H719 C732 0.930 . S
H720 C736 0.959 . S
H721 C736 0.959 1_545 S
H722 C736 0.965 . S
H723 C737 0.960 1_545 S
H724 C737 0.961 1_545 S
H725 C737 0.959 . S
H726 C740 0.929 . S
H727 C741 0.931 . S
H728 C743 0.930 . S
C729 H717 0.930 . S
C729 C730 1.399 . S
C729 C734 1.399 . S
C730 C729 1.399 . S
C730 C731 1.376 . S
C731 H718 0.930 . S
C731 C730 1.376 . S
C731 C732 1.388 . S
C732 H719 0.930 . S
C732 C731 1.388 . S
C732 C733 1.390 . S
C733 C732 1.390 . S
C733 C734 1.394 . S
C733 C739 1.465 . S
C734 C729 1.399 . S
C734 C733 1.394 . S
C734 C735 1.516 . S
C735 C734 1.516 . S
C735 C736 1.502 . S
C735 C737 1.561 . S
C735 C738 1.526 . S
C736 H720 0.959 . S
C736 H721 0.959 1_565 S
C736 H722 0.965 . S
C736 C735 1.502 . S
C737 H723 0.960 1_565 S
C737 H724 0.961 1_565 S
C737 H725 0.959 . S
C737 C735 1.561 . S
C738 C735 1.526 . S
C738 C739 1.396 . S
C738 C743 1.390 . S
C739 C733 1.465 . S
C739 C738 1.396 . S
C739 C740 1.399 . S
C740 H726 0.929 . S
C740 C739 1.399 . S
C740 C741 1.385 . S
C741 H727 0.931 . S
C741 C740 1.385 . S
C741 C742 1.389 . S
C742 C741 1.389 . S
C742 C743 1.387 . S
C743 H728 0.930 . S
C743 C738 1.390 . S
C743 C742 1.387 . S
H744 C756 0.930 . S
H745 C758 0.930 . S
H746 C759 0.930 . S
H747 C763 0.959 . S
H748 C763 0.959 . S
H749 C763 0.961 . S
H750 C764 0.960 . S
H751 C764 0.961 . S
H752 C764 0.959 . S
H753 C767 0.929 . S
H754 C768 0.931 . S
H755 C770 0.930 . S
C756 H744 0.930 . S
C756 C757 1.399 . S
C756 C761 1.399 . S
C757 C756 1.399 . S
C757 C758 1.376 . S
C758 H745 0.930 . S
C758 C757 1.376 . S
C758 C759 1.388 . S
C759 H746 0.930 . S
C759 C758 1.388 . S
C759 C760 1.390 . S
C760 C759 1.390 . S
C760 C761 1.394 . S
C760 C766 1.465 . S
C761 C756 1.399 . S
C761 C760 1.394 . S
C761 C762 1.516 . S
C762 C761 1.516 . S
C762 C763 1.502 . S
C762 C764 1.561 . S
C762 C765 1.526 . S
C763 H747 0.959 . S
C763 H748 0.959 . S
C763 H749 0.961 . S
C763 C762 1.502 . S
C764 H750 0.960 . S
C764 H751 0.961 . S
C764 H752 0.959 . S
C764 C762 1.561 . S
C765 C762 1.526 . S
C765 C766 1.396 . S
C765 C770 1.390 . S
C766 C760 1.465 . S
C766 C765 1.396 . S
C766 C767 1.399 . S
C767 H753 0.929 . S
C767 C766 1.399 . S
C767 C768 1.385 . S
C768 H754 0.931 . S
C768 C767 1.385 . S
C768 C769 1.389 . S
C769 C768 1.389 . S
C769 C770 1.387 . S
C770 H755 0.930 . S
C770 C765 1.390 . S
C770 C769 1.387 . S
H771 C783 0.930 . S
H772 C785 0.930 . S
H773 C786 0.930 . S
H774 C790 0.959 . S
H775 C790 0.959 . S
H776 C790 0.961 . S
H777 C791 0.960 . S
H778 C791 0.961 . S
H779 C791 0.959 . S
H780 C794 0.929 . S
H781 C795 0.931 . S
H782 C797 0.930 . S
C783 H771 0.930 . S
C783 C784 1.399 . S
C783 C788 1.399 . S
C784 C783 1.399 . S
C784 C785 1.376 . S
C785 H772 0.930 . S
C785 C784 1.376 . S
C785 C786 1.388 . S
C786 H773 0.930 . S
C786 C785 1.388 . S
C786 C787 1.390 . S
C787 C786 1.390 . S
C787 C788 1.394 . S
C787 C793 1.465 . S
C788 C783 1.399 . S
C788 C787 1.394 . S
C788 C789 1.516 . S
C789 C788 1.516 . S
C789 C790 1.502 . S
C789 C791 1.561 . S
C789 C792 1.526 . S
C790 H774 0.959 . S
C790 H775 0.959 . S
C790 H776 0.961 . S
C790 C789 1.502 . S
C791 H777 0.960 . S
C791 H778 0.961 . S
C791 H779 0.959 . S
C791 C789 1.561 . S
C792 C789 1.526 . S
C792 C793 1.396 . S
C792 C797 1.390 . S
C793 C787 1.465 . S
C793 C792 1.396 . S
C793 C794 1.399 . S
C794 H780 0.929 . S
C794 C793 1.399 . S
C794 C795 1.385 . S
C795 H781 0.931 . S
C795 C794 1.385 . S
C795 C796 1.389 . S
C796 C795 1.389 . S
C796 C797 1.387 . S
C797 H782 0.930 . S
C797 C792 1.390 . S
C797 C796 1.387 . S
H798 C810 0.930 . S
H799 C812 0.930 . S
H800 C813 0.930 . S
H801 C817 0.959 . S
H802 C817 0.959 . S
H803 C817 0.961 . S
H804 C818 0.960 . S
H805 C818 0.961 . S
H806 C818 0.959 . S
H807 C821 0.929 . S
H808 C822 0.931 . S
H809 C824 0.930 . S
C810 H798 0.930 . S
C810 C811 1.399 . S
C810 C815 1.399 . S
C811 C810 1.399 . S
C811 C812 1.376 . S
C812 H799 0.930 . S
C812 C811 1.376 . S
C812 C813 1.388 . S
C813 H800 0.930 . S
C813 C812 1.388 . S
C813 C814 1.390 . S
C814 C813 1.390 . S
C814 C815 1.394 . S
C814 C820 1.465 . S
C815 C810 1.399 . S
C815 C814 1.394 . S
C815 C816 1.516 . S
C816 C815 1.516 . S
C816 C817 1.502 . S
C816 C818 1.561 . S
C816 C819 1.526 . S
C817 H801 0.959 . S
C817 H802 0.959 . S
C817 H803 0.961 . S
C817 C816 1.502 . S
C818 H804 0.960 . S
C818 H805 0.961 . S
C818 H806 0.959 . S
C818 C816 1.561 . S
C819 C816 1.526 . S
C819 C820 1.396 . S
C819 C824 1.390 . S
C820 C814 1.465 . S
C820 C819 1.396 . S
C820 C821 1.399 . S
C821 H807 0.929 . S
C821 C820 1.399 . S
C821 C822 1.385 . S
C822 H808 0.931 . S
C822 C821 1.385 . S
C822 C823 1.389 . S
C823 C822 1.389 . S
C823 C824 1.387 . S
C824 H809 0.930 . S
C824 C819 1.390 . S
C824 C823 1.387 . S
H825 C837 0.930 . S
H826 C839 0.930 . S
H827 C840 0.930 . S
H828 C844 0.959 . S
H829 C844 0.959 . S
H830 C844 0.961 . S
H831 C845 0.960 . S
H832 C845 0.961 . S
H833 C845 0.959 . S
H834 C848 0.929 . S
H835 C849 0.931 . S
H836 C851 0.930 . S
C837 H825 0.930 . S
C837 C838 1.399 . S
C837 C842 1.399 . S
C838 C837 1.399 . S
C838 C839 1.376 . S
C839 H826 0.930 . S
C839 C838 1.376 . S
C839 C840 1.388 . S
C840 H827 0.930 . S
C840 C839 1.388 . S
C840 C841 1.390 . S
C841 C840 1.390 . S
C841 C842 1.394 . S
C841 C847 1.465 . S
C842 C837 1.399 . S
C842 C841 1.394 . S
C842 C843 1.516 . S
C843 C842 1.516 . S
C843 C844 1.502 . S
C843 C845 1.561 . S
C843 C846 1.526 . S
C844 H828 0.959 . S
C844 H829 0.959 . S
C844 H830 0.961 . S
C844 C843 1.502 . S
C845 H831 0.960 . S
C845 H832 0.961 . S
C845 H833 0.959 . S
C845 C843 1.561 . S
C846 C843 1.526 . S
C846 C847 1.396 . S
C846 C851 1.390 . S
C847 C841 1.465 . S
C847 C846 1.396 . S
C847 C848 1.399 . S
C848 H834 0.929 . S
C848 C847 1.399 . S
C848 C849 1.385 . S
C849 H835 0.931 . S
C849 C848 1.385 . S
C849 C850 1.389 . S
C850 C849 1.389 . S
C850 C851 1.387 . S
C851 H836 0.930 . S
C851 C846 1.390 . S
C851 C850 1.387 . S
H852 C864 0.930 . S
H853 C866 0.930 . S
H854 C867 0.930 . S
H855 C871 0.959 . S
H856 C871 0.959 . S
H857 C871 0.961 . S
H858 C872 0.960 . S
H859 C872 0.961 . S
H860 C872 0.959 . S
H861 C875 0.929 . S
H862 C876 0.931 . S
H863 C878 0.930 . S
C864 H852 0.930 . S
C864 C865 1.399 . S
C864 C869 1.399 . S
C865 C864 1.399 . S
C865 C866 1.376 . S
C866 H853 0.930 . S
C866 C865 1.376 . S
C866 C867 1.388 . S
C867 H854 0.930 . S
C867 C866 1.388 . S
C867 C868 1.390 . S
C868 C867 1.390 . S
C868 C869 1.394 . S
C868 C874 1.465 . S
C869 C864 1.399 . S
C869 C868 1.394 . S
C869 C870 1.516 . S
C870 C869 1.516 . S
C870 C871 1.502 . S
C870 C872 1.561 . S
C870 C873 1.526 . S
C871 H855 0.959 . S
C871 H856 0.959 . S
C871 H857 0.961 . S
C871 C870 1.502 . S
C872 H858 0.960 . S
C872 H859 0.961 . S
C872 H860 0.959 . S
C872 C870 1.561 . S
C873 C870 1.526 . S
C873 C874 1.396 . S
C873 C878 1.390 . S
C874 C868 1.465 . S
C874 C873 1.396 . S
C874 C875 1.399 . S
C875 H861 0.929 . S
C875 C874 1.399 . S
C875 C876 1.385 . S
C876 H862 0.931 . S
C876 C875 1.385 . S
C876 C877 1.389 . S
C877 C876 1.389 . S
C877 C878 1.387 . S
C878 H863 0.930 . S
C878 C873 1.390 . S
C878 C877 1.387 . S
H879 C891 0.930 . S
H880 C893 0.930 . S
H881 C894 0.930 . S
H882 C898 0.959 . S
H883 C898 0.959 . S
H884 C898 0.961 . S
H885 C899 0.960 . S
H886 C899 0.961 . S
H887 C899 0.959 . S
H888 C902 0.929 . S
H889 C903 0.931 . S
H890 C905 0.930 . S
C891 H879 0.930 . S
C891 C892 1.399 . S
C891 C896 1.399 . S
C892 C891 1.399 . S
C892 C893 1.376 . S
C893 H880 0.930 . S
C893 C892 1.376 . S
C893 C894 1.388 . S
C894 H881 0.930 . S
C894 C893 1.388 . S
C894 C895 1.390 . S
C895 C894 1.390 . S
C895 C896 1.394 . S
C895 C901 1.465 . S
C896 C891 1.399 . S
C896 C895 1.394 . S
C896 C897 1.516 . S
C897 C896 1.516 . S
C897 C898 1.502 . S
C897 C899 1.561 . S
C897 C900 1.526 . S
C898 H882 0.959 . S
C898 H883 0.959 . S
C898 H884 0.961 . S
C898 C897 1.502 . S
C899 H885 0.960 . S
C899 H886 0.961 . S
C899 H887 0.959 . S
C899 C897 1.561 . S
C900 C897 1.526 . S
C900 C901 1.396 . S
C900 C905 1.390 . S
C901 C895 1.465 . S
C901 C900 1.396 . S
C901 C902 1.399 . S
C902 H888 0.929 . S
C902 C901 1.399 . S
C902 C903 1.385 . S
C903 H889 0.931 . S
C903 C902 1.385 . S
C903 C904 1.389 . S
C904 C903 1.389 . S
C904 C905 1.387 . S
C905 H890 0.930 . S
C905 C900 1.390 . S
C905 C904 1.387 . S
H906 C918 0.930 . S
H907 C920 0.930 . S
H908 C921 0.930 . S
H909 C925 0.959 . S
H910 C925 0.959 . S
H911 C925 0.961 . S
H912 C926 0.960 . S
H913 C926 0.961 . S
H914 C926 0.959 . S
H915 C929 0.929 . S
H916 C930 0.931 . S
H917 C932 0.930 . S
C918 H906 0.930 . S
C918 C919 1.399 . S
C918 C923 1.399 . S
C919 C918 1.399 . S
C919 C920 1.376 . S
C920 H907 0.930 . S
C920 C919 1.376 . S
C920 C921 1.388 . S
C921 H908 0.930 . S
C921 C920 1.388 . S
C921 C922 1.390 . S
C922 C921 1.390 . S
C922 C923 1.394 . S
C922 C928 1.465 . S
C923 C918 1.399 . S
C923 C922 1.394 . S
C923 C924 1.516 . S
C924 C923 1.516 . S
C924 C925 1.502 . S
C924 C926 1.561 . S
C924 C927 1.526 . S
C925 H909 0.959 . S
C925 H910 0.959 . S
C925 H911 0.961 . S
C925 C924 1.502 . S
C926 H912 0.960 . S
C926 H913 0.961 . S
C926 H914 0.959 . S
C926 C924 1.561 . S
C927 C924 1.526 . S
C927 C928 1.396 . S
C927 C932 1.390 . S
C928 C922 1.465 . S
C928 C927 1.396 . S
C928 C929 1.399 . S
C929 H915 0.929 . S
C929 C928 1.399 . S
C929 C930 1.385 . S
C930 H916 0.931 . S
C930 C929 1.385 . S
C930 C931 1.389 . S
C931 C930 1.389 . S
C931 C932 1.387 . S
C932 H917 0.930 . S
C932 C927 1.390 . S
C932 C931 1.387 . S
H933 C945 0.930 . S
H934 C947 0.930 . S
H935 C948 0.930 . S
H936 C952 0.959 . S
H937 C952 0.959 . S
H938 C952 0.961 . S
H939 C953 0.960 . S
H940 C953 0.961 . S
H941 C953 0.959 . S
H942 C956 0.929 . S
H943 C957 0.931 . S
H944 C959 0.930 . S
C945 H933 0.930 . S
C945 C946 1.399 . S
C945 C950 1.399 . S
C946 C945 1.399 . S
C946 C947 1.376 . S
C947 H934 0.930 . S
C947 C946 1.376 . S
C947 C948 1.388 . S
C948 H935 0.930 . S
C948 C947 1.388 . S
C948 C949 1.390 . S
C949 C948 1.390 . S
C949 C950 1.394 . S
C949 C955 1.465 . S
C950 C945 1.399 . S
C950 C949 1.394 . S
C950 C951 1.516 . S
C951 C950 1.516 . S
C951 C952 1.502 . S
C951 C953 1.561 . S
C951 C954 1.526 . S
C952 H936 0.959 . S
C952 H937 0.959 . S
C952 H938 0.961 . S
C952 C951 1.502 . S
C953 H939 0.960 . S
C953 H940 0.961 . S
C953 H941 0.959 . S
C953 C951 1.561 . S
C954 C951 1.526 . S
C954 C955 1.396 . S
C954 C959 1.390 . S
C955 C949 1.465 . S
C955 C954 1.396 . S
C955 C956 1.399 . S
C956 H942 0.929 . S
C956 C955 1.399 . S
C956 C957 1.385 . S
C957 H943 0.931 . S
C957 C956 1.385 . S
C957 C958 1.389 . S
C958 C957 1.389 . S
C958 C959 1.387 . S
C959 H944 0.930 . S
C959 C954 1.390 . S
C959 C958 1.387 . S
H960 C972 0.930 . S
H961 C974 0.930 . S
H962 C975 0.930 . S
H963 C979 0.959 . S
H964 C979 0.959 . S
H965 C979 0.961 . S
H966 C980 0.960 . S
H967 C980 0.961 . S
H968 C980 0.959 . S
H969 C983 0.929 . S
H970 C984 0.931 . S
H971 C986 0.930 . S
C972 H960 0.930 . S
C972 C973 1.399 . S
C972 C977 1.399 . S
C973 C972 1.399 . S
C973 C974 1.376 . S
C974 H961 0.930 . S
C974 C973 1.376 . S
C974 C975 1.388 . S
C975 H962 0.930 . S
C975 C974 1.388 . S
C975 C976 1.390 . S
C976 C975 1.390 . S
C976 C977 1.394 . S
C976 C982 1.465 . S
C977 C972 1.399 . S
C977 C976 1.394 . S
C977 C978 1.516 . S
C978 C977 1.516 . S
C978 C979 1.502 . S
C978 C980 1.561 . S
C978 C981 1.526 . S
C979 H963 0.959 . S
C979 H964 0.959 . S
C979 H965 0.961 . S
C979 C978 1.502 . S
C980 H966 0.960 . S
C980 H967 0.961 . S
C980 H968 0.959 . S
C980 C978 1.561 . S
C981 C978 1.526 . S
C981 C982 1.396 . S
C981 C986 1.390 . S
C982 C976 1.465 . S
C982 C981 1.396 . S
C982 C983 1.399 . S
C983 H969 0.929 . S
C983 C982 1.399 . S
C983 C984 1.385 . S
C984 H970 0.931 . S
C984 C983 1.385 . S
C984 C985 1.389 . S
C985 C984 1.389 . S
C985 C986 1.387 . S
C986 H971 0.930 . S
C986 C981 1.390 . S
C986 C985 1.387 . S
H987 C999 0.930 . S
H988 C1001 0.930 . S
H989 C1002 0.930 . S
H990 C1006 0.959 . S
H991 C1006 0.959 . S
H992 C1006 0.961 . S
H993 C1007 0.960 . S
H994 C1007 0.961 . S
H995 C1007 0.959 . S
H996 C1010 0.929 . S
H997 C1011 0.931 . S
H998 C1013 0.930 . S
C999 H987 0.930 . S
C999 C1000 1.399 . S
C999 C1004 1.399 . S
C1000 C999 1.399 . S
C1000 C1001 1.376 . S
C1001 H988 0.930 . S
C1001 C1000 1.376 . S
C1001 C1002 1.388 . S
C1002 H989 0.930 . S
C1002 C1001 1.388 . S
C1002 C1003 1.390 . S
C1003 C1002 1.390 . S
C1003 C1004 1.394 . S
C1003 C1009 1.465 . S
C1004 C999 1.399 . S
C1004 C1003 1.394 . S
C1004 C1005 1.516 . S
C1005 C1004 1.516 . S
C1005 C1006 1.502 . S
C1005 C1007 1.561 . S
C1005 C1008 1.526 . S
C1006 H990 0.959 . S
C1006 H991 0.959 . S
C1006 H992 0.961 . S
C1006 C1005 1.502 . S
C1007 H993 0.960 . S
C1007 H994 0.961 . S
C1007 H995 0.959 . S
C1007 C1005 1.561 . S
C1008 C1005 1.526 . S
C1008 C1009 1.396 . S
C1008 C1013 1.390 . S
C1009 C1003 1.465 . S
C1009 C1008 1.396 . S
C1009 C1010 1.399 . S
C1010 H996 0.929 . S
C1010 C1009 1.399 . S
C1010 C1011 1.385 . S
C1011 H997 0.931 . S
C1011 C1010 1.385 . S
C1011 C1012 1.389 . S
C1012 C1011 1.389 . S
C1012 C1013 1.387 . S
C1013 H998 0.930 . S
C1013 C1008 1.390 . S
C1013 C1012 1.387 . S
H1014 C1026 0.930 . S
H1015 C1028 0.930 . S
H1016 C1029 0.930 . S
H1017 C1033 0.959 . S
H1018 C1033 0.959 . S
H1019 C1033 0.961 . S
H1020 C1034 0.960 . S
H1021 C1034 0.961 . S
H1022 C1034 0.959 . S
H1023 C1037 0.929 . S
H1024 C1038 0.931 . S
H1025 C1040 0.930 . S
C1026 H1014 0.930 . S
C1026 C1027 1.399 . S
C1026 C1031 1.399 . S
C1027 C1026 1.399 . S
C1027 C1028 1.376 . S
C1028 H1015 0.930 . S
C1028 C1027 1.376 . S
C1028 C1029 1.388 . S
C1029 H1016 0.930 . S
C1029 C1028 1.388 . S
C1029 C1030 1.390 . S
C1030 C1029 1.390 . S
C1030 C1031 1.394 . S
C1030 C1036 1.465 . S
C1031 C1026 1.399 . S
C1031 C1030 1.394 . S
C1031 C1032 1.516 . S
C1032 C1031 1.516 . S
C1032 C1033 1.502 1_655 S
C1032 C1034 1.561 . S
C1032 C1035 1.526 . S
C1033 H1017 0.959 . S
C1033 H1018 0.959 . S
C1033 H1019 0.961 . S
C1033 C1032 1.502 1_455 S
C1034 H1020 0.960 . S
C1034 H1021 0.961 . S
C1034 H1022 0.959 . S
C1034 C1032 1.561 . S
C1035 C1032 1.526 . S
C1035 C1036 1.396 . S
C1035 C1040 1.390 1_655 S
C1036 C1030 1.465 . S
C1036 C1035 1.396 . S
C1036 C1037 1.399 . S
C1037 H1023 0.929 . S
C1037 C1036 1.399 . S
C1037 C1038 1.385 . S
C1038 H1024 0.931 . S
C1038 C1037 1.385 . S
C1038 C1039 1.389 . S
C1039 C1038 1.389 . S
C1039 C1040 1.387 1_655 S
C1040 H1025 0.930 . S
C1040 C1035 1.390 1_455 S
C1040 C1039 1.387 1_455 S
H1041 C1053 0.930 . S
H1042 C1055 0.930 . S
H1043 C1056 0.930 . S
H1044 C1060 0.959 . S
H1045 C1060 0.959 . S
H1046 C1060 0.961 . S
H1047 C1061 0.960 . S
H1048 C1061 0.961 . S
H1049 C1061 0.959 . S
H1050 C1064 0.929 . S
H1051 C1065 0.931 . S
H1052 C1067 0.930 . S
C1053 H1041 0.930 . S
C1053 C1054 1.399 1_545 S
C1053 C1058 1.399 1_545 S
C1054 C1053 1.399 1_565 S
C1054 C1055 1.376 . S
C1055 H1042 0.930 . S
C1055 C1054 1.376 . S
C1055 C1056 1.388 . S
C1056 H1043 0.930 . S
C1056 C1055 1.388 . S
C1056 C1057 1.390 . S
C1057 C1056 1.390 . S
C1057 C1058 1.394 . S
C1057 C1063 1.465 . S
C1058 C1053 1.399 1_565 S
C1058 C1057 1.394 . S
C1058 C1059 1.516 1_565 S
C1059 C1058 1.516 1_545 S
C1059 C1060 1.501 . S
C1059 C1061 1.561 1_545 S
C1059 C1062 1.526 1_545 S
C1060 H1044 0.959 . S
C1060 H1045 0.959 . S
C1060 H1046 0.961 . S
C1060 C1059 1.501 . S
C1061 H1047 0.960 . S
C1061 H1048 0.961 . S
C1061 H1049 0.959 . S
C1061 C1059 1.561 1_565 S
C1062 C1059 1.526 1_565 S
C1062 C1063 1.396 . S
C1062 C1067 1.390 . S
C1063 C1057 1.465 . S
C1063 C1062 1.396 . S
C1063 C1064 1.399 . S
C1064 H1050 0.929 . S
C1064 C1063 1.399 . S
C1064 C1065 1.385 . S
C1065 H1051 0.931 . S
C1065 C1064 1.385 . S
C1065 C1066 1.389 . S
C1066 C1065 1.389 . S
C1066 C1067 1.387 . S
C1067 H1052 0.930 . S
C1067 C1062 1.390 . S
C1067 C1066 1.387 . S
H1068 C1080 0.930 . S
H1069 C1082 0.930 . S
H1070 C1083 0.930 . S
H1071 C1087 0.959 . S
H1072 C1087 0.959 . S
H1073 C1087 0.961 . S
H1074 C1088 0.960 . S
H1075 C1088 0.961 . S
H1076 C1088 0.959 . S
H1077 C1091 0.929 . S
H1078 C1092 0.931 . S
H1079 C1094 0.930 . S
C1080 H1068 0.930 . S
C1080 C1081 1.399 . S
C1080 C1085 1.399 . S
C1081 C1080 1.399 . S
C1081 C1082 1.376 . S
C1082 H1069 0.930 . S
C1082 C1081 1.376 . S
C1082 C1083 1.388 . S
C1083 H1070 0.930 . S
C1083 C1082 1.388 . S
C1083 C1084 1.390 . S
C1084 C1083 1.390 . S
C1084 C1085 1.394 . S
C1084 C1090 1.465 . S
C1085 C1080 1.399 . S
C1085 C1084 1.394 . S
C1085 C1086 1.516 . S
C1086 C1085 1.516 . S
C1086 C1087 1.502 . S
C1086 C1088 1.561 . S
C1086 C1089 1.526 . S
C1087 H1071 0.959 . S
C1087 H1072 0.959 . S
C1087 H1073 0.961 . S
C1087 C1086 1.502 . S
C1088 H1074 0.960 . S
C1088 H1075 0.961 . S
C1088 H1076 0.959 . S
C1088 C1086 1.561 . S
C1089 C1086 1.526 . S
C1089 C1090 1.396 . S
C1089 C1094 1.390 . S
C1090 C1084 1.465 . S
C1090 C1089 1.396 . S
C1090 C1091 1.399 . S
C1091 H1077 0.929 . S
C1091 C1090 1.399 . S
C1091 C1092 1.385 . S
C1092 H1078 0.931 . S
C1092 C1091 1.385 . S
C1092 C1093 1.389 . S
C1093 C1092 1.389 . S
C1093 C1094 1.387 . S
C1094 H1079 0.930 . S
C1094 C1089 1.390 . S
C1094 C1093 1.387 . S
H1095 C1107 0.930 . S
H1096 C1109 0.930 . S
H1097 C1110 0.930 . S
H1098 C1114 0.959 . S
H1099 C1114 0.959 . S
H1100 C1114 0.961 . S
H1101 C1115 0.960 . S
H1102 C1115 0.961 . S
H1103 C1115 0.959 . S
H1104 C1118 0.929 . S
H1105 C1119 0.931 . S
H1106 C1121 0.930 . S
C1107 H1095 0.930 . S
C1107 C1108 1.399 . S
C1107 C1112 1.399 . S
C1108 C1107 1.399 . S
C1108 C1109 1.376 . S
C1109 H1096 0.930 . S
C1109 C1108 1.376 . S
C1109 C1110 1.388 . S
C1110 H1097 0.930 . S
C1110 C1109 1.388 . S
C1110 C1111 1.390 . S
C1111 C1110 1.390 . S
C1111 C1112 1.394 . S
C1111 C1117 1.465 . S
C1112 C1107 1.399 . S
C1112 C1111 1.394 . S
C1112 C1113 1.516 . S
C1113 C1112 1.516 . S
C1113 C1114 1.502 . S
C1113 C1115 1.561 . S
C1113 C1116 1.526 . S
C1114 H1098 0.959 . S
C1114 H1099 0.959 . S
C1114 H1100 0.961 . S
C1114 C1113 1.502 . S
C1115 H1101 0.960 . S
C1115 H1102 0.961 . S
C1115 H1103 0.959 . S
C1115 C1113 1.561 . S
C1116 C1113 1.526 . S
C1116 C1117 1.396 . S
C1116 C1121 1.390 . S
C1117 C1111 1.465 . S
C1117 C1116 1.396 . S
C1117 C1118 1.399 . S
C1118 H1104 0.929 . S
C1118 C1117 1.399 . S
C1118 C1119 1.385 . S
C1119 H1105 0.931 . S
C1119 C1118 1.385 . S
C1119 C1120 1.389 . S
C1120 C1119 1.389 . S
C1120 C1121 1.387 . S
C1121 H1106 0.930 . S
C1121 C1116 1.390 . S
C1121 C1120 1.387 . S
H1122 C1134 0.930 . S
H1123 C1136 0.930 . S
H1124 C1137 0.930 . S
H1125 C1141 0.959 . S
H1126 C1141 0.959 . S
H1127 C1141 0.961 . S
H1128 C1142 0.960 . S
H1129 C1142 0.961 . S
H1130 C1142 0.959 . S
H1131 C1145 0.929 . S
H1132 C1146 0.931 . S
H1133 C1148 0.930 . S
C1134 H1122 0.930 . S
C1134 C1135 1.399 . S
C1134 C1139 1.399 . S
C1135 C1134 1.399 . S
C1135 C1136 1.376 . S
C1136 H1123 0.930 . S
C1136 C1135 1.376 . S
C1136 C1137 1.388 . S
C1137 H1124 0.930 . S
C1137 C1136 1.388 . S
C1137 C1138 1.390 . S
C1138 C1137 1.390 . S
C1138 C1139 1.394 . S
C1138 C1144 1.465 . S
C1139 C1134 1.399 . S
C1139 C1138 1.394 . S
C1139 C1140 1.516 . S
C1140 C1139 1.516 . S
C1140 C1141 1.502 . S
C1140 C1142 1.561 1_655 S
C1140 C1143 1.526 . S
C1141 H1125 0.959 . S
C1141 H1126 0.959 . S
C1141 H1127 0.961 . S
C1141 C1140 1.502 . S
C1142 H1128 0.960 . S
C1142 H1129 0.961 . S
C1142 H1130 0.959 . S
C1142 C1140 1.561 1_455 S
C1143 C1140 1.526 . S
C1143 C1144 1.396 . S
C1143 C1148 1.390 . S
C1144 C1138 1.465 . S
C1144 C1143 1.396 . S
C1144 C1145 1.399 . S
C1145 H1131 0.929 . S
C1145 C1144 1.399 . S
C1145 C1146 1.385 1_655 S
C1146 H1132 0.931 . S
C1146 C1145 1.385 1_455 S
C1146 C1147 1.389 . S
C1147 C1146 1.389 . S
C1147 C1148 1.387 1_455 S
C1148 H1133 0.930 . S
C1148 C1143 1.390 . S
C1148 C1147 1.387 1_655 S
H1149 C1161 0.930 . S
H1150 C1163 0.930 . S
H1151 C1164 0.930 . S
H1152 C1168 0.959 . S
H1153 C1168 0.959 . S
H1154 C1168 0.961 . S
H1155 C1169 0.960 . S
H1156 C1169 0.961 . S
H1157 C1169 0.959 . S
H1158 C1172 0.929 . S
H1159 C1173 0.931 . S
H1160 C1175 0.930 . S
C1161 H1149 0.930 . S
C1161 C1162 1.399 . S
C1161 C1166 1.399 . S
C1162 C1161 1.399 . S
C1162 C1163 1.376 . S
C1163 H1150 0.930 . S
C1163 C1162 1.376 . S
C1163 C1164 1.388 . S
C1164 H1151 0.930 . S
C1164 C1163 1.388 . S
C1164 C1165 1.390 . S
C1165 C1164 1.390 . S
C1165 C1166 1.394 . S
C1165 C1171 1.465 . S
C1166 C1161 1.399 . S
C1166 C1165 1.394 . S
C1166 C1167 1.516 . S
C1167 C1166 1.516 . S
C1167 C1168 1.502 . S
C1167 C1169 1.561 1_565 S
C1167 C1170 1.526 . S
C1168 H1152 0.959 . S
C1168 H1153 0.959 . S
C1168 H1154 0.961 . S
C1168 C1167 1.502 . S
C1169 H1155 0.960 . S
C1169 H1156 0.961 . S
C1169 H1157 0.959 . S
C1169 C1167 1.561 1_545 S
C1170 C1167 1.526 . S
C1170 C1171 1.396 . S
C1170 C1175 1.390 1_565 S
C1171 C1165 1.465 . S
C1171 C1170 1.396 . S
C1171 C1172 1.399 . S
C1172 H1158 0.929 . S
C1172 C1171 1.399 . S
C1172 C1173 1.385 . S
C1173 H1159 0.931 . S
C1173 C1172 1.385 . S
C1173 C1174 1.392 . S
C1174 C1173 1.392 . S
C1174 C1175 1.386 1_565 S
C1175 H1160 0.930 . S
C1175 C1170 1.390 1_545 S
C1175 C1174 1.386 1_545 S
H1176 C1188 0.930 . S
H1177 C1190 0.930 . S
H1178 C1191 0.930 . S
H1179 C1195 0.959 . S
H1180 C1195 0.959 . S
H1181 C1195 0.961 . S
H1182 C1196 0.960 . S
H1183 C1196 0.961 . S
H1184 C1196 0.959 . S
H1185 C1199 0.929 . S
H1186 C1200 0.931 . S
H1187 C1202 0.930 . S
C1188 H1176 0.930 . S
C1188 C1189 1.399 . S
C1188 C1193 1.399 . S
C1189 C1188 1.399 . S
C1189 C1190 1.376 . S
C1190 H1177 0.930 . S
C1190 C1189 1.376 . S
C1190 C1191 1.388 . S
C1191 H1178 0.930 . S
C1191 C1190 1.388 . S
C1191 C1192 1.390 . S
C1192 C1191 1.390 . S
C1192 C1193 1.394 . S
C1192 C1198 1.465 . S
C1193 C1188 1.399 . S
C1193 C1192 1.394 . S
C1193 C1194 1.516 . S
C1194 C1193 1.516 . S
C1194 C1195 1.502 . S
C1194 C1196 1.561 . S
C1194 C1197 1.526 . S
C1195 H1179 0.959 . S
C1195 H1180 0.959 . S
C1195 H1181 0.961 . S
C1195 C1194 1.502 . S
C1196 H1182 0.960 . S
C1196 H1183 0.961 . S
C1196 H1184 0.959 . S
C1196 C1194 1.561 . S
C1197 C1194 1.526 . S
C1197 C1198 1.396 . S
C1197 C1202 1.390 . S
C1198 C1192 1.465 . S
C1198 C1197 1.396 . S
C1198 C1199 1.399 . S
C1199 H1185 0.929 . S
C1199 C1198 1.399 . S
C1199 C1200 1.385 . S
C1200 H1186 0.931 . S
C1200 C1199 1.385 . S
C1200 C1201 1.389 . S
C1201 C1200 1.389 . S
C1201 C1202 1.387 . S
C1202 H1187 0.930 . S
C1202 C1197 1.390 . S
C1202 C1201 1.387 . S
H1203 C1215 0.930 . S
H1204 C1217 0.930 . S
H1205 C1218 0.930 . S
H1206 C1222 0.959 . S
H1207 C1222 0.959 . S
H1208 C1222 0.961 . S
H1209 C1223 0.960 . S
H1210 C1223 0.961 . S
H1211 C1223 0.959 . S
H1212 C1226 0.929 . S
H1213 C1227 0.931 . S
H1214 C1229 0.930 . S
C1215 H1203 0.930 . S
C1215 C1216 1.399 . S
C1215 C1220 1.399 . S
C1216 C1215 1.399 . S
C1216 C1217 1.376 . S
C1217 H1204 0.930 . S
C1217 C1216 1.376 . S
C1217 C1218 1.388 . S
C1218 H1205 0.930 . S
C1218 C1217 1.388 . S
C1218 C1219 1.390 . S
C1219 C1218 1.390 . S
C1219 C1220 1.394 . S
C1219 C1225 1.465 . S
C1220 C1215 1.399 . S
C1220 C1219 1.394 . S
C1220 C1221 1.516 . S
C1221 C1220 1.516 . S
C1221 C1222 1.502 . S
C1221 C1223 1.561 . S
C1221 C1224 1.526 . S
C1222 H1206 0.959 . S
C1222 H1207 0.959 . S
C1222 H1208 0.961 . S
C1222 C1221 1.502 . S
C1223 H1209 0.960 . S
C1223 H1210 0.961 . S
C1223 H1211 0.959 . S
C1223 C1221 1.561 . S
C1224 C1221 1.526 . S
C1224 C1225 1.396 . S
C1224 C1229 1.390 . S
C1225 C1219 1.465 . S
C1225 C1224 1.396 . S
C1225 C1226 1.399 . S
C1226 H1212 0.929 . S
C1226 C1225 1.399 . S
C1226 C1227 1.385 . S
C1227 H1213 0.931 . S
C1227 C1226 1.385 . S
C1227 C1228 1.389 . S
C1228 C1227 1.389 . S
C1228 C1229 1.387 . S
C1229 H1214 0.930 . S
C1229 C1224 1.390 . S
C1229 C1228 1.387 . S
H1230 C1242 0.930 . S
H1231 C1244 0.930 . S
H1232 C1245 0.930 . S
H1233 C1249 0.959 . S
H1234 C1249 0.959 . S
H1235 C1249 0.961 . S
H1236 C1250 0.960 . S
H1237 C1250 0.961 . S
H1238 C1250 0.959 . S
H1239 C1253 0.929 1_655 S
H1240 C1254 0.931 . S
H1241 C1256 0.930 . S
C1242 H1230 0.930 . S
C1242 C1243 1.399 1_455 S
C1242 C1247 1.399 . S
C1243 C1242 1.399 1_655 S
C1243 C1244 1.376 . S
C1244 H1231 0.930 . S
C1244 C1243 1.376 . S
C1244 C1245 1.388 . S
C1245 H1232 0.930 . S
C1245 C1244 1.388 . S
C1245 C1246 1.390 1_655 S
C1246 C1245 1.390 1_455 S
C1246 C1247 1.394 . S
C1246 C1252 1.465 . S
C1247 C1242 1.399 . S
C1247 C1246 1.394 . S
C1247 C1248 1.516 . S
C1248 C1247 1.516 . S
C1248 C1249 1.502 . S
C1248 C1250 1.561 . S
C1248 C1251 1.526 . S
C1249 H1233 0.959 . S
C1249 H1234 0.959 . S
C1249 H1235 0.961 . S
C1249 C1248 1.502 . S
C1250 H1236 0.960 . S
C1250 H1237 0.961 . S
C1250 H1238 0.959 . S
C1250 C1248 1.561 . S
C1251 C1248 1.526 . S
C1251 C1252 1.396 . S
C1251 C1256 1.390 . S
C1252 C1246 1.465 . S
C1252 C1251 1.396 . S
C1252 C1253 1.399 . S
C1253 H1239 0.929 1_455 S
C1253 C1252 1.399 . S
C1253 C1254 1.385 . S
C1254 H1240 0.931 . S
C1254 C1253 1.385 . S
C1254 C1255 1.389 . S
C1255 C1254 1.389 . S
C1255 C1256 1.387 . S
C1256 H1241 0.930 . S
C1256 C1251 1.390 . S
C1256 C1255 1.387 . S
H1257 C1269 0.930 . S
H1258 C1271 0.930 . S
H1259 C1272 0.930 . S
H1260 C1276 0.959 . S
H1261 C1276 0.959 . S
H1262 C1276 0.961 . S
H1263 C1277 0.960 . S
H1264 C1277 0.961 . S
H1265 C1277 0.959 . S
H1266 C1280 0.929 . S
H1267 C1281 0.931 . S
H1268 C1283 0.930 . S
C1269 H1257 0.930 . S
C1269 C1270 1.399 1_545 S
C1269 C1274 1.399 . S
C1270 C1269 1.399 1_565 S
C1270 C1271 1.376 . S
C1271 H1258 0.930 . S
C1271 C1270 1.376 . S
C1271 C1272 1.388 1_565 S
C1272 H1259 0.930 . S
C1272 C1271 1.388 1_545 S
C1272 C1273 1.390 . S
C1273 C1272 1.390 . S
C1273 C1274 1.394 . S
C1273 C1279 1.465 . S
C1274 C1269 1.399 . S
C1274 C1273 1.394 . S
C1274 C1275 1.516 . S
C1275 C1274 1.516 . S
C1275 C1276 1.502 . S
C1275 C1277 1.561 1_545 S
C1275 C1278 1.526 . S
C1276 H1260 0.959 . S
C1276 H1261 0.959 . S
C1276 H1262 0.961 . S
C1276 C1275 1.502 . S
C1277 H1263 0.960 . S
C1277 H1264 0.961 . S
C1277 H1265 0.959 . S
C1277 C1275 1.561 1_565 S
C1278 C1275 1.526 . S
C1278 C1279 1.396 . S
C1278 C1283 1.390 . S
C1279 C1273 1.465 . S
C1279 C1278 1.396 . S
C1279 C1280 1.399 . S
C1280 H1266 0.929 . S
C1280 C1279 1.399 . S
C1280 C1281 1.385 . S
C1281 H1267 0.931 . S
C1281 C1280 1.385 . S
C1281 C1282 1.389 . S
C1282 C1281 1.389 . S
C1282 C1283 1.387 . S
C1283 H1268 0.930 . S
C1283 C1278 1.390 . S
C1283 C1282 1.387 . S
H1284 C1296 0.930 . S
H1285 C1298 0.930 . S
H1286 C1299 0.930 . S
H1287 C1303 0.959 . S
H1288 C1303 0.959 . S
H1289 C1303 0.961 . S
H1290 C1304 0.960 . S
H1291 C1304 0.961 . S
H1292 C1304 0.959 . S
H1293 C1307 0.929 . S
H1294 C1308 0.931 . S
H1295 C1310 0.930 . S
C1296 H1284 0.930 . S
C1296 C1297 1.399 . S
C1296 C1301 1.399 . S
C1297 C1296 1.399 . S
C1297 C1298 1.376 . S
C1298 H1285 0.930 . S
C1298 C1297 1.376 . S
C1298 C1299 1.388 . S
C1299 H1286 0.930 . S
C1299 C1298 1.388 . S
C1299 C1300 1.390 . S
C1300 C1299 1.390 . S
C1300 C1301 1.394 . S
C1300 C1306 1.465 . S
C1301 C1296 1.399 . S
C1301 C1300 1.394 . S
C1301 C1302 1.516 . S
C1302 C1301 1.516 . S
C1302 C1303 1.502 . S
C1302 C1304 1.561 . S
C1302 C1305 1.526 . S
C1303 H1287 0.959 . S
C1303 H1288 0.959 . S
C1303 H1289 0.961 . S
C1303 C1302 1.502 . S
C1304 H1290 0.960 . S
C1304 H1291 0.961 . S
C1304 H1292 0.959 . S
C1304 C1302 1.561 . S
C1305 C1302 1.526 . S
C1305 C1306 1.396 . S
C1305 C1310 1.390 . S
C1306 C1300 1.465 . S
C1306 C1305 1.396 . S
C1306 C1307 1.399 . S
C1307 H1293 0.929 . S
C1307 C1306 1.399 . S
C1307 C1308 1.385 . S
C1308 H1294 0.931 . S
C1308 C1307 1.385 . S
C1308 C1309 1.389 . S
C1309 C1308 1.389 . S
C1309 C1310 1.387 . S
C1310 H1295 0.930 . S
C1310 C1305 1.390 . S
C1310 C1309 1.387 . S
H1311 C1323 0.930 . S
H1312 C1325 0.930 . S
H1313 C1326 0.930 . S
H1314 C1330 0.959 . S
H1315 C1330 0.959 . S
H1316 C1330 0.961 . S
H1317 C1331 0.960 . S
H1318 C1331 0.961 . S
H1319 C1331 0.959 . S
H1320 C1334 0.929 . S
H1321 C1335 0.931 . S
H1322 C1337 0.930 . S
C1323 H1311 0.930 . S
C1323 C1324 1.399 . S
C1323 C1328 1.399 . S
C1324 C1323 1.399 . S
C1324 C1325 1.376 . S
C1325 H1312 0.930 . S
C1325 C1324 1.376 . S
C1325 C1326 1.388 . S
C1326 H1313 0.930 . S
C1326 C1325 1.388 . S
C1326 C1327 1.390 . S
C1327 C1326 1.390 . S
C1327 C1328 1.394 . S
C1327 C1333 1.465 . S
C1328 C1323 1.399 . S
C1328 C1327 1.394 . S
C1328 C1329 1.516 . S
C1329 C1328 1.516 . S
C1329 C1330 1.502 . S
C1329 C1331 1.561 . S
C1329 C1332 1.526 . S
C1330 H1314 0.959 . S
C1330 H1315 0.959 . S
C1330 H1316 0.961 . S
C1330 C1329 1.502 . S
C1331 H1317 0.960 . S
C1331 H1318 0.961 . S
C1331 H1319 0.959 . S
C1331 C1329 1.561 . S
C1332 C1329 1.526 . S
C1332 C1333 1.396 . S
C1332 C1337 1.390 . S
C1333 C1327 1.465 . S
C1333 C1332 1.396 . S
C1333 C1334 1.399 . S
C1334 H1320 0.929 . S
C1334 C1333 1.399 . S
C1334 C1335 1.385 . S
C1335 H1321 0.931 . S
C1335 C1334 1.385 . S
C1335 C1336 1.389 . S
C1336 C1335 1.389 . S
C1336 C1337 1.387 . S
C1337 H1322 0.930 . S
C1337 C1332 1.390 . S
C1337 C1336 1.387 . S
H1338 C1350 0.930 . S
H1339 C1352 0.930 . S
H1340 C1353 0.930 . S
H1341 C1357 0.959 . S
H1342 C1357 0.959 . S
H1343 C1357 0.961 . S
H1344 C1358 0.960 1_655 S
H1345 C1358 0.961 . S
H1346 C1358 0.959 1_655 S
H1347 C1361 0.929 . S
H1348 C1362 0.931 . S
H1349 C1364 0.930 . S
C1350 H1338 0.930 . S
C1350 C1351 1.399 1_455 S
C1350 C1355 1.399 . S
C1351 C1350 1.399 1_655 S
C1351 C1352 1.376 . S
C1352 H1339 0.930 . S
C1352 C1351 1.376 . S
C1352 C1353 1.388 . S
C1353 H1340 0.930 . S
C1353 C1352 1.388 . S
C1353 C1354 1.390 1_655 S
C1354 C1353 1.390 1_455 S
C1354 C1355 1.394 . S
C1354 C1360 1.465 . S
C1355 C1350 1.399 . S
C1355 C1354 1.394 . S
C1355 C1356 1.516 . S
C1356 C1355 1.516 . S
C1356 C1357 1.502 . S
C1356 C1358 1.561 . S
C1356 C1359 1.526 . S
C1357 H1341 0.959 . S
C1357 H1342 0.959 . S
C1357 H1343 0.961 . S
C1357 C1356 1.502 . S
C1358 H1344 0.960 1_455 S
C1358 H1345 0.961 . S
C1358 H1346 0.959 1_455 S
C1358 C1356 1.561 . S
C1359 C1356 1.526 . S
C1359 C1360 1.396 . S
C1359 C1364 1.390 . S
C1360 C1354 1.465 . S
C1360 C1359 1.396 . S
C1360 C1361 1.399 . S
C1361 H1347 0.929 . S
C1361 C1360 1.399 . S
C1361 C1362 1.385 . S
C1362 H1348 0.931 . S
C1362 C1361 1.385 . S
C1362 C1363 1.389 . S
C1363 C1362 1.389 . S
C1363 C1364 1.387 . S
C1364 H1349 0.930 . S
C1364 C1359 1.390 . S
C1364 C1363 1.387 . S
H1365 C1377 0.930 . S
H1366 C1379 0.930 . S
H1367 C1380 0.930 . S
H1368 C1384 0.959 . S
H1369 C1384 0.959 . S
H1370 C1384 0.961 . S
H1371 C1385 0.960 . S
H1372 C1385 0.961 . S
H1373 C1385 0.959 . S
H1374 C1388 0.929 . S
H1375 C1389 0.931 . S
H1376 C1391 0.930 . S
C1377 H1365 0.930 . S
C1377 C1378 1.399 . S
C1377 C1382 1.399 . S
C1378 C1377 1.399 . S
C1378 C1379 1.376 . S
C1379 H1366 0.930 . S
C1379 C1378 1.376 . S
C1379 C1380 1.388 . S
C1380 H1367 0.930 . S
C1380 C1379 1.388 . S
C1380 C1381 1.390 . S
C1381 C1380 1.390 . S
C1381 C1382 1.394 . S
C1381 C1387 1.465 . S
C1382 C1377 1.399 . S
C1382 C1381 1.394 . S
C1382 C1383 1.516 . S
C1383 C1382 1.516 . S
C1383 C1384 1.502 . S
C1383 C1385 1.561 1_545 S
C1383 C1386 1.526 . S
C1384 H1368 0.959 . S
C1384 H1369 0.959 . S
C1384 H1370 0.961 . S
C1384 C1383 1.502 . S
C1385 H1371 0.960 . S
C1385 H1372 0.961 . S
C1385 H1373 0.959 . S
C1385 C1383 1.561 1_565 S
C1386 C1383 1.526 . S
C1386 C1387 1.396 . S
C1386 C1391 1.390 . S
C1387 C1381 1.465 . S
C1387 C1386 1.396 . S
C1387 C1388 1.399 . S
C1388 H1374 0.929 . S
C1388 C1387 1.399 . S
C1388 C1389 1.385 1_545 S
C1389 H1375 0.931 . S
C1389 C1388 1.385 1_565 S
C1389 C1390 1.389 . S
C1390 C1389 1.389 . S
C1390 C1391 1.387 1_565 S
C1391 H1376 0.930 . S
C1391 C1386 1.390 . S
C1391 C1390 1.387 1_545 S
H1392 C1404 0.930 . S
H1393 C1406 0.930 . S
H1394 C1407 0.930 1_545 S
H1395 C1411 0.947 1_556 S
H1396 C1411 0.959 . S
H1397 C1411 0.961 . S
H1398 C1412 0.960 . S
H1399 C1412 0.961 . S
H1400 C1412 0.959 . S
H1401 C1415 0.936 . S
H1402 C1416 0.931 . S
H1403 C1418 0.930 . S
C1404 H1392 0.930 . S
C1404 C1405 1.399 . S
C1404 C1409 1.399 . S
C1405 C1404 1.399 . S
C1405 C1406 1.376 . S
C1406 H1393 0.930 . S
C1406 C1405 1.376 . S
C1406 C1407 1.388 . S
C1407 H1394 0.930 1_565 S
C1407 C1406 1.388 . S
C1407 C1408 1.390 . S
C1408 C1407 1.390 . S
C1408 C1409 1.394 . S
C1408 C1414 1.465 1_566 S
C1409 C1404 1.399 . S
C1409 C1408 1.394 . S
C1409 C1410 1.516 1_556 S
C1410 C1409 1.516 1_554 S
C1410 C1411 1.502 . S
C1410 C1412 1.561 . S
C1410 C1413 1.526 1_565 S
C1411 H1395 0.947 1_554 S
C1411 H1396 0.959 . S
C1411 H1397 0.961 . S
C1411 C1410 1.502 . S
C1412 H1398 0.960 . S
C1412 H1399 0.961 . S
C1412 H1400 0.959 . S
C1412 C1410 1.561 . S
C1413 C1410 1.526 1_545 S
C1413 C1414 1.396 . S
C1413 C1418 1.390 . S
C1414 C1408 1.465 1_544 S
C1414 C1413 1.396 . S
C1414 C1415 1.399 . S
C1415 H1401 0.936 . S
C1415 C1414 1.399 . S
C1415 C1416 1.385 . S
C1416 H1402 0.931 . S
C1416 C1415 1.385 . S
C1416 C1417 1.389 . S
C1417 C1416 1.389 . S
C1417 C1418 1.387 . S
C1418 H1403 0.930 . S
C1418 C1413 1.390 . S
C1418 C1417 1.387 . S
H1419 C1431 0.930 . S
H1420 C1433 0.930 . S
H1421 C1434 0.930 . S
H1422 C1438 0.959 . S
H1423 C1438 0.959 . S
H1424 C1438 0.961 . S
H1425 C1439 0.960 . S
H1426 C1439 0.961 . S
H1427 C1439 0.959 . S
H1428 C1442 0.929 . S
H1429 C1443 0.931 . S
H1430 C1445 0.930 . S
C1431 H1419 0.930 . S
C1431 C1432 1.399 . S
C1431 C1436 1.399 . S
C1432 C1431 1.399 . S
C1432 C1433 1.376 . S
C1433 H1420 0.930 . S
C1433 C1432 1.376 . S
C1433 C1434 1.388 . S
C1434 H1421 0.930 . S
C1434 C1433 1.388 . S
C1434 C1435 1.390 . S
C1435 C1434 1.390 . S
C1435 C1436 1.394 . S
C1435 C1441 1.465 . S
C1436 C1431 1.399 . S
C1436 C1435 1.394 . S
C1436 C1437 1.516 . S
C1437 C1436 1.516 . S
C1437 C1438 1.502 . S
C1437 C1439 1.561 . S
C1437 C1440 1.526 . S
C1438 H1422 0.959 . S
C1438 H1423 0.959 . S
C1438 H1424 0.961 . S
C1438 C1437 1.502 . S
C1439 H1425 0.960 . S
C1439 H1426 0.961 . S
C1439 H1427 0.959 . S
C1439 C1437 1.561 . S
C1440 C1437 1.526 . S
C1440 C1441 1.396 . S
C1440 C1445 1.390 . S
C1441 C1435 1.465 . S
C1441 C1440 1.396 . S
C1441 C1442 1.399 . S
C1442 H1428 0.929 . S
C1442 C1441 1.399 . S
C1442 C1443 1.385 . S
C1443 H1429 0.931 . S
C1443 C1442 1.385 . S
C1443 C1444 1.389 . S
C1444 C1443 1.389 . S
C1444 C1445 1.387 . S
C1445 H1430 0.930 . S
C1445 C1440 1.390 . S
C1445 C1444 1.387 . S
H1446 C1458 0.930 . S
H1447 C1460 0.930 . S
H1448 C1461 0.930 . S
H1449 C1465 0.959 . S
H1450 C1465 0.959 . S
H1451 C1465 0.961 . S
H1452 C1466 0.960 . S
H1453 C1466 0.961 . S
H1454 C1466 0.959 . S
H1455 C1469 0.921 1_554 S
H1456 C1470 0.931 . S
H1457 C1472 0.930 1_455 S
C1458 H1446 0.930 . S
C1458 C1459 1.399 . S
C1458 C1463 1.399 . S
C1459 C1458 1.399 . S
C1459 C1460 1.376 1_455 S
C1460 H1447 0.930 . S
C1460 C1459 1.376 1_655 S
C1460 C1461 1.388 . S
C1461 H1448 0.930 . S
C1461 C1460 1.388 . S
C1461 C1462 1.390 . S
C1462 C1461 1.390 . S
C1462 C1463 1.394 1_655 S
C1462 C1468 1.465 1_554 S
C1463 C1458 1.399 . S
C1463 C1462 1.394 1_455 S
C1463 C1464 1.516 1_554 S
C1464 C1463 1.516 1_556 S
C1464 C1465 1.502 . S
C1464 C1466 1.561 1_455 S
C1464 C1467 1.526 1_455 S
C1465 H1449 0.959 . S
C1465 H1450 0.959 . S
C1465 H1451 0.961 . S
C1465 C1464 1.502 . S
C1466 H1452 0.960 . S
C1466 H1453 0.961 . S
C1466 H1454 0.959 . S
C1466 C1464 1.561 1_655 S
C1467 C1464 1.526 1_655 S
C1467 C1468 1.396 . S
C1467 C1472 1.390 . S
C1468 C1462 1.465 1_556 S
C1468 C1467 1.396 . S
C1468 C1469 1.399 . S
C1469 H1455 0.921 1_556 S
C1469 C1468 1.399 . S
C1469 C1470 1.393 . S
C1470 H1456 0.931 . S
C1470 C1469 1.393 . S
C1470 C1471 1.389 . S
C1471 C1470 1.389 . S
C1471 C1472 1.387 . S
C1472 H1457 0.930 1_655 S
C1472 C1467 1.390 . S
C1472 C1471 1.387 . S
H1473 C1485 0.930 . S
H1474 C1487 0.930 . S
H1475 C1488 0.930 . S
H1476 C1492 0.959 . S
H1477 C1492 0.959 . S
H1478 C1492 0.961 . S
H1479 C1493 0.960 . S
H1480 C1493 0.961 . S
H1481 C1493 0.959 . S
H1482 C1496 0.929 . S
H1483 C1497 0.931 . S
H1484 C1499 0.930 . S
C1485 H1473 0.930 . S
C1485 C1486 1.399 1_545 S
C1485 C1490 1.399 . S
C1486 C1485 1.399 1_565 S
C1486 C1487 1.376 . S
C1487 H1474 0.930 . S
C1487 C1486 1.376 . S
C1487 C1488 1.388 . S
C1488 H1475 0.930 . S
C1488 C1487 1.388 . S
C1488 C1489 1.390 . S
C1489 C1488 1.390 . S
C1489 C1490 1.394 1_565 S
C1489 C1495 1.465 1_655 S
C1490 C1485 1.399 . S
C1490 C1489 1.394 1_545 S
C1490 C1491 1.516 . S
C1491 C1490 1.516 . S
C1491 C1492 1.502 1_655 S
C1491 C1493 1.561 . S
C1491 C1494 1.526 1_655 S
C1492 H1476 0.959 . S
C1492 H1477 0.959 . S
C1492 H1478 0.961 . S
C1492 C1491 1.502 1_455 S
C1493 H1479 0.960 . S
C1493 H1480 0.961 . S
C1493 H1481 0.959 . S
C1493 C1491 1.561 . S
C1494 C1491 1.526 1_455 S
C1494 C1495 1.396 1_545 S
C1494 C1499 1.390 . S
C1495 C1489 1.465 1_455 S
C1495 C1494 1.396 1_565 S
C1495 C1496 1.399 . S
C1496 H1482 0.929 . S
C1496 C1495 1.399 . S
C1496 C1497 1.385 . S
C1497 H1483 0.931 . S
C1497 C1496 1.385 . S
C1497 C1498 1.389 1_565 S
C1498 C1497 1.389 1_545 S
C1498 C1499 1.387 . S
C1499 H1484 0.930 . S
C1499 C1494 1.390 . S
C1499 C1498 1.387 . S
H1500 C1512 0.930 . S
H1501 C1514 0.930 . S
H1502 C1515 0.930 . S
H1503 C1519 0.928 1_556 S
H1504 C1519 0.959 . S
H1505 C1519 0.961 . S
H1506 C1520 0.960 . S
H1507 C1520 0.961 . S
H1508 C1520 0.959 . S
H1509 C1523 0.951 . S
H1510 C1524 0.931 . S
H1511 C1526 0.930 . S
C1512 H1500 0.930 . S
C1512 C1513 1.399 . S
C1512 C1517 1.399 . S
C1513 C1512 1.399 . S
C1513 C1514 1.376 . S
C1514 H1501 0.930 . S
C1514 C1513 1.376 . S
C1514 C1515 1.388 . S
C1515 H1502 0.930 . S
C1515 C1514 1.388 . S
C1515 C1516 1.390 . S
C1516 C1515 1.390 . S
C1516 C1517 1.394 . S
C1516 C1522 1.465 1_556 S
C1517 C1512 1.399 . S
C1517 C1516 1.394 . S
C1517 C1518 1.516 1_556 S
C1518 C1517 1.516 1_554 S
C1518 C1519 1.502 . S
C1518 C1520 1.561 . S
C1518 C1521 1.526 . S
C1519 H1503 0.928 1_554 S
C1519 H1504 0.959 . S
C1519 H1505 0.961 . S
C1519 C1518 1.502 . S
C1520 H1506 0.960 . S
C1520 H1507 0.961 . S
C1520 H1508 0.959 . S
C1520 C1518 1.561 . S
C1521 C1518 1.526 . S
C1521 C1522 1.396 . S
C1521 C1526 1.390 . S
C1522 C1516 1.465 1_554 S
C1522 C1521 1.396 . S
C1522 C1523 1.399 . S
C1523 H1509 0.951 . S
C1523 C1522 1.399 . S
C1523 C1524 1.385 . S
C1524 H1510 0.931 . S
C1524 C1523 1.385 . S
C1524 C1525 1.389 . S
C1525 C1524 1.389 . S
C1525 C1526 1.387 . S
C1526 H1511 0.930 . S
C1526 C1521 1.390 . S
C1526 C1525 1.387 . S
H1527 C1539 0.930 . S
H1528 C1541 0.930 . S
H1529 C1542 0.930 . S
H1530 C1546 0.959 . S
H1531 C1546 0.959 . S
H1532 C1546 0.961 . S
H1533 C1547 0.960 . S
H1534 C1547 0.961 . S
H1535 C1547 0.959 . S
H1536 C1550 0.929 . S
H1537 C1551 0.931 . S
H1538 C1553 0.930 . S
C1539 H1527 0.930 . S
C1539 C1540 1.399 . S
C1539 C1544 1.399 . S
C1540 C1539 1.399 . S
C1540 C1541 1.376 . S
C1541 H1528 0.930 . S
C1541 C1540 1.376 . S
C1541 C1542 1.388 . S
C1542 H1529 0.930 . S
C1542 C1541 1.388 . S
C1542 C1543 1.390 . S
C1543 C1542 1.390 . S
C1543 C1544 1.394 . S
C1543 C1549 1.465 1_455 S
C1544 C1539 1.399 . S
C1544 C1543 1.394 . S
C1544 C1545 1.516 1_455 S
C1545 C1544 1.516 1_655 S
C1545 C1546 1.502 . S
C1545 C1547 1.561 1_655 S
C1545 C1548 1.526 . S
C1546 H1530 0.959 . S
C1546 H1531 0.959 . S
C1546 H1532 0.961 . S
C1546 C1545 1.502 . S
C1547 H1533 0.960 . S
C1547 H1534 0.961 . S
C1547 H1535 0.959 . S
C1547 C1545 1.561 1_455 S
C1548 C1545 1.526 . S
C1548 C1549 1.396 . S
C1548 C1553 1.390 . S
C1549 C1543 1.465 1_655 S
C1549 C1548 1.396 . S
C1549 C1550 1.399 . S
C1550 H1536 0.929 . S
C1550 C1549 1.399 . S
C1550 C1551 1.385 . S
C1551 H1537 0.931 . S
C1551 C1550 1.385 . S
C1551 C1552 1.389 . S
C1552 C1551 1.389 . S
C1552 C1553 1.387 . S
C1553 H1538 0.930 . S
C1553 C1548 1.390 . S
C1553 C1552 1.387 . S
H1554 C1566 0.930 . S
H1555 C1568 0.930 . S
H1556 C1569 0.930 . S
H1557 C1573 0.959 . S
H1558 C1573 0.959 . S
H1559 C1573 0.961 . S
H1560 C1574 0.960 . S
H1561 C1574 0.961 . S
H1562 C1574 0.959 . S
H1563 C1577 0.929 1_554 S
H1564 C1578 0.931 . S
H1565 C1580 0.930 . S
C1566 H1554 0.930 . S
C1566 C1567 1.399 . S
C1566 C1571 1.399 . S
C1567 C1566 1.399 . S
C1567 C1568 1.376 . S
C1568 H1555 0.930 . S
C1568 C1567 1.376 . S
C1568 C1569 1.388 1_565 S
C1569 H1556 0.930 . S
C1569 C1568 1.388 1_545 S
C1569 C1570 1.391 . S
C1570 C1569 1.391 . S
C1570 C1571 1.386 1_545 S
C1570 C1576 1.470 1_554 S
C1571 C1566 1.399 . S
C1571 C1570 1.386 1_565 S
C1571 C1572 1.516 1_654 S
C1572 C1571 1.516 1_456 S
C1572 C1573 1.502 . S
C1572 C1574 1.561 1_455 S
C1572 C1575 1.526 1_565 S
C1573 H1557 0.959 . S
C1573 H1558 0.959 . S
C1573 H1559 0.961 . S
C1573 C1572 1.502 . S
C1574 H1560 0.960 . S
C1574 H1561 0.961 . S
C1574 H1562 0.959 . S
C1574 C1572 1.561 1_655 S
C1575 C1572 1.526 1_545 S
C1575 C1576 1.396 1_455 S
C1575 C1580 1.390 . S
C1576 C1570 1.470 1_556 S
C1576 C1575 1.396 1_655 S
C1576 C1577 1.399 . S
C1577 H1563 0.929 1_556 S
C1577 C1576 1.399 . S
C1577 C1578 1.385 1_655 S
C1578 H1564 0.931 . S
C1578 C1577 1.385 1_455 S
C1578 C1579 1.389 . S
C1579 C1578 1.389 . S
C1579 C1580 1.387 . S
C1580 H1565 0.930 . S
C1580 C1575 1.390 . S
C1580 C1579 1.387 . S
H1581 C1593 0.930 . S
H1582 C1595 0.930 . S
H1583 C1596 0.930 . S
H1584 C1600 0.959 . S
H1585 C1600 0.959 . S
H1586 C1600 0.961 . S
H1587 C1601 0.960 . S
H1588 C1601 0.961 . S
H1589 C1601 0.959 . S
H1590 C1604 0.929 . S
H1591 C1605 0.931 . S
H1592 C1607 0.930 . S
C1593 H1581 0.930 . S
C1593 C1594 1.399 . S
C1593 C1598 1.399 . S
C1594 C1593 1.399 . S
C1594 C1595 1.376 1_545 S
C1595 H1582 0.930 . S
C1595 C1594 1.376 1_565 S
C1595 C1596 1.388 . S
C1596 H1583 0.930 . S
C1596 C1595 1.388 . S
C1596 C1597 1.390 . S
C1597 C1596 1.390 . S
C1597 C1598 1.394 1_565 S
C1597 C1603 1.465 . S
C1598 C1593 1.399 . S
C1598 C1597 1.394 1_545 S
C1598 C1599 1.516 . S
C1599 C1598 1.516 . S
C1599 C1600 1.502 . S
C1599 C1601 1.561 . S
C1599 C1602 1.526 . S
C1600 H1584 0.959 . S
C1600 H1585 0.959 . S
C1600 H1586 0.961 . S
C1600 C1599 1.502 . S
C1601 H1587 0.960 . S
C1601 H1588 0.961 . S
C1601 H1589 0.959 . S
C1601 C1599 1.561 . S
C1602 C1599 1.526 . S
C1602 C1603 1.396 1_545 S
C1602 C1607 1.390 . S
C1603 C1597 1.465 . S
C1603 C1602 1.396 1_565 S
C1603 C1604 1.399 . S
C1604 H1590 0.929 . S
C1604 C1603 1.399 . S
C1604 C1605 1.385 . S
C1605 H1591 0.931 . S
C1605 C1604 1.385 . S
C1605 C1606 1.389 . S
C1606 C1605 1.389 . S
C1606 C1607 1.387 1_565 S
C1607 H1592 0.930 . S
C1607 C1602 1.390 . S
C1607 C1606 1.387 1_545 S
C541 C17 1.557 . S
C553 C248 1.549 . S
C568 C149 1.586 . S
C580 C50 1.566 . S
C595 C83 1.576 . S
C607 C182 1.558 . S
C622 C116 1.549 . S
C634 C215 1.553 . S
C649 C281 1.560 . S
C661 C512 1.557 . S
C676 C314 1.566 . S
C688 C413 1.571 . S
C703 C347 1.548 . S
C715 C446 1.550 . S
C730 C479 1.599 . S
C742 C380 1.600 . S
C757 C8 2.151 . S
C769 C74 2.163 . S
C784 C107 2.153 . S
C796 C41 2.159 . S
C811 C206 2.154 . S
C823 C140 2.158 . S
C838 C173 2.168 . S
C850 C239 2.158 . S
C865 C338 2.165 . S
C877 C272 2.156 . S
C892 C371 2.152 . S
C904 C305 2.169 . S
C919 C470 2.155 . S
C931 C404 2.165 . S
C946 C503 2.151 . S
C958 C437 2.169 . S
C973 N410 0.676 . S
C985 N5 0.694 . S
C1000 N443 0.669 . S
C1012 N38 0.696 . S
C1027 N71 0.711 . S
C1039 N476 0.651 . S
C1054 N509 0.636 . S
C1066 N104 0.703 . S
C1081 N137 0.683 . S
C1093 N278 0.755 . S
C1108 N311 0.753 . S
C1120 N170 0.695 . S
C1135 N203 0.685 . S
C1147 N344 0.733 1_455 S
C1162 N236 0.689 . S
C1174 N377 0.710 . S
C1189 N146 0.637 . S
C1201 N269 0.709 . S
C1216 N179 0.745 . S
C1228 N302 0.690 . S
C1243 N212 0.778 1_655 S
C1255 N335 0.683 . S
C1270 N245 0.751 1_565 S
C1282 N368 0.689 . S
C1297 N14 0.642 . S
C1309 N401 0.708 . S
C1324 N47 0.635 . S
C1336 N434 0.710 . S
C1351 N80 0.761 1_655 S
C1363 N467 0.686 . S
C1378 N500 0.695 . S
C1390 N113 0.714 1_565 S
C1405 C292 1.730 . S
C1417 C28 1.683 . S
C1432 C61 1.722 . S
C1444 C325 1.669 . S
C1459 C94 1.658 . S
C1471 C358 1.736 . S
C1486 C391 1.743 . S
C1498 C127 1.658 . S
C1513 C160 1.661 . S
C1525 C424 1.743 . S
C1540 C193 1.676 . S
C1552 C457 1.734 . S
C1567 C490 1.711 . S
C1579 C226 1.704 . S
C1594 C259 1.683 . S
C1606 C523 1.729 . S
