# Generated by pormake.
# Topology vby, (6)-cn, num edge types: 1
# Building blocks:
#     Node 0, Type 0, BuildingBlock: MIDCAF_clean_sbu_0, # of connection points: 6
#     Node 1, Type 0, BuildingBlock: MIDCAF_clean_sbu_0, # of connection points: 6
#     Node 2, Type 0, BuildingBlock: MIDCAF_clean_sbu_0, # of connection points: 6
#     Node 3, Type 0, BuildingBlock: MIDCAF_clean_sbu_0, # of connection points: 6
#     Node 4, Type 0, BuildingBlock: MIDCAF_clean_sbu_0, # of connection points: 6
#     Node 5, Type 0, BuildingBlock: MIDCAF_clean_sbu_0, # of connection points: 6
#     Node 6, Type 0, BuildingBlock: MIDCAF_clean_sbu_0, # of connection points: 6
#     Node 7, Type 0, BuildingBlock: MIDCAF_clean_sbu_0, # of connection points: 6
#     Edge 8, Type (0, 0), BuildingBlock: KIFKEQ_clean_linker_1, # of connection points: 2
#     Edge 9, Type (0, 0), BuildingBlock: KIFKEQ_clean_linker_1, # of connection points: 2
#     Edge 10, Type (0, 0), BuildingBlock: KIFKEQ_clean_linker_1, # of connection points: 2
#     Edge 11, Type (0, 0), BuildingBlock: KIFKEQ_clean_linker_1, # of connection points: 2
#     Edge 12, Type (0, 0), BuildingBlock: KIFKEQ_clean_linker_1, # of connection points: 2
#     Edge 13, Type (0, 0), BuildingBlock: KIFKEQ_clean_linker_1, # of connection points: 2
#     Edge 14, Type (0, 0), BuildingBlock: KIFKEQ_clean_linker_1, # of connection points: 2
#     Edge 15, Type (0, 0), BuildingBlock: KIFKEQ_clean_linker_1, # of connection points: 2
#     Edge 16, Type (0, 0), BuildingBlock: KIFKEQ_clean_linker_1, # of connection points: 2
#     Edge 17, Type (0, 0), BuildingBlock: KIFKEQ_clean_linker_1, # of connection points: 2
#     Edge 18, Type (0, 0), BuildingBlock: KIFKEQ_clean_linker_1, # of connection points: 2
#     Edge 19, Type (0, 0), BuildingBlock: KIFKEQ_clean_linker_1, # of connection points: 2
#     Edge 20, Type (0, 0), BuildingBlock: KIFKEQ_clean_linker_1, # of connection points: 2
#     Edge 21, Type (0, 0), BuildingBlock: KIFKEQ_clean_linker_1, # of connection points: 2
#     Edge 22, Type (0, 0), BuildingBlock: KIFKEQ_clean_linker_1, # of connection points: 2
#     Edge 23, Type (0, 0), BuildingBlock: KIFKEQ_clean_linker_1, # of connection points: 2
#     Edge 24, Type (0, 0), BuildingBlock: KIFKEQ_clean_linker_1, # of connection points: 2
#     Edge 25, Type (0, 0), BuildingBlock: KIFKEQ_clean_linker_1, # of connection points: 2
#     Edge 26, Type (0, 0), BuildingBlock: KIFKEQ_clean_linker_1, # of connection points: 2
#     Edge 27, Type (0, 0), BuildingBlock: KIFKEQ_clean_linker_1, # of connection points: 2
#     Edge 28, Type (0, 0), BuildingBlock: KIFKEQ_clean_linker_1, # of connection points: 2
#     Edge 29, Type (0, 0), BuildingBlock: KIFKEQ_clean_linker_1, # of connection points: 2
#     Edge 30, Type (0, 0), BuildingBlock: KIFKEQ_clean_linker_1, # of connection points: 2
#     Edge 31, Type (0, 0), BuildingBlock: KIFKEQ_clean_linker_1, # of connection points: 2
# Relax obj value: 0.139
# Max RMSD: 0.180
# Mean RMSD: 0.180
data_MOF--net-vby--node1-MIDCAF_clean_sbu_0--edge1-KIFKEQ_clean_linker_1
_symmetry_space_group_name_H-M    P1
_symmetry_Int_Tables_number       1
_symmetry_cell_setting            triclinic
loop_
_symmetry_equiv_pos_as_xyz
'x, y, z'
_cell_length_a     15.522986
_cell_length_b     58.901883
_cell_length_c     30.318968
_cell_angle_alpha  89.983478
_cell_angle_beta   90.49766
_cell_angle_gamma 89.962451
loop_
_atom_site_label
_atom_site_type_symbol
_atom_site_fract_x
_atom_site_fract_y
_atom_site_fract_z
_atom_type_partial_charge
Zn0 Zn 0.72575 0.33989 0.99372 0.0
Zn1 Zn 0.8301 0.4085 0.91166 0.0
Zn2 Zn 0.79165 0.37446 0.96131 0.0
C3 C 0.79105 0.42748 0.99222 0.0
C4 C 0.72347 0.38495 0.85939 0.0
O5 O 0.89487 0.34765 0.96773 0.0
O6 O 0.816 0.31762 0.98426 0.0
C7 C 0.7258 0.37459 0.05894 0.0
O8 O 0.78728 0.40625 1.00274 0.0
O9 O 0.80285 0.43332 0.95271 0.0
O10 O 0.76032 0.40399 0.85777 0.0
O11 O 0.72554 0.37329 0.89548 0.0
O12 O 0.71444 0.35358 0.0529 0.0
O13 O 0.7538 0.38697 0.02711 0.0
O14 O 0.66573 0.36464 0.92854 0.0
O15 O 0.61668 0.33454 0.96347 0.0
C16 C 0.6059 0.34975 0.93478 0.0
O17 O 0.92674 0.36767 0.9449 0.0
O18 O 0.95332 0.39875 0.90636 0.0
C19 C 0.88798 0.32611 0.97505 0.0
C20 C 0.97901 0.38016 0.92272 0.0
Zn21 Zn 0.75481 0.60603 0.96122 0.0
Zn22 Zn 0.86568 0.66676 0.04882 0.0
Zn23 Zn 0.81199 0.63579 1.00054 0.0
C24 C -0.00855 0.6582 0.98433 0.0
C25 C 0.85803 0.63045 0.10462 0.0
O26 O 0.67558 0.64381 0.98709 0.0
O27 O 0.63354 0.60827 0.98068 0.0
C28 C 0.8383 0.63049 0.89879 0.0
O29 O 0.93086 0.64589 0.96767 0.0
O30 O 0.98031 0.6682 0.02069 0.0
O31 O 0.85776 0.65183 0.1072 0.0
O32 O 0.84784 0.62077 0.06672 0.0
O33 O 0.77311 0.61789 0.90179 0.0
O34 O 0.87778 0.63665 0.93449 0.0
O35 O 0.8215 0.60256 0.03836 0.0
O36 O 0.82354 0.57976 0.98083 0.0
C37 C 0.83291 0.58257 0.02176 0.0
O38 O 0.7142 0.66422 1.00096 0.0
O39 O 0.78659 0.69154 0.0348 0.0
C40 C 0.61465 0.62907 0.98344 0.0
C41 C 0.72113 0.6851 1.01348 0.0
Zn42 Zn 0.19421 0.62243 0.55376 0.0
Zn43 Zn 0.0753 0.67712 0.43574 0.0
Zn44 Zn 0.12532 0.64822 0.49538 0.0
C45 C 0.94349 0.67298 0.50004 0.0
C46 C 0.08512 0.63603 0.39202 0.0
O47 O 0.2592 0.6602 0.51283 0.0
O48 O 0.30395 0.63753 0.5664 0.0
C49 C 0.04653 0.63833 0.59238 0.0
O50 O -0.00051 0.66008 0.51924 0.0
O51 O 0.9606 0.68205 0.46336 0.0
O52 O 0.08029 0.65699 0.3838 0.0
O53 O 0.09829 0.62911 0.43199 0.0
O54 O 0.10658 0.62441 0.59979 0.0
O55 O 0.04132 0.64879 0.55504 0.0
O56 O 0.13504 0.61406 0.46404 0.0
O57 O 0.20123 0.59502 0.51726 0.0
C58 C 0.1695 0.59561 0.47884 0.0
O59 O 0.21419 0.67795 0.49102 0.0
O60 O 0.1599 0.70169 0.44156 0.0
C61 C 0.31783 0.654 0.54094 0.0
C62 C 0.21602 0.69717 0.47053 0.0
Zn63 Zn 0.94963 0.36889 0.40321 0.0
Zn64 Zn 0.84032 0.42513 0.52387 0.0
Zn65 Zn 0.8866 0.39541 0.4636 0.0
C66 C 0.98417 0.44346 0.48907 0.0
C67 C 0.84424 0.38271 0.56474 0.0
O68 O 0.89656 0.36078 0.49383 0.0
O69 O 0.9496 0.34079 0.43857 0.0
C70 C 0.80284 0.38895 0.36694 0.0
O71 O 0.97791 0.42454 0.46786 0.0
O72 O 0.93112 0.44829 0.51889 0.0
O73 O 0.84052 0.4036 0.57376 0.0
O74 O 0.85929 0.37603 0.52504 0.0
O75 O 0.86082 0.37475 0.35774 0.0
O76 O 0.79992 0.39804 0.40548 0.0
O77 O 0.01994 0.40656 0.4461 0.0
O78 O 0.06301 0.38309 0.3939 0.0
C79 C 0.07813 0.39974 0.41892 0.0
O80 O 0.7595 0.40821 0.44236 0.0
O81 O 0.72535 0.43166 0.49646 0.0
C82 C 0.92425 0.34183 0.47796 0.0
C83 C 0.70541 0.42176 0.46084 0.0
Zn84 Zn 0.52255 0.86382 0.12867 0.0
Zn85 Zn 0.61328 0.91988 1.01023 0.0
Zn86 Zn 0.58208 0.89205 0.07065 0.0
C87 C 0.49024 0.94157 0.05409 0.0
C88 C 0.6032 0.88103 0.96579 0.0
O89 O 0.57479 0.85795 0.03809 0.0
O90 O 0.5238 0.83642 0.09158 0.0
C91 C 0.67055 0.88356 0.16534 0.0
O92 O 0.49169 0.92167 0.07194 0.0
O93 O 0.54149 0.94636 0.02352 0.0
O94 O 0.58774 0.9016 0.95732 0.0
O95 O 0.60809 0.87429 1.00629 0.0
O96 O 0.61385 0.86883 0.17352 0.0
O97 O 0.67114 0.89388 0.1279 0.0
O98 O 0.44889 0.9024 0.08898 0.0
O99 O 0.40762 0.87724 0.13857 0.0
C100 C 0.39087 0.89437 0.11501 0.0
O101 O 0.70805 0.90488 0.09114 0.0
O102 O 0.73751 0.92171 0.02797 0.0
C103 C 0.54909 0.83849 0.05235 0.0
C104 C 0.76163 0.91505 0.06576 0.0
Zn105 Zn 0.2741 0.1162 0.98435 0.0
Zn106 Zn 0.40663 0.17478 0.08345 0.0
Zn107 Zn 0.35256 0.14431 0.02888 0.0
C108 C 0.53225 0.16839 0.01554 0.0
C109 C 0.404 0.1362 0.13358 0.0
O110 O 0.21765 0.15667 1.01097 0.0
O111 O 0.16944 0.13109 0.96376 0.0
C112 C 0.42064 0.12579 0.93629 0.0
O113 O 0.47618 0.1545 0.99934 0.0
O114 O 0.5167 0.17879 0.05108 0.0
O115 O 0.41092 0.15735 0.13891 0.0
O116 O 0.38526 0.12807 0.09503 0.0
O117 O 0.35991 0.11166 0.93863 0.0
O118 O 0.43119 0.14053 0.96736 0.0
O119 O 0.34558 0.11166 0.06725 0.0
O120 O 0.25653 0.09141 0.02612 0.0
C121 C 0.30187 0.09331 0.06056 0.0
O122 O 0.26488 0.17461 0.03066 0.0
O123 O 0.32157 0.19918 0.07779 0.0
C124 C 0.15808 0.14934 0.98442 0.0
C125 C 0.2642 0.19422 0.04979 0.0
Zn126 Zn 0.76269 0.10594 0.56726 0.0
Zn127 Zn 0.62986 0.16752 0.47666 0.0
Zn128 Zn 0.68618 0.13639 0.52721 0.0
C129 C 0.507 0.16025 0.54417 0.0
C130 C 0.63207 0.13071 0.42252 0.0
O131 O 0.82191 0.14784 0.54425 0.0
O132 O 0.87414 0.11887 0.5822 0.0
C133 C 0.62766 0.11875 0.62213 0.0
O134 O 0.56461 0.14643 0.55921 0.0
O135 O 0.52002 0.17093 0.50872 0.0
O136 O 0.62588 0.15197 0.4193 0.0
O137 O 0.65052 0.12153 0.46022 0.0
O138 O 0.68617 0.10409 0.61774 0.0
O139 O 0.61288 0.13298 0.59058 0.0
O140 O 0.68443 0.10388 0.48679 0.0
O141 O 0.76404 0.08036 0.52669 0.0
C142 C 0.71965 0.08418 0.49258 0.0
O143 O 0.77744 0.16634 0.52602 0.0
O144 O 0.71253 0.19206 0.48415 0.0
C145 C 0.88383 0.13849 0.56661 0.0
C146 C 0.7742 0.18647 0.50907 0.0
Zn147 Zn 0.75438 0.84404 0.53001 0.0
Zn148 Zn 0.63602 0.91172 0.61662 0.0
Zn149 Zn 0.68072 0.87727 0.56836 0.0
C150 C 0.67528 0.93058 0.53643 0.0
C151 C 0.7455 0.88852 0.66991 0.0
O152 O 0.58044 0.85039 0.55973 0.0
O153 O 0.65888 0.82252 0.53188 0.0
C154 C 0.75832 0.88111 0.47146 0.0
O155 O 0.68551 0.90929 0.52772 0.0
O156 O 0.65722 0.9369 0.57501 0.0
O157 O 0.70806 0.90754 0.67029 0.0
O158 O 0.74496 0.87645 0.63438 0.0
O159 O 0.77938 0.86046 0.47452 0.0
O160 O 0.71925 0.89097 0.50352 0.0
O161 O 0.80537 0.867 0.602 0.0
O162 O 0.85533 0.83722 0.56625 0.0
C163 C 0.86462 0.85188 0.59613 0.0
O164 O 0.54514 0.86942 0.58423 0.0
O165 O 0.51526 0.90038 0.62249 0.0
C166 C 0.58777 0.8298 0.54575 0.0
C167 C 0.49162 0.88153 0.60652 0.0
H168 H 0.08682 0.39432 0.85762 0.0
H169 H 0.078 0.35198 0.97333 0.0
H170 H 0.23934 0.38532 0.84872 0.0
H171 H 0.22965 0.34239 0.9641 0.0
H172 H 0.48466 0.31682 0.92555 0.0
H173 H 0.33072 0.32257 0.91459 0.0
H174 H 0.3754 0.39375 0.88944 0.0
H175 H 0.53019 0.38793 0.90008 0.0
C176 C 0.11718 0.38281 0.8809 0.0
C177 C 0.06991 0.37342 0.9159 0.0
C178 C 0.20454 0.37769 0.87575 0.0
C179 C 0.24649 0.36298 0.90538 0.0
C180 C 0.19881 0.35335 0.93998 0.0
C181 C 0.1117 0.35864 0.94525 0.0
C182 C 0.46199 0.33358 0.91638 0.0
C183 C 0.51942 0.35201 0.91436 0.0
C184 C 0.37366 0.3369 0.91051 0.0
C185 C 0.34069 0.35871 0.90236 0.0
C186 C 0.39882 0.37673 0.89584 0.0
C187 C 0.48762 0.3734 0.90173 0.0
H188 H 0.06727 0.62573 0.93329 0.0
H189 H 0.11357 0.69067 0.9952 0.0
H190 H 0.22207 0.62086 0.92332 0.0
H191 H 0.2678 0.68548 0.98682 0.0
H192 H 0.5496 0.6705 0.9584 0.0
H193 H 0.39846 0.68014 0.94438 0.0
H194 H 0.3245 0.61211 0.98178 0.0
H195 H 0.47428 0.60257 0.9954 0.0
C196 C 0.1102 0.63931 0.94331 0.0
C197 C 0.07869 0.6584 0.96562 0.0
C198 C 0.1989 0.63641 0.93818 0.0
C199 C 0.25717 0.65249 0.9555 0.0
C200 C 0.22483 0.67273 0.97326 0.0
C201 C 0.13635 0.67566 0.97823 0.0
C202 C 0.50079 0.65778 0.96422 0.0
C203 C 0.52365 0.63589 0.97852 0.0
C204 C 0.41442 0.66319 0.95568 0.0
C205 C 0.34963 0.64676 0.96118 0.0
C206 C 0.37289 0.62497 0.9759 0.0
C207 C 0.45875 0.6196 0.98435 0.0
H208 H 0.8573 0.64534 0.55754 0.0
H209 H 0.82925 0.70667 0.48066 0.0
H210 H 0.70382 0.64613 0.57359 0.0
H211 H 0.67597 0.70763 0.49704 0.0
H212 H 0.40227 0.67563 0.47392 0.0
H213 H 0.55535 0.68489 0.4718 0.0
H214 H 0.58285 0.66464 0.6082 0.0
H215 H 0.43026 0.65515 0.61004 0.0
C216 C 0.81904 0.65939 0.5453 0.0
C217 C 0.85542 0.67583 0.51762 0.0
C218 C 0.73079 0.65986 0.5544 0.0
C219 C 0.6772 0.67681 0.53607 0.0
C220 C 0.71496 0.6941 0.51091 0.0
C221 C 0.80296 0.69359 0.50176 0.0
C222 C 0.44047 0.67381 0.50377 0.0
C223 C 0.40445 0.66446 0.54196 0.0
C224 C 0.52838 0.67909 0.50263 0.0
C225 C 0.58181 0.67513 0.53969 0.0
C226 C 0.54405 0.6674 0.57882 0.0
C227 C 0.45647 0.6621 0.57991 0.0
H228 H 0.61768 0.39215 0.4082 0.0
H229 H 0.5894 0.45545 0.47818 0.0
H230 H 0.46418 0.392 0.3916 0.0
H231 H 0.435 0.45528 0.46196 0.0
H232 H 0.16259 0.4222 0.48565 0.0
H233 H 0.315 0.43223 0.4884 0.0
H234 H 0.34349 0.40975 0.35368 0.0
H235 H 0.19146 0.3996 0.35112 0.0
C236 C 0.57927 0.40649 0.41849 0.0
C237 C 0.61598 0.4239 0.44398 0.0
C238 C 0.49092 0.40636 0.40929 0.0
C239 C 0.43704 0.4236 0.42565 0.0
C240 C 0.47448 0.44162 0.44935 0.0
C241 C 0.563 0.44176 0.45841 0.0
C242 C 0.20074 0.42008 0.45622 0.0
C243 C 0.16511 0.41 0.41829 0.0
C244 C 0.28828 0.42579 0.45777 0.0
C245 C 0.34179 0.42148 0.42141 0.0
C246 C 0.30452 0.41285 0.38252 0.0
C247 C 0.2173 0.40713 0.38102 0.0
H248 H 0.89507 0.91843 1.00962 0.0
H249 H 0.83649 0.91639 0.14841 0.0
H250 H 0.04706 0.9182 0.02651 0.0
H251 H -0.00955 0.91721 0.16604 0.0
H252 H 0.31788 0.92491 0.05748 0.0
H253 H 0.16814 0.93626 0.05252 0.0
H254 H 0.10989 0.89326 0.16405 0.0
H255 H 0.26133 0.88398 0.17178 0.0
C256 C 0.91483 0.91844 0.04399 0.0
C257 C 0.8537 0.91715 0.07776 0.0
C258 C 0.00255 0.91853 0.05378 0.0
C259 C 0.03195 0.91776 0.09776 0.0
C260 C 0.9705 0.91741 0.13175 0.0
C261 C 0.8822 0.91694 0.12178 0.0
C262 C 0.27415 0.91878 0.08227 0.0
C263 C 0.30225 0.90373 0.11524 0.0
C264 C 0.18738 0.92485 0.07882 0.0
C265 C 0.12589 0.91529 0.10723 0.0
C266 C 0.15485 0.90117 0.1417 0.0
C267 C 0.24201 0.89562 0.14585 0.0
H268 H 0.07049 0.17429 0.0461 0.0
H269 H 0.05096 0.14815 0.91342 0.0
H270 H 0.9167 0.18322 0.04441 0.0
H271 H 0.89787 0.15715 0.91151 0.0
H272 H 0.64249 0.20366 0.02789 0.0
H273 H 0.79621 0.20448 1.01303 0.0
H274 H 0.77548 0.13951 0.94775 0.0
H275 H 0.62092 0.13881 0.9623 0.0
C276 C 0.03409 0.17121 0.01606 0.0
C277 C 0.07262 0.16035 0.9801 0.0
C278 C 0.94575 0.17623 0.01505 0.0
C279 C 0.89447 0.17047 0.97804 0.0
C280 C 0.93489 0.16131 0.94085 0.0
C281 C 0.02281 0.15633 0.94188 0.0
C282 C 0.67032 0.18974 1.00948 0.0
C283 C 0.61957 0.171 0.99672 0.0
C284 C 0.75866 0.19018 1.00126 0.0
C285 C 0.79866 0.1719 0.97998 0.0
C286 C 0.74676 0.15395 0.96411 0.0
C287 C 0.65798 0.15353 0.97233 0.0
H288 H 0.41966 0.12887 0.59356 0.0
H289 H 0.3975 0.19602 0.53746 0.0
H290 H 0.26476 0.12863 0.60694 0.0
H291 H 0.24333 0.19598 0.55136 0.0
H292 H 0.97222 0.16648 0.51037 0.0
H293 H 0.1254 0.17597 0.51555 0.0
H294 H 0.13995 0.14389 0.64362 0.0
H295 H 0.98791 0.1342 0.63796 0.0
C296 C 0.3823 0.14388 0.58558 0.0
C297 C 0.42051 0.1623 0.56394 0.0
C298 C 0.29333 0.14378 0.5931 0.0
C299 C 0.24119 0.16216 0.57935 0.0
C300 C 0.28109 0.18136 0.56134 0.0
C301 C 0.36963 0.18142 0.55373 0.0
C302 C 0.00762 0.16217 0.54015 0.0
C303 C 0.96852 0.14943 0.5735 0.0
C304 C 0.09552 0.16751 0.54319 0.0
C305 C 0.14547 0.16028 0.57974 0.0
C306 C 0.10408 0.14922 0.61461 0.0
C307 C 0.01679 0.14382 0.61146 0.0
H308 H 0.94204 0.88969 0.63117 0.0
H309 H 0.98367 0.81836 0.60633 0.0
H310 H 0.09708 0.89494 0.64125 0.0
H311 H 0.13809 0.82354 0.61676 0.0
H312 H 0.39385 0.85172 0.55826 0.0
H313 H 0.24212 0.84222 0.56802 0.0
H314 H 0.2321 0.88674 0.68104 0.0
H315 H 0.38395 0.89583 0.6714 0.0
C316 C 0.98379 0.87497 0.62967 0.0
C317 C 0.95068 0.85369 0.61735 0.0
C318 C 0.07287 0.87798 0.63515 0.0
C319 C 0.1302 0.85975 0.62859 0.0
C320 C 0.09596 0.83804 0.62082 0.0
C321 C 0.00728 0.83505 0.61536 0.0
C322 C 0.35997 0.85883 0.58586 0.0
C323 C 0.4014 0.87422 0.61412 0.0
C324 C 0.27279 0.85355 0.59149 0.0
C325 C 0.22479 0.86371 0.62548 0.0
C326 C 0.26681 0.87877 0.65435 0.0
C327 C 0.35397 0.88393 0.64878 0.0
H328 H 0.71913 0.56458 0.07959 0.0
H329 H 0.96582 0.55305 0.01967 0.0
H330 H 0.70605 0.52385 0.09463 0.0
H331 H 0.95391 0.51263 0.0348 0.0
H332 H 0.91763 0.44006 0.04943 0.0
H333 H 0.93535 0.47823 0.08044 0.0
H334 H 0.67899 0.49562 0.03534 0.0
H335 H 0.66227 0.45766 1.00451 0.0
C336 C 0.77286 0.55353 0.07209 0.0
C337 C 0.84374 0.56192 0.04872 0.0
C338 C 0.76489 0.53014 0.0801 0.0
C339 C 0.82822 0.51486 0.06527 0.0
C340 C 0.90403 0.52379 0.04699 0.0
C341 C 0.91127 0.54705 0.03844 0.0
C342 C 0.86366 0.45173 0.04829 0.0
C343 C 0.78821 0.44591 0.02507 0.0
C344 C 0.87405 0.47366 0.06561 0.0
C345 C 0.80901 0.49013 0.06 0.0
C346 C 0.73016 0.4834 0.04078 0.0
C347 C 0.72028 0.46159 0.02312 0.0
H348 H 0.00605 0.45891 0.40556 0.0
H349 H 0.08948 0.46922 0.54011 0.0
H350 H 0.069 0.49568 0.38487 0.0
H351 H 0.15541 0.50524 0.51927 0.0
H352 H 0.03503 0.57775 0.43112 0.0
H353 H 0.01222 0.53699 0.41931 0.0
H354 H 0.27179 0.52349 0.46401 0.0
H355 H 0.29485 0.56401 0.47523 0.0
C356 C 0.04125 0.46858 0.43019 0.0
C357 C 0.04342 0.46136 0.47439 0.0
C358 C 0.07652 0.48961 0.41841 0.0
C359 C 0.11684 0.50323 0.45047 0.0
C360 C 0.12535 0.49496 0.49382 0.0
C361 C 0.08788 0.47437 0.5058 0.0
C362 C 0.0886 0.56619 0.43589 0.0
C363 C 0.16623 0.57392 0.45459 0.0
C364 C 0.07554 0.54285 0.42935 0.0
C365 C 0.13998 0.52716 0.44151 0.0
C366 C 0.22106 0.53524 0.45471 0.0
C367 C 0.23415 0.55843 0.46102 0.0
H368 H 0.49902 0.96025 0.13574 0.0
H369 H 0.36691 0.96518 1.01047 0.0
H370 H 0.44077 0.99749 0.1572 0.0
H371 H 0.30589 1.00166 0.03234 0.0
H372 H 0.44937 0.0775 0.09996 0.0
H373 H 0.47845 0.03736 0.11496 0.0
H374 H 0.20989 0.02183 0.09327 0.0
H375 H 0.18066 0.06184 0.07897 0.0
C376 C 0.45437 0.96886 0.11373 0.0
C377 C 0.43638 0.95992 0.07169 0.0
C378 C 0.42172 0.99015 0.12585 0.0
C379 C 0.36869 1.00236 0.09651 0.0
C380 C 0.34567 0.99247 0.05586 0.0
C381 C 0.38035 0.97162 0.04329 0.0
C382 C 0.39581 0.06575 0.10108 0.0
C383 C 0.31306 0.07269 0.08774 0.0
C384 C 0.41247 0.04272 0.1094 0.0
C385 C 0.34653 0.0265 0.10436 0.0
C386 C 0.26188 0.03397 0.09693 0.0
C387 C 0.24524 0.05689 0.0889 0.0
H388 H 0.83211 0.06018 0.4432 0.0
H389 H 0.56725 0.0624 0.48387 0.0
H390 H 0.82073 0.01937 0.43106 0.0
H391 H 0.55625 0.02151 0.47436 0.0
H392 H 0.55469 0.94737 0.47958 0.0
H393 H 0.55955 0.98466 0.44381 0.0
H394 H 0.82395 0.99231 0.48751 0.0
H395 H 0.81862 0.95506 0.52161 0.0
C396 C 0.77004 0.05207 0.4473 0.0
C397 C 0.70055 0.0644 0.46444 0.0
C398 C 0.76387 0.02856 0.44127 0.0
C399 C 0.68867 0.01683 0.45341 0.0
C400 C 0.6155 0.02974 0.46471 0.0
C401 C 0.62137 0.05335 0.4699 0.0
C402 C 0.61483 0.95669 0.4795 0.0
C403 C 0.68666 0.94835 0.50281 0.0
C404 C 0.61743 0.97819 0.45956 0.0
C405 C 0.69169 0.99186 0.46312 0.0
C406 C 0.76577 0.98241 0.48327 0.0
C407 C 0.76305 0.96096 0.50299 0.0
H408 H 0.0304 0.32669 0.02812 0.0
H409 H 0.90317 0.28869 0.92518 0.0
H410 H 0.12697 0.29474 0.04203 0.0
H411 H -0.00612 0.25602 0.94115 0.0
H412 H 0.20089 0.20264 0.96717 0.0
H413 H 0.12359 0.23652 0.94262 0.0
H414 H 0.11331 0.2601 0.07764 0.0
H415 H 0.19449 0.22691 0.1013 0.0
C416 C 0.02567 0.31182 1.00723 0.0
C417 C 0.96154 0.31039 0.97458 0.0
C418 C 0.07911 0.29318 0.01603 0.0
C419 C 0.06723 0.27246 0.99345 0.0
C420 C 0.00598 0.27161 0.95904 0.0
C421 C 0.95397 0.29038 0.94972 0.0
C422 C 0.18064 0.21494 0.99153 0.0
C423 C 0.20325 0.21216 0.03612 0.0
C424 C 0.13669 0.23446 0.97751 0.0
C425 C 0.11338 0.25144 1.00794 0.0
C426 C 0.13267 0.24793 0.05288 0.0
C427 C 0.17786 0.22868 0.06668 0.0
H428 H 0.67863 0.82284 0.99923 0.0
H429 H 0.4248 0.80666 0.04648 0.0
H430 H 0.69738 0.78336 0.97585 0.0
H431 H 0.44168 0.76757 0.02195 0.0
H432 H 0.58784 0.70062 0.06175 0.0
H433 H 0.52757 0.7387 0.0564 0.0
H434 H 0.66244 0.74922 0.93397 0.0
H435 H 0.72311 0.71094 0.94002 0.0
C436 C 0.62549 0.81108 1.00277 0.0
C437 C 0.55083 0.81767 0.02514 0.0
C438 C 0.63602 0.78841 0.98945 0.0
C439 C 0.57166 0.77207 0.99798 0.0
C440 C 0.49338 0.77948 0.0159 0.0
C441 C 0.48341 0.80194 0.02961 0.0
C442 C 0.60069 0.71064 0.03256 0.0
C443 C 0.65867 0.70277 1.00094 0.0
C444 C 0.56671 0.7326 0.02949 0.0
C445 C 0.591 0.74726 0.99495 0.0
C446 C 0.64323 0.73855 0.96126 0.0
C447 C 0.67676 0.71649 0.96428 0.0
H448 H 0.28402 0.73013 0.41888 0.0
H449 H 0.27946 0.70573 0.55303 0.0
H450 H 0.36489 0.7634 0.44252 0.0
H451 H 0.35727 0.73949 0.57737 0.0
H452 H 0.57892 0.79149 0.59329 0.0
H453 H 0.48931 0.75862 0.57705 0.0
H454 H 0.34879 0.79798 0.4797 0.0
H455 H 0.44325 0.83034 0.49432 0.0
C456 C 0.30103 0.73186 0.45345 0.0
C457 C 0.27629 0.71528 0.48405 0.0
C458 C 0.34613 0.75111 0.46721 0.0
C459 C 0.3662 0.75449 0.51209 0.0
C460 C 0.34349 0.73749 0.54253 0.0
C461 C 0.29934 0.71803 0.5286 0.0
C462 C 0.52677 0.79325 0.56952 0.0
C463 C 0.5162 0.81355 0.54586 0.0
C464 C 0.47547 0.77439 0.56004 0.0
C465 C 0.41233 0.77544 0.52657 0.0
C466 C 0.39808 0.79635 0.50499 0.0
C467 C 0.45053 0.81511 0.51406 0.0
H468 H 0.05257 0.31106 0.48049 0.0
H469 H 0.79869 0.32408 0.53131 0.0
H470 H 0.04203 0.27146 0.50282 0.0
H471 H 0.78665 0.28405 0.55276 0.0
H472 H 0.77753 0.21032 0.58525 0.0
H473 H 0.83266 0.24914 0.59301 0.0
H474 H 0.95375 0.2432 0.46574 0.0
H475 H 0.89807 0.20477 0.45832 0.0
C476 C -0.00464 0.30553 0.49768 0.0
C477 C 0.92596 0.32051 0.5037 0.0
C478 C 0.98914 0.2828 0.51023 0.0
C479 C 0.91279 0.27441 0.52858 0.0
C480 C 0.84655 0.28994 0.53876 0.0
C481 C 0.85325 0.31289 0.52652 0.0
C482 C 0.8198 0.217 0.56014 0.0
C483 C 0.83505 0.20451 0.52152 0.0
C484 C 0.85011 0.23935 0.56421 0.0
C485 C 0.89688 0.24943 0.52985 0.0
C486 C 0.91881 0.23599 0.49315 0.0
C487 C 0.8875 0.21386 0.48888 0.0
H488 H 0.75854 0.41743 0.09319 0.0
H489 H 0.65054 0.35221 0.12634 0.0
H490 H 0.74148 0.42969 0.1695 0.0
H491 H 0.63958 0.36336 0.20181 0.0
H492 H 0.64298 0.37631 0.33718 0.0
H493 H 0.59095 0.38147 0.26182 0.0
H494 H 0.81214 0.42385 0.23465 0.0
H495 H 0.85694 0.42066 0.31097 0.0
C496 C 0.73042 0.40583 0.11647 0.0
C497 C 0.7076 0.38375 0.10354 0.0
C498 C 0.72111 0.41273 0.16051 0.0
C499 C 0.6901 0.39751 0.1927 0.0
C500 C 0.66237 0.37594 0.17869 0.0
C501 C 0.67031 0.36929 0.13495 0.0
C502 C 0.67679 0.38791 0.31572 0.0
C503 C 0.75339 0.39824 0.32971 0.0
C504 C 0.64852 0.39045 0.27204 0.0
C505 C 0.69949 0.40216 0.24105 0.0
C506 C 0.77074 0.4146 0.25683 0.0
C507 C 0.79688 0.41276 0.30083 0.0
H508 H -0.01005 0.60059 0.11953 0.0
H509 H 0.77556 0.63344 0.18243 0.0
H510 H 0.05098 0.59106 0.19229 0.0
H511 H 0.83465 0.62367 0.25462 0.0
H512 H 0.94741 0.60788 0.38265 0.0
H513 H 0.88574 0.59586 0.3117 0.0
H514 H 0.11412 0.6195 0.24573 0.0
H515 H 0.1745 0.63161 0.31637 0.0
C516 C 0.95379 0.60475 0.14885 0.0
C517 C 0.87789 0.61766 0.14545 0.0
C518 C 0.98906 0.59951 0.19051 0.0
C519 C 0.9481 0.60673 0.22941 0.0
C520 C 0.86765 0.6176 0.22559 0.0
C521 C 0.83356 0.62322 0.18414 0.0
C522 C 0.9862 0.60931 0.35325 0.0
C523 C 0.0661 0.62045 0.35502 0.0
C524 C 0.95047 0.60271 0.3125 0.0
C525 C -0.00553 0.60695 0.27286 0.0
C526 C 0.0786 0.61576 0.27545 0.0
C527 C 0.11355 0.62265 0.31602 0.0
H528 H 0.73514 0.63146 0.82687 0.0
H529 H -0.00425 0.64664 0.86837 0.0
H530 H 0.77292 0.63838 0.75087 0.0
H531 H 0.03427 0.65342 0.79083 0.0
H532 H 0.0596 0.67501 0.64545 0.0
H533 H 0.00566 0.67756 0.72123 0.0
H534 H 0.86379 0.6153 0.70117 0.0
H535 H 0.91872 0.61277 0.62614 0.0
C536 C 0.80087 0.63636 0.81984 0.0
C537 C 0.86319 0.63788 0.8538 0.0
C538 C 0.82227 0.64037 0.77607 0.0
C539 C 0.90674 0.64605 0.76467 0.0
C540 C 0.9684 0.64906 0.79868 0.0
C541 C 0.94668 0.64506 0.84303 0.0
C542 C 0.01381 0.66247 0.65684 0.0
C543 C -0.00882 0.64401 0.6298 0.0
C544 C 0.98439 0.66369 0.70038 0.0
C545 C 0.93107 0.64656 0.7173 0.0
C546 C 0.90416 0.6289 0.68906 0.0
C547 C 0.93469 0.62752 0.64593 0.0
H548 H 0.94148 0.36537 0.63157 0.0
H549 H 0.68335 0.36784 0.5785 0.0
H550 H 0.88428 0.35597 0.70424 0.0
H551 H 0.62562 0.35922 0.65147 0.0
H552 H 0.76156 0.34219 0.83321 0.0
H553 H 0.77859 0.33034 0.75635 0.0
H554 H 0.65277 0.39185 0.71305 0.0
H555 H 0.63932 0.40413 0.78959 0.0
C556 C 0.8729 0.36251 0.63492 0.0
C557 C 0.81681 0.36701 0.59951 0.0
C558 C 0.83994 0.35728 0.67655 0.0
C559 C 0.75042 0.35708 0.68347 0.0
C560 C 0.69478 0.3592 0.64696 0.0
C561 C 0.72788 0.36391 0.60517 0.0
C562 C 0.73363 0.35263 0.80734 0.0
C563 C 0.69922 0.37412 0.81723 0.0
C564 C 0.7441 0.3459 0.76338 0.0
C565 C 0.71747 0.36023 0.72885 0.0
C566 C 0.67325 0.38038 0.73904 0.0
C567 C 0.66522 0.38741 0.78285 0.0
H568 H 0.77694 0.85716 0.2139 0.0
H569 H 0.6803 0.9255 0.2019 0.0
H570 H 0.82431 0.86496 0.28893 0.0
H571 H 0.72701 0.93352 0.27786 0.0
H572 H 0.6526 0.91023 0.42585 0.0
H573 H 0.66142 0.91815 0.34678 0.0
H574 H 0.91086 0.88567 0.34298 0.0
H575 H 0.9005 0.87722 0.42141 0.0
C576 C 0.76971 0.87421 0.22679 0.0
C577 C 0.72587 0.89077 0.20225 0.0
C578 C 0.79665 0.87875 0.26987 0.0
C579 C 0.7787 0.89985 0.28962 0.0
C580 C 0.74124 0.91708 0.26366 0.0
C581 C 0.71549 0.91259 0.2201 0.0
C582 C 0.71066 0.90564 0.40839 0.0
C583 C 0.77501 0.89271 0.4293 0.0
C584 C 0.71597 0.91019 0.36308 0.0
C585 C 0.78606 0.90202 0.3384 0.0
C586 C 0.85524 0.89172 0.36085 0.0
C587 C 0.84942 0.88695 0.40577 0.0
H588 H 0.31787 0.13455 0.21057 0.0
H589 H 0.54016 0.1075 0.14473 0.0
H590 H 0.37726 0.12265 0.28158 0.0
H591 H 0.60083 0.09559 0.21607 0.0
H592 H 0.49456 0.10285 0.40809 0.0
H593 H 0.43274 0.09394 0.33532 0.0
H594 H 0.65871 0.12183 0.27343 0.0
H595 H 0.71895 0.13087 0.34578 0.0
C596 C 0.37759 0.12501 0.21119 0.0
C597 C 0.42382 0.12167 0.17213 0.0
C598 C 0.41195 0.11821 0.25196 0.0
C599 C 0.4944 0.10832 0.25475 0.0
C600 C 0.53741 0.10326 0.21517 0.0
C601 C 0.50225 0.10981 0.17423 0.0
C602 C 0.53261 0.10598 0.37892 0.0
C603 C 0.6119 0.11733 0.3825 0.0
C604 C 0.49683 0.10116 0.33721 0.0
C605 C 0.54026 0.10738 0.29837 0.0
C606 C 0.62361 0.11657 0.30241 0.0
C607 C 0.65851 0.1217 0.34395 0.0
H608 H 0.45236 0.08957 0.88554 0.0
H609 H 0.49436 0.16192 0.89147 0.0
H610 H 0.49158 0.08918 0.80925 0.0
H611 H 0.54145 0.16139 0.81399 0.0
H612 H 0.53284 0.15395 0.65982 0.0
H613 H 0.49121 0.15703 0.73791 0.0
H614 H 0.60301 0.09091 0.76253 0.0
H615 H 0.63605 0.0871 0.68612 0.0
C616 C 0.47318 0.10539 0.87079 0.0
C617 C 0.47026 0.12576 0.89473 0.0
C618 C 0.49619 0.10518 0.82663 0.0
C619 C 0.52022 0.12526 0.80484 0.0
C620 C 0.52211 0.14564 0.82938 0.0
C621 C 0.49715 0.1459 0.87403 0.0
C622 C 0.54564 0.13987 0.6819 0.0
C623 C 0.58723 0.12023 0.66639 0.0
C624 C 0.52353 0.14179 0.72684 0.0
C625 C 0.54344 0.1242 0.75698 0.0
C626 C 0.58412 0.10464 0.74077 0.0
C627 C 0.60383 0.10251 0.69642 0.0
H628 H 0.818 0.90884 0.74203 0.0
H629 H 0.71352 0.84526 0.69558 0.0
H630 H 0.79996 0.89624 0.81822 0.0
H631 H 0.69174 0.83311 0.77191 0.0
H632 H 0.76644 0.86728 0.9528 0.0
H633 H 0.82999 0.8613 0.87998 0.0
H634 H 0.57562 0.85945 0.82179 0.0
H635 H 0.51263 0.86654 0.89418 0.0
C636 C 0.79502 0.89177 0.74812 0.0
C637 C 0.76733 0.87805 0.7129 0.0
C638 C 0.78439 0.88456 0.79172 0.0
C639 C 0.74387 0.86377 0.80084 0.0
C640 C 0.72346 0.84916 0.7657 0.0
C641 C 0.73662 0.85608 0.72204 0.0
C642 C 0.72409 0.86429 0.9248 0.0
C643 C 0.63462 0.86709 0.92904 0.0
C644 C 0.76053 0.8611 0.88312 0.0
C645 C 0.70769 0.85996 0.84536 0.0
C646 C 0.61774 0.86 0.85046 0.0
C647 C 0.58153 0.86389 0.8919 0.0
loop_
_geom_bond_atom_site_label_1
_geom_bond_atom_site_label_2
_geom_bond_distance
_geom_bond_site_symmetry_2
_ccdc_geom_bond_type
Zn0 O6 1.920 1_655 S
Zn0 O12 1.898 . S
Zn0 O15 1.905 . S
Zn1 O9 1.905 . S
Zn1 O10 1.898 . S
Zn1 O18 1.920 . S
Zn2 O5 2.080 1_554 S
Zn2 O8 2.114 1_554 S
Zn2 O11 2.120 1_554 S
Zn2 O13 2.120 . S
Zn2 O14 2.114 1_455 S
Zn2 O17 2.080 . S
C3 O8 1.166 . S
C3 O9 1.193 . S
C4 O10 1.167 . S
C4 O11 1.299 . S
O5 Zn2 2.080 1_556 S
O5 C19 1.305 1_556 S
O6 Zn0 1.920 1_455 S
O6 C19 1.234 . S
C7 O12 1.167 1_455 S
C7 O13 1.299 . S
O8 Zn2 2.114 1_556 S
O8 C3 1.166 . S
O9 Zn1 1.905 . S
O9 C3 1.193 . S
O10 Zn1 1.898 . S
O10 C4 1.167 . S
O11 Zn2 2.120 1_556 S
O11 C4 1.299 . S
O12 Zn0 1.898 . S
O12 C7 1.167 1_655 S
O13 Zn2 2.120 . S
O13 C7 1.299 . S
O14 Zn2 2.114 1_655 S
O14 C16 1.166 . S
O15 Zn0 1.905 . S
O15 C16 1.182 . S
C16 O14 1.166 . S
C16 O15 1.182 . S
O17 Zn2 2.080 . S
O17 C20 1.305 1_554 S
O18 Zn1 1.920 . S
O18 C20 1.234 . S
C19 O5 1.305 1_554 S
C19 O6 1.234 . S
C20 O17 1.305 1_556 S
C20 O18 1.234 . S
Zn21 O27 1.920 . S
Zn21 O33 1.898 . S
Zn21 O36 1.905 . S
Zn22 O30 1.905 . S
Zn22 O31 1.898 . S
Zn22 O39 1.920 1_455 S
Zn23 O26 2.080 . S
Zn23 O29 2.114 1_655 S
Zn23 O32 2.120 . S
Zn23 O34 2.120 1_554 S
Zn23 O35 2.114 1_554 S
Zn23 O38 2.080 1_554 S
C24 O29 1.166 . S
C24 O30 1.182 . S
C25 O31 1.167 1_655 S
C25 O32 1.299 . S
O26 Zn23 2.080 . S
O26 C40 1.305 1_554 S
O27 Zn21 1.920 . S
O27 C40 1.234 . S
C28 O33 1.167 . S
C28 O34 1.299 . S
O29 Zn23 2.114 1_455 S
O29 C24 1.166 . S
O30 Zn22 1.905 . S
O30 C24 1.182 . S
O31 Zn22 1.898 . S
O31 C25 1.167 1_455 S
O32 Zn23 2.120 . S
O32 C25 1.299 . S
O33 Zn21 1.898 . S
O33 C28 1.167 . S
O34 Zn23 2.120 1_556 S
O34 C28 1.299 . S
O35 Zn23 2.114 1_556 S
O35 C37 1.166 . S
O36 Zn21 1.905 . S
O36 C37 1.193 . S
C37 O35 1.166 . S
C37 O36 1.193 . S
O38 Zn23 2.080 1_556 S
O38 C41 1.305 1_556 S
O39 Zn22 1.920 1_655 S
O39 C41 1.234 . S
C40 O26 1.305 1_556 S
C40 O27 1.234 . S
C41 O38 1.305 1_554 S
C41 O39 1.234 . S
Zn42 O48 1.920 . S
Zn42 O54 1.898 . S
Zn42 O57 1.905 . S
Zn43 O51 1.905 . S
Zn43 O52 1.898 . S
Zn43 O60 1.920 1_655 S
Zn44 O47 2.080 . S
Zn44 O50 2.114 1_455 S
Zn44 O53 2.120 . S
Zn44 O55 2.120 . S
Zn44 O56 2.114 . S
Zn44 O59 2.080 . S
C45 O50 1.166 . S
C45 O51 1.182 . S
C46 O52 1.167 1_455 S
C46 O53 1.299 . S
O47 Zn44 2.080 . S
O47 C61 1.305 . S
O48 Zn42 1.920 . S
O48 C61 1.234 . S
C49 O54 1.167 . S
C49 O55 1.299 . S
O50 Zn44 2.114 1_655 S
O50 C45 1.166 . S
O51 Zn43 1.905 . S
O51 C45 1.182 . S
O52 Zn43 1.898 . S
O52 C46 1.167 1_655 S
O53 Zn44 2.120 . S
O53 C46 1.299 . S
O54 Zn42 1.898 . S
O54 C49 1.167 . S
O55 Zn44 2.120 . S
O55 C49 1.299 . S
O56 Zn44 2.114 . S
O56 C58 1.166 . S
O57 Zn42 1.905 . S
O57 C58 1.182 . S
C58 O56 1.166 . S
C58 O57 1.182 . S
O59 Zn44 2.080 . S
O59 C62 1.305 . S
O60 Zn43 1.920 1_455 S
O60 C62 1.234 . S
C61 O47 1.305 . S
C61 O48 1.234 . S
C62 O59 1.305 . S
C62 O60 1.234 . S
Zn63 O69 1.920 1_455 S
Zn63 O75 1.898 . S
Zn63 O78 1.905 . S
Zn64 O72 1.905 . S
Zn64 O73 1.898 . S
Zn64 O81 1.920 . S
Zn65 O68 2.080 . S
Zn65 O71 2.114 . S
Zn65 O74 2.120 . S
Zn65 O76 2.120 . S
Zn65 O77 2.114 1_655 S
Zn65 O80 2.080 . S
C66 O71 1.166 . S
C66 O72 1.182 . S
C67 O73 1.167 . S
C67 O74 1.299 . S
O68 Zn65 2.080 . S
O68 C82 1.305 . S
O69 Zn63 1.920 1_655 S
O69 C82 1.234 . S
C70 O75 1.167 1_655 S
C70 O76 1.299 . S
O71 Zn65 2.114 . S
O71 C66 1.166 . S
O72 Zn64 1.905 . S
O72 C66 1.182 . S
O73 Zn64 1.898 . S
O73 C67 1.167 . S
O74 Zn65 2.120 . S
O74 C67 1.299 . S
O75 Zn63 1.898 . S
O75 C70 1.167 1_455 S
O76 Zn65 2.120 . S
O76 C70 1.299 . S
O77 Zn65 2.114 1_455 S
O77 C79 1.166 . S
O78 Zn63 1.905 . S
O78 C79 1.182 . S
C79 O77 1.166 . S
C79 O78 1.182 . S
O80 Zn65 2.080 . S
O80 C83 1.305 . S
O81 Zn64 1.920 . S
O81 C83 1.234 . S
C82 O68 1.305 . S
C82 O69 1.234 . S
C83 O80 1.305 . S
C83 O81 1.234 . S
Zn84 O90 1.920 . S
Zn84 O96 1.898 . S
Zn84 O99 1.905 . S
Zn85 O93 1.905 . S
Zn85 O94 1.898 . S
Zn85 O102 1.920 . S
Zn86 O89 2.080 1_554 S
Zn86 O92 2.114 1_554 S
Zn86 O95 2.120 1_554 S
Zn86 O97 2.120 . S
Zn86 O98 2.114 . S
Zn86 O101 2.080 . S
C87 O92 1.166 . S
C87 O93 1.193 . S
C88 O94 1.167 . S
C88 O95 1.299 . S
O89 Zn86 2.080 1_556 S
O89 C103 1.305 1_556 S
O90 Zn84 1.920 . S
O90 C103 1.234 . S
C91 O96 1.167 . S
C91 O97 1.299 . S
O92 Zn86 2.114 1_556 S
O92 C87 1.166 . S
O93 Zn85 1.905 . S
O93 C87 1.193 . S
O94 Zn85 1.898 . S
O94 C88 1.167 . S
O95 Zn86 2.120 1_556 S
O95 C88 1.299 . S
O96 Zn84 1.898 . S
O96 C91 1.167 . S
O97 Zn86 2.120 . S
O97 C91 1.299 . S
O98 Zn86 2.114 . S
O98 C100 1.166 . S
O99 Zn84 1.905 . S
O99 C100 1.182 . S
C100 O98 1.166 . S
C100 O99 1.182 . S
O101 Zn86 2.080 . S
O101 C104 1.305 1_554 S
O102 Zn85 1.920 . S
O102 C104 1.234 . S
C103 O89 1.305 1_554 S
C103 O90 1.234 . S
C104 O101 1.305 1_556 S
C104 O102 1.234 . S
Zn105 O111 1.920 . S
Zn105 O117 1.898 . S
Zn105 O120 1.905 . S
Zn106 O114 1.905 . S
Zn106 O115 1.898 . S
Zn106 O123 1.920 . S
Zn107 O110 2.080 . S
Zn107 O113 2.114 . S
Zn107 O116 2.120 . S
Zn107 O118 2.120 1_554 S
Zn107 O119 2.114 1_554 S
Zn107 O122 2.080 1_554 S
C108 O113 1.166 . S
C108 O114 1.182 . S
C109 O115 1.167 . S
C109 O116 1.299 . S
O110 Zn107 2.080 . S
O110 C124 1.305 1_554 S
O111 Zn105 1.920 . S
O111 C124 1.234 . S
C112 O117 1.167 . S
C112 O118 1.299 . S
O113 Zn107 2.114 . S
O113 C108 1.166 . S
O114 Zn106 1.905 . S
O114 C108 1.182 . S
O115 Zn106 1.898 . S
O115 C109 1.167 . S
O116 Zn107 2.120 . S
O116 C109 1.299 . S
O117 Zn105 1.898 . S
O117 C112 1.167 . S
O118 Zn107 2.120 1_556 S
O118 C112 1.299 . S
O119 Zn107 2.114 1_556 S
O119 C121 1.166 . S
O120 Zn105 1.905 . S
O120 C121 1.193 . S
C121 O119 1.166 . S
C121 O120 1.193 . S
O122 Zn107 2.080 1_556 S
O122 C125 1.305 1_556 S
O123 Zn106 1.920 . S
O123 C125 1.234 . S
C124 O110 1.305 1_556 S
C124 O111 1.234 . S
C125 O122 1.305 1_554 S
C125 O123 1.234 . S
Zn126 O132 1.920 . S
Zn126 O138 1.898 . S
Zn126 O141 1.905 . S
Zn127 O135 1.905 . S
Zn127 O136 1.898 . S
Zn127 O144 1.920 . S
Zn128 O131 2.080 . S
Zn128 O134 2.114 . S
Zn128 O137 2.120 . S
Zn128 O139 2.120 . S
Zn128 O140 2.114 . S
Zn128 O143 2.080 . S
C129 O134 1.166 . S
C129 O135 1.182 . S
C130 O136 1.167 . S
C130 O137 1.299 . S
O131 Zn128 2.080 . S
O131 C145 1.305 . S
O132 Zn126 1.920 . S
O132 C145 1.234 . S
C133 O138 1.167 . S
C133 O139 1.299 . S
O134 Zn128 2.114 . S
O134 C129 1.166 . S
O135 Zn127 1.905 . S
O135 C129 1.182 . S
O136 Zn127 1.898 . S
O136 C130 1.167 . S
O137 Zn128 2.120 . S
O137 C130 1.299 . S
O138 Zn126 1.898 . S
O138 C133 1.167 . S
O139 Zn128 2.120 . S
O139 C133 1.299 . S
O140 Zn128 2.114 . S
O140 C142 1.166 . S
O141 Zn126 1.905 . S
O141 C142 1.182 . S
C142 O140 1.166 . S
C142 O141 1.182 . S
O143 Zn128 2.080 . S
O143 C146 1.305 . S
O144 Zn127 1.920 . S
O144 C146 1.234 . S
C145 O131 1.305 . S
C145 O132 1.234 . S
C146 O143 1.305 . S
C146 O144 1.234 . S
Zn147 O153 1.920 . S
Zn147 O159 1.898 . S
Zn147 O162 1.905 . S
Zn148 O156 1.905 . S
Zn148 O157 1.898 . S
Zn148 O165 1.920 . S
Zn149 O152 2.080 . S
Zn149 O155 2.114 . S
Zn149 O158 2.120 . S
Zn149 O160 2.120 . S
Zn149 O161 2.114 . S
Zn149 O164 2.080 . S
C150 O155 1.166 . S
C150 O156 1.182 . S
C151 O157 1.167 . S
C151 O158 1.299 . S
O152 Zn149 2.080 . S
O152 C166 1.305 . S
O153 Zn147 1.920 . S
O153 C166 1.234 . S
C154 O159 1.167 . S
C154 O160 1.299 . S
O155 Zn149 2.114 . S
O155 C150 1.166 . S
O156 Zn148 1.905 . S
O156 C150 1.182 . S
O157 Zn148 1.898 . S
O157 C151 1.167 . S
O158 Zn149 2.120 . S
O158 C151 1.299 . S
O159 Zn147 1.898 . S
O159 C154 1.167 . S
O160 Zn149 2.120 . S
O160 C154 1.299 . S
O161 Zn149 2.114 . S
O161 C163 1.166 . S
O162 Zn147 1.905 . S
O162 C163 1.182 . S
C163 O161 1.166 . S
C163 O162 1.182 . S
O164 Zn149 2.080 . S
O164 C167 1.305 . S
O165 Zn148 1.920 . S
O165 C167 1.234 . S
C166 O152 1.305 . S
C166 O153 1.234 . S
C167 O164 1.305 . S
C167 O165 1.234 . S
H168 C176 0.950 . S
H169 C181 0.950 . S
H170 C178 0.950 . S
H171 C180 0.950 . S
H172 C182 0.950 1_554 S
H173 C184 0.944 1_554 S
H174 C186 0.950 . S
H175 C187 0.950 . S
C176 H168 0.950 . S
C176 C177 1.386 . S
C176 C178 1.391 . S
C177 C176 1.386 . S
C177 C181 1.393 1_556 S
C178 H170 0.950 . S
C178 C176 1.391 . S
C178 C179 1.400 . S
C179 C178 1.400 . S
C179 C180 1.398 1_556 S
C179 C185 1.491 . S
C180 H171 0.950 . S
C180 C179 1.398 1_554 S
C180 C181 1.391 . S
C181 H169 0.950 . S
C181 C177 1.393 1_554 S
C181 C180 1.391 . S
C182 H172 0.950 1_556 S
C182 C183 1.386 . S
C182 C184 1.392 . S
C183 C182 1.386 . S
C183 C187 1.393 . S
C184 H173 0.944 1_556 S
C184 C182 1.392 . S
C184 C185 1.406 . S
C185 C179 1.491 . S
C185 C184 1.406 . S
C185 C186 1.398 . S
C186 H174 0.950 . S
C186 C185 1.398 . S
C186 C187 1.391 . S
C187 H175 0.950 . S
C187 C183 1.393 . S
C187 C186 1.391 . S
H188 C196 0.950 . S
H189 C201 0.950 . S
H190 C198 0.950 . S
H191 C200 0.950 . S
H192 C202 0.950 . S
H193 C204 0.950 . S
H194 C206 0.950 . S
H195 C207 0.950 . S
C196 H188 0.950 . S
C196 C197 1.386 1_554 S
C196 C198 1.391 . S
C197 C196 1.386 1_556 S
C197 C201 1.393 . S
C198 H190 0.950 . S
C198 C196 1.391 . S
C198 C199 1.400 1_554 S
C199 C198 1.400 1_556 S
C199 C200 1.398 . S
C199 C205 1.491 . S
C200 H191 0.950 . S
C200 C199 1.398 . S
C200 C201 1.391 . S
C201 H189 0.950 . S
C201 C197 1.393 . S
C201 C200 1.391 . S
C202 H192 0.950 . S
C202 C203 1.386 . S
C202 C204 1.391 . S
C203 C202 1.386 . S
C203 C207 1.393 1_556 S
C204 H193 0.950 . S
C204 C202 1.391 . S
C204 C205 1.400 . S
C205 C199 1.491 . S
C205 C204 1.400 . S
C205 C206 1.398 1_556 S
C206 H194 0.950 . S
C206 C205 1.398 1_554 S
C206 C207 1.391 . S
C207 H195 0.950 . S
C207 C203 1.393 1_554 S
C207 C206 1.391 . S
H208 C216 0.950 . S
H209 C221 0.950 . S
H210 C218 0.950 . S
H211 C220 0.950 . S
H212 C222 0.950 . S
H213 C224 0.950 . S
H214 C226 0.950 . S
H215 C227 0.950 . S
C216 H208 0.950 . S
C216 C217 1.386 . S
C216 C218 1.391 . S
C217 C216 1.386 . S
C217 C221 1.393 . S
C218 H210 0.950 . S
C218 C216 1.391 . S
C218 C219 1.400 . S
C219 C218 1.400 . S
C219 C220 1.398 . S
C219 C225 1.491 . S
C220 H211 0.950 . S
C220 C219 1.398 . S
C220 C221 1.391 . S
C221 H209 0.950 . S
C221 C217 1.393 . S
C221 C220 1.391 . S
C222 H212 0.950 . S
C222 C223 1.386 . S
C222 C224 1.391 . S
C223 C222 1.386 . S
C223 C227 1.393 . S
C224 H213 0.950 . S
C224 C222 1.391 . S
C224 C225 1.400 . S
C225 C219 1.491 . S
C225 C224 1.400 . S
C225 C226 1.398 . S
C226 H214 0.950 . S
C226 C225 1.398 . S
C226 C227 1.391 . S
C227 H215 0.950 . S
C227 C223 1.393 . S
C227 C226 1.391 . S
H228 C236 0.950 . S
H229 C241 0.950 . S
H230 C238 0.950 . S
H231 C240 0.950 . S
H232 C242 0.950 . S
H233 C244 0.950 . S
H234 C246 0.950 . S
H235 C247 0.950 . S
C236 H228 0.950 . S
C236 C237 1.386 . S
C236 C238 1.391 . S
C237 C236 1.386 . S
C237 C241 1.393 . S
C238 H230 0.950 . S
C238 C236 1.391 . S
C238 C239 1.400 . S
C239 C238 1.400 . S
C239 C240 1.398 . S
C239 C245 1.491 . S
C240 H231 0.950 . S
C240 C239 1.398 . S
C240 C241 1.391 . S
C241 H229 0.950 . S
C241 C237 1.393 . S
C241 C240 1.391 . S
C242 H232 0.950 . S
C242 C243 1.386 . S
C242 C244 1.391 . S
C243 C242 1.386 . S
C243 C247 1.393 . S
C244 H233 0.950 . S
C244 C242 1.391 . S
C244 C245 1.400 . S
C245 C239 1.491 . S
C245 C244 1.400 . S
C245 C246 1.398 . S
C246 H234 0.950 . S
C246 C245 1.398 . S
C246 C247 1.391 . S
C247 H235 0.950 . S
C247 C243 1.393 . S
C247 C246 1.391 . S
H248 C256 0.950 . S
H249 C261 0.950 . S
H250 C258 0.950 1_455 S
H251 C260 0.950 1_455 S
H252 C262 0.950 . S
H253 C264 0.950 . S
H254 C266 0.950 . S
H255 C267 0.950 . S
C256 H248 0.950 . S
C256 C257 1.386 . S
C256 C258 1.391 . S
C257 C256 1.386 . S
C257 C261 1.393 1_556 S
C258 H250 0.950 1_655 S
C258 C256 1.391 . S
C258 C259 1.400 1_655 S
C259 C258 1.400 1_455 S
C259 C260 1.398 1_456 S
C259 C265 1.491 . S
C260 H251 0.950 1_655 S
C260 C259 1.398 1_654 S
C260 C261 1.391 . S
C261 H249 0.950 . S
C261 C257 1.393 1_554 S
C261 C260 1.391 . S
C262 H252 0.950 . S
C262 C263 1.386 1_554 S
C262 C264 1.391 . S
C263 C262 1.386 1_556 S
C263 C267 1.393 . S
C264 H253 0.950 . S
C264 C262 1.391 . S
C264 C265 1.400 1_554 S
C265 C259 1.491 . S
C265 C264 1.400 1_556 S
C265 C266 1.398 . S
C266 H254 0.950 . S
C266 C265 1.398 . S
C266 C267 1.391 . S
C267 H255 0.950 . S
C267 C263 1.393 . S
C267 C266 1.391 . S
H268 C276 0.950 . S
H269 C281 0.950 . S
H270 C278 0.950 1_655 S
H271 C280 0.950 1_655 S
H272 C282 0.950 . S
H273 C284 0.950 . S
H274 C286 0.950 . S
H275 C287 0.950 . S
C276 H268 0.950 . S
C276 C277 1.386 1_554 S
C276 C278 1.391 . S
C277 C276 1.386 1_556 S
C277 C281 1.393 . S
C278 H270 0.950 1_455 S
C278 C276 1.391 . S
C278 C279 1.400 1_454 S
C279 C278 1.400 1_656 S
C279 C280 1.398 1_655 S
C279 C285 1.491 . S
C280 H271 0.950 1_455 S
C280 C279 1.398 1_455 S
C280 C281 1.391 . S
C281 H269 0.950 . S
C281 C277 1.393 . S
C281 C280 1.391 . S
C282 H272 0.950 . S
C282 C283 1.386 . S
C282 C284 1.391 . S
C283 C282 1.386 . S
C283 C287 1.393 1_556 S
C284 H273 0.950 . S
C284 C282 1.391 . S
C284 C285 1.400 . S
C285 C279 1.491 . S
C285 C284 1.400 . S
C285 C286 1.398 1_556 S
C286 H274 0.950 . S
C286 C285 1.398 1_554 S
C286 C287 1.391 . S
C287 H275 0.950 . S
C287 C283 1.393 1_554 S
C287 C286 1.391 . S
H288 C296 0.950 . S
H289 C301 0.950 . S
H290 C298 0.950 . S
H291 C300 0.950 . S
H292 C302 0.950 . S
H293 C304 0.950 1_455 S
H294 C306 0.950 1_455 S
H295 C307 0.950 . S
C296 H288 0.950 . S
C296 C297 1.386 . S
C296 C298 1.391 . S
C297 C296 1.386 . S
C297 C301 1.393 . S
C298 H290 0.950 . S
C298 C296 1.391 . S
C298 C299 1.400 . S
C299 C298 1.400 . S
C299 C300 1.398 . S
C299 C305 1.491 . S
C300 H291 0.950 . S
C300 C299 1.398 . S
C300 C301 1.391 . S
C301 H289 0.950 . S
C301 C297 1.393 . S
C301 C300 1.391 . S
C302 H292 0.950 . S
C302 C303 1.386 . S
C302 C304 1.391 . S
C303 C302 1.386 . S
C303 C307 1.393 . S
C304 H293 0.950 1_655 S
C304 C302 1.391 . S
C304 C305 1.400 1_655 S
C305 C299 1.491 . S
C305 C304 1.400 1_455 S
C305 C306 1.398 1_455 S
C306 H294 0.950 1_655 S
C306 C305 1.398 1_655 S
C306 C307 1.391 . S
C307 H295 0.950 . S
C307 C303 1.393 . S
C307 C306 1.391 . S
H308 C316 0.950 . S
H309 C321 0.950 . S
H310 C318 0.950 . S
H311 C320 0.950 . S
H312 C322 0.950 . S
H313 C324 0.950 1_655 S
H314 C326 0.950 1_655 S
H315 C327 0.950 . S
C316 H308 0.950 . S
C316 C317 1.386 . S
C316 C318 1.391 . S
C317 C316 1.386 . S
C317 C321 1.393 . S
C318 H310 0.950 . S
C318 C316 1.391 . S
C318 C319 1.400 . S
C319 C318 1.400 . S
C319 C320 1.398 . S
C319 C325 1.491 . S
C320 H311 0.950 . S
C320 C319 1.398 . S
C320 C321 1.391 . S
C321 H309 0.950 . S
C321 C317 1.393 . S
C321 C320 1.391 . S
C322 H312 0.950 . S
C322 C323 1.386 . S
C322 C324 1.391 . S
C323 C322 1.386 . S
C323 C327 1.393 . S
C324 H313 0.950 1_455 S
C324 C322 1.391 . S
C324 C325 1.400 1_455 S
C325 C319 1.491 . S
C325 C324 1.400 1_655 S
C325 C326 1.398 1_655 S
C326 H314 0.950 1_455 S
C326 C325 1.398 1_455 S
C326 C327 1.391 . S
C327 H315 0.950 . S
C327 C323 1.393 . S
C327 C326 1.391 . S
H328 C336 0.950 . S
H329 C341 0.950 1_556 S
H330 C338 0.950 . S
H331 C340 0.950 1_556 S
H332 C342 0.950 . S
H333 C344 0.955 . S
H334 C346 0.950 . S
H335 C347 0.950 . S
C336 H328 0.950 . S
C336 C337 1.386 . S
C336 C338 1.391 . S
C337 C336 1.386 . S
C337 C341 1.393 1_655 S
C338 H330 0.950 . S
C338 C336 1.391 . S
C338 C339 1.400 . S
C339 C338 1.400 . S
C339 C340 1.398 1_655 S
C339 C345 1.491 1_655 S
C340 H331 0.950 1_554 S
C340 C339 1.398 1_455 S
C340 C341 1.391 . S
C341 H329 0.950 1_554 S
C341 C337 1.393 1_455 S
C341 C340 1.391 . S
C342 H332 0.950 . S
C342 C343 1.386 . S
C342 C344 1.391 . S
C343 C342 1.386 . S
C343 C347 1.393 1_455 S
C344 H333 0.955 . S
C344 C342 1.391 . S
C344 C345 1.400 . S
C345 C339 1.491 1_455 S
C345 C344 1.400 . S
C345 C346 1.398 1_455 S
C346 H334 0.950 . S
C346 C345 1.398 1_655 S
C346 C347 1.391 . S
C347 H335 0.950 . S
C347 C343 1.393 1_655 S
C347 C346 1.391 . S
H348 C356 0.950 . S
H349 C361 0.950 . S
H350 C358 0.950 . S
H351 C360 0.950 . S
H352 C362 0.950 . S
H353 C364 0.950 . S
H354 C366 0.950 . S
H355 C367 0.950 . S
C356 H348 0.950 . S
C356 C357 1.386 1_455 S
C356 C358 1.391 . S
C357 C356 1.386 1_655 S
C357 C361 1.393 . S
C358 H350 0.950 . S
C358 C356 1.391 . S
C358 C359 1.400 1_455 S
C359 C358 1.400 1_655 S
C359 C360 1.398 . S
C359 C365 1.491 1_655 S
C360 H351 0.950 . S
C360 C359 1.398 . S
C360 C361 1.391 . S
C361 H349 0.950 . S
C361 C357 1.393 . S
C361 C360 1.391 . S
C362 H352 0.950 . S
C362 C363 1.386 1_655 S
C362 C364 1.391 . S
C363 C362 1.386 1_455 S
C363 C367 1.393 . S
C364 H353 0.950 . S
C364 C362 1.391 . S
C364 C365 1.400 1_655 S
C365 C359 1.491 1_455 S
C365 C364 1.400 1_455 S
C365 C366 1.398 . S
C366 H354 0.950 . S
C366 C365 1.398 . S
C366 C367 1.391 . S
C367 H355 0.950 . S
C367 C363 1.393 . S
C367 C366 1.391 . S
H368 C376 0.950 . S
H369 C381 0.950 . S
H370 C378 0.950 . S
H371 C380 0.950 . S
H372 C382 0.950 . S
H373 C384 0.950 . S
H374 C386 0.950 . S
H375 C387 0.950 . S
C376 H368 0.950 . S
C376 C377 1.386 . S
C376 C378 1.391 . S
C377 C376 1.386 . S
C377 C381 1.393 1_554 S
C378 H370 0.950 . S
C378 C376 1.391 . S
C378 C379 1.400 . S
C379 C378 1.400 . S
C379 C380 1.398 1_554 S
C379 C385 1.491 1_565 S
C380 H371 0.950 . S
C380 C379 1.398 1_556 S
C380 C381 1.391 . S
C381 H369 0.950 . S
C381 C377 1.393 1_556 S
C381 C380 1.391 . S
C382 H372 0.950 . S
C382 C383 1.386 1_556 S
C382 C384 1.391 . S
C383 C382 1.386 1_554 S
C383 C387 1.393 . S
C384 H373 0.950 . S
C384 C382 1.391 . S
C384 C385 1.400 1_556 S
C385 C379 1.491 1_545 S
C385 C384 1.400 1_554 S
C385 C386 1.398 . S
C386 H374 0.950 . S
C386 C385 1.398 . S
C386 C387 1.391 . S
C387 H375 0.950 . S
C387 C383 1.393 . S
C387 C386 1.391 . S
H388 C396 0.950 . S
H389 C401 0.950 . S
H390 C398 0.950 . S
H391 C400 0.950 . S
H392 C402 0.950 . S
H393 C404 0.950 . S
H394 C406 0.950 . S
H395 C407 0.950 . S
C396 H388 0.950 . S
C396 C397 1.386 . S
C396 C398 1.391 . S
C397 C396 1.386 . S
C397 C401 1.393 . S
C398 H390 0.950 . S
C398 C396 1.391 . S
C398 C399 1.400 . S
C399 C398 1.400 . S
C399 C400 1.398 . S
C399 C405 1.491 1_545 S
C400 H391 0.950 . S
C400 C399 1.398 . S
C400 C401 1.391 . S
C401 H389 0.950 . S
C401 C397 1.393 . S
C401 C400 1.391 . S
C402 H392 0.950 . S
C402 C403 1.386 . S
C402 C404 1.391 . S
C403 C402 1.386 . S
C403 C407 1.393 . S
C404 H393 0.950 . S
C404 C402 1.391 . S
C404 C405 1.400 . S
C405 C399 1.491 1_565 S
C405 C404 1.400 . S
C405 C406 1.398 . S
C406 H394 0.950 . S
C406 C405 1.398 . S
C406 C407 1.391 . S
C407 H395 0.950 . S
C407 C403 1.393 . S
C407 C406 1.391 . S
H408 C416 0.950 . S
H409 C421 0.950 . S
H410 C418 0.950 . S
H411 C420 0.950 . S
H412 C422 0.950 . S
H413 C424 0.950 . S
H414 C426 0.950 . S
H415 C427 0.950 . S
C416 H408 0.950 . S
C416 C417 1.386 . S
C416 C418 1.391 . S
C417 C416 1.386 . S
C417 C421 1.393 1_554 S
C418 H410 0.950 . S
C418 C416 1.391 . S
C418 C419 1.400 . S
C419 C418 1.400 . S
C419 C420 1.398 1_554 S
C419 C425 1.491 . S
C420 H411 0.950 . S
C420 C419 1.398 1_556 S
C420 C421 1.391 . S
C421 H409 0.950 . S
C421 C417 1.393 1_556 S
C421 C420 1.391 . S
C422 H412 0.950 . S
C422 C423 1.386 1_556 S
C422 C424 1.391 . S
C423 C422 1.386 1_554 S
C423 C427 1.393 . S
C424 H413 0.950 . S
C424 C422 1.391 . S
C424 C425 1.400 1_556 S
C425 C419 1.491 . S
C425 C424 1.400 1_554 S
C425 C426 1.398 . S
C426 H414 0.950 . S
C426 C425 1.398 . S
C426 C427 1.391 . S
C427 H415 0.950 . S
C427 C423 1.393 . S
C427 C426 1.391 . S
H428 C436 0.950 . S
H429 C441 0.950 . S
H430 C438 0.950 . S
H431 C440 0.950 . S
H432 C442 0.950 . S
H433 C444 0.950 . S
H434 C446 0.950 . S
H435 C447 0.950 . S
C436 H428 0.950 . S
C436 C437 1.386 . S
C436 C438 1.391 . S
C437 C436 1.386 . S
C437 C441 1.393 1_554 S
C438 H430 0.950 . S
C438 C436 1.391 . S
C438 C439 1.400 . S
C439 C438 1.400 . S
C439 C440 1.398 1_554 S
C439 C445 1.491 . S
C440 H431 0.950 . S
C440 C439 1.398 1_556 S
C440 C441 1.391 . S
C441 H429 0.950 . S
C441 C437 1.393 1_556 S
C441 C440 1.391 . S
C442 H432 0.950 . S
C442 C443 1.386 1_556 S
C442 C444 1.391 . S
C443 C442 1.386 1_554 S
C443 C447 1.393 . S
C444 H433 0.950 . S
C444 C442 1.391 . S
C444 C445 1.400 1_556 S
C445 C439 1.491 . S
C445 C444 1.400 1_554 S
C445 C446 1.398 . S
C446 H434 0.950 . S
C446 C445 1.398 . S
C446 C447 1.391 . S
C447 H435 0.950 . S
C447 C443 1.393 . S
C447 C446 1.391 . S
H448 C456 0.950 . S
H449 C461 0.950 . S
H450 C458 0.950 . S
H451 C460 0.950 . S
H452 C462 0.950 . S
H453 C464 0.950 . S
H454 C466 0.950 . S
H455 C467 0.950 . S
C456 H448 0.950 . S
C456 C457 1.386 . S
C456 C458 1.391 . S
C457 C456 1.386 . S
C457 C461 1.393 . S
C458 H450 0.950 . S
C458 C456 1.391 . S
C458 C459 1.400 . S
C459 C458 1.400 . S
C459 C460 1.398 . S
C459 C465 1.491 . S
C460 H451 0.950 . S
C460 C459 1.398 . S
C460 C461 1.391 . S
C461 H449 0.950 . S
C461 C457 1.393 . S
C461 C460 1.391 . S
C462 H452 0.950 . S
C462 C463 1.386 . S
C462 C464 1.391 . S
C463 C462 1.386 . S
C463 C467 1.393 . S
C464 H453 0.950 . S
C464 C462 1.391 . S
C464 C465 1.400 . S
C465 C459 1.491 . S
C465 C464 1.400 . S
C465 C466 1.398 . S
C466 H454 0.950 . S
C466 C465 1.398 . S
C466 C467 1.391 . S
C467 H455 0.950 . S
C467 C463 1.393 . S
C467 C466 1.391 . S
H468 C476 0.950 . S
H469 C481 0.950 . S
H470 C478 0.950 . S
H471 C480 0.950 . S
H472 C482 0.950 . S
H473 C484 0.950 . S
H474 C486 0.950 . S
H475 C487 0.950 . S
C476 H468 0.950 . S
C476 C477 1.386 . S
C476 C478 1.391 . S
C477 C476 1.386 . S
C477 C481 1.393 . S
C478 H470 0.950 . S
C478 C476 1.391 . S
C478 C479 1.400 . S
C479 C478 1.400 . S
C479 C480 1.398 . S
C479 C485 1.491 . S
C480 H471 0.950 . S
C480 C479 1.398 . S
C480 C481 1.391 . S
C481 H469 0.950 . S
C481 C477 1.393 . S
C481 C480 1.391 . S
C482 H472 0.950 . S
C482 C483 1.386 . S
C482 C484 1.391 . S
C483 C482 1.386 . S
C483 C487 1.393 . S
C484 H473 0.950 . S
C484 C482 1.391 . S
C484 C485 1.400 . S
C485 C479 1.491 . S
C485 C484 1.400 . S
C485 C486 1.398 . S
C486 H474 0.950 . S
C486 C485 1.398 . S
C486 C487 1.391 . S
C487 H475 0.950 . S
C487 C483 1.393 . S
C487 C486 1.391 . S
H488 C496 0.950 . S
H489 C501 0.950 . S
H490 C498 0.950 . S
H491 C500 0.950 . S
H492 C502 0.950 . S
H493 C504 0.950 . S
H494 C506 0.950 . S
H495 C507 0.950 . S
C496 H488 0.950 . S
C496 C497 1.386 . S
C496 C498 1.391 . S
C497 C496 1.386 . S
C497 C501 1.393 1_455 S
C498 H490 0.950 . S
C498 C496 1.391 . S
C498 C499 1.400 . S
C499 C498 1.400 . S
C499 C500 1.398 1_455 S
C499 C505 1.491 1_455 S
C500 H491 0.950 . S
C500 C499 1.398 1_655 S
C500 C501 1.391 . S
C501 H489 0.950 . S
C501 C497 1.393 1_655 S
C501 C500 1.391 . S
C502 H492 0.950 . S
C502 C503 1.386 . S
C502 C504 1.391 . S
C503 C502 1.386 . S
C503 C507 1.393 1_655 S
C504 H493 0.950 . S
C504 C502 1.391 . S
C504 C505 1.400 . S
C505 C499 1.491 1_655 S
C505 C504 1.400 . S
C505 C506 1.398 1_655 S
C506 H494 0.950 . S
C506 C505 1.398 1_455 S
C506 C507 1.391 . S
C507 H495 0.950 . S
C507 C503 1.393 1_455 S
C507 C506 1.391 . S
H508 C516 0.950 . S
H509 C521 0.950 . S
H510 C518 0.950 . S
H511 C520 0.950 . S
H512 C522 0.950 . S
H513 C524 0.950 . S
H514 C526 0.950 . S
H515 C527 0.950 . S
C516 H508 0.950 . S
C516 C517 1.386 1_455 S
C516 C518 1.391 . S
C517 C516 1.386 1_655 S
C517 C521 1.393 . S
C518 H510 0.950 . S
C518 C516 1.391 . S
C518 C519 1.400 1_455 S
C519 C518 1.400 1_655 S
C519 C520 1.398 . S
C519 C525 1.491 1_655 S
C520 H511 0.950 . S
C520 C519 1.398 . S
C520 C521 1.391 . S
C521 H509 0.950 . S
C521 C517 1.393 . S
C521 C520 1.391 . S
C522 H512 0.950 . S
C522 C523 1.386 1_655 S
C522 C524 1.391 . S
C523 C522 1.386 1_455 S
C523 C527 1.393 . S
C524 H513 0.950 . S
C524 C522 1.391 . S
C524 C525 1.400 1_655 S
C525 C519 1.491 1_455 S
C525 C524 1.400 1_455 S
C525 C526 1.398 . S
C526 H514 0.950 . S
C526 C525 1.398 . S
C526 C527 1.391 . S
C527 H515 0.950 . S
C527 C523 1.393 . S
C527 C526 1.391 . S
H528 C536 0.950 . S
H529 C541 0.950 . S
H530 C538 0.950 . S
H531 C540 0.950 . S
H532 C542 0.950 . S
H533 C544 0.950 . S
H534 C546 0.950 . S
H535 C547 0.950 . S
C536 H528 0.950 . S
C536 C537 1.386 . S
C536 C538 1.391 . S
C537 C536 1.386 . S
C537 C541 1.393 1_655 S
C538 H530 0.950 . S
C538 C536 1.391 . S
C538 C539 1.400 . S
C539 C538 1.400 . S
C539 C540 1.398 1_655 S
C539 C545 1.491 1_655 S
C540 H531 0.950 . S
C540 C539 1.398 1_455 S
C540 C541 1.391 . S
C541 H529 0.950 . S
C541 C537 1.393 1_455 S
C541 C540 1.391 . S
C542 H532 0.950 . S
C542 C543 1.386 . S
C542 C544 1.391 . S
C543 C542 1.386 . S
C543 C547 1.393 1_455 S
C544 H533 0.950 . S
C544 C542 1.391 . S
C544 C545 1.400 . S
C545 C539 1.491 1_455 S
C545 C544 1.400 . S
C545 C546 1.398 1_455 S
C546 H534 0.950 . S
C546 C545 1.398 1_655 S
C546 C547 1.391 . S
C547 H535 0.950 . S
C547 C543 1.393 1_655 S
C547 C546 1.391 . S
H548 C556 0.950 . S
H549 C561 0.950 . S
H550 C558 0.950 . S
H551 C560 0.950 . S
H552 C562 0.950 . S
H553 C564 0.950 . S
H554 C566 0.950 . S
H555 C567 0.950 . S
C556 H548 0.950 . S
C556 C557 1.386 . S
C556 C558 1.391 . S
C557 C556 1.386 . S
C557 C561 1.393 1_655 S
C558 H550 0.950 . S
C558 C556 1.391 . S
C558 C559 1.400 . S
C559 C558 1.400 . S
C559 C560 1.398 1_655 S
C559 C565 1.491 1_655 S
C560 H551 0.950 . S
C560 C559 1.398 1_455 S
C560 C561 1.391 . S
C561 H549 0.950 . S
C561 C557 1.393 1_455 S
C561 C560 1.391 . S
C562 H552 0.950 . S
C562 C563 1.386 . S
C562 C564 1.391 . S
C563 C562 1.386 . S
C563 C567 1.393 1_455 S
C564 H553 0.950 . S
C564 C562 1.391 . S
C564 C565 1.400 . S
C565 C559 1.491 1_455 S
C565 C564 1.400 . S
C565 C566 1.398 1_455 S
C566 H554 0.950 . S
C566 C565 1.398 1_655 S
C566 C567 1.391 . S
C567 H555 0.950 . S
C567 C563 1.393 1_655 S
C567 C566 1.391 . S
H568 C576 0.950 . S
H569 C581 0.950 . S
H570 C578 0.950 . S
H571 C580 0.950 . S
H572 C582 0.950 . S
H573 C584 0.950 . S
H574 C586 0.950 . S
H575 C587 0.950 . S
C576 H568 0.950 . S
C576 C577 1.386 . S
C576 C578 1.391 . S
C577 C576 1.386 . S
C577 C581 1.393 . S
C578 H570 0.950 . S
C578 C576 1.391 . S
C578 C579 1.400 . S
C579 C578 1.400 . S
C579 C580 1.398 . S
C579 C585 1.491 . S
C580 H571 0.950 . S
C580 C579 1.398 . S
C580 C581 1.391 . S
C581 H569 0.950 . S
C581 C577 1.393 . S
C581 C580 1.391 . S
C582 H572 0.950 . S
C582 C583 1.386 . S
C582 C584 1.391 . S
C583 C582 1.386 . S
C583 C587 1.393 . S
C584 H573 0.950 . S
C584 C582 1.391 . S
C584 C585 1.400 . S
C585 C579 1.491 . S
C585 C584 1.400 . S
C585 C586 1.398 . S
C586 H574 0.950 . S
C586 C585 1.398 . S
C586 C587 1.391 . S
C587 H575 0.950 . S
C587 C583 1.393 . S
C587 C586 1.391 . S
H588 C596 0.950 . S
H589 C601 0.950 . S
H590 C598 0.950 . S
H591 C600 0.950 . S
H592 C602 0.950 . S
H593 C604 0.950 . S
H594 C606 0.950 . S
H595 C607 0.950 . S
C596 H588 0.950 . S
C596 C597 1.386 . S
C596 C598 1.391 . S
C597 C596 1.386 . S
C597 C601 1.393 . S
C598 H590 0.950 . S
C598 C596 1.391 . S
C598 C599 1.400 . S
C599 C598 1.400 . S
C599 C600 1.398 . S
C599 C605 1.491 . S
C600 H591 0.950 . S
C600 C599 1.398 . S
C600 C601 1.391 . S
C601 H589 0.950 . S
C601 C597 1.393 . S
C601 C600 1.391 . S
C602 H592 0.950 . S
C602 C603 1.386 . S
C602 C604 1.391 . S
C603 C602 1.386 . S
C603 C607 1.393 . S
C604 H593 0.950 . S
C604 C602 1.391 . S
C604 C605 1.400 . S
C605 C599 1.491 . S
C605 C604 1.400 . S
C605 C606 1.398 . S
C606 H594 0.950 . S
C606 C605 1.398 . S
C606 C607 1.391 . S
C607 H595 0.950 . S
C607 C603 1.393 . S
C607 C606 1.391 . S
H608 C616 0.950 . S
H609 C621 0.950 . S
H610 C618 0.950 . S
H611 C620 0.950 . S
H612 C622 0.950 . S
H613 C624 0.950 . S
H614 C626 0.950 . S
H615 C627 0.950 . S
C616 H608 0.950 . S
C616 C617 1.386 . S
C616 C618 1.391 . S
C617 C616 1.386 . S
C617 C621 1.393 . S
C618 H610 0.950 . S
C618 C616 1.391 . S
C618 C619 1.400 . S
C619 C618 1.400 . S
C619 C620 1.398 . S
C619 C625 1.491 . S
C620 H611 0.950 . S
C620 C619 1.398 . S
C620 C621 1.391 . S
C621 H609 0.950 . S
C621 C617 1.393 . S
C621 C620 1.391 . S
C622 H612 0.950 . S
C622 C623 1.386 . S
C622 C624 1.391 . S
C623 C622 1.386 . S
C623 C627 1.393 . S
C624 H613 0.950 . S
C624 C622 1.391 . S
C624 C625 1.400 . S
C625 C619 1.491 . S
C625 C624 1.400 . S
C625 C626 1.398 . S
C626 H614 0.950 . S
C626 C625 1.398 . S
C626 C627 1.391 . S
C627 H615 0.950 . S
C627 C623 1.393 . S
C627 C626 1.391 . S
H628 C636 0.950 . S
H629 C641 0.950 . S
H630 C638 0.950 . S
H631 C640 0.950 . S
H632 C642 0.950 . S
H633 C644 0.950 . S
H634 C646 0.950 . S
H635 C647 0.950 . S
C636 H628 0.950 . S
C636 C637 1.386 . S
C636 C638 1.391 . S
C637 C636 1.386 . S
C637 C641 1.393 . S
C638 H630 0.950 . S
C638 C636 1.391 . S
C638 C639 1.400 . S
C639 C638 1.400 . S
C639 C640 1.398 . S
C639 C645 1.491 . S
C640 H631 0.950 . S
C640 C639 1.398 . S
C640 C641 1.391 . S
C641 H629 0.950 . S
C641 C637 1.393 . S
C641 C640 1.391 . S
C642 H632 0.950 . S
C642 C643 1.386 . S
C642 C644 1.391 . S
C643 C642 1.386 . S
C643 C647 1.393 . S
C644 H633 0.950 . S
C644 C642 1.391 . S
C644 C645 1.400 . S
C645 C639 1.491 . S
C645 C644 1.400 . S
C645 C646 1.398 . S
C646 H634 0.950 . S
C646 C645 1.398 . S
C646 C647 1.391 . S
C647 H635 0.950 . S
C647 C643 1.393 . S
C647 C646 1.391 . S
C177 C20 1.230 . S
C183 C16 1.217 1_556 S
C197 C24 1.220 1_556 S
C203 C40 1.242 . S
C217 C45 1.214 . S
C223 C61 1.225 . S
C237 C83 1.245 . S
C243 C79 1.214 . S
C257 C104 1.206 . S
C263 C100 1.181 1_556 S
C277 C124 1.244 . S
C283 C108 1.219 1_556 S
C297 C129 1.205 . S
C303 C145 1.217 . S
C317 C163 1.207 . S
C323 C167 1.218 . S
C337 C37 1.365 1_554 S
C343 C3 1.401 1_554 S
C357 C66 1.410 . S
C363 C58 1.379 . S
C377 C87 1.387 1_554 S
C383 C121 1.370 1_554 S
C397 C142 1.372 . S
C403 C150 1.409 . S
C417 C19 1.364 . S
C423 C125 1.373 . S
C437 C103 1.364 . S
C443 C41 1.376 . S
C457 C62 1.373 . S
C463 C166 1.364 . S
C477 C82 1.377 . S
C483 C146 1.364 . S
C497 C7 1.298 . S
C503 C70 1.282 . S
C517 C25 1.278 . S
C523 C46 1.319 . S
C537 C28 1.333 . S
C543 C49 1.318 . S
C557 C67 1.325 . S
C563 C4 1.317 . S
C577 C91 1.323 . S
C583 C154 1.282 . S
C597 C109 1.315 . S
C603 C130 1.299 . S
C617 C112 1.314 . S
C623 C133 1.331 . S
C637 C151 1.325 . S
C643 C88 1.317 . S
