# Generated by pormake.
# Topology gme, (4)-cn, num edge types: 1
# Building blocks:
#     Node 0, Type 0, BuildingBlock: QUQFOY_clean_sbu_1, # of connection points: 4
#     Node 1, Type 0, BuildingBlock: QUQFOY_clean_sbu_1, # of connection points: 4
#     Node 2, Type 0, BuildingBlock: QUQFOY_clean_sbu_1, # of connection points: 4
#     Node 3, Type 0, BuildingBlock: QUQFOY_clean_sbu_1, # of connection points: 4
#     Node 4, Type 0, BuildingBlock: QUQFOY_clean_sbu_1, # of connection points: 4
#     Node 5, Type 0, BuildingBlock: QUQFOY_clean_sbu_1, # of connection points: 4
#     Node 6, Type 0, BuildingBlock: QUQFOY_clean_sbu_1, # of connection points: 4
#     Node 7, Type 0, BuildingBlock: QUQFOY_clean_sbu_1, # of connection points: 4
#     Node 8, Type 0, BuildingBlock: QUQFOY_clean_sbu_1, # of connection points: 4
#     Node 9, Type 0, BuildingBlock: QUQFOY_clean_sbu_1, # of connection points: 4
#     Node 10, Type 0, BuildingBlock: QUQFOY_clean_sbu_1, # of connection points: 4
#     Node 11, Type 0, BuildingBlock: QUQFOY_clean_sbu_1, # of connection points: 4
#     Node 12, Type 0, BuildingBlock: QUQFOY_clean_sbu_1, # of connection points: 4
#     Node 13, Type 0, BuildingBlock: QUQFOY_clean_sbu_1, # of connection points: 4
#     Node 14, Type 0, BuildingBlock: QUQFOY_clean_sbu_1, # of connection points: 4
#     Node 15, Type 0, BuildingBlock: QUQFOY_clean_sbu_1, # of connection points: 4
#     Node 16, Type 0, BuildingBlock: QUQFOY_clean_sbu_1, # of connection points: 4
#     Node 17, Type 0, BuildingBlock: QUQFOY_clean_sbu_1, # of connection points: 4
#     Node 18, Type 0, BuildingBlock: QUQFOY_clean_sbu_1, # of connection points: 4
#     Node 19, Type 0, BuildingBlock: QUQFOY_clean_sbu_1, # of connection points: 4
#     Node 20, Type 0, BuildingBlock: QUQFOY_clean_sbu_1, # of connection points: 4
#     Node 21, Type 0, BuildingBlock: QUQFOY_clean_sbu_1, # of connection points: 4
#     Node 22, Type 0, BuildingBlock: QUQFOY_clean_sbu_1, # of connection points: 4
#     Node 23, Type 0, BuildingBlock: QUQFOY_clean_sbu_1, # of connection points: 4
#     Edge 24, Type (0, 0), BuildingBlock: AJUNOK_clean_linker_0, # of connection points: 2
#     Edge 25, Type (0, 0), BuildingBlock: AJUNOK_clean_linker_0, # of connection points: 2
#     Edge 26, Type (0, 0), BuildingBlock: AJUNOK_clean_linker_0, # of connection points: 2
#     Edge 27, Type (0, 0), BuildingBlock: AJUNOK_clean_linker_0, # of connection points: 2
#     Edge 28, Type (0, 0), BuildingBlock: AJUNOK_clean_linker_0, # of connection points: 2
#     Edge 29, Type (0, 0), BuildingBlock: AJUNOK_clean_linker_0, # of connection points: 2
#     Edge 30, Type (0, 0), BuildingBlock: AJUNOK_clean_linker_0, # of connection points: 2
#     Edge 31, Type (0, 0), BuildingBlock: AJUNOK_clean_linker_0, # of connection points: 2
#     Edge 32, Type (0, 0), BuildingBlock: AJUNOK_clean_linker_0, # of connection points: 2
#     Edge 33, Type (0, 0), BuildingBlock: AJUNOK_clean_linker_0, # of connection points: 2
#     Edge 34, Type (0, 0), BuildingBlock: AJUNOK_clean_linker_0, # of connection points: 2
#     Edge 35, Type (0, 0), BuildingBlock: AJUNOK_clean_linker_0, # of connection points: 2
#     Edge 36, Type (0, 0), BuildingBlock: AJUNOK_clean_linker_0, # of connection points: 2
#     Edge 37, Type (0, 0), BuildingBlock: AJUNOK_clean_linker_0, # of connection points: 2
#     Edge 38, Type (0, 0), BuildingBlock: AJUNOK_clean_linker_0, # of connection points: 2
#     Edge 39, Type (0, 0), BuildingBlock: AJUNOK_clean_linker_0, # of connection points: 2
#     Edge 40, Type (0, 0), BuildingBlock: AJUNOK_clean_linker_0, # of connection points: 2
#     Edge 41, Type (0, 0), BuildingBlock: AJUNOK_clean_linker_0, # of connection points: 2
#     Edge 42, Type (0, 0), BuildingBlock: AJUNOK_clean_linker_0, # of connection points: 2
#     Edge 43, Type (0, 0), BuildingBlock: AJUNOK_clean_linker_0, # of connection points: 2
#     Edge 44, Type (0, 0), BuildingBlock: AJUNOK_clean_linker_0, # of connection points: 2
#     Edge 45, Type (0, 0), BuildingBlock: AJUNOK_clean_linker_0, # of connection points: 2
#     Edge 46, Type (0, 0), BuildingBlock: AJUNOK_clean_linker_0, # of connection points: 2
#     Edge 47, Type (0, 0), BuildingBlock: AJUNOK_clean_linker_0, # of connection points: 2
#     Edge 48, Type (0, 0), BuildingBlock: AJUNOK_clean_linker_0, # of connection points: 2
#     Edge 49, Type (0, 0), BuildingBlock: AJUNOK_clean_linker_0, # of connection points: 2
#     Edge 50, Type (0, 0), BuildingBlock: AJUNOK_clean_linker_0, # of connection points: 2
#     Edge 51, Type (0, 0), BuildingBlock: AJUNOK_clean_linker_0, # of connection points: 2
#     Edge 52, Type (0, 0), BuildingBlock: AJUNOK_clean_linker_0, # of connection points: 2
#     Edge 53, Type (0, 0), BuildingBlock: AJUNOK_clean_linker_0, # of connection points: 2
#     Edge 54, Type (0, 0), BuildingBlock: AJUNOK_clean_linker_0, # of connection points: 2
#     Edge 55, Type (0, 0), BuildingBlock: AJUNOK_clean_linker_0, # of connection points: 2
#     Edge 56, Type (0, 0), BuildingBlock: AJUNOK_clean_linker_0, # of connection points: 2
#     Edge 57, Type (0, 0), BuildingBlock: AJUNOK_clean_linker_0, # of connection points: 2
#     Edge 58, Type (0, 0), BuildingBlock: AJUNOK_clean_linker_0, # of connection points: 2
#     Edge 59, Type (0, 0), BuildingBlock: AJUNOK_clean_linker_0, # of connection points: 2
#     Edge 60, Type (0, 0), BuildingBlock: AJUNOK_clean_linker_0, # of connection points: 2
#     Edge 61, Type (0, 0), BuildingBlock: AJUNOK_clean_linker_0, # of connection points: 2
#     Edge 62, Type (0, 0), BuildingBlock: AJUNOK_clean_linker_0, # of connection points: 2
#     Edge 63, Type (0, 0), BuildingBlock: AJUNOK_clean_linker_0, # of connection points: 2
#     Edge 64, Type (0, 0), BuildingBlock: AJUNOK_clean_linker_0, # of connection points: 2
#     Edge 65, Type (0, 0), BuildingBlock: AJUNOK_clean_linker_0, # of connection points: 2
#     Edge 66, Type (0, 0), BuildingBlock: AJUNOK_clean_linker_0, # of connection points: 2
#     Edge 67, Type (0, 0), BuildingBlock: AJUNOK_clean_linker_0, # of connection points: 2
#     Edge 68, Type (0, 0), BuildingBlock: AJUNOK_clean_linker_0, # of connection points: 2
#     Edge 69, Type (0, 0), BuildingBlock: AJUNOK_clean_linker_0, # of connection points: 2
#     Edge 70, Type (0, 0), BuildingBlock: AJUNOK_clean_linker_0, # of connection points: 2
#     Edge 71, Type (0, 0), BuildingBlock: AJUNOK_clean_linker_0, # of connection points: 2
# Relax obj value: 0.037
# Max RMSD: 0.053
# Mean RMSD: 0.053
data_MOF--net-gme--node1-QUQFOY_clean_sbu_1--edge1-AJUNOK_clean_linker_0
_symmetry_space_group_name_H-M    P1
_symmetry_Int_Tables_number       1
_symmetry_cell_setting            triclinic
loop_
_symmetry_equiv_pos_as_xyz
'x, y, z'
_cell_length_a     47.524301
_cell_length_b     47.524458
_cell_length_c     40.802931
_cell_angle_alpha  89.99646
_cell_angle_beta   90.003486
_cell_angle_gamma 119.99213
loop_
_atom_site_label
_atom_site_type_symbol
_atom_site_fract_x
_atom_site_fract_y
_atom_site_fract_z
_atom_type_partial_charge
O0 O 0.42209 0.09743 0.19287 0.0
Cd1 Cd 0.44336 0.11324 0.14739 0.0
Cd2 Cd 0.40884 0.04676 0.13906 0.0
O3 O 0.38993 0.0448 0.18533 0.0
O4 O 0.46656 0.16116 0.15433 0.0
O5 O 0.42711 0.13698 0.11833 0.0
C6 C 0.44798 0.16338 0.13285 0.0
C7 C 0.37881 0.02588 0.09108 0.0
C8 C 0.40084 0.06974 0.20365 0.0
C9 C 0.48127 0.07889 0.13433 0.0
O10 O 0.45465 0.05231 0.13738 0.0
O11 O 0.48156 0.1058 0.13531 0.0
O12 O 0.37996 0.00701 0.11317 0.0
O13 O 0.39306 0.05667 0.09737 0.0
O14 O 0.32832 0.42046 0.69254 0.0
Cd15 Cd 0.33276 0.44139 0.64703 0.0
Cd16 Cd 0.36674 0.40913 0.63836 0.0
O17 O 0.35024 0.38967 0.6845 0.0
O18 O 0.30722 0.46367 0.65447 0.0
O19 O 0.2925 0.42452 0.61822 0.0
C20 C 0.28656 0.44502 0.63294 0.0
C21 C 0.35824 0.37941 0.59029 0.0
C22 C 0.33594 0.39999 0.70317 0.0
C23 C 0.40496 0.48159 0.63424 0.0
O24 O 0.40613 0.45556 0.63709 0.0
O25 O 0.37771 0.48057 0.635 0.0
O26 O 0.37864 0.38116 0.61224 0.0
O27 O 0.34108 0.39297 0.5967 0.0
O28 O 0.9109 0.32622 0.19292 0.0
Cd29 Cd 0.89492 0.33207 0.14768 0.0
Cd30 Cd 0.96162 0.36358 0.13899 0.0
O31 O 0.96348 0.34644 0.18518 0.0
O32 O 0.84712 0.3086 0.15541 0.0
O33 O 0.86977 0.29203 0.11895 0.0
C34 C 0.84385 0.28755 0.13375 0.0
C35 C 0.98223 0.35427 0.09092 0.0
C36 C 0.93858 0.33244 0.20354 0.0
C37 C 0.93013 0.40443 0.13443 0.0
O38 O 0.95659 0.40414 0.13739 0.0
O39 O 0.90309 0.37797 0.13558 0.0
O40 O 1.00123 0.37412 0.11303 0.0
O41 O 0.95144 0.33795 0.09726 0.0
O42 O 0.58768 0.91061 0.69279 0.0
Cd43 Cd 0.56701 0.89455 0.6471 0.0
Cd44 Cd 0.60178 0.9605 0.63828 0.0
O45 O 0.62075 0.96294 0.68459 0.0
O46 O 0.54303 0.84672 0.65455 0.0
O47 O 0.58298 0.86995 0.61892 0.0
C48 C 0.56141 0.84383 0.63334 0.0
C49 C 0.631 0.97917 0.58961 0.0
C50 C 0.6091 0.93832 0.70341 0.0
C51 C 0.52963 0.92921 0.63308 0.0
O52 O 0.55628 0.95569 0.63649 0.0
O53 O 0.52921 0.90225 0.63405 0.0
O54 O 0.63083 0.99909 0.61105 0.0
O55 O 0.6165 0.94864 0.59715 0.0
O56 O 0.68212 0.58609 0.19287 0.0
Cd57 Cd 0.67754 0.56478 0.14755 0.0
Cd58 Cd 0.64593 0.59958 0.13777 0.0
O59 O 0.66235 0.61868 0.18407 0.0
O60 O 0.70141 0.54091 0.15566 0.0
O61 O 0.71804 0.58029 0.11938 0.0
C62 C 0.72262 0.55893 0.13423 0.0
C63 C 0.65495 0.62938 0.08964 0.0
C64 C 0.67554 0.60743 0.20313 0.0
C65 C 0.60551 0.52716 0.13333 0.0
O66 O 0.60561 0.55383 0.13608 0.0
O67 O 0.63205 0.52677 0.13482 0.0
O68 O 0.63492 0.62826 0.1117 0.0
O69 O 0.67162 0.6153 0.09607 0.0
O70 O 0.10165 0.67977 0.69259 0.0
Cd71 Cd 0.11737 0.67493 0.6468 0.0
Cd72 Cd 0.05121 0.64426 0.63816 0.0
O73 O 0.04944 0.66124 0.68443 0.0
O74 O 0.16529 0.69873 0.65372 0.0
O75 O 0.14169 0.71535 0.61842 0.0
C76 C 0.16796 0.71994 0.63254 0.0
C77 C 0.03048 0.65352 0.59017 0.0
C78 C 0.07408 0.6739 0.70323 0.0
C79 C 0.08209 0.60291 0.63294 0.0
O80 O 0.0558 0.60345 0.63644 0.0
O81 O 0.10924 0.62926 0.6338 0.0
O82 O 0.01153 0.63382 0.6124 0.0
O83 O 0.0613 0.6698 0.59638 0.0
O84 O 0.91235 0.58731 0.35515 0.0
Cd85 Cd 0.89594 0.56621 0.40061 0.0
Cd86 Cd 0.96213 0.59864 0.40901 0.0
O87 O 0.96507 0.61822 0.36296 0.0
O88 O 0.84821 0.5429 0.39268 0.0
O89 O 0.87143 0.58211 0.42907 0.0
C90 C 0.84534 0.56097 0.41428 0.0
C91 C 0.98139 0.62769 0.4577 0.0
C92 C 0.94035 0.60785 0.34441 0.0
C93 C 0.92846 0.52637 0.41337 0.0
O94 O 0.9556 0.5524 0.41023 0.0
O95 O 0.90221 0.52735 0.41279 0.0
O96 O 1.00099 0.62681 0.43631 0.0
O97 O 0.95088 0.61383 0.4502 0.0
O98 O 0.32998 0.90817 0.85542 0.0
Cd99 Cd 0.33464 0.89268 0.90141 0.0
Cd100 Cd 0.36513 0.95824 0.90986 0.0
O101 O 0.34837 0.96035 0.86353 0.0
O102 O 0.30972 0.84467 0.89528 0.0
O103 O 0.29437 0.86973 0.93014 0.0
C104 C 0.28877 0.84301 0.91627 0.0
C105 C 0.35463 0.97706 0.95848 0.0
C106 C 0.33582 0.93571 0.84472 0.0
C107 C 0.40652 0.92747 0.91524 0.0
O108 O 0.40602 0.95377 0.91163 0.0
O109 O 0.38013 0.90035 0.91446 0.0
O110 O 0.37455 0.99693 0.93689 0.0
O111 O 0.33872 0.94649 0.95111 0.0
O112 O 0.42379 0.32653 0.35519 0.0
Cd113 Cd 0.44429 0.33098 0.40097 0.0
Cd114 Cd 0.41151 0.36414 0.40905 0.0
O115 O 0.39204 0.34739 0.36297 0.0
O116 O 0.46694 0.30574 0.39392 0.0
O117 O 0.42731 0.29065 0.42967 0.0
C118 C 0.44809 0.28491 0.41524 0.0
C119 C 0.38269 0.35458 0.45784 0.0
C120 C 0.40297 0.33358 0.34437 0.0
C121 C 0.48375 0.40317 0.41378 0.0
O122 O 0.45761 0.40401 0.41024 0.0
O123 O 0.48304 0.37606 0.41349 0.0
O124 O 0.38329 0.3748 0.43629 0.0
O125 O 0.39657 0.33794 0.4504 0.0
O126 O 0.09934 0.42215 0.85486 0.0
Cd127 Cd 0.11566 0.44301 0.90043 0.0
Cd128 Cd 0.04966 0.40826 0.90961 0.0
O129 O 0.04703 0.38921 0.8633 0.0
O130 O 0.16345 0.46687 0.89277 0.0
O131 O 0.14031 0.42707 0.92856 0.0
C132 C 0.16639 0.44854 0.914 0.0
C133 C 0.03078 0.37897 0.95824 0.0
C134 C 0.07157 0.40074 0.84438 0.0
C135 C 0.08113 0.48047 0.91467 0.0
O136 O 0.05462 0.45381 0.91145 0.0
O137 O 0.10808 0.48089 0.91347 0.0
O138 O 0.01096 0.3793 0.93677 0.0
O139 O 0.06132 0.39336 0.95077 0.0
O140 O 0.6826 0.09838 0.35514 0.0
Cd141 Cd 0.67694 0.11366 0.40081 0.0
Cd142 Cd 0.64564 0.0475 0.40864 0.0
O143 O 0.66289 0.04585 0.36245 0.0
O144 O 0.70178 0.16163 0.39446 0.0
O145 O 0.71688 0.13686 0.42996 0.0
C146 C 0.72258 0.16347 0.41576 0.0
C147 C 0.65522 0.02717 0.45675 0.0
C148 C 0.67664 0.07088 0.34424 0.0
C149 C 0.60473 0.07893 0.41364 0.0
O150 O 0.60506 0.05252 0.41025 0.0
O151 O 0.63122 0.10597 0.41297 0.0
O152 O 0.63535 0.00803 0.43472 0.0
O153 O 0.6714 0.05795 0.4503 0.0
O154 O 0.59001 0.68238 0.85482 0.0
Cd155 Cd 0.56863 0.67713 0.90023 0.0
Cd156 Cd 0.60083 0.64307 0.90813 0.0
O157 O 0.62044 0.65992 0.86209 0.0
O158 O 0.54614 0.70249 0.89299 0.0
O159 O 0.58517 0.71712 0.92937 0.0
C160 C 0.56465 0.72305 0.91466 0.0
C161 C 0.62969 0.65281 0.95695 0.0
C162 C 0.61055 0.67497 0.84394 0.0
C163 C 0.52853 0.60471 0.91257 0.0
O164 O 0.55452 0.60353 0.90937 0.0
O165 O 0.52957 0.63197 0.91205 0.0
O166 O 0.62892 0.63237 0.93557 0.0
O167 O 0.61588 0.66949 0.94935 0.0
O168 O 0.58803 0.91067 0.85537 0.0
Cd169 Cd 0.56782 0.89473 0.90125 0.0
Cd170 Cd 0.60221 0.96078 0.90984 0.0
O171 O 0.62092 0.96305 0.86341 0.0
O172 O 0.54495 0.84682 0.89442 0.0
O173 O 0.58507 0.87147 0.92966 0.0
C174 C 0.56411 0.84492 0.91541 0.0
C175 C 0.63241 0.98172 0.95769 0.0
C176 C 0.60929 0.93839 0.84465 0.0
C177 C 0.52985 0.92866 0.91529 0.0
O178 O 0.55641 0.95523 0.91186 0.0
O179 O 0.52961 0.90178 0.91431 0.0
O180 O 0.6311 1.00054 0.93567 0.0
O181 O 0.61827 0.95094 0.95137 0.0
O182 O 0.68274 0.58751 0.35512 0.0
Cd183 Cd 0.67829 0.56662 0.40067 0.0
Cd184 Cd 0.64407 0.59896 0.40896 0.0
O185 O 0.66072 0.61826 0.36277 0.0
O186 O 0.70264 0.54323 0.39267 0.0
O187 O 0.71882 0.58254 0.42896 0.0
C188 C 0.72365 0.5613 0.4142 0.0
C189 C 0.65269 0.62853 0.45715 0.0
C190 C 0.67512 0.6079 0.34427 0.0
C191 C 0.60599 0.52664 0.41369 0.0
O192 O 0.60467 0.55254 0.41036 0.0
O193 O 0.63329 0.52778 0.41312 0.0
O194 O 0.63237 0.62699 0.43523 0.0
O195 O 0.66978 0.61491 0.4506 0.0
O196 O 0.10121 0.68016 0.85541 0.0
Cd197 Cd 0.11656 0.67548 0.90144 0.0
Cd198 Cd 0.05058 0.64458 0.90953 0.0
O199 O 0.0489 0.66137 0.86312 0.0
O200 O 0.16457 0.70019 0.89524 0.0
O201 O 0.13975 0.71579 0.93012 0.0
C202 C 0.16641 0.72121 0.91623 0.0
C203 C 0.02967 0.65404 0.95727 0.0
C204 C 0.07367 0.67412 0.8445 0.0
C205 C 0.08179 0.60353 0.91516 0.0
O206 O 0.05543 0.60391 0.91153 0.0
O207 O 0.10886 0.62997 0.91442 0.0
O208 O 0.0108 0.63414 0.93511 0.0
O209 O 0.0605 0.67035 0.95114 0.0
O210 O 0.42267 0.09724 0.35505 0.0
Cd211 Cd 0.44391 0.11291 0.40057 0.0
Cd212 Cd 0.40942 0.04688 0.40883 0.0
O213 O 0.39021 0.04469 0.36267 0.0
O214 O 0.46694 0.16084 0.39387 0.0
O215 O 0.42738 0.13632 0.42972 0.0
C216 C 0.44819 0.16284 0.41531 0.0
C217 C 0.38027 0.02801 0.45755 0.0
C218 C 0.40123 0.06961 0.34432 0.0
C219 C 0.48173 0.07851 0.41354 0.0
O220 O 0.45506 0.052 0.41035 0.0
O221 O 0.48212 0.10546 0.41267 0.0
O222 O 0.38051 0.00818 0.43602 0.0
O223 O 0.39473 0.05856 0.45012 0.0
O224 O 0.32852 0.42079 0.85482 0.0
Cd225 Cd 0.3332 0.44222 0.90009 0.0
Cd226 Cd 0.36705 0.40943 0.90912 0.0
O227 O 0.35057 0.39012 0.86293 0.0
O228 O 0.30893 0.46566 0.89181 0.0
O229 O 0.29281 0.42673 0.92852 0.0
C230 C 0.28799 0.44785 0.91352 0.0
C231 C 0.35829 0.37938 0.95703 0.0
C232 C 0.33615 0.40032 0.84425 0.0
C233 C 0.40555 0.48188 0.91323 0.0
O234 O 0.4066 0.45578 0.91059 0.0
O235 O 0.37839 0.48102 0.91215 0.0
O236 O 0.37874 0.38121 0.9351 0.0
O237 O 0.34126 0.39311 0.95069 0.0
O238 O 0.91089 0.32529 0.35512 0.0
Cd239 Cd 0.89507 0.33074 0.40063 0.0
Cd240 Cd 0.96126 0.36429 0.40825 0.0
O241 O 0.96373 0.34721 0.36225 0.0
O242 O 0.84719 0.30568 0.39362 0.0
O243 O 0.87155 0.29082 0.42984 0.0
C244 C 0.84509 0.28507 0.41527 0.0
C245 C 0.98005 0.35423 0.4571 0.0
C246 C 0.93872 0.33238 0.34416 0.0
C247 C 0.92793 0.4032 0.41283 0.0
O248 O 0.95497 0.40414 0.40944 0.0
O249 O 0.90159 0.37604 0.4125 0.0
O250 O 0.99989 0.37455 0.43575 0.0
O251 O 0.94956 0.33785 0.44945 0.0
O252 O 0.0988 0.42132 0.69244 0.0
Cd253 Cd 0.11471 0.44155 0.64657 0.0
Cd254 Cd 0.04872 0.40721 0.63804 0.0
O255 O 0.04643 0.3884 0.68442 0.0
O256 O 0.16262 0.46444 0.65341 0.0
O257 O 0.138 0.42434 0.61815 0.0
C258 C 0.16454 0.4453 0.6324 0.0
C259 C 0.02814 0.37732 0.58997 0.0
C260 C 0.07109 0.40005 0.70317 0.0
C261 C 0.08079 0.47954 0.6327 0.0
O262 O 0.05421 0.45299 0.63618 0.0
O263 O 0.10766 0.47976 0.63356 0.0
O264 O 0.00913 0.37837 0.61194 0.0
O265 O 0.05889 0.39151 0.59647 0.0
O266 O 0.68268 0.0993 0.19313 0.0
Cd267 Cd 0.67685 0.11522 0.14786 0.0
Cd268 Cd 0.64591 0.04902 0.13909 0.0
O269 O 0.66305 0.04686 0.18516 0.0
O270 O 0.70056 0.16305 0.15532 0.0
O271 O 0.71686 0.14 0.11904 0.0
C272 C 0.72156 0.16605 0.13371 0.0
C273 C 0.65633 0.03039 0.09031 0.0
C274 C 0.67676 0.07169 0.20365 0.0
C275 C 0.60455 0.07989 0.13468 0.0
O276 O 0.60505 0.05354 0.13768 0.0
O277 O 0.63093 0.10702 0.13573 0.0
O278 O 0.63645 0.01044 0.11187 0.0
O279 O 0.67219 0.06094 0.09775 0.0
O280 O 0.58952 0.68246 0.69273 0.0
Cd281 Cd 0.56757 0.67709 0.64761 0.0
Cd282 Cd 0.60004 0.64308 0.63913 0.0
O283 O 0.61994 0.66004 0.68504 0.0
O284 O 0.54417 0.7014 0.65574 0.0
O285 O 0.5829 0.71721 0.61882 0.0
C286 C 0.56188 0.72217 0.63384 0.0
C287 C 0.62845 0.65262 0.59004 0.0
C288 C 0.61016 0.67509 0.70335 0.0
C289 C 0.52778 0.60455 0.63519 0.0
O290 O 0.55382 0.60343 0.63819 0.0
O291 O 0.52873 0.63176 0.63584 0.0
O292 O 0.62797 0.63235 0.61146 0.0
O293 O 0.61467 0.66929 0.59776 0.0
O294 O 0.91189 0.58601 0.19315 0.0
Cd295 Cd 0.89535 0.56456 0.14785 0.0
Cd296 Cd 0.96137 0.5995 0.13819 0.0
O297 O 0.96418 0.6188 0.18437 0.0
O298 O 0.84759 0.54067 0.15575 0.0
O299 O 0.87047 0.58004 0.11946 0.0
C300 C 0.84449 0.5587 0.13427 0.0
C301 C 0.9804 0.62882 0.0896 0.0
C302 C 0.93973 0.6075 0.2034 0.0
C303 C 0.93009 0.5272 0.13397 0.0
O304 O 0.95656 0.55399 0.13664 0.0
O305 O 0.90307 0.52663 0.13538 0.0
O306 O 1.00014 0.62843 0.11113 0.0
O307 O 0.94984 0.6144 0.09695 0.0
O308 O 0.3296 0.90841 0.69258 0.0
Cd309 Cd 0.33439 0.89284 0.6467 0.0
Cd310 Cd 0.36501 0.95905 0.63829 0.0
O311 O 0.34812 0.96066 0.6847 0.0
O312 O 0.31088 0.84492 0.65364 0.0
O313 O 0.29391 0.86828 0.61843 0.0
C314 C 0.28956 0.84208 0.63251 0.0
C315 C 0.35539 0.97952 0.59029 0.0
C316 C 0.3355 0.93593 0.7034 0.0
C317 C 0.40644 0.9283 0.63285 0.0
O318 O 0.4059 0.95457 0.63645 0.0
O319 O 0.38009 0.90114 0.63362 0.0
O320 O 0.37513 0.99861 0.61242 0.0
O321 O 0.33928 0.94872 0.59661 0.0
O322 O 0.42496 0.3276 0.19273 0.0
Cd323 Cd 0.44556 0.3322 0.147 0.0
Cd324 Cd 0.41085 0.36319 0.13808 0.0
O325 O 0.3916 0.34646 0.18425 0.0
O326 O 0.46837 0.30707 0.15368 0.0
O327 O 0.42841 0.29193 0.11829 0.0
C328 C 0.44927 0.28617 0.13254 0.0
C329 C 0.38187 0.35341 0.08934 0.0
C330 C 0.40334 0.33368 0.2032 0.0
C331 C 0.4831 0.40411 0.13329 0.0
O332 O 0.45638 0.4038 0.13661 0.0
O333 O 0.48366 0.37763 0.1342 0.0
O334 O 0.38208 0.3733 0.11106 0.0
O335 O 0.39614 0.33711 0.09663 0.0
C336 C 0.38625 0.03872 0.29121 0.0
C337 C 0.39255 0.06665 0.30905 0.0
C338 C 0.38615 0.03875 0.2567 0.0
C339 C 0.39234 0.06672 0.23898 0.0
H340 H 0.3838 0.01756 0.30385 0.0
H341 H 0.38362 0.01761 0.24396 0.0
S342 S 0.40279 0.14336 0.27421 0.0
N343 N 0.39968 0.12095 0.30642 0.0
N344 N 0.39948 0.121 0.2419 0.0
C345 C 0.39542 0.09354 0.25661 0.0
C346 C 0.39553 0.09351 0.29156 0.0
C347 C 0.30946 0.39776 0.75659 0.0
C348 C 0.33116 0.39168 0.73864 0.0
C349 C 0.30951 0.39784 0.79087 0.0
C350 C 0.33127 0.39185 0.80882 0.0
H351 H 0.2934 0.40427 0.74408 0.0
H352 H 0.29349 0.40441 0.80336 0.0
S353 S 0.38974 0.36979 0.77375 0.0
N354 N 0.37242 0.37572 0.74143 0.0
N355 N 0.37252 0.37587 0.80606 0.0
C356 C 0.35109 0.38284 0.79131 0.0
C357 C 0.35103 0.38276 0.75618 0.0
C358 C 0.96957 0.34859 0.25655 0.0
C359 C 0.94166 0.32678 0.2388 0.0
C360 C 0.9696 0.34859 0.29105 0.0
C361 C 0.94171 0.32677 0.30885 0.0
H362 H 0.99064 0.36734 0.24385 0.0
H363 H 0.9907 0.36733 0.30372 0.0
S364 S 0.86523 0.26011 0.27383 0.0
N365 N 0.88753 0.27941 0.24157 0.0
N366 N 0.88758 0.27935 0.30609 0.0
C367 C 0.91494 0.30282 0.2913 0.0
C368 C 0.91491 0.30285 0.25636 0.0
C369 C 0.60994 0.91342 0.75688 0.0
C370 C 0.61722 0.94154 0.73892 0.0
C371 C 0.60997 0.91343 0.79116 0.0
C372 C 0.61728 0.94157 0.80911 0.0
H373 H 0.60248 0.89063 0.74439 0.0
H374 H 0.60254 0.89066 0.80366 0.0
S375 S 0.64247 0.02284 0.77399 0.0
N376 N 0.63548 0.9993 0.74167 0.0
N377 N 0.63554 0.99933 0.80631 0.0
C378 C 0.62734 0.9706 0.79157 0.0
C379 C 0.62731 0.97059 0.75643 0.0
C380 C 0.7016 0.60963 0.29098 0.0
C381 C 0.68006 0.61608 0.30876 0.0
C382 C 0.70169 0.6095 0.2567 0.0
C383 C 0.68029 0.61586 0.23856 0.0
H384 H 0.71741 0.60288 0.30361 0.0
H385 H 0.71755 0.60264 0.24434 0.0
S386 S 0.62233 0.63885 0.2731 0.0
N387 N 0.63929 0.63269 0.30558 0.0
N388 N 0.63952 0.63248 0.24094 0.0
C389 C 0.66064 0.6252 0.25589 0.0
C390 C 0.66051 0.62531 0.29103 0.0
C391 C 0.09924 0.69928 0.75675 0.0
C392 C 0.07098 0.67892 0.73873 0.0
C393 C 0.09914 0.69933 0.79103 0.0
C394 C 0.07078 0.67902 0.80892 0.0
H395 H 0.12215 0.71419 0.74431 0.0
H396 H 0.12198 0.71428 0.80357 0.0
S397 S 0.98919 0.62441 0.77363 0.0
N398 N 0.01294 0.64049 0.74137 0.0
N399 N 0.01275 0.64059 0.80601 0.0
C400 C 0.04168 0.66058 0.79132 0.0
C401 C 0.04178 0.66053 0.75619 0.0
C402 C 0.91553 0.60959 0.25685 0.0
C403 C 0.94334 0.61602 0.23879 0.0
C404 C 0.9157 0.6097 0.29112 0.0
C405 C 0.94367 0.61618 0.30895 0.0
H406 H 0.89283 0.60267 0.24443 0.0
H407 H 0.8931 0.60287 0.30371 0.0
S408 S 0.0243 0.63925 0.27347 0.0
N409 N 1.00078 0.63282 0.24127 0.0
N410 N 1.00109 0.63298 0.3059 0.0
C411 C 0.9725 0.62553 0.29129 0.0
C412 C 0.97233 0.62545 0.25616 0.0
C413 C 0.3105 0.91045 0.79121 0.0
C414 C 0.33081 0.93875 0.80919 0.0
C415 C 0.31039 0.91051 0.75693 0.0
C416 C 0.33061 0.93887 0.73898 0.0
H417 H 0.29565 0.88754 0.80368 0.0
H418 H 0.29549 0.88764 0.74442 0.0
S419 S 0.38508 0.02054 0.77416 0.0
N420 N 0.3691 0.99682 0.80646 0.0
N421 N 0.36892 0.99693 0.74182 0.0
C422 C 0.34901 0.968 0.75655 0.0
C423 C 0.34911 0.96794 0.79169 0.0
C424 C 0.402 0.30771 0.29093 0.0
C425 C 0.39488 0.3287 0.30885 0.0
C426 C 0.40211 0.30774 0.25665 0.0
C427 C 0.39507 0.32874 0.23866 0.0
H428 H 0.40926 0.29224 0.30346 0.0
H429 H 0.40947 0.29232 0.24418 0.0
S430 S 0.37023 0.38516 0.27358 0.0
N431 N 0.37696 0.36847 0.30594 0.0
N432 N 0.37714 0.3685 0.24131 0.0
C433 C 0.3851 0.34781 0.25612 0.0
C434 C 0.38501 0.3478 0.29126 0.0
C435 C 0.09609 0.3993 0.75661 0.0
C436 C 0.06795 0.3921 0.73872 0.0
C437 C 0.09621 0.39948 0.79089 0.0
C438 C 0.06819 0.39245 0.80891 0.0
H439 H 0.1188 0.40655 0.74406 0.0
H440 H 0.119 0.40685 0.80333 0.0
S441 S 0.9869 0.36756 0.77402 0.0
N442 N 0.01028 0.37421 0.74164 0.0
N443 N 0.0105 0.37453 0.80628 0.0
C444 C 0.03912 0.38245 0.79146 0.0
C445 C 0.039 0.38227 0.75632 0.0
C446 C 0.66091 0.04021 0.29101 0.0
C447 C 0.68237 0.06816 0.30893 0.0
C448 C 0.66095 0.04041 0.25651 0.0
C449 C 0.68245 0.06856 0.23888 0.0
H450 H 0.64239 0.0189 0.3036 0.0
H451 H 0.64245 0.01924 0.24372 0.0
S452 S 0.74821 0.14537 0.27428 0.0
N453 N 0.72916 0.1227 0.30643 0.0
N454 N 0.72923 0.12307 0.24191 0.0
C455 C 0.70607 0.09543 0.25657 0.0
C456 C 0.70604 0.09523 0.29151 0.0
C457 C 0.62445 0.65824 0.75628 0.0
C458 C 0.61907 0.68057 0.73859 0.0
C459 C 0.62453 0.6582 0.79079 0.0
C460 C 0.61923 0.68049 0.80865 0.0
H461 H 0.62615 0.63915 0.74354 0.0
H462 H 0.62629 0.63908 0.8034 0.0
S463 S 0.6115 0.74847 0.77385 0.0
N464 N 0.61386 0.72886 0.74152 0.0
N465 N 0.61401 0.7288 0.80604 0.0
C466 C 0.61714 0.7049 0.79118 0.0
C467 C 0.61706 0.70494 0.75623 0.0
C468 C 0.47534 0.22323 0.1415 0.0
C469 C 0.44962 0.19511 0.12737 0.0
C470 C 0.47566 0.2528 0.14142 0.0
C471 C 0.45026 0.25573 0.12721 0.0
H472 H 0.49505 0.22227 0.15381 0.0
H473 H 0.4956 0.2733 0.15367 0.0
S474 S 0.37872 0.19029 0.0839 0.0
N475 N 0.39922 0.17265 0.09638 0.0
N476 N 0.39981 0.22845 0.09622 0.0
C477 C 0.42526 0.22833 0.11124 0.0
C478 C 0.42494 0.198 0.11132 0.0
C479 C 0.22431 0.47205 0.6413 0.0
C480 C 0.19607 0.44644 0.62721 0.0
C481 C 0.25368 0.47196 0.64146 0.0
C482 C 0.25628 0.44628 0.62751 0.0
H483 H 0.2236 0.49198 0.65338 0.0
H484 H 0.27429 0.49184 0.65364 0.0
S485 S 0.19044 0.37484 0.58447 0.0
N486 N 0.17316 0.3958 0.59658 0.0
N487 N 0.2286 0.39565 0.59686 0.0
C488 C 0.22878 0.42137 0.6116 0.0
C489 C 0.19864 0.42145 0.61145 0.0
C490 C 0.80935 0.22954 0.11544 0.0
C491 C 0.81166 0.25809 0.1284 0.0
C492 C 0.77964 0.20002 0.11542 0.0
C493 C 0.75124 0.19807 0.12836 0.0
H494 H 0.83091 0.22956 0.10679 0.0
H495 H 0.77934 0.17833 0.10676 0.0
S496 S 0.74324 0.26704 0.15992 0.0
N497 N 0.78209 0.28329 0.15065 0.0
N498 N 0.72658 0.22817 0.15061 0.0
C499 C 0.75284 0.22695 0.13919 0.0
C500 C 0.78295 0.25686 0.13921 0.0
C501 C 0.58593 0.78033 0.61584 0.0
C502 C 0.55941 0.75174 0.62835 0.0
C503 C 0.58581 0.80989 0.61572 0.0
C504 C 0.55915 0.81183 0.6281 0.0
H505 H 0.60758 0.78029 0.60764 0.0
H506 H 0.60738 0.83162 0.60744 0.0
S507 S 0.48149 0.74273 0.65818 0.0
N508 N 0.50421 0.72648 0.64948 0.0
N509 N 0.50396 0.78167 0.64924 0.0
C510 C 0.53163 0.78291 0.63844 0.0
C511 C 0.53176 0.75297 0.63858 0.0
C512 C 0.78078 0.58281 0.11623 0.0
C513 C 0.75226 0.55646 0.12909 0.0
C514 C 0.81037 0.58275 0.11622 0.0
C515 C 0.81243 0.55633 0.12908 0.0
H516 H 0.78065 0.60431 0.1076 0.0
H517 H 0.83202 0.6042 0.10759 0.0
S518 S 0.74361 0.47913 0.1604 0.0
N519 N 0.72723 0.50163 0.15119 0.0
N520 N 0.78249 0.50152 0.15118 0.0
C521 C 0.7836 0.52897 0.13985 0.0
C522 C 0.75361 0.52903 0.13986 0.0
C523 C 0.23118 0.80803 0.61516 0.0
C524 C 0.25996 0.81003 0.62702 0.0
C525 C 0.20163 0.77834 0.61516 0.0
C526 C 0.19988 0.74968 0.62702 0.0
H527 H 0.23108 0.82978 0.60741 0.0
H528 H 0.17978 0.77825 0.60742 0.0
S529 S 0.2694 0.7409 0.65523 0.0
N530 N 0.28553 0.77994 0.64691 0.0
N531 N 0.23034 0.72449 0.64692 0.0
C532 C 0.22895 0.751 0.63667 0.0
C533 C 0.25889 0.78108 0.63667 0.0
C534 C 0.81152 0.58548 0.43188 0.0
C535 C 0.8134 0.55875 0.41966 0.0
C536 C 0.78195 0.58557 0.43185 0.0
C537 C 0.75329 0.55893 0.41959 0.0
H538 H 0.8333 0.60713 0.43996 0.0
H539 H 0.78193 0.60728 0.4399 0.0
S540 S 0.74419 0.48081 0.39034 0.0
N541 N 0.78319 0.5034 0.39899 0.0
N542 N 0.72794 0.50356 0.39893 0.0
C543 C 0.75448 0.53122 0.40956 0.0
C544 C 0.78444 0.53113 0.40959 0.0
C545 C 0.22636 0.75374 0.90842 0.0
C546 C 0.19799 0.75142 0.9218 0.0
C547 C 0.25584 0.78309 0.90843 0.0
C548 C 0.25842 0.81156 0.92183 0.0
H549 H 0.22567 0.73295 0.89671 0.0
H550 H 0.27656 0.78359 0.89674 0.0
S551 S 0.19223 0.81795 0.96314 0.0
N552 N 0.17491 0.77962 0.95133 0.0
N553 N 0.23055 0.83499 0.95137 0.0
C554 C 0.23077 0.80926 0.93713 0.0
C555 C 0.20053 0.77916 0.93711 0.0
C556 C 0.47504 0.22263 0.40659 0.0
C557 C 0.44949 0.1944 0.42076 0.0
C558 C 0.475 0.25202 0.40655 0.0
C559 C 0.4494 0.25465 0.42066 0.0
H560 H 0.49489 0.22188 0.39434 0.0
H561 H 0.49482 0.2726 0.39428 0.0
S562 S 0.37821 0.18889 0.46408 0.0
N563 N 0.39905 0.17156 0.45173 0.0
N564 N 0.39897 0.22703 0.45165 0.0
C565 C 0.42458 0.22717 0.43669 0.0
C566 C 0.42462 0.19702 0.43674 0.0
C567 C 0.22983 0.42393 0.93151 0.0
C568 C 0.25841 0.45036 0.91887 0.0
C569 C 0.20029 0.42411 0.93164 0.0
C570 C 0.19838 0.45073 0.91914 0.0
H571 H 0.22985 0.4023 0.93984 0.0
H572 H 0.17857 0.40261 0.94006 0.0
S573 S 0.26747 0.52818 0.88863 0.0
N574 N 0.28369 0.50545 0.89744 0.0
N575 N 0.22855 0.5058 0.89769 0.0
C576 C 0.22729 0.47817 0.90864 0.0
C577 C 0.25721 0.47798 0.9085 0.0
C578 C 0.75569 0.22327 0.40716 0.0
C579 C 0.75292 0.19495 0.42121 0.0
C580 C 0.78522 0.25255 0.407 0.0
C581 C 0.81344 0.25498 0.4209 0.0
H582 H 0.7351 0.22266 0.39506 0.0
H583 H 0.78606 0.27321 0.39481 0.0
S584 S 0.81869 0.18894 0.46395 0.0
N585 N 0.78046 0.17182 0.45184 0.0
N586 N 0.83618 0.2271 0.45156 0.0
C587 C 0.81071 0.22743 0.43684 0.0
C588 C 0.78042 0.19739 0.43699 0.0
C589 C 0.53758 0.75583 0.90625 0.0
C590 C 0.56327 0.75325 0.92022 0.0
C591 C 0.53744 0.78517 0.90645 0.0
C592 C 0.563 0.81341 0.9206 0.0
H593 H 0.51775 0.73522 0.89402 0.0
H594 H 0.51751 0.78586 0.89435 0.0
S595 S 0.63458 0.81907 0.96344 0.0
N596 N 0.61384 0.78093 0.95097 0.0
N597 N 0.6136 0.83632 0.95132 0.0
C598 C 0.58799 0.81084 0.93638 0.0
C599 C 0.58812 0.78074 0.9362 0.0
C600 C 0.37057 0.02245 0.99862 0.0
C601 C 0.35369 0.98884 0.99206 0.0
C602 C 0.37631 0.03435 0.03085 0.0
C603 C 0.3657 0.01312 0.05788 0.0
H604 H 0.38095 0.0398 0.97875 0.0
H605 H 0.39103 0.06034 0.0345 0.0
S606 S 0.31565 0.92318 0.05421 0.0
N607 N 0.32269 0.93463 1.01546 0.0
N608 N 0.3338 0.95699 0.07594 0.0
C609 C 0.34652 0.97958 0.0517 0.0
C610 C 0.3404 0.96745 1.01883 0.0
C611 C 0.35348 0.37093 0.49786 0.0
C612 C 0.37014 0.35395 0.49142 0.0
C613 C 0.34736 0.37681 0.53005 0.0
C614 C 0.35798 0.36628 0.55715 0.0
H615 H 0.34651 0.38122 0.47792 0.0
H616 H 0.33611 0.39157 0.53362 0.0
S617 S 0.39785 0.3162 0.55382 0.0
N618 N 0.39338 0.32305 0.51503 0.0
N619 N 0.38224 0.33446 0.57542 0.0
C620 C 0.37234 0.34708 0.5511 0.0
C621 C 0.37829 0.34079 0.51828 0.0
C622 C 0.98543 0.34964 0.99844 0.0
C623 C 0.01902 0.36622 0.99181 0.0
C624 C 0.97359 0.34346 0.03069 0.0
C625 C 0.99487 0.35389 0.05768 0.0
H626 H 0.96805 0.34283 0.97861 0.0
H627 H 0.94762 0.33233 0.0344 0.0
S628 S 0.08477 0.39332 0.0538 0.0
N629 N 0.07325 0.38908 1.01508 0.0
N630 N 0.05102 0.37777 0.0756 0.0
C631 C 0.02839 0.36808 0.05142 0.0
C632 C 0.04045 0.37413 1.01853 0.0
C633 C 0.66624 0.03609 0.51693 0.0
C634 C 0.65576 0.01469 0.49003 0.0
C635 C 0.66018 0.02438 0.54923 0.0
C636 C 0.64368 0.99081 0.556 0.0
H637 H 0.6773 0.06204 0.51311 0.0
H638 H 0.66701 0.04183 0.56898 0.0
S639 S 0.61657 0.92483 0.49428 0.0
N640 N 0.63198 0.95849 0.47234 0.0
N641 N 0.62089 0.9365 0.53295 0.0
C642 C 0.63575 0.96928 0.52937 0.0
C643 C 0.64167 0.98121 0.49643 0.0
C644 C 0.66534 0.63117 0.02936 0.0
C645 C 0.65511 0.64221 0.05636 0.0
C646 C 0.65897 0.63667 0.99711 0.0
C647 C 0.64244 0.65374 0.99051 0.0
H648 H 0.67646 0.61631 0.03307 0.0
H649 H 0.66565 0.626 0.97729 0.0
S650 S 0.61573 0.69273 0.05251 0.0
N651 N 0.63137 0.67459 0.0743 0.0
N652 N 0.61975 0.68527 1.01379 0.0
C653 C 0.63469 0.6674 1.01722 0.0
C654 C 0.6409 0.66152 0.0501 0.0
C655 C 0.03892 0.66366 0.52985 0.0
C656 C 0.01775 0.65365 0.55692 0.0
C657 C 0.02695 0.65714 0.49765 0.0
C658 C 0.99333 0.64064 0.49117 0.0
H659 H 0.0649 0.67472 0.53347 0.0
H660 H 0.04423 0.66365 0.47778 0.0
S661 S 0.92787 0.61454 0.55334 0.0
N662 N 0.9617 0.63022 0.57502 0.0
N663 N 0.93921 0.61827 0.5146 0.0
C664 C 0.97202 0.63314 0.51793 0.0
C665 C 0.98422 0.63953 0.55076 0.0
C666 C 0.63501 0.97321 1.01789 0.0
C667 C 0.64552 0.99447 0.99088 0.0
C668 C 0.64067 0.98508 0.05013 0.0
C669 C 0.65735 0.01869 0.05672 0.0
H670 H 0.62043 0.94721 1.01421 0.0
H671 H 0.63037 0.9677 0.06998 0.0
S672 S 0.69506 0.08445 0.99463 0.0
N673 N 0.67713 0.05065 0.97287 0.0
N674 N 0.68806 0.07295 0.03337 0.0
C675 C 0.67054 0.04013 0.02997 0.0
C676 C 0.66452 0.02803 0.99709 0.0
C677 C 0.66363 0.63079 0.51737 0.0
C678 C 0.65292 0.64142 0.49042 0.0
C679 C 0.65755 0.63648 0.54965 0.0
C680 C 0.64082 0.65334 0.55634 0.0
H681 H 0.67497 0.61614 0.51361 0.0
H682 H 0.66463 0.62614 0.56946 0.0
S683 S 0.61271 0.69117 0.49444 0.0
N684 N 0.62841 0.67314 0.47258 0.0
N685 N 0.61731 0.68416 0.53315 0.0
C686 C 0.63252 0.66656 0.52965 0.0
C687 C 0.63844 0.66048 0.49673 0.0
C688 C 0.02595 0.65846 0.0497 0.0
C689 C 0.99231 0.64174 0.05612 0.0
C690 C 0.03797 0.6648 1.01752 0.0
C691 C 0.01683 0.65438 0.99041 0.0
H692 H 0.04322 0.66526 0.06962 0.0
H693 H 0.06397 0.67601 1.01396 0.0
S694 S 0.92689 0.61468 0.99377 0.0
N695 N 0.9382 0.61881 0.03255 0.0
N696 N 0.96078 0.63042 0.97216 0.0
C697 C 0.98327 0.64008 0.99648 0.0
C698 C 0.97102 0.63388 0.02929 0.0
C699 C 0.34481 0.97081 0.53003 0.0
C700 C 0.35501 0.9921 0.557 0.0
C701 C 0.35106 0.98263 0.49777 0.0
C702 C 0.36749 0.01622 0.49111 0.0
H703 H 0.33381 0.94485 0.53376 0.0
H704 H 0.34442 0.96525 0.47797 0.0
S705 S 0.39392 0.08196 0.55302 0.0
N706 N 0.37848 0.04823 0.57486 0.0
N707 N 0.38992 0.07043 0.51432 0.0
C708 C 0.37516 0.03764 0.5178 0.0
C709 C 0.36904 0.02559 0.5507 0.0
C710 C 0.35277 0.36992 0.04936 0.0
C711 C 0.36945 0.35296 0.05573 0.0
C712 C 0.3469 0.37613 1.01719 0.0
C713 C 0.3578 0.36594 0.99006 0.0
H714 H 0.3456 0.37999 0.06935 0.0
H715 H 0.33563 0.39087 1.0137 0.0
S716 S 0.39778 0.31595 0.99315 0.0
N717 N 0.39298 0.32238 0.03198 0.0
N718 N 0.38229 0.33438 0.97163 0.0
C719 C 0.37216 0.34671 0.99601 0.0
C720 C 0.37786 0.3401 0.02881 0.0
C721 C 0.037 0.37554 0.52974 0.0
C722 C 0.01562 0.3645 0.55665 0.0
C723 C 0.02527 0.37013 0.49745 0.0
C724 C 0.9917 0.35315 0.4907 0.0
H725 H 0.06296 0.39035 0.53356 0.0
H726 H 0.04272 0.38081 0.4777 0.0
S727 S 0.92574 0.3141 0.55241 0.0
N728 N 0.95942 0.33215 0.57435 0.0
N729 N 0.93739 0.32163 0.51375 0.0
C730 C 0.97017 0.33945 0.51732 0.0
C731 C 0.98213 0.34525 0.55025 0.0
C732 C 0.54217 0.10777 0.13558 0.0
C733 C 0.5124 0.0787 0.1315 0.0
C734 C 0.57179 0.10801 0.13569 0.0
C735 C 0.57299 0.07919 0.13172 0.0
H736 H 0.54266 0.13055 0.13959 0.0
H737 H 0.59386 0.13096 0.13977 0.0
S738 S 0.50226 0.99699 0.11663 0.0
N739 N 0.48623 0.02059 0.12088 0.0
N740 N 0.5418 0.02104 0.12108 0.0
C741 C 0.54351 0.0501 0.12634 0.0
C742 C 0.5133 0.04986 0.12623 0.0
C743 C 0.49524 0.54375 0.6322 0.0
C744 C 0.49606 0.57378 0.63242 0.0
C745 C 0.46577 0.51425 0.63191 0.0
C746 C 0.43571 0.51337 0.63184 0.0
H747 H 0.51757 0.54286 0.63283 0.0
H748 H 0.4667 0.49194 0.63236 0.0
S749 S 0.42417 0.58518 0.63044 0.0
N750 N 0.46395 0.60076 0.63109 0.0
N751 N 0.40865 0.54541 0.63055 0.0
C752 C 0.4361 0.54322 0.63107 0.0
C753 C 0.46619 0.57334 0.63136 0.0
C754 C 0.90164 0.43683 0.13534 0.0
C755 C 0.93059 0.43588 0.13144 0.0
C756 C 0.90163 0.46633 0.1352 0.0
C757 C 0.93057 0.49622 0.13115 0.0
H758 H 0.87877 0.41467 0.13939 0.0
H759 H 0.87875 0.46564 0.13916 0.0
S760 S 0.01257 0.507 0.11649 0.0
N761 N 0.98875 0.46743 0.12092 0.0
N762 N 0.98873 0.52277 0.12066 0.0
C763 C 0.95955 0.49556 0.12595 0.0
C764 C 0.95957 0.46548 0.12609 0.0
C765 C 0.43914 0.90013 0.63293 0.0
C766 C 0.43802 0.92907 0.62979 0.0
C767 C 0.46875 0.90036 0.633 0.0
C768 C 0.49859 0.92953 0.62993 0.0
H769 H 0.417 0.87708 0.63627 0.0
H770 H 0.46816 0.87746 0.63638 0.0
S771 S 0.50903 0.01167 0.61741 0.0
N772 N 0.46941 0.98751 0.62094 0.0
N773 N 0.52498 0.98794 0.62107 0.0
C774 C 0.4978 0.95852 0.62542 0.0
C775 C 0.4676 0.9583 0.62535 0.0
C776 C 0.5734 0.46626 0.13437 0.0
C777 C 0.57418 0.49608 0.1303 0.0
C778 C 0.54398 0.43668 0.13435 0.0
C779 C 0.51402 0.43559 0.13028 0.0
H780 H 0.59562 0.46569 0.13849 0.0
H781 H 0.54477 0.41457 0.13847 0.0
S782 S 0.5028 0.50646 0.11508 0.0
N783 N 0.5424 0.5224 0.1195 0.0
N784 N 0.48722 0.4669 0.11948 0.0
C785 C 0.51451 0.46511 0.12486 0.0
C786 C 0.54451 0.49527 0.12487 0.0
C787 C 0.10983 0.54044 0.63319 0.0
C788 C 0.08065 0.51068 0.62965 0.0
C789 C 0.11014 0.5701 0.63326 0.0
C790 C 0.08129 0.57133 0.62979 0.0
H791 H 0.13264 0.54091 0.63685 0.0
H792 H 0.13317 0.59216 0.63697 0.0
S793 S 0.99878 0.50059 0.61608 0.0
N794 N 0.02239 0.48452 0.61996 0.0
N795 N 0.02297 0.54016 0.6201 0.0
C796 C 0.05209 0.54184 0.62487 0.0
C797 C 0.05177 0.5116 0.6248 0.0
C798 C 0.95656 0.49362 0.41503 0.0
C799 C 0.92745 0.4946 0.41593 0.0
C800 C 0.95643 0.46406 0.41486 0.0
C801 C 0.92717 0.43408 0.41559 0.0
H802 H 0.9798 0.51587 0.4138 0.0
H803 H 0.97958 0.46485 0.41353 0.0
S804 S 0.8441 0.423 0.42018 0.0
N805 N 0.86842 0.46275 0.41915 0.0
N806 N 0.86817 0.4073 0.41884 0.0
C807 C 0.89784 0.43465 0.41753 0.0
C808 C 0.89798 0.46482 0.4177 0.0
C809 C 0.46894 0.89964 0.91491 0.0
C810 C 0.49872 0.92881 0.91842 0.0
C811 C 0.43929 0.89936 0.91489 0.0
C812 C 0.43809 0.92823 0.91837 0.0
H813 H 0.46844 0.87683 0.91124 0.0
H814 H 0.4172 0.87634 0.91121 0.0
S815 S 0.50889 0.01071 0.93202 0.0
N816 N 0.52493 0.98708 0.9281 0.0
N817 N 0.46931 0.98654 0.92805 0.0
C818 C 0.4676 0.95742 0.92326 0.0
C819 C 0.49783 0.95771 0.92329 0.0
C820 C 0.51584 0.46402 0.41578 0.0
C821 C 0.51529 0.43412 0.41652 0.0
C822 C 0.54517 0.49365 0.41576 0.0
C823 C 0.57536 0.4948 0.41648 0.0
H824 H 0.49342 0.46468 0.41456 0.0
H825 H 0.54405 0.51583 0.41452 0.0
S826 S 0.58757 0.42348 0.42074 0.0
N827 N 0.54777 0.40759 0.41963 0.0
N828 N 0.60281 0.46319 0.4196 0.0
C829 C 0.57522 0.4651 0.4183 0.0
C830 C 0.54528 0.43485 0.41832 0.0
C831 C 0.10991 0.54136 0.91436 0.0
C832 C 0.08082 0.51151 0.91789 0.0
C833 C 0.11008 0.57095 0.91451 0.0
C834 C 0.08116 0.57202 0.91819 0.0
H835 H 0.13276 0.54197 0.91054 0.0
H836 H 0.13304 0.59309 0.91079 0.0
S837 S 0.99886 0.50101 0.932 0.0
N838 N 0.02258 0.4851 0.92782 0.0
N839 N 0.02289 0.54061 0.92809 0.0
C840 C 0.05205 0.54245 0.92311 0.0
C841 C 0.05188 0.51227 0.92296 0.0
C842 C 0.5722 0.1073 0.41266 0.0
C843 C 0.57324 0.07838 0.41652 0.0
C844 C 0.54264 0.10719 0.41262 0.0
C845 C 0.51278 0.07817 0.41645 0.0
H846 H 0.59435 0.13021 0.40876 0.0
H847 H 0.54325 0.13003 0.4087 0.0
S848 S 0.50221 0.99623 0.431 0.0
N849 N 0.54179 0.02018 0.42682 0.0
N850 N 0.48635 0.01998 0.42675 0.0
C851 C 0.51352 0.04922 0.42163 0.0
C852 C 0.54366 0.04933 0.42166 0.0
C853 C 0.49589 0.54389 0.91538 0.0
C854 C 0.49678 0.57396 0.91534 0.0
C855 C 0.46639 0.51442 0.91558 0.0
C856 C 0.43636 0.51361 0.91576 0.0
H857 H 0.51819 0.54296 0.91464 0.0
H858 H 0.46726 0.49209 0.91497 0.0
S859 S 0.42501 0.58553 0.91776 0.0
N860 N 0.46477 0.60104 0.91703 0.0
N861 N 0.40941 0.54575 0.91742 0.0
C862 C 0.43682 0.5435 0.91674 0.0
C863 C 0.46694 0.57358 0.91654 0.0
loop_
_geom_bond_atom_site_label_1
_geom_bond_atom_site_label_2
_geom_bond_distance
_geom_bond_site_symmetry_2
_ccdc_geom_bond_type
O0 Cd1 2.223 . S
O0 C8 1.315 . S
Cd1 O0 2.223 . S
Cd1 O4 2.297 . S
Cd1 O5 2.439 . S
Cd1 O11 2.240 . S
Cd2 O3 2.240 . S
Cd2 O10 2.223 . S
Cd2 O12 2.310 . S
Cd2 O13 2.439 . S
O3 Cd2 2.240 . S
O3 C8 1.279 . S
O4 Cd1 2.297 . S
O4 C6 1.247 . S
O5 Cd1 2.439 . S
O5 C6 1.208 . S
C6 O4 1.247 . S
C6 O5 1.208 . S
C7 O12 1.268 . S
C7 O13 1.208 . S
C8 O0 1.315 . S
C8 O3 1.279 . S
C9 O10 1.315 . S
C9 O11 1.279 . S
O10 Cd2 2.223 . S
O10 C9 1.315 . S
O11 Cd1 2.240 . S
O11 C9 1.279 . S
O12 Cd2 2.310 . S
O12 C7 1.268 . S
O13 Cd2 2.439 . S
O13 C7 1.208 . S
O14 Cd15 2.223 . S
O14 C22 1.315 . S
Cd15 O14 2.223 . S
Cd15 O18 2.297 . S
Cd15 O19 2.439 . S
Cd15 O25 2.240 . S
Cd16 O17 2.240 . S
Cd16 O24 2.223 . S
Cd16 O26 2.297 . S
Cd16 O27 2.439 . S
O17 Cd16 2.240 . S
O17 C22 1.279 . S
O18 Cd15 2.297 . S
O18 C20 1.247 . S
O19 Cd15 2.439 . S
O19 C20 1.208 . S
C20 O18 1.247 . S
C20 O19 1.208 . S
C21 O26 1.247 . S
C21 O27 1.208 . S
C22 O14 1.315 . S
C22 O17 1.279 . S
C23 O24 1.315 . S
C23 O25 1.279 . S
O24 Cd16 2.223 . S
O24 C23 1.315 . S
O25 Cd15 2.240 . S
O25 C23 1.279 . S
O26 Cd16 2.297 . S
O26 C21 1.247 . S
O27 Cd16 2.439 . S
O27 C21 1.208 . S
O28 Cd29 2.223 . S
O28 C36 1.315 . S
Cd29 O28 2.223 . S
Cd29 O32 2.297 . S
Cd29 O33 2.439 . S
Cd29 O39 2.240 . S
Cd30 O31 2.240 . S
Cd30 O38 2.223 . S
Cd30 O40 2.305 . S
Cd30 O41 2.439 . S
O31 Cd30 2.240 . S
O31 C36 1.279 . S
O32 Cd29 2.297 . S
O32 C34 1.247 . S
O33 Cd29 2.439 . S
O33 C34 1.208 . S
C34 O32 1.247 . S
C34 O33 1.208 . S
C35 O40 1.256 . S
C35 O41 1.208 . S
C36 O28 1.315 . S
C36 O31 1.279 . S
C37 O38 1.315 . S
C37 O39 1.279 . S
O38 Cd30 2.223 . S
O38 C37 1.315 . S
O39 Cd29 2.240 . S
O39 C37 1.279 . S
O40 Cd30 2.305 . S
O40 C35 1.256 . S
O41 Cd30 2.439 . S
O41 C35 1.208 . S
O42 Cd43 2.223 . S
O42 C50 1.315 . S
Cd43 O42 2.223 . S
Cd43 O46 2.297 . S
Cd43 O47 2.439 . S
Cd43 O53 2.240 . S
Cd44 O45 2.240 . S
Cd44 O52 2.223 . S
Cd44 O54 2.310 . S
Cd44 O55 2.439 . S
O45 Cd44 2.240 . S
O45 C50 1.279 . S
O46 Cd43 2.297 . S
O46 C48 1.247 . S
O47 Cd43 2.439 . S
O47 C48 1.208 . S
C48 O46 1.247 . S
C48 O47 1.208 . S
C49 O54 1.268 . S
C49 O55 1.208 . S
C50 O42 1.315 . S
C50 O45 1.279 . S
C51 O52 1.315 . S
C51 O53 1.279 . S
O52 Cd44 2.223 . S
O52 C51 1.315 . S
O53 Cd43 2.240 . S
O53 C51 1.279 . S
O54 Cd44 2.310 . S
O54 C49 1.268 . S
O55 Cd44 2.439 . S
O55 C49 1.208 . S
O56 Cd57 2.223 . S
O56 C64 1.315 . S
Cd57 O56 2.223 . S
Cd57 O60 2.297 . S
Cd57 O61 2.439 . S
Cd57 O67 2.240 . S
Cd58 O59 2.240 . S
Cd58 O66 2.223 . S
Cd58 O68 2.297 . S
Cd58 O69 2.439 . S
O59 Cd58 2.240 . S
O59 C64 1.279 . S
O60 Cd57 2.297 . S
O60 C62 1.247 . S
O61 Cd57 2.439 . S
O61 C62 1.208 . S
C62 O60 1.247 . S
C62 O61 1.208 . S
C63 O68 1.247 . S
C63 O69 1.208 . S
C64 O56 1.315 . S
C64 O59 1.279 . S
C65 O66 1.315 . S
C65 O67 1.279 . S
O66 Cd58 2.223 . S
O66 C65 1.315 . S
O67 Cd57 2.240 . S
O67 C65 1.279 . S
O68 Cd58 2.297 . S
O68 C63 1.247 . S
O69 Cd58 2.439 . S
O69 C63 1.208 . S
O70 Cd71 2.223 . S
O70 C78 1.315 . S
Cd71 O70 2.223 . S
Cd71 O74 2.297 . S
Cd71 O75 2.439 . S
Cd71 O81 2.240 . S
Cd72 O73 2.240 . S
Cd72 O80 2.223 . S
Cd72 O82 2.305 . S
Cd72 O83 2.439 . S
O73 Cd72 2.240 . S
O73 C78 1.279 . S
O74 Cd71 2.297 . S
O74 C76 1.247 . S
O75 Cd71 2.439 . S
O75 C76 1.208 . S
C76 O74 1.247 . S
C76 O75 1.208 . S
C77 O82 1.256 . S
C77 O83 1.208 . S
C78 O70 1.315 . S
C78 O73 1.279 . S
C79 O80 1.315 . S
C79 O81 1.279 . S
O80 Cd72 2.223 . S
O80 C79 1.315 . S
O81 Cd71 2.240 . S
O81 C79 1.279 . S
O82 Cd72 2.305 . S
O82 C77 1.256 . S
O83 Cd72 2.439 . S
O83 C77 1.208 . S
O84 Cd85 2.223 . S
O84 C92 1.315 . S
Cd85 O84 2.223 . S
Cd85 O88 2.297 . S
Cd85 O89 2.439 . S
Cd85 O95 2.240 . S
Cd86 O87 2.240 . S
Cd86 O94 2.223 . S
Cd86 O96 2.310 . S
Cd86 O97 2.439 . S
O87 Cd86 2.240 . S
O87 C92 1.279 . S
O88 Cd85 2.297 . S
O88 C90 1.247 . S
O89 Cd85 2.439 . S
O89 C90 1.208 . S
C90 O88 1.247 . S
C90 O89 1.208 . S
C91 O96 1.268 . S
C91 O97 1.208 . S
C92 O84 1.315 . S
C92 O87 1.279 . S
C93 O94 1.315 . S
C93 O95 1.279 . S
O94 Cd86 2.223 . S
O94 C93 1.315 . S
O95 Cd85 2.240 . S
O95 C93 1.279 . S
O96 Cd86 2.310 . S
O96 C91 1.268 . S
O97 Cd86 2.439 . S
O97 C91 1.208 . S
O98 Cd99 2.223 . S
O98 C106 1.315 . S
Cd99 O98 2.223 . S
Cd99 O102 2.297 . S
Cd99 O103 2.439 . S
Cd99 O109 2.240 . S
Cd100 O101 2.240 . S
Cd100 O108 2.223 . S
Cd100 O110 2.305 . S
Cd100 O111 2.439 . S
O101 Cd100 2.240 . S
O101 C106 1.279 . S
O102 Cd99 2.297 . S
O102 C104 1.247 . S
O103 Cd99 2.439 . S
O103 C104 1.208 . S
C104 O102 1.247 . S
C104 O103 1.208 . S
C105 O110 1.256 . S
C105 O111 1.208 . S
C106 O98 1.315 . S
C106 O101 1.279 . S
C107 O108 1.315 . S
C107 O109 1.279 . S
O108 Cd100 2.223 . S
O108 C107 1.315 . S
O109 Cd99 2.240 . S
O109 C107 1.279 . S
O110 Cd100 2.305 . S
O110 C105 1.256 . S
O111 Cd100 2.439 . S
O111 C105 1.208 . S
O112 Cd113 2.223 . S
O112 C120 1.315 . S
Cd113 O112 2.223 . S
Cd113 O116 2.297 . S
Cd113 O117 2.439 . S
Cd113 O123 2.240 . S
Cd114 O115 2.240 . S
Cd114 O122 2.223 . S
Cd114 O124 2.297 . S
Cd114 O125 2.439 . S
O115 Cd114 2.240 . S
O115 C120 1.279 . S
O116 Cd113 2.297 . S
O116 C118 1.247 . S
O117 Cd113 2.439 . S
O117 C118 1.208 . S
C118 O116 1.247 . S
C118 O117 1.208 . S
C119 O124 1.247 . S
C119 O125 1.208 . S
C120 O112 1.315 . S
C120 O115 1.279 . S
C121 O122 1.315 . S
C121 O123 1.279 . S
O122 Cd114 2.223 . S
O122 C121 1.315 . S
O123 Cd113 2.240 . S
O123 C121 1.279 . S
O124 Cd114 2.297 . S
O124 C119 1.247 . S
O125 Cd114 2.439 . S
O125 C119 1.208 . S
O126 Cd127 2.223 . S
O126 C134 1.315 . S
Cd127 O126 2.223 . S
Cd127 O130 2.297 . S
Cd127 O131 2.439 . S
Cd127 O137 2.240 . S
Cd128 O129 2.240 . S
Cd128 O136 2.223 . S
Cd128 O138 2.310 . S
Cd128 O139 2.439 . S
O129 Cd128 2.240 . S
O129 C134 1.279 . S
O130 Cd127 2.297 . S
O130 C132 1.247 . S
O131 Cd127 2.439 . S
O131 C132 1.208 . S
C132 O130 1.247 . S
C132 O131 1.208 . S
C133 O138 1.268 . S
C133 O139 1.208 . S
C134 O126 1.315 . S
C134 O129 1.279 . S
C135 O136 1.315 . S
C135 O137 1.279 . S
O136 Cd128 2.223 . S
O136 C135 1.315 . S
O137 Cd127 2.240 . S
O137 C135 1.279 . S
O138 Cd128 2.310 . S
O138 C133 1.268 . S
O139 Cd128 2.439 . S
O139 C133 1.208 . S
O140 Cd141 2.223 . S
O140 C148 1.315 . S
Cd141 O140 2.223 . S
Cd141 O144 2.297 . S
Cd141 O145 2.439 . S
Cd141 O151 2.240 . S
Cd142 O143 2.240 . S
Cd142 O150 2.223 . S
Cd142 O152 2.305 . S
Cd142 O153 2.439 . S
O143 Cd142 2.240 . S
O143 C148 1.279 . S
O144 Cd141 2.297 . S
O144 C146 1.247 . S
O145 Cd141 2.439 . S
O145 C146 1.208 . S
C146 O144 1.247 . S
C146 O145 1.208 . S
C147 O152 1.256 . S
C147 O153 1.208 . S
C148 O140 1.315 . S
C148 O143 1.279 . S
C149 O150 1.315 . S
C149 O151 1.279 . S
O150 Cd142 2.223 . S
O150 C149 1.315 . S
O151 Cd141 2.240 . S
O151 C149 1.279 . S
O152 Cd142 2.305 . S
O152 C147 1.256 . S
O153 Cd142 2.439 . S
O153 C147 1.208 . S
O154 Cd155 2.223 . S
O154 C162 1.315 . S
Cd155 O154 2.223 . S
Cd155 O158 2.297 . S
Cd155 O159 2.439 . S
Cd155 O165 2.240 . S
Cd156 O157 2.240 . S
Cd156 O164 2.223 . S
Cd156 O166 2.297 . S
Cd156 O167 2.439 . S
O157 Cd156 2.240 . S
O157 C162 1.279 . S
O158 Cd155 2.297 . S
O158 C160 1.247 . S
O159 Cd155 2.439 . S
O159 C160 1.208 . S
C160 O158 1.247 . S
C160 O159 1.208 . S
C161 O166 1.247 . S
C161 O167 1.208 . S
C162 O154 1.315 . S
C162 O157 1.279 . S
C163 O164 1.315 . S
C163 O165 1.279 . S
O164 Cd156 2.223 . S
O164 C163 1.315 . S
O165 Cd155 2.240 . S
O165 C163 1.279 . S
O166 Cd156 2.297 . S
O166 C161 1.247 . S
O167 Cd156 2.439 . S
O167 C161 1.208 . S
O168 Cd169 2.223 . S
O168 C176 1.315 . S
Cd169 O168 2.223 . S
Cd169 O172 2.297 . S
Cd169 O173 2.439 . S
Cd169 O179 2.240 . S
Cd170 O171 2.240 . S
Cd170 O178 2.223 . S
Cd170 O180 2.310 . S
Cd170 O181 2.439 . S
O171 Cd170 2.240 . S
O171 C176 1.279 . S
O172 Cd169 2.297 . S
O172 C174 1.247 . S
O173 Cd169 2.439 . S
O173 C174 1.208 . S
C174 O172 1.247 . S
C174 O173 1.208 . S
C175 O180 1.268 . S
C175 O181 1.208 . S
C176 O168 1.315 . S
C176 O171 1.279 . S
C177 O178 1.315 . S
C177 O179 1.279 . S
O178 Cd170 2.223 . S
O178 C177 1.315 . S
O179 Cd169 2.240 . S
O179 C177 1.279 . S
O180 Cd170 2.310 . S
O180 C175 1.268 . S
O181 Cd170 2.439 . S
O181 C175 1.208 . S
O182 Cd183 2.223 . S
O182 C190 1.315 . S
Cd183 O182 2.223 . S
Cd183 O186 2.297 . S
Cd183 O187 2.439 . S
Cd183 O193 2.240 . S
Cd184 O185 2.240 . S
Cd184 O192 2.223 . S
Cd184 O194 2.297 . S
Cd184 O195 2.439 . S
O185 Cd184 2.240 . S
O185 C190 1.279 . S
O186 Cd183 2.297 . S
O186 C188 1.247 . S
O187 Cd183 2.439 . S
O187 C188 1.208 . S
C188 O186 1.247 . S
C188 O187 1.208 . S
C189 O194 1.247 . S
C189 O195 1.208 . S
C190 O182 1.315 . S
C190 O185 1.279 . S
C191 O192 1.315 . S
C191 O193 1.279 . S
O192 Cd184 2.223 . S
O192 C191 1.315 . S
O193 Cd183 2.240 . S
O193 C191 1.279 . S
O194 Cd184 2.297 . S
O194 C189 1.247 . S
O195 Cd184 2.439 . S
O195 C189 1.208 . S
O196 Cd197 2.223 . S
O196 C204 1.315 . S
Cd197 O196 2.223 . S
Cd197 O200 2.297 . S
Cd197 O201 2.439 . S
Cd197 O207 2.240 . S
Cd198 O199 2.240 . S
Cd198 O206 2.223 . S
Cd198 O208 2.305 . S
Cd198 O209 2.439 . S
O199 Cd198 2.240 . S
O199 C204 1.279 . S
O200 Cd197 2.297 . S
O200 C202 1.247 . S
O201 Cd197 2.439 . S
O201 C202 1.208 . S
C202 O200 1.247 . S
C202 O201 1.208 . S
C203 O208 1.256 . S
C203 O209 1.208 . S
C204 O196 1.315 . S
C204 O199 1.279 . S
C205 O206 1.315 . S
C205 O207 1.279 . S
O206 Cd198 2.223 . S
O206 C205 1.315 . S
O207 Cd197 2.240 . S
O207 C205 1.279 . S
O208 Cd198 2.305 . S
O208 C203 1.256 . S
O209 Cd198 2.439 . S
O209 C203 1.208 . S
O210 Cd211 2.223 . S
O210 C218 1.315 . S
Cd211 O210 2.223 . S
Cd211 O214 2.297 . S
Cd211 O215 2.439 . S
Cd211 O221 2.240 . S
Cd212 O213 2.240 . S
Cd212 O220 2.223 . S
Cd212 O222 2.310 . S
Cd212 O223 2.439 . S
O213 Cd212 2.240 . S
O213 C218 1.279 . S
O214 Cd211 2.297 . S
O214 C216 1.247 . S
O215 Cd211 2.439 . S
O215 C216 1.208 . S
C216 O214 1.247 . S
C216 O215 1.208 . S
C217 O222 1.268 . S
C217 O223 1.208 . S
C218 O210 1.315 . S
C218 O213 1.279 . S
C219 O220 1.315 . S
C219 O221 1.279 . S
O220 Cd212 2.223 . S
O220 C219 1.315 . S
O221 Cd211 2.240 . S
O221 C219 1.279 . S
O222 Cd212 2.310 . S
O222 C217 1.268 . S
O223 Cd212 2.439 . S
O223 C217 1.208 . S
O224 Cd225 2.223 . S
O224 C232 1.315 . S
Cd225 O224 2.223 . S
Cd225 O228 2.297 . S
Cd225 O229 2.439 . S
Cd225 O235 2.240 . S
Cd226 O227 2.240 . S
Cd226 O234 2.223 . S
Cd226 O236 2.297 . S
Cd226 O237 2.439 . S
O227 Cd226 2.240 . S
O227 C232 1.279 . S
O228 Cd225 2.297 . S
O228 C230 1.247 . S
O229 Cd225 2.439 . S
O229 C230 1.208 . S
C230 O228 1.247 . S
C230 O229 1.208 . S
C231 O236 1.247 . S
C231 O237 1.208 . S
C232 O224 1.315 . S
C232 O227 1.279 . S
C233 O234 1.315 . S
C233 O235 1.279 . S
O234 Cd226 2.223 . S
O234 C233 1.315 . S
O235 Cd225 2.240 . S
O235 C233 1.279 . S
O236 Cd226 2.297 . S
O236 C231 1.247 . S
O237 Cd226 2.439 . S
O237 C231 1.208 . S
O238 Cd239 2.223 . S
O238 C246 1.315 . S
Cd239 O238 2.223 . S
Cd239 O242 2.297 . S
Cd239 O243 2.439 . S
Cd239 O249 2.240 . S
Cd240 O241 2.240 . S
Cd240 O248 2.223 . S
Cd240 O250 2.305 . S
Cd240 O251 2.439 . S
O241 Cd240 2.240 . S
O241 C246 1.279 . S
O242 Cd239 2.297 . S
O242 C244 1.247 . S
O243 Cd239 2.439 . S
O243 C244 1.208 . S
C244 O242 1.247 . S
C244 O243 1.208 . S
C245 O250 1.256 . S
C245 O251 1.208 . S
C246 O238 1.315 . S
C246 O241 1.279 . S
C247 O248 1.315 . S
C247 O249 1.279 . S
O248 Cd240 2.223 . S
O248 C247 1.315 . S
O249 Cd239 2.240 . S
O249 C247 1.279 . S
O250 Cd240 2.305 . S
O250 C245 1.256 . S
O251 Cd240 2.439 . S
O251 C245 1.208 . S
O252 Cd253 2.223 . S
O252 C260 1.315 . S
Cd253 O252 2.223 . S
Cd253 O256 2.297 . S
Cd253 O257 2.439 . S
Cd253 O263 2.240 . S
Cd254 O255 2.240 . S
Cd254 O262 2.223 . S
Cd254 O264 2.310 . S
Cd254 O265 2.439 . S
O255 Cd254 2.240 . S
O255 C260 1.279 . S
O256 Cd253 2.297 . S
O256 C258 1.247 . S
O257 Cd253 2.439 . S
O257 C258 1.208 . S
C258 O256 1.247 . S
C258 O257 1.208 . S
C259 O264 1.268 . S
C259 O265 1.208 . S
C260 O252 1.315 . S
C260 O255 1.279 . S
C261 O262 1.315 . S
C261 O263 1.279 . S
O262 Cd254 2.223 . S
O262 C261 1.315 . S
O263 Cd253 2.240 . S
O263 C261 1.279 . S
O264 Cd254 2.310 . S
O264 C259 1.268 . S
O265 Cd254 2.439 . S
O265 C259 1.208 . S
O266 Cd267 2.223 . S
O266 C274 1.315 . S
Cd267 O266 2.223 . S
Cd267 O270 2.297 . S
Cd267 O271 2.439 . S
Cd267 O277 2.240 . S
Cd268 O269 2.240 . S
Cd268 O276 2.223 . S
Cd268 O278 2.305 . S
Cd268 O279 2.439 . S
O269 Cd268 2.240 . S
O269 C274 1.279 . S
O270 Cd267 2.297 . S
O270 C272 1.247 . S
O271 Cd267 2.439 . S
O271 C272 1.208 . S
C272 O270 1.247 . S
C272 O271 1.208 . S
C273 O278 1.256 . S
C273 O279 1.208 . S
C274 O266 1.315 . S
C274 O269 1.279 . S
C275 O276 1.315 . S
C275 O277 1.279 . S
O276 Cd268 2.223 . S
O276 C275 1.315 . S
O277 Cd267 2.240 . S
O277 C275 1.279 . S
O278 Cd268 2.305 . S
O278 C273 1.256 . S
O279 Cd268 2.439 . S
O279 C273 1.208 . S
O280 Cd281 2.223 . S
O280 C288 1.315 . S
Cd281 O280 2.223 . S
Cd281 O284 2.297 . S
Cd281 O285 2.439 . S
Cd281 O291 2.240 . S
Cd282 O283 2.240 . S
Cd282 O290 2.223 . S
Cd282 O292 2.297 . S
Cd282 O293 2.439 . S
O283 Cd282 2.240 . S
O283 C288 1.279 . S
O284 Cd281 2.297 . S
O284 C286 1.247 . S
O285 Cd281 2.439 . S
O285 C286 1.208 . S
C286 O284 1.247 . S
C286 O285 1.208 . S
C287 O292 1.247 . S
C287 O293 1.208 . S
C288 O280 1.315 . S
C288 O283 1.279 . S
C289 O290 1.315 . S
C289 O291 1.279 . S
O290 Cd282 2.223 . S
O290 C289 1.315 . S
O291 Cd281 2.240 . S
O291 C289 1.279 . S
O292 Cd282 2.297 . S
O292 C287 1.247 . S
O293 Cd282 2.439 . S
O293 C287 1.208 . S
O294 Cd295 2.223 . S
O294 C302 1.315 . S
Cd295 O294 2.223 . S
Cd295 O298 2.297 . S
Cd295 O299 2.439 . S
Cd295 O305 2.240 . S
Cd296 O297 2.240 . S
Cd296 O304 2.223 . S
Cd296 O306 2.310 . S
Cd296 O307 2.439 . S
O297 Cd296 2.240 . S
O297 C302 1.279 . S
O298 Cd295 2.297 . S
O298 C300 1.247 . S
O299 Cd295 2.439 . S
O299 C300 1.208 . S
C300 O298 1.247 . S
C300 O299 1.208 . S
C301 O306 1.268 . S
C301 O307 1.208 . S
C302 O294 1.315 . S
C302 O297 1.279 . S
C303 O304 1.315 . S
C303 O305 1.279 . S
O304 Cd296 2.223 . S
O304 C303 1.315 . S
O305 Cd295 2.240 . S
O305 C303 1.279 . S
O306 Cd296 2.310 . S
O306 C301 1.268 . S
O307 Cd296 2.439 . S
O307 C301 1.208 . S
O308 Cd309 2.223 . S
O308 C316 1.315 . S
Cd309 O308 2.223 . S
Cd309 O312 2.297 . S
Cd309 O313 2.439 . S
Cd309 O319 2.240 . S
Cd310 O311 2.240 . S
Cd310 O318 2.223 . S
Cd310 O320 2.305 . S
Cd310 O321 2.439 . S
O311 Cd310 2.240 . S
O311 C316 1.279 . S
O312 Cd309 2.297 . S
O312 C314 1.247 . S
O313 Cd309 2.439 . S
O313 C314 1.208 . S
C314 O312 1.247 . S
C314 O313 1.208 . S
C315 O320 1.256 . S
C315 O321 1.208 . S
C316 O308 1.315 . S
C316 O311 1.279 . S
C317 O318 1.315 . S
C317 O319 1.279 . S
O318 Cd310 2.223 . S
O318 C317 1.315 . S
O319 Cd309 2.240 . S
O319 C317 1.279 . S
O320 Cd310 2.305 . S
O320 C315 1.256 . S
O321 Cd310 2.439 . S
O321 C315 1.208 . S
O322 Cd323 2.223 . S
O322 C330 1.315 . S
Cd323 O322 2.223 . S
Cd323 O326 2.297 . S
Cd323 O327 2.439 . S
Cd323 O333 2.240 . S
Cd324 O325 2.240 . S
Cd324 O332 2.223 . S
Cd324 O334 2.297 . S
Cd324 O335 2.439 . S
O325 Cd324 2.240 . S
O325 C330 1.279 . S
O326 Cd323 2.297 . S
O326 C328 1.247 . S
O327 Cd323 2.439 . S
O327 C328 1.208 . S
C328 O326 1.247 . S
C328 O327 1.208 . S
C329 O334 1.247 . S
C329 O335 1.208 . S
C330 O322 1.315 . S
C330 O325 1.279 . S
C331 O332 1.315 . S
C331 O333 1.279 . S
O332 Cd324 2.223 . S
O332 C331 1.315 . S
O333 Cd323 2.240 . S
O333 C331 1.279 . S
O334 Cd324 2.297 . S
O334 C329 1.247 . S
O335 Cd324 2.439 . S
O335 C329 1.208 . S
C336 C337 1.369 . S
C336 C338 1.419 . S
C336 H340 0.930 . S
C337 C336 1.369 . S
C337 C346 1.429 . S
C338 C336 1.419 . S
C338 C339 1.363 . S
C338 H341 0.929 . S
C339 C338 1.363 . S
C339 C345 1.428 . S
H340 C336 0.930 . S
H341 C338 0.929 . S
S342 N343 1.613 . S
S342 N344 1.610 . S
N343 S342 1.613 . S
N343 C346 1.350 . S
N344 S342 1.610 . S
N344 C345 1.351 . S
C345 C339 1.428 . S
C345 N344 1.351 . S
C345 C346 1.434 . S
C346 C337 1.429 . S
C346 N343 1.350 . S
C346 C345 1.434 . S
C347 C348 1.369 . S
C347 C349 1.419 . S
C347 H351 0.930 . S
C348 C347 1.369 . S
C348 C357 1.429 . S
C349 C347 1.419 . S
C349 C350 1.363 . S
C349 H352 0.929 . S
C350 C349 1.363 . S
C350 C356 1.428 . S
H351 C347 0.930 . S
H352 C349 0.929 . S
S353 N354 1.613 . S
S353 N355 1.610 . S
N354 S353 1.613 . S
N354 C357 1.350 . S
N355 S353 1.610 . S
N355 C356 1.351 . S
C356 C350 1.428 . S
C356 N355 1.351 . S
C356 C357 1.434 . S
C357 C348 1.429 . S
C357 N354 1.350 . S
C357 C356 1.434 . S
C358 C359 1.369 . S
C358 C360 1.419 . S
C358 H362 0.930 . S
C359 C358 1.369 . S
C359 C368 1.429 . S
C360 C358 1.419 . S
C360 C361 1.363 . S
C360 H363 0.929 . S
C361 C360 1.363 . S
C361 C367 1.428 . S
H362 C358 0.930 . S
H363 C360 0.929 . S
S364 N365 1.613 . S
S364 N366 1.610 . S
N365 S364 1.613 . S
N365 C368 1.350 . S
N366 S364 1.610 . S
N366 C367 1.351 . S
C367 C361 1.428 . S
C367 N366 1.351 . S
C367 C368 1.434 . S
C368 C359 1.429 . S
C368 N365 1.350 . S
C368 C367 1.434 . S
C369 C370 1.369 . S
C369 C371 1.419 . S
C369 H373 0.930 . S
C370 C369 1.369 . S
C370 C379 1.429 . S
C371 C369 1.419 . S
C371 C372 1.363 . S
C371 H374 0.929 . S
C372 C371 1.363 . S
C372 C378 1.428 . S
H373 C369 0.930 . S
H374 C371 0.929 . S
S375 N376 1.613 1_545 S
S375 N377 1.610 1_545 S
N376 S375 1.613 1_565 S
N376 C379 1.350 . S
N377 S375 1.610 1_565 S
N377 C378 1.351 . S
C378 C372 1.428 . S
C378 N377 1.351 . S
C378 C379 1.434 . S
C379 C370 1.429 . S
C379 N376 1.350 . S
C379 C378 1.434 . S
C380 C381 1.369 . S
C380 C382 1.419 . S
C380 H384 0.930 . S
C381 C380 1.369 . S
C381 C390 1.429 . S
C382 C380 1.419 . S
C382 C383 1.363 . S
C382 H385 0.929 . S
C383 C382 1.363 . S
C383 C389 1.428 . S
H384 C380 0.930 . S
H385 C382 0.929 . S
S386 N387 1.613 . S
S386 N388 1.610 . S
N387 S386 1.613 . S
N387 C390 1.350 . S
N388 S386 1.610 . S
N388 C389 1.351 . S
C389 C383 1.428 . S
C389 N388 1.351 . S
C389 C390 1.434 . S
C390 C381 1.429 . S
C390 N387 1.350 . S
C390 C389 1.434 . S
C391 C392 1.369 . S
C391 C393 1.419 . S
C391 H395 0.930 . S
C392 C391 1.369 . S
C392 C401 1.429 . S
C393 C391 1.419 . S
C393 C394 1.363 . S
C393 H396 0.929 . S
C394 C393 1.363 . S
C394 C400 1.428 . S
H395 C391 0.930 . S
H396 C393 0.929 . S
S397 N398 1.613 1_655 S
S397 N399 1.610 1_655 S
N398 S397 1.613 1_455 S
N398 C401 1.350 . S
N399 S397 1.610 1_455 S
N399 C400 1.351 . S
C400 C394 1.428 . S
C400 N399 1.351 . S
C400 C401 1.434 . S
C401 C392 1.429 . S
C401 N398 1.350 . S
C401 C400 1.434 . S
C402 C403 1.369 . S
C402 C404 1.419 . S
C402 H406 0.930 . S
C403 C402 1.369 . S
C403 C412 1.429 . S
C404 C402 1.419 . S
C404 C405 1.363 . S
C404 H407 0.929 . S
C405 C404 1.363 . S
C405 C411 1.428 . S
H406 C402 0.930 . S
H407 C404 0.929 . S
S408 N409 1.613 . S
S408 N410 1.610 . S
N409 S408 1.613 . S
N409 C412 1.350 . S
N410 S408 1.610 . S
N410 C411 1.351 . S
C411 C405 1.428 . S
C411 N410 1.351 . S
C411 C412 1.434 . S
C412 C403 1.429 . S
C412 N409 1.350 . S
C412 C411 1.434 . S
C413 C414 1.369 . S
C413 C415 1.419 . S
C413 H417 0.930 . S
C414 C413 1.369 . S
C414 C423 1.429 . S
C415 C413 1.419 . S
C415 C416 1.363 . S
C415 H418 0.929 . S
C416 C415 1.363 . S
C416 C422 1.428 . S
H417 C413 0.930 . S
H418 C415 0.929 . S
S419 N420 1.613 . S
S419 N421 1.610 . S
N420 S419 1.613 . S
N420 C423 1.350 . S
N421 S419 1.610 . S
N421 C422 1.351 . S
C422 C416 1.428 . S
C422 N421 1.351 . S
C422 C423 1.434 . S
C423 C414 1.429 . S
C423 N420 1.350 . S
C423 C422 1.434 . S
C424 C425 1.369 . S
C424 C426 1.419 . S
C424 H428 0.930 . S
C425 C424 1.369 . S
C425 C434 1.429 . S
C426 C424 1.419 . S
C426 C427 1.363 . S
C426 H429 0.929 . S
C427 C426 1.363 . S
C427 C433 1.428 . S
H428 C424 0.930 . S
H429 C426 0.929 . S
S430 N431 1.613 . S
S430 N432 1.610 . S
N431 S430 1.613 . S
N431 C434 1.350 . S
N432 S430 1.610 . S
N432 C433 1.351 . S
C433 C427 1.428 . S
C433 N432 1.351 . S
C433 C434 1.434 . S
C434 C425 1.429 . S
C434 N431 1.350 . S
C434 C433 1.434 . S
C435 C436 1.369 . S
C435 C437 1.419 . S
C435 H439 0.930 . S
C436 C435 1.369 . S
C436 C445 1.429 . S
C437 C435 1.419 . S
C437 C438 1.363 . S
C437 H440 0.929 . S
C438 C437 1.363 . S
C438 C444 1.428 . S
H439 C435 0.930 . S
H440 C437 0.929 . S
S441 N442 1.613 . S
S441 N443 1.610 . S
N442 S441 1.613 . S
N442 C445 1.350 . S
N443 S441 1.610 . S
N443 C444 1.351 . S
C444 C438 1.428 . S
C444 N443 1.351 . S
C444 C445 1.434 . S
C445 C436 1.429 . S
C445 N442 1.350 . S
C445 C444 1.434 . S
C446 C447 1.369 . S
C446 C448 1.419 . S
C446 H450 0.930 . S
C447 C446 1.369 . S
C447 C456 1.429 . S
C448 C446 1.419 . S
C448 C449 1.363 . S
C448 H451 0.929 . S
C449 C448 1.363 . S
C449 C455 1.428 . S
H450 C446 0.930 . S
H451 C448 0.929 . S
S452 N453 1.613 . S
S452 N454 1.610 . S
N453 S452 1.613 . S
N453 C456 1.350 . S
N454 S452 1.610 . S
N454 C455 1.351 . S
C455 C449 1.428 . S
C455 N454 1.351 . S
C455 C456 1.434 . S
C456 C447 1.429 . S
C456 N453 1.350 . S
C456 C455 1.434 . S
C457 C458 1.369 . S
C457 C459 1.419 . S
C457 H461 0.930 . S
C458 C457 1.369 . S
C458 C467 1.429 . S
C459 C457 1.419 . S
C459 C460 1.363 . S
C459 H462 0.929 . S
C460 C459 1.363 . S
C460 C466 1.428 . S
H461 C457 0.930 . S
H462 C459 0.929 . S
S463 N464 1.613 . S
S463 N465 1.610 . S
N464 S463 1.613 . S
N464 C467 1.350 . S
N465 S463 1.610 . S
N465 C466 1.351 . S
C466 C460 1.428 . S
C466 N465 1.351 . S
C466 C467 1.434 . S
C467 C458 1.429 . S
C467 N464 1.350 . S
C467 C466 1.434 . S
C468 C469 1.369 . S
C468 C470 1.419 . S
C468 H472 0.930 . S
C469 C468 1.369 . S
C469 C478 1.429 . S
C470 C468 1.419 . S
C470 C471 1.363 . S
C470 H473 0.929 . S
C471 C470 1.363 . S
C471 C477 1.428 . S
H472 C468 0.930 . S
H473 C470 0.929 . S
S474 N475 1.613 . S
S474 N476 1.610 . S
N475 S474 1.613 . S
N475 C478 1.350 . S
N476 S474 1.610 . S
N476 C477 1.351 . S
C477 C471 1.428 . S
C477 N476 1.351 . S
C477 C478 1.434 . S
C478 C469 1.429 . S
C478 N475 1.350 . S
C478 C477 1.434 . S
C479 C480 1.369 . S
C479 C481 1.419 . S
C479 H483 0.930 . S
C480 C479 1.369 . S
C480 C489 1.429 . S
C481 C479 1.419 . S
C481 C482 1.363 . S
C481 H484 0.929 . S
C482 C481 1.363 . S
C482 C488 1.428 . S
H483 C479 0.930 . S
H484 C481 0.929 . S
S485 N486 1.613 . S
S485 N487 1.610 . S
N486 S485 1.613 . S
N486 C489 1.350 . S
N487 S485 1.610 . S
N487 C488 1.351 . S
C488 C482 1.428 . S
C488 N487 1.351 . S
C488 C489 1.434 . S
C489 C480 1.429 . S
C489 N486 1.350 . S
C489 C488 1.434 . S
C490 C491 1.369 . S
C490 C492 1.419 . S
C490 H494 0.930 . S
C491 C490 1.369 . S
C491 C500 1.429 . S
C492 C490 1.419 . S
C492 C493 1.363 . S
C492 H495 0.929 . S
C493 C492 1.363 . S
C493 C499 1.428 . S
H494 C490 0.930 . S
H495 C492 0.929 . S
S496 N497 1.613 . S
S496 N498 1.610 . S
N497 S496 1.613 . S
N497 C500 1.350 . S
N498 S496 1.610 . S
N498 C499 1.351 . S
C499 C493 1.428 . S
C499 N498 1.351 . S
C499 C500 1.434 . S
C500 C491 1.429 . S
C500 N497 1.350 . S
C500 C499 1.434 . S
C501 C502 1.369 . S
C501 C503 1.419 . S
C501 H505 0.930 . S
C502 C501 1.369 . S
C502 C511 1.429 . S
C503 C501 1.419 . S
C503 C504 1.363 . S
C503 H506 0.929 . S
C504 C503 1.363 . S
C504 C510 1.428 . S
H505 C501 0.930 . S
H506 C503 0.929 . S
S507 N508 1.613 . S
S507 N509 1.610 . S
N508 S507 1.613 . S
N508 C511 1.350 . S
N509 S507 1.610 . S
N509 C510 1.351 . S
C510 C504 1.428 . S
C510 N509 1.351 . S
C510 C511 1.434 . S
C511 C502 1.429 . S
C511 N508 1.350 . S
C511 C510 1.434 . S
C512 C513 1.369 . S
C512 C514 1.419 . S
C512 H516 0.930 . S
C513 C512 1.369 . S
C513 C522 1.429 . S
C514 C512 1.419 . S
C514 C515 1.363 . S
C514 H517 0.929 . S
C515 C514 1.363 . S
C515 C521 1.428 . S
H516 C512 0.930 . S
H517 C514 0.929 . S
S518 N519 1.613 . S
S518 N520 1.610 . S
N519 S518 1.613 . S
N519 C522 1.350 . S
N520 S518 1.610 . S
N520 C521 1.351 . S
C521 C515 1.428 . S
C521 N520 1.351 . S
C521 C522 1.434 . S
C522 C513 1.429 . S
C522 N519 1.350 . S
C522 C521 1.434 . S
C523 C524 1.369 . S
C523 C525 1.419 . S
C523 H527 0.930 . S
C524 C523 1.369 . S
C524 C533 1.429 . S
C525 C523 1.419 . S
C525 C526 1.363 . S
C525 H528 0.929 . S
C526 C525 1.363 . S
C526 C532 1.428 . S
H527 C523 0.930 . S
H528 C525 0.929 . S
S529 N530 1.613 . S
S529 N531 1.610 . S
N530 S529 1.613 . S
N530 C533 1.350 . S
N531 S529 1.610 . S
N531 C532 1.351 . S
C532 C526 1.428 . S
C532 N531 1.351 . S
C532 C533 1.434 . S
C533 C524 1.429 . S
C533 N530 1.350 . S
C533 C532 1.434 . S
C534 C535 1.369 . S
C534 C536 1.419 . S
C534 H538 0.930 . S
C535 C534 1.369 . S
C535 C544 1.429 . S
C536 C534 1.419 . S
C536 C537 1.363 . S
C536 H539 0.929 . S
C537 C536 1.363 . S
C537 C543 1.428 . S
H538 C534 0.930 . S
H539 C536 0.929 . S
S540 N541 1.613 . S
S540 N542 1.610 . S
N541 S540 1.613 . S
N541 C544 1.350 . S
N542 S540 1.610 . S
N542 C543 1.351 . S
C543 C537 1.428 . S
C543 N542 1.351 . S
C543 C544 1.434 . S
C544 C535 1.429 . S
C544 N541 1.350 . S
C544 C543 1.434 . S
C545 C546 1.369 . S
C545 C547 1.419 . S
C545 H549 0.930 . S
C546 C545 1.369 . S
C546 C555 1.429 . S
C547 C545 1.419 . S
C547 C548 1.363 . S
C547 H550 0.929 . S
C548 C547 1.363 . S
C548 C554 1.428 . S
H549 C545 0.930 . S
H550 C547 0.929 . S
S551 N552 1.613 . S
S551 N553 1.610 . S
N552 S551 1.613 . S
N552 C555 1.350 . S
N553 S551 1.610 . S
N553 C554 1.351 . S
C554 C548 1.428 . S
C554 N553 1.351 . S
C554 C555 1.434 . S
C555 C546 1.429 . S
C555 N552 1.350 . S
C555 C554 1.434 . S
C556 C557 1.369 . S
C556 C558 1.419 . S
C556 H560 0.930 . S
C557 C556 1.369 . S
C557 C566 1.429 . S
C558 C556 1.419 . S
C558 C559 1.363 . S
C558 H561 0.929 . S
C559 C558 1.363 . S
C559 C565 1.428 . S
H560 C556 0.930 . S
H561 C558 0.929 . S
S562 N563 1.613 . S
S562 N564 1.610 . S
N563 S562 1.613 . S
N563 C566 1.350 . S
N564 S562 1.610 . S
N564 C565 1.351 . S
C565 C559 1.428 . S
C565 N564 1.351 . S
C565 C566 1.434 . S
C566 C557 1.429 . S
C566 N563 1.350 . S
C566 C565 1.434 . S
C567 C568 1.369 . S
C567 C569 1.419 . S
C567 H571 0.930 . S
C568 C567 1.369 . S
C568 C577 1.429 . S
C569 C567 1.419 . S
C569 C570 1.363 . S
C569 H572 0.929 . S
C570 C569 1.363 . S
C570 C576 1.428 . S
H571 C567 0.930 . S
H572 C569 0.929 . S
S573 N574 1.613 . S
S573 N575 1.610 . S
N574 S573 1.613 . S
N574 C577 1.350 . S
N575 S573 1.610 . S
N575 C576 1.351 . S
C576 C570 1.428 . S
C576 N575 1.351 . S
C576 C577 1.434 . S
C577 C568 1.429 . S
C577 N574 1.350 . S
C577 C576 1.434 . S
C578 C579 1.369 . S
C578 C580 1.419 . S
C578 H582 0.930 . S
C579 C578 1.369 . S
C579 C588 1.429 . S
C580 C578 1.419 . S
C580 C581 1.363 . S
C580 H583 0.929 . S
C581 C580 1.363 . S
C581 C587 1.428 . S
H582 C578 0.930 . S
H583 C580 0.929 . S
S584 N585 1.613 . S
S584 N586 1.610 . S
N585 S584 1.613 . S
N585 C588 1.350 . S
N586 S584 1.610 . S
N586 C587 1.351 . S
C587 C581 1.428 . S
C587 N586 1.351 . S
C587 C588 1.434 . S
C588 C579 1.429 . S
C588 N585 1.350 . S
C588 C587 1.434 . S
C589 C590 1.369 . S
C589 C591 1.419 . S
C589 H593 0.930 . S
C590 C589 1.369 . S
C590 C599 1.429 . S
C591 C589 1.419 . S
C591 C592 1.363 . S
C591 H594 0.929 . S
C592 C591 1.363 . S
C592 C598 1.428 . S
H593 C589 0.930 . S
H594 C591 0.929 . S
S595 N596 1.613 . S
S595 N597 1.610 . S
N596 S595 1.613 . S
N596 C599 1.350 . S
N597 S595 1.610 . S
N597 C598 1.351 . S
C598 C592 1.428 . S
C598 N597 1.351 . S
C598 C599 1.434 . S
C599 C590 1.429 . S
C599 N596 1.350 . S
C599 C598 1.434 . S
C600 C601 1.369 . S
C600 C602 1.419 1_566 S
C600 H604 0.930 . S
C601 C600 1.369 . S
C601 C610 1.429 . S
C602 C600 1.419 1_544 S
C602 C603 1.363 . S
C602 H605 0.929 . S
C603 C602 1.363 . S
C603 C609 1.428 . S
H604 C600 0.930 . S
H605 C602 0.929 . S
S606 N607 1.613 1_554 S
S606 N608 1.610 1_565 S
N607 S606 1.613 1_556 S
N607 C610 1.350 . S
N608 S606 1.610 1_545 S
N608 C609 1.351 . S
C609 C603 1.428 . S
C609 N608 1.351 . S
C609 C610 1.434 1_544 S
C610 C601 1.429 . S
C610 N607 1.350 . S
C610 C609 1.434 1_566 S
C611 C612 1.369 . S
C611 C613 1.419 . S
C611 H615 0.930 . S
C612 C611 1.369 . S
C612 C621 1.429 . S
C613 C611 1.419 . S
C613 C614 1.363 . S
C613 H616 0.929 . S
C614 C613 1.363 . S
C614 C620 1.428 . S
H615 C611 0.930 . S
H616 C613 0.929 . S
S617 N618 1.613 . S
S617 N619 1.610 . S
N618 S617 1.613 . S
N618 C621 1.350 . S
N619 S617 1.610 . S
N619 C620 1.351 . S
C620 C614 1.428 . S
C620 N619 1.351 . S
C620 C621 1.434 . S
C621 C612 1.429 . S
C621 N618 1.350 . S
C621 C620 1.434 . S
C622 C623 1.369 1_655 S
C622 C624 1.419 1_556 S
C622 H626 0.930 . S
C623 C622 1.369 1_455 S
C623 C632 1.429 . S
C624 C622 1.419 1_554 S
C624 C625 1.363 . S
C624 H627 0.929 . S
C625 C624 1.363 . S
C625 C631 1.428 1_655 S
H626 C622 0.930 . S
H627 C624 0.929 . S
S628 N629 1.613 1_554 S
S628 N630 1.610 . S
N629 S628 1.613 1_556 S
N629 C632 1.350 . S
N630 S628 1.610 . S
N630 C631 1.351 . S
C631 C625 1.428 1_455 S
C631 N630 1.351 . S
C631 C632 1.434 1_554 S
C632 C623 1.429 . S
C632 N629 1.350 . S
C632 C631 1.434 1_556 S
C633 C634 1.369 . S
C633 C635 1.419 . S
C633 H637 0.930 . S
C634 C633 1.369 . S
C634 C643 1.429 1_545 S
C635 C633 1.419 . S
C635 C636 1.363 1_545 S
C635 H638 0.929 . S
C636 C635 1.363 1_565 S
C636 C642 1.428 . S
H637 C633 0.930 . S
H638 C635 0.929 . S
S639 N640 1.613 . S
S639 N641 1.610 . S
N640 S639 1.613 . S
N640 C643 1.350 . S
N641 S639 1.610 . S
N641 C642 1.351 . S
C642 C636 1.428 . S
C642 N641 1.351 . S
C642 C643 1.434 . S
C643 C634 1.429 1_565 S
C643 N640 1.350 . S
C643 C642 1.434 . S
C644 C645 1.369 . S
C644 C646 1.419 1_554 S
C644 H648 0.930 . S
C645 C644 1.369 . S
C645 C654 1.429 . S
C646 C644 1.419 1_556 S
C646 C647 1.363 . S
C646 H649 0.929 . S
C647 C646 1.363 . S
C647 C653 1.428 . S
H648 C644 0.930 . S
H649 C646 0.929 . S
S650 N651 1.613 . S
S650 N652 1.610 1_554 S
N651 S650 1.613 . S
N651 C654 1.350 . S
N652 S650 1.610 1_556 S
N652 C653 1.351 . S
C653 C647 1.428 . S
C653 N652 1.351 . S
C653 C654 1.434 1_556 S
C654 C645 1.429 . S
C654 N651 1.350 . S
C654 C653 1.434 1_554 S
C655 C656 1.369 . S
C655 C657 1.419 . S
C655 H659 0.930 . S
C656 C655 1.369 . S
C656 C665 1.429 1_455 S
C657 C655 1.419 . S
C657 C658 1.363 1_455 S
C657 H660 0.929 . S
C658 C657 1.363 1_655 S
C658 C664 1.428 . S
H659 C655 0.930 . S
H660 C657 0.929 . S
S661 N662 1.613 . S
S661 N663 1.610 . S
N662 S661 1.613 . S
N662 C665 1.350 . S
N663 S661 1.610 . S
N663 C664 1.351 . S
C664 C658 1.428 . S
C664 N663 1.351 . S
C664 C665 1.434 . S
C665 C656 1.429 1_655 S
C665 N662 1.350 . S
C665 C664 1.434 . S
C666 C667 1.369 . S
C666 C668 1.419 1_556 S
C666 H670 0.930 . S
C667 C666 1.369 . S
C667 C676 1.429 1_565 S
C668 C666 1.419 1_554 S
C668 C669 1.363 1_565 S
C668 H671 0.929 . S
C669 C668 1.363 1_545 S
C669 C675 1.428 . S
H670 C666 0.930 . S
H671 C668 0.929 . S
S672 N673 1.613 . S
S672 N674 1.610 1_556 S
N673 S672 1.613 . S
N673 C676 1.350 . S
N674 S672 1.610 1_554 S
N674 C675 1.351 . S
C675 C669 1.428 . S
C675 N674 1.351 . S
C675 C676 1.434 1_554 S
C676 C667 1.429 1_545 S
C676 N673 1.350 . S
C676 C675 1.434 1_556 S
C677 C678 1.369 . S
C677 C679 1.419 . S
C677 H681 0.930 . S
C678 C677 1.369 . S
C678 C687 1.429 . S
C679 C677 1.419 . S
C679 C680 1.363 . S
C679 H682 0.929 . S
C680 C679 1.363 . S
C680 C686 1.428 . S
H681 C677 0.930 . S
H682 C679 0.929 . S
S683 N684 1.613 . S
S683 N685 1.610 . S
N684 S683 1.613 . S
N684 C687 1.350 . S
N685 S683 1.610 . S
N685 C686 1.351 . S
C686 C680 1.428 . S
C686 N685 1.351 . S
C686 C687 1.434 . S
C687 C678 1.429 . S
C687 N684 1.350 . S
C687 C686 1.434 . S
C688 C689 1.370 1_455 S
C688 C690 1.422 1_554 S
C688 H692 0.941 . S
C689 C688 1.370 1_655 S
C689 C698 1.429 . S
C690 C688 1.422 1_556 S
C690 C691 1.363 . S
C690 H693 0.929 . S
C691 C690 1.363 . S
C691 C697 1.429 1_455 S
H692 C688 0.941 . S
H693 C690 0.929 . S
S694 N695 1.613 1_556 S
S694 N696 1.610 . S
N695 S694 1.613 1_554 S
N695 C698 1.350 . S
N696 S694 1.610 . S
N696 C697 1.347 . S
C697 C691 1.429 1_655 S
C697 N696 1.347 . S
C697 C698 1.437 1_556 S
C698 C689 1.429 . S
C698 N695 1.350 . S
C698 C697 1.437 1_554 S
C699 C700 1.369 . S
C699 C701 1.419 . S
C699 H703 0.930 . S
C700 C699 1.369 . S
C700 C709 1.429 1_565 S
C701 C699 1.419 . S
C701 C702 1.363 1_565 S
C701 H704 0.929 . S
C702 C701 1.363 1_545 S
C702 C708 1.428 . S
H703 C699 0.930 . S
H704 C701 0.929 . S
S705 N706 1.613 . S
S705 N707 1.610 . S
N706 S705 1.613 . S
N706 C709 1.350 . S
N707 S705 1.610 . S
N707 C708 1.351 . S
C708 C702 1.428 . S
C708 N707 1.351 . S
C708 C709 1.434 . S
C709 C700 1.429 1_545 S
C709 N706 1.350 . S
C709 C708 1.434 . S
C710 C711 1.369 . S
C710 C712 1.419 1_554 S
C710 H714 0.930 . S
C711 C710 1.369 . S
C711 C720 1.429 . S
C712 C710 1.419 1_556 S
C712 C713 1.363 . S
C712 H715 0.929 . S
C713 C712 1.363 . S
C713 C719 1.428 . S
H714 C710 0.930 . S
H715 C712 0.929 . S
S716 N717 1.613 1_556 S
S716 N718 1.610 . S
N717 S716 1.613 1_554 S
N717 C720 1.350 . S
N718 S716 1.610 . S
N718 C719 1.351 . S
C719 C713 1.428 . S
C719 N718 1.351 . S
C719 C720 1.434 1_556 S
C720 C711 1.429 . S
C720 N717 1.350 . S
C720 C719 1.434 1_554 S
C721 C722 1.369 . S
C721 C723 1.419 . S
C721 H725 0.930 . S
C722 C721 1.369 . S
C722 C731 1.429 1_455 S
C723 C721 1.419 . S
C723 C724 1.363 1_455 S
C723 H726 0.929 . S
C724 C723 1.363 1_655 S
C724 C730 1.428 . S
H725 C721 0.930 . S
H726 C723 0.929 . S
S727 N728 1.613 . S
S727 N729 1.610 . S
N728 S727 1.613 . S
N728 C731 1.350 . S
N729 S727 1.610 . S
N729 C730 1.351 . S
C730 C724 1.428 . S
C730 N729 1.351 . S
C730 C731 1.434 . S
C731 C722 1.429 1_655 S
C731 N728 1.350 . S
C731 C730 1.434 . S
C732 C733 1.369 . S
C732 C734 1.419 . S
C732 H736 0.930 . S
C733 C732 1.369 . S
C733 C742 1.429 . S
C734 C732 1.419 . S
C734 C735 1.363 . S
C734 H737 0.929 . S
C735 C734 1.363 . S
C735 C741 1.428 . S
H736 C732 0.930 . S
H737 C734 0.929 . S
S738 N739 1.613 1_565 S
S738 N740 1.610 1_565 S
N739 S738 1.613 1_545 S
N739 C742 1.350 . S
N740 S738 1.610 1_545 S
N740 C741 1.351 . S
C741 C735 1.428 . S
C741 N740 1.351 . S
C741 C742 1.434 . S
C742 C733 1.429 . S
C742 N739 1.350 . S
C742 C741 1.434 . S
C743 C744 1.369 . S
C743 C745 1.419 . S
C743 H747 0.930 . S
C744 C743 1.369 . S
C744 C753 1.429 . S
C745 C743 1.419 . S
C745 C746 1.363 . S
C745 H748 0.929 . S
C746 C745 1.363 . S
C746 C752 1.428 . S
H747 C743 0.930 . S
H748 C745 0.929 . S
S749 N750 1.613 . S
S749 N751 1.610 . S
N750 S749 1.613 . S
N750 C753 1.350 . S
N751 S749 1.610 . S
N751 C752 1.351 . S
C752 C746 1.428 . S
C752 N751 1.351 . S
C752 C753 1.434 . S
C753 C744 1.429 . S
C753 N750 1.350 . S
C753 C752 1.434 . S
C754 C755 1.369 . S
C754 C756 1.419 . S
C754 H758 0.930 . S
C755 C754 1.369 . S
C755 C764 1.429 . S
C756 C754 1.419 . S
C756 C757 1.363 . S
C756 H759 0.929 . S
C757 C756 1.363 . S
C757 C763 1.428 . S
H758 C754 0.930 . S
H759 C756 0.929 . S
S760 N761 1.613 1_455 S
S760 N762 1.610 1_455 S
N761 S760 1.613 1_655 S
N761 C764 1.350 . S
N762 S760 1.610 1_655 S
N762 C763 1.351 . S
C763 C757 1.428 . S
C763 N762 1.351 . S
C763 C764 1.434 . S
C764 C755 1.429 . S
C764 N761 1.350 . S
C764 C763 1.434 . S
C765 C766 1.369 . S
C765 C767 1.419 . S
C765 H769 0.930 . S
C766 C765 1.369 . S
C766 C775 1.429 . S
C767 C765 1.419 . S
C767 C768 1.363 . S
C767 H770 0.929 . S
C768 C767 1.363 . S
C768 C774 1.428 . S
H769 C765 0.930 . S
H770 C767 0.929 . S
S771 N772 1.613 . S
S771 N773 1.610 . S
N772 S771 1.613 . S
N772 C775 1.350 . S
N773 S771 1.610 . S
N773 C774 1.351 . S
C774 C768 1.428 . S
C774 N773 1.351 . S
C774 C775 1.434 . S
C775 C766 1.429 . S
C775 N772 1.350 . S
C775 C774 1.434 . S
C776 C777 1.369 . S
C776 C778 1.419 . S
C776 H780 0.930 . S
C777 C776 1.369 . S
C777 C786 1.429 . S
C778 C776 1.419 . S
C778 C779 1.363 . S
C778 H781 0.929 . S
C779 C778 1.363 . S
C779 C785 1.428 . S
H780 C776 0.930 . S
H781 C778 0.929 . S
S782 N783 1.613 . S
S782 N784 1.610 . S
N783 S782 1.613 . S
N783 C786 1.350 . S
N784 S782 1.610 . S
N784 C785 1.351 . S
C785 C779 1.428 . S
C785 N784 1.351 . S
C785 C786 1.434 . S
C786 C777 1.429 . S
C786 N783 1.350 . S
C786 C785 1.434 . S
C787 C788 1.369 . S
C787 C789 1.419 . S
C787 H791 0.930 . S
C788 C787 1.369 . S
C788 C797 1.429 . S
C789 C787 1.419 . S
C789 C790 1.363 . S
C789 H792 0.929 . S
C790 C789 1.363 . S
C790 C796 1.428 . S
H791 C787 0.930 . S
H792 C789 0.929 . S
S793 N794 1.613 1_655 S
S793 N795 1.610 1_655 S
N794 S793 1.613 1_455 S
N794 C797 1.350 . S
N795 S793 1.610 1_455 S
N795 C796 1.351 . S
C796 C790 1.428 . S
C796 N795 1.351 . S
C796 C797 1.434 . S
C797 C788 1.429 . S
C797 N794 1.350 . S
C797 C796 1.434 . S
C798 C799 1.369 . S
C798 C800 1.419 . S
C798 H802 0.930 . S
C799 C798 1.369 . S
C799 C808 1.429 . S
C800 C798 1.419 . S
C800 C801 1.363 . S
C800 H803 0.929 . S
C801 C800 1.363 . S
C801 C807 1.428 . S
H802 C798 0.930 . S
H803 C800 0.929 . S
S804 N805 1.613 . S
S804 N806 1.610 . S
N805 S804 1.613 . S
N805 C808 1.350 . S
N806 S804 1.610 . S
N806 C807 1.351 . S
C807 C801 1.428 . S
C807 N806 1.351 . S
C807 C808 1.434 . S
C808 C799 1.429 . S
C808 N805 1.350 . S
C808 C807 1.434 . S
C809 C810 1.369 . S
C809 C811 1.419 . S
C809 H813 0.930 . S
C810 C809 1.369 . S
C810 C819 1.429 . S
C811 C809 1.419 . S
C811 C812 1.363 . S
C811 H814 0.929 . S
C812 C811 1.363 . S
C812 C818 1.428 . S
H813 C809 0.930 . S
H814 C811 0.929 . S
S815 N816 1.613 . S
S815 N817 1.610 . S
N816 S815 1.613 . S
N816 C819 1.350 . S
N817 S815 1.610 . S
N817 C818 1.351 . S
C818 C812 1.428 . S
C818 N817 1.351 . S
C818 C819 1.434 . S
C819 C810 1.429 . S
C819 N816 1.350 . S
C819 C818 1.434 . S
C820 C821 1.369 . S
C820 C822 1.419 . S
C820 H824 0.930 . S
C821 C820 1.369 . S
C821 C830 1.429 . S
C822 C820 1.419 . S
C822 C823 1.363 . S
C822 H825 0.929 . S
C823 C822 1.363 . S
C823 C829 1.428 . S
H824 C820 0.930 . S
H825 C822 0.929 . S
S826 N827 1.613 . S
S826 N828 1.610 . S
N827 S826 1.613 . S
N827 C830 1.350 . S
N828 S826 1.610 . S
N828 C829 1.351 . S
C829 C823 1.428 . S
C829 N828 1.351 . S
C829 C830 1.434 . S
C830 C821 1.429 . S
C830 N827 1.350 . S
C830 C829 1.434 . S
C831 C832 1.369 . S
C831 C833 1.419 . S
C831 H835 0.930 . S
C832 C831 1.369 . S
C832 C841 1.429 . S
C833 C831 1.419 . S
C833 C834 1.363 . S
C833 H836 0.929 . S
C834 C833 1.363 . S
C834 C840 1.428 . S
H835 C831 0.930 . S
H836 C833 0.929 . S
S837 N838 1.613 1_655 S
S837 N839 1.610 1_655 S
N838 S837 1.613 1_455 S
N838 C841 1.350 . S
N839 S837 1.610 1_455 S
N839 C840 1.351 . S
C840 C834 1.428 . S
C840 N839 1.351 . S
C840 C841 1.434 . S
C841 C832 1.429 . S
C841 N838 1.350 . S
C841 C840 1.434 . S
C842 C843 1.369 . S
C842 C844 1.419 . S
C842 H846 0.930 . S
C843 C842 1.369 . S
C843 C852 1.429 . S
C844 C842 1.419 . S
C844 C845 1.363 . S
C844 H847 0.929 . S
C845 C844 1.363 . S
C845 C851 1.428 . S
H846 C842 0.930 . S
H847 C844 0.929 . S
S848 N849 1.613 1_565 S
S848 N850 1.610 1_565 S
N849 S848 1.613 1_545 S
N849 C852 1.350 . S
N850 S848 1.610 1_545 S
N850 C851 1.351 . S
C851 C845 1.428 . S
C851 N850 1.351 . S
C851 C852 1.434 . S
C852 C843 1.429 . S
C852 N849 1.350 . S
C852 C851 1.434 . S
C853 C854 1.369 . S
C853 C855 1.419 . S
C853 H857 0.930 . S
C854 C853 1.369 . S
C854 C863 1.429 . S
C855 C853 1.419 . S
C855 C856 1.363 . S
C855 H858 0.929 . S
C856 C855 1.363 . S
C856 C862 1.428 . S
H857 C853 0.930 . S
H858 C855 0.929 . S
S859 N860 1.613 . S
S859 N861 1.610 . S
N860 S859 1.613 . S
N860 C863 1.350 . S
N861 S859 1.610 . S
N861 C862 1.351 . S
C862 C856 1.428 . S
C862 N861 1.351 . S
C862 C863 1.434 . S
C863 C854 1.429 . S
C863 N860 1.350 . S
C863 C862 1.434 . S
C337 C218 1.323 . S
C339 C8 1.323 . S
C348 C22 1.323 . S
C350 C232 1.324 . S
C359 C36 1.325 . S
C361 C246 1.325 . S
C370 C50 1.331 . S
C372 C176 1.330 . S
C381 C190 1.324 . S
C383 C64 1.324 . S
C392 C78 1.330 . S
C394 C204 1.329 . S
C403 C302 1.330 . S
C405 C92 1.329 . S
C414 C106 1.327 . S
C416 C316 1.327 . S
C425 C120 1.329 . S
C427 C330 1.328 . S
C436 C260 1.322 . S
C438 C134 1.323 . S
C447 C148 1.322 . S
C449 C274 1.323 . S
C458 C288 1.323 . S
C460 C162 1.323 . S
C469 C6 1.583 . S
C471 C328 1.583 . S
C480 C258 1.585 . S
C482 C20 1.584 . S
C491 C34 1.580 . S
C493 C272 1.580 . S
C502 C286 1.580 . S
C504 C48 1.580 . S
C513 C62 1.582 . S
C515 C300 1.582 . S
C524 C314 1.581 . S
C526 C76 1.582 . S
C535 C90 1.583 . S
C537 C188 1.583 . S
C546 C202 1.583 . S
C548 C104 1.583 . S
C557 C216 1.587 . S
C559 C118 1.586 . S
C568 C230 1.579 . S
C570 C132 1.580 . S
C579 C146 1.586 . S
C581 C244 1.585 . S
C590 C160 1.587 . S
C592 C174 1.586 . S
C601 C105 1.435 . S
C603 C7 1.435 . S
C612 C119 1.438 . S
C614 C21 1.436 . S
C623 C133 1.438 . S
C625 C35 1.436 . S
C634 C147 1.435 . S
C636 C49 1.437 . S
C645 C63 1.435 . S
C647 C161 1.437 . S
C656 C77 1.434 . S
C658 C91 1.436 . S
C667 C175 1.435 . S
C669 C273 1.437 . S
C678 C189 1.437 . S
C680 C287 1.437 . S
C689 C301 1.434 . S
C691 C203 1.435 . S
C700 C315 1.435 . S
C702 C217 1.437 . S
C711 C329 1.434 . S
C713 C231 1.435 . S
C722 C259 1.435 . S
C724 C245 1.437 . S
C733 C9 1.719 . S
C735 C275 1.720 . S
C744 C289 1.722 . S
C746 C23 1.722 . S
C755 C37 1.719 . S
C757 C303 1.719 . S
C766 C317 1.720 . S
C768 C51 1.720 . S
C777 C65 1.719 . S
C779 C331 1.719 . S
C788 C261 1.718 . S
C790 C79 1.719 . S
C799 C93 1.722 . S
C801 C247 1.722 . S
C810 C177 1.719 . S
C812 C107 1.719 . S
C821 C121 1.720 . S
C823 C191 1.720 . S
C832 C135 1.720 . S
C834 C205 1.720 . S
C843 C149 1.720 . S
C845 C219 1.720 . S
C854 C163 1.722 . S
C856 C233 1.722 . S
