# Generated by pormake.
# Topology umm, (4)-cn, num edge types: 1
# Building blocks:
#     Node 0, Type 0, BuildingBlock: ESEHIV_clean_sbu_0, # of connection points: 4
#     Node 1, Type 0, BuildingBlock: ESEHIV_clean_sbu_0, # of connection points: 4
#     Node 2, Type 0, BuildingBlock: ESEHIV_clean_sbu_0, # of connection points: 4
#     Node 3, Type 0, BuildingBlock: ESEHIV_clean_sbu_0, # of connection points: 4
#     Node 4, Type 0, BuildingBlock: ESEHIV_clean_sbu_0, # of connection points: 4
#     Node 5, Type 0, BuildingBlock: ESEHIV_clean_sbu_0, # of connection points: 4
#     Node 6, Type 0, BuildingBlock: ESEHIV_clean_sbu_0, # of connection points: 4
#     Node 7, Type 0, BuildingBlock: ESEHIV_clean_sbu_0, # of connection points: 4
#     Node 8, Type 0, BuildingBlock: ESEHIV_clean_sbu_0, # of connection points: 4
#     Node 9, Type 0, BuildingBlock: ESEHIV_clean_sbu_0, # of connection points: 4
#     Node 10, Type 0, BuildingBlock: ESEHIV_clean_sbu_0, # of connection points: 4
#     Node 11, Type 0, BuildingBlock: ESEHIV_clean_sbu_0, # of connection points: 4
#     Edge 12, Type (0, 0), BuildingBlock: OJICUG_clean_linker_0, # of connection points: 2
#     Edge 13, Type (0, 0), BuildingBlock: OJICUG_clean_linker_0, # of connection points: 2
#     Edge 14, Type (0, 0), BuildingBlock: OJICUG_clean_linker_0, # of connection points: 2
#     Edge 15, Type (0, 0), BuildingBlock: OJICUG_clean_linker_0, # of connection points: 2
#     Edge 16, Type (0, 0), BuildingBlock: OJICUG_clean_linker_0, # of connection points: 2
#     Edge 17, Type (0, 0), BuildingBlock: OJICUG_clean_linker_0, # of connection points: 2
#     Edge 18, Type (0, 0), BuildingBlock: OJICUG_clean_linker_0, # of connection points: 2
#     Edge 19, Type (0, 0), BuildingBlock: OJICUG_clean_linker_0, # of connection points: 2
#     Edge 20, Type (0, 0), BuildingBlock: OJICUG_clean_linker_0, # of connection points: 2
#     Edge 21, Type (0, 0), BuildingBlock: OJICUG_clean_linker_0, # of connection points: 2
#     Edge 22, Type (0, 0), BuildingBlock: OJICUG_clean_linker_0, # of connection points: 2
#     Edge 23, Type (0, 0), BuildingBlock: OJICUG_clean_linker_0, # of connection points: 2
#     Edge 24, Type (0, 0), BuildingBlock: OJICUG_clean_linker_0, # of connection points: 2
#     Edge 25, Type (0, 0), BuildingBlock: OJICUG_clean_linker_0, # of connection points: 2
#     Edge 26, Type (0, 0), BuildingBlock: OJICUG_clean_linker_0, # of connection points: 2
#     Edge 27, Type (0, 0), BuildingBlock: OJICUG_clean_linker_0, # of connection points: 2
#     Edge 28, Type (0, 0), BuildingBlock: OJICUG_clean_linker_0, # of connection points: 2
#     Edge 29, Type (0, 0), BuildingBlock: OJICUG_clean_linker_0, # of connection points: 2
#     Edge 30, Type (0, 0), BuildingBlock: OJICUG_clean_linker_0, # of connection points: 2
#     Edge 31, Type (0, 0), BuildingBlock: OJICUG_clean_linker_0, # of connection points: 2
#     Edge 32, Type (0, 0), BuildingBlock: OJICUG_clean_linker_0, # of connection points: 2
#     Edge 33, Type (0, 0), BuildingBlock: OJICUG_clean_linker_0, # of connection points: 2
#     Edge 34, Type (0, 0), BuildingBlock: OJICUG_clean_linker_0, # of connection points: 2
#     Edge 35, Type (0, 0), BuildingBlock: OJICUG_clean_linker_0, # of connection points: 2
# Relax obj value: 0.041
# Max RMSD: 0.108
# Mean RMSD: 0.108
data_MOF--net-umm--node1-ESEHIV_clean_sbu_0--edge1-OJICUG_clean_linker_0
_symmetry_space_group_name_H-M    P1
_symmetry_Int_Tables_number       1
_symmetry_cell_setting            triclinic
loop_
_symmetry_equiv_pos_as_xyz
'x, y, z'
_cell_length_a     50.940744
_cell_length_b     51.154028
_cell_length_c     20.47664
_cell_angle_alpha  89.920956
_cell_angle_beta   90.068548
_cell_angle_gamma 119.96804
loop_
_atom_site_label
_atom_site_type_symbol
_atom_site_fract_x
_atom_site_fract_y
_atom_site_fract_z
_atom_type_partial_charge
Cu0 Cu 0.41668 0.54941 0.12976 0.0
N1 N 0.43353 0.52451 0.137 0.0
N2 N 0.47004 0.51238 0.14167 0.0
C3 C 0.46355 0.5349 0.13791 0.0
C4 C 0.44281 0.48673 0.14342 0.0
C5 C 0.4203 0.49429 0.14034 0.0
O6 O 0.4291 0.575 0.20728 0.0
C7 C 0.4276 0.588 1.01469 0.0
O8 O 0.40502 0.59209 1.03132 0.0
H9 H 0.48024 0.55868 0.13617 0.0
H10 H 0.3961 0.47891 0.13996 0.0
N11 N 0.3741 0.52705 0.12572 0.0
N12 N 0.3262 0.51254 0.09802 0.0
C13 C 0.35544 0.52672 0.07836 0.0
C14 C 0.35576 0.51183 0.17606 0.0
C15 C 0.32634 0.50304 0.15932 0.0
C16 C 0.42706 0.56259 0.26255 0.0
O17 O 0.41684 0.53342 0.26482 0.0
H18 H 0.36313 0.53799 1.03184 0.0
H19 H 0.36329 0.50857 0.22308 0.0
O20 O 0.43486 0.57228 0.05055 0.0
H21 H 0.43932 0.46406 0.14538 0.0
H22 H 0.30668 0.49149 0.19063 0.0
Cu23 Cu 0.88655 0.40516 0.44179 0.0
N24 N 0.928 0.42232 0.45727 0.0
N25 N 0.97605 0.45956 0.46808 0.0
C26 C 0.94674 0.45226 0.46283 0.0
C27 C 0.97561 0.43292 0.46617 0.0
C28 C 0.94592 0.40998 0.45918 0.0
O29 O 0.87091 0.41761 0.51504 0.0
C30 C 0.86203 0.41962 0.3263 0.0
O31 O 0.83443 0.4021 0.34824 0.0
H32 H 0.93885 0.46836 0.46189 0.0
H33 H 0.93816 0.38621 0.45363 0.0
N34 N 0.86695 0.36281 0.43539 0.0
N35 N 0.8326 0.3153 0.40889 0.0
C36 C 0.84329 0.34486 0.3966 0.0
C37 C 0.87161 0.34374 0.47263 0.0
C38 C 0.85033 0.31447 0.45678 0.0
C39 C 0.87241 0.40843 0.57211 0.0
O40 O 0.88216 0.38918 0.57858 0.0
H41 H 0.83335 0.35313 0.36152 0.0
H42 H 0.88889 0.35058 0.50981 0.0
O43 O 0.88475 0.42325 0.35947 0.0
H44 H 0.99536 0.43022 0.46701 0.0
H45 H 0.84795 0.29416 0.47891 0.0
Cu46 Cu 0.49135 0.87218 0.78283 0.0
N47 N 0.51729 0.91381 0.78418 0.0
N48 N 0.53197 0.96297 0.78533 0.0
C49 C 0.50828 0.93446 0.78542 0.0
C50 C 0.55688 0.96 0.78396 0.0
C51 C 0.54774 0.92963 0.78335 0.0
O52 O 0.46687 0.86353 0.86203 0.0
C53 C 0.45423 0.83886 0.67018 0.0
O54 O 0.44743 0.81368 0.70085 0.0
H55 H 0.4847 0.92854 0.78521 0.0
H56 H 0.56223 0.91979 0.78227 0.0
N57 N 0.51381 0.85238 0.78844 0.0
N58 N 0.53 0.8197 0.7703 0.0
C59 C 0.51567 0.83359 0.74494 0.0
C60 C 0.52797 0.85072 0.84247 0.0
C61 C 0.53781 0.83044 0.83161 0.0
C62 C 0.45643 0.83939 0.89573 0.0
O63 O 0.45741 0.81607 0.87184 0.0
H64 H 0.50529 0.82886 0.69709 0.0
H65 H 0.5296 0.86231 0.88776 0.0
O66 O 0.47019 0.86405 0.69899 0.0
H67 H 0.58008 0.9784 0.78409 0.0
H68 H 0.54896 0.82339 0.8667 0.0
Cu69 Cu 0.64006 0.48561 0.12926 0.0
N70 N 0.62373 0.51095 0.13659 0.0
N71 N 0.58782 0.52384 0.14189 0.0
C72 C 0.59382 0.50097 0.13995 0.0
C73 C 0.6152 0.54928 0.13962 0.0
C74 C 0.63735 0.54123 0.1364 0.0
O75 O 0.62735 0.45989 0.20666 0.0
C76 C 0.62888 0.44706 1.01436 0.0
O77 O 0.65123 0.44267 1.03147 0.0
H78 H 0.5768 0.47728 0.13906 0.0
H79 H 0.66157 0.55631 0.13338 0.0
N80 N 0.68265 0.50757 0.12547 0.0
N81 N 0.73046 0.52174 0.09794 0.0
C82 C 0.70124 0.50782 0.07814 0.0
C83 C 0.70102 0.52256 0.17593 0.0
C84 C 0.73039 0.53115 0.1593 0.0
C85 C 0.62954 0.47225 0.26199 0.0
O86 O 0.64008 0.50148 0.2644 0.0
H87 H 0.6935 0.49668 1.03153 0.0
H88 H 0.69355 0.52584 0.22293 0.0
O89 O 0.62177 0.46294 0.04992 0.0
H90 H 0.61902 0.57207 0.14027 0.0
H91 H 0.75005 0.5425 0.19069 0.0
Cu92 Cu 0.17063 0.62973 0.44013 0.0
N93 N 0.12934 0.6137 0.45572 0.0
N94 N 0.08081 0.57779 0.4675 0.0
C95 C 0.10982 0.58401 0.46338 0.0
C96 C 0.08225 0.60483 0.4624 0.0
C97 C 0.11223 0.62694 0.455 0.0
O98 O 0.18565 0.61644 0.51328 0.0
C99 C 0.19447 0.61481 0.32455 0.0
O100 O 0.22212 0.63186 0.34673 0.0
H101 H 0.11679 0.56719 0.46272 0.0
H102 H 0.12074 0.65076 0.44744 0.0
N103 N 0.19111 0.67215 0.43417 0.0
N104 N 0.22593 0.71955 0.40799 0.0
C105 C 0.21495 0.68995 0.39567 0.0
C106 C 0.18665 0.69135 0.47122 0.0
C107 C 0.20821 0.72055 0.45558 0.0
C108 C 0.18501 0.62606 0.57035 0.0
O109 O 0.17658 0.64632 0.57698 0.0
H110 H 0.22475 0.68155 0.36065 0.0
H111 H 0.16926 0.68465 0.50802 0.0
O112 O 0.17189 0.61154 0.35763 0.0
H113 H 0.06303 0.6084 0.46281 0.0
H114 H 0.21074 0.74092 0.47753 0.0
Cu115 Cu 0.56705 0.16307 0.78291 0.0
N116 N 0.5412 0.12142 0.78438 0.0
N117 N 0.52668 0.07229 0.78546 0.0
C118 C 0.5503 0.10084 0.78384 0.0
C119 C 0.50172 0.07518 0.78717 0.0
C120 C 0.51076 0.10553 0.78642 0.0
O121 O 0.59159 0.17175 0.86212 0.0
C122 C 0.60405 0.19643 0.67008 0.0
O123 O 0.61078 0.22161 0.70054 0.0
H124 H 0.5739 0.10685 0.7832 0.0
H125 H 0.49621 0.11531 0.78718 0.0
N126 N 0.54451 0.18278 0.78851 0.0
N127 N 0.52814 0.21535 0.77041 0.0
C128 C 0.54253 0.20155 0.74501 0.0
C129 C 0.53038 0.18436 0.84258 0.0
C130 C 0.52043 0.20457 0.83174 0.0
C131 C 0.60203 0.19588 0.89574 0.0
O132 O 0.60101 0.21919 0.87176 0.0
H133 H 0.55285 0.20633 0.69713 0.0
H134 H 0.52883 0.17276 0.88787 0.0
O135 O 0.58816 0.17125 0.69906 0.0
H136 H 0.47855 0.05675 0.788 0.0
H137 H 0.50926 0.21154 0.86685 0.0
Cu138 Cu 0.49818 0.63079 0.63231 0.0
N139 N 0.52231 0.61273 0.63351 0.0
N140 N 0.53428 0.5761 0.63389 0.0
C141 C 0.51172 0.58276 0.63183 0.0
C142 C 0.56009 0.60312 0.63704 0.0
C143 C 0.55263 0.62563 0.63678 0.0
O144 O 0.47246 0.61517 0.55514 0.0
C145 C 0.48888 0.62431 0.76567 0.0
O146 O 0.5185 0.63658 0.76373 0.0
H147 H 0.48782 0.56623 0.6302 0.0
H148 H 0.56821 0.64967 0.63907 0.0
N149 N 0.52134 0.67299 0.6319 0.0
N150 N 0.53503 0.72074 0.65578 0.0
C151 C 0.51536 0.69138 0.66803 0.0
C152 C 0.5459 0.6914 0.59604 0.0
C153 C 0.55424 0.72095 0.61026 0.0
C154 C 0.47723 0.62937 0.50125 0.0
O155 O 0.49893 0.65763 0.49759 0.0
H156 H 0.4965 0.68336 0.70164 0.0
H157 H 0.55664 0.68386 0.56118 0.0
O158 O 0.47437 0.61922 0.71216 0.0
H159 H 0.58282 0.60653 0.63872 0.0
H160 H 0.573 0.74099 0.58917 0.0
Cu161 Cu 0.88379 0.48616 0.93985 0.0
N162 N 0.92603 0.51029 0.93541 0.0
N163 N 0.97488 0.52267 0.93248 0.0
C164 C 0.94573 0.49998 0.93308 0.0
C165 C 0.97329 0.54825 0.93442 0.0
C166 C 0.94317 0.54055 0.9362 0.0
O167 O 0.87088 0.45994 0.86341 0.0
C168 C 0.88616 0.47754 0.07317 0.0
O169 O 0.9055 0.50664 0.06964 0.0
H170 H 0.93871 0.47622 0.93344 0.0
H171 H 0.93444 0.55593 0.93869 0.0
N172 N 0.86425 0.50897 0.94204 0.0
N173 N 0.82994 0.52216 0.96921 0.0
C174 C 0.84048 0.50305 0.98057 0.0
C175 C 0.8691 0.53291 0.90553 0.0
C176 C 0.84779 0.54096 0.92188 0.0
C177 C 0.87428 0.47149 0.80667 0.0
O178 O 0.88541 0.50072 0.80136 0.0
H179 H 0.83069 0.48465 1.01537 0.0
H180 H 0.8868 0.54379 0.86944 0.0
O181 O 0.87363 0.46318 1.02094 0.0
H182 H 0.99247 0.57097 0.93428 0.0
H183 H 0.8458 0.55939 0.90125 0.0
Cu184 Cu 0.4221 0.87171 0.28123 0.0
N185 N 0.43754 0.91332 0.27976 0.0
N186 N 0.47188 0.9626 0.27887 0.0
C187 C 0.46722 0.93418 0.27879 0.0
C188 C 0.44387 0.95936 0.27995 0.0
C189 C 0.42273 0.92892 0.28042 0.0
O190 O 0.43829 0.86336 0.2023 0.0
C191 C 0.42618 0.83866 0.39417 0.0
O192 O 0.40811 0.81338 0.36347 0.0
H193 H 0.485 0.92846 0.27922 0.0
H194 H 0.39835 0.91888 0.28131 0.0
N195 N 0.37975 0.85133 0.2752 0.0
N196 N 0.33089 0.81786 0.29279 0.0
C197 C 0.3591 0.83219 0.31846 0.0
C198 C 0.36392 0.84943 0.221 0.0
C199 C 0.33382 0.82869 0.23154 0.0
C200 C 0.42481 0.83918 0.16873 0.0
O201 O 0.40059 0.81568 0.19269 0.0
H202 H 0.36477 0.82759 0.36641 0.0
H203 H 0.37388 0.86121 0.17583 0.0
O204 O 0.43514 0.86379 0.36528 0.0
H205 H 0.43891 0.97761 0.27974 0.0
H206 H 0.31564 0.82148 0.19633 0.0
Cu207 Cu 0.55845 0.40378 0.63175 0.0
N208 N 0.53432 0.42184 0.6325 0.0
N209 N 0.52242 0.4585 0.63289 0.0
C210 C 0.54497 0.45183 0.63215 0.0
C211 C 0.49655 0.43151 0.63373 0.0
C212 C 0.50395 0.40896 0.63364 0.0
O213 O 0.58418 0.4193 0.5546 0.0
C214 C 0.56776 0.41061 0.76505 0.0
O215 O 0.53814 0.39844 0.76294 0.0
H216 H 0.56888 0.46837 0.63061 0.0
H217 H 0.48831 0.38492 0.63482 0.0
N218 N 0.53541 0.36156 0.63184 0.0
N219 N 0.52211 0.3139 0.65597 0.0
C220 C 0.54168 0.34332 0.66788 0.0
C221 C 0.51074 0.343 0.5964 0.0
C222 C 0.50264 0.31351 0.61077 0.0
C223 C 0.57875 0.40532 0.50034 0.0
O224 O 0.55629 0.37743 0.49631 0.0
H225 H 0.56069 0.35147 0.70116 0.0
H226 H 0.49978 0.35039 0.56166 0.0
O227 O 0.58227 0.41551 0.71165 0.0
H228 H 0.47385 0.42822 0.6354 0.0
H229 H 0.48387 0.29339 0.58998 0.0
Cu230 Cu 0.17277 0.54789 0.93863 0.0
N231 N 0.13052 0.52395 0.934 0.0
N232 N 0.08177 0.51195 0.93111 0.0
C233 C 0.11097 0.53447 0.93328 0.0
C234 C 0.08316 0.48625 0.93034 0.0
C235 C 0.11322 0.49372 0.93224 0.0
O236 O 0.18584 0.57398 0.86188 0.0
C237 C 0.17006 0.55681 0.07168 0.0
O238 O 0.15032 0.52781 0.06827 0.0
H239 H 0.11819 0.55827 0.93402 0.0
H240 H 0.12179 0.47819 0.93318 0.0
N241 N 0.19219 0.52496 0.94134 0.0
N242 N 0.22649 0.51176 0.96889 0.0
C243 C 0.21575 0.53068 0.98048 0.0
C244 C 0.1877 0.50136 0.90415 0.0
C245 C 0.20899 0.4933 0.92076 0.0
C246 C 0.1814 0.56213 0.80529 0.0
O247 O 0.16901 0.53273 0.80049 0.0
H248 H 0.22532 0.54886 1.01574 0.0
H249 H 0.17031 0.49078 0.86729 0.0
O250 O 0.18298 0.57098 1.0195 0.0
H251 H 0.06388 0.46359 0.9299 0.0
H252 H 0.21126 0.47515 0.89961 0.0
Cu253 Cu 0.63637 0.16351 0.28169 0.0
N254 N 0.6208 0.12188 0.28031 0.0
N255 N 0.58633 0.07262 0.27928 0.0
C256 C 0.5911 0.10108 0.28074 0.0
C257 C 0.61432 0.0758 0.27781 0.0
C258 C 0.63552 0.10621 0.27854 0.0
O259 O 0.62027 0.17195 0.20256 0.0
C260 C 0.63231 0.19658 0.39437 0.0
O261 O 0.65045 0.22185 0.36366 0.0
H262 H 0.57338 0.10689 0.28117 0.0
H263 H 0.65991 0.11618 0.27795 0.0
N264 N 0.67873 0.18376 0.2759 0.0
N265 N 0.72764 0.21703 0.29369 0.0
C266 C 0.6994 0.20284 0.31919 0.0
C267 C 0.69456 0.18555 0.22186 0.0
C268 C 0.72469 0.20617 0.23251 0.0
C269 C 0.63383 0.1961 0.16882 0.0
O270 O 0.65812 0.21954 0.19266 0.0
H271 H 0.69375 0.2075 0.36703 0.0
H272 H 0.68459 0.17378 0.17671 0.0
O273 O 0.62332 0.17144 0.36559 0.0
H274 H 0.61922 0.05751 0.27717 0.0
H275 H 0.74288 0.21328 0.19743 0.0
C276 C 0.43055 0.56544 0.38428 0.0
C277 C 0.43736 0.5804 0.32369 0.0
H278 H 0.43729 0.56907 0.48766 0.0
C279 C 0.45526 0.61201 0.32255 0.0
H280 H 0.41657 0.54111 0.38702 0.0
C281 C 0.46727 0.62812 0.38062 0.0
C282 C 0.46144 0.61296 0.44096 0.0
H283 H 0.46085 0.6242 0.27669 0.0
H284 H 0.48185 0.65238 0.37793 0.0
C285 C 0.44234 0.5815 0.44218 0.0
C286 C 0.86613 0.40942 0.69318 0.0
C287 C 0.86789 0.42231 0.6314 0.0
H288 H 0.86633 0.41457 0.79706 0.0
C289 C 0.86852 0.45004 0.62791 0.0
H290 H 0.86543 0.38797 0.69754 0.0
C291 C 0.86932 0.4654 0.68506 0.0
C292 C 0.86916 0.45322 0.74687 0.0
H293 H 0.86991 0.46059 0.58116 0.0
H294 H 0.87104 0.48731 0.68073 0.0
C295 C 0.86658 0.42462 0.75029 0.0
C296 C 0.45734 0.86638 0.99895 0.0
C297 C 0.44739 0.83913 0.96498 0.0
H298 H 0.45878 0.88777 0.08983 0.0
C299 C 0.43051 0.81181 0.99916 0.0
H300 H 0.47069 0.88785 0.97446 0.0
C301 C 0.42344 0.81176 0.06543 0.0
C302 C 0.43367 0.83904 0.09951 0.0
H303 H 0.42264 0.79042 0.97462 0.0
H304 H 0.41005 0.79034 0.09006 0.0
C305 C 0.45082 0.86634 0.06543 0.0
C306 C 0.60062 0.4228 0.32167 0.0
C307 C 0.61907 0.45434 0.32302 0.0
H308 H 0.57343 0.38247 0.37681 0.0
C309 C 0.6263 0.46917 0.38373 0.0
H310 H 0.5947 0.41072 0.27571 0.0
C311 C 0.61436 0.45305 0.44156 0.0
C312 C 0.5947 0.4217 0.44013 0.0
H313 H 0.64072 0.49344 0.38661 0.0
H314 H 0.61973 0.46539 0.48716 0.0
C315 C 0.58844 0.40664 0.37965 0.0
C316 C 0.18679 0.58326 0.62626 0.0
C317 C 0.18901 0.61171 0.62958 0.0
H318 H 0.18262 0.54528 0.67933 0.0
C319 C 0.19189 0.62504 0.69124 0.0
H320 H 0.1845 0.57236 0.57961 0.0
C321 C 0.19101 0.60963 0.74845 0.0
C322 C 0.18687 0.58039 0.74525 0.0
H323 H 0.19382 0.64704 0.69547 0.0
H324 H 0.19218 0.62008 0.79515 0.0
C325 C 0.18555 0.5677 0.68351 0.0
C326 C 0.60772 0.16894 0.06562 0.0
C327 C 0.62493 0.19624 0.09957 0.0
H328 H 0.58775 0.14742 0.97475 0.0
C329 C 0.63519 0.22351 0.06534 0.0
H330 H 0.59974 0.1475 0.09014 0.0
C331 C 0.62807 0.22346 0.99906 0.0
C332 C 0.61112 0.19614 0.96501 0.0
H333 H 0.64863 0.24494 0.08987 0.0
H334 H 0.63596 0.24485 0.97439 0.0
C335 C 0.60115 0.16889 0.99913 0.0
C336 C 0.29666 0.50659 0.99758 0.0
C337 C 0.30089 0.5119 0.06507 0.0
H338 H 0.26906 0.50183 0.914 0.0
C339 C 0.28023 0.51706 0.10023 0.0
H340 H 0.31229 0.50255 0.96953 0.0
C341 C 0.25599 0.5172 0.06853 0.0
C342 C 0.2515 0.51155 1.00122 0.0
H343 H 0.28317 0.52156 0.15216 0.0
H344 H 0.2405 0.52138 0.09675 0.0
C345 C 0.27193 0.50601 0.96605 0.0
C346 C 0.78655 0.26505 0.41754 0.0
C347 C 0.80656 0.29007 0.37958 0.0
H348 H 0.74531 0.22222 0.41979 0.0
C349 C 0.80041 0.29042 0.31282 0.0
H350 H 0.79064 0.26437 0.46923 0.0
C351 C 0.77486 0.26618 0.28447 0.0
C352 C 0.75455 0.24139 0.3226 0.0
H353 H 0.81553 0.30938 0.28252 0.0
H354 H 0.77057 0.26713 0.23297 0.0
C355 C 0.76059 0.24109 0.38946 0.0
C356 C 0.53916 0.79573 0.67493 0.0
C357 C 0.53243 0.79532 0.74157 0.0
H358 H 0.54586 0.77229 0.59546 0.0
C359 C 0.52723 0.7703 0.77963 0.0
H360 H 0.54329 0.81479 0.6447 0.0
C361 C 0.52814 0.74591 0.75141 0.0
C362 C 0.53493 0.7463 0.68486 0.0
H363 H 0.52168 0.76928 0.83094 0.0
H364 H 0.52368 0.72674 0.78164 0.0
C365 C 0.54079 0.77159 0.64698 0.0
C366 C 0.7761 0.51665 0.1002 0.0
C367 C 0.75567 0.52222 0.06506 0.0
H368 H 0.81559 0.51194 0.09681 0.0
C369 C 0.76006 0.52783 0.99767 0.0
H370 H 0.77303 0.51192 0.15205 0.0
C371 C 0.78474 0.52832 0.96624 0.0
C372 C 0.80494 0.52239 1.00141 0.0
H373 H 0.74461 0.53219 0.96964 0.0
H374 H 0.78776 0.53276 0.91429 0.0
C375 C 0.80028 0.51643 0.0686 0.0
C376 C 0.25824 0.74434 0.31202 0.0
C377 C 0.25206 0.7447 0.37871 0.0
H378 H 0.28808 0.76765 0.2322 0.0
C379 C 0.27204 0.76974 0.4166 0.0
H380 H 0.24314 0.72537 0.28175 0.0
C381 C 0.29798 0.79372 0.38852 0.0
C382 C 0.30403 0.79344 0.32171 0.0
H383 H 0.26792 0.77045 0.46825 0.0
H384 H 0.31321 0.81262 0.4188 0.0
C385 C 0.28378 0.7686 0.28365 0.0
C386 C 0.51859 0.23918 0.67511 0.0
C387 C 0.52553 0.23965 0.74167 0.0
H388 H 0.51145 0.26246 0.59574 0.0
C389 C 0.5307 0.26464 0.77968 0.0
H390 H 0.51447 0.22014 0.64493 0.0
C391 C 0.52953 0.28893 0.75148 0.0
C392 C 0.52251 0.28847 0.68501 0.0
H393 H 0.5364 0.2657 0.83092 0.0
H394 H 0.53397 0.30808 0.78166 0.0
C395 C 0.5167 0.26322 0.64719 0.0
C396 C 0.52502 0.54129 0.11661 0.0
C397 C 0.49982 0.51536 0.14235 0.0
H398 H 0.57253 0.56422 0.09581 0.0
C399 C 0.50428 0.49249 0.16877 0.0
H400 H 0.52249 0.55918 0.09482 0.0
C401 C 0.53311 0.49541 0.16918 0.0
C402 C 0.55825 0.52128 0.14318 0.0
H403 H 0.48558 0.47244 0.18991 0.0
H404 H 0.53571 0.47749 0.19055 0.0
C405 C 0.55384 0.54423 0.11715 0.0
C406 C 0.02992 0.49451 0.4962 0.0
C407 C 1.00225 0.48956 0.47016 0.0
H408 H 0.07633 0.52642 0.5171 0.0
C409 C 1.00075 0.51443 0.4451 0.0
H410 H 0.03183 0.47605 0.51681 0.0
C411 C 1.02626 0.54334 0.44534 0.0
C412 C 0.05404 0.54822 0.47047 0.0
H413 H 0.98007 0.51156 0.42361 0.0
H414 H 1.02436 0.5617 0.42407 0.0
C415 C 0.05547 0.52346 0.49639 0.0
C416 C 0.55338 0.04413 0.76007 0.0
C417 C 0.528 0.04469 0.78546 0.0
H418 H 0.57442 0.01784 0.73938 0.0
C419 C 0.50401 0.01783 0.81106 0.0
H420 H 0.57208 0.06418 0.73897 0.0
C421 C 0.50537 0.99116 0.81123 0.0
C422 C 0.53074 0.99061 0.78577 0.0
H423 H 0.48433 1.01744 0.83195 0.0
H424 H 0.48666 0.97108 0.83223 0.0
C425 C 0.55474 1.01747 0.76029 0.0
C426 C 0.50507 0.52132 0.60853 0.0
C427 C 0.53134 0.54643 0.63338 0.0
H428 H 0.48178 0.47394 0.58816 0.0
C429 C 0.55462 0.54196 0.65796 0.0
H430 H 0.48685 0.52382 0.58817 0.0
C431 C 0.55172 0.51326 0.65773 0.0
C432 C 0.52543 0.48817 0.63304 0.0
H433 H 0.57498 0.56054 0.67843 0.0
H434 H 0.56992 0.51068 0.67798 0.0
C435 C 0.50214 0.49259 0.60847 0.0
C436 C 1.02723 0.49148 0.90618 0.0
C437 C 0.05484 0.51475 0.93096 0.0
H438 H 0.98045 0.47588 0.8862 0.0
C439 C 0.05562 0.54075 0.9559 0.0
H440 H 1.02578 0.47132 0.88566 0.0
C441 C 0.02954 0.54338 0.95617 0.0
C442 C 1.0019 0.52007 0.93158 0.0
H443 H 0.07625 0.55895 0.97639 0.0
H444 H 0.03098 0.56351 0.97681 0.0
C445 C 1.00114 0.4941 0.90649 0.0
C446 C 0.50333 1.01718 0.30378 0.0
C447 C 0.50072 0.99042 0.27862 0.0
H448 H 0.53245 0.06397 0.32494 0.0
C449 C 0.52685 0.99125 0.25364 0.0
H450 H 0.48386 1.01735 0.32433 0.0
C451 C 0.55482 0.01808 0.25393 0.0
C452 C 0.55745 0.04484 0.27918 0.0
H453 H 0.52569 0.97126 0.2329 0.0
H454 H 0.57428 0.01789 0.23339 0.0
C455 C 0.5313 0.04401 0.30411 0.0
C456 C 0.48784 0.61297 0.88437 0.0
C457 C 0.47311 0.61614 0.82946 0.0
H458 H 0.48496 0.60157 0.9856 0.0
C459 C 0.44362 0.6115 0.83658 0.0
H460 H 0.51056 0.61639 0.88058 0.0
C461 C 0.4291 0.60356 0.89753 0.0
C462 C 0.44362 0.59954 0.95186 0.0
H463 H 0.4318 0.614 0.79517 0.0
H464 H 0.40621 0.59965 0.90161 0.0
C465 C 0.47317 0.60448 0.94463 0.0
C466 C 0.8949 0.46103 0.24938 0.0
C467 C 0.86729 0.43459 0.26186 0.0
H468 H 0.92225 0.49533 0.18037 0.0
C469 C 0.84567 0.42214 0.21153 0.0
H470 H 0.912 0.47117 0.28715 0.0
C471 C 0.85187 0.43567 0.14953 0.0
C472 C 0.87947 0.46225 0.13742 0.0
H473 H 0.82429 0.40163 0.21965 0.0
H474 H 0.83496 0.42558 0.11141 0.0
C475 C 0.90077 0.47487 0.18817 0.0
C476 C 0.45645 0.86567 0.56556 0.0
C477 C 0.44622 0.83845 0.59995 0.0
H478 H 0.4586 0.88712 0.47439 0.0
C479 C 0.42964 0.81112 0.56564 0.0
H480 H 0.46941 0.88719 0.59003 0.0
C481 C 0.42344 0.81108 0.49875 0.0
C482 C 0.43378 0.83836 0.46444 0.0
H483 H 0.42153 0.78971 0.59036 0.0
H484 H 0.41046 0.78964 0.47402 0.0
C485 C 0.45038 0.86563 0.49886 0.0
C486 C 0.61289 0.42328 0.83646 0.0
C487 C 0.58351 0.4189 0.82889 0.0
H488 H 0.65015 0.43493 0.90191 0.0
C489 C 0.56885 0.42241 0.88343 0.0
H490 H 0.62464 0.42052 0.79534 0.0
C491 C 0.58348 0.43094 0.94375 0.0
C492 C 0.61291 0.43559 0.95144 0.0
H493 H 0.54622 0.4192 0.87928 0.0
H494 H 0.57175 0.43409 0.98443 0.0
C495 C 0.62736 0.43125 0.89748 0.0
C496 C 0.1552 0.56 0.18607 0.0
C497 C 0.17676 0.57219 0.13576 0.0
H498 H 0.14384 0.56403 0.28464 0.0
C499 C 0.20465 0.59839 0.14821 0.0
H500 H 0.13349 0.53985 0.17798 0.0
C501 C 0.21089 0.61192 0.21015 0.0
C502 C 0.18904 0.59988 0.26007 0.0
H503 H 0.22177 0.60814 0.11044 0.0
H504 H 0.23252 0.6321 0.21856 0.0
C505 C 0.16112 0.57386 0.2472 0.0
C506 C 0.60188 0.16959 0.56569 0.0
C507 C 0.61209 0.19683 0.59992 0.0
H508 H 0.59981 0.14813 0.47472 0.0
C509 C 0.6287 0.22415 0.56551 0.0
H510 H 0.58889 0.14808 0.59024 0.0
C511 C 0.63496 0.22418 0.4987 0.0
C512 C 0.62465 0.19689 0.46456 0.0
H513 H 0.6368 0.24556 0.5901 0.0
H514 H 0.64797 0.24561 0.47389 0.0
C515 C 0.60801 0.16962 0.49906 0.0
loop_
_geom_bond_atom_site_label_1
_geom_bond_atom_site_label_2
_geom_bond_distance
_geom_bond_site_symmetry_2
_ccdc_geom_bond_type
Cu0 N1 1.999 . S
Cu0 O6 1.974 . S
Cu0 N11 1.985 . S
Cu0 O20 1.959 1_554 S
N1 Cu0 1.999 . S
N1 C3 1.263 . S
N1 C5 1.389 . S
N2 C3 1.358 . S
N2 C4 1.400 . S
C3 N1 1.263 . S
C3 N2 1.358 . S
C3 H9 0.930 . S
C4 N2 1.400 . S
C4 C5 1.351 . S
C4 H21 0.930 . S
C5 N1 1.389 . S
C5 C4 1.351 . S
C5 H10 0.930 . S
O6 Cu0 1.974 . S
O6 C16 1.282 . S
C7 O8 1.261 . S
C7 O20 1.251 . S
O8 C7 1.261 . S
H9 C3 0.930 . S
H10 C5 0.930 . S
N11 Cu0 1.985 . S
N11 C13 1.335 . S
N11 C14 1.390 . S
N12 C13 1.345 . S
N12 C15 1.336 . S
C13 N11 1.335 . S
C13 N12 1.345 . S
C13 H18 0.930 . S
C14 N11 1.390 . S
C14 C15 1.346 . S
C14 H19 0.930 . S
C15 N12 1.336 . S
C15 C14 1.346 . S
C15 H22 0.929 . S
C16 O6 1.282 . S
C16 O17 1.216 . S
O17 C16 1.216 . S
H18 C13 0.930 . S
H19 C14 0.930 . S
O20 Cu0 1.959 1_556 S
O20 C7 1.251 . S
H21 C4 0.930 . S
H22 C15 0.929 . S
Cu23 N24 1.999 . S
Cu23 O29 1.974 . S
Cu23 N34 1.985 . S
Cu23 O43 1.959 . S
N24 Cu23 1.999 . S
N24 C26 1.263 . S
N24 C28 1.389 . S
N25 C26 1.358 . S
N25 C27 1.400 . S
C26 N24 1.263 . S
C26 N25 1.358 . S
C26 H32 0.930 . S
C27 N25 1.400 . S
C27 C28 1.351 . S
C27 H44 0.930 . S
C28 N24 1.389 . S
C28 C27 1.351 . S
C28 H33 0.930 . S
O29 Cu23 1.974 . S
O29 C39 1.282 . S
C30 O31 1.261 . S
C30 O43 1.251 . S
O31 C30 1.261 . S
H32 C26 0.930 . S
H33 C28 0.930 . S
N34 Cu23 1.985 . S
N34 C36 1.335 . S
N34 C37 1.390 . S
N35 C36 1.345 . S
N35 C38 1.336 . S
C36 N34 1.335 . S
C36 N35 1.345 . S
C36 H41 0.930 . S
C37 N34 1.390 . S
C37 C38 1.346 . S
C37 H42 0.930 . S
C38 N35 1.336 . S
C38 C37 1.346 . S
C38 H45 0.929 . S
C39 O29 1.282 . S
C39 O40 1.216 . S
O40 C39 1.216 . S
H41 C36 0.930 . S
H42 C37 0.930 . S
O43 Cu23 1.959 . S
O43 C30 1.251 . S
H44 C27 0.930 . S
H45 C38 0.929 . S
Cu46 N47 1.999 . S
Cu46 O52 1.974 . S
Cu46 N57 1.985 . S
Cu46 O66 1.959 . S
N47 Cu46 1.999 . S
N47 C49 1.263 . S
N47 C51 1.389 . S
N48 C49 1.358 . S
N48 C50 1.400 . S
C49 N47 1.263 . S
C49 N48 1.358 . S
C49 H55 0.930 . S
C50 N48 1.400 . S
C50 C51 1.351 . S
C50 H67 0.930 . S
C51 N47 1.389 . S
C51 C50 1.351 . S
C51 H56 0.930 . S
O52 Cu46 1.974 . S
O52 C62 1.282 . S
C53 O54 1.261 . S
C53 O66 1.251 . S
O54 C53 1.261 . S
H55 C49 0.930 . S
H56 C51 0.930 . S
N57 Cu46 1.985 . S
N57 C59 1.335 . S
N57 C60 1.390 . S
N58 C59 1.345 . S
N58 C61 1.336 . S
C59 N57 1.335 . S
C59 N58 1.345 . S
C59 H64 0.930 . S
C60 N57 1.390 . S
C60 C61 1.346 . S
C60 H65 0.930 . S
C61 N58 1.336 . S
C61 C60 1.346 . S
C61 H68 0.929 . S
C62 O52 1.282 . S
C62 O63 1.216 . S
O63 C62 1.216 . S
H64 C59 0.930 . S
H65 C60 0.930 . S
O66 Cu46 1.959 . S
O66 C53 1.251 . S
H67 C50 0.930 . S
H68 C61 0.929 . S
Cu69 N70 1.999 . S
Cu69 O75 1.974 . S
Cu69 N80 1.985 . S
Cu69 O89 1.959 1_554 S
N70 Cu69 1.999 . S
N70 C72 1.263 . S
N70 C74 1.389 . S
N71 C72 1.358 . S
N71 C73 1.400 . S
C72 N70 1.263 . S
C72 N71 1.358 . S
C72 H78 0.930 . S
C73 N71 1.400 . S
C73 C74 1.351 . S
C73 H90 0.930 . S
C74 N70 1.389 . S
C74 C73 1.351 . S
C74 H79 0.930 . S
O75 Cu69 1.974 . S
O75 C85 1.282 . S
C76 O77 1.261 . S
C76 O89 1.251 . S
O77 C76 1.261 . S
H78 C72 0.930 . S
H79 C74 0.930 . S
N80 Cu69 1.985 . S
N80 C82 1.335 . S
N80 C83 1.390 . S
N81 C82 1.345 . S
N81 C84 1.336 . S
C82 N80 1.335 . S
C82 N81 1.345 . S
C82 H87 0.930 . S
C83 N80 1.390 . S
C83 C84 1.346 . S
C83 H88 0.930 . S
C84 N81 1.336 . S
C84 C83 1.346 . S
C84 H91 0.929 . S
C85 O75 1.282 . S
C85 O86 1.216 . S
O86 C85 1.216 . S
H87 C82 0.930 . S
H88 C83 0.930 . S
O89 Cu69 1.959 1_556 S
O89 C76 1.251 . S
H90 C73 0.930 . S
H91 C84 0.929 . S
Cu92 N93 1.999 . S
Cu92 O98 1.974 . S
Cu92 N103 1.985 . S
Cu92 O112 1.959 . S
N93 Cu92 1.999 . S
N93 C95 1.263 . S
N93 C97 1.389 . S
N94 C95 1.358 . S
N94 C96 1.400 . S
C95 N93 1.263 . S
C95 N94 1.358 . S
C95 H101 0.930 . S
C96 N94 1.400 . S
C96 C97 1.351 . S
C96 H113 0.930 . S
C97 N93 1.389 . S
C97 C96 1.351 . S
C97 H102 0.930 . S
O98 Cu92 1.974 . S
O98 C108 1.282 . S
C99 O100 1.261 . S
C99 O112 1.251 . S
O100 C99 1.261 . S
H101 C95 0.930 . S
H102 C97 0.930 . S
N103 Cu92 1.985 . S
N103 C105 1.335 . S
N103 C106 1.390 . S
N104 C105 1.345 . S
N104 C107 1.336 . S
C105 N103 1.335 . S
C105 N104 1.345 . S
C105 H110 0.930 . S
C106 N103 1.390 . S
C106 C107 1.346 . S
C106 H111 0.930 . S
C107 N104 1.336 . S
C107 C106 1.346 . S
C107 H114 0.929 . S
C108 O98 1.282 . S
C108 O109 1.216 . S
O109 C108 1.216 . S
H110 C105 0.930 . S
H111 C106 0.930 . S
O112 Cu92 1.959 . S
O112 C99 1.251 . S
H113 C96 0.930 . S
H114 C107 0.929 . S
Cu115 N116 1.999 . S
Cu115 O121 1.974 . S
Cu115 N126 1.985 . S
Cu115 O135 1.959 . S
N116 Cu115 1.999 . S
N116 C118 1.263 . S
N116 C120 1.389 . S
N117 C118 1.358 . S
N117 C119 1.400 . S
C118 N116 1.263 . S
C118 N117 1.358 . S
C118 H124 0.930 . S
C119 N117 1.400 . S
C119 C120 1.351 . S
C119 H136 0.930 . S
C120 N116 1.389 . S
C120 C119 1.351 . S
C120 H125 0.930 . S
O121 Cu115 1.974 . S
O121 C131 1.282 . S
C122 O123 1.261 . S
C122 O135 1.251 . S
O123 C122 1.261 . S
H124 C118 0.930 . S
H125 C120 0.930 . S
N126 Cu115 1.985 . S
N126 C128 1.335 . S
N126 C129 1.390 . S
N127 C128 1.345 . S
N127 C130 1.336 . S
C128 N126 1.335 . S
C128 N127 1.345 . S
C128 H133 0.930 . S
C129 N126 1.390 . S
C129 C130 1.346 . S
C129 H134 0.930 . S
C130 N127 1.336 . S
C130 C129 1.346 . S
C130 H137 0.929 . S
C131 O121 1.282 . S
C131 O132 1.216 . S
O132 C131 1.216 . S
H133 C128 0.930 . S
H134 C129 0.930 . S
O135 Cu115 1.959 . S
O135 C122 1.251 . S
H136 C119 0.930 . S
H137 C130 0.929 . S
Cu138 N139 1.999 . S
Cu138 O144 1.974 . S
Cu138 N149 1.985 . S
Cu138 O158 1.959 . S
N139 Cu138 1.999 . S
N139 C141 1.263 . S
N139 C143 1.389 . S
N140 C141 1.358 . S
N140 C142 1.400 . S
C141 N139 1.263 . S
C141 N140 1.358 . S
C141 H147 0.930 . S
C142 N140 1.400 . S
C142 C143 1.351 . S
C142 H159 0.930 . S
C143 N139 1.389 . S
C143 C142 1.351 . S
C143 H148 0.930 . S
O144 Cu138 1.974 . S
O144 C154 1.282 . S
C145 O146 1.261 . S
C145 O158 1.251 . S
O146 C145 1.261 . S
H147 C141 0.930 . S
H148 C143 0.930 . S
N149 Cu138 1.985 . S
N149 C151 1.335 . S
N149 C152 1.390 . S
N150 C151 1.345 . S
N150 C153 1.336 . S
C151 N149 1.335 . S
C151 N150 1.345 . S
C151 H156 0.930 . S
C152 N149 1.390 . S
C152 C153 1.346 . S
C152 H157 0.930 . S
C153 N150 1.336 . S
C153 C152 1.346 . S
C153 H160 0.929 . S
C154 O144 1.282 . S
C154 O155 1.216 . S
O155 C154 1.216 . S
H156 C151 0.930 . S
H157 C152 0.930 . S
O158 Cu138 1.959 . S
O158 C145 1.251 . S
H159 C142 0.930 . S
H160 C153 0.929 . S
Cu161 N162 1.999 . S
Cu161 O167 1.974 . S
Cu161 N172 1.985 . S
Cu161 O181 1.959 1_556 S
N162 Cu161 1.999 . S
N162 C164 1.263 . S
N162 C166 1.389 . S
N163 C164 1.358 . S
N163 C165 1.400 . S
C164 N162 1.263 . S
C164 N163 1.358 . S
C164 H170 0.930 . S
C165 N163 1.400 . S
C165 C166 1.351 . S
C165 H182 0.930 . S
C166 N162 1.389 . S
C166 C165 1.351 . S
C166 H171 0.930 . S
O167 Cu161 1.974 . S
O167 C177 1.282 . S
C168 O169 1.261 . S
C168 O181 1.251 . S
O169 C168 1.261 . S
H170 C164 0.930 . S
H171 C166 0.930 . S
N172 Cu161 1.985 . S
N172 C174 1.335 . S
N172 C175 1.390 . S
N173 C174 1.345 . S
N173 C176 1.336 . S
C174 N172 1.335 . S
C174 N173 1.345 . S
C174 H179 0.930 . S
C175 N172 1.390 . S
C175 C176 1.346 . S
C175 H180 0.930 . S
C176 N173 1.336 . S
C176 C175 1.346 . S
C176 H183 0.929 . S
C177 O167 1.282 . S
C177 O178 1.216 . S
O178 C177 1.216 . S
H179 C174 0.930 . S
H180 C175 0.930 . S
O181 Cu161 1.959 1_554 S
O181 C168 1.251 . S
H182 C165 0.930 . S
H183 C176 0.929 . S
Cu184 N185 1.999 . S
Cu184 O190 1.974 . S
Cu184 N195 1.985 . S
Cu184 O204 1.959 . S
N185 Cu184 1.999 . S
N185 C187 1.263 . S
N185 C189 1.389 . S
N186 C187 1.358 . S
N186 C188 1.400 . S
C187 N185 1.263 . S
C187 N186 1.358 . S
C187 H193 0.930 . S
C188 N186 1.400 . S
C188 C189 1.351 . S
C188 H205 0.930 . S
C189 N185 1.389 . S
C189 C188 1.351 . S
C189 H194 0.930 . S
O190 Cu184 1.974 . S
O190 C200 1.282 . S
C191 O192 1.261 . S
C191 O204 1.251 . S
O192 C191 1.261 . S
H193 C187 0.930 . S
H194 C189 0.930 . S
N195 Cu184 1.985 . S
N195 C197 1.335 . S
N195 C198 1.390 . S
N196 C197 1.345 . S
N196 C199 1.336 . S
C197 N195 1.335 . S
C197 N196 1.345 . S
C197 H202 0.930 . S
C198 N195 1.390 . S
C198 C199 1.346 . S
C198 H203 0.930 . S
C199 N196 1.336 . S
C199 C198 1.346 . S
C199 H206 0.929 . S
C200 O190 1.282 . S
C200 O201 1.216 . S
O201 C200 1.216 . S
H202 C197 0.930 . S
H203 C198 0.930 . S
O204 Cu184 1.959 . S
O204 C191 1.251 . S
H205 C188 0.930 . S
H206 C199 0.929 . S
Cu207 N208 1.999 . S
Cu207 O213 1.974 . S
Cu207 N218 1.985 . S
Cu207 O227 1.959 . S
N208 Cu207 1.999 . S
N208 C210 1.263 . S
N208 C212 1.389 . S
N209 C210 1.358 . S
N209 C211 1.400 . S
C210 N208 1.263 . S
C210 N209 1.358 . S
C210 H216 0.930 . S
C211 N209 1.400 . S
C211 C212 1.351 . S
C211 H228 0.930 . S
C212 N208 1.389 . S
C212 C211 1.351 . S
C212 H217 0.930 . S
O213 Cu207 1.974 . S
O213 C223 1.282 . S
C214 O215 1.261 . S
C214 O227 1.251 . S
O215 C214 1.261 . S
H216 C210 0.930 . S
H217 C212 0.930 . S
N218 Cu207 1.985 . S
N218 C220 1.335 . S
N218 C221 1.390 . S
N219 C220 1.345 . S
N219 C222 1.336 . S
C220 N218 1.335 . S
C220 N219 1.345 . S
C220 H225 0.930 . S
C221 N218 1.390 . S
C221 C222 1.346 . S
C221 H226 0.930 . S
C222 N219 1.336 . S
C222 C221 1.346 . S
C222 H229 0.929 . S
C223 O213 1.282 . S
C223 O224 1.216 . S
O224 C223 1.216 . S
H225 C220 0.930 . S
H226 C221 0.930 . S
O227 Cu207 1.959 . S
O227 C214 1.251 . S
H228 C211 0.930 . S
H229 C222 0.929 . S
Cu230 N231 1.999 . S
Cu230 O236 1.974 . S
Cu230 N241 1.985 . S
Cu230 O250 1.959 1_556 S
N231 Cu230 1.999 . S
N231 C233 1.263 . S
N231 C235 1.389 . S
N232 C233 1.358 . S
N232 C234 1.400 . S
C233 N231 1.263 . S
C233 N232 1.358 . S
C233 H239 0.930 . S
C234 N232 1.400 . S
C234 C235 1.351 . S
C234 H251 0.930 . S
C235 N231 1.389 . S
C235 C234 1.351 . S
C235 H240 0.930 . S
O236 Cu230 1.974 . S
O236 C246 1.282 . S
C237 O238 1.261 . S
C237 O250 1.251 . S
O238 C237 1.261 . S
H239 C233 0.930 . S
H240 C235 0.930 . S
N241 Cu230 1.985 . S
N241 C243 1.335 . S
N241 C244 1.390 . S
N242 C243 1.345 . S
N242 C245 1.336 . S
C243 N241 1.335 . S
C243 N242 1.345 . S
C243 H248 0.930 . S
C244 N241 1.390 . S
C244 C245 1.346 . S
C244 H249 0.930 . S
C245 N242 1.336 . S
C245 C244 1.346 . S
C245 H252 0.929 . S
C246 O236 1.282 . S
C246 O247 1.216 . S
O247 C246 1.216 . S
H248 C243 0.930 . S
H249 C244 0.930 . S
O250 Cu230 1.959 1_554 S
O250 C237 1.251 . S
H251 C234 0.930 . S
H252 C245 0.929 . S
Cu253 N254 1.999 . S
Cu253 O259 1.974 . S
Cu253 N264 1.985 . S
Cu253 O273 1.959 . S
N254 Cu253 1.999 . S
N254 C256 1.263 . S
N254 C258 1.389 . S
N255 C256 1.358 . S
N255 C257 1.400 . S
C256 N254 1.263 . S
C256 N255 1.358 . S
C256 H262 0.930 . S
C257 N255 1.400 . S
C257 C258 1.351 . S
C257 H274 0.930 . S
C258 N254 1.389 . S
C258 C257 1.351 . S
C258 H263 0.930 . S
O259 Cu253 1.974 . S
O259 C269 1.282 . S
C260 O261 1.261 . S
C260 O273 1.251 . S
O261 C260 1.261 . S
H262 C256 0.930 . S
H263 C258 0.930 . S
N264 Cu253 1.985 . S
N264 C266 1.335 . S
N264 C267 1.390 . S
N265 C266 1.345 . S
N265 C268 1.336 . S
C266 N264 1.335 . S
C266 N265 1.345 . S
C266 H271 0.930 . S
C267 N264 1.390 . S
C267 C268 1.346 . S
C267 H272 0.930 . S
C268 N265 1.336 . S
C268 C267 1.346 . S
C268 H275 0.929 . S
C269 O259 1.282 . S
C269 O270 1.216 . S
O270 C269 1.216 . S
H271 C266 0.930 . S
H272 C267 0.930 . S
O273 Cu253 1.959 . S
O273 C260 1.251 . S
H274 C257 0.930 . S
H275 C268 0.929 . S
C276 C277 1.387 . S
C276 H280 0.950 . S
C276 C285 1.390 . S
C277 C276 1.387 . S
C277 C279 1.387 . S
H278 C285 0.950 . S
C279 C277 1.387 . S
C279 C281 1.390 . S
C279 H283 0.950 . S
H280 C276 0.950 . S
C281 C279 1.390 . S
C281 C282 1.387 . S
C281 H284 0.950 . S
C282 C281 1.387 . S
C282 C285 1.387 . S
H283 C279 0.950 . S
H284 C281 0.950 . S
C285 C276 1.390 . S
C285 H278 0.950 . S
C285 C282 1.387 . S
C286 C287 1.387 . S
C286 H290 0.950 . S
C286 C295 1.390 . S
C287 C286 1.387 . S
C287 C289 1.387 . S
H288 C295 0.950 . S
C289 C287 1.387 . S
C289 C291 1.390 . S
C289 H293 0.950 . S
H290 C286 0.950 . S
C291 C289 1.390 . S
C291 C292 1.387 . S
C291 H294 0.950 . S
C292 C291 1.387 . S
C292 C295 1.387 . S
H293 C289 0.950 . S
H294 C291 0.950 . S
C295 C286 1.390 . S
C295 H288 0.950 . S
C295 C292 1.387 . S
C296 C297 1.387 . S
C296 H300 0.950 . S
C296 C305 1.390 1_556 S
C297 C296 1.387 . S
C297 C299 1.387 . S
H298 C305 0.950 . S
C299 C297 1.387 . S
C299 C301 1.390 1_556 S
C299 H303 0.950 . S
H300 C296 0.950 . S
C301 C299 1.390 1_554 S
C301 C302 1.387 . S
C301 H304 0.950 . S
C302 C301 1.387 . S
C302 C305 1.387 . S
H303 C299 0.950 . S
H304 C301 0.950 . S
C305 C296 1.390 1_554 S
C305 H298 0.950 . S
C305 C302 1.387 . S
C306 C307 1.387 . S
C306 H310 0.950 . S
C306 C315 1.390 . S
C307 C306 1.387 . S
C307 C309 1.387 . S
H308 C315 0.950 . S
C309 C307 1.387 . S
C309 C311 1.390 . S
C309 H313 0.950 . S
H310 C306 0.950 . S
C311 C309 1.390 . S
C311 C312 1.387 . S
C311 H314 0.950 . S
C312 C311 1.387 . S
C312 C315 1.387 . S
H313 C309 0.950 . S
H314 C311 0.950 . S
C315 C306 1.390 . S
C315 H308 0.950 . S
C315 C312 1.387 . S
C316 C317 1.387 . S
C316 H320 0.950 . S
C316 C325 1.390 . S
C317 C316 1.387 . S
C317 C319 1.387 . S
H318 C325 0.950 . S
C319 C317 1.387 . S
C319 C321 1.390 . S
C319 H323 0.950 . S
H320 C316 0.950 . S
C321 C319 1.390 . S
C321 C322 1.387 . S
C321 H324 0.950 . S
C322 C321 1.387 . S
C322 C325 1.387 . S
H323 C319 0.950 . S
H324 C321 0.950 . S
C325 C316 1.390 . S
C325 H318 0.950 . S
C325 C322 1.387 . S
C326 C327 1.387 . S
C326 H330 0.950 . S
C326 C335 1.390 1_554 S
C327 C326 1.387 . S
C327 C329 1.387 . S
H328 C335 0.950 . S
C329 C327 1.387 . S
C329 C331 1.390 1_554 S
C329 H333 0.950 . S
H330 C326 0.950 . S
C331 C329 1.390 1_556 S
C331 C332 1.387 . S
C331 H334 0.950 . S
C332 C331 1.387 . S
C332 C335 1.387 . S
H333 C329 0.950 . S
H334 C331 0.950 . S
C335 C326 1.390 1_556 S
C335 H328 0.950 . S
C335 C332 1.387 . S
C336 C337 1.387 . S
C336 H340 0.950 . S
C336 C345 1.390 1_554 S
C337 C336 1.387 . S
C337 C339 1.387 . S
H338 C345 0.950 . S
C339 C337 1.387 . S
C339 C341 1.390 1_554 S
C339 H343 0.950 . S
H340 C336 0.950 . S
C341 C339 1.390 1_556 S
C341 C342 1.387 . S
C341 H344 0.950 . S
C342 C341 1.387 . S
C342 C345 1.387 . S
H343 C339 0.950 . S
H344 C341 0.950 . S
C345 C336 1.390 1_556 S
C345 H338 0.950 . S
C345 C342 1.387 . S
C346 C347 1.387 . S
C346 H350 0.950 . S
C346 C355 1.390 . S
C347 C346 1.387 . S
C347 C349 1.387 . S
H348 C355 0.950 . S
C349 C347 1.387 . S
C349 C351 1.390 . S
C349 H353 0.950 . S
H350 C346 0.950 . S
C351 C349 1.390 . S
C351 C352 1.387 . S
C351 H354 0.950 . S
C352 C351 1.387 . S
C352 C355 1.387 . S
H353 C349 0.950 . S
H354 C351 0.950 . S
C355 C346 1.390 . S
C355 H348 0.950 . S
C355 C352 1.387 . S
C356 C357 1.387 . S
C356 H360 0.950 . S
C356 C365 1.390 . S
C357 C356 1.387 . S
C357 C359 1.387 . S
H358 C365 0.950 . S
C359 C357 1.387 . S
C359 C361 1.390 . S
C359 H363 0.950 . S
H360 C356 0.950 . S
C361 C359 1.390 . S
C361 C362 1.387 . S
C361 H364 0.950 . S
C362 C361 1.387 . S
C362 C365 1.387 . S
H363 C359 0.950 . S
H364 C361 0.950 . S
C365 C356 1.390 . S
C365 H358 0.950 . S
C365 C362 1.387 . S
C366 C367 1.387 . S
C366 H370 0.950 . S
C366 C375 1.390 1_554 S
C367 C366 1.387 . S
C367 C369 1.387 . S
H368 C375 0.950 . S
C369 C367 1.387 . S
C369 C371 1.390 1_554 S
C369 H373 0.950 . S
H370 C366 0.950 . S
C371 C369 1.390 1_556 S
C371 C372 1.387 . S
C371 H374 0.950 . S
C372 C371 1.387 . S
C372 C375 1.387 . S
H373 C369 0.950 . S
H374 C371 0.950 . S
C375 C366 1.390 1_556 S
C375 H368 0.950 . S
C375 C372 1.387 . S
C376 C377 1.387 . S
C376 H380 0.950 . S
C376 C385 1.390 . S
C377 C376 1.387 . S
C377 C379 1.387 . S
H378 C385 0.950 . S
C379 C377 1.387 . S
C379 C381 1.390 . S
C379 H383 0.950 . S
H380 C376 0.950 . S
C381 C379 1.390 . S
C381 C382 1.387 . S
C381 H384 0.950 . S
C382 C381 1.387 . S
C382 C385 1.387 . S
H383 C379 0.950 . S
H384 C381 0.950 . S
C385 C376 1.390 . S
C385 H378 0.950 . S
C385 C382 1.387 . S
C386 C387 1.387 . S
C386 H390 0.950 . S
C386 C395 1.390 . S
C387 C386 1.387 . S
C387 C389 1.387 . S
H388 C395 0.950 . S
C389 C387 1.387 . S
C389 C391 1.390 . S
C389 H393 0.950 . S
H390 C386 0.950 . S
C391 C389 1.390 . S
C391 C392 1.387 . S
C391 H394 0.950 . S
C392 C391 1.387 . S
C392 C395 1.387 . S
H393 C389 0.950 . S
H394 C391 0.950 . S
C395 C386 1.390 . S
C395 H388 0.950 . S
C395 C392 1.387 . S
C396 C397 1.387 . S
C396 H400 0.950 . S
C396 C405 1.390 . S
C397 C396 1.387 . S
C397 C399 1.387 . S
H398 C405 0.950 . S
C399 C397 1.387 . S
C399 C401 1.390 . S
C399 H403 0.950 . S
H400 C396 0.950 . S
C401 C399 1.390 . S
C401 C402 1.387 . S
C401 H404 0.950 . S
C402 C401 1.387 . S
C402 C405 1.387 . S
H403 C399 0.950 . S
H404 C401 0.950 . S
C405 C396 1.390 . S
C405 H398 0.950 . S
C405 C402 1.387 . S
C406 C407 1.387 . S
C406 H410 0.950 . S
C406 C415 1.390 1_655 S
C407 C406 1.387 . S
C407 C409 1.387 . S
H408 C415 0.950 . S
C409 C407 1.387 . S
C409 C411 1.390 1_655 S
C409 H413 0.950 . S
H410 C406 0.950 . S
C411 C409 1.390 1_455 S
C411 C412 1.387 . S
C411 H414 0.950 . S
C412 C411 1.387 . S
C412 C415 1.387 . S
H413 C409 0.950 . S
H414 C411 0.950 . S
C415 C406 1.390 1_455 S
C415 H408 0.950 . S
C415 C412 1.387 . S
C416 C417 1.387 . S
C416 H420 0.950 . S
C416 C425 1.390 1_545 S
C417 C416 1.387 . S
C417 C419 1.387 . S
H418 C425 0.950 . S
C419 C417 1.387 . S
C419 C421 1.390 1_545 S
C419 H423 0.950 . S
H420 C416 0.950 . S
C421 C419 1.390 1_565 S
C421 C422 1.387 . S
C421 H424 0.950 . S
C422 C421 1.387 . S
C422 C425 1.387 . S
H423 C419 0.950 . S
H424 C421 0.950 . S
C425 C416 1.390 1_565 S
C425 H418 0.950 . S
C425 C422 1.387 . S
C426 C427 1.387 . S
C426 H430 0.950 . S
C426 C435 1.390 . S
C427 C426 1.387 . S
C427 C429 1.387 . S
H428 C435 0.950 . S
C429 C427 1.387 . S
C429 C431 1.390 . S
C429 H433 0.950 . S
H430 C426 0.950 . S
C431 C429 1.390 . S
C431 C432 1.387 . S
C431 H434 0.950 . S
C432 C431 1.387 . S
C432 C435 1.387 . S
H433 C429 0.950 . S
H434 C431 0.950 . S
C435 C426 1.390 . S
C435 H428 0.950 . S
C435 C432 1.387 . S
C436 C437 1.387 . S
C436 H440 0.950 . S
C436 C445 1.390 1_455 S
C437 C436 1.387 . S
C437 C439 1.387 . S
H438 C445 0.950 . S
C439 C437 1.387 . S
C439 C441 1.390 1_455 S
C439 H443 0.950 . S
H440 C436 0.950 . S
C441 C439 1.390 1_655 S
C441 C442 1.387 . S
C441 H444 0.950 . S
C442 C441 1.387 . S
C442 C445 1.387 . S
H443 C439 0.950 . S
H444 C441 0.950 . S
C445 C436 1.390 1_655 S
C445 H438 0.950 . S
C445 C442 1.387 . S
C446 C447 1.387 . S
C446 H450 0.950 . S
C446 C455 1.390 1_565 S
C447 C446 1.387 . S
C447 C449 1.387 . S
H448 C455 0.950 . S
C449 C447 1.387 . S
C449 C451 1.390 1_565 S
C449 H453 0.950 . S
H450 C446 0.950 . S
C451 C449 1.390 1_545 S
C451 C452 1.387 . S
C451 H454 0.950 . S
C452 C451 1.387 . S
C452 C455 1.387 . S
H453 C449 0.950 . S
H454 C451 0.950 . S
C455 C446 1.390 1_545 S
C455 H448 0.950 . S
C455 C452 1.387 . S
C456 C457 1.387 . S
C456 H460 0.950 . S
C456 C465 1.390 . S
C457 C456 1.387 . S
C457 C459 1.387 . S
H458 C465 0.950 . S
C459 C457 1.387 . S
C459 C461 1.390 . S
C459 H463 0.950 . S
H460 C456 0.950 . S
C461 C459 1.390 . S
C461 C462 1.387 . S
C461 H464 0.950 . S
C462 C461 1.387 . S
C462 C465 1.387 . S
H463 C459 0.950 . S
H464 C461 0.950 . S
C465 C456 1.390 . S
C465 H458 0.950 . S
C465 C462 1.387 . S
C466 C467 1.387 . S
C466 H470 0.950 . S
C466 C475 1.390 . S
C467 C466 1.387 . S
C467 C469 1.387 . S
H468 C475 0.950 . S
C469 C467 1.387 . S
C469 C471 1.390 . S
C469 H473 0.950 . S
H470 C466 0.950 . S
C471 C469 1.390 . S
C471 C472 1.387 . S
C471 H474 0.950 . S
C472 C471 1.387 . S
C472 C475 1.387 . S
H473 C469 0.950 . S
H474 C471 0.950 . S
C475 C466 1.390 . S
C475 H468 0.950 . S
C475 C472 1.387 . S
C476 C477 1.387 . S
C476 H480 0.950 . S
C476 C485 1.390 . S
C477 C476 1.387 . S
C477 C479 1.387 . S
H478 C485 0.950 . S
C479 C477 1.387 . S
C479 C481 1.390 . S
C479 H483 0.950 . S
H480 C476 0.950 . S
C481 C479 1.390 . S
C481 C482 1.387 . S
C481 H484 0.950 . S
C482 C481 1.387 . S
C482 C485 1.387 . S
H483 C479 0.950 . S
H484 C481 0.950 . S
C485 C476 1.390 . S
C485 H478 0.950 . S
C485 C482 1.387 . S
C486 C487 1.387 . S
C486 H490 0.950 . S
C486 C495 1.390 . S
C487 C486 1.387 . S
C487 C489 1.387 . S
H488 C495 0.950 . S
C489 C487 1.387 . S
C489 C491 1.390 . S
C489 H493 0.950 . S
H490 C486 0.950 . S
C491 C489 1.390 . S
C491 C492 1.387 . S
C491 H494 0.950 . S
C492 C491 1.387 . S
C492 C495 1.387 . S
H493 C489 0.950 . S
H494 C491 0.950 . S
C495 C486 1.390 . S
C495 H488 0.950 . S
C495 C492 1.387 . S
C496 C497 1.387 . S
C496 H500 0.950 . S
C496 C505 1.390 . S
C497 C496 1.387 . S
C497 C499 1.387 . S
H498 C505 0.950 . S
C499 C497 1.387 . S
C499 C501 1.390 . S
C499 H503 0.950 . S
H500 C496 0.950 . S
C501 C499 1.390 . S
C501 C502 1.387 . S
C501 H504 0.950 . S
C502 C501 1.387 . S
C502 C505 1.387 . S
H503 C499 0.950 . S
H504 C501 0.950 . S
C505 C496 1.390 . S
C505 H498 0.950 . S
C505 C502 1.387 . S
C506 C507 1.387 . S
C506 H510 0.950 . S
C506 C515 1.390 . S
C507 C506 1.387 . S
C507 C509 1.387 . S
H508 C515 0.950 . S
C509 C507 1.387 . S
C509 C511 1.390 . S
C509 H513 0.950 . S
H510 C506 0.950 . S
C511 C509 1.390 . S
C511 C512 1.387 . S
C511 H514 0.950 . S
C512 C511 1.387 . S
C512 C515 1.387 . S
H513 C509 0.950 . S
H514 C511 0.950 . S
C515 C506 1.390 . S
C515 H508 0.950 . S
C515 C512 1.387 . S
C277 C16 1.474 . S
C282 C154 1.474 . S
C287 C39 1.475 . S
C292 C177 1.474 . S
C297 C62 1.475 . S
C302 C200 1.475 . S
C307 C85 1.475 . S
C312 C223 1.476 . S
C317 C108 1.475 . S
C322 C246 1.475 . S
C327 C269 1.475 . S
C332 C131 1.475 . S
C337 N12 1.674 . S
C342 N242 1.674 . S
C347 N35 1.673 . S
C352 N265 1.674 . S
C357 N58 1.674 . S
C362 N150 1.674 . S
C367 N81 1.673 . S
C372 N173 1.673 . S
C377 N104 1.674 . S
C382 N196 1.673 . S
C387 N127 1.674 . S
C392 N219 1.673 . S
C397 N2 1.631 . S
C402 N71 1.631 . S
C407 N25 1.635 . S
C412 N94 1.635 . S
C417 N117 1.631 . S
C422 N48 1.631 . S
C427 N140 1.635 . S
C432 N209 1.635 . S
C437 N232 1.635 . S
C442 N163 1.635 . S
C447 N186 1.631 . S
C452 N255 1.631 . S
C457 C145 1.515 . S
C462 C7 1.514 . S
C467 C30 1.514 . S
C472 C168 1.515 . S
C477 C53 1.514 . S
C482 C191 1.514 . S
C487 C214 1.515 . S
C492 C76 1.515 . S
C497 C237 1.514 . S
C502 C99 1.514 . S
C507 C122 1.514 . S
C512 C260 1.514 . S
