# Generated by pormake.
# Topology tzs, (4)-cn, num edge types: 1
# Building blocks:
#     Node 0, Type 0, BuildingBlock: KUFVIS_clean_sbu_0, # of connection points: 4
#     Node 1, Type 0, BuildingBlock: KUFVIS_clean_sbu_0, # of connection points: 4
#     Node 2, Type 0, BuildingBlock: KUFVIS_clean_sbu_0, # of connection points: 4
#     Node 3, Type 0, BuildingBlock: KUFVIS_clean_sbu_0, # of connection points: 4
#     Node 4, Type 0, BuildingBlock: KUFVIS_clean_sbu_0, # of connection points: 4
#     Node 5, Type 0, BuildingBlock: KUFVIS_clean_sbu_0, # of connection points: 4
#     Node 6, Type 0, BuildingBlock: KUFVIS_clean_sbu_0, # of connection points: 4
#     Node 7, Type 0, BuildingBlock: KUFVIS_clean_sbu_0, # of connection points: 4
#     Node 8, Type 0, BuildingBlock: KUFVIS_clean_sbu_0, # of connection points: 4
#     Node 9, Type 0, BuildingBlock: KUFVIS_clean_sbu_0, # of connection points: 4
#     Node 10, Type 0, BuildingBlock: KUFVIS_clean_sbu_0, # of connection points: 4
#     Node 11, Type 0, BuildingBlock: KUFVIS_clean_sbu_0, # of connection points: 4
#     Node 12, Type 0, BuildingBlock: KUFVIS_clean_sbu_0, # of connection points: 4
#     Node 13, Type 0, BuildingBlock: KUFVIS_clean_sbu_0, # of connection points: 4
#     Node 14, Type 0, BuildingBlock: KUFVIS_clean_sbu_0, # of connection points: 4
#     Node 15, Type 0, BuildingBlock: KUFVIS_clean_sbu_0, # of connection points: 4
#     Edge 16, Type (0, 0), BuildingBlock: TEMPAE_clean_linker_10, # of connection points: 2
#     Edge 17, Type (0, 0), BuildingBlock: TEMPAE_clean_linker_10, # of connection points: 2
#     Edge 18, Type (0, 0), BuildingBlock: TEMPAE_clean_linker_10, # of connection points: 2
#     Edge 19, Type (0, 0), BuildingBlock: TEMPAE_clean_linker_10, # of connection points: 2
#     Edge 20, Type (0, 0), BuildingBlock: TEMPAE_clean_linker_10, # of connection points: 2
#     Edge 21, Type (0, 0), BuildingBlock: TEMPAE_clean_linker_10, # of connection points: 2
#     Edge 22, Type (0, 0), BuildingBlock: TEMPAE_clean_linker_10, # of connection points: 2
#     Edge 23, Type (0, 0), BuildingBlock: TEMPAE_clean_linker_10, # of connection points: 2
#     Edge 24, Type (0, 0), BuildingBlock: TEMPAE_clean_linker_10, # of connection points: 2
#     Edge 25, Type (0, 0), BuildingBlock: TEMPAE_clean_linker_10, # of connection points: 2
#     Edge 26, Type (0, 0), BuildingBlock: TEMPAE_clean_linker_10, # of connection points: 2
#     Edge 27, Type (0, 0), BuildingBlock: TEMPAE_clean_linker_10, # of connection points: 2
#     Edge 28, Type (0, 0), BuildingBlock: TEMPAE_clean_linker_10, # of connection points: 2
#     Edge 29, Type (0, 0), BuildingBlock: TEMPAE_clean_linker_10, # of connection points: 2
#     Edge 30, Type (0, 0), BuildingBlock: TEMPAE_clean_linker_10, # of connection points: 2
#     Edge 31, Type (0, 0), BuildingBlock: TEMPAE_clean_linker_10, # of connection points: 2
#     Edge 32, Type (0, 0), BuildingBlock: TEMPAE_clean_linker_10, # of connection points: 2
#     Edge 33, Type (0, 0), BuildingBlock: TEMPAE_clean_linker_10, # of connection points: 2
#     Edge 34, Type (0, 0), BuildingBlock: TEMPAE_clean_linker_10, # of connection points: 2
#     Edge 35, Type (0, 0), BuildingBlock: TEMPAE_clean_linker_10, # of connection points: 2
#     Edge 36, Type (0, 0), BuildingBlock: TEMPAE_clean_linker_10, # of connection points: 2
#     Edge 37, Type (0, 0), BuildingBlock: TEMPAE_clean_linker_10, # of connection points: 2
#     Edge 38, Type (0, 0), BuildingBlock: TEMPAE_clean_linker_10, # of connection points: 2
#     Edge 39, Type (0, 0), BuildingBlock: TEMPAE_clean_linker_10, # of connection points: 2
#     Edge 40, Type (0, 0), BuildingBlock: TEMPAE_clean_linker_10, # of connection points: 2
#     Edge 41, Type (0, 0), BuildingBlock: TEMPAE_clean_linker_10, # of connection points: 2
#     Edge 42, Type (0, 0), BuildingBlock: TEMPAE_clean_linker_10, # of connection points: 2
#     Edge 43, Type (0, 0), BuildingBlock: TEMPAE_clean_linker_10, # of connection points: 2
#     Edge 44, Type (0, 0), BuildingBlock: TEMPAE_clean_linker_10, # of connection points: 2
#     Edge 45, Type (0, 0), BuildingBlock: TEMPAE_clean_linker_10, # of connection points: 2
#     Edge 46, Type (0, 0), BuildingBlock: TEMPAE_clean_linker_10, # of connection points: 2
#     Edge 47, Type (0, 0), BuildingBlock: TEMPAE_clean_linker_10, # of connection points: 2
# Relax obj value: 0.099
# Max RMSD: 0.096
# Mean RMSD: 0.096
data_MOF--net-tzs--node1-KUFVIS_clean_sbu_0--edge1-TEMPAE_clean_linker_10
_symmetry_space_group_name_H-M    P1
_symmetry_Int_Tables_number       1
_symmetry_cell_setting            triclinic
loop_
_symmetry_equiv_pos_as_xyz
'x, y, z'
_cell_length_a     48.651136
_cell_length_b     48.659731
_cell_length_c     40.104227
_cell_angle_alpha  89.986786
_cell_angle_beta   90.008468
_cell_angle_gamma 89.986932
loop_
_atom_site_label
_atom_site_type_symbol
_atom_site_fract_x
_atom_site_fract_y
_atom_site_fract_z
_atom_type_partial_charge
Mn0 Mn 0.1488 0.3643 0.19448 0.0
Mn1 Mn 0.20559 0.39411 0.16169 0.0
C2 C 0.16704 0.40461 0.21655 0.0
C3 C 0.10131 0.35843 0.20318 0.0
C4 C 0.20792 0.34292 0.20398 0.0
O5 O 0.14952 0.34787 0.14699 0.0
O6 O 0.18851 0.36882 0.12988 0.0
C7 C 0.17911 0.42671 0.10821 0.0
N8 N 0.19561 0.42537 0.1356 0.0
C9 C 0.21036 0.4721 0.12807 0.0
C10 C 0.19345 0.47408 0.09985 0.0
C11 C 0.17753 0.45136 0.09009 0.0
C12 C 0.2103 0.44735 0.14581 0.0
H13 H 0.1675 0.40903 0.10007 0.0
C14 C 0.16822 0.35263 0.12511 0.0
O15 O 0.11902 0.33949 0.21054 0.0
O16 O 0.11088 0.38007 0.18812 0.0
N17 N 0.22421 0.41961 0.18996 0.0
C18 C 0.23833 0.41469 0.21868 0.0
C19 C 0.25457 0.43564 0.23252 0.0
C20 C 0.25692 0.46101 0.21601 0.0
C21 C 0.2424 0.46543 0.18626 0.0
C22 C 0.22566 0.44422 0.17445 0.0
H23 H 0.23735 0.39485 0.23073 0.0
O24 O 0.15286 0.38805 0.23519 0.0
O25 O 0.17094 0.3968 0.18614 0.0
O26 O 0.18206 0.34081 0.2082 0.0
O27 O 0.21889 0.36254 0.18774 0.0
C28 C 0.24414 0.48991 0.16761 0.0
C29 C 0.22773 0.49346 0.1389 0.0
H30 H 0.19263 0.49287 0.0854 0.0
H31 H 0.16451 0.45267 0.06826 0.0
H32 H 0.26573 0.43205 0.25546 0.0
H33 H 0.26991 0.47693 0.22639 0.0
H34 H 0.25751 0.50644 0.17561 0.0
H35 H 0.22867 0.51269 0.12533 0.0
Mn36 Mn 0.64535 0.14463 0.19546 0.0
Mn37 Mn 0.61629 0.20101 0.16067 0.0
C38 C 0.60475 0.16327 0.21611 0.0
C39 C 0.65091 0.09726 0.20517 0.0
C40 C 0.66679 0.20382 0.20418 0.0
O41 O 0.66247 0.14456 0.1484 0.0
O42 O 0.64211 0.18343 0.1298 0.0
C43 C 0.58456 0.17388 0.10693 0.0
N44 N 0.58545 0.19071 0.13404 0.0
C45 C 0.53867 0.20496 0.12548 0.0
C46 C 0.53716 0.18772 0.09752 0.0
C47 C 0.56014 0.17191 0.0884 0.0
C48 C 0.56324 0.20537 0.1436 0.0
H49 H 0.60242 0.1623 0.09931 0.0
C50 C 0.65819 0.16291 0.12596 0.0
O51 O 0.66978 0.11498 0.21272 0.0
O52 O 0.62954 0.10672 0.18945 0.0
N53 N 0.59033 0.22001 0.18797 0.0
C54 C 0.59477 0.23444 0.21656 0.0
C55 C 0.57349 0.25061 0.22981 0.0
C56 C 0.54828 0.25252 0.21286 0.0
C57 C 0.54435 0.23766 0.18326 0.0
C58 C 0.5659 0.22107 0.17202 0.0
H59 H 0.61446 0.23374 0.229 0.0
O60 O 0.62097 0.14935 0.23548 0.0
O61 O 0.61307 0.16673 0.18582 0.0
O62 O 0.66874 0.17801 0.20899 0.0
O63 O 0.64746 0.21461 0.18723 0.0
C64 C 0.52002 0.23888 0.16425 0.0
C65 C 0.51697 0.22216 0.13574 0.0
H66 H 0.51853 0.18655 0.0828 0.0
H67 H 0.55919 0.15863 0.06679 0.0
H68 H 0.57669 0.26202 0.25264 0.0
H69 H 0.53208 0.26541 0.2228 0.0
H70 H 0.50324 0.25213 0.1718 0.0
H71 H 0.49786 0.22272 0.12188 0.0
Mn72 Mn 0.86353 0.64147 0.19363 0.0
Mn73 Mn 0.80662 0.61143 0.16151 0.0
C74 C 0.8459 0.60083 0.21556 0.0
C75 C 0.91104 0.64761 0.20176 0.0
C76 C 0.80437 0.66229 0.20431 0.0
O77 O 0.86212 0.65831 0.14638 0.0
O78 O 0.82306 0.63722 0.1298 0.0
C79 C 0.83273 0.57962 0.10712 0.0
N80 N 0.81654 0.58054 0.1348 0.0
C81 C 0.80197 0.53382 0.12671 0.0
C82 C 0.81857 0.53227 0.09818 0.0
C83 C 0.83425 0.5552 0.08855 0.0
C84 C 0.80211 0.55835 0.14489 0.0
H85 H 0.84413 0.59748 0.09909 0.0
C86 C 0.84311 0.65366 0.12486 0.0
O87 O 0.89328 0.66639 0.20952 0.0
O88 O 0.90149 0.62604 0.18655 0.0
N89 N 0.78857 0.58547 0.18973 0.0
C90 C 0.77475 0.58998 0.21875 0.0
C91 C 0.75877 0.56878 0.2325 0.0
C92 C 0.75634 0.54361 0.21558 0.0
C93 C 0.77054 0.53962 0.18552 0.0
C94 C 0.78707 0.56105 0.17383 0.0
H95 H 0.77576 0.60968 0.23111 0.0
O96 O 0.86011 0.61739 0.23416 0.0
O97 O 0.84158 0.60883 0.1853 0.0
O98 O 0.83026 0.66461 0.20805 0.0
O99 O 0.79335 0.64262 0.18823 0.0
C100 C 0.7687 0.51536 0.16646 0.0
C101 C 0.78482 0.51224 0.13743 0.0
H102 H 0.81931 0.51366 0.0834 0.0
H103 H 0.84702 0.55422 0.06649 0.0
H104 H 0.74785 0.57203 0.25567 0.0
H105 H 0.74354 0.52749 0.22588 0.0
H106 H 0.7555 0.49867 0.17438 0.0
H107 H 0.78381 0.49318 0.12354 0.0
Mn108 Mn 0.36602 0.86083 0.1946 0.0
Mn109 Mn 0.39569 0.80419 0.16129 0.0
C110 C 0.40713 0.84329 0.21528 0.0
C111 C 0.35992 0.90829 0.20319 0.0
C112 C 0.34555 0.80154 0.20536 0.0
O113 O 0.34848 0.85968 0.14776 0.0
O114 O 0.36933 0.82074 0.13028 0.0
C115 C 0.42651 0.8305 0.1062 0.0
N116 N 0.42611 0.81427 0.13386 0.0
C117 C 0.47275 0.79987 0.12461 0.0
C118 C 0.47377 0.81652 0.09609 0.0
C119 C 0.45062 0.83213 0.08704 0.0
C120 C 0.44851 0.79987 0.14335 0.0
H121 H 0.40848 0.84186 0.09861 0.0
C122 C 0.35284 0.84086 0.12591 0.0
O123 O 0.34132 0.89046 0.21134 0.0
O124 O 0.38125 0.89884 0.18739 0.0
N125 N 0.42217 0.78613 0.1888 0.0
C126 C 0.41822 0.77234 0.21796 0.0
C127 C 0.43974 0.75648 0.23121 0.0
C128 C 0.46465 0.75416 0.21368 0.0
C129 C 0.46806 0.76837 0.18351 0.0
C130 C 0.44634 0.78476 0.17232 0.0
H131 H 0.39873 0.77328 0.23082 0.0
O132 O 0.39081 0.85727 0.23445 0.0
O133 O 0.39859 0.83906 0.18523 0.0
O134 O 0.34319 0.8274 0.20935 0.0
O135 O 0.36499 0.79071 0.18868 0.0
C136 C 0.49203 0.76668 0.1639 0.0
C137 C 0.4946 0.78282 0.13481 0.0
H138 H 0.49214 0.81737 0.08087 0.0
H139 H 0.45118 0.84493 0.06498 0.0
H140 H 0.43694 0.74557 0.25448 0.0
H141 H 0.48101 0.74147 0.22362 0.0
H142 H 0.50893 0.75358 0.17144 0.0
H143 H 0.51345 0.78194 0.12048 0.0
Mn144 Mn 0.15108 0.6428 0.30837 0.0
Mn145 Mn 0.20796 0.61215 0.33995 0.0
C146 C 0.16978 0.60366 0.28384 0.0
C147 C 0.10349 0.64818 0.30017 0.0
C148 C 0.20981 0.6656 0.30159 0.0
O149 O 0.15163 0.65728 0.35676 0.0
O150 O 0.18976 0.63471 0.37387 0.0
C151 C 0.18198 0.57525 0.38942 0.0
N152 N 0.19835 0.57883 0.36222 0.0
C153 C 0.21363 0.53188 0.36445 0.0
C154 C 0.19687 0.52761 0.39242 0.0
C155 C 0.18073 0.54932 0.40472 0.0
C156 C 0.21315 0.55783 0.34944 0.0
H157 H 0.17027 0.59213 0.39959 0.0
C158 C 0.16953 0.6509 0.37904 0.0
O159 O 0.12081 0.66772 0.29384 0.0
O160 O 0.1135 0.62619 0.314 0.0
N161 N 0.22767 0.58929 0.30944 0.0
C162 C 0.24324 0.59699 0.28279 0.0
C163 C 0.25996 0.57744 0.2669 0.0
C164 C 0.26127 0.55048 0.27932 0.0
C165 C 0.2457 0.54328 0.3074 0.0
C166 C 0.22872 0.56338 0.32152 0.0
H167 H 0.24295 0.6179 0.27377 0.0
O168 O 0.15522 0.62073 0.26634 0.0
O169 O 0.17364 0.61035 0.31464 0.0
O170 O 0.18408 0.66712 0.29596 0.0
O171 O 0.22074 0.64585 0.31766 0.0
C172 C 0.2471 0.51723 0.32263 0.0
C173 C 0.23123 0.51161 0.35131 0.0
H174 H 0.19635 0.50781 0.40476 0.0
H175 H 0.16783 0.54622 0.42638 0.0
H176 H 0.27215 0.58326 0.24546 0.0
H177 H 0.27456 0.53558 0.26735 0.0
H178 H 0.26033 0.50138 0.31253 0.0
H179 H 0.2324 0.49146 0.36272 0.0
Mn180 Mn 0.36652 0.14857 0.30807 0.0
Mn181 Mn 0.39774 0.20585 0.33763 0.0
C182 C 0.40538 0.16675 0.28228 0.0
C183 C 0.36084 0.10091 0.30092 0.0
C184 C 0.34383 0.20724 0.30022 0.0
O185 O 0.35272 0.1499 0.35677 0.0
O186 O 0.37551 0.1883 0.37237 0.0
C187 C 0.4351 0.1807 0.38724 0.0
N188 N 0.43127 0.19657 0.35966 0.0
C189 C 0.47811 0.21222 0.3612 0.0
C190 C 0.48264 0.19596 0.38955 0.0
C191 C 0.46111 0.17988 0.40239 0.0
C192 C 0.45211 0.21127 0.34634 0.0
H193 H 0.41833 0.16908 0.39786 0.0
C194 C 0.35939 0.16819 0.37844 0.0
O195 O 0.34127 0.11824 0.29472 0.0
O196 O 0.38307 0.11099 0.31411 0.0
N197 N 0.42033 0.22499 0.3063 0.0
C198 C 0.41237 0.2401 0.27935 0.0
C199 C 0.43174 0.25664 0.26286 0.0
C200 C 0.45877 0.25828 0.275 0.0
C201 C 0.46623 0.24322 0.3034 0.0
C202 C 0.44631 0.22635 0.31809 0.0
H203 H 0.3914 0.23959 0.27056 0.0
O204 O 0.388 0.15201 0.26549 0.0
O205 O 0.39916 0.1711 0.31313 0.0
O206 O 0.34211 0.18143 0.29539 0.0
O207 O 0.36386 0.21837 0.31555 0.0
C208 C 0.49233 0.24506 0.31843 0.0
C209 C 0.49818 0.22978 0.34751 0.0
H210 H 0.5025 0.19581 0.40177 0.0
H211 H 0.4644 0.16737 0.42435 0.0
H212 H 0.42572 0.26845 0.2412 0.0
H213 H 0.47352 0.27145 0.26259 0.0
H214 H 0.50805 0.25821 0.30788 0.0
H215 H 0.51836 0.23131 0.35878 0.0
Mn216 Mn 0.86101 0.36273 0.30825 0.0
Mn217 Mn 0.80368 0.39392 0.33774 0.0
C218 C 0.84286 0.40157 0.28245 0.0
C219 C 0.90871 0.35728 0.30115 0.0
C220 C 0.80234 0.34 0.30035 0.0
O221 O 0.8597 0.34898 0.35696 0.0
O222 O 0.82122 0.37168 0.37251 0.0
C223 C 0.82879 0.43124 0.38738 0.0
N224 N 0.81296 0.42743 0.35975 0.0
C225 C 0.79759 0.47437 0.36102 0.0
C226 C 0.81379 0.47888 0.38942 0.0
C227 C 0.82972 0.45729 0.40242 0.0
C228 C 0.7984 0.44832 0.3463 0.0
H229 H 0.84031 0.41445 0.3981 0.0
C230 C 0.84138 0.35562 0.3786 0.0
O231 O 0.8915 0.33762 0.2949 0.0
O232 O 0.89851 0.37942 0.31438 0.0
N233 N 0.78458 0.41652 0.30636 0.0
C234 C 0.76944 0.40858 0.27944 0.0
C235 C 0.75302 0.42799 0.26284 0.0
C236 C 0.75154 0.45507 0.27482 0.0
C237 C 0.76664 0.46253 0.30319 0.0
C238 C 0.78334 0.44254 0.31804 0.0
H239 H 0.76984 0.38758 0.27076 0.0
O240 O 0.85759 0.38418 0.26567 0.0
O241 O 0.83844 0.39533 0.31329 0.0
O242 O 0.82817 0.33826 0.29556 0.0
O243 O 0.79119 0.36004 0.31565 0.0
C244 C 0.76499 0.48871 0.31802 0.0
C245 C 0.78022 0.49453 0.34714 0.0
H246 H 0.81405 0.49877 0.40154 0.0
H247 H 0.84219 0.46056 0.42441 0.0
H248 H 0.74118 0.42198 0.2412 0.0
H249 H 0.73849 0.46987 0.2623 0.0
H250 H 0.75199 0.5045 0.30732 0.0
H251 H 0.7788 0.51475 0.35831 0.0
Mn252 Mn 0.64522 0.85662 0.30759 0.0
Mn253 Mn 0.61327 0.79868 0.33389 0.0
C254 C 0.60698 0.83922 0.27969 0.0
C255 C 0.65082 0.90443 0.30225 0.0
C256 C 0.66831 0.79827 0.29895 0.0
O257 O 0.65773 0.85405 0.35676 0.0
O258 O 0.63416 0.81558 0.37028 0.0
C259 C 0.57405 0.82217 0.38253 0.0
N260 N 0.57894 0.80715 0.3545 0.0
C261 C 0.53233 0.7908 0.35333 0.0
C262 C 0.52671 0.80618 0.3821 0.0
C263 C 0.54759 0.82221 0.39652 0.0
C264 C 0.55873 0.79254 0.33968 0.0
H265 H 0.59033 0.83368 0.39438 0.0
C266 C 0.65022 0.83545 0.37765 0.0
O267 O 0.67067 0.88735 0.29628 0.0
O268 O 0.62837 0.89396 0.31436 0.0
N269 N 0.59195 0.78017 0.30075 0.0
C270 C 0.60095 0.76583 0.27368 0.0
C271 C 0.58232 0.74957 0.25563 0.0
C272 C 0.55491 0.7474 0.26631 0.0
C273 C 0.54634 0.76168 0.29483 0.0
C274 C 0.5656 0.77828 0.31117 0.0
H275 H 0.6222 0.76674 0.26598 0.0
O276 O 0.62485 0.85429 0.26414 0.0
O277 O 0.61248 0.83399 0.31056 0.0
O278 O 0.67003 0.82414 0.29464 0.0
O279 O 0.64796 0.78684 0.31326 0.0
C280 C 0.51975 0.75928 0.3084 0.0
C281 C 0.51291 0.77344 0.33797 0.0
H282 H 0.5065 0.80574 0.3934 0.0
H283 H 0.54346 0.83405 0.41881 0.0
H284 H 0.58918 0.73835 0.23386 0.0
H285 H 0.54071 0.73444 0.25267 0.0
H286 H 0.50448 0.74637 0.29651 0.0
H287 H 0.49246 0.77127 0.34832 0.0
Mn288 Mn 0.86371 0.65178 0.80918 0.0
Mn289 Mn 0.89379 0.70851 0.84165 0.0
C290 C 0.90406 0.66978 0.78698 0.0
C291 C 0.8579 0.60427 0.80067 0.0
C292 C 0.84245 0.71093 0.79959 0.0
O293 O 0.84746 0.6526 0.85673 0.0
O294 O 0.8685 0.69161 0.87364 0.0
C295 C 0.92638 0.68213 0.8952 0.0
N296 N 0.92507 0.69849 0.86768 0.0
C297 C 0.97197 0.71284 0.87478 0.0
C298 C 0.97392 0.69608 0.90314 0.0
C299 C 0.9511 0.68044 0.91319 0.0
C300 C 0.94713 0.71293 0.85721 0.0
H301 H 0.90864 0.67072 0.90355 0.0
C302 C 0.85233 0.67132 0.87855 0.0
O303 O 0.83889 0.62192 0.79328 0.0
O304 O 0.87952 0.61392 0.81567 0.0
N305 N 0.91933 0.72685 0.81314 0.0
C306 C 0.91444 0.74075 0.78426 0.0
C307 C 0.93553 0.75661 0.77005 0.0
C308 C 0.96101 0.75879 0.78635 0.0
C309 C 0.96539 0.74451 0.81628 0.0
C310 C 0.94402 0.72813 0.82846 0.0
H311 H 0.89455 0.73987 0.77233 0.0
O312 O 0.88738 0.65569 0.76838 0.0
O313 O 0.89627 0.6738 0.81736 0.0
O314 O 0.84022 0.68507 0.79548 0.0
O315 O 0.86219 0.72187 0.81566 0.0
C316 C 0.98999 0.7461 0.83473 0.0
C317 C 0.99348 0.7299 0.86362 0.0
H318 H 0.99278 0.69517 0.91746 0.0
H319 H 0.95239 0.66754 0.93512 0.0
H320 H 0.93197 0.7676 0.74699 0.0
H321 H 0.97706 0.77147 0.77568 0.0
H322 H 0.00665 0.75918 0.82643 0.0
H323 H 0.01278 0.73071 0.87704 0.0
Mn324 Mn 0.35842 0.86673 0.81097 0.0
Mn325 Mn 0.30153 0.89701 0.84278 0.0
C326 C 0.34083 0.90725 0.78867 0.0
C327 C 0.40591 0.86043 0.803 0.0
C328 C 0.29923 0.84598 0.80027 0.0
O329 O 0.35703 0.85024 0.85837 0.0
O330 O 0.31789 0.87131 0.87474 0.0
C331 C 0.32773 0.92896 0.897 0.0
N332 N 0.31156 0.92798 0.86931 0.0
C333 C 0.29749 0.97493 0.87678 0.0
C334 C 0.31407 0.97653 0.90533 0.0
C335 C 0.32948 0.95351 0.91528 0.0
C336 C 0.29736 0.95024 0.85893 0.0
H337 H 0.33897 0.91106 0.90526 0.0
C338 C 0.33803 0.85499 0.87986 0.0
O339 O 0.38812 0.84164 0.79539 0.0
O340 O 0.39638 0.88215 0.81793 0.0
N341 N 0.2836 0.92291 0.81436 0.0
C342 C 0.26979 0.91834 0.78534 0.0
C343 C 0.25407 0.93961 0.7713 0.0
C344 C 0.25192 0.96496 0.78789 0.0
C345 C 0.26612 0.96902 0.81794 0.0
C346 C 0.28234 0.94748 0.82998 0.0
H347 H 0.27062 0.89854 0.7732 0.0
O348 O 0.35503 0.89055 0.77022 0.0
O349 O 0.33651 0.89944 0.819 0.0
O350 O 0.32513 0.84357 0.79675 0.0
O351 O 0.2882 0.86574 0.8162 0.0
C352 C 0.26456 0.99347 0.83667 0.0
C353 C 0.28065 0.99664 0.86571 0.0
H354 H 0.31501 0.99526 0.91988 0.0
H355 H 0.34224 0.95453 0.93736 0.0
H356 H 0.24316 0.9363 0.74813 0.0
H357 H 0.23934 0.98114 0.77734 0.0
H358 H 0.25159 0.01027 0.82848 0.0
H359 H 0.27986 0.01584 0.87934 0.0
Mn360 Mn 0.14281 0.36179 0.80969 0.0
Mn361 Mn 0.1126 0.30454 0.84055 0.0
C362 C 0.10228 0.34444 0.78718 0.0
C363 C 0.14883 0.4094 0.80225 0.0
C364 C 0.16384 0.30278 0.79832 0.0
O365 O 0.15917 0.35998 0.85718 0.0
O366 O 0.13808 0.32067 0.87292 0.0
C367 C 0.08029 0.32985 0.89509 0.0
N368 N 0.08145 0.31409 0.86706 0.0
C369 C 0.03465 0.29942 0.87423 0.0
C370 C 0.03286 0.31556 0.90311 0.0
C371 C 0.05571 0.33108 0.91338 0.0
C372 C 0.05934 0.29982 0.85637 0.0
H373 H 0.09808 0.34111 0.90362 0.0
C374 C 0.15432 0.34079 0.87842 0.0
O375 O 0.16775 0.39179 0.79448 0.0
O376 O 0.1272 0.39962 0.81713 0.0
N377 N 0.08688 0.2869 0.81163 0.0
C378 C 0.09158 0.27366 0.78226 0.0
C379 C 0.07042 0.25808 0.76776 0.0
C380 C 0.04508 0.25545 0.78427 0.0
C381 C 0.04089 0.26904 0.81469 0.0
C382 C 0.06229 0.28524 0.82713 0.0
H383 H 0.1114 0.27484 0.77018 0.0
O384 O 0.11899 0.35874 0.76888 0.0
O385 O 0.11016 0.33977 0.81739 0.0
O386 O 0.16618 0.32871 0.79505 0.0
O387 O 0.14404 0.29159 0.814 0.0
C388 C 0.01647 0.26691 0.8334 0.0
C389 C 0.01315 0.28247 0.86283 0.0
H390 H 0.01412 0.31609 0.91767 0.0
H391 H 0.05454 0.3435 0.93572 0.0
H392 H 0.07384 0.24762 0.74431 0.0
H393 H 0.02899 0.24295 0.77337 0.0
H394 H 0.9998 0.25393 0.82488 0.0
H395 H 0.99396 0.28126 0.87645 0.0
Mn396 Mn 0.64849 0.14375 0.80887 0.0
Mn397 Mn 0.70671 0.11215 0.835 0.0
C398 C 0.66612 0.10555 0.78108 0.0
C399 C 0.60066 0.14935 0.80331 0.0
C400 C 0.70686 0.16676 0.79915 0.0
O401 O 0.651 0.15647 0.85797 0.0
O402 O 0.69015 0.13386 0.8709 0.0
C403 C 0.68315 0.07414 0.885 0.0
N404 N 0.69817 0.07834 0.85681 0.0
C405 C 0.71435 0.03166 0.85717 0.0
C406 C 0.69896 0.02675 0.88613 0.0
C407 C 0.68302 0.04801 0.89987 0.0
C408 C 0.71268 0.05775 0.84263 0.0
H409 H 0.67169 0.09071 0.89632 0.0
C410 C 0.67012 0.14964 0.8785 0.0
O411 O 0.61777 0.16916 0.79736 0.0
O412 O 0.61109 0.12691 0.81555 0.0
N413 N 0.72501 0.09001 0.8025 0.0
C414 C 0.7394 0.09835 0.77516 0.0
C415 C 0.75566 0.07929 0.75777 0.0
C416 C 0.75784 0.05216 0.76944 0.0
C417 C 0.74358 0.0443 0.79828 0.0
C418 C 0.7269 0.06392 0.81386 0.0
H419 H 0.73853 0.11942 0.76673 0.0
O420 O 0.65095 0.1233 0.76547 0.0
O421 O 0.67126 0.11103 0.81196 0.0
O422 O 0.68089 0.16862 0.79587 0.0
O423 O 0.71852 0.14632 0.81304 0.0
C424 C 0.74612 0.01811 0.81292 0.0
C425 C 0.73175 0.0119 0.84257 0.0
H426 H 0.69937 0.00681 0.89814 0.0
H427 H 0.67119 0.04443 0.9223 0.0
H428 H 0.76689 0.08562 0.73578 0.0
H429 H 0.77082 0.03765 0.75634 0.0
H430 H 0.75914 1.00261 0.80167 0.0
H431 H 0.73384 0.99167 0.85357 0.0
Mn432 Mn 0.86347 0.36365 0.69684 0.0
Mn433 Mn 0.89422 0.30615 0.66711 0.0
C434 C 0.90247 0.34541 0.72227 0.0
C435 C 0.85801 0.41136 0.70376 0.0
C436 C 0.84048 0.30517 0.7049 0.0
O437 O 0.84927 0.36219 0.6483 0.0
O438 O 0.87208 0.32385 0.63241 0.0
C439 C 0.93172 0.33085 0.61737 0.0
N440 N 0.9278 0.31508 0.64502 0.0
C441 C 0.97448 0.29894 0.6434 0.0
C442 C 0.97911 0.31509 0.61499 0.0
C443 C 0.95771 0.33137 0.60215 0.0
C444 C 0.94852 0.30019 0.65833 0.0
H445 H 0.91504 0.3426 0.60676 0.0
C446 C 0.85587 0.34394 0.62655 0.0
O447 O 0.83843 0.39413 0.7103 0.0
O448 O 0.88009 0.40116 0.69037 0.0
N449 N 0.91666 0.28681 0.69842 0.0
C450 C 0.90858 0.27171 0.72532 0.0
C451 C 0.92779 0.25495 0.74176 0.0
C452 C 0.95481 0.25308 0.72962 0.0
C453 C 0.9624 0.26814 0.70128 0.0
C454 C 0.94263 0.2852 0.6866 0.0
H455 H 0.88761 0.27239 0.73411 0.0
O456 O 0.8853 0.36031 0.73916 0.0
O457 O 0.89596 0.34094 0.69152 0.0
O458 O 0.83904 0.33096 0.71004 0.0
O459 O 0.86024 0.29394 0.68919 0.0
C460 C 0.9885 0.26609 0.68627 0.0
C461 C 0.99441 0.28122 0.6571 0.0
H462 H 0.99894 0.31502 0.60271 0.0
H463 H 0.96107 0.3438 0.58014 0.0
H464 H 0.92167 0.24314 0.76338 0.0
H465 H 0.96945 0.23976 0.74201 0.0
H466 H 1.00413 0.25283 0.69684 0.0
H467 H 0.01454 0.27946 0.64577 0.0
Mn468 Mn 0.64535 0.86542 0.69402 0.0
Mn469 Mn 0.70101 0.89494 0.65819 0.0
C470 C 0.66351 0.90644 0.71391 0.0
C471 C 0.59808 0.85945 0.70405 0.0
C472 C 0.70491 0.8449 0.70235 0.0
O473 O 0.64524 0.84778 0.64731 0.0
O474 O 0.68361 0.86855 0.62785 0.0
C475 C 0.67298 0.92577 0.60434 0.0
N476 N 0.69003 0.92538 0.63128 0.0
C477 C 0.70331 0.97235 0.62211 0.0
C478 C 0.68583 0.97334 0.59432 0.0
C479 C 0.6704 0.95001 0.58559 0.0
C480 C 0.70434 0.94792 0.64045 0.0
H481 H 0.66167 0.90765 0.59704 0.0
C482 C 0.66334 0.85207 0.62459 0.0
O483 O 0.61603 0.84084 0.71183 0.0
O484 O 0.60728 0.88075 0.68799 0.0
N485 N 0.71981 0.92142 0.68495 0.0
C486 C 0.7345 0.91745 0.71346 0.0
C487 C 0.75035 0.93912 0.72633 0.0
C488 C 0.75165 0.96425 0.70911 0.0
C489 C 0.73653 0.96769 0.67962 0.0
C490 C 0.7203 0.94575 0.66873 0.0
H491 H 0.73425 0.89785 0.72611 0.0
O492 O 0.64995 0.89021 0.73364 0.0
O493 O 0.6669 0.89788 0.6837 0.0
O494 O 0.67918 0.84263 0.70757 0.0
O495 O 0.71527 0.86421 0.68499 0.0
C496 C 0.73711 0.99191 0.66038 0.0
C497 C 0.72014 0.99445 0.632 0.0
H498 H 0.68419 0.99185 0.57944 0.0
H499 H 0.65694 0.95057 0.56412 0.0
H500 H 0.76196 0.9363 0.74909 0.0
H501 H 0.76428 0.98075 0.71878 0.0
H502 H 0.75007 0.009 0.66764 0.0
H503 H 0.72021 0.01347 0.61797 0.0
Mn504 Mn 0.14272 0.64986 0.69678 0.0
Mn505 Mn 0.11219 0.70658 0.66452 0.0
C506 C 0.1034 0.66861 0.72083 0.0
C507 C 0.14822 0.60229 0.70513 0.0
C508 C 0.16533 0.70862 0.70349 0.0
O509 O 0.1576 0.65032 0.64855 0.0
O510 O 0.13497 0.68824 0.63095 0.0
C511 C 0.07559 0.68042 0.61489 0.0
N512 N 0.07902 0.69693 0.64199 0.0
C513 C 0.03223 0.7126 0.63884 0.0
C514 C 0.02812 0.69569 0.61097 0.0
C515 C 0.04982 0.67928 0.59918 0.0
C516 C 0.058 0.71196 0.6543 0.0
H517 H 0.09251 0.66853 0.60507 0.0
C518 C 0.15131 0.66808 0.62609 0.0
O519 O 0.16764 0.61971 0.71167 0.0
O520 O 0.12628 0.6122 0.69108 0.0
N521 N 0.08916 0.7265 0.69463 0.0
C522 C 0.09673 0.74225 0.72118 0.0
C523 C 0.07717 0.75927 0.73657 0.0
C524 C 0.05035 0.76072 0.72372 0.0
C525 C 0.0433 0.74499 0.69571 0.0
C526 C 0.06338 0.72768 0.68214 0.0
H527 H 0.11756 0.74189 0.73049 0.0
O528 O 0.12032 0.65406 0.73854 0.0
O529 O 0.11026 0.67237 0.69006 0.0
O530 O 0.16684 0.68294 0.70939 0.0
O531 O 0.14574 0.71944 0.68703 0.0
C532 C 0.01746 0.74657 0.68 0.0
C533 C 0.01199 0.73053 0.65142 0.0
H534 H 0.00845 0.69528 0.5983 0.0
H535 H 0.04685 0.66627 0.5776 0.0
H536 H 0.08288 0.7716 0.75793 0.0
H537 H 0.03546 0.77426 0.73528 0.0
H538 H 1.00164 0.76006 0.68965 0.0
H539 H 0.992 0.73183 0.63964 0.0
Mn540 Mn 0.36037 0.14542 0.69698 0.0
Mn541 Mn 0.30359 0.11506 0.66474 0.0
C542 C 0.3413 0.10637 0.72131 0.0
C543 C 0.40794 0.15051 0.70566 0.0
C544 C 0.3017 0.16851 0.7031 0.0
O545 O 0.36023 0.15993 0.64857 0.0
O546 O 0.32218 0.13749 0.631 0.0
C547 C 0.32969 0.07797 0.6156 0.0
N548 N 0.31315 0.08168 0.64261 0.0
C549 C 0.29745 0.03489 0.64012 0.0
C550 C 0.31439 0.03049 0.61234 0.0
C551 C 0.33083 0.05205 0.60026 0.0
C552 C 0.29806 0.06081 0.65519 0.0
H553 H 0.34163 0.09477 0.60557 0.0
C554 C 0.3425 0.15361 0.62608 0.0
O555 O 0.39068 0.17014 0.71189 0.0
O556 O 0.39792 0.12861 0.69167 0.0
N557 N 0.28348 0.09235 0.69503 0.0
C558 C 0.26774 0.10018 0.72149 0.0
C559 C 0.25071 0.08078 0.73715 0.0
C560 C 0.24927 0.05384 0.72469 0.0
C561 C 0.26501 0.04652 0.6968 0.0
C562 C 0.2823 0.06647 0.68292 0.0
H563 H 0.26812 0.12108 0.73051 0.0
O564 O 0.35583 0.12334 0.73895 0.0
O565 O 0.33769 0.11307 0.69046 0.0
O566 O 0.32738 0.16989 0.70912 0.0
O567 O 0.29083 0.14885 0.68682 0.0
C568 C 0.26349 0.02051 0.6815 0.0
C569 C 0.27953 0.01477 0.653 0.0
H570 H 0.31482 0.0107 0.59997 0.0
H571 H 0.34387 0.04886 0.57875 0.0
H572 H 0.23838 0.08669 0.75843 0.0
H573 H 0.23574 0.03906 0.73647 0.0
H574 H 0.25002 0.00478 0.69141 0.0
H575 H 0.27826 0.99466 0.64153 0.0
C576 C 0.31898 0.25229 0.29984 0.0
C577 C 0.3218 0.22551 0.28727 0.0
C578 C 0.29904 0.27035 0.2872 0.0
C579 C 0.28167 0.26165 0.26094 0.0
C580 C 0.28407 0.23451 0.24844 0.0
C581 C 0.30397 0.21669 0.26192 0.0
C582 C 0.29694 0.29897 0.30156 0.0
C583 C 0.26617 0.22458 0.22016 0.0
C584 C 0.21722 0.30386 0.24356 0.0
C585 C 0.22632 0.32152 0.21817 0.0
C586 C 0.23487 0.28404 0.25751 0.0
C587 C 0.26213 0.28153 0.24544 0.0
C588 C 0.27121 0.29888 0.21935 0.0
C589 C 0.25331 0.31875 0.20624 0.0
C590 C 0.22456 0.26617 0.28562 0.0
C591 C 0.29999 0.29666 0.20546 0.0
H592 H 0.33245 0.25925 0.31966 0.0
H593 H 0.30603 0.19609 0.25197 0.0
H594 H 0.30241 0.31433 0.28222 0.0
H595 H 0.27549 0.30325 0.3094 0.0
H596 H 0.31071 0.30196 0.32336 0.0
H597 H 0.26969 0.20254 0.21429 0.0
H598 H 0.24416 0.22751 0.22641 0.0
H599 H 0.27042 0.2369 0.19745 0.0
H600 H 0.19644 0.30588 0.25301 0.0
H601 H 0.2605 0.33208 0.18641 0.0
H602 H 0.23694 0.27 0.30839 0.0
H603 H 0.22706 0.24415 0.27914 0.0
H604 H 0.20258 0.27008 0.29148 0.0
H605 H 0.31518 0.30165 0.22517 0.0
H606 H 0.30341 0.31071 0.18401 0.0
H607 H 0.30409 0.27528 0.19723 0.0
C608 C 0.79279 0.30019 0.26199 0.0
C609 C 0.78405 0.31797 0.28742 0.0
C610 C 0.77494 0.28032 0.24854 0.0
C611 C 0.74783 0.27789 0.26115 0.0
C612 C 0.7392 0.29522 0.28749 0.0
C613 C 0.75729 0.31513 0.3001 0.0
C614 C 0.7848 0.26247 0.22018 0.0
C615 C 0.71062 0.29308 0.30198 0.0
C616 C 0.69068 0.24938 0.20659 0.0
C617 C 0.68804 0.22236 0.21848 0.0
C618 C 0.71048 0.26735 0.2197 0.0
C619 C 0.72793 0.25832 0.24575 0.0
C620 C 0.72552 0.23105 0.25781 0.0
C621 C 0.70575 0.21333 0.24388 0.0
C622 C 0.71256 0.29615 0.20584 0.0
C623 C 0.74348 0.22077 0.28586 0.0
H624 H 0.81338 0.30228 0.25196 0.0
H625 H 0.75038 0.32856 0.31997 0.0
H626 H 0.78196 0.24045 0.22645 0.0
H627 H 0.77236 0.2667 0.19756 0.0
H628 H 0.8068 0.26605 0.21418 0.0
H629 H 0.70768 0.30685 0.32379 0.0
H630 H 0.69519 0.29854 0.28271 0.0
H631 H 0.7064 0.27163 0.30984 0.0
H632 H 0.67732 0.25653 0.18677 0.0
H633 H 0.70385 0.19254 0.25331 0.0
H634 H 0.73389 0.30031 0.19748 0.0
H635 H 0.70763 0.3113 0.22562 0.0
H636 H 0.6984 0.29957 0.1845 0.0
H637 H 0.76547 0.22325 0.27925 0.0
H638 H 0.73958 0.19882 0.29181 0.0
H639 H 0.73973 0.23319 0.30861 0.0
C640 C 0.79546 0.70191 0.2432 0.0
C641 C 0.786 0.68366 0.21864 0.0
C642 C 0.77795 0.72192 0.257 0.0
C643 C 0.75045 0.72399 0.24563 0.0
C644 C 0.74097 0.70598 0.22042 0.0
C645 C 0.75875 0.68596 0.20744 0.0
C646 C 0.78869 0.74049 0.28418 0.0
C647 C 0.7119 0.70769 0.20731 0.0
C648 C 0.69412 0.75385 0.30017 0.0
C649 C 0.69072 0.78023 0.2866 0.0
C650 C 0.7142 0.7358 0.28791 0.0
C651 C 0.73107 0.74408 0.26098 0.0
C652 C 0.72816 0.77088 0.24756 0.0
C653 C 0.70816 0.78873 0.26073 0.0
C654 C 0.7169 0.70759 0.30329 0.0
C655 C 0.74551 0.78033 0.21854 0.0
H656 H 0.81645 0.70028 0.25206 0.0
H657 H 0.75127 0.67218 0.18825 0.0
H658 H 0.78596 0.76233 0.27698 0.0
H659 H 0.77676 0.73715 0.3074 0.0
H660 H 0.81079 0.73682 0.28958 0.0
H661 H 0.70815 0.69311 0.18649 0.0
H662 H 0.69715 0.70309 0.22764 0.0
H663 H 0.70749 0.72884 0.19844 0.0
H664 H 0.68095 0.7472 0.32043 0.0
H665 H 0.70561 0.80904 0.25004 0.0
H666 H 0.73856 0.70368 0.31055 0.0
H667 H 0.7111 0.6917 0.28475 0.0
H668 H 0.70367 0.70507 0.32566 0.0
H669 H 0.76764 0.77756 0.22426 0.0
H670 H 0.74181 0.80224 0.21218 0.0
H671 H 0.74086 0.76759 0.19631 0.0
C672 C 0.32238 0.75568 0.20894 0.0
C673 C 0.32451 0.78297 0.22006 0.0
C674 C 0.30261 0.73773 0.22217 0.0
C675 C 0.28468 0.74707 0.24754 0.0
C676 C 0.28664 0.77457 0.2589 0.0
C677 C 0.30639 0.79226 0.24487 0.0
C678 C 0.30104 0.70867 0.20906 0.0
C679 C 0.26814 0.78517 0.28624 0.0
C680 C 0.21984 0.70494 0.26274 0.0
C681 C 0.22821 0.68758 0.28878 0.0
C682 C 0.2378 0.72479 0.24944 0.0
C683 C 0.26461 0.72762 0.26284 0.0
C684 C 0.27284 0.71073 0.28979 0.0
C685 C 0.25466 0.69082 0.30224 0.0
C686 C 0.22839 0.74215 0.22041 0.0
C687 C 0.30108 0.71332 0.30511 0.0
H688 H 0.33606 0.74831 0.18958 0.0
H689 H 0.30789 0.81326 0.25369 0.0
H690 H 0.30562 0.69391 0.22941 0.0
H691 H 0.27992 0.70421 0.20011 0.0
H692 H 0.31568 0.70495 0.18829 0.0
H693 H 0.27188 0.80722 0.29185 0.0
H694 H 0.24628 0.78256 0.27905 0.0
H695 H 0.27147 0.77306 0.30934 0.0
H696 H 0.1995 0.70255 0.25211 0.0
H697 H 0.26125 0.67772 0.32259 0.0
H698 H 0.24129 0.73767 0.19826 0.0
H699 H 0.23097 0.76428 0.22626 0.0
H700 H 0.20653 0.73834 0.21385 0.0
H701 H 0.31694 0.70764 0.28647 0.0
H702 H 0.30365 0.69995 0.32735 0.0
H703 H 0.305 0.73493 0.31254 0.0
C704 C 0.71556 0.80657 0.74252 0.0
C705 C 0.72392 0.824 0.71654 0.0
C706 C 0.73374 0.78715 0.75633 0.0
C707 C 0.76078 0.78481 0.74352 0.0
C708 C 0.76913 0.80195 0.71687 0.0
C709 C 0.75072 0.82142 0.70391 0.0
C710 C 0.72419 0.7695 0.78504 0.0
C711 C 0.79766 0.79991 0.7022 0.0
C712 C 0.81847 0.75645 0.7974 0.0
C713 C 0.82101 0.7294 0.78557 0.0
C714 C 0.79852 0.77438 0.78452 0.0
C715 C 0.78083 0.76528 0.75877 0.0
C716 C 0.78313 0.73798 0.74679 0.0
C717 C 0.80305 0.7203 0.7605 0.0
C718 C 0.79654 0.8032 0.79831 0.0
C719 C 0.76492 0.72763 0.71902 0.0
H720 H 0.69494 0.80843 0.75251 0.0
H721 H 0.75735 0.83456 0.68361 0.0
H722 H 0.72669 0.74744 0.77877 0.0
H723 H 0.73706 0.77363 0.80732 0.0
H724 H 0.70233 0.77333 0.79158 0.0
H725 H 0.80051 0.81377 0.68046 0.0
H726 H 0.81317 0.80524 0.7214 0.0
H727 H 0.80183 0.77849 0.69416 0.0
H728 H 0.83203 0.76365 0.81699 0.0
H729 H 0.80488 0.69949 0.75114 0.0
H730 H 0.77527 0.80738 0.80691 0.0
H731 H 0.80131 0.81832 0.77843 0.0
H732 H 0.81086 0.80665 0.81948 0.0
H733 H 0.74299 0.73011 0.72593 0.0
H734 H 0.76878 0.70566 0.7131 0.0
H735 H 0.76844 0.74001 0.69618 0.0
C736 C 0.20356 0.71934 0.74365 0.0
C737 C 0.18707 0.72715 0.71654 0.0
C738 C 0.22304 0.73755 0.75722 0.0
C739 C 0.22642 0.764 0.743 0.0
C740 C 0.21046 0.77163 0.71498 0.0
C741 C 0.19087 0.75324 0.70229 0.0
C742 C 0.23941 0.7288 0.78739 0.0
C743 C 0.21369 0.79946 0.69876 0.0
C744 C 0.25329 0.82299 0.7958 0.0
C745 C 0.28089 0.82467 0.78574 0.0
C746 C 0.2356 0.80299 0.78262 0.0
C747 C 0.24554 0.78433 0.75838 0.0
C748 C 0.27336 0.7858 0.74812 0.0
C749 C 0.29075 0.80583 0.76207 0.0
C750 C 0.20615 0.80195 0.7945 0.0
C751 C 0.28463 0.76651 0.722 0.0
H752 H 0.2007 0.69928 0.75488 0.0
H753 H 0.17844 0.75937 0.68112 0.0
H754 H 0.26173 0.73109 0.78247 0.0
H755 H 0.23433 0.7423 0.80881 0.0
H756 H 0.23524 0.70715 0.7946 0.0
H757 H 0.20102 0.80154 0.67585 0.0
H758 H 0.20758 0.81581 0.71654 0.0
H759 H 0.23554 0.80306 0.69215 0.0
H760 H 0.24547 0.83725 0.81427 0.0
H761 H 0.312 0.80696 0.75406 0.0
H762 H 0.20127 0.7811 0.80404 0.0
H763 H 0.19204 0.8061 0.77337 0.0
H764 H 0.20194 0.81714 0.81454 0.0
H765 H 0.28161 0.74487 0.72992 0.0
H766 H 0.30686 0.76993 0.71723 0.0
H767 H 0.27324 0.7693 0.69827 0.0
C768 C 0.1872 0.25701 0.79418 0.0
C769 C 0.18533 0.28455 0.78391 0.0
C770 C 0.20734 0.23937 0.78116 0.0
C771 C 0.22595 0.24929 0.75685 0.0
C772 C 0.22429 0.27706 0.74637 0.0
C773 C 0.20412 0.29441 0.76018 0.0
C774 C 0.20857 0.21001 0.7933 0.0
C775 C 0.24351 0.28829 0.72016 0.0
C776 C 0.29103 0.20724 0.7426 0.0
C777 C 0.28322 0.19048 0.71575 0.0
C778 C 0.27283 0.22689 0.75587 0.0
C779 C 0.24637 0.23017 0.7416 0.0
C780 C 0.23877 0.21396 0.71379 0.0
C781 C 0.25715 0.19421 0.70141 0.0
C782 C 0.28157 0.24352 0.78581 0.0
C783 C 0.21094 0.21705 0.69751 0.0
H784 H 0.17299 0.24919 0.81271 0.0
H785 H 0.20284 0.3156 0.75201 0.0
H786 H 0.20446 0.19576 0.7723 0.0
H787 H 0.22946 0.20529 0.80284 0.0
H788 H 0.19343 0.20583 0.81341 0.0
H789 H 0.23998 0.31049 0.71526 0.0
H790 H 0.26517 0.28539 0.72806 0.0
H791 H 0.24073 0.27681 0.6965 0.0
H792 H 0.31107 0.20445 0.75391 0.0
H793 H 0.25101 0.18159 0.68042 0.0
H794 H 0.26818 0.23848 0.80736 0.0
H795 H 0.2791 0.26579 0.78069 0.0
H796 H 0.30327 0.23954 0.79295 0.0
H797 H 0.19459 0.21093 0.71531 0.0
H798 H 0.20892 0.20428 0.67468 0.0
H799 H 0.20725 0.23886 0.69077 0.0
C800 C 0.75227 0.19084 0.79605 0.0
C801 C 0.72464 0.18918 0.78613 0.0
C802 C 0.76975 0.21127 0.78341 0.0
C803 C 0.75953 0.23041 0.75989 0.0
C804 C 0.73158 0.22916 0.75008 0.0
C805 C 0.71442 0.20866 0.76347 0.0
C806 C 0.79933 0.21205 0.79483 0.0
C807 C 0.72002 0.24899 0.72476 0.0
C808 C 0.80232 0.2949 0.74529 0.0
C809 C 0.81842 0.28703 0.71787 0.0
C810 C 0.78264 0.27692 0.75889 0.0
C811 C 0.77863 0.25068 0.74435 0.0
C812 C 0.79413 0.24307 0.71595 0.0
C813 C 0.81397 0.2612 0.70328 0.0
C814 C 0.7668 0.28562 0.78949 0.0
C815 C 0.79021 0.21549 0.69935 0.0
H816 H 0.76037 0.17608 0.81376 0.0
H817 H 0.69314 0.20754 0.75558 0.0
H818 H 0.81315 0.20777 0.77344 0.0
H819 H 0.80454 0.23283 0.8043 0.0
H820 H 0.80363 0.19678 0.81476 0.0
H821 H 0.69759 0.24613 0.72091 0.0
H822 H 0.72378 0.27047 0.73279 0.0
H823 H 0.73062 0.24613 0.70051 0.0
H824 H 0.80571 0.31478 0.75677 0.0
H825 H 0.82608 0.25507 0.68185 0.0
H826 H 0.7722 0.27201 0.8107 0.0
H827 H 0.7444 0.28345 0.78512 0.0
H828 H 0.77121 0.30722 0.79671 0.0
H829 H 0.79643 0.19885 0.71669 0.0
H830 H 0.80244 0.21351 0.67608 0.0
H831 H 0.76819 0.21226 0.69326 0.0
C832 C 0.16736 0.31683 0.93033 0.0
C833 C 0.16482 0.34183 0.91301 0.0
C834 C 0.16798 0.31595 0.96515 0.0
C835 C 0.16728 0.34078 0.98329 0.0
C836 C 0.16729 0.36627 0.96599 0.0
C837 C 0.16575 0.36652 0.93089 0.0
C838 C 0.16759 0.28835 0.98247 0.0
C839 C 0.16767 0.39319 0.98463 0.0
C840 C 0.14156 0.34206 0.07313 0.0
C841 C 0.16644 0.34201 0.09066 0.0
C842 C 0.14141 0.3407 0.03802 0.0
C843 C 0.16672 0.3399 0.02037 0.0
C844 C 0.19169 0.33813 0.03816 0.0
C845 C 0.19117 0.33861 0.073 0.0
C846 C 0.11431 0.34145 0.01976 0.0
C847 C 0.21912 0.33762 0.02047 0.0
H848 H 0.16683 0.29764 0.91658 0.0
H849 H 0.16351 0.38585 0.91772 0.0
H850 H 0.18494 0.2867 1.00028 0.0
H851 H 0.14833 0.28627 0.99708 0.0
H852 H 0.16887 0.27094 0.96462 0.0
H853 H 0.17015 0.41105 0.96764 0.0
H854 H 0.14817 0.39569 0.99865 0.0
H855 H 0.18466 0.39336 0.00309 0.0
H856 H 0.12246 0.34499 0.08659 0.0
H857 H 0.21049 0.33843 0.0865 0.0
H858 H 0.11337 0.32469 1.00103 0.0
H859 H 0.11235 0.36118 0.00609 0.0
H860 H 0.09654 0.3394 0.03697 0.0
H861 H 0.21992 0.32044 0.00235 0.0
H862 H 0.23663 0.33545 0.03805 0.0
H863 H 0.22183 0.35695 0.00614 0.0
C864 C 0.69457 0.15793 0.93166 0.0
C865 C 0.66955 0.15788 0.91405 0.0
C866 C 0.6953 0.15833 0.96647 0.0
C867 C 0.67041 0.15974 0.98442 0.0
C868 C 0.64509 0.16175 0.96693 0.0
C869 C 0.64491 0.16056 0.93179 0.0
C870 C 0.72271 0.15593 0.98402 0.0
C871 C 0.61818 0.1642 0.9854 0.0
C872 C 0.66744 0.13519 0.07466 0.0
C873 C 0.66908 0.1602 0.09178 0.0
C874 C 0.66868 0.13457 0.03956 0.0
C875 C 0.67114 0.15956 0.02151 0.0
C876 C 0.67459 0.18455 0.03891 0.0
C877 C 0.67398 0.18447 0.07376 0.0
C878 C 0.66597 0.1074 0.02176 0.0
C879 C 0.6771 0.21166 0.02075 0.0
H880 H 0.71379 0.15618 0.91812 0.0
H881 H 0.62555 0.16033 0.91841 0.0
H882 H 0.72581 0.17357 1.0011 0.0
H883 H 0.72306 0.137 0.99945 0.0
H884 H 0.74024 0.15517 0.96628 0.0
H885 H 0.60053 0.16736 0.96825 0.0
H886 H 0.61449 0.14527 1.00015 0.0
H887 H 0.61904 0.18163 0.00323 0.0
H888 H 0.66325 0.11648 0.08843 0.0
H889 H 0.67525 0.20387 0.08699 0.0
H890 H 0.6827 0.10499 0.00317 0.0
H891 H 0.64621 0.10678 0.00798 0.0
H892 H 0.66663 0.08972 0.03928 0.0
H893 H 0.69433 0.21098 0.00268 0.0
H894 H 0.68052 0.22916 0.03805 0.0
H895 H 0.65804 0.21562 0.00632 0.0
C896 C 0.83949 0.69392 0.93137 0.0
C897 C 0.84213 0.66936 0.91318 0.0
C898 C 0.83949 0.69399 0.96621 0.0
C899 C 0.84091 0.66876 0.98349 0.0
C900 C 0.84092 0.64369 0.96537 0.0
C901 C 0.84184 0.64426 0.93024 0.0
C902 C 0.83983 0.72118 0.98443 0.0
C903 C 0.84127 0.61634 0.9831 0.0
C904 C 0.86856 0.66568 0.07242 0.0
C905 C 0.84406 0.66497 0.09068 0.0
C906 C 0.86794 0.66791 0.03738 0.0
C907 C 0.84225 0.6688 0.02055 0.0
C908 C 0.81765 0.66978 0.03914 0.0
C909 C 0.81892 0.66847 0.07391 0.0
C910 C 0.89465 0.66798 0.01828 0.0
C911 C 0.78985 0.67033 0.02231 0.0
H912 H 0.83955 0.71341 0.91824 0.0
H913 H 0.84416 0.62528 0.91639 0.0
H914 H 0.82292 0.72213 0.00292 0.0
H915 H 0.85942 0.72327 0.99841 0.0
H916 H 0.83782 0.73897 0.96723 0.0
H917 H 0.83863 0.59885 0.96559 0.0
H918 H 0.8611 0.61376 0.9964 0.0
H919 H 0.82469 0.61553 0.00208 0.0
H920 H 0.88797 0.6627 0.08519 0.0
H921 H 0.79989 0.66809 0.08799 0.0
H922 H 0.89495 0.6852 1.00013 0.0
H923 H 0.89659 0.64862 0.00387 0.0
H924 H 0.91275 0.66988 0.03501 0.0
H925 H 0.78843 0.68792 0.00482 0.0
H926 H 0.77268 0.67184 0.04049 0.0
H927 H 0.78708 0.65131 0.00742 0.0
C928 C 0.34105 0.86727 0.0742 0.0
C929 C 0.34147 0.84245 0.09182 0.0
C930 C 0.33914 0.86732 0.03914 0.0
C931 C 0.33824 0.84197 0.02161 0.0
C932 C 0.33686 0.81704 0.03953 0.0
C933 C 0.3379 0.81766 0.07435 0.0
C934 C 0.33951 0.89438 0.02076 0.0
C935 C 0.33624 0.78957 0.02195 0.0
C936 C 0.31447 0.84149 0.93184 0.0
C937 C 0.33934 0.84424 0.9143 0.0
C938 C 0.31385 0.84062 0.96666 0.0
C939 C 0.33883 0.84135 0.98454 0.0
C940 C 0.36419 0.8415 0.96698 0.0
C941 C 0.36417 0.84325 0.9319 0.0
C942 C 0.28639 0.84081 0.98428 0.0
C943 C 0.39126 0.84116 0.98533 0.0
H944 H 0.3441 0.88642 0.08751 0.0
H945 H 0.33809 0.79837 0.08794 0.0
H946 H 0.35909 0.89643 0.00679 0.0
H947 H 0.32254 0.89516 0.00229 0.0
H948 H 0.33752 0.91218 0.03794 0.0
H949 H 0.33408 0.77212 0.03963 0.0
H950 H 0.31901 0.78875 0.00388 0.0
H951 H 0.35554 0.78678 0.0076 0.0
H952 H 0.29518 0.84207 0.91829 0.0
H953 H 0.38339 0.84563 0.91855 0.0
H954 H 0.2842 0.86014 0.99873 0.0
H955 H 0.28505 0.82356 0.00227 0.0
H956 H 0.26885 0.83925 0.96663 0.0
H957 H 0.39381 0.86065 0.99936 0.0
H958 H 0.409 0.83875 0.96814 0.0
H959 H 0.39162 0.82415 0.00376 0.0
C960 C 0.16196 0.6403 0.57495 0.0
C961 C 0.16111 0.66566 0.59136 0.0
C962 C 0.16389 0.63916 0.5399 0.0
C963 C 0.16458 0.66395 0.5212 0.0
C964 C 0.16518 0.68946 0.53791 0.0
C965 C 0.16385 0.68996 0.5727 0.0
C966 C 0.16408 0.61155 0.52281 0.0
C967 C 0.16584 0.71634 0.51902 0.0
C968 C 0.19139 0.66269 0.43273 0.0
C969 C 0.16711 0.66035 0.41393 0.0
C970 C 0.1908 0.66382 0.46753 0.0
C971 C 0.16523 0.66342 0.48413 0.0
C972 C 0.14049 0.66308 0.46531 0.0
C973 C 0.14171 0.66136 0.43025 0.0
C974 C 0.21763 0.66411 0.48654 0.0
C975 C 0.11282 0.66348 0.48228 0.0
H976 H 0.15952 0.62153 0.58921 0.0
H977 H 0.16335 0.70965 0.58535 0.0
H978 H 0.14513 0.60917 0.5077 0.0
H979 H 0.18181 0.61013 0.50549 0.0
H980 H 0.16524 0.59428 0.54088 0.0
H981 H 0.16661 0.73443 0.53589 0.0
H982 H 0.18395 0.71706 0.50226 0.0
H983 H 0.14726 0.71808 0.5031 0.0
H984 H 0.21112 0.66209 0.42017 0.0
H985 H 0.12296 0.65924 0.41589 0.0
H986 H 0.2191 0.64548 0.50241 0.0
H987 H 0.21851 0.68217 0.50337 0.0
H988 H 0.23578 0.66471 0.46976 0.0
H989 H 0.11023 0.64452 0.49733 0.0
H990 H 0.09561 0.66483 0.46415 0.0
H991 H 0.11152 0.68118 0.49966 0.0
C992 C 0.32098 0.16616 0.57248 0.0
C993 C 0.34519 0.16304 0.59122 0.0
C994 C 0.32151 0.16698 0.53766 0.0
C995 C 0.34701 0.16544 0.52097 0.0
C996 C 0.37176 0.16435 0.53971 0.0
C997 C 0.37057 0.16297 0.5748 0.0
C998 C 0.29466 0.1681 0.51875 0.0
C999 C 0.39938 0.16352 0.52264 0.0
C1000 C 0.34879 0.1413 0.43044 0.0
C1001 C 0.35038 0.16645 0.41359 0.0
C1002 C 0.34719 0.14059 0.46554 0.0
C1003 C 0.34756 0.16556 0.48388 0.0
C1004 C 0.34781 0.1909 0.46677 0.0
C1005 C 0.34879 0.19101 0.43196 0.0
C1006 C 0.34609 0.11317 0.48306 0.0
C1007 C 0.34829 0.21798 0.48525 0.0
H1008 H 0.30127 0.16633 0.58514 0.0
H1009 H 0.38926 0.1602 0.58912 0.0
H1010 H 0.29443 0.18598 0.5016 0.0
H1011 H 0.29242 0.14935 0.50323 0.0
H1012 H 0.27659 0.1696 0.53559 0.0
H1013 H 0.41668 0.16449 0.5407 0.0
H1014 H 0.40125 0.14429 0.50797 0.0
H1015 H 0.40127 0.18094 0.50491 0.0
H1016 H 0.3503 0.12231 0.41643 0.0
H1017 H 0.3498 0.21057 0.41902 0.0
H1018 H 0.32834 0.11255 0.50042 0.0
H1019 H 0.36496 0.1103 0.4982 0.0
H1020 H 0.34432 0.09576 0.46527 0.0
H1021 H 0.33021 0.21964 0.50195 0.0
H1022 H 0.34831 0.23592 0.46811 0.0
H1023 H 0.36691 0.21908 0.50119 0.0
C1024 C 0.8187 0.34493 0.43215 0.0
C1025 C 0.84325 0.34684 0.41381 0.0
C1026 C 0.81876 0.34462 0.46699 0.0
C1027 C 0.84408 0.34538 0.48415 0.0
C1028 C 0.86909 0.34525 0.46587 0.0
C1029 C 0.8684 0.34618 0.43075 0.0
C1030 C 0.79165 0.34482 0.48539 0.0
C1031 C 0.8965 0.3452 0.48347 0.0
C1032 C 0.84606 0.37059 0.57422 0.0
C1033 C 0.84659 0.34561 0.59152 0.0
C1034 C 0.84466 0.37092 0.53911 0.0
C1035 C 0.84416 0.34572 0.52124 0.0
C1036 C 0.84324 0.3206 0.53881 0.0
C1037 C 0.84404 0.32091 0.57364 0.0
C1038 C 0.8448 0.39813 0.52107 0.0
C1039 C 0.8428 0.29329 0.52085 0.0
H1040 H 0.79916 0.34527 0.41913 0.0
H1041 H 0.88738 0.34798 0.41675 0.0
H1042 H 0.79047 0.32717 0.50282 0.0
H1043 H 0.78999 0.36383 0.50055 0.0
H1044 H 0.77375 0.34386 0.46822 0.0
H1045 H 0.91398 0.34336 0.46578 0.0
H1046 H 0.89893 0.36451 0.49788 0.0
H1047 H 0.8975 0.32793 0.50151 0.0
H1048 H 0.84835 0.38967 0.58789 0.0
H1049 H 0.84428 0.30151 0.58697 0.0
H1050 H 0.82735 0.39917 0.50328 0.0
H1051 H 0.86399 0.40013 0.50633 0.0
H1052 H 0.84338 0.41581 0.53851 0.0
H1053 H 0.82493 0.29222 0.50373 0.0
H1054 H 0.84174 0.27561 0.53833 0.0
H1055 H 0.8616 0.29116 0.50541 0.0
C1056 C 0.63562 0.84188 0.57363 0.0
C1057 C 0.66062 0.84047 0.5908 0.0
C1058 C 0.63498 0.83988 0.5386 0.0
C1059 C 0.65996 0.83679 0.52067 0.0
C1060 C 0.68493 0.83354 0.53818 0.0
C1061 C 0.68487 0.83503 0.57299 0.0
C1062 C 0.60783 0.8425 0.5207 0.0
C1063 C 0.71201 0.83029 0.52013 0.0
C1064 C 0.6578 0.81177 0.43149 0.0
C1065 C 0.65822 0.83647 0.41325 0.0
C1066 C 0.6583 0.81165 0.46631 0.0
C1067 C 0.66013 0.83683 0.48359 0.0
C1068 C 0.6625 0.8618 0.46545 0.0
C1069 C 0.66132 0.86137 0.43032 0.0
C1070 C 0.6556 0.78461 0.48459 0.0
C1071 C 0.66532 0.88899 0.4832 0.0
H1072 H 0.61693 0.84651 0.58725 0.0
H1073 H 0.70427 0.83399 0.58629 0.0
H1074 H 0.60744 0.86196 0.50627 0.0
H1075 H 0.60524 0.8254 0.50266 0.0
H1076 H 0.59015 0.84244 0.53821 0.0
H1077 H 0.72945 0.82691 0.53753 0.0
H1078 H 0.71107 0.81277 0.50249 0.0
H1079 H 0.71625 0.84904 0.50523 0.0
H1080 H 0.65572 0.79236 0.41844 0.0
H1081 H 0.66144 0.88048 0.41643 0.0
H1082 H 0.63665 0.78475 0.49999 0.0
H1083 H 0.6732 0.78164 0.50179 0.0
H1084 H 0.65467 0.76678 0.46733 0.0
H1085 H 0.6465 0.89314 0.498 0.0
H1086 H 0.66857 0.90631 0.46559 0.0
H1087 H 0.68283 0.88825 0.50092 0.0
C1088 C 0.18936 0.56574 0.24971 0.0
C1089 C 0.17103 0.57472 0.27399 0.0
C1090 C 0.19111 0.53776 0.24169 0.0
C1091 C 0.17224 0.51881 0.25581 0.0
C1092 C 0.15256 0.52836 0.27913 0.0
C1093 C 0.15288 0.55605 0.28882 0.0
C1094 C 0.2133 0.52853 0.21836 0.0
C1095 C 0.13109 0.50952 0.29383 0.0
C1096 C 0.16093 0.45408 0.20439 0.0
C1097 C 0.17041 0.43357 0.22599 0.0
C1098 C 0.16118 0.48181 0.2138 0.0
C1099 C 0.17227 0.48937 0.24523 0.0
C1100 C 0.18229 0.46844 0.26685 0.0
C1101 C 0.1808 0.44079 0.25714 0.0
C1102 C 0.14867 0.50234 0.18994 0.0
C1103 C 0.19483 0.47446 0.30031 0.0
H1104 H 0.20286 0.58045 0.23774 0.0
H1105 H 0.13835 0.56333 0.30733 0.0
H1106 H 0.20389 0.52295 0.19419 0.0
H1107 H 0.22889 0.54477 0.21375 0.0
H1108 H 0.22372 0.5102 0.22888 0.0
H1109 H 0.11403 0.52119 0.30561 0.0
H1110 H 0.12236 0.49581 0.2744 0.0
H1111 H 0.14066 0.49641 0.31325 0.0
H1112 H 0.15227 0.44835 0.18046 0.0
H1113 H 0.18801 0.4248 0.27384 0.0
H1114 H 0.16297 0.5056 0.16874 0.0
H1115 H 0.14401 0.52247 0.20157 0.0
H1116 H 0.12932 0.494 0.17925 0.0
H1117 H 0.21704 0.46929 0.29935 0.0
H1118 H 0.18542 0.46111 0.31966 0.0
H1119 H 0.19242 0.4961 0.30801 0.0
C1120 C 0.55542 0.15724 0.20283 0.0
C1121 C 0.57563 0.16678 0.2248 0.0
C1122 C 0.52756 0.15748 0.21168 0.0
C1123 C 0.51957 0.16855 0.24296 0.0
C1124 C 0.5402 0.17861 0.26496 0.0
C1125 C 0.56797 0.17719 0.25577 0.0
C1126 C 0.50738 0.14489 0.18746 0.0
C1127 C 0.53378 0.19092 0.29842 0.0
C1128 C 0.44312 0.18563 0.2472 0.0
C1129 C 0.43421 0.16758 0.27185 0.0
C1130 C 0.47107 0.18716 0.23889 0.0
C1131 C 0.49002 0.16834 0.25314 0.0
C1132 C 0.48048 0.14881 0.27667 0.0
C1133 C 0.45286 0.14937 0.28661 0.0
C1134 C 0.48028 0.20913 0.21522 0.0
C1135 C 0.49929 0.12738 0.29153 0.0
H1136 H 0.5615 0.14851 0.17906 0.0
H1137 H 0.58372 0.18438 0.27282 0.0
H1138 H 0.48698 0.14054 0.19857 0.0
H1139 H 0.50466 0.15897 0.16593 0.0
H1140 H 0.51577 0.12536 0.17735 0.0
H1141 H 0.54034 0.21277 0.29843 0.0
H1142 H 0.51178 0.18971 0.305 0.0
H1143 H 0.54587 0.18032 0.31809 0.0
H1144 H 0.4284 0.19911 0.23521 0.0
H1145 H 0.44563 0.13503 0.30537 0.0
H1146 H 0.48579 0.19953 0.19114 0.0
H1147 H 0.49863 0.21963 0.22554 0.0
H1148 H 0.46403 0.22469 0.21046 0.0
H1149 H 0.51345 0.11895 0.27237 0.0
H1150 H 0.48756 0.11012 0.30275 0.0
H1151 H 0.51191 0.13688 0.31146 0.0
C1152 C 0.83306 0.56424 0.25604 0.0
C1153 C 0.84291 0.57177 0.22474 0.0
C1154 C 0.83188 0.53651 0.26547 0.0
C1155 C 0.84168 0.51581 0.2434 0.0
C1156 C 0.85235 0.5237 0.21187 0.0
C1157 C 0.85226 0.5515 0.20276 0.0
C1158 C 0.82003 0.53021 0.29923 0.0
C1159 C 0.86482 0.50348 0.18759 0.0
C1160 C 0.86067 0.44889 0.28676 0.0
C1161 C 0.84223 0.43042 0.27211 0.0
C1162 C 0.86139 0.47652 0.27689 0.0
C1163 C 0.84178 0.48626 0.25357 0.0
C1164 C 0.82276 0.46747 0.23943 0.0
C1165 C 0.82413 0.43951 0.24764 0.0
C1166 C 0.88306 0.49513 0.29158 0.0
C1167 C 0.80066 0.4769 0.21608 0.0
H1168 H 0.82603 0.58005 0.2731 0.0
H1169 H 0.86057 0.55748 0.17872 0.0
H1170 H 0.82115 0.50821 0.30583 0.0
H1171 H 0.83106 0.54222 0.31861 0.0
H1172 H 0.79824 0.53698 0.29975 0.0
H1173 H 0.88441 0.51178 0.17756 0.0
H1174 H 0.86903 0.48302 0.19862 0.0
H1175 H 0.85075 0.50095 0.16601 0.0
H1176 H 0.87507 0.4415 0.30539 0.0
H1177 H 0.81048 0.42492 0.23573 0.0
H1178 H 0.87384 0.50761 0.31183 0.0
H1179 H 0.89134 0.5094 0.27245 0.0
H1180 H 0.90041 0.48322 0.30237 0.0
H1181 H 0.78997 0.49487 0.22708 0.0
H1182 H 0.78528 0.4606 0.2108 0.0
H1183 H 0.81014 0.48313 0.19219 0.0
C1184 C 0.56024 0.85863 0.2829 0.0
C1185 C 0.5783 0.83956 0.26866 0.0
C1186 C 0.53264 0.85987 0.27296 0.0
C1187 C 0.52248 0.8402 0.25001 0.0
C1188 C 0.54092 0.82081 0.23592 0.0
C1189 C 0.5689 0.8216 0.24423 0.0
C1190 C 0.51451 0.88204 0.28744 0.0
C1191 C 0.53108 0.7988 0.21271 0.0
C1192 C 0.4446 0.83141 0.25496 0.0
C1193 C 0.43641 0.84057 0.22361 0.0
C1194 C 0.47251 0.8306 0.26365 0.0
C1195 C 0.49273 0.84002 0.24071 0.0
C1196 C 0.48417 0.85011 0.20915 0.0
C1197 C 0.4562 0.84971 0.20084 0.0
C1198 C 0.47945 0.81983 0.29775 0.0
C1199 C 0.50382 0.86237 0.18404 0.0
H1200 H 0.56788 0.87297 0.30142 0.0
H1201 H 0.58321 0.80757 0.2325 0.0
H1202 H 0.49942 0.88959 0.26881 0.0
H1203 H 0.503 0.87359 0.30899 0.0
H1204 H 0.52681 0.89977 0.29651 0.0
H1205 H 0.51337 0.78803 0.2242 0.0
H1206 H 0.52431 0.80835 0.18908 0.0
H1207 H 0.5473 0.78349 0.20681 0.0
H1208 H 0.42916 0.8247 0.27271 0.0
H1209 H 0.4497 0.85765 0.17682 0.0
H1210 H 0.46964 0.83302 0.31696 0.0
H1211 H 0.50177 0.81905 0.30266 0.0
H1212 H 0.47058 0.79894 0.30061 0.0
H1213 H 0.52469 0.86618 0.1941 0.0
H1214 H 0.49549 0.88217 0.17461 0.0
H1215 H 0.5054 0.84844 0.16222 0.0
C1216 C 0.83877 0.56889 0.76172 0.0
C1217 C 0.85648 0.57544 0.78822 0.0
C1218 C 0.83893 0.54266 0.74694 0.0
C1219 C 0.85672 0.52204 0.75943 0.0
C1220 C 0.87417 0.5283 0.78677 0.0
C1221 C 0.87412 0.555 0.80051 0.0
C1222 C 0.82042 0.53721 0.71743 0.0
C1223 C 0.89294 0.50678 0.80148 0.0
C1224 C 0.83762 0.44753 0.74065 0.0
C1225 C 0.85656 0.44034 0.7157 0.0
C1226 C 0.83768 0.47382 0.75526 0.0
C1227 C 0.85669 0.49387 0.74416 0.0
C1228 C 0.87539 0.48701 0.71829 0.0
C1229 C 0.87537 0.46024 0.70471 0.0
C1230 C 0.81777 0.47992 0.78319 0.0
C1231 C 0.89552 0.50792 0.70504 0.0
H1232 H 0.82532 0.58461 0.75168 0.0
H1233 H 0.88793 0.55989 0.82088 0.0
H1234 H 0.83292 0.53056 0.69573 0.0
H1235 H 0.80597 0.52026 0.72328 0.0
H1236 H 0.8083 0.5556 0.71015 0.0
H1237 H 0.90446 0.51454 0.82346 0.0
H1238 H 0.88078 0.48854 0.80915 0.0
H1239 H 0.90791 0.49981 0.78243 0.0
H1240 H 0.82324 0.43224 0.74969 0.0
H1241 H 0.89014 0.45487 0.68556 0.0
H1242 H 0.80425 0.49734 0.77621 0.0
H1243 H 0.82926 0.48616 0.80587 0.0
H1244 H 0.80467 0.46194 0.78944 0.0
H1245 H 0.88436 0.52654 0.69654 0.0
H1246 H 0.90787 0.49979 0.68394 0.0
H1247 H 0.90973 0.5144 0.72519 0.0
C1248 C 0.56296 0.84011 0.74328 0.0
C1249 C 0.56936 0.85799 0.71688 0.0
C1250 C 0.53684 0.84023 0.75833 0.0
C1251 C 0.5162 0.85823 0.74631 0.0
C1252 C 0.5223 0.87585 0.71909 0.0
C1253 C 0.54887 0.87576 0.70499 0.0
C1254 C 0.53151 0.82147 0.78762 0.0
C1255 C 0.50077 0.89489 0.70493 0.0
C1256 C 0.44159 0.83986 0.76553 0.0
C1257 C 0.43481 0.85865 0.79083 0.0
C1258 C 0.46782 0.83967 0.75075 0.0
C1259 C 0.48819 0.85829 0.76196 0.0
C1260 C 0.48174 0.8768 0.78818 0.0
C1261 C 0.45506 0.877 0.802 0.0
C1262 C 0.4735 0.81993 0.72252 0.0
C1263 C 0.50299 0.89656 0.80147 0.0
H1264 H 0.57871 0.82653 0.75297 0.0
H1265 H 0.55363 0.88969 0.6847 0.0
H1266 H 0.52525 0.83379 0.80963 0.0
H1267 H 0.51432 0.80728 0.78183 0.0
H1268 H 0.54985 0.80906 0.79439 0.0
H1269 H 0.50841 0.90658 0.68301 0.0
H1270 H 0.48239 0.88293 0.69732 0.0
H1271 H 0.49406 0.90972 0.72428 0.0
H1272 H 0.42605 0.8258 0.75638 0.0
H1273 H 0.45002 0.89163 0.82143 0.0
H1274 H 0.49094 0.80627 0.72907 0.0
H1275 H 0.47955 0.83155 0.69986 0.0
H1276 H 0.45539 0.80698 0.71642 0.0
H1277 H 0.52156 0.88511 0.80958 0.0
H1278 H 0.49518 0.90878 0.82285 0.0
H1279 H 0.50946 0.9109 0.78145 0.0
C1280 C 0.13229 0.45858 0.80221 0.0
C1281 C 0.15028 0.43834 0.79016 0.0
C1282 C 0.13217 0.48533 0.78858 0.0
C1283 C 0.14992 0.49186 0.76162 0.0
C1284 C 0.16812 0.47147 0.74945 0.0
C1285 C 0.16832 0.44519 0.76409 0.0
C1286 C 0.11296 0.5066 0.80295 0.0
C1287 C 0.18699 0.47721 0.72037 0.0
C1288 C 0.13128 0.55328 0.70626 0.0
C1289 C 0.1497 0.57343 0.71751 0.0
C1290 C 0.13135 0.52657 0.72002 0.0
C1291 C 0.14976 0.52002 0.74632 0.0
C1292 C 0.16835 0.54035 0.75773 0.0
C1293 C 0.16833 0.56658 0.74295 0.0
C1294 C 0.11168 0.50537 0.70645 0.0
C1295 C 0.18793 0.53457 0.78611 0.0
H1296 H 0.11823 0.45348 0.82223 0.0
H1297 H 0.18205 0.42964 0.75424 0.0
H1298 H 0.12476 0.52502 0.81077 0.0
H1299 H 0.09808 0.51334 0.78364 0.0
H1300 H 0.10131 0.4987 0.82475 0.0
H1301 H 0.19952 0.45901 0.7134 0.0
H1302 H 0.17472 0.48363 0.69837 0.0
H1303 H 0.20106 0.4944 0.72651 0.0
H1304 H 0.11676 0.5584 0.68672 0.0
H1305 H 0.18241 0.58207 0.75219 0.0
H1306 H 0.09735 0.49867 0.72636 0.0
H1307 H 0.12321 0.48693 0.69811 0.0
H1308 H 0.09943 0.51333 0.68515 0.0
H1309 H 0.17622 0.52816 0.80854 0.0
H1310 H 0.20066 0.55275 0.79262 0.0
H1311 H 0.20183 0.51736 0.77945 0.0
C1312 C 0.44314 0.16911 0.74521 0.0
C1313 C 0.43669 0.15166 0.71843 0.0
C1314 C 0.46928 0.16873 0.76023 0.0
C1315 C 0.48995 0.15104 0.74765 0.0
C1316 C 0.48379 0.13385 0.72004 0.0
C1317 C 0.45713 0.13404 0.70613 0.0
C1318 C 0.47459 0.18689 0.79007 0.0
C1319 C 0.50538 0.11526 0.70517 0.0
C1320 C 0.56437 0.1702 0.76698 0.0
C1321 C 0.57163 0.15094 0.79156 0.0
C1322 C 0.53809 0.17021 0.75231 0.0
C1323 C 0.5181 0.15099 0.76302 0.0
C1324 C 0.52501 0.132 0.78857 0.0
C1325 C 0.55178 0.13192 0.80216 0.0
C1326 C 0.53198 0.19041 0.72468 0.0
C1327 C 0.50414 0.11167 0.80145 0.0
H1328 H 0.42738 0.1825 0.75527 0.0
H1329 H 0.4523 0.12043 0.68555 0.0
H1330 H 0.48128 0.17418 0.81157 0.0
H1331 H 0.49147 0.20151 0.78452 0.0
H1332 H 0.45611 0.19882 0.79752 0.0
H1333 H 0.49769 0.10396 0.68298 0.0
H1334 H 0.52362 0.12751 0.69776 0.0
H1335 H 0.51231 0.1001 0.72403 0.0
H1336 H 0.57962 0.18473 0.75821 0.0
H1337 H 0.55722 0.1169 0.82101 0.0
H1338 H 0.51451 0.20381 0.73184 0.0
H1339 H 0.52579 0.17916 0.70181 0.0
H1340 H 0.54992 0.20362 0.71868 0.0
H1341 H 0.48542 0.12266 0.80996 0.0
H1342 H 0.51225 0.09919 0.82246 0.0
H1343 H 0.49782 0.09759 0.78111 0.0
C1344 C 0.64842 0.05815 0.78441 0.0
C1345 C 0.66651 0.07695 0.76973 0.0
C1346 C 0.6477 0.03067 0.77397 0.0
C1347 C 0.66699 0.02139 0.75001 0.0
C1348 C 0.68554 0.04053 0.73562 0.0
C1349 C 0.68413 0.06837 0.74447 0.0
C1350 C 0.62647 0.01172 0.78895 0.0
C1351 C 0.70725 0.0316 0.71142 0.0
C1352 C 0.677 0.94363 0.75313 0.0
C1353 C 0.66668 0.93566 0.72224 0.0
C1354 C 0.678 0.97146 0.7621 0.0
C1355 C 0.66757 0.99182 0.73998 0.0
C1356 C 0.65655 0.9835 0.7088 0.0
C1357 C 0.65674 0.95559 0.70015 0.0
C1358 C 0.69008 0.97819 0.7956 0.0
C1359 C 0.64348 1.00334 0.68452 0.0
H1360 H 0.63436 0.06514 0.80362 0.0
H1361 H 0.69744 0.08323 0.73249 0.0
H1362 H 0.61848 0.99704 0.77012 0.0
H1363 H 0.63599 0.99973 0.80945 0.0
H1364 H 0.60889 0.02337 0.79957 0.0
H1365 H 0.71824 0.01349 0.72161 0.0
H1366 H 0.69735 0.02577 0.68762 0.0
H1367 H 0.72244 0.04807 0.70614 0.0
H1368 H 0.68442 0.92808 0.77032 0.0
H1369 H 0.648 0.94926 0.67648 0.0
H1370 H 0.67835 0.96738 0.81541 0.0
H1371 H 0.69008 1.00041 0.80116 0.0
H1372 H 0.71148 0.97029 0.79666 0.0
H1373 H 0.63937 0.02391 0.69527 0.0
H1374 H 0.62374 0.99479 0.67521 0.0
H1375 H 0.6571 0.00568 0.6625 0.0
C1376 C 0.95334 0.66291 0.79961 0.0
C1377 C 0.93312 0.67256 0.77772 0.0
C1378 C 0.9811 0.66248 0.79039 0.0
C1379 C 0.98902 0.67302 0.75882 0.0
C1380 C 0.96839 0.68315 0.73686 0.0
C1381 C 0.94067 0.68238 0.74642 0.0
C1382 C 1.00126 0.6498 0.81461 0.0
C1383 C 0.97477 0.69495 0.70311 0.0
C1384 C 0.06567 0.68886 0.7547 0.0
C1385 C 0.07446 0.67027 0.7306 0.0
C1386 C 0.03769 0.69107 0.76254 0.0
C1387 C 0.01852 0.67239 0.74851 0.0
C1388 C 0.02787 0.65239 0.72547 0.0
C1389 C 0.05559 0.65228 0.71589 0.0
C1390 C 0.02868 0.71359 0.78555 0.0
C1391 C 0.00878 0.63109 0.71088 0.0
H1392 H 0.94732 0.65463 0.82364 0.0
H1393 H 0.9249 0.68965 0.72945 0.0
H1394 H 0.02142 0.64479 0.80327 0.0
H1395 H 0.00454 0.66416 0.83574 0.0
H1396 H 0.99254 0.63064 0.82533 0.0
H1397 H 0.96913 0.71706 0.70302 0.0
H1398 H 0.99659 0.69276 0.69604 0.0
H1399 H 0.96194 0.68474 0.68383 0.0
H1400 H 0.08054 0.70221 0.76661 0.0
H1401 H 0.06272 0.63753 0.69753 0.0
H1402 H 0.0228 0.70449 0.80979 0.0
H1403 H 0.01058 0.72423 0.77475 0.0
H1404 H 0.04515 0.72894 0.79012 0.0
H1405 H 0.99456 0.62299 0.73017 0.0
H1406 H 0.02028 0.61359 0.69983 0.0
H1407 H 0.99624 0.6406 0.69087 0.0
C1408 C 0.35781 0.05858 0.71677 0.0
C1409 C 0.33969 0.07746 0.73125 0.0
C1410 C 0.35779 0.03092 0.72657 0.0
C1411 C 0.33777 0.02161 0.74962 0.0
C1412 C 0.31896 0.04078 0.76342 0.0
C1413 C 0.32107 0.06872 0.75534 0.0
C1414 C 0.37922 0.01184 0.71223 0.0
C1415 C 0.29644 0.03182 0.78645 0.0
C1416 C 0.32821 0.94371 0.7479 0.0
C1417 C 0.33798 0.93628 0.77927 0.0
C1418 C 0.32726 0.9714 0.73822 0.0
C1419 C 0.33722 0.99214 0.76011 0.0
C1420 C 0.34771 0.98436 0.79178 0.0
C1421 C 0.34741 0.95661 0.80112 0.0
C1422 C 0.31543 0.97762 0.70443 0.0
C1423 C 0.36019 0.00465 0.81596 0.0
H1424 H 0.37259 0.06568 0.69843 0.0
H1425 H 0.30761 0.0836 0.76708 0.0
H1426 H 0.38736 0.99779 0.73169 0.0
H1427 H 0.36981 0.99912 0.69233 0.0
H1428 H 0.39668 0.02335 0.7011 0.0
H1429 H 0.28591 0.01363 0.77579 0.0
H1430 H 0.30553 0.02613 0.81077 0.0
H1431 H 0.281 0.04825 0.79082 0.0
H1432 H 0.32106 0.92786 0.73097 0.0
H1433 H 0.35563 0.95071 0.82523 0.0
H1434 H 0.32552 0.96462 0.68524 0.0
H1435 H 0.31771 0.99938 0.69714 0.0
H1436 H 0.29328 0.97212 0.70448 0.0
H1437 H 0.36505 0.02483 0.80459 0.0
H1438 H 0.37941 0.99609 0.82674 0.0
H1439 H 0.34577 0.00784 0.83706 0.0
C1440 C 0.06521 0.33302 0.74667 0.0
C1441 C 0.07311 0.3422 0.77812 0.0
C1442 C 0.0374 0.3326 0.73745 0.0
C1443 C 0.01703 0.3425 0.75991 0.0
C1444 C 0.02533 0.35258 0.79156 0.0
C1445 C 0.05317 0.35171 0.80045 0.0
C1446 C 0.03068 0.32149 0.70345 0.0
C1447 C 0.00555 0.36523 0.81623 0.0
C1448 C 0.94995 0.3628 0.71772 0.0
C1449 C 0.93137 0.34446 0.73237 0.0
C1450 C 0.97769 0.36309 0.72725 0.0
C1451 C 0.98738 0.34314 0.75016 0.0
C1452 C 0.96847 0.32426 0.76434 0.0
C1453 C 0.94045 0.32607 0.75653 0.0
C1454 C 0.99643 0.38465 0.71258 0.0
C1455 C 0.97786 0.30178 0.78718 0.0
H1456 H 0.08077 0.32592 0.72932 0.0
H1457 H 0.05945 0.35956 0.82459 0.0
H1458 H 0.00859 0.32271 0.69731 0.0
H1459 H 0.04241 0.333 0.68422 0.0
H1460 H 0.03751 0.29975 0.70206 0.0
H1461 H 0.01429 0.38462 0.8263 0.0
H1462 H 0.98506 0.36987 0.80553 0.0
H1463 H 1.00298 0.35109 0.83774 0.0
H1464 H 0.94259 0.37743 0.69935 0.0
H1465 H 0.9258 0.31251 0.76848 0.0
H1466 H 0.00835 0.37554 0.69177 0.0
H1467 H 0.0112 0.39236 0.7315 0.0
H1468 H 0.98464 0.40237 0.70252 0.0
H1469 H 0.99527 0.29071 0.77542 0.0
H1470 H 0.9613 0.28681 0.79293 0.0
H1471 H 0.98497 0.31091 0.81091 0.0
C1472 C 0.33997 0.0649 0.26418 0.0
C1473 C 0.35923 0.07198 0.28884 0.0
C1474 C 0.33986 0.03867 0.24941 0.0
C1475 C 0.35903 0.01858 0.26003 0.0
C1476 C 0.37805 0.02533 0.28561 0.0
C1477 C 0.37817 0.05203 0.29936 0.0
C1478 C 0.3196 0.03268 0.22182 0.0
C1479 C 0.39836 0.00437 0.29833 0.0
C1480 C 0.3411 0.94357 0.24251 0.0
C1481 C 0.3585 0.93711 0.21567 0.0
C1482 C 0.34133 0.96977 0.25734 0.0
C1483 C 0.35889 0.99047 0.2446 0.0
C1484 C 0.376 0.98432 0.21691 0.0
C1485 C 0.37588 0.95765 0.20309 0.0
C1486 C 0.32317 0.97511 0.28719 0.0
C1487 C 0.39452 0.00593 0.20194 0.0
H1488 H 0.32547 0.08023 0.2555 0.0
H1489 H 0.39318 0.05732 0.31827 0.0
H1490 H 0.3308 0.02657 0.19888 0.0
H1491 H 0.3062 0.0152 0.22893 0.0
H1492 H 0.30639 0.05066 0.21595 0.0
H1493 H 0.41099 0.01241 0.31925 0.0
H1494 H 0.38733 0.98571 0.30695 0.0
H1495 H 0.41231 0.99797 0.27788 0.0
H1496 H 0.32784 0.92779 0.25277 0.0
H1497 H 0.38945 0.95285 0.18246 0.0
H1498 H 0.30866 0.9921 0.2817 0.0
H1499 H 0.33593 0.98164 0.30872 0.0
H1500 H 0.31112 0.95669 0.29455 0.0
H1501 H 0.38223 0.02418 0.19463 0.0
H1502 H 0.40574 0.99827 0.17968 0.0
H1503 H 0.40976 0.01283 0.22072 0.0
C1504 C 0.9447 0.3373 0.26364 0.0
C1505 C 0.93764 0.35594 0.28898 0.0
C1506 C 0.97091 0.33757 0.24881 0.0
C1507 C 0.99101 0.35646 0.26009 0.0
C1508 C 0.98428 0.37483 0.28634 0.0
C1509 C 0.95758 0.37463 0.30012 0.0
C1510 C 0.97686 0.31803 0.22046 0.0
C1511 C 0.00526 0.39479 0.2998 0.0
C1512 C 0.066 0.33882 0.24189 0.0
C1513 C 0.07249 0.35687 0.2157 0.0
C1514 C 0.0398 0.33875 0.25674 0.0
C1515 C 0.01913 0.35667 0.24465 0.0
C1516 C 0.02532 0.37447 0.21762 0.0
C1517 C 0.052 0.37463 0.20379 0.0
C1518 C 0.03443 0.31986 0.28591 0.0
C1519 C 1.00374 0.3934 0.20334 0.0
H1520 H 0.92935 0.32303 0.25447 0.0
H1521 H 0.9523 0.38916 0.31957 0.0
H1522 H 0.983 0.3298 0.19795 0.0
H1523 H 0.99431 0.30441 0.22706 0.0
H1524 H 0.95885 0.30502 0.21409 0.0
H1525 H 0.99723 0.40689 0.32117 0.0
H1526 H 0.02392 0.38353 0.30799 0.0
H1527 H 0.01165 0.40924 0.27986 0.0
H1528 H 0.08175 0.32526 0.25164 0.0
H1529 H 0.05683 0.3887 0.18367 0.0
H1530 H 0.01745 0.3055 0.27986 0.0
H1531 H 0.02786 0.33206 0.30788 0.0
H1532 H 0.05284 0.30762 0.29286 0.0
H1533 H 0.98547 0.38135 0.19557 0.0
H1534 H 0.01143 0.40517 0.18151 0.0
H1535 H 0.99685 0.40816 0.22268 0.0
C1536 C 0.63301 0.95313 0.301 0.0
C1537 C 0.65237 0.93351 0.29071 0.0
C1538 C 0.63295 0.97991 0.28748 0.0
C1539 C 0.6522 0.98707 0.26235 0.0
C1540 C 0.67182 0.96734 0.252 0.0
C1541 C 0.6719 0.94103 0.26657 0.0
C1542 C 0.61215 1.0005 0.29995 0.0
C1543 C 0.69235 0.97376 0.22484 0.0
C1544 C 0.6352 0.04783 0.20517 0.0
C1545 C 0.65224 0.06854 0.21799 0.0
C1546 C 0.63521 0.02116 0.21902 0.0
C1547 C 0.65207 0.01522 0.24702 0.0
C1548 C 0.66919 0.03614 0.2601 0.0
C1549 C 0.66934 0.06232 0.2452 0.0
C1550 C 0.61719 0.99932 0.20369 0.0
C1551 C 0.68701 0.03104 0.29031 0.0
H1552 H 0.61778 0.94749 0.31952 0.0
H1553 H 0.68672 0.92595 0.25805 0.0
H1554 H 0.62277 0.01934 0.30873 0.0
H1555 H 0.59829 0.00667 0.2793 0.0
H1556 H 0.59947 0.99221 0.32067 0.0
H1557 H 0.70595 0.95603 0.21918 0.0
H1558 H 0.68136 0.97974 0.2017 0.0
H1559 H 0.70535 0.99145 0.23228 0.0
H1560 H 0.62187 0.05246 0.18424 0.0
H1561 H 0.6823 0.07826 0.25564 0.0
H1562 H 0.60189 0.99209 0.22221 0.0
H1563 H 0.62984 0.9813 0.19647 0.0
H1564 H 0.60606 0.00688 0.1813 0.0
H1565 H 0.67409 0.02416 0.31153 0.0
H1566 H 0.69859 0.04966 0.29803 0.0
H1567 H 0.70194 0.01437 0.28504 0.0
C1568 C 0.0546 0.63089 0.29872 0.0
C1569 C 0.07465 0.64953 0.2877 0.0
C1570 C 0.02796 0.63079 0.28479 0.0
C1571 C 0.02138 0.64922 0.25853 0.0
C1572 C 0.04159 0.66803 0.24735 0.0
C1573 C 0.06775 0.66819 0.26232 0.0
C1574 C 0.00687 0.61088 0.2981 0.0
C1575 C 0.03578 0.68765 0.21903 0.0
C1576 C 0.96035 0.63142 0.20212 0.0
C1577 C 0.9399 0.64919 0.21412 0.0
C1578 C 0.98704 0.63148 0.21594 0.0
C1579 C 0.99328 0.64919 0.24303 0.0
C1580 C 0.97268 0.66715 0.25517 0.0
C1581 C 0.94647 0.66718 0.24034 0.0
C1582 C 0.00855 0.6125 0.20162 0.0
C1583 C 0.97812 0.68597 0.28438 0.0
H1584 H 0.05976 0.61634 0.31821 0.0
H1585 H 0.08317 0.68243 0.25325 0.0
H1586 H 0.98828 0.62221 0.30635 0.0
H1587 H 1.0004 0.59656 0.27808 0.0
H1588 H 0.01483 0.59864 0.31941 0.0
H1589 H 0.05387 0.70057 0.21272 0.0
H1590 H 0.0296 0.67596 0.19649 0.0
H1591 H 0.0184 0.70136 0.22563 0.0
H1592 H 0.95547 0.6174 0.18198 0.0
H1593 H 0.93076 0.68075 0.25015 0.0
H1594 H 0.01533 0.59763 0.22091 0.0
H1595 H 0.02689 0.62449 0.19397 0.0
H1596 H 1.00084 0.60085 0.17971 0.0
H1597 H 0.98457 0.67368 0.30635 0.0
H1598 H 0.95977 0.69831 0.2913 0.0
H1599 H 0.99521 0.70022 0.27841 0.0
loop_
_geom_bond_atom_site_label_1
_geom_bond_atom_site_label_2
_geom_bond_distance
_geom_bond_site_symmetry_2
_ccdc_geom_bond_type
Mn0 O5 2.095 . S
Mn0 O15 2.162 . S
Mn0 O16 2.297 . S
Mn0 O24 2.385 . S
Mn0 O25 2.209 . S
Mn0 O26 2.094 . S
Mn1 O6 2.121 . S
Mn1 N8 2.257 . S
Mn1 N17 2.282 . S
Mn1 O25 2.215 . S
Mn1 O27 2.117 . S
C2 O24 1.234 . S
C2 O25 1.283 . S
C3 O15 1.281 . S
C3 O16 1.236 . S
C4 O26 1.240 . S
C4 O27 1.264 . S
O5 Mn0 2.095 . S
O5 C14 1.250 . S
O6 Mn1 2.121 . S
O6 C14 1.258 . S
C7 N8 1.326 . S
C7 C11 1.460 . S
C7 H13 0.929 . S
N8 Mn1 2.257 . S
N8 C7 1.326 . S
N8 C12 1.362 . S
C9 C10 1.258 . S
C9 C12 1.431 . S
C9 C29 1.449 . S
C10 C9 1.258 . S
C10 C11 1.477 . S
C10 H30 0.931 . S
C11 C7 1.460 . S
C11 C10 1.477 . S
C11 H31 0.930 . S
C12 N8 1.362 . S
C12 C9 1.431 . S
C12 C22 1.476 . S
H13 C7 0.929 . S
C14 O5 1.250 . S
C14 O6 1.258 . S
O15 Mn0 2.162 . S
O15 C3 1.281 . S
O16 Mn0 2.297 . S
O16 C3 1.236 . S
N17 Mn1 2.282 . S
N17 C18 1.328 . S
N17 C22 1.318 . S
C18 N17 1.328 . S
C18 C19 1.457 . S
C18 H23 0.929 . S
C19 C18 1.457 . S
C19 C20 1.291 . S
C19 H32 0.931 . S
C20 C19 1.291 . S
C20 C21 1.373 . S
C20 H33 0.929 . S
C21 C20 1.373 . S
C21 C22 1.396 . S
C21 C28 1.403 . S
C22 C12 1.476 . S
C22 N17 1.318 . S
C22 C21 1.396 . S
H23 C18 0.929 . S
O24 Mn0 2.385 . S
O24 C2 1.234 . S
O25 Mn0 2.209 . S
O25 Mn1 2.215 . S
O25 C2 1.283 . S
O26 Mn0 2.094 . S
O26 C4 1.240 . S
O27 Mn1 2.117 . S
O27 C4 1.264 . S
C28 C21 1.403 . S
C28 C29 1.399 . S
C28 H34 0.929 . S
C29 C9 1.449 . S
C29 C28 1.399 . S
C29 H35 0.930 . S
H30 C10 0.931 . S
H31 C11 0.930 . S
H32 C19 0.931 . S
H33 C20 0.929 . S
H34 C28 0.929 . S
H35 C29 0.930 . S
Mn36 O41 2.095 . S
Mn36 O51 2.162 . S
Mn36 O52 2.297 . S
Mn36 O60 2.385 . S
Mn36 O61 2.209 . S
Mn36 O62 2.094 . S
Mn37 O42 2.121 . S
Mn37 N44 2.257 . S
Mn37 N53 2.282 . S
Mn37 O61 2.215 . S
Mn37 O63 2.117 . S
C38 O60 1.234 . S
C38 O61 1.283 . S
C39 O51 1.281 . S
C39 O52 1.236 . S
C40 O62 1.240 . S
C40 O63 1.264 . S
O41 Mn36 2.095 . S
O41 C50 1.250 . S
O42 Mn37 2.121 . S
O42 C50 1.258 . S
C43 N44 1.326 . S
C43 C47 1.460 . S
C43 H49 0.929 . S
N44 Mn37 2.257 . S
N44 C43 1.326 . S
N44 C48 1.362 . S
C45 C46 1.258 . S
C45 C48 1.431 . S
C45 C65 1.449 . S
C46 C45 1.258 . S
C46 C47 1.477 . S
C46 H66 0.931 . S
C47 C43 1.460 . S
C47 C46 1.477 . S
C47 H67 0.930 . S
C48 N44 1.362 . S
C48 C45 1.431 . S
C48 C58 1.476 . S
H49 C43 0.929 . S
C50 O41 1.250 . S
C50 O42 1.258 . S
O51 Mn36 2.162 . S
O51 C39 1.281 . S
O52 Mn36 2.297 . S
O52 C39 1.236 . S
N53 Mn37 2.282 . S
N53 C54 1.328 . S
N53 C58 1.318 . S
C54 N53 1.328 . S
C54 C55 1.457 . S
C54 H59 0.929 . S
C55 C54 1.457 . S
C55 C56 1.291 . S
C55 H68 0.931 . S
C56 C55 1.291 . S
C56 C57 1.373 . S
C56 H69 0.929 . S
C57 C56 1.373 . S
C57 C58 1.396 . S
C57 C64 1.403 . S
C58 C48 1.476 . S
C58 N53 1.318 . S
C58 C57 1.396 . S
H59 C54 0.929 . S
O60 Mn36 2.385 . S
O60 C38 1.234 . S
O61 Mn36 2.209 . S
O61 Mn37 2.215 . S
O61 C38 1.283 . S
O62 Mn36 2.094 . S
O62 C40 1.240 . S
O63 Mn37 2.117 . S
O63 C40 1.264 . S
C64 C57 1.403 . S
C64 C65 1.399 . S
C64 H70 0.929 . S
C65 C45 1.449 . S
C65 C64 1.399 . S
C65 H71 0.930 . S
H66 C46 0.931 . S
H67 C47 0.930 . S
H68 C55 0.931 . S
H69 C56 0.929 . S
H70 C64 0.929 . S
H71 C65 0.930 . S
Mn72 O77 2.095 . S
Mn72 O87 2.162 . S
Mn72 O88 2.297 . S
Mn72 O96 2.385 . S
Mn72 O97 2.209 . S
Mn72 O98 2.094 . S
Mn73 O78 2.121 . S
Mn73 N80 2.257 . S
Mn73 N89 2.282 . S
Mn73 O97 2.215 . S
Mn73 O99 2.117 . S
C74 O96 1.234 . S
C74 O97 1.283 . S
C75 O87 1.281 . S
C75 O88 1.236 . S
C76 O98 1.240 . S
C76 O99 1.264 . S
O77 Mn72 2.095 . S
O77 C86 1.250 . S
O78 Mn73 2.121 . S
O78 C86 1.258 . S
C79 N80 1.326 . S
C79 C83 1.460 . S
C79 H85 0.929 . S
N80 Mn73 2.257 . S
N80 C79 1.326 . S
N80 C84 1.362 . S
C81 C82 1.258 . S
C81 C84 1.431 . S
C81 C101 1.449 . S
C82 C81 1.258 . S
C82 C83 1.477 . S
C82 H102 0.931 . S
C83 C79 1.460 . S
C83 C82 1.477 . S
C83 H103 0.930 . S
C84 N80 1.362 . S
C84 C81 1.431 . S
C84 C94 1.476 . S
H85 C79 0.929 . S
C86 O77 1.250 . S
C86 O78 1.258 . S
O87 Mn72 2.162 . S
O87 C75 1.281 . S
O88 Mn72 2.297 . S
O88 C75 1.236 . S
N89 Mn73 2.282 . S
N89 C90 1.328 . S
N89 C94 1.318 . S
C90 N89 1.328 . S
C90 C91 1.457 . S
C90 H95 0.929 . S
C91 C90 1.457 . S
C91 C92 1.291 . S
C91 H104 0.931 . S
C92 C91 1.291 . S
C92 C93 1.373 . S
C92 H105 0.929 . S
C93 C92 1.373 . S
C93 C94 1.396 . S
C93 C100 1.403 . S
C94 C84 1.476 . S
C94 N89 1.318 . S
C94 C93 1.396 . S
H95 C90 0.929 . S
O96 Mn72 2.385 . S
O96 C74 1.234 . S
O97 Mn72 2.209 . S
O97 Mn73 2.215 . S
O97 C74 1.283 . S
O98 Mn72 2.094 . S
O98 C76 1.240 . S
O99 Mn73 2.117 . S
O99 C76 1.264 . S
C100 C93 1.403 . S
C100 C101 1.399 . S
C100 H106 0.929 . S
C101 C81 1.449 . S
C101 C100 1.399 . S
C101 H107 0.930 . S
H102 C82 0.931 . S
H103 C83 0.930 . S
H104 C91 0.931 . S
H105 C92 0.929 . S
H106 C100 0.929 . S
H107 C101 0.930 . S
Mn108 O113 2.095 . S
Mn108 O123 2.162 . S
Mn108 O124 2.297 . S
Mn108 O132 2.385 . S
Mn108 O133 2.209 . S
Mn108 O134 2.094 . S
Mn109 O114 2.121 . S
Mn109 N116 2.257 . S
Mn109 N125 2.282 . S
Mn109 O133 2.215 . S
Mn109 O135 2.117 . S
C110 O132 1.234 . S
C110 O133 1.283 . S
C111 O123 1.281 . S
C111 O124 1.236 . S
C112 O134 1.240 . S
C112 O135 1.264 . S
O113 Mn108 2.095 . S
O113 C122 1.250 . S
O114 Mn109 2.121 . S
O114 C122 1.258 . S
C115 N116 1.326 . S
C115 C119 1.460 . S
C115 H121 0.929 . S
N116 Mn109 2.257 . S
N116 C115 1.326 . S
N116 C120 1.362 . S
C117 C118 1.258 . S
C117 C120 1.431 . S
C117 C137 1.449 . S
C118 C117 1.258 . S
C118 C119 1.477 . S
C118 H138 0.931 . S
C119 C115 1.460 . S
C119 C118 1.477 . S
C119 H139 0.930 . S
C120 N116 1.362 . S
C120 C117 1.431 . S
C120 C130 1.476 . S
H121 C115 0.929 . S
C122 O113 1.250 . S
C122 O114 1.258 . S
O123 Mn108 2.162 . S
O123 C111 1.281 . S
O124 Mn108 2.297 . S
O124 C111 1.236 . S
N125 Mn109 2.282 . S
N125 C126 1.328 . S
N125 C130 1.318 . S
C126 N125 1.328 . S
C126 C127 1.457 . S
C126 H131 0.929 . S
C127 C126 1.457 . S
C127 C128 1.291 . S
C127 H140 0.931 . S
C128 C127 1.291 . S
C128 C129 1.373 . S
C128 H141 0.929 . S
C129 C128 1.373 . S
C129 C130 1.396 . S
C129 C136 1.403 . S
C130 C120 1.476 . S
C130 N125 1.318 . S
C130 C129 1.396 . S
H131 C126 0.929 . S
O132 Mn108 2.385 . S
O132 C110 1.234 . S
O133 Mn108 2.209 . S
O133 Mn109 2.215 . S
O133 C110 1.283 . S
O134 Mn108 2.094 . S
O134 C112 1.240 . S
O135 Mn109 2.117 . S
O135 C112 1.264 . S
C136 C129 1.403 . S
C136 C137 1.399 . S
C136 H142 0.929 . S
C137 C117 1.449 . S
C137 C136 1.399 . S
C137 H143 0.930 . S
H138 C118 0.931 . S
H139 C119 0.930 . S
H140 C127 0.931 . S
H141 C128 0.929 . S
H142 C136 0.929 . S
H143 C137 0.930 . S
Mn144 O149 2.095 . S
Mn144 O159 2.162 . S
Mn144 O160 2.297 . S
Mn144 O168 2.385 . S
Mn144 O169 2.209 . S
Mn144 O170 2.094 . S
Mn145 O150 2.121 . S
Mn145 N152 2.257 . S
Mn145 N161 2.282 . S
Mn145 O169 2.215 . S
Mn145 O171 2.117 . S
C146 O168 1.234 . S
C146 O169 1.283 . S
C147 O159 1.281 . S
C147 O160 1.236 . S
C148 O170 1.240 . S
C148 O171 1.264 . S
O149 Mn144 2.095 . S
O149 C158 1.250 . S
O150 Mn145 2.121 . S
O150 C158 1.258 . S
C151 N152 1.326 . S
C151 C155 1.460 . S
C151 H157 0.929 . S
N152 Mn145 2.257 . S
N152 C151 1.326 . S
N152 C156 1.362 . S
C153 C154 1.258 . S
C153 C156 1.431 . S
C153 C173 1.449 . S
C154 C153 1.258 . S
C154 C155 1.477 . S
C154 H174 0.931 . S
C155 C151 1.460 . S
C155 C154 1.477 . S
C155 H175 0.930 . S
C156 N152 1.362 . S
C156 C153 1.431 . S
C156 C166 1.476 . S
H157 C151 0.929 . S
C158 O149 1.250 . S
C158 O150 1.258 . S
O159 Mn144 2.162 . S
O159 C147 1.281 . S
O160 Mn144 2.297 . S
O160 C147 1.236 . S
N161 Mn145 2.282 . S
N161 C162 1.328 . S
N161 C166 1.318 . S
C162 N161 1.328 . S
C162 C163 1.457 . S
C162 H167 0.929 . S
C163 C162 1.457 . S
C163 C164 1.291 . S
C163 H176 0.931 . S
C164 C163 1.291 . S
C164 C165 1.373 . S
C164 H177 0.929 . S
C165 C164 1.373 . S
C165 C166 1.396 . S
C165 C172 1.403 . S
C166 C156 1.476 . S
C166 N161 1.318 . S
C166 C165 1.396 . S
H167 C162 0.929 . S
O168 Mn144 2.385 . S
O168 C146 1.234 . S
O169 Mn144 2.209 . S
O169 Mn145 2.215 . S
O169 C146 1.283 . S
O170 Mn144 2.094 . S
O170 C148 1.240 . S
O171 Mn145 2.117 . S
O171 C148 1.264 . S
C172 C165 1.403 . S
C172 C173 1.399 . S
C172 H178 0.929 . S
C173 C153 1.449 . S
C173 C172 1.399 . S
C173 H179 0.930 . S
H174 C154 0.931 . S
H175 C155 0.930 . S
H176 C163 0.931 . S
H177 C164 0.929 . S
H178 C172 0.929 . S
H179 C173 0.930 . S
Mn180 O185 2.095 . S
Mn180 O195 2.162 . S
Mn180 O196 2.297 . S
Mn180 O204 2.385 . S
Mn180 O205 2.209 . S
Mn180 O206 2.094 . S
Mn181 O186 2.121 . S
Mn181 N188 2.257 . S
Mn181 N197 2.282 . S
Mn181 O205 2.215 . S
Mn181 O207 2.117 . S
C182 O204 1.234 . S
C182 O205 1.283 . S
C183 O195 1.281 . S
C183 O196 1.236 . S
C184 O206 1.240 . S
C184 O207 1.264 . S
O185 Mn180 2.095 . S
O185 C194 1.250 . S
O186 Mn181 2.121 . S
O186 C194 1.258 . S
C187 N188 1.326 . S
C187 C191 1.460 . S
C187 H193 0.929 . S
N188 Mn181 2.257 . S
N188 C187 1.326 . S
N188 C192 1.362 . S
C189 C190 1.258 . S
C189 C192 1.431 . S
C189 C209 1.449 . S
C190 C189 1.258 . S
C190 C191 1.477 . S
C190 H210 0.931 . S
C191 C187 1.460 . S
C191 C190 1.477 . S
C191 H211 0.930 . S
C192 N188 1.362 . S
C192 C189 1.431 . S
C192 C202 1.476 . S
H193 C187 0.929 . S
C194 O185 1.250 . S
C194 O186 1.258 . S
O195 Mn180 2.162 . S
O195 C183 1.281 . S
O196 Mn180 2.297 . S
O196 C183 1.236 . S
N197 Mn181 2.282 . S
N197 C198 1.328 . S
N197 C202 1.318 . S
C198 N197 1.328 . S
C198 C199 1.457 . S
C198 H203 0.929 . S
C199 C198 1.457 . S
C199 C200 1.291 . S
C199 H212 0.931 . S
C200 C199 1.291 . S
C200 C201 1.373 . S
C200 H213 0.929 . S
C201 C200 1.373 . S
C201 C202 1.396 . S
C201 C208 1.403 . S
C202 C192 1.476 . S
C202 N197 1.318 . S
C202 C201 1.396 . S
H203 C198 0.929 . S
O204 Mn180 2.385 . S
O204 C182 1.234 . S
O205 Mn180 2.209 . S
O205 Mn181 2.215 . S
O205 C182 1.283 . S
O206 Mn180 2.094 . S
O206 C184 1.240 . S
O207 Mn181 2.117 . S
O207 C184 1.264 . S
C208 C201 1.403 . S
C208 C209 1.399 . S
C208 H214 0.929 . S
C209 C189 1.449 . S
C209 C208 1.399 . S
C209 H215 0.930 . S
H210 C190 0.931 . S
H211 C191 0.930 . S
H212 C199 0.931 . S
H213 C200 0.929 . S
H214 C208 0.929 . S
H215 C209 0.930 . S
Mn216 O221 2.095 . S
Mn216 O231 2.162 . S
Mn216 O232 2.297 . S
Mn216 O240 2.385 . S
Mn216 O241 2.209 . S
Mn216 O242 2.094 . S
Mn217 O222 2.121 . S
Mn217 N224 2.257 . S
Mn217 N233 2.282 . S
Mn217 O241 2.215 . S
Mn217 O243 2.117 . S
C218 O240 1.234 . S
C218 O241 1.283 . S
C219 O231 1.281 . S
C219 O232 1.236 . S
C220 O242 1.240 . S
C220 O243 1.264 . S
O221 Mn216 2.095 . S
O221 C230 1.250 . S
O222 Mn217 2.121 . S
O222 C230 1.258 . S
C223 N224 1.326 . S
C223 C227 1.460 . S
C223 H229 0.929 . S
N224 Mn217 2.257 . S
N224 C223 1.326 . S
N224 C228 1.362 . S
C225 C226 1.258 . S
C225 C228 1.431 . S
C225 C245 1.449 . S
C226 C225 1.258 . S
C226 C227 1.477 . S
C226 H246 0.931 . S
C227 C223 1.460 . S
C227 C226 1.477 . S
C227 H247 0.930 . S
C228 N224 1.362 . S
C228 C225 1.431 . S
C228 C238 1.476 . S
H229 C223 0.929 . S
C230 O221 1.250 . S
C230 O222 1.258 . S
O231 Mn216 2.162 . S
O231 C219 1.281 . S
O232 Mn216 2.297 . S
O232 C219 1.236 . S
N233 Mn217 2.282 . S
N233 C234 1.328 . S
N233 C238 1.318 . S
C234 N233 1.328 . S
C234 C235 1.457 . S
C234 H239 0.929 . S
C235 C234 1.457 . S
C235 C236 1.291 . S
C235 H248 0.931 . S
C236 C235 1.291 . S
C236 C237 1.373 . S
C236 H249 0.929 . S
C237 C236 1.373 . S
C237 C238 1.396 . S
C237 C244 1.403 . S
C238 C228 1.476 . S
C238 N233 1.318 . S
C238 C237 1.396 . S
H239 C234 0.929 . S
O240 Mn216 2.385 . S
O240 C218 1.234 . S
O241 Mn216 2.209 . S
O241 Mn217 2.215 . S
O241 C218 1.283 . S
O242 Mn216 2.094 . S
O242 C220 1.240 . S
O243 Mn217 2.117 . S
O243 C220 1.264 . S
C244 C237 1.403 . S
C244 C245 1.399 . S
C244 H250 0.929 . S
C245 C225 1.449 . S
C245 C244 1.399 . S
C245 H251 0.930 . S
H246 C226 0.931 . S
H247 C227 0.930 . S
H248 C235 0.931 . S
H249 C236 0.929 . S
H250 C244 0.929 . S
H251 C245 0.930 . S
Mn252 O257 2.095 . S
Mn252 O267 2.162 . S
Mn252 O268 2.297 . S
Mn252 O276 2.385 . S
Mn252 O277 2.209 . S
Mn252 O278 2.094 . S
Mn253 O258 2.121 . S
Mn253 N260 2.257 . S
Mn253 N269 2.282 . S
Mn253 O277 2.215 . S
Mn253 O279 2.117 . S
C254 O276 1.234 . S
C254 O277 1.283 . S
C255 O267 1.281 . S
C255 O268 1.236 . S
C256 O278 1.240 . S
C256 O279 1.264 . S
O257 Mn252 2.095 . S
O257 C266 1.250 . S
O258 Mn253 2.121 . S
O258 C266 1.258 . S
C259 N260 1.326 . S
C259 C263 1.460 . S
C259 H265 0.929 . S
N260 Mn253 2.257 . S
N260 C259 1.326 . S
N260 C264 1.362 . S
C261 C262 1.258 . S
C261 C264 1.431 . S
C261 C281 1.449 . S
C262 C261 1.258 . S
C262 C263 1.477 . S
C262 H282 0.931 . S
C263 C259 1.460 . S
C263 C262 1.477 . S
C263 H283 0.930 . S
C264 N260 1.362 . S
C264 C261 1.431 . S
C264 C274 1.476 . S
H265 C259 0.929 . S
C266 O257 1.250 . S
C266 O258 1.258 . S
O267 Mn252 2.162 . S
O267 C255 1.281 . S
O268 Mn252 2.297 . S
O268 C255 1.236 . S
N269 Mn253 2.282 . S
N269 C270 1.328 . S
N269 C274 1.318 . S
C270 N269 1.328 . S
C270 C271 1.457 . S
C270 H275 0.929 . S
C271 C270 1.457 . S
C271 C272 1.291 . S
C271 H284 0.931 . S
C272 C271 1.291 . S
C272 C273 1.373 . S
C272 H285 0.929 . S
C273 C272 1.373 . S
C273 C274 1.396 . S
C273 C280 1.403 . S
C274 C264 1.476 . S
C274 N269 1.318 . S
C274 C273 1.396 . S
H275 C270 0.929 . S
O276 Mn252 2.385 . S
O276 C254 1.234 . S
O277 Mn252 2.209 . S
O277 Mn253 2.215 . S
O277 C254 1.283 . S
O278 Mn252 2.094 . S
O278 C256 1.240 . S
O279 Mn253 2.117 . S
O279 C256 1.264 . S
C280 C273 1.403 . S
C280 C281 1.399 . S
C280 H286 0.929 . S
C281 C261 1.449 . S
C281 C280 1.399 . S
C281 H287 0.930 . S
H282 C262 0.931 . S
H283 C263 0.930 . S
H284 C271 0.931 . S
H285 C272 0.929 . S
H286 C280 0.929 . S
H287 C281 0.930 . S
Mn288 O293 2.095 . S
Mn288 O303 2.162 . S
Mn288 O304 2.297 . S
Mn288 O312 2.385 . S
Mn288 O313 2.209 . S
Mn288 O314 2.094 . S
Mn289 O294 2.121 . S
Mn289 N296 2.257 . S
Mn289 N305 2.282 . S
Mn289 O313 2.215 . S
Mn289 O315 2.117 . S
C290 O312 1.234 . S
C290 O313 1.283 . S
C291 O303 1.281 . S
C291 O304 1.236 . S
C292 O314 1.240 . S
C292 O315 1.264 . S
O293 Mn288 2.095 . S
O293 C302 1.250 . S
O294 Mn289 2.121 . S
O294 C302 1.258 . S
C295 N296 1.326 . S
C295 C299 1.460 . S
C295 H301 0.929 . S
N296 Mn289 2.257 . S
N296 C295 1.326 . S
N296 C300 1.362 . S
C297 C298 1.258 . S
C297 C300 1.431 . S
C297 C317 1.449 . S
C298 C297 1.258 . S
C298 C299 1.477 . S
C298 H318 0.931 1_655 S
C299 C295 1.460 . S
C299 C298 1.477 . S
C299 H319 0.930 . S
C300 N296 1.362 . S
C300 C297 1.431 . S
C300 C310 1.476 . S
H301 C295 0.929 . S
C302 O293 1.250 . S
C302 O294 1.258 . S
O303 Mn288 2.162 . S
O303 C291 1.281 . S
O304 Mn288 2.297 . S
O304 C291 1.236 . S
N305 Mn289 2.282 . S
N305 C306 1.328 . S
N305 C310 1.318 . S
C306 N305 1.328 . S
C306 C307 1.457 . S
C306 H311 0.929 . S
C307 C306 1.457 . S
C307 C308 1.291 . S
C307 H320 0.931 . S
C308 C307 1.291 . S
C308 C309 1.373 . S
C308 H321 0.929 . S
C309 C308 1.373 . S
C309 C310 1.396 . S
C309 C316 1.403 . S
C310 C300 1.476 . S
C310 N305 1.318 . S
C310 C309 1.396 . S
H311 C306 0.929 . S
O312 Mn288 2.385 . S
O312 C290 1.234 . S
O313 Mn288 2.209 . S
O313 Mn289 2.215 . S
O313 C290 1.283 . S
O314 Mn288 2.094 . S
O314 C292 1.240 . S
O315 Mn289 2.117 . S
O315 C292 1.264 . S
C316 C309 1.403 . S
C316 C317 1.399 . S
C316 H322 0.929 . S
C317 C297 1.449 . S
C317 C316 1.399 . S
C317 H323 0.930 1_655 S
H318 C298 0.931 1_455 S
H319 C299 0.930 . S
H320 C307 0.931 . S
H321 C308 0.929 . S
H322 C316 0.929 . S
H323 C317 0.930 1_455 S
Mn324 O329 2.095 . S
Mn324 O339 2.162 . S
Mn324 O340 2.297 . S
Mn324 O348 2.385 . S
Mn324 O349 2.209 . S
Mn324 O350 2.094 . S
Mn325 O330 2.121 . S
Mn325 N332 2.257 . S
Mn325 N341 2.282 . S
Mn325 O349 2.215 . S
Mn325 O351 2.117 . S
C326 O348 1.234 . S
C326 O349 1.283 . S
C327 O339 1.281 . S
C327 O340 1.236 . S
C328 O350 1.240 . S
C328 O351 1.264 . S
O329 Mn324 2.095 . S
O329 C338 1.250 . S
O330 Mn325 2.121 . S
O330 C338 1.258 . S
C331 N332 1.326 . S
C331 C335 1.460 . S
C331 H337 0.929 . S
N332 Mn325 2.257 . S
N332 C331 1.326 . S
N332 C336 1.362 . S
C333 C334 1.258 . S
C333 C336 1.431 . S
C333 C353 1.449 . S
C334 C333 1.258 . S
C334 C335 1.477 . S
C334 H354 0.931 1_565 S
C335 C331 1.460 . S
C335 C334 1.477 . S
C335 H355 0.930 . S
C336 N332 1.362 . S
C336 C333 1.431 . S
C336 C346 1.476 . S
H337 C331 0.929 . S
C338 O329 1.250 . S
C338 O330 1.258 . S
O339 Mn324 2.162 . S
O339 C327 1.281 . S
O340 Mn324 2.297 . S
O340 C327 1.236 . S
N341 Mn325 2.282 . S
N341 C342 1.328 . S
N341 C346 1.318 . S
C342 N341 1.328 . S
C342 C343 1.457 . S
C342 H347 0.929 . S
C343 C342 1.457 . S
C343 C344 1.291 . S
C343 H356 0.931 . S
C344 C343 1.291 . S
C344 C345 1.373 . S
C344 H357 0.929 . S
C345 C344 1.373 . S
C345 C346 1.396 . S
C345 C352 1.403 . S
C346 C336 1.476 . S
C346 N341 1.318 . S
C346 C345 1.396 . S
H347 C342 0.929 . S
O348 Mn324 2.385 . S
O348 C326 1.234 . S
O349 Mn324 2.209 . S
O349 Mn325 2.215 . S
O349 C326 1.283 . S
O350 Mn324 2.094 . S
O350 C328 1.240 . S
O351 Mn325 2.117 . S
O351 C328 1.264 . S
C352 C345 1.403 . S
C352 C353 1.399 . S
C352 H358 0.929 . S
C353 C333 1.449 . S
C353 C352 1.399 . S
C353 H359 0.930 1_565 S
H354 C334 0.931 1_545 S
H355 C335 0.930 . S
H356 C343 0.931 . S
H357 C344 0.929 . S
H358 C352 0.929 . S
H359 C353 0.930 1_545 S
Mn360 O365 2.095 . S
Mn360 O375 2.162 . S
Mn360 O376 2.297 . S
Mn360 O384 2.385 . S
Mn360 O385 2.209 . S
Mn360 O386 2.094 . S
Mn361 O366 2.121 . S
Mn361 N368 2.257 . S
Mn361 N377 2.282 . S
Mn361 O385 2.215 . S
Mn361 O387 2.117 . S
C362 O384 1.234 . S
C362 O385 1.283 . S
C363 O375 1.281 . S
C363 O376 1.236 . S
C364 O386 1.240 . S
C364 O387 1.264 . S
O365 Mn360 2.095 . S
O365 C374 1.250 . S
O366 Mn361 2.121 . S
O366 C374 1.258 . S
C367 N368 1.326 . S
C367 C371 1.460 . S
C367 H373 0.929 . S
N368 Mn361 2.257 . S
N368 C367 1.326 . S
N368 C372 1.362 . S
C369 C370 1.258 . S
C369 C372 1.431 . S
C369 C389 1.449 . S
C370 C369 1.258 . S
C370 C371 1.477 . S
C370 H390 0.931 1_455 S
C371 C367 1.460 . S
C371 C370 1.477 . S
C371 H391 0.930 . S
C372 N368 1.362 . S
C372 C369 1.431 . S
C372 C382 1.476 . S
H373 C367 0.929 . S
C374 O365 1.250 . S
C374 O366 1.258 . S
O375 Mn360 2.162 . S
O375 C363 1.281 . S
O376 Mn360 2.297 . S
O376 C363 1.236 . S
N377 Mn361 2.282 . S
N377 C378 1.328 . S
N377 C382 1.318 . S
C378 N377 1.328 . S
C378 C379 1.457 . S
C378 H383 0.929 . S
C379 C378 1.457 . S
C379 C380 1.291 . S
C379 H392 0.931 . S
C380 C379 1.291 . S
C380 C381 1.373 . S
C380 H393 0.929 . S
C381 C380 1.373 . S
C381 C382 1.396 . S
C381 C388 1.403 . S
C382 C372 1.476 . S
C382 N377 1.318 . S
C382 C381 1.396 . S
H383 C378 0.929 . S
O384 Mn360 2.385 . S
O384 C362 1.234 . S
O385 Mn360 2.209 . S
O385 Mn361 2.215 . S
O385 C362 1.283 . S
O386 Mn360 2.094 . S
O386 C364 1.240 . S
O387 Mn361 2.117 . S
O387 C364 1.264 . S
C388 C381 1.403 . S
C388 C389 1.399 . S
C388 H394 0.929 . S
C389 C369 1.449 . S
C389 C388 1.399 . S
C389 H395 0.930 1_455 S
H390 C370 0.931 1_655 S
H391 C371 0.930 . S
H392 C379 0.931 . S
H393 C380 0.929 . S
H394 C388 0.929 . S
H395 C389 0.930 1_655 S
Mn396 O401 2.095 . S
Mn396 O411 2.162 . S
Mn396 O412 2.297 . S
Mn396 O420 2.385 . S
Mn396 O421 2.209 . S
Mn396 O422 2.094 . S
Mn397 O402 2.121 . S
Mn397 N404 2.257 . S
Mn397 N413 2.282 . S
Mn397 O421 2.215 . S
Mn397 O423 2.117 . S
C398 O420 1.234 . S
C398 O421 1.283 . S
C399 O411 1.281 . S
C399 O412 1.236 . S
C400 O422 1.240 . S
C400 O423 1.264 . S
O401 Mn396 2.095 . S
O401 C410 1.250 . S
O402 Mn397 2.121 . S
O402 C410 1.258 . S
C403 N404 1.326 . S
C403 C407 1.460 . S
C403 H409 0.929 . S
N404 Mn397 2.257 . S
N404 C403 1.326 . S
N404 C408 1.362 . S
C405 C406 1.258 . S
C405 C408 1.431 . S
C405 C425 1.449 . S
C406 C405 1.258 . S
C406 C407 1.477 . S
C406 H426 0.931 1_545 S
C407 C403 1.460 . S
C407 C406 1.477 . S
C407 H427 0.930 . S
C408 N404 1.362 . S
C408 C405 1.431 . S
C408 C418 1.476 . S
H409 C403 0.929 . S
C410 O401 1.250 . S
C410 O402 1.258 . S
O411 Mn396 2.162 . S
O411 C399 1.281 . S
O412 Mn396 2.297 . S
O412 C399 1.236 . S
N413 Mn397 2.282 . S
N413 C414 1.328 . S
N413 C418 1.318 . S
C414 N413 1.328 . S
C414 C415 1.457 . S
C414 H419 0.929 . S
C415 C414 1.457 . S
C415 C416 1.291 . S
C415 H428 0.931 . S
C416 C415 1.291 . S
C416 C417 1.373 . S
C416 H429 0.929 . S
C417 C416 1.373 . S
C417 C418 1.396 . S
C417 C424 1.403 . S
C418 C408 1.476 . S
C418 N413 1.318 . S
C418 C417 1.396 . S
H419 C414 0.929 . S
O420 Mn396 2.385 . S
O420 C398 1.234 . S
O421 Mn396 2.209 . S
O421 Mn397 2.215 . S
O421 C398 1.283 . S
O422 Mn396 2.094 . S
O422 C400 1.240 . S
O423 Mn397 2.117 . S
O423 C400 1.264 . S
C424 C417 1.403 . S
C424 C425 1.399 . S
C424 H430 0.929 . S
C425 C405 1.449 . S
C425 C424 1.399 . S
C425 H431 0.930 1_545 S
H426 C406 0.931 1_565 S
H427 C407 0.930 . S
H428 C415 0.931 . S
H429 C416 0.929 . S
H430 C424 0.929 . S
H431 C425 0.930 1_565 S
Mn432 O437 2.095 . S
Mn432 O447 2.162 . S
Mn432 O448 2.297 . S
Mn432 O456 2.385 . S
Mn432 O457 2.209 . S
Mn432 O458 2.094 . S
Mn433 O438 2.121 . S
Mn433 N440 2.257 . S
Mn433 N449 2.282 . S
Mn433 O457 2.215 . S
Mn433 O459 2.117 . S
C434 O456 1.234 . S
C434 O457 1.283 . S
C435 O447 1.281 . S
C435 O448 1.236 . S
C436 O458 1.240 . S
C436 O459 1.264 . S
O437 Mn432 2.095 . S
O437 C446 1.250 . S
O438 Mn433 2.121 . S
O438 C446 1.258 . S
C439 N440 1.326 . S
C439 C443 1.460 . S
C439 H445 0.929 . S
N440 Mn433 2.257 . S
N440 C439 1.326 . S
N440 C444 1.362 . S
C441 C442 1.258 . S
C441 C444 1.431 . S
C441 C461 1.449 . S
C442 C441 1.258 . S
C442 C443 1.477 . S
C442 H462 0.931 1_655 S
C443 C439 1.460 . S
C443 C442 1.477 . S
C443 H463 0.930 . S
C444 N440 1.362 . S
C444 C441 1.431 . S
C444 C454 1.476 . S
H445 C439 0.929 . S
C446 O437 1.250 . S
C446 O438 1.258 . S
O447 Mn432 2.162 . S
O447 C435 1.281 . S
O448 Mn432 2.297 . S
O448 C435 1.236 . S
N449 Mn433 2.282 . S
N449 C450 1.328 . S
N449 C454 1.318 . S
C450 N449 1.328 . S
C450 C451 1.457 . S
C450 H455 0.929 . S
C451 C450 1.457 . S
C451 C452 1.291 . S
C451 H464 0.931 . S
C452 C451 1.291 . S
C452 C453 1.373 . S
C452 H465 0.929 . S
C453 C452 1.373 . S
C453 C454 1.396 . S
C453 C460 1.403 . S
C454 C444 1.476 . S
C454 N449 1.318 . S
C454 C453 1.396 . S
H455 C450 0.929 . S
O456 Mn432 2.385 . S
O456 C434 1.234 . S
O457 Mn432 2.209 . S
O457 Mn433 2.215 . S
O457 C434 1.283 . S
O458 Mn432 2.094 . S
O458 C436 1.240 . S
O459 Mn433 2.117 . S
O459 C436 1.264 . S
C460 C453 1.403 . S
C460 C461 1.399 . S
C460 H466 0.929 . S
C461 C441 1.449 . S
C461 C460 1.399 . S
C461 H467 0.930 1_655 S
H462 C442 0.931 1_455 S
H463 C443 0.930 . S
H464 C451 0.931 . S
H465 C452 0.929 . S
H466 C460 0.929 . S
H467 C461 0.930 1_455 S
Mn468 O473 2.095 . S
Mn468 O483 2.162 . S
Mn468 O484 2.297 . S
Mn468 O492 2.385 . S
Mn468 O493 2.209 . S
Mn468 O494 2.094 . S
Mn469 O474 2.121 . S
Mn469 N476 2.257 . S
Mn469 N485 2.282 . S
Mn469 O493 2.215 . S
Mn469 O495 2.117 . S
C470 O492 1.234 . S
C470 O493 1.283 . S
C471 O483 1.281 . S
C471 O484 1.236 . S
C472 O494 1.240 . S
C472 O495 1.264 . S
O473 Mn468 2.095 . S
O473 C482 1.250 . S
O474 Mn469 2.121 . S
O474 C482 1.258 . S
C475 N476 1.326 . S
C475 C479 1.460 . S
C475 H481 0.929 . S
N476 Mn469 2.257 . S
N476 C475 1.326 . S
N476 C480 1.362 . S
C477 C478 1.258 . S
C477 C480 1.431 . S
C477 C497 1.449 . S
C478 C477 1.258 . S
C478 C479 1.477 . S
C478 H498 0.931 1_565 S
C479 C475 1.460 . S
C479 C478 1.477 . S
C479 H499 0.930 . S
C480 N476 1.362 . S
C480 C477 1.431 . S
C480 C490 1.476 . S
H481 C475 0.929 . S
C482 O473 1.250 . S
C482 O474 1.258 . S
O483 Mn468 2.162 . S
O483 C471 1.281 . S
O484 Mn468 2.297 . S
O484 C471 1.236 . S
N485 Mn469 2.282 . S
N485 C486 1.328 . S
N485 C490 1.318 . S
C486 N485 1.328 . S
C486 C487 1.457 . S
C486 H491 0.929 . S
C487 C486 1.457 . S
C487 C488 1.291 . S
C487 H500 0.931 . S
C488 C487 1.291 . S
C488 C489 1.373 . S
C488 H501 0.929 . S
C489 C488 1.373 . S
C489 C490 1.396 . S
C489 C496 1.403 . S
C490 C480 1.476 . S
C490 N485 1.318 . S
C490 C489 1.396 . S
H491 C486 0.929 . S
O492 Mn468 2.385 . S
O492 C470 1.234 . S
O493 Mn468 2.209 . S
O493 Mn469 2.215 . S
O493 C470 1.283 . S
O494 Mn468 2.094 . S
O494 C472 1.240 . S
O495 Mn469 2.117 . S
O495 C472 1.264 . S
C496 C489 1.403 . S
C496 C497 1.399 . S
C496 H502 0.929 . S
C497 C477 1.449 . S
C497 C496 1.399 . S
C497 H503 0.930 1_565 S
H498 C478 0.931 1_545 S
H499 C479 0.930 . S
H500 C487 0.931 . S
H501 C488 0.929 . S
H502 C496 0.929 . S
H503 C497 0.930 1_545 S
Mn504 O509 2.095 . S
Mn504 O519 2.162 . S
Mn504 O520 2.297 . S
Mn504 O528 2.385 . S
Mn504 O529 2.209 . S
Mn504 O530 2.094 . S
Mn505 O510 2.121 . S
Mn505 N512 2.257 . S
Mn505 N521 2.282 . S
Mn505 O529 2.215 . S
Mn505 O531 2.117 . S
C506 O528 1.234 . S
C506 O529 1.283 . S
C507 O519 1.281 . S
C507 O520 1.236 . S
C508 O530 1.240 . S
C508 O531 1.264 . S
O509 Mn504 2.095 . S
O509 C518 1.250 . S
O510 Mn505 2.121 . S
O510 C518 1.258 . S
C511 N512 1.326 . S
C511 C515 1.460 . S
C511 H517 0.929 . S
N512 Mn505 2.257 . S
N512 C511 1.326 . S
N512 C516 1.362 . S
C513 C514 1.258 . S
C513 C516 1.431 . S
C513 C533 1.449 . S
C514 C513 1.258 . S
C514 C515 1.477 . S
C514 H534 0.931 1_455 S
C515 C511 1.460 . S
C515 C514 1.477 . S
C515 H535 0.930 . S
C516 N512 1.362 . S
C516 C513 1.431 . S
C516 C526 1.476 . S
H517 C511 0.929 . S
C518 O509 1.250 . S
C518 O510 1.258 . S
O519 Mn504 2.162 . S
O519 C507 1.281 . S
O520 Mn504 2.297 . S
O520 C507 1.236 . S
N521 Mn505 2.282 . S
N521 C522 1.328 . S
N521 C526 1.318 . S
C522 N521 1.328 . S
C522 C523 1.457 . S
C522 H527 0.929 . S
C523 C522 1.457 . S
C523 C524 1.291 . S
C523 H536 0.931 . S
C524 C523 1.291 . S
C524 C525 1.373 . S
C524 H537 0.929 . S
C525 C524 1.373 . S
C525 C526 1.396 . S
C525 C532 1.403 . S
C526 C516 1.476 . S
C526 N521 1.318 . S
C526 C525 1.396 . S
H527 C522 0.929 . S
O528 Mn504 2.385 . S
O528 C506 1.234 . S
O529 Mn504 2.209 . S
O529 Mn505 2.215 . S
O529 C506 1.283 . S
O530 Mn504 2.094 . S
O530 C508 1.240 . S
O531 Mn505 2.117 . S
O531 C508 1.264 . S
C532 C525 1.403 . S
C532 C533 1.399 . S
C532 H538 0.929 . S
C533 C513 1.449 . S
C533 C532 1.399 . S
C533 H539 0.930 1_455 S
H534 C514 0.931 1_655 S
H535 C515 0.930 . S
H536 C523 0.931 . S
H537 C524 0.929 . S
H538 C532 0.929 . S
H539 C533 0.930 1_655 S
Mn540 O545 2.095 . S
Mn540 O555 2.162 . S
Mn540 O556 2.297 . S
Mn540 O564 2.385 . S
Mn540 O565 2.209 . S
Mn540 O566 2.094 . S
Mn541 O546 2.121 . S
Mn541 N548 2.257 . S
Mn541 N557 2.282 . S
Mn541 O565 2.215 . S
Mn541 O567 2.117 . S
C542 O564 1.234 . S
C542 O565 1.283 . S
C543 O555 1.281 . S
C543 O556 1.236 . S
C544 O566 1.240 . S
C544 O567 1.264 . S
O545 Mn540 2.095 . S
O545 C554 1.250 . S
O546 Mn541 2.121 . S
O546 C554 1.258 . S
C547 N548 1.326 . S
C547 C551 1.460 . S
C547 H553 0.929 . S
N548 Mn541 2.257 . S
N548 C547 1.326 . S
N548 C552 1.362 . S
C549 C550 1.258 . S
C549 C552 1.431 . S
C549 C569 1.449 . S
C550 C549 1.258 . S
C550 C551 1.477 . S
C550 H570 0.931 1_545 S
C551 C547 1.460 . S
C551 C550 1.477 . S
C551 H571 0.930 . S
C552 N548 1.362 . S
C552 C549 1.431 . S
C552 C562 1.476 . S
H553 C547 0.929 . S
C554 O545 1.250 . S
C554 O546 1.258 . S
O555 Mn540 2.162 . S
O555 C543 1.281 . S
O556 Mn540 2.297 . S
O556 C543 1.236 . S
N557 Mn541 2.282 . S
N557 C558 1.328 . S
N557 C562 1.318 . S
C558 N557 1.328 . S
C558 C559 1.457 . S
C558 H563 0.929 . S
C559 C558 1.457 . S
C559 C560 1.291 . S
C559 H572 0.931 . S
C560 C559 1.291 . S
C560 C561 1.373 . S
C560 H573 0.929 . S
C561 C560 1.373 . S
C561 C562 1.396 . S
C561 C568 1.403 . S
C562 C552 1.476 . S
C562 N557 1.318 . S
C562 C561 1.396 . S
H563 C558 0.929 . S
O564 Mn540 2.385 . S
O564 C542 1.234 . S
O565 Mn540 2.209 . S
O565 Mn541 2.215 . S
O565 C542 1.283 . S
O566 Mn540 2.094 . S
O566 C544 1.240 . S
O567 Mn541 2.117 . S
O567 C544 1.264 . S
C568 C561 1.403 . S
C568 C569 1.399 . S
C568 H574 0.929 . S
C569 C549 1.449 . S
C569 C568 1.399 . S
C569 H575 0.930 1_545 S
H570 C550 0.931 1_565 S
H571 C551 0.930 . S
H572 C559 0.931 . S
H573 C560 0.929 . S
H574 C568 0.929 . S
H575 C569 0.930 1_565 S
C576 C577 1.391 . S
C576 C578 1.394 . S
C576 H592 0.931 . S
C577 C576 1.391 . S
C577 C581 1.376 . S
C578 C576 1.394 . S
C578 C579 1.369 . S
C578 C582 1.531 . S
C579 C578 1.369 . S
C579 C580 1.410 . S
C579 C587 1.503 . S
C580 C579 1.410 . S
C580 C581 1.392 . S
C580 C583 1.511 . S
C581 C577 1.376 . S
C581 C580 1.392 . S
C581 H593 0.929 . S
C582 C578 1.531 . S
C582 H594 0.960 . S
C582 H595 0.962 . S
C582 H596 0.960 . S
C583 C580 1.511 . S
C583 H597 0.961 . S
C583 H598 0.961 . S
C583 H599 0.961 . S
C584 C585 1.370 . S
C584 C586 1.363 . S
C584 H600 0.931 . S
C585 C584 1.370 . S
C585 C589 1.408 . S
C586 C584 1.363 . S
C586 C587 1.370 . S
C586 C590 1.524 . S
C587 C579 1.503 . S
C587 C586 1.370 . S
C587 C588 1.403 . S
C588 C587 1.403 . S
C588 C589 1.404 . S
C588 C591 1.539 . S
C589 C585 1.408 . S
C589 C588 1.404 . S
C589 H601 0.930 . S
C590 C586 1.524 . S
C590 H602 0.956 . S
C590 H603 0.961 . S
C590 H604 0.961 . S
C591 C588 1.539 . S
C591 H605 0.958 . S
C591 H606 0.961 . S
C591 H607 0.960 . S
H592 C576 0.931 . S
H593 C581 0.929 . S
H594 C582 0.960 . S
H595 C582 0.962 . S
H596 C582 0.960 . S
H597 C583 0.961 . S
H598 C583 0.961 . S
H599 C583 0.961 . S
H600 C584 0.931 . S
H601 C589 0.930 . S
H602 C590 0.956 . S
H603 C590 0.961 . S
H604 C590 0.961 . S
H605 C591 0.958 . S
H606 C591 0.961 . S
H607 C591 0.960 . S
C608 C609 1.391 . S
C608 C610 1.394 . S
C608 H624 0.931 . S
C609 C608 1.391 . S
C609 C613 1.376 . S
C610 C608 1.394 . S
C610 C611 1.369 . S
C610 C614 1.531 . S
C611 C610 1.369 . S
C611 C612 1.410 . S
C611 C619 1.503 . S
C612 C611 1.410 . S
C612 C613 1.392 . S
C612 C615 1.511 . S
C613 C609 1.376 . S
C613 C612 1.392 . S
C613 H625 0.929 . S
C614 C610 1.531 . S
C614 H626 0.960 . S
C614 H627 0.962 . S
C614 H628 0.960 . S
C615 C612 1.511 . S
C615 H629 0.961 . S
C615 H630 0.961 . S
C615 H631 0.961 . S
C616 C617 1.370 . S
C616 C618 1.363 . S
C616 H632 0.931 . S
C617 C616 1.370 . S
C617 C621 1.408 . S
C618 C616 1.363 . S
C618 C619 1.370 . S
C618 C622 1.524 . S
C619 C611 1.503 . S
C619 C618 1.370 . S
C619 C620 1.403 . S
C620 C619 1.403 . S
C620 C621 1.404 . S
C620 C623 1.539 . S
C621 C617 1.408 . S
C621 C620 1.404 . S
C621 H633 0.930 . S
C622 C618 1.524 . S
C622 H634 0.956 . S
C622 H635 0.961 . S
C622 H636 0.961 . S
C623 C620 1.539 . S
C623 H637 0.958 . S
C623 H638 0.961 . S
C623 H639 0.960 . S
H624 C608 0.931 . S
H625 C613 0.929 . S
H626 C614 0.960 . S
H627 C614 0.962 . S
H628 C614 0.960 . S
H629 C615 0.961 . S
H630 C615 0.961 . S
H631 C615 0.961 . S
H632 C616 0.931 . S
H633 C621 0.930 . S
H634 C622 0.956 . S
H635 C622 0.961 . S
H636 C622 0.961 . S
H637 C623 0.958 . S
H638 C623 0.961 . S
H639 C623 0.960 . S
C640 C641 1.391 . S
C640 C642 1.394 . S
C640 H656 0.931 . S
C641 C640 1.391 . S
C641 C645 1.376 . S
C642 C640 1.394 . S
C642 C643 1.369 . S
C642 C646 1.531 . S
C643 C642 1.369 . S
C643 C644 1.410 . S
C643 C651 1.503 . S
C644 C643 1.410 . S
C644 C645 1.392 . S
C644 C647 1.511 . S
C645 C641 1.376 . S
C645 C644 1.392 . S
C645 H657 0.929 . S
C646 C642 1.531 . S
C646 H658 0.960 . S
C646 H659 0.962 . S
C646 H660 0.960 . S
C647 C644 1.511 . S
C647 H661 0.961 . S
C647 H662 0.961 . S
C647 H663 0.961 . S
C648 C649 1.370 . S
C648 C650 1.363 . S
C648 H664 0.931 . S
C649 C648 1.370 . S
C649 C653 1.408 . S
C650 C648 1.363 . S
C650 C651 1.370 . S
C650 C654 1.524 . S
C651 C643 1.503 . S
C651 C650 1.370 . S
C651 C652 1.403 . S
C652 C651 1.403 . S
C652 C653 1.404 . S
C652 C655 1.539 . S
C653 C649 1.408 . S
C653 C652 1.404 . S
C653 H665 0.930 . S
C654 C650 1.524 . S
C654 H666 0.956 . S
C654 H667 0.961 . S
C654 H668 0.961 . S
C655 C652 1.539 . S
C655 H669 0.958 . S
C655 H670 0.961 . S
C655 H671 0.960 . S
H656 C640 0.931 . S
H657 C645 0.929 . S
H658 C646 0.960 . S
H659 C646 0.962 . S
H660 C646 0.960 . S
H661 C647 0.961 . S
H662 C647 0.961 . S
H663 C647 0.961 . S
H664 C648 0.931 . S
H665 C653 0.930 . S
H666 C654 0.956 . S
H667 C654 0.961 . S
H668 C654 0.961 . S
H669 C655 0.958 . S
H670 C655 0.961 . S
H671 C655 0.960 . S
C672 C673 1.391 . S
C672 C674 1.394 . S
C672 H688 0.931 . S
C673 C672 1.391 . S
C673 C677 1.376 . S
C674 C672 1.394 . S
C674 C675 1.369 . S
C674 C678 1.531 . S
C675 C674 1.369 . S
C675 C676 1.410 . S
C675 C683 1.503 . S
C676 C675 1.410 . S
C676 C677 1.392 . S
C676 C679 1.511 . S
C677 C673 1.376 . S
C677 C676 1.392 . S
C677 H689 0.929 . S
C678 C674 1.531 . S
C678 H690 0.960 . S
C678 H691 0.962 . S
C678 H692 0.960 . S
C679 C676 1.511 . S
C679 H693 0.961 . S
C679 H694 0.961 . S
C679 H695 0.961 . S
C680 C681 1.370 . S
C680 C682 1.363 . S
C680 H696 0.931 . S
C681 C680 1.370 . S
C681 C685 1.408 . S
C682 C680 1.363 . S
C682 C683 1.370 . S
C682 C686 1.524 . S
C683 C675 1.503 . S
C683 C682 1.370 . S
C683 C684 1.403 . S
C684 C683 1.403 . S
C684 C685 1.404 . S
C684 C687 1.539 . S
C685 C681 1.408 . S
C685 C684 1.404 . S
C685 H697 0.930 . S
C686 C682 1.524 . S
C686 H698 0.956 . S
C686 H699 0.961 . S
C686 H700 0.961 . S
C687 C684 1.539 . S
C687 H701 0.958 . S
C687 H702 0.961 . S
C687 H703 0.960 . S
H688 C672 0.931 . S
H689 C677 0.929 . S
H690 C678 0.960 . S
H691 C678 0.962 . S
H692 C678 0.960 . S
H693 C679 0.961 . S
H694 C679 0.961 . S
H695 C679 0.961 . S
H696 C680 0.931 . S
H697 C685 0.930 . S
H698 C686 0.956 . S
H699 C686 0.961 . S
H700 C686 0.961 . S
H701 C687 0.958 . S
H702 C687 0.961 . S
H703 C687 0.960 . S
C704 C705 1.391 . S
C704 C706 1.394 . S
C704 H720 0.931 . S
C705 C704 1.391 . S
C705 C709 1.376 . S
C706 C704 1.394 . S
C706 C707 1.369 . S
C706 C710 1.531 . S
C707 C706 1.369 . S
C707 C708 1.410 . S
C707 C715 1.503 . S
C708 C707 1.410 . S
C708 C709 1.392 . S
C708 C711 1.511 . S
C709 C705 1.376 . S
C709 C708 1.392 . S
C709 H721 0.929 . S
C710 C706 1.531 . S
C710 H722 0.960 . S
C710 H723 0.962 . S
C710 H724 0.960 . S
C711 C708 1.511 . S
C711 H725 0.961 . S
C711 H726 0.961 . S
C711 H727 0.961 . S
C712 C713 1.370 . S
C712 C714 1.363 . S
C712 H728 0.931 . S
C713 C712 1.370 . S
C713 C717 1.408 . S
C714 C712 1.363 . S
C714 C715 1.370 . S
C714 C718 1.524 . S
C715 C707 1.503 . S
C715 C714 1.370 . S
C715 C716 1.403 . S
C716 C715 1.403 . S
C716 C717 1.404 . S
C716 C719 1.539 . S
C717 C713 1.408 . S
C717 C716 1.404 . S
C717 H729 0.930 . S
C718 C714 1.524 . S
C718 H730 0.956 . S
C718 H731 0.961 . S
C718 H732 0.961 . S
C719 C716 1.539 . S
C719 H733 0.958 . S
C719 H734 0.961 . S
C719 H735 0.960 . S
H720 C704 0.931 . S
H721 C709 0.929 . S
H722 C710 0.960 . S
H723 C710 0.962 . S
H724 C710 0.960 . S
H725 C711 0.961 . S
H726 C711 0.961 . S
H727 C711 0.961 . S
H728 C712 0.931 . S
H729 C717 0.930 . S
H730 C718 0.956 . S
H731 C718 0.961 . S
H732 C718 0.961 . S
H733 C719 0.958 . S
H734 C719 0.961 . S
H735 C719 0.960 . S
C736 C737 1.391 . S
C736 C738 1.394 . S
C736 H752 0.931 . S
C737 C736 1.391 . S
C737 C741 1.376 . S
C738 C736 1.394 . S
C738 C739 1.369 . S
C738 C742 1.531 . S
C739 C738 1.369 . S
C739 C740 1.410 . S
C739 C747 1.503 . S
C740 C739 1.410 . S
C740 C741 1.392 . S
C740 C743 1.511 . S
C741 C737 1.376 . S
C741 C740 1.392 . S
C741 H753 0.929 . S
C742 C738 1.531 . S
C742 H754 0.960 . S
C742 H755 0.962 . S
C742 H756 0.960 . S
C743 C740 1.511 . S
C743 H757 0.961 . S
C743 H758 0.961 . S
C743 H759 0.961 . S
C744 C745 1.370 . S
C744 C746 1.363 . S
C744 H760 0.931 . S
C745 C744 1.370 . S
C745 C749 1.408 . S
C746 C744 1.363 . S
C746 C747 1.370 . S
C746 C750 1.524 . S
C747 C739 1.503 . S
C747 C746 1.370 . S
C747 C748 1.403 . S
C748 C747 1.403 . S
C748 C749 1.404 . S
C748 C751 1.539 . S
C749 C745 1.408 . S
C749 C748 1.404 . S
C749 H761 0.930 . S
C750 C746 1.524 . S
C750 H762 0.956 . S
C750 H763 0.961 . S
C750 H764 0.961 . S
C751 C748 1.539 . S
C751 H765 0.958 . S
C751 H766 0.961 . S
C751 H767 0.960 . S
H752 C736 0.931 . S
H753 C741 0.929 . S
H754 C742 0.960 . S
H755 C742 0.962 . S
H756 C742 0.960 . S
H757 C743 0.961 . S
H758 C743 0.961 . S
H759 C743 0.961 . S
H760 C744 0.931 . S
H761 C749 0.930 . S
H762 C750 0.956 . S
H763 C750 0.961 . S
H764 C750 0.961 . S
H765 C751 0.958 . S
H766 C751 0.961 . S
H767 C751 0.960 . S
C768 C769 1.391 . S
C768 C770 1.394 . S
C768 H784 0.931 . S
C769 C768 1.391 . S
C769 C773 1.376 . S
C770 C768 1.394 . S
C770 C771 1.369 . S
C770 C774 1.531 . S
C771 C770 1.369 . S
C771 C772 1.410 . S
C771 C779 1.503 . S
C772 C771 1.410 . S
C772 C773 1.392 . S
C772 C775 1.511 . S
C773 C769 1.376 . S
C773 C772 1.392 . S
C773 H785 0.929 . S
C774 C770 1.531 . S
C774 H786 0.960 . S
C774 H787 0.962 . S
C774 H788 0.960 . S
C775 C772 1.511 . S
C775 H789 0.961 . S
C775 H790 0.961 . S
C775 H791 0.961 . S
C776 C777 1.370 . S
C776 C778 1.363 . S
C776 H792 0.931 . S
C777 C776 1.370 . S
C777 C781 1.408 . S
C778 C776 1.363 . S
C778 C779 1.370 . S
C778 C782 1.524 . S
C779 C771 1.503 . S
C779 C778 1.370 . S
C779 C780 1.403 . S
C780 C779 1.403 . S
C780 C781 1.404 . S
C780 C783 1.539 . S
C781 C777 1.408 . S
C781 C780 1.404 . S
C781 H793 0.930 . S
C782 C778 1.524 . S
C782 H794 0.956 . S
C782 H795 0.961 . S
C782 H796 0.961 . S
C783 C780 1.539 . S
C783 H797 0.958 . S
C783 H798 0.961 . S
C783 H799 0.960 . S
H784 C768 0.931 . S
H785 C773 0.929 . S
H786 C774 0.960 . S
H787 C774 0.962 . S
H788 C774 0.960 . S
H789 C775 0.961 . S
H790 C775 0.961 . S
H791 C775 0.961 . S
H792 C776 0.931 . S
H793 C781 0.930 . S
H794 C782 0.956 . S
H795 C782 0.961 . S
H796 C782 0.961 . S
H797 C783 0.958 . S
H798 C783 0.961 . S
H799 C783 0.960 . S
C800 C801 1.391 . S
C800 C802 1.394 . S
C800 H816 0.931 . S
C801 C800 1.391 . S
C801 C805 1.376 . S
C802 C800 1.394 . S
C802 C803 1.369 . S
C802 C806 1.531 . S
C803 C802 1.369 . S
C803 C804 1.410 . S
C803 C811 1.503 . S
C804 C803 1.410 . S
C804 C805 1.392 . S
C804 C807 1.511 . S
C805 C801 1.376 . S
C805 C804 1.392 . S
C805 H817 0.929 . S
C806 C802 1.531 . S
C806 H818 0.960 . S
C806 H819 0.962 . S
C806 H820 0.960 . S
C807 C804 1.511 . S
C807 H821 0.961 . S
C807 H822 0.961 . S
C807 H823 0.961 . S
C808 C809 1.370 . S
C808 C810 1.363 . S
C808 H824 0.931 . S
C809 C808 1.370 . S
C809 C813 1.408 . S
C810 C808 1.363 . S
C810 C811 1.370 . S
C810 C814 1.524 . S
C811 C803 1.503 . S
C811 C810 1.370 . S
C811 C812 1.403 . S
C812 C811 1.403 . S
C812 C813 1.404 . S
C812 C815 1.539 . S
C813 C809 1.408 . S
C813 C812 1.404 . S
C813 H825 0.930 . S
C814 C810 1.524 . S
C814 H826 0.956 . S
C814 H827 0.961 . S
C814 H828 0.961 . S
C815 C812 1.539 . S
C815 H829 0.958 . S
C815 H830 0.961 . S
C815 H831 0.960 . S
H816 C800 0.931 . S
H817 C805 0.929 . S
H818 C806 0.960 . S
H819 C806 0.962 . S
H820 C806 0.960 . S
H821 C807 0.961 . S
H822 C807 0.961 . S
H823 C807 0.961 . S
H824 C808 0.931 . S
H825 C813 0.930 . S
H826 C814 0.956 . S
H827 C814 0.961 . S
H828 C814 0.961 . S
H829 C815 0.958 . S
H830 C815 0.961 . S
H831 C815 0.960 . S
C832 C833 1.391 . S
C832 C834 1.394 . S
C832 H848 0.931 . S
C833 C832 1.391 . S
C833 C837 1.376 . S
C834 C832 1.394 . S
C834 C835 1.369 . S
C834 C838 1.531 . S
C835 C834 1.369 . S
C835 C836 1.410 . S
C835 C843 1.503 1_556 S
C836 C835 1.410 . S
C836 C837 1.392 . S
C836 C839 1.511 . S
C837 C833 1.376 . S
C837 C836 1.392 . S
C837 H849 0.929 . S
C838 C834 1.531 . S
C838 H850 0.960 1_556 S
C838 H851 0.962 . S
C838 H852 0.960 . S
C839 C836 1.511 . S
C839 H853 0.961 . S
C839 H854 0.961 . S
C839 H855 0.961 . S
C840 C841 1.370 . S
C840 C842 1.363 . S
C840 H856 0.931 . S
C841 C840 1.370 . S
C841 C845 1.408 . S
C842 C840 1.363 . S
C842 C843 1.370 . S
C842 C846 1.524 . S
C843 C835 1.503 1_554 S
C843 C842 1.370 . S
C843 C844 1.403 . S
C844 C843 1.403 . S
C844 C845 1.404 . S
C844 C847 1.539 . S
C845 C841 1.408 . S
C845 C844 1.404 . S
C845 H857 0.930 . S
C846 C842 1.524 . S
C846 H858 0.956 . S
C846 H859 0.961 1_554 S
C846 H860 0.961 . S
C847 C844 1.539 . S
C847 H861 0.958 . S
C847 H862 0.961 . S
C847 H863 0.960 1_554 S
H848 C832 0.931 . S
H849 C837 0.929 . S
H850 C838 0.960 1_554 S
H851 C838 0.962 . S
H852 C838 0.960 . S
H853 C839 0.961 . S
H854 C839 0.961 . S
H855 C839 0.961 . S
H856 C840 0.931 . S
H857 C845 0.930 . S
H858 C846 0.956 . S
H859 C846 0.961 1_556 S
H860 C846 0.961 . S
H861 C847 0.958 . S
H862 C847 0.961 . S
H863 C847 0.960 1_556 S
C864 C865 1.391 . S
C864 C866 1.394 . S
C864 H880 0.931 . S
C865 C864 1.391 . S
C865 C869 1.376 . S
C866 C864 1.394 . S
C866 C867 1.369 . S
C866 C870 1.531 . S
C867 C866 1.369 . S
C867 C868 1.410 . S
C867 C875 1.503 1_556 S
C868 C867 1.410 . S
C868 C869 1.392 . S
C868 C871 1.511 . S
C869 C865 1.376 . S
C869 C868 1.392 . S
C869 H881 0.929 . S
C870 C866 1.531 . S
C870 H882 0.960 1_556 S
C870 H883 0.962 . S
C870 H884 0.960 . S
C871 C868 1.511 . S
C871 H885 0.961 . S
C871 H886 0.936 1_556 S
C871 H887 0.961 . S
C872 C873 1.370 . S
C872 C874 1.363 . S
C872 H888 0.931 . S
C873 C872 1.370 . S
C873 C877 1.408 . S
C874 C872 1.363 . S
C874 C875 1.370 . S
C874 C878 1.524 . S
C875 C867 1.503 1_554 S
C875 C874 1.370 . S
C875 C876 1.403 . S
C876 C875 1.403 . S
C876 C877 1.404 . S
C876 C879 1.539 . S
C877 C873 1.408 . S
C877 C876 1.404 . S
C877 H889 0.930 . S
C878 C874 1.524 . S
C878 H890 0.956 . S
C878 H891 0.961 . S
C878 H892 0.961 . S
C879 C876 1.539 . S
C879 H893 0.958 . S
C879 H894 0.961 . S
C879 H895 0.960 1_554 S
H880 C864 0.931 . S
H881 C869 0.929 . S
H882 C870 0.960 1_554 S
H883 C870 0.962 . S
H884 C870 0.960 . S
H885 C871 0.961 . S
H886 C871 0.936 1_554 S
H887 C871 0.961 . S
H888 C872 0.931 . S
H889 C877 0.930 . S
H890 C878 0.956 . S
H891 C878 0.961 . S
H892 C878 0.961 . S
H893 C879 0.958 . S
H894 C879 0.961 . S
H895 C879 0.960 1_556 S
C896 C897 1.391 . S
C896 C898 1.394 . S
C896 H912 0.931 . S
C897 C896 1.391 . S
C897 C901 1.376 . S
C898 C896 1.394 . S
C898 C899 1.369 . S
C898 C902 1.531 . S
C899 C898 1.369 . S
C899 C900 1.410 . S
C899 C907 1.503 1_556 S
C900 C899 1.410 . S
C900 C901 1.392 . S
C900 C903 1.511 . S
C901 C897 1.376 . S
C901 C900 1.392 . S
C901 H913 0.929 . S
C902 C898 1.531 . S
C902 H914 0.960 1_556 S
C902 H915 0.962 . S
C902 H916 0.960 . S
C903 C900 1.511 . S
C903 H917 0.961 . S
C903 H918 0.961 . S
C903 H919 0.961 . S
C904 C905 1.370 . S
C904 C906 1.363 . S
C904 H920 0.931 . S
C905 C904 1.370 . S
C905 C909 1.408 . S
C906 C904 1.363 . S
C906 C907 1.370 . S
C906 C910 1.524 . S
C907 C899 1.503 1_554 S
C907 C906 1.370 . S
C907 C908 1.403 . S
C908 C907 1.403 . S
C908 C909 1.404 . S
C908 C911 1.539 . S
C909 C905 1.408 . S
C909 C908 1.404 . S
C909 H921 0.930 . S
C910 C906 1.524 . S
C910 H922 0.956 . S
C910 H923 0.961 1_554 S
C910 H924 0.961 . S
C911 C908 1.539 . S
C911 H925 0.958 . S
C911 H926 0.961 . S
C911 H927 0.960 1_554 S
H912 C896 0.931 . S
H913 C901 0.929 . S
H914 C902 0.960 1_554 S
H915 C902 0.962 . S
H916 C902 0.960 . S
H917 C903 0.961 . S
H918 C903 0.961 . S
H919 C903 0.961 . S
H920 C904 0.931 . S
H921 C909 0.930 . S
H922 C910 0.956 . S
H923 C910 0.961 1_556 S
H924 C910 0.961 . S
H925 C911 0.958 . S
H926 C911 0.961 . S
H927 C911 0.960 1_556 S
C928 C929 1.391 . S
C928 C930 1.394 . S
C928 H944 0.931 . S
C929 C928 1.391 . S
C929 C933 1.376 . S
C930 C928 1.394 . S
C930 C931 1.369 . S
C930 C934 1.531 . S
C931 C930 1.369 . S
C931 C932 1.410 . S
C931 C939 1.503 1_554 S
C932 C931 1.410 . S
C932 C933 1.392 . S
C932 C935 1.511 . S
C933 C929 1.376 . S
C933 C932 1.392 . S
C933 H945 0.929 . S
C934 C930 1.531 . S
C934 H946 0.960 . S
C934 H947 0.962 . S
C934 H948 0.960 . S
C935 C932 1.511 . S
C935 H949 0.961 . S
C935 H950 0.961 1_554 S
C935 H951 0.961 . S
C936 C937 1.370 . S
C936 C938 1.363 . S
C936 H952 0.931 . S
C937 C936 1.370 . S
C937 C941 1.408 . S
C938 C936 1.363 . S
C938 C939 1.370 . S
C938 C942 1.524 . S
C939 C931 1.503 1_556 S
C939 C938 1.370 . S
C939 C940 1.403 . S
C940 C939 1.403 . S
C940 C941 1.404 . S
C940 C943 1.539 . S
C941 C937 1.408 . S
C941 C940 1.404 . S
C941 H953 0.930 . S
C942 C938 1.524 . S
C942 H954 0.956 . S
C942 H955 0.961 . S
C942 H956 0.961 . S
C943 C940 1.539 . S
C943 H957 0.958 . S
C943 H958 0.961 . S
C943 H959 0.949 1_556 S
H944 C928 0.931 . S
H945 C933 0.929 . S
H946 C934 0.960 . S
H947 C934 0.962 . S
H948 C934 0.960 . S
H949 C935 0.961 . S
H950 C935 0.961 1_556 S
H951 C935 0.961 . S
H952 C936 0.931 . S
H953 C941 0.930 . S
H954 C942 0.956 . S
H955 C942 0.961 . S
H956 C942 0.961 . S
H957 C943 0.958 . S
H958 C943 0.961 . S
H959 C943 0.949 1_554 S
C960 C961 1.391 . S
C960 C962 1.394 . S
C960 H976 0.931 . S
C961 C960 1.391 . S
C961 C965 1.376 . S
C962 C960 1.394 . S
C962 C963 1.369 . S
C962 C966 1.531 . S
C963 C962 1.369 . S
C963 C964 1.410 . S
C963 C971 1.503 . S
C964 C963 1.410 . S
C964 C965 1.392 . S
C964 C967 1.511 . S
C965 C961 1.376 . S
C965 C964 1.392 . S
C965 H977 0.929 . S
C966 C962 1.531 . S
C966 H978 0.960 . S
C966 H979 0.962 . S
C966 H980 0.960 . S
C967 C964 1.511 . S
C967 H981 0.961 . S
C967 H982 0.961 . S
C967 H983 0.961 . S
C968 C969 1.370 . S
C968 C970 1.363 . S
C968 H984 0.931 . S
C969 C968 1.370 . S
C969 C973 1.408 . S
C970 C968 1.363 . S
C970 C971 1.370 . S
C970 C974 1.524 . S
C971 C963 1.503 . S
C971 C970 1.370 . S
C971 C972 1.403 . S
C972 C971 1.403 . S
C972 C973 1.404 . S
C972 C975 1.539 . S
C973 C969 1.408 . S
C973 C972 1.404 . S
C973 H985 0.930 . S
C974 C970 1.524 . S
C974 H986 0.956 . S
C974 H987 0.961 . S
C974 H988 0.961 . S
C975 C972 1.539 . S
C975 H989 0.958 . S
C975 H990 0.961 . S
C975 H991 0.960 . S
H976 C960 0.931 . S
H977 C965 0.929 . S
H978 C966 0.960 . S
H979 C966 0.962 . S
H980 C966 0.960 . S
H981 C967 0.961 . S
H982 C967 0.961 . S
H983 C967 0.961 . S
H984 C968 0.931 . S
H985 C973 0.930 . S
H986 C974 0.956 . S
H987 C974 0.961 . S
H988 C974 0.961 . S
H989 C975 0.958 . S
H990 C975 0.961 . S
H991 C975 0.960 . S
C992 C993 1.391 . S
C992 C994 1.394 . S
C992 H1008 0.931 . S
C993 C992 1.391 . S
C993 C997 1.376 . S
C994 C992 1.394 . S
C994 C995 1.369 . S
C994 C998 1.531 . S
C995 C994 1.369 . S
C995 C996 1.410 . S
C995 C1003 1.503 . S
C996 C995 1.410 . S
C996 C997 1.392 . S
C996 C999 1.511 . S
C997 C993 1.376 . S
C997 C996 1.392 . S
C997 H1009 0.929 . S
C998 C994 1.531 . S
C998 H1010 0.960 . S
C998 H1011 0.962 . S
C998 H1012 0.960 . S
C999 C996 1.511 . S
C999 H1013 0.961 . S
C999 H1014 0.961 . S
C999 H1015 0.961 . S
C1000 C1001 1.370 . S
C1000 C1002 1.363 . S
C1000 H1016 0.931 . S
C1001 C1000 1.370 . S
C1001 C1005 1.408 . S
C1002 C1000 1.363 . S
C1002 C1003 1.370 . S
C1002 C1006 1.524 . S
C1003 C995 1.503 . S
C1003 C1002 1.370 . S
C1003 C1004 1.403 . S
C1004 C1003 1.403 . S
C1004 C1005 1.404 . S
C1004 C1007 1.539 . S
C1005 C1001 1.408 . S
C1005 C1004 1.404 . S
C1005 H1017 0.930 . S
C1006 C1002 1.524 . S
C1006 H1018 0.956 . S
C1006 H1019 0.961 . S
C1006 H1020 0.961 . S
C1007 C1004 1.539 . S
C1007 H1021 0.958 . S
C1007 H1022 0.961 . S
C1007 H1023 0.960 . S
H1008 C992 0.931 . S
H1009 C997 0.929 . S
H1010 C998 0.960 . S
H1011 C998 0.962 . S
H1012 C998 0.960 . S
H1013 C999 0.961 . S
H1014 C999 0.961 . S
H1015 C999 0.961 . S
H1016 C1000 0.931 . S
H1017 C1005 0.930 . S
H1018 C1006 0.956 . S
H1019 C1006 0.961 . S
H1020 C1006 0.961 . S
H1021 C1007 0.958 . S
H1022 C1007 0.961 . S
H1023 C1007 0.960 . S
C1024 C1025 1.391 . S
C1024 C1026 1.394 . S
C1024 H1040 0.931 . S
C1025 C1024 1.391 . S
C1025 C1029 1.376 . S
C1026 C1024 1.394 . S
C1026 C1027 1.369 . S
C1026 C1030 1.531 . S
C1027 C1026 1.369 . S
C1027 C1028 1.410 . S
C1027 C1035 1.503 . S
C1028 C1027 1.410 . S
C1028 C1029 1.392 . S
C1028 C1031 1.511 . S
C1029 C1025 1.376 . S
C1029 C1028 1.392 . S
C1029 H1041 0.929 . S
C1030 C1026 1.531 . S
C1030 H1042 0.960 . S
C1030 H1043 0.962 . S
C1030 H1044 0.960 . S
C1031 C1028 1.511 . S
C1031 H1045 0.961 . S
C1031 H1046 0.961 . S
C1031 H1047 0.961 . S
C1032 C1033 1.370 . S
C1032 C1034 1.363 . S
C1032 H1048 0.931 . S
C1033 C1032 1.370 . S
C1033 C1037 1.408 . S
C1034 C1032 1.363 . S
C1034 C1035 1.370 . S
C1034 C1038 1.524 . S
C1035 C1027 1.503 . S
C1035 C1034 1.370 . S
C1035 C1036 1.403 . S
C1036 C1035 1.403 . S
C1036 C1037 1.404 . S
C1036 C1039 1.539 . S
C1037 C1033 1.408 . S
C1037 C1036 1.404 . S
C1037 H1049 0.930 . S
C1038 C1034 1.524 . S
C1038 H1050 0.956 . S
C1038 H1051 0.961 . S
C1038 H1052 0.961 . S
C1039 C1036 1.539 . S
C1039 H1053 0.958 . S
C1039 H1054 0.961 . S
C1039 H1055 0.960 . S
H1040 C1024 0.931 . S
H1041 C1029 0.929 . S
H1042 C1030 0.960 . S
H1043 C1030 0.962 . S
H1044 C1030 0.960 . S
H1045 C1031 0.961 . S
H1046 C1031 0.961 . S
H1047 C1031 0.961 . S
H1048 C1032 0.931 . S
H1049 C1037 0.930 . S
H1050 C1038 0.956 . S
H1051 C1038 0.961 . S
H1052 C1038 0.961 . S
H1053 C1039 0.958 . S
H1054 C1039 0.961 . S
H1055 C1039 0.960 . S
C1056 C1057 1.391 . S
C1056 C1058 1.394 . S
C1056 H1072 0.931 . S
C1057 C1056 1.391 . S
C1057 C1061 1.376 . S
C1058 C1056 1.394 . S
C1058 C1059 1.369 . S
C1058 C1062 1.531 . S
C1059 C1058 1.369 . S
C1059 C1060 1.410 . S
C1059 C1067 1.503 . S
C1060 C1059 1.410 . S
C1060 C1061 1.392 . S
C1060 C1063 1.511 . S
C1061 C1057 1.376 . S
C1061 C1060 1.392 . S
C1061 H1073 0.929 . S
C1062 C1058 1.531 . S
C1062 H1074 0.960 . S
C1062 H1075 0.962 . S
C1062 H1076 0.960 . S
C1063 C1060 1.511 . S
C1063 H1077 0.961 . S
C1063 H1078 0.961 . S
C1063 H1079 0.961 . S
C1064 C1065 1.370 . S
C1064 C1066 1.363 . S
C1064 H1080 0.931 . S
C1065 C1064 1.370 . S
C1065 C1069 1.408 . S
C1066 C1064 1.363 . S
C1066 C1067 1.370 . S
C1066 C1070 1.524 . S
C1067 C1059 1.503 . S
C1067 C1066 1.370 . S
C1067 C1068 1.403 . S
C1068 C1067 1.403 . S
C1068 C1069 1.404 . S
C1068 C1071 1.539 . S
C1069 C1065 1.408 . S
C1069 C1068 1.404 . S
C1069 H1081 0.930 . S
C1070 C1066 1.524 . S
C1070 H1082 0.956 . S
C1070 H1083 0.961 . S
C1070 H1084 0.961 . S
C1071 C1068 1.539 . S
C1071 H1085 0.958 . S
C1071 H1086 0.961 . S
C1071 H1087 0.960 . S
H1072 C1056 0.931 . S
H1073 C1061 0.929 . S
H1074 C1062 0.960 . S
H1075 C1062 0.962 . S
H1076 C1062 0.960 . S
H1077 C1063 0.961 . S
H1078 C1063 0.961 . S
H1079 C1063 0.961 . S
H1080 C1064 0.931 . S
H1081 C1069 0.930 . S
H1082 C1070 0.956 . S
H1083 C1070 0.961 . S
H1084 C1070 0.961 . S
H1085 C1071 0.958 . S
H1086 C1071 0.961 . S
H1087 C1071 0.960 . S
C1088 C1089 1.391 . S
C1088 C1090 1.394 . S
C1088 H1104 0.931 . S
C1089 C1088 1.391 . S
C1089 C1093 1.376 . S
C1090 C1088 1.394 . S
C1090 C1091 1.369 . S
C1090 C1094 1.531 . S
C1091 C1090 1.369 . S
C1091 C1092 1.410 . S
C1091 C1099 1.503 . S
C1092 C1091 1.410 . S
C1092 C1093 1.392 . S
C1092 C1095 1.511 . S
C1093 C1089 1.376 . S
C1093 C1092 1.392 . S
C1093 H1105 0.929 . S
C1094 C1090 1.531 . S
C1094 H1106 0.960 . S
C1094 H1107 0.962 . S
C1094 H1108 0.960 . S
C1095 C1092 1.511 . S
C1095 H1109 0.961 . S
C1095 H1110 0.961 . S
C1095 H1111 0.961 . S
C1096 C1097 1.370 . S
C1096 C1098 1.363 . S
C1096 H1112 0.931 . S
C1097 C1096 1.370 . S
C1097 C1101 1.408 . S
C1098 C1096 1.363 . S
C1098 C1099 1.370 . S
C1098 C1102 1.524 . S
C1099 C1091 1.503 . S
C1099 C1098 1.370 . S
C1099 C1100 1.403 . S
C1100 C1099 1.403 . S
C1100 C1101 1.404 . S
C1100 C1103 1.539 . S
C1101 C1097 1.408 . S
C1101 C1100 1.404 . S
C1101 H1113 0.930 . S
C1102 C1098 1.524 . S
C1102 H1114 0.956 . S
C1102 H1115 0.961 . S
C1102 H1116 0.961 . S
C1103 C1100 1.539 . S
C1103 H1117 0.958 . S
C1103 H1118 0.961 . S
C1103 H1119 0.960 . S
H1104 C1088 0.931 . S
H1105 C1093 0.929 . S
H1106 C1094 0.960 . S
H1107 C1094 0.962 . S
H1108 C1094 0.960 . S
H1109 C1095 0.961 . S
H1110 C1095 0.961 . S
H1111 C1095 0.961 . S
H1112 C1096 0.931 . S
H1113 C1101 0.930 . S
H1114 C1102 0.956 . S
H1115 C1102 0.961 . S
H1116 C1102 0.961 . S
H1117 C1103 0.958 . S
H1118 C1103 0.961 . S
H1119 C1103 0.960 . S
C1120 C1121 1.391 . S
C1120 C1122 1.394 . S
C1120 H1136 0.931 . S
C1121 C1120 1.391 . S
C1121 C1125 1.376 . S
C1122 C1120 1.394 . S
C1122 C1123 1.369 . S
C1122 C1126 1.531 . S
C1123 C1122 1.369 . S
C1123 C1124 1.410 . S
C1123 C1131 1.503 . S
C1124 C1123 1.410 . S
C1124 C1125 1.392 . S
C1124 C1127 1.511 . S
C1125 C1121 1.376 . S
C1125 C1124 1.392 . S
C1125 H1137 0.929 . S
C1126 C1122 1.531 . S
C1126 H1138 0.960 . S
C1126 H1139 0.962 . S
C1126 H1140 0.960 . S
C1127 C1124 1.511 . S
C1127 H1141 0.961 . S
C1127 H1142 0.961 . S
C1127 H1143 0.961 . S
C1128 C1129 1.370 . S
C1128 C1130 1.363 . S
C1128 H1144 0.931 . S
C1129 C1128 1.370 . S
C1129 C1133 1.408 . S
C1130 C1128 1.363 . S
C1130 C1131 1.370 . S
C1130 C1134 1.524 . S
C1131 C1123 1.503 . S
C1131 C1130 1.370 . S
C1131 C1132 1.403 . S
C1132 C1131 1.403 . S
C1132 C1133 1.404 . S
C1132 C1135 1.539 . S
C1133 C1129 1.408 . S
C1133 C1132 1.404 . S
C1133 H1145 0.930 . S
C1134 C1130 1.524 . S
C1134 H1146 0.956 . S
C1134 H1147 0.961 . S
C1134 H1148 0.961 . S
C1135 C1132 1.539 . S
C1135 H1149 0.958 . S
C1135 H1150 0.961 . S
C1135 H1151 0.960 . S
H1136 C1120 0.931 . S
H1137 C1125 0.929 . S
H1138 C1126 0.960 . S
H1139 C1126 0.962 . S
H1140 C1126 0.960 . S
H1141 C1127 0.961 . S
H1142 C1127 0.961 . S
H1143 C1127 0.961 . S
H1144 C1128 0.931 . S
H1145 C1133 0.930 . S
H1146 C1134 0.956 . S
H1147 C1134 0.961 . S
H1148 C1134 0.961 . S
H1149 C1135 0.958 . S
H1150 C1135 0.961 . S
H1151 C1135 0.960 . S
C1152 C1153 1.391 . S
C1152 C1154 1.394 . S
C1152 H1168 0.931 . S
C1153 C1152 1.391 . S
C1153 C1157 1.376 . S
C1154 C1152 1.394 . S
C1154 C1155 1.369 . S
C1154 C1158 1.531 . S
C1155 C1154 1.369 . S
C1155 C1156 1.410 . S
C1155 C1163 1.503 . S
C1156 C1155 1.410 . S
C1156 C1157 1.392 . S
C1156 C1159 1.511 . S
C1157 C1153 1.376 . S
C1157 C1156 1.392 . S
C1157 H1169 0.929 . S
C1158 C1154 1.531 . S
C1158 H1170 0.960 . S
C1158 H1171 0.962 . S
C1158 H1172 0.960 . S
C1159 C1156 1.511 . S
C1159 H1173 0.961 . S
C1159 H1174 0.961 . S
C1159 H1175 0.961 . S
C1160 C1161 1.370 . S
C1160 C1162 1.363 . S
C1160 H1176 0.931 . S
C1161 C1160 1.370 . S
C1161 C1165 1.408 . S
C1162 C1160 1.363 . S
C1162 C1163 1.370 . S
C1162 C1166 1.524 . S
C1163 C1155 1.503 . S
C1163 C1162 1.370 . S
C1163 C1164 1.403 . S
C1164 C1163 1.403 . S
C1164 C1165 1.404 . S
C1164 C1167 1.539 . S
C1165 C1161 1.408 . S
C1165 C1164 1.404 . S
C1165 H1177 0.930 . S
C1166 C1162 1.524 . S
C1166 H1178 0.956 . S
C1166 H1179 0.961 . S
C1166 H1180 0.961 . S
C1167 C1164 1.539 . S
C1167 H1181 0.958 . S
C1167 H1182 0.961 . S
C1167 H1183 0.960 . S
H1168 C1152 0.931 . S
H1169 C1157 0.929 . S
H1170 C1158 0.960 . S
H1171 C1158 0.962 . S
H1172 C1158 0.960 . S
H1173 C1159 0.961 . S
H1174 C1159 0.961 . S
H1175 C1159 0.961 . S
H1176 C1160 0.931 . S
H1177 C1165 0.930 . S
H1178 C1166 0.956 . S
H1179 C1166 0.961 . S
H1180 C1166 0.961 . S
H1181 C1167 0.958 . S
H1182 C1167 0.961 . S
H1183 C1167 0.960 . S
C1184 C1185 1.391 . S
C1184 C1186 1.394 . S
C1184 H1200 0.931 . S
C1185 C1184 1.391 . S
C1185 C1189 1.376 . S
C1186 C1184 1.394 . S
C1186 C1187 1.369 . S
C1186 C1190 1.531 . S
C1187 C1186 1.369 . S
C1187 C1188 1.410 . S
C1187 C1195 1.503 . S
C1188 C1187 1.410 . S
C1188 C1189 1.392 . S
C1188 C1191 1.511 . S
C1189 C1185 1.376 . S
C1189 C1188 1.392 . S
C1189 H1201 0.929 . S
C1190 C1186 1.531 . S
C1190 H1202 0.960 . S
C1190 H1203 0.962 . S
C1190 H1204 0.960 . S
C1191 C1188 1.511 . S
C1191 H1205 0.961 . S
C1191 H1206 0.961 . S
C1191 H1207 0.961 . S
C1192 C1193 1.370 . S
C1192 C1194 1.363 . S
C1192 H1208 0.931 . S
C1193 C1192 1.370 . S
C1193 C1197 1.408 . S
C1194 C1192 1.363 . S
C1194 C1195 1.370 . S
C1194 C1198 1.524 . S
C1195 C1187 1.503 . S
C1195 C1194 1.370 . S
C1195 C1196 1.403 . S
C1196 C1195 1.403 . S
C1196 C1197 1.404 . S
C1196 C1199 1.539 . S
C1197 C1193 1.408 . S
C1197 C1196 1.404 . S
C1197 H1209 0.930 . S
C1198 C1194 1.524 . S
C1198 H1210 0.956 . S
C1198 H1211 0.961 . S
C1198 H1212 0.961 . S
C1199 C1196 1.539 . S
C1199 H1213 0.958 . S
C1199 H1214 0.961 . S
C1199 H1215 0.960 . S
H1200 C1184 0.931 . S
H1201 C1189 0.929 . S
H1202 C1190 0.960 . S
H1203 C1190 0.962 . S
H1204 C1190 0.960 . S
H1205 C1191 0.961 . S
H1206 C1191 0.961 . S
H1207 C1191 0.961 . S
H1208 C1192 0.931 . S
H1209 C1197 0.930 . S
H1210 C1198 0.956 . S
H1211 C1198 0.961 . S
H1212 C1198 0.961 . S
H1213 C1199 0.958 . S
H1214 C1199 0.961 . S
H1215 C1199 0.960 . S
C1216 C1217 1.391 . S
C1216 C1218 1.394 . S
C1216 H1232 0.931 . S
C1217 C1216 1.391 . S
C1217 C1221 1.376 . S
C1218 C1216 1.394 . S
C1218 C1219 1.369 . S
C1218 C1222 1.531 . S
C1219 C1218 1.369 . S
C1219 C1220 1.410 . S
C1219 C1227 1.503 . S
C1220 C1219 1.410 . S
C1220 C1221 1.392 . S
C1220 C1223 1.511 . S
C1221 C1217 1.376 . S
C1221 C1220 1.392 . S
C1221 H1233 0.929 . S
C1222 C1218 1.531 . S
C1222 H1234 0.960 . S
C1222 H1235 0.962 . S
C1222 H1236 0.960 . S
C1223 C1220 1.511 . S
C1223 H1237 0.961 . S
C1223 H1238 0.961 . S
C1223 H1239 0.961 . S
C1224 C1225 1.370 . S
C1224 C1226 1.363 . S
C1224 H1240 0.931 . S
C1225 C1224 1.370 . S
C1225 C1229 1.408 . S
C1226 C1224 1.363 . S
C1226 C1227 1.370 . S
C1226 C1230 1.524 . S
C1227 C1219 1.503 . S
C1227 C1226 1.370 . S
C1227 C1228 1.403 . S
C1228 C1227 1.403 . S
C1228 C1229 1.404 . S
C1228 C1231 1.539 . S
C1229 C1225 1.408 . S
C1229 C1228 1.404 . S
C1229 H1241 0.930 . S
C1230 C1226 1.524 . S
C1230 H1242 0.956 . S
C1230 H1243 0.961 . S
C1230 H1244 0.961 . S
C1231 C1228 1.539 . S
C1231 H1245 0.958 . S
C1231 H1246 0.961 . S
C1231 H1247 0.960 . S
H1232 C1216 0.931 . S
H1233 C1221 0.929 . S
H1234 C1222 0.960 . S
H1235 C1222 0.962 . S
H1236 C1222 0.960 . S
H1237 C1223 0.961 . S
H1238 C1223 0.961 . S
H1239 C1223 0.961 . S
H1240 C1224 0.931 . S
H1241 C1229 0.930 . S
H1242 C1230 0.956 . S
H1243 C1230 0.961 . S
H1244 C1230 0.961 . S
H1245 C1231 0.958 . S
H1246 C1231 0.961 . S
H1247 C1231 0.960 . S
C1248 C1249 1.391 . S
C1248 C1250 1.394 . S
C1248 H1264 0.931 . S
C1249 C1248 1.391 . S
C1249 C1253 1.376 . S
C1250 C1248 1.394 . S
C1250 C1251 1.369 . S
C1250 C1254 1.531 . S
C1251 C1250 1.369 . S
C1251 C1252 1.410 . S
C1251 C1259 1.503 . S
C1252 C1251 1.410 . S
C1252 C1253 1.392 . S
C1252 C1255 1.511 . S
C1253 C1249 1.376 . S
C1253 C1252 1.392 . S
C1253 H1265 0.929 . S
C1254 C1250 1.531 . S
C1254 H1266 0.960 . S
C1254 H1267 0.962 . S
C1254 H1268 0.960 . S
C1255 C1252 1.511 . S
C1255 H1269 0.961 . S
C1255 H1270 0.961 . S
C1255 H1271 0.961 . S
C1256 C1257 1.370 . S
C1256 C1258 1.363 . S
C1256 H1272 0.931 . S
C1257 C1256 1.370 . S
C1257 C1261 1.408 . S
C1258 C1256 1.363 . S
C1258 C1259 1.370 . S
C1258 C1262 1.524 . S
C1259 C1251 1.503 . S
C1259 C1258 1.370 . S
C1259 C1260 1.403 . S
C1260 C1259 1.403 . S
C1260 C1261 1.404 . S
C1260 C1263 1.539 . S
C1261 C1257 1.408 . S
C1261 C1260 1.404 . S
C1261 H1273 0.930 . S
C1262 C1258 1.524 . S
C1262 H1274 0.956 . S
C1262 H1275 0.961 . S
C1262 H1276 0.961 . S
C1263 C1260 1.539 . S
C1263 H1277 0.958 . S
C1263 H1278 0.961 . S
C1263 H1279 0.960 . S
H1264 C1248 0.931 . S
H1265 C1253 0.929 . S
H1266 C1254 0.960 . S
H1267 C1254 0.962 . S
H1268 C1254 0.960 . S
H1269 C1255 0.961 . S
H1270 C1255 0.961 . S
H1271 C1255 0.961 . S
H1272 C1256 0.931 . S
H1273 C1261 0.930 . S
H1274 C1262 0.956 . S
H1275 C1262 0.961 . S
H1276 C1262 0.961 . S
H1277 C1263 0.958 . S
H1278 C1263 0.961 . S
H1279 C1263 0.960 . S
C1280 C1281 1.391 . S
C1280 C1282 1.394 . S
C1280 H1296 0.931 . S
C1281 C1280 1.391 . S
C1281 C1285 1.376 . S
C1282 C1280 1.394 . S
C1282 C1283 1.369 . S
C1282 C1286 1.531 . S
C1283 C1282 1.369 . S
C1283 C1284 1.410 . S
C1283 C1291 1.503 . S
C1284 C1283 1.410 . S
C1284 C1285 1.392 . S
C1284 C1287 1.511 . S
C1285 C1281 1.376 . S
C1285 C1284 1.392 . S
C1285 H1297 0.929 . S
C1286 C1282 1.531 . S
C1286 H1298 0.960 . S
C1286 H1299 0.962 . S
C1286 H1300 0.960 . S
C1287 C1284 1.511 . S
C1287 H1301 0.961 . S
C1287 H1302 0.961 . S
C1287 H1303 0.961 . S
C1288 C1289 1.370 . S
C1288 C1290 1.363 . S
C1288 H1304 0.931 . S
C1289 C1288 1.370 . S
C1289 C1293 1.408 . S
C1290 C1288 1.363 . S
C1290 C1291 1.370 . S
C1290 C1294 1.524 . S
C1291 C1283 1.503 . S
C1291 C1290 1.370 . S
C1291 C1292 1.403 . S
C1292 C1291 1.403 . S
C1292 C1293 1.404 . S
C1292 C1295 1.539 . S
C1293 C1289 1.408 . S
C1293 C1292 1.404 . S
C1293 H1305 0.930 . S
C1294 C1290 1.524 . S
C1294 H1306 0.956 . S
C1294 H1307 0.961 . S
C1294 H1308 0.961 . S
C1295 C1292 1.539 . S
C1295 H1309 0.958 . S
C1295 H1310 0.961 . S
C1295 H1311 0.960 . S
H1296 C1280 0.931 . S
H1297 C1285 0.929 . S
H1298 C1286 0.960 . S
H1299 C1286 0.962 . S
H1300 C1286 0.960 . S
H1301 C1287 0.961 . S
H1302 C1287 0.961 . S
H1303 C1287 0.961 . S
H1304 C1288 0.931 . S
H1305 C1293 0.930 . S
H1306 C1294 0.956 . S
H1307 C1294 0.961 . S
H1308 C1294 0.961 . S
H1309 C1295 0.958 . S
H1310 C1295 0.961 . S
H1311 C1295 0.960 . S
C1312 C1313 1.391 . S
C1312 C1314 1.394 . S
C1312 H1328 0.931 . S
C1313 C1312 1.391 . S
C1313 C1317 1.376 . S
C1314 C1312 1.394 . S
C1314 C1315 1.369 . S
C1314 C1318 1.531 . S
C1315 C1314 1.369 . S
C1315 C1316 1.410 . S
C1315 C1323 1.503 . S
C1316 C1315 1.410 . S
C1316 C1317 1.392 . S
C1316 C1319 1.511 . S
C1317 C1313 1.376 . S
C1317 C1316 1.392 . S
C1317 H1329 0.929 . S
C1318 C1314 1.531 . S
C1318 H1330 0.960 . S
C1318 H1331 0.962 . S
C1318 H1332 0.960 . S
C1319 C1316 1.511 . S
C1319 H1333 0.961 . S
C1319 H1334 0.961 . S
C1319 H1335 0.961 . S
C1320 C1321 1.370 . S
C1320 C1322 1.363 . S
C1320 H1336 0.931 . S
C1321 C1320 1.370 . S
C1321 C1325 1.408 . S
C1322 C1320 1.363 . S
C1322 C1323 1.370 . S
C1322 C1326 1.524 . S
C1323 C1315 1.503 . S
C1323 C1322 1.370 . S
C1323 C1324 1.403 . S
C1324 C1323 1.403 . S
C1324 C1325 1.404 . S
C1324 C1327 1.539 . S
C1325 C1321 1.408 . S
C1325 C1324 1.404 . S
C1325 H1337 0.930 . S
C1326 C1322 1.524 . S
C1326 H1338 0.956 . S
C1326 H1339 0.961 . S
C1326 H1340 0.961 . S
C1327 C1324 1.539 . S
C1327 H1341 0.958 . S
C1327 H1342 0.961 . S
C1327 H1343 0.960 . S
H1328 C1312 0.931 . S
H1329 C1317 0.929 . S
H1330 C1318 0.960 . S
H1331 C1318 0.962 . S
H1332 C1318 0.960 . S
H1333 C1319 0.961 . S
H1334 C1319 0.961 . S
H1335 C1319 0.961 . S
H1336 C1320 0.931 . S
H1337 C1325 0.930 . S
H1338 C1326 0.956 . S
H1339 C1326 0.961 . S
H1340 C1326 0.961 . S
H1341 C1327 0.958 . S
H1342 C1327 0.961 . S
H1343 C1327 0.960 . S
C1344 C1345 1.391 . S
C1344 C1346 1.394 . S
C1344 H1360 0.931 . S
C1345 C1344 1.391 . S
C1345 C1349 1.376 . S
C1346 C1344 1.394 . S
C1346 C1347 1.369 . S
C1346 C1350 1.531 . S
C1347 C1346 1.369 . S
C1347 C1348 1.410 . S
C1347 C1355 1.503 1_545 S
C1348 C1347 1.410 . S
C1348 C1349 1.392 . S
C1348 C1351 1.511 . S
C1349 C1345 1.376 . S
C1349 C1348 1.392 . S
C1349 H1361 0.929 . S
C1350 C1346 1.531 . S
C1350 H1362 0.960 . S
C1350 H1363 0.962 . S
C1350 H1364 0.960 . S
C1351 C1348 1.511 . S
C1351 H1365 0.961 . S
C1351 H1366 0.961 1_545 S
C1351 H1367 0.961 . S
C1352 C1353 1.370 . S
C1352 C1354 1.363 . S
C1352 H1368 0.931 . S
C1353 C1352 1.370 . S
C1353 C1357 1.408 . S
C1354 C1352 1.363 . S
C1354 C1355 1.370 . S
C1354 C1358 1.524 . S
C1355 C1347 1.503 1_565 S
C1355 C1354 1.370 . S
C1355 C1356 1.403 . S
C1356 C1355 1.403 . S
C1356 C1357 1.404 . S
C1356 C1359 1.516 1_565 S
C1357 C1353 1.408 . S
C1357 C1356 1.404 . S
C1357 H1369 0.930 . S
C1358 C1354 1.524 . S
C1358 H1370 0.956 . S
C1358 H1371 0.961 . S
C1358 H1372 0.961 . S
C1359 C1356 1.516 1_545 S
C1359 H1373 0.969 . S
C1359 H1374 0.948 1_545 S
C1359 H1375 0.987 . S
H1360 C1344 0.931 . S
H1361 C1349 0.929 . S
H1362 C1350 0.960 . S
H1363 C1350 0.962 . S
H1364 C1350 0.960 . S
H1365 C1351 0.961 . S
H1366 C1351 0.961 1_565 S
H1367 C1351 0.961 . S
H1368 C1352 0.931 . S
H1369 C1357 0.930 . S
H1370 C1358 0.956 . S
H1371 C1358 0.961 . S
H1372 C1358 0.961 . S
H1373 C1359 0.969 . S
H1374 C1359 0.948 1_565 S
H1375 C1359 0.987 . S
C1376 C1377 1.391 . S
C1376 C1378 1.394 . S
C1376 H1392 0.931 . S
C1377 C1376 1.391 . S
C1377 C1381 1.376 . S
C1378 C1376 1.394 . S
C1378 C1379 1.369 . S
C1378 C1382 1.531 . S
C1379 C1378 1.369 . S
C1379 C1380 1.410 . S
C1379 C1387 1.503 1_655 S
C1380 C1379 1.410 . S
C1380 C1381 1.392 . S
C1380 C1383 1.511 . S
C1381 C1377 1.376 . S
C1381 C1380 1.392 . S
C1381 H1393 0.929 . S
C1382 C1378 1.531 . S
C1382 H1394 0.960 1_655 S
C1382 H1395 0.962 1_655 S
C1382 H1396 0.960 . S
C1383 C1380 1.511 . S
C1383 H1397 0.961 . S
C1383 H1398 0.961 . S
C1383 H1399 0.961 . S
C1384 C1385 1.370 . S
C1384 C1386 1.363 . S
C1384 H1400 0.931 . S
C1385 C1384 1.370 . S
C1385 C1389 1.408 . S
C1386 C1384 1.363 . S
C1386 C1387 1.370 . S
C1386 C1390 1.524 . S
C1387 C1379 1.503 1_455 S
C1387 C1386 1.370 . S
C1387 C1388 1.403 . S
C1388 C1387 1.403 . S
C1388 C1389 1.404 . S
C1388 C1391 1.539 . S
C1389 C1385 1.408 . S
C1389 C1388 1.404 . S
C1389 H1401 0.930 . S
C1390 C1386 1.524 . S
C1390 H1402 0.956 . S
C1390 H1403 0.961 . S
C1390 H1404 0.961 . S
C1391 C1388 1.539 . S
C1391 H1405 0.958 . S
C1391 H1406 0.961 . S
C1391 H1407 0.960 1_455 S
H1392 C1376 0.931 . S
H1393 C1381 0.929 . S
H1394 C1382 0.960 1_455 S
H1395 C1382 0.962 1_455 S
H1396 C1382 0.960 . S
H1397 C1383 0.961 . S
H1398 C1383 0.961 . S
H1399 C1383 0.961 . S
H1400 C1384 0.931 . S
H1401 C1389 0.930 . S
H1402 C1390 0.956 . S
H1403 C1390 0.961 . S
H1404 C1390 0.961 . S
H1405 C1391 0.958 . S
H1406 C1391 0.961 . S
H1407 C1391 0.960 1_655 S
C1408 C1409 1.391 . S
C1408 C1410 1.394 . S
C1408 H1424 0.931 . S
C1409 C1408 1.391 . S
C1409 C1413 1.376 . S
C1410 C1408 1.394 . S
C1410 C1411 1.369 . S
C1410 C1414 1.531 . S
C1411 C1410 1.369 . S
C1411 C1412 1.410 . S
C1411 C1419 1.503 1_545 S
C1412 C1411 1.410 . S
C1412 C1413 1.392 . S
C1412 C1415 1.511 . S
C1413 C1409 1.376 . S
C1413 C1412 1.392 . S
C1413 H1425 0.929 . S
C1414 C1410 1.531 . S
C1414 H1426 0.960 . S
C1414 H1427 0.962 . S
C1414 H1428 0.960 . S
C1415 C1412 1.511 . S
C1415 H1429 0.961 . S
C1415 H1430 0.961 1_545 S
C1415 H1431 0.961 . S
C1416 C1417 1.370 . S
C1416 C1418 1.363 . S
C1416 H1432 0.931 . S
C1417 C1416 1.370 . S
C1417 C1421 1.408 . S
C1418 C1416 1.363 . S
C1418 C1419 1.370 . S
C1418 C1422 1.524 . S
C1419 C1411 1.503 1_565 S
C1419 C1418 1.370 . S
C1419 C1420 1.403 . S
C1420 C1419 1.403 . S
C1420 C1421 1.404 . S
C1420 C1423 1.521 1_565 S
C1421 C1417 1.408 . S
C1421 C1420 1.404 . S
C1421 H1433 0.930 . S
C1422 C1418 1.524 . S
C1422 H1434 0.956 . S
C1422 H1435 0.961 . S
C1422 H1436 0.961 . S
C1423 C1420 1.521 1_545 S
C1423 H1437 0.967 . S
C1423 H1438 0.950 1_545 S
C1423 H1439 0.981 . S
H1424 C1408 0.931 . S
H1425 C1413 0.929 . S
H1426 C1414 0.960 . S
H1427 C1414 0.962 . S
H1428 C1414 0.960 . S
H1429 C1415 0.961 . S
H1430 C1415 0.961 1_565 S
H1431 C1415 0.961 . S
H1432 C1416 0.931 . S
H1433 C1421 0.930 . S
H1434 C1422 0.956 . S
H1435 C1422 0.961 . S
H1436 C1422 0.961 . S
H1437 C1423 0.967 . S
H1438 C1423 0.950 1_565 S
H1439 C1423 0.981 . S
C1440 C1441 1.391 . S
C1440 C1442 1.394 . S
C1440 H1456 0.931 . S
C1441 C1440 1.391 . S
C1441 C1445 1.376 . S
C1442 C1440 1.394 . S
C1442 C1443 1.369 . S
C1442 C1446 1.531 . S
C1443 C1442 1.369 . S
C1443 C1444 1.410 . S
C1443 C1451 1.503 1_455 S
C1444 C1443 1.410 . S
C1444 C1445 1.392 . S
C1444 C1447 1.511 1_455 S
C1445 C1441 1.376 . S
C1445 C1444 1.392 . S
C1445 H1457 0.929 . S
C1446 C1442 1.531 . S
C1446 H1458 0.960 . S
C1446 H1459 0.962 . S
C1446 H1460 0.960 . S
C1447 C1444 1.511 1_655 S
C1447 H1461 0.961 1_655 S
C1447 H1462 0.961 . S
C1447 H1463 0.961 . S
C1448 C1449 1.370 . S
C1448 C1450 1.363 . S
C1448 H1464 0.931 . S
C1449 C1448 1.370 . S
C1449 C1453 1.408 . S
C1450 C1448 1.363 . S
C1450 C1451 1.370 . S
C1450 C1454 1.524 . S
C1451 C1443 1.503 1_655 S
C1451 C1450 1.370 . S
C1451 C1452 1.403 . S
C1452 C1451 1.403 . S
C1452 C1453 1.404 . S
C1452 C1455 1.539 . S
C1453 C1449 1.408 . S
C1453 C1452 1.404 . S
C1453 H1465 0.930 . S
C1454 C1450 1.524 . S
C1454 H1466 0.956 1_655 S
C1454 H1467 0.972 . S
C1454 H1468 0.961 . S
C1455 C1452 1.539 . S
C1455 H1469 0.958 . S
C1455 H1470 0.961 . S
C1455 H1471 0.960 . S
H1456 C1440 0.931 . S
H1457 C1445 0.929 . S
H1458 C1446 0.960 . S
H1459 C1446 0.962 . S
H1460 C1446 0.960 . S
H1461 C1447 0.961 1_455 S
H1462 C1447 0.961 . S
H1463 C1447 0.961 . S
H1464 C1448 0.931 . S
H1465 C1453 0.930 . S
H1466 C1454 0.956 1_455 S
H1467 C1454 0.972 . S
H1468 C1454 0.961 . S
H1469 C1455 0.958 . S
H1470 C1455 0.961 . S
H1471 C1455 0.960 . S
C1472 C1473 1.391 . S
C1472 C1474 1.394 . S
C1472 H1488 0.931 . S
C1473 C1472 1.391 . S
C1473 C1477 1.376 . S
C1474 C1472 1.394 . S
C1474 C1475 1.369 . S
C1474 C1478 1.531 . S
C1475 C1474 1.369 . S
C1475 C1476 1.410 . S
C1475 C1483 1.503 1_545 S
C1476 C1475 1.410 . S
C1476 C1477 1.392 . S
C1476 C1479 1.511 . S
C1477 C1473 1.376 . S
C1477 C1476 1.392 . S
C1477 H1489 0.929 . S
C1478 C1474 1.531 . S
C1478 H1490 0.960 . S
C1478 H1491 0.962 . S
C1478 H1492 0.960 . S
C1479 C1476 1.511 . S
C1479 H1493 0.961 . S
C1479 H1494 0.961 1_545 S
C1479 H1495 0.961 . S
C1480 C1481 1.370 . S
C1480 C1482 1.363 . S
C1480 H1496 0.931 . S
C1481 C1480 1.370 . S
C1481 C1485 1.408 . S
C1482 C1480 1.363 . S
C1482 C1483 1.370 . S
C1482 C1486 1.524 . S
C1483 C1475 1.503 1_565 S
C1483 C1482 1.370 . S
C1483 C1484 1.403 . S
C1484 C1483 1.403 . S
C1484 C1485 1.404 . S
C1484 C1487 1.539 1_565 S
C1485 C1481 1.408 . S
C1485 C1484 1.404 . S
C1485 H1497 0.930 . S
C1486 C1482 1.524 . S
C1486 H1498 0.956 . S
C1486 H1499 0.961 . S
C1486 H1500 0.961 . S
C1487 C1484 1.539 1_545 S
C1487 H1501 0.958 . S
C1487 H1502 0.961 1_545 S
C1487 H1503 0.960 . S
H1488 C1472 0.931 . S
H1489 C1477 0.929 . S
H1490 C1478 0.960 . S
H1491 C1478 0.962 . S
H1492 C1478 0.960 . S
H1493 C1479 0.961 . S
H1494 C1479 0.961 1_565 S
H1495 C1479 0.961 . S
H1496 C1480 0.931 . S
H1497 C1485 0.930 . S
H1498 C1486 0.956 . S
H1499 C1486 0.961 . S
H1500 C1486 0.961 . S
H1501 C1487 0.958 . S
H1502 C1487 0.961 1_565 S
H1503 C1487 0.960 . S
C1504 C1505 1.391 . S
C1504 C1506 1.394 . S
C1504 H1520 0.931 . S
C1505 C1504 1.391 . S
C1505 C1509 1.376 . S
C1506 C1504 1.394 . S
C1506 C1507 1.369 . S
C1506 C1510 1.531 . S
C1507 C1506 1.369 . S
C1507 C1508 1.410 . S
C1507 C1515 1.503 1_655 S
C1508 C1507 1.410 . S
C1508 C1509 1.392 . S
C1508 C1511 1.511 1_655 S
C1509 C1505 1.376 . S
C1509 C1508 1.392 . S
C1509 H1521 0.929 . S
C1510 C1506 1.531 . S
C1510 H1522 0.960 . S
C1510 H1523 0.962 . S
C1510 H1524 0.960 . S
C1511 C1508 1.511 1_455 S
C1511 H1525 0.961 1_455 S
C1511 H1526 0.961 . S
C1511 H1527 0.961 . S
C1512 C1513 1.370 . S
C1512 C1514 1.363 . S
C1512 H1528 0.931 . S
C1513 C1512 1.370 . S
C1513 C1517 1.408 . S
C1514 C1512 1.363 . S
C1514 C1515 1.370 . S
C1514 C1518 1.524 . S
C1515 C1507 1.503 1_455 S
C1515 C1514 1.370 . S
C1515 C1516 1.403 . S
C1516 C1515 1.403 . S
C1516 C1517 1.404 . S
C1516 C1519 1.539 . S
C1517 C1513 1.408 . S
C1517 C1516 1.404 . S
C1517 H1529 0.930 . S
C1518 C1514 1.524 . S
C1518 H1530 0.956 1_455 S
C1518 H1531 0.961 1_455 S
C1518 H1532 0.961 . S
C1519 C1516 1.539 . S
C1519 H1533 0.958 . S
C1519 H1534 0.961 . S
C1519 H1535 0.960 . S
H1520 C1504 0.931 . S
H1521 C1509 0.929 . S
H1522 C1510 0.960 . S
H1523 C1510 0.962 . S
H1524 C1510 0.960 . S
H1525 C1511 0.961 1_655 S
H1526 C1511 0.961 . S
H1527 C1511 0.961 . S
H1528 C1512 0.931 . S
H1529 C1517 0.930 . S
H1530 C1518 0.956 1_655 S
H1531 C1518 0.961 1_655 S
H1532 C1518 0.961 . S
H1533 C1519 0.958 . S
H1534 C1519 0.961 . S
H1535 C1519 0.960 . S
C1536 C1537 1.391 . S
C1536 C1538 1.394 . S
C1536 H1552 0.931 . S
C1537 C1536 1.391 . S
C1537 C1541 1.376 . S
C1538 C1536 1.394 . S
C1538 C1539 1.369 . S
C1538 C1542 1.531 . S
C1539 C1538 1.369 . S
C1539 C1540 1.410 . S
C1539 C1547 1.503 1_565 S
C1540 C1539 1.410 . S
C1540 C1541 1.392 . S
C1540 C1543 1.511 . S
C1541 C1537 1.376 . S
C1541 C1540 1.392 . S
C1541 H1553 0.929 . S
C1542 C1538 1.531 . S
C1542 H1554 0.960 1_565 S
C1542 H1555 0.962 . S
C1542 H1556 0.960 . S
C1543 C1540 1.511 . S
C1543 H1557 0.961 . S
C1543 H1558 0.961 . S
C1543 H1559 0.961 . S
C1544 C1545 1.370 . S
C1544 C1546 1.363 . S
C1544 H1560 0.931 . S
C1545 C1544 1.370 . S
C1545 C1549 1.408 . S
C1546 C1544 1.363 . S
C1546 C1547 1.370 . S
C1546 C1550 1.524 1_545 S
C1547 C1539 1.503 1_545 S
C1547 C1546 1.370 . S
C1547 C1548 1.403 . S
C1548 C1547 1.403 . S
C1548 C1549 1.404 . S
C1548 C1551 1.539 . S
C1549 C1545 1.408 . S
C1549 C1548 1.404 . S
C1549 H1561 0.930 . S
C1550 C1546 1.524 1_565 S
C1550 H1562 0.956 . S
C1550 H1563 0.961 . S
C1550 H1564 0.955 1_565 S
C1551 C1548 1.539 . S
C1551 H1565 0.958 . S
C1551 H1566 0.961 . S
C1551 H1567 0.960 . S
H1552 C1536 0.931 . S
H1553 C1541 0.929 . S
H1554 C1542 0.960 1_545 S
H1555 C1542 0.962 . S
H1556 C1542 0.960 . S
H1557 C1543 0.961 . S
H1558 C1543 0.961 . S
H1559 C1543 0.961 . S
H1560 C1544 0.931 . S
H1561 C1549 0.930 . S
H1562 C1550 0.956 . S
H1563 C1550 0.961 . S
H1564 C1550 0.955 1_545 S
H1565 C1551 0.958 . S
H1566 C1551 0.961 . S
H1567 C1551 0.960 . S
C1568 C1569 1.391 . S
C1568 C1570 1.394 . S
C1568 H1584 0.931 . S
C1569 C1568 1.391 . S
C1569 C1573 1.376 . S
C1570 C1568 1.394 . S
C1570 C1571 1.369 . S
C1570 C1574 1.531 . S
C1571 C1570 1.369 . S
C1571 C1572 1.410 . S
C1571 C1579 1.503 1_455 S
C1572 C1571 1.410 . S
C1572 C1573 1.392 . S
C1572 C1575 1.511 . S
C1573 C1569 1.376 . S
C1573 C1572 1.392 . S
C1573 H1585 0.929 . S
C1574 C1570 1.531 . S
C1574 H1586 0.960 1_455 S
C1574 H1587 0.962 . S
C1574 H1588 0.960 . S
C1575 C1572 1.511 . S
C1575 H1589 0.961 . S
C1575 H1590 0.961 . S
C1575 H1591 0.961 . S
C1576 C1577 1.370 . S
C1576 C1578 1.363 . S
C1576 H1592 0.931 . S
C1577 C1576 1.370 . S
C1577 C1581 1.408 . S
C1578 C1576 1.363 . S
C1578 C1579 1.370 . S
C1578 C1582 1.524 1_655 S
C1579 C1571 1.503 1_655 S
C1579 C1578 1.370 . S
C1579 C1580 1.403 . S
C1580 C1579 1.403 . S
C1580 C1581 1.404 . S
C1580 C1583 1.539 . S
C1581 C1577 1.408 . S
C1581 C1580 1.404 . S
C1581 H1593 0.930 . S
C1582 C1578 1.524 1_455 S
C1582 H1594 0.956 . S
C1582 H1595 0.961 . S
C1582 H1596 0.961 1_455 S
C1583 C1580 1.539 . S
C1583 H1597 0.958 . S
C1583 H1598 0.961 . S
C1583 H1599 0.960 . S
H1584 C1568 0.931 . S
H1585 C1573 0.929 . S
H1586 C1574 0.960 1_655 S
H1587 C1574 0.962 . S
H1588 C1574 0.960 . S
H1589 C1575 0.961 . S
H1590 C1575 0.961 . S
H1591 C1575 0.961 . S
H1592 C1576 0.931 . S
H1593 C1581 0.930 . S
H1594 C1582 0.956 . S
H1595 C1582 0.961 . S
H1596 C1582 0.961 1_655 S
H1597 C1583 0.958 . S
H1598 C1583 0.961 . S
H1599 C1583 0.960 . S
C577 C184 1.390 . S
C585 C4 1.395 . S
C609 C220 1.394 . S
C617 C40 1.394 . S
C641 C76 1.391 . S
C649 C256 1.393 . S
C673 C112 1.388 . S
C681 C148 1.395 . S
C705 C472 1.393 . S
C713 C292 1.394 . S
C737 C508 1.392 . S
C745 C328 1.396 . S
C769 C364 1.392 . S
C777 C544 1.396 . S
C801 C400 1.391 . S
C809 C436 1.396 . S
C833 C374 1.482 . S
C841 C14 1.481 . S
C865 C410 1.503 . S
C873 C50 1.479 . S
C897 C302 1.483 . S
C905 C86 1.481 . S
C929 C122 1.503 . S
C937 C338 1.493 . S
C961 C518 1.489 . S
C969 C158 1.498 . S
C993 C554 1.505 . S
C1001 C194 1.479 . S
C1025 C230 1.507 . S
C1033 C446 1.479 . S
C1057 C482 1.466 . S
C1065 C266 1.499 . S
C1089 C146 1.071 . S
C1097 C2 1.063 . S
C1121 C38 1.046 . S
C1129 C182 1.066 . S
C1153 C74 1.075 . S
C1161 C218 1.080 . S
C1185 C254 1.071 . S
C1193 C110 1.079 . S
C1217 C291 1.729 . S
C1225 C435 1.739 . S
C1249 C471 1.729 . S
C1257 C327 1.739 . S
C1281 C363 1.737 . S
C1289 C507 1.736 . S
C1313 C543 1.736 . S
C1321 C399 1.736 . S
C1345 C398 1.063 . S
C1353 C470 1.077 . S
C1377 C290 1.046 . S
C1385 C506 1.067 . S
C1409 C542 1.064 . S
C1417 C326 1.078 . S
C1441 C362 1.090 . S
C1449 C434 1.077 . S
C1473 C183 1.729 . S
C1481 C111 1.739 . S
C1505 C219 1.736 . S
C1513 C3 1.736 . S
C1537 C255 1.737 . S
C1545 C39 1.736 . S
C1569 C147 1.736 . S
C1577 C75 1.736 . S
