# Generated by pormake.
# Topology wkb, (5)-cn, num edge types: 1
# Building blocks:
#     Node 0, Type 0, BuildingBlock: XOMCOT_clean_sbu_1, # of connection points: 5
#     Node 1, Type 0, BuildingBlock: XOMCOT_clean_sbu_1, # of connection points: 5
#     Node 2, Type 0, BuildingBlock: XOMCOT_clean_sbu_1, # of connection points: 5
#     Node 3, Type 0, BuildingBlock: XOMCOT_clean_sbu_1, # of connection points: 5
#     Node 4, Type 0, BuildingBlock: XOMCOT_clean_sbu_1, # of connection points: 5
#     Node 5, Type 0, BuildingBlock: XOMCOT_clean_sbu_1, # of connection points: 5
#     Node 6, Type 0, BuildingBlock: XOMCOT_clean_sbu_1, # of connection points: 5
#     Node 7, Type 0, BuildingBlock: XOMCOT_clean_sbu_1, # of connection points: 5
#     Node 8, Type 0, BuildingBlock: XOMCOT_clean_sbu_1, # of connection points: 5
#     Node 9, Type 0, BuildingBlock: XOMCOT_clean_sbu_1, # of connection points: 5
#     Node 10, Type 0, BuildingBlock: XOMCOT_clean_sbu_1, # of connection points: 5
#     Node 11, Type 0, BuildingBlock: XOMCOT_clean_sbu_1, # of connection points: 5
#     Edge 12, Type (0, 0), BuildingBlock: KIFKEQ_clean_linker_1, # of connection points: 2
#     Edge 13, Type (0, 0), BuildingBlock: KIFKEQ_clean_linker_1, # of connection points: 2
#     Edge 14, Type (0, 0), BuildingBlock: KIFKEQ_clean_linker_1, # of connection points: 2
#     Edge 15, Type (0, 0), BuildingBlock: KIFKEQ_clean_linker_1, # of connection points: 2
#     Edge 16, Type (0, 0), BuildingBlock: KIFKEQ_clean_linker_1, # of connection points: 2
#     Edge 17, Type (0, 0), BuildingBlock: KIFKEQ_clean_linker_1, # of connection points: 2
#     Edge 18, Type (0, 0), BuildingBlock: KIFKEQ_clean_linker_1, # of connection points: 2
#     Edge 19, Type (0, 0), BuildingBlock: KIFKEQ_clean_linker_1, # of connection points: 2
#     Edge 20, Type (0, 0), BuildingBlock: KIFKEQ_clean_linker_1, # of connection points: 2
#     Edge 21, Type (0, 0), BuildingBlock: KIFKEQ_clean_linker_1, # of connection points: 2
#     Edge 22, Type (0, 0), BuildingBlock: KIFKEQ_clean_linker_1, # of connection points: 2
#     Edge 23, Type (0, 0), BuildingBlock: KIFKEQ_clean_linker_1, # of connection points: 2
#     Edge 24, Type (0, 0), BuildingBlock: KIFKEQ_clean_linker_1, # of connection points: 2
#     Edge 25, Type (0, 0), BuildingBlock: KIFKEQ_clean_linker_1, # of connection points: 2
#     Edge 26, Type (0, 0), BuildingBlock: KIFKEQ_clean_linker_1, # of connection points: 2
#     Edge 27, Type (0, 0), BuildingBlock: KIFKEQ_clean_linker_1, # of connection points: 2
#     Edge 28, Type (0, 0), BuildingBlock: KIFKEQ_clean_linker_1, # of connection points: 2
#     Edge 29, Type (0, 0), BuildingBlock: KIFKEQ_clean_linker_1, # of connection points: 2
#     Edge 30, Type (0, 0), BuildingBlock: KIFKEQ_clean_linker_1, # of connection points: 2
#     Edge 31, Type (0, 0), BuildingBlock: KIFKEQ_clean_linker_1, # of connection points: 2
#     Edge 32, Type (0, 0), BuildingBlock: KIFKEQ_clean_linker_1, # of connection points: 2
#     Edge 33, Type (0, 0), BuildingBlock: KIFKEQ_clean_linker_1, # of connection points: 2
#     Edge 34, Type (0, 0), BuildingBlock: KIFKEQ_clean_linker_1, # of connection points: 2
#     Edge 35, Type (0, 0), BuildingBlock: KIFKEQ_clean_linker_1, # of connection points: 2
#     Edge 36, Type (0, 0), BuildingBlock: KIFKEQ_clean_linker_1, # of connection points: 2
#     Edge 37, Type (0, 0), BuildingBlock: KIFKEQ_clean_linker_1, # of connection points: 2
#     Edge 38, Type (0, 0), BuildingBlock: KIFKEQ_clean_linker_1, # of connection points: 2
#     Edge 39, Type (0, 0), BuildingBlock: KIFKEQ_clean_linker_1, # of connection points: 2
#     Edge 40, Type (0, 0), BuildingBlock: KIFKEQ_clean_linker_1, # of connection points: 2
#     Edge 41, Type (0, 0), BuildingBlock: KIFKEQ_clean_linker_1, # of connection points: 2
# Relax obj value: 0.067
# Max RMSD: 0.105
# Mean RMSD: 0.105
data_MOF--net-wkb--node1-XOMCOT_clean_sbu_1--edge1-KIFKEQ_clean_linker_1
_symmetry_space_group_name_H-M    P1
_symmetry_Int_Tables_number       1
_symmetry_cell_setting            triclinic
loop_
_symmetry_equiv_pos_as_xyz
'x, y, z'
_cell_length_a     46.676322
_cell_length_b     46.601243
_cell_length_c     37.890989
_cell_angle_alpha  90.00129
_cell_angle_beta   90.004359
_cell_angle_gamma 120.06227
loop_
_atom_site_label
_atom_site_type_symbol
_atom_site_fract_x
_atom_site_fract_y
_atom_site_fract_z
_atom_type_partial_charge
C0 C 0.10829 0.37915 0.99881 0.0
C1 C 0.10465 0.37637 0.96289 0.0
N2 N 0.08193 0.34476 0.95505 0.0
N3 N 0.08765 0.3496 0.01368 0.0
C4 C 0.07189 0.329 0.98644 0.0
H5 H 0.12543 0.40113 0.01331 0.0
Co6 Co 0.08931 0.34194 0.06119 0.0
C7 C 1.0145 0.2978 0.0717 0.0
O8 O 1.0107 0.32256 0.08184 0.0
N9 N 0.09254 0.33442 0.10924 0.0
C10 C 0.08346 0.32416 0.16667 0.0
C11 C 0.07013 0.32668 0.13534 0.0
C12 C 0.11938 0.33686 0.12554 0.0
N13 N 0.11454 0.33062 0.16051 0.0
O14 O 0.10554 0.31243 0.04825 0.0
H15 H 0.04592 0.32386 0.13241 0.0
H16 H 0.14241 0.34403 0.11216 0.0
O17 O 0.04311 0.30297 0.0621 0.0
C18 C 0.13634 0.32766 0.0406 0.0
O19 O 0.15375 0.35981 0.0458 0.0
N20 N 0.07672 0.37431 0.07198 0.0
C21 C 0.07115 0.43121 0.07996 0.0
C22 C 0.0513 0.40653 0.0557 0.0
C23 C 0.05516 0.37884 0.05137 0.0
C24 C 0.09643 0.39845 0.09552 0.0
C25 C 0.09389 0.42689 0.10008 0.0
H26 H 0.04111 0.36121 0.03084 0.0
H27 H 0.11559 0.39672 0.10969 0.0
H28 H 0.05463 0.30276 0.98952 0.0
H29 H 0.11781 0.39616 0.94403 0.0
H30 H 0.07105 0.31803 0.19197 0.0
H31 H 1.03412 0.40943 0.03892 0.0
H32 H 0.11022 0.44578 0.11855 0.0
C33 C 0.73473 0.08343 0.17003 0.0
C34 C 0.7341 0.08131 0.1339 0.0
N35 N 0.75335 0.06877 0.12406 0.0
N36 N 0.75369 0.07161 0.18304 0.0
C37 C 0.76521 0.06344 0.15434 0.0
H38 H 0.72271 0.09367 0.18586 0.0
Co39 Co 0.76635 0.07487 0.22999 0.0
C40 C 0.7534 1.00349 0.21548 0.0
O41 O 0.73926 0.99781 0.18432 0.0
N42 N 0.77955 0.07908 0.27693 0.0
C43 C 0.78323 0.06806 0.33323 0.0
C44 C 0.76712 0.05517 0.30186 0.0
C45 C 0.80282 0.10633 0.29378 0.0
N46 N 0.80566 0.10027 0.32806 0.0
O47 O 0.81208 0.09578 0.21435 0.0
H48 H 0.74729 0.03001 0.29761 0.0
H49 H 0.81761 0.13011 0.28112 0.0
O50 O 0.76286 0.03116 0.23096 0.0
C51 C 0.82248 0.12617 0.20693 0.0
O52 O 0.8029 0.13811 0.21414 0.0
N53 N 0.72158 0.05709 0.24435 0.0
C54 C 0.65676 0.04564 0.25285 0.0
C55 C 0.66318 1.0242 0.23241 0.0
C56 C 0.69562 0.03008 0.22892 0.0
C57 C 0.71573 0.07707 0.26583 0.0
C58 C 0.68365 0.07124 0.27124 0.0
H59 H 0.70006 1.01476 0.21103 0.0
H60 H 0.73626 0.0989 0.27741 0.0
H61 H 0.78299 0.05501 0.15558 0.0
H62 H 0.72045 0.08839 0.11627 0.0
H63 H 0.77838 0.05492 0.35804 0.0
H64 H 0.64387 1.00425 0.2172 0.0
H65 H 0.68048 0.08784 0.28863 0.0
C66 C 0.68076 0.72172 0.33359 0.0
C67 C 0.68436 0.72076 0.29776 0.0
N68 N 0.71634 0.74148 0.28972 0.0
N69 N 0.71044 0.74264 0.34819 0.0
C70 C 0.73161 0.7546 0.32064 0.0
H71 H 0.65765 0.70896 0.34788 0.0
Co72 Co 0.71636 0.75712 0.39476 0.0
C73 C 0.77731 0.74685 0.38817 0.0
O74 O 0.77132 0.73235 0.35719 0.0
N75 N 0.7219 0.77159 0.44135 0.0
C76 C 0.73267 0.77498 0.49875 0.0
C77 C 0.72913 0.75748 0.46844 0.0
C78 C 0.72065 0.79738 0.45592 0.0
N79 N 0.7274 0.80009 0.49082 0.0
O80 O 0.74082 0.80249 0.37777 0.0
H81 H 0.73188 0.73584 0.46625 0.0
H82 H 0.71558 0.81424 0.44121 0.0
O83 O 0.75733 0.75537 0.40099 0.0
C84 C 0.71973 0.81037 0.36689 0.0
O85 O 0.68823 0.78922 0.37268 0.0
N86 N 0.68923 0.71311 0.41008 0.0
C87 C 0.63693 0.64866 0.42234 0.0
C88 C 0.66792 0.65425 0.41048 0.0
C89 C 0.69381 0.68675 0.40433 0.0
C90 C 0.65981 0.70823 0.42273 0.0
C91 C 0.63348 0.67641 0.42906 0.0
H92 H 0.71669 0.69047 0.39327 0.0
H93 H 0.65616 0.72924 0.426 0.0
H94 H 0.75733 0.77375 0.32298 0.0
H95 H 0.66491 0.70623 0.27899 0.0
H96 H 0.73841 0.76949 0.52469 0.0
H97 H 0.67192 0.63371 0.40508 0.0
H98 H 0.61005 0.67371 0.43731 0.0
C99 C 0.96732 0.67212 0.49497 0.0
C100 C 0.97138 0.67557 0.45911 0.0
N101 N 0.99455 0.70719 0.452 0.0
N102 N 0.98808 0.70128 0.51049 0.0
C103 C 1.00434 0.72232 0.48372 0.0
H104 H 0.94999 0.64991 0.50901 0.0
Co105 Co 0.98679 0.70795 0.55825 0.0
C106 C 0.06159 0.75413 0.56758 0.0
O107 O 0.06684 0.72979 0.57551 0.0
N108 N 0.98426 0.7146 0.60671 0.0
C109 C 0.99518 0.72418 0.66407 0.0
C110 C 1.0073 0.72153 0.63197 0.0
C111 C 0.9582 0.71266 0.6243 0.0
N112 N 0.96426 0.7185 0.65913 0.0
O113 O 0.96876 0.7363 0.54683 0.0
H114 H 1.03104 0.7235 0.62788 0.0
H115 H 0.93514 0.70712 0.61194 0.0
O116 O 1.03239 0.74801 0.55914 0.0
C117 C 0.93765 0.71981 0.54071 0.0
O118 O 0.92165 0.68778 0.54701 0.0
N119 N 1.00076 0.67636 0.56747 0.0
C120 C 1.00784 0.62021 0.57367 0.0
C121 C 1.02712 0.6454 0.54965 0.0
C122 C 1.02245 0.67269 0.54615 0.0
C123 C 0.98149 0.6516 0.59062 0.0
C124 C 0.98478 0.62351 0.5943 0.0
H125 H 1.03593 0.69066 0.5257 0.0
H126 H 0.9621 0.65257 0.6052 0.0
H127 H 1.02209 0.74836 0.4874 0.0
H128 H 0.95838 0.65616 0.43981 0.0
H129 H 1.00775 0.72892 0.68923 0.0
H130 H 0.04448 0.64321 0.53247 0.0
H131 H 0.96883 0.60413 0.61253 0.0
C132 C 0.33031 0.96427 0.66222 0.0
C133 C 0.3373 0.97269 0.62738 0.0
N134 N 0.32993 0.99653 0.62014 0.0
N135 N 0.31909 0.98308 0.677 0.0
C136 C 0.31859 1.00227 0.65056 0.0
H137 H 0.33386 0.9461 0.6763 0.0
Co138 Co 0.30847 0.97942 0.72434 0.0
C139 C 0.3318 0.05358 0.73434 0.0
O140 O 0.36264 0.06242 0.74103 0.0
N141 N 0.29712 0.9749 0.77227 0.0
C142 C 0.29787 0.98442 0.82988 0.0
C143 C 0.31284 0.99744 0.79809 0.0
C144 C 0.27267 0.94837 0.78909 0.0
N145 N 0.27259 0.95354 0.82414 0.0
O146 O 0.26215 0.95869 0.71066 0.0
H147 H 0.33448 1.02154 0.79438 0.0
H148 H 0.2558 0.92531 0.77617 0.0
O149 O 0.31074 1.0234 0.72641 0.0
C150 C 0.2512 0.92806 0.70381 0.0
O151 O 0.27058 0.91586 0.71088 0.0
N152 N 0.35411 0.99587 0.73588 0.0
C153 C 0.41843 1.00563 0.74432 0.0
C154 C 0.41219 1.02527 0.72093 0.0
C155 C 0.37991 1.01931 0.71631 0.0
C156 C 0.35973 0.97635 0.75847 0.0
C157 C 0.39148 0.98099 0.76334 0.0
H158 H 0.37557 0.03295 0.69597 0.0
H159 H 0.3392 0.95557 0.77145 0.0
H160 H 0.31112 1.02067 0.65375 0.0
H161 H 0.34723 0.96229 0.60876 0.0
H162 H 0.30508 0.99672 0.85523 0.0
H163 H 0.43184 0.0446 0.70542 0.0
H164 H 0.39434 0.96406 0.78055 0.0
C165 C 0.39744 0.31746 0.83123 0.0
C166 C 0.3939 0.31751 0.79534 0.0
N167 N 0.36188 0.3071 0.78807 0.0
N168 N 0.36795 0.30759 0.84661 0.0
C169 C 0.34663 0.30129 0.81975 0.0
H170 H 0.41993 0.32361 0.84538 0.0
Co171 Co 0.36134 0.29916 0.89425 0.0
C172 C 0.31241 0.32481 0.90303 0.0
O173 O 0.33495 0.35564 0.90944 0.0
N174 N 0.35478 0.28945 0.94241 0.0
C175 C 0.34451 0.28952 0.99968 0.0
C176 C 0.34761 0.30509 0.96795 0.0
C177 C 0.3562 0.26472 0.95931 0.0
N178 N 0.34985 0.26403 0.99415 0.0
O179 O 0.33332 0.25277 0.88235 0.0
H180 H 0.3452 0.32672 0.96404 0.0
H181 H 0.3623 0.24781 0.94643 0.0
O182 O 0.32092 0.30326 0.89555 0.0
C183 C 0.34825 0.23684 0.87508 0.0
O184 O 0.38034 0.25134 0.88024 0.0
N185 N 0.39184 0.3451 0.90399 0.0
C186 C 0.44663 0.40974 0.90992 0.0
C187 C 0.42106 0.40245 0.88576 0.0
C188 C 0.3944 0.37004 0.88273 0.0
C189 C 0.41664 0.35176 0.9275 0.0
C190 C 0.44384 0.38381 0.93124 0.0
H191 H 0.37623 0.36483 0.86234 0.0
H192 H 0.41647 0.33186 0.94232 0.0
H193 H 0.32032 0.29131 0.82335 0.0
H194 H 0.41347 0.32468 0.77613 0.0
H195 H 0.3384 0.29627 0.02473 0.0
H196 H 0.42192 0.42144 0.8686 0.0
H197 H 0.46336 0.38775 0.94945 0.0
C198 C 0.6861 0.95973 0.83789 0.0
C199 C 0.68991 0.96444 0.87367 0.0
N200 N 0.72113 0.98881 0.8801 0.0
N201 N 0.71469 0.98114 0.82186 0.0
C202 C 0.73572 0.99861 0.84818 0.0
H203 H 0.66408 0.94148 0.82427 0.0
Co204 Co 0.72077 0.97927 0.77416 0.0
C205 C 0.77104 0.05443 0.76811 0.0
O206 O 0.74918 0.06415 0.76642 0.0
N207 N 0.727 0.97649 0.72581 0.0
C208 C 0.73717 0.98839 0.66878 0.0
C209 C 0.73508 1.00032 0.70124 0.0
C210 C 0.72402 0.95026 0.70761 0.0
N211 N 0.7302 0.95683 0.67284 0.0
O212 O 0.74776 0.95974 0.78548 0.0
H213 H 0.73875 1.02474 0.70636 0.0
H214 H 0.7168 0.92655 0.71951 0.0
O215 O 0.76173 1.02368 0.77255 0.0
C216 C 0.731 0.92857 0.79136 0.0
O217 O 0.69908 0.91279 0.7847 0.0
N218 N 0.69063 0.99503 0.76495 0.0
C219 C 0.6359 1.00473 0.75826 0.0
C220 C 0.66127 1.02303 0.78269 0.0
C221 C 0.68769 1.01707 0.78636 0.0
C222 C 0.66586 0.97663 0.74149 0.0
C223 C 0.63868 0.98128 0.73749 0.0
H224 H 0.70523 0.02956 0.8074 0.0
H225 H 0.66596 0.95673 0.72697 0.0
H226 H 0.76139 1.01726 0.84414 0.0
H227 H 0.67111 0.95108 0.89344 0.0
H228 H 0.74363 1.00209 0.64424 0.0
H229 H 0.66052 0.04134 0.79962 0.0
H230 H 0.61924 0.96528 0.7194 0.0
C231 C 0.74547 0.67517 0.00291 0.0
C232 C 0.74506 0.67863 0.0388 0.0
N233 N 0.76139 0.71121 0.04635 0.0
N234 N 0.76163 0.70544 0.98782 0.0
C235 C 0.77143 0.72699 0.01508 0.0
H236 H 0.73558 0.65198 0.98876 0.0
Co237 Co 0.77331 0.71159 0.94063 0.0
C238 C 0.75858 0.77014 0.94778 0.0
O239 O 0.74488 0.76463 0.97916 0.0
N240 N 0.78515 0.71702 0.89327 0.0
C241 C 0.78462 0.7251 0.83565 0.0
C242 C 0.76955 0.72352 0.8672 0.0
C243 C 0.80929 0.71423 0.87692 0.0
N244 N 0.80964 0.71916 0.84171 0.0
O245 O 0.819 0.73984 0.95481 0.0
H246 H 0.74831 0.72668 0.87087 0.0
H247 H 0.82579 0.70797 0.89048 0.0
O248 O 0.76794 0.75064 0.93539 0.0
C249 C 0.83371 0.724 0.96347 0.0
O250 O 0.8181 0.69168 0.95931 0.0
N251 N 0.72892 0.68168 0.92801 0.0
C252 C 0.66485 0.62778 0.91816 0.0
C253 C 0.66989 0.65795 0.93215 0.0
C254 C 0.70216 0.68461 0.93698 0.0
C255 C 0.72451 0.65292 0.91367 0.0
C256 C 0.69284 0.62583 0.90836 0.0
H257 H 0.70551 0.70684 0.9495 0.0
H258 H 0.74587 0.65045 0.90783 0.0
H259 H 0.78704 0.75356 0.01229 0.0
H260 H 0.73373 0.65876 0.05793 0.0
H261 H 0.7777 0.73048 0.81031 0.0
H262 H 0.64912 0.66075 0.94 0.0
H263 H 0.69046 0.60302 0.89821 0.0
C264 C 0.10673 0.73369 0.16748 0.0
C265 C 0.10196 0.73258 0.20324 0.0
N266 N 0.0821 0.74514 0.21031 0.0
N267 N 0.08962 0.74646 0.15194 0.0
C268 C 0.07486 0.75331 0.17864 0.0
H269 H 0.12223 0.72629 0.15357 0.0
Co270 Co 0.09356 0.75692 0.10449 0.0
C271 C 1.01997 0.73398 0.09303 0.0
O272 O 1.01184 0.70368 0.08415 0.0
N273 N 0.09834 0.76827 0.05653 0.0
C274 C 0.08945 0.76764 0.9988 0.0
C275 C 0.07645 0.75206 0.03033 0.0
C276 C 0.12445 0.79366 0.04019 0.0
N277 N 0.11965 0.79382 0.00507 0.0
O278 O 0.11463 0.80329 0.11812 0.0
H279 H 0.05284 0.72975 0.03358 0.0
H280 H 0.14691 0.81128 0.05357 0.0
O281 O 0.04975 0.75489 0.10239 0.0
C282 C 0.14462 0.81294 0.12669 0.0
O283 O 0.15615 0.79298 0.11957 0.0
N284 N 0.07703 0.71129 0.09319 0.0
C285 C 0.0694 0.64786 0.08722 0.0
C286 C 0.04835 0.6533 0.10899 0.0
C287 C 0.05321 0.68539 0.11241 0.0
C288 C 0.09755 0.70604 0.07178 0.0
C289 C 0.09401 0.6746 0.06823 0.0
H290 H 1.03896 0.68972 0.13201 0.0
H291 H 0.11839 0.72673 0.05909 0.0
H292 H 0.06034 0.76532 0.17502 0.0
H293 H 0.11238 0.72326 0.22252 0.0
H294 H 0.07755 0.76029 0.97327 0.0
H295 H 1.02979 0.63342 0.125 0.0
H296 H 0.11129 0.67148 0.05187 0.0
C297 C 0.40177 0.08309 0.32395 0.0
C298 C 0.40319 0.08229 0.36001 0.0
N299 N 0.37235 0.07035 0.37277 0.0
N300 N 0.37009 0.071 0.31376 0.0
C301 C 0.35272 0.06382 0.34419 0.0
H302 H 0.42276 0.09301 0.30624 0.0
Co303 Co 0.35838 0.07435 0.26767 0.0
C304 C 0.29993 1.00327 0.2834 0.0
O305 O 0.30872 0.99741 0.31429 0.0
N306 N 0.3473 0.07881 0.22167 0.0
C307 C 0.33028 0.06844 0.16599 0.0
C308 C 0.33427 0.05505 0.19661 0.0
C309 C 0.35138 0.10644 0.20564 0.0
N310 N 0.34111 0.1008 0.17175 0.0
O311 O 0.33459 0.09551 0.28584 0.0
H312 H 0.32857 0.02969 0.20018 0.0
H313 H 0.36162 0.13024 0.21859 0.0
O314 O 0.31815 0.03087 0.26788 0.0
C315 C 0.3551 0.12582 0.29309 0.0
O316 O 0.3863 0.13746 0.28452 0.0
N317 N 0.38425 0.05618 0.2507 0.0
C318 C 0.43715 0.0445 0.23952 0.0
C319 C 0.40986 1.0231 0.26069 0.0
C320 C 0.38348 0.02905 0.26546 0.0
C321 C 0.40929 0.07594 0.22828 0.0
C322 C 0.4353 0.06999 0.22155 0.0
H323 H 0.36429 1.01385 0.28399 0.0
H324 H 0.41033 0.09779 0.21712 0.0
H325 H 0.32659 0.05574 0.34541 0.0
H326 H 0.42532 0.09024 0.37562 0.0
H327 H 0.3209 0.05554 0.1412 0.0
H328 H 0.4096 1.00319 0.27559 0.0
H329 H 0.45452 0.0865 0.20359 0.0
C330 C 0.32637 0.38124 0.50158 0.0
C331 C 0.32661 0.37793 0.53748 0.0
N332 N 0.3175 0.34619 0.54489 0.0
N333 N 0.31763 0.35189 0.48633 0.0
C334 C 0.31224 0.33087 0.51329 0.0
H335 H 0.33164 0.40347 0.48733 0.0
Co336 Co 0.30952 0.34501 0.43862 0.0
C337 C 0.33871 0.29954 0.4288 0.0
O338 O 0.36781 0.32391 0.41944 0.0
N339 N 0.30001 0.33828 0.39028 0.0
C340 C 0.29998 0.32833 0.33283 0.0
C341 C 0.31552 0.33118 0.3645 0.0
C342 C 0.2755 0.34014 0.37345 0.0
N343 N 0.27484 0.33404 0.33858 0.0
O344 O 0.26327 0.31603 0.45028 0.0
H345 H 0.33728 0.32906 0.36793 0.0
H346 H 0.25827 0.34569 0.38647 0.0
O347 O 0.31559 0.30538 0.43787 0.0
C348 C 0.24765 0.33124 0.45775 0.0
O349 O 0.26253 0.36345 0.4529 0.0
N350 N 0.3551 0.37672 0.42923 0.0
C351 C 0.41881 0.43244 0.42334 0.0
C352 C 0.4123 0.40722 0.44759 0.0
C353 C 0.38022 0.38012 0.45077 0.0
C354 C 0.3611 0.40135 0.40569 0.0
C355 C 0.39272 0.42918 0.40212 0.0
H356 H 0.37545 0.36202 0.47116 0.0
H357 H 0.341 0.40045 0.39064 0.0
H358 H 0.30335 0.30469 0.50982 0.0
H359 H 0.33307 0.39748 0.5566 0.0
H360 H 0.30712 0.32328 0.30743 0.0
H361 H 0.43148 0.40919 0.46522 0.0
H362 H 0.39653 0.4484 0.38349 0.0
C363 C 0.97483 0.31735 0.66751 0.0
C364 C 0.97887 0.31817 0.70336 0.0
N365 N 1.00013 0.30738 0.71084 0.0
N366 N 0.99381 0.3066 0.6523 0.0
C367 C 1.00896 0.30061 0.67928 0.0
H368 H 0.95845 0.32341 0.65329 0.0
Co369 Co 0.99067 0.29657 0.60491 0.0
C370 C 0.06533 0.32321 0.59397 0.0
O371 O 0.07274 0.35353 0.58612 0.0
N372 N 0.98623 0.28542 0.55707 0.0
C373 C 0.99484 0.28476 0.49949 0.0
C374 C 1.00839 0.30048 0.53085 0.0
C375 C 0.95933 0.26086 0.54094 0.0
N376 N 0.96391 0.2598 0.50587 0.0
O377 O 0.97305 0.25063 0.61824 0.0
H378 H 1.03261 0.32203 0.53394 0.0
H379 H 0.93649 0.2446 0.5545 0.0
O380 O 1.03563 0.30147 0.60263 0.0
C381 C 0.94239 0.2354 0.62644 0.0
O382 O 0.92527 0.25045 0.62164 0.0
N383 N 1.00486 0.34181 0.59368 0.0
C384 C 1.01237 0.40537 0.58544 0.0
C385 C 1.03284 0.39999 0.60848 0.0
C386 C 1.02801 0.36803 0.61299 0.0
C387 C 0.9846 0.34654 0.57137 0.0
C388 C 0.98806 0.3779 0.56668 0.0
H389 H 0.04231 0.36422 0.63298 0.0
H390 H 0.9642 0.32558 0.55848 0.0
H391 H 1.02475 0.28998 0.67593 0.0
H392 H 0.96689 0.32597 0.72244 0.0
H393 H 1.00696 0.29124 0.47403 0.0
H394 H 0.052 0.42004 0.62374 0.0
H395 H 0.97054 0.38 0.54975 0.0
H396 H 0.24588 0.37179 0.33875 0.0
H397 H 0.2525 0.29593 0.28012 0.0
H398 H 0.20749 0.37161 0.29506 0.0
H399 H 0.2135 0.29504 0.23674 0.0
H400 H 0.16876 0.32485 0.14766 0.0
H401 H 0.20846 0.32701 0.19054 0.0
H402 H 0.15215 0.33817 0.27453 0.0
H403 H 0.11362 0.33808 0.23156 0.0
C404 C 0.23882 0.35483 0.31668 0.0
C405 C 0.25214 0.33387 0.31282 0.0
C406 C 0.21679 0.35465 0.29166 0.0
C407 C 0.20734 0.33326 0.26238 0.0
C408 C 0.22067 0.31225 0.25861 0.0
C409 C 0.24295 0.31267 0.28348 0.0
C410 C 0.16502 0.32824 0.17517 0.0
C411 C 0.13789 0.33137 0.18599 0.0
C412 C 0.18761 0.32902 0.19987 0.0
C413 C 0.1835 0.33271 0.23603 0.0
C414 C 0.15635 0.33574 0.24686 0.0
C415 C 0.13391 0.33521 0.22216 0.0
H416 H 0.82959 0.16648 0.33024 0.0
H417 H 0.83221 0.08624 0.38422 0.0
H418 H 0.86735 0.2055 0.37395 0.0
H419 H 0.87028 0.12518 0.42768 0.0
H420 H 0.91194 0.19828 0.51857 0.0
H421 H 0.87247 0.16002 0.47576 0.0
H422 H 0.92424 0.23061 0.3924 0.0
H423 H 0.96265 0.26953 0.43542 0.0
C424 C 0.83849 0.15725 0.35127 0.0
C425 C 0.82796 0.12332 0.35381 0.0
C426 C 0.86013 0.17957 0.3763 0.0
C427 C 0.87184 0.16846 0.40431 0.0
C428 C 0.86128 0.13449 0.4068 0.0
C429 C 0.83951 0.11217 0.38188 0.0
C430 C 0.91468 0.20587 0.49122 0.0
C431 C 0.94054 0.23706 0.48052 0.0
C432 C 0.89226 0.18373 0.46658 0.0
C433 C 0.89525 0.19221 0.43063 0.0
C434 C 0.92101 0.22343 0.41994 0.0
C435 C 0.94334 0.24561 0.44459 0.0
H436 H 0.76864 0.82603 0.54625 0.0
H437 H 0.69029 0.82979 0.48985 0.0
H438 H 0.76988 0.86525 0.58943 0.0
H439 H 0.69084 0.86865 0.53361 0.0
H440 H 0.72209 0.96053 0.60226 0.0
H441 H 0.72291 0.9242 0.55663 0.0
H442 H 0.73616 0.86567 0.63651 0.0
H443 H 0.73727 0.90294 0.68181 0.0
C444 C 0.75153 0.83515 0.54328 0.0
C445 C 0.72916 0.82469 0.51495 0.0
C446 C 0.75214 0.85754 0.56805 0.0
C447 C 0.73016 0.86976 0.56525 0.0
C448 C 0.7083 0.85992 0.53636 0.0
C449 C 0.70791 0.83768 0.51134 0.0
C450 C 0.72558 0.94017 0.6101 0.0
C451 C 0.72972 0.93481 0.64582 0.0
C452 C 0.72563 0.91908 0.58392 0.0
C453 C 0.7297 0.89209 0.59289 0.0
C454 C 0.73349 0.88654 0.62861 0.0
C455 C 0.73364 0.90769 0.65471 0.0
H456 H 0.98062 0.75637 0.71776 0.0
H457 H 0.89776 0.67944 0.66054 0.0
H458 H 0.94299 0.75608 0.76257 0.0
H459 H 0.86007 0.67834 0.70568 0.0
H460 H 0.79964 0.71023 0.77098 0.0
H461 H 0.83756 0.71065 0.72716 0.0
H462 H 0.90724 0.72387 0.80949 0.0
H463 H 0.87015 0.72565 0.8533 0.0
C464 C 0.95435 0.73915 0.71503 0.0
C465 C 0.94205 0.71803 0.68567 0.0
C466 C 0.93279 0.73887 0.74073 0.0
C467 C 0.89848 0.71719 0.73775 0.0
C468 C 0.88627 0.6958 0.70848 0.0
C469 C 0.90783 0.69636 0.68262 0.0
C470 C 0.82317 0.71367 0.77987 0.0
C471 C 0.83177 0.71811 0.81584 0.0
C472 C 0.84478 0.7134 0.75467 0.0
C473 C 0.87545 0.7172 0.76476 0.0
C474 C 0.88398 0.72129 0.80074 0.0
C475 C 0.86245 0.72186 0.82597 0.0
H476 H 0.20878 0.9057 0.81491 0.0
H477 H 0.28695 0.94931 0.89242 0.0
H478 H 0.17161 0.86702 0.85921 0.0
H479 H 0.25008 0.9104 0.93663 0.0
H480 H 0.16469 0.85859 0.01515 0.0
H481 H 0.20189 0.89773 0.97112 0.0
H482 H 0.16303 0.81971 0.89289 0.0
H483 H 0.12561 0.7809 0.93679 0.0
C484 C 0.21809 0.90678 0.84134 0.0
C485 C 0.25074 0.93055 0.85021 0.0
C486 C 0.19684 0.88462 0.86673 0.0
C487 C 0.20787 0.8856 0.90149 0.0
C488 C 0.2406 0.90934 0.91028 0.0
C489 C 0.26176 0.93162 0.88494 0.0
C490 C 0.16433 0.84983 0.98861 0.0
C491 C 0.14217 0.81674 0.97938 0.0
C492 C 0.18563 0.8722 0.96337 0.0
C493 C 0.18537 0.86187 0.92843 0.0
C494 C 0.16342 0.82865 0.91936 0.0
C495 C 0.14201 0.80638 0.94453 0.0
H496 H 0.35966 0.27355 0.06476 0.0
H497 H 0.33724 0.20137 0.98214 0.0
H498 H 0.35662 0.23374 0.10834 0.0
H499 H 0.33575 0.16219 0.02547 0.0
H500 H 0.29974 0.08845 0.11661 0.0
H501 H 0.30168 0.12829 0.07367 0.0
H502 H 0.38688 0.20667 0.12695 0.0
H503 H 0.3847 0.16679 0.17003 0.0
C504 C 0.35408 0.24923 0.05585 0.0
C505 C 0.34869 0.24071 0.0199 0.0
C506 C 0.35273 0.22653 0.0808 0.0
C507 C 0.34597 0.1948 0.07037 0.0
C508 C 0.34064 0.1863 0.03443 0.0
C509 C 0.34194 0.20896 0.0095 0.0
C510 C 0.31899 0.11414 0.119 0.0
C511 C 0.34208 0.12447 0.14668 0.0
C512 C 0.32014 0.13697 0.0944 0.0
C513 C 0.34449 0.17064 0.09684 0.0
C514 C 0.36751 0.18099 0.12463 0.0
C515 C 0.36627 0.15816 0.14932 0.0
H516 H 1.01729 0.43866 0.09109 0.0
H517 H 0.12258 0.49415 0.07299 0.0
H518 H 1.01591 0.49031 0.09457 0.0
H519 H 0.12128 0.54563 0.0741 0.0
H520 H 0.11783 0.63591 0.10835 0.0
H521 H 0.11729 0.58346 0.10879 0.0
H522 H 1.01849 0.5347 0.06454 0.0
H523 H 1.01864 0.58726 0.0666 0.0
C524 C 1.0401 0.462 0.08761 0.0
C525 C 0.07009 0.46248 0.08216 0.0
C526 C 1.03935 0.49169 0.08929 0.0
C527 C 0.06851 0.52257 0.08478 0.0
C528 C 0.09839 0.5227 0.07874 0.0
C529 C 0.0992 0.49311 0.07786 0.0
C530 C 0.09601 0.61385 0.09884 0.0
C531 C 0.06836 0.61555 0.08726 0.0
C532 C 0.09571 0.58372 0.09876 0.0
C533 C 0.068 0.55449 0.08626 0.0
C534 C 1.04017 0.55634 0.07485 0.0
C535 C 0.04024 0.58648 0.07572 0.0
H536 H 0.44546 0.99006 0.25195 0.0
H537 H 0.50128 0.09457 0.22622 0.0
H538 H 0.49678 0.98928 0.25749 0.0
H539 H 0.55143 0.09252 0.22698 0.0
H540 H 0.64226 0.09565 0.26397 0.0
H541 H 0.58981 0.09309 0.26252 0.0
H542 H 0.54197 0.98936 0.23414 0.0
H543 H 0.59436 0.99077 0.24033 0.0
C544 C 0.46838 1.01287 0.2471 0.0
C545 C 0.46842 0.04244 0.23885 0.0
C546 C 0.49811 1.01224 0.24968 0.0
C547 C 0.52889 0.04096 0.24326 0.0
C548 C 0.52871 0.07 0.23341 0.0
C549 C 0.49927 0.07091 0.23193 0.0
C550 C 0.62071 0.07181 0.25857 0.0
C551 C 0.62335 0.04337 0.25256 0.0
C552 C 0.59023 0.07058 0.25668 0.0
C553 C 0.56112 0.0412 0.24732 0.0
C554 C 0.5635 1.01256 0.2416 0.0
C555 C 0.594 1.01354 0.24458 0.0
H556 H 0.61992 0.5942 0.38009 0.0
H557 H 0.58658 0.62539 0.47111 0.0
H558 H 0.56841 0.5408 0.38088 0.0
H559 H 0.53478 0.57267 0.47073 0.0
H560 H 0.43228 0.49653 0.42482 0.0
H561 H 0.48639 0.54711 0.42609 0.0
H562 H 0.53437 0.48854 0.42115 0.0
H563 H 0.47999 0.43768 0.42022 0.0
C564 C 0.60199 0.58961 0.40062 0.0
C565 C 0.60747 0.6145 0.42529 0.0
C566 C 0.57236 0.55903 0.40089 0.0
C567 C 0.54738 0.55278 0.42552 0.0
C568 C 0.55333 0.57703 0.451 0.0
C569 C 0.58305 0.60733 0.45109 0.0
C570 C 0.45436 0.49443 0.4237 0.0
C571 C 0.45188 0.46313 0.42231 0.0
C572 C 0.48533 0.52337 0.42476 0.0
C573 C 0.51461 0.52177 0.42391 0.0
C574 C 0.51222 0.49052 0.42177 0.0
C575 C 0.48115 0.46146 0.42136 0.0
H576 H 0.95818 0.55686 0.56297 0.0
H577 H 0.06223 0.61446 0.58766 0.0
H578 H 0.96143 0.50594 0.56445 0.0
H579 H 0.06525 0.56327 0.59026 0.0
H580 H 1.03157 0.45404 0.63656 0.0
H581 H 1.03294 0.50688 0.63258 0.0
H582 H 0.99755 0.48478 0.52545 0.0
H583 H 0.99826 0.43287 0.52809 0.0
C584 C 0.98167 0.55852 0.56895 0.0
C585 C 1.00994 0.58949 0.5753 0.0
C586 C 0.98356 0.52949 0.5696 0.0
C587 C 1.01359 0.53076 0.57743 0.0
C588 C 0.04181 0.56168 0.58422 0.0
C589 C 1.04011 0.59086 0.58267 0.0
C590 C 1.02492 0.46056 0.61171 0.0
C591 C 1.01473 0.43866 0.58266 0.0
C592 C 1.02548 0.49086 0.60964 0.0
C593 C 1.01518 0.49975 0.5788 0.0
C594 C 1.00532 0.4783 0.54967 0.0
C595 C 1.00549 0.44837 0.55139 0.0
H596 H 0.46635 1.02462 0.6927 0.0
H597 H 0.44743 0.99424 0.80206 0.0
H598 H 0.51994 0.02859 0.69662 0.0
H599 H 0.49958 0.9949 0.80486 0.0
H600 H 0.60567 1.02073 0.81127 0.0
H601 H 0.55625 1.02515 0.80782 0.0
H602 H 0.54574 0.99779 0.69755 0.0
H603 H 0.59701 0.99674 0.70011 0.0
C604 C 0.47351 1.0189 0.71773 0.0
C605 C 0.4521 1.0091 0.74706 0.0
C606 C 0.50424 1.02053 0.71975 0.0
C607 C 0.51438 1.01175 0.75095 0.0
C608 C 0.49316 1.00231 0.78042 0.0
C609 C 0.46271 1.00134 0.77861 0.0
C610 C 0.59345 1.01651 0.78597 0.0
C611 C 0.60577 1.00837 0.75597 0.0
C612 C 0.56447 1.01839 0.78416 0.0
C613 C 0.54642 1.01156 0.75247 0.0
C614 C 0.55891 1.00373 0.7224 0.0
C615 C 0.58825 1.0025 0.72404 0.0
H616 H 0.47876 0.45219 0.85475 0.0
H617 H 0.48384 0.44385 0.96785 0.0
H618 H 0.52899 0.50607 0.85631 0.0
H619 H 0.53516 0.49708 0.96915 0.0
H620 H 0.61304 0.60655 0.96497 0.0
H621 H 0.55927 0.55585 0.9626 0.0
H622 H 0.58692 0.52934 0.8643 0.0
H623 H 0.6399 0.58067 0.86582 0.0
C624 C 0.49037 0.46189 0.88006 0.0
C625 C 0.47696 0.44345 0.9112 0.0
C626 C 0.51959 0.49272 0.88087 0.0
C627 C 0.53645 0.50606 0.91282 0.0
C628 C 0.5228 0.48788 0.94406 0.0
C629 C 0.49349 0.45705 0.94326 0.0
C630 C 0.60743 0.59025 0.94247 0.0
C631 C 0.63101 0.59786 0.9156 0.0
C632 C 0.57669 0.56085 0.94137 0.0
C633 C 0.56861 0.53821 0.91336 0.0
C634 C 0.59195 0.5462 0.88614 0.0
C635 C 0.62261 0.57557 0.88721 0.0
H636 H 0.96575 0.29582 0.77167 0.0
H637 H 0.05765 0.30993 0.7288 0.0
H638 H 0.98598 0.29774 0.83097 0.0
H639 H 0.07744 0.31005 0.7885 0.0
H640 H 0.11693 0.36655 0.89441 0.0
H641 H 0.09628 0.34981 0.83492 0.0
H642 H 1.00235 0.27393 0.87662 0.0
H643 H 1.02265 0.29211 0.9365 0.0
C644 C 0.99019 0.29897 0.77491 0.0
C645 C 1.01044 0.30362 0.74552 0.0
C646 C 1.0016 0.29946 0.809 0.0
C647 C 1.0335 0.30436 0.81461 0.0
C648 C 0.05295 0.3068 0.78512 0.0
C649 C 0.04154 0.30646 0.75089 0.0
C650 C 0.09186 0.3463 0.89096 0.0
C651 C 0.07114 0.33127 0.92021 0.0
C652 C 0.08017 0.33626 0.85675 0.0
C653 C 0.0475 0.31072 0.85088 0.0
C654 C 1.02747 0.29411 0.88021 0.0
C655 C 1.03917 0.30431 0.91454 0.0
H656 H 0.70725 0.95431 0.9408 0.0
H657 H 0.76662 0.05213 0.89653 0.0
H658 H 0.724 0.97687 0.9999 0.0
H659 H 0.78425 0.0749 0.95597 0.0
H660 H 0.75248 0.10003 0.06428 0.0
H661 H 0.75327 0.08248 0.004 0.0
H662 H 0.76864 1.00409 0.04298 0.0
H663 H 0.7667 1.02104 0.10348 0.0
C664 C 0.72431 0.98062 0.94377 0.0
C665 C 0.73518 1.00159 0.91421 0.0
C666 C 0.73428 0.99352 0.9776 0.0
C667 C 0.75531 0.02772 0.98263 0.0
C668 C 0.76776 0.04848 0.95289 0.0
C669 C 0.75788 0.03547 0.91892 0.0
C670 C 0.75624 0.07919 0.05998 0.0
C671 C 0.75886 0.0615 0.08863 0.0
C672 C 0.7572 0.06943 0.02541 0.0
C673 C 0.76076 0.04173 0.01875 0.0
C674 C 0.76548 1.02531 0.04735 0.0
C675 C 0.7646 0.03515 0.08197 0.0
H676 H 0.77546 0.68941 0.10591 0.0
H677 H 0.75695 0.7648 0.06456 0.0
H678 H 0.77282 0.70681 0.16598 0.0
H679 H 0.75418 0.78241 0.12491 0.0
H680 H 0.68851 0.7465 0.22956 0.0
H681 H 0.70884 0.74888 0.16972 0.0
H682 H 0.79696 0.75317 0.21164 0.0
H683 H 0.77637 0.75076 0.27179 0.0
C684 C 0.77151 0.71019 0.10982 0.0
C685 C 0.76595 0.72553 0.08086 0.0
C686 C 0.77032 0.72037 0.14411 0.0
C687 C 0.76311 0.74584 0.15005 0.0
C688 C 0.75965 0.76262 0.12098 0.0
C689 C 0.76136 0.7527 0.08658 0.0
C690 C 0.71245 0.74849 0.22592 0.0
C691 C 0.7307 0.74797 0.25509 0.0
C692 C 0.72428 0.75026 0.19175 0.0
C693 C 0.75444 0.75113 0.18609 0.0
C694 C 0.77359 0.75244 0.21534 0.0
C695 C 0.76192 0.75116 0.24963 0.0
H696 H 0.05508 0.75881 0.43524 0.0
H697 H 0.96085 0.68727 0.39045 0.0
H698 H 0.07721 0.77725 0.37597 0.0
H699 H 0.98323 0.70435 0.33153 0.0
H700 H 1.02564 0.74542 0.22669 0.0
H701 H 1.00478 0.74531 0.28584 0.0
H702 H 0.09305 0.75205 0.33086 0.0
H703 H 0.11438 0.75381 0.27212 0.0
C704 C 1.03896 0.74735 0.41281 0.0
C705 C 1.00643 0.72109 0.41753 0.0
C706 C 0.0517 0.75771 0.37884 0.0
C707 C 1.03216 0.74197 0.34896 0.0
C708 C 0.99898 0.7172 0.35384 0.0
C709 C 0.98627 0.70698 0.38771 0.0
C710 C 0.04087 0.74767 0.24924 0.0
C711 C 0.07134 0.74892 0.24473 0.0
C712 C 1.02883 0.74735 0.28313 0.0
C713 C 0.04705 0.74827 0.31314 0.0
C714 C 0.07841 0.75155 0.30845 0.0
C715 C 0.09043 0.75197 0.27468 0.0
H716 H 0.2881 1.01121 0.58572 0.0
H717 H 0.38401 1.01907 0.57987 0.0
H718 H 0.29584 0.0345 0.52573 0.0
H719 H 0.39198 0.04238 0.52073 0.0
H720 H 0.41 0.10646 0.42776 0.0
H721 H 0.39797 0.09375 0.49017 0.0
H722 H 0.30132 1.01207 0.46382 0.0
H723 H 0.31355 1.02456 0.40096 0.0
C724 C 0.31099 1.01852 0.57177 0.0
C725 C 0.33546 1.01337 0.58703 0.0
C726 C 0.31533 0.03157 0.53759 0.0
C727 C 0.34454 0.0403 0.51876 0.0
C728 C 0.3694 0.03624 0.53478 0.0
C729 C 0.3648 1.02273 0.56844 0.0
C730 C 0.3861 0.08591 0.43521 0.0
C731 C 0.36302 0.06598 0.40943 0.0
C732 C 0.37916 0.07881 0.47094 0.0
C733 C 0.34891 0.05172 0.4817 0.0
C734 C 0.32478 0.03323 0.45616 0.0
C735 C 0.3318 0.04031 0.42024 0.0
H736 H 0.32355 0.29304 0.56267 0.0
H737 H 0.30419 0.36744 0.60585 0.0
H738 H 0.32538 0.27417 0.62226 0.0
H739 H 0.3079 0.35006 0.66507 0.0
H740 H 0.30693 0.30992 0.77058 0.0
H741 H 0.28698 0.31014 0.71113 0.0
H742 H 0.36556 0.29731 0.66787 0.0
H743 H 0.38409 0.29517 0.72698 0.0
C744 C 0.31927 0.30509 0.5848 0.0
C745 C 0.31449 0.33224 0.57953 0.0
C746 C 0.3206 0.29449 0.61898 0.0
C747 C 0.3173 0.31091 0.64853 0.0
C748 C 0.31037 0.33664 0.64305 0.0
C749 C 0.30883 0.34705 0.60899 0.0
C750 C 0.31939 0.30632 0.74839 0.0
C751 C 0.34757 0.30329 0.75351 0.0
C752 C 0.30815 0.30673 0.71429 0.0
C753 C 0.32495 0.30424 0.68464 0.0
C754 C 0.35183 0.2991 0.68997 0.0
C755 C 0.36288 0.29848 0.72396 0.0
H756 H 0.27746 0.3562 0.89158 0.0
H757 H 0.27144 0.27085 0.94317 0.0
H758 H 0.2274 0.34669 0.9224 0.0
H759 H 0.22181 0.26194 0.97501 0.0
H760 H 0.18254 0.31215 0.06169 0.0
H761 H 0.21897 0.30227 0.02317 0.0
H762 H 0.16394 0.30355 0.93227 0.0
H763 H 0.12695 0.31242 0.97104 0.0
C764 C 0.26481 0.3348 0.9087 0.0
C765 C 0.27815 0.31408 0.91463 0.0
C766 C 0.23617 0.32937 0.92641 0.0
C767 C 0.2207 0.30361 0.95122 0.0
C768 C 0.23317 0.28194 0.95601 0.0
C769 C 0.26138 0.28686 0.93753 0.0
C770 C 0.17735 0.30873 0.03364 0.0
C771 C 0.15151 0.3122 0.01938 0.0
C772 C 0.19826 0.30323 0.01156 0.0
C773 C 0.19434 0.30216 0.97467 0.0
C774 C 0.16749 0.30414 0.96057 0.0
C775 C 0.14613 0.30887 0.98276 0.0
H776 H 1.01769 0.24687 0.10479 0.0
H777 H 0.94934 0.27415 0.06114 0.0
H778 H 0.97171 0.20043 0.13633 0.0
H779 H 0.90378 0.22802 0.09201 0.0
H780 H 0.85199 0.19244 0.19724 0.0
H781 H 0.8981 0.22757 0.15924 0.0
H782 H 0.91086 0.1446 0.13288 0.0
H783 H 0.86358 0.10853 0.17135 0.0
C784 C 0.99269 0.24202 0.10061 0.0
C785 C 0.98706 0.26413 0.08048 0.0
C786 C 0.96641 0.21559 0.11887 0.0
C787 C 0.93424 0.211 0.11723 0.0
C788 C 0.92836 0.23124 0.09432 0.0
C789 C 0.95442 0.25751 0.07635 0.0
C790 C 0.86453 0.18142 0.18362 0.0
C791 C 0.85373 0.14747 0.18719 0.0
C792 C 0.89097 0.20166 0.1616 0.0
C793 C 0.90771 0.18877 0.14241 0.0
C794 C 0.89825 0.15518 0.14717 0.0
C795 C 0.87131 0.1346 0.16927 0.0
H796 H 0.78186 0.86422 0.35172 0.0
H797 H 0.67751 0.82407 0.33164 0.0
H798 H 0.79423 0.91188 0.31342 0.0
H799 H 0.6898 0.87066 0.29385 0.0
H800 H 0.72102 0.93734 0.1993 0.0
H801 H 0.71693 0.89182 0.23486 0.0
H802 H 0.7831 0.96166 0.31206 0.0
H803 H 0.78743 1.00747 0.27633 0.0
C804 C 0.76165 0.86551 0.33929 0.0
C805 C 0.72871 0.84024 0.34489 0.0
C806 C 0.7687 0.89277 0.31741 0.0
C807 C 0.74298 0.89485 0.30024 0.0
C808 C 0.71024 0.86962 0.3061 0.0
C809 C 0.70322 0.84292 0.32814 0.0
C810 C 0.7351 0.94315 0.22358 0.0
C811 C 0.75416 0.97614 0.23512 0.0
C812 C 0.73264 0.91699 0.24407 0.0
C813 C 0.74942 0.92307 0.27651 0.0
C814 C 0.76993 0.95613 0.28719 0.0
C815 C 0.77216 0.98236 0.26681 0.0
H816 H 0.8249 0.73102 0.37041 0.0
H817 H 0.79393 0.77055 0.45594 0.0
H818 H 0.86772 0.73188 0.40841 0.0
H819 H 0.83607 0.77054 0.49395 0.0
H820 H 0.87695 0.71016 0.55643 0.0
H821 H 0.84169 0.72264 0.51945 0.0
H822 H 0.92109 0.77106 0.44398 0.0
H823 H 0.95677 0.75912 0.48175 0.0
C824 C 0.82728 0.74011 0.39718 0.0
C825 C 0.80539 0.75014 0.41017 0.0
C826 C 0.852 0.74077 0.4189 0.0
C827 C 0.8552 0.75109 0.45429 0.0
C828 C 0.83406 0.76213 0.46693 0.0
C829 C 0.80975 0.76199 0.44509 0.0
C830 C 0.88721 0.72442 0.53251 0.0
C831 C 0.91974 0.73414 0.52225 0.0
C832 C 0.867 0.7315 0.51125 0.0
C833 C 0.87851 0.74772 0.47867 0.0
C834 C 0.91148 0.75844 0.46888 0.0
C835 C 0.93204 0.75202 0.49068 0.0
H836 H 0.21953 0.86131 0.69836 0.0
H837 H 0.21108 0.94564 0.66601 0.0
H838 H 0.17337 0.82546 0.66065 0.0
H839 H 0.16368 0.90883 0.62795 0.0
H840 H 0.05603 0.8037 0.60112 0.0
H841 H 0.10067 0.85073 0.63352 0.0
H842 H 0.17143 0.82621 0.59093 0.0
H843 H 0.12733 0.7797 0.55897 0.0
C844 C 0.20758 0.87225 0.68349 0.0
C845 C 0.21939 0.90654 0.68502 0.0
C846 C 0.1811 0.85159 0.66171 0.0
C847 C 0.16528 0.86438 0.64079 0.0
C848 C 0.17555 0.89834 0.64368 0.0
C849 C 0.20256 0.91934 0.66554 0.0
C850 C 0.08135 0.80932 0.59751 0.0
C851 C 0.08819 0.78796 0.5775 0.0
C852 C 0.10685 0.8361 0.61624 0.0
C853 C 0.13944 0.84178 0.61522 0.0
C854 C 0.14651 0.82221 0.59262 0.0
C855 C 0.12126 0.79567 0.5741 0.0
H856 H 0.34297 0.17828 0.89417 0.0
H857 H 0.31999 0.22568 0.81001 0.0
H858 H 0.32836 0.13043 0.85593 0.0
H859 H 0.30665 0.17835 0.77113 0.0
H860 H 0.35824 0.11858 0.71747 0.0
H861 H 0.35185 0.16016 0.75057 0.0
H862 H 0.27741 0.08295 0.81577 0.0
H863 H 0.28283 0.04115 0.78157 0.0
C864 C 0.33375 0.17791 0.86783 0.0
C865 C 0.33197 0.2053 0.85523 0.0
C866 C 0.32545 0.15061 0.84592 0.0
C867 C 0.31627 0.15063 0.81057 0.0
C868 C 0.31338 0.17757 0.79832 0.0
C869 C 0.32076 0.20449 0.82062 0.0
C870 C 0.3394 0.11038 0.73777 0.0
C871 C 0.32069 0.07661 0.74657 0.0
C872 C 0.33584 0.13418 0.75683 0.0
C873 C 0.31421 0.1248 0.78583 0.0
C874 C 0.29417 0.09084 0.79347 0.0
C875 C 0.29705 0.06692 0.77368 0.0
H876 H 0.78412 0.78791 0.88081 0.0
H877 H 0.73895 0.81537 0.96372 0.0
H878 H 0.78312 0.82911 0.84198 0.0
H879 H 0.73913 0.85753 0.92501 0.0
H880 H 0.76853 0.94773 0.85147 0.0
H881 H 0.7798 0.91221 0.89032 0.0
H882 H 0.73387 0.83266 0.81453 0.0
H883 H 0.72187 0.86773 0.77645 0.0
C884 C 0.77397 0.80265 0.89087 0.0
C885 C 0.76086 0.79756 0.92527 0.0
C886 C 0.77364 0.82649 0.86859 0.0
C887 C 0.76095 0.84652 0.88034 0.0
C888 C 0.74927 0.84262 0.91524 0.0
C889 C 0.74903 0.8183 0.93736 0.0
C890 C 0.7618 0.92299 0.84274 0.0
C891 C 0.74478 0.91059 0.81072 0.0
C892 C 0.76784 0.90254 0.86514 0.0
C893 C 0.75765 0.86959 0.85552 0.0
C894 C 0.74226 0.85796 0.82259 0.0
C895 C 0.73549 0.87805 0.80072 0.0
H896 H 0.89339 0.73541 0.93978 0.0
H897 H 0.84418 0.74446 0.03172 0.0
H898 H 0.94185 0.74764 0.97582 0.0
H899 H 0.89227 0.75575 0.06815 0.0
H900 H 0.95523 0.70586 0.11116 0.0
H901 H 0.91293 0.71352 0.08159 0.0
H902 H 0.98852 0.79174 0.01825 0.0
H903 H 1.03105 0.78474 0.04886 0.0
C904 C 0.89351 0.74124 0.96749 0.0
C905 C 0.86544 0.73975 0.98286 0.0
C906 C 0.92117 0.74815 0.98816 0.0
C907 C 0.92092 0.75269 0.02486 0.0
C908 C 0.89326 0.75249 0.03996 0.0
C909 C 0.86589 0.74634 0.0191 0.0
C910 C 0.96292 0.72566 0.09203 0.0
C911 C 0.99645 0.74509 0.08278 0.0
C912 C 0.9387 0.72999 0.07497 0.0
C913 C 0.94736 0.75317 0.04748 0.0
C914 C 0.98111 0.77373 0.03936 0.0
C915 C 1.00547 0.76999 0.05715 0.0
H916 H 0.13188 0.86265 0.14802 0.0
H917 H 0.20425 0.83098 0.15601 0.0
H918 H 0.16598 0.90946 0.18786 0.0
H919 H 0.23724 0.87657 0.19557 0.0
H920 H 0.26964 0.93648 0.29579 0.0
H921 H 0.22929 0.8916 0.25857 0.0
H922 H 0.22649 0.96301 0.18836 0.0
H923 H 0.26703 1.00815 0.22561 0.0
C924 C 0.15497 0.86568 0.15802 0.0
C925 C 0.1652 0.84295 0.14868 0.0
C926 C 0.17444 0.89241 0.18084 0.0
C927 C 0.20408 0.8964 0.19527 0.0
C928 C 0.21431 0.87391 0.18547 0.0
C929 C 0.19536 0.84781 0.16244 0.0
C930 C 0.26009 0.94271 0.27278 0.0
C931 C 0.27198 0.976 0.26352 0.0
C932 C 0.23704 0.91696 0.25134 0.0
C933 C 0.22491 0.92376 0.22032 0.0
C934 C 0.23529 0.95696 0.2121 0.0
C935 C 0.25871 0.98279 0.23334 0.0
H936 H 0.28457 0.24977 0.39457 0.0
H937 H 0.37861 0.27416 0.44056 0.0
H938 H 0.28322 0.20276 0.36336 0.0
H939 H 0.37711 0.22741 0.41008 0.0
H940 H 0.39397 0.19152 0.30526 0.0
H941 H 0.38387 0.22707 0.34345 0.0
H942 H 0.286 0.14607 0.36662 0.0
H943 H 0.2963 0.10953 0.32789 0.0
C944 C 0.30414 0.24417 0.39932 0.0
C945 C 0.33174 0.26563 0.42 0.0
C946 C 0.30347 0.2174 0.38126 0.0
C947 C 0.33039 0.21181 0.38369 0.0
C948 C 0.35627 0.23141 0.40715 0.0
C949 C 0.35701 0.25803 0.42489 0.0
C950 C 0.37015 0.18099 0.31826 0.0
C951 C 0.34608 0.14744 0.31363 0.0
C952 C 0.36445 0.20147 0.34041 0.0
C953 C 0.33441 0.18927 0.35871 0.0
C954 C 0.3095 0.15611 0.35304 0.0
C955 C 0.31536 0.13526 0.33082 0.0
H956 H 0.13139 0.35488 0.60694 0.0
H957 H 0.05361 0.2703 0.55277 0.0
H958 H 0.17292 0.34685 0.57612 0.0
H959 H 0.09531 0.26295 0.52084 0.0
H960 H 0.18647 0.31715 0.43608 0.0
H961 H 0.1394 0.30593 0.47405 0.0
H962 H 0.1938 0.30374 0.56507 0.0
H963 H 0.2404 0.31386 0.5268 0.0
C964 C 0.12319 0.33391 0.58929 0.0
C965 C 0.08928 0.31295 0.58266 0.0
C966 C 0.14696 0.32935 0.57155 0.0
C967 C 0.13738 0.30432 0.54597 0.0
C968 C 0.10339 0.2824 0.54045 0.0
C969 C 0.07955 0.2864 0.55898 0.0
C970 C 0.18768 0.31274 0.46397 0.0
C971 C 0.21666 0.31554 0.47843 0.0
C972 C 0.16084 0.30646 0.48574 0.0
C973 C 0.1629 0.30394 0.52256 0.0
C974 C 0.19144 0.3054 0.53681 0.0
C975 C 0.21795 0.31087 0.5149 0.0
H976 H 0.95432 0.22819 0.69495 0.0
H977 H 0.89377 0.17441 0.60587 0.0
H978 H 0.91866 0.18174 0.73393 0.0
H979 H 0.85865 0.12751 0.64451 0.0
H980 H 0.80917 0.0418 0.72285 0.0
H981 H 0.85732 0.08303 0.68934 0.0
H982 H 0.85636 0.16149 0.7488 0.0
H983 H 0.80779 0.12048 0.7814 0.0
C984 C 0.93425 0.2058 0.68352 0.0
C985 C 0.92712 0.20451 0.64734 0.0
C986 C 0.91367 0.17938 0.70584 0.0
C987 C 0.88588 0.15092 0.69229 0.0
C988 C 0.8801 0.14887 0.65567 0.0
C989 C 0.90022 0.17562 0.63352 0.0
C990 C 0.81993 0.06779 0.72954 0.0
C991 C 0.8048 0.07792 0.75491 0.0
C992 C 0.8473 0.09139 0.71012 0.0
C993 C 0.86059 0.12551 0.71637 0.0
C994 C 0.84692 0.13541 0.74356 0.0
C995 C 0.81911 0.11193 0.76228 0.0
loop_
_geom_bond_atom_site_label_1
_geom_bond_atom_site_label_2
_geom_bond_distance
_geom_bond_site_symmetry_2
_ccdc_geom_bond_type
C0 C1 1.351 . S
C0 N3 1.368 . S
C0 H5 0.931 . S
C1 C0 1.351 . S
C1 N2 1.373 . S
C1 H29 0.930 . S
N2 C1 1.373 . S
N2 C4 1.340 . S
N3 C0 1.368 . S
N3 C4 1.321 . S
N3 Co6 2.135 1_556 S
C4 N2 1.340 . S
C4 N3 1.321 . S
C4 H28 0.930 . S
H5 C0 0.931 . S
Co6 N3 2.135 1_554 S
Co6 N9 2.121 . S
Co6 O14 2.055 . S
Co6 O17 2.039 . S
Co6 N20 2.140 . S
C7 O8 1.227 . S
C7 O17 1.265 . S
O8 C7 1.227 . S
N9 Co6 2.121 . S
N9 C11 1.375 . S
N9 C12 1.313 . S
C10 C11 1.338 . S
C10 N13 1.377 . S
C10 H30 0.930 . S
C11 N9 1.375 . S
C11 C10 1.338 . S
C11 H15 0.931 . S
C12 N9 1.313 . S
C12 N13 1.344 . S
C12 H16 0.930 . S
N13 C10 1.377 . S
N13 C12 1.344 . S
O14 Co6 2.055 . S
O14 C18 1.253 . S
H15 C11 0.931 . S
H16 C12 0.930 . S
O17 Co6 2.039 . S
O17 C7 1.265 . S
C18 O14 1.253 . S
C18 O19 1.227 . S
O19 C18 1.227 . S
N20 Co6 2.140 . S
N20 C23 1.346 . S
N20 C24 1.345 . S
C21 C22 1.387 . S
C21 C25 1.391 . S
C22 C21 1.387 . S
C22 C23 1.369 . S
C22 H31 0.929 . S
C23 N20 1.346 . S
C23 C22 1.369 . S
C23 H26 0.928 . S
C24 N20 1.345 . S
C24 C25 1.371 . S
C24 H27 0.931 . S
C25 C21 1.391 . S
C25 C24 1.371 . S
C25 H32 0.930 . S
H26 C23 0.928 . S
H27 C24 0.931 . S
H28 C4 0.930 . S
H29 C1 0.930 . S
H30 C10 0.930 . S
H31 C22 0.929 . S
H32 C25 0.930 . S
C33 C34 1.351 . S
C33 N36 1.368 . S
C33 H38 0.931 . S
C34 C33 1.351 . S
C34 N35 1.373 . S
C34 H62 0.930 . S
N35 C34 1.373 . S
N35 C37 1.340 . S
N36 C33 1.368 . S
N36 C37 1.321 . S
N36 Co39 2.135 . S
C37 N35 1.340 . S
C37 N36 1.321 . S
C37 H61 0.930 . S
H38 C33 0.931 . S
Co39 N36 2.135 . S
Co39 N42 2.121 . S
Co39 O47 2.055 . S
Co39 O50 2.039 . S
Co39 N53 2.140 . S
C40 O41 1.227 . S
C40 O50 1.265 . S
O41 C40 1.227 . S
N42 Co39 2.121 . S
N42 C44 1.375 . S
N42 C45 1.313 . S
C43 C44 1.338 . S
C43 N46 1.377 . S
C43 H63 0.930 . S
C44 N42 1.375 . S
C44 C43 1.338 . S
C44 H48 0.931 . S
C45 N42 1.313 . S
C45 N46 1.344 . S
C45 H49 0.930 . S
N46 C43 1.377 . S
N46 C45 1.344 . S
O47 Co39 2.055 . S
O47 C51 1.253 . S
H48 C44 0.931 . S
H49 C45 0.930 . S
O50 Co39 2.039 . S
O50 C40 1.265 . S
C51 O47 1.253 . S
C51 O52 1.227 . S
O52 C51 1.227 . S
N53 Co39 2.140 . S
N53 C56 1.346 . S
N53 C57 1.345 . S
C54 C55 1.387 . S
C54 C58 1.391 . S
C55 C54 1.387 . S
C55 C56 1.369 . S
C55 H64 0.929 . S
C56 N53 1.346 . S
C56 C55 1.369 . S
C56 H59 0.928 . S
C57 N53 1.345 . S
C57 C58 1.371 . S
C57 H60 0.931 . S
C58 C54 1.391 . S
C58 C57 1.371 . S
C58 H65 0.930 . S
H59 C56 0.928 . S
H60 C57 0.931 . S
H61 C37 0.930 . S
H62 C34 0.930 . S
H63 C43 0.930 . S
H64 C55 0.929 . S
H65 C58 0.930 . S
C66 C67 1.351 . S
C66 N69 1.368 . S
C66 H71 0.931 . S
C67 C66 1.351 . S
C67 N68 1.373 . S
C67 H95 0.930 . S
N68 C67 1.373 . S
N68 C70 1.340 . S
N69 C66 1.368 . S
N69 C70 1.321 . S
N69 Co72 2.135 . S
C70 N68 1.340 . S
C70 N69 1.321 . S
C70 H94 0.930 . S
H71 C66 0.931 . S
Co72 N69 2.135 . S
Co72 N75 2.121 . S
Co72 O80 2.055 . S
Co72 O83 2.039 . S
Co72 N86 2.140 . S
C73 O74 1.227 . S
C73 O83 1.265 . S
O74 C73 1.227 . S
N75 Co72 2.121 . S
N75 C77 1.375 . S
N75 C78 1.313 . S
C76 C77 1.338 . S
C76 N79 1.377 . S
C76 H96 0.930 . S
C77 N75 1.375 . S
C77 C76 1.338 . S
C77 H81 0.931 . S
C78 N75 1.313 . S
C78 N79 1.344 . S
C78 H82 0.930 . S
N79 C76 1.377 . S
N79 C78 1.344 . S
O80 Co72 2.055 . S
O80 C84 1.253 . S
H81 C77 0.931 . S
H82 C78 0.930 . S
O83 Co72 2.039 . S
O83 C73 1.265 . S
C84 O80 1.253 . S
C84 O85 1.227 . S
O85 C84 1.227 . S
N86 Co72 2.140 . S
N86 C89 1.346 . S
N86 C90 1.345 . S
C87 C88 1.387 . S
C87 C91 1.391 . S
C88 C87 1.387 . S
C88 C89 1.369 . S
C88 H97 0.929 . S
C89 N86 1.346 . S
C89 C88 1.369 . S
C89 H92 0.928 . S
C90 N86 1.345 . S
C90 C91 1.371 . S
C90 H93 0.931 . S
C91 C87 1.391 . S
C91 C90 1.371 . S
C91 H98 0.930 . S
H92 C89 0.928 . S
H93 C90 0.931 . S
H94 C70 0.930 . S
H95 C67 0.930 . S
H96 C76 0.930 . S
H97 C88 0.929 . S
H98 C91 0.930 . S
C99 C100 1.351 . S
C99 N102 1.368 . S
C99 H104 0.931 . S
C100 C99 1.351 . S
C100 N101 1.373 . S
C100 H128 0.930 . S
N101 C100 1.373 . S
N101 C103 1.340 . S
N102 C99 1.368 . S
N102 C103 1.321 . S
N102 Co105 2.135 . S
C103 N101 1.340 . S
C103 N102 1.321 . S
C103 H127 0.930 . S
H104 C99 0.931 . S
Co105 N102 2.135 . S
Co105 N108 2.121 . S
Co105 O113 2.055 . S
Co105 O116 2.039 . S
Co105 N119 2.140 . S
C106 O107 1.227 . S
C106 O116 1.265 . S
O107 C106 1.227 . S
N108 Co105 2.121 . S
N108 C110 1.375 . S
N108 C111 1.313 . S
C109 C110 1.338 . S
C109 N112 1.377 . S
C109 H129 0.930 . S
C110 N108 1.375 . S
C110 C109 1.338 . S
C110 H114 0.931 . S
C111 N108 1.313 . S
C111 N112 1.344 . S
C111 H115 0.930 . S
N112 C109 1.377 . S
N112 C111 1.344 . S
O113 Co105 2.055 . S
O113 C117 1.253 . S
H114 C110 0.931 . S
H115 C111 0.930 . S
O116 Co105 2.039 . S
O116 C106 1.265 . S
C117 O113 1.253 . S
C117 O118 1.227 . S
O118 C117 1.227 . S
N119 Co105 2.140 . S
N119 C122 1.346 . S
N119 C123 1.345 . S
C120 C121 1.387 . S
C120 C124 1.391 . S
C121 C120 1.387 . S
C121 C122 1.369 . S
C121 H130 0.929 . S
C122 N119 1.346 . S
C122 C121 1.369 . S
C122 H125 0.928 . S
C123 N119 1.345 . S
C123 C124 1.371 . S
C123 H126 0.931 . S
C124 C120 1.391 . S
C124 C123 1.371 . S
C124 H131 0.930 . S
H125 C122 0.928 . S
H126 C123 0.931 . S
H127 C103 0.930 . S
H128 C100 0.930 . S
H129 C109 0.930 . S
H130 C121 0.929 . S
H131 C124 0.930 . S
C132 C133 1.351 . S
C132 N135 1.368 . S
C132 H137 0.931 . S
C133 C132 1.351 . S
C133 N134 1.373 . S
C133 H161 0.930 . S
N134 C133 1.373 . S
N134 C136 1.340 . S
N135 C132 1.368 . S
N135 C136 1.321 . S
N135 Co138 2.135 . S
C136 N134 1.340 . S
C136 N135 1.321 . S
C136 H160 0.930 . S
H137 C132 0.931 . S
Co138 N135 2.135 . S
Co138 N141 2.121 . S
Co138 O146 2.055 . S
Co138 O149 2.039 . S
Co138 N152 2.140 . S
C139 O140 1.227 . S
C139 O149 1.265 . S
O140 C139 1.227 . S
N141 Co138 2.121 . S
N141 C143 1.375 . S
N141 C144 1.313 . S
C142 C143 1.338 . S
C142 N145 1.377 . S
C142 H162 0.930 . S
C143 N141 1.375 . S
C143 C142 1.338 . S
C143 H147 0.931 . S
C144 N141 1.313 . S
C144 N145 1.344 . S
C144 H148 0.930 . S
N145 C142 1.377 . S
N145 C144 1.344 . S
O146 Co138 2.055 . S
O146 C150 1.253 . S
H147 C143 0.931 . S
H148 C144 0.930 . S
O149 Co138 2.039 . S
O149 C139 1.265 . S
C150 O146 1.253 . S
C150 O151 1.227 . S
O151 C150 1.227 . S
N152 Co138 2.140 . S
N152 C155 1.346 . S
N152 C156 1.345 . S
C153 C154 1.387 . S
C153 C157 1.391 . S
C154 C153 1.387 . S
C154 C155 1.369 . S
C154 H163 0.929 . S
C155 N152 1.346 . S
C155 C154 1.369 . S
C155 H158 0.928 . S
C156 N152 1.345 . S
C156 C157 1.371 . S
C156 H159 0.931 . S
C157 C153 1.391 . S
C157 C156 1.371 . S
C157 H164 0.930 . S
H158 C155 0.928 . S
H159 C156 0.931 . S
H160 C136 0.930 . S
H161 C133 0.930 . S
H162 C142 0.930 . S
H163 C154 0.929 . S
H164 C157 0.930 . S
C165 C166 1.351 . S
C165 N168 1.368 . S
C165 H170 0.931 . S
C166 C165 1.351 . S
C166 N167 1.373 . S
C166 H194 0.930 . S
N167 C166 1.373 . S
N167 C169 1.340 . S
N168 C165 1.368 . S
N168 C169 1.321 . S
N168 Co171 2.135 . S
C169 N167 1.340 . S
C169 N168 1.321 . S
C169 H193 0.930 . S
H170 C165 0.931 . S
Co171 N168 2.135 . S
Co171 N174 2.121 . S
Co171 O179 2.055 . S
Co171 O182 2.039 . S
Co171 N185 2.140 . S
C172 O173 1.227 . S
C172 O182 1.265 . S
O173 C172 1.227 . S
N174 Co171 2.121 . S
N174 C176 1.375 . S
N174 C177 1.313 . S
C175 C176 1.338 . S
C175 N178 1.377 . S
C175 H195 0.930 1_556 S
C176 N174 1.375 . S
C176 C175 1.338 . S
C176 H180 0.931 . S
C177 N174 1.313 . S
C177 N178 1.344 . S
C177 H181 0.930 . S
N178 C175 1.377 . S
N178 C177 1.344 . S
O179 Co171 2.055 . S
O179 C183 1.253 . S
H180 C176 0.931 . S
H181 C177 0.930 . S
O182 Co171 2.039 . S
O182 C172 1.265 . S
C183 O179 1.253 . S
C183 O184 1.227 . S
O184 C183 1.227 . S
N185 Co171 2.140 . S
N185 C188 1.346 . S
N185 C189 1.345 . S
C186 C187 1.387 . S
C186 C190 1.391 . S
C187 C186 1.387 . S
C187 C188 1.369 . S
C187 H196 0.929 . S
C188 N185 1.346 . S
C188 C187 1.369 . S
C188 H191 0.928 . S
C189 N185 1.345 . S
C189 C190 1.371 . S
C189 H192 0.931 . S
C190 C186 1.391 . S
C190 C189 1.371 . S
C190 H197 0.930 . S
H191 C188 0.928 . S
H192 C189 0.931 . S
H193 C169 0.930 . S
H194 C166 0.930 . S
H195 C175 0.930 1_554 S
H196 C187 0.929 . S
H197 C190 0.930 . S
C198 C199 1.351 . S
C198 N201 1.368 . S
C198 H203 0.931 . S
C199 C198 1.351 . S
C199 N200 1.373 . S
C199 H227 0.930 . S
N200 C199 1.373 . S
N200 C202 1.340 . S
N201 C198 1.368 . S
N201 C202 1.321 . S
N201 Co204 2.135 . S
C202 N200 1.340 . S
C202 N201 1.321 . S
C202 H226 0.930 . S
H203 C198 0.931 . S
Co204 N201 2.135 . S
Co204 N207 2.121 . S
Co204 O212 2.055 . S
Co204 O215 2.039 . S
Co204 N218 2.140 . S
C205 O206 1.227 . S
C205 O215 1.265 . S
O206 C205 1.227 . S
N207 Co204 2.121 . S
N207 C209 1.375 . S
N207 C210 1.313 . S
C208 C209 1.338 . S
C208 N211 1.377 . S
C208 H228 0.930 . S
C209 N207 1.375 . S
C209 C208 1.338 . S
C209 H213 0.931 . S
C210 N207 1.313 . S
C210 N211 1.344 . S
C210 H214 0.930 . S
N211 C208 1.377 . S
N211 C210 1.344 . S
O212 Co204 2.055 . S
O212 C216 1.253 . S
H213 C209 0.931 . S
H214 C210 0.930 . S
O215 Co204 2.039 . S
O215 C205 1.265 . S
C216 O212 1.253 . S
C216 O217 1.227 . S
O217 C216 1.227 . S
N218 Co204 2.140 . S
N218 C221 1.346 . S
N218 C222 1.345 . S
C219 C220 1.387 . S
C219 C223 1.391 . S
C220 C219 1.387 . S
C220 C221 1.369 . S
C220 H229 0.929 . S
C221 N218 1.346 . S
C221 C220 1.369 . S
C221 H224 0.928 . S
C222 N218 1.345 . S
C222 C223 1.371 . S
C222 H225 0.931 . S
C223 C219 1.391 . S
C223 C222 1.371 . S
C223 H230 0.930 . S
H224 C221 0.928 . S
H225 C222 0.931 . S
H226 C202 0.930 . S
H227 C199 0.930 . S
H228 C208 0.930 . S
H229 C220 0.929 . S
H230 C223 0.930 . S
C231 C232 1.351 . S
C231 N234 1.368 . S
C231 H236 0.931 . S
C232 C231 1.351 . S
C232 N233 1.373 . S
C232 H260 0.930 . S
N233 C232 1.373 . S
N233 C235 1.340 . S
N234 C231 1.368 . S
N234 C235 1.321 . S
N234 Co237 2.135 1_554 S
C235 N233 1.340 . S
C235 N234 1.321 . S
C235 H259 0.930 . S
H236 C231 0.931 . S
Co237 N234 2.135 1_556 S
Co237 N240 2.121 . S
Co237 O245 2.055 . S
Co237 O248 2.039 . S
Co237 N251 2.140 . S
C238 O239 1.227 . S
C238 O248 1.265 . S
O239 C238 1.227 . S
N240 Co237 2.121 . S
N240 C242 1.375 . S
N240 C243 1.313 . S
C241 C242 1.338 . S
C241 N244 1.377 . S
C241 H261 0.930 . S
C242 N240 1.375 . S
C242 C241 1.338 . S
C242 H246 0.931 . S
C243 N240 1.313 . S
C243 N244 1.344 . S
C243 H247 0.930 . S
N244 C241 1.377 . S
N244 C243 1.344 . S
O245 Co237 2.055 . S
O245 C249 1.253 . S
H246 C242 0.931 . S
H247 C243 0.930 . S
O248 Co237 2.039 . S
O248 C238 1.265 . S
C249 O245 1.253 . S
C249 O250 1.227 . S
O250 C249 1.227 . S
N251 Co237 2.140 . S
N251 C254 1.346 . S
N251 C255 1.345 . S
C252 C253 1.387 . S
C252 C256 1.391 . S
C253 C252 1.387 . S
C253 C254 1.369 . S
C253 H262 0.929 . S
C254 N251 1.346 . S
C254 C253 1.369 . S
C254 H257 0.928 . S
C255 N251 1.345 . S
C255 C256 1.371 . S
C255 H258 0.931 . S
C256 C252 1.391 . S
C256 C255 1.371 . S
C256 H263 0.930 . S
H257 C254 0.928 . S
H258 C255 0.931 . S
H259 C235 0.930 . S
H260 C232 0.930 . S
H261 C241 0.930 . S
H262 C253 0.929 . S
H263 C256 0.930 . S
C264 C265 1.351 . S
C264 N267 1.368 . S
C264 H269 0.931 . S
C265 C264 1.351 . S
C265 N266 1.373 . S
C265 H293 0.930 . S
N266 C265 1.373 . S
N266 C268 1.340 . S
N267 C264 1.368 . S
N267 C268 1.321 . S
N267 Co270 2.135 . S
C268 N266 1.340 . S
C268 N267 1.321 . S
C268 H292 0.930 . S
H269 C264 0.931 . S
Co270 N267 2.135 . S
Co270 N273 2.121 . S
Co270 O278 2.055 . S
Co270 O281 2.039 . S
Co270 N284 2.140 . S
C271 O272 1.227 . S
C271 O281 1.265 . S
O272 C271 1.227 . S
N273 Co270 2.121 . S
N273 C275 1.375 . S
N273 C276 1.313 . S
C274 C275 1.338 . S
C274 N277 1.377 . S
C274 H294 0.930 1_554 S
C275 N273 1.375 . S
C275 C274 1.338 . S
C275 H279 0.931 . S
C276 N273 1.313 . S
C276 N277 1.344 . S
C276 H280 0.930 . S
N277 C274 1.377 . S
N277 C276 1.344 . S
O278 Co270 2.055 . S
O278 C282 1.253 . S
H279 C275 0.931 . S
H280 C276 0.930 . S
O281 Co270 2.039 . S
O281 C271 1.265 . S
C282 O278 1.253 . S
C282 O283 1.227 . S
O283 C282 1.227 . S
N284 Co270 2.140 . S
N284 C287 1.346 . S
N284 C288 1.345 . S
C285 C286 1.387 . S
C285 C289 1.391 . S
C286 C285 1.387 . S
C286 C287 1.369 . S
C286 H295 0.929 . S
C287 N284 1.346 . S
C287 C286 1.369 . S
C287 H290 0.928 . S
C288 N284 1.345 . S
C288 C289 1.371 . S
C288 H291 0.931 . S
C289 C285 1.391 . S
C289 C288 1.371 . S
C289 H296 0.930 . S
H290 C287 0.928 . S
H291 C288 0.931 . S
H292 C268 0.930 . S
H293 C265 0.930 . S
H294 C274 0.930 1_556 S
H295 C286 0.929 . S
H296 C289 0.930 . S
C297 C298 1.351 . S
C297 N300 1.368 . S
C297 H302 0.931 . S
C298 C297 1.351 . S
C298 N299 1.373 . S
C298 H326 0.930 . S
N299 C298 1.373 . S
N299 C301 1.340 . S
N300 C297 1.368 . S
N300 C301 1.321 . S
N300 Co303 2.135 . S
C301 N299 1.340 . S
C301 N300 1.321 . S
C301 H325 0.930 . S
H302 C297 0.931 . S
Co303 N300 2.135 . S
Co303 N306 2.121 . S
Co303 O311 2.055 . S
Co303 O314 2.039 . S
Co303 N317 2.140 . S
C304 O305 1.227 . S
C304 O314 1.265 . S
O305 C304 1.227 . S
N306 Co303 2.121 . S
N306 C308 1.375 . S
N306 C309 1.313 . S
C307 C308 1.338 . S
C307 N310 1.377 . S
C307 H327 0.930 . S
C308 N306 1.375 . S
C308 C307 1.338 . S
C308 H312 0.931 . S
C309 N306 1.313 . S
C309 N310 1.344 . S
C309 H313 0.930 . S
N310 C307 1.377 . S
N310 C309 1.344 . S
O311 Co303 2.055 . S
O311 C315 1.253 . S
H312 C308 0.931 . S
H313 C309 0.930 . S
O314 Co303 2.039 . S
O314 C304 1.265 . S
C315 O311 1.253 . S
C315 O316 1.227 . S
O316 C315 1.227 . S
N317 Co303 2.140 . S
N317 C320 1.346 . S
N317 C321 1.345 . S
C318 C319 1.387 . S
C318 C322 1.391 . S
C319 C318 1.387 . S
C319 C320 1.369 . S
C319 H328 0.929 . S
C320 N317 1.346 . S
C320 C319 1.369 . S
C320 H323 0.928 . S
C321 N317 1.345 . S
C321 C322 1.371 . S
C321 H324 0.931 . S
C322 C318 1.391 . S
C322 C321 1.371 . S
C322 H329 0.930 . S
H323 C320 0.928 . S
H324 C321 0.931 . S
H325 C301 0.930 . S
H326 C298 0.930 . S
H327 C307 0.930 . S
H328 C319 0.929 . S
H329 C322 0.930 . S
C330 C331 1.351 . S
C330 N333 1.368 . S
C330 H335 0.931 . S
C331 C330 1.351 . S
C331 N332 1.373 . S
C331 H359 0.930 . S
N332 C331 1.373 . S
N332 C334 1.340 . S
N333 C330 1.368 . S
N333 C334 1.321 . S
N333 Co336 2.135 . S
C334 N332 1.340 . S
C334 N333 1.321 . S
C334 H358 0.930 . S
H335 C330 0.931 . S
Co336 N333 2.135 . S
Co336 N339 2.121 . S
Co336 O344 2.055 . S
Co336 O347 2.039 . S
Co336 N350 2.140 . S
C337 O338 1.227 . S
C337 O347 1.265 . S
O338 C337 1.227 . S
N339 Co336 2.121 . S
N339 C341 1.375 . S
N339 C342 1.313 . S
C340 C341 1.338 . S
C340 N343 1.377 . S
C340 H360 0.930 . S
C341 N339 1.375 . S
C341 C340 1.338 . S
C341 H345 0.931 . S
C342 N339 1.313 . S
C342 N343 1.344 . S
C342 H346 0.930 . S
N343 C340 1.377 . S
N343 C342 1.344 . S
O344 Co336 2.055 . S
O344 C348 1.253 . S
H345 C341 0.931 . S
H346 C342 0.930 . S
O347 Co336 2.039 . S
O347 C337 1.265 . S
C348 O344 1.253 . S
C348 O349 1.227 . S
O349 C348 1.227 . S
N350 Co336 2.140 . S
N350 C353 1.346 . S
N350 C354 1.345 . S
C351 C352 1.387 . S
C351 C355 1.391 . S
C352 C351 1.387 . S
C352 C353 1.369 . S
C352 H361 0.929 . S
C353 N350 1.346 . S
C353 C352 1.369 . S
C353 H356 0.928 . S
C354 N350 1.345 . S
C354 C355 1.371 . S
C354 H357 0.931 . S
C355 C351 1.391 . S
C355 C354 1.371 . S
C355 H362 0.930 . S
H356 C353 0.928 . S
H357 C354 0.931 . S
H358 C334 0.930 . S
H359 C331 0.930 . S
H360 C340 0.930 . S
H361 C352 0.929 . S
H362 C355 0.930 . S
C363 C364 1.351 . S
C363 N366 1.368 . S
C363 H368 0.931 . S
C364 C363 1.351 . S
C364 N365 1.373 . S
C364 H392 0.930 . S
N365 C364 1.373 . S
N365 C367 1.340 . S
N366 C363 1.368 . S
N366 C367 1.321 . S
N366 Co369 2.135 . S
C367 N365 1.340 . S
C367 N366 1.321 . S
C367 H391 0.930 . S
H368 C363 0.931 . S
Co369 N366 2.135 . S
Co369 N372 2.121 . S
Co369 O377 2.055 . S
Co369 O380 2.039 . S
Co369 N383 2.140 . S
C370 O371 1.227 . S
C370 O380 1.265 . S
O371 C370 1.227 . S
N372 Co369 2.121 . S
N372 C374 1.375 . S
N372 C375 1.313 . S
C373 C374 1.338 . S
C373 N376 1.377 . S
C373 H393 0.930 . S
C374 N372 1.375 . S
C374 C373 1.338 . S
C374 H378 0.931 . S
C375 N372 1.313 . S
C375 N376 1.344 . S
C375 H379 0.930 . S
N376 C373 1.377 . S
N376 C375 1.344 . S
O377 Co369 2.055 . S
O377 C381 1.253 . S
H378 C374 0.931 . S
H379 C375 0.930 . S
O380 Co369 2.039 . S
O380 C370 1.265 . S
C381 O377 1.253 . S
C381 O382 1.227 . S
O382 C381 1.227 . S
N383 Co369 2.140 . S
N383 C386 1.346 . S
N383 C387 1.345 . S
C384 C385 1.387 . S
C384 C388 1.391 . S
C385 C384 1.387 . S
C385 C386 1.369 . S
C385 H394 0.929 . S
C386 N383 1.346 . S
C386 C385 1.369 . S
C386 H389 0.928 . S
C387 N383 1.345 . S
C387 C388 1.371 . S
C387 H390 0.931 . S
C388 C384 1.391 . S
C388 C387 1.371 . S
C388 H395 0.930 . S
H389 C386 0.928 . S
H390 C387 0.931 . S
H391 C367 0.930 . S
H392 C364 0.930 . S
H393 C373 0.930 . S
H394 C385 0.929 . S
H395 C388 0.930 . S
H396 C404 0.950 . S
H397 C409 0.950 . S
H398 C406 0.950 . S
H399 C408 0.950 . S
H400 C410 0.950 . S
H401 C412 0.950 . S
H402 C414 0.950 . S
H403 C415 0.950 . S
C404 H396 0.950 . S
C404 C405 1.386 . S
C404 C406 1.391 . S
C405 C404 1.386 . S
C405 C409 1.393 . S
C406 H398 0.950 . S
C406 C404 1.391 . S
C406 C407 1.400 . S
C407 C406 1.400 . S
C407 C408 1.398 . S
C407 C413 1.491 . S
C408 H399 0.950 . S
C408 C407 1.398 . S
C408 C409 1.391 . S
C409 H397 0.950 . S
C409 C405 1.393 . S
C409 C408 1.391 . S
C410 H400 0.950 . S
C410 C411 1.386 . S
C410 C412 1.391 . S
C411 C410 1.386 . S
C411 C415 1.393 . S
C412 H401 0.950 . S
C412 C410 1.391 . S
C412 C413 1.400 . S
C413 C407 1.491 . S
C413 C412 1.400 . S
C413 C414 1.398 . S
C414 H402 0.950 . S
C414 C413 1.398 . S
C414 C415 1.391 . S
C415 H403 0.950 . S
C415 C411 1.393 . S
C415 C414 1.391 . S
H416 C424 0.950 . S
H417 C429 0.950 . S
H418 C426 0.950 . S
H419 C428 0.950 . S
H420 C430 0.950 . S
H421 C432 0.950 . S
H422 C434 0.950 . S
H423 C435 0.950 . S
C424 H416 0.950 . S
C424 C425 1.386 . S
C424 C426 1.391 . S
C425 C424 1.386 . S
C425 C429 1.393 . S
C426 H418 0.950 . S
C426 C424 1.391 . S
C426 C427 1.400 . S
C427 C426 1.400 . S
C427 C428 1.398 . S
C427 C433 1.491 . S
C428 H419 0.950 . S
C428 C427 1.398 . S
C428 C429 1.391 . S
C429 H417 0.950 . S
C429 C425 1.393 . S
C429 C428 1.391 . S
C430 H420 0.950 . S
C430 C431 1.386 . S
C430 C432 1.391 . S
C431 C430 1.386 . S
C431 C435 1.393 . S
C432 H421 0.950 . S
C432 C430 1.391 . S
C432 C433 1.400 . S
C433 C427 1.491 . S
C433 C432 1.400 . S
C433 C434 1.398 . S
C434 H422 0.950 . S
C434 C433 1.398 . S
C434 C435 1.391 . S
C435 H423 0.950 . S
C435 C431 1.393 . S
C435 C434 1.391 . S
H436 C444 0.950 . S
H437 C449 0.950 . S
H438 C446 0.950 . S
H439 C448 0.950 . S
H440 C450 0.950 . S
H441 C452 0.950 . S
H442 C454 0.950 . S
H443 C455 0.950 . S
C444 H436 0.950 . S
C444 C445 1.386 . S
C444 C446 1.391 . S
C445 C444 1.386 . S
C445 C449 1.393 . S
C446 H438 0.950 . S
C446 C444 1.391 . S
C446 C447 1.400 . S
C447 C446 1.400 . S
C447 C448 1.398 . S
C447 C453 1.491 . S
C448 H439 0.950 . S
C448 C447 1.398 . S
C448 C449 1.391 . S
C449 H437 0.950 . S
C449 C445 1.393 . S
C449 C448 1.391 . S
C450 H440 0.950 . S
C450 C451 1.386 . S
C450 C452 1.391 . S
C451 C450 1.386 . S
C451 C455 1.393 . S
C452 H441 0.950 . S
C452 C450 1.391 . S
C452 C453 1.400 . S
C453 C447 1.491 . S
C453 C452 1.400 . S
C453 C454 1.398 . S
C454 H442 0.950 . S
C454 C453 1.398 . S
C454 C455 1.391 . S
C455 H443 0.950 . S
C455 C451 1.393 . S
C455 C454 1.391 . S
H456 C464 0.950 . S
H457 C469 0.950 . S
H458 C466 0.950 . S
H459 C468 0.950 . S
H460 C470 0.950 . S
H461 C472 0.950 . S
H462 C474 0.950 . S
H463 C475 0.950 . S
C464 H456 0.950 . S
C464 C465 1.386 . S
C464 C466 1.391 . S
C465 C464 1.386 . S
C465 C469 1.393 . S
C466 H458 0.950 . S
C466 C464 1.391 . S
C466 C467 1.400 . S
C467 C466 1.400 . S
C467 C468 1.398 . S
C467 C473 1.491 . S
C468 H459 0.950 . S
C468 C467 1.398 . S
C468 C469 1.391 . S
C469 H457 0.950 . S
C469 C465 1.393 . S
C469 C468 1.391 . S
C470 H460 0.950 . S
C470 C471 1.386 . S
C470 C472 1.391 . S
C471 C470 1.386 . S
C471 C475 1.393 . S
C472 H461 0.950 . S
C472 C470 1.391 . S
C472 C473 1.400 . S
C473 C467 1.491 . S
C473 C472 1.400 . S
C473 C474 1.398 . S
C474 H462 0.950 . S
C474 C473 1.398 . S
C474 C475 1.391 . S
C475 H463 0.950 . S
C475 C471 1.393 . S
C475 C474 1.391 . S
H476 C484 0.950 . S
H477 C489 0.950 . S
H478 C486 0.950 . S
H479 C488 0.950 . S
H480 C490 0.950 1_554 S
H481 C492 0.950 . S
H482 C494 0.950 . S
H483 C495 0.950 . S
C484 H476 0.950 . S
C484 C485 1.386 . S
C484 C486 1.391 . S
C485 C484 1.386 . S
C485 C489 1.393 . S
C486 H478 0.950 . S
C486 C484 1.391 . S
C486 C487 1.400 . S
C487 C486 1.400 . S
C487 C488 1.398 . S
C487 C493 1.491 . S
C488 H479 0.950 . S
C488 C487 1.398 . S
C488 C489 1.391 . S
C489 H477 0.950 . S
C489 C485 1.393 . S
C489 C488 1.391 . S
C490 H480 0.950 1_556 S
C490 C491 1.386 . S
C490 C492 1.391 . S
C491 C490 1.386 . S
C491 C495 1.393 . S
C492 H481 0.950 . S
C492 C490 1.391 . S
C492 C493 1.400 . S
C493 C487 1.491 . S
C493 C492 1.400 . S
C493 C494 1.398 . S
C494 H482 0.950 . S
C494 C493 1.398 . S
C494 C495 1.391 . S
C495 H483 0.950 . S
C495 C491 1.393 . S
C495 C494 1.391 . S
H496 C504 0.950 . S
H497 C509 0.950 1_556 S
H498 C506 0.950 . S
H499 C508 0.950 . S
H500 C510 0.950 . S
H501 C512 0.950 . S
H502 C514 0.950 . S
H503 C515 0.950 . S
C504 H496 0.950 . S
C504 C505 1.386 . S
C504 C506 1.391 . S
C505 C504 1.386 . S
C505 C509 1.393 . S
C506 H498 0.950 . S
C506 C504 1.391 . S
C506 C507 1.400 . S
C507 C506 1.400 . S
C507 C508 1.398 . S
C507 C513 1.491 . S
C508 H499 0.950 . S
C508 C507 1.398 . S
C508 C509 1.391 . S
C509 H497 0.950 1_554 S
C509 C505 1.393 . S
C509 C508 1.391 . S
C510 H500 0.950 . S
C510 C511 1.386 . S
C510 C512 1.391 . S
C511 C510 1.386 . S
C511 C515 1.393 . S
C512 H501 0.950 . S
C512 C510 1.391 . S
C512 C513 1.400 . S
C513 C507 1.491 . S
C513 C512 1.400 . S
C513 C514 1.398 . S
C514 H502 0.950 . S
C514 C513 1.398 . S
C514 C515 1.391 . S
C515 H503 0.950 . S
C515 C511 1.393 . S
C515 C514 1.391 . S
H516 C524 0.950 . S
H517 C529 0.950 . S
H518 C526 0.950 . S
H519 C528 0.950 . S
H520 C530 0.950 . S
H521 C532 0.950 . S
H522 C534 0.950 . S
H523 C535 0.950 . S
C524 H516 0.950 . S
C524 C525 1.386 . S
C524 C526 1.391 . S
C525 C524 1.386 . S
C525 C529 1.393 . S
C526 H518 0.950 . S
C526 C524 1.391 . S
C526 C527 1.400 . S
C527 C526 1.400 . S
C527 C528 1.398 . S
C527 C533 1.491 . S
C528 H519 0.950 . S
C528 C527 1.398 . S
C528 C529 1.391 . S
C529 H517 0.950 . S
C529 C525 1.393 . S
C529 C528 1.391 . S
C530 H520 0.950 . S
C530 C531 1.386 . S
C530 C532 1.391 . S
C531 C530 1.386 . S
C531 C535 1.393 . S
C532 H521 0.950 . S
C532 C530 1.391 . S
C532 C533 1.400 . S
C533 C527 1.491 . S
C533 C532 1.400 . S
C533 C534 1.398 . S
C534 H522 0.950 . S
C534 C533 1.398 . S
C534 C535 1.391 . S
C535 H523 0.950 . S
C535 C531 1.393 . S
C535 C534 1.391 . S
H536 C544 0.950 . S
H537 C549 0.950 . S
H538 C546 0.950 . S
H539 C548 0.950 . S
H540 C550 0.950 . S
H541 C552 0.950 . S
H542 C554 0.950 . S
H543 C555 0.950 . S
C544 H536 0.950 . S
C544 C545 1.386 . S
C544 C546 1.391 . S
C545 C544 1.386 . S
C545 C549 1.393 . S
C546 H538 0.950 . S
C546 C544 1.391 . S
C546 C547 1.400 . S
C547 C546 1.400 . S
C547 C548 1.398 . S
C547 C553 1.491 . S
C548 H539 0.950 . S
C548 C547 1.398 . S
C548 C549 1.391 . S
C549 H537 0.950 . S
C549 C545 1.393 . S
C549 C548 1.391 . S
C550 H540 0.950 . S
C550 C551 1.386 . S
C550 C552 1.391 . S
C551 C550 1.386 . S
C551 C555 1.393 . S
C552 H541 0.950 . S
C552 C550 1.391 . S
C552 C553 1.400 . S
C553 C547 1.491 . S
C553 C552 1.400 . S
C553 C554 1.398 . S
C554 H542 0.950 . S
C554 C553 1.398 . S
C554 C555 1.391 . S
C555 H543 0.950 . S
C555 C551 1.393 . S
C555 C554 1.391 . S
H556 C564 0.950 . S
H557 C569 0.950 . S
H558 C566 0.950 . S
H559 C568 0.950 . S
H560 C570 0.950 . S
H561 C572 0.950 . S
H562 C574 0.950 . S
H563 C575 0.950 . S
C564 H556 0.950 . S
C564 C565 1.386 . S
C564 C566 1.391 . S
C565 C564 1.386 . S
C565 C569 1.393 . S
C566 H558 0.950 . S
C566 C564 1.391 . S
C566 C567 1.400 . S
C567 C566 1.400 . S
C567 C568 1.398 . S
C567 C573 1.491 . S
C568 H559 0.950 . S
C568 C567 1.398 . S
C568 C569 1.391 . S
C569 H557 0.950 . S
C569 C565 1.393 . S
C569 C568 1.391 . S
C570 H560 0.950 . S
C570 C571 1.386 . S
C570 C572 1.391 . S
C571 C570 1.386 . S
C571 C575 1.393 . S
C572 H561 0.950 . S
C572 C570 1.391 . S
C572 C573 1.400 . S
C573 C567 1.491 . S
C573 C572 1.400 . S
C573 C574 1.398 . S
C574 H562 0.950 . S
C574 C573 1.398 . S
C574 C575 1.391 . S
C575 H563 0.950 . S
C575 C571 1.393 . S
C575 C574 1.391 . S
H576 C584 0.950 . S
H577 C589 0.950 . S
H578 C586 0.950 . S
H579 C588 0.950 . S
H580 C590 0.950 . S
H581 C592 0.950 . S
H582 C594 0.950 . S
H583 C595 0.950 . S
C584 H576 0.950 . S
C584 C585 1.386 . S
C584 C586 1.391 . S
C585 C584 1.386 . S
C585 C589 1.393 . S
C586 H578 0.950 . S
C586 C584 1.391 . S
C586 C587 1.400 . S
C587 C586 1.400 . S
C587 C588 1.398 . S
C587 C593 1.491 . S
C588 H579 0.950 . S
C588 C587 1.398 . S
C588 C589 1.391 . S
C589 H577 0.950 . S
C589 C585 1.393 . S
C589 C588 1.391 . S
C590 H580 0.950 . S
C590 C591 1.386 . S
C590 C592 1.391 . S
C591 C590 1.386 . S
C591 C595 1.393 . S
C592 H581 0.950 . S
C592 C590 1.391 . S
C592 C593 1.400 . S
C593 C587 1.491 . S
C593 C592 1.400 . S
C593 C594 1.398 . S
C594 H582 0.950 . S
C594 C593 1.398 . S
C594 C595 1.391 . S
C595 H583 0.950 . S
C595 C591 1.393 . S
C595 C594 1.391 . S
H596 C604 0.950 . S
H597 C609 0.950 . S
H598 C606 0.950 . S
H599 C608 0.950 . S
H600 C610 0.950 . S
H601 C612 0.950 . S
H602 C614 0.950 . S
H603 C615 0.950 . S
C604 H596 0.950 . S
C604 C605 1.386 . S
C604 C606 1.391 . S
C605 C604 1.386 . S
C605 C609 1.393 . S
C606 H598 0.950 . S
C606 C604 1.391 . S
C606 C607 1.400 . S
C607 C606 1.400 . S
C607 C608 1.398 . S
C607 C613 1.491 . S
C608 H599 0.950 . S
C608 C607 1.398 . S
C608 C609 1.391 . S
C609 H597 0.950 . S
C609 C605 1.393 . S
C609 C608 1.391 . S
C610 H600 0.950 . S
C610 C611 1.386 . S
C610 C612 1.391 . S
C611 C610 1.386 . S
C611 C615 1.393 . S
C612 H601 0.950 . S
C612 C610 1.391 . S
C612 C613 1.400 . S
C613 C607 1.491 . S
C613 C612 1.400 . S
C613 C614 1.398 . S
C614 H602 0.950 . S
C614 C613 1.398 . S
C614 C615 1.391 . S
C615 H603 0.950 . S
C615 C611 1.393 . S
C615 C614 1.391 . S
H616 C624 0.950 . S
H617 C629 0.950 . S
H618 C626 0.950 . S
H619 C628 0.950 . S
H620 C630 0.950 . S
H621 C632 0.950 . S
H622 C634 0.950 . S
H623 C635 0.950 . S
C624 H616 0.950 . S
C624 C625 1.386 . S
C624 C626 1.391 . S
C625 C624 1.386 . S
C625 C629 1.393 . S
C626 H618 0.950 . S
C626 C624 1.391 . S
C626 C627 1.400 . S
C627 C626 1.400 . S
C627 C628 1.398 . S
C627 C633 1.491 . S
C628 H619 0.950 . S
C628 C627 1.398 . S
C628 C629 1.391 . S
C629 H617 0.950 . S
C629 C625 1.393 . S
C629 C628 1.391 . S
C630 H620 0.950 . S
C630 C631 1.386 . S
C630 C632 1.391 . S
C631 C630 1.386 . S
C631 C635 1.393 . S
C632 H621 0.950 . S
C632 C630 1.391 . S
C632 C633 1.400 . S
C633 C627 1.491 . S
C633 C632 1.400 . S
C633 C634 1.398 . S
C634 H622 0.950 . S
C634 C633 1.398 . S
C634 C635 1.391 . S
C635 H623 0.950 . S
C635 C631 1.393 . S
C635 C634 1.391 . S
H636 C644 0.950 . S
H637 C649 0.950 . S
H638 C646 0.950 . S
H639 C648 0.950 . S
H640 C650 0.950 . S
H641 C652 0.950 . S
H642 C654 0.950 . S
H643 C655 0.950 . S
C644 H636 0.950 . S
C644 C645 1.386 . S
C644 C646 1.391 . S
C645 C644 1.386 . S
C645 C649 1.393 1_655 S
C646 H638 0.950 . S
C646 C644 1.391 . S
C646 C647 1.400 . S
C647 C646 1.400 . S
C647 C648 1.398 1_655 S
C647 C653 1.491 1_655 S
C648 H639 0.950 . S
C648 C647 1.398 1_455 S
C648 C649 1.391 . S
C649 H637 0.950 . S
C649 C645 1.393 1_455 S
C649 C648 1.391 . S
C650 H640 0.950 . S
C650 C651 1.386 . S
C650 C652 1.391 . S
C651 C650 1.386 . S
C651 C655 1.393 1_455 S
C652 H641 0.950 . S
C652 C650 1.391 . S
C652 C653 1.400 . S
C653 C647 1.491 1_455 S
C653 C652 1.400 . S
C653 C654 1.398 1_455 S
C654 H642 0.950 . S
C654 C653 1.398 1_655 S
C654 C655 1.391 . S
C655 H643 0.950 . S
C655 C651 1.393 1_655 S
C655 C654 1.391 . S
H656 C664 0.950 . S
H657 C669 0.950 . S
H658 C666 0.950 . S
H659 C668 0.950 . S
H660 C670 0.950 . S
H661 C672 0.950 . S
H662 C674 0.950 . S
H663 C675 0.950 . S
C664 H656 0.950 . S
C664 C665 1.386 . S
C664 C666 1.391 . S
C665 C664 1.386 . S
C665 C669 1.393 1_565 S
C666 H658 0.950 . S
C666 C664 1.391 . S
C666 C667 1.400 . S
C667 C666 1.400 . S
C667 C668 1.398 1_565 S
C667 C673 1.491 1_566 S
C668 H659 0.950 . S
C668 C667 1.398 1_545 S
C668 C669 1.391 . S
C669 H657 0.950 . S
C669 C665 1.393 1_545 S
C669 C668 1.391 . S
C670 H660 0.950 . S
C670 C671 1.386 . S
C670 C672 1.391 . S
C671 C670 1.386 . S
C671 C675 1.393 1_545 S
C672 H661 0.950 . S
C672 C670 1.391 . S
C672 C673 1.400 . S
C673 C667 1.491 1_544 S
C673 C672 1.400 . S
C673 C674 1.398 1_545 S
C674 H662 0.950 . S
C674 C673 1.398 1_565 S
C674 C675 1.391 . S
C675 H663 0.950 . S
C675 C671 1.393 1_565 S
C675 C674 1.391 . S
H676 C684 0.950 . S
H677 C689 0.950 . S
H678 C686 0.950 . S
H679 C688 0.950 . S
H680 C690 0.950 . S
H681 C692 0.950 . S
H682 C694 0.950 . S
H683 C695 0.950 . S
C684 H676 0.950 . S
C684 C685 1.386 . S
C684 C686 1.391 . S
C685 C684 1.386 . S
C685 C689 1.393 . S
C686 H678 0.950 . S
C686 C684 1.391 . S
C686 C687 1.400 . S
C687 C686 1.400 . S
C687 C688 1.398 . S
C687 C693 1.491 . S
C688 H679 0.950 . S
C688 C687 1.398 . S
C688 C689 1.391 . S
C689 H677 0.950 . S
C689 C685 1.393 . S
C689 C688 1.391 . S
C690 H680 0.950 . S
C690 C691 1.386 . S
C690 C692 1.391 . S
C691 C690 1.386 . S
C691 C695 1.393 . S
C692 H681 0.950 . S
C692 C690 1.391 . S
C692 C693 1.400 . S
C693 C687 1.491 . S
C693 C692 1.400 . S
C693 C694 1.398 . S
C694 H682 0.950 . S
C694 C693 1.398 . S
C694 C695 1.391 . S
C695 H683 0.950 . S
C695 C691 1.393 . S
C695 C694 1.391 . S
H696 C704 0.950 . S
H697 C709 0.950 . S
H698 C706 0.950 . S
H699 C708 0.950 . S
H700 C710 0.950 . S
H701 C712 0.950 . S
H702 C714 0.950 . S
H703 C715 0.950 . S
C704 H696 0.950 . S
C704 C705 1.386 1_455 S
C704 C706 1.391 . S
C705 C704 1.386 1_655 S
C705 C709 1.393 . S
C706 H698 0.950 . S
C706 C704 1.391 . S
C706 C707 1.400 1_455 S
C707 C706 1.400 1_655 S
C707 C708 1.398 . S
C707 C713 1.491 1_655 S
C708 H699 0.950 . S
C708 C707 1.398 . S
C708 C709 1.391 . S
C709 H697 0.950 . S
C709 C705 1.393 . S
C709 C708 1.391 . S
C710 H700 0.950 . S
C710 C711 1.386 1_655 S
C710 C712 1.391 . S
C711 C710 1.386 1_455 S
C711 C715 1.393 . S
C712 H701 0.950 . S
C712 C710 1.391 . S
C712 C713 1.400 1_655 S
C713 C707 1.491 1_455 S
C713 C712 1.400 1_455 S
C713 C714 1.398 . S
C714 H702 0.950 . S
C714 C713 1.398 . S
C714 C715 1.391 . S
C715 H703 0.950 . S
C715 C711 1.393 . S
C715 C714 1.391 . S
H716 C724 0.950 . S
H717 C729 0.949 . S
H718 C726 0.950 . S
H719 C728 0.950 . S
H720 C730 0.950 . S
H721 C732 0.950 . S
H722 C734 0.950 . S
H723 C735 0.949 . S
C724 H716 0.950 . S
C724 C725 1.386 . S
C724 C726 1.391 . S
C725 C724 1.386 . S
C725 C729 1.392 1_565 S
C726 H718 0.950 . S
C726 C724 1.391 . S
C726 C727 1.400 . S
C727 C726 1.400 . S
C727 C728 1.398 1_565 S
C727 C733 1.491 1_565 S
C728 H719 0.950 . S
C728 C727 1.398 1_545 S
C728 C729 1.392 . S
C729 H717 0.949 . S
C729 C725 1.392 1_545 S
C729 C728 1.392 . S
C730 H720 0.950 . S
C730 C731 1.386 . S
C730 C732 1.391 . S
C731 C730 1.386 . S
C731 C735 1.392 1_545 S
C732 H721 0.950 . S
C732 C730 1.391 . S
C732 C733 1.400 . S
C733 C727 1.491 1_545 S
C733 C732 1.400 . S
C733 C734 1.398 1_545 S
C734 H722 0.950 . S
C734 C733 1.398 1_565 S
C734 C735 1.392 . S
C735 H723 0.949 . S
C735 C731 1.392 1_565 S
C735 C734 1.392 . S
H736 C744 0.950 . S
H737 C749 0.950 . S
H738 C746 0.950 . S
H739 C748 0.950 . S
H740 C750 0.950 . S
H741 C752 0.950 . S
H742 C754 0.950 . S
H743 C755 0.950 . S
C744 H736 0.950 . S
C744 C745 1.386 . S
C744 C746 1.391 . S
C745 C744 1.386 . S
C745 C749 1.393 . S
C746 H738 0.950 . S
C746 C744 1.391 . S
C746 C747 1.400 . S
C747 C746 1.400 . S
C747 C748 1.398 . S
C747 C753 1.491 . S
C748 H739 0.950 . S
C748 C747 1.398 . S
C748 C749 1.391 . S
C749 H737 0.950 . S
C749 C745 1.393 . S
C749 C748 1.391 . S
C750 H740 0.950 . S
C750 C751 1.386 . S
C750 C752 1.391 . S
C751 C750 1.386 . S
C751 C755 1.393 . S
C752 H741 0.950 . S
C752 C750 1.391 . S
C752 C753 1.400 . S
C753 C747 1.491 . S
C753 C752 1.400 . S
C753 C754 1.398 . S
C754 H742 0.950 . S
C754 C753 1.398 . S
C754 C755 1.391 . S
C755 H743 0.950 . S
C755 C751 1.393 . S
C755 C754 1.391 . S
H756 C764 0.950 . S
H757 C769 0.950 . S
H758 C766 0.950 . S
H759 C768 0.947 1_554 S
H760 C770 0.950 . S
H761 C772 0.950 . S
H762 C774 0.950 . S
H763 C775 0.950 . S
C764 H756 0.950 . S
C764 C765 1.386 . S
C764 C766 1.391 . S
C765 C764 1.386 . S
C765 C769 1.393 . S
C766 H758 0.950 . S
C766 C764 1.391 . S
C766 C767 1.400 . S
C767 C766 1.400 . S
C767 C768 1.398 . S
C767 C773 1.491 . S
C768 H759 0.947 1_556 S
C768 C767 1.398 . S
C768 C769 1.391 . S
C769 H757 0.950 . S
C769 C765 1.393 . S
C769 C768 1.391 . S
C770 H760 0.950 . S
C770 C771 1.386 . S
C770 C772 1.391 . S
C771 C770 1.386 . S
C771 C775 1.393 1_554 S
C772 H761 0.950 . S
C772 C770 1.391 . S
C772 C773 1.400 1_554 S
C773 C767 1.491 . S
C773 C772 1.400 1_556 S
C773 C774 1.398 . S
C774 H762 0.950 . S
C774 C773 1.398 . S
C774 C775 1.391 . S
C775 H763 0.950 . S
C775 C771 1.393 1_556 S
C775 C774 1.391 . S
H776 C784 0.950 . S
H777 C789 0.950 . S
H778 C786 0.950 . S
H779 C788 0.950 . S
H780 C790 0.950 . S
H781 C792 0.950 . S
H782 C794 0.950 . S
H783 C795 0.950 . S
C784 H776 0.950 . S
C784 C785 1.386 . S
C784 C786 1.391 . S
C785 C784 1.386 . S
C785 C789 1.393 . S
C786 H778 0.950 . S
C786 C784 1.391 . S
C786 C787 1.400 . S
C787 C786 1.400 . S
C787 C788 1.398 . S
C787 C793 1.491 . S
C788 H779 0.950 . S
C788 C787 1.398 . S
C788 C789 1.391 . S
C789 H777 0.950 . S
C789 C785 1.393 . S
C789 C788 1.391 . S
C790 H780 0.950 . S
C790 C791 1.386 . S
C790 C792 1.391 . S
C791 C790 1.386 . S
C791 C795 1.393 . S
C792 H781 0.950 . S
C792 C790 1.391 . S
C792 C793 1.400 . S
C793 C787 1.491 . S
C793 C792 1.400 . S
C793 C794 1.398 . S
C794 H782 0.950 . S
C794 C793 1.398 . S
C794 C795 1.391 . S
C795 H783 0.950 . S
C795 C791 1.393 . S
C795 C794 1.391 . S
H796 C804 0.950 . S
H797 C809 0.950 . S
H798 C806 0.950 . S
H799 C808 0.950 . S
H800 C810 0.950 . S
H801 C812 0.950 . S
H802 C814 0.950 . S
H803 C815 0.950 . S
C804 H796 0.950 . S
C804 C805 1.386 . S
C804 C806 1.391 . S
C805 C804 1.386 . S
C805 C809 1.393 . S
C806 H798 0.950 . S
C806 C804 1.391 . S
C806 C807 1.400 . S
C807 C806 1.400 . S
C807 C808 1.398 . S
C807 C813 1.491 . S
C808 H799 0.950 . S
C808 C807 1.398 . S
C808 C809 1.391 . S
C809 H797 0.950 . S
C809 C805 1.393 . S
C809 C808 1.391 . S
C810 H800 0.950 . S
C810 C811 1.386 . S
C810 C812 1.391 . S
C811 C810 1.386 . S
C811 C815 1.393 . S
C812 H801 0.950 . S
C812 C810 1.391 . S
C812 C813 1.400 . S
C813 C807 1.491 . S
C813 C812 1.400 . S
C813 C814 1.398 . S
C814 H802 0.950 . S
C814 C813 1.398 . S
C814 C815 1.391 . S
C815 H803 0.950 . S
C815 C811 1.393 . S
C815 C814 1.391 . S
H816 C824 0.950 . S
H817 C829 0.950 . S
H818 C826 0.950 . S
H819 C828 0.950 . S
H820 C830 0.950 . S
H821 C832 0.950 . S
H822 C834 0.950 . S
H823 C835 0.950 . S
C824 H816 0.950 . S
C824 C825 1.386 . S
C824 C826 1.391 . S
C825 C824 1.386 . S
C825 C829 1.393 . S
C826 H818 0.950 . S
C826 C824 1.391 . S
C826 C827 1.400 . S
C827 C826 1.400 . S
C827 C828 1.398 . S
C827 C833 1.491 . S
C828 H819 0.950 . S
C828 C827 1.398 . S
C828 C829 1.391 . S
C829 H817 0.950 . S
C829 C825 1.393 . S
C829 C828 1.391 . S
C830 H820 0.950 . S
C830 C831 1.386 . S
C830 C832 1.391 . S
C831 C830 1.386 . S
C831 C835 1.393 . S
C832 H821 0.950 . S
C832 C830 1.391 . S
C832 C833 1.400 . S
C833 C827 1.491 . S
C833 C832 1.400 . S
C833 C834 1.398 . S
C834 H822 0.950 . S
C834 C833 1.398 . S
C834 C835 1.391 . S
C835 H823 0.950 . S
C835 C831 1.393 . S
C835 C834 1.391 . S
H836 C844 0.950 . S
H837 C849 0.950 . S
H838 C846 0.950 . S
H839 C848 0.950 . S
H840 C850 0.950 . S
H841 C852 0.950 . S
H842 C854 0.950 . S
H843 C855 0.950 . S
C844 H836 0.950 . S
C844 C845 1.386 . S
C844 C846 1.391 . S
C845 C844 1.386 . S
C845 C849 1.393 . S
C846 H838 0.950 . S
C846 C844 1.391 . S
C846 C847 1.400 . S
C847 C846 1.400 . S
C847 C848 1.398 . S
C847 C853 1.491 . S
C848 H839 0.950 . S
C848 C847 1.398 . S
C848 C849 1.391 . S
C849 H837 0.950 . S
C849 C845 1.393 . S
C849 C848 1.391 . S
C850 H840 0.950 . S
C850 C851 1.386 . S
C850 C852 1.391 . S
C851 C850 1.386 . S
C851 C855 1.393 . S
C852 H841 0.950 . S
C852 C850 1.391 . S
C852 C853 1.400 . S
C853 C847 1.491 . S
C853 C852 1.400 . S
C853 C854 1.398 . S
C854 H842 0.950 . S
C854 C853 1.398 . S
C854 C855 1.391 . S
C855 H843 0.950 . S
C855 C851 1.393 . S
C855 C854 1.391 . S
H856 C864 0.950 . S
H857 C869 0.950 . S
H858 C866 0.950 . S
H859 C868 0.950 . S
H860 C870 0.950 . S
H861 C872 0.950 . S
H862 C874 0.950 . S
H863 C875 0.950 . S
C864 H856 0.950 . S
C864 C865 1.386 . S
C864 C866 1.391 . S
C865 C864 1.386 . S
C865 C869 1.393 . S
C866 H858 0.950 . S
C866 C864 1.391 . S
C866 C867 1.400 . S
C867 C866 1.400 . S
C867 C868 1.398 . S
C867 C873 1.491 . S
C868 H859 0.950 . S
C868 C867 1.398 . S
C868 C869 1.391 . S
C869 H857 0.950 . S
C869 C865 1.393 . S
C869 C868 1.391 . S
C870 H860 0.950 . S
C870 C871 1.386 . S
C870 C872 1.391 . S
C871 C870 1.386 . S
C871 C875 1.393 . S
C872 H861 0.950 . S
C872 C870 1.391 . S
C872 C873 1.400 . S
C873 C867 1.491 . S
C873 C872 1.400 . S
C873 C874 1.398 . S
C874 H862 0.950 . S
C874 C873 1.398 . S
C874 C875 1.391 . S
C875 H863 0.950 . S
C875 C871 1.393 . S
C875 C874 1.391 . S
H876 C884 0.950 . S
H877 C889 0.950 . S
H878 C886 0.950 . S
H879 C888 0.950 . S
H880 C890 0.950 . S
H881 C892 0.950 . S
H882 C894 0.950 . S
H883 C895 0.950 . S
C884 H876 0.950 . S
C884 C885 1.386 . S
C884 C886 1.391 . S
C885 C884 1.386 . S
C885 C889 1.393 . S
C886 H878 0.950 . S
C886 C884 1.391 . S
C886 C887 1.400 . S
C887 C886 1.400 . S
C887 C888 1.398 . S
C887 C893 1.491 . S
C888 H879 0.950 . S
C888 C887 1.398 . S
C888 C889 1.391 . S
C889 H877 0.950 . S
C889 C885 1.393 . S
C889 C888 1.391 . S
C890 H880 0.950 . S
C890 C891 1.386 . S
C890 C892 1.391 . S
C891 C890 1.386 . S
C891 C895 1.393 . S
C892 H881 0.950 . S
C892 C890 1.391 . S
C892 C893 1.400 . S
C893 C887 1.491 . S
C893 C892 1.400 . S
C893 C894 1.398 . S
C894 H882 0.950 . S
C894 C893 1.398 . S
C894 C895 1.391 . S
C895 H883 0.950 . S
C895 C891 1.393 . S
C895 C894 1.391 . S
H896 C904 0.950 . S
H897 C909 0.950 . S
H898 C906 0.950 . S
H899 C908 0.950 . S
H900 C910 0.950 . S
H901 C912 0.950 . S
H902 C914 0.950 1_556 S
H903 C915 0.950 . S
C904 H896 0.950 . S
C904 C905 1.386 . S
C904 C906 1.391 . S
C905 C904 1.386 . S
C905 C909 1.393 1_556 S
C906 H898 0.950 . S
C906 C904 1.391 . S
C906 C907 1.400 1_556 S
C907 C906 1.400 1_554 S
C907 C908 1.398 . S
C907 C913 1.491 . S
C908 H899 0.950 . S
C908 C907 1.398 . S
C908 C909 1.391 . S
C909 H897 0.950 . S
C909 C905 1.393 1_554 S
C909 C908 1.391 . S
C910 H900 0.950 . S
C910 C911 1.386 . S
C910 C912 1.391 . S
C911 C910 1.386 . S
C911 C915 1.393 . S
C912 H901 0.950 . S
C912 C910 1.391 . S
C912 C913 1.400 . S
C913 C907 1.491 . S
C913 C912 1.400 . S
C913 C914 1.398 . S
C914 H902 0.950 1_554 S
C914 C913 1.398 . S
C914 C915 1.391 . S
C915 H903 0.950 . S
C915 C911 1.393 . S
C915 C914 1.391 . S
H916 C924 0.950 . S
H917 C929 0.950 . S
H918 C926 0.950 . S
H919 C928 0.950 . S
H920 C930 0.950 . S
H921 C932 0.950 . S
H922 C934 0.950 . S
H923 C935 0.950 . S
C924 H916 0.950 . S
C924 C925 1.386 . S
C924 C926 1.391 . S
C925 C924 1.386 . S
C925 C929 1.393 . S
C926 H918 0.950 . S
C926 C924 1.391 . S
C926 C927 1.400 . S
C927 C926 1.400 . S
C927 C928 1.398 . S
C927 C933 1.491 . S
C928 H919 0.950 . S
C928 C927 1.398 . S
C928 C929 1.391 . S
C929 H917 0.950 . S
C929 C925 1.393 . S
C929 C928 1.391 . S
C930 H920 0.950 . S
C930 C931 1.386 . S
C930 C932 1.391 . S
C931 C930 1.386 . S
C931 C935 1.393 . S
C932 H921 0.950 . S
C932 C930 1.391 . S
C932 C933 1.400 . S
C933 C927 1.491 . S
C933 C932 1.400 . S
C933 C934 1.398 . S
C934 H922 0.950 . S
C934 C933 1.398 . S
C934 C935 1.391 . S
C935 H923 0.950 . S
C935 C931 1.393 . S
C935 C934 1.391 . S
H936 C944 0.950 . S
H937 C949 0.950 . S
H938 C946 0.950 . S
H939 C948 0.950 . S
H940 C950 0.950 . S
H941 C952 0.950 . S
H942 C954 0.950 . S
H943 C955 0.950 . S
C944 H936 0.950 . S
C944 C945 1.386 . S
C944 C946 1.391 . S
C945 C944 1.386 . S
C945 C949 1.393 . S
C946 H938 0.950 . S
C946 C944 1.391 . S
C946 C947 1.400 . S
C947 C946 1.400 . S
C947 C948 1.398 . S
C947 C953 1.491 . S
C948 H939 0.950 . S
C948 C947 1.398 . S
C948 C949 1.391 . S
C949 H937 0.950 . S
C949 C945 1.393 . S
C949 C948 1.391 . S
C950 H940 0.950 . S
C950 C951 1.386 . S
C950 C952 1.391 . S
C951 C950 1.386 . S
C951 C955 1.393 . S
C952 H941 0.950 . S
C952 C950 1.391 . S
C952 C953 1.400 . S
C953 C947 1.491 . S
C953 C952 1.400 . S
C953 C954 1.398 . S
C954 H942 0.950 . S
C954 C953 1.398 . S
C954 C955 1.391 . S
C955 H943 0.950 . S
C955 C951 1.393 . S
C955 C954 1.391 . S
H956 C964 0.950 . S
H957 C969 0.950 . S
H958 C966 0.950 . S
H959 C968 0.950 . S
H960 C970 0.950 . S
H961 C972 0.950 . S
H962 C974 0.950 . S
H963 C975 0.950 . S
C964 H956 0.950 . S
C964 C965 1.386 . S
C964 C966 1.391 . S
C965 C964 1.386 . S
C965 C969 1.393 . S
C966 H958 0.950 . S
C966 C964 1.391 . S
C966 C967 1.400 . S
C967 C966 1.400 . S
C967 C968 1.398 . S
C967 C973 1.491 . S
C968 H959 0.950 . S
C968 C967 1.398 . S
C968 C969 1.391 . S
C969 H957 0.950 . S
C969 C965 1.393 . S
C969 C968 1.391 . S
C970 H960 0.950 . S
C970 C971 1.386 . S
C970 C972 1.391 . S
C971 C970 1.386 . S
C971 C975 1.393 . S
C972 H961 0.950 . S
C972 C970 1.391 . S
C972 C973 1.400 . S
C973 C967 1.491 . S
C973 C972 1.400 . S
C973 C974 1.398 . S
C974 H962 0.950 . S
C974 C973 1.398 . S
C974 C975 1.391 . S
C975 H963 0.950 . S
C975 C971 1.393 . S
C975 C974 1.391 . S
H976 C984 0.950 . S
H977 C989 0.950 . S
H978 C986 0.950 . S
H979 C988 0.950 . S
H980 C990 0.950 . S
H981 C992 0.950 . S
H982 C994 0.950 . S
H983 C995 0.950 . S
C984 H976 0.950 . S
C984 C985 1.386 . S
C984 C986 1.391 . S
C985 C984 1.386 . S
C985 C989 1.393 . S
C986 H978 0.950 . S
C986 C984 1.391 . S
C986 C987 1.400 . S
C987 C986 1.400 . S
C987 C988 1.398 . S
C987 C993 1.491 . S
C988 H979 0.950 . S
C988 C987 1.398 . S
C988 C989 1.391 . S
C989 H977 0.950 . S
C989 C985 1.393 . S
C989 C988 1.391 . S
C990 H980 0.950 . S
C990 C991 1.386 . S
C990 C992 1.391 . S
C991 C990 1.386 . S
C991 C995 1.393 . S
C992 H981 0.950 . S
C992 C990 1.391 . S
C992 C993 1.400 . S
C993 C987 1.491 . S
C993 C992 1.400 . S
C993 C994 1.398 . S
C994 H982 0.950 . S
C994 C993 1.398 . S
C994 C995 1.391 . S
C995 H983 0.950 . S
C995 C991 1.393 . S
C995 C994 1.391 . S
C405 N343 1.041 . S
C411 N13 1.036 . S
C425 N46 1.038 . S
C431 N376 1.036 . S
C445 N79 1.051 . S
C451 N211 1.062 . S
C465 N112 1.061 . S
C471 N244 1.062 . S
C485 N145 1.050 . S
C491 N277 1.038 1_556 S
C505 N178 1.037 1_554 S
C511 N310 1.048 . S
C525 C21 1.445 . S
C531 C285 1.443 . S
C545 C318 1.443 . S
C551 C54 1.445 . S
C565 C87 1.443 . S
C571 C351 1.447 . S
C585 C120 1.445 . S
C591 C384 1.451 . S
C605 C153 1.443 . S
C611 C219 1.448 . S
C625 C186 1.443 . S
C631 C252 1.448 . S
C645 N365 1.179 . S
C651 N2 1.191 . S
C665 N200 1.204 . S
C671 N35 1.215 . S
C685 N233 1.200 . S
C691 N68 1.212 . S
C705 N101 1.192 . S
C711 N266 1.180 . S
C725 N134 1.211 . S
C731 N299 1.217 . S
C745 N332 1.213 . S
C751 N167 1.202 . S
C765 C172 1.978 . S
C771 C18 1.985 . S
C785 C7 1.973 1_655 S
C791 C51 1.982 . S
C805 C84 1.983 . S
C811 C40 1.975 1_565 S
C825 C73 1.978 . S
C831 C117 1.985 . S
C845 C150 1.986 . S
C851 C106 1.978 1_455 S
C865 C183 1.982 . S
C871 C139 1.971 1_545 S
C885 C238 1.971 . S
C891 C216 1.983 . S
C905 C249 1.982 . S
C911 C271 1.970 1_655 S
C925 C282 1.982 . S
C931 C304 1.973 1_565 S
C945 C337 1.972 . S
C951 C315 1.982 . S
C965 C370 1.977 1_455 S
C971 C348 1.984 . S
C985 C381 1.986 . S
C991 C205 1.978 1_545 S
