# Generated by pormake.
# Topology vby, (6)-cn, num edge types: 1
# Building blocks:
#     Node 0, Type 0, BuildingBlock: BETGAK_clean_sbu_0, # of connection points: 6
#     Node 1, Type 0, BuildingBlock: BETGAK_clean_sbu_0, # of connection points: 6
#     Node 2, Type 0, BuildingBlock: BETGAK_clean_sbu_0, # of connection points: 6
#     Node 3, Type 0, BuildingBlock: BETGAK_clean_sbu_0, # of connection points: 6
#     Node 4, Type 0, BuildingBlock: BETGAK_clean_sbu_0, # of connection points: 6
#     Node 5, Type 0, BuildingBlock: BETGAK_clean_sbu_0, # of connection points: 6
#     Node 6, Type 0, BuildingBlock: BETGAK_clean_sbu_0, # of connection points: 6
#     Node 7, Type 0, BuildingBlock: BETGAK_clean_sbu_0, # of connection points: 6
#     Edge 8, Type (0, 0), BuildingBlock: XIVTED_clean_linker_0, # of connection points: 2
#     Edge 9, Type (0, 0), BuildingBlock: XIVTED_clean_linker_0, # of connection points: 2
#     Edge 10, Type (0, 0), BuildingBlock: XIVTED_clean_linker_0, # of connection points: 2
#     Edge 11, Type (0, 0), BuildingBlock: XIVTED_clean_linker_0, # of connection points: 2
#     Edge 12, Type (0, 0), BuildingBlock: XIVTED_clean_linker_0, # of connection points: 2
#     Edge 13, Type (0, 0), BuildingBlock: XIVTED_clean_linker_0, # of connection points: 2
#     Edge 14, Type (0, 0), BuildingBlock: XIVTED_clean_linker_0, # of connection points: 2
#     Edge 15, Type (0, 0), BuildingBlock: XIVTED_clean_linker_0, # of connection points: 2
#     Edge 16, Type (0, 0), BuildingBlock: XIVTED_clean_linker_0, # of connection points: 2
#     Edge 17, Type (0, 0), BuildingBlock: XIVTED_clean_linker_0, # of connection points: 2
#     Edge 18, Type (0, 0), BuildingBlock: XIVTED_clean_linker_0, # of connection points: 2
#     Edge 19, Type (0, 0), BuildingBlock: XIVTED_clean_linker_0, # of connection points: 2
#     Edge 20, Type (0, 0), BuildingBlock: XIVTED_clean_linker_0, # of connection points: 2
#     Edge 21, Type (0, 0), BuildingBlock: XIVTED_clean_linker_0, # of connection points: 2
#     Edge 22, Type (0, 0), BuildingBlock: XIVTED_clean_linker_0, # of connection points: 2
#     Edge 23, Type (0, 0), BuildingBlock: XIVTED_clean_linker_0, # of connection points: 2
#     Edge 24, Type (0, 0), BuildingBlock: XIVTED_clean_linker_0, # of connection points: 2
#     Edge 25, Type (0, 0), BuildingBlock: XIVTED_clean_linker_0, # of connection points: 2
#     Edge 26, Type (0, 0), BuildingBlock: XIVTED_clean_linker_0, # of connection points: 2
#     Edge 27, Type (0, 0), BuildingBlock: XIVTED_clean_linker_0, # of connection points: 2
#     Edge 28, Type (0, 0), BuildingBlock: XIVTED_clean_linker_0, # of connection points: 2
#     Edge 29, Type (0, 0), BuildingBlock: XIVTED_clean_linker_0, # of connection points: 2
#     Edge 30, Type (0, 0), BuildingBlock: XIVTED_clean_linker_0, # of connection points: 2
#     Edge 31, Type (0, 0), BuildingBlock: XIVTED_clean_linker_0, # of connection points: 2
# Relax obj value: 0.195
# Max RMSD: 0.212
# Mean RMSD: 0.212
data_MOF--net-vby--node1-BETGAK_clean_sbu_0--edge1-XIVTED_clean_linker_0
_symmetry_space_group_name_H-M    P1
_symmetry_Int_Tables_number       1
_symmetry_cell_setting            triclinic
loop_
_symmetry_equiv_pos_as_xyz
'x, y, z'
_cell_length_a     15.542447
_cell_length_b     103.0341
_cell_length_c     29.18177
_cell_angle_alpha  90.139953
_cell_angle_beta   86.012363
_cell_angle_gamma 90.262644
loop_
_atom_site_label
_atom_site_type_symbol
_atom_site_fract_x
_atom_site_fract_y
_atom_site_fract_z
_atom_type_partial_charge
La0 La 0.05506 0.41248 0.02647 0.0
La1 La 0.0453 0.38377 0.02806 0.0
C2 C 0.0421 0.43668 0.01924 0.0
C3 C 1.03254 0.45098 0.01676 0.0
C4 C 0.98785 0.45769 0.05296 0.0
C5 C 0.9862 0.47126 0.05369 0.0
C6 C 1.02947 0.47851 0.01832 0.0
C7 C 0.07182 0.47178 0.98125 0.0
C8 C 0.07337 0.45815 0.98051 0.0
C9 C 0.07151 0.40158 0.10735 0.0
C10 C 0.87403 0.39842 0.03132 0.0
C11 C 0.05512 0.35994 0.04797 0.0
C12 C 0.10855 0.34805 0.0422 0.0
C13 C 0.11865 0.34148 0.99985 0.0
C14 C 0.15706 0.32919 0.9969 0.0
C15 C 0.18592 0.32315 0.03622 0.0
C16 C 0.17877 0.32998 0.07813 0.0
C17 C 0.14035 0.34225 0.08107 0.0
C18 C 1.02897 0.394 0.94618 0.0
C19 C 0.22995 0.39806 0.01753 0.0
O20 O 1.01358 0.43016 0.05558 0.0
O21 O 0.07593 0.42944 0.98568 0.0
O22 O 0.11633 0.41138 0.0916 0.0
O23 O 1.01878 0.39836 0.07856 0.0
O24 O 0.91995 0.40828 0.01364 0.0
O25 O 0.91248 0.38838 0.04887 0.0
O26 O 1.01875 0.36437 1.01212 0.0
O27 O 0.08219 0.36931 0.07379 0.0
O28 O 0.99046 0.38355 0.96122 0.0
O29 O 0.08005 0.39781 0.97516 0.0
O30 O 0.1857 0.38719 0.02631 0.0
O31 O 0.19125 0.40923 1.01124 0.0
H32 H 0.9554 0.45247 0.08138 0.0
H33 H 0.95138 0.47607 0.08229 0.0
H34 H 0.10635 0.47702 0.95355 0.0
H35 H 0.10878 0.45326 0.95228 0.0
H36 H 0.0941 0.34559 0.96926 0.0
H37 H 0.16066 0.32421 0.96412 0.0
H38 H 0.20156 0.32576 0.10897 0.0
H39 H 0.13281 0.34702 0.11424 0.0
La40 La 1.04124 0.67115 0.02377 0.0
La41 La 1.02849 0.64254 0.02603 0.0
C42 C 1.03257 0.69495 1.00327 0.0
C43 C 0.97985 0.70684 1.01043 0.0
C44 C 0.96297 0.71235 0.05427 0.0
C45 C 0.92413 0.72457 0.05925 0.0
C46 C 0.90151 0.73159 0.02054 0.0
C47 C 0.91554 0.72581 0.97692 0.0
C48 C 0.9544 0.71361 0.97197 0.0
C49 C 0.05763 0.66117 0.10591 0.0
C50 C 0.85506 0.65732 0.03526 0.0
C51 C 1.03967 0.61831 0.03329 0.0
C52 C 0.04823 0.604 0.03575 0.0
C53 C 0.09273 0.59723 0.99963 0.0
C54 C 0.09367 0.58366 0.99893 0.0
C55 C 0.04989 0.57646 0.03427 0.0
C56 C 1.00766 0.58325 0.07126 0.0
C57 C 1.0068 0.59687 0.07196 0.0
C58 C 1.01205 0.6534 0.94495 0.0
C59 C 0.21093 0.65615 0.02078 0.0
O60 O 0.07172 0.69051 0.03818 0.0
O61 O 1.00245 0.68559 0.97843 0.0
O62 O 0.09654 0.67153 0.09034 0.0
O63 O 1.00582 0.65728 0.07735 0.0
O64 O 0.90045 0.66807 0.02634 0.0
O65 O 0.89264 0.64606 0.04151 0.0
O66 O 0.06924 0.6248 0.99708 0.0
O67 O 1.00572 0.62559 0.0667 0.0
O68 O 0.96616 0.64376 0.96118 0.0
O69 O 0.06578 0.65646 0.97343 0.0
O70 O 0.1639 0.64647 0.03887 0.0
O71 O 0.17352 0.66621 1.00275 0.0
H72 H 0.98226 0.70742 0.08464 0.0
H73 H 0.91507 0.72873 0.09335 0.0
H74 H 0.89759 0.73079 0.94641 0.0
H75 H 0.96704 0.70963 0.93777 0.0
H76 H 0.12562 0.60241 0.97124 0.0
H77 H 0.1284 0.57881 0.97039 0.0
H78 H 0.97276 0.57805 0.09893 0.0
H79 H 0.97153 0.60181 0.10014 0.0
La80 La 0.05938 0.67123 0.52622 0.0
La81 La 0.06759 0.64254 0.52415 0.0
C82 C 0.07127 0.69509 0.54628 0.0
C83 C 0.12463 0.70696 0.53875 0.0
C84 C 0.15182 0.71134 0.49447 0.0
C85 C 0.19148 0.72354 0.48829 0.0
C86 C 0.20483 0.73163 0.52621 0.0
C87 C 0.18017 0.72697 0.57052 0.0
C88 C 0.1405 0.71481 0.57664 0.0
C89 C 1.04073 0.66112 0.44426 0.0
C90 C 0.24327 0.65697 0.51457 0.0
C91 C 0.05298 0.61832 0.51691 0.0
C92 C 0.04253 0.604 0.51438 0.0
C93 C 0.99832 0.59728 0.55076 0.0
C94 C 0.99502 0.5837 0.55107 0.0
C95 C 1.03607 0.57644 0.51504 0.0
C96 C 0.0787 0.58319 0.47805 0.0
C97 C 0.08176 0.59681 0.4777 0.0
C98 C 0.08635 0.6535 0.6051 0.0
C99 C 0.88732 0.65657 0.52999 0.0
O100 O 1.03125 0.6906 0.51158 0.0
O101 O 0.10115 0.68576 0.57099 0.0
O102 O 1.00362 0.67159 0.45978 0.0
O103 O 0.09217 0.65719 0.47275 0.0
O104 O 0.19966 0.66783 0.52357 0.0
O105 O 0.20387 0.64579 0.50836 0.0
O106 O 1.0249 0.62488 0.55325 0.0
O107 O 0.08727 0.62552 0.48338 0.0
O108 O 0.13045 0.64372 0.58888 0.0
O109 O 1.03297 0.65665 0.57668 0.0
O110 O 0.93258 0.64675 0.51181 0.0
O111 O 0.92659 0.66657 0.5478 0.0
H112 H 0.14046 0.70552 0.46453 0.0
H113 H 0.21079 0.72669 0.45371 0.0
H114 H 0.18828 0.73293 0.60054 0.0
H115 H 0.11934 0.71172 0.61109 0.0
H116 H 0.96774 0.6025 0.57971 0.0
H117 H 0.96255 0.5789 0.58042 0.0
H118 H 0.11011 0.57794 0.44941 0.0
H119 H 0.11654 0.6017 0.44923 0.0
La120 La 1.02321 0.41249 0.52788 0.0
La121 La 1.03135 0.38373 0.52591 0.0
C122 C 1.03744 0.43671 0.53548 0.0
C123 C 0.04771 0.45102 0.53818 0.0
C124 C 0.09197 0.45778 0.50189 0.0
C125 C 0.09512 0.47135 0.50171 0.0
C126 C 0.0539 0.47858 0.53778 0.0
C127 C 1.0112 0.4718 0.57466 0.0
C128 C 1.00828 0.45817 0.57489 0.0
C129 C 1.0061 0.40155 0.44688 0.0
C130 C 0.2034 0.39842 0.52274 0.0
C131 C 1.02059 0.35988 0.50569 0.0
C132 C 0.96769 0.34789 0.51172 0.0
C133 C 0.95389 0.34179 0.55471 0.0
C134 C 0.91595 0.32942 0.55822 0.0
C135 C 0.89104 0.32283 0.51886 0.0
C136 C 0.90205 0.32919 0.47618 0.0
C137 C 0.9401 0.34152 0.47269 0.0
C138 C 0.04821 0.394 0.60793 0.0
C139 C 0.84751 0.39802 0.53665 0.0
O140 O 0.06553 0.43019 0.49902 0.0
O141 O 1.00336 0.42945 0.56894 0.0
O142 O 0.96196 0.41137 0.46272 0.0
O143 O 0.05862 0.39833 0.47565 0.0
O144 O 0.15809 0.40827 0.54061 0.0
O145 O 0.16432 0.38839 0.50498 0.0
O146 O 0.05823 0.36436 0.54122 0.0
O147 O 0.99238 0.36922 0.48041 0.0
O148 O 0.08586 0.38351 0.59283 0.0
O149 O 0.99745 0.39781 0.57895 0.0
O150 O 0.89113 0.38715 0.52777 0.0
O151 O 0.88684 0.4092 0.54306 0.0
H152 H 0.12269 0.45259 0.47292 0.0
H153 H 0.12765 0.47618 0.47244 0.0
H154 H 0.97965 0.47702 0.60332 0.0
H155 H 0.97345 0.45326 0.60328 0.0
H156 H 0.9747 0.34638 0.5855 0.0
H157 H 0.90728 0.32494 0.59175 0.0
H158 H 0.88471 0.3244 0.44504 0.0
H159 H 0.95105 0.34589 0.43903 0.0
La160 La 0.56324 0.91196 0.02697 0.0
La161 La 0.55438 0.88398 0.04223 0.0
C162 C 0.54727 0.93579 1.0115 0.0
C163 C 0.53499 0.94991 1.00464 0.0
C164 C 0.48216 0.957 0.03666 0.0
C165 C 0.4795 0.97055 0.03487 0.0
C166 C 0.5297 0.97743 1.001 0.0
C167 C 0.58017 0.97029 0.96783 0.0
C168 C 0.58268 0.95668 0.9696 0.0
C169 C 0.5842 0.90462 0.1128 0.0
C170 C 0.38326 0.89832 0.03924 0.0
C171 C 0.56669 0.86115 0.07312 0.0
C172 C 0.61498 0.84891 0.06527 0.0
C173 C 0.63043 0.84356 0.02112 0.0
C174 C 0.6667 0.83117 0.01543 0.0
C175 C 0.68824 0.82387 0.05374 0.0
C176 C 0.67548 0.8295 0.09768 0.0
C177 C 0.63915 0.84186 0.10332 0.0
C178 C 0.53351 0.89018 0.95563 0.0
C179 C 0.73878 0.89778 0.02293 0.0
O180 O 0.51262 0.92993 0.04792 0.0
O181 O 0.58853 0.92802 0.98194 0.0
O182 O 0.62696 0.91373 0.09107 0.0
O183 O 0.53019 0.90005 0.08679 0.0
O184 O 0.42934 0.90706 0.01523 0.0
O185 O 0.42225 0.88943 0.06272 0.0
O186 O 0.51456 0.86452 0.04205 0.0
O187 O 0.60804 0.87113 0.08874 0.0
O188 O 0.49925 0.88031 0.97724 0.0
O189 O 0.58543 0.89569 0.98113 0.0
O190 O 0.69461 0.8873 0.03673 0.0
O191 O 0.69974 0.90859 1.01218 0.0
H192 H 0.44489 0.95211 0.06428 0.0
H193 H 0.4407 0.97564 0.06135 0.0
H194 H 0.61877 0.97524 0.94085 0.0
H195 H 0.6243 0.9515 0.94456 0.0
H196 H 0.61225 0.84877 0.99112 0.0
H197 H 0.67494 0.82714 0.98111 0.0
H198 H 0.69279 0.82431 0.12789 0.0
H199 H 0.62782 0.84578 0.13769 0.0
La200 La 0.53601 0.16985 0.02315 0.0
La201 La 0.52369 0.14117 0.02459 0.0
C202 C 0.52805 0.19369 1.00306 0.0
C203 C 0.47556 0.20567 1.00897 0.0
C204 C 0.46593 0.21221 0.05138 0.0
C205 C 0.42824 0.22455 0.05447 0.0
C206 C 0.39964 0.23067 0.01522 0.0
C207 C 0.40638 0.22387 0.97324 0.0
C208 C 0.44408 0.21155 0.97017 0.0
C209 C 0.55068 0.15962 0.10513 0.0
C210 C 0.35006 0.15593 0.0336 0.0
C211 C 0.53527 0.11694 0.03119 0.0
C212 C 0.54413 0.10262 0.03336 0.0
C213 C 0.59137 0.09596 0.99789 0.0
C214 C 0.59299 0.08239 0.99687 0.0
C215 C 0.54712 0.07509 0.03122 0.0
C216 C 0.50164 0.08177 0.06742 0.0
C217 C 0.50033 0.09539 0.06853 0.0
C218 C 0.50801 0.15222 0.94383 0.0
C219 C 0.70584 0.15487 0.02051 0.0
O220 O 0.56452 0.18921 0.0388 0.0
O221 O 0.49989 0.18436 0.97742 0.0
O222 O 0.58994 0.17003 0.09018 0.0
O223 O 0.49977 0.15583 0.07601 0.0
O224 O 0.39533 0.16671 0.02497 0.0
O225 O 0.38772 0.14467 0.03976 0.0
O226 O 0.56524 0.12351 0.99527 0.0
O227 O 0.5006 0.12413 0.06466 0.0
O228 O 0.46221 0.14252 0.95957 0.0
O229 O 0.56133 0.15523 0.97257 0.0
O230 O 0.65877 0.14512 0.03809 0.0
O231 O 0.6686 0.16499 1.00274 0.0
H232 H 0.49025 0.20804 0.08192 0.0
H233 H 0.42494 0.22951 0.0873 0.0
H234 H 0.38377 0.22815 0.94245 0.0
H235 H 0.45128 0.20681 0.93695 0.0
H236 H 0.6256 0.10124 0.97014 0.0
H237 H 0.62788 0.07763 0.96819 0.0
H238 H 0.46648 0.07647 0.09478 0.0
H239 H 0.46317 0.10024 0.09624 0.0
La240 La 0.54321 0.16883 0.52593 0.0
La241 La 0.55079 0.14007 0.52347 0.0
C242 C 0.5551 0.19262 0.54688 0.0
C243 C 0.60831 0.20458 0.54091 0.0
C244 C 0.62263 0.21066 0.49791 0.0
C245 C 0.66085 0.223 0.49444 0.0
C246 C 0.68555 0.22959 0.53384 0.0
C247 C 0.6741 0.22325 0.57653 0.0
C248 C 0.63576 0.21093 0.57999 0.0
C249 C 0.52669 0.15878 0.44366 0.0
C250 C 0.72677 0.15441 0.5148 0.0
C251 C 0.5338 0.11589 0.51581 0.0
C252 C 0.52217 0.10158 0.51378 0.0
C253 C 0.48955 0.09483 0.55308 0.0
C254 C 0.48243 0.0813 0.55281 0.0
C255 C 0.50749 0.07408 0.51316 0.0
C256 C 0.53932 0.08086 0.47355 0.0
C257 C 0.54656 0.09446 0.47387 0.0
C258 C 0.56838 0.15098 0.60449 0.0
C259 C 0.37086 0.15425 0.52883 0.0
O260 O 0.51655 0.18827 0.51146 0.0
O261 O 0.58358 0.18319 0.57166 0.0
O262 O 0.48939 0.16927 0.45893 0.0
O263 O 0.577 0.15481 0.47263 0.0
O264 O 0.6833 0.16529 0.52389 0.0
O265 O 0.68728 0.14325 0.50815 0.0
O266 O 0.50943 0.12244 0.55281 0.0
O267 O 0.56654 0.12309 0.48184 0.0
O268 O 0.61248 0.14115 0.58858 0.0
O269 O 0.51563 0.15416 0.57581 0.0
O270 O 0.41609 0.14441 0.51087 0.0
O271 O 0.41001 0.16426 0.54668 0.0
H272 H 0.602 0.20606 0.46708 0.0
H273 H 0.66989 0.22748 0.4609 0.0
H274 H 0.69129 0.22804 0.60771 0.0
H275 H 0.62445 0.20658 0.61364 0.0
H276 H 0.47071 0.09999 0.58456 0.0
H277 H 0.45919 0.07649 0.58424 0.0
H278 H 0.55842 0.07567 0.44221 0.0
H279 H 0.57202 0.09938 0.44305 0.0
La280 La 0.53548 0.91354 0.54502 0.0
La281 La 0.53553 0.88389 0.52087 0.0
C282 C 0.55866 0.93628 0.57414 0.0
C283 C 0.53572 0.94986 0.56378 0.0
C284 C 0.53943 0.95453 0.51844 0.0
C285 C 0.5284 0.96778 0.50978 0.0
C286 C 0.51281 0.97663 0.54621 0.0
C287 C 0.50587 0.97182 0.59144 0.0
C288 C 0.51752 0.95859 0.60009 0.0
C289 C 0.52014 0.90759 0.45732 0.0
C290 C 0.71005 0.89768 0.53706 0.0
C291 C 0.53193 0.86248 0.47878 0.0
C292 C 0.49161 0.84952 0.4848 0.0
C293 C 0.4647 0.84471 0.52848 0.0
C294 C 0.43154 0.83206 0.53348 0.0
C295 C 0.42426 0.82398 0.49487 0.0
C296 C 0.44986 0.82898 0.45113 0.0
C297 C 0.48321 0.84159 0.44622 0.0
C298 C 0.52228 0.88773 0.612 0.0
C299 C 0.35839 0.8991 0.54065 0.0
O300 O 0.61064 0.93041 0.54354 0.0
O301 O 0.49715 0.92857 0.5913 0.0
O302 O 0.48843 0.91781 0.47792 0.0
O303 O 0.56527 0.90168 0.48478 0.0
O304 O 0.66502 0.90698 0.55894 0.0
O305 O 0.67245 0.88863 0.51299 0.0
O306 O 0.58996 0.86559 0.50753 0.0
O307 O 0.48052 0.8722 0.47119 0.0
O308 O 0.52132 0.87644 0.59241 0.0
O309 O 0.52807 0.89581 0.58001 0.0
O310 O 0.39994 0.88933 0.51937 0.0
O311 O 0.3991 0.90895 0.55923 0.0
H312 H 0.55305 0.94801 0.48969 0.0
H313 H 0.53287 0.97111 0.47452 0.0
H314 H 0.49471 0.97835 0.62036 0.0
H315 H 0.51493 0.95524 0.63533 0.0
H316 H 0.47024 0.85067 0.55877 0.0
H317 H 0.41136 0.82863 0.56761 0.0
H318 H 0.44626 0.82303 0.42067 0.0
H319 H 0.50386 0.84509 0.41221 0.0
H320 H 0.34233 0.41775 0.99252 0.0
H321 H 0.76088 0.37911 0.05938 0.0
H322 H 0.33551 0.37806 0.03988 0.0
H323 H 0.77039 0.41737 0.99915 0.0
H324 H 0.60488 0.37873 0.05404 0.0
H325 H 0.49876 0.41784 0.99534 0.0
C326 C 0.37367 0.40901 1.0033 0.0
C327 C 0.32543 0.39788 0.01606 0.0
C328 C 0.64103 0.38721 0.04199 0.0
C329 C 0.5051 0.39797 0.01968 0.0
C330 C 0.73022 0.38746 0.04517 0.0
C331 C 0.77899 0.3983 0.02975 0.0
C332 C 0.59997 0.39789 0.02338 0.0
C333 C 0.73551 0.40881 1.01152 0.0
C334 C 0.46317 0.40909 1.00493 0.0
C335 C 0.36992 0.38686 0.02965 0.0
N336 N 0.64852 0.40834 1.00889 0.0
N337 N 0.45717 0.38721 0.03131 0.0
H338 H 0.312 0.63698 0.05345 0.0
H339 H 0.7518 0.67768 0.01372 0.0
H340 H 0.32643 0.67527 0.99358 0.0
H341 H 0.74033 0.6378 0.05903 0.0
H342 H 0.5949 0.67749 1.01073 0.0
H343 H 0.46811 0.6375 0.0593 0.0
C344 C 0.34794 0.64548 0.04137 0.0
C345 C 0.30591 0.65608 0.02287 0.0
C346 C 0.62675 0.6688 0.02146 0.0
C347 C 0.48482 0.65679 0.02982 0.0
C348 C 0.71638 0.66892 0.0234 0.0
C349 C 0.75957 0.65773 0.03656 0.0
C350 C 0.57981 0.65743 0.03291 0.0
C351 C 0.71005 0.64665 0.04854 0.0
C352 C 0.43714 0.64578 0.04479 0.0
C353 C 0.35599 0.66685 1.00793 0.0
N354 N 0.623 0.64678 0.04635 0.0
N355 N 0.44266 0.66693 1.01181 0.0
H356 H 0.77506 0.67588 0.55837 0.0
H357 H 0.35477 0.63727 0.48953 0.0
H358 H 0.78266 0.63764 0.49737 0.0
H359 H 0.3499 0.67699 0.53719 0.0
H360 H 0.51112 0.63718 0.49287 0.0
H361 H 0.6191 0.67628 0.55259 0.0
C362 C 0.74398 0.66753 0.54393 0.0
C363 C 0.79223 0.65669 0.5284 0.0
C364 C 0.47599 0.64594 0.5024 0.0
C365 C 0.61328 0.65713 0.5215 0.0
C366 C 0.38652 0.64602 0.50046 0.0
C367 C 0.33882 0.65716 0.51316 0.0
C368 C 0.51844 0.65706 0.51744 0.0
C369 C 0.38387 0.66818 0.52698 0.0
C370 C 0.65484 0.6678 0.54048 0.0
C371 C 0.74822 0.6462 0.50985 0.0
N372 N 0.47104 0.66783 0.52897 0.0
N373 N 0.66132 0.64668 0.50696 0.0
H374 H 0.73625 0.41771 0.562 0.0
H375 H 0.31538 0.3791 0.49436 0.0
H376 H 0.74076 0.37802 0.51396 0.0
H377 H 0.30823 0.41735 0.55525 0.0
H378 H 0.47136 0.3787 0.49974 0.0
H379 H 0.57984 0.4178 0.55915 0.0
C380 C 0.70441 0.40897 0.55107 0.0
C381 C 0.75201 0.39784 0.53812 0.0
C382 C 0.43573 0.38718 0.51192 0.0
C383 C 0.57233 0.39793 0.53446 0.0
C384 C 0.34656 0.38745 0.50872 0.0
C385 C 0.29845 0.39829 0.52431 0.0
C386 C 0.47745 0.39786 0.53073 0.0
C387 C 0.34258 0.40879 0.54273 0.0
C388 C 0.61491 0.40905 0.54942 0.0
C389 C 0.70686 0.38682 0.52434 0.0
N390 N 0.42953 0.40831 0.54538 0.0
N391 N 0.61964 0.38717 0.52266 0.0
H392 H 0.85311 0.91663 0.99118 0.0
H393 H 0.26795 0.88025 0.07604 0.0
H394 H 0.84283 0.87856 0.05291 0.0
H395 H 0.28145 0.91591 0.99849 0.0
H396 H 0.11164 0.8798 0.07029 0.0
H397 H 1.00963 0.91673 0.99493 0.0
C398 C 0.88368 0.90825 1.00527 0.0
C399 C 0.83441 0.89757 0.02176 0.0
C400 C 0.14881 0.88772 0.05454 0.0
C401 C 1.01408 0.89769 0.02659 0.0
C402 C 0.2381 0.88802 0.05798 0.0
C403 C 0.28806 0.89814 0.03777 0.0
C404 C 0.10895 0.89765 0.03089 0.0
C405 C 0.24568 0.90791 0.01462 0.0
C406 C 0.97321 0.90833 1.00746 0.0
C407 C 0.87797 0.887 0.03967 0.0
N408 N 0.15874 0.90743 1.01188 0.0
N409 N 0.96512 0.88736 0.04181 0.0
H410 H 0.24666 0.17633 0.01268 0.0
H411 H 0.80701 0.13561 0.05255 0.0
H412 H 0.23558 0.13636 0.05699 0.0
H413 H 0.82116 0.17405 0.99386 0.0
H414 H 0.96324 0.13609 0.05804 0.0
H415 H 0.0897 0.17617 1.01016 0.0
C416 C 0.21131 0.16755 0.02221 0.0
C417 C 0.25461 0.15633 0.03496 0.0
C418 C 0.93216 0.14441 0.04388 0.0
C419 C 0.0748 0.15606 0.03188 0.0
C420 C 0.8429 0.14413 0.04067 0.0
C421 C 0.80078 0.15479 0.0226 0.0
C422 C 0.97977 0.15544 0.0291 0.0
C423 C 0.85078 0.16559 1.00789 0.0
C424 C 0.12165 0.16744 0.02057 0.0
C425 C 0.2052 0.14523 0.0468 0.0
N426 N 0.9375 0.16564 1.01154 0.0
N427 N 0.1181 0.14537 0.04489 0.0
H428 H 0.25857 0.17356 0.5571 0.0
H429 H 0.83826 0.1347 0.4899 0.0
H430 H 0.26635 0.13526 0.49657 0.0
H431 H 0.83326 0.17444 0.53733 0.0
H432 H 0.9947 0.13465 0.49288 0.0
H433 H 0.10252 0.17387 0.55181 0.0
C434 C 0.22752 0.16518 0.54284 0.0
C435 C 0.27581 0.15435 0.52731 0.0
C436 C 0.95949 0.14341 0.50245 0.0
C437 C 0.09678 0.15468 0.52099 0.0
C438 C 0.86999 0.14345 0.50072 0.0
C439 C 0.82226 0.15459 0.51344 0.0
C440 C 1.00191 0.15456 0.51726 0.0
C441 C 0.86726 0.16563 0.52711 0.0
C442 C 0.13832 0.16539 0.53968 0.0
C443 C 0.23185 0.14381 0.50902 0.0
N444 N 0.95446 0.16531 0.52887 0.0
N445 N 0.14489 0.14424 0.5064 0.0
H446 H 0.82562 0.87994 0.49905 0.0
H447 H 0.24445 0.91704 0.58018 0.0
H448 H 0.81263 0.9152 0.57941 0.0
H449 H 0.2527 0.88085 0.50507 0.0
H450 H 0.08671 0.91662 0.58075 0.0
H451 H 0.98234 0.88019 0.50133 0.0
C452 C 0.85555 0.88773 0.51726 0.0
C453 C 0.80543 0.89757 0.53903 0.0
C454 C 0.12315 0.90876 0.56424 0.0
C455 C 0.9858 0.89794 0.54169 0.0
C456 C 0.21335 0.909 0.5639 0.0
C457 C 0.26243 0.89898 0.5425 0.0
C458 C 0.08151 0.89846 0.54295 0.0
C459 C 0.21807 0.88881 0.52198 0.0
C460 C 0.94529 0.88787 0.51856 0.0
C461 C 0.84836 0.9074 0.56211 0.0
N462 N 0.13052 0.88884 0.52266 0.0
N463 N 0.93589 0.90735 0.56275 0.0
H464 H 1.03122 0.56116 0.9583 0.0
H465 H 0.0477 0.49381 0.09434 0.0
H466 H 0.05978 0.55862 0.10407 0.0
H467 H 1.01878 0.49636 0.94861 0.0
H468 H 0.05141 0.51747 0.09858 0.0
H469 H 1.02707 0.53751 0.95412 0.0
C470 C 1.03728 0.55565 0.98945 0.0
C471 C 0.04643 0.56198 0.03161 0.0
C472 C 0.04416 0.51287 0.06566 0.0
C473 C 1.04049 0.53473 0.02706 0.0
C474 C 1.04145 0.49933 0.06321 0.0
C475 C 1.03238 0.493 0.02104 0.0
C476 C 1.03784 0.52025 0.02566 0.0
C477 C 1.02661 0.50075 0.9818 0.0
C478 C 1.03432 0.54211 0.98704 0.0
C479 C 0.05193 0.55423 0.07088 0.0
N480 N 1.02927 0.51393 0.98509 0.0
N481 N 0.04906 0.54105 0.06762 0.0
H482 H 0.18536 0.49512 0.50736 0.0
H483 H 0.90467 0.55992 0.54575 0.0
H484 H 0.92098 0.49526 0.56342 0.0
H485 H 0.16888 0.55974 0.48943 0.0
H486 H 0.90945 0.5363 0.55251 0.0
H487 H 0.18054 0.51874 0.5007 0.0
C488 C 0.12614 0.50009 0.51822 0.0
C489 C 0.05337 0.49309 0.53589 0.0
C490 C 0.96638 0.54142 0.53859 0.0
C491 C 0.04764 0.5203 0.52857 0.0
C492 C 0.96384 0.55494 0.53486 0.0
C493 C 1.03657 0.56193 0.51707 0.0
C494 C 0.04226 0.53472 0.52451 0.0
C495 C 0.11083 0.55483 0.50284 0.0
C496 C 0.12359 0.51361 0.51454 0.0
C497 C 0.97906 0.50018 0.55009 0.0
N498 N 0.11179 0.54167 0.50699 0.0
N499 N 0.97807 0.51335 0.546 0.0
H500 H 0.66939 0.99363 0.98313 0.0
H501 H 0.40884 0.05877 0.05055 0.0
H502 H 0.39641 0.99445 0.02211 0.0
H503 H 0.67855 0.05831 1.00407 0.0
H504 H 0.404 0.03518 0.04196 0.0
H505 H 0.67405 1.01726 0.99017 0.0
C506 C 0.61014 0.99875 0.99264 0.0
C507 C 0.53237 0.99194 1.00209 0.0
C508 C 0.46431 0.04023 0.03366 0.0
C509 C 0.5377 1.01912 1.01111 0.0
C510 C 0.46733 0.05372 0.03895 0.0
C511 C 0.54427 0.06061 0.02807 0.0
C512 C 0.53879 0.03349 0.01745 0.0
C513 C 0.61751 0.05348 0.01238 0.0
C514 C 0.61305 1.01228 0.99705 0.0
C515 C 0.45816 0.9992 0.01511 0.0
N516 N 0.61295 0.04035 1.00759 0.0
N517 N 0.46274 1.01234 0.01934 0.0
H518 H 0.38225 0.05857 0.55658 0.0
H519 H 0.61351 0.99138 0.48496 0.0
H520 H 0.62059 0.05632 0.47173 0.0
H521 H 0.40081 0.99445 0.58751 0.0
H522 H 0.60838 1.01487 0.47346 0.0
H523 H 0.38019 0.03494 0.56234 0.0
C524 C 0.43436 0.05314 0.53917 0.0
C525 C 0.50221 0.05957 0.51396 0.0
C526 C 0.56262 1.01041 0.49837 0.0
C527 C 0.49942 0.03231 0.51999 0.0
C528 C 0.56507 0.99696 0.50475 0.0
C529 C 0.50754 0.99087 0.53734 0.0
C530 C 0.50182 1.01789 0.52453 0.0
C531 C 0.4471 0.9987 0.5624 0.0
C532 C 0.43285 0.03961 0.54234 0.0
C533 C 0.56657 0.05187 0.49126 0.0
N534 N 0.44585 1.01176 0.55548 0.0
N535 N 0.56375 0.03869 0.49497 0.0
H536 H 0.15713 0.30364 0.09965 0.0
H537 H 0.42914 0.25022 0.952 0.0
H538 H 0.28967 0.31145 0.96762 0.0
H539 H 0.29642 0.2424 0.08397 0.0
H540 H 0.37792 0.27257 0.95691 0.0
H541 H 0.2088 0.28131 0.09488 0.0
C542 C 0.19781 0.30073 0.06981 0.0
C543 C 0.2192 0.30955 0.03406 0.0
C544 C 0.35983 0.26597 0.98479 0.0
C545 C 0.27766 0.28376 0.02805 0.0
C546 C 0.38853 0.25313 0.98187 0.0
C547 C 0.36691 0.2443 0.01754 0.0
C548 C 0.30894 0.27011 0.0237 0.0
C549 C 0.31558 0.24883 0.0558 0.0
C550 C 0.22677 0.2879 0.06696 0.0
C551 C 0.27065 0.30502 0.99584 0.0
N552 N 0.2884 0.26138 0.05783 0.0
N553 N 0.29806 0.29248 0.99388 0.0
H554 H 0.80132 0.81387 0.98576 0.0
H555 H 0.78673 0.74152 0.08783 0.0
H556 H 0.64902 0.80275 0.10885 0.0
H557 H 0.9385 0.7526 0.96451 0.0
H558 H 0.73547 0.76387 0.09603 0.0
H559 H 0.85121 0.79146 0.97699 0.0
C560 C 0.77806 0.80673 1.01089 0.0
C561 C 0.72089 0.81029 0.0482 0.0
C562 C 0.77984 0.76141 0.0671 0.0
C563 C 0.77851 0.78453 0.0385 0.0
C564 C 0.8095 0.74864 0.0625 0.0
C565 C 0.8671 0.74509 0.02536 0.0
C566 C 0.80797 0.77079 0.03443 0.0
C567 C 0.8932 0.75477 0.99333 0.0
C568 C 0.80696 0.79393 1.00597 0.0
C569 C 0.6941 0.80058 0.07994 0.0
N570 N 0.86365 0.76713 0.99865 0.0
N571 N 0.723 0.78819 0.07435 0.0
H572 H 0.17266 0.74933 0.45902 0.0
H573 H 0.45749 0.80622 0.56167 0.0
H574 H 0.31766 0.74479 0.5788 0.0
H575 H 0.31766 0.81044 0.43993 0.0
H576 H 0.40613 0.7838 0.56881 0.0
H577 H 0.22645 0.77159 0.45095 0.0
C578 C 0.21652 0.75293 0.4834 0.0
C579 C 0.24051 0.74507 0.51968 0.0
C580 C 0.38663 0.78962 0.54053 0.0
C581 C 0.30151 0.77078 0.51099 0.0
C582 C 0.41546 0.80249 0.53659 0.0
C583 C 0.39196 0.81032 0.50014 0.0
C584 C 0.33353 0.78446 0.50785 0.0
C585 C 0.33848 0.80478 0.4683 0.0
C586 C 0.24673 0.76572 0.47895 0.0
C587 C 0.29633 0.75047 0.55063 0.0
N588 N 0.31112 0.79225 0.47293 0.0
N589 N 0.32472 0.76295 0.5456 0.0
H590 H 0.76155 0.31161 0.47213 0.0
H591 H 0.81481 0.24081 0.58079 0.0
H592 H 0.94501 0.30279 0.57192 0.0
H593 H 0.63198 0.24962 0.48067 0.0
H594 H 0.86319 0.26343 0.57808 0.0
H595 H 0.71326 0.28898 0.47486 0.0
C596 C 0.79186 0.30493 0.49459 0.0
C597 C 0.85765 0.3092 0.52182 0.0
C598 C 0.81261 0.26042 0.55661 0.0
C599 C 0.80207 0.28316 0.52528 0.0
C600 C 0.78467 0.24748 0.55826 0.0
C601 C 0.71904 0.24322 0.53092 0.0
C602 C 0.77469 0.26925 0.5275 0.0
C603 C 0.68351 0.25235 0.50192 0.0
C604 C 0.76397 0.292 0.49625 0.0
C605 C 0.89336 0.30006 0.55075 0.0
N606 N 0.71156 0.26489 0.50108 0.0
N607 N 0.86534 0.28752 0.55161 0.0
H608 H 0.92989 0.3919 0.15701 0.0
H609 H 0.1474 0.39195 0.39707 0.0
H610 H 0.19384 0.40371 0.16923 0.0
H611 H 0.88383 0.4036 0.38506 0.0
H612 H 0.1647 0.3893 0.31315 0.0
H613 H 0.91253 0.38923 0.24088 0.0
C614 C 0.98457 0.39368 0.17729 0.0
C615 C 0.06323 0.39813 0.15647 0.0
C616 C 0.10283 0.39225 0.32911 0.0
C617 C 0.04417 0.39492 0.25168 0.0
C618 C 0.09278 0.3937 0.37683 0.0
C619 C 1.01426 0.3981 0.39772 0.0
C620 C 1.03323 0.39491 0.30245 0.0
C621 C 0.94556 0.40028 0.37005 0.0
C622 C 0.97448 0.39222 0.22498 0.0
C623 C 0.13201 0.40035 0.18418 0.0
N624 N 0.95657 0.39867 0.32374 0.0
N625 N 0.12095 0.39873 0.23045 0.0
H626 H 0.19145 0.66246 0.16022 0.0
H627 H 0.90687 0.66252 0.39009 0.0
H628 H 0.92369 0.6513 0.16195 0.0
H629 H 0.1735 0.65111 0.38803 0.0
H630 H 0.91023 0.65908 0.30683 0.0
H631 H 0.18763 0.65898 0.24341 0.0
C632 C 0.13217 0.65909 0.17817 0.0
C633 C 0.05769 0.6572 0.15445 0.0
C634 C 0.96756 0.6571 0.32467 0.0
C635 C 0.05228 0.65351 0.24954 0.0
C636 C 0.96578 0.6591 0.37206 0.0
C637 C 1.04009 0.65713 0.3957 0.0
C638 C 0.04503 0.65349 0.30055 0.0
C639 C 0.11482 0.6527 0.37094 0.0
C640 C 0.13012 0.65707 0.22551 0.0
C641 C 0.98249 0.65283 0.1791 0.0
N642 N 0.11599 0.65129 0.32444 0.0
N643 N 0.98112 0.6514 0.22558 0.0
H644 H 0.88819 0.65148 0.88396 0.0
H645 H 0.20999 0.65141 0.66602 0.0
H646 H 0.15399 0.66257 0.89407 0.0
H647 H 0.9454 0.66281 0.65617 0.0
H648 H 0.19199 0.65426 0.74965 0.0
H649 H 0.90647 0.65438 0.8004 0.0
C650 C 0.95007 0.65468 0.86854 0.0
C651 C 1.01978 0.65675 0.89571 0.0
C652 C 0.1383 0.65633 0.7291 0.0
C653 C 1.04165 0.65979 0.80044 0.0
C654 C 0.14846 0.65467 0.68152 0.0
C655 C 0.079 0.65685 0.65439 0.0
C656 C 0.0574 0.65981 0.74974 0.0
C657 C 1.00055 0.66106 0.67598 0.0
C658 C 0.96039 0.65637 0.821 0.0
C659 C 0.09866 0.66089 0.87422 0.0
N660 N 0.99131 0.66217 0.72257 0.0
N661 N 0.108 0.66205 0.82767 0.0
H662 H 0.91313 0.40417 0.6619 0.0
H663 H 0.1646 0.40417 0.89233 0.0
H664 H 0.17876 0.39252 0.6644 0.0
H665 H 0.89832 0.3925 0.88967 0.0
H666 H 0.17034 0.4073 0.80846 0.0
H667 H 0.90755 0.40729 0.74583 0.0
C668 C 0.97067 0.40256 0.68 0.0
C669 C 0.04633 0.39798 0.65656 0.0
C670 C 0.11037 0.40428 0.82652 0.0
C671 C 1.04082 0.4017 0.75166 0.0
C672 C 0.10697 0.40256 0.87421 0.0
C673 C 1.03106 0.39797 0.89758 0.0
C674 C 1.03675 0.4017 0.80254 0.0
C675 C 0.95822 0.39594 0.87263 0.0
C676 C 0.96735 0.40428 0.72772 0.0
C677 C 0.11906 0.39596 0.68149 0.0
N678 N 0.96279 0.3978 0.82642 0.0
N679 N 0.11457 0.39782 0.72773 0.0
H680 H 0.51867 0.88458 0.16746 0.0
H681 H 0.48378 0.92573 0.39446 0.0
H682 H 0.63307 0.9227 0.17377 0.0
H683 H 0.57234 0.88629 0.40458 0.0
H684 H 0.50099 0.92408 0.31079 0.0
H685 H 0.50398 0.88416 0.25245 0.0
C686 C 0.54084 0.89281 0.18667 0.0
C687 C 0.57719 0.90369 0.16361 0.0
C688 C 0.51609 0.91576 0.33136 0.0
C689 C 0.55857 0.90339 0.25987 0.0
C690 C 0.50607 0.91666 0.3791 0.0
C691 C 0.52684 0.90613 0.4066 0.0
C692 C 0.54494 0.90415 0.31063 0.0
C693 C 0.55559 0.89462 0.38461 0.0
C694 C 0.53272 0.89253 0.23493 0.0
C695 C 0.60489 0.91411 0.19006 0.0
N696 N 0.56326 0.89388 0.33773 0.0
N697 N 0.59381 0.91378 0.23664 0.0
H698 H 0.41461 0.14933 0.15827 0.0
H699 H 0.66247 0.14879 0.38979 0.0
H700 H 0.6803 0.16119 0.16235 0.0
H701 H 0.397 0.16047 0.38669 0.0
H702 H 0.66931 0.14596 0.30572 0.0
H703 H 0.40772 0.14604 0.24208 0.0
C704 C 0.47186 0.15096 0.17669 0.0
C705 C 0.54793 0.15564 0.15373 0.0
C706 C 0.60926 0.14891 0.32371 0.0
C707 C 0.54095 0.15172 0.24869 0.0
C708 C 0.60523 0.15046 0.37151 0.0
C709 C 0.52924 0.15496 0.39484 0.0
C710 C 0.53618 0.15157 0.29957 0.0
C711 C 0.45692 0.15708 0.3697 0.0
C712 C 0.4678 0.14915 0.22434 0.0
C713 C 0.62028 0.15768 0.17905 0.0
N714 N 0.46209 0.15538 0.32337 0.0
N715 N 0.61509 0.15572 0.22522 0.0
H716 H 0.65128 0.1611 0.89341 0.0
H717 H 0.42962 0.16132 0.65438 0.0
H718 H 0.38427 0.15077 0.88268 0.0
H719 H 0.69135 0.14869 0.66583 0.0
H720 H 0.41434 0.16441 0.73814 0.0
H721 H 0.66804 0.16351 0.8094 0.0
C722 C 0.59586 0.1596 0.87343 0.0
C723 C 0.51643 0.15563 0.89469 0.0
C724 C 0.47539 0.16115 0.72209 0.0
C725 C 0.53484 0.15854 0.79935 0.0
C726 C 0.48429 0.15944 0.67445 0.0
C727 C 0.56163 0.15463 0.65348 0.0
C728 C 0.54499 0.15832 0.74856 0.0
C729 C 0.63047 0.15231 0.68092 0.0
C730 C 0.60558 0.16091 0.82566 0.0
C731 C 0.44669 0.15375 0.86737 0.0
N732 N 0.62059 0.15416 0.72714 0.0
N733 N 0.45745 0.15521 0.82103 0.0
H734 H 0.56832 0.90972 0.66013 0.0
H735 H 0.43104 0.87668 0.90203 0.0
H736 H 0.47208 0.87063 0.67826 0.0
H737 H 0.62239 0.9072 0.89427 0.0
H738 H 0.42488 0.87747 0.81936 0.0
H739 H 0.57061 0.9118 0.7447 0.0
C740 C 0.5469 0.90166 0.68186 0.0
C741 C 0.51962 0.88999 0.66228 0.0
C742 C 0.46836 0.88403 0.83545 0.0
C743 C 0.52165 0.89232 0.7582 0.0
C744 C 0.47191 0.88361 0.88289 0.0
C745 C 0.52829 0.89176 0.90524 0.0
C746 C 0.52112 0.89274 0.80938 0.0
C747 C 0.57857 0.90066 0.87835 0.0
C748 C 0.54881 0.90282 0.72993 0.0
C749 C 0.49344 0.8798 0.69182 0.0
N750 N 0.5741 0.9009 0.83161 0.0
N751 N 0.49476 0.88123 0.738 0.0
loop_
_geom_bond_atom_site_label_1
_geom_bond_atom_site_label_2
_geom_bond_distance
_geom_bond_site_symmetry_2
_ccdc_geom_bond_type
La0 C2 2.928 1_455 S
La0 O20 2.521 . S
La0 O21 2.628 1_454 S
La0 O22 2.554 . S
La0 O23 2.757 . S
La0 O24 2.470 1_455 S
La0 O29 2.482 1_554 S
La0 O31 2.503 . S
La1 C11 2.928 . S
La1 O23 2.482 . S
La1 O25 2.503 1_455 S
La1 O26 2.521 1_554 S
La1 O27 2.628 . S
La1 O28 2.554 1_554 S
La1 O29 2.757 1_554 S
La1 O30 2.470 1_554 S
C2 La0 2.928 1_655 S
C2 C3 1.503 . S
C2 O20 1.261 1_655 S
C2 O21 1.243 1_554 S
C3 C2 1.503 . S
C3 C4 1.394 . S
C3 C8 1.373 1_554 S
C4 C3 1.394 . S
C4 C5 1.380 . S
C4 H32 0.930 . S
C5 C4 1.380 . S
C5 C6 1.376 . S
C5 H33 0.930 . S
C6 C5 1.376 . S
C6 C7 1.370 1_554 S
C7 C6 1.370 1_556 S
C7 C8 1.396 . S
C7 H34 0.929 . S
C8 C3 1.373 1_556 S
C8 C7 1.396 . S
C8 H35 0.929 . S
C9 O22 1.240 . S
C9 O23 1.289 . S
C10 O24 1.258 . S
C10 O25 1.256 . S
C11 La1 2.928 . S
C11 C12 1.503 . S
C11 O26 1.261 1_554 S
C11 O27 1.243 . S
C12 C11 1.503 . S
C12 C13 1.394 1_554 S
C12 C17 1.373 . S
C13 C12 1.394 1_556 S
C13 C14 1.380 . S
C13 H36 0.930 . S
C14 C13 1.380 . S
C14 C15 1.376 1_556 S
C14 H37 0.930 . S
C15 C14 1.376 1_554 S
C15 C16 1.370 . S
C16 C15 1.370 . S
C16 C17 1.396 . S
C16 H38 0.929 . S
C17 C12 1.373 . S
C17 C16 1.396 . S
C17 H39 0.929 . S
C18 O28 1.240 . S
C18 O29 1.289 . S
C19 O30 1.258 1_554 S
C19 O31 1.256 . S
O20 La0 2.521 . S
O20 C2 1.261 1_455 S
O21 La0 2.628 1_656 S
O21 C2 1.243 1_556 S
O22 La0 2.554 . S
O22 C9 1.240 . S
O23 La0 2.757 . S
O23 La1 2.482 . S
O23 C9 1.289 . S
O24 La0 2.470 1_655 S
O24 C10 1.258 . S
O25 La1 2.503 1_655 S
O25 C10 1.256 . S
O26 La1 2.521 1_556 S
O26 C11 1.261 1_556 S
O27 La1 2.628 . S
O27 C11 1.243 . S
O28 La1 2.554 1_556 S
O28 C18 1.240 . S
O29 La0 2.482 1_556 S
O29 La1 2.757 1_556 S
O29 C18 1.289 . S
O30 La1 2.470 1_556 S
O30 C19 1.258 1_556 S
O31 La0 2.503 . S
O31 C19 1.256 . S
H32 C4 0.930 . S
H33 C5 0.930 . S
H34 C7 0.929 . S
H35 C8 0.929 . S
H36 C13 0.930 . S
H37 C14 0.930 . S
H38 C16 0.929 . S
H39 C17 0.929 . S
La40 C42 2.928 . S
La40 O60 2.521 . S
La40 O61 2.628 1_554 S
La40 O62 2.554 . S
La40 O63 2.757 . S
La40 O64 2.470 . S
La40 O69 2.482 1_554 S
La40 O71 2.503 1_655 S
La41 C51 2.928 1_655 S
La41 O63 2.482 . S
La41 O65 2.503 . S
La41 O66 2.521 1_554 S
La41 O67 2.628 1_655 S
La41 O68 2.554 1_554 S
La41 O69 2.757 1_554 S
La41 O70 2.470 1_654 S
C42 La40 2.928 . S
C42 C43 1.503 . S
C42 O60 1.261 . S
C42 O61 1.243 1_554 S
C43 C42 1.503 . S
C43 C44 1.394 . S
C43 C48 1.373 1_554 S
C44 C43 1.394 . S
C44 C45 1.380 . S
C44 H72 0.930 . S
C45 C44 1.380 . S
C45 C46 1.376 . S
C45 H73 0.930 . S
C46 C45 1.376 . S
C46 C47 1.370 1_554 S
C47 C46 1.370 1_556 S
C47 C48 1.396 . S
C47 H74 0.929 . S
C48 C43 1.373 1_556 S
C48 C47 1.396 . S
C48 H75 0.929 . S
C49 O62 1.240 . S
C49 O63 1.289 . S
C50 O64 1.258 . S
C50 O65 1.256 . S
C51 La41 2.928 1_455 S
C51 C52 1.503 . S
C51 O66 1.261 1_454 S
C51 O67 1.243 . S
C52 C51 1.503 . S
C52 C53 1.394 1_554 S
C52 C57 1.373 . S
C53 C52 1.394 1_556 S
C53 C54 1.380 . S
C53 H76 0.930 . S
C54 C53 1.380 . S
C54 C55 1.376 1_556 S
C54 H77 0.930 . S
C55 C54 1.376 1_554 S
C55 C56 1.370 . S
C56 C55 1.370 . S
C56 C57 1.396 . S
C56 H78 0.929 . S
C57 C52 1.373 . S
C57 C56 1.396 . S
C57 H79 0.929 . S
C58 O68 1.240 . S
C58 O69 1.289 . S
C59 O70 1.258 1_554 S
C59 O71 1.256 . S
O60 La40 2.521 . S
O60 C42 1.261 . S
O61 La40 2.628 1_556 S
O61 C42 1.243 1_556 S
O62 La40 2.554 . S
O62 C49 1.240 . S
O63 La40 2.757 . S
O63 La41 2.482 . S
O63 C49 1.289 . S
O64 La40 2.470 . S
O64 C50 1.258 . S
O65 La41 2.503 . S
O65 C50 1.256 . S
O66 La41 2.521 1_556 S
O66 C51 1.261 1_656 S
O67 La41 2.628 1_455 S
O67 C51 1.243 . S
O68 La41 2.554 1_556 S
O68 C58 1.240 . S
O69 La40 2.482 1_556 S
O69 La41 2.757 1_556 S
O69 C58 1.289 . S
O70 La41 2.470 1_456 S
O70 C59 1.258 1_556 S
O71 La40 2.503 1_455 S
O71 C59 1.256 . S
H72 C44 0.930 . S
H73 C45 0.930 . S
H74 C47 0.929 . S
H75 C48 0.929 . S
H76 C53 0.930 . S
H77 C54 0.930 . S
H78 C56 0.929 . S
H79 C57 0.929 . S
La80 C82 2.928 . S
La80 O100 2.521 . S
La80 O101 2.628 . S
La80 O102 2.554 . S
La80 O103 2.757 . S
La80 O104 2.470 . S
La80 O109 2.482 . S
La80 O111 2.503 1_455 S
La81 C91 2.928 1_455 S
La81 O103 2.482 . S
La81 O105 2.503 . S
La81 O106 2.521 . S
La81 O107 2.628 1_455 S
La81 O108 2.554 . S
La81 O109 2.757 . S
La81 O110 2.470 1_455 S
C82 La80 2.928 . S
C82 C83 1.503 . S
C82 O100 1.261 . S
C82 O101 1.243 . S
C83 C82 1.503 . S
C83 C84 1.394 . S
C83 C88 1.373 . S
C84 C83 1.394 . S
C84 C85 1.380 . S
C84 H112 0.930 . S
C85 C84 1.380 . S
C85 C86 1.376 . S
C85 H113 0.930 . S
C86 C85 1.376 . S
C86 C87 1.370 . S
C87 C86 1.370 . S
C87 C88 1.396 . S
C87 H114 0.929 . S
C88 C83 1.373 . S
C88 C87 1.396 . S
C88 H115 0.929 . S
C89 O102 1.240 . S
C89 O103 1.289 . S
C90 O104 1.258 . S
C90 O105 1.256 . S
C91 La81 2.928 1_655 S
C91 C92 1.503 . S
C91 O106 1.261 1_655 S
C91 O107 1.243 . S
C92 C91 1.503 . S
C92 C93 1.394 . S
C92 C97 1.373 . S
C93 C92 1.394 . S
C93 C94 1.380 . S
C93 H116 0.930 . S
C94 C93 1.380 . S
C94 C95 1.376 . S
C94 H117 0.930 . S
C95 C94 1.376 . S
C95 C96 1.370 . S
C96 C95 1.370 . S
C96 C97 1.396 . S
C96 H118 0.929 . S
C97 C92 1.373 . S
C97 C96 1.396 . S
C97 H119 0.929 . S
C98 O108 1.240 . S
C98 O109 1.289 . S
C99 O110 1.258 . S
C99 O111 1.256 . S
O100 La80 2.521 . S
O100 C82 1.261 . S
O101 La80 2.628 . S
O101 C82 1.243 . S
O102 La80 2.554 . S
O102 C89 1.240 . S
O103 La80 2.757 . S
O103 La81 2.482 . S
O103 C89 1.289 . S
O104 La80 2.470 . S
O104 C90 1.258 . S
O105 La81 2.503 . S
O105 C90 1.256 . S
O106 La81 2.521 . S
O106 C91 1.261 1_455 S
O107 La81 2.628 1_655 S
O107 C91 1.243 . S
O108 La81 2.554 . S
O108 C98 1.240 . S
O109 La80 2.482 . S
O109 La81 2.757 . S
O109 C98 1.289 . S
O110 La81 2.470 1_655 S
O110 C99 1.258 . S
O111 La80 2.503 1_655 S
O111 C99 1.256 . S
H112 C84 0.930 . S
H113 C85 0.930 . S
H114 C87 0.929 . S
H115 C88 0.929 . S
H116 C93 0.930 . S
H117 C94 0.930 . S
H118 C96 0.929 . S
H119 C97 0.929 . S
La120 C122 2.928 1_655 S
La120 O140 2.521 . S
La120 O141 2.628 1_655 S
La120 O142 2.554 . S
La120 O143 2.757 . S
La120 O144 2.470 1_655 S
La120 O149 2.482 . S
La120 O151 2.503 . S
La121 C131 2.928 . S
La121 O143 2.482 . S
La121 O145 2.503 1_655 S
La121 O146 2.521 . S
La121 O147 2.628 . S
La121 O148 2.554 . S
La121 O149 2.757 . S
La121 O150 2.470 . S
C122 La120 2.928 1_455 S
C122 C123 1.503 . S
C122 O140 1.261 1_455 S
C122 O141 1.243 . S
C123 C122 1.503 . S
C123 C124 1.394 . S
C123 C128 1.373 . S
C124 C123 1.394 . S
C124 C125 1.380 . S
C124 H152 0.930 . S
C125 C124 1.380 . S
C125 C126 1.376 . S
C125 H153 0.930 . S
C126 C125 1.376 . S
C126 C127 1.370 . S
C127 C126 1.370 . S
C127 C128 1.396 . S
C127 H154 0.929 . S
C128 C123 1.373 . S
C128 C127 1.396 . S
C128 H155 0.929 . S
C129 O142 1.240 . S
C129 O143 1.289 . S
C130 O144 1.258 . S
C130 O145 1.256 . S
C131 La121 2.928 . S
C131 C132 1.503 . S
C131 O146 1.261 . S
C131 O147 1.243 . S
C132 C131 1.503 . S
C132 C133 1.394 . S
C132 C137 1.373 . S
C133 C132 1.394 . S
C133 C134 1.380 . S
C133 H156 0.930 . S
C134 C133 1.380 . S
C134 C135 1.376 . S
C134 H157 0.930 . S
C135 C134 1.376 . S
C135 C136 1.370 . S
C136 C135 1.370 . S
C136 C137 1.396 . S
C136 H158 0.929 . S
C137 C132 1.373 . S
C137 C136 1.396 . S
C137 H159 0.929 . S
C138 O148 1.240 . S
C138 O149 1.289 . S
C139 O150 1.258 . S
C139 O151 1.256 . S
O140 La120 2.521 . S
O140 C122 1.261 1_655 S
O141 La120 2.628 1_455 S
O141 C122 1.243 . S
O142 La120 2.554 . S
O142 C129 1.240 . S
O143 La120 2.757 . S
O143 La121 2.482 . S
O143 C129 1.289 . S
O144 La120 2.470 1_455 S
O144 C130 1.258 . S
O145 La121 2.503 1_455 S
O145 C130 1.256 . S
O146 La121 2.521 . S
O146 C131 1.261 . S
O147 La121 2.628 . S
O147 C131 1.243 . S
O148 La121 2.554 . S
O148 C138 1.240 . S
O149 La120 2.482 . S
O149 La121 2.757 . S
O149 C138 1.289 . S
O150 La121 2.470 . S
O150 C139 1.258 . S
O151 La120 2.503 . S
O151 C139 1.256 . S
H152 C124 0.930 . S
H153 C125 0.930 . S
H154 C127 0.929 . S
H155 C128 0.929 . S
H156 C133 0.930 . S
H157 C134 0.930 . S
H158 C136 0.929 . S
H159 C137 0.929 . S
La160 C162 2.928 . S
La160 O180 2.521 . S
La160 O181 2.628 1_554 S
La160 O182 2.554 . S
La160 O183 2.757 . S
La160 O184 2.470 . S
La160 O189 2.482 1_554 S
La160 O191 2.503 . S
La161 C171 2.928 . S
La161 O183 2.482 . S
La161 O185 2.503 . S
La161 O186 2.521 1_554 S
La161 O187 2.628 . S
La161 O188 2.554 1_554 S
La161 O189 2.757 1_554 S
La161 O190 2.470 1_554 S
C162 La160 2.928 . S
C162 C163 1.503 . S
C162 O180 1.261 . S
C162 O181 1.243 1_554 S
C163 C162 1.503 . S
C163 C164 1.394 . S
C163 C168 1.373 1_554 S
C164 C163 1.394 . S
C164 C165 1.380 . S
C164 H192 0.930 . S
C165 C164 1.380 . S
C165 C166 1.376 . S
C165 H193 0.930 . S
C166 C165 1.376 . S
C166 C167 1.370 1_554 S
C167 C166 1.370 1_556 S
C167 C168 1.396 . S
C167 H194 0.929 . S
C168 C163 1.373 1_556 S
C168 C167 1.396 . S
C168 H195 0.929 . S
C169 O182 1.240 . S
C169 O183 1.289 . S
C170 O184 1.258 . S
C170 O185 1.256 . S
C171 La161 2.928 . S
C171 C172 1.503 . S
C171 O186 1.261 1_554 S
C171 O187 1.243 . S
C172 C171 1.503 . S
C172 C173 1.394 1_554 S
C172 C177 1.373 . S
C173 C172 1.394 1_556 S
C173 C174 1.380 . S
C173 H196 0.930 . S
C174 C173 1.380 . S
C174 C175 1.376 1_556 S
C174 H197 0.930 . S
C175 C174 1.376 1_554 S
C175 C176 1.370 . S
C176 C175 1.370 . S
C176 C177 1.396 . S
C176 H198 0.929 . S
C177 C172 1.373 . S
C177 C176 1.396 . S
C177 H199 0.929 . S
C178 O188 1.240 . S
C178 O189 1.289 . S
C179 O190 1.258 1_554 S
C179 O191 1.256 . S
O180 La160 2.521 . S
O180 C162 1.261 . S
O181 La160 2.628 1_556 S
O181 C162 1.243 1_556 S
O182 La160 2.554 . S
O182 C169 1.240 . S
O183 La160 2.757 . S
O183 La161 2.482 . S
O183 C169 1.289 . S
O184 La160 2.470 . S
O184 C170 1.258 . S
O185 La161 2.503 . S
O185 C170 1.256 . S
O186 La161 2.521 1_556 S
O186 C171 1.261 1_556 S
O187 La161 2.628 . S
O187 C171 1.243 . S
O188 La161 2.554 1_556 S
O188 C178 1.240 . S
O189 La160 2.482 1_556 S
O189 La161 2.757 1_556 S
O189 C178 1.289 . S
O190 La161 2.470 1_556 S
O190 C179 1.258 1_556 S
O191 La160 2.503 . S
O191 C179 1.256 . S
H192 C164 0.930 . S
H193 C165 0.930 . S
H194 C167 0.929 . S
H195 C168 0.929 . S
H196 C173 0.930 . S
H197 C174 0.930 . S
H198 C176 0.929 . S
H199 C177 0.929 . S
La200 C202 2.928 . S
La200 O220 2.521 . S
La200 O221 2.628 1_554 S
La200 O222 2.554 . S
La200 O223 2.757 . S
La200 O224 2.470 . S
La200 O229 2.482 1_554 S
La200 O231 2.503 . S
La201 C211 2.928 . S
La201 O223 2.482 . S
La201 O225 2.503 . S
La201 O226 2.521 1_554 S
La201 O227 2.628 . S
La201 O228 2.554 1_554 S
La201 O229 2.757 1_554 S
La201 O230 2.470 1_554 S
C202 La200 2.928 . S
C202 C203 1.503 . S
C202 O220 1.261 . S
C202 O221 1.243 1_554 S
C203 C202 1.503 . S
C203 C204 1.394 . S
C203 C208 1.373 1_554 S
C204 C203 1.394 . S
C204 C205 1.380 . S
C204 H232 0.930 . S
C205 C204 1.380 . S
C205 C206 1.376 . S
C205 H233 0.930 . S
C206 C205 1.376 . S
C206 C207 1.370 1_554 S
C207 C206 1.370 1_556 S
C207 C208 1.396 . S
C207 H234 0.929 . S
C208 C203 1.373 1_556 S
C208 C207 1.396 . S
C208 H235 0.929 . S
C209 O222 1.240 . S
C209 O223 1.289 . S
C210 O224 1.258 . S
C210 O225 1.256 . S
C211 La201 2.928 . S
C211 C212 1.503 . S
C211 O226 1.261 1_554 S
C211 O227 1.243 . S
C212 C211 1.503 . S
C212 C213 1.394 1_554 S
C212 C217 1.373 . S
C213 C212 1.394 1_556 S
C213 C214 1.380 . S
C213 H236 0.930 . S
C214 C213 1.380 . S
C214 C215 1.376 1_556 S
C214 H237 0.930 . S
C215 C214 1.376 1_554 S
C215 C216 1.370 . S
C216 C215 1.370 . S
C216 C217 1.396 . S
C216 H238 0.929 . S
C217 C212 1.373 . S
C217 C216 1.396 . S
C217 H239 0.929 . S
C218 O228 1.240 . S
C218 O229 1.289 . S
C219 O230 1.258 1_554 S
C219 O231 1.256 . S
O220 La200 2.521 . S
O220 C202 1.261 . S
O221 La200 2.628 1_556 S
O221 C202 1.243 1_556 S
O222 La200 2.554 . S
O222 C209 1.240 . S
O223 La200 2.757 . S
O223 La201 2.482 . S
O223 C209 1.289 . S
O224 La200 2.470 . S
O224 C210 1.258 . S
O225 La201 2.503 . S
O225 C210 1.256 . S
O226 La201 2.521 1_556 S
O226 C211 1.261 1_556 S
O227 La201 2.628 . S
O227 C211 1.243 . S
O228 La201 2.554 1_556 S
O228 C218 1.240 . S
O229 La200 2.482 1_556 S
O229 La201 2.757 1_556 S
O229 C218 1.289 . S
O230 La201 2.470 1_556 S
O230 C219 1.258 1_556 S
O231 La200 2.503 . S
O231 C219 1.256 . S
H232 C204 0.930 . S
H233 C205 0.930 . S
H234 C207 0.929 . S
H235 C208 0.929 . S
H236 C213 0.930 . S
H237 C214 0.930 . S
H238 C216 0.929 . S
H239 C217 0.929 . S
La240 C242 2.928 . S
La240 O260 2.521 . S
La240 O261 2.628 . S
La240 O262 2.554 . S
La240 O263 2.757 . S
La240 O264 2.470 . S
La240 O269 2.482 . S
La240 O271 2.503 . S
La241 C251 2.928 . S
La241 O263 2.482 . S
La241 O265 2.503 . S
La241 O266 2.521 . S
La241 O267 2.628 . S
La241 O268 2.554 . S
La241 O269 2.757 . S
La241 O270 2.470 . S
C242 La240 2.928 . S
C242 C243 1.503 . S
C242 O260 1.261 . S
C242 O261 1.243 . S
C243 C242 1.503 . S
C243 C244 1.394 . S
C243 C248 1.373 . S
C244 C243 1.394 . S
C244 C245 1.380 . S
C244 H272 0.930 . S
C245 C244 1.380 . S
C245 C246 1.376 . S
C245 H273 0.930 . S
C246 C245 1.376 . S
C246 C247 1.370 . S
C247 C246 1.370 . S
C247 C248 1.396 . S
C247 H274 0.929 . S
C248 C243 1.373 . S
C248 C247 1.396 . S
C248 H275 0.929 . S
C249 O262 1.240 . S
C249 O263 1.289 . S
C250 O264 1.258 . S
C250 O265 1.256 . S
C251 La241 2.928 . S
C251 C252 1.503 . S
C251 O266 1.261 . S
C251 O267 1.243 . S
C252 C251 1.503 . S
C252 C253 1.394 . S
C252 C257 1.373 . S
C253 C252 1.394 . S
C253 C254 1.380 . S
C253 H276 0.930 . S
C254 C253 1.380 . S
C254 C255 1.376 . S
C254 H277 0.930 . S
C255 C254 1.376 . S
C255 C256 1.370 . S
C256 C255 1.370 . S
C256 C257 1.396 . S
C256 H278 0.929 . S
C257 C252 1.373 . S
C257 C256 1.396 . S
C257 H279 0.929 . S
C258 O268 1.240 . S
C258 O269 1.289 . S
C259 O270 1.258 . S
C259 O271 1.256 . S
O260 La240 2.521 . S
O260 C242 1.261 . S
O261 La240 2.628 . S
O261 C242 1.243 . S
O262 La240 2.554 . S
O262 C249 1.240 . S
O263 La240 2.757 . S
O263 La241 2.482 . S
O263 C249 1.289 . S
O264 La240 2.470 . S
O264 C250 1.258 . S
O265 La241 2.503 . S
O265 C250 1.256 . S
O266 La241 2.521 . S
O266 C251 1.261 . S
O267 La241 2.628 . S
O267 C251 1.243 . S
O268 La241 2.554 . S
O268 C258 1.240 . S
O269 La240 2.482 . S
O269 La241 2.757 . S
O269 C258 1.289 . S
O270 La241 2.470 . S
O270 C259 1.258 . S
O271 La240 2.503 . S
O271 C259 1.256 . S
H272 C244 0.930 . S
H273 C245 0.930 . S
H274 C247 0.929 . S
H275 C248 0.929 . S
H276 C253 0.930 . S
H277 C254 0.930 . S
H278 C256 0.929 . S
H279 C257 0.929 . S
La280 C282 2.928 . S
La280 O300 2.521 . S
La280 O301 2.628 . S
La280 O302 2.554 . S
La280 O303 2.757 . S
La280 O304 2.470 . S
La280 O309 2.482 . S
La280 O311 2.503 . S
La281 C291 2.928 . S
La281 O303 2.482 . S
La281 O305 2.503 . S
La281 O306 2.521 . S
La281 O307 2.628 . S
La281 O308 2.554 . S
La281 O309 2.757 . S
La281 O310 2.470 . S
C282 La280 2.928 . S
C282 C283 1.503 . S
C282 O300 1.261 . S
C282 O301 1.243 . S
C283 C282 1.503 . S
C283 C284 1.394 . S
C283 C288 1.373 . S
C284 C283 1.394 . S
C284 C285 1.380 . S
C284 H312 0.930 . S
C285 C284 1.380 . S
C285 C286 1.376 . S
C285 H313 0.930 . S
C286 C285 1.376 . S
C286 C287 1.370 . S
C287 C286 1.370 . S
C287 C288 1.396 . S
C287 H314 0.929 . S
C288 C283 1.373 . S
C288 C287 1.396 . S
C288 H315 0.929 . S
C289 O302 1.240 . S
C289 O303 1.289 . S
C290 O304 1.258 . S
C290 O305 1.256 . S
C291 La281 2.928 . S
C291 C292 1.503 . S
C291 O306 1.261 . S
C291 O307 1.243 . S
C292 C291 1.503 . S
C292 C293 1.394 . S
C292 C297 1.373 . S
C293 C292 1.394 . S
C293 C294 1.380 . S
C293 H316 0.930 . S
C294 C293 1.380 . S
C294 C295 1.376 . S
C294 H317 0.930 . S
C295 C294 1.376 . S
C295 C296 1.370 . S
C296 C295 1.370 . S
C296 C297 1.396 . S
C296 H318 0.929 . S
C297 C292 1.373 . S
C297 C296 1.396 . S
C297 H319 0.929 . S
C298 O308 1.240 . S
C298 O309 1.289 . S
C299 O310 1.258 . S
C299 O311 1.256 . S
O300 La280 2.521 . S
O300 C282 1.261 . S
O301 La280 2.628 . S
O301 C282 1.243 . S
O302 La280 2.554 . S
O302 C289 1.240 . S
O303 La280 2.757 . S
O303 La281 2.482 . S
O303 C289 1.289 . S
O304 La280 2.470 . S
O304 C290 1.258 . S
O305 La281 2.503 . S
O305 C290 1.256 . S
O306 La281 2.521 . S
O306 C291 1.261 . S
O307 La281 2.628 . S
O307 C291 1.243 . S
O308 La281 2.554 . S
O308 C298 1.240 . S
O309 La280 2.482 . S
O309 La281 2.757 . S
O309 C298 1.289 . S
O310 La281 2.470 . S
O310 C299 1.258 . S
O311 La280 2.503 . S
O311 C299 1.256 . S
H312 C284 0.930 . S
H313 C285 0.930 . S
H314 C287 0.929 . S
H315 C288 0.929 . S
H316 C293 0.930 . S
H317 C294 0.930 . S
H318 C296 0.929 . S
H319 C297 0.929 . S
H320 C326 0.930 . S
H321 C330 0.930 . S
H322 C335 0.929 . S
H323 C333 0.929 . S
H324 C328 0.929 . S
H325 C334 0.929 . S
C326 H320 0.930 . S
C326 C327 1.367 1_556 S
C326 C334 1.378 . S
C327 C326 1.367 1_554 S
C327 C335 1.433 . S
C328 H324 0.929 . S
C328 C330 1.378 . S
C328 C332 1.350 . S
C329 C332 1.463 . S
C329 C334 1.350 1_554 S
C329 N337 1.427 . S
C330 H321 0.930 . S
C330 C328 1.378 . S
C330 C331 1.367 . S
C331 C330 1.367 . S
C331 C333 1.433 1_554 S
C332 C328 1.350 . S
C332 C329 1.463 . S
C332 N336 1.427 1_554 S
C333 H323 0.929 . S
C333 C331 1.433 1_556 S
C333 N336 1.384 . S
C334 H325 0.929 . S
C334 C326 1.378 . S
C334 C329 1.350 1_556 S
C335 H322 0.929 . S
C335 C327 1.433 . S
C335 N337 1.384 . S
N336 C332 1.427 1_556 S
N336 C333 1.384 . S
N337 C329 1.427 . S
N337 C335 1.384 . S
H338 C344 0.930 . S
H339 C348 0.930 . S
H340 C353 0.929 . S
H341 C351 0.929 . S
H342 C346 0.929 . S
H343 C352 0.929 . S
C344 H338 0.930 . S
C344 C345 1.367 . S
C344 C352 1.378 . S
C345 C344 1.367 . S
C345 C353 1.433 . S
C346 H342 0.929 . S
C346 C348 1.378 . S
C346 C350 1.350 . S
C347 C350 1.463 . S
C347 C352 1.350 . S
C347 N355 1.427 . S
C348 H339 0.930 . S
C348 C346 1.378 . S
C348 C349 1.367 . S
C349 C348 1.367 . S
C349 C351 1.433 . S
C350 C346 1.350 . S
C350 C347 1.463 . S
C350 N354 1.427 . S
C351 H341 0.929 . S
C351 C349 1.433 . S
C351 N354 1.384 . S
C352 H343 0.929 . S
C352 C344 1.378 . S
C352 C347 1.350 . S
C353 H340 0.929 . S
C353 C345 1.433 . S
C353 N355 1.384 . S
N354 C350 1.427 . S
N354 C351 1.384 . S
N355 C347 1.427 . S
N355 C353 1.384 . S
H356 C362 0.930 . S
H357 C366 0.930 . S
H358 C371 0.929 . S
H359 C369 0.929 . S
H360 C364 0.929 . S
H361 C370 0.929 . S
C362 H356 0.930 . S
C362 C363 1.367 . S
C362 C370 1.378 . S
C363 C362 1.367 . S
C363 C371 1.433 . S
C364 H360 0.929 . S
C364 C366 1.378 . S
C364 C368 1.350 . S
C365 C368 1.463 . S
C365 C370 1.350 . S
C365 N373 1.427 . S
C366 H357 0.930 . S
C366 C364 1.378 . S
C366 C367 1.367 . S
C367 C366 1.367 . S
C367 C369 1.433 . S
C368 C364 1.350 . S
C368 C365 1.463 . S
C368 N372 1.427 . S
C369 H359 0.929 . S
C369 C367 1.433 . S
C369 N372 1.384 . S
C370 H361 0.929 . S
C370 C362 1.378 . S
C370 C365 1.350 . S
C371 H358 0.929 . S
C371 C363 1.433 . S
C371 N373 1.384 . S
N372 C368 1.427 . S
N372 C369 1.384 . S
N373 C365 1.427 . S
N373 C371 1.384 . S
H374 C380 0.930 . S
H375 C384 0.930 . S
H376 C389 0.929 . S
H377 C387 0.929 . S
H378 C382 0.929 . S
H379 C388 0.929 . S
C380 H374 0.930 . S
C380 C381 1.367 . S
C380 C388 1.378 . S
C381 C380 1.367 . S
C381 C389 1.433 . S
C382 H378 0.929 . S
C382 C384 1.378 . S
C382 C386 1.350 . S
C383 C386 1.463 . S
C383 C388 1.350 . S
C383 N391 1.427 . S
C384 H375 0.930 . S
C384 C382 1.378 . S
C384 C385 1.367 . S
C385 C384 1.367 . S
C385 C387 1.433 . S
C386 C382 1.350 . S
C386 C383 1.463 . S
C386 N390 1.427 . S
C387 H377 0.929 . S
C387 C385 1.433 . S
C387 N390 1.384 . S
C388 H379 0.929 . S
C388 C380 1.378 . S
C388 C383 1.350 . S
C389 H376 0.929 . S
C389 C381 1.433 . S
C389 N391 1.384 . S
N390 C386 1.427 . S
N390 C387 1.384 . S
N391 C383 1.427 . S
N391 C389 1.384 . S
H392 C398 0.930 . S
H393 C402 0.930 . S
H394 C407 0.929 . S
H395 C405 0.929 . S
H396 C400 0.929 . S
H397 C406 0.929 1_455 S
C398 H392 0.930 . S
C398 C399 1.367 1_556 S
C398 C406 1.378 . S
C399 C398 1.367 1_554 S
C399 C407 1.433 . S
C400 H396 0.929 . S
C400 C402 1.378 . S
C400 C404 1.350 . S
C401 C404 1.463 . S
C401 C406 1.350 1_454 S
C401 N409 1.427 1_455 S
C402 H393 0.930 . S
C402 C400 1.378 . S
C402 C403 1.367 . S
C403 C402 1.367 . S
C403 C405 1.433 1_554 S
C404 C400 1.350 . S
C404 C401 1.463 . S
C404 N408 1.427 1_554 S
C405 H395 0.929 . S
C405 C403 1.433 1_556 S
C405 N408 1.384 . S
C406 H397 0.929 1_655 S
C406 C398 1.378 . S
C406 C401 1.350 1_656 S
C407 H394 0.929 . S
C407 C399 1.433 . S
C407 N409 1.384 . S
N408 C404 1.427 1_556 S
N408 C405 1.384 . S
N409 C401 1.427 1_655 S
N409 C407 1.384 . S
H410 C416 0.930 . S
H411 C420 0.930 . S
H412 C425 0.929 . S
H413 C423 0.929 . S
H414 C418 0.929 . S
H415 C424 0.929 . S
C416 H410 0.930 . S
C416 C417 1.367 1_556 S
C416 C424 1.378 . S
C417 C416 1.367 1_554 S
C417 C425 1.433 . S
C418 H414 0.929 . S
C418 C420 1.378 . S
C418 C422 1.350 . S
C419 C422 1.463 . S
C419 C424 1.350 1_654 S
C419 N427 1.427 1_655 S
C420 H411 0.930 . S
C420 C418 1.378 . S
C420 C421 1.367 . S
C421 C420 1.367 . S
C421 C423 1.433 1_554 S
C422 C418 1.350 . S
C422 C419 1.463 . S
C422 N426 1.427 1_554 S
C423 H413 0.929 . S
C423 C421 1.433 1_556 S
C423 N426 1.384 . S
C424 H415 0.929 . S
C424 C416 1.378 . S
C424 C419 1.350 1_456 S
C425 H412 0.929 . S
C425 C417 1.433 . S
C425 N427 1.384 . S
N426 C422 1.427 1_556 S
N426 C423 1.384 . S
N427 C419 1.427 1_455 S
N427 C425 1.384 . S
H428 C434 0.930 . S
H429 C438 0.930 . S
H430 C443 0.929 . S
H431 C441 0.929 . S
H432 C436 0.929 . S
H433 C442 0.929 . S
C434 H428 0.930 . S
C434 C435 1.367 . S
C434 C442 1.378 . S
C435 C434 1.367 . S
C435 C443 1.433 . S
C436 H432 0.929 . S
C436 C438 1.378 . S
C436 C440 1.350 1_655 S
C437 C440 1.463 . S
C437 C442 1.350 . S
C437 N445 1.427 . S
C438 H429 0.930 . S
C438 C436 1.378 . S
C438 C439 1.367 . S
C439 C438 1.367 . S
C439 C441 1.433 . S
C440 C436 1.350 1_455 S
C440 C437 1.463 . S
C440 N444 1.427 1_455 S
C441 H431 0.929 . S
C441 C439 1.433 . S
C441 N444 1.384 . S
C442 H433 0.929 . S
C442 C434 1.378 . S
C442 C437 1.350 . S
C443 H430 0.929 . S
C443 C435 1.433 . S
C443 N445 1.384 . S
N444 C440 1.427 1_655 S
N444 C441 1.384 . S
N445 C437 1.427 . S
N445 C443 1.384 . S
H446 C452 0.930 . S
H447 C456 0.930 . S
H448 C461 0.929 . S
H449 C459 0.929 . S
H450 C454 0.929 . S
H451 C460 0.929 . S
C452 H446 0.930 . S
C452 C453 1.367 . S
C452 C460 1.378 . S
C453 C452 1.367 . S
C453 C461 1.433 . S
C454 H450 0.929 . S
C454 C456 1.378 . S
C454 C458 1.350 1_455 S
C455 C458 1.463 . S
C455 C460 1.350 . S
C455 N463 1.427 . S
C456 H447 0.930 . S
C456 C454 1.378 . S
C456 C457 1.367 . S
C457 C456 1.367 . S
C457 C459 1.433 . S
C458 C454 1.350 1_655 S
C458 C455 1.463 . S
C458 N462 1.427 1_655 S
C459 H449 0.929 . S
C459 C457 1.433 . S
C459 N462 1.384 . S
C460 H451 0.929 . S
C460 C452 1.378 . S
C460 C455 1.350 . S
C461 H448 0.929 . S
C461 C453 1.433 . S
C461 N463 1.384 . S
N462 C458 1.427 1_455 S
N462 C459 1.384 . S
N463 C455 1.427 . S
N463 C461 1.384 . S
H464 C470 0.930 . S
H465 C474 0.930 . S
H466 C479 0.929 . S
H467 C477 0.929 . S
H468 C472 0.929 1_455 S
H469 C478 0.929 1_655 S
C470 H464 0.930 . S
C470 C471 1.367 1_556 S
C470 C478 1.378 . S
C471 C470 1.367 1_554 S
C471 C479 1.433 . S
C472 H468 0.929 1_655 S
C472 C474 1.378 . S
C472 C476 1.350 . S
C473 C476 1.463 1_455 S
C473 C478 1.350 1_554 S
C473 N481 1.427 . S
C474 H465 0.930 . S
C474 C472 1.378 . S
C474 C475 1.367 . S
C475 C474 1.367 . S
C475 C477 1.433 1_554 S
C476 C472 1.350 . S
C476 C473 1.463 1_655 S
C476 N480 1.427 1_554 S
C477 H467 0.929 . S
C477 C475 1.433 1_556 S
C477 N480 1.384 . S
C478 H469 0.929 1_455 S
C478 C470 1.378 . S
C478 C473 1.350 1_556 S
C479 H466 0.929 . S
C479 C471 1.433 . S
C479 N481 1.384 . S
N480 C476 1.427 1_556 S
N480 C477 1.384 . S
N481 C473 1.427 . S
N481 C479 1.384 . S
H482 C488 0.930 . S
H483 C492 0.930 . S
H484 C497 0.929 . S
H485 C495 0.929 . S
H486 C490 0.929 . S
H487 C496 0.929 . S
C488 H482 0.930 . S
C488 C489 1.367 . S
C488 C496 1.378 . S
C489 C488 1.367 . S
C489 C497 1.433 . S
C490 H486 0.929 . S
C490 C492 1.378 . S
C490 C494 1.350 . S
C491 C494 1.463 1_455 S
C491 C496 1.350 . S
C491 N499 1.427 1_455 S
C492 H483 0.930 . S
C492 C490 1.378 . S
C492 C493 1.367 . S
C493 C492 1.367 . S
C493 C495 1.433 . S
C494 C490 1.350 . S
C494 C491 1.463 1_655 S
C494 N498 1.427 1_655 S
C495 H485 0.929 . S
C495 C493 1.433 . S
C495 N498 1.384 1_655 S
C496 H487 0.929 . S
C496 C488 1.378 . S
C496 C491 1.350 . S
C497 H484 0.929 . S
C497 C489 1.433 . S
C497 N499 1.384 1_455 S
N498 C494 1.427 1_455 S
N498 C495 1.384 1_455 S
N499 C491 1.427 1_655 S
N499 C497 1.384 1_655 S
H500 C506 0.930 . S
H501 C510 0.930 . S
H502 C515 0.929 . S
H503 C513 0.929 . S
H504 C508 0.929 . S
H505 C514 0.929 . S
C506 H500 0.930 . S
C506 C507 1.367 1_556 S
C506 C514 1.378 . S
C507 C506 1.367 1_554 S
C507 C515 1.433 . S
C508 H504 0.929 . S
C508 C510 1.378 . S
C508 C512 1.350 . S
C509 C512 1.463 1_565 S
C509 C514 1.350 1_554 S
C509 N517 1.427 . S
C510 H501 0.930 . S
C510 C508 1.378 . S
C510 C511 1.367 . S
C511 C510 1.367 . S
C511 C513 1.433 1_554 S
C512 C508 1.350 . S
C512 C509 1.463 1_545 S
C512 N516 1.427 1_554 S
C513 H503 0.929 . S
C513 C511 1.433 1_556 S
C513 N516 1.384 . S
C514 H505 0.929 . S
C514 C506 1.378 . S
C514 C509 1.350 1_556 S
C515 H502 0.929 . S
C515 C507 1.433 . S
C515 N517 1.384 . S
N516 C512 1.427 1_556 S
N516 C513 1.384 . S
N517 C509 1.427 . S
N517 C515 1.384 . S
H518 C524 0.930 . S
H519 C528 0.930 . S
H520 C533 0.929 . S
H521 C531 0.929 . S
H522 C526 0.929 . S
H523 C532 0.929 . S
C524 H518 0.930 . S
C524 C525 1.367 . S
C524 C532 1.378 . S
C525 C524 1.367 . S
C525 C533 1.433 . S
C526 H522 0.929 . S
C526 C528 1.378 . S
C526 C530 1.350 . S
C527 C530 1.463 1_545 S
C527 C532 1.350 . S
C527 N535 1.427 . S
C528 H519 0.930 . S
C528 C526 1.378 . S
C528 C529 1.367 . S
C529 C528 1.367 . S
C529 C531 1.433 . S
C530 C526 1.350 . S
C530 C527 1.463 1_565 S
C530 N534 1.427 . S
C531 H521 0.929 . S
C531 C529 1.433 . S
C531 N534 1.384 . S
C532 H523 0.929 . S
C532 C524 1.378 . S
C532 C527 1.350 . S
C533 H520 0.929 . S
C533 C525 1.433 . S
C533 N535 1.384 . S
N534 C530 1.427 . S
N534 C531 1.384 . S
N535 C527 1.427 . S
N535 C533 1.384 . S
H536 C542 0.930 . S
H537 C546 0.930 . S
H538 C551 0.929 . S
H539 C549 0.929 . S
H540 C544 0.929 . S
H541 C550 0.929 . S
C542 H536 0.930 . S
C542 C543 1.367 . S
C542 C550 1.378 . S
C543 C542 1.367 . S
C543 C551 1.433 1_554 S
C544 H540 0.929 . S
C544 C546 1.378 . S
C544 C548 1.350 1_556 S
C545 C548 1.463 . S
C545 C550 1.350 . S
C545 N553 1.427 1_554 S
C546 H537 0.930 . S
C546 C544 1.378 . S
C546 C547 1.367 1_556 S
C547 C546 1.367 1_554 S
C547 C549 1.433 . S
C548 C544 1.350 1_554 S
C548 C545 1.463 . S
C548 N552 1.427 . S
C549 H539 0.929 . S
C549 C547 1.433 . S
C549 N552 1.384 . S
C550 H541 0.929 . S
C550 C542 1.378 . S
C550 C545 1.350 . S
C551 H538 0.929 . S
C551 C543 1.433 1_556 S
C551 N553 1.384 . S
N552 C548 1.427 . S
N552 C549 1.384 . S
N553 C545 1.427 1_556 S
N553 C551 1.384 . S
H554 C560 0.930 . S
H555 C564 0.930 . S
H556 C569 0.929 . S
H557 C567 0.929 . S
H558 C562 0.929 . S
H559 C568 0.929 . S
C560 H554 0.930 . S
C560 C561 1.367 1_556 S
C560 C568 1.378 . S
C561 C560 1.367 1_554 S
C561 C569 1.433 . S
C562 H558 0.929 . S
C562 C564 1.378 . S
C562 C566 1.350 . S
C563 C566 1.463 . S
C563 C568 1.350 1_554 S
C563 N571 1.427 . S
C564 H555 0.930 . S
C564 C562 1.378 . S
C564 C565 1.367 . S
C565 C564 1.367 . S
C565 C567 1.433 1_554 S
C566 C562 1.350 . S
C566 C563 1.463 . S
C566 N570 1.427 1_554 S
C567 H557 0.929 . S
C567 C565 1.433 1_556 S
C567 N570 1.384 . S
C568 H559 0.929 . S
C568 C560 1.378 . S
C568 C563 1.350 1_556 S
C569 H556 0.929 . S
C569 C561 1.433 . S
C569 N571 1.384 . S
N570 C566 1.427 1_556 S
N570 C567 1.384 . S
N571 C563 1.427 . S
N571 C569 1.384 . S
H572 C578 0.930 . S
H573 C582 0.930 . S
H574 C587 0.929 . S
H575 C585 0.929 . S
H576 C580 0.929 . S
H577 C586 0.929 . S
C578 H572 0.930 . S
C578 C579 1.367 . S
C578 C586 1.378 . S
C579 C578 1.367 . S
C579 C587 1.433 . S
C580 H576 0.929 . S
C580 C582 1.378 . S
C580 C584 1.350 . S
C581 C584 1.463 . S
C581 C586 1.350 . S
C581 N589 1.427 . S
C582 H573 0.930 . S
C582 C580 1.378 . S
C582 C583 1.367 . S
C583 C582 1.367 . S
C583 C585 1.433 . S
C584 C580 1.350 . S
C584 C581 1.463 . S
C584 N588 1.427 . S
C585 H575 0.929 . S
C585 C583 1.433 . S
C585 N588 1.384 . S
C586 H577 0.929 . S
C586 C578 1.378 . S
C586 C581 1.350 . S
C587 H574 0.929 . S
C587 C579 1.433 . S
C587 N589 1.384 . S
N588 C584 1.427 . S
N588 C585 1.384 . S
N589 C581 1.427 . S
N589 C587 1.384 . S
H590 C596 0.930 . S
H591 C600 0.930 . S
H592 C605 0.929 . S
H593 C603 0.929 . S
H594 C598 0.929 . S
H595 C604 0.929 . S
C596 H590 0.930 . S
C596 C597 1.367 . S
C596 C604 1.378 . S
C597 C596 1.367 . S
C597 C605 1.433 . S
C598 H594 0.929 . S
C598 C600 1.378 . S
C598 C602 1.350 . S
C599 C602 1.463 . S
C599 C604 1.350 . S
C599 N607 1.427 . S
C600 H591 0.930 . S
C600 C598 1.378 . S
C600 C601 1.367 . S
C601 C600 1.367 . S
C601 C603 1.433 . S
C602 C598 1.350 . S
C602 C599 1.463 . S
C602 N606 1.427 . S
C603 H593 0.929 . S
C603 C601 1.433 . S
C603 N606 1.384 . S
C604 H595 0.929 . S
C604 C596 1.378 . S
C604 C599 1.350 . S
C605 H592 0.929 . S
C605 C597 1.433 . S
C605 N607 1.384 . S
N606 C602 1.427 . S
N606 C603 1.384 . S
N607 C599 1.427 . S
N607 C605 1.384 . S
H608 C614 0.930 . S
H609 C618 0.930 . S
H610 C623 0.929 . S
H611 C621 0.929 . S
H612 C616 0.929 1_455 S
H613 C622 0.929 1_655 S
C614 H608 0.930 . S
C614 C615 1.367 . S
C614 C622 1.378 . S
C615 C614 1.367 . S
C615 C623 1.433 . S
C616 H612 0.929 1_655 S
C616 C618 1.378 . S
C616 C620 1.350 . S
C617 C620 1.463 1_455 S
C617 C622 1.350 . S
C617 N625 1.427 . S
C618 H609 0.930 . S
C618 C616 1.378 . S
C618 C619 1.367 . S
C619 C618 1.367 . S
C619 C621 1.433 . S
C620 C616 1.350 . S
C620 C617 1.463 1_655 S
C620 N624 1.427 . S
C621 H611 0.929 . S
C621 C619 1.433 . S
C621 N624 1.384 . S
C622 H613 0.929 1_455 S
C622 C614 1.378 . S
C622 C617 1.350 . S
C623 H610 0.929 . S
C623 C615 1.433 . S
C623 N625 1.384 . S
N624 C620 1.427 . S
N624 C621 1.384 . S
N625 C617 1.427 . S
N625 C623 1.384 . S
H626 C632 0.930 1_455 S
H627 C636 0.930 1_655 S
H628 C641 0.929 . S
H629 C639 0.929 . S
H630 C634 0.929 . S
H631 C640 0.929 . S
C632 H626 0.930 1_655 S
C632 C633 1.367 . S
C632 C640 1.378 1_655 S
C633 C632 1.367 . S
C633 C641 1.433 . S
C634 H630 0.929 . S
C634 C636 1.378 1_655 S
C634 C638 1.350 1_655 S
C635 C638 1.463 1_655 S
C635 C640 1.350 1_655 S
C635 N643 1.427 . S
C636 H627 0.930 1_455 S
C636 C634 1.378 1_455 S
C636 C637 1.367 . S
C637 C636 1.367 . S
C637 C639 1.433 . S
C638 C634 1.350 1_455 S
C638 C635 1.463 1_455 S
C638 N642 1.427 . S
C639 H629 0.929 . S
C639 C637 1.433 . S
C639 N642 1.384 . S
C640 H631 0.929 . S
C640 C632 1.378 1_455 S
C640 C635 1.350 1_455 S
C641 H628 0.929 . S
C641 C633 1.433 . S
C641 N643 1.384 . S
N642 C638 1.427 . S
N642 C639 1.384 . S
N643 C635 1.427 . S
N643 C641 1.384 . S
H644 C650 0.930 . S
H645 C654 0.930 . S
H646 C659 0.929 . S
H647 C657 0.929 . S
H648 C652 0.929 . S
H649 C658 0.929 . S
C650 H644 0.930 . S
C650 C651 1.367 . S
C650 C658 1.378 . S
C651 C650 1.367 . S
C651 C659 1.433 1_655 S
C652 H648 0.929 . S
C652 C654 1.378 . S
C652 C656 1.350 . S
C653 C656 1.463 1_655 S
C653 C658 1.350 . S
C653 N661 1.427 1_655 S
C654 H645 0.930 . S
C654 C652 1.378 . S
C654 C655 1.367 . S
C655 C654 1.367 . S
C655 C657 1.433 1_455 S
C656 C652 1.350 . S
C656 C653 1.463 1_455 S
C656 N660 1.427 1_455 S
C657 H647 0.929 . S
C657 C655 1.433 1_655 S
C657 N660 1.384 . S
C658 H649 0.929 . S
C658 C650 1.378 . S
C658 C653 1.350 . S
C659 H646 0.929 . S
C659 C651 1.433 1_455 S
C659 N661 1.384 . S
N660 C656 1.427 1_655 S
N660 C657 1.384 . S
N661 C653 1.427 1_455 S
N661 C659 1.384 . S
H662 C668 0.930 . S
H663 C672 0.930 . S
H664 C677 0.929 . S
H665 C675 0.929 . S
H666 C670 0.929 . S
H667 C676 0.929 . S
C668 H662 0.930 . S
C668 C669 1.367 . S
C668 C676 1.378 . S
C669 C668 1.367 . S
C669 C677 1.433 1_655 S
C670 H666 0.929 . S
C670 C672 1.378 . S
C670 C674 1.350 . S
C671 C674 1.463 1_655 S
C671 C676 1.350 . S
C671 N679 1.427 1_655 S
C672 H663 0.930 . S
C672 C670 1.378 . S
C672 C673 1.367 . S
C673 C672 1.367 . S
C673 C675 1.433 1_455 S
C674 C670 1.350 . S
C674 C671 1.463 1_455 S
C674 N678 1.427 1_455 S
C675 H665 0.929 . S
C675 C673 1.433 1_655 S
C675 N678 1.384 . S
C676 H667 0.929 . S
C676 C668 1.378 . S
C676 C671 1.350 . S
C677 H664 0.929 . S
C677 C669 1.433 1_455 S
C677 N679 1.384 . S
N678 C674 1.427 1_655 S
N678 C675 1.384 . S
N679 C671 1.427 1_455 S
N679 C677 1.384 . S
H680 C686 0.930 . S
H681 C690 0.930 . S
H682 C695 0.929 . S
H683 C693 0.929 . S
H684 C688 0.929 . S
H685 C694 0.929 . S
C686 H680 0.930 . S
C686 C687 1.367 . S
C686 C694 1.378 . S
C687 C686 1.367 . S
C687 C695 1.433 . S
C688 H684 0.929 . S
C688 C690 1.378 . S
C688 C692 1.350 . S
C689 C692 1.463 . S
C689 C694 1.350 . S
C689 N697 1.427 . S
C690 H681 0.930 . S
C690 C688 1.378 . S
C690 C691 1.367 . S
C691 C690 1.367 . S
C691 C693 1.433 . S
C692 C688 1.350 . S
C692 C689 1.463 . S
C692 N696 1.427 . S
C693 H683 0.929 . S
C693 C691 1.433 . S
C693 N696 1.384 . S
C694 H685 0.929 . S
C694 C686 1.378 . S
C694 C689 1.350 . S
C695 H682 0.929 . S
C695 C687 1.433 . S
C695 N697 1.384 . S
N696 C692 1.427 . S
N696 C693 1.384 . S
N697 C689 1.427 . S
N697 C695 1.384 . S
H698 C704 0.930 . S
H699 C708 0.930 . S
H700 C713 0.929 . S
H701 C711 0.929 . S
H702 C706 0.929 . S
H703 C712 0.929 . S
C704 H698 0.930 . S
C704 C705 1.367 . S
C704 C712 1.378 . S
C705 C704 1.367 . S
C705 C713 1.433 . S
C706 H702 0.929 . S
C706 C708 1.378 . S
C706 C710 1.350 . S
C707 C710 1.463 . S
C707 C712 1.350 . S
C707 N715 1.427 . S
C708 H699 0.930 . S
C708 C706 1.378 . S
C708 C709 1.367 . S
C709 C708 1.367 . S
C709 C711 1.433 . S
C710 C706 1.350 . S
C710 C707 1.463 . S
C710 N714 1.427 . S
C711 H701 0.929 . S
C711 C709 1.433 . S
C711 N714 1.384 . S
C712 H703 0.929 . S
C712 C704 1.378 . S
C712 C707 1.350 . S
C713 H700 0.929 . S
C713 C705 1.433 . S
C713 N715 1.384 . S
N714 C710 1.427 . S
N714 C711 1.384 . S
N715 C707 1.427 . S
N715 C713 1.384 . S
H716 C722 0.930 . S
H717 C726 0.930 . S
H718 C731 0.929 . S
H719 C729 0.929 . S
H720 C724 0.929 . S
H721 C730 0.929 . S
C722 H716 0.930 . S
C722 C723 1.367 . S
C722 C730 1.378 . S
C723 C722 1.367 . S
C723 C731 1.433 . S
C724 H720 0.929 . S
C724 C726 1.378 . S
C724 C728 1.350 . S
C725 C728 1.463 . S
C725 C730 1.350 . S
C725 N733 1.427 . S
C726 H717 0.930 . S
C726 C724 1.378 . S
C726 C727 1.367 . S
C727 C726 1.367 . S
C727 C729 1.433 . S
C728 C724 1.350 . S
C728 C725 1.463 . S
C728 N732 1.427 . S
C729 H719 0.929 . S
C729 C727 1.433 . S
C729 N732 1.384 . S
C730 H721 0.929 . S
C730 C722 1.378 . S
C730 C725 1.350 . S
C731 H718 0.929 . S
C731 C723 1.433 . S
C731 N733 1.384 . S
N732 C728 1.427 . S
N732 C729 1.384 . S
N733 C725 1.427 . S
N733 C731 1.384 . S
H734 C740 0.930 . S
H735 C744 0.930 . S
H736 C749 0.929 . S
H737 C747 0.929 . S
H738 C742 0.929 . S
H739 C748 0.929 . S
C740 H734 0.930 . S
C740 C741 1.367 . S
C740 C748 1.378 . S
C741 C740 1.367 . S
C741 C749 1.433 . S
C742 H738 0.929 . S
C742 C744 1.378 . S
C742 C746 1.350 . S
C743 C746 1.463 . S
C743 C748 1.350 . S
C743 N751 1.427 . S
C744 H735 0.930 . S
C744 C742 1.378 . S
C744 C745 1.367 . S
C745 C744 1.367 . S
C745 C747 1.433 . S
C746 C742 1.350 . S
C746 C743 1.463 . S
C746 N750 1.427 . S
C747 H737 0.929 . S
C747 C745 1.433 . S
C747 N750 1.384 . S
C748 H739 0.929 . S
C748 C740 1.378 . S
C748 C743 1.350 . S
C749 H736 0.929 . S
C749 C741 1.433 . S
C749 N751 1.384 . S
N750 C746 1.427 . S
N750 C747 1.384 . S
N751 C743 1.427 . S
N751 C749 1.384 . S
C327 C19 2.285 . S
C331 C10 2.285 . S
C345 C59 2.292 . S
C349 C50 2.292 . S
C363 C99 2.284 . S
C367 C90 2.284 . S
C381 C139 2.288 . S
C385 C130 2.288 . S
C399 C179 2.285 . S
C403 C170 2.285 . S
C417 C210 2.290 . S
C421 C219 2.290 . S
C435 C259 2.283 . S
C439 C250 2.283 . S
C453 C290 2.287 . S
C457 C299 2.287 . S
C471 C55 2.621 . S
C475 C6 2.621 . S
C489 C126 2.629 . S
C493 C95 2.629 . S
C507 C166 2.623 . S
C511 C215 2.623 . S
C525 C255 2.629 . S
C529 C286 2.629 . S
C543 C15 1.832 . S
C547 C206 1.832 . S
C561 C175 1.830 . S
C565 C46 1.830 . S
C579 C86 1.827 . S
C583 C295 1.827 . S
C597 C135 1.838 . S
C601 C246 1.838 . S
C615 C9 1.483 . S
C619 C129 1.469 . S
C633 C49 1.577 . S
C637 C89 1.589 . S
C651 C58 1.479 . S
C655 C98 1.474 . S
C669 C138 1.593 . S
C673 C18 1.583 . S
C687 C169 1.482 . S
C691 C289 1.468 . S
C705 C209 1.581 . S
C709 C249 1.593 . S
C723 C218 1.469 . S
C727 C258 1.483 . S
C741 C298 1.594 . S
C745 C178 1.581 . S
