# Generated by pormake.
# Topology wjy, (5)-cn, num edge types: 1
# Building blocks:
#     Node 0, Type 0, BuildingBlock: XOMCOT_clean_sbu_0, # of connection points: 5
#     Node 1, Type 0, BuildingBlock: XOMCOT_clean_sbu_0, # of connection points: 5
#     Node 2, Type 0, BuildingBlock: XOMCOT_clean_sbu_0, # of connection points: 5
#     Node 3, Type 0, BuildingBlock: XOMCOT_clean_sbu_0, # of connection points: 5
#     Node 4, Type 0, BuildingBlock: XOMCOT_clean_sbu_0, # of connection points: 5
#     Node 5, Type 0, BuildingBlock: XOMCOT_clean_sbu_0, # of connection points: 5
#     Node 6, Type 0, BuildingBlock: XOMCOT_clean_sbu_0, # of connection points: 5
#     Node 7, Type 0, BuildingBlock: XOMCOT_clean_sbu_0, # of connection points: 5
#     Node 8, Type 0, BuildingBlock: XOMCOT_clean_sbu_0, # of connection points: 5
#     Node 9, Type 0, BuildingBlock: XOMCOT_clean_sbu_0, # of connection points: 5
#     Node 10, Type 0, BuildingBlock: XOMCOT_clean_sbu_0, # of connection points: 5
#     Node 11, Type 0, BuildingBlock: XOMCOT_clean_sbu_0, # of connection points: 5
#     Edge 12, Type (0, 0), BuildingBlock: XUDNAN_clean_linker_2, # of connection points: 2
#     Edge 13, Type (0, 0), BuildingBlock: XUDNAN_clean_linker_2, # of connection points: 2
#     Edge 14, Type (0, 0), BuildingBlock: XUDNAN_clean_linker_2, # of connection points: 2
#     Edge 15, Type (0, 0), BuildingBlock: XUDNAN_clean_linker_2, # of connection points: 2
#     Edge 16, Type (0, 0), BuildingBlock: XUDNAN_clean_linker_2, # of connection points: 2
#     Edge 17, Type (0, 0), BuildingBlock: XUDNAN_clean_linker_2, # of connection points: 2
#     Edge 18, Type (0, 0), BuildingBlock: XUDNAN_clean_linker_2, # of connection points: 2
#     Edge 19, Type (0, 0), BuildingBlock: XUDNAN_clean_linker_2, # of connection points: 2
#     Edge 20, Type (0, 0), BuildingBlock: XUDNAN_clean_linker_2, # of connection points: 2
#     Edge 21, Type (0, 0), BuildingBlock: XUDNAN_clean_linker_2, # of connection points: 2
#     Edge 22, Type (0, 0), BuildingBlock: XUDNAN_clean_linker_2, # of connection points: 2
#     Edge 23, Type (0, 0), BuildingBlock: XUDNAN_clean_linker_2, # of connection points: 2
#     Edge 24, Type (0, 0), BuildingBlock: XUDNAN_clean_linker_2, # of connection points: 2
#     Edge 25, Type (0, 0), BuildingBlock: XUDNAN_clean_linker_2, # of connection points: 2
#     Edge 26, Type (0, 0), BuildingBlock: XUDNAN_clean_linker_2, # of connection points: 2
#     Edge 27, Type (0, 0), BuildingBlock: XUDNAN_clean_linker_2, # of connection points: 2
#     Edge 28, Type (0, 0), BuildingBlock: XUDNAN_clean_linker_2, # of connection points: 2
#     Edge 29, Type (0, 0), BuildingBlock: XUDNAN_clean_linker_2, # of connection points: 2
#     Edge 30, Type (0, 0), BuildingBlock: XUDNAN_clean_linker_2, # of connection points: 2
#     Edge 31, Type (0, 0), BuildingBlock: XUDNAN_clean_linker_2, # of connection points: 2
#     Edge 32, Type (0, 0), BuildingBlock: XUDNAN_clean_linker_2, # of connection points: 2
#     Edge 33, Type (0, 0), BuildingBlock: XUDNAN_clean_linker_2, # of connection points: 2
#     Edge 34, Type (0, 0), BuildingBlock: XUDNAN_clean_linker_2, # of connection points: 2
#     Edge 35, Type (0, 0), BuildingBlock: XUDNAN_clean_linker_2, # of connection points: 2
#     Edge 36, Type (0, 0), BuildingBlock: XUDNAN_clean_linker_2, # of connection points: 2
#     Edge 37, Type (0, 0), BuildingBlock: XUDNAN_clean_linker_2, # of connection points: 2
#     Edge 38, Type (0, 0), BuildingBlock: XUDNAN_clean_linker_2, # of connection points: 2
#     Edge 39, Type (0, 0), BuildingBlock: XUDNAN_clean_linker_2, # of connection points: 2
#     Edge 40, Type (0, 0), BuildingBlock: XUDNAN_clean_linker_2, # of connection points: 2
#     Edge 41, Type (0, 0), BuildingBlock: XUDNAN_clean_linker_2, # of connection points: 2
# Relax obj value: 0.079
# Max RMSD: 0.164
# Mean RMSD: 0.164
data_MOF--net-wjy--node1-XOMCOT_clean_sbu_0--edge1-XUDNAN_clean_linker_2
_symmetry_space_group_name_H-M    P1
_symmetry_Int_Tables_number       1
_symmetry_cell_setting            triclinic
loop_
_symmetry_equiv_pos_as_xyz
'x, y, z'
_cell_length_a     75.626224
_cell_length_b     75.639017
_cell_length_c     17.581142
_cell_angle_alpha  90.058863
_cell_angle_beta   89.960183
_cell_angle_gamma 119.93932
loop_
_atom_site_label
_atom_site_type_symbol
_atom_site_fract_x
_atom_site_fract_y
_atom_site_fract_z
_atom_type_partial_charge
Co0 Co 0.45856 0.09988 0.13605 0.0
C1 C 0.46105 0.10704 0.97072 0.0
C2 C 0.48767 0.10688 1.01181 0.0
C3 C 0.48908 0.10908 0.93376 0.0
N4 N 0.47012 0.10567 0.03471 0.0
N5 N 0.47228 0.10911 0.90788 0.0
H6 H 0.44613 0.1057 0.97031 0.0
H7 H 0.49844 0.10567 0.04882 0.0
C8 C 0.49691 0.13006 0.221 0.0
O9 O 0.48786 0.13982 0.24702 0.0
N10 N 0.44641 0.09318 0.2386 0.0
C11 C 0.42616 0.08233 0.25363 0.0
C12 C 0.42301 0.0819 0.33054 0.0
C13 C 0.45525 0.09818 0.30847 0.0
N14 N 0.44128 0.09194 0.36493 0.0
C15 C 0.43962 0.12444 0.15661 0.0
C16 C 0.47255 0.1611 0.11102 0.0
C17 C 0.45553 0.16104 0.14292 0.0
C18 C 0.43868 0.14232 0.16345 0.0
C19 C 0.47295 0.14281 0.10611 0.0
N20 N 0.4571 0.12496 0.13343 0.0
H21 H 0.42626 0.11022 0.17073 0.0
H22 H 0.4865 0.14321 0.08413 0.0
H23 H 0.41414 0.07577 0.21169 0.0
H24 H 0.47141 0.10637 0.31913 0.0
O25 O 0.43224 0.08132 0.09203 0.0
O26 O 0.45515 0.07289 0.12862 0.0
O27 O 0.48714 0.11415 0.17957 0.0
C28 C 0.43736 0.06731 0.09888 0.0
H29 H 0.50144 0.11029 0.89896 0.0
H30 H 0.40838 0.07512 0.35907 0.0
H31 H 0.48577 0.17524 0.09331 0.0
H32 H 0.4249 0.14152 0.18534 0.0
Co33 Co 0.36303 0.47017 0.27643 0.0
C34 C 0.36683 0.47195 0.10679 0.0
C35 C 0.39276 0.49642 0.16285 0.0
C36 C 0.39665 0.49772 0.08618 0.0
N37 N 0.37411 0.48031 0.17605 0.0
N38 N 0.38046 0.48231 0.05083 0.0
H39 H 0.35242 0.45808 0.09803 0.0
H40 H 0.40327 0.50613 0.20619 0.0
C41 C 0.37551 0.50836 0.36754 0.0
O42 O 0.35696 0.50034 0.39547 0.0
N43 N 0.35283 0.46029 0.3788 0.0
C44 C 0.33396 0.44644 0.40305 0.0
C45 C 0.33429 0.44466 0.48108 0.0
C46 C 0.36442 0.46612 0.44247 0.0
N47 N 0.35346 0.4571 0.50588 0.0
C48 C 0.32107 0.45745 0.24237 0.0
C49 C 0.32634 0.49606 0.2256 0.0
C50 C 0.30642 0.47927 0.22292 0.0
C51 C 0.30406 0.45969 0.22892 0.0
C52 C 0.34289 0.49306 0.23772 0.0
N53 N 0.33999 0.47406 0.25238 0.0
H54 H 0.31898 0.44227 0.24448 0.0
H55 H 0.35805 0.50615 0.23574 0.0
H56 H 0.32078 0.43778 0.36773 0.0
H57 H 0.38058 0.47714 0.4423 0.0
O58 O 0.35224 0.44235 0.24099 0.0
O59 O 0.38311 0.46187 0.28959 0.0
O60 O 0.37992 0.49865 0.31864 0.0
C61 C 0.36991 0.44455 0.25929 0.0
H62 H 0.41058 0.50893 0.05866 0.0
H63 H 0.32145 0.43465 0.51654 0.0
H64 H 0.32926 0.51153 0.21965 0.0
H65 H 0.28924 0.44614 0.22268 0.0
Co66 Co 0.89974 0.35487 0.45347 0.0
C67 C 0.89308 0.35337 0.28547 0.0
C68 C 0.90608 0.38372 0.32941 0.0
C69 C 0.90452 0.38445 0.25138 0.0
N70 N 0.8986 0.36415 0.35104 0.0
N71 N 0.89628 0.3653 0.22389 0.0
H72 H 0.88776 0.33731 0.28164 0.0
H73 H 0.9125 0.39664 0.36776 0.0
C74 C 0.87325 0.37414 0.46654 0.0
O75 O 0.86558 0.36734 0.39872 0.0
N76 N 0.90127 0.34566 0.55463 0.0
C77 C 0.90157 0.32835 0.56976 0.0
C78 C 0.89958 0.32497 0.64685 0.0
C79 C 0.89935 0.35276 0.62304 0.0
N80 N 0.89815 0.34026 0.68022 0.0
C81 C 0.8737 0.31406 0.39871 0.0
C82 C 0.83837 0.30734 0.47042 0.0
C83 C 0.8376 0.29205 0.4231 0.0
C84 C 0.85573 0.29547 0.3883 0.0
C85 C 0.8567 0.32573 0.47925 0.0
N86 N 0.87386 0.32943 0.44009 0.0
H87 H 0.88755 0.31606 0.37309 0.0
H88 H 0.85698 0.33665 0.51924 0.0
H89 H 0.90222 0.31835 0.52724 0.0
H90 H 0.8978 0.3661 0.63067 0.0
O91 O 0.91874 0.34651 0.41701 0.0
O92 O 0.92737 0.37713 0.46209 0.0
O93 O 0.88601 0.36975 0.49618 0.0
C94 C 0.93308 0.365 0.4328 0.0
H95 H 0.90919 0.39804 0.21768 0.0
H96 H 0.89862 0.31192 0.67606 0.0
H97 H 0.8249 0.30525 0.50005 0.0
H98 H 0.85613 0.28379 0.35391 0.0
Co99 Co 0.53884 0.89736 0.61941 0.0
C100 C 0.53319 0.89338 0.44829 0.0
C101 C 0.51708 0.90642 0.5038 0.0
C102 C 0.51316 0.90542 0.42729 0.0
N103 N 0.5293 0.89853 0.51767 0.0
N104 N 0.52327 0.89724 0.39249 0.0
H105 H 0.54272 0.88679 0.43793 0.0
H106 H 0.51117 0.9123 0.54695 0.0
C107 C 0.49312 0.87027 0.62466 0.0
O108 O 0.49285 0.86415 0.55456 0.0
N109 N 0.54794 0.89678 0.72149 0.0
C110 C 0.56373 0.89453 0.74394 0.0
C111 C 0.5633 0.89303 0.8224 0.0
C112 C 0.53829 0.89679 0.78586 0.0
N113 N 0.54715 0.89429 0.84846 0.0
C114 C 0.55351 0.87239 0.55322 0.0
C115 C 0.52622 0.83633 0.62407 0.0
C116 C 0.54083 0.83635 0.57481 0.0
C117 C 0.55475 0.85483 0.53994 0.0
C118 C 0.52559 0.85428 0.6361 0.0
N119 N 0.53857 0.87187 0.59833 0.0
H120 H 0.56479 0.88654 0.52759 0.0
H121 H 0.515 0.854 0.67777 0.0
H122 H 0.57438 0.89341 0.70595 0.0
H123 H 0.52485 0.89838 0.78665 0.0
O124 O 0.56654 0.9168 0.58913 0.0
O125 O 0.54423 0.92483 0.63587 0.0
O126 O 0.50984 0.88264 0.65761 0.0
C127 C 0.5623 0.93091 0.60806 0.0
H128 H 0.50371 0.91045 0.39917 0.0
H129 H 0.57358 0.89042 0.85714 0.0
H130 H 0.51532 0.82257 0.65337 0.0
H131 H 0.56685 0.8559 0.50384 0.0
Co132 Co 0.6379 0.53091 0.80129 0.0
C133 C 0.63786 0.53049 0.63375 0.0
C134 C 0.61153 0.504 0.6777 0.0
C135 C 0.61 0.50395 0.59938 0.0
N136 N 0.62904 0.52065 0.69904 0.0
N137 N 0.62648 0.52074 0.57197 0.0
H138 H 0.65199 0.54493 0.6318 0.0
H139 H 0.60011 0.49322 0.71627 0.0
C140 C 0.62408 0.49288 0.8964 0.0
O141 O 0.64105 0.50171 0.93615 0.0
N142 N 0.64681 0.54184 0.90382 0.0
C143 C 0.6642 0.55922 0.92076 0.0
C144 C 0.66452 0.56331 0.99673 0.0
C145 C 0.63635 0.53607 0.97057 0.0
N146 N 0.64707 0.54879 0.02839 0.0
C147 C 0.68078 0.54437 0.78019 0.0
C148 C 0.6764 0.5059 0.7775 0.0
C149 C 0.69609 0.52286 0.78242 0.0
C150 C 0.69821 0.54236 0.78 0.0
C151 C 0.65948 0.50867 0.77743 0.0
N152 N 0.66176 0.52765 0.7862 0.0
H153 H 0.68268 0.55942 0.77595 0.0
H154 H 0.64455 0.4954 0.77116 0.0
H155 H 0.67559 0.56915 0.88074 0.0
H156 H 0.62105 0.52323 0.97643 0.0
O157 O 0.64838 0.55857 0.76418 0.0
O158 O 0.61698 0.53827 0.80675 0.0
O159 O 0.62106 0.5023 0.84214 0.0
C160 C 0.63021 0.55576 0.77785 0.0
H161 H 0.59716 0.49309 0.56571 0.0
H162 H 0.67667 0.57621 0.02633 0.0
H163 H 0.67405 0.49057 0.77442 0.0
H164 H 0.71314 0.55594 0.78044 0.0
Co165 Co 0.10302 0.64073 0.88761 0.0
C166 C 0.10918 0.64328 0.72194 0.0
C167 C 0.10216 0.61386 0.76386 0.0
C168 C 0.10401 0.61395 0.68572 0.0
N169 N 0.10551 0.6323 0.78622 0.0
N170 N 0.10842 0.63248 0.65939 0.0
H171 H 0.11167 0.65866 0.72119 0.0
H172 H 0.09818 0.6011 0.80145 0.0
C173 C 0.1297 0.62801 0.9749 0.0
O174 O 0.14004 0.64588 1.00831 0.0
N175 N 0.09985 0.64921 0.98989 0.0
C176 C 0.09483 0.6637 1.00478 0.0
C177 C 0.09518 0.6667 0.08174 0.0
C178 C 0.10181 0.64267 0.05963 0.0
N179 N 0.09977 0.65365 0.11622 0.0
C180 C 0.13243 0.68405 0.88552 0.0
C181 C 0.16604 0.67963 0.85877 0.0
C182 C 0.16908 0.69896 0.87713 0.0
C183 C 0.15196 0.70127 0.88713 0.0
C184 C 0.14626 0.66293 0.85648 0.0
N185 N 0.12989 0.66499 0.87608 0.0
H186 H 0.11945 0.6861 0.89276 0.0
H187 H 0.14421 0.64815 0.84187 0.0
H188 H 0.09124 0.67184 0.96282 0.0
H189 H 0.10487 0.63039 0.06974 0.0
O190 O 0.08566 0.65064 0.84684 0.0
O191 O 0.07504 0.61935 0.88992 0.0
O192 O 0.11513 0.62422 0.929 0.0
C193 C 0.07056 0.63226 0.85945 0.0
H194 H 0.10213 0.60128 0.65115 0.0
H195 H 0.09253 0.67786 0.11029 0.0
H196 H 0.17887 0.67737 0.84778 0.0
H197 H 0.15367 0.71609 0.89914 0.0
Co198 Co 0.89187 0.53172 0.73099 0.0
C199 C 0.8895 0.52707 0.90068 0.0
C200 C 0.90134 0.50995 0.84413 0.0
C201 C 0.90047 0.5061 0.92056 0.0
N202 N 0.89434 0.52291 0.83144 0.0
N203 N 0.89296 0.51676 0.95614 0.0
H204 H 0.88313 0.53692 0.91005 0.0
H205 H 0.90659 0.50358 0.80039 0.0
C206 C 0.8657 0.4911 0.65008 0.0
O207 O 0.85554 0.49801 0.61147 0.0
N208 N 0.89008 0.54017 0.62808 0.0
C209 C 0.8862 0.5548 0.60342 0.0
C210 C 0.8862 0.55484 0.52494 0.0
C211 C 0.8934 0.53234 0.56421 0.0
N212 N 0.89046 0.54049 0.50048 0.0
C213 C 0.86324 0.54518 0.76576 0.0
C214 C 0.8299 0.50697 0.79027 0.0
C215 C 0.82705 0.52393 0.79083 0.0
C216 C 0.84419 0.54331 0.78031 0.0
C217 C 0.8492 0.50956 0.77563 0.0
N218 N 0.86532 0.52834 0.75841 0.0
H219 H 0.87635 0.56025 0.76074 0.0
H220 H 0.85108 0.49636 0.77895 0.0
H221 H 0.88362 0.56492 0.63873 0.0
H222 H 0.89759 0.52061 0.56449 0.0
O223 O 0.90958 0.56001 0.76032 0.0
O224 O 0.91987 0.53954 0.71218 0.0
O225 O 0.87959 0.50244 0.69737 0.0
C226 C 0.92463 0.55731 0.7398 0.0
H227 H 0.90508 0.49624 0.94802 0.0
H228 H 0.88269 0.56427 0.48886 0.0
H229 H 0.81728 0.49171 0.79995 0.0
H230 H 0.84299 0.55696 0.78408 0.0
Co231 Co 0.36085 0.89127 0.91042 0.0
C232 C 0.36197 0.89178 0.07987 0.0
C233 C 0.38619 0.88824 0.03425 0.0
C234 C 0.38845 0.89016 0.11224 0.0
N235 N 0.36909 0.8885 1.01367 0.0
N236 N 0.37325 0.89252 0.14069 0.0
H237 H 0.34959 0.89498 0.08348 0.0
H238 H 0.39723 0.88819 0.99539 0.0
C239 C 0.37607 0.86212 0.88491 0.0
O240 O 0.36444 0.85109 0.94152 0.0
N241 N 0.35303 0.89486 0.80919 0.0
C242 C 0.33581 0.89521 0.79295 0.0
C243 C 0.33537 0.89848 0.71638 0.0
C244 C 0.36286 0.8978 0.74195 0.0
N245 N 0.35233 0.90012 0.68427 0.0
C246 C 0.32222 0.86035 0.97366 0.0
C247 C 0.313 0.8324 0.8574 0.0
C248 C 0.29974 0.82717 0.9193 0.0
C249 C 0.30433 0.84138 0.97765 0.0
C250 C 0.33088 0.85136 0.85634 0.0
N251 N 0.33574 0.86483 0.91538 0.0
H252 H 0.32488 0.87144 0.01684 0.0
H253 H 0.34091 0.85518 0.80782 0.0
H254 H 0.32433 0.89319 0.83418 0.0
H255 H 0.37748 0.8986 0.73554 0.0
O256 O 0.35105 0.90875 0.9498 0.0
O257 O 0.38269 0.91922 0.91082 0.0
O258 O 0.37636 0.87852 0.86515 0.0
C259 C 0.36958 0.92377 0.93939 0.0
H260 H 0.40113 0.89128 0.14474 0.0
H261 H 0.32338 0.89943 0.68635 0.0
H262 H 0.30971 0.82181 0.81084 0.0
H263 H 0.29407 0.83792 0.02545 0.0
Co264 Co 0.4601 0.35576 0.11473 0.0
C265 C 0.46599 0.35742 0.28563 0.0
C266 C 0.48249 0.38644 0.22988 0.0
C267 C 0.48639 0.38938 0.30636 0.0
N268 N 0.47004 0.36638 0.21618 0.0
N269 N 0.47605 0.37118 0.34137 0.0
H270 H 0.45615 0.34135 0.29605 0.0
H271 H 0.48845 0.39818 0.18668 0.0
C272 C 0.506 0.3747 0.10518 0.0
O273 O 0.50693 0.36877 0.17451 0.0
N274 N 0.45065 0.34621 1.01273 0.0
C275 C 0.43527 0.32797 0.98999 0.0
C276 C 0.43556 0.32715 0.9114 0.0
C277 C 0.45987 0.35624 0.94842 0.0
N278 N 0.45119 0.34491 0.88553 0.0
C279 C 0.44588 0.31614 0.17958 0.0
C280 C 0.47324 0.3077 0.10677 0.0
C281 C 0.45878 0.29299 0.15597 0.0
C282 C 0.44481 0.29738 0.19181 0.0
C283 C 0.47364 0.3262 0.09558 0.0
N284 N 0.46064 0.33064 0.13428 0.0
H285 H 0.43458 0.31887 0.20598 0.0
H286 H 0.48409 0.33657 0.05381 0.0
H287 H 0.42507 0.31588 0.02781 0.0
H288 H 0.47295 0.37148 0.94795 0.0
O289 O 0.43245 0.34742 0.14678 0.0
O290 O 0.45457 0.37778 0.1001 0.0
O291 O 0.48892 0.37022 0.07491 0.0
C292 C 0.4366 0.36578 0.12853 0.0
H293 H 0.49591 0.40386 0.33432 0.0
H294 H 0.42562 0.31415 0.87643 0.0
H295 H 0.48419 0.30501 0.0768 0.0
H296 H 0.4328 0.28626 0.22785 0.0
Co297 Co 0.10775 0.46796 0.24119 0.0
C298 C 0.10988 0.46979 0.40995 0.0
C299 C 0.1098 0.49596 0.36506 0.0
C300 C 0.10829 0.49621 0.44338 0.0
N301 N 0.11143 0.47965 0.34372 0.0
N302 N 0.10815 0.47959 0.47139 0.0
H303 H 0.1084 0.45486 0.41315 0.0
H304 H 0.10805 0.50611 0.32661 0.0
C305 C 0.1326 0.51287 0.20566 0.0
O306 O 0.14507 0.51573 0.2623 0.0
N307 N 0.10333 0.4557 0.14073 0.0
C308 C 0.10396 0.43859 0.12512 0.0
C309 C 0.10093 0.43467 0.04853 0.0
C310 C 0.10002 0.46209 0.07291 0.0
N311 N 0.09849 0.44941 0.01553 0.0
C312 C 0.14264 0.46493 0.29532 0.0
C313 C 0.16693 0.48426 0.17061 0.0
C314 C 0.17514 0.47813 0.22961 0.0
C315 C 0.16256 0.46809 0.29234 0.0
C316 C 0.14721 0.48114 0.17649 0.0
N317 N 0.13542 0.4721 0.23915 0.0
H318 H 0.13307 0.45647 0.34228 0.0
H319 H 0.14135 0.48587 0.12954 0.0
H320 H 0.10681 0.42976 0.16657 0.0
H321 H 0.09865 0.47555 0.06565 0.0
O322 O 0.09256 0.44075 0.28492 0.0
O323 O 0.07937 0.45978 0.248 0.0
O324 O 0.11733 0.49527 0.19203 0.0
C325 C 0.07653 0.44286 0.27785 0.0
H326 H 0.1057 0.5068 0.47641 0.0
H327 H 0.10098 0.42213 0.01897 0.0
H328 H 0.17551 0.49121 0.11927 0.0
H329 H 0.16801 0.4628 0.33908 0.0
Co330 Co 0.63771 0.10734 0.43018 0.0
C331 C 0.63595 0.10805 0.6014 0.0
C332 C 0.61109 0.10896 0.54719 0.0
C333 C 0.60731 0.10658 0.62366 0.0
N334 N 0.62932 0.11047 0.53237 0.0
N335 N 0.62279 0.10578 0.65796 0.0
H336 H 0.64892 0.10589 0.60953 0.0
H337 H 0.60016 0.10769 0.50496 0.0
C338 C 0.6221 0.13619 0.40402 0.0
O339 O 0.63455 0.14778 0.45792 0.0
N340 N 0.6451 0.10335 0.32864 0.0
C341 C 0.66303 0.10522 0.30667 0.0
C342 C 0.66282 0.10302 0.2287 0.0
C343 C 0.63412 0.09975 0.26424 0.0
N344 N 0.64463 0.09959 0.20219 0.0
C345 C 0.67718 0.13798 0.4876 0.0
C346 C 0.68623 0.1643 0.36599 0.0
C347 C 0.70138 0.16865 0.42038 0.0
C348 C 0.69654 0.15547 0.4828 0.0
C349 C 0.6672 0.14679 0.37291 0.0
N350 N 0.66274 0.13382 0.43319 0.0
H351 H 0.67428 0.12727 0.53276 0.0
H352 H 0.65634 0.14317 0.32741 0.0
H353 H 0.67559 0.10851 0.3445 0.0
H354 H 0.619 0.09795 0.26256 0.0
O355 O 0.64795 0.09036 0.47048 0.0
O356 O 0.61612 0.07929 0.43255 0.0
O357 O 0.62172 0.11968 0.38492 0.0
C358 C 0.62949 0.07513 0.46127 0.0
H359 H 0.59355 0.10432 0.65137 0.0
H360 H 0.6751 0.1039 0.19421 0.0
H361 H 0.68924 0.17406 0.31693 0.0
H362 H 0.70794 0.15805 0.52532 0.0
Co363 Co 0.54106 0.64334 0.58996 0.0
C364 C 0.53902 0.64876 0.75542 0.0
C365 C 0.51186 0.62246 0.71504 0.0
C366 C 0.51047 0.62365 0.79287 0.0
N367 N 0.52974 0.63828 0.69174 0.0
N368 N 0.52762 0.64017 0.81841 0.0
H369 H 0.55416 0.66199 0.75549 0.0
H370 H 0.5008 0.61059 0.67848 0.0
C371 C 0.50073 0.63329 0.51284 0.0
O372 O 0.50718 0.65227 0.49298 0.0
N373 N 0.55274 0.64794 0.48703 0.0
C374 C 0.57256 0.65455 0.47 0.0
C375 C 0.5755 0.65769 0.3931 0.0
C376 C 0.54387 0.64661 0.41857 0.0
N377 N 0.55749 0.65268 0.361 0.0
C378 C 0.55929 0.68624 0.55919 0.0
C379 C 0.52806 0.69135 0.61629 0.0
C380 C 0.54438 0.70771 0.57879 0.0
C381 C 0.5604 0.70513 0.55211 0.0
C382 C 0.52747 0.67257 0.62154 0.0
N383 N 0.54242 0.66985 0.58915 0.0
H384 H 0.57205 0.68484 0.53989 0.0
H385 H 0.51435 0.65991 0.6479 0.0
H386 H 0.58454 0.65786 0.51051 0.0
H387 H 0.52807 0.64194 0.41 0.0
O388 O 0.56761 0.65163 0.63362 0.0
O389 O 0.54471 0.62 0.60046 0.0
O390 O 0.51242 0.62819 0.54708 0.0
C391 C 0.56253 0.63246 0.62932 0.0
H392 H 0.49785 0.61297 0.82773 0.0
H393 H 0.58985 0.66357 0.36305 0.0
H394 H 0.51546 0.69276 0.63851 0.0
H395 H 0.57369 0.71762 0.52556 0.0
H396 H 0.46628 0.26975 0.05305 0.0
H397 H 0.44955 0.27103 0.2887 0.0
H398 H 0.44701 0.23768 0.30999 0.0
H399 H 0.43415 0.2165 0.02155 0.0
H400 H 0.45239 0.21373 0.96422 0.0
H401 H 0.45289 0.23778 0.96679 0.0
H402 H 0.49079 0.25599 1.00857 0.0
H403 H 0.49043 0.232 1.00591 0.0
H404 H 0.49799 0.2471 0.09164 0.0
H405 H 0.44515 0.2038 0.3053 0.0
H406 H 0.44562 0.17209 0.27626 0.0
H407 H 0.46548 0.19337 0.04606 0.0
C408 C 0.46236 0.26322 0.1095 0.0
C409 C 0.45796 0.27309 0.16901 0.0
C410 C 0.45258 0.26369 0.24161 0.0
C411 C 0.45125 0.24478 0.25452 0.0
C412 C 0.45555 0.23548 0.19458 0.0
C413 C 0.46117 0.24442 0.12368 0.0
C414 C 0.46507 0.23116 0.06917 0.0
C415 C 0.45024 0.2244 1.00144 0.0
C416 C 0.4874 0.24223 0.04226 0.0
C417 C 0.46061 0.2133 0.12047 0.0
C418 C 0.45505 0.21611 0.19247 0.0
C419 C 0.44959 0.20148 0.24929 0.0
C420 C 0.4498 0.1835 0.23217 0.0
C421 C 0.45557 0.18031 0.15901 0.0
C422 C 0.46119 0.19551 0.10264 0.0
H423 H 0.19107 0.45442 0.28335 0.0
H424 H 0.20818 0.51115 0.16475 0.0
H425 H 0.24282 0.51678 0.14674 0.0
H426 H 0.23944 0.47422 0.3845 0.0
H427 H 0.23934 0.45037 0.37948 0.0
H428 H 0.21558 0.45047 0.38172 0.0
H429 H 0.20448 0.42942 0.25694 0.0
H430 H 0.2283 0.42946 0.25384 0.0
H431 H 0.22058 0.43895 0.17402 0.0
H432 H 0.27511 0.51553 0.13521 0.0
H433 H 0.30407 0.50942 0.14292 0.0
H434 H 0.26748 0.45561 0.28136 0.0
C435 C 0.20211 0.46818 0.2545 0.0
C436 C 0.19656 0.4821 0.22422 0.0
C437 C 0.21166 0.49985 0.18647 0.0
C438 C 0.23151 0.50331 0.17636 0.0
C439 C 0.23629 0.48911 0.20548 0.0
C440 C 0.22217 0.47209 0.24494 0.0
C441 C 0.23153 0.45957 0.27231 0.0
C442 C 0.23147 0.45861 0.35969 0.0
C443 C 0.22057 0.43808 0.23716 0.0
C444 C 0.25304 0.47215 0.24138 0.0
C445 C 0.25536 0.48901 0.20244 0.0
C446 C 0.27361 0.50257 0.16675 0.0
C447 C 0.29007 0.49902 0.17204 0.0
C448 C 0.28838 0.48219 0.21384 0.0
C449 C 0.26943 0.46855 0.24842 0.0
H450 H 0.7274 0.19709 0.52487 0.0
H451 H 0.72301 0.17915 0.28792 0.0
H452 H 0.75735 0.2083 0.26409 0.0
H453 H 0.75358 0.25095 0.49242 0.0
H454 H 0.76974 0.25727 0.57503 0.0
H455 H 0.74496 0.2346 0.57482 0.0
H456 H 0.76151 0.21267 0.60705 0.0
H457 H 0.78634 0.2353 0.60766 0.0
H458 H 0.78153 0.21413 0.547 0.0
H459 H 0.79158 0.23961 0.26428 0.0
H460 H 0.82391 0.27136 0.28876 0.0
H461 H 0.80691 0.2691 0.52611 0.0
C462 C 0.73377 0.19922 0.46822 0.0
C463 C 0.72242 0.18594 0.4081 0.0
C464 C 0.73124 0.18932 0.33457 0.0
C465 C 0.7508 0.20576 0.32052 0.0
C466 C 0.76145 0.21872 0.38058 0.0
C467 C 0.75333 0.21567 0.45303 0.0
C468 C 0.76798 0.23218 0.50692 0.0
C469 C 0.7585 0.24448 0.53918 0.0
C470 C 0.77474 0.22302 0.57094 0.0
C471 C 0.78549 0.245 0.45322 0.0
C472 C 0.78139 0.23688 0.38073 0.0
C473 C 0.79506 0.24605 0.32096 0.0
C474 C 0.81345 0.26404 0.33557 0.0
C475 C 0.81808 0.27273 0.40942 0.0
C476 C 0.80382 0.26298 0.4689 0.0
H477 H 0.53542 0.73038 0.67858 0.0
H478 H 0.55338 0.72872 0.44539 0.0
H479 H 0.55387 0.76098 0.41886 0.0
H480 H 0.50253 0.75134 0.6383 0.0
H481 H 0.51012 0.76733 0.72175 0.0
H482 H 0.51073 0.74382 0.72242 0.0
H483 H 0.54889 0.76357 0.76083 0.0
H484 H 0.54838 0.78713 0.76038 0.0
H485 H 0.56678 0.78463 0.703 0.0
H486 H 0.55224 0.79316 0.4169 0.0
H487 H 0.54968 0.8239 0.44058 0.0
H488 H 0.53408 0.80569 0.67653 0.0
C489 C 0.53931 0.73676 0.62187 0.0
C490 C 0.54443 0.72708 0.56405 0.0
C491 C 0.54965 0.73601 0.49074 0.0
C492 C 0.54985 0.75426 0.47499 0.0
C493 C 0.54487 0.76349 0.53322 0.0
C494 C 0.53978 0.75513 0.60528 0.0
C495 C 0.53557 0.76851 0.65798 0.0
C496 C 0.51342 0.75706 0.68679 0.0
C497 C 0.55082 0.77643 0.72447 0.0
C498 C 0.53908 0.78563 0.60417 0.0
C499 C 0.54433 0.78235 0.53245 0.0
C500 C 0.54826 0.79597 0.47298 0.0
C501 C 0.54691 0.8135 0.48721 0.0
C502 C 0.5418 0.81741 0.56055 0.0
C503 C 0.53779 0.80314 0.61958 0.0
H504 H 0.73402 0.54398 0.71402 0.0
H505 H 0.69889 0.49558 0.87575 0.0
H506 H 0.7286 0.49102 0.89691 0.0
H507 H 0.76123 0.52083 0.63154 0.0
H508 H 0.78476 0.54464 0.62029 0.0
H509 H 0.76074 0.54421 0.61801 0.0
H510 H 0.77313 0.57095 0.72658 0.0
H511 H 0.79716 0.57139 0.72941 0.0
H512 H 0.78198 0.5658 0.81449 0.0
H513 H 0.76213 0.49197 0.90237 0.0
H514 H 0.79693 0.49742 0.88778 0.0
H515 H 0.81027 0.54467 0.72041 0.0
C516 C 0.73262 0.53249 0.75411 0.0
C517 C 0.71407 0.52007 0.79299 0.0
C518 C 0.71282 0.50507 0.84443 0.0
C519 C 0.72966 0.50245 0.85729 0.0
C520 C 0.74769 0.51493 0.8182 0.0
C521 C 0.74928 0.52958 0.76736 0.0
C522 C 0.77037 0.54073 0.73189 0.0
C523 C 0.76919 0.53739 0.6453 0.0
C524 C 0.7813 0.56357 0.75181 0.0
C525 C 0.78035 0.53007 0.7709 0.0
C526 C 0.76701 0.5153 0.82065 0.0
C527 C 0.77269 0.50341 0.86323 0.0
C528 C 0.79248 0.50655 0.85417 0.0
C529 C 0.80639 0.52139 0.8026 0.0
C530 C 0.80015 0.53336 0.76093 0.0
H531 H 0.26405 0.81265 0.8398 0.0
H532 H 0.29469 0.79593 1.00899 0.0
H533 H 0.26475 0.76101 1.01467 0.0
H534 H 0.21368 0.78423 0.92418 0.0
H535 H 0.20061 0.77696 0.83404 0.0
H536 H 0.22459 0.80041 0.8422 0.0
H537 H 0.23945 0.78879 0.73283 0.0
H538 H 0.21554 0.76526 0.72454 0.0
H539 H 0.23881 0.76471 0.74023 0.0
H540 H 0.23223 0.72786 0.99841 0.0
H541 H 0.19783 0.69909 0.96976 0.0
H542 H 0.18719 0.73768 0.81632 0.0
C543 C 0.26431 0.80156 0.87799 0.0
C544 C 0.28151 0.80672 0.92393 0.0
C545 C 0.28152 0.79207 0.97365 0.0
C546 C 0.26466 0.77227 0.97699 0.0
C547 C 0.24789 0.76754 0.9308 0.0
C548 C 0.24745 0.7818 0.88289 0.0
C549 C 0.22728 0.77288 0.84092 0.0
C550 C 0.21587 0.7843 0.8616 0.0
C551 C 0.23047 0.77291 0.75451 0.0
C552 C 0.21649 0.75136 0.87245 0.0
C553 C 0.22877 0.74858 0.92357 0.0
C554 C 0.22243 0.72988 0.95881 0.0
C555 C 0.20295 0.71362 0.9419 0.0
C556 C 0.18993 0.71621 0.89091 0.0
C557 C 0.19681 0.73536 0.85586 0.0
H558 H 0.48696 0.10007 0.77973 0.0
H559 H 0.4448 0.11962 0.8569 0.0
H560 H 0.43343 0.11848 0.72514 0.0
H561 H 0.50106 0.12938 0.60127 0.0
H562 H 0.50272 0.10978 0.54872 0.0
H563 H 0.50826 0.11284 0.64913 0.0
H564 H 0.48114 0.07494 0.67127 0.0
H565 H 0.47546 0.07177 0.5711 0.0
H566 H 0.45534 0.06558 0.63906 0.0
H567 H 0.42477 0.11297 0.58755 0.0
H568 H 0.42054 0.10497 0.45034 0.0
H569 H 0.4694 0.09081 0.45873 0.0
C570 C 0.4756 0.10448 0.76913 0.0
C571 C 0.46669 0.10977 0.82962 0.0
C572 C 0.45165 0.11513 0.81243 0.0
C573 C 0.44517 0.11469 0.73744 0.0
C574 C 0.45402 0.1091 0.6797 0.0
C575 C 0.46906 0.10429 0.69431 0.0
C576 C 0.47573 0.09839 0.62161 0.0
C577 C 0.49828 0.1135 0.60417 0.0
C578 C 0.47167 0.07636 0.62606 0.0
C579 C 0.46179 0.10028 0.56417 0.0
C580 C 0.44941 0.10647 0.59921 0.0
C581 C 0.43452 0.10832 0.55933 0.0
C582 C 0.43215 0.10364 0.48163 0.0
C583 C 0.44465 0.09732 0.44426 0.0
C584 C 0.45985 0.09587 0.48594 0.0
H585 H 0.33148 0.45263 0.63529 0.0
H586 H 0.39196 0.46903 0.5537 0.0
H587 H 0.40473 0.47559 0.68551 0.0
H588 H 0.3477 0.49028 0.78094 0.0
H589 H 0.32829 0.47421 0.84816 0.0
H590 H 0.32352 0.46988 0.74764 0.0
H591 H 0.315 0.43243 0.7647 0.0
H592 H 0.31976 0.43665 0.86537 0.0
H593 H 0.33333 0.42721 0.80968 0.0
H594 H 0.41135 0.48137 0.8246 0.0
H595 H 0.4117 0.48687 0.96277 0.0
H596 H 0.34703 0.46667 0.95755 0.0
C597 C 0.34734 0.4573 0.64517 0.0
C598 C 0.3607 0.4603 0.58363 0.0
C599 C 0.38145 0.46684 0.59933 0.0
C600 C 0.38883 0.47046 0.67422 0.0
C601 C 0.3753 0.46747 0.73325 0.0
C602 C 0.355 0.46105 0.71981 0.0
C603 C 0.34392 0.45974 0.79367 0.0
C604 C 0.33536 0.4744 0.79251 0.0
C605 C 0.327 0.43769 0.80926 0.0
C606 C 0.36123 0.46661 0.8506 0.0
C607 C 0.37915 0.47088 0.81421 0.0
C608 C 0.39741 0.47804 0.8537 0.0
C609 C 0.39747 0.48123 0.9322 0.0
C610 C 0.37943 0.47732 0.971 0.0
C611 C 0.36099 0.46959 0.92959 0.0
H612 H 0.91529 0.37336 0.77416 0.0
H613 H 0.87073 0.30887 0.76462 0.0
H614 H 0.86393 0.30904 0.90188 0.0
H615 H 0.93637 0.37149 0.95222 0.0
H616 H 0.94055 0.3958 0.98583 0.0
H617 H 0.94058 0.39127 0.88529 0.0
H618 H 0.91239 0.40073 0.86505 0.0
H619 H 0.91231 0.40535 0.96563 0.0
H620 H 0.88896 0.38753 0.91838 0.0
H621 H 0.86295 0.31555 0.03976 0.0
H622 H 0.8685 0.3277 0.17208 0.0
H623 H 0.91495 0.38786 0.09645 0.0
C624 C 0.90386 0.35943 0.80109 0.0
C625 C 0.89345 0.34109 0.75906 0.0
C626 C 0.87889 0.32301 0.7961 0.0
C627 C 0.87487 0.323 0.87384 0.0
C628 C 0.88563 0.34119 0.91413 0.0
C629 C 0.89986 0.35909 0.87937 0.0
C630 C 0.91019 0.37616 0.9374 0.0
C631 C 0.93329 0.38414 0.94034 0.0
C632 C 0.90569 0.39346 0.9206 0.0
C633 C 0.8997 0.36493 1.01004 0.0
C634 C 0.88545 0.34484 0.9949 0.0
C635 C 0.87408 0.33125 0.05243 0.0
C636 C 0.87749 0.33829 0.12768 0.0
C637 C 0.89231 0.35871 0.14536 0.0
C638 C 0.90338 0.37223 0.0852 0.0
H639 H 0.5694 0.90264 0.97966 0.0
H640 H 0.50802 0.88018 0.89341 0.0
H641 H 0.49532 0.87703 0.02419 0.0
H642 H 0.55426 0.86953 0.14783 0.0
H643 H 0.57355 0.88887 0.20781 0.0
H644 H 0.578 0.88882 0.1071 0.0
H645 H 0.5853 0.92604 0.09734 0.0
H646 H 0.5809 0.92621 0.19793 0.0
H647 H 0.56653 0.93221 0.13142 0.0
H648 H 0.48929 0.87789 0.1624 0.0
H649 H 0.49033 0.8825 0.30164 0.0
H650 H 0.55508 0.90318 0.30199 0.0
C651 C 0.55326 0.89683 0.98834 0.0
C652 C 0.53978 0.89187 0.92577 0.0
C653 C 0.51878 0.88451 0.93985 0.0
C654 C 0.51134 0.88246 1.01416 0.0
C655 C 0.52502 0.88768 0.07427 0.0
C656 C 0.54552 0.89463 0.06251 0.0
C657 C 0.55696 0.89968 0.13763 0.0
C658 C 0.56624 0.8859 0.15086 0.0
C659 C 0.57339 0.92238 0.14126 0.0
C660 C 0.53971 0.89474 0.19313 0.0
C661 C 0.52143 0.8878 0.15504 0.0
C662 C 0.50346 0.88314 0.19298 0.0
C663 C 0.5042 0.88587 0.2719 0.0
C664 C 0.52273 0.8931 0.31233 0.0
C665 C 0.54066 0.89731 0.27247 0.0
H666 H 0.62588 0.5148 0.11714 0.0
H667 H 0.65675 0.58092 0.12019 0.0
H668 H 0.65337 0.58051 0.25937 0.0
H669 H 0.58997 0.50795 0.28114 0.0
H670 H 0.59077 0.48577 0.31373 0.0
H671 H 0.59351 0.49205 0.21387 0.0
H672 H 0.62755 0.4911 0.21619 0.0
H673 H 0.62517 0.48627 0.31696 0.0
H674 H 0.6477 0.50806 0.2795 0.0
H675 H 0.65028 0.5736 0.39744 0.0
H676 H 0.64487 0.56029 0.52819 0.0
H677 H 0.61513 0.49839 0.44046 0.0
C678 C 0.63138 0.52911 0.14712 0.0
C679 C 0.64177 0.54792 0.10778 0.0
C680 C 0.64903 0.56636 0.14913 0.0
C681 C 0.6471 0.56629 0.22825 0.0
C682 C 0.63759 0.54762 0.26571 0.0
C683 C 0.62946 0.52932 0.2268 0.0
C684 C 0.62058 0.51149 0.28216 0.0
C685 C 0.59733 0.49853 0.27216 0.0
C686 C 0.63087 0.49847 0.27314 0.0
C687 C 0.62594 0.52275 0.35787 0.0
C688 C 0.63555 0.54357 0.34664 0.0
C689 C 0.6426 0.55731 0.40711 0.0
C690 C 0.63964 0.54959 0.48127 0.0
C691 C 0.6297 0.52831 0.49482 0.0
C692 C 0.62266 0.51473 0.43197 0.0
H693 H 0.08961 0.62108 0.20961 0.0
H694 H 0.12086 0.68715 0.20234 0.0
H695 H 0.12821 0.68867 0.33945 0.0
H696 H 0.06554 0.6162 0.38845 0.0
H697 H 0.06795 0.5949 0.42092 0.0
H698 H 0.06655 0.59883 0.32063 0.0
H699 H 0.10059 0.59916 0.29943 0.0
H700 H 0.10217 0.59528 0.39977 0.0
H701 H 0.12291 0.61677 0.35251 0.0
H702 H 0.13116 0.6834 0.4767 0.0
H703 H 0.12855 0.67161 0.60859 0.0
H704 H 0.09409 0.60873 0.53129 0.0
C705 C 0.09823 0.6358 0.23703 0.0
C706 C 0.10463 0.65402 0.19562 0.0
C707 C 0.11564 0.67305 0.23332 0.0
C708 C 0.12001 0.67406 0.31101 0.0
C709 C 0.11322 0.6559 0.35063 0.0
C710 C 0.10253 0.6371 0.31532 0.0
C711 C 0.09601 0.61996 0.37279 0.0
C712 C 0.07263 0.60669 0.37587 0.0
C713 C 0.10602 0.60703 0.35506 0.0
C714 C 0.10447 0.63214 0.44569 0.0
C715 C 0.11453 0.65282 0.43114 0.0
C716 C 0.1233 0.66722 0.48897 0.0
C717 C 0.12157 0.66034 0.56399 0.0
C718 C 0.11096 0.63921 0.58112 0.0
C719 C 0.10249 0.62497 0.52058 0.0
H720 H 0.89778 0.5482 0.0468 0.0
H721 H 0.8797 0.48403 0.04767 0.0
H722 H 0.87656 0.48325 0.18719 0.0
H723 H 0.92819 0.5616 0.21308 0.0
H724 H 0.9209 0.57939 0.24891 0.0
H725 H 0.92038 0.57485 0.14815 0.0
H726 H 0.88235 0.56512 0.14272 0.0
H727 H 0.8828 0.56982 0.24342 0.0
H728 H 0.86421 0.54544 0.20477 0.0
H729 H 0.87748 0.48959 0.32546 0.0
H730 H 0.88043 0.50228 0.45629 0.0
H731 H 0.89784 0.56252 0.36944 0.0
C732 C 0.89277 0.53395 0.07649 0.0
C733 C 0.88908 0.51619 0.03656 0.0
C734 C 0.88285 0.49785 0.07729 0.0
C735 C 0.88094 0.49724 0.15648 0.0
C736 C 0.88525 0.51508 0.19442 0.0
C737 C 0.89085 0.53308 0.15609 0.0
C738 C 0.89523 0.55018 0.21163 0.0
C739 C 0.9175 0.56752 0.20503 0.0
C740 C 0.88025 0.5581 0.19993 0.0
C741 C 0.89143 0.53897 0.28682 0.0
C742 C 0.88569 0.51875 0.27523 0.0
C743 C 0.88187 0.50538 0.33542 0.0
C744 C 0.88378 0.5128 0.40967 0.0
C745 C 0.88944 0.53343 0.42346 0.0
C746 C 0.89331 0.54665 0.36086 0.0
H747 H 0.36995 0.88354 0.59469 0.0
H748 H 0.34616 0.92514 0.59362 0.0
H749 H 0.35102 0.92915 0.45485 0.0
H750 H 0.40822 0.90927 0.44016 0.0
H751 H 0.40391 0.88546 0.40037 0.0
H752 H 0.40056 0.88745 0.50094 0.0
H753 H 0.36379 0.85684 0.49157 0.0
H754 H 0.3669 0.85493 0.3909 0.0
H755 H 0.34608 0.85789 0.4256 0.0
H756 H 0.35539 0.92655 0.31673 0.0
H757 H 0.36026 0.91838 0.18545 0.0
H758 H 0.38138 0.87838 0.27131 0.0
C759 C 0.36627 0.89385 0.5652 0.0
C760 C 0.35765 0.90405 0.60484 0.0
C761 C 0.35261 0.9171 0.56424 0.0
C762 C 0.35541 0.91953 0.48548 0.0
C763 C 0.36333 0.90885 0.44764 0.0
C764 C 0.36887 0.89638 0.48586 0.0
C765 C 0.37597 0.88581 0.4301 0.0
C766 C 0.39851 0.8924 0.44371 0.0
C767 C 0.36237 0.86249 0.43485 0.0
C768 C 0.3731 0.89399 0.35484 0.0
C769 C 0.3659 0.90734 0.36672 0.0
C770 C 0.36117 0.91623 0.30658 0.0
C771 C 0.3638 0.91135 0.23212 0.0
C772 C 0.37109 0.89766 0.21799 0.0
C773 C 0.37599 0.88905 0.28044 0.0
H774 H 0.44418 0.34496 0.43109 0.0
H775 H 0.50865 0.38996 0.43362 0.0
H776 H 0.50929 0.38686 0.57302 0.0
H777 H 0.43146 0.36219 0.59893 0.0
H778 H 0.41307 0.33722 0.63339 0.0
H779 H 0.41778 0.34151 0.53283 0.0
H780 H 0.42631 0.31238 0.52552 0.0
H781 H 0.42151 0.3079 0.62607 0.0
H782 H 0.44566 0.31301 0.58716 0.0
H783 H 0.50291 0.38064 0.71077 0.0
H784 H 0.49003 0.3712 0.84101 0.0
H785 H 0.42924 0.33037 0.75371 0.0
C786 C 0.45846 0.35381 0.46113 0.0
C787 C 0.4764 0.36771 0.42175 0.0
C788 C 0.49474 0.37936 0.46289 0.0
C789 C 0.49527 0.37764 0.54195 0.0
C790 C 0.47729 0.36418 0.57936 0.0
C791 C 0.45922 0.35238 0.54066 0.0
C792 C 0.44193 0.33988 0.59584 0.0
C793 C 0.42507 0.34555 0.58987 0.0
C794 C 0.43335 0.31693 0.58287 0.0
C795 C 0.45313 0.34673 0.67134 0.0
C796 C 0.47352 0.36068 0.66006 0.0
C797 C 0.48697 0.36967 0.72043 0.0
C798 C 0.47943 0.36431 0.79453 0.0
C799 C 0.45856 0.35009 0.80827 0.0
C800 C 0.44529 0.34112 0.74538 0.0
H801 H 0.12038 0.50149 0.60384 0.0
H802 H 0.08475 0.44014 0.51371 0.0
H803 H 0.07674 0.42645 0.644 0.0
H804 H 0.14213 0.48835 0.75943 0.0
H805 H 0.14124 0.50607 0.8258 0.0
H806 H 0.14336 0.51141 0.72537 0.0
H807 H 0.11107 0.51497 0.73153 0.0
H808 H 0.10884 0.50955 0.83202 0.0
H809 H 0.08772 0.49432 0.7695 0.0
H810 H 0.07341 0.41899 0.78206 0.0
H811 H 0.07611 0.41795 0.92141 0.0
H812 H 0.11396 0.48384 0.92717 0.0
C813 C 0.11074 0.48521 0.61184 0.0
C814 C 0.10331 0.47187 0.54835 0.0
C815 C 0.09092 0.45063 0.5611 0.0
C816 C 0.08612 0.44272 0.63504 0.0
C817 C 0.0938 0.45619 0.69621 0.0
C818 C 0.1059 0.47698 0.68579 0.0
C819 C 0.1129 0.48787 0.76211 0.0
C820 C 0.1363 0.49908 0.76853 0.0
C821 C 0.10463 0.50255 0.7745 0.0
C822 C 0.103 0.46989 0.8167 0.0
C823 C 0.09194 0.45182 0.77703 0.0
C824 C 0.08196 0.43303 0.81377 0.0
C825 C 0.08364 0.43259 0.89296 0.0
C826 C 0.09523 0.45076 0.93524 0.0
C827 C 0.10475 0.46973 0.89651 0.0
H828 H 0.6556 0.11998 0.75358 0.0
H829 H 0.59018 0.07923 0.74072 0.0
H830 H 0.58911 0.07238 0.87788 0.0
H831 H 0.66531 0.09016 0.89818 0.0
H832 H 0.68459 0.11261 0.94619 0.0
H833 H 0.6806 0.11335 0.84544 0.0
H834 H 0.67505 0.14415 0.8656 0.0
H835 H 0.67888 0.14343 0.96636 0.0
H836 H 0.65577 0.14195 0.93151 0.0
H837 H 0.59429 0.07195 0.01725 0.0
H838 H 0.606 0.07639 0.15057 0.0
H839 H 0.66819 0.11675 0.07622 0.0
C840 C 0.64118 0.10934 0.77963 0.0
C841 C 0.62295 0.1003 0.73652 0.0
C842 C 0.60428 0.08661 0.77274 0.0
C843 C 0.60352 0.08252 0.85063 0.0
C844 C 0.62158 0.0921 0.89202 0.0
C845 C 0.64012 0.10506 0.85797 0.0
C846 C 0.6571 0.11384 0.9168 0.0
C847 C 0.67283 0.10708 0.90068 0.0
C848 C 0.6673 0.13723 0.92025 0.0
C849 C 0.6451 0.10402 0.98894 0.0
C850 C 0.62464 0.09154 0.9731 0.0
C851 C 0.61032 0.08152 0.03039 0.0
C852 C 0.61707 0.08424 0.10601 0.0
C853 C 0.63799 0.09681 0.12392 0.0
C854 C 0.65216 0.10675 0.06426 0.0
H855 H 0.52783 0.62517 0.26804 0.0
H856 H 0.58033 0.68605 0.27645 0.0
H857 H 0.57668 0.69037 0.13896 0.0
H858 H 0.54052 0.61195 0.09123 0.0
H859 H 0.51461 0.59704 0.05787 0.0
H860 H 0.51985 0.59954 0.15836 0.0
H861 H 0.49495 0.61333 0.17763 0.0
H862 H 0.4896 0.61085 0.07707 0.0
H863 H 0.4985 0.6351 0.12351 0.0
H864 H 0.5683 0.68761 1.00068 0.0
H865 H 0.55701 0.67751 0.86877 0.0
H866 H 0.51117 0.61735 0.94735 0.0
C867 C 0.53823 0.63949 0.2408 0.0
C868 C 0.55426 0.65539 0.28235 0.0
C869 C 0.56798 0.67378 0.2451 0.0
C870 C 0.56596 0.67637 0.16733 0.0
C871 C 0.55022 0.66032 0.12743 0.0
C872 C 0.53664 0.64218 0.16261 0.0
C873 C 0.52214 0.62681 0.10514 0.0
C874 C 0.52443 0.60771 0.10304 0.0
C875 C 0.49999 0.6212 0.12185 0.0
C876 C 0.52987 0.63908 0.03227 0.0
C877 C 0.54588 0.65844 0.0467 0.0
C878 C 0.55579 0.67246 0.98858 0.0
C879 C 0.54933 0.66648 0.91348 0.0
C880 C 0.53326 0.64652 0.89659 0.0
C881 C 0.52333 0.63278 0.95749 0.0
H882 H 0.51769 0.1093 0.19991 0.0
H883 H 0.52335 0.16427 0.30124 0.0
H884 H 0.55748 0.17333 0.34988 0.0
H885 H 0.5399 0.09707 0.35132 0.0
H886 H 0.55273 0.08747 0.29221 0.0
H887 H 0.52967 0.08634 0.25924 0.0
H888 H 0.54843 0.10631 0.13776 0.0
H889 H 0.57159 0.10751 0.17045 0.0
H890 H 0.57149 0.13064 0.14674 0.0
H891 H 0.59 0.17527 0.3944 0.0
H892 H 0.61792 0.16943 0.43478 0.0
H893 H 0.59082 0.11302 0.30517 0.0
C894 C 0.52621 0.12341 0.23133 0.0
C895 C 0.51785 0.13612 0.24651 0.0
C896 C 0.52942 0.1543 0.28878 0.0
C897 C 0.54886 0.15962 0.31643 0.0
C898 C 0.55653 0.14662 0.30121 0.0
C899 C 0.54557 0.12889 0.25962 0.0
C900 C 0.55669 0.11691 0.25525 0.0
C901 C 0.54399 0.0957 0.2917 0.0
C902 C 0.56239 0.11525 0.17264 0.0
C903 C 0.57546 0.13047 0.30211 0.0
C904 C 0.57518 0.14764 0.32743 0.0
C905 C 0.59047 0.16197 0.37436 0.0
C906 C 0.60627 0.15851 0.39702 0.0
C907 C 0.60662 0.14079 0.3731 0.0
C908 C 0.59113 0.1268 0.32398 0.0
H909 H 0.4162 0.52211 0.37939 0.0
H910 H 0.37088 0.54061 0.41101 0.0
H911 H 0.39819 0.57523 0.44823 0.0
H912 H 0.44648 0.54908 0.54186 0.0
H913 H 0.47035 0.55547 0.49671 0.0
H914 H 0.44732 0.53265 0.46934 0.0
H915 H 0.45335 0.5447 0.32887 0.0
H916 H 0.47637 0.56759 0.35588 0.0
H917 H 0.45656 0.56934 0.30543 0.0
H918 H 0.43105 0.60838 0.47621 0.0
H919 H 0.46604 0.636 0.5076 0.0
H920 H 0.48897 0.59444 0.46831 0.0
C921 C 0.41205 0.5335 0.39381 0.0
C922 C 0.39152 0.52885 0.3917 0.0
C923 C 0.38657 0.54395 0.41231 0.0
C924 C 0.40197 0.56363 0.43313 0.0
C925 C 0.42213 0.56777 0.4343 0.0
C926 C 0.42712 0.55299 0.41634 0.0
C927 C 0.44974 0.56091 0.4257 0.0
C928 C 0.4537 0.54881 0.48706 0.0
C929 C 0.45958 0.56062 0.34942 0.0
C930 C 0.45677 0.58251 0.45143 0.0
C931 C 0.44071 0.58632 0.45486 0.0
C932 C 0.44369 0.6055 0.47446 0.0
C933 C 0.46357 0.62108 0.49186 0.0
C934 C 0.48005 0.61722 0.49103 0.0
C935 C 0.47655 0.5977 0.4704 0.0
H936 H 0.86084 0.39994 0.40899 0.0
H937 H 0.87371 0.3789 0.62013 0.0
H938 H 0.86841 0.40391 0.6915 0.0
H939 H 0.88768 0.45139 0.4533 0.0
H940 H 0.87034 0.45809 0.40905 0.0
H941 H 0.87189 0.43649 0.37491 0.0
H942 H 0.83302 0.41318 0.39574 0.0
H943 H 0.83134 0.43481 0.42966 0.0
H944 H 0.82217 0.41232 0.48795 0.0
H945 H 0.8665 0.43368 0.738 0.0
H946 H 0.86797 0.46667 0.75733 0.0
H947 H 0.85559 0.46876 0.51766 0.0
C948 C 0.86192 0.40022 0.47044 0.0
C949 C 0.86759 0.38742 0.50917 0.0
C950 C 0.86944 0.38859 0.58936 0.0
C951 C 0.86633 0.40266 0.63045 0.0
C952 C 0.8613 0.41545 0.59056 0.0
C953 C 0.859 0.41435 0.5124 0.0
C954 C 0.8555 0.43123 0.48303 0.0
C955 C 0.87236 0.44511 0.42677 0.0
C956 C 0.83424 0.42235 0.44697 0.0
C957 C 0.85688 0.44235 0.55661 0.0
C958 C 0.86 0.43279 0.61793 0.0
C959 C 0.86364 0.44109 0.6908 0.0
C960 C 0.86451 0.45984 0.70116 0.0
C961 C 0.86168 0.47009 0.63912 0.0
C962 C 0.85732 0.46098 0.56628 0.0
H963 H 0.39297 0.87209 0.74264 0.0
H964 H 0.39315 0.84171 0.9516 0.0
H965 H 0.4213 0.83741 0.90165 0.0
H966 H 0.40523 0.84004 0.61458 0.0
H967 H 0.42067 0.86138 0.55331 0.0
H968 H 0.39918 0.8601 0.60278 0.0
H969 H 0.42296 0.89569 0.66116 0.0
H970 H 0.44452 0.89694 0.61285 0.0
H971 H 0.44505 0.89987 0.71474 0.0
H972 H 0.45283 0.84172 0.83889 0.0
H973 H 0.48334 0.85072 0.76025 0.0
H974 H 0.46096 0.87517 0.58651 0.0
C975 C 0.39869 0.86416 0.77712 0.0
C976 C 0.39095 0.85723 0.85094 0.0
C977 C 0.39877 0.84697 0.89464 0.0
C978 C 0.41478 0.8445 0.86681 0.0
C979 C 0.42241 0.85192 0.79449 0.0
C980 C 0.41435 0.86115 0.74947 0.0
C981 C 0.42581 0.8684 0.67486 0.0
C982 C 0.41189 0.85678 0.60739 0.0
C983 C 0.43514 0.8916 0.66543 0.0
C984 C 0.44215 0.86262 0.68645 0.0
C985 C 0.4399 0.85314 0.75596 0.0
C986 C 0.4544 0.84848 0.78331 0.0
C987 C 0.47165 0.85365 0.73855 0.0
C988 C 0.474 0.863 0.66687 0.0
C989 C 0.45899 0.86731 0.64004 0.0
H990 H 0.54367 0.40342 0.15917 0.0
H991 H 0.51023 0.3753 0.95223 0.0
H992 H 0.53936 0.40021 0.87566 0.0
H993 H 0.56418 0.45305 0.10086 0.0
H994 H 0.58884 0.46269 0.1448 0.0
H995 H 0.567 0.44066 0.18382 0.0
H996 H 0.58589 0.42012 0.17163 0.0
H997 H 0.6078 0.44232 0.13293 0.0
H998 H 0.59616 0.41863 0.0808 0.0
H999 H 0.56903 0.4307 0.82257 0.0
H1000 H 0.59828 0.46474 0.79515 0.0
H1001 H 0.61357 0.47366 0.03512 0.0
C1002 C 0.54285 0.40212 0.09776 0.0
C1003 C 0.52478 0.38745 0.06128 0.0
C1004 C 0.52394 0.38651 0.98093 0.0
C1005 C 0.54045 0.4005 0.93707 0.0
C1006 C 0.55779 0.41528 0.97448 0.0
C1007 C 0.55926 0.41612 0.05297 0.0
C1008 C 0.57886 0.43481 0.07856 0.0
C1009 C 0.57442 0.44861 0.13003 0.0
C1010 C 0.59302 0.42859 0.11832 0.0
C1011 C 0.58757 0.44484 1.00245 0.0
C1012 C 0.57529 0.43309 0.94323 0.0
C1013 C 0.57901 0.43986 0.8682 0.0
C1014 C 0.59556 0.45927 0.85325 0.0
C1015 C 0.60819 0.4717 0.91296 0.0
C1016 C 0.60439 0.46422 0.9883 0.0
H1017 H 0.14513 0.55249 0.24629 0.0
H1018 H 0.12681 0.51127 0.05349 0.0
H1019 H 0.12831 0.53819 0.97034 0.0
H1020 H 0.11495 0.5738 0.2007 0.0
H1021 H 0.13285 0.59939 0.23097 0.0
H1022 H 0.13342 0.57809 0.27364 0.0
H1023 H 0.17154 0.59387 0.23688 0.0
H1024 H 0.17103 0.61528 0.19423 0.0
H1025 H 0.17916 0.6005 0.1391 0.0
H1026 H 0.12768 0.56741 0.9118 0.0
H1027 H 0.12475 0.59757 0.88037 0.0
H1028 H 0.14336 0.62066 0.10967 0.0
C1029 C 0.14203 0.54943 0.18612 0.0
C1030 C 0.13597 0.52992 0.15589 0.0
C1031 C 0.13142 0.52613 0.07751 0.0
C1032 C 0.13237 0.54136 0.02981 0.0
C1033 C 0.13785 0.5603 0.06146 0.0
C1034 C 0.14266 0.56447 0.13769 0.0
C1035 C 0.14613 0.58548 0.15824 0.0
C1036 C 0.13093 0.58408 0.21949 0.0
C1037 C 0.16829 0.59962 0.1836 0.0
C1038 C 0.14191 0.59212 0.08222 0.0
C1039 C 0.13743 0.57741 0.02715 0.0
C1040 C 0.13149 0.5792 0.95398 0.0
C1041 C 0.12976 0.59632 0.93679 0.0
C1042 C 0.13396 0.61145 0.99244 0.0
C1043 C 0.14051 0.60952 0.06565 0.0
H1044 H 0.44742 0.03798 0.06777 0.0
H1045 H 0.39624 0.04877 0.07445 0.0
H1046 H 0.37307 0.01306 0.03484 0.0
H1047 H 0.4311 0.00637 0.90031 0.0
H1048 H 0.44019 0.98978 0.9335 0.0
H1049 H 0.45253 0.01597 0.96443 0.0
H1050 H 0.44657 0.00414 0.10511 0.0
H1051 H 0.43422 0.97792 0.07459 0.0
H1052 H 0.42107 0.98644 0.13708 0.0
H1053 H 0.35535 0.97564 0.99889 0.0
H1054 H 0.3449 0.94023 0.96064 0.0
H1055 H 0.40807 0.95479 0.97003 0.0
C1056 C 0.43132 0.03279 0.06116 0.0
C1057 C 0.42356 0.04605 0.07457 0.0
C1058 C 0.40247 0.03882 0.06438 0.0
C1059 C 0.38921 0.01857 0.04212 0.0
C1060 C 0.39734 0.00586 0.02935 0.0
C1061 C 0.41795 0.01275 0.0378 0.0
C1062 C 0.42295 0.99622 0.01846 0.0
C1063 C 0.43755 0.00246 0.9501 0.0
C1064 C 0.43171 0.99086 0.08796 0.0
C1065 C 0.40193 0.97891 0.99815 0.0
C1066 C 0.38732 0.98468 1.00551 0.0
C1067 C 0.36669 0.97101 0.9923 0.0
C1068 C 0.36089 0.95095 0.97076 0.0
C1069 C 0.3757 0.94488 0.96165 0.0
C1070 C 0.39646 0.9591 0.97545 0.0
H1071 H 0.44646 0.40518 0.15113 0.0
H1072 H 0.39497 0.34352 0.14592 0.0
H1073 H 0.37174 0.35679 0.17772 0.0
H1074 H 0.42949 0.42133 0.31229 0.0
H1075 H 0.43925 0.44697 0.27766 0.0
H1076 H 0.45137 0.43263 0.25013 0.0
H1077 H 0.44654 0.43825 0.10791 0.0
H1078 H 0.43448 0.45268 0.13501 0.0
H1079 H 0.42138 0.43092 0.07303 0.0
H1080 H 0.35419 0.37753 0.20697 0.0
H1081 H 0.34434 0.40337 0.24002 0.0
H1082 H 0.40805 0.45059 0.23561 0.0
C1083 C 0.43026 0.39448 0.15575 0.0
C1084 C 0.42241 0.37337 0.14504 0.0
C1085 C 0.40122 0.35978 0.15346 0.0
C1086 C 0.38795 0.36719 0.17141 0.0
C1087 C 0.39623 0.38815 0.18196 0.0
C1088 C 0.41695 0.40154 0.17511 0.0
C1089 C 0.42226 0.42322 0.19276 0.0
C1090 C 0.43642 0.43152 0.26235 0.0
C1091 C 0.43172 0.43708 0.12302 0.0
C1092 C 0.4013 0.42003 0.21028 0.0
C1093 C 0.3864 0.39977 0.20293 0.0
C1094 C 0.36578 0.3934 0.21359 0.0
C1095 C 0.36031 0.40813 0.23226 0.0
C1096 C 0.37546 0.42886 0.24136 0.0
C1097 C 0.39617 0.43477 0.23042 0.0
H1098 H 0.04576 0.44937 0.31986 0.0
H1099 H 0.06132 0.40166 0.29783 0.0
H1100 H 0.02622 0.37601 0.33828 0.0
H1101 H 0.01453 0.42888 0.48873 0.0
H1102 H 0.99683 0.43698 0.4597 0.0
H1103 H 0.02309 0.45118 0.42981 0.0
H1104 H 0.01153 0.44691 0.28892 0.0
H1105 H 0.98526 0.43268 0.31829 0.0
H1106 H 0.99514 0.42167 0.25149 0.0
H1107 H 0.98812 0.35545 0.37253 0.0
H1108 H 0.95187 0.3424 0.4073 0.0
H1109 H 0.96297 0.40443 0.41412 0.0
C1110 C 0.04181 0.43352 0.32358 0.0
C1111 C 0.05611 0.42739 0.30505 0.0
C1112 C 0.0505 0.4066 0.31175 0.0
C1113 C 0.03063 0.39197 0.3345 0.0
C1114 C 0.01678 0.39853 0.3516 0.0
C1115 C 0.02229 0.4189 0.3474 0.0
C1116 C 0.00486 0.42224 0.3695 0.0
C1117 C 0.01015 0.43561 0.4412 0.0
C1118 C 0.99885 0.43141 0.30308 0.0
C1119 C 0.98845 0.40053 0.38556 0.0
C1120 C 0.99548 0.38699 0.37456 0.0
C1121 C 0.98258 0.36597 0.3823 0.0
C1122 C 0.96203 0.35869 0.40184 0.0
C1123 C 0.95473 0.37243 0.41428 0.0
C1124 C 0.96821 0.39358 0.40634 0.0
H1125 H 0.55268 0.96085 0.58921 0.0
H1126 H 0.60376 0.9499 0.5883 0.0
H1127 H 0.62703 0.98613 0.55456 0.0
H1128 H 0.56841 0.99284 0.42691 0.0
H1129 H 0.55939 0.00934 0.46187 0.0
H1130 H 0.54722 0.98314 0.49223 0.0
H1131 H 0.55372 0.99476 0.63319 0.0
H1132 H 0.56582 0.02102 0.60327 0.0
H1133 H 0.57932 0.01255 0.66403 0.0
H1134 H 0.6446 0.02384 0.52048 0.0
H1135 H 0.65458 0.05908 0.48122 0.0
H1136 H 0.59135 0.04412 0.49592 0.0
C1137 C 0.56883 0.96616 0.58319 0.0
C1138 C 0.57653 0.9527 0.5924 0.0
C1139 C 0.59763 0.96005 0.58201 0.0
C1140 C 0.61093 0.98058 0.56296 0.0
C1141 C 0.60279 0.99342 0.55353 0.0
C1142 C 0.58219 0.98643 0.56282 0.0
C1143 C 0.57701 0.0029 0.54498 0.0
C1144 C 0.56213 0.99668 0.47748 0.0
C1145 C 0.56847 0.00811 0.61558 0.0
C1146 C 0.5979 0.02028 0.52401 0.0
C1147 C 0.61264 0.01465 0.53022 0.0
C1148 C 0.63315 0.02837 0.51512 0.0
C1149 C 0.63868 0.04832 0.49294 0.0
C1150 C 0.62371 0.0542 0.48488 0.0
C1151 C 0.60309 0.03996 0.50066 0.0
H1152 H 0.55248 0.59341 0.66444 0.0
H1153 H 0.6039 0.655 0.65033 0.0
H1154 H 0.6272 0.64233 0.68764 0.0
H1155 H 0.5703 0.57869 0.83027 0.0
H1156 H 0.56051 0.55284 0.79794 0.0
H1157 H 0.54815 0.56688 0.76956 0.0
H1158 H 0.55236 0.56018 0.62784 0.0
H1159 H 0.56476 0.54615 0.65578 0.0
H1160 H 0.5774 0.56748 0.59168 0.0
H1161 H 0.64501 0.6222 0.72011 0.0
H1162 H 0.65534 0.59684 0.75459 0.0
H1163 H 0.59179 0.54915 0.75468 0.0
C1164 C 0.56865 0.60424 0.66922 0.0
C1165 C 0.57645 0.62516 0.65412 0.0
C1166 C 0.59764 0.6389 0.66179 0.0
C1167 C 0.61098 0.63184 0.68272 0.0
C1168 C 0.60279 0.61105 0.69682 0.0
C1169 C 0.58207 0.59751 0.69122 0.0
C1170 C 0.57701 0.57601 0.71076 0.0
C1171 C 0.56318 0.56815 0.78133 0.0
C1172 C 0.56731 0.56161 0.64244 0.0
C1173 C 0.59812 0.57947 0.72754 0.0
C1174 C 0.61286 0.59973 0.71861 0.0
C1175 C 0.63357 0.60634 0.72808 0.0
C1176 C 0.6393 0.59186 0.74747 0.0
C1177 C 0.62435 0.57113 0.75813 0.0
C1178 C 0.60354 0.56497 0.74814 0.0
H1179 H 0.04068 0.59379 0.82711 0.0
H1180 H 0.05261 0.656 0.84276 0.0
H1181 H 0.01633 0.64403 0.81115 0.0
H1182 H 0.00647 0.57935 0.6664 0.0
H1183 H 0.99052 0.55366 0.70035 0.0
H1184 H 0.01725 0.5674 0.7242 0.0
H1185 H 0.00813 0.56128 0.86759 0.0
H1186 H 0.9814 0.54754 0.84421 0.0
H1187 H 0.99116 0.5691 0.90777 0.0
H1188 H 0.97757 0.62407 0.78599 0.0
H1189 H 0.94125 0.59876 0.75962 0.0
H1190 H 0.95655 0.55066 0.75234 0.0
C1191 C 0.03568 0.60493 0.82393 0.0
C1192 C 0.04931 0.62578 0.83799 0.0
C1193 C 0.04232 0.63993 0.83215 0.0
C1194 C 0.02177 0.63326 0.81443 0.0
C1195 C 0.00863 0.61247 0.80143 0.0
C1196 C 0.01547 0.59861 0.80499 0.0
C1197 C 0.99863 0.57718 0.78753 0.0
C1198 C 0.00351 0.56892 0.71532 0.0
C1199 C 0.9946 0.56295 0.85585 0.0
C1200 C 0.98107 0.58099 0.77458 0.0
C1201 C 0.98697 0.60136 0.78336 0.0
C1202 C 0.97289 0.60814 0.77794 0.0
C1203 C 0.95233 0.5937 0.76312 0.0
C1204 C 0.9462 0.57285 0.75287 0.0
C1205 C 0.96085 0.56656 0.75836 0.0
loop_
_geom_bond_atom_site_label_1
_geom_bond_atom_site_label_2
_geom_bond_distance
_geom_bond_site_symmetry_2
_ccdc_geom_bond_type
Co0 N4 2.148 . S
Co0 N10 2.128 . S
Co0 N20 2.194 . S
Co0 O25 2.351 . S
Co0 O26 2.155 . S
Co0 O27 2.096 . S
C1 N4 1.301 1_556 S
C1 N5 1.328 . S
C1 H6 0.930 . S
C2 C3 1.333 . S
C2 N4 1.317 1_556 S
C2 H7 0.930 1_556 S
C3 C2 1.333 . S
C3 N5 1.350 . S
C3 H29 0.931 . S
N4 Co0 2.148 . S
N4 C1 1.301 1_554 S
N4 C2 1.317 1_554 S
N5 C1 1.328 . S
N5 C3 1.350 . S
H6 C1 0.930 . S
H7 C2 0.930 1_554 S
C8 O9 1.224 . S
C8 O27 1.247 . S
O9 C8 1.224 . S
N10 Co0 2.128 . S
N10 C11 1.355 . S
N10 C13 1.311 . S
C11 N10 1.355 . S
C11 C12 1.363 . S
C11 H23 0.929 . S
C12 C11 1.363 . S
C12 N14 1.375 . S
C12 H30 0.931 . S
C13 N10 1.311 . S
C13 N14 1.347 . S
C13 H24 0.929 . S
N14 C12 1.375 . S
N14 C13 1.347 . S
C15 C18 1.365 . S
C15 N20 1.328 . S
C15 H21 0.929 . S
C16 C17 1.362 . S
C16 C19 1.378 . S
C16 H31 0.929 . S
C17 C16 1.362 . S
C17 C18 1.366 . S
C18 C15 1.365 . S
C18 C17 1.366 . S
C18 H32 0.930 . S
C19 C16 1.378 . S
C19 N20 1.315 . S
C19 H22 0.930 . S
N20 Co0 2.194 . S
N20 C15 1.328 . S
N20 C19 1.315 . S
H21 C15 0.929 . S
H22 C19 0.930 . S
H23 C11 0.929 . S
H24 C13 0.929 . S
O25 Co0 2.351 . S
O25 C28 1.244 . S
O26 Co0 2.155 . S
O26 C28 1.240 . S
O27 Co0 2.096 . S
O27 C8 1.247 . S
C28 O25 1.244 . S
C28 O26 1.240 . S
H29 C3 0.931 . S
H30 C12 0.931 . S
H31 C16 0.929 . S
H32 C18 0.930 . S
Co33 N37 2.148 . S
Co33 N43 2.128 . S
Co33 N53 2.194 . S
Co33 O58 2.351 . S
Co33 O59 2.155 . S
Co33 O60 2.096 . S
C34 N37 1.301 . S
C34 N38 1.328 . S
C34 H39 0.930 . S
C35 C36 1.333 . S
C35 N37 1.317 . S
C35 H40 0.930 . S
C36 C35 1.333 . S
C36 N38 1.350 . S
C36 H62 0.931 . S
N37 Co33 2.148 . S
N37 C34 1.301 . S
N37 C35 1.317 . S
N38 C34 1.328 . S
N38 C36 1.350 . S
H39 C34 0.930 . S
H40 C35 0.930 . S
C41 O42 1.224 . S
C41 O60 1.247 . S
O42 C41 1.224 . S
N43 Co33 2.128 . S
N43 C44 1.355 . S
N43 C46 1.311 . S
C44 N43 1.355 . S
C44 C45 1.363 . S
C44 H56 0.929 . S
C45 C44 1.363 . S
C45 N47 1.375 . S
C45 H63 0.931 . S
C46 N43 1.311 . S
C46 N47 1.347 . S
C46 H57 0.929 . S
N47 C45 1.375 . S
N47 C46 1.347 . S
C48 C51 1.365 . S
C48 N53 1.328 . S
C48 H54 0.929 . S
C49 C50 1.362 . S
C49 C52 1.378 . S
C49 H64 0.929 . S
C50 C49 1.362 . S
C50 C51 1.366 . S
C51 C48 1.365 . S
C51 C50 1.366 . S
C51 H65 0.930 . S
C52 C49 1.378 . S
C52 N53 1.315 . S
C52 H55 0.930 . S
N53 Co33 2.194 . S
N53 C48 1.328 . S
N53 C52 1.315 . S
H54 C48 0.929 . S
H55 C52 0.930 . S
H56 C44 0.929 . S
H57 C46 0.929 . S
O58 Co33 2.351 . S
O58 C61 1.244 . S
O59 Co33 2.155 . S
O59 C61 1.240 . S
O60 Co33 2.096 . S
O60 C41 1.247 . S
C61 O58 1.244 . S
C61 O59 1.240 . S
H62 C36 0.931 . S
H63 C45 0.931 . S
H64 C49 0.929 . S
H65 C51 0.930 . S
Co66 N70 2.148 . S
Co66 N76 2.128 . S
Co66 N86 2.194 . S
Co66 O91 2.351 . S
Co66 O92 2.155 . S
Co66 O93 2.096 . S
C67 N70 1.301 . S
C67 N71 1.328 . S
C67 H72 0.930 . S
C68 C69 1.333 . S
C68 N70 1.317 . S
C68 H73 0.930 . S
C69 C68 1.333 . S
C69 N71 1.350 . S
C69 H95 0.931 . S
N70 Co66 2.148 . S
N70 C67 1.301 . S
N70 C68 1.317 . S
N71 C67 1.328 . S
N71 C69 1.350 . S
H72 C67 0.930 . S
H73 C68 0.930 . S
C74 O75 1.224 . S
C74 O93 1.247 . S
O75 C74 1.224 . S
N76 Co66 2.128 . S
N76 C77 1.355 . S
N76 C79 1.311 . S
C77 N76 1.355 . S
C77 C78 1.363 . S
C77 H89 0.929 . S
C78 C77 1.363 . S
C78 N80 1.375 . S
C78 H96 0.931 . S
C79 N76 1.311 . S
C79 N80 1.347 . S
C79 H90 0.929 . S
N80 C78 1.375 . S
N80 C79 1.347 . S
C81 C84 1.365 . S
C81 N86 1.328 . S
C81 H87 0.929 . S
C82 C83 1.362 . S
C82 C85 1.378 . S
C82 H97 0.929 . S
C83 C82 1.362 . S
C83 C84 1.366 . S
C84 C81 1.365 . S
C84 C83 1.366 . S
C84 H98 0.930 . S
C85 C82 1.378 . S
C85 N86 1.315 . S
C85 H88 0.930 . S
N86 Co66 2.194 . S
N86 C81 1.328 . S
N86 C85 1.315 . S
H87 C81 0.929 . S
H88 C85 0.930 . S
H89 C77 0.929 . S
H90 C79 0.929 . S
O91 Co66 2.351 . S
O91 C94 1.244 . S
O92 Co66 2.155 . S
O92 C94 1.240 . S
O93 Co66 2.096 . S
O93 C74 1.247 . S
C94 O91 1.244 . S
C94 O92 1.240 . S
H95 C69 0.931 . S
H96 C78 0.931 . S
H97 C82 0.929 . S
H98 C84 0.930 . S
Co99 N103 2.148 . S
Co99 N109 2.128 . S
Co99 N119 2.194 . S
Co99 O124 2.351 . S
Co99 O125 2.155 . S
Co99 O126 2.096 . S
C100 N103 1.301 . S
C100 N104 1.328 . S
C100 H105 0.930 . S
C101 C102 1.333 . S
C101 N103 1.317 . S
C101 H106 0.930 . S
C102 C101 1.333 . S
C102 N104 1.350 . S
C102 H128 0.931 . S
N103 Co99 2.148 . S
N103 C100 1.301 . S
N103 C101 1.317 . S
N104 C100 1.328 . S
N104 C102 1.350 . S
H105 C100 0.930 . S
H106 C101 0.930 . S
C107 O108 1.224 . S
C107 O126 1.247 . S
O108 C107 1.224 . S
N109 Co99 2.128 . S
N109 C110 1.355 . S
N109 C112 1.311 . S
C110 N109 1.355 . S
C110 C111 1.363 . S
C110 H122 0.929 . S
C111 C110 1.363 . S
C111 N113 1.375 . S
C111 H129 0.931 . S
C112 N109 1.311 . S
C112 N113 1.347 . S
C112 H123 0.929 . S
N113 C111 1.375 . S
N113 C112 1.347 . S
C114 C117 1.365 . S
C114 N119 1.328 . S
C114 H120 0.929 . S
C115 C116 1.362 . S
C115 C118 1.378 . S
C115 H130 0.929 . S
C116 C115 1.362 . S
C116 C117 1.366 . S
C117 C114 1.365 . S
C117 C116 1.366 . S
C117 H131 0.930 . S
C118 C115 1.378 . S
C118 N119 1.315 . S
C118 H121 0.930 . S
N119 Co99 2.194 . S
N119 C114 1.328 . S
N119 C118 1.315 . S
H120 C114 0.929 . S
H121 C118 0.930 . S
H122 C110 0.929 . S
H123 C112 0.929 . S
O124 Co99 2.351 . S
O124 C127 1.244 . S
O125 Co99 2.155 . S
O125 C127 1.240 . S
O126 Co99 2.096 . S
O126 C107 1.247 . S
C127 O124 1.244 . S
C127 O125 1.240 . S
H128 C102 0.931 . S
H129 C111 0.931 . S
H130 C115 0.929 . S
H131 C117 0.930 . S
Co132 N136 2.148 . S
Co132 N142 2.128 . S
Co132 N152 2.194 . S
Co132 O157 2.351 . S
Co132 O158 2.155 . S
Co132 O159 2.096 . S
C133 N136 1.301 . S
C133 N137 1.328 . S
C133 H138 0.930 . S
C134 C135 1.333 . S
C134 N136 1.317 . S
C134 H139 0.930 . S
C135 C134 1.333 . S
C135 N137 1.350 . S
C135 H161 0.931 . S
N136 Co132 2.148 . S
N136 C133 1.301 . S
N136 C134 1.317 . S
N137 C133 1.328 . S
N137 C135 1.350 . S
H138 C133 0.930 . S
H139 C134 0.930 . S
C140 O141 1.224 . S
C140 O159 1.247 . S
O141 C140 1.224 . S
N142 Co132 2.128 . S
N142 C143 1.355 . S
N142 C145 1.311 . S
C143 N142 1.355 . S
C143 C144 1.363 . S
C143 H155 0.929 . S
C144 C143 1.363 . S
C144 N146 1.375 1_556 S
C144 H162 0.931 1_556 S
C145 N142 1.311 . S
C145 N146 1.347 1_556 S
C145 H156 0.929 . S
N146 C144 1.375 1_554 S
N146 C145 1.347 1_554 S
C147 C150 1.365 . S
C147 N152 1.328 . S
C147 H153 0.929 . S
C148 C149 1.362 . S
C148 C151 1.378 . S
C148 H163 0.929 . S
C149 C148 1.362 . S
C149 C150 1.366 . S
C150 C147 1.365 . S
C150 C149 1.366 . S
C150 H164 0.930 . S
C151 C148 1.378 . S
C151 N152 1.315 . S
C151 H154 0.930 . S
N152 Co132 2.194 . S
N152 C147 1.328 . S
N152 C151 1.315 . S
H153 C147 0.929 . S
H154 C151 0.930 . S
H155 C143 0.929 . S
H156 C145 0.929 . S
O157 Co132 2.351 . S
O157 C160 1.244 . S
O158 Co132 2.155 . S
O158 C160 1.240 . S
O159 Co132 2.096 . S
O159 C140 1.247 . S
C160 O157 1.244 . S
C160 O158 1.240 . S
H161 C135 0.931 . S
H162 C144 0.931 1_554 S
H163 C148 0.929 . S
H164 C150 0.930 . S
Co165 N169 2.148 . S
Co165 N175 2.128 1_556 S
Co165 N185 2.194 . S
Co165 O190 2.351 . S
Co165 O191 2.155 . S
Co165 O192 2.096 . S
C166 N169 1.301 . S
C166 N170 1.328 . S
C166 H171 0.930 . S
C167 C168 1.333 . S
C167 N169 1.317 . S
C167 H172 0.930 . S
C168 C167 1.333 . S
C168 N170 1.350 . S
C168 H194 0.931 . S
N169 Co165 2.148 . S
N169 C166 1.301 . S
N169 C167 1.317 . S
N170 C166 1.328 . S
N170 C168 1.350 . S
H171 C166 0.930 . S
H172 C167 0.930 . S
C173 O174 1.224 . S
C173 O192 1.247 . S
O174 C173 1.224 . S
N175 Co165 2.128 1_554 S
N175 C176 1.355 . S
N175 C178 1.311 . S
C176 N175 1.355 . S
C176 C177 1.363 . S
C176 H188 0.929 . S
C177 C176 1.363 . S
C177 N179 1.375 . S
C177 H195 0.931 . S
C178 N175 1.311 . S
C178 N179 1.347 . S
C178 H189 0.929 . S
N179 C177 1.375 . S
N179 C178 1.347 . S
C180 C183 1.365 . S
C180 N185 1.328 . S
C180 H186 0.929 . S
C181 C182 1.362 . S
C181 C184 1.378 . S
C181 H196 0.929 . S
C182 C181 1.362 . S
C182 C183 1.366 . S
C183 C180 1.365 . S
C183 C182 1.366 . S
C183 H197 0.930 . S
C184 C181 1.378 . S
C184 N185 1.315 . S
C184 H187 0.930 . S
N185 Co165 2.194 . S
N185 C180 1.328 . S
N185 C184 1.315 . S
H186 C180 0.929 . S
H187 C184 0.930 . S
H188 C176 0.929 . S
H189 C178 0.929 . S
O190 Co165 2.351 . S
O190 C193 1.244 . S
O191 Co165 2.155 . S
O191 C193 1.240 . S
O192 Co165 2.096 . S
O192 C173 1.247 . S
C193 O190 1.244 . S
C193 O191 1.240 . S
H194 C168 0.931 . S
H195 C177 0.931 . S
H196 C181 0.929 . S
H197 C183 0.930 . S
Co198 N202 2.148 . S
Co198 N208 2.128 . S
Co198 N218 2.194 . S
Co198 O223 2.351 . S
Co198 O224 2.155 . S
Co198 O225 2.096 . S
C199 N202 1.301 . S
C199 N203 1.328 . S
C199 H204 0.930 . S
C200 C201 1.333 . S
C200 N202 1.317 . S
C200 H205 0.930 . S
C201 C200 1.333 . S
C201 N203 1.350 . S
C201 H227 0.931 . S
N202 Co198 2.148 . S
N202 C199 1.301 . S
N202 C200 1.317 . S
N203 C199 1.328 . S
N203 C201 1.350 . S
H204 C199 0.930 . S
H205 C200 0.930 . S
C206 O207 1.224 . S
C206 O225 1.247 . S
O207 C206 1.224 . S
N208 Co198 2.128 . S
N208 C209 1.355 . S
N208 C211 1.311 . S
C209 N208 1.355 . S
C209 C210 1.363 . S
C209 H221 0.929 . S
C210 C209 1.363 . S
C210 N212 1.375 . S
C210 H228 0.931 . S
C211 N208 1.311 . S
C211 N212 1.347 . S
C211 H222 0.929 . S
N212 C210 1.375 . S
N212 C211 1.347 . S
C213 C216 1.365 . S
C213 N218 1.328 . S
C213 H219 0.929 . S
C214 C215 1.362 . S
C214 C217 1.378 . S
C214 H229 0.929 . S
C215 C214 1.362 . S
C215 C216 1.366 . S
C216 C213 1.365 . S
C216 C215 1.366 . S
C216 H230 0.930 . S
C217 C214 1.378 . S
C217 N218 1.315 . S
C217 H220 0.930 . S
N218 Co198 2.194 . S
N218 C213 1.328 . S
N218 C217 1.315 . S
H219 C213 0.929 . S
H220 C217 0.930 . S
H221 C209 0.929 . S
H222 C211 0.929 . S
O223 Co198 2.351 . S
O223 C226 1.244 . S
O224 Co198 2.155 . S
O224 C226 1.240 . S
O225 Co198 2.096 . S
O225 C206 1.247 . S
C226 O223 1.244 . S
C226 O224 1.240 . S
H227 C201 0.931 . S
H228 C210 0.931 . S
H229 C214 0.929 . S
H230 C216 0.930 . S
Co231 N235 2.148 . S
Co231 N241 2.128 . S
Co231 N251 2.194 . S
Co231 O256 2.351 . S
Co231 O257 2.155 . S
Co231 O258 2.096 . S
C232 N235 1.301 1_554 S
C232 N236 1.328 . S
C232 H237 0.930 . S
C233 C234 1.333 . S
C233 N235 1.317 1_554 S
C233 H238 0.930 1_554 S
C234 C233 1.333 . S
C234 N236 1.350 . S
C234 H260 0.931 . S
N235 Co231 2.148 . S
N235 C232 1.301 1_556 S
N235 C233 1.317 1_556 S
N236 C232 1.328 . S
N236 C234 1.350 . S
H237 C232 0.930 . S
H238 C233 0.930 1_556 S
C239 O240 1.224 . S
C239 O258 1.247 . S
O240 C239 1.224 . S
N241 Co231 2.128 . S
N241 C242 1.355 . S
N241 C244 1.311 . S
C242 N241 1.355 . S
C242 C243 1.363 . S
C242 H254 0.929 . S
C243 C242 1.363 . S
C243 N245 1.375 . S
C243 H261 0.931 . S
C244 N241 1.311 . S
C244 N245 1.347 . S
C244 H255 0.929 . S
N245 C243 1.375 . S
N245 C244 1.347 . S
C246 C249 1.365 . S
C246 N251 1.328 . S
C246 H252 0.929 . S
C247 C248 1.362 . S
C247 C250 1.378 . S
C247 H262 0.929 . S
C248 C247 1.362 . S
C248 C249 1.366 . S
C249 C246 1.365 . S
C249 C248 1.366 . S
C249 H263 0.930 . S
C250 C247 1.378 . S
C250 N251 1.315 . S
C250 H253 0.930 . S
N251 Co231 2.194 . S
N251 C246 1.328 . S
N251 C250 1.315 . S
H252 C246 0.929 . S
H253 C250 0.930 . S
H254 C242 0.929 . S
H255 C244 0.929 . S
O256 Co231 2.351 . S
O256 C259 1.244 . S
O257 Co231 2.155 . S
O257 C259 1.240 . S
O258 Co231 2.096 . S
O258 C239 1.247 . S
C259 O256 1.244 . S
C259 O257 1.240 . S
H260 C234 0.931 . S
H261 C243 0.931 . S
H262 C247 0.929 . S
H263 C249 0.930 . S
Co264 N268 2.148 . S
Co264 N274 2.128 1_554 S
Co264 N284 2.194 . S
Co264 O289 2.351 . S
Co264 O290 2.155 . S
Co264 O291 2.096 . S
C265 N268 1.301 . S
C265 N269 1.328 . S
C265 H270 0.930 . S
C266 C267 1.333 . S
C266 N268 1.317 . S
C266 H271 0.930 . S
C267 C266 1.333 . S
C267 N269 1.350 . S
C267 H293 0.931 . S
N268 Co264 2.148 . S
N268 C265 1.301 . S
N268 C266 1.317 . S
N269 C265 1.328 . S
N269 C267 1.350 . S
H270 C265 0.930 . S
H271 C266 0.930 . S
C272 O273 1.224 . S
C272 O291 1.247 . S
O273 C272 1.224 . S
N274 Co264 2.128 1_556 S
N274 C275 1.355 . S
N274 C277 1.311 . S
C275 N274 1.355 . S
C275 C276 1.363 . S
C275 H287 0.929 . S
C276 C275 1.363 . S
C276 N278 1.375 . S
C276 H294 0.931 . S
C277 N274 1.311 . S
C277 N278 1.347 . S
C277 H288 0.929 . S
N278 C276 1.375 . S
N278 C277 1.347 . S
C279 C282 1.365 . S
C279 N284 1.328 . S
C279 H285 0.929 . S
C280 C281 1.362 . S
C280 C283 1.378 . S
C280 H295 0.929 . S
C281 C280 1.362 . S
C281 C282 1.366 . S
C282 C279 1.365 . S
C282 C281 1.366 . S
C282 H296 0.930 . S
C283 C280 1.378 . S
C283 N284 1.315 . S
C283 H286 0.930 . S
N284 Co264 2.194 . S
N284 C279 1.328 . S
N284 C283 1.315 . S
H285 C279 0.929 . S
H286 C283 0.930 . S
H287 C275 0.929 . S
H288 C277 0.929 . S
O289 Co264 2.351 . S
O289 C292 1.244 . S
O290 Co264 2.155 . S
O290 C292 1.240 . S
O291 Co264 2.096 . S
O291 C272 1.247 . S
C292 O289 1.244 . S
C292 O290 1.240 . S
H293 C267 0.931 . S
H294 C276 0.931 . S
H295 C280 0.929 . S
H296 C282 0.930 . S
Co297 N301 2.148 . S
Co297 N307 2.128 . S
Co297 N317 2.194 . S
Co297 O322 2.351 . S
Co297 O323 2.155 . S
Co297 O324 2.096 . S
C298 N301 1.301 . S
C298 N302 1.328 . S
C298 H303 0.930 . S
C299 C300 1.333 . S
C299 N301 1.317 . S
C299 H304 0.930 . S
C300 C299 1.333 . S
C300 N302 1.350 . S
C300 H326 0.931 . S
N301 Co297 2.148 . S
N301 C298 1.301 . S
N301 C299 1.317 . S
N302 C298 1.328 . S
N302 C300 1.350 . S
H303 C298 0.930 . S
H304 C299 0.930 . S
C305 O306 1.224 . S
C305 O324 1.247 . S
O306 C305 1.224 . S
N307 Co297 2.128 . S
N307 C308 1.355 . S
N307 C310 1.311 . S
C308 N307 1.355 . S
C308 C309 1.363 . S
C308 H320 0.929 . S
C309 C308 1.363 . S
C309 N311 1.375 1_554 S
C309 H327 0.931 1_554 S
C310 N307 1.311 . S
C310 N311 1.347 1_554 S
C310 H321 0.929 . S
N311 C309 1.375 1_556 S
N311 C310 1.347 1_556 S
C312 C315 1.365 . S
C312 N317 1.328 . S
C312 H318 0.929 . S
C313 C314 1.362 . S
C313 C316 1.378 . S
C313 H328 0.929 . S
C314 C313 1.362 . S
C314 C315 1.366 . S
C315 C312 1.365 . S
C315 C314 1.366 . S
C315 H329 0.930 . S
C316 C313 1.378 . S
C316 N317 1.315 . S
C316 H319 0.930 . S
N317 Co297 2.194 . S
N317 C312 1.328 . S
N317 C316 1.315 . S
H318 C312 0.929 . S
H319 C316 0.930 . S
H320 C308 0.929 . S
H321 C310 0.929 . S
O322 Co297 2.351 . S
O322 C325 1.244 . S
O323 Co297 2.155 . S
O323 C325 1.240 . S
O324 Co297 2.096 . S
O324 C305 1.247 . S
C325 O322 1.244 . S
C325 O323 1.240 . S
H326 C300 0.931 . S
H327 C309 0.931 1_556 S
H328 C313 0.929 . S
H329 C315 0.930 . S
Co330 N334 2.148 . S
Co330 N340 2.128 . S
Co330 N350 2.194 . S
Co330 O355 2.351 . S
Co330 O356 2.155 . S
Co330 O357 2.096 . S
C331 N334 1.301 . S
C331 N335 1.328 . S
C331 H336 0.930 . S
C332 C333 1.333 . S
C332 N334 1.317 . S
C332 H337 0.930 . S
C333 C332 1.333 . S
C333 N335 1.350 . S
C333 H359 0.931 . S
N334 Co330 2.148 . S
N334 C331 1.301 . S
N334 C332 1.317 . S
N335 C331 1.328 . S
N335 C333 1.350 . S
H336 C331 0.930 . S
H337 C332 0.930 . S
C338 O339 1.224 . S
C338 O357 1.247 . S
O339 C338 1.224 . S
N340 Co330 2.128 . S
N340 C341 1.355 . S
N340 C343 1.311 . S
C341 N340 1.355 . S
C341 C342 1.363 . S
C341 H353 0.929 . S
C342 C341 1.363 . S
C342 N344 1.375 . S
C342 H360 0.931 . S
C343 N340 1.311 . S
C343 N344 1.347 . S
C343 H354 0.929 . S
N344 C342 1.375 . S
N344 C343 1.347 . S
C345 C348 1.365 . S
C345 N350 1.328 . S
C345 H351 0.929 . S
C346 C347 1.362 . S
C346 C349 1.378 . S
C346 H361 0.929 . S
C347 C346 1.362 . S
C347 C348 1.366 . S
C348 C345 1.365 . S
C348 C347 1.366 . S
C348 H362 0.930 . S
C349 C346 1.378 . S
C349 N350 1.315 . S
C349 H352 0.930 . S
N350 Co330 2.194 . S
N350 C345 1.328 . S
N350 C349 1.315 . S
H351 C345 0.929 . S
H352 C349 0.930 . S
H353 C341 0.929 . S
H354 C343 0.929 . S
O355 Co330 2.351 . S
O355 C358 1.244 . S
O356 Co330 2.155 . S
O356 C358 1.240 . S
O357 Co330 2.096 . S
O357 C338 1.247 . S
C358 O355 1.244 . S
C358 O356 1.240 . S
H359 C333 0.931 . S
H360 C342 0.931 . S
H361 C346 0.929 . S
H362 C348 0.930 . S
Co363 N367 2.148 . S
Co363 N373 2.128 . S
Co363 N383 2.194 . S
Co363 O388 2.351 . S
Co363 O389 2.155 . S
Co363 O390 2.096 . S
C364 N367 1.301 . S
C364 N368 1.328 . S
C364 H369 0.930 . S
C365 C366 1.333 . S
C365 N367 1.317 . S
C365 H370 0.930 . S
C366 C365 1.333 . S
C366 N368 1.350 . S
C366 H392 0.931 . S
N367 Co363 2.148 . S
N367 C364 1.301 . S
N367 C365 1.317 . S
N368 C364 1.328 . S
N368 C366 1.350 . S
H369 C364 0.930 . S
H370 C365 0.930 . S
C371 O372 1.224 . S
C371 O390 1.247 . S
O372 C371 1.224 . S
N373 Co363 2.128 . S
N373 C374 1.355 . S
N373 C376 1.311 . S
C374 N373 1.355 . S
C374 C375 1.363 . S
C374 H386 0.929 . S
C375 C374 1.363 . S
C375 N377 1.375 . S
C375 H393 0.931 . S
C376 N373 1.311 . S
C376 N377 1.347 . S
C376 H387 0.929 . S
N377 C375 1.375 . S
N377 C376 1.347 . S
C378 C381 1.365 . S
C378 N383 1.328 . S
C378 H384 0.929 . S
C379 C380 1.362 . S
C379 C382 1.378 . S
C379 H394 0.929 . S
C380 C379 1.362 . S
C380 C381 1.366 . S
C381 C378 1.365 . S
C381 C380 1.366 . S
C381 H395 0.930 . S
C382 C379 1.378 . S
C382 N383 1.315 . S
C382 H385 0.930 . S
N383 Co363 2.194 . S
N383 C378 1.328 . S
N383 C382 1.315 . S
H384 C378 0.929 . S
H385 C382 0.930 . S
H386 C374 0.929 . S
H387 C376 0.929 . S
O388 Co363 2.351 . S
O388 C391 1.244 . S
O389 Co363 2.155 . S
O389 C391 1.240 . S
O390 Co363 2.096 . S
O390 C371 1.247 . S
C391 O388 1.244 . S
C391 O389 1.240 . S
H392 C366 0.931 . S
H393 C375 0.931 . S
H394 C379 0.929 . S
H395 C381 0.930 . S
H396 C408 0.930 1_556 S
H397 C410 0.930 . S
H398 C411 0.930 . S
H399 C415 0.959 . S
H400 C415 0.959 . S
H401 C415 0.961 . S
H402 C416 0.960 1_556 S
H403 C416 0.966 . S
H404 C416 0.959 . S
H405 C419 0.929 . S
H406 C420 0.931 . S
H407 C422 0.930 . S
C408 H396 0.930 1_554 S
C408 C409 1.399 . S
C408 C413 1.399 . S
C409 C408 1.399 . S
C409 C410 1.376 . S
C410 H397 0.930 . S
C410 C409 1.376 . S
C410 C411 1.388 . S
C411 H398 0.930 . S
C411 C410 1.388 . S
C411 C412 1.390 . S
C412 C411 1.390 . S
C412 C413 1.394 . S
C412 C418 1.465 . S
C413 C408 1.399 . S
C413 C412 1.394 . S
C413 C414 1.516 . S
C414 C413 1.516 . S
C414 C415 1.502 1_554 S
C414 C416 1.561 . S
C414 C417 1.526 . S
C415 H399 0.959 . S
C415 H400 0.959 . S
C415 H401 0.961 . S
C415 C414 1.502 1_556 S
C416 H402 0.960 1_554 S
C416 H403 0.966 . S
C416 H404 0.959 . S
C416 C414 1.561 . S
C417 C414 1.526 . S
C417 C418 1.396 . S
C417 C422 1.390 . S
C418 C412 1.465 . S
C418 C417 1.396 . S
C418 C419 1.399 . S
C419 H405 0.929 . S
C419 C418 1.399 . S
C419 C420 1.385 . S
C420 H406 0.931 . S
C420 C419 1.385 . S
C420 C421 1.389 . S
C421 C420 1.389 . S
C421 C422 1.387 . S
C422 H407 0.930 . S
C422 C417 1.390 . S
C422 C421 1.387 . S
H423 C435 0.930 . S
H424 C437 0.930 . S
H425 C438 0.930 . S
H426 C442 0.959 . S
H427 C442 0.959 . S
H428 C442 0.961 . S
H429 C443 0.960 . S
H430 C443 0.961 . S
H431 C443 0.959 . S
H432 C446 0.929 . S
H433 C447 0.931 . S
H434 C449 0.930 . S
C435 H423 0.930 . S
C435 C436 1.399 . S
C435 C440 1.399 . S
C436 C435 1.399 . S
C436 C437 1.376 . S
C437 H424 0.930 . S
C437 C436 1.376 . S
C437 C438 1.388 . S
C438 H425 0.930 . S
C438 C437 1.388 . S
C438 C439 1.390 . S
C439 C438 1.390 . S
C439 C440 1.394 . S
C439 C445 1.465 . S
C440 C435 1.399 . S
C440 C439 1.394 . S
C440 C441 1.516 . S
C441 C440 1.516 . S
C441 C442 1.502 . S
C441 C443 1.561 . S
C441 C444 1.526 . S
C442 H426 0.959 . S
C442 H427 0.959 . S
C442 H428 0.961 . S
C442 C441 1.502 . S
C443 H429 0.960 . S
C443 H430 0.961 . S
C443 H431 0.959 . S
C443 C441 1.561 . S
C444 C441 1.526 . S
C444 C445 1.396 . S
C444 C449 1.390 . S
C445 C439 1.465 . S
C445 C444 1.396 . S
C445 C446 1.399 . S
C446 H432 0.929 . S
C446 C445 1.399 . S
C446 C447 1.385 . S
C447 H433 0.931 . S
C447 C446 1.385 . S
C447 C448 1.389 . S
C448 C447 1.389 . S
C448 C449 1.387 . S
C449 H434 0.930 . S
C449 C444 1.390 . S
C449 C448 1.387 . S
H450 C462 0.930 . S
H451 C464 0.930 . S
H452 C465 0.930 . S
H453 C469 0.959 . S
H454 C469 0.959 . S
H455 C469 0.961 . S
H456 C470 0.960 . S
H457 C470 0.961 . S
H458 C470 0.959 . S
H459 C473 0.929 . S
H460 C474 0.931 . S
H461 C476 0.930 . S
C462 H450 0.930 . S
C462 C463 1.399 . S
C462 C467 1.399 . S
C463 C462 1.399 . S
C463 C464 1.376 . S
C464 H451 0.930 . S
C464 C463 1.376 . S
C464 C465 1.388 . S
C465 H452 0.930 . S
C465 C464 1.388 . S
C465 C466 1.390 . S
C466 C465 1.390 . S
C466 C467 1.394 . S
C466 C472 1.465 . S
C467 C462 1.399 . S
C467 C466 1.394 . S
C467 C468 1.516 . S
C468 C467 1.516 . S
C468 C469 1.502 . S
C468 C470 1.561 . S
C468 C471 1.526 . S
C469 H453 0.959 . S
C469 H454 0.959 . S
C469 H455 0.961 . S
C469 C468 1.502 . S
C470 H456 0.960 . S
C470 H457 0.961 . S
C470 H458 0.959 . S
C470 C468 1.561 . S
C471 C468 1.526 . S
C471 C472 1.396 . S
C471 C476 1.390 . S
C472 C466 1.465 . S
C472 C471 1.396 . S
C472 C473 1.399 . S
C473 H459 0.929 . S
C473 C472 1.399 . S
C473 C474 1.385 . S
C474 H460 0.931 . S
C474 C473 1.385 . S
C474 C475 1.389 . S
C475 C474 1.389 . S
C475 C476 1.387 . S
C476 H461 0.930 . S
C476 C471 1.390 . S
C476 C475 1.387 . S
H477 C489 0.930 . S
H478 C491 0.930 . S
H479 C492 0.930 . S
H480 C496 0.959 . S
H481 C496 0.959 . S
H482 C496 0.961 . S
H483 C497 0.960 . S
H484 C497 0.961 . S
H485 C497 0.959 . S
H486 C500 0.929 . S
H487 C501 0.931 . S
H488 C503 0.930 . S
C489 H477 0.930 . S
C489 C490 1.399 . S
C489 C494 1.399 . S
C490 C489 1.399 . S
C490 C491 1.376 . S
C491 H478 0.930 . S
C491 C490 1.376 . S
C491 C492 1.388 . S
C492 H479 0.930 . S
C492 C491 1.388 . S
C492 C493 1.390 . S
C493 C492 1.390 . S
C493 C494 1.394 . S
C493 C499 1.465 . S
C494 C489 1.399 . S
C494 C493 1.394 . S
C494 C495 1.516 . S
C495 C494 1.516 . S
C495 C496 1.502 . S
C495 C497 1.561 . S
C495 C498 1.526 . S
C496 H480 0.959 . S
C496 H481 0.959 . S
C496 H482 0.961 . S
C496 C495 1.502 . S
C497 H483 0.960 . S
C497 H484 0.961 . S
C497 H485 0.959 . S
C497 C495 1.561 . S
C498 C495 1.526 . S
C498 C499 1.396 . S
C498 C503 1.390 . S
C499 C493 1.465 . S
C499 C498 1.396 . S
C499 C500 1.399 . S
C500 H486 0.929 . S
C500 C499 1.399 . S
C500 C501 1.385 . S
C501 H487 0.931 . S
C501 C500 1.385 . S
C501 C502 1.389 . S
C502 C501 1.389 . S
C502 C503 1.387 . S
C503 H488 0.930 . S
C503 C498 1.390 . S
C503 C502 1.387 . S
H504 C516 0.930 . S
H505 C518 0.930 . S
H506 C519 0.930 . S
H507 C523 0.959 . S
H508 C523 0.959 . S
H509 C523 0.961 . S
H510 C524 0.960 . S
H511 C524 0.961 . S
H512 C524 0.959 . S
H513 C527 0.929 . S
H514 C528 0.931 . S
H515 C530 0.930 . S
C516 H504 0.930 . S
C516 C517 1.399 . S
C516 C521 1.399 . S
C517 C516 1.399 . S
C517 C518 1.376 . S
C518 H505 0.930 . S
C518 C517 1.376 . S
C518 C519 1.388 . S
C519 H506 0.930 . S
C519 C518 1.388 . S
C519 C520 1.390 . S
C520 C519 1.390 . S
C520 C521 1.394 . S
C520 C526 1.465 . S
C521 C516 1.399 . S
C521 C520 1.394 . S
C521 C522 1.516 . S
C522 C521 1.516 . S
C522 C523 1.502 . S
C522 C524 1.561 . S
C522 C525 1.526 . S
C523 H507 0.959 . S
C523 H508 0.959 . S
C523 H509 0.961 . S
C523 C522 1.502 . S
C524 H510 0.960 . S
C524 H511 0.961 . S
C524 H512 0.959 . S
C524 C522 1.561 . S
C525 C522 1.526 . S
C525 C526 1.396 . S
C525 C530 1.390 . S
C526 C520 1.465 . S
C526 C525 1.396 . S
C526 C527 1.399 . S
C527 H513 0.929 . S
C527 C526 1.399 . S
C527 C528 1.385 . S
C528 H514 0.931 . S
C528 C527 1.385 . S
C528 C529 1.389 . S
C529 C528 1.389 . S
C529 C530 1.387 . S
C530 H515 0.930 . S
C530 C525 1.390 . S
C530 C529 1.387 . S
H531 C543 0.930 . S
H532 C545 0.930 . S
H533 C546 0.930 1_554 S
H534 C550 0.959 . S
H535 C550 0.959 . S
H536 C550 0.961 . S
H537 C551 0.960 . S
H538 C551 0.961 . S
H539 C551 0.959 . S
H540 C554 0.929 1_554 S
H541 C555 0.931 1_554 S
H542 C557 0.930 . S
C543 H531 0.930 . S
C543 C544 1.399 . S
C543 C548 1.399 . S
C544 C543 1.399 . S
C544 C545 1.376 . S
C545 H532 0.930 . S
C545 C544 1.376 . S
C545 C546 1.388 . S
C546 H533 0.930 1_556 S
C546 C545 1.388 . S
C546 C547 1.390 . S
C547 C546 1.390 . S
C547 C548 1.394 . S
C547 C553 1.465 . S
C548 C543 1.399 . S
C548 C547 1.394 . S
C548 C549 1.516 . S
C549 C548 1.516 . S
C549 C550 1.502 . S
C549 C551 1.561 . S
C549 C552 1.526 . S
C550 H534 0.959 . S
C550 H535 0.959 . S
C550 H536 0.961 . S
C550 C549 1.502 . S
C551 H537 0.960 . S
C551 H538 0.961 . S
C551 H539 0.959 . S
C551 C549 1.561 . S
C552 C549 1.526 . S
C552 C553 1.396 . S
C552 C557 1.390 . S
C553 C547 1.465 . S
C553 C552 1.396 . S
C553 C554 1.399 . S
C554 H540 0.929 1_556 S
C554 C553 1.399 . S
C554 C555 1.385 . S
C555 H541 0.931 1_556 S
C555 C554 1.385 . S
C555 C556 1.389 . S
C556 C555 1.389 . S
C556 C557 1.387 . S
C557 H542 0.930 . S
C557 C552 1.390 . S
C557 C556 1.387 . S
H558 C570 0.930 . S
H559 C572 0.930 . S
H560 C573 0.930 . S
H561 C577 0.959 . S
H562 C577 0.959 . S
H563 C577 0.961 . S
H564 C578 0.960 . S
H565 C578 0.961 . S
H566 C578 0.959 . S
H567 C581 0.929 . S
H568 C582 0.931 . S
H569 C584 0.930 . S
C570 H558 0.930 . S
C570 C571 1.399 . S
C570 C575 1.399 . S
C571 C570 1.399 . S
C571 C572 1.376 . S
C572 H559 0.930 . S
C572 C571 1.376 . S
C572 C573 1.388 . S
C573 H560 0.930 . S
C573 C572 1.388 . S
C573 C574 1.390 . S
C574 C573 1.390 . S
C574 C575 1.394 . S
C574 C580 1.465 . S
C575 C570 1.399 . S
C575 C574 1.394 . S
C575 C576 1.516 . S
C576 C575 1.516 . S
C576 C577 1.502 . S
C576 C578 1.561 . S
C576 C579 1.526 . S
C577 H561 0.959 . S
C577 H562 0.959 . S
C577 H563 0.961 . S
C577 C576 1.502 . S
C578 H564 0.960 . S
C578 H565 0.961 . S
C578 H566 0.959 . S
C578 C576 1.561 . S
C579 C576 1.526 . S
C579 C580 1.396 . S
C579 C584 1.390 . S
C580 C574 1.465 . S
C580 C579 1.396 . S
C580 C581 1.399 . S
C581 H567 0.929 . S
C581 C580 1.399 . S
C581 C582 1.385 . S
C582 H568 0.931 . S
C582 C581 1.385 . S
C582 C583 1.389 . S
C583 C582 1.389 . S
C583 C584 1.387 . S
C584 H569 0.930 . S
C584 C579 1.390 . S
C584 C583 1.387 . S
H585 C597 0.930 . S
H586 C599 0.930 . S
H587 C600 0.930 . S
H588 C604 0.959 . S
H589 C604 0.959 . S
H590 C604 0.961 . S
H591 C605 0.960 . S
H592 C605 0.961 . S
H593 C605 0.959 . S
H594 C608 0.929 . S
H595 C609 0.931 . S
H596 C611 0.930 . S
C597 H585 0.930 . S
C597 C598 1.399 . S
C597 C602 1.399 . S
C598 C597 1.399 . S
C598 C599 1.376 . S
C599 H586 0.930 . S
C599 C598 1.376 . S
C599 C600 1.388 . S
C600 H587 0.930 . S
C600 C599 1.388 . S
C600 C601 1.390 . S
C601 C600 1.390 . S
C601 C602 1.394 . S
C601 C607 1.465 . S
C602 C597 1.399 . S
C602 C601 1.394 . S
C602 C603 1.516 . S
C603 C602 1.516 . S
C603 C604 1.502 . S
C603 C605 1.561 . S
C603 C606 1.526 . S
C604 H588 0.959 . S
C604 H589 0.959 . S
C604 H590 0.961 . S
C604 C603 1.502 . S
C605 H591 0.960 . S
C605 H592 0.961 . S
C605 H593 0.959 . S
C605 C603 1.561 . S
C606 C603 1.526 . S
C606 C607 1.396 . S
C606 C611 1.390 . S
C607 C601 1.465 . S
C607 C606 1.396 . S
C607 C608 1.399 . S
C608 H594 0.929 . S
C608 C607 1.399 . S
C608 C609 1.385 . S
C609 H595 0.931 . S
C609 C608 1.385 . S
C609 C610 1.389 . S
C610 C609 1.389 . S
C610 C611 1.387 . S
C611 H596 0.930 . S
C611 C606 1.390 . S
C611 C610 1.387 . S
H612 C624 0.930 . S
H613 C626 0.930 . S
H614 C627 0.930 . S
H615 C631 0.959 . S
H616 C631 0.959 . S
H617 C631 0.961 . S
H618 C632 0.960 . S
H619 C632 0.961 . S
H620 C632 0.959 . S
H621 C635 0.929 . S
H622 C636 0.931 . S
H623 C638 0.930 . S
C624 H612 0.930 . S
C624 C625 1.399 . S
C624 C629 1.399 . S
C625 C624 1.399 . S
C625 C626 1.376 . S
C626 H613 0.930 . S
C626 C625 1.376 . S
C626 C627 1.388 . S
C627 H614 0.930 . S
C627 C626 1.388 . S
C627 C628 1.390 . S
C628 C627 1.390 . S
C628 C629 1.394 . S
C628 C634 1.465 . S
C629 C624 1.399 . S
C629 C628 1.394 . S
C629 C630 1.516 . S
C630 C629 1.516 . S
C630 C631 1.502 . S
C630 C632 1.561 . S
C630 C633 1.526 1_556 S
C631 H615 0.959 . S
C631 H616 0.959 . S
C631 H617 0.961 . S
C631 C630 1.502 . S
C632 H618 0.960 . S
C632 H619 0.961 . S
C632 H620 0.959 . S
C632 C630 1.561 . S
C633 C630 1.526 1_554 S
C633 C634 1.396 1_554 S
C633 C638 1.390 . S
C634 C628 1.465 . S
C634 C633 1.396 1_556 S
C634 C635 1.399 1_556 S
C635 H621 0.929 . S
C635 C634 1.399 1_554 S
C635 C636 1.385 . S
C636 H622 0.931 . S
C636 C635 1.385 . S
C636 C637 1.389 . S
C637 C636 1.389 . S
C637 C638 1.387 . S
C638 H623 0.930 . S
C638 C633 1.390 . S
C638 C637 1.387 . S
H639 C651 0.930 . S
H640 C653 0.930 . S
H641 C654 0.930 . S
H642 C658 0.959 . S
H643 C658 0.959 . S
H644 C658 0.961 . S
H645 C659 0.960 . S
H646 C659 0.961 . S
H647 C659 0.959 . S
H648 C662 0.929 . S
H649 C663 0.931 . S
H650 C665 0.930 . S
C651 H639 0.930 . S
C651 C652 1.399 . S
C651 C656 1.399 1_556 S
C652 C651 1.399 . S
C652 C653 1.376 . S
C653 H640 0.930 . S
C653 C652 1.376 . S
C653 C654 1.388 1_556 S
C654 H641 0.930 . S
C654 C653 1.388 1_554 S
C654 C655 1.390 . S
C655 C654 1.390 . S
C655 C656 1.394 . S
C655 C661 1.465 . S
C656 C651 1.399 1_554 S
C656 C655 1.394 . S
C656 C657 1.516 . S
C657 C656 1.516 . S
C657 C658 1.502 . S
C657 C659 1.561 . S
C657 C660 1.526 . S
C658 H642 0.959 . S
C658 H643 0.959 . S
C658 H644 0.961 . S
C658 C657 1.502 . S
C659 H645 0.960 . S
C659 H646 0.961 . S
C659 H647 0.959 . S
C659 C657 1.561 . S
C660 C657 1.526 . S
C660 C661 1.396 . S
C660 C665 1.390 . S
C661 C655 1.465 . S
C661 C660 1.396 . S
C661 C662 1.399 . S
C662 H648 0.929 . S
C662 C661 1.399 . S
C662 C663 1.385 . S
C663 H649 0.931 . S
C663 C662 1.385 . S
C663 C664 1.389 . S
C664 C663 1.389 . S
C664 C665 1.387 . S
C665 H650 0.930 . S
C665 C660 1.390 . S
C665 C664 1.387 . S
H666 C678 0.930 . S
H667 C680 0.930 . S
H668 C681 0.930 . S
H669 C685 0.959 . S
H670 C685 0.959 . S
H671 C685 0.961 . S
H672 C686 0.960 . S
H673 C686 0.961 . S
H674 C686 0.959 . S
H675 C689 0.929 . S
H676 C690 0.931 . S
H677 C692 0.930 . S
C678 H666 0.930 . S
C678 C679 1.399 . S
C678 C683 1.399 . S
C679 C678 1.399 . S
C679 C680 1.376 . S
C680 H667 0.930 . S
C680 C679 1.376 . S
C680 C681 1.388 . S
C681 H668 0.930 . S
C681 C680 1.388 . S
C681 C682 1.390 . S
C682 C681 1.390 . S
C682 C683 1.394 . S
C682 C688 1.465 . S
C683 C678 1.399 . S
C683 C682 1.394 . S
C683 C684 1.516 . S
C684 C683 1.516 . S
C684 C685 1.502 . S
C684 C686 1.561 . S
C684 C687 1.526 . S
C685 H669 0.959 . S
C685 H670 0.959 . S
C685 H671 0.961 . S
C685 C684 1.502 . S
C686 H672 0.960 . S
C686 H673 0.961 . S
C686 H674 0.959 . S
C686 C684 1.561 . S
C687 C684 1.526 . S
C687 C688 1.396 . S
C687 C692 1.390 . S
C688 C682 1.465 . S
C688 C687 1.396 . S
C688 C689 1.399 . S
C689 H675 0.929 . S
C689 C688 1.399 . S
C689 C690 1.385 . S
C690 H676 0.931 . S
C690 C689 1.385 . S
C690 C691 1.389 . S
C691 C690 1.389 . S
C691 C692 1.387 . S
C692 H677 0.930 . S
C692 C687 1.390 . S
C692 C691 1.387 . S
H693 C705 0.930 . S
H694 C707 0.930 . S
H695 C708 0.930 . S
H696 C712 0.959 . S
H697 C712 0.959 . S
H698 C712 0.961 . S
H699 C713 0.960 . S
H700 C713 0.961 . S
H701 C713 0.959 . S
H702 C716 0.929 . S
H703 C717 0.931 . S
H704 C719 0.930 . S
C705 H693 0.930 . S
C705 C706 1.399 . S
C705 C710 1.399 . S
C706 C705 1.399 . S
C706 C707 1.376 . S
C707 H694 0.930 . S
C707 C706 1.376 . S
C707 C708 1.388 . S
C708 H695 0.930 . S
C708 C707 1.388 . S
C708 C709 1.390 . S
C709 C708 1.390 . S
C709 C710 1.394 . S
C709 C715 1.465 . S
C710 C705 1.399 . S
C710 C709 1.394 . S
C710 C711 1.516 . S
C711 C710 1.516 . S
C711 C712 1.502 . S
C711 C713 1.561 . S
C711 C714 1.526 . S
C712 H696 0.959 . S
C712 H697 0.959 . S
C712 H698 0.961 . S
C712 C711 1.502 . S
C713 H699 0.960 . S
C713 H700 0.961 . S
C713 H701 0.959 . S
C713 C711 1.561 . S
C714 C711 1.526 . S
C714 C715 1.396 . S
C714 C719 1.390 . S
C715 C709 1.465 . S
C715 C714 1.396 . S
C715 C716 1.399 . S
C716 H702 0.929 . S
C716 C715 1.399 . S
C716 C717 1.385 . S
C717 H703 0.931 . S
C717 C716 1.385 . S
C717 C718 1.389 . S
C718 C717 1.389 . S
C718 C719 1.387 . S
C719 H704 0.930 . S
C719 C714 1.390 . S
C719 C718 1.387 . S
H720 C732 0.930 . S
H721 C734 0.930 . S
H722 C735 0.930 . S
H723 C739 0.959 . S
H724 C739 0.959 . S
H725 C739 0.961 . S
H726 C740 0.960 . S
H727 C740 0.961 . S
H728 C740 0.959 . S
H729 C743 0.929 . S
H730 C744 0.931 . S
H731 C746 0.930 . S
C732 H720 0.930 . S
C732 C733 1.399 . S
C732 C737 1.399 . S
C733 C732 1.399 . S
C733 C734 1.376 . S
C734 H721 0.930 . S
C734 C733 1.376 . S
C734 C735 1.388 . S
C735 H722 0.930 . S
C735 C734 1.388 . S
C735 C736 1.390 . S
C736 C735 1.390 . S
C736 C737 1.394 . S
C736 C742 1.465 . S
C737 C732 1.399 . S
C737 C736 1.394 . S
C737 C738 1.516 . S
C738 C737 1.516 . S
C738 C739 1.502 . S
C738 C740 1.561 . S
C738 C741 1.526 . S
C739 H723 0.959 . S
C739 H724 0.959 . S
C739 H725 0.961 . S
C739 C738 1.502 . S
C740 H726 0.960 . S
C740 H727 0.961 . S
C740 H728 0.959 . S
C740 C738 1.561 . S
C741 C738 1.526 . S
C741 C742 1.396 . S
C741 C746 1.390 . S
C742 C736 1.465 . S
C742 C741 1.396 . S
C742 C743 1.399 . S
C743 H729 0.929 . S
C743 C742 1.399 . S
C743 C744 1.385 . S
C744 H730 0.931 . S
C744 C743 1.385 . S
C744 C745 1.389 . S
C745 C744 1.389 . S
C745 C746 1.387 . S
C746 H731 0.930 . S
C746 C741 1.390 . S
C746 C745 1.387 . S
H747 C759 0.930 . S
H748 C761 0.930 . S
H749 C762 0.930 . S
H750 C766 0.959 . S
H751 C766 0.959 . S
H752 C766 0.961 . S
H753 C767 0.960 . S
H754 C767 0.961 . S
H755 C767 0.959 . S
H756 C770 0.929 . S
H757 C771 0.931 . S
H758 C773 0.930 . S
C759 H747 0.930 . S
C759 C760 1.399 . S
C759 C764 1.399 . S
C760 C759 1.399 . S
C760 C761 1.376 . S
C761 H748 0.930 . S
C761 C760 1.376 . S
C761 C762 1.388 . S
C762 H749 0.930 . S
C762 C761 1.388 . S
C762 C763 1.390 . S
C763 C762 1.390 . S
C763 C764 1.394 . S
C763 C769 1.465 . S
C764 C759 1.399 . S
C764 C763 1.394 . S
C764 C765 1.516 . S
C765 C764 1.516 . S
C765 C766 1.502 . S
C765 C767 1.561 . S
C765 C768 1.526 . S
C766 H750 0.959 . S
C766 H751 0.959 . S
C766 H752 0.961 . S
C766 C765 1.502 . S
C767 H753 0.960 . S
C767 H754 0.961 . S
C767 H755 0.959 . S
C767 C765 1.561 . S
C768 C765 1.526 . S
C768 C769 1.396 . S
C768 C773 1.390 . S
C769 C763 1.465 . S
C769 C768 1.396 . S
C769 C770 1.399 . S
C770 H756 0.929 . S
C770 C769 1.399 . S
C770 C771 1.385 . S
C771 H757 0.931 . S
C771 C770 1.385 . S
C771 C772 1.389 . S
C772 C771 1.389 . S
C772 C773 1.387 . S
C773 H758 0.930 . S
C773 C768 1.390 . S
C773 C772 1.387 . S
H774 C786 0.930 . S
H775 C788 0.930 . S
H776 C789 0.930 . S
H777 C793 0.959 . S
H778 C793 0.959 . S
H779 C793 0.961 . S
H780 C794 0.960 . S
H781 C794 0.961 . S
H782 C794 0.959 . S
H783 C797 0.929 . S
H784 C798 0.931 . S
H785 C800 0.930 . S
C786 H774 0.930 . S
C786 C787 1.399 . S
C786 C791 1.399 . S
C787 C786 1.399 . S
C787 C788 1.376 . S
C788 H775 0.930 . S
C788 C787 1.376 . S
C788 C789 1.388 . S
C789 H776 0.930 . S
C789 C788 1.388 . S
C789 C790 1.390 . S
C790 C789 1.390 . S
C790 C791 1.394 . S
C790 C796 1.465 . S
C791 C786 1.399 . S
C791 C790 1.394 . S
C791 C792 1.516 . S
C792 C791 1.516 . S
C792 C793 1.502 . S
C792 C794 1.561 . S
C792 C795 1.526 . S
C793 H777 0.959 . S
C793 H778 0.959 . S
C793 H779 0.961 . S
C793 C792 1.502 . S
C794 H780 0.960 . S
C794 H781 0.961 . S
C794 H782 0.959 . S
C794 C792 1.561 . S
C795 C792 1.526 . S
C795 C796 1.396 . S
C795 C800 1.390 . S
C796 C790 1.465 . S
C796 C795 1.396 . S
C796 C797 1.399 . S
C797 H783 0.929 . S
C797 C796 1.399 . S
C797 C798 1.385 . S
C798 H784 0.931 . S
C798 C797 1.385 . S
C798 C799 1.389 . S
C799 C798 1.389 . S
C799 C800 1.387 . S
C800 H785 0.930 . S
C800 C795 1.390 . S
C800 C799 1.387 . S
H801 C813 0.930 . S
H802 C815 0.930 . S
H803 C816 0.930 . S
H804 C820 0.959 . S
H805 C820 0.959 . S
H806 C820 0.961 . S
H807 C821 0.960 . S
H808 C821 0.961 . S
H809 C821 0.959 . S
H810 C824 0.929 . S
H811 C825 0.931 . S
H812 C827 0.930 . S
C813 H801 0.930 . S
C813 C814 1.399 . S
C813 C818 1.399 . S
C814 C813 1.399 . S
C814 C815 1.376 . S
C815 H802 0.930 . S
C815 C814 1.376 . S
C815 C816 1.388 . S
C816 H803 0.930 . S
C816 C815 1.388 . S
C816 C817 1.390 . S
C817 C816 1.390 . S
C817 C818 1.394 . S
C817 C823 1.465 . S
C818 C813 1.399 . S
C818 C817 1.394 . S
C818 C819 1.516 . S
C819 C818 1.516 . S
C819 C820 1.502 . S
C819 C821 1.561 . S
C819 C822 1.526 . S
C820 H804 0.959 . S
C820 H805 0.959 . S
C820 H806 0.961 . S
C820 C819 1.502 . S
C821 H807 0.960 . S
C821 H808 0.961 . S
C821 H809 0.959 . S
C821 C819 1.561 . S
C822 C819 1.526 . S
C822 C823 1.396 . S
C822 C827 1.390 . S
C823 C817 1.465 . S
C823 C822 1.396 . S
C823 C824 1.399 . S
C824 H810 0.929 . S
C824 C823 1.399 . S
C824 C825 1.385 . S
C825 H811 0.931 . S
C825 C824 1.385 . S
C825 C826 1.389 . S
C826 C825 1.389 . S
C826 C827 1.387 . S
C827 H812 0.930 . S
C827 C822 1.390 . S
C827 C826 1.387 . S
H828 C840 0.930 . S
H829 C842 0.930 . S
H830 C843 0.930 . S
H831 C847 0.959 . S
H832 C847 0.959 . S
H833 C847 0.961 . S
H834 C848 0.960 . S
H835 C848 0.961 . S
H836 C848 0.959 . S
H837 C851 0.929 . S
H838 C852 0.931 . S
H839 C854 0.930 . S
C840 H828 0.930 . S
C840 C841 1.399 . S
C840 C845 1.399 . S
C841 C840 1.399 . S
C841 C842 1.376 . S
C842 H829 0.930 . S
C842 C841 1.376 . S
C842 C843 1.388 . S
C843 H830 0.930 . S
C843 C842 1.388 . S
C843 C844 1.390 . S
C844 C843 1.390 . S
C844 C845 1.394 . S
C844 C850 1.465 . S
C845 C840 1.399 . S
C845 C844 1.394 . S
C845 C846 1.516 . S
C846 C845 1.516 . S
C846 C847 1.502 . S
C846 C848 1.561 . S
C846 C849 1.526 . S
C847 H831 0.959 . S
C847 H832 0.959 . S
C847 H833 0.961 . S
C847 C846 1.502 . S
C848 H834 0.960 . S
C848 H835 0.961 . S
C848 H836 0.959 . S
C848 C846 1.561 . S
C849 C846 1.526 . S
C849 C850 1.396 . S
C849 C854 1.390 1_556 S
C850 C844 1.465 . S
C850 C849 1.396 . S
C850 C851 1.399 . S
C851 H837 0.929 . S
C851 C850 1.399 . S
C851 C852 1.385 1_556 S
C852 H838 0.931 . S
C852 C851 1.385 1_554 S
C852 C853 1.389 . S
C853 C852 1.389 . S
C853 C854 1.387 . S
C854 H839 0.930 . S
C854 C849 1.390 1_554 S
C854 C853 1.387 . S
H855 C867 0.930 . S
H856 C869 0.930 . S
H857 C870 0.930 . S
H858 C874 0.959 . S
H859 C874 0.959 . S
H860 C874 0.961 . S
H861 C875 0.960 . S
H862 C875 0.961 . S
H863 C875 0.959 . S
H864 C878 0.929 . S
H865 C879 0.931 . S
H866 C881 0.930 . S
C867 H855 0.930 . S
C867 C868 1.399 . S
C867 C872 1.399 . S
C868 C867 1.399 . S
C868 C869 1.376 . S
C869 H856 0.930 . S
C869 C868 1.376 . S
C869 C870 1.388 . S
C870 H857 0.930 . S
C870 C869 1.388 . S
C870 C871 1.390 . S
C871 C870 1.390 . S
C871 C872 1.394 . S
C871 C877 1.465 . S
C872 C867 1.399 . S
C872 C871 1.394 . S
C872 C873 1.516 . S
C873 C872 1.516 . S
C873 C874 1.502 . S
C873 C875 1.561 . S
C873 C876 1.526 1_554 S
C874 H858 0.959 . S
C874 H859 0.959 . S
C874 H860 0.961 . S
C874 C873 1.502 . S
C875 H861 0.960 . S
C875 H862 0.961 . S
C875 H863 0.959 . S
C875 C873 1.561 . S
C876 C873 1.526 1_556 S
C876 C877 1.396 1_556 S
C876 C881 1.390 . S
C877 C871 1.465 . S
C877 C876 1.396 1_554 S
C877 C878 1.399 1_554 S
C878 H864 0.929 . S
C878 C877 1.399 1_556 S
C878 C879 1.385 . S
C879 H865 0.931 . S
C879 C878 1.385 . S
C879 C880 1.389 . S
C880 C879 1.389 . S
C880 C881 1.387 . S
C881 H866 0.930 . S
C881 C876 1.390 . S
C881 C880 1.387 . S
H882 C894 0.930 . S
H883 C896 0.930 . S
H884 C897 0.930 . S
H885 C901 0.959 . S
H886 C901 0.959 . S
H887 C901 0.961 . S
H888 C902 0.960 . S
H889 C902 0.961 . S
H890 C902 0.959 . S
H891 C905 0.929 . S
H892 C906 0.931 . S
H893 C908 0.930 . S
C894 H882 0.930 . S
C894 C895 1.399 . S
C894 C899 1.399 . S
C895 C894 1.399 . S
C895 C896 1.376 . S
C896 H883 0.930 . S
C896 C895 1.376 . S
C896 C897 1.388 . S
C897 H884 0.930 . S
C897 C896 1.388 . S
C897 C898 1.390 . S
C898 C897 1.390 . S
C898 C899 1.394 . S
C898 C904 1.465 . S
C899 C894 1.399 . S
C899 C898 1.394 . S
C899 C900 1.516 . S
C900 C899 1.516 . S
C900 C901 1.502 . S
C900 C902 1.561 . S
C900 C903 1.526 . S
C901 H885 0.959 . S
C901 H886 0.959 . S
C901 H887 0.961 . S
C901 C900 1.502 . S
C902 H888 0.960 . S
C902 H889 0.961 . S
C902 H890 0.959 . S
C902 C900 1.561 . S
C903 C900 1.526 . S
C903 C904 1.396 . S
C903 C908 1.390 . S
C904 C898 1.465 . S
C904 C903 1.396 . S
C904 C905 1.399 . S
C905 H891 0.929 . S
C905 C904 1.399 . S
C905 C906 1.385 . S
C906 H892 0.931 . S
C906 C905 1.385 . S
C906 C907 1.389 . S
C907 C906 1.389 . S
C907 C908 1.387 . S
C908 H893 0.930 . S
C908 C903 1.390 . S
C908 C907 1.387 . S
H909 C921 0.930 . S
H910 C923 0.930 . S
H911 C924 0.930 . S
H912 C928 0.959 . S
H913 C928 0.959 . S
H914 C928 0.961 . S
H915 C929 0.960 . S
H916 C929 0.961 . S
H917 C929 0.959 . S
H918 C932 0.929 . S
H919 C933 0.931 . S
H920 C935 0.930 . S
C921 H909 0.930 . S
C921 C922 1.399 . S
C921 C926 1.399 . S
C922 C921 1.399 . S
C922 C923 1.376 . S
C923 H910 0.930 . S
C923 C922 1.376 . S
C923 C924 1.388 . S
C924 H911 0.930 . S
C924 C923 1.388 . S
C924 C925 1.390 . S
C925 C924 1.390 . S
C925 C926 1.394 . S
C925 C931 1.465 . S
C926 C921 1.399 . S
C926 C925 1.394 . S
C926 C927 1.516 . S
C927 C926 1.516 . S
C927 C928 1.502 . S
C927 C929 1.561 . S
C927 C930 1.526 . S
C928 H912 0.959 . S
C928 H913 0.959 . S
C928 H914 0.961 . S
C928 C927 1.502 . S
C929 H915 0.960 . S
C929 H916 0.961 . S
C929 H917 0.959 . S
C929 C927 1.561 . S
C930 C927 1.526 . S
C930 C931 1.396 . S
C930 C935 1.390 . S
C931 C925 1.465 . S
C931 C930 1.396 . S
C931 C932 1.399 . S
C932 H918 0.929 . S
C932 C931 1.399 . S
C932 C933 1.385 . S
C933 H919 0.931 . S
C933 C932 1.385 . S
C933 C934 1.389 . S
C934 C933 1.389 . S
C934 C935 1.387 . S
C935 H920 0.930 . S
C935 C930 1.390 . S
C935 C934 1.387 . S
H936 C948 0.930 . S
H937 C950 0.930 . S
H938 C951 0.930 . S
H939 C955 0.959 . S
H940 C955 0.959 . S
H941 C955 0.961 . S
H942 C956 0.960 . S
H943 C956 0.961 . S
H944 C956 0.959 . S
H945 C959 0.929 . S
H946 C960 0.931 . S
H947 C962 0.930 . S
C948 H936 0.930 . S
C948 C949 1.399 . S
C948 C953 1.399 . S
C949 C948 1.399 . S
C949 C950 1.376 . S
C950 H937 0.930 . S
C950 C949 1.376 . S
C950 C951 1.388 . S
C951 H938 0.930 . S
C951 C950 1.388 . S
C951 C952 1.390 . S
C952 C951 1.390 . S
C952 C953 1.394 . S
C952 C958 1.465 . S
C953 C948 1.399 . S
C953 C952 1.394 . S
C953 C954 1.516 . S
C954 C953 1.516 . S
C954 C955 1.502 . S
C954 C956 1.561 . S
C954 C957 1.526 . S
C955 H939 0.959 . S
C955 H940 0.959 . S
C955 H941 0.961 . S
C955 C954 1.502 . S
C956 H942 0.960 . S
C956 H943 0.961 . S
C956 H944 0.959 . S
C956 C954 1.561 . S
C957 C954 1.526 . S
C957 C958 1.396 . S
C957 C962 1.390 . S
C958 C952 1.465 . S
C958 C957 1.396 . S
C958 C959 1.399 . S
C959 H945 0.929 . S
C959 C958 1.399 . S
C959 C960 1.385 . S
C960 H946 0.931 . S
C960 C959 1.385 . S
C960 C961 1.389 . S
C961 C960 1.389 . S
C961 C962 1.387 . S
C962 H947 0.930 . S
C962 C957 1.390 . S
C962 C961 1.387 . S
H963 C975 0.930 . S
H964 C977 0.930 . S
H965 C978 0.930 . S
H966 C982 0.959 . S
H967 C982 0.959 . S
H968 C982 0.961 . S
H969 C983 0.960 . S
H970 C983 0.961 . S
H971 C983 0.959 . S
H972 C986 0.929 . S
H973 C987 0.931 . S
H974 C989 0.930 . S
C975 H963 0.930 . S
C975 C976 1.399 . S
C975 C980 1.399 . S
C976 C975 1.399 . S
C976 C977 1.376 . S
C977 H964 0.930 . S
C977 C976 1.376 . S
C977 C978 1.388 . S
C978 H965 0.930 . S
C978 C977 1.388 . S
C978 C979 1.390 . S
C979 C978 1.390 . S
C979 C980 1.394 . S
C979 C985 1.465 . S
C980 C975 1.399 . S
C980 C979 1.394 . S
C980 C981 1.516 . S
C981 C980 1.516 . S
C981 C982 1.502 . S
C981 C983 1.561 . S
C981 C984 1.526 . S
C982 H966 0.959 . S
C982 H967 0.959 . S
C982 H968 0.961 . S
C982 C981 1.502 . S
C983 H969 0.960 . S
C983 H970 0.961 . S
C983 H971 0.959 . S
C983 C981 1.561 . S
C984 C981 1.526 . S
C984 C985 1.396 . S
C984 C989 1.390 . S
C985 C979 1.465 . S
C985 C984 1.396 . S
C985 C986 1.399 . S
C986 H972 0.929 . S
C986 C985 1.399 . S
C986 C987 1.385 . S
C987 H973 0.931 . S
C987 C986 1.385 . S
C987 C988 1.389 . S
C988 C987 1.389 . S
C988 C989 1.387 . S
C989 H974 0.930 . S
C989 C984 1.390 . S
C989 C988 1.387 . S
H990 C1002 0.930 1_554 S
H991 C1004 0.930 . S
H992 C1005 0.930 . S
H993 C1009 0.959 . S
H994 C1009 0.959 . S
H995 C1009 0.961 1_554 S
H996 C1010 0.960 . S
H997 C1010 0.961 . S
H998 C1010 0.959 . S
H999 C1013 0.929 . S
H1000 C1014 0.931 . S
H1001 C1016 0.930 . S
C1002 H990 0.930 1_556 S
C1002 C1003 1.399 . S
C1002 C1007 1.399 . S
C1003 C1002 1.399 . S
C1003 C1004 1.376 . S
C1004 H991 0.930 . S
C1004 C1003 1.376 . S
C1004 C1005 1.388 . S
C1005 H992 0.930 . S
C1005 C1004 1.388 . S
C1005 C1006 1.390 . S
C1006 C1005 1.390 . S
C1006 C1007 1.394 . S
C1006 C1012 1.465 . S
C1007 C1002 1.399 . S
C1007 C1006 1.394 . S
C1007 C1008 1.516 . S
C1008 C1007 1.516 . S
C1008 C1009 1.502 . S
C1008 C1010 1.561 1_556 S
C1008 C1011 1.526 . S
C1009 H993 0.959 . S
C1009 H994 0.959 . S
C1009 H995 0.961 1_556 S
C1009 C1008 1.502 . S
C1010 H996 0.960 . S
C1010 H997 0.961 . S
C1010 H998 0.959 . S
C1010 C1008 1.561 1_554 S
C1011 C1008 1.526 . S
C1011 C1012 1.396 . S
C1011 C1016 1.390 . S
C1012 C1006 1.465 . S
C1012 C1011 1.396 . S
C1012 C1013 1.399 . S
C1013 H999 0.929 . S
C1013 C1012 1.399 . S
C1013 C1014 1.385 . S
C1014 H1000 0.931 . S
C1014 C1013 1.385 . S
C1014 C1015 1.389 . S
C1015 C1014 1.389 . S
C1015 C1016 1.387 . S
C1016 H1001 0.930 . S
C1016 C1011 1.390 . S
C1016 C1015 1.387 . S
H1017 C1029 0.930 . S
H1018 C1031 0.930 . S
H1019 C1032 0.930 1_556 S
H1020 C1036 0.959 . S
H1021 C1036 0.959 . S
H1022 C1036 0.961 . S
H1023 C1037 0.960 . S
H1024 C1037 0.961 . S
H1025 C1037 0.959 . S
H1026 C1040 0.929 . S
H1027 C1041 0.931 . S
H1028 C1043 0.930 . S
C1029 H1017 0.930 . S
C1029 C1030 1.399 . S
C1029 C1034 1.399 . S
C1030 C1029 1.399 . S
C1030 C1031 1.376 . S
C1031 H1018 0.930 . S
C1031 C1030 1.376 . S
C1031 C1032 1.388 . S
C1032 H1019 0.930 1_554 S
C1032 C1031 1.388 . S
C1032 C1033 1.390 . S
C1033 C1032 1.390 . S
C1033 C1034 1.394 . S
C1033 C1039 1.465 . S
C1034 C1029 1.399 . S
C1034 C1033 1.394 . S
C1034 C1035 1.516 . S
C1035 C1034 1.516 . S
C1035 C1036 1.502 . S
C1035 C1037 1.561 . S
C1035 C1038 1.526 . S
C1036 H1020 0.959 . S
C1036 H1021 0.959 . S
C1036 H1022 0.961 . S
C1036 C1035 1.502 . S
C1037 H1023 0.960 . S
C1037 H1024 0.961 . S
C1037 H1025 0.959 . S
C1037 C1035 1.561 . S
C1038 C1035 1.526 . S
C1038 C1039 1.396 . S
C1038 C1043 1.390 . S
C1039 C1033 1.465 . S
C1039 C1038 1.396 . S
C1039 C1040 1.399 1_554 S
C1040 H1026 0.929 . S
C1040 C1039 1.399 1_556 S
C1040 C1041 1.385 . S
C1041 H1027 0.931 . S
C1041 C1040 1.385 . S
C1041 C1042 1.389 1_556 S
C1042 C1041 1.389 1_554 S
C1042 C1043 1.387 . S
C1043 H1028 0.930 . S
C1043 C1038 1.390 . S
C1043 C1042 1.387 . S
H1044 C1056 0.930 1_556 S
H1045 C1058 0.930 . S
H1046 C1059 0.930 . S
H1047 C1063 0.959 . S
H1048 C1063 0.971 . S
H1049 C1063 0.961 . S
H1050 C1064 0.960 . S
H1051 C1064 0.961 . S
H1052 C1064 0.959 . S
H1053 C1067 0.929 . S
H1054 C1068 0.931 . S
H1055 C1070 0.930 . S
C1056 H1044 0.930 1_554 S
C1056 C1057 1.399 . S
C1056 C1061 1.399 1_554 S
C1057 C1056 1.399 . S
C1057 C1058 1.376 . S
C1058 H1045 0.930 . S
C1058 C1057 1.376 . S
C1058 C1059 1.388 . S
C1059 H1046 0.930 . S
C1059 C1058 1.388 . S
C1059 C1060 1.390 . S
C1060 C1059 1.390 . S
C1060 C1061 1.394 1_554 S
C1060 C1066 1.465 1_545 S
C1061 C1056 1.399 1_556 S
C1061 C1060 1.394 1_556 S
C1061 C1062 1.516 . S
C1062 C1061 1.516 . S
C1062 C1063 1.502 . S
C1062 C1064 1.561 . S
C1062 C1065 1.526 1_545 S
C1063 H1047 0.959 . S
C1063 H1048 0.971 . S
C1063 H1049 0.961 . S
C1063 C1062 1.502 . S
C1064 H1050 0.960 . S
C1064 H1051 0.961 . S
C1064 H1052 0.959 . S
C1064 C1062 1.561 . S
C1065 C1062 1.526 1_565 S
C1065 C1066 1.396 1_556 S
C1065 C1070 1.390 . S
C1066 C1060 1.465 1_565 S
C1066 C1065 1.396 1_554 S
C1066 C1067 1.399 . S
C1067 H1053 0.929 . S
C1067 C1066 1.399 . S
C1067 C1068 1.385 . S
C1068 H1054 0.931 . S
C1068 C1067 1.385 . S
C1068 C1069 1.389 1_554 S
C1069 C1068 1.389 1_556 S
C1069 C1070 1.387 . S
C1070 H1055 0.930 . S
C1070 C1065 1.390 . S
C1070 C1069 1.387 . S
H1071 C1083 0.930 . S
H1072 C1085 0.930 . S
H1073 C1086 0.930 . S
H1074 C1090 0.959 . S
H1075 C1090 0.959 . S
H1076 C1090 0.961 1_556 S
H1077 C1091 0.960 1_556 S
H1078 C1091 0.961 . S
H1079 C1091 0.959 . S
H1080 C1094 0.929 . S
H1081 C1095 0.931 . S
H1082 C1097 0.930 . S
C1083 H1071 0.930 . S
C1083 C1084 1.399 . S
C1083 C1088 1.399 . S
C1084 C1083 1.399 . S
C1084 C1085 1.376 . S
C1085 H1072 0.930 . S
C1085 C1084 1.376 . S
C1085 C1086 1.388 . S
C1086 H1073 0.930 . S
C1086 C1085 1.388 . S
C1086 C1087 1.390 . S
C1087 C1086 1.390 . S
C1087 C1088 1.394 . S
C1087 C1093 1.465 . S
C1088 C1083 1.399 . S
C1088 C1087 1.394 . S
C1088 C1089 1.516 . S
C1089 C1088 1.516 . S
C1089 C1090 1.502 . S
C1089 C1091 1.561 . S
C1089 C1092 1.526 . S
C1090 H1074 0.959 . S
C1090 H1075 0.959 . S
C1090 H1076 0.961 1_554 S
C1090 C1089 1.502 . S
C1091 H1077 0.960 1_554 S
C1091 H1078 0.961 . S
C1091 H1079 0.959 . S
C1091 C1089 1.561 . S
C1092 C1089 1.526 . S
C1092 C1093 1.396 . S
C1092 C1097 1.390 . S
C1093 C1087 1.465 . S
C1093 C1092 1.396 . S
C1093 C1094 1.399 . S
C1094 H1080 0.929 . S
C1094 C1093 1.399 . S
C1094 C1095 1.385 . S
C1095 H1081 0.931 . S
C1095 C1094 1.385 . S
C1095 C1096 1.389 . S
C1096 C1095 1.389 . S
C1096 C1097 1.387 . S
C1097 H1082 0.930 . S
C1097 C1092 1.390 . S
C1097 C1096 1.387 . S
H1098 C1110 0.930 . S
H1099 C1112 0.930 . S
H1100 C1113 0.930 . S
H1101 C1117 0.959 1_655 S
H1102 C1117 0.959 1_655 S
H1103 C1117 0.961 . S
H1104 C1118 0.960 . S
H1105 C1118 0.961 . S
H1106 C1118 0.959 . S
H1107 C1121 0.929 . S
H1108 C1122 0.931 . S
H1109 C1124 0.930 . S
C1110 H1098 0.930 . S
C1110 C1111 1.399 . S
C1110 C1115 1.399 . S
C1111 C1110 1.399 . S
C1111 C1112 1.376 . S
C1112 H1099 0.930 . S
C1112 C1111 1.376 . S
C1112 C1113 1.388 . S
C1113 H1100 0.930 . S
C1113 C1112 1.388 . S
C1113 C1114 1.390 . S
C1114 C1113 1.390 . S
C1114 C1115 1.394 . S
C1114 C1120 1.465 1_455 S
C1115 C1110 1.399 . S
C1115 C1114 1.394 . S
C1115 C1116 1.516 . S
C1116 C1115 1.516 . S
C1116 C1117 1.502 . S
C1116 C1118 1.561 . S
C1116 C1119 1.526 1_455 S
C1117 H1101 0.959 1_455 S
C1117 H1102 0.959 1_455 S
C1117 H1103 0.961 . S
C1117 C1116 1.502 . S
C1118 H1104 0.960 . S
C1118 H1105 0.961 . S
C1118 H1106 0.959 . S
C1118 C1116 1.561 . S
C1119 C1116 1.526 1_655 S
C1119 C1120 1.396 . S
C1119 C1124 1.390 . S
C1120 C1114 1.465 1_655 S
C1120 C1119 1.396 . S
C1120 C1121 1.399 . S
C1121 H1107 0.929 . S
C1121 C1120 1.399 . S
C1121 C1122 1.385 . S
C1122 H1108 0.931 . S
C1122 C1121 1.385 . S
C1122 C1123 1.389 . S
C1123 C1122 1.389 . S
C1123 C1124 1.387 . S
C1124 H1109 0.930 . S
C1124 C1119 1.390 . S
C1124 C1123 1.387 . S
H1125 C1137 0.930 . S
H1126 C1139 0.930 . S
H1127 C1140 0.930 . S
H1128 C1144 0.959 . S
H1129 C1144 0.959 . S
H1130 C1144 0.961 . S
H1131 C1145 0.960 . S
H1132 C1145 0.961 . S
H1133 C1145 0.959 . S
H1134 C1148 0.929 . S
H1135 C1149 0.931 . S
H1136 C1151 0.930 . S
C1137 H1125 0.930 . S
C1137 C1138 1.399 . S
C1137 C1142 1.399 . S
C1138 C1137 1.399 . S
C1138 C1139 1.376 . S
C1139 H1126 0.930 . S
C1139 C1138 1.376 . S
C1139 C1140 1.388 . S
C1140 H1127 0.930 . S
C1140 C1139 1.388 . S
C1140 C1141 1.390 . S
C1141 C1140 1.390 . S
C1141 C1142 1.394 . S
C1141 C1147 1.465 1_565 S
C1142 C1137 1.399 . S
C1142 C1141 1.394 . S
C1142 C1143 1.516 1_565 S
C1143 C1142 1.516 1_545 S
C1143 C1144 1.502 . S
C1143 C1145 1.561 . S
C1143 C1146 1.526 . S
C1144 H1128 0.959 . S
C1144 H1129 0.959 . S
C1144 H1130 0.961 . S
C1144 C1143 1.502 . S
C1145 H1131 0.960 . S
C1145 H1132 0.961 . S
C1145 H1133 0.959 . S
C1145 C1143 1.561 . S
C1146 C1143 1.526 . S
C1146 C1147 1.396 . S
C1146 C1151 1.390 . S
C1147 C1141 1.465 1_545 S
C1147 C1146 1.396 . S
C1147 C1148 1.399 . S
C1148 H1134 0.929 . S
C1148 C1147 1.399 . S
C1148 C1149 1.385 . S
C1149 H1135 0.931 . S
C1149 C1148 1.385 . S
C1149 C1150 1.389 . S
C1150 C1149 1.389 . S
C1150 C1151 1.387 . S
C1151 H1136 0.930 . S
C1151 C1146 1.390 . S
C1151 C1150 1.387 . S
H1152 C1164 0.930 . S
H1153 C1166 0.930 . S
H1154 C1167 0.930 . S
H1155 C1171 0.959 . S
H1156 C1171 0.959 . S
H1157 C1171 0.961 . S
H1158 C1172 0.960 . S
H1159 C1172 0.961 . S
H1160 C1172 0.959 . S
H1161 C1175 0.929 . S
H1162 C1176 0.931 . S
H1163 C1178 0.930 . S
C1164 H1152 0.930 . S
C1164 C1165 1.399 . S
C1164 C1169 1.399 . S
C1165 C1164 1.399 . S
C1165 C1166 1.376 . S
C1166 H1153 0.930 . S
C1166 C1165 1.376 . S
C1166 C1167 1.388 . S
C1167 H1154 0.930 . S
C1167 C1166 1.388 . S
C1167 C1168 1.390 . S
C1168 C1167 1.390 . S
C1168 C1169 1.394 . S
C1168 C1174 1.465 . S
C1169 C1164 1.399 . S
C1169 C1168 1.394 . S
C1169 C1170 1.516 . S
C1170 C1169 1.516 . S
C1170 C1171 1.502 . S
C1170 C1172 1.561 . S
C1170 C1173 1.526 . S
C1171 H1155 0.959 . S
C1171 H1156 0.959 . S
C1171 H1157 0.961 . S
C1171 C1170 1.502 . S
C1172 H1158 0.960 . S
C1172 H1159 0.961 . S
C1172 H1160 0.959 . S
C1172 C1170 1.561 . S
C1173 C1170 1.526 . S
C1173 C1174 1.396 . S
C1173 C1178 1.390 . S
C1174 C1168 1.465 . S
C1174 C1173 1.396 . S
C1174 C1175 1.399 . S
C1175 H1161 0.929 . S
C1175 C1174 1.399 . S
C1175 C1176 1.385 . S
C1176 H1162 0.931 . S
C1176 C1175 1.385 . S
C1176 C1177 1.389 . S
C1177 C1176 1.389 . S
C1177 C1178 1.387 . S
C1178 H1163 0.930 . S
C1178 C1173 1.390 . S
C1178 C1177 1.387 . S
H1179 C1191 0.930 . S
H1180 C1193 0.930 . S
H1181 C1194 0.930 . S
H1182 C1198 0.959 . S
H1183 C1198 0.959 1_655 S
H1184 C1198 0.961 . S
H1185 C1199 0.955 . S
H1186 C1199 0.961 . S
H1187 C1199 0.959 . S
H1188 C1202 0.929 . S
H1189 C1203 0.931 . S
H1190 C1205 0.930 . S
C1191 H1179 0.930 . S
C1191 C1192 1.399 . S
C1191 C1196 1.399 . S
C1192 C1191 1.399 . S
C1192 C1193 1.376 . S
C1193 H1180 0.930 . S
C1193 C1192 1.376 . S
C1193 C1194 1.388 . S
C1194 H1181 0.930 . S
C1194 C1193 1.388 . S
C1194 C1195 1.390 . S
C1195 C1194 1.390 . S
C1195 C1196 1.394 . S
C1195 C1201 1.465 1_455 S
C1196 C1191 1.399 . S
C1196 C1195 1.394 . S
C1196 C1197 1.516 1_455 S
C1197 C1196 1.516 1_655 S
C1197 C1198 1.502 1_655 S
C1197 C1199 1.561 . S
C1197 C1200 1.526 . S
C1198 H1182 0.959 . S
C1198 H1183 0.959 1_455 S
C1198 H1184 0.961 . S
C1198 C1197 1.502 1_455 S
C1199 H1185 0.955 . S
C1199 H1186 0.961 . S
C1199 H1187 0.959 . S
C1199 C1197 1.561 . S
C1200 C1197 1.526 . S
C1200 C1201 1.396 . S
C1200 C1205 1.390 . S
C1201 C1195 1.465 1_655 S
C1201 C1200 1.396 . S
C1201 C1202 1.399 . S
C1202 H1188 0.929 . S
C1202 C1201 1.399 . S
C1202 C1203 1.385 . S
C1203 H1189 0.931 . S
C1203 C1202 1.385 . S
C1203 C1204 1.389 . S
C1204 C1203 1.389 . S
C1204 C1205 1.387 . S
C1205 H1190 0.930 . S
C1205 C1200 1.390 . S
C1205 C1204 1.387 . S
C409 C281 1.280 . S
C421 C17 1.312 . S
C436 C314 1.295 . S
C448 C50 1.276 . S
C463 C347 1.313 . S
C475 C83 1.286 . S
C490 C380 1.312 . S
C502 C116 1.281 . S
C517 C149 1.299 . S
C529 C215 1.275 . S
C544 C248 1.284 . S
C556 C182 1.313 . S
C571 N5 1.428 . S
C583 N14 1.401 . S
C598 N47 1.433 . S
C610 N38 1.399 1_556 S
C625 N80 1.408 . S
C637 N71 1.422 . S
C652 N113 1.426 . S
C664 N104 1.407 . S
C679 N146 1.391 . S
C691 N137 1.433 . S
C706 N179 1.402 . S
C718 N170 1.427 . S
C733 N203 1.411 1_554 S
C745 N212 1.421 . S
C760 N245 1.399 . S
C772 N236 1.425 . S
C787 N269 1.400 . S
C799 N278 1.432 . S
C814 N302 1.424 . S
C826 N311 1.400 . S
C841 N335 1.403 . S
C853 N344 1.424 . S
C868 N377 1.403 . S
C880 N368 1.426 . S
C895 C8 1.559 . S
C907 C338 1.554 . S
C922 C41 1.558 . S
C934 C371 1.559 . S
C949 C74 1.555 . S
C961 C206 1.559 . S
C976 C239 1.543 . S
C988 C107 1.544 . S
C1003 C272 1.556 1_556 S
C1015 C140 1.559 . S
C1030 C305 1.553 . S
C1042 C173 1.558 1_554 S
C1057 C28 1.119 . S
C1069 C259 1.123 . S
C1084 C292 1.164 . S
C1096 C61 1.160 . S
C1111 C325 1.114 . S
C1123 C94 1.117 . S
C1138 C127 1.169 . S
C1150 C358 1.164 . S
C1165 C391 1.126 . S
C1177 C160 1.130 . S
C1192 C193 1.184 . S
C1204 C226 1.184 . S
