# Generated by pormake.
# Topology unh, (4)-cn, num edge types: 1
# Building blocks:
#     Node 0, Type 0, BuildingBlock: ICAMEG_clean_sbu_1, # of connection points: 4
#     Node 1, Type 0, BuildingBlock: ICAMEG_clean_sbu_1, # of connection points: 4
#     Node 2, Type 0, BuildingBlock: ICAMEG_clean_sbu_1, # of connection points: 4
#     Node 3, Type 0, BuildingBlock: ICAMEG_clean_sbu_1, # of connection points: 4
#     Node 4, Type 0, BuildingBlock: ICAMEG_clean_sbu_1, # of connection points: 4
#     Node 5, Type 0, BuildingBlock: ICAMEG_clean_sbu_1, # of connection points: 4
#     Edge 6, Type (0, 0), BuildingBlock: XUDNAN_clean_linker_2, # of connection points: 2
#     Edge 7, Type (0, 0), BuildingBlock: XUDNAN_clean_linker_2, # of connection points: 2
#     Edge 8, Type (0, 0), BuildingBlock: XUDNAN_clean_linker_2, # of connection points: 2
#     Edge 9, Type (0, 0), BuildingBlock: XUDNAN_clean_linker_2, # of connection points: 2
#     Edge 10, Type (0, 0), BuildingBlock: XUDNAN_clean_linker_2, # of connection points: 2
#     Edge 11, Type (0, 0), BuildingBlock: XUDNAN_clean_linker_2, # of connection points: 2
#     Edge 12, Type (0, 0), BuildingBlock: XUDNAN_clean_linker_2, # of connection points: 2
#     Edge 13, Type (0, 0), BuildingBlock: XUDNAN_clean_linker_2, # of connection points: 2
#     Edge 14, Type (0, 0), BuildingBlock: XUDNAN_clean_linker_2, # of connection points: 2
#     Edge 15, Type (0, 0), BuildingBlock: XUDNAN_clean_linker_2, # of connection points: 2
#     Edge 16, Type (0, 0), BuildingBlock: XUDNAN_clean_linker_2, # of connection points: 2
#     Edge 17, Type (0, 0), BuildingBlock: XUDNAN_clean_linker_2, # of connection points: 2
# Relax obj value: 0.020
# Max RMSD: 0.108
# Mean RMSD: 0.108
data_MOF--net-unh--node1-ICAMEG_clean_sbu_1--edge1-XUDNAN_clean_linker_2
_symmetry_space_group_name_H-M    P1
_symmetry_Int_Tables_number       1
_symmetry_cell_setting            triclinic
loop_
_symmetry_equiv_pos_as_xyz
'x, y, z'
_cell_length_a     44.181788
_cell_length_b     44.148519
_cell_length_c     24.488971
_cell_angle_alpha  90.043775
_cell_angle_beta   89.977088
_cell_angle_gamma 120.00294
loop_
_atom_site_label
_atom_site_type_symbol
_atom_site_fract_x
_atom_site_fract_y
_atom_site_fract_z
_atom_type_partial_charge
Co0 Co 0.16134 0.55632 0.04579 0.0
Co1 Co 0.15029 0.61017 0.13366 0.0
O2 O 0.13119 0.56968 0.08516 0.0
C3 C 0.11206 0.55522 0.96203 0.0
O4 O 0.11988 0.58676 0.9777 0.0
C5 C 0.0936 0.55346 0.19923 0.0
O6 O 0.10274 0.5315 0.17979 0.0
O7 O 0.17494 0.59071 0.17563 0.0
O8 O 0.19549 0.57121 0.10856 0.0
H9 H 0.24552 0.70834 0.2416 0.0
H10 H 0.08589 0.50431 0.05799 0.0
O11 O 0.12761 0.54037 0.98327 0.0
H12 H 0.14816 0.45027 0.14438 0.0
H13 H 0.18463 0.47893 0.92247 0.0
H14 H 0.23775 0.5884 0.02906 0.0
H15 H 0.18095 0.5087 0.10242 0.0
H16 H 0.14764 0.49581 0.97486 0.0
O17 O 0.10927 0.58527 0.18386 0.0
H18 H 0.22069 0.65795 0.17865 0.0
H19 H 0.12009 0.6472 0.19531 0.0
H20 H 0.27572 0.5724 0.97761 0.0
H21 H 0.0521 0.44559 0.09872 0.0
H22 H 0.24917 0.5173 0.92381 0.0
H23 H 0.08325 0.41825 0.14257 0.0
O24 O 0.18808 0.60387 0.01315 0.0
H25 H 0.04582 0.60225 0.03884 0.0
H26 H 0.17019 0.67957 0.08428 0.0
H27 H 0.13936 0.70252 0.02925 0.0
H28 H 0.07671 0.66376 0.00623 0.0
H29 H 0.07775 0.58031 0.09347 0.0
H30 H 0.14376 0.6973 0.25882 0.0
H31 H 0.20694 0.72832 0.28216 0.0
O32 O 0.19223 0.63684 0.08547 0.0
C33 C 0.19454 0.57923 0.15847 0.0
C34 C 0.21798 0.69514 0.23157 0.0
C35 C 0.16085 0.68891 0.24128 0.0
N36 N 0.16908 0.64992 0.18286 0.0
C37 C 0.2038 0.66666 0.19582 0.0
C38 C 0.1476 0.66054 0.20535 0.0
C39 C 0.19631 0.70631 0.25436 0.0
C40 C 0.09967 0.49244 0.07639 0.0
N41 N 0.13537 0.50995 0.07772 0.0
C42 C 0.08037 0.45924 0.09965 0.0
C43 C 0.09787 0.44394 0.12433 0.0
C44 C 0.13428 0.46192 0.12543 0.0
C45 C 0.15271 0.49508 0.10178 0.0
C46 C 0.19651 0.50297 0.94583 0.0
C47 C 0.22601 0.56428 0.006 0.0
C48 C 0.1757 0.5127 0.97548 0.0
N49 N 0.19055 0.54293 0.00529 0.0
C50 C 0.24764 0.55541 0.97684 0.0
C51 C 0.23272 0.52451 0.94662 0.0
C52 C 0.20173 0.6332 0.03782 0.0
C53 C 0.07308 0.61943 0.04878 0.0
C54 C 0.14295 0.66251 0.07433 0.0
C55 C 0.12561 0.67568 0.04326 0.0
C56 C 0.09045 0.65393 0.0304 0.0
N57 N 0.12572 0.62865 0.09222 0.0
C58 C 0.09125 0.60719 0.07988 0.0
Co59 Co 0.61813 0.16399 0.19439 0.0
Co60 Co 0.55074 0.14323 0.28356 0.0
O61 O 0.57523 0.12997 0.23129 0.0
C62 C 0.57018 0.11971 0.10788 0.0
O63 O 0.54647 0.12489 0.13141 0.0
C64 C 0.54289 0.09497 0.3743 0.0
O65 O 0.56081 0.12237 0.40566 0.0
O66 O 0.59445 0.16879 0.3267 0.0
O67 O 0.63591 0.19398 0.26216 0.0
H68 H 0.53764 0.22583 0.40947 0.0
H69 H 0.59734 0.08886 0.19486 0.0
O70 O 0.60128 0.13451 0.12651 0.0
H71 H 0.71416 0.15013 0.27981 0.0
H72 H 0.71974 0.19995 0.06658 0.0
H73 H 0.65973 0.24138 0.18984 0.0
H74 H 0.68627 0.18314 0.24715 0.0
H75 H 0.66649 0.15785 0.11615 0.0
O76 O 0.53735 0.09881 0.32439 0.0
H77 H 0.56735 0.20883 0.34089 0.0
H78 H 0.48232 0.10445 0.34185 0.0
H79 H 0.71306 0.28439 0.14148 0.0
H80 H 0.62441 0.05485 0.22655 0.0
H81 H 0.74342 0.26372 0.0793 0.0
H82 H 0.68322 0.08551 0.26944 0.0
O83 O 0.59548 0.19065 0.1696 0.0
H84 H 0.45922 0.04041 0.17788 0.0
H85 H 0.49812 0.16068 0.23998 0.0
H86 H 0.445 0.1297 0.18356 0.0
H87 H 0.42516 0.06908 0.15225 0.0
H88 H 0.51255 0.07254 0.2335 0.0
H89 H 0.45175 0.12025 0.41062 0.0
H90 H 0.47941 0.18135 0.44479 0.0
O91 O 0.56317 0.1874 0.24253 0.0
C92 C 0.62557 0.19061 0.31174 0.0
C93 C 0.52528 0.19914 0.39479 0.0
C94 C 0.47708 0.13988 0.39546 0.0
N95 N 0.52649 0.15577 0.33714 0.0
C96 C 0.54194 0.18939 0.3559 0.0
C97 C 0.49452 0.13109 0.35654 0.0
C98 C 0.49262 0.17417 0.41462 0.0
C99 C 0.62303 0.10241 0.21315 0.0
N100 N 0.64027 0.13795 0.21885 0.0
C101 C 0.63819 0.083 0.23116 0.0
C102 C 0.67117 0.10022 0.25527 0.0
C103 C 0.68854 0.13647 0.26113 0.0
C104 C 0.67258 0.15501 0.24266 0.0
C105 C 0.70678 0.20927 0.09365 0.0
C106 C 0.67295 0.2322 0.16316 0.0
C107 C 0.6766 0.18557 0.12173 0.0
N108 N 0.66024 0.19718 0.1562 0.0
C109 C 0.70307 0.25667 0.13575 0.0
C110 C 0.72007 0.24505 0.10082 0.0
C111 C 0.57711 0.20041 0.19636 0.0
C112 C 0.46752 0.06677 0.19146 0.0
C113 C 0.48982 0.1344 0.22624 0.0
C114 C 0.45962 0.11693 0.19447 0.0
C115 C 0.44848 0.0829 0.17698 0.0
N116 N 0.50841 0.11842 0.24025 0.0
C117 C 0.4976 0.08503 0.22327 0.0
Co118 Co 0.40142 0.538 0.4688 0.0
Co119 Co 0.45201 0.59945 0.37212 0.0
O120 O 0.43907 0.55778 0.41553 0.0
C121 C 0.46399 0.55077 0.52922 0.0
O122 O 0.47882 0.58191 0.50674 0.0
C123 C 0.43719 0.54356 0.29355 0.0
O124 O 0.40712 0.52609 0.31895 0.0
O125 O 0.40257 0.58173 0.35041 0.0
O126 O 0.37046 0.54733 0.41997 0.0
H127 H 0.44142 0.70096 0.3035 0.0
H128 H 0.43442 0.4971 0.43302 0.0
O129 O 0.43207 0.52878 0.51877 0.0
H130 H 0.31005 0.42539 0.38304 0.0
H131 H 0.32619 0.45049 0.61129 0.0
H132 H 0.35117 0.55786 0.51254 0.0
H133 H 0.33165 0.48198 0.42998 0.0
H134 H 0.37289 0.47584 0.54188 0.0
O135 O 0.45873 0.57493 0.30782 0.0
H136 H 0.4255 0.64894 0.36022 0.0
H137 H 0.50644 0.63744 0.28742 0.0
H138 H 0.304 0.53324 0.58124 0.0
H139 H 0.41391 0.44059 0.38638 0.0
H140 H 0.29127 0.47916 0.63114 0.0
H141 H 0.35133 0.40438 0.3609 0.0
O142 O 0.41895 0.58439 0.50353 0.0
H143 H 0.55969 0.59066 0.40479 0.0
H144 H 0.50852 0.6674 0.4158 0.0
H145 H 0.56927 0.68962 0.44607 0.0
H146 H 0.59523 0.65114 0.44064 0.0
H147 H 0.49895 0.56938 0.37547 0.0
H148 H 0.52311 0.68921 0.22959 0.0
H149 H 0.49056 0.72141 0.23761 0.0
O150 O 0.44544 0.62408 0.43648 0.0
C151 C 0.37349 0.56325 0.37491 0.0
C152 C 0.45589 0.68724 0.29978 0.0
C153 C 0.50171 0.68061 0.25824 0.0
N154 N 0.46525 0.64042 0.32745 0.0
C155 C 0.44707 0.65784 0.33191 0.0
C156 C 0.49213 0.65129 0.291 0.0
C157 C 0.48344 0.69867 0.26277 0.0
C158 C 0.40708 0.48129 0.42262 0.0
N159 N 0.38422 0.49271 0.4345 0.0
C160 C 0.39565 0.4494 0.39599 0.0
C161 C 0.36054 0.42913 0.38162 0.0
C162 C 0.33737 0.44091 0.39401 0.0
C163 C 0.34975 0.47299 0.42053 0.0
C164 C 0.33141 0.47399 0.58969 0.0
C165 C 0.34556 0.53416 0.53378 0.0
C166 C 0.35784 0.48849 0.55042 0.0
N167 N 0.36443 0.51805 0.52279 0.0
C168 C 0.31893 0.52042 0.57278 0.0
C169 C 0.31182 0.4901 0.60081 0.0
C170 C 0.43405 0.61564 0.48537 0.0
C171 C 0.5487 0.60772 0.40719 0.0
C172 C 0.51961 0.65048 0.41337 0.0
C173 C 0.55405 0.66323 0.43048 0.0
C174 C 0.56861 0.64163 0.42738 0.0
N175 N 0.50025 0.61718 0.39362 0.0
C176 C 0.51437 0.59587 0.39039 0.0
Co177 Co 0.85367 0.44653 0.5523 0.0
Co178 Co 0.84718 0.39309 0.65666 0.0
O179 O 0.8753 0.43069 0.60583 0.0
C180 C 0.89511 0.44763 0.45439 0.0
O181 O 0.86667 0.42314 0.43074 0.0
C182 C 0.90287 0.44783 0.72705 0.0
O183 O 0.89526 0.47096 0.70775 0.0
O184 O 0.82477 0.41974 0.68349 0.0
O185 O 0.81389 0.43655 0.60299 0.0
H186 H 0.73663 0.30918 0.75456 0.0
H187 H 0.92762 0.49298 0.5849 0.0
O188 O 0.89395 0.45799 0.50251 0.0
H189 H 0.86813 0.55966 0.62584 0.0
H190 H 0.85473 0.52604 0.40387 0.0
H191 H 0.78157 0.41948 0.51139 0.0
H192 H 0.83557 0.50071 0.58543 0.0
H193 H 0.88105 0.5068 0.47483 0.0
O194 O 0.88524 0.41594 0.71229 0.0
H195 H 0.77234 0.35521 0.6879 0.0
H196 H 0.86305 0.35265 0.73802 0.0
H197 H 0.75415 0.43781 0.44096 0.0
H198 H 0.96125 0.55202 0.62474 0.0
H199 H 0.79082 0.49146 0.38662 0.0
H200 H 0.93147 0.58575 0.64564 0.0
O201 O 0.82666 0.39806 0.52253 0.0
H202 H 0.94866 0.37953 0.59725 0.0
H203 H 0.82079 0.31924 0.62155 0.0
H204 H 0.84815 0.28649 0.58548 0.0
H205 H 0.91256 0.31662 0.57329 0.0
H206 H 0.92018 0.4114 0.63271 0.0
H207 H 0.82834 0.30666 0.80541 0.0
H208 H 0.76463 0.28456 0.81387 0.0
O209 O 0.80885 0.36868 0.60142 0.0
C210 C 0.80895 0.43152 0.65447 0.0
C211 C 0.76434 0.3185 0.75113 0.0
C212 C 0.81583 0.31713 0.77972 0.0
N213 N 0.81968 0.3564 0.70877 0.0
C214 C 0.78468 0.34451 0.71337 0.0
C215 C 0.83536 0.34321 0.74156 0.0
C216 C 0.78008 0.30473 0.78444 0.0
C217 C 0.91452 0.50761 0.59335 0.0
N218 N 0.87968 0.49342 0.58258 0.0
C219 C 0.93369 0.54098 0.61613 0.0
C220 C 0.91695 0.55987 0.62793 0.0
C221 C 0.88141 0.54524 0.61688 0.0
C222 C 0.86308 0.51178 0.59413 0.0
C223 C 0.83847 0.50264 0.42732 0.0
C224 C 0.79768 0.44291 0.48804 0.0
C225 C 0.85323 0.4916 0.4675 0.0
N226 N 0.83283 0.46211 0.49736 0.0
C227 C 0.78201 0.45314 0.44817 0.0
C228 C 0.80261 0.48323 0.41767 0.0
C229 C 0.8065 0.37054 0.54964 0.0
C230 C 0.92058 0.36609 0.60251 0.0
C231 C 0.84881 0.3326 0.61616 0.0
C232 C 0.86417 0.31388 0.59583 0.0
C233 C 0.90031 0.3308 0.58902 0.0
N234 N 0.86889 0.36718 0.62948 0.0
C235 C 0.90432 0.38397 0.6227 0.0
Co236 Co 0.39638 0.84335 0.69432 0.0
Co237 Co 0.46275 0.86253 0.78467 0.0
O238 O 0.43922 0.87673 0.73204 0.0
C239 C 0.44494 0.88767 0.60851 0.0
O240 O 0.46849 0.88238 0.6323 0.0
C241 C 0.47081 0.91108 0.87544 0.0
O242 O 0.45173 0.8838 0.90642 0.0
O243 O 0.41866 0.83756 0.82715 0.0
O244 O 0.37797 0.81298 0.76139 0.0
H245 H 0.47298 0.77821 0.91031 0.0
H246 H 0.41802 0.91867 0.69592 0.0
O247 O 0.41381 0.8731 0.62693 0.0
H248 H 0.30072 0.85806 0.77931 0.0
H249 H 0.29562 0.80923 0.56548 0.0
H250 H 0.35416 0.76602 0.68827 0.0
H251 H 0.32815 0.82465 0.74637 0.0
H252 H 0.34878 0.85061 0.61596 0.0
O253 O 0.4768 0.90704 0.82582 0.0
H254 H 0.44448 0.79632 0.84137 0.0
H255 H 0.53077 0.89999 0.84428 0.0
H256 H 0.30091 0.72372 0.63897 0.0
H257 H 0.39142 0.95308 0.7279 0.0
H258 H 0.27127 0.74529 0.57704 0.0
H259 H 0.33236 0.92275 0.77001 0.0
O260 O 0.41869 0.81641 0.66943 0.0
H261 H 0.55612 0.96459 0.68022 0.0
H262 H 0.51465 0.84379 0.74198 0.0
H263 H 0.56818 0.87401 0.68628 0.0
H264 H 0.5893 0.93488 0.65513 0.0
H265 H 0.50242 0.93325 0.73523 0.0
H266 H 0.56014 0.88306 0.91346 0.0
H267 H 0.53123 0.82175 0.94683 0.0
O268 O 0.44968 0.81823 0.74323 0.0
C269 C 0.3877 0.81599 0.81123 0.0
C270 C 0.48588 0.80498 0.896 0.0
C271 C 0.53479 0.86383 0.89778 0.0
N272 N 0.48604 0.84909 0.83858 0.0
C273 C 0.4699 0.81537 0.8569 0.0
C274 C 0.51803 0.87327 0.85864 0.0
C275 C 0.51855 0.82943 0.91649 0.0
C276 C 0.39222 0.90527 0.71387 0.0
N277 N 0.37459 0.86969 0.71897 0.0
C278 C 0.37733 0.9249 0.73204 0.0
C279 C 0.34421 0.90787 0.75572 0.0
C280 C 0.32644 0.87157 0.76097 0.0
C281 C 0.34215 0.8528 0.74235 0.0
C282 C 0.30825 0.79952 0.59245 0.0
C283 C 0.34126 0.77559 0.66169 0.0
C284 C 0.33838 0.82282 0.62104 0.0
N285 N 0.35434 0.81071 0.65538 0.0
C286 C 0.31119 0.75152 0.63375 0.0
C287 C 0.2946 0.76364 0.59896 0.0
C288 C 0.43622 0.80582 0.69654 0.0
C289 C 0.54726 0.93812 0.69374 0.0
C290 C 0.52353 0.8702 0.72833 0.0
C291 C 0.55395 0.88723 0.69697 0.0
C292 C 0.56581 0.92141 0.67957 0.0
N293 N 0.50544 0.88675 0.74205 0.0
C294 C 0.51697 0.9203 0.7252 0.0
Co295 Co 0.60455 0.46537 0.97172 0.0
Co296 Co 0.54762 0.40368 0.87991 0.0
O297 O 0.56388 0.44564 0.92403 0.0
C298 C 0.54459 0.45067 0.04093 0.0
O299 O 0.52999 0.41954 0.01846 0.0
C300 C 0.56108 0.46001 0.80332 0.0
O301 O 0.59109 0.47746 0.82882 0.0
O302 O 0.59546 0.42023 0.85208 0.0
O303 O 0.63305 0.45729 0.91507 0.0
H304 H 0.55079 0.2996 0.8038 0.0
H305 H 0.56884 0.50573 0.94824 0.0
O306 O 0.576 0.47335 0.02844 0.0
H307 H 0.68979 0.57954 0.88299 0.0
H308 H 0.68641 0.55172 0.11016 0.0
H309 H 0.65841 0.44692 1.00112 0.0
H310 H 0.67149 0.52252 0.92635 0.0
H311 H 0.63589 0.52628 0.04748 0.0
O312 O 0.53931 0.42874 0.81791 0.0
H313 H 0.57115 0.35232 0.86096 0.0
H314 H 0.48909 0.3668 0.801 0.0
H315 H 0.70936 0.47164 0.06292 0.0
H316 H 0.58611 0.56269 0.90555 0.0
H317 H 0.72362 0.52442 0.11797 0.0
H318 H 0.64695 0.59994 0.87236 0.0
O319 O 0.58981 0.41888 0.00406 0.0
H320 H 0.4445 0.41689 0.92985 0.0
H321 H 0.49179 0.33664 0.92731 0.0
H322 H 0.43312 0.31653 0.96565 0.0
H323 H 0.40914 0.35681 0.96713 0.0
H324 H 0.50312 0.43601 0.89223 0.0
H325 H 0.468 0.31442 0.74276 0.0
H326 H 0.49885 0.28035 0.74415 0.0
O327 O 0.55617 0.37855 0.94136 0.0
C328 C 0.62624 0.44006 0.87035 0.0
C329 C 0.53705 0.31415 0.80299 0.0
C330 C 0.49061 0.32249 0.76867 0.0
N331 N 0.5311 0.36236 0.83467 0.0
C332 C 0.54838 0.34394 0.8354 0.0
C333 C 0.5027 0.35215 0.80163 0.0
C334 C 0.50793 0.30338 0.76948 0.0
C335 C 0.59546 0.52198 0.9345 0.0
N336 N 0.61917 0.51091 0.94008 0.0
C337 C 0.60505 0.55413 0.91011 0.0
C338 C 0.63917 0.575 0.89142 0.0
C339 C 0.66322 0.56355 0.89735 0.0
C340 C 0.65269 0.53123 0.92186 0.0
C341 C 0.68051 0.52876 0.0863 0.0
C342 C 0.66463 0.47003 0.02469 0.0
C343 C 0.65192 0.51422 0.05085 0.0
N344 N 0.64446 0.48536 0.02039 0.0
C345 C 0.69342 0.48385 0.05973 0.0
C346 C 0.70138 0.51344 0.09065 0.0
C347 C 0.57203 0.38739 0.98731 0.0
C348 C 0.45461 0.39906 0.92925 0.0
C349 C 0.4815 0.3543 0.92775 0.0
C350 C 0.44826 0.34276 0.94946 0.0
C351 C 0.43481 0.36536 0.95025 0.0
N352 N 0.50077 0.3874 0.90728 0.0
C353 C 0.48772 0.40968 0.90776 0.0
H354 H 0.07019 0.57618 0.90898 0.0
H355 H 0.08663 0.48767 0.92979 0.0
H356 H 0.03526 0.45157 0.8727 0.0
H357 H 0.97697 0.52779 0.91367 0.0
H358 H 0.97072 0.55303 0.86167 0.0
H359 H 0.00966 0.57296 0.903 0.0
H360 H 0.04794 0.59035 0.81581 0.0
H361 H 0.0091 0.57064 0.77419 0.0
H362 H 0.04122 0.55714 0.76662 0.0
H363 H 0.9813 0.42398 0.81773 0.0
H364 H 0.92909 0.40698 0.76192 0.0
H365 H 0.94678 0.51293 0.77287 0.0
C366 C 0.06319 0.54932 0.90102 0.0
C367 C 0.08261 0.53487 0.92395 0.0
C368 C 0.07239 0.49951 0.9127 0.0
C369 C 0.04313 0.47867 0.88036 0.0
C370 C 0.02434 0.4935 0.85908 0.0
C371 C 0.03401 0.52804 0.86831 0.0
C372 C 0.00891 0.53715 0.84027 0.0
C373 C 0.99047 0.54839 0.88216 0.0
C374 C 0.02793 0.5655 0.79663 0.0
C375 C 0.98352 0.50219 0.81444 0.0
C376 C 0.99303 0.47747 0.82615 0.0
C377 C 0.97365 0.44311 0.80795 0.0
C378 C 0.94389 0.43371 0.77635 0.0
C379 C 0.93368 0.45857 0.76286 0.0
C380 C 0.95384 0.49331 0.7824 0.0
H381 H 0.45134 0.93503 0.96477 0.0
H382 H 0.53205 0.96691 0.8412 0.0
H383 H 0.56541 0.02481 0.88513 0.0
H384 H 0.45611 0.02041 0.97483 0.0
H385 H 0.44813 0.01654 0.04738 0.0
H386 H 0.43008 0.97786 0.00534 0.0
H387 H 0.45999 0.95251 0.06636 0.0
H388 H 0.47816 0.99113 0.1084 0.0
H389 H 0.50655 0.97768 0.0773 0.0
H390 H 0.59287 0.07688 0.94803 0.0
H391 H 0.60933 0.12189 0.0201 0.0
H392 H 0.50858 0.05847 0.09758 0.0
C393 C 0.47588 0.95435 0.94676 0.0
C394 C 0.48916 0.9465 0.89968 0.0
C395 C 0.52128 0.97245 0.87707 0.0
C396 C 0.54049 0.00538 0.90183 0.0
C397 C 0.52689 0.0122 0.94853 0.0
C398 C 0.49503 0.98766 0.97025 0.0
C399 C 0.48627 1.00175 0.02062 0.0
C400 C 0.45319 0.0043 0.01147 0.0
C401 C 0.48254 0.97944 0.07115 0.0
C402 C 0.51851 0.03769 0.02447 0.0
C403 C 0.54178 0.0431 0.98279 0.0
C404 C 0.57456 0.07327 0.9802 0.0
C405 C 0.58373 0.09861 0.02125 0.0
C406 C 0.55993 0.09384 0.06352 0.0
C407 C 0.52686 0.06313 0.06481 0.0
H408 H 0.50099 0.56741 0.24259 0.0
H409 H 0.39565 0.47827 0.25194 0.0
H410 H 0.41203 0.44582 0.18815 0.0
H411 H 0.51522 0.55781 0.09809 0.0
H412 H 0.56043 0.57021 0.10755 0.0
H413 H 0.54026 0.58736 0.15242 0.0
H414 H 0.558 0.56377 0.23599 0.0
H415 H 0.57805 0.54638 0.19138 0.0
H416 H 0.54483 0.51801 0.23906 0.0
H417 H 0.43946 0.42209 0.12647 0.0
H418 H 0.4762 0.40852 0.06781 0.0
H419 H 0.56462 0.51246 0.09699 0.0
C420 C 0.48127 0.54124 0.23064 0.0
C421 C 0.44693 0.52548 0.25211 0.0
C422 C 0.42204 0.49101 0.23597 0.0
C423 C 0.43109 0.47229 0.19976 0.0
C424 C 0.46516 0.48834 0.17991 0.0
C425 C 0.48989 0.52204 0.19444 0.0
C426 C 0.52487 0.53265 0.16783 0.0
C427 C 0.53583 0.56386 0.12917 0.0
C428 C 0.5531 0.54067 0.21116 0.0
C429 C 0.51586 0.49954 0.13636 0.0
C430 C 0.48123 0.47442 0.14406 0.0
C431 C 0.4666 0.44155 0.11995 0.0
C432 C 0.48781 0.43409 0.08676 0.0
C433 C 0.5234 0.45937 0.07778 0.0
C434 C 0.53756 0.49256 0.10307 0.0
H435 H 0.91706 0.42696 0.36275 0.0
H436 H 0.94744 0.51367 0.47515 0.0
H437 H 1.00106 0.54911 0.42237 0.0
H438 H 0.00566 0.44176 0.34347 0.0
H439 H 0.99918 0.42984 0.27225 0.0
H440 H 0.96269 0.41063 0.31874 0.0
H441 H 0.92929 0.43196 0.25748 0.0
H442 H 0.96572 0.45133 0.21091 0.0
H443 H 0.94936 0.47774 0.24055 0.0
H444 H 0.04893 0.57684 0.35535 0.0
H445 H 0.09232 0.59378 0.28152 0.0
H446 H 0.03497 0.48873 0.21471 0.0
C447 C 0.93513 0.45334 0.37626 0.0
C448 C 0.92799 0.46749 0.42312 0.0
C449 C 0.95236 0.50208 0.4397 0.0
C450 C 0.98289 0.52255 0.40984 0.0
C451 C 0.9891 0.50801 0.36384 0.0
C452 C 0.96631 0.47409 0.34737 0.0
C453 C 0.98001 0.46497 0.29672 0.0
C454 C 0.98732 0.43502 0.30852 0.0
C455 C 0.95458 0.45597 0.24857 0.0
C456 C 0.01369 0.49924 0.28711 0.0
C457 C 0.01808 0.52372 0.32616 0.0
C458 C 0.04609 0.55783 0.32487 0.0
C459 C 0.07048 0.56724 0.28265 0.0
C460 C 0.06707 0.5425 0.24275 0.0
C461 C 0.03839 0.50798 0.24519 0.0
H462 H 0.56249 0.07203 0.46451 0.0
H463 H 0.4828 0.03817 0.33891 0.0
H464 H 0.45007 0.98028 0.38299 0.0
H465 H 0.55957 0.98745 0.47654 0.0
H466 H 0.56689 0.99181 0.54925 0.0
H467 H 0.58469 0.03025 0.50676 0.0
H468 H 0.55337 0.05498 0.56597 0.0
H469 H 0.53544 0.0166 0.60844 0.0
H470 H 0.50676 0.02915 0.57592 0.0
H471 H 0.42284 0.92859 0.44639 0.0
H472 H 0.40637 0.8842 0.51935 0.0
H473 H 0.50613 0.94934 0.59864 0.0
C474 C 0.53834 0.05227 0.44605 0.0
C475 C 0.52512 0.05955 0.3984 0.0
C476 C 0.49351 0.03305 0.37522 0.0
C477 C 0.47467 1.00013 0.40005 0.0
C478 C 0.48817 0.99389 0.44738 0.0
C479 C 0.5196 0.01897 0.46961 0.0
C480 C 0.52828 0.00548 0.5207 0.0
C481 C 0.56185 0.00364 0.51281 0.0
C482 C 0.53111 0.02789 0.5707 0.0
C483 C 0.49644 0.96927 0.5244 0.0
C484 C 0.47346 0.9632 0.48198 0.0
C485 C 0.44096 0.9327 0.47913 0.0
C486 C 0.43177 0.90773 0.52068 0.0
C487 C 0.4553 0.91317 0.56372 0.0
C488 C 0.4881 0.94419 0.56527 0.0
H489 H 0.49804 0.43716 0.75032 0.0
H490 H 0.60537 0.52287 0.7568 0.0
H491 H 0.59225 0.55396 0.68583 0.0
H492 H 0.48618 0.44075 0.60342 0.0
H493 H 0.44165 0.43132 0.60965 0.0
H494 H 0.45956 0.41467 0.65963 0.0
H495 H 0.4433 0.44419 0.73674 0.0
H496 H 0.42541 0.46097 0.68702 0.0
H497 H 0.45893 0.49049 0.73337 0.0
H498 H 0.56794 0.57679 0.61663 0.0
H499 H 0.53335 0.59043 0.55293 0.0
H500 H 0.44117 0.49069 0.59043 0.0
C501 C 0.51883 0.4623 0.73637 0.0
C502 C 0.55278 0.47748 0.75904 0.0
C503 C 0.57917 0.51062 0.74012 0.0
C504 C 0.57202 0.52854 0.6997 0.0
C505 C 0.53833 0.51305 0.67852 0.0
C506 C 0.51211 0.48073 0.69603 0.0
C507 C 0.47789 0.47066 0.66735 0.0
C508 C 0.46561 0.43737 0.63297 0.0
C509 C 0.44973 0.46633 0.70859 0.0
C510 C 0.48906 0.5025 0.63138 0.0
C511 C 0.52408 0.5265 0.63845 0.0
C512 C 0.54049 0.5582 0.61056 0.0
C513 C 0.52055 0.56571 0.57452 0.0
C514 C 0.48452 0.54168 0.56668 0.0
C515 C 0.46867 0.50956 0.5954 0.0
H516 H 0.25888 0.58529 0.1418 0.0
H517 H 0.18013 0.56228 0.26583 0.0
H518 H 0.21613 0.55294 0.33346 0.0
H519 H 0.28564 0.52418 0.18639 0.0
H520 H 0.33136 0.55348 0.17291 0.0
H521 H 0.29868 0.55668 0.13338 0.0
H522 H 0.32636 0.62205 0.15984 0.0
H523 H 0.35917 0.61909 0.19932 0.0
H524 H 0.33233 0.63427 0.23096 0.0
H525 H 0.26001 0.545 0.38714 0.0
H526 H 0.31147 0.54484 0.42587 0.0
H527 H 0.36371 0.57694 0.26878 0.0
C528 C 0.24921 0.57811 0.18315 0.0
C529 C 0.21668 0.57433 0.19863 0.0
C530 C 0.20505 0.56543 0.25325 0.0
C531 C 0.22521 0.55988 0.29184 0.0
C532 C 0.25717 0.56384 0.27538 0.0
C533 C 0.26937 0.57322 0.22257 0.0
C534 C 0.30553 0.57767 0.2164 0.0
C535 C 0.30527 0.55143 0.1748 0.0
C536 C 0.33243 0.61552 0.20071 0.0
C537 C 0.31164 0.5692 0.27392 0.0
C538 C 0.28322 0.56084 0.30706 0.0
C539 C 0.28251 0.55167 0.36167 0.0
C540 C 0.31185 0.55154 0.38326 0.0
C541 C 0.34174 0.56104 0.35053 0.0
C542 C 0.34138 0.56975 0.295 0.0
H543 H 0.68605 0.25463 0.29919 0.0
H544 H 0.62188 0.17765 0.42101 0.0
H545 H 0.66197 0.21466 0.49313 0.0
H546 H 0.77026 0.28139 0.3626 0.0
H547 H 0.78839 0.32699 0.34595 0.0
H548 H 0.75543 0.29391 0.30269 0.0
H549 H 0.71717 0.32275 0.31387 0.0
H550 H 0.74995 0.35587 0.35726 0.0
H551 H 0.70569 0.32984 0.38144 0.0
H552 H 0.70785 0.25914 0.55226 0.0
H553 H 0.75633 0.3101 0.59662 0.0
H554 H 0.79135 0.36079 0.43863 0.0
C555 C 0.68064 0.24548 0.34101 0.0
C556 C 0.65071 0.21308 0.35434 0.0
C557 C 0.64437 0.20231 0.40965 0.0
C558 C 0.66712 0.22313 0.45101 0.0
C559 C 0.69611 0.2549 0.43667 0.0
C560 C 0.70297 0.26626 0.38319 0.0
C561 C 0.73545 0.30228 0.37972 0.0
C562 C 0.76408 0.30105 0.34572 0.0
C563 C 0.72652 0.32928 0.35671 0.0
C564 C 0.74563 0.30921 0.43963 0.0
C565 C 0.72257 0.28132 0.47146 0.0
C566 C 0.72612 0.28119 0.52785 0.0
C567 C 0.75388 0.31042 0.55266 0.0
C568 C 0.77786 0.3397 0.52132 0.0
C569 C 0.77358 0.33892 0.46385 0.0
H570 H 0.42793 0.78387 0.58974 0.0
H571 H 0.45367 0.76262 0.7511 0.0
H572 H 0.4581 0.7131 0.71353 0.0
H573 H 0.37562 0.69571 0.54688 0.0
H574 H 0.39105 0.70367 0.47734 0.0
H575 H 0.39081 0.73809 0.51651 0.0
H576 H 0.45696 0.77824 0.49769 0.0
H577 H 0.45741 0.74392 0.45844 0.0
H578 H 0.48699 0.76333 0.51513 0.0
H579 H 0.45523 0.66336 0.66027 0.0
H580 H 0.4493 0.61885 0.59329 0.0
H581 H 0.42936 0.67437 0.46507 0.0
C582 C 0.43464 0.76889 0.61716 0.0
C583 C 0.44029 0.77704 0.67347 0.0
C584 C 0.44928 0.75695 0.70785 0.0
C585 C 0.45182 0.72874 0.68691 0.0
C586 C 0.44583 0.72127 0.63136 0.0
C587 C 0.43784 0.74098 0.59678 0.0
C588 C 0.43261 0.72735 0.53867 0.0
C589 C 0.39531 0.7155 0.5187 0.0
C590 C 0.46014 0.75485 0.50022 0.0
C591 C 0.43833 0.6965 0.54616 0.0
C592 C 0.44573 0.6934 0.60006 0.0
C593 C 0.44996 0.66579 0.61783 0.0
C594 C 0.44643 0.64061 0.57959 0.0
C595 C 0.43922 0.64344 0.52408 0.0
C596 C 0.43552 0.67198 0.5071 0.0
H597 H 0.68262 0.43103 0.89155 0.0
H598 H 0.63347 0.46077 0.76569 0.0
H599 H 0.67755 0.46576 0.69909 0.0
H600 H 0.77411 0.48542 0.84373 0.0
H601 H 0.78526 0.45221 0.85869 0.0
H602 H 0.75244 0.45495 0.89869 0.0
H603 H 0.70824 0.39015 0.87629 0.0
H604 H 0.7408 0.38728 0.83594 0.0
H605 H 0.69933 0.37641 0.80594 0.0
H606 H 0.72366 0.46412 0.6449 0.0
H607 H 0.76906 0.45466 0.60437 0.0
H608 H 0.78827 0.42325 0.76294 0.0
C609 C 0.68185 0.43939 0.85026 0.0
C610 C 0.65512 0.44609 0.83367 0.0
C611 C 0.65403 0.4559 0.77907 0.0
C612 C 0.67893 0.45883 0.74102 0.0
C613 C 0.70459 0.45144 0.75804 0.0
C614 C 0.70631 0.44182 0.81119 0.0
C615 C 0.73505 0.43266 0.81708 0.0
C616 C 0.7634 0.45782 0.85692 0.0
C617 C 0.71994 0.39435 0.83486 0.0
C618 C 0.74876 0.43826 0.75888 0.0
C619 C 0.73095 0.44946 0.72586 0.0
C620 C 0.738 0.45559 0.67035 0.0
C621 C 0.7639 0.45006 0.64769 0.0
C622 C 0.78245 0.43824 0.68032 0.0
C623 C 0.77476 0.43245 0.73685 0.0
H624 H 0.32974 0.75081 0.79643 0.0
H625 H 0.38757 0.82944 0.91991 0.0
H626 H 0.34561 0.79169 0.98994 0.0
H627 H 0.24302 0.72103 0.8507 0.0
H628 H 0.22726 0.67564 0.83513 0.0
H629 H 0.26108 0.70936 0.79384 0.0
H630 H 0.30102 0.68309 0.81218 0.0
H631 H 0.26736 0.64933 0.85359 0.0
H632 H 0.31037 0.67688 0.88161 0.0
H633 H 0.29751 0.74637 0.04634 0.0
H634 H 0.24796 0.69449 0.0875 0.0
H635 H 0.22207 0.64293 0.9293 0.0
C636 C 0.33338 0.76014 0.83816 0.0
C637 C 0.36193 0.79319 0.85268 0.0
C638 C 0.36608 0.80424 0.90783 0.0
C639 C 0.34227 0.78302 0.9479 0.0
C640 C 0.31459 0.7506 0.93236 0.0
C641 C 0.31011 0.73898 0.87899 0.0
C642 C 0.27881 0.70235 0.87392 0.0
C643 C 0.25089 0.7021 0.83616 0.0
C644 C 0.29007 0.67638 0.85416 0.0
C645 C 0.26641 0.69531 0.9328 0.0
C646 C 0.28732 0.7237 0.96556 0.0
C647 C 0.28101 0.7239 0.02118 0.0
C648 C 0.25268 0.69424 0.04415 0.0
C649 C 0.23107 0.66447 0.01177 0.0
C650 C 0.23817 0.66514 0.95525 0.0
H651 H 0.57779 0.32937 0.96553 0.0
H652 H 0.55826 0.38427 0.09536 0.0
H653 H 0.55425 0.34044 0.16198 0.0
H654 H 0.52258 0.24026 0.01709 0.0
H655 H 0.55316 0.22635 0.99798 0.0
H656 H 0.55116 0.26006 0.9594 0.0
H657 H 0.61737 0.30163 0.97569 0.0
H658 H 0.61953 0.26812 0.01446 0.0
H659 H 0.63401 0.31046 0.04457 0.0
H660 H 0.55317 0.29162 0.21465 0.0
H661 H 0.55935 0.24305 0.25168 0.0
H662 H 0.58403 0.2219 0.08939 0.0
C663 C 0.5721 0.33168 0.00786 0.0
C664 C 0.56792 0.35983 0.02548 0.0
C665 C 0.5614 0.36273 0.08127 0.0
C666 C 0.55897 0.33795 0.1193 0.0
C667 C 0.56367 0.31072 0.10098 0.0
C668 C 0.57042 0.30755 0.04674 0.0
C669 C 0.57704 0.27727 0.03883 0.0
C670 C 0.54933 0.24933 1.00109 0.0
C671 C 0.6142 0.29015 0.01711 0.0
C672 C 0.57306 0.26409 0.09705 0.0
C673 C 0.56484 0.28347 0.13204 0.0
C674 C 0.55965 0.27624 0.18771 0.0
C675 C 0.56317 0.24857 0.20835 0.0
C676 C 0.57236 0.22879 0.17354 0.0
C677 C 0.57725 0.23671 0.11711 0.0
loop_
_geom_bond_atom_site_label_1
_geom_bond_atom_site_label_2
_geom_bond_distance
_geom_bond_site_symmetry_2
_ccdc_geom_bond_type
Co0 O2 2.143 . S
Co0 O8 2.074 . S
Co0 O11 2.093 1_554 S
Co0 O24 2.097 . S
Co0 N41 2.151 . S
Co0 N49 2.214 1_554 S
Co1 O2 2.160 . S
Co1 O7 2.058 . S
Co1 O17 2.057 . S
Co1 O32 2.037 . S
Co1 N36 2.145 . S
Co1 N57 2.257 . S
O2 Co0 2.143 . S
O2 Co1 2.160 . S
C3 O4 1.278 1_556 S
C3 O11 1.224 . S
O4 C3 1.278 1_554 S
C5 O6 1.245 . S
C5 O17 1.232 . S
O6 C5 1.245 . S
O7 Co1 2.058 . S
O7 C33 1.269 . S
O8 Co0 2.074 . S
O8 C33 1.257 . S
H9 C34 0.930 . S
H10 C40 0.930 . S
O11 Co0 2.093 1_556 S
O11 C3 1.224 . S
H12 C44 0.929 . S
H13 C46 0.930 . S
H14 C47 0.930 . S
H15 C45 0.929 . S
H16 C48 0.928 . S
O17 Co1 2.057 . S
O17 C5 1.232 . S
H18 C37 0.929 . S
H19 C38 0.929 . S
H20 C50 0.931 . S
H21 C42 0.929 . S
H22 C51 0.930 . S
H23 C43 0.931 . S
O24 Co0 2.097 . S
O24 C52 1.214 . S
H25 C53 0.929 . S
H26 C54 0.929 . S
H27 C55 0.930 . S
H28 C56 0.929 . S
H29 C58 0.930 . S
H30 C35 0.930 . S
H31 C39 0.930 . S
O32 Co1 2.037 . S
O32 C52 1.234 . S
C33 O7 1.269 . S
C33 O8 1.257 . S
C34 H9 0.930 . S
C34 C37 1.388 . S
C34 C39 1.418 . S
C35 H30 0.930 . S
C35 C38 1.404 . S
C35 C39 1.353 . S
N36 Co1 2.145 . S
N36 C37 1.397 . S
N36 C38 1.334 . S
C37 H18 0.929 . S
C37 C34 1.388 . S
C37 N36 1.397 . S
C38 H19 0.929 . S
C38 C35 1.404 . S
C38 N36 1.334 . S
C39 H31 0.930 . S
C39 C34 1.418 . S
C39 C35 1.353 . S
C40 H10 0.930 . S
C40 N41 1.330 . S
C40 C42 1.446 . S
N41 Co0 2.151 . S
N41 C40 1.330 . S
N41 C45 1.418 . S
C42 H21 0.929 . S
C42 C40 1.446 . S
C42 C43 1.332 . S
C43 H23 0.931 . S
C43 C42 1.332 . S
C43 C44 1.267 . S
C44 H12 0.929 . S
C44 C43 1.267 . S
C44 C45 1.251 . S
C45 H15 0.929 . S
C45 N41 1.418 . S
C45 C44 1.251 . S
C46 H13 0.930 . S
C46 C48 1.406 . S
C46 C51 1.261 . S
C47 H14 0.930 . S
C47 N49 1.325 . S
C47 C50 1.357 . S
C48 H16 0.928 . S
C48 C46 1.406 . S
C48 N49 1.261 . S
N49 Co0 2.214 1_556 S
N49 C47 1.325 . S
N49 C48 1.261 . S
C50 H20 0.931 . S
C50 C47 1.357 . S
C50 C51 1.312 . S
C51 H22 0.930 . S
C51 C46 1.261 . S
C51 C50 1.312 . S
C52 O24 1.214 . S
C52 O32 1.234 . S
C53 H25 0.929 . S
C53 C56 1.391 . S
C53 C58 1.391 . S
C54 H26 0.929 . S
C54 C55 1.390 . S
C54 N57 1.391 . S
C55 H27 0.930 . S
C55 C54 1.390 . S
C55 C56 1.392 . S
C56 H28 0.929 . S
C56 C53 1.391 . S
C56 C55 1.392 . S
N57 Co1 2.257 . S
N57 C54 1.391 . S
N57 C58 1.388 . S
C58 H29 0.930 . S
C58 C53 1.391 . S
C58 N57 1.388 . S
Co59 O61 2.143 . S
Co59 O67 2.074 . S
Co59 O70 2.093 . S
Co59 O83 2.097 . S
Co59 N100 2.151 . S
Co59 N108 2.214 . S
Co60 O61 2.160 . S
Co60 O66 2.058 . S
Co60 O76 2.057 . S
Co60 O91 2.037 . S
Co60 N95 2.145 . S
Co60 N116 2.257 . S
O61 Co59 2.143 . S
O61 Co60 2.160 . S
C62 O63 1.278 . S
C62 O70 1.224 . S
O63 C62 1.278 . S
C64 O65 1.245 . S
C64 O76 1.232 . S
O65 C64 1.245 . S
O66 Co60 2.058 . S
O66 C92 1.269 . S
O67 Co59 2.074 . S
O67 C92 1.257 . S
H68 C93 0.930 . S
H69 C99 0.930 . S
O70 Co59 2.093 . S
O70 C62 1.224 . S
H71 C103 0.929 . S
H72 C105 0.930 . S
H73 C106 0.930 . S
H74 C104 0.929 . S
H75 C107 0.928 . S
O76 Co60 2.057 . S
O76 C64 1.232 . S
H77 C96 0.929 . S
H78 C97 0.929 . S
H79 C109 0.931 . S
H80 C101 0.929 . S
H81 C110 0.930 . S
H82 C102 0.931 . S
O83 Co59 2.097 . S
O83 C111 1.214 . S
H84 C112 0.929 . S
H85 C113 0.929 . S
H86 C114 0.930 . S
H87 C115 0.929 . S
H88 C117 0.930 . S
H89 C94 0.930 . S
H90 C98 0.930 . S
O91 Co60 2.037 . S
O91 C111 1.234 . S
C92 O66 1.269 . S
C92 O67 1.257 . S
C93 H68 0.930 . S
C93 C96 1.388 . S
C93 C98 1.418 . S
C94 H89 0.930 . S
C94 C97 1.404 . S
C94 C98 1.353 . S
N95 Co60 2.145 . S
N95 C96 1.397 . S
N95 C97 1.334 . S
C96 H77 0.929 . S
C96 C93 1.388 . S
C96 N95 1.397 . S
C97 H78 0.929 . S
C97 C94 1.404 . S
C97 N95 1.334 . S
C98 H90 0.930 . S
C98 C93 1.418 . S
C98 C94 1.353 . S
C99 H69 0.930 . S
C99 N100 1.330 . S
C99 C101 1.446 . S
N100 Co59 2.151 . S
N100 C99 1.330 . S
N100 C104 1.418 . S
C101 H80 0.929 . S
C101 C99 1.446 . S
C101 C102 1.332 . S
C102 H82 0.931 . S
C102 C101 1.332 . S
C102 C103 1.267 . S
C103 H71 0.929 . S
C103 C102 1.267 . S
C103 C104 1.251 . S
C104 H74 0.929 . S
C104 N100 1.418 . S
C104 C103 1.251 . S
C105 H72 0.930 . S
C105 C107 1.406 . S
C105 C110 1.261 . S
C106 H73 0.930 . S
C106 N108 1.325 . S
C106 C109 1.357 . S
C107 H75 0.928 . S
C107 C105 1.406 . S
C107 N108 1.261 . S
N108 Co59 2.214 . S
N108 C106 1.325 . S
N108 C107 1.261 . S
C109 H79 0.931 . S
C109 C106 1.357 . S
C109 C110 1.312 . S
C110 H81 0.930 . S
C110 C105 1.261 . S
C110 C109 1.312 . S
C111 O83 1.214 . S
C111 O91 1.234 . S
C112 H84 0.929 . S
C112 C115 1.391 . S
C112 C117 1.391 . S
C113 H85 0.929 . S
C113 C114 1.390 . S
C113 N116 1.391 . S
C114 H86 0.930 . S
C114 C113 1.390 . S
C114 C115 1.392 . S
C115 H87 0.929 . S
C115 C112 1.391 . S
C115 C114 1.392 . S
N116 Co60 2.257 . S
N116 C113 1.391 . S
N116 C117 1.388 . S
C117 H88 0.930 . S
C117 C112 1.391 . S
C117 N116 1.388 . S
Co118 O120 2.143 . S
Co118 O126 2.074 . S
Co118 O129 2.093 . S
Co118 O142 2.097 . S
Co118 N159 2.151 . S
Co118 N167 2.214 . S
Co119 O120 2.160 . S
Co119 O125 2.058 . S
Co119 O135 2.057 . S
Co119 O150 2.037 . S
Co119 N154 2.145 . S
Co119 N175 2.257 . S
O120 Co118 2.143 . S
O120 Co119 2.160 . S
C121 O122 1.278 . S
C121 O129 1.224 . S
O122 C121 1.278 . S
C123 O124 1.245 . S
C123 O135 1.232 . S
O124 C123 1.245 . S
O125 Co119 2.058 . S
O125 C151 1.269 . S
O126 Co118 2.074 . S
O126 C151 1.257 . S
H127 C152 0.930 . S
H128 C158 0.930 . S
O129 Co118 2.093 . S
O129 C121 1.224 . S
H130 C162 0.929 . S
H131 C164 0.930 . S
H132 C165 0.930 . S
H133 C163 0.929 . S
H134 C166 0.928 . S
O135 Co119 2.057 . S
O135 C123 1.232 . S
H136 C155 0.929 . S
H137 C156 0.929 . S
H138 C168 0.931 . S
H139 C160 0.929 . S
H140 C169 0.930 . S
H141 C161 0.931 . S
O142 Co118 2.097 . S
O142 C170 1.214 . S
H143 C171 0.929 . S
H144 C172 0.929 . S
H145 C173 0.930 . S
H146 C174 0.929 . S
H147 C176 0.930 . S
H148 C153 0.930 . S
H149 C157 0.930 . S
O150 Co119 2.037 . S
O150 C170 1.234 . S
C151 O125 1.269 . S
C151 O126 1.257 . S
C152 H127 0.930 . S
C152 C155 1.388 . S
C152 C157 1.418 . S
C153 H148 0.930 . S
C153 C156 1.404 . S
C153 C157 1.353 . S
N154 Co119 2.145 . S
N154 C155 1.397 . S
N154 C156 1.334 . S
C155 H136 0.929 . S
C155 C152 1.388 . S
C155 N154 1.397 . S
C156 H137 0.929 . S
C156 C153 1.404 . S
C156 N154 1.334 . S
C157 H149 0.930 . S
C157 C152 1.418 . S
C157 C153 1.353 . S
C158 H128 0.930 . S
C158 N159 1.330 . S
C158 C160 1.446 . S
N159 Co118 2.151 . S
N159 C158 1.330 . S
N159 C163 1.418 . S
C160 H139 0.929 . S
C160 C158 1.446 . S
C160 C161 1.332 . S
C161 H141 0.931 . S
C161 C160 1.332 . S
C161 C162 1.267 . S
C162 H130 0.929 . S
C162 C161 1.267 . S
C162 C163 1.251 . S
C163 H133 0.929 . S
C163 N159 1.418 . S
C163 C162 1.251 . S
C164 H131 0.930 . S
C164 C166 1.406 . S
C164 C169 1.261 . S
C165 H132 0.930 . S
C165 N167 1.325 . S
C165 C168 1.357 . S
C166 H134 0.928 . S
C166 C164 1.406 . S
C166 N167 1.261 . S
N167 Co118 2.214 . S
N167 C165 1.325 . S
N167 C166 1.261 . S
C168 H138 0.931 . S
C168 C165 1.357 . S
C168 C169 1.312 . S
C169 H140 0.930 . S
C169 C164 1.261 . S
C169 C168 1.312 . S
C170 O142 1.214 . S
C170 O150 1.234 . S
C171 H143 0.929 . S
C171 C174 1.391 . S
C171 C176 1.391 . S
C172 H144 0.929 . S
C172 C173 1.390 . S
C172 N175 1.391 . S
C173 H145 0.930 . S
C173 C172 1.390 . S
C173 C174 1.392 . S
C174 H146 0.929 . S
C174 C171 1.391 . S
C174 C173 1.392 . S
N175 Co119 2.257 . S
N175 C172 1.391 . S
N175 C176 1.388 . S
C176 H147 0.930 . S
C176 C171 1.391 . S
C176 N175 1.388 . S
Co177 O179 2.143 . S
Co177 O185 2.074 . S
Co177 O188 2.093 . S
Co177 O201 2.097 . S
Co177 N218 2.151 . S
Co177 N226 2.214 . S
Co178 O179 2.160 . S
Co178 O184 2.058 . S
Co178 O194 2.057 . S
Co178 O209 2.037 . S
Co178 N213 2.145 . S
Co178 N234 2.257 . S
O179 Co177 2.143 . S
O179 Co178 2.160 . S
C180 O181 1.278 . S
C180 O188 1.224 . S
O181 C180 1.278 . S
C182 O183 1.245 . S
C182 O194 1.232 . S
O183 C182 1.245 . S
O184 Co178 2.058 . S
O184 C210 1.269 . S
O185 Co177 2.074 . S
O185 C210 1.257 . S
H186 C211 0.930 . S
H187 C217 0.930 . S
O188 Co177 2.093 . S
O188 C180 1.224 . S
H189 C221 0.929 . S
H190 C223 0.930 . S
H191 C224 0.930 . S
H192 C222 0.929 . S
H193 C225 0.928 . S
O194 Co178 2.057 . S
O194 C182 1.232 . S
H195 C214 0.929 . S
H196 C215 0.929 . S
H197 C227 0.931 . S
H198 C219 0.929 . S
H199 C228 0.930 . S
H200 C220 0.931 . S
O201 Co177 2.097 . S
O201 C229 1.214 . S
H202 C230 0.929 . S
H203 C231 0.929 . S
H204 C232 0.930 . S
H205 C233 0.929 . S
H206 C235 0.930 . S
H207 C212 0.930 . S
H208 C216 0.930 . S
O209 Co178 2.037 . S
O209 C229 1.234 . S
C210 O184 1.269 . S
C210 O185 1.257 . S
C211 H186 0.930 . S
C211 C214 1.388 . S
C211 C216 1.418 . S
C212 H207 0.930 . S
C212 C215 1.404 . S
C212 C216 1.353 . S
N213 Co178 2.145 . S
N213 C214 1.397 . S
N213 C215 1.334 . S
C214 H195 0.929 . S
C214 C211 1.388 . S
C214 N213 1.397 . S
C215 H196 0.929 . S
C215 C212 1.404 . S
C215 N213 1.334 . S
C216 H208 0.930 . S
C216 C211 1.418 . S
C216 C212 1.353 . S
C217 H187 0.930 . S
C217 N218 1.330 . S
C217 C219 1.446 . S
N218 Co177 2.151 . S
N218 C217 1.330 . S
N218 C222 1.418 . S
C219 H198 0.929 . S
C219 C217 1.446 . S
C219 C220 1.332 . S
C220 H200 0.931 . S
C220 C219 1.332 . S
C220 C221 1.267 . S
C221 H189 0.929 . S
C221 C220 1.267 . S
C221 C222 1.251 . S
C222 H192 0.929 . S
C222 N218 1.418 . S
C222 C221 1.251 . S
C223 H190 0.930 . S
C223 C225 1.406 . S
C223 C228 1.261 . S
C224 H191 0.930 . S
C224 N226 1.325 . S
C224 C227 1.357 . S
C225 H193 0.928 . S
C225 C223 1.406 . S
C225 N226 1.261 . S
N226 Co177 2.214 . S
N226 C224 1.325 . S
N226 C225 1.261 . S
C227 H197 0.931 . S
C227 C224 1.357 . S
C227 C228 1.312 . S
C228 H199 0.930 . S
C228 C223 1.261 . S
C228 C227 1.312 . S
C229 O201 1.214 . S
C229 O209 1.234 . S
C230 H202 0.929 . S
C230 C233 1.391 . S
C230 C235 1.391 . S
C231 H203 0.929 . S
C231 C232 1.390 . S
C231 N234 1.391 . S
C232 H204 0.930 . S
C232 C231 1.390 . S
C232 C233 1.392 . S
C233 H205 0.929 . S
C233 C230 1.391 . S
C233 C232 1.392 . S
N234 Co178 2.257 . S
N234 C231 1.391 . S
N234 C235 1.388 . S
C235 H206 0.930 . S
C235 C230 1.391 . S
C235 N234 1.388 . S
Co236 O238 2.143 . S
Co236 O244 2.074 . S
Co236 O247 2.093 . S
Co236 O260 2.097 . S
Co236 N277 2.151 . S
Co236 N285 2.214 . S
Co237 O238 2.160 . S
Co237 O243 2.058 . S
Co237 O253 2.057 . S
Co237 O268 2.037 . S
Co237 N272 2.145 . S
Co237 N293 2.257 . S
O238 Co236 2.143 . S
O238 Co237 2.160 . S
C239 O240 1.278 . S
C239 O247 1.224 . S
O240 C239 1.278 . S
C241 O242 1.245 . S
C241 O253 1.232 . S
O242 C241 1.245 . S
O243 Co237 2.058 . S
O243 C269 1.269 . S
O244 Co236 2.074 . S
O244 C269 1.257 . S
H245 C270 0.930 . S
H246 C276 0.930 . S
O247 Co236 2.093 . S
O247 C239 1.224 . S
H248 C280 0.929 . S
H249 C282 0.930 . S
H250 C283 0.930 . S
H251 C281 0.929 . S
H252 C284 0.928 . S
O253 Co237 2.057 . S
O253 C241 1.232 . S
H254 C273 0.929 . S
H255 C274 0.929 . S
H256 C286 0.931 . S
H257 C278 0.929 . S
H258 C287 0.930 . S
H259 C279 0.931 . S
O260 Co236 2.097 . S
O260 C288 1.214 . S
H261 C289 0.929 . S
H262 C290 0.929 . S
H263 C291 0.930 . S
H264 C292 0.929 . S
H265 C294 0.930 . S
H266 C271 0.930 . S
H267 C275 0.930 . S
O268 Co237 2.037 . S
O268 C288 1.234 . S
C269 O243 1.269 . S
C269 O244 1.257 . S
C270 H245 0.930 . S
C270 C273 1.388 . S
C270 C275 1.418 . S
C271 H266 0.930 . S
C271 C274 1.404 . S
C271 C275 1.353 . S
N272 Co237 2.145 . S
N272 C273 1.397 . S
N272 C274 1.334 . S
C273 H254 0.929 . S
C273 C270 1.388 . S
C273 N272 1.397 . S
C274 H255 0.929 . S
C274 C271 1.404 . S
C274 N272 1.334 . S
C275 H267 0.930 . S
C275 C270 1.418 . S
C275 C271 1.353 . S
C276 H246 0.930 . S
C276 N277 1.330 . S
C276 C278 1.446 . S
N277 Co236 2.151 . S
N277 C276 1.330 . S
N277 C281 1.418 . S
C278 H257 0.929 . S
C278 C276 1.446 . S
C278 C279 1.332 . S
C279 H259 0.931 . S
C279 C278 1.332 . S
C279 C280 1.267 . S
C280 H248 0.929 . S
C280 C279 1.267 . S
C280 C281 1.251 . S
C281 H251 0.929 . S
C281 N277 1.418 . S
C281 C280 1.251 . S
C282 H249 0.930 . S
C282 C284 1.406 . S
C282 C287 1.261 . S
C283 H250 0.930 . S
C283 N285 1.325 . S
C283 C286 1.357 . S
C284 H252 0.928 . S
C284 C282 1.406 . S
C284 N285 1.261 . S
N285 Co236 2.214 . S
N285 C283 1.325 . S
N285 C284 1.261 . S
C286 H256 0.931 . S
C286 C283 1.357 . S
C286 C287 1.312 . S
C287 H258 0.930 . S
C287 C282 1.261 . S
C287 C286 1.312 . S
C288 O260 1.214 . S
C288 O268 1.234 . S
C289 H261 0.929 . S
C289 C292 1.391 . S
C289 C294 1.391 . S
C290 H262 0.929 . S
C290 C291 1.390 . S
C290 N293 1.391 . S
C291 H263 0.930 . S
C291 C290 1.390 . S
C291 C292 1.392 . S
C292 H264 0.929 . S
C292 C289 1.391 . S
C292 C291 1.392 . S
N293 Co237 2.257 . S
N293 C290 1.391 . S
N293 C294 1.388 . S
C294 H265 0.930 . S
C294 C289 1.391 . S
C294 N293 1.388 . S
Co295 O297 2.143 . S
Co295 O303 2.074 . S
Co295 O306 2.093 1_556 S
Co295 O319 2.097 . S
Co295 N336 2.151 . S
Co295 N344 2.214 1_556 S
Co296 O297 2.160 . S
Co296 O302 2.058 . S
Co296 O312 2.057 . S
Co296 O327 2.037 . S
Co296 N331 2.145 . S
Co296 N352 2.257 . S
O297 Co295 2.143 . S
O297 Co296 2.160 . S
C298 O299 1.278 1_554 S
C298 O306 1.224 . S
O299 C298 1.278 1_556 S
C300 O301 1.245 . S
C300 O312 1.232 . S
O301 C300 1.245 . S
O302 Co296 2.058 . S
O302 C328 1.269 . S
O303 Co295 2.074 . S
O303 C328 1.257 . S
H304 C329 0.930 . S
H305 C335 0.930 . S
O306 Co295 2.093 1_554 S
O306 C298 1.224 . S
H307 C339 0.929 . S
H308 C341 0.930 . S
H309 C342 0.930 . S
H310 C340 0.929 . S
H311 C343 0.928 . S
O312 Co296 2.057 . S
O312 C300 1.232 . S
H313 C332 0.929 . S
H314 C333 0.929 . S
H315 C345 0.931 . S
H316 C337 0.929 . S
H317 C346 0.930 . S
H318 C338 0.931 . S
O319 Co295 2.097 . S
O319 C347 1.214 . S
H320 C348 0.929 . S
H321 C349 0.929 . S
H322 C350 0.930 . S
H323 C351 0.929 . S
H324 C353 0.930 . S
H325 C330 0.930 . S
H326 C334 0.930 . S
O327 Co296 2.037 . S
O327 C347 1.234 . S
C328 O302 1.269 . S
C328 O303 1.257 . S
C329 H304 0.930 . S
C329 C332 1.388 . S
C329 C334 1.418 . S
C330 H325 0.930 . S
C330 C333 1.404 . S
C330 C334 1.353 . S
N331 Co296 2.145 . S
N331 C332 1.397 . S
N331 C333 1.334 . S
C332 H313 0.929 . S
C332 C329 1.388 . S
C332 N331 1.397 . S
C333 H314 0.929 . S
C333 C330 1.404 . S
C333 N331 1.334 . S
C334 H326 0.930 . S
C334 C329 1.418 . S
C334 C330 1.353 . S
C335 H305 0.930 . S
C335 N336 1.330 . S
C335 C337 1.446 . S
N336 Co295 2.151 . S
N336 C335 1.330 . S
N336 C340 1.418 . S
C337 H316 0.929 . S
C337 C335 1.446 . S
C337 C338 1.332 . S
C338 H318 0.931 . S
C338 C337 1.332 . S
C338 C339 1.267 . S
C339 H307 0.929 . S
C339 C338 1.267 . S
C339 C340 1.251 . S
C340 H310 0.929 . S
C340 N336 1.418 . S
C340 C339 1.251 . S
C341 H308 0.930 . S
C341 C343 1.406 . S
C341 C346 1.261 . S
C342 H309 0.930 . S
C342 N344 1.325 . S
C342 C345 1.357 . S
C343 H311 0.928 . S
C343 C341 1.406 . S
C343 N344 1.261 . S
N344 Co295 2.214 1_554 S
N344 C342 1.325 . S
N344 C343 1.261 . S
C345 H315 0.931 . S
C345 C342 1.357 . S
C345 C346 1.312 . S
C346 H317 0.930 . S
C346 C341 1.261 . S
C346 C345 1.312 . S
C347 O319 1.214 . S
C347 O327 1.234 . S
C348 H320 0.929 . S
C348 C351 1.391 . S
C348 C353 1.391 . S
C349 H321 0.929 . S
C349 C350 1.390 . S
C349 N352 1.391 . S
C350 H322 0.930 . S
C350 C349 1.390 . S
C350 C351 1.392 . S
C351 H323 0.929 . S
C351 C348 1.391 . S
C351 C350 1.392 . S
N352 Co296 2.257 . S
N352 C349 1.391 . S
N352 C353 1.388 . S
C353 H324 0.930 . S
C353 C348 1.391 . S
C353 N352 1.388 . S
H354 C366 0.930 . S
H355 C368 0.930 . S
H356 C369 0.931 . S
H357 C373 0.959 . S
H358 C373 0.959 . S
H359 C373 0.961 . S
H360 C374 0.960 . S
H361 C374 0.961 . S
H362 C374 0.959 . S
H363 C377 0.929 . S
H364 C378 0.931 . S
H365 C380 0.930 . S
C366 H354 0.930 . S
C366 C367 1.399 . S
C366 C371 1.399 . S
C367 C366 1.399 . S
C367 C368 1.376 . S
C368 H355 0.930 . S
C368 C367 1.376 . S
C368 C369 1.387 1_455 S
C369 H356 0.931 . S
C369 C368 1.387 1_655 S
C369 C370 1.390 1_655 S
C370 C369 1.390 1_455 S
C370 C371 1.394 . S
C370 C376 1.465 1_455 S
C371 C366 1.399 . S
C371 C370 1.394 . S
C371 C372 1.516 . S
C372 C371 1.516 . S
C372 C373 1.502 . S
C372 C374 1.561 . S
C372 C375 1.526 1_455 S
C373 H357 0.959 . S
C373 H358 0.959 . S
C373 H359 0.961 . S
C373 C372 1.502 . S
C374 H360 0.960 . S
C374 H361 0.961 . S
C374 H362 0.959 . S
C374 C372 1.561 . S
C375 C372 1.526 1_655 S
C375 C376 1.396 . S
C375 C380 1.390 . S
C376 C370 1.465 1_655 S
C376 C375 1.396 . S
C376 C377 1.399 . S
C377 H363 0.929 . S
C377 C376 1.399 . S
C377 C378 1.385 . S
C378 H364 0.931 . S
C378 C377 1.385 . S
C378 C379 1.389 . S
C379 C378 1.389 . S
C379 C380 1.387 . S
C380 H365 0.930 . S
C380 C375 1.390 . S
C380 C379 1.387 . S
H381 C393 0.930 . S
H382 C395 0.930 . S
H383 C396 0.930 . S
H384 C400 0.959 . S
H385 C400 0.959 . S
H386 C400 0.961 . S
H387 C401 0.960 . S
H388 C401 0.961 . S
H389 C401 0.959 . S
H390 C404 0.929 1_556 S
H391 C405 0.931 . S
H392 C407 0.930 . S
C393 H381 0.930 . S
C393 C394 1.399 . S
C393 C398 1.399 . S
C394 C393 1.399 . S
C394 C395 1.376 . S
C395 H382 0.930 . S
C395 C394 1.376 . S
C395 C396 1.388 1_565 S
C396 H383 0.930 . S
C396 C395 1.388 1_545 S
C396 C397 1.390 1_545 S
C397 C396 1.390 1_565 S
C397 C398 1.394 . S
C397 C403 1.465 1_566 S
C398 C393 1.399 . S
C398 C397 1.394 . S
C398 C399 1.516 1_556 S
C399 C398 1.516 1_554 S
C399 C400 1.502 . S
C399 C401 1.561 . S
C399 C402 1.526 1_565 S
C400 H384 0.959 . S
C400 H385 0.959 . S
C400 H386 0.961 . S
C400 C399 1.502 . S
C401 H387 0.960 . S
C401 H388 0.961 . S
C401 H389 0.959 . S
C401 C399 1.561 . S
C402 C399 1.526 1_545 S
C402 C403 1.396 . S
C402 C407 1.390 . S
C403 C397 1.465 1_544 S
C403 C402 1.396 . S
C403 C404 1.399 . S
C404 H390 0.929 1_554 S
C404 C403 1.399 . S
C404 C405 1.385 . S
C405 H391 0.931 . S
C405 C404 1.385 . S
C405 C406 1.389 . S
C406 C405 1.389 . S
C406 C407 1.387 . S
C407 H392 0.930 . S
C407 C402 1.390 . S
C407 C406 1.387 . S
H408 C420 0.930 . S
H409 C422 0.930 . S
H410 C423 0.930 . S
H411 C427 0.959 . S
H412 C427 0.959 . S
H413 C427 0.961 . S
H414 C428 0.960 . S
H415 C428 0.961 . S
H416 C428 0.959 . S
H417 C431 0.929 . S
H418 C432 0.931 . S
H419 C434 0.930 . S
C420 H408 0.930 . S
C420 C421 1.399 . S
C420 C425 1.399 . S
C421 C420 1.399 . S
C421 C422 1.376 . S
C422 H409 0.930 . S
C422 C421 1.376 . S
C422 C423 1.388 . S
C423 H410 0.930 . S
C423 C422 1.388 . S
C423 C424 1.390 . S
C424 C423 1.390 . S
C424 C425 1.394 . S
C424 C430 1.465 . S
C425 C420 1.399 . S
C425 C424 1.394 . S
C425 C426 1.516 . S
C426 C425 1.516 . S
C426 C427 1.502 . S
C426 C428 1.561 . S
C426 C429 1.526 . S
C427 H411 0.959 . S
C427 H412 0.959 . S
C427 H413 0.961 . S
C427 C426 1.502 . S
C428 H414 0.960 . S
C428 H415 0.961 . S
C428 H416 0.959 . S
C428 C426 1.561 . S
C429 C426 1.526 . S
C429 C430 1.396 . S
C429 C434 1.390 . S
C430 C424 1.465 . S
C430 C429 1.396 . S
C430 C431 1.399 . S
C431 H417 0.929 . S
C431 C430 1.399 . S
C431 C432 1.385 . S
C432 H418 0.931 . S
C432 C431 1.385 . S
C432 C433 1.389 . S
C433 C432 1.389 . S
C433 C434 1.387 . S
C434 H419 0.930 . S
C434 C429 1.390 . S
C434 C433 1.387 . S
H435 C447 0.930 . S
H436 C449 0.930 . S
H437 C450 0.930 . S
H438 C454 0.959 . S
H439 C454 0.959 . S
H440 C454 0.961 . S
H441 C455 0.960 . S
H442 C455 0.961 . S
H443 C455 0.959 . S
H444 C458 0.929 . S
H445 C459 0.931 . S
H446 C461 0.930 . S
C447 H435 0.930 . S
C447 C448 1.399 . S
C447 C452 1.399 . S
C448 C447 1.399 . S
C448 C449 1.376 . S
C449 H436 0.930 . S
C449 C448 1.376 . S
C449 C450 1.388 1_655 S
C450 H437 0.930 . S
C450 C449 1.388 1_455 S
C450 C451 1.389 1_455 S
C451 C450 1.389 1_655 S
C451 C452 1.400 . S
C451 C457 1.460 1_655 S
C452 C447 1.399 . S
C452 C451 1.400 . S
C452 C453 1.516 . S
C453 C452 1.516 . S
C453 C454 1.502 . S
C453 C455 1.561 . S
C453 C456 1.526 1_655 S
C454 H438 0.959 . S
C454 H439 0.959 . S
C454 H440 0.961 . S
C454 C453 1.502 . S
C455 H441 0.960 . S
C455 H442 0.961 . S
C455 H443 0.959 . S
C455 C453 1.561 . S
C456 C453 1.526 1_455 S
C456 C457 1.396 . S
C456 C461 1.390 . S
C457 C451 1.460 1_455 S
C457 C456 1.396 . S
C457 C458 1.399 . S
C458 H444 0.929 . S
C458 C457 1.399 . S
C458 C459 1.385 . S
C459 H445 0.931 . S
C459 C458 1.385 . S
C459 C460 1.389 . S
C460 C459 1.389 . S
C460 C461 1.387 . S
C461 H446 0.930 . S
C461 C456 1.390 . S
C461 C460 1.387 . S
H462 C474 0.930 . S
H463 C476 0.930 . S
H464 C477 0.930 . S
H465 C481 0.959 . S
H466 C481 0.959 . S
H467 C481 0.961 . S
H468 C482 0.960 . S
H469 C482 0.961 . S
H470 C482 0.959 . S
H471 C485 0.929 . S
H472 C486 0.931 . S
H473 C488 0.930 . S
C474 H462 0.930 . S
C474 C475 1.399 . S
C474 C479 1.399 . S
C475 C474 1.399 . S
C475 C476 1.376 . S
C476 H463 0.930 . S
C476 C475 1.376 . S
C476 C477 1.388 1_545 S
C477 H464 0.930 . S
C477 C476 1.388 1_565 S
C477 C478 1.390 1_565 S
C478 C477 1.390 1_545 S
C478 C479 1.394 . S
C478 C484 1.465 1_545 S
C479 C474 1.399 . S
C479 C478 1.394 . S
C479 C480 1.516 . S
C480 C479 1.516 . S
C480 C481 1.502 . S
C480 C482 1.561 . S
C480 C483 1.526 1_545 S
C481 H465 0.959 . S
C481 H466 0.959 . S
C481 H467 0.961 . S
C481 C480 1.502 . S
C482 H468 0.960 . S
C482 H469 0.961 . S
C482 H470 0.959 . S
C482 C480 1.561 . S
C483 C480 1.526 1_565 S
C483 C484 1.396 . S
C483 C488 1.390 . S
C484 C478 1.465 1_565 S
C484 C483 1.396 . S
C484 C485 1.399 . S
C485 H471 0.929 . S
C485 C484 1.399 . S
C485 C486 1.385 . S
C486 H472 0.931 . S
C486 C485 1.385 . S
C486 C487 1.389 . S
C487 C486 1.389 . S
C487 C488 1.387 . S
C488 H473 0.930 . S
C488 C483 1.390 . S
C488 C487 1.387 . S
H489 C501 0.930 . S
H490 C503 0.930 . S
H491 C504 0.930 . S
H492 C508 0.959 . S
H493 C508 0.959 . S
H494 C508 0.961 . S
H495 C509 0.960 . S
H496 C509 0.961 . S
H497 C509 0.959 . S
H498 C512 0.929 . S
H499 C513 0.931 . S
H500 C515 0.930 . S
C501 H489 0.930 . S
C501 C502 1.399 . S
C501 C506 1.399 . S
C502 C501 1.399 . S
C502 C503 1.376 . S
C503 H490 0.930 . S
C503 C502 1.376 . S
C503 C504 1.388 . S
C504 H491 0.930 . S
C504 C503 1.388 . S
C504 C505 1.390 . S
C505 C504 1.390 . S
C505 C506 1.394 . S
C505 C511 1.465 . S
C506 C501 1.399 . S
C506 C505 1.394 . S
C506 C507 1.516 . S
C507 C506 1.516 . S
C507 C508 1.502 . S
C507 C509 1.561 . S
C507 C510 1.526 . S
C508 H492 0.959 . S
C508 H493 0.959 . S
C508 H494 0.961 . S
C508 C507 1.502 . S
C509 H495 0.960 . S
C509 H496 0.961 . S
C509 H497 0.959 . S
C509 C507 1.561 . S
C510 C507 1.526 . S
C510 C511 1.396 . S
C510 C515 1.390 . S
C511 C505 1.465 . S
C511 C510 1.396 . S
C511 C512 1.399 . S
C512 H498 0.929 . S
C512 C511 1.399 . S
C512 C513 1.385 . S
C513 H499 0.931 . S
C513 C512 1.385 . S
C513 C514 1.389 . S
C514 C513 1.389 . S
C514 C515 1.387 . S
C515 H500 0.930 . S
C515 C510 1.390 . S
C515 C514 1.387 . S
H516 C528 0.930 . S
H517 C530 0.930 . S
H518 C531 0.930 . S
H519 C535 0.959 . S
H520 C535 0.959 . S
H521 C535 0.961 . S
H522 C536 0.960 . S
H523 C536 0.961 . S
H524 C536 0.959 . S
H525 C539 0.929 . S
H526 C540 0.931 . S
H527 C542 0.930 . S
C528 H516 0.930 . S
C528 C529 1.399 . S
C528 C533 1.399 . S
C529 C528 1.399 . S
C529 C530 1.376 . S
C530 H517 0.930 . S
C530 C529 1.376 . S
C530 C531 1.388 . S
C531 H518 0.930 . S
C531 C530 1.388 . S
C531 C532 1.390 . S
C532 C531 1.390 . S
C532 C533 1.394 . S
C532 C538 1.465 . S
C533 C528 1.399 . S
C533 C532 1.394 . S
C533 C534 1.516 . S
C534 C533 1.516 . S
C534 C535 1.502 . S
C534 C536 1.561 . S
C534 C537 1.526 . S
C535 H519 0.959 . S
C535 H520 0.959 . S
C535 H521 0.961 . S
C535 C534 1.502 . S
C536 H522 0.960 . S
C536 H523 0.961 . S
C536 H524 0.959 . S
C536 C534 1.561 . S
C537 C534 1.526 . S
C537 C538 1.396 . S
C537 C542 1.390 . S
C538 C532 1.465 . S
C538 C537 1.396 . S
C538 C539 1.399 . S
C539 H525 0.929 . S
C539 C538 1.399 . S
C539 C540 1.385 . S
C540 H526 0.931 . S
C540 C539 1.385 . S
C540 C541 1.389 . S
C541 C540 1.389 . S
C541 C542 1.387 . S
C542 H527 0.930 . S
C542 C537 1.390 . S
C542 C541 1.387 . S
H543 C555 0.930 . S
H544 C557 0.930 . S
H545 C558 0.930 . S
H546 C562 0.959 . S
H547 C562 0.959 . S
H548 C562 0.961 . S
H549 C563 0.960 . S
H550 C563 0.961 . S
H551 C563 0.959 . S
H552 C566 0.929 . S
H553 C567 0.931 . S
H554 C569 0.930 . S
C555 H543 0.930 . S
C555 C556 1.399 . S
C555 C560 1.399 . S
C556 C555 1.399 . S
C556 C557 1.376 . S
C557 H544 0.930 . S
C557 C556 1.376 . S
C557 C558 1.388 . S
C558 H545 0.930 . S
C558 C557 1.388 . S
C558 C559 1.390 . S
C559 C558 1.390 . S
C559 C560 1.394 . S
C559 C565 1.465 . S
C560 C555 1.399 . S
C560 C559 1.394 . S
C560 C561 1.516 . S
C561 C560 1.516 . S
C561 C562 1.502 . S
C561 C563 1.561 . S
C561 C564 1.526 . S
C562 H546 0.959 . S
C562 H547 0.959 . S
C562 H548 0.961 . S
C562 C561 1.502 . S
C563 H549 0.960 . S
C563 H550 0.961 . S
C563 H551 0.959 . S
C563 C561 1.561 . S
C564 C561 1.526 . S
C564 C565 1.396 . S
C564 C569 1.390 . S
C565 C559 1.465 . S
C565 C564 1.396 . S
C565 C566 1.399 . S
C566 H552 0.929 . S
C566 C565 1.399 . S
C566 C567 1.385 . S
C567 H553 0.931 . S
C567 C566 1.385 . S
C567 C568 1.389 . S
C568 C567 1.389 . S
C568 C569 1.387 . S
C569 H554 0.930 . S
C569 C564 1.390 . S
C569 C568 1.387 . S
H570 C582 0.930 . S
H571 C584 0.930 . S
H572 C585 0.930 . S
H573 C589 0.959 . S
H574 C589 0.959 . S
H575 C589 0.961 . S
H576 C590 0.960 . S
H577 C590 0.961 . S
H578 C590 0.959 . S
H579 C593 0.929 . S
H580 C594 0.931 . S
H581 C596 0.930 . S
C582 H570 0.930 . S
C582 C583 1.399 . S
C582 C587 1.399 . S
C583 C582 1.399 . S
C583 C584 1.376 . S
C584 H571 0.930 . S
C584 C583 1.376 . S
C584 C585 1.388 . S
C585 H572 0.930 . S
C585 C584 1.388 . S
C585 C586 1.390 . S
C586 C585 1.390 . S
C586 C587 1.394 . S
C586 C592 1.465 . S
C587 C582 1.399 . S
C587 C586 1.394 . S
C587 C588 1.516 . S
C588 C587 1.516 . S
C588 C589 1.502 . S
C588 C590 1.561 . S
C588 C591 1.526 . S
C589 H573 0.959 . S
C589 H574 0.959 . S
C589 H575 0.961 . S
C589 C588 1.502 . S
C590 H576 0.960 . S
C590 H577 0.961 . S
C590 H578 0.959 . S
C590 C588 1.561 . S
C591 C588 1.526 . S
C591 C592 1.396 . S
C591 C596 1.390 . S
C592 C586 1.465 . S
C592 C591 1.396 . S
C592 C593 1.399 . S
C593 H579 0.929 . S
C593 C592 1.399 . S
C593 C594 1.385 . S
C594 H580 0.931 . S
C594 C593 1.385 . S
C594 C595 1.389 . S
C595 C594 1.389 . S
C595 C596 1.387 . S
C596 H581 0.930 . S
C596 C591 1.390 . S
C596 C595 1.387 . S
H597 C609 0.930 . S
H598 C611 0.930 . S
H599 C612 0.930 . S
H600 C616 0.959 . S
H601 C616 0.959 . S
H602 C616 0.961 . S
H603 C617 0.960 . S
H604 C617 0.961 . S
H605 C617 0.959 . S
H606 C620 0.929 . S
H607 C621 0.931 . S
H608 C623 0.930 . S
C609 H597 0.930 . S
C609 C610 1.399 . S
C609 C614 1.399 . S
C610 C609 1.399 . S
C610 C611 1.376 . S
C611 H598 0.930 . S
C611 C610 1.376 . S
C611 C612 1.388 . S
C612 H599 0.930 . S
C612 C611 1.388 . S
C612 C613 1.390 . S
C613 C612 1.390 . S
C613 C614 1.394 . S
C613 C619 1.465 . S
C614 C609 1.399 . S
C614 C613 1.394 . S
C614 C615 1.516 . S
C615 C614 1.516 . S
C615 C616 1.502 . S
C615 C617 1.561 . S
C615 C618 1.526 . S
C616 H600 0.959 . S
C616 H601 0.959 . S
C616 H602 0.961 . S
C616 C615 1.502 . S
C617 H603 0.960 . S
C617 H604 0.961 . S
C617 H605 0.959 . S
C617 C615 1.561 . S
C618 C615 1.526 . S
C618 C619 1.396 . S
C618 C623 1.390 . S
C619 C613 1.465 . S
C619 C618 1.396 . S
C619 C620 1.399 . S
C620 H606 0.929 . S
C620 C619 1.399 . S
C620 C621 1.385 . S
C621 H607 0.931 . S
C621 C620 1.385 . S
C621 C622 1.389 . S
C622 C621 1.389 . S
C622 C623 1.387 . S
C623 H608 0.930 . S
C623 C618 1.390 . S
C623 C622 1.387 . S
H624 C636 0.930 . S
H625 C638 0.930 . S
H626 C639 0.930 . S
H627 C643 0.959 . S
H628 C643 0.959 . S
H629 C643 0.961 . S
H630 C644 0.960 . S
H631 C644 0.961 . S
H632 C644 0.959 . S
H633 C647 0.929 1_554 S
H634 C648 0.931 . S
H635 C650 0.930 . S
C636 H624 0.930 . S
C636 C637 1.399 . S
C636 C641 1.399 . S
C637 C636 1.399 . S
C637 C638 1.376 . S
C638 H625 0.930 . S
C638 C637 1.376 . S
C638 C639 1.388 . S
C639 H626 0.930 . S
C639 C638 1.388 . S
C639 C640 1.390 . S
C640 C639 1.390 . S
C640 C641 1.394 . S
C640 C646 1.465 . S
C641 C636 1.399 . S
C641 C640 1.394 . S
C641 C642 1.516 . S
C642 C641 1.516 . S
C642 C643 1.502 . S
C642 C644 1.561 . S
C642 C645 1.526 . S
C643 H627 0.959 . S
C643 H628 0.959 . S
C643 H629 0.961 . S
C643 C642 1.502 . S
C644 H630 0.960 . S
C644 H631 0.961 . S
C644 H632 0.959 . S
C644 C642 1.561 . S
C645 C642 1.526 . S
C645 C646 1.396 . S
C645 C650 1.390 . S
C646 C640 1.465 . S
C646 C645 1.396 . S
C646 C647 1.399 . S
C647 H633 0.929 1_556 S
C647 C646 1.399 . S
C647 C648 1.385 1_556 S
C648 H634 0.931 . S
C648 C647 1.385 1_554 S
C648 C649 1.389 . S
C649 C648 1.389 . S
C649 C650 1.387 1_554 S
C650 H635 0.930 . S
C650 C645 1.390 . S
C650 C649 1.387 1_556 S
H651 C663 0.930 . S
H652 C665 0.930 . S
H653 C666 0.930 . S
H654 C670 0.959 . S
H655 C670 0.959 . S
H656 C670 0.961 1_556 S
H657 C671 0.960 . S
H658 C671 0.961 . S
H659 C671 0.959 1_554 S
H660 C674 0.929 . S
H661 C675 0.931 . S
H662 C677 0.930 . S
C663 H651 0.930 . S
C663 C664 1.399 1_556 S
C663 C668 1.399 1_556 S
C664 C663 1.399 1_554 S
C664 C665 1.376 . S
C665 H652 0.930 . S
C665 C664 1.376 . S
C665 C666 1.388 . S
C666 H653 0.930 . S
C666 C665 1.388 . S
C666 C667 1.390 . S
C667 C666 1.390 . S
C667 C668 1.394 . S
C667 C673 1.465 . S
C668 C663 1.399 1_554 S
C668 C667 1.394 . S
C668 C669 1.516 . S
C669 C668 1.516 . S
C669 C670 1.502 . S
C669 C671 1.561 1_554 S
C669 C672 1.526 . S
C670 H654 0.959 . S
C670 H655 0.959 . S
C670 H656 0.961 1_554 S
C670 C669 1.502 . S
C671 H657 0.960 . S
C671 H658 0.961 . S
C671 H659 0.959 1_556 S
C671 C669 1.561 1_556 S
C672 C669 1.526 . S
C672 C673 1.396 . S
C672 C677 1.390 . S
C673 C667 1.465 . S
C673 C672 1.396 . S
C673 C674 1.399 . S
C674 H660 0.929 . S
C674 C673 1.399 . S
C674 C675 1.385 . S
C675 H661 0.931 . S
C675 C674 1.385 . S
C675 C676 1.389 . S
C676 C675 1.389 . S
C676 C677 1.387 . S
C677 H662 0.930 . S
C677 C672 1.390 . S
C677 C676 1.387 . S
C367 C3 1.299 . S
C379 C182 1.291 . S
C394 C241 1.292 . S
C406 C62 1.274 . S
C421 C123 1.271 . S
C433 C298 1.271 . S
C448 C180 1.297 . S
C460 C5 1.286 . S
C475 C64 1.292 . S
C487 C239 1.274 . S
C502 C300 1.284 . S
C514 C121 1.264 . S
C529 C33 1.507 . S
C541 C151 1.518 . S
C556 C92 1.504 . S
C568 C229 1.518 . S
C583 C288 1.523 . S
C595 C170 1.495 . S
C610 C328 1.491 . S
C622 C210 1.511 . S
C637 C269 1.502 . S
C649 C52 1.519 . S
C664 C347 1.497 1_554 S
C676 C111 1.520 . S
