# Generated by pormake.
# Topology wge, (5)-cn, num edge types: 1
# Building blocks:
#     Node 0, Type 0, BuildingBlock: XOMCOT_clean_sbu_1, # of connection points: 5
#     Node 1, Type 0, BuildingBlock: XOMCOT_clean_sbu_1, # of connection points: 5
#     Node 2, Type 0, BuildingBlock: XOMCOT_clean_sbu_1, # of connection points: 5
#     Node 3, Type 0, BuildingBlock: XOMCOT_clean_sbu_1, # of connection points: 5
#     Node 4, Type 0, BuildingBlock: XOMCOT_clean_sbu_1, # of connection points: 5
#     Node 5, Type 0, BuildingBlock: XOMCOT_clean_sbu_1, # of connection points: 5
#     Node 6, Type 0, BuildingBlock: XOMCOT_clean_sbu_1, # of connection points: 5
#     Node 7, Type 0, BuildingBlock: XOMCOT_clean_sbu_1, # of connection points: 5
#     Node 8, Type 0, BuildingBlock: XOMCOT_clean_sbu_1, # of connection points: 5
#     Node 9, Type 0, BuildingBlock: XOMCOT_clean_sbu_1, # of connection points: 5
#     Node 10, Type 0, BuildingBlock: XOMCOT_clean_sbu_1, # of connection points: 5
#     Node 11, Type 0, BuildingBlock: XOMCOT_clean_sbu_1, # of connection points: 5
#     Node 12, Type 0, BuildingBlock: XOMCOT_clean_sbu_1, # of connection points: 5
#     Node 13, Type 0, BuildingBlock: XOMCOT_clean_sbu_1, # of connection points: 5
#     Node 14, Type 0, BuildingBlock: XOMCOT_clean_sbu_1, # of connection points: 5
#     Node 15, Type 0, BuildingBlock: XOMCOT_clean_sbu_1, # of connection points: 5
#     Node 16, Type 0, BuildingBlock: XOMCOT_clean_sbu_1, # of connection points: 5
#     Node 17, Type 0, BuildingBlock: XOMCOT_clean_sbu_1, # of connection points: 5
#     Node 18, Type 0, BuildingBlock: XOMCOT_clean_sbu_1, # of connection points: 5
#     Node 19, Type 0, BuildingBlock: XOMCOT_clean_sbu_1, # of connection points: 5
#     Node 20, Type 0, BuildingBlock: XOMCOT_clean_sbu_1, # of connection points: 5
#     Node 21, Type 0, BuildingBlock: XOMCOT_clean_sbu_1, # of connection points: 5
#     Node 22, Type 0, BuildingBlock: XOMCOT_clean_sbu_1, # of connection points: 5
#     Node 23, Type 0, BuildingBlock: XOMCOT_clean_sbu_1, # of connection points: 5
#     Node 24, Type 0, BuildingBlock: XOMCOT_clean_sbu_1, # of connection points: 5
#     Node 25, Type 0, BuildingBlock: XOMCOT_clean_sbu_1, # of connection points: 5
#     Node 26, Type 0, BuildingBlock: XOMCOT_clean_sbu_1, # of connection points: 5
#     Node 27, Type 0, BuildingBlock: XOMCOT_clean_sbu_1, # of connection points: 5
#     Node 28, Type 0, BuildingBlock: XOMCOT_clean_sbu_1, # of connection points: 5
#     Node 29, Type 0, BuildingBlock: XOMCOT_clean_sbu_1, # of connection points: 5
#     Node 30, Type 0, BuildingBlock: XOMCOT_clean_sbu_1, # of connection points: 5
#     Node 31, Type 0, BuildingBlock: XOMCOT_clean_sbu_1, # of connection points: 5
#     Edge 32, Type (0, 0), None
#     Edge 33, Type (0, 0), None
#     Edge 34, Type (0, 0), None
#     Edge 35, Type (0, 0), None
#     Edge 36, Type (0, 0), None
#     Edge 37, Type (0, 0), None
#     Edge 38, Type (0, 0), None
#     Edge 39, Type (0, 0), None
#     Edge 40, Type (0, 0), None
#     Edge 41, Type (0, 0), None
#     Edge 42, Type (0, 0), None
#     Edge 43, Type (0, 0), None
#     Edge 44, Type (0, 0), None
#     Edge 45, Type (0, 0), None
#     Edge 46, Type (0, 0), None
#     Edge 47, Type (0, 0), None
#     Edge 48, Type (0, 0), None
#     Edge 49, Type (0, 0), None
#     Edge 50, Type (0, 0), None
#     Edge 51, Type (0, 0), None
#     Edge 52, Type (0, 0), None
#     Edge 53, Type (0, 0), None
#     Edge 54, Type (0, 0), None
#     Edge 55, Type (0, 0), None
#     Edge 56, Type (0, 0), None
#     Edge 57, Type (0, 0), None
#     Edge 58, Type (0, 0), None
#     Edge 59, Type (0, 0), None
#     Edge 60, Type (0, 0), None
#     Edge 61, Type (0, 0), None
#     Edge 62, Type (0, 0), None
#     Edge 63, Type (0, 0), None
#     Edge 64, Type (0, 0), None
#     Edge 65, Type (0, 0), None
#     Edge 66, Type (0, 0), None
#     Edge 67, Type (0, 0), None
#     Edge 68, Type (0, 0), None
#     Edge 69, Type (0, 0), None
#     Edge 70, Type (0, 0), None
#     Edge 71, Type (0, 0), None
#     Edge 72, Type (0, 0), None
#     Edge 73, Type (0, 0), None
#     Edge 74, Type (0, 0), None
#     Edge 75, Type (0, 0), None
#     Edge 76, Type (0, 0), None
#     Edge 77, Type (0, 0), None
#     Edge 78, Type (0, 0), None
#     Edge 79, Type (0, 0), None
#     Edge 80, Type (0, 0), None
#     Edge 81, Type (0, 0), None
#     Edge 82, Type (0, 0), None
#     Edge 83, Type (0, 0), None
#     Edge 84, Type (0, 0), None
#     Edge 85, Type (0, 0), None
#     Edge 86, Type (0, 0), None
#     Edge 87, Type (0, 0), None
#     Edge 88, Type (0, 0), None
#     Edge 89, Type (0, 0), None
#     Edge 90, Type (0, 0), None
#     Edge 91, Type (0, 0), None
#     Edge 92, Type (0, 0), None
#     Edge 93, Type (0, 0), None
#     Edge 94, Type (0, 0), None
#     Edge 95, Type (0, 0), None
#     Edge 96, Type (0, 0), None
#     Edge 97, Type (0, 0), None
#     Edge 98, Type (0, 0), None
#     Edge 99, Type (0, 0), None
#     Edge 100, Type (0, 0), None
#     Edge 101, Type (0, 0), None
#     Edge 102, Type (0, 0), None
#     Edge 103, Type (0, 0), None
#     Edge 104, Type (0, 0), None
#     Edge 105, Type (0, 0), None
#     Edge 106, Type (0, 0), None
#     Edge 107, Type (0, 0), None
#     Edge 108, Type (0, 0), None
#     Edge 109, Type (0, 0), None
#     Edge 110, Type (0, 0), None
#     Edge 111, Type (0, 0), None
# Relax obj value: 0.224
# Max RMSD: 0.169
# Mean RMSD: 0.169
data_MOF--net-wge--node1-XOMCOT_clean_sbu_1--edge1-none
_symmetry_space_group_name_H-M    P1
_symmetry_Int_Tables_number       1
_symmetry_cell_setting            triclinic
loop_
_symmetry_equiv_pos_as_xyz
'x, y, z'
_cell_length_a     35.02384
_cell_length_b     35.048152
_cell_length_c     20.851278
_cell_angle_alpha  89.991285
_cell_angle_beta   90.007052
_cell_angle_gamma 89.999534
loop_
_atom_site_label
_atom_site_type_symbol
_atom_site_fract_x
_atom_site_fract_y
_atom_site_fract_z
_atom_type_partial_charge
C0 C 0.13515 0.11222 0.02514 0.0
C1 C 0.12473 0.12153 0.96336 0.0
N2 N 0.15156 0.10699 0.92455 0.0
N3 N 0.16976 0.09506 1.02412 0.0
C4 C 0.17573 0.08778 0.96223 0.0
H5 H 0.12073 0.12178 0.06803 0.0
Co6 Co 0.20907 0.1067 0.08139 0.0
C7 C 0.26238 0.09676 0.95801 0.0
O8 O 0.24365 0.12252 0.92482 0.0
N9 N 0.2444 0.11921 0.13932 0.0
C10 C 0.29239 0.12645 0.2057 0.0
C11 C 0.28189 0.11266 0.14661 0.0
C12 C 0.23314 0.13826 0.19165 0.0
N13 N 0.26112 0.14127 0.23468 0.0
O14 O 0.20312 0.05429 0.12264 0.0
H15 H 0.29966 0.09718 0.11319 0.0
H16 H 0.20383 0.14647 0.20057 0.0
O17 O 0.25202 0.08909 1.01687 0.0
C18 C 0.1915 0.04978 0.18142 0.0
O19 O 0.18189 0.07982 0.21475 0.0
N20 N 0.21237 0.15845 0.05106 0.0
C21 C 0.21613 0.23893 0.04371 0.0
C22 C 0.24808 0.21619 0.02886 0.0
C23 C 0.24563 0.17612 0.033 0.0
C24 C 0.18178 0.1805 0.06708 0.0
C25 C 0.18217 0.21989 0.05962 0.0
H26 H 0.27157 0.15985 0.02747 0.0
H27 H 0.15785 0.1684 0.09189 0.0
H28 H 0.19842 0.07011 0.94477 0.0
H29 H 0.10121 0.13958 0.94883 0.0
H30 H 0.32005 0.12267 0.22752 0.0
H31 H 0.27547 0.229 1.01832 0.0
H32 H 0.15623 0.23522 0.07087 0.0
C33 C 0.1633 0.8851 0.27519 0.0
C34 C 0.15393 0.87465 0.21346 0.0
N35 N 0.1684 0.90147 0.17456 0.0
N36 N 0.1804 0.91972 0.27407 0.0
C37 C 0.18761 0.92568 0.21214 0.0
H38 H 0.15379 0.87071 0.31814 0.0
Co39 Co 0.16868 0.95896 0.33133 0.0
C40 C 0.17873 1.01231 0.208 0.0
O41 O 0.15299 0.9936 0.1747 0.0
N42 N 0.15611 0.99422 0.38928 0.0
C43 C 0.14893 0.0421 0.45582 0.0
C44 C 0.16267 0.03167 0.39665 0.0
C45 C 0.13711 0.9829 0.44164 0.0
N46 N 0.13414 1.01082 0.48476 0.0
O47 O 0.22108 0.95302 0.3727 0.0
H48 H 0.17814 0.04947 0.36325 0.0
H49 H 0.1289 0.95361 0.4505 0.0
O50 O 0.18635 1.00192 0.26687 0.0
C51 C 0.22548 0.94115 0.43137 0.0
O52 O 0.19536 0.9312 0.46427 0.0
N53 N 0.11692 0.96225 0.30087 0.0
C54 C 0.03638 0.96598 0.29338 0.0
C55 C 0.05913 0.99792 0.27862 0.0
C56 C 0.09923 0.99549 0.28283 0.0
C57 C 0.09485 0.93165 0.31678 0.0
C58 C 0.05544 0.93203 0.30925 0.0
H59 H 0.11551 0.02142 0.27735 0.0
H60 H 0.10695 0.90772 0.34156 0.0
H61 H 0.20528 0.94834 0.19458 0.0
H62 H 0.13592 0.85109 0.19902 0.0
H63 H 0.15274 0.06972 0.47771 0.0
H64 H 0.04631 0.02529 0.26811 0.0
H65 H 0.04011 0.9061 0.32042 0.0
C66 C 0.3903 0.91329 0.52551 0.0
C67 C 0.40086 0.90385 0.46386 0.0
N68 N 0.374 0.91811 0.42479 0.0
N69 N 0.35559 0.93025 0.52417 0.0
C70 C 0.34966 0.93728 0.46217 0.0
H71 H 0.40466 0.9039 0.56857 0.0
Co72 Co 0.31633 0.91843 0.58139 0.0
C73 C 0.26296 0.92842 0.45807 0.0
O74 O 0.28169 0.90267 0.42486 0.0
N75 N 0.28108 0.90573 0.63935 0.0
C76 C 0.2332 0.89808 0.70582 0.0
C77 C 0.24358 0.91206 0.64678 0.0
C78 C 0.29249 0.88659 0.69153 0.0
N79 N 0.26458 0.88337 0.73465 0.0
O80 O 0.32222 0.97082 0.62279 0.0
H81 H 0.22568 0.92749 0.61345 0.0
H82 H 0.32185 0.8785 0.70028 0.0
O83 O 0.27332 0.93607 0.51694 0.0
C84 C 0.33363 0.97541 0.68167 0.0
O85 O 0.34294 0.94542 0.71537 0.0
N86 N 0.31312 0.86671 0.55083 0.0
C87 C 0.3094 0.78624 0.54325 0.0
C88 C 0.2774 0.80897 0.52869 0.0
C89 C 0.27984 0.84903 0.53293 0.0
C90 C 0.34379 0.84466 0.56649 0.0
C91 C 0.3434 0.80528 0.55893 0.0
H92 H 0.25387 0.86529 0.52761 0.0
H93 H 0.3678 0.85673 0.59112 0.0
H94 H 0.32696 0.95485 0.44444 0.0
H95 H 0.42452 0.88591 0.4496 0.0
H96 H 0.20554 0.90165 0.72771 0.0
H97 H 0.24999 0.79615 0.51832 0.0
H98 H 0.36937 0.78994 0.56996 0.0
C99 C 0.36227 0.14015 0.77519 0.0
C100 C 0.37184 0.15053 0.7135 0.0
N101 N 0.35744 0.1237 0.67455 0.0
N102 N 0.34508 0.10556 0.774 0.0
C103 C 0.33807 0.09957 0.71203 0.0
H104 H 0.37171 0.15453 0.81818 0.0
Co105 Co 0.35669 0.06629 0.8313 0.0
C106 C 0.34655 0.01287 0.70807 0.0
O107 O 0.37238 0.03142 0.67473 0.0
N108 N 0.36917 0.03099 0.88924 0.0
C109 C 0.37629 0.98307 0.95574 0.0
C110 C 0.36248 0.99356 0.89664 0.0
C111 C 0.38829 0.04223 0.94152 0.0
N112 N 0.39125 0.01429 0.98459 0.0
O113 O 0.30428 0.07232 0.87258 0.0
H114 H 0.34688 0.97583 0.8633 0.0
H115 H 0.3966 0.0715 0.95037 0.0
O116 O 0.33894 0.02337 0.76688 0.0
C117 C 0.29986 0.08401 0.93133 0.0
O118 O 0.32996 0.09368 0.96451 0.0
N119 N 0.40846 0.06291 0.80093 0.0
C120 C 0.48899 0.05907 0.7936 0.0
C121 C 0.46621 0.02717 0.77874 0.0
C122 C 0.42611 0.02966 0.78288 0.0
C123 C 0.43056 0.09346 0.81694 0.0
C124 C 0.46997 0.09303 0.8095 0.0
H125 H 0.4098 1.00375 0.77735 0.0
H126 H 0.41847 0.1174 0.84173 0.0
H127 H 0.32038 0.07695 0.6944 0.0
H128 H 0.38994 0.17404 0.69915 0.0
H129 H 0.3724 0.95547 0.97765 0.0
H130 H 0.479 0.99979 0.76821 0.0
H131 H 0.48534 0.11893 0.82077 0.0
C132 C 0.14446 0.89723 1.01045 0.0
C133 C 0.13578 0.88793 0.07281 0.0
N134 N 0.15884 0.90872 0.11031 0.0
N135 N 0.17471 0.92131 1.00981 0.0
C136 C 0.17886 0.9315 0.07103 0.0
H137 H 0.133 0.88294 0.96886 0.0
Co138 Co 0.21573 0.91338 0.95436 0.0
C139 C 0.26681 0.92989 0.08188 0.0
O140 O 0.24808 0.9066 0.1197 0.0
N141 N 0.2529 0.90351 0.89736 0.0
C142 C 0.30159 0.89861 0.83117 0.0
C143 C 0.29032 0.91103 0.89103 0.0
C144 C 0.24263 0.88521 0.8437 0.0
N145 N 0.27092 0.8833 0.80122 0.0
O146 O 0.20737 0.96615 0.91481 0.0
H147 H 0.30748 0.9263 0.92562 0.0
H148 H 0.21366 0.87685 0.83304 0.0
O149 O 0.25697 0.93294 1.02149 0.0
C150 C 0.19543 0.97127 0.85626 0.0
O151 O 0.18764 0.94146 0.82105 0.0
N152 N 0.22042 0.86149 0.98244 0.0
C153 C 0.21865 0.78152 0.99834 0.0
C154 C 0.24573 0.80414 0.03092 0.0
C155 C 0.24693 0.84393 1.02061 0.0
C156 C 0.19567 0.83955 0.94811 0.0
C157 C 0.19441 0.8002 0.95485 0.0
H158 H 0.27022 0.85973 0.04109 0.0
H159 H 0.17721 0.85268 0.91304 0.0
H160 H 0.19894 0.95271 0.08681 0.0
H161 H 0.11679 0.86551 0.08878 0.0
H162 H 0.32921 0.90352 0.80975 0.0
H163 H 0.26632 0.79137 0.06309 0.0
H164 H 0.17502 0.78477 0.92397 0.0
C165 C 0.37862 0.89406 0.26077 0.0
C166 C 0.38789 0.8855 0.32319 0.0
N167 N 0.36688 0.90845 0.36054 0.0
N168 N 0.35432 0.92413 0.25994 0.0
C169 C 0.34402 0.92828 0.32111 0.0
H170 H 0.39306 0.88268 0.21927 0.0
Co171 Co 0.36202 0.96514 0.20441 0.0
C172 C 0.34538 0.01619 0.33186 0.0
O173 O 0.36872 0.99758 0.36978 0.0
N174 N 0.37163 1.00233 0.1474 0.0
C175 C 0.37591 0.05106 0.08122 0.0
C176 C 0.36376 0.03966 0.14116 0.0
C177 C 0.38983 0.99223 0.09356 0.0
N178 N 0.39141 0.02055 0.05115 0.0
O179 O 0.30923 0.95662 0.165 0.0
H180 H 0.34837 0.05666 0.17583 0.0
H181 H 0.39837 0.96336 0.08274 0.0
O182 O 0.34237 1.00628 0.27151 0.0
C183 C 0.30429 0.94435 0.1066 0.0
O184 O 0.33423 0.93607 0.07199 0.0
N185 N 0.41396 0.97001 0.23228 0.0
C186 C 0.49399 0.96831 0.24798 0.0
C187 C 0.47135 0.99524 0.28082 0.0
C188 C 0.43152 0.99642 0.27063 0.0
C189 C 0.43591 0.94543 0.19769 0.0
C190 C 0.4753 0.94421 0.2043 0.0
H191 H 0.41568 0.01959 0.29138 0.0
H192 H 0.42275 0.92701 0.1626 0.0
H193 H 0.32269 0.94828 0.33675 0.0
H194 H 0.41042 0.86668 0.3393 0.0
H195 H 0.37066 0.0786 0.05982 0.0
H196 H 0.48414 0.01572 0.31315 0.0
H197 H 0.49073 0.92493 0.17324 0.0
C198 C 0.38156 0.12788 0.5105 0.0
C199 C 0.39014 0.13726 0.57287 0.0
N200 N 0.3671 0.11643 0.61035 0.0
N201 N 0.35139 0.10369 0.50982 0.0
C202 C 0.3472 0.09355 0.57106 0.0
H203 H 0.393 0.14218 0.46891 0.0
Co204 Co 0.31034 0.11147 0.45431 0.0
C205 C 0.25925 0.09496 0.58175 0.0
O206 O 0.27783 0.11839 0.61952 0.0
N207 N 0.27312 0.12117 0.39733 0.0
C208 C 0.22433 0.1258 0.33128 0.0
C209 C 0.23574 0.11346 0.39111 0.0
C210 C 0.28325 0.13949 0.34362 0.0
N211 N 0.25489 0.14127 0.30125 0.0
O212 O 0.3188 0.0587 0.41492 0.0
H213 H 0.21869 0.09808 0.42574 0.0
H214 H 0.31216 0.14797 0.33283 0.0
O215 O 0.26916 0.09186 0.52142 0.0
C216 C 0.33077 0.05362 0.35638 0.0
O217 O 0.33858 0.08345 0.32122 0.0
N218 N 0.30554 0.16337 0.48222 0.0
C219 C 0.30727 0.24335 0.49792 0.0
C220 C 0.28023 0.22074 0.53059 0.0
C221 C 0.27903 0.18094 0.52036 0.0
C222 C 0.33024 0.1853 0.44778 0.0
C223 C 0.33147 0.22466 0.45439 0.0
H224 H 0.25576 0.16514 0.54089 0.0
H225 H 0.34869 0.17215 0.41273 0.0
H226 H 0.32716 0.0723 0.58682 0.0
H227 H 0.40903 0.15976 0.58883 0.0
H228 H 0.19673 0.12071 0.30991 0.0
H229 H 0.25966 0.23352 0.56277 0.0
H230 H 0.35082 0.24007 0.42342 0.0
C231 C 0.14772 0.13101 0.7604 0.0
C232 C 0.13818 0.1396 0.82271 0.0
N233 N 0.15891 0.11655 0.86033 0.0
N234 N 0.17189 0.10084 0.75989 0.0
C235 C 0.18188 0.09664 0.8212 0.0
H236 H 0.13352 0.14246 0.7187 0.0
Co237 Co 0.16406 0.05984 0.70442 0.0
C238 C 0.18075 1.0087 0.8318 0.0
O239 O 0.15737 0.02721 0.86975 0.0
N240 N 0.15431 0.02266 0.64743 0.0
C241 C 0.14974 0.97397 0.58124 0.0
C242 C 0.16209 0.98532 0.6411 0.0
C243 C 0.13595 0.03281 0.59375 0.0
N244 N 0.1342 1.00452 0.55132 0.0
O245 O 0.21683 0.0683 0.6649 0.0
H246 H 0.17753 0.96828 0.67566 0.0
H247 H 0.12743 0.06171 0.58304 0.0
O248 O 0.18375 0.01866 0.77148 0.0
C249 C 0.22182 0.08034 0.60638 0.0
O250 O 0.19192 0.08826 0.57143 0.0
N251 N 0.11214 0.05503 0.73245 0.0
C252 C 0.03211 0.05672 0.74824 0.0
C253 C 0.05476 0.02972 0.78092 0.0
C254 C 0.09459 0.02855 0.77067 0.0
C255 C 0.09017 0.07971 0.69804 0.0
C256 C 0.05079 0.08092 0.70469 0.0
H257 H 0.11043 1.00532 0.79124 0.0
H258 H 0.10331 0.09815 0.66297 0.0
H259 H 0.20314 0.07664 0.83711 0.0
H260 H 0.11566 0.15851 0.83851 0.0
H261 H 0.15488 0.94643 0.55978 0.0
H262 H 0.04199 1.00917 0.81314 0.0
H263 H 0.03535 0.10025 0.67373 0.0
C264 C 0.89058 0.91279 1.02338 0.0
C265 C 0.901 0.90348 0.08516 0.0
N266 N 0.87417 0.91803 0.12397 0.0
N267 N 0.85597 0.92995 0.0244 0.0
C268 C 0.85 0.93723 0.08629 0.0
H269 H 0.905 0.90323 0.98049 0.0
Co270 Co 0.81666 0.91831 0.96713 0.0
C271 C 0.76335 0.92825 0.09051 0.0
O272 O 0.78209 0.90249 0.1237 0.0
N273 N 0.78133 0.9058 0.9092 0.0
C274 C 0.73334 0.89855 0.84282 0.0
C275 C 0.74385 0.91235 0.90191 0.0
C276 C 0.7926 0.88675 0.85687 0.0
N277 N 0.76461 0.88374 0.81385 0.0
O278 O 0.82261 0.97072 0.92588 0.0
H279 H 0.72607 0.92783 0.93534 0.0
H280 H 0.8219 0.87854 0.84796 0.0
O281 O 0.77371 0.93592 0.03165 0.0
C282 C 0.83423 0.97523 0.8671 0.0
O283 O 0.84383 0.94519 0.83375 0.0
N284 N 0.81337 0.86656 0.99746 0.0
C285 C 0.8096 0.78608 1.00481 0.0
C286 C 0.77766 0.80882 1.01966 0.0
C287 C 0.78011 0.84889 1.01552 0.0
C288 C 0.84395 0.84451 0.98144 0.0
C289 C 0.84356 0.80512 0.9889 0.0
H290 H 0.75417 0.86516 1.02105 0.0
H291 H 0.86789 0.85661 0.95663 0.0
H292 H 0.82731 0.9549 0.10375 0.0
H293 H 0.92453 0.88544 0.09969 0.0
H294 H 0.70568 0.90233 0.82101 0.0
H295 H 0.75027 0.79601 0.0302 0.0
H296 H 0.8695 0.78979 0.97765 0.0
C297 C 0.86244 0.13992 0.77333 0.0
C298 C 0.8718 0.15037 0.83507 0.0
N299 N 0.85734 0.12354 0.87396 0.0
N300 N 0.84533 0.1053 0.77446 0.0
C301 C 0.83812 0.09934 0.83639 0.0
H302 H 0.87195 0.15431 0.73038 0.0
Co303 Co 0.85704 0.06605 0.7172 0.0
C304 C 0.847 0.01271 0.84052 0.0
O305 O 0.87273 0.03141 0.87383 0.0
N306 N 0.86962 0.03079 0.65924 0.0
C307 C 0.87679 0.98291 0.5927 0.0
C308 C 0.86306 0.99334 0.65187 0.0
C309 C 0.88862 0.04211 0.60688 0.0
N310 N 0.89158 0.0142 0.56377 0.0
O311 O 0.80465 0.072 0.67582 0.0
H312 H 0.84758 0.97555 0.68527 0.0
H313 H 0.89683 0.0714 0.59802 0.0
O314 O 0.83938 0.0231 0.78165 0.0
C315 C 0.80025 0.08387 0.61716 0.0
O316 O 0.83038 0.09383 0.58426 0.0
N317 N 0.90881 0.06277 0.74765 0.0
C318 C 0.98935 0.05903 0.75512 0.0
C319 C 0.9666 0.0271 0.7699 0.0
C320 C 0.9265 0.02953 0.7657 0.0
C321 C 0.93087 0.09336 0.73173 0.0
C322 C 0.97029 0.09298 0.73926 0.0
H323 H 0.91022 1.0036 0.77118 0.0
H324 H 0.91877 0.1173 0.70696 0.0
H325 H 0.82045 0.07668 0.85395 0.0
H326 H 0.88981 0.17392 0.84951 0.0
H327 H 0.87298 0.9553 0.57081 0.0
H328 H 0.97942 0.99972 0.78042 0.0
H329 H 0.98562 0.11892 0.72809 0.0
C330 C 0.63544 0.11172 0.52301 0.0
C331 C 0.62487 0.12117 0.58466 0.0
N332 N 0.65173 0.1069 0.62373 0.0
N333 N 0.67015 0.09477 0.52435 0.0
C334 C 0.67607 0.08773 0.58635 0.0
H335 H 0.62107 0.12112 0.47995 0.0
Co336 Co 0.7094 0.10659 0.46713 0.0
C337 C 0.76278 0.0966 0.59045 0.0
O338 O 0.74404 0.12235 0.62366 0.0
N339 N 0.74465 0.11929 0.40917 0.0
C340 C 0.79253 0.12694 0.3427 0.0
C341 C 0.78216 0.11296 0.40174 0.0
C342 C 0.73324 0.13843 0.35699 0.0
N343 N 0.76115 0.14165 0.31387 0.0
O344 O 0.70352 0.0542 0.42573 0.0
H345 H 0.80005 0.09753 0.43508 0.0
H346 H 0.70388 0.14651 0.34824 0.0
O347 O 0.75241 0.08895 0.53158 0.0
C348 C 0.69211 0.0496 0.36685 0.0
O349 O 0.68281 0.07959 0.33314 0.0
N350 N 0.71261 0.15831 0.49769 0.0
C351 C 0.71634 0.23878 0.50527 0.0
C352 C 0.74833 0.21605 0.51983 0.0
C353 C 0.7459 0.17598 0.51559 0.0
C354 C 0.68195 0.18036 0.48203 0.0
C355 C 0.68234 0.21974 0.48959 0.0
H356 H 0.77186 0.15973 0.52091 0.0
H357 H 0.65793 0.16829 0.4574 0.0
H358 H 0.69877 0.07016 0.60408 0.0
H359 H 0.60121 0.13911 0.59892 0.0
H360 H 0.8202 0.12338 0.32082 0.0
H361 H 0.77574 0.22887 0.5302 0.0
H362 H 0.65636 0.23507 0.47857 0.0
C363 C 0.66347 0.88487 0.27334 0.0
C364 C 0.65389 0.87448 0.33503 0.0
N365 N 0.66829 0.90131 0.37398 0.0
N366 N 0.68065 0.91945 0.27452 0.0
C367 C 0.68766 0.92545 0.3365 0.0
H368 H 0.65403 0.87048 0.23034 0.0
Co369 Co 0.66905 0.95873 0.21722 0.0
C370 C 0.67919 1.01214 0.34045 0.0
O371 O 0.65336 0.9936 0.37379 0.0
N372 N 0.65657 0.99402 0.15928 0.0
C373 C 0.64946 0.04194 0.09278 0.0
C374 C 0.66326 0.03145 0.15188 0.0
C375 C 0.63744 0.98278 0.107 0.0
N376 N 0.63449 1.01073 0.06393 0.0
O377 O 0.72146 0.95269 0.17595 0.0
H378 H 0.67886 0.04918 0.18522 0.0
H379 H 0.62914 0.95351 0.09815 0.0
O380 O 0.68679 1.00164 0.28164 0.0
C381 C 0.72588 0.941 0.1172 0.0
O382 O 0.69577 0.93132 0.08402 0.0
N383 N 0.61728 0.9621 0.24759 0.0
C384 C 0.53675 0.96594 0.25491 0.0
C385 C 0.55953 0.99784 0.26978 0.0
C386 C 0.59963 0.99535 0.26564 0.0
C387 C 0.59518 0.93155 0.23157 0.0
C388 C 0.55576 0.93198 0.23901 0.0
H389 H 0.61594 0.02126 0.27117 0.0
H390 H 0.60726 0.90762 0.20679 0.0
H391 H 0.70536 0.94806 0.35413 0.0
H392 H 0.63579 0.85098 0.34937 0.0
H393 H 0.65334 0.06954 0.07087 0.0
H394 H 0.54673 0.02522 0.28032 0.0
H395 H 0.5404 0.90608 0.22774 0.0
C396 C 0.88127 0.12779 0.03808 0.0
C397 C 0.88996 0.13709 0.97571 0.0
N398 N 0.86689 0.1163 0.93822 0.0
N399 N 0.85103 0.10371 0.03872 0.0
C400 C 0.84687 0.09351 0.97749 0.0
H401 H 0.89273 0.14208 0.07967 0.0
Co402 Co 0.81001 0.11164 0.09416 0.0
C403 C 0.75892 0.09513 0.96664 0.0
O404 O 0.77765 0.11842 0.92883 0.0
N405 N 0.77283 0.12151 0.15116 0.0
C406 C 0.72414 0.12642 0.21735 0.0
C407 C 0.73541 0.114 0.15749 0.0
C408 C 0.78311 0.13981 0.20482 0.0
N409 N 0.75482 0.14172 0.2473 0.0
O410 O 0.81836 0.05887 0.13371 0.0
H411 H 0.71825 0.09872 0.12291 0.0
H412 H 0.81207 0.14817 0.21548 0.0
O413 O 0.76876 0.09208 0.02703 0.0
C414 C 0.8303 0.05375 0.19227 0.0
O415 O 0.83808 0.08355 0.22749 0.0
N416 N 0.80532 0.16353 0.06609 0.0
C417 C 0.80708 0.2435 0.05018 0.0
C418 C 0.78001 0.22088 1.0176 0.0
C419 C 0.7788 0.18109 0.02791 0.0
C420 C 0.83006 0.18547 0.10041 0.0
C421 C 0.83132 0.22482 0.09367 0.0
H422 H 0.75551 0.16528 1.00743 0.0
H423 H 0.84852 0.17234 0.13548 0.0
H424 H 0.82679 0.0723 0.96172 0.0
H425 H 0.90894 0.15951 0.95975 0.0
H426 H 0.69652 0.12151 0.23878 0.0
H427 H 0.75942 0.23365 0.98543 0.0
H428 H 0.85072 0.24024 0.12455 0.0
C429 C 0.64711 0.13095 0.78775 0.0
C430 C 0.63785 0.13952 0.72533 0.0
N431 N 0.65885 0.11656 0.68798 0.0
N432 N 0.67141 0.10089 0.78858 0.0
C433 C 0.68172 0.09674 0.7274 0.0
H434 H 0.63267 0.14234 0.82925 0.0
Co435 Co 0.66372 0.05988 0.84411 0.0
C436 C 0.68036 1.00883 0.71666 0.0
O437 O 0.65703 0.02743 0.67874 0.0
N438 N 0.65411 0.02268 0.90112 0.0
C439 C 0.64983 0.97395 0.9673 0.0
C440 C 0.66198 0.98535 0.90736 0.0
C441 C 0.63591 0.03278 0.95496 0.0
N442 N 0.63433 1.00446 0.99737 0.0
O443 O 0.71651 0.0684 0.88352 0.0
H444 H 0.67737 0.96836 0.87269 0.0
H445 H 0.62736 0.06165 0.96578 0.0
O446 O 0.68337 0.01874 0.77701 0.0
C447 C 0.72145 0.08067 0.94191 0.0
O448 O 0.6915 0.08895 0.97652 0.0
N449 N 0.61178 0.055 0.81624 0.0
C450 C 0.53174 0.0567 0.80054 0.0
C451 C 0.55438 0.02978 0.76769 0.0
C452 C 0.59422 0.02859 0.77789 0.0
C453 C 0.58982 0.07959 0.85083 0.0
C454 C 0.55043 0.0808 0.84422 0.0
H455 H 0.61005 1.00543 0.75714 0.0
H456 H 0.60298 0.098 0.88592 0.0
H457 H 0.70305 0.07674 0.71177 0.0
H458 H 0.61531 0.15833 0.70922 0.0
H459 H 0.65509 0.94641 0.98871 0.0
H460 H 0.5416 1.0093 0.73535 0.0
H461 H 0.535 0.10008 0.87528 0.0
C462 C 0.64418 0.89714 0.53802 0.0
C463 C 0.63559 0.88776 0.47565 0.0
N464 N 0.65863 0.90859 0.43817 0.0
N465 N 0.67435 0.92132 0.53871 0.0
C466 C 0.67853 0.93147 0.47746 0.0
H467 H 0.63273 0.88283 0.57961 0.0
Co468 Co 0.71539 0.91354 0.59421 0.0
C469 C 0.76649 0.93005 0.46677 0.0
O470 O 0.74791 0.90662 0.42901 0.0
N471 N 0.75261 0.90383 0.65119 0.0
C472 C 0.8014 0.8992 0.71724 0.0
C473 C 0.79 0.91155 0.65741 0.0
C474 C 0.74248 0.88551 0.70491 0.0
N475 N 0.77084 0.88374 0.74727 0.0
O476 O 0.70694 0.96631 0.63361 0.0
H477 H 0.80704 0.92693 0.62278 0.0
H478 H 0.71357 0.87704 0.71569 0.0
O479 O 0.75657 0.93315 0.5271 0.0
C480 C 0.69497 0.97139 0.69215 0.0
O481 O 0.68717 0.94156 0.72731 0.0
N482 N 0.72019 0.86164 0.56631 0.0
C483 C 0.71847 0.78166 0.5506 0.0
C484 C 0.74551 0.80427 0.51794 0.0
C485 C 0.74671 0.84407 0.52816 0.0
C486 C 0.6955 0.83971 0.60074 0.0
C487 C 0.69427 0.80035 0.59413 0.0
H488 H 0.76998 0.85987 0.50764 0.0
H489 H 0.67704 0.85286 0.63579 0.0
H490 H 0.69858 0.95271 0.4617 0.0
H491 H 0.6167 0.86526 0.45969 0.0
H492 H 0.829 0.90428 0.73861 0.0
H493 H 0.76608 0.79149 0.48575 0.0
H494 H 0.67491 0.78494 0.6251 0.0
C495 C 0.87802 0.894 0.28812 0.0
C496 C 0.88755 0.88542 0.22581 0.0
N497 N 0.86682 0.90847 0.18819 0.0
N498 N 0.85384 0.92417 0.28863 0.0
C499 C 0.84385 0.92838 0.22731 0.0
H500 H 0.89222 0.88255 0.32982 0.0
Co501 Co 0.86167 0.96518 0.3441 0.0
C502 C 0.84498 0.01632 0.21672 0.0
O503 O 0.86836 0.9978 0.17876 0.0
N504 N 0.87142 1.00236 0.40109 0.0
C505 C 0.87598 0.05104 0.46728 0.0
C506 C 0.86364 0.03969 0.40742 0.0
C507 C 0.88978 0.9922 0.45477 0.0
N508 N 0.89153 0.0205 0.4972 0.0
O509 O 0.8089 0.95671 0.38362 0.0
H510 H 0.84819 0.05673 0.37286 0.0
H511 H 0.8983 0.96331 0.46549 0.0
O512 O 0.84198 1.00635 0.27704 0.0
C513 C 0.80391 0.94467 0.44214 0.0
O514 O 0.83382 0.93674 0.47708 0.0
N515 N 0.91359 0.96999 0.31607 0.0
C516 C 0.99362 0.96829 0.30028 0.0
C517 C 0.97097 0.99529 0.26759 0.0
C518 C 0.93114 0.99647 0.27785 0.0
C519 C 0.93556 0.94531 0.35048 0.0
C520 C 0.97494 0.9441 0.34383 0.0
H521 H 0.9153 0.0197 0.25728 0.0
H522 H 0.92243 0.92687 0.38555 0.0
H523 H 0.82259 0.94837 0.21141 0.0
H524 H 0.91007 0.8665 0.21001 0.0
H525 H 0.87084 0.07858 0.48874 0.0
H526 H 0.98374 0.01584 0.23537 0.0
H527 H 0.99038 0.92476 0.37479 0.0
C528 C 0.63515 0.61222 0.52515 0.0
C529 C 0.62473 0.62152 0.46337 0.0
N530 N 0.65156 0.60698 0.42455 0.0
N531 N 0.66976 0.59505 0.52413 0.0
C532 C 0.67573 0.58777 0.46223 0.0
H533 H 0.62074 0.62178 0.56804 0.0
Co534 Co 0.70908 0.60669 0.5814 0.0
C535 C 0.76239 0.59675 0.45802 0.0
O536 O 0.74365 0.62251 0.42483 0.0
N537 N 0.7444 0.6192 0.63932 0.0
C538 C 0.7924 0.62645 0.70571 0.0
C539 C 0.78189 0.61265 0.64661 0.0
C540 C 0.73314 0.63825 0.69166 0.0
N541 N 0.76113 0.64126 0.73468 0.0
O542 O 0.70312 0.55428 0.62265 0.0
H543 H 0.79966 0.59717 0.61319 0.0
H544 H 0.70383 0.64646 0.70057 0.0
O545 O 0.75202 0.58908 0.51688 0.0
C546 C 0.6915 0.54977 0.68143 0.0
O547 O 0.68189 0.57981 0.71476 0.0
N548 N 0.71237 0.65845 0.55107 0.0
C549 C 0.71614 0.73892 0.54373 0.0
C550 C 0.74808 0.71618 0.52887 0.0
C551 C 0.74563 0.67611 0.53301 0.0
C552 C 0.68178 0.6805 0.56709 0.0
C553 C 0.68217 0.71989 0.55963 0.0
H554 H 0.77157 0.65985 0.52747 0.0
H555 H 0.65785 0.66839 0.5919 0.0
H556 H 0.69842 0.5701 0.44478 0.0
H557 H 0.60121 0.63957 0.44884 0.0
H558 H 0.82006 0.62267 0.72752 0.0
H559 H 0.77547 0.72899 0.51833 0.0
H560 H 0.65623 0.73521 0.57089 0.0
C561 C 0.66329 0.38509 0.7752 0.0
C562 C 0.65393 0.37464 0.71347 0.0
N563 N 0.66839 0.40146 0.67457 0.0
N564 N 0.6804 0.41971 0.77407 0.0
C565 C 0.6876 0.42567 0.71214 0.0
H566 H 0.65378 0.3707 0.81815 0.0
Co567 Co 0.66868 0.45896 0.83133 0.0
C568 C 0.67873 0.5123 0.70801 0.0
O569 O 0.65299 0.4936 0.6747 0.0
N570 N 0.65611 0.49421 0.88928 0.0
C571 C 0.64893 0.5421 0.95583 0.0
C572 C 0.66267 0.53167 0.89666 0.0
C573 C 0.63711 0.4829 0.94165 0.0
N574 N 0.63415 0.51081 0.98476 0.0
O575 O 0.72108 0.45301 0.87271 0.0
H576 H 0.67815 0.54946 0.86325 0.0
H577 H 0.62889 0.45361 0.95051 0.0
O578 O 0.68635 0.50191 0.76688 0.0
C579 C 0.72547 0.44114 0.93137 0.0
O580 O 0.69535 0.43118 0.96427 0.0
N581 N 0.61691 0.46224 0.80088 0.0
C582 C 0.53638 0.46598 0.79338 0.0
C583 C 0.55913 0.49792 0.77862 0.0
C584 C 0.59923 0.49548 0.78283 0.0
C585 C 0.59485 0.43165 0.81678 0.0
C586 C 0.55544 0.43203 0.80925 0.0
H587 H 0.61551 0.52141 0.77735 0.0
H588 H 0.60695 0.40771 0.84156 0.0
H589 H 0.70527 0.44833 0.69458 0.0
H590 H 0.63591 0.35108 0.69903 0.0
H591 H 0.65275 0.56971 0.97771 0.0
H592 H 0.54631 0.52529 0.76811 0.0
H593 H 0.5401 0.4061 0.82042 0.0
C594 C 0.89029 0.41328 0.02552 0.0
C595 C 0.90086 0.40384 0.96387 0.0
N596 N 0.87399 0.4181 0.9248 0.0
N597 N 0.85558 0.43023 1.02417 0.0
C598 C 0.84965 0.43727 0.96218 0.0
H599 H 0.90465 0.40389 0.06858 0.0
Co600 Co 0.81633 0.41842 0.0814 0.0
C601 C 0.76295 0.4284 0.95808 0.0
O602 O 0.78168 0.40266 0.92487 0.0
N603 N 0.78108 0.40571 0.13936 0.0
C604 C 0.7332 0.39806 0.20583 0.0
C605 C 0.74357 0.41205 0.14678 0.0
C606 C 0.79249 0.38658 0.19154 0.0
N607 N 0.76458 0.38335 0.23466 0.0
O608 O 0.82221 0.47081 0.1228 0.0
H609 H 0.72567 0.42747 0.11345 0.0
H610 H 0.82185 0.37849 0.20029 0.0
O611 O 0.77332 0.43606 1.01695 0.0
C612 C 0.83363 0.4754 0.18168 0.0
O613 O 0.84293 0.44541 0.21538 0.0
N614 N 0.81312 0.3667 0.05084 0.0
C615 C 0.80939 0.28622 0.04328 0.0
C616 C 0.77739 0.30895 0.0287 0.0
C617 C 0.77983 0.34902 0.03294 0.0
C618 C 0.84378 0.34465 0.0665 0.0
C619 C 0.84339 0.30526 0.05894 0.0
H620 H 0.75386 0.36527 0.02761 0.0
H621 H 0.86779 0.35672 0.09112 0.0
H622 H 0.82696 0.45484 0.94445 0.0
H623 H 0.92451 0.3859 0.94962 0.0
H624 H 0.70553 0.40162 0.22771 0.0
H625 H 0.74998 0.29614 1.01833 0.0
H626 H 0.86936 0.28993 0.06997 0.0
C627 C 0.86226 0.64013 0.27519 0.0
C628 C 0.87184 0.65052 0.2135 0.0
N629 N 0.85744 0.62369 0.17455 0.0
N630 N 0.84508 0.60555 0.27401 0.0
C631 C 0.83807 0.59956 0.21203 0.0
H632 H 0.8717 0.65452 0.31819 0.0
Co633 Co 0.85668 0.56627 0.3313 0.0
C634 C 0.84654 0.51286 0.20808 0.0
O635 O 0.87238 0.5314 0.17473 0.0
N636 N 0.86916 0.53098 0.38924 0.0
C637 C 0.87628 0.48306 0.45574 0.0
C638 C 0.86248 0.49355 0.39664 0.0
C639 C 0.88829 0.54222 0.44153 0.0
N640 N 0.89125 0.51428 0.48459 0.0
O641 O 0.80428 0.57231 0.37258 0.0
H642 H 0.84688 0.47582 0.3633 0.0
H643 H 0.89659 0.57149 0.45038 0.0
O644 O 0.83894 0.52336 0.26689 0.0
C645 C 0.79986 0.584 0.43133 0.0
O646 O 0.82996 0.59368 0.46451 0.0
N647 N 0.90846 0.5629 0.30094 0.0
C648 C 0.98899 0.55907 0.2936 0.0
C649 C 0.96621 0.52717 0.27874 0.0
C650 C 0.92611 0.52965 0.28288 0.0
C651 C 0.93055 0.59345 0.31695 0.0
C652 C 0.96997 0.59302 0.30951 0.0
H653 H 0.9098 0.50374 0.27735 0.0
H654 H 0.91847 0.61738 0.34174 0.0
H655 H 0.82038 0.57694 0.1944 0.0
H656 H 0.88995 0.67403 0.19916 0.0
H657 H 0.8724 0.45546 0.47765 0.0
H658 H 0.97901 0.49979 0.2682 0.0
H659 H 0.98533 0.61893 0.32078 0.0
C660 C 0.64445 0.39721 0.51045 0.0
C661 C 0.63577 0.38792 0.57282 0.0
N662 N 0.65884 0.40871 0.61032 0.0
N663 N 0.6747 0.4213 0.50981 0.0
C664 C 0.67885 0.43149 0.57104 0.0
H665 H 0.633 0.38293 0.46886 0.0
Co666 Co 0.71572 0.41336 0.45437 0.0
C667 C 0.76681 0.42987 0.58189 0.0
O668 O 0.74808 0.40659 0.61971 0.0
N669 N 0.7529 0.4035 0.39737 0.0
C670 C 0.80158 0.39859 0.33118 0.0
C671 C 0.79031 0.41101 0.39104 0.0
C672 C 0.74262 0.38519 0.34371 0.0
N673 N 0.77091 0.38329 0.30123 0.0
O674 O 0.70737 0.46613 0.41482 0.0
H675 H 0.80748 0.42629 0.42562 0.0
H676 H 0.71366 0.37683 0.33305 0.0
O677 O 0.75697 0.43292 0.5215 0.0
C678 C 0.69543 0.47126 0.35626 0.0
O679 O 0.68765 0.44145 0.32104 0.0
N680 N 0.72041 0.36147 0.48244 0.0
C681 C 0.71865 0.28151 0.49835 0.0
C682 C 0.74572 0.30413 0.53093 0.0
C683 C 0.74692 0.34392 0.52063 0.0
C684 C 0.69566 0.33954 0.44812 0.0
C685 C 0.69441 0.30018 0.45486 0.0
H686 H 0.77021 0.35972 0.54111 0.0
H687 H 0.67721 0.35267 0.41305 0.0
H688 H 0.69894 0.4527 0.58681 0.0
H689 H 0.61678 0.3655 0.58878 0.0
H690 H 0.8292 0.4035 0.30975 0.0
H691 H 0.76631 0.29135 0.56311 0.0
H692 H 0.67501 0.28476 0.42398 0.0
C693 C 0.87862 0.39405 0.76078 0.0
C694 C 0.88789 0.38549 0.82321 0.0
N695 N 0.86688 0.40844 0.86055 0.0
N696 N 0.85432 0.42412 0.75994 0.0
C697 C 0.84401 0.42827 0.82112 0.0
H698 H 0.89307 0.38267 0.71928 0.0
Co699 Co 0.86202 0.46512 0.70441 0.0
C700 C 0.84538 0.51618 0.83186 0.0
O701 O 0.86871 0.49757 0.86978 0.0
N702 N 0.87162 0.50232 0.6474 0.0
C703 C 0.87591 0.55105 0.58123 0.0
C704 C 0.86376 0.53965 0.64117 0.0
C705 C 0.88983 0.49222 0.59356 0.0
N706 N 0.8914 0.52054 0.55115 0.0
O707 O 0.80923 0.4566 0.66501 0.0
H708 H 0.84836 0.55665 0.67584 0.0
H709 H 0.89837 0.46335 0.58274 0.0
O710 O 0.84237 0.50627 0.77152 0.0
C711 C 0.80428 0.44434 0.60661 0.0
O712 O 0.83423 0.43606 0.57199 0.0
N713 N 0.91396 0.47 0.73228 0.0
C714 C 0.99399 0.4683 0.74798 0.0
C715 C 0.97135 0.49523 0.78083 0.0
C716 C 0.93152 0.49641 0.77063 0.0
C717 C 0.93592 0.44542 0.69769 0.0
C718 C 0.9753 0.44421 0.70429 0.0
H719 H 0.91568 0.51957 0.79139 0.0
H720 H 0.92275 0.427 0.6626 0.0
H721 H 0.82268 0.44826 0.83675 0.0
H722 H 0.91043 0.36667 0.83931 0.0
H723 H 0.87065 0.57859 0.55982 0.0
H724 H 0.98414 0.51571 0.81316 0.0
H725 H 0.99074 0.42493 0.67323 0.0
C726 C 0.88156 0.62787 1.01051 0.0
C727 C 0.89015 0.63725 0.07288 0.0
N728 N 0.86711 0.61641 0.11036 0.0
N729 N 0.85139 0.60368 1.00982 0.0
C730 C 0.8472 0.59353 0.07107 0.0
H731 H 0.893 0.64217 0.96892 0.0
Co732 Co 0.81035 0.61146 0.95432 0.0
C733 C 0.75925 0.59495 0.08175 0.0
O734 O 0.77783 0.61838 0.11952 0.0
N735 N 0.77312 0.62117 0.89734 0.0
C736 C 0.72433 0.62579 0.83129 0.0
C737 C 0.73574 0.61345 0.89112 0.0
C738 C 0.78325 0.63949 0.84362 0.0
N739 N 0.75489 0.64126 0.80126 0.0
O740 O 0.8188 0.55869 0.91492 0.0
H741 H 0.7187 0.59807 0.92575 0.0
H742 H 0.81217 0.64796 0.83283 0.0
O743 O 0.76916 0.59185 1.02143 0.0
C744 C 0.83076 0.55361 0.85638 0.0
O745 O 0.83857 0.58344 0.82122 0.0
N746 N 0.80554 0.66337 0.98222 0.0
C747 C 0.80726 0.74335 0.99793 0.0
C748 C 0.78023 0.72073 0.0306 0.0
C749 C 0.77903 0.68093 1.02037 0.0
C750 C 0.83024 0.6853 0.94779 0.0
C751 C 0.83147 0.72465 0.9544 0.0
H752 H 0.75576 0.66513 0.0409 0.0
H753 H 0.84869 0.67215 0.91274 0.0
H754 H 0.82716 0.57229 0.08683 0.0
H755 H 0.90904 0.65975 0.08884 0.0
H756 H 0.69673 0.62071 0.80992 0.0
H757 H 0.75966 0.73351 0.06278 0.0
H758 H 0.85083 0.74006 0.92343 0.0
C759 C 0.64773 0.63101 0.26041 0.0
C760 C 0.63819 0.63959 0.32271 0.0
N761 N 0.65892 0.61654 0.36034 0.0
N762 N 0.67189 0.60083 0.2599 0.0
C763 C 0.68189 0.59663 0.32121 0.0
H764 H 0.63353 0.64246 0.21871 0.0
Co765 Co 0.66407 0.55983 0.20442 0.0
C766 C 0.68075 0.50869 0.33181 0.0
O767 O 0.65737 0.5272 0.36976 0.0
N768 N 0.65431 0.52265 0.14744 0.0
C769 C 0.64974 0.47397 0.08125 0.0
C770 C 0.66209 0.48531 0.14111 0.0
C771 C 0.63595 0.53281 0.09376 0.0
N772 N 0.6342 0.50451 0.05133 0.0
O773 O 0.71683 0.56829 0.1649 0.0
H774 H 0.67753 0.46827 0.17567 0.0
H775 H 0.62743 0.5617 0.08304 0.0
O776 O 0.68375 0.51866 0.27149 0.0
C777 C 0.72182 0.58033 0.10639 0.0
O778 O 0.69192 0.58825 0.07144 0.0
N779 N 0.61215 0.55502 0.23246 0.0
C780 C 0.53211 0.55672 0.24825 0.0
C781 C 0.55476 0.52972 0.28093 0.0
C782 C 0.59459 0.52854 0.27068 0.0
C783 C 0.59018 0.5797 0.19805 0.0
C784 C 0.55079 0.58092 0.2047 0.0
H785 H 0.61043 0.50531 0.29124 0.0
H786 H 0.60331 0.59815 0.16298 0.0
H787 H 0.70315 0.57663 0.33712 0.0
H788 H 0.61567 0.65851 0.33852 0.0
H789 H 0.65488 0.44642 0.05979 0.0
H790 H 0.54199 0.50917 0.31314 0.0
H791 H 0.53536 0.60025 0.17373 0.0
C792 C 0.39058 0.4128 0.52337 0.0
C793 C 0.401 0.40349 0.58515 0.0
N794 N 0.37417 0.41804 0.62397 0.0
N795 N 0.35597 0.42996 0.52439 0.0
C796 C 0.35 0.43724 0.58629 0.0
H797 H 0.405 0.40324 0.48048 0.0
Co798 Co 0.31666 0.41832 0.46712 0.0
C799 C 0.26335 0.42826 0.5905 0.0
O800 O 0.28209 0.4025 0.62369 0.0
N801 N 0.28133 0.40581 0.4092 0.0
C802 C 0.23334 0.39855 0.34282 0.0
C803 C 0.24384 0.41235 0.40191 0.0
C804 C 0.29259 0.38675 0.35687 0.0
N805 N 0.26461 0.38374 0.31384 0.0
O806 O 0.32261 0.47073 0.42587 0.0
H807 H 0.22607 0.42783 0.43533 0.0
H808 H 0.3219 0.37855 0.34795 0.0
O809 O 0.27371 0.43593 0.53165 0.0
C810 C 0.33423 0.47524 0.36709 0.0
O811 O 0.34383 0.4452 0.33375 0.0
N812 N 0.31337 0.36656 0.49745 0.0
C813 C 0.3096 0.28609 0.50479 0.0
C814 C 0.27766 0.30883 0.51965 0.0
C815 C 0.28011 0.3489 0.51551 0.0
C816 C 0.34395 0.34451 0.48143 0.0
C817 C 0.34356 0.30512 0.48889 0.0
H818 H 0.25417 0.36516 0.52105 0.0
H819 H 0.36788 0.35662 0.45662 0.0
H820 H 0.32731 0.45491 0.60374 0.0
H821 H 0.42452 0.38545 0.59968 0.0
H822 H 0.20567 0.40233 0.321 0.0
H823 H 0.25027 0.29602 0.5302 0.0
H824 H 0.3695 0.2898 0.47764 0.0
C825 C 0.36244 0.63992 0.27332 0.0
C826 C 0.37181 0.65038 0.33506 0.0
N827 N 0.35734 0.62355 0.37395 0.0
N828 N 0.34533 0.60531 0.27445 0.0
C829 C 0.33813 0.59935 0.33638 0.0
H830 H 0.37195 0.65431 0.23037 0.0
Co831 Co 0.35705 0.56606 0.21719 0.0
C832 C 0.347 0.51272 0.34051 0.0
O833 O 0.37273 0.53142 0.37382 0.0
N834 N 0.36962 0.5308 0.15924 0.0
C835 C 0.37679 0.48292 0.09269 0.0
C836 C 0.36306 0.49335 0.15186 0.0
C837 C 0.38862 0.54212 0.10687 0.0
N838 N 0.39158 0.5142 0.06376 0.0
O839 O 0.30465 0.57201 0.17582 0.0
H840 H 0.34758 0.47556 0.18527 0.0
H841 H 0.39684 0.57141 0.09801 0.0
O842 O 0.33938 0.52311 0.28164 0.0
C843 C 0.30026 0.58388 0.11715 0.0
O844 O 0.33038 0.59385 0.08426 0.0
N845 N 0.40882 0.56277 0.24764 0.0
C846 C 0.48935 0.55903 0.25512 0.0
C847 C 0.4666 0.5271 0.2699 0.0
C848 C 0.4265 0.52953 0.26569 0.0
C849 C 0.43088 0.59336 0.23173 0.0
C850 C 0.47029 0.59298 0.23926 0.0
H851 H 0.41022 0.5036 0.27117 0.0
H852 H 0.41878 0.6173 0.20695 0.0
H853 H 0.32046 0.57669 0.35394 0.0
H854 H 0.38982 0.67393 0.3495 0.0
H855 H 0.37297 0.45531 0.0708 0.0
H856 H 0.47942 0.49972 0.28042 0.0
H857 H 0.48562 0.61892 0.22809 0.0
C858 C 0.13544 0.61173 1.023 0.0
C859 C 0.12487 0.62118 0.08465 0.0
N860 N 0.15174 0.60692 0.12372 0.0
N861 N 0.17015 0.59478 0.02435 0.0
C862 C 0.17608 0.58775 0.08634 0.0
H863 H 0.12108 0.62113 0.97994 0.0
Co864 Co 0.20941 0.6066 0.96712 0.0
C865 C 0.26278 0.59662 0.09044 0.0
O866 O 0.24405 0.62236 0.12365 0.0
N867 N 0.24466 0.61931 0.90917 0.0
C868 C 0.29254 0.62696 0.84269 0.0
C869 C 0.28217 0.61298 0.90174 0.0
C870 C 0.23325 0.63844 0.85699 0.0
N871 N 0.26116 0.64167 0.81386 0.0
O872 O 0.20353 0.55421 0.92572 0.0
H873 H 0.30006 0.59755 0.93507 0.0
H874 H 0.20389 0.64653 0.84823 0.0
O875 O 0.25242 0.58896 0.03157 0.0
C876 C 0.19211 0.54961 0.86684 0.0
O877 O 0.18282 0.57961 0.83313 0.0
N878 N 0.21262 0.65832 0.99768 0.0
C879 C 0.21634 0.73879 1.00525 0.0
C880 C 0.24834 0.71606 1.01982 0.0
C881 C 0.2459 0.676 1.01558 0.0
C882 C 0.18195 0.68037 0.98202 0.0
C883 C 0.18234 0.71976 0.98958 0.0
H884 H 0.27187 0.65974 1.02091 0.0
H885 H 0.15794 0.6683 0.9574 0.0
H886 H 0.19878 0.57018 0.10407 0.0
H887 H 0.10122 0.63911 0.0989 0.0
H888 H 0.32021 0.62341 0.82081 0.0
H889 H 0.27575 0.72888 0.03019 0.0
H890 H 0.15637 0.73509 0.97856 0.0
C891 C 0.16347 0.38488 0.77333 0.0
C892 C 0.15389 0.37449 0.83502 0.0
N893 N 0.16829 0.40132 0.87397 0.0
N894 N 0.18065 0.41946 0.77451 0.0
C895 C 0.18766 0.42546 0.83649 0.0
H896 H 0.15403 0.37049 0.73034 0.0
Co897 Co 0.16905 0.45874 0.71722 0.0
C898 C 0.17919 0.51216 0.84044 0.0
O899 O 0.15336 0.49361 0.87379 0.0
N900 N 0.15657 0.49403 0.65928 0.0
C901 C 0.14946 0.54196 0.59278 0.0
C902 C 0.16326 0.53146 0.65188 0.0
C903 C 0.13745 0.48279 0.60699 0.0
N904 N 0.13449 0.51074 0.56393 0.0
O905 O 0.22146 0.4527 0.67594 0.0
H906 H 0.17886 0.54919 0.68522 0.0
H907 H 0.12914 0.45352 0.59814 0.0
O908 O 0.1868 0.50165 0.78164 0.0
C909 C 0.22588 0.44101 0.61719 0.0
O910 O 0.19577 0.43132 0.58403 0.0
N911 N 0.11728 0.46211 0.74758 0.0
C912 C 0.03675 0.46594 0.7549 0.0
C913 C 0.05953 0.49784 0.76978 0.0
C914 C 0.09963 0.49536 0.76564 0.0
C915 C 0.09518 0.43156 0.73156 0.0
C916 C 0.05577 0.43199 0.739 0.0
H917 H 0.11594 0.52127 0.77118 0.0
H918 H 0.10727 0.40763 0.70677 0.0
H919 H 0.20536 0.44807 0.85413 0.0
H920 H 0.13579 0.35099 0.84936 0.0
H921 H 0.15335 0.56955 0.57087 0.0
H922 H 0.04673 0.52522 0.78032 0.0
H923 H 0.0404 0.40609 0.72773 0.0
C924 C 0.38128 0.6278 0.53807 0.0
C925 C 0.38996 0.6371 0.4757 0.0
N926 N 0.36689 0.61631 0.43821 0.0
N927 N 0.35103 0.60372 0.53871 0.0
C928 C 0.34688 0.59352 0.47748 0.0
H929 H 0.39273 0.64209 0.57966 0.0
Co930 Co 0.31001 0.61165 0.59416 0.0
C931 C 0.25893 0.59515 0.46664 0.0
O932 O 0.27766 0.61843 0.42882 0.0
N933 N 0.27284 0.62152 0.65115 0.0
C934 C 0.22415 0.62643 0.71734 0.0
C935 C 0.23542 0.61401 0.65749 0.0
C936 C 0.28311 0.63983 0.70481 0.0
N937 N 0.25482 0.64174 0.74729 0.0
O938 O 0.31836 0.55888 0.6337 0.0
H939 H 0.21825 0.59874 0.6229 0.0
H940 H 0.31208 0.64819 0.71547 0.0
O941 O 0.26876 0.59209 0.52702 0.0
C942 C 0.33029 0.55376 0.69226 0.0
O943 O 0.33807 0.58356 0.72749 0.0
N944 N 0.30532 0.66354 0.56608 0.0
C945 C 0.30708 0.74351 0.55017 0.0
C946 C 0.28001 0.72089 0.51759 0.0
C947 C 0.27881 0.6811 0.5279 0.0
C948 C 0.33007 0.68548 0.6004 0.0
C949 C 0.33133 0.72483 0.59366 0.0
H950 H 0.25552 0.6653 0.50742 0.0
H951 H 0.34852 0.67235 0.63547 0.0
H952 H 0.32679 0.57231 0.46171 0.0
H953 H 0.40895 0.65951 0.45974 0.0
H954 H 0.19653 0.62153 0.73877 0.0
H955 H 0.25943 0.73367 0.48542 0.0
H956 H 0.35073 0.74026 0.62454 0.0
C957 C 0.14711 0.63096 0.28774 0.0
C958 C 0.13784 0.63953 0.22531 0.0
N959 N 0.15885 0.61658 0.18797 0.0
N960 N 0.17141 0.6009 0.28858 0.0
C961 C 0.18172 0.59675 0.2274 0.0
H962 H 0.13266 0.64235 0.32924 0.0
Co963 Co 0.16372 0.55989 0.34411 0.0
C964 C 0.18036 0.50884 0.21666 0.0
O965 O 0.15703 0.52744 0.17873 0.0
N966 N 0.15411 0.52269 0.40112 0.0
C967 C 0.14984 0.47396 0.46729 0.0
C968 C 0.16198 0.48536 0.40735 0.0
C969 C 0.13591 0.53279 0.45496 0.0
N970 N 0.13434 0.50447 0.49737 0.0
O971 O 0.21651 0.56842 0.38351 0.0
H972 H 0.17738 0.46837 0.37268 0.0
H973 H 0.12736 0.56166 0.46578 0.0
O974 O 0.18337 0.51875 0.277 0.0
C975 C 0.22145 0.58068 0.44191 0.0
O976 O 0.1915 0.58896 0.47652 0.0
N977 N 0.11178 0.55501 0.31624 0.0
C978 C 0.03174 0.55671 0.30054 0.0
C979 C 0.05439 0.52978 0.26769 0.0
C980 C 0.09422 0.5286 0.27788 0.0
C981 C 0.08982 0.57959 0.35083 0.0
C982 C 0.05043 0.5808 0.34422 0.0
H983 H 0.11006 0.50544 0.25713 0.0
H984 H 0.10298 0.59801 0.38592 0.0
H985 H 0.20305 0.57675 0.21177 0.0
H986 H 0.1153 0.65834 0.20921 0.0
H987 H 0.1551 0.44643 0.4887 0.0
H988 H 0.0416 0.5093 0.23535 0.0
H989 H 0.035 0.60008 0.37529 0.0
C990 C 0.14418 0.39715 0.03802 0.0
C991 C 0.13559 0.38777 0.97564 0.0
N992 N 0.15863 0.4086 0.93817 0.0
N993 N 0.17434 0.42133 0.0387 0.0
C994 C 0.17853 0.43148 0.97746 0.0
H995 H 0.13273 0.38284 0.07961 0.0
Co996 Co 0.21539 0.41355 0.09421 0.0
C997 C 0.26648 0.43006 0.96677 0.0
O998 O 0.2479 0.40663 0.929 0.0
N999 N 0.25261 0.40384 0.15118 0.0
C1000 C 0.3014 0.39921 0.21724 0.0
C1001 C 0.29 0.41156 0.1574 0.0
C1002 C 0.24248 0.38552 0.2049 0.0
N1003 N 0.27084 0.38374 0.24726 0.0
O1004 O 0.20693 0.46632 0.1336 0.0
H1005 H 0.30704 0.42693 0.12278 0.0
H1006 H 0.21357 0.37705 0.21569 0.0
O1007 O 0.25657 0.43316 0.02709 0.0
C1008 C 0.19498 0.4714 0.19214 0.0
O1009 O 0.18718 0.44158 0.22731 0.0
N1010 N 0.22019 0.36164 0.0663 0.0
C1011 C 0.21847 0.28167 0.0506 0.0
C1012 C 0.24551 0.30428 1.01793 0.0
C1013 C 0.2467 0.34408 0.02815 0.0
C1014 C 0.1955 0.33971 0.10073 0.0
C1015 C 0.19427 0.30036 0.09412 0.0
H1016 H 0.26998 0.35988 1.00763 0.0
H1017 H 0.17704 0.35287 0.13578 0.0
H1018 H 0.19858 0.45272 0.9617 0.0
H1019 H 0.1167 0.36527 0.95968 0.0
H1020 H 0.329 0.40429 0.23861 0.0
H1021 H 0.26608 0.2915 0.98574 0.0
H1022 H 0.17491 0.28495 0.12509 0.0
C1023 C 0.37801 0.39401 0.78811 0.0
C1024 C 0.38755 0.38543 0.72581 0.0
N1025 N 0.36682 0.40848 0.68818 0.0
N1026 N 0.35384 0.42418 0.78862 0.0
C1027 C 0.34385 0.42839 0.72731 0.0
H1028 H 0.39221 0.38256 0.82981 0.0
Co1029 Co 0.36167 0.46518 0.8441 0.0
C1030 C 0.34497 0.51633 0.71671 0.0
O1031 O 0.36835 0.49781 0.67876 0.0
N1032 N 0.37142 0.50236 0.90108 0.0
C1033 C 0.37598 0.55105 0.96727 0.0
C1034 C 0.36363 0.5397 0.90741 0.0
C1035 C 0.38978 0.49221 0.95476 0.0
N1036 N 0.39152 0.5205 0.9972 0.0
O1037 O 0.3089 0.45672 0.88362 0.0
H1038 H 0.34819 0.55674 0.87285 0.0
H1039 H 0.3983 0.46331 0.96548 0.0
O1040 O 0.34197 0.50636 0.77703 0.0
C1041 C 0.30391 0.44467 0.94213 0.0
O1042 O 0.33382 0.43675 0.97707 0.0
N1043 N 0.41359 0.46999 0.81606 0.0
C1044 C 0.49362 0.4683 0.80027 0.0
C1045 C 0.47097 0.4953 0.76759 0.0
C1046 C 0.43114 0.49647 0.77784 0.0
C1047 C 0.43555 0.44532 0.85048 0.0
C1048 C 0.47494 0.4441 0.84382 0.0
H1049 H 0.4153 0.5197 0.75727 0.0
H1050 H 0.42242 0.42687 0.88555 0.0
H1051 H 0.32259 0.44838 0.7114 0.0
H1052 H 0.41007 0.36651 0.71 0.0
H1053 H 0.37084 0.57859 0.98873 0.0
H1054 H 0.48374 0.51585 0.73537 0.0
H1055 H 0.49037 0.42476 0.87479 0.0
loop_
_geom_bond_atom_site_label_1
_geom_bond_atom_site_label_2
_geom_bond_distance
_geom_bond_site_symmetry_2
_ccdc_geom_bond_type
C0 C1 1.351 . S
C0 N3 1.368 . S
C0 H5 0.931 1_556 S
C1 C0 1.351 . S
C1 N2 1.373 . S
C1 H29 0.930 . S
N2 C1 1.373 . S
N2 C4 1.340 . S
N3 C0 1.368 . S
N3 C4 1.321 . S
N3 Co6 2.135 1_556 S
C4 N2 1.340 . S
C4 N3 1.321 . S
C4 H28 0.930 . S
H5 C0 0.931 1_554 S
Co6 N3 2.135 1_554 S
Co6 N9 2.121 . S
Co6 O14 2.055 . S
Co6 O17 2.039 . S
Co6 N20 2.140 . S
C7 O8 1.227 . S
C7 O17 1.265 1_556 S
O8 C7 1.227 . S
N9 Co6 2.121 . S
N9 C11 1.375 . S
N9 C12 1.313 . S
C10 C11 1.338 . S
C10 N13 1.377 . S
C10 H30 0.930 . S
C11 N9 1.375 . S
C11 C10 1.338 . S
C11 H15 0.931 . S
C12 N9 1.313 . S
C12 N13 1.344 . S
C12 H16 0.930 . S
N13 C10 1.377 . S
N13 C12 1.344 . S
O14 Co6 2.055 . S
O14 C18 1.253 . S
H15 C11 0.931 . S
H16 C12 0.930 . S
O17 Co6 2.039 . S
O17 C7 1.265 1_554 S
C18 O14 1.253 . S
C18 O19 1.227 . S
O19 C18 1.227 . S
N20 Co6 2.140 . S
N20 C23 1.346 . S
N20 C24 1.345 . S
C21 C22 1.395 . S
C21 C25 1.391 . S
C22 C21 1.395 . S
C22 C23 1.370 . S
C22 H31 0.921 1_554 S
C23 N20 1.346 . S
C23 C22 1.370 . S
C23 H26 0.928 1_554 S
C24 N20 1.345 . S
C24 C25 1.371 . S
C24 H27 0.931 . S
C25 C21 1.391 . S
C25 C24 1.371 . S
C25 H32 0.930 . S
H26 C23 0.928 1_556 S
H27 C24 0.931 . S
H28 C4 0.930 . S
H29 C1 0.930 . S
H30 C10 0.930 . S
H31 C22 0.921 1_556 S
H32 C25 0.930 . S
C33 C34 1.351 . S
C33 N36 1.368 . S
C33 H38 0.931 . S
C34 C33 1.351 . S
C34 N35 1.373 . S
C34 H62 0.930 . S
N35 C34 1.373 . S
N35 C37 1.340 . S
N36 C33 1.368 . S
N36 C37 1.321 . S
N36 Co39 2.135 . S
C37 N35 1.340 . S
C37 N36 1.321 . S
C37 H61 0.930 . S
H38 C33 0.931 . S
Co39 N36 2.135 . S
Co39 N42 2.121 . S
Co39 O47 2.055 . S
Co39 O50 2.039 . S
Co39 N53 2.140 . S
C40 O41 1.227 . S
C40 O50 1.265 1_545 S
O41 C40 1.227 . S
N42 Co39 2.121 . S
N42 C44 1.375 1_565 S
N42 C45 1.313 . S
C43 C44 1.338 . S
C43 N46 1.377 . S
C43 H63 0.930 . S
C44 N42 1.375 1_545 S
C44 C43 1.338 . S
C44 H48 0.931 . S
C45 N42 1.313 . S
C45 N46 1.344 1_565 S
C45 H49 0.930 . S
N46 C43 1.377 . S
N46 C45 1.344 1_545 S
O47 Co39 2.055 . S
O47 C51 1.253 . S
H48 C44 0.931 . S
H49 C45 0.930 . S
O50 Co39 2.039 . S
O50 C40 1.265 1_565 S
C51 O47 1.253 . S
C51 O52 1.227 . S
O52 C51 1.227 . S
N53 Co39 2.140 . S
N53 C56 1.346 . S
N53 C57 1.345 . S
C54 C55 1.387 . S
C54 C58 1.391 . S
C55 C54 1.387 . S
C55 C56 1.369 . S
C55 H64 0.929 . S
C56 N53 1.346 . S
C56 C55 1.369 . S
C56 H59 0.928 . S
C57 N53 1.345 . S
C57 C58 1.371 . S
C57 H60 0.931 . S
C58 C54 1.391 . S
C58 C57 1.371 . S
C58 H65 0.930 . S
H59 C56 0.928 . S
H60 C57 0.931 . S
H61 C37 0.930 . S
H62 C34 0.930 . S
H63 C43 0.930 . S
H64 C55 0.929 . S
H65 C58 0.930 . S
C66 C67 1.351 . S
C66 N69 1.368 . S
C66 H71 0.931 . S
C67 C66 1.351 . S
C67 N68 1.373 . S
C67 H95 0.930 . S
N68 C67 1.373 . S
N68 C70 1.340 . S
N69 C66 1.368 . S
N69 C70 1.321 . S
N69 Co72 2.135 . S
C70 N68 1.340 . S
C70 N69 1.321 . S
C70 H94 0.930 . S
H71 C66 0.931 . S
Co72 N69 2.135 . S
Co72 N75 2.121 . S
Co72 O80 2.055 . S
Co72 O83 2.039 . S
Co72 N86 2.140 . S
C73 O74 1.227 . S
C73 O83 1.265 . S
O74 C73 1.227 . S
N75 Co72 2.121 . S
N75 C77 1.375 . S
N75 C78 1.313 . S
C76 C77 1.338 . S
C76 N79 1.377 . S
C76 H96 0.930 . S
C77 N75 1.375 . S
C77 C76 1.338 . S
C77 H81 0.931 . S
C78 N75 1.313 . S
C78 N79 1.344 . S
C78 H82 0.930 . S
N79 C76 1.377 . S
N79 C78 1.344 . S
O80 Co72 2.055 . S
O80 C84 1.253 . S
H81 C77 0.931 . S
H82 C78 0.930 . S
O83 Co72 2.039 . S
O83 C73 1.265 . S
C84 O80 1.253 . S
C84 O85 1.227 . S
O85 C84 1.227 . S
N86 Co72 2.140 . S
N86 C89 1.346 . S
N86 C90 1.345 . S
C87 C88 1.387 . S
C87 C91 1.391 . S
C88 C87 1.387 . S
C88 C89 1.369 . S
C88 H97 0.929 . S
C89 N86 1.346 . S
C89 C88 1.369 . S
C89 H92 0.928 . S
C90 N86 1.345 . S
C90 C91 1.371 . S
C90 H93 0.931 . S
C91 C87 1.391 . S
C91 C90 1.371 . S
C91 H98 0.930 . S
H92 C89 0.928 . S
H93 C90 0.931 . S
H94 C70 0.930 . S
H95 C67 0.930 . S
H96 C76 0.930 . S
H97 C88 0.929 . S
H98 C91 0.930 . S
C99 C100 1.351 . S
C99 N102 1.368 . S
C99 H104 0.931 . S
C100 C99 1.351 . S
C100 N101 1.373 . S
C100 H128 0.930 . S
N101 C100 1.373 . S
N101 C103 1.340 . S
N102 C99 1.368 . S
N102 C103 1.321 . S
N102 Co105 2.135 . S
C103 N101 1.340 . S
C103 N102 1.321 . S
C103 H127 0.930 . S
H104 C99 0.931 . S
Co105 N102 2.135 . S
Co105 N108 2.121 . S
Co105 O113 2.055 . S
Co105 O116 2.039 . S
Co105 N119 2.140 . S
C106 O107 1.227 . S
C106 O116 1.265 1_565 S
O107 C106 1.227 . S
N108 Co105 2.121 . S
N108 C110 1.375 1_545 S
N108 C111 1.313 . S
C109 C110 1.338 . S
C109 N112 1.377 . S
C109 H129 0.930 . S
C110 N108 1.375 1_565 S
C110 C109 1.338 . S
C110 H114 0.931 . S
C111 N108 1.313 . S
C111 N112 1.344 1_545 S
C111 H115 0.930 . S
N112 C109 1.377 . S
N112 C111 1.344 1_565 S
O113 Co105 2.055 . S
O113 C117 1.253 . S
H114 C110 0.931 . S
H115 C111 0.930 . S
O116 Co105 2.039 . S
O116 C106 1.265 1_545 S
C117 O113 1.253 . S
C117 O118 1.227 . S
O118 C117 1.227 . S
N119 Co105 2.140 . S
N119 C122 1.346 . S
N119 C123 1.345 . S
C120 C121 1.387 . S
C120 C124 1.391 . S
C121 C120 1.387 . S
C121 C122 1.369 . S
C121 H130 0.929 . S
C122 N119 1.346 . S
C122 C121 1.369 . S
C122 H125 0.928 . S
C123 N119 1.345 . S
C123 C124 1.371 . S
C123 H126 0.931 . S
C124 C120 1.391 . S
C124 C123 1.371 . S
C124 H131 0.930 . S
H125 C122 0.928 . S
H126 C123 0.931 . S
H127 C103 0.930 . S
H128 C100 0.930 . S
H129 C109 0.930 . S
H130 C121 0.929 . S
H131 C124 0.930 . S
C132 C133 1.351 . S
C132 N135 1.368 . S
C132 H137 0.931 1_554 S
C133 C132 1.351 . S
C133 N134 1.373 . S
C133 H161 0.930 . S
N134 C133 1.373 . S
N134 C136 1.340 . S
N135 C132 1.368 . S
N135 C136 1.321 . S
N135 Co138 2.135 1_554 S
C136 N134 1.340 . S
C136 N135 1.321 . S
C136 H160 0.930 . S
H137 C132 0.931 1_556 S
Co138 N135 2.135 1_556 S
Co138 N141 2.121 . S
Co138 O146 2.055 . S
Co138 O149 2.039 . S
Co138 N152 2.140 . S
C139 O140 1.227 . S
C139 O149 1.265 1_554 S
O140 C139 1.227 . S
N141 Co138 2.121 . S
N141 C143 1.375 . S
N141 C144 1.313 . S
C142 C143 1.338 . S
C142 N145 1.377 . S
C142 H162 0.930 . S
C143 N141 1.375 . S
C143 C142 1.338 . S
C143 H147 0.931 . S
C144 N141 1.313 . S
C144 N145 1.344 . S
C144 H148 0.930 . S
N145 C142 1.377 . S
N145 C144 1.344 . S
O146 Co138 2.055 . S
O146 C150 1.253 . S
H147 C143 0.931 . S
H148 C144 0.930 . S
O149 Co138 2.039 . S
O149 C139 1.265 1_556 S
C150 O146 1.253 . S
C150 O151 1.227 . S
O151 C150 1.227 . S
N152 Co138 2.140 . S
N152 C155 1.346 . S
N152 C156 1.345 . S
C153 C154 1.395 . S
C153 C157 1.391 . S
C154 C153 1.395 . S
C154 C155 1.370 . S
C154 H163 0.921 1_556 S
C155 N152 1.346 . S
C155 C154 1.370 . S
C155 H158 0.928 1_556 S
C156 N152 1.345 . S
C156 C157 1.371 . S
C156 H159 0.931 . S
C157 C153 1.391 . S
C157 C156 1.371 . S
C157 H164 0.930 . S
H158 C155 0.928 1_554 S
H159 C156 0.931 . S
H160 C136 0.930 . S
H161 C133 0.930 . S
H162 C142 0.930 . S
H163 C154 0.921 1_554 S
H164 C157 0.930 . S
C165 C166 1.351 . S
C165 N168 1.368 . S
C165 H170 0.931 . S
C166 C165 1.351 . S
C166 N167 1.373 . S
C166 H194 0.930 . S
N167 C166 1.373 . S
N167 C169 1.340 . S
N168 C165 1.368 . S
N168 C169 1.321 . S
N168 Co171 2.135 . S
C169 N167 1.340 . S
C169 N168 1.321 . S
C169 H193 0.930 . S
H170 C165 0.931 . S
Co171 N168 2.135 . S
Co171 N174 2.121 . S
Co171 O179 2.055 . S
Co171 O182 2.039 . S
Co171 N185 2.140 . S
C172 O173 1.227 . S
C172 O182 1.265 1_545 S
O173 C172 1.227 . S
N174 Co171 2.121 . S
N174 C176 1.375 1_565 S
N174 C177 1.313 . S
C175 C176 1.338 . S
C175 N178 1.377 . S
C175 H195 0.930 . S
C176 N174 1.375 1_545 S
C176 C175 1.338 . S
C176 H180 0.931 . S
C177 N174 1.313 . S
C177 N178 1.344 1_565 S
C177 H181 0.930 . S
N178 C175 1.377 . S
N178 C177 1.344 1_545 S
O179 Co171 2.055 . S
O179 C183 1.253 . S
H180 C176 0.931 . S
H181 C177 0.930 . S
O182 Co171 2.039 . S
O182 C172 1.265 1_565 S
C183 O179 1.253 . S
C183 O184 1.227 . S
O184 C183 1.227 . S
N185 Co171 2.140 . S
N185 C188 1.346 . S
N185 C189 1.345 . S
C186 C187 1.387 . S
C186 C190 1.391 . S
C187 C186 1.387 . S
C187 C188 1.369 . S
C187 H196 0.929 . S
C188 N185 1.346 . S
C188 C187 1.369 . S
C188 H191 0.928 . S
C189 N185 1.345 . S
C189 C190 1.371 . S
C189 H192 0.931 . S
C190 C186 1.391 . S
C190 C189 1.371 . S
C190 H197 0.930 . S
H191 C188 0.928 . S
H192 C189 0.931 . S
H193 C169 0.930 . S
H194 C166 0.930 . S
H195 C175 0.930 . S
H196 C187 0.929 . S
H197 C190 0.930 . S
C198 C199 1.351 . S
C198 N201 1.368 . S
C198 H203 0.931 . S
C199 C198 1.351 . S
C199 N200 1.373 . S
C199 H227 0.930 . S
N200 C199 1.373 . S
N200 C202 1.340 . S
N201 C198 1.368 . S
N201 C202 1.321 . S
N201 Co204 2.135 . S
C202 N200 1.340 . S
C202 N201 1.321 . S
C202 H226 0.930 . S
H203 C198 0.931 . S
Co204 N201 2.135 . S
Co204 N207 2.121 . S
Co204 O212 2.055 . S
Co204 O215 2.039 . S
Co204 N218 2.140 . S
C205 O206 1.227 . S
C205 O215 1.265 . S
O206 C205 1.227 . S
N207 Co204 2.121 . S
N207 C209 1.375 . S
N207 C210 1.313 . S
C208 C209 1.338 . S
C208 N211 1.377 . S
C208 H228 0.930 . S
C209 N207 1.375 . S
C209 C208 1.338 . S
C209 H213 0.931 . S
C210 N207 1.313 . S
C210 N211 1.344 . S
C210 H214 0.930 . S
N211 C208 1.377 . S
N211 C210 1.344 . S
O212 Co204 2.055 . S
O212 C216 1.253 . S
H213 C209 0.931 . S
H214 C210 0.930 . S
O215 Co204 2.039 . S
O215 C205 1.265 . S
C216 O212 1.253 . S
C216 O217 1.227 . S
O217 C216 1.227 . S
N218 Co204 2.140 . S
N218 C221 1.346 . S
N218 C222 1.345 . S
C219 C220 1.387 . S
C219 C223 1.391 . S
C220 C219 1.387 . S
C220 C221 1.369 . S
C220 H229 0.929 . S
C221 N218 1.346 . S
C221 C220 1.369 . S
C221 H224 0.928 . S
C222 N218 1.345 . S
C222 C223 1.371 . S
C222 H225 0.931 . S
C223 C219 1.391 . S
C223 C222 1.371 . S
C223 H230 0.930 . S
H224 C221 0.928 . S
H225 C222 0.931 . S
H226 C202 0.930 . S
H227 C199 0.930 . S
H228 C208 0.930 . S
H229 C220 0.929 . S
H230 C223 0.930 . S
C231 C232 1.351 . S
C231 N234 1.368 . S
C231 H236 0.931 . S
C232 C231 1.351 . S
C232 N233 1.373 . S
C232 H260 0.930 . S
N233 C232 1.373 . S
N233 C235 1.340 . S
N234 C231 1.368 . S
N234 C235 1.321 . S
N234 Co237 2.135 . S
C235 N233 1.340 . S
C235 N234 1.321 . S
C235 H259 0.930 . S
H236 C231 0.931 . S
Co237 N234 2.135 . S
Co237 N240 2.121 . S
Co237 O245 2.055 . S
Co237 O248 2.039 . S
Co237 N251 2.140 . S
C238 O239 1.227 . S
C238 O248 1.265 1_565 S
O239 C238 1.227 . S
N240 Co237 2.121 . S
N240 C242 1.375 1_545 S
N240 C243 1.313 . S
C241 C242 1.338 . S
C241 N244 1.377 . S
C241 H261 0.930 . S
C242 N240 1.375 1_565 S
C242 C241 1.338 . S
C242 H246 0.931 . S
C243 N240 1.313 . S
C243 N244 1.344 1_545 S
C243 H247 0.930 . S
N244 C241 1.377 . S
N244 C243 1.344 1_565 S
O245 Co237 2.055 . S
O245 C249 1.253 . S
H246 C242 0.931 . S
H247 C243 0.930 . S
O248 Co237 2.039 . S
O248 C238 1.265 1_545 S
C249 O245 1.253 . S
C249 O250 1.227 . S
O250 C249 1.227 . S
N251 Co237 2.140 . S
N251 C254 1.346 . S
N251 C255 1.345 . S
C252 C253 1.387 . S
C252 C256 1.391 . S
C253 C252 1.387 . S
C253 C254 1.369 . S
C253 H262 0.929 . S
C254 N251 1.346 . S
C254 C253 1.369 . S
C254 H257 0.928 . S
C255 N251 1.345 . S
C255 C256 1.371 . S
C255 H258 0.931 . S
C256 C252 1.391 . S
C256 C255 1.371 . S
C256 H263 0.930 . S
H257 C254 0.928 . S
H258 C255 0.931 . S
H259 C235 0.930 . S
H260 C232 0.930 . S
H261 C241 0.930 . S
H262 C253 0.929 . S
H263 C256 0.930 . S
C264 C265 1.351 . S
C264 N267 1.368 . S
C264 H269 0.931 1_554 S
C265 C264 1.351 . S
C265 N266 1.373 . S
C265 H293 0.930 . S
N266 C265 1.373 . S
N266 C268 1.340 . S
N267 C264 1.368 . S
N267 C268 1.321 . S
N267 Co270 2.135 1_554 S
C268 N266 1.340 . S
C268 N267 1.321 . S
C268 H292 0.930 . S
H269 C264 0.931 1_556 S
Co270 N267 2.135 1_556 S
Co270 N273 2.121 . S
Co270 O278 2.055 . S
Co270 O281 2.039 . S
Co270 N284 2.140 . S
C271 O272 1.227 . S
C271 O281 1.265 1_554 S
O272 C271 1.227 . S
N273 Co270 2.121 . S
N273 C275 1.375 . S
N273 C276 1.313 . S
C274 C275 1.338 . S
C274 N277 1.377 . S
C274 H294 0.930 . S
C275 N273 1.375 . S
C275 C274 1.338 . S
C275 H279 0.931 . S
C276 N273 1.313 . S
C276 N277 1.344 . S
C276 H280 0.930 . S
N277 C274 1.377 . S
N277 C276 1.344 . S
O278 Co270 2.055 . S
O278 C282 1.253 . S
H279 C275 0.931 . S
H280 C276 0.930 . S
O281 Co270 2.039 . S
O281 C271 1.265 1_556 S
C282 O278 1.253 . S
C282 O283 1.227 . S
O283 C282 1.227 . S
N284 Co270 2.140 . S
N284 C287 1.346 . S
N284 C288 1.345 . S
C285 C286 1.395 . S
C285 C289 1.391 . S
C286 C285 1.395 . S
C286 C287 1.370 . S
C286 H295 0.921 1_556 S
C287 N284 1.346 . S
C287 C286 1.370 . S
C287 H290 0.928 1_556 S
C288 N284 1.345 . S
C288 C289 1.371 . S
C288 H291 0.931 . S
C289 C285 1.391 . S
C289 C288 1.371 . S
C289 H296 0.930 . S
H290 C287 0.928 1_554 S
H291 C288 0.931 . S
H292 C268 0.930 . S
H293 C265 0.930 . S
H294 C274 0.930 . S
H295 C286 0.921 1_554 S
H296 C289 0.930 . S
C297 C298 1.351 . S
C297 N300 1.368 . S
C297 H302 0.931 . S
C298 C297 1.351 . S
C298 N299 1.373 . S
C298 H326 0.930 . S
N299 C298 1.373 . S
N299 C301 1.340 . S
N300 C297 1.368 . S
N300 C301 1.321 . S
N300 Co303 2.135 . S
C301 N299 1.340 . S
C301 N300 1.321 . S
C301 H325 0.930 . S
H302 C297 0.931 . S
Co303 N300 2.135 . S
Co303 N306 2.121 . S
Co303 O311 2.055 . S
Co303 O314 2.039 . S
Co303 N317 2.140 . S
C304 O305 1.227 . S
C304 O314 1.265 1_565 S
O305 C304 1.227 . S
N306 Co303 2.121 . S
N306 C308 1.375 1_545 S
N306 C309 1.313 . S
C307 C308 1.338 . S
C307 N310 1.377 . S
C307 H327 0.930 . S
C308 N306 1.375 1_565 S
C308 C307 1.338 . S
C308 H312 0.931 . S
C309 N306 1.313 . S
C309 N310 1.344 1_545 S
C309 H313 0.930 . S
N310 C307 1.377 . S
N310 C309 1.344 1_565 S
O311 Co303 2.055 . S
O311 C315 1.253 . S
H312 C308 0.931 . S
H313 C309 0.930 . S
O314 Co303 2.039 . S
O314 C304 1.265 1_545 S
C315 O311 1.253 . S
C315 O316 1.227 . S
O316 C315 1.227 . S
N317 Co303 2.140 . S
N317 C320 1.346 . S
N317 C321 1.345 . S
C318 C319 1.387 . S
C318 C322 1.391 . S
C319 C318 1.387 . S
C319 C320 1.369 . S
C319 H328 0.929 . S
C320 N317 1.346 . S
C320 C319 1.369 . S
C320 H323 0.928 . S
C321 N317 1.345 . S
C321 C322 1.371 . S
C321 H324 0.931 . S
C322 C318 1.391 . S
C322 C321 1.371 . S
C322 H329 0.930 . S
H323 C320 0.928 . S
H324 C321 0.931 . S
H325 C301 0.930 . S
H326 C298 0.930 . S
H327 C307 0.930 . S
H328 C319 0.929 . S
H329 C322 0.930 . S
C330 C331 1.351 . S
C330 N333 1.368 . S
C330 H335 0.931 . S
C331 C330 1.351 . S
C331 N332 1.373 . S
C331 H359 0.930 . S
N332 C331 1.373 . S
N332 C334 1.340 . S
N333 C330 1.368 . S
N333 C334 1.321 . S
N333 Co336 2.135 . S
C334 N332 1.340 . S
C334 N333 1.321 . S
C334 H358 0.930 . S
H335 C330 0.931 . S
Co336 N333 2.135 . S
Co336 N339 2.121 . S
Co336 O344 2.055 . S
Co336 O347 2.039 . S
Co336 N350 2.140 . S
C337 O338 1.227 . S
C337 O347 1.265 . S
O338 C337 1.227 . S
N339 Co336 2.121 . S
N339 C341 1.375 . S
N339 C342 1.313 . S
C340 C341 1.338 . S
C340 N343 1.377 . S
C340 H360 0.930 . S
C341 N339 1.375 . S
C341 C340 1.338 . S
C341 H345 0.931 . S
C342 N339 1.313 . S
C342 N343 1.344 . S
C342 H346 0.930 . S
N343 C340 1.377 . S
N343 C342 1.344 . S
O344 Co336 2.055 . S
O344 C348 1.253 . S
H345 C341 0.931 . S
H346 C342 0.930 . S
O347 Co336 2.039 . S
O347 C337 1.265 . S
C348 O344 1.253 . S
C348 O349 1.227 . S
O349 C348 1.227 . S
N350 Co336 2.140 . S
N350 C353 1.346 . S
N350 C354 1.345 . S
C351 C352 1.387 . S
C351 C355 1.391 . S
C352 C351 1.387 . S
C352 C353 1.369 . S
C352 H361 0.929 . S
C353 N350 1.346 . S
C353 C352 1.369 . S
C353 H356 0.928 . S
C354 N350 1.345 . S
C354 C355 1.371 . S
C354 H357 0.931 . S
C355 C351 1.391 . S
C355 C354 1.371 . S
C355 H362 0.930 . S
H356 C353 0.928 . S
H357 C354 0.931 . S
H358 C334 0.930 . S
H359 C331 0.930 . S
H360 C340 0.930 . S
H361 C352 0.929 . S
H362 C355 0.930 . S
C363 C364 1.351 . S
C363 N366 1.368 . S
C363 H368 0.931 . S
C364 C363 1.351 . S
C364 N365 1.373 . S
C364 H392 0.930 . S
N365 C364 1.373 . S
N365 C367 1.340 . S
N366 C363 1.368 . S
N366 C367 1.321 . S
N366 Co369 2.135 . S
C367 N365 1.340 . S
C367 N366 1.321 . S
C367 H391 0.930 . S
H368 C363 0.931 . S
Co369 N366 2.135 . S
Co369 N372 2.121 . S
Co369 O377 2.055 . S
Co369 O380 2.039 . S
Co369 N383 2.140 . S
C370 O371 1.227 . S
C370 O380 1.265 1_545 S
O371 C370 1.227 . S
N372 Co369 2.121 . S
N372 C374 1.375 1_565 S
N372 C375 1.313 . S
C373 C374 1.338 . S
C373 N376 1.377 . S
C373 H393 0.930 . S
C374 N372 1.375 1_545 S
C374 C373 1.338 . S
C374 H378 0.931 . S
C375 N372 1.313 . S
C375 N376 1.344 1_565 S
C375 H379 0.930 . S
N376 C373 1.377 . S
N376 C375 1.344 1_545 S
O377 Co369 2.055 . S
O377 C381 1.253 . S
H378 C374 0.931 . S
H379 C375 0.930 . S
O380 Co369 2.039 . S
O380 C370 1.265 1_565 S
C381 O377 1.253 . S
C381 O382 1.227 . S
O382 C381 1.227 . S
N383 Co369 2.140 . S
N383 C386 1.346 . S
N383 C387 1.345 . S
C384 C385 1.387 . S
C384 C388 1.391 . S
C385 C384 1.387 . S
C385 C386 1.369 . S
C385 H394 0.929 . S
C386 N383 1.346 . S
C386 C385 1.369 . S
C386 H389 0.928 . S
C387 N383 1.345 . S
C387 C388 1.371 . S
C387 H390 0.931 . S
C388 C384 1.391 . S
C388 C387 1.371 . S
C388 H395 0.930 . S
H389 C386 0.928 . S
H390 C387 0.931 . S
H391 C367 0.930 . S
H392 C364 0.930 . S
H393 C373 0.930 . S
H394 C385 0.929 . S
H395 C388 0.930 . S
C396 C397 1.351 . S
C396 N399 1.368 . S
C396 H401 0.931 1_556 S
C397 C396 1.351 . S
C397 N398 1.373 . S
C397 H425 0.930 . S
N398 C397 1.373 . S
N398 C400 1.340 . S
N399 C396 1.368 . S
N399 C400 1.321 . S
N399 Co402 2.135 1_556 S
C400 N398 1.340 . S
C400 N399 1.321 . S
C400 H424 0.930 . S
H401 C396 0.931 1_554 S
Co402 N399 2.135 1_554 S
Co402 N405 2.121 . S
Co402 O410 2.055 . S
Co402 O413 2.039 . S
Co402 N416 2.140 . S
C403 O404 1.227 . S
C403 O413 1.265 1_556 S
O404 C403 1.227 . S
N405 Co402 2.121 . S
N405 C407 1.375 . S
N405 C408 1.313 . S
C406 C407 1.338 . S
C406 N409 1.377 . S
C406 H426 0.930 . S
C407 N405 1.375 . S
C407 C406 1.338 . S
C407 H411 0.931 . S
C408 N405 1.313 . S
C408 N409 1.344 . S
C408 H412 0.930 . S
N409 C406 1.377 . S
N409 C408 1.344 . S
O410 Co402 2.055 . S
O410 C414 1.253 . S
H411 C407 0.931 . S
H412 C408 0.930 . S
O413 Co402 2.039 . S
O413 C403 1.265 1_554 S
C414 O410 1.253 . S
C414 O415 1.227 . S
O415 C414 1.227 . S
N416 Co402 2.140 . S
N416 C419 1.346 . S
N416 C420 1.345 . S
C417 C418 1.395 . S
C417 C421 1.391 . S
C418 C417 1.395 . S
C418 C419 1.370 . S
C418 H427 0.921 1_554 S
C419 N416 1.346 . S
C419 C418 1.370 . S
C419 H422 0.928 1_554 S
C420 N416 1.345 . S
C420 C421 1.371 . S
C420 H423 0.931 . S
C421 C417 1.391 . S
C421 C420 1.371 . S
C421 H428 0.930 . S
H422 C419 0.928 1_556 S
H423 C420 0.931 . S
H424 C400 0.930 . S
H425 C397 0.930 . S
H426 C406 0.930 . S
H427 C418 0.921 1_556 S
H428 C421 0.930 . S
C429 C430 1.351 . S
C429 N432 1.368 . S
C429 H434 0.931 . S
C430 C429 1.351 . S
C430 N431 1.373 . S
C430 H458 0.930 . S
N431 C430 1.373 . S
N431 C433 1.340 . S
N432 C429 1.368 . S
N432 C433 1.321 . S
N432 Co435 2.135 . S
C433 N431 1.340 . S
C433 N432 1.321 . S
C433 H457 0.930 . S
H434 C429 0.931 . S
Co435 N432 2.135 . S
Co435 N438 2.121 . S
Co435 O443 2.055 . S
Co435 O446 2.039 . S
Co435 N449 2.140 . S
C436 O437 1.227 . S
C436 O446 1.265 1_565 S
O437 C436 1.227 . S
N438 Co435 2.121 . S
N438 C440 1.375 1_545 S
N438 C441 1.313 . S
C439 C440 1.338 . S
C439 N442 1.377 . S
C439 H459 0.930 . S
C440 N438 1.375 1_565 S
C440 C439 1.338 . S
C440 H444 0.931 . S
C441 N438 1.313 . S
C441 N442 1.344 1_545 S
C441 H445 0.930 . S
N442 C439 1.377 . S
N442 C441 1.344 1_565 S
O443 Co435 2.055 . S
O443 C447 1.253 . S
H444 C440 0.931 . S
H445 C441 0.930 . S
O446 Co435 2.039 . S
O446 C436 1.265 1_545 S
C447 O443 1.253 . S
C447 O448 1.227 . S
O448 C447 1.227 . S
N449 Co435 2.140 . S
N449 C452 1.346 . S
N449 C453 1.345 . S
C450 C451 1.387 . S
C450 C454 1.391 . S
C451 C450 1.387 . S
C451 C452 1.369 . S
C451 H460 0.929 . S
C452 N449 1.346 . S
C452 C451 1.369 . S
C452 H455 0.928 . S
C453 N449 1.345 . S
C453 C454 1.371 . S
C453 H456 0.931 . S
C454 C450 1.391 . S
C454 C453 1.371 . S
C454 H461 0.930 . S
H455 C452 0.928 . S
H456 C453 0.931 . S
H457 C433 0.930 . S
H458 C430 0.930 . S
H459 C439 0.930 . S
H460 C451 0.929 . S
H461 C454 0.930 . S
C462 C463 1.351 . S
C462 N465 1.368 . S
C462 H467 0.931 . S
C463 C462 1.351 . S
C463 N464 1.373 . S
C463 H491 0.930 . S
N464 C463 1.373 . S
N464 C466 1.340 . S
N465 C462 1.368 . S
N465 C466 1.321 . S
N465 Co468 2.135 . S
C466 N464 1.340 . S
C466 N465 1.321 . S
C466 H490 0.930 . S
H467 C462 0.931 . S
Co468 N465 2.135 . S
Co468 N471 2.121 . S
Co468 O476 2.055 . S
Co468 O479 2.039 . S
Co468 N482 2.140 . S
C469 O470 1.227 . S
C469 O479 1.265 . S
O470 C469 1.227 . S
N471 Co468 2.121 . S
N471 C473 1.375 . S
N471 C474 1.313 . S
C472 C473 1.338 . S
C472 N475 1.377 . S
C472 H492 0.930 . S
C473 N471 1.375 . S
C473 C472 1.338 . S
C473 H477 0.931 . S
C474 N471 1.313 . S
C474 N475 1.344 . S
C474 H478 0.930 . S
N475 C472 1.377 . S
N475 C474 1.344 . S
O476 Co468 2.055 . S
O476 C480 1.253 . S
H477 C473 0.931 . S
H478 C474 0.930 . S
O479 Co468 2.039 . S
O479 C469 1.265 . S
C480 O476 1.253 . S
C480 O481 1.227 . S
O481 C480 1.227 . S
N482 Co468 2.140 . S
N482 C485 1.346 . S
N482 C486 1.345 . S
C483 C484 1.387 . S
C483 C487 1.391 . S
C484 C483 1.387 . S
C484 C485 1.369 . S
C484 H493 0.929 . S
C485 N482 1.346 . S
C485 C484 1.369 . S
C485 H488 0.928 . S
C486 N482 1.345 . S
C486 C487 1.371 . S
C486 H489 0.931 . S
C487 C483 1.391 . S
C487 C486 1.371 . S
C487 H494 0.930 . S
H488 C485 0.928 . S
H489 C486 0.931 . S
H490 C466 0.930 . S
H491 C463 0.930 . S
H492 C472 0.930 . S
H493 C484 0.929 . S
H494 C487 0.930 . S
C495 C496 1.351 . S
C495 N498 1.368 . S
C495 H500 0.931 . S
C496 C495 1.351 . S
C496 N497 1.373 . S
C496 H524 0.930 . S
N497 C496 1.373 . S
N497 C499 1.340 . S
N498 C495 1.368 . S
N498 C499 1.321 . S
N498 Co501 2.135 . S
C499 N497 1.340 . S
C499 N498 1.321 . S
C499 H523 0.930 . S
H500 C495 0.931 . S
Co501 N498 2.135 . S
Co501 N504 2.121 . S
Co501 O509 2.055 . S
Co501 O512 2.039 . S
Co501 N515 2.140 . S
C502 O503 1.227 . S
C502 O512 1.265 1_545 S
O503 C502 1.227 . S
N504 Co501 2.121 . S
N504 C506 1.375 1_565 S
N504 C507 1.313 . S
C505 C506 1.338 . S
C505 N508 1.377 . S
C505 H525 0.930 . S
C506 N504 1.375 1_545 S
C506 C505 1.338 . S
C506 H510 0.931 . S
C507 N504 1.313 . S
C507 N508 1.344 1_565 S
C507 H511 0.930 . S
N508 C505 1.377 . S
N508 C507 1.344 1_545 S
O509 Co501 2.055 . S
O509 C513 1.253 . S
H510 C506 0.931 . S
H511 C507 0.930 . S
O512 Co501 2.039 . S
O512 C502 1.265 1_565 S
C513 O509 1.253 . S
C513 O514 1.227 . S
O514 C513 1.227 . S
N515 Co501 2.140 . S
N515 C518 1.346 . S
N515 C519 1.345 . S
C516 C517 1.387 . S
C516 C520 1.391 . S
C517 C516 1.387 . S
C517 C518 1.369 . S
C517 H526 0.929 . S
C518 N515 1.346 . S
C518 C517 1.369 . S
C518 H521 0.928 . S
C519 N515 1.345 . S
C519 C520 1.371 . S
C519 H522 0.931 . S
C520 C516 1.391 . S
C520 C519 1.371 . S
C520 H527 0.930 . S
H521 C518 0.928 . S
H522 C519 0.931 . S
H523 C499 0.930 . S
H524 C496 0.930 . S
H525 C505 0.930 . S
H526 C517 0.929 . S
H527 C520 0.930 . S
C528 C529 1.351 . S
C528 N531 1.368 . S
C528 H533 0.931 . S
C529 C528 1.351 . S
C529 N530 1.373 . S
C529 H557 0.930 . S
N530 C529 1.373 . S
N530 C532 1.340 . S
N531 C528 1.368 . S
N531 C532 1.321 . S
N531 Co534 2.135 . S
C532 N530 1.340 . S
C532 N531 1.321 . S
C532 H556 0.930 . S
H533 C528 0.931 . S
Co534 N531 2.135 . S
Co534 N537 2.121 . S
Co534 O542 2.055 . S
Co534 O545 2.039 . S
Co534 N548 2.140 . S
C535 O536 1.227 . S
C535 O545 1.265 . S
O536 C535 1.227 . S
N537 Co534 2.121 . S
N537 C539 1.375 . S
N537 C540 1.313 . S
C538 C539 1.338 . S
C538 N541 1.377 . S
C538 H558 0.930 . S
C539 N537 1.375 . S
C539 C538 1.338 . S
C539 H543 0.931 . S
C540 N537 1.313 . S
C540 N541 1.344 . S
C540 H544 0.930 . S
N541 C538 1.377 . S
N541 C540 1.344 . S
O542 Co534 2.055 . S
O542 C546 1.253 . S
H543 C539 0.931 . S
H544 C540 0.930 . S
O545 Co534 2.039 . S
O545 C535 1.265 . S
C546 O542 1.253 . S
C546 O547 1.227 . S
O547 C546 1.227 . S
N548 Co534 2.140 . S
N548 C551 1.346 . S
N548 C552 1.345 . S
C549 C550 1.387 . S
C549 C553 1.391 . S
C550 C549 1.387 . S
C550 C551 1.369 . S
C550 H559 0.929 . S
C551 N548 1.346 . S
C551 C550 1.369 . S
C551 H554 0.928 . S
C552 N548 1.345 . S
C552 C553 1.371 . S
C552 H555 0.931 . S
C553 C549 1.391 . S
C553 C552 1.371 . S
C553 H560 0.930 . S
H554 C551 0.928 . S
H555 C552 0.931 . S
H556 C532 0.930 . S
H557 C529 0.930 . S
H558 C538 0.930 . S
H559 C550 0.929 . S
H560 C553 0.930 . S
C561 C562 1.351 . S
C561 N564 1.368 . S
C561 H566 0.931 . S
C562 C561 1.351 . S
C562 N563 1.373 . S
C562 H590 0.930 . S
N563 C562 1.373 . S
N563 C565 1.340 . S
N564 C561 1.368 . S
N564 C565 1.321 . S
N564 Co567 2.135 . S
C565 N563 1.340 . S
C565 N564 1.321 . S
C565 H589 0.930 . S
H566 C561 0.931 . S
Co567 N564 2.135 . S
Co567 N570 2.121 . S
Co567 O575 2.055 . S
Co567 O578 2.039 . S
Co567 N581 2.140 . S
C568 O569 1.227 . S
C568 O578 1.265 . S
O569 C568 1.227 . S
N570 Co567 2.121 . S
N570 C572 1.375 . S
N570 C573 1.313 . S
C571 C572 1.338 . S
C571 N574 1.377 . S
C571 H591 0.930 . S
C572 N570 1.375 . S
C572 C571 1.338 . S
C572 H576 0.931 . S
C573 N570 1.313 . S
C573 N574 1.344 . S
C573 H577 0.930 . S
N574 C571 1.377 . S
N574 C573 1.344 . S
O575 Co567 2.055 . S
O575 C579 1.253 . S
H576 C572 0.931 . S
H577 C573 0.930 . S
O578 Co567 2.039 . S
O578 C568 1.265 . S
C579 O575 1.253 . S
C579 O580 1.227 . S
O580 C579 1.227 . S
N581 Co567 2.140 . S
N581 C584 1.346 . S
N581 C585 1.345 . S
C582 C583 1.387 . S
C582 C586 1.391 . S
C583 C582 1.387 . S
C583 C584 1.369 . S
C583 H592 0.929 . S
C584 N581 1.346 . S
C584 C583 1.369 . S
C584 H587 0.928 . S
C585 N581 1.345 . S
C585 C586 1.371 . S
C585 H588 0.931 . S
C586 C582 1.391 . S
C586 C585 1.371 . S
C586 H593 0.930 . S
H587 C584 0.928 . S
H588 C585 0.931 . S
H589 C565 0.930 . S
H590 C562 0.930 . S
H591 C571 0.930 . S
H592 C583 0.929 . S
H593 C586 0.930 . S
C594 C595 1.351 . S
C594 N597 1.368 . S
C594 H599 0.931 1_556 S
C595 C594 1.351 . S
C595 N596 1.373 . S
C595 H623 0.930 . S
N596 C595 1.373 . S
N596 C598 1.340 . S
N597 C594 1.368 . S
N597 C598 1.321 . S
N597 Co600 2.135 1_556 S
C598 N596 1.340 . S
C598 N597 1.321 . S
C598 H622 0.930 . S
H599 C594 0.931 1_554 S
Co600 N597 2.135 1_554 S
Co600 N603 2.121 . S
Co600 O608 2.055 . S
Co600 O611 2.039 . S
Co600 N614 2.140 . S
C601 O602 1.227 . S
C601 O611 1.265 1_556 S
O602 C601 1.227 . S
N603 Co600 2.121 . S
N603 C605 1.375 . S
N603 C606 1.313 . S
C604 C605 1.338 . S
C604 N607 1.377 . S
C604 H624 0.930 . S
C605 N603 1.375 . S
C605 C604 1.338 . S
C605 H609 0.931 . S
C606 N603 1.313 . S
C606 N607 1.344 . S
C606 H610 0.930 . S
N607 C604 1.377 . S
N607 C606 1.344 . S
O608 Co600 2.055 . S
O608 C612 1.253 . S
H609 C605 0.931 . S
H610 C606 0.930 . S
O611 Co600 2.039 . S
O611 C601 1.265 1_554 S
C612 O608 1.253 . S
C612 O613 1.227 . S
O613 C612 1.227 . S
N614 Co600 2.140 . S
N614 C617 1.346 . S
N614 C618 1.345 . S
C615 C616 1.395 . S
C615 C619 1.391 . S
C616 C615 1.395 . S
C616 C617 1.370 . S
C616 H625 0.921 1_554 S
C617 N614 1.346 . S
C617 C616 1.370 . S
C617 H620 0.928 1_554 S
C618 N614 1.345 . S
C618 C619 1.371 . S
C618 H621 0.931 . S
C619 C615 1.391 . S
C619 C618 1.371 . S
C619 H626 0.930 . S
H620 C617 0.928 1_556 S
H621 C618 0.931 . S
H622 C598 0.930 . S
H623 C595 0.930 . S
H624 C604 0.930 . S
H625 C616 0.921 1_556 S
H626 C619 0.930 . S
C627 C628 1.351 . S
C627 N630 1.368 . S
C627 H632 0.931 . S
C628 C627 1.351 . S
C628 N629 1.373 . S
C628 H656 0.930 . S
N629 C628 1.373 . S
N629 C631 1.340 . S
N630 C627 1.368 . S
N630 C631 1.321 . S
N630 Co633 2.135 . S
C631 N629 1.340 . S
C631 N630 1.321 . S
C631 H655 0.930 . S
H632 C627 0.931 . S
Co633 N630 2.135 . S
Co633 N636 2.121 . S
Co633 O641 2.055 . S
Co633 O644 2.039 . S
Co633 N647 2.140 . S
C634 O635 1.227 . S
C634 O644 1.265 . S
O635 C634 1.227 . S
N636 Co633 2.121 . S
N636 C638 1.375 . S
N636 C639 1.313 . S
C637 C638 1.338 . S
C637 N640 1.377 . S
C637 H657 0.930 . S
C638 N636 1.375 . S
C638 C637 1.338 . S
C638 H642 0.931 . S
C639 N636 1.313 . S
C639 N640 1.344 . S
C639 H643 0.930 . S
N640 C637 1.377 . S
N640 C639 1.344 . S
O641 Co633 2.055 . S
O641 C645 1.253 . S
H642 C638 0.931 . S
H643 C639 0.930 . S
O644 Co633 2.039 . S
O644 C634 1.265 . S
C645 O641 1.253 . S
C645 O646 1.227 . S
O646 C645 1.227 . S
N647 Co633 2.140 . S
N647 C650 1.346 . S
N647 C651 1.345 . S
C648 C649 1.387 . S
C648 C652 1.391 . S
C649 C648 1.387 . S
C649 C650 1.369 . S
C649 H658 0.929 . S
C650 N647 1.346 . S
C650 C649 1.369 . S
C650 H653 0.928 . S
C651 N647 1.345 . S
C651 C652 1.371 . S
C651 H654 0.931 . S
C652 C648 1.391 . S
C652 C651 1.371 . S
C652 H659 0.930 . S
H653 C650 0.928 . S
H654 C651 0.931 . S
H655 C631 0.930 . S
H656 C628 0.930 . S
H657 C637 0.930 . S
H658 C649 0.929 . S
H659 C652 0.930 . S
C660 C661 1.351 . S
C660 N663 1.368 . S
C660 H665 0.931 . S
C661 C660 1.351 . S
C661 N662 1.373 . S
C661 H689 0.930 . S
N662 C661 1.373 . S
N662 C664 1.340 . S
N663 C660 1.368 . S
N663 C664 1.321 . S
N663 Co666 2.135 . S
C664 N662 1.340 . S
C664 N663 1.321 . S
C664 H688 0.930 . S
H665 C660 0.931 . S
Co666 N663 2.135 . S
Co666 N669 2.121 . S
Co666 O674 2.055 . S
Co666 O677 2.039 . S
Co666 N680 2.140 . S
C667 O668 1.227 . S
C667 O677 1.265 . S
O668 C667 1.227 . S
N669 Co666 2.121 . S
N669 C671 1.375 . S
N669 C672 1.313 . S
C670 C671 1.338 . S
C670 N673 1.377 . S
C670 H690 0.930 . S
C671 N669 1.375 . S
C671 C670 1.338 . S
C671 H675 0.931 . S
C672 N669 1.313 . S
C672 N673 1.344 . S
C672 H676 0.930 . S
N673 C670 1.377 . S
N673 C672 1.344 . S
O674 Co666 2.055 . S
O674 C678 1.253 . S
H675 C671 0.931 . S
H676 C672 0.930 . S
O677 Co666 2.039 . S
O677 C667 1.265 . S
C678 O674 1.253 . S
C678 O679 1.227 . S
O679 C678 1.227 . S
N680 Co666 2.140 . S
N680 C683 1.346 . S
N680 C684 1.345 . S
C681 C682 1.387 . S
C681 C685 1.391 . S
C682 C681 1.387 . S
C682 C683 1.369 . S
C682 H691 0.929 . S
C683 N680 1.346 . S
C683 C682 1.369 . S
C683 H686 0.928 . S
C684 N680 1.345 . S
C684 C685 1.371 . S
C684 H687 0.931 . S
C685 C681 1.391 . S
C685 C684 1.371 . S
C685 H692 0.930 . S
H686 C683 0.928 . S
H687 C684 0.931 . S
H688 C664 0.930 . S
H689 C661 0.930 . S
H690 C670 0.930 . S
H691 C682 0.929 . S
H692 C685 0.930 . S
C693 C694 1.351 . S
C693 N696 1.368 . S
C693 H698 0.931 . S
C694 C693 1.351 . S
C694 N695 1.373 . S
C694 H722 0.930 . S
N695 C694 1.373 . S
N695 C697 1.340 . S
N696 C693 1.368 . S
N696 C697 1.321 . S
N696 Co699 2.135 . S
C697 N695 1.340 . S
C697 N696 1.321 . S
C697 H721 0.930 . S
H698 C693 0.931 . S
Co699 N696 2.135 . S
Co699 N702 2.121 . S
Co699 O707 2.055 . S
Co699 O710 2.039 . S
Co699 N713 2.140 . S
C700 O701 1.227 . S
C700 O710 1.265 . S
O701 C700 1.227 . S
N702 Co699 2.121 . S
N702 C704 1.375 . S
N702 C705 1.313 . S
C703 C704 1.338 . S
C703 N706 1.377 . S
C703 H723 0.930 . S
C704 N702 1.375 . S
C704 C703 1.338 . S
C704 H708 0.931 . S
C705 N702 1.313 . S
C705 N706 1.344 . S
C705 H709 0.930 . S
N706 C703 1.377 . S
N706 C705 1.344 . S
O707 Co699 2.055 . S
O707 C711 1.253 . S
H708 C704 0.931 . S
H709 C705 0.930 . S
O710 Co699 2.039 . S
O710 C700 1.265 . S
C711 O707 1.253 . S
C711 O712 1.227 . S
O712 C711 1.227 . S
N713 Co699 2.140 . S
N713 C716 1.346 . S
N713 C717 1.345 . S
C714 C715 1.387 . S
C714 C718 1.391 . S
C715 C714 1.387 . S
C715 C716 1.369 . S
C715 H724 0.929 . S
C716 N713 1.346 . S
C716 C715 1.369 . S
C716 H719 0.928 . S
C717 N713 1.345 . S
C717 C718 1.371 . S
C717 H720 0.931 . S
C718 C714 1.391 . S
C718 C717 1.371 . S
C718 H725 0.930 . S
H719 C716 0.928 . S
H720 C717 0.931 . S
H721 C697 0.930 . S
H722 C694 0.930 . S
H723 C703 0.930 . S
H724 C715 0.929 . S
H725 C718 0.930 . S
C726 C727 1.351 . S
C726 N729 1.368 . S
C726 H731 0.931 1_554 S
C727 C726 1.351 . S
C727 N728 1.373 . S
C727 H755 0.930 . S
N728 C727 1.373 . S
N728 C730 1.340 . S
N729 C726 1.368 . S
N729 C730 1.321 . S
N729 Co732 2.135 1_554 S
C730 N728 1.340 . S
C730 N729 1.321 . S
C730 H754 0.930 . S
H731 C726 0.931 1_556 S
Co732 N729 2.135 1_556 S
Co732 N735 2.121 . S
Co732 O740 2.055 . S
Co732 O743 2.039 . S
Co732 N746 2.140 . S
C733 O734 1.227 . S
C733 O743 1.265 1_554 S
O734 C733 1.227 . S
N735 Co732 2.121 . S
N735 C737 1.375 . S
N735 C738 1.313 . S
C736 C737 1.338 . S
C736 N739 1.377 . S
C736 H756 0.930 . S
C737 N735 1.375 . S
C737 C736 1.338 . S
C737 H741 0.931 . S
C738 N735 1.313 . S
C738 N739 1.344 . S
C738 H742 0.930 . S
N739 C736 1.377 . S
N739 C738 1.344 . S
O740 Co732 2.055 . S
O740 C744 1.253 . S
H741 C737 0.931 . S
H742 C738 0.930 . S
O743 Co732 2.039 . S
O743 C733 1.265 1_556 S
C744 O740 1.253 . S
C744 O745 1.227 . S
O745 C744 1.227 . S
N746 Co732 2.140 . S
N746 C749 1.346 . S
N746 C750 1.345 . S
C747 C748 1.395 . S
C747 C751 1.391 . S
C748 C747 1.395 . S
C748 C749 1.370 . S
C748 H757 0.921 1_556 S
C749 N746 1.346 . S
C749 C748 1.370 . S
C749 H752 0.928 1_556 S
C750 N746 1.345 . S
C750 C751 1.371 . S
C750 H753 0.931 . S
C751 C747 1.391 . S
C751 C750 1.371 . S
C751 H758 0.930 . S
H752 C749 0.928 1_554 S
H753 C750 0.931 . S
H754 C730 0.930 . S
H755 C727 0.930 . S
H756 C736 0.930 . S
H757 C748 0.921 1_554 S
H758 C751 0.930 . S
C759 C760 1.351 . S
C759 N762 1.368 . S
C759 H764 0.931 . S
C760 C759 1.351 . S
C760 N761 1.373 . S
C760 H788 0.930 . S
N761 C760 1.373 . S
N761 C763 1.340 . S
N762 C759 1.368 . S
N762 C763 1.321 . S
N762 Co765 2.135 . S
C763 N761 1.340 . S
C763 N762 1.321 . S
C763 H787 0.930 . S
H764 C759 0.931 . S
Co765 N762 2.135 . S
Co765 N768 2.121 . S
Co765 O773 2.055 . S
Co765 O776 2.039 . S
Co765 N779 2.140 . S
C766 O767 1.227 . S
C766 O776 1.265 . S
O767 C766 1.227 . S
N768 Co765 2.121 . S
N768 C770 1.375 . S
N768 C771 1.313 . S
C769 C770 1.338 . S
C769 N772 1.377 . S
C769 H789 0.930 . S
C770 N768 1.375 . S
C770 C769 1.338 . S
C770 H774 0.931 . S
C771 N768 1.313 . S
C771 N772 1.344 . S
C771 H775 0.930 . S
N772 C769 1.377 . S
N772 C771 1.344 . S
O773 Co765 2.055 . S
O773 C777 1.253 . S
H774 C770 0.931 . S
H775 C771 0.930 . S
O776 Co765 2.039 . S
O776 C766 1.265 . S
C777 O773 1.253 . S
C777 O778 1.227 . S
O778 C777 1.227 . S
N779 Co765 2.140 . S
N779 C782 1.346 . S
N779 C783 1.345 . S
C780 C781 1.387 . S
C780 C784 1.391 . S
C781 C780 1.387 . S
C781 C782 1.369 . S
C781 H790 0.929 . S
C782 N779 1.346 . S
C782 C781 1.369 . S
C782 H785 0.928 . S
C783 N779 1.345 . S
C783 C784 1.371 . S
C783 H786 0.931 . S
C784 C780 1.391 . S
C784 C783 1.371 . S
C784 H791 0.930 . S
H785 C782 0.928 . S
H786 C783 0.931 . S
H787 C763 0.930 . S
H788 C760 0.930 . S
H789 C769 0.930 . S
H790 C781 0.929 . S
H791 C784 0.930 . S
C792 C793 1.351 . S
C792 N795 1.368 . S
C792 H797 0.931 . S
C793 C792 1.351 . S
C793 N794 1.373 . S
C793 H821 0.930 . S
N794 C793 1.373 . S
N794 C796 1.340 . S
N795 C792 1.368 . S
N795 C796 1.321 . S
N795 Co798 2.135 . S
C796 N794 1.340 . S
C796 N795 1.321 . S
C796 H820 0.930 . S
H797 C792 0.931 . S
Co798 N795 2.135 . S
Co798 N801 2.121 . S
Co798 O806 2.055 . S
Co798 O809 2.039 . S
Co798 N812 2.140 . S
C799 O800 1.227 . S
C799 O809 1.265 . S
O800 C799 1.227 . S
N801 Co798 2.121 . S
N801 C803 1.375 . S
N801 C804 1.313 . S
C802 C803 1.338 . S
C802 N805 1.377 . S
C802 H822 0.930 . S
C803 N801 1.375 . S
C803 C802 1.338 . S
C803 H807 0.931 . S
C804 N801 1.313 . S
C804 N805 1.344 . S
C804 H808 0.930 . S
N805 C802 1.377 . S
N805 C804 1.344 . S
O806 Co798 2.055 . S
O806 C810 1.253 . S
H807 C803 0.931 . S
H808 C804 0.930 . S
O809 Co798 2.039 . S
O809 C799 1.265 . S
C810 O806 1.253 . S
C810 O811 1.227 . S
O811 C810 1.227 . S
N812 Co798 2.140 . S
N812 C815 1.346 . S
N812 C816 1.345 . S
C813 C814 1.387 . S
C813 C817 1.391 . S
C814 C813 1.387 . S
C814 C815 1.369 . S
C814 H823 0.929 . S
C815 N812 1.346 . S
C815 C814 1.369 . S
C815 H818 0.928 . S
C816 N812 1.345 . S
C816 C817 1.371 . S
C816 H819 0.931 . S
C817 C813 1.391 . S
C817 C816 1.371 . S
C817 H824 0.930 . S
H818 C815 0.928 . S
H819 C816 0.931 . S
H820 C796 0.930 . S
H821 C793 0.930 . S
H822 C802 0.930 . S
H823 C814 0.929 . S
H824 C817 0.930 . S
C825 C826 1.351 . S
C825 N828 1.368 . S
C825 H830 0.931 . S
C826 C825 1.351 . S
C826 N827 1.373 . S
C826 H854 0.930 . S
N827 C826 1.373 . S
N827 C829 1.340 . S
N828 C825 1.368 . S
N828 C829 1.321 . S
N828 Co831 2.135 . S
C829 N827 1.340 . S
C829 N828 1.321 . S
C829 H853 0.930 . S
H830 C825 0.931 . S
Co831 N828 2.135 . S
Co831 N834 2.121 . S
Co831 O839 2.055 . S
Co831 O842 2.039 . S
Co831 N845 2.140 . S
C832 O833 1.227 . S
C832 O842 1.265 . S
O833 C832 1.227 . S
N834 Co831 2.121 . S
N834 C836 1.375 . S
N834 C837 1.313 . S
C835 C836 1.338 . S
C835 N838 1.377 . S
C835 H855 0.930 . S
C836 N834 1.375 . S
C836 C835 1.338 . S
C836 H840 0.931 . S
C837 N834 1.313 . S
C837 N838 1.344 . S
C837 H841 0.930 . S
N838 C835 1.377 . S
N838 C837 1.344 . S
O839 Co831 2.055 . S
O839 C843 1.253 . S
H840 C836 0.931 . S
H841 C837 0.930 . S
O842 Co831 2.039 . S
O842 C832 1.265 . S
C843 O839 1.253 . S
C843 O844 1.227 . S
O844 C843 1.227 . S
N845 Co831 2.140 . S
N845 C848 1.346 . S
N845 C849 1.345 . S
C846 C847 1.387 . S
C846 C850 1.391 . S
C847 C846 1.387 . S
C847 C848 1.369 . S
C847 H856 0.929 . S
C848 N845 1.346 . S
C848 C847 1.369 . S
C848 H851 0.928 . S
C849 N845 1.345 . S
C849 C850 1.371 . S
C849 H852 0.931 . S
C850 C846 1.391 . S
C850 C849 1.371 . S
C850 H857 0.930 . S
H851 C848 0.928 . S
H852 C849 0.931 . S
H853 C829 0.930 . S
H854 C826 0.930 . S
H855 C835 0.930 . S
H856 C847 0.929 . S
H857 C850 0.930 . S
C858 C859 1.351 . S
C858 N861 1.368 . S
C858 H863 0.931 1_554 S
C859 C858 1.351 . S
C859 N860 1.373 . S
C859 H887 0.930 . S
N860 C859 1.373 . S
N860 C862 1.340 . S
N861 C858 1.368 . S
N861 C862 1.321 . S
N861 Co864 2.135 1_554 S
C862 N860 1.340 . S
C862 N861 1.321 . S
C862 H886 0.930 . S
H863 C858 0.931 1_556 S
Co864 N861 2.135 1_556 S
Co864 N867 2.121 . S
Co864 O872 2.055 . S
Co864 O875 2.039 . S
Co864 N878 2.140 . S
C865 O866 1.227 . S
C865 O875 1.265 1_554 S
O866 C865 1.227 . S
N867 Co864 2.121 . S
N867 C869 1.375 . S
N867 C870 1.313 . S
C868 C869 1.338 . S
C868 N871 1.377 . S
C868 H888 0.930 . S
C869 N867 1.375 . S
C869 C868 1.338 . S
C869 H873 0.931 . S
C870 N867 1.313 . S
C870 N871 1.344 . S
C870 H874 0.930 . S
N871 C868 1.377 . S
N871 C870 1.344 . S
O872 Co864 2.055 . S
O872 C876 1.253 . S
H873 C869 0.931 . S
H874 C870 0.930 . S
O875 Co864 2.039 . S
O875 C865 1.265 1_556 S
C876 O872 1.253 . S
C876 O877 1.227 . S
O877 C876 1.227 . S
N878 Co864 2.140 . S
N878 C881 1.346 . S
N878 C882 1.345 . S
C879 C880 1.395 . S
C879 C883 1.391 . S
C880 C879 1.395 . S
C880 C881 1.370 . S
C880 H889 0.921 1_556 S
C881 N878 1.346 . S
C881 C880 1.370 . S
C881 H884 0.928 1_556 S
C882 N878 1.345 . S
C882 C883 1.371 . S
C882 H885 0.931 . S
C883 C879 1.391 . S
C883 C882 1.371 . S
C883 H890 0.930 . S
H884 C881 0.928 1_554 S
H885 C882 0.931 . S
H886 C862 0.930 . S
H887 C859 0.930 . S
H888 C868 0.930 . S
H889 C880 0.921 1_554 S
H890 C883 0.930 . S
C891 C892 1.351 . S
C891 N894 1.368 . S
C891 H896 0.931 . S
C892 C891 1.351 . S
C892 N893 1.373 . S
C892 H920 0.930 . S
N893 C892 1.373 . S
N893 C895 1.340 . S
N894 C891 1.368 . S
N894 C895 1.321 . S
N894 Co897 2.135 . S
C895 N893 1.340 . S
C895 N894 1.321 . S
C895 H919 0.930 . S
H896 C891 0.931 . S
Co897 N894 2.135 . S
Co897 N900 2.121 . S
Co897 O905 2.055 . S
Co897 O908 2.039 . S
Co897 N911 2.140 . S
C898 O899 1.227 . S
C898 O908 1.265 . S
O899 C898 1.227 . S
N900 Co897 2.121 . S
N900 C902 1.375 . S
N900 C903 1.313 . S
C901 C902 1.338 . S
C901 N904 1.377 . S
C901 H921 0.930 . S
C902 N900 1.375 . S
C902 C901 1.338 . S
C902 H906 0.931 . S
C903 N900 1.313 . S
C903 N904 1.344 . S
C903 H907 0.930 . S
N904 C901 1.377 . S
N904 C903 1.344 . S
O905 Co897 2.055 . S
O905 C909 1.253 . S
H906 C902 0.931 . S
H907 C903 0.930 . S
O908 Co897 2.039 . S
O908 C898 1.265 . S
C909 O905 1.253 . S
C909 O910 1.227 . S
O910 C909 1.227 . S
N911 Co897 2.140 . S
N911 C914 1.346 . S
N911 C915 1.345 . S
C912 C913 1.387 . S
C912 C916 1.391 . S
C913 C912 1.387 . S
C913 C914 1.369 . S
C913 H922 0.929 . S
C914 N911 1.346 . S
C914 C913 1.369 . S
C914 H917 0.928 . S
C915 N911 1.345 . S
C915 C916 1.371 . S
C915 H918 0.931 . S
C916 C912 1.391 . S
C916 C915 1.371 . S
C916 H923 0.930 . S
H917 C914 0.928 . S
H918 C915 0.931 . S
H919 C895 0.930 . S
H920 C892 0.930 . S
H921 C901 0.930 . S
H922 C913 0.929 . S
H923 C916 0.930 . S
C924 C925 1.351 . S
C924 N927 1.368 . S
C924 H929 0.931 . S
C925 C924 1.351 . S
C925 N926 1.373 . S
C925 H953 0.930 . S
N926 C925 1.373 . S
N926 C928 1.340 . S
N927 C924 1.368 . S
N927 C928 1.321 . S
N927 Co930 2.135 . S
C928 N926 1.340 . S
C928 N927 1.321 . S
C928 H952 0.930 . S
H929 C924 0.931 . S
Co930 N927 2.135 . S
Co930 N933 2.121 . S
Co930 O938 2.055 . S
Co930 O941 2.039 . S
Co930 N944 2.140 . S
C931 O932 1.227 . S
C931 O941 1.265 . S
O932 C931 1.227 . S
N933 Co930 2.121 . S
N933 C935 1.375 . S
N933 C936 1.313 . S
C934 C935 1.338 . S
C934 N937 1.377 . S
C934 H954 0.930 . S
C935 N933 1.375 . S
C935 C934 1.338 . S
C935 H939 0.931 . S
C936 N933 1.313 . S
C936 N937 1.344 . S
C936 H940 0.930 . S
N937 C934 1.377 . S
N937 C936 1.344 . S
O938 Co930 2.055 . S
O938 C942 1.253 . S
H939 C935 0.931 . S
H940 C936 0.930 . S
O941 Co930 2.039 . S
O941 C931 1.265 . S
C942 O938 1.253 . S
C942 O943 1.227 . S
O943 C942 1.227 . S
N944 Co930 2.140 . S
N944 C947 1.346 . S
N944 C948 1.345 . S
C945 C946 1.387 . S
C945 C949 1.391 . S
C946 C945 1.387 . S
C946 C947 1.369 . S
C946 H955 0.929 . S
C947 N944 1.346 . S
C947 C946 1.369 . S
C947 H950 0.928 . S
C948 N944 1.345 . S
C948 C949 1.371 . S
C948 H951 0.931 . S
C949 C945 1.391 . S
C949 C948 1.371 . S
C949 H956 0.930 . S
H950 C947 0.928 . S
H951 C948 0.931 . S
H952 C928 0.930 . S
H953 C925 0.930 . S
H954 C934 0.930 . S
H955 C946 0.929 . S
H956 C949 0.930 . S
C957 C958 1.351 . S
C957 N960 1.368 . S
C957 H962 0.931 . S
C958 C957 1.351 . S
C958 N959 1.373 . S
C958 H986 0.930 . S
N959 C958 1.373 . S
N959 C961 1.340 . S
N960 C957 1.368 . S
N960 C961 1.321 . S
N960 Co963 2.135 . S
C961 N959 1.340 . S
C961 N960 1.321 . S
C961 H985 0.930 . S
H962 C957 0.931 . S
Co963 N960 2.135 . S
Co963 N966 2.121 . S
Co963 O971 2.055 . S
Co963 O974 2.039 . S
Co963 N977 2.140 . S
C964 O965 1.227 . S
C964 O974 1.265 . S
O965 C964 1.227 . S
N966 Co963 2.121 . S
N966 C968 1.375 . S
N966 C969 1.313 . S
C967 C968 1.338 . S
C967 N970 1.377 . S
C967 H987 0.930 . S
C968 N966 1.375 . S
C968 C967 1.338 . S
C968 H972 0.931 . S
C969 N966 1.313 . S
C969 N970 1.344 . S
C969 H973 0.930 . S
N970 C967 1.377 . S
N970 C969 1.344 . S
O971 Co963 2.055 . S
O971 C975 1.253 . S
H972 C968 0.931 . S
H973 C969 0.930 . S
O974 Co963 2.039 . S
O974 C964 1.265 . S
C975 O971 1.253 . S
C975 O976 1.227 . S
O976 C975 1.227 . S
N977 Co963 2.140 . S
N977 C980 1.346 . S
N977 C981 1.345 . S
C978 C979 1.387 . S
C978 C982 1.391 . S
C979 C978 1.387 . S
C979 C980 1.369 . S
C979 H988 0.929 . S
C980 N977 1.346 . S
C980 C979 1.369 . S
C980 H983 0.928 . S
C981 N977 1.345 . S
C981 C982 1.371 . S
C981 H984 0.931 . S
C982 C978 1.391 . S
C982 C981 1.371 . S
C982 H989 0.930 . S
H983 C980 0.928 . S
H984 C981 0.931 . S
H985 C961 0.930 . S
H986 C958 0.930 . S
H987 C967 0.930 . S
H988 C979 0.929 . S
H989 C982 0.930 . S
C990 C991 1.351 . S
C990 N993 1.368 . S
C990 H995 0.931 1_556 S
C991 C990 1.351 . S
C991 N992 1.373 . S
C991 H1019 0.930 . S
N992 C991 1.373 . S
N992 C994 1.340 . S
N993 C990 1.368 . S
N993 C994 1.321 . S
N993 Co996 2.135 1_556 S
C994 N992 1.340 . S
C994 N993 1.321 . S
C994 H1018 0.930 . S
H995 C990 0.931 1_554 S
Co996 N993 2.135 1_554 S
Co996 N999 2.121 . S
Co996 O1004 2.055 . S
Co996 O1007 2.039 . S
Co996 N1010 2.140 . S
C997 O998 1.227 . S
C997 O1007 1.265 1_556 S
O998 C997 1.227 . S
N999 Co996 2.121 . S
N999 C1001 1.375 . S
N999 C1002 1.313 . S
C1000 C1001 1.338 . S
C1000 N1003 1.377 . S
C1000 H1020 0.930 . S
C1001 N999 1.375 . S
C1001 C1000 1.338 . S
C1001 H1005 0.931 . S
C1002 N999 1.313 . S
C1002 N1003 1.344 . S
C1002 H1006 0.930 . S
N1003 C1000 1.377 . S
N1003 C1002 1.344 . S
O1004 Co996 2.055 . S
O1004 C1008 1.253 . S
H1005 C1001 0.931 . S
H1006 C1002 0.930 . S
O1007 Co996 2.039 . S
O1007 C997 1.265 1_554 S
C1008 O1004 1.253 . S
C1008 O1009 1.227 . S
O1009 C1008 1.227 . S
N1010 Co996 2.140 . S
N1010 C1013 1.346 . S
N1010 C1014 1.345 . S
C1011 C1012 1.395 . S
C1011 C1015 1.391 . S
C1012 C1011 1.395 . S
C1012 C1013 1.370 . S
C1012 H1021 0.921 1_554 S
C1013 N1010 1.346 . S
C1013 C1012 1.370 . S
C1013 H1016 0.928 1_554 S
C1014 N1010 1.345 . S
C1014 C1015 1.371 . S
C1014 H1017 0.931 . S
C1015 C1011 1.391 . S
C1015 C1014 1.371 . S
C1015 H1022 0.930 . S
H1016 C1013 0.928 1_556 S
H1017 C1014 0.931 . S
H1018 C994 0.930 . S
H1019 C991 0.930 . S
H1020 C1000 0.930 . S
H1021 C1012 0.921 1_556 S
H1022 C1015 0.930 . S
C1023 C1024 1.351 . S
C1023 N1026 1.368 . S
C1023 H1028 0.931 . S
C1024 C1023 1.351 . S
C1024 N1025 1.373 . S
C1024 H1052 0.930 . S
N1025 C1024 1.373 . S
N1025 C1027 1.340 . S
N1026 C1023 1.368 . S
N1026 C1027 1.321 . S
N1026 Co1029 2.135 . S
C1027 N1025 1.340 . S
C1027 N1026 1.321 . S
C1027 H1051 0.930 . S
H1028 C1023 0.931 . S
Co1029 N1026 2.135 . S
Co1029 N1032 2.121 . S
Co1029 O1037 2.055 . S
Co1029 O1040 2.039 . S
Co1029 N1043 2.140 . S
C1030 O1031 1.227 . S
C1030 O1040 1.265 . S
O1031 C1030 1.227 . S
N1032 Co1029 2.121 . S
N1032 C1034 1.375 . S
N1032 C1035 1.313 . S
C1033 C1034 1.338 . S
C1033 N1036 1.377 . S
C1033 H1053 0.930 . S
C1034 N1032 1.375 . S
C1034 C1033 1.338 . S
C1034 H1038 0.931 . S
C1035 N1032 1.313 . S
C1035 N1036 1.344 . S
C1035 H1039 0.930 . S
N1036 C1033 1.377 . S
N1036 C1035 1.344 . S
O1037 Co1029 2.055 . S
O1037 C1041 1.253 . S
H1038 C1034 0.931 . S
H1039 C1035 0.930 . S
O1040 Co1029 2.039 . S
O1040 C1030 1.265 . S
C1041 O1037 1.253 . S
C1041 O1042 1.227 . S
O1042 C1041 1.227 . S
N1043 Co1029 2.140 . S
N1043 C1046 1.346 . S
N1043 C1047 1.345 . S
C1044 C1045 1.387 . S
C1044 C1048 1.391 . S
C1045 C1044 1.387 . S
C1045 C1046 1.369 . S
C1045 H1054 0.929 . S
C1046 N1043 1.346 . S
C1046 C1045 1.369 . S
C1046 H1049 0.928 . S
C1047 N1043 1.345 . S
C1047 C1048 1.371 . S
C1047 H1050 0.931 . S
C1048 C1044 1.391 . S
C1048 C1047 1.371 . S
C1048 H1055 0.930 . S
H1049 C1046 0.928 . S
H1050 C1047 0.931 . S
H1051 C1027 0.930 . S
H1052 C1024 0.930 . S
H1053 C1033 0.930 . S
H1054 C1045 0.929 . S
H1055 C1048 0.930 . S
C40 C18 2.616 . S
C51 C73 2.616 . S
C84 C106 2.616 . S
C117 C7 2.616 . S
C150 C238 2.616 . S
C139 C183 2.616 . S
C216 C172 2.616 . S
C249 C205 2.616 . S
C304 C282 2.616 . S
C337 C315 2.616 . S
C348 C370 2.616 . S
C271 C381 2.616 . S
C414 C502 2.616 . S
C447 C403 2.616 . S
C436 C480 2.616 . S
C469 C513 2.616 . S
C568 C546 2.616 . S
C579 C601 2.616 . S
C634 C612 2.616 . S
C535 C645 2.616 . S
C766 C678 2.616 . S
C711 C667 2.616 . S
C700 C744 2.616 . S
C777 C733 2.616 . S
C832 C810 2.616 . S
C843 C865 2.616 . S
C876 C898 2.616 . S
C909 C799 2.616 . S
C1030 C942 2.616 . S
C931 C975 2.616 . S
C964 C1008 2.616 . S
C997 C1041 2.616 . S
N211 N13 1.721 . S
N46 N244 1.721 1_545 S
N79 N145 1.721 . S
N112 N178 1.721 1_566 S
N475 N277 1.721 . S
N508 N310 1.721 1_545 S
N343 N409 1.721 . S
N442 N376 1.721 1_566 S
N541 N739 1.721 . S
N772 N574 1.721 1_554 S
N673 N607 1.721 . S
N706 N640 1.721 . S
N1003 N805 1.721 . S
N1036 N838 1.721 1_556 S
N937 N871 1.721 . S
N970 N904 1.721 . S
N2 N233 1.697 . S
N35 N134 1.697 . S
N167 N68 1.697 . S
N101 N200 1.697 . S
N266 N497 1.697 . S
N398 N299 1.697 . S
N332 N431 1.697 . S
N365 N464 1.697 . S
N761 N530 1.697 . S
N662 N563 1.697 . S
N596 N695 1.697 . S
N629 N728 1.697 . S
N794 N1025 1.697 . S
N926 N827 1.697 . S
N860 N959 1.697 . S
N893 N992 1.697 . S
C21 C1011 1.378 . S
C516 C54 1.378 1_655 S
C945 C87 1.378 . S
C120 C450 1.378 . S
C153 C879 1.378 . S
C384 C186 1.378 . S
C219 C813 1.378 . S
C252 C318 1.378 1_455 S
C285 C747 1.378 . S
C351 C681 1.378 . S
C417 C615 1.378 . S
C483 C549 1.378 . S
C582 C1044 1.378 . S
C978 C648 1.378 1_455 S
C912 C714 1.378 1_455 S
C846 C780 1.378 . S
