# Generated by pormake.
# Topology svk, (7)-cn, num edge types: 1
# Building blocks:
#     Node 0, Type 0, BuildingBlock: HICVOG_clean_sbu_0, # of connection points: 7
#     Node 1, Type 0, BuildingBlock: HICVOG_clean_sbu_0, # of connection points: 7
#     Node 2, Type 0, BuildingBlock: HICVOG_clean_sbu_0, # of connection points: 7
#     Node 3, Type 0, BuildingBlock: HICVOG_clean_sbu_0, # of connection points: 7
#     Edge 4, Type (0, 0), BuildingBlock: ZUJKAS_clean_linker_0, # of connection points: 2
#     Edge 5, Type (0, 0), BuildingBlock: ZUJKAS_clean_linker_0, # of connection points: 2
#     Edge 6, Type (0, 0), BuildingBlock: ZUJKAS_clean_linker_0, # of connection points: 2
#     Edge 7, Type (0, 0), BuildingBlock: ZUJKAS_clean_linker_0, # of connection points: 2
#     Edge 8, Type (0, 0), BuildingBlock: ZUJKAS_clean_linker_0, # of connection points: 2
#     Edge 9, Type (0, 0), BuildingBlock: ZUJKAS_clean_linker_0, # of connection points: 2
#     Edge 10, Type (0, 0), BuildingBlock: ZUJKAS_clean_linker_0, # of connection points: 2
#     Edge 11, Type (0, 0), BuildingBlock: ZUJKAS_clean_linker_0, # of connection points: 2
#     Edge 12, Type (0, 0), BuildingBlock: ZUJKAS_clean_linker_0, # of connection points: 2
#     Edge 13, Type (0, 0), BuildingBlock: ZUJKAS_clean_linker_0, # of connection points: 2
#     Edge 14, Type (0, 0), BuildingBlock: ZUJKAS_clean_linker_0, # of connection points: 2
#     Edge 15, Type (0, 0), BuildingBlock: ZUJKAS_clean_linker_0, # of connection points: 2
#     Edge 16, Type (0, 0), BuildingBlock: ZUJKAS_clean_linker_0, # of connection points: 2
#     Edge 17, Type (0, 0), BuildingBlock: ZUJKAS_clean_linker_0, # of connection points: 2
# Relax obj value: 0.235
# Max RMSD: 0.239
# Mean RMSD: 0.239
data_MOF--net-svk--node1-HICVOG_clean_sbu_0--edge1-ZUJKAS_clean_linker_0
_symmetry_space_group_name_H-M    P1
_symmetry_Int_Tables_number       1
_symmetry_cell_setting            triclinic
loop_
_symmetry_equiv_pos_as_xyz
'x, y, z'
_cell_length_a     22.006788
_cell_length_b     68.480581
_cell_length_c     24.991702
_cell_angle_alpha  90.381175
_cell_angle_beta   89.938544
_cell_angle_gamma 89.9141
loop_
_atom_site_label
_atom_site_type_symbol
_atom_site_fract_x
_atom_site_fract_y
_atom_site_fract_z
_atom_type_partial_charge
Zn0 Zn 0.06056 0.38263 0.07777 0.0
C1 C 0.94568 0.34135 0.02648 0.0
N2 N 0.97664 0.33038 0.0615 0.0
C3 C 0.02257 0.34215 0.07608 0.0
N4 N 0.01935 0.35961 0.05145 0.0
N5 N 0.97164 0.35901 0.01924 0.0
C6 C 0.83169 0.37821 0.99335 0.0
O7 O 0.8622 0.38274 0.03683 0.0
O8 O 0.15173 0.37816 0.08341 0.0
Zn9 Zn 0.95305 0.37682 0.96092 0.0
N10 N 0.02056 0.389 0.14512 0.0
C11 C 0.92992 0.40408 0.17712 0.0
C12 C 0.96627 0.39773 0.13511 0.0
C13 C 0.03962 0.38586 0.19636 0.0
N14 N 0.94894 0.40129 0.22793 0.0
C15 C 1.0026 0.39232 0.23931 0.0
O16 O 0.97519 0.40564 0.97329 0.0
C17 C 0.01353 0.41551 1.00059 0.0
O18 O 0.0471 0.40745 0.03558 0.0
H19 H 0.95141 0.39982 0.0944 0.0
H20 H 0.08287 0.3788 0.20342 0.0
C21 C 0.98552 0.37008 0.84688 0.0
C22 C 0.02368 0.36214 0.80663 0.0
C23 C 0.08844 0.34939 0.87388 0.0
C24 C 0.05117 0.35734 0.91321 0.0
N25 N 1.00009 0.36732 0.89942 0.0
N26 N 0.07387 0.35195 0.82184 0.0
H27 H 0.94474 0.37808 0.83679 0.0
C28 C 0.17988 0.37835 0.03884 0.0
O29 O 0.14848 0.38124 0.99491 0.0
O30 O 0.86128 0.37517 0.95021 0.0
H31 H 0.06312 0.35544 0.95462 0.0
H32 H 0.88685 0.41116 0.1695 0.0
H33 H 0.12888 0.34132 0.88457 0.0
Zn34 Zn 0.0575 0.66164 0.92261 0.0
C35 C 0.93837 0.70127 0.976 0.0
N36 N 0.96799 0.71279 0.94144 0.0
C37 C 0.01556 0.70171 0.92652 0.0
N38 N 0.01469 0.68412 0.95067 0.0
N39 N 0.96666 0.68394 0.98263 0.0
C40 C 0.82776 0.66148 0.01577 0.0
O41 O 0.85591 0.654 0.97402 0.0
O42 O 0.14928 0.66616 0.9198 0.0
Zn43 Zn 0.95093 0.66579 0.04043 0.0
N44 N 0.01778 0.65685 0.85443 0.0
C45 C 0.92264 0.64525 0.82217 0.0
C46 C 0.96225 0.64893 0.86408 0.0
C47 C 0.0355 0.66144 0.80365 0.0
N48 N 0.9397 0.64988 0.77187 0.0
C49 C 0.99483 0.65791 0.76087 0.0
O50 O 0.97173 0.63706 0.02471 0.0
C51 C 0.00927 0.62753 0.99556 0.0
O52 O 0.04253 0.63606 0.96117 0.0
H53 H 0.94832 0.64583 0.90456 0.0
H54 H 0.07922 0.66822 0.79701 0.0
C55 C 0.99302 0.66922 0.15253 0.0
C56 C 0.03621 0.67491 0.19141 0.0
C57 C 0.09362 0.69072 0.12403 0.0
C58 C 0.05142 0.68496 0.08586 0.0
N59 N 1.00198 0.67429 0.10037 0.0
N60 N 0.08523 0.68551 0.1756 0.0
H61 H 0.95408 0.66042 0.16317 0.0
C62 C 0.17574 0.66409 0.96478 0.0
O63 O 0.14247 0.65958 0.00659 0.0
O64 O 0.85968 0.66763 0.05491 0.0
H65 H 0.05903 0.68877 0.04473 0.0
H66 H 0.87832 0.639 0.82953 0.0
H67 H 0.13318 0.6991 0.1127 0.0
Zn68 Zn 0.55676 0.88223 0.06977 0.0
C69 C 0.44087 0.84152 0.01751 0.0
N70 N 0.47113 0.83032 0.05244 0.0
C71 C 0.51777 0.84178 0.06716 0.0
N72 N 0.51572 0.85929 0.04257 0.0
N73 N 0.46786 0.85901 0.01051 0.0
C74 C 0.32844 0.87846 0.98367 0.0
O75 O 0.35853 0.88316 0.02725 0.0
O76 O 0.64796 0.87769 0.07593 0.0
Zn77 Zn 0.44995 0.87714 0.95304 0.0
N78 N 0.51502 0.88789 0.13681 0.0
C79 C 0.42158 0.90137 0.16791 0.0
C80 C 0.46144 0.89704 0.12652 0.0
C81 C 0.53037 0.88267 0.18771 0.0
N82 N 0.43633 0.89615 0.21832 0.0
C83 C 0.48942 0.88687 0.22995 0.0
O84 O 0.47051 0.90585 0.96786 0.0
C85 C 0.5097 0.91561 0.99445 0.0
O86 O 0.54457 0.90744 0.02828 0.0
H87 H 0.44911 0.9006 0.08597 0.0
H88 H 0.57239 0.87489 0.19479 0.0
C89 C 0.48842 0.87311 0.83965 0.0
C90 C 0.53072 0.86728 0.8 0.0
C91 C 0.59137 0.8525 0.86699 0.0
C92 C 0.5501 0.85841 0.90586 0.0
N93 N 0.49944 0.86861 0.89193 0.0
N94 N 0.58092 0.85712 0.8153 0.0
H95 H 0.44853 0.88155 0.82946 0.0
C96 C 0.67612 0.87839 0.03139 0.0
O97 O 0.64458 0.88162 0.98772 0.0
O98 O 0.35845 0.87534 0.9408 0.0
H99 H 0.55928 0.85507 0.94707 0.0
H100 H 0.37879 0.90859 0.16003 0.0
H101 H 0.63185 0.84447 0.87785 0.0
Zn102 Zn 0.55401 0.16193 0.93029 0.0
C103 C 0.43932 0.2021 0.98912 0.0
N104 N 0.46957 0.21388 0.95567 0.0
C105 C 0.51512 0.20243 0.93809 0.0
N106 N 0.51261 0.18444 0.95983 0.0
N107 N 0.46536 0.18431 0.99266 0.0
C108 C 0.32466 0.15879 0.0295 0.0
O109 O 0.35151 0.14813 0.9925 0.0
O110 O 0.64564 0.16642 0.9262 0.0
Zn111 Zn 0.4484 0.16569 0.04865 0.0
N112 N 0.5135 0.15743 0.86244 0.0
C113 C 0.41788 0.14609 0.83072 0.0
C114 C 0.45631 0.15097 0.87262 0.0
C115 C 0.53378 0.15971 0.8112 0.0
N116 N 0.43792 0.14803 0.77988 0.0
C117 C 0.49464 0.15474 0.76837 0.0
O118 O 0.46837 0.13706 0.03157 0.0
C119 C 0.50551 0.12753 0.00209 0.0
O120 O 0.53887 0.13608 0.96782 0.0
H121 H 0.44081 0.14953 0.91345 0.0
H122 H 0.57943 0.16494 0.80404 0.0
C123 C 0.4842 0.17303 0.16141 0.0
C124 C 0.52663 0.17945 0.20014 0.0
C125 C 0.59682 0.18653 0.1307 0.0
C126 C 0.55534 0.17998 0.09288 0.0
N127 N 0.49964 0.17359 0.10853 0.0
N128 N 0.58157 0.18612 0.18314 0.0
H129 H 0.43966 0.16785 0.17287 0.0
C130 C 0.67544 0.16044 0.96664 0.0
O131 O 0.64579 0.152 0.00579 0.0
O132 O 0.35755 0.16794 0.06323 0.0
H133 H 0.56766 0.17998 0.05112 0.0
H134 H 0.37243 0.14081 0.83844 0.0
H135 H 0.64105 0.19178 0.11856 0.0
H136 H 0.95491 0.43924 0.92791 0.0
H137 H 0.9555 0.47507 0.92462 0.0
H138 H 0.07414 0.47684 0.06171 0.0
H139 H 0.07535 0.44134 0.06429 0.0
H140 H 0.91742 0.50208 0.99499 0.0
H141 H 0.16386 0.5126 0.96401 0.0
H142 H 0.12825 0.489 0.95769 0.0
H143 H 0.14873 0.49847 0.02264 0.0
C144 C 0.98179 0.44725 0.9569 0.0
C145 C 0.01561 0.43726 0.99596 0.0
C146 C 0.9819 0.46778 0.95513 0.0
C147 C 0.01579 0.4788 0.99231 0.0
C148 C 0.04905 0.46882 0.03153 0.0
H149 H 0.95553 0.60297 0.06896 0.0
H150 H 0.95638 0.56715 0.06908 0.0
C151 C 0.04941 0.44838 0.03306 0.0
C152 C 0.01508 0.50067 0.99143 0.0
H153 H 0.10758 0.54079 0.99139 0.0
C154 C 0.95903 0.51053 0.99382 0.0
C155 C 0.06918 0.51185 0.98922 0.0
C156 C 0.13082 0.50244 0.98267 0.0
C157 C 0.95564 0.5311 0.99502 0.0
C158 C 0.00991 0.54226 0.99533 0.0
C159 C 0.06587 0.53237 0.99201 0.0
C160 C 0.00997 0.56415 0.99672 0.0
C161 C 0.89377 0.54062 0.99462 0.0
C162 C 0.04175 0.57459 0.95743 0.0
C163 C 0.04238 0.59503 0.95792 0.0
C164 C 0.011 0.60572 0.99767 0.0
C165 C 0.97986 0.59528 0.03754 0.0
C166 C 0.97982 0.57475 0.03733 0.0
H167 H 0.85849 0.5306 0.97851 0.0
H168 H 0.88069 0.54456 0.0362 0.0
H169 H 0.89389 0.55413 0.97027 0.0
H170 H 0.06562 0.5669 0.92573 0.0
H171 H 0.06675 0.60245 0.92636 0.0
H172 H 0.42753 0.10268 0.05468 0.0
H173 H 0.42746 0.06692 0.05288 0.0
H174 H 0.58746 0.06712 0.95319 0.0
H175 H 0.58709 0.10277 0.95377 0.0
H176 H 0.50528 0.04183 0.915 0.0
H177 H 0.53391 0.02904 0.13222 0.0
H178 H 0.4691 0.04389 0.1168 0.0
H179 H 0.54431 0.05277 0.10266 0.0
C180 C 0.46314 0.09514 0.03285 0.0
C181 C 0.50745 0.10573 0.00456 0.0
C182 C 0.46317 0.07462 0.03201 0.0
C183 C 0.50795 0.06417 0.00347 0.0
C184 C 0.55242 0.07473 0.97558 0.0
H185 H 0.59375 0.94078 0.03708 0.0
H186 H 0.59275 0.97643 0.03652 0.0
C187 C 0.55222 0.0952 0.97611 0.0
C188 C 0.50775 0.04231 1.00112 0.0
H189 H 0.51149 1.00127 0.07846 0.0
C190 C 0.50673 0.03298 0.9508 0.0
C191 C 0.51039 0.03063 0.04768 0.0
C192 C 0.5151 0.03956 0.10288 0.0
C193 C 0.50794 1.01247 0.94574 0.0
C194 C 0.50888 1.00079 0.99233 0.0
C195 C 0.51024 1.01012 0.04265 0.0
C196 C 0.51027 0.97893 0.99001 0.0
C197 C 0.5099 1.00356 0.89038 0.0
C198 C 0.46442 0.96824 0.9638 0.0
C199 C 0.46516 0.94772 0.96359 0.0
C200 C 0.51137 0.93737 0.99021 0.0
C201 C 0.55741 0.94815 0.01606 0.0
C202 C 0.55682 0.96862 0.01596 0.0
H203 H 0.52632 1.01416 0.8602 0.0
H204 H 0.53986 0.9905 0.88919 0.0
H205 H 0.4634 0.99899 0.87867 0.0
H206 H 0.42718 0.97574 0.94448 0.0
H207 H 0.42855 0.93999 0.94379 0.0
H208 H 0.05297 0.33658 0.7275 0.0
H209 H 0.05121 0.34189 0.6312 0.0
H210 H 0.9693 0.39844 0.65638 0.0
H211 H 0.97214 0.39343 0.75349 0.0
H212 H 0.95793 0.34967 0.55951 0.0
H213 H 0.12318 0.41085 0.56971 0.0
H214 H 0.10917 0.39487 0.62553 0.0
H215 H 0.05626 0.41403 0.6101 0.0
C216 C 0.03407 0.35012 0.71268 0.0
C217 C 0.01292 0.36461 0.74837 0.0
C218 C 0.03303 0.3531 0.65753 0.0
C219 C 0.01125 0.37069 0.63662 0.0
C220 C 0.98738 0.38488 0.67178 0.0
H221 H 0.97815 0.4174 0.32045 0.0
H222 H 0.98557 0.41149 0.41622 0.0
C223 C 0.98824 0.38189 0.72727 0.0
C224 C 0.01541 0.37418 0.57812 0.0
H225 H 0.08193 0.40342 0.4846 0.0
C226 C 0.98513 0.36139 0.54307 0.0
C227 C 0.05145 0.38937 0.55678 0.0
C228 C 0.08737 0.40299 0.59234 0.0
C229 C 0.98862 0.36367 0.4873 0.0
C230 C 0.02435 0.37893 0.46597 0.0
C231 C 0.05495 0.39165 0.50102 0.0
C232 C 0.02648 0.38292 0.40764 0.0
C233 C 0.95253 0.3501 0.45174 0.0
C234 C 0.04921 0.36909 0.37079 0.0
C235 C 0.04516 0.37246 0.31554 0.0
C236 C 0.01828 0.38972 0.29654 0.0
C237 C 0.9987 0.40389 0.33377 0.0
C238 C 1.00296 0.40056 0.38861 0.0
H239 H 0.91781 0.34183 0.47458 0.0
H240 H 0.92936 0.35835 0.41954 0.0
H241 H 0.98379 0.3394 0.43261 0.0
H242 H 0.06855 0.3555 0.38471 0.0
H243 H 0.06015 0.36118 0.28795 0.0
H244 H 0.1288 0.66575 0.25778 0.0
H245 H 0.12563 0.66157 0.35456 0.0
H246 H 0.9311 0.66938 0.35261 0.0
H247 H 0.93388 0.67325 0.25512 0.0
H248 H 0.09004 0.68861 0.42656 0.0
H249 H 0.94854 0.62221 0.44793 0.0
H250 H 0.98108 0.62939 0.38474 0.0
H251 H 0.91276 0.6409 0.40901 0.0
C252 C 0.08513 0.66626 0.27781 0.0
C253 C 0.03152 0.66974 0.24876 0.0
C254 C 0.08346 0.66389 0.33317 0.0
C255 C 0.02818 0.66503 0.36091 0.0
C256 C 0.97419 0.66802 0.33195 0.0
H257 H 0.91493 0.67109 0.68766 0.0
H258 H 0.9288 0.67352 0.59127 0.0
C259 C 0.97577 0.67022 0.27621 0.0
C260 C 0.02803 0.66436 0.42033 0.0
H261 H 0.96691 0.64071 0.52742 0.0
C262 C 0.06354 0.67802 0.44863 0.0
C263 C 0.99371 0.65049 0.44909 0.0
C264 C 0.95734 0.63479 0.42118 0.0
C265 C 0.06418 0.67854 0.50484 0.0
C266 C 0.02873 0.66498 0.53345 0.0
C267 C 0.99402 0.65113 0.50526 0.0
C268 C 0.02383 0.66553 0.59259 0.0
C269 C 0.10117 0.69395 0.53329 0.0
C270 C 0.07331 0.66074 0.62559 0.0
C271 C 0.06558 0.65938 0.68124 0.0
C272 C 0.00812 0.66267 0.7043 0.0
C273 C 0.95968 0.66832 0.67111 0.0
C274 C 0.96742 0.6697 0.61596 0.0
H275 H 0.11815 0.70528 0.50544 0.0
H276 H 0.0737 0.70115 0.5651 0.0
H277 H 0.14089 0.68696 0.55271 0.0
H278 H 0.11712 0.65727 0.60817 0.0
H279 H 0.10351 0.65473 0.70563 0.0
H280 H 0.42606 0.86878 0.73894 0.0
H281 H 0.42008 0.87214 0.64121 0.0
H282 H 0.61471 0.87864 0.63332 0.0
H283 H 0.62103 0.87556 0.73029 0.0
H284 H 0.54909 0.90502 0.56737 0.0
H285 H 0.47784 0.8278 0.53845 0.0
H286 H 0.43185 0.84208 0.58359 0.0
H287 H 0.50932 0.83673 0.60063 0.0
C288 C 0.46735 0.87133 0.71647 0.0
C289 C 0.52404 0.87186 0.74236 0.0
C290 C 0.46398 0.87302 0.66062 0.0
C291 C 0.51714 0.87531 0.63001 0.0
C292 C 0.57323 0.87675 0.65609 0.0
H293 H 0.59759 0.8864 0.28655 0.0
H294 H 0.60905 0.88225 0.3837 0.0
C295 C 0.57669 0.87495 0.71155 0.0
C296 C 0.51526 0.87559 0.57068 0.0
H297 H 0.48405 0.84731 0.46105 0.0
C298 C 0.53494 0.89242 0.54403 0.0
C299 C 0.4974 0.85904 0.54046 0.0
C300 C 0.47834 0.8403 0.56703 0.0
C301 C 0.5357 0.89333 0.48787 0.0
C302 C 0.51759 0.87679 0.45759 0.0
C303 C 0.49838 0.85991 0.48432 0.0
C304 C 0.5133 0.87728 0.39831 0.0
C305 C 0.55403 0.91218 0.46147 0.0
C306 C 0.4564 0.87491 0.37412 0.0
C307 C 0.44992 0.87705 0.31903 0.0
C308 C 0.50026 0.88151 0.28658 0.0
C309 C 0.55802 0.88284 0.31033 0.0
C310 C 0.56446 0.88073 0.3659 0.0
H311 H 0.55413 0.92464 0.49019 0.0
H312 H 0.60058 0.91061 0.44489 0.0
H313 H 0.52287 0.91571 0.42796 0.0
H314 H 0.4164 0.8721 0.39819 0.0
H315 H 0.40486 0.87575 0.30195 0.0
H316 H 0.46124 0.13061 0.68779 0.0
H317 H 0.47075 0.13601 0.5919 0.0
H318 H 0.57214 0.18874 0.62238 0.0
H319 H 0.56282 0.1834 0.71923 0.0
H320 H 0.42305 0.16943 0.54172 0.0
H321 H 0.67061 0.16059 0.50308 0.0
H322 H 0.63436 0.15129 0.56256 0.0
H323 H 0.64991 0.17691 0.55679 0.0
C324 C 0.48658 0.1432 0.6742 0.0
C325 C 0.51132 0.15658 0.71114 0.0
C326 C 0.49185 0.14626 0.61934 0.0
C327 C 0.52206 0.16275 0.59998 0.0
C328 C 0.54928 0.17577 0.63652 0.0
H329 H 0.57107 0.20426 0.27542 0.0
H330 H 0.56608 0.2012 0.37248 0.0
C331 C 0.54416 0.17266 0.69182 0.0
C332 C 0.52061 0.16684 0.54176 0.0
H333 H 0.60952 0.17024 0.43027 0.0
C334 C 0.46382 0.16963 0.51729 0.0
C335 C 0.57382 0.16714 0.51013 0.0
C336 C 0.63572 0.16369 0.53417 0.0
C337 C 0.45878 0.17275 0.462 0.0
C338 C 0.5119 0.17273 0.43015 0.0
C339 C 0.56879 0.1702 0.45474 0.0
C340 C 0.50977 0.17536 0.37123 0.0
C341 C 0.39674 0.17635 0.43834 0.0
C342 C 0.47886 0.16201 0.33809 0.0
C343 C 0.48131 0.16377 0.28227 0.0
C344 C 0.51524 0.17884 0.2587 0.0
C345 C 0.54466 0.19245 0.29221 0.0
C346 C 0.54198 0.19072 0.34776 0.0
H347 H 0.36353 0.18113 0.4693 0.0
H348 H 0.39874 0.1876 0.4066 0.0
H349 H 0.37967 0.16259 0.42014 0.0
H350 H 0.45468 0.1498 0.35531 0.0
H351 H 0.45921 0.15279 0.25779 0.0
H352 H 0.75033 0.37093 0.9116 0.0
H353 H 0.63899 0.36887 0.91865 0.0
H354 H 0.65105 0.37796 0.08916 0.0
H355 H 0.76107 0.38039 0.0825 0.0
H356 H 0.56224 0.3441 0.97816 0.0
H357 H 0.53518 0.42111 0.04385 0.0
H358 H 0.60504 0.41188 0.01546 0.0
H359 H 0.58712 0.40757 0.08464 0.0
C360 C 0.72913 0.37255 0.9505 0.0
C361 C 0.7646 0.37618 0.9963 0.0
C362 C 0.66558 0.37131 0.95452 0.0
C363 C 0.63657 0.3737 0.00431 0.0
C364 C 0.67218 0.37658 0.05015 0.0
H365 H 0.26288 0.3767 0.12095 0.0
H366 H 0.37382 0.37373 0.11327 0.0
C367 C 0.73529 0.37791 0.04619 0.0
C368 C 0.56916 0.37346 0.0089 0.0
H369 H 0.44833 0.40077 0.05219 0.0
C370 C 0.53726 0.35652 0.99398 0.0
C371 C 0.53653 0.38968 0.02968 0.0
C372 C 0.56759 0.40866 0.04385 0.0
C373 C 0.4738 0.35526 1.00035 0.0
C374 C 0.44147 0.37141 0.02171 0.0
C375 C 0.47331 0.38833 0.03639 0.0
C376 C 0.37421 0.37149 0.02687 0.0
C377 C 0.44184 0.33657 0.98511 0.0
C378 C 0.33774 0.37119 0.98092 0.0
C379 C 0.27466 0.37305 0.98514 0.0
C380 C 0.24657 0.37526 0.03547 0.0
C381 C 0.28306 0.37507 0.08163 0.0
C382 C 0.3464 0.37335 0.0773 0.0
H383 H 0.47412 0.32416 0.98097 0.0
H384 H 0.40683 0.33278 0.01535 0.0
H385 H 0.41859 0.33856 0.94614 0.0
H386 H 0.35824 0.37007 0.94159 0.0
H387 H 0.24799 0.37305 0.94874 0.0
H388 H 0.75343 0.68411 0.08022 0.0
H389 H 0.64194 0.68697 0.07539 0.0
H390 H 0.63945 0.64592 0.9439 0.0
H391 H 0.74971 0.64297 0.9484 0.0
H392 H 0.56527 0.69762 0.98167 0.0
H393 H 0.52044 0.62298 0.05736 0.0
H394 H 0.59214 0.63527 0.06732 0.0
H395 H 0.57495 0.62411 0.00387 0.0
C396 C 0.72895 0.67558 0.05067 0.0
C397 C 0.76043 0.66313 0.01513 0.0
C398 C 0.66537 0.67733 0.04769 0.0
C399 C 0.63234 0.66648 0.00962 0.0
C400 C 0.66385 0.65424 0.97399 0.0
H401 H 0.26123 0.67341 0.88816 0.0
H402 H 0.37185 0.6757 0.89998 0.0
C403 C 0.72704 0.6526 0.97663 0.0
C404 C 0.56488 0.66762 0.00682 0.0
H405 H 0.4372 0.63963 0.01802 0.0
C406 C 0.53711 0.68501 0.99 0.0
C407 C 0.52819 0.6512 0.01798 0.0
C408 C 0.55522 0.63236 0.0381 0.0
C409 C 0.47368 0.68623 0.98277 0.0
C410 C 0.43726 0.66956 0.99215 0.0
C411 C 0.46507 0.65235 0.01027 0.0
C412 C 0.37003 0.6696 0.98487 0.0
C413 C 0.44609 0.70536 0.96564 0.0
C414 C 0.33219 0.66527 0.02838 0.0
C415 C 0.26931 0.66384 0.02168 0.0
C416 C 0.24253 0.66656 0.97113 0.0
C417 C 0.28033 0.6712 0.92759 0.0
C418 C 0.34354 0.67267 0.93439 0.0
H419 H 0.47755 0.7178 0.97263 0.0
H420 H 0.43576 0.70467 0.92222 0.0
H421 H 0.40294 0.70826 0.98739 0.0
H422 H 0.35144 0.6628 0.06764 0.0
H423 H 0.24179 0.66033 0.05625 0.0
H424 H 0.2575 0.88008 0.07266 0.0
H425 H 0.1476 0.87721 0.07907 0.0
H426 H 0.1363 0.86913 0.90808 0.0
H427 H 0.24745 0.87155 0.9014 0.0
H428 H 0.06393 0.90089 0.03604 0.0
H429 H 0.02834 0.82534 0.96087 0.0
H430 H 0.10239 0.83446 0.97931 0.0
H431 H 0.06975 0.84069 0.91576 0.0
C432 C 0.23192 0.87758 0.03626 0.0
C433 C 0.2614 0.87618 0.98638 0.0
C434 C 0.16888 0.87591 0.04009 0.0
C435 C 0.13347 0.87279 0.99422 0.0
C436 C 0.16265 0.87117 0.94423 0.0
H437 H 0.74463 0.87527 0.9408 0.0
H438 H 0.85502 0.87289 0.93336 0.0
C439 C 0.22615 0.87272 0.94037 0.0
C440 C 0.066 0.87238 0.99915 0.0
H441 H 0.93975 0.84452 0.97586 0.0
C442 C 0.03689 0.8885 0.02311 0.0
C443 C 0.03059 0.85623 0.9823 0.0
C444 C 0.05929 0.83811 0.95857 0.0
C445 C 0.97358 0.88903 0.03015 0.0
C446 C 0.93819 0.87292 0.01328 0.0
C447 C 0.96705 0.85682 0.98902 0.0
C448 C 0.8709 0.87295 0.01869 0.0
C449 C 0.94486 0.90703 0.05458 0.0
C450 C 0.8429 0.87337 0.06929 0.0
C451 C 0.77947 0.87472 0.07379 0.0
C452 C 0.743 0.87573 0.02771 0.0
C453 C 0.77126 0.87471 0.97718 0.0
C454 C 0.83444 0.87326 0.97276 0.0
H455 H 0.97666 0.91961 0.05534 0.0
H456 H 0.90344 0.91128 0.0321 0.0
H457 H 0.9312 0.90386 0.09638 0.0
H458 H 0.87019 0.87288 0.1053 0.0
H459 H 0.75917 0.87533 0.11326 0.0
H460 H 0.25438 0.1884 0.07178 0.0
H461 H 0.1443 0.19287 0.06098 0.0
H462 H 0.13403 0.13821 0.97474 0.0
H463 H 0.24356 0.13411 0.9834 0.0
H464 H 0.07201 0.16489 0.92391 0.0
H465 H 0.00639 0.16818 0.13832 0.0
H466 H 0.06007 0.18652 0.119 0.0
H467 H 0.0816 0.16117 0.11692 0.0
C468 C 0.22839 0.17726 0.05108 0.0
C469 C 0.25761 0.16088 0.02855 0.0
C470 C 0.16543 0.1798 0.04504 0.0
C471 C 0.13046 0.1658 0.01747 0.0
C472 C 0.15976 0.14929 0.99599 0.0
H473 H 0.75204 0.14008 0.03036 0.0
H474 H 0.86148 0.14373 0.04006 0.0
C475 C 0.22248 0.14691 1.0012 0.0
C476 C 0.06371 0.16827 0.00934 0.0
H477 H 0.92826 0.17295 0.07522 0.0
C478 C 0.04058 0.16671 0.95704 0.0
C479 C 0.02252 0.17063 0.05249 0.0
C480 C 0.0437 0.17155 0.10987 0.0
C481 C 0.97775 0.16671 0.94681 0.0
C482 C 0.93655 0.169 0.98996 0.0
C483 C 0.95973 0.17127 0.04207 0.0
C484 C 0.86944 0.16721 0.98293 0.0
C485 C 0.95629 0.16328 0.89018 0.0
C486 C 0.83683 0.1792 0.94745 0.0
C487 C 0.77384 0.17686 0.941 0.0
C488 C 0.74226 0.16278 0.97081 0.0
C489 C 0.77491 0.15107 0.00678 0.0
C490 C 0.83763 0.1532 0.01254 0.0
H491 H 0.99276 0.15703 0.86447 0.0
H492 H 0.91677 0.15323 0.88922 0.0
H493 H 0.94214 0.1774 0.87256 0.0
H494 H 0.8599 0.19046 0.92509 0.0
H495 H 0.74976 0.18629 0.91359 0.0
H496 H 0.44636 0.21262 0.09397 0.0
H497 H 0.37704 0.23537 0.1401 0.0
H498 H 0.25678 0.23365 0.00393 0.0
H499 H 0.32574 0.21102 0.95835 0.0
H500 H 0.35432 0.27182 0.09831 0.0
H501 H 0.13669 0.23324 0.1272 0.0
H502 H 0.20759 0.22046 0.1165 0.0
H503 H 0.16537 0.22989 0.06058 0.0
C504 C 0.40356 0.21637 0.07529 0.0
C505 C 0.39038 0.2098 0.02327 0.0
C506 C 0.36438 0.22954 0.1013 0.0
C507 C 0.31139 0.23614 0.07571 0.0
C508 C 0.29657 0.2285 0.02507 0.0
H509 H 0.13223 0.34096 0.02857 0.0
H510 H 0.2113 0.31697 0.045 0.0
C511 C 0.33587 0.21552 0.99903 0.0
C512 C 0.27603 0.25293 0.09751 0.0
H513 H 0.13044 0.26837 0.11788 0.0
C514 C 0.30551 0.27099 0.10395 0.0
C515 C 0.21256 0.25189 0.10564 0.0
C516 C 0.17881 0.23276 0.10268 0.0
C517 C 0.2726 0.28824 0.11425 0.0
C518 C 0.20842 0.28745 0.11744 0.0
C519 C 0.17956 0.26914 0.11508 0.0
C520 C 0.1696 0.30531 0.11656 0.0
C521 C 0.30697 0.30718 0.12017 0.0
C522 C 0.12032 0.30734 0.15205 0.0
C523 C 0.07502 0.3213 0.14267 0.0
C524 C 0.07859 0.33359 0.09804 0.0
C525 C 0.13008 0.33254 0.065 0.0
C526 C 0.17514 0.31856 0.07412 0.0
H527 H 0.35256 0.30465 0.1379 0.0
H528 H 0.31399 0.31366 0.08004 0.0
H529 H 0.28196 0.31786 0.14558 0.0
H530 H 0.11466 0.29722 0.18481 0.0
H531 H 0.03484 0.32143 0.16777 0.0
H532 H 0.62885 0.84075 0.02157 0.0
H533 H 0.70485 0.81542 0.03574 0.0
H534 H 0.60412 0.7947 0.17211 0.0
H535 H 0.52749 0.82017 0.15753 0.0
H536 H 0.7802 0.79983 0.11303 0.0
H537 H 0.5882 0.74974 0.06607 0.0
H538 H 0.58157 0.77587 0.06038 0.0
H539 H 0.5792 0.76458 0.12506 0.0
C540 C 0.62499 0.83168 0.0567 0.0
C541 C 0.57305 0.83275 0.08923 0.0
C542 C 0.66795 0.81689 0.06423 0.0
C543 C 0.65938 0.8028 0.10413 0.0
C544 C 0.611 0.80514 0.14034 0.0
H545 H 0.932 0.70763 0.08409 0.0
H546 H 0.85978 0.72967 0.12935 0.0
C547 C 0.56776 0.81989 0.13255 0.0
C548 C 0.6959 0.78449 0.10232 0.0
H549 H 0.68515 0.73594 0.07042 0.0
C550 C 0.75948 0.78577 0.1048 0.0
C551 C 0.66869 0.76616 0.0908 0.0
C552 C 0.60075 0.76391 0.08494 0.0
C553 C 0.79664 0.76949 0.09375 0.0
C554 C 0.76941 0.75131 0.08085 0.0
C555 C 0.70585 0.74982 0.08093 0.0
C556 C 0.80553 0.73477 0.05855 0.0
C557 C 0.86468 0.77223 0.09236 0.0
C558 C 0.79648 0.72925 0.00496 0.0
C559 C 0.83704 0.71655 0.97952 0.0
C560 C 0.88683 0.70888 0.00734 0.0
C561 C 0.89317 0.71303 0.06215 0.0
C562 C 0.85252 0.72587 0.08772 0.0
H563 H 0.87781 0.78787 0.0951 0.0
H564 H 0.88548 0.76447 0.12661 0.0
H565 H 0.88403 0.76599 0.05492 0.0
H566 H 0.76049 0.73585 0.98165 0.0
H567 H 0.83184 0.71375 0.93704 0.0
H568 H 0.33582 0.8286 0.05837 0.0
H569 H 0.2635 0.80668 0.01473 0.0
H570 H 0.35939 0.81316 0.86525 0.0
H571 H 0.43257 0.83505 0.90951 0.0
H572 H 0.18613 0.80738 0.92747 0.0
H573 H 0.37629 0.75467 0.8974 0.0
H574 H 0.38411 0.77635 0.93816 0.0
H575 H 0.38426 0.77817 0.86652 0.0
C576 C 0.34016 0.82586 0.01577 0.0
C577 C 0.38919 0.83361 0.98709 0.0
C578 C 0.29902 0.81328 0.99088 0.0
C579 C 0.30674 0.80794 0.93698 0.0
C580 C 0.35315 0.81684 0.9071 0.0
H581 H 0.02348 0.72465 0.83849 0.0
H582 H 0.10046 0.75 0.82454 0.0
C583 C 0.39434 0.82958 0.93212 0.0
C584 C 0.26958 0.79167 0.91482 0.0
H585 H 0.27792 0.74333 0.88011 0.0
C586 C 0.20609 0.79347 0.91597 0.0
C587 C 0.29588 0.77344 0.90068 0.0
C588 C 0.36381 0.77036 0.90085 0.0
C589 C 0.16814 0.77737 0.906 0.0
C590 C 0.19441 0.759 0.893 0.0
C591 C 0.25789 0.75743 0.88942 0.0
C592 C 0.15713 0.74089 0.89058 0.0
C593 C 0.10044 0.77992 0.91328 0.0
C594 C 0.16626 0.72631 0.92904 0.0
C595 C 0.1231 0.71159 0.93615 0.0
C596 C 0.07034 0.71111 0.90466 0.0
C597 C 0.0643 0.72451 0.86268 0.0
C598 C 0.10777 0.73917 0.85526 0.0
H599 H 0.08898 0.79389 0.93376 0.0
H600 H 0.07808 0.77993 0.87352 0.0
H601 H 0.08113 0.76776 0.937 0.0
H602 H 0.20395 0.72729 0.95679 0.0
H603 H 0.1277 0.70204 0.97023 0.0
H604 H 0.62887 0.20118 0.97866 0.0
H605 H 0.70605 0.22626 0.96575 0.0
H606 H 0.60041 0.25087 0.83745 0.0
H607 H 0.5223 0.2259 0.85124 0.0
H608 H 0.77887 0.243 0.88974 0.0
H609 H 0.59257 0.29371 0.94947 0.0
H610 H 0.58403 0.26756 0.95125 0.0
H611 H 0.57983 0.28027 0.88863 0.0
C612 C 0.62379 0.21121 0.94562 0.0
C613 C 0.57007 0.21143 0.91539 0.0
C614 C 0.66756 0.22578 0.93878 0.0
C615 C 0.65814 0.24084 0.90173 0.0
C616 C 0.6079 0.23971 0.86723 0.0
H617 H 0.93608 0.33432 0.9187 0.0
H618 H 0.86214 0.31241 0.87571 0.0
C619 C 0.56378 0.22526 0.8745 0.0
C620 C 0.69607 0.2588 0.90488 0.0
H621 H 0.6898 0.30701 0.94138 0.0
C622 C 0.75942 0.25709 0.90009 0.0
C623 C 0.67058 0.27716 0.91921 0.0
C624 C 0.60314 0.27986 0.92794 0.0
C625 C 0.79806 0.27296 0.91122 0.0
C626 C 0.77257 0.29118 0.92653 0.0
C627 C 0.70917 0.29311 0.92904 0.0
C628 C 0.81061 0.30735 0.94816 0.0
C629 C 0.86591 0.26972 0.90984 0.0
C630 C 0.8038 0.31281 0.00207 0.0
C631 C 0.84524 0.32549 0.0262 0.0
C632 C 0.89377 0.3332 0.99678 0.0
C633 C 0.89819 0.32896 0.94187 0.0
C634 C 0.8566 0.31616 0.91759 0.0
H635 H 0.8779 0.254 0.90606 0.0
H636 H 0.88549 0.27748 0.87504 0.0
H637 H 0.88746 0.27565 0.94666 0.0
H638 H 0.76862 0.30629 0.02647 0.0
H639 H 0.84149 0.32837 0.06877 0.0
loop_
_geom_bond_atom_site_label_1
_geom_bond_atom_site_label_2
_geom_bond_distance
_geom_bond_site_symmetry_2
_ccdc_geom_bond_type
Zn0 N4 2.020 . S
Zn0 O8 2.019 . S
Zn0 N10 2.119 . S
Zn0 O18 1.975 . S
C1 N2 1.334 1_656 S
C1 N5 1.336 . S
N2 C1 1.334 1_454 S
N2 C3 1.334 . S
C3 N2 1.334 . S
C3 N4 1.336 . S
N4 Zn0 2.020 . S
N4 C3 1.336 . S
N4 N5 1.354 1_454 S
N5 C1 1.336 . S
N5 N4 1.354 1_656 S
N5 Zn9 2.020 . S
C6 O7 1.244 1_556 S
C6 O30 1.257 . S
O7 C6 1.244 1_554 S
O8 Zn0 2.019 . S
O8 C28 1.257 . S
Zn9 N5 2.020 . S
Zn9 O16 1.975 . S
Zn9 N25 2.119 . S
Zn9 O30 2.019 . S
N10 Zn0 2.119 . S
N10 C12 1.334 1_455 S
N10 C13 1.328 . S
C11 C12 1.391 . S
C11 N14 1.330 1_655 S
C11 H32 0.930 . S
C12 N10 1.334 1_655 S
C12 C11 1.391 . S
C12 H19 0.930 . S
C13 N10 1.328 . S
C13 C15 1.392 . S
C13 H20 0.930 . S
N14 C11 1.330 1_455 S
N14 C15 1.330 . S
C15 C13 1.392 . S
C15 N14 1.330 . S
O16 Zn9 1.975 . S
O16 C17 1.252 1_656 S
C17 O16 1.252 1_454 S
C17 O18 1.252 . S
O18 Zn0 1.975 . S
O18 C17 1.252 . S
H19 C12 0.930 . S
H20 C13 0.930 . S
C21 C22 1.392 . S
C21 N25 1.328 . S
C21 H27 0.930 . S
C22 C21 1.392 . S
C22 N26 1.330 1_655 S
C23 C24 1.391 . S
C23 N26 1.330 . S
C23 H33 0.930 . S
C24 C23 1.391 . S
C24 N25 1.334 1_455 S
C24 H31 0.930 . S
N25 Zn9 2.119 . S
N25 C21 1.328 . S
N25 C24 1.334 1_655 S
N26 C22 1.330 1_455 S
N26 C23 1.330 . S
H27 C21 0.930 . S
C28 O8 1.257 . S
C28 O29 1.244 1_554 S
O29 C28 1.244 1_556 S
O30 C6 1.257 . S
O30 Zn9 2.019 . S
H31 C24 0.930 . S
H32 C11 0.930 . S
H33 C23 0.930 . S
Zn34 N38 2.020 . S
Zn34 O42 2.019 . S
Zn34 N44 2.119 . S
Zn34 O52 1.975 . S
C35 N36 1.334 1_655 S
C35 N39 1.336 . S
N36 C35 1.334 1_455 S
N36 C37 1.334 1_554 S
C37 N36 1.334 1_556 S
C37 N38 1.336 . S
N38 Zn34 2.020 . S
N38 C37 1.336 . S
N38 N39 1.354 1_456 S
N39 C35 1.336 . S
N39 N38 1.354 1_654 S
N39 Zn43 2.020 . S
C40 O41 1.244 1_554 S
C40 O64 1.257 . S
O41 C40 1.244 1_556 S
O42 Zn34 2.019 . S
O42 C62 1.257 . S
Zn43 N39 2.020 . S
Zn43 O50 1.975 . S
Zn43 N59 2.119 . S
Zn43 O64 2.019 . S
N44 Zn34 2.119 . S
N44 C46 1.334 1_455 S
N44 C47 1.328 . S
C45 C46 1.391 . S
C45 N48 1.330 1_655 S
C45 H66 0.930 . S
C46 N44 1.334 1_655 S
C46 C45 1.391 . S
C46 H53 0.930 . S
C47 N44 1.328 . S
C47 C49 1.392 . S
C47 H54 0.930 . S
N48 C45 1.330 1_455 S
N48 C49 1.330 . S
C49 C47 1.392 . S
C49 N48 1.330 . S
O50 Zn43 1.975 . S
O50 C51 1.252 1_655 S
C51 O50 1.252 1_455 S
C51 O52 1.252 1_554 S
O52 Zn34 1.975 . S
O52 C51 1.252 1_556 S
H53 C46 0.930 . S
H54 C47 0.930 . S
C55 C56 1.392 . S
C55 N59 1.328 . S
C55 H61 0.930 . S
C56 C55 1.392 . S
C56 N60 1.330 1_655 S
C57 C58 1.391 . S
C57 N60 1.330 . S
C57 H67 0.930 . S
C58 C57 1.391 . S
C58 N59 1.334 1_455 S
C58 H65 0.930 . S
N59 Zn43 2.119 . S
N59 C55 1.328 . S
N59 C58 1.334 1_655 S
N60 C56 1.330 1_455 S
N60 C57 1.330 . S
H61 C55 0.930 . S
C62 O42 1.257 . S
C62 O63 1.244 1_556 S
O63 C62 1.244 1_554 S
O64 C40 1.257 . S
O64 Zn43 2.019 . S
H65 C58 0.930 . S
H66 C45 0.930 . S
H67 C57 0.930 . S
Zn68 N72 2.020 . S
Zn68 O76 2.019 . S
Zn68 N78 2.119 . S
Zn68 O86 1.975 . S
C69 N70 1.334 1_556 S
C69 N73 1.336 . S
N70 C69 1.334 1_554 S
N70 C71 1.334 . S
C71 N70 1.334 . S
C71 N72 1.336 . S
N72 Zn68 2.020 . S
N72 C71 1.336 . S
N72 N73 1.354 1_554 S
N73 C69 1.336 . S
N73 N72 1.354 1_556 S
N73 Zn77 2.020 . S
C74 O75 1.244 1_556 S
C74 O98 1.257 . S
O75 C74 1.244 1_554 S
O76 Zn68 2.019 . S
O76 C96 1.257 . S
Zn77 N73 2.020 . S
Zn77 O84 1.975 . S
Zn77 N93 2.119 . S
Zn77 O98 2.019 . S
N78 Zn68 2.119 . S
N78 C80 1.334 . S
N78 C81 1.328 . S
C79 C80 1.391 . S
C79 N82 1.329 . S
C79 H100 0.930 . S
C80 N78 1.334 . S
C80 C79 1.391 . S
C80 H87 0.930 . S
C81 N78 1.328 . S
C81 C83 1.392 . S
C81 H88 0.930 . S
N82 C79 1.329 . S
N82 C83 1.331 . S
C83 C81 1.392 . S
C83 N82 1.331 . S
O84 Zn77 1.975 . S
O84 C85 1.252 1_556 S
C85 O84 1.252 1_554 S
C85 O86 1.252 . S
O86 Zn68 1.975 . S
O86 C85 1.252 . S
H87 C80 0.930 . S
H88 C81 0.930 . S
C89 C90 1.392 . S
C89 N93 1.328 . S
C89 H95 0.930 . S
C90 C89 1.392 . S
C90 N94 1.331 . S
C91 C92 1.391 . S
C91 N94 1.329 . S
C91 H101 0.930 . S
C92 C91 1.391 . S
C92 N93 1.334 . S
C92 H99 0.930 . S
N93 Zn77 2.119 . S
N93 C89 1.328 . S
N93 C92 1.334 . S
N94 C90 1.331 . S
N94 C91 1.329 . S
H95 C89 0.930 . S
C96 O76 1.257 . S
C96 O97 1.244 1_554 S
O97 C96 1.244 1_556 S
O98 C74 1.257 . S
O98 Zn77 2.019 . S
H99 C92 0.930 . S
H100 C79 0.930 . S
H101 C91 0.930 . S
Zn102 N106 2.020 . S
Zn102 O110 2.019 . S
Zn102 N112 2.119 . S
Zn102 O120 1.975 . S
C103 N104 1.334 . S
C103 N107 1.336 . S
N104 C103 1.334 . S
N104 C105 1.334 1_554 S
C105 N104 1.334 1_556 S
C105 N106 1.336 . S
N106 Zn102 2.020 . S
N106 C105 1.336 . S
N106 N107 1.354 1_556 S
N107 C103 1.336 . S
N107 N106 1.354 1_554 S
N107 Zn111 2.020 . S
C108 O109 1.244 1_554 S
C108 O132 1.257 . S
O109 C108 1.244 1_556 S
O110 Zn102 2.019 . S
O110 C130 1.257 . S
Zn111 N107 2.020 . S
Zn111 O118 1.975 . S
Zn111 N127 2.119 . S
Zn111 O132 2.019 . S
N112 Zn102 2.119 . S
N112 C114 1.334 . S
N112 C115 1.328 . S
C113 C114 1.391 . S
C113 N116 1.329 . S
C113 H134 0.930 . S
C114 N112 1.334 . S
C114 C113 1.391 . S
C114 H121 0.930 . S
C115 N112 1.328 . S
C115 C117 1.392 . S
C115 H122 0.930 . S
N116 C113 1.329 . S
N116 C117 1.331 . S
C117 C115 1.392 . S
C117 N116 1.331 . S
O118 Zn111 1.975 . S
O118 C119 1.252 . S
C119 O118 1.252 . S
C119 O120 1.252 1_554 S
O120 Zn102 1.975 . S
O120 C119 1.252 1_556 S
H121 C114 0.930 . S
H122 C115 0.930 . S
C123 C124 1.392 . S
C123 N127 1.328 . S
C123 H129 0.930 . S
C124 C123 1.392 . S
C124 N128 1.331 . S
C125 C126 1.391 . S
C125 N128 1.329 . S
C125 H135 0.930 . S
C126 C125 1.391 . S
C126 N127 1.334 . S
C126 H133 0.930 . S
N127 Zn111 2.119 . S
N127 C123 1.328 . S
N127 C126 1.334 . S
N128 C124 1.331 . S
N128 C125 1.329 . S
H129 C123 0.930 . S
C130 O110 1.257 . S
C130 O131 1.244 1_556 S
O131 C130 1.244 1_554 S
O132 C108 1.257 . S
O132 Zn111 2.019 . S
H133 C126 0.930 . S
H134 C113 0.930 . S
H135 C125 0.930 . S
H136 C144 0.929 . S
H137 C146 0.930 . S
H138 C148 0.930 . S
H139 C151 0.929 . S
H140 C154 0.930 . S
H141 C156 0.960 . S
H142 C156 0.960 1_556 S
H143 C156 0.960 . S
C144 H136 0.929 . S
C144 C145 1.385 1_655 S
C144 C146 1.384 . S
C145 C144 1.385 1_455 S
C145 C151 1.383 1_556 S
C146 H137 0.930 . S
C146 C144 1.384 . S
C146 C147 1.375 . S
C147 C146 1.375 . S
C147 C148 1.397 1_656 S
C147 C152 1.490 . S
C148 H138 0.930 . S
C148 C147 1.397 1_454 S
C148 C151 1.386 . S
H149 C165 0.930 . S
H150 C166 0.931 . S
C151 H139 0.929 . S
C151 C145 1.383 1_554 S
C151 C148 1.386 . S
C152 C147 1.490 . S
C152 C154 1.395 . S
C152 C155 1.403 1_656 S
H153 C159 0.930 . S
C154 H140 0.930 . S
C154 C152 1.395 . S
C154 C157 1.403 . S
C155 C152 1.403 1_454 S
C155 C156 1.524 . S
C155 C159 1.400 . S
C156 H141 0.960 . S
C156 H142 0.960 1_554 S
C156 H143 0.960 . S
C156 C155 1.524 . S
C157 C154 1.403 . S
C157 C158 1.392 . S
C157 C161 1.495 . S
C158 C157 1.392 . S
C158 C159 1.385 1_656 S
C158 C160 1.478 . S
C159 H153 0.930 . S
C159 C155 1.400 . S
C159 C158 1.385 1_454 S
C160 C158 1.478 . S
C160 C162 1.381 . S
C160 C166 1.383 1_656 S
C161 C157 1.495 . S
C161 H167 0.959 . S
C161 H168 0.961 1_556 S
C161 H169 0.960 . S
C162 C160 1.381 . S
C162 C163 1.394 . S
C162 H170 0.930 . S
C163 C162 1.394 . S
C163 C164 1.383 . S
C163 H171 0.929 . S
C164 C163 1.383 . S
C164 C165 1.377 1_656 S
C165 H149 0.930 . S
C165 C164 1.377 1_454 S
C165 C166 1.379 . S
C166 H150 0.931 . S
C166 C160 1.383 1_454 S
C166 C165 1.379 . S
H167 C161 0.959 . S
H168 C161 0.961 1_554 S
H169 C161 0.960 . S
H170 C162 0.930 . S
H171 C163 0.929 . S
H172 C180 0.929 . S
H173 C182 0.930 . S
H174 C184 0.930 . S
H175 C187 0.929 . S
H176 C190 0.930 . S
H177 C192 0.960 . S
H178 C192 0.960 . S
H179 C192 0.960 . S
C180 H172 0.929 . S
C180 C181 1.390 . S
C180 C182 1.384 . S
C181 C180 1.390 . S
C181 C187 1.378 1_554 S
C182 H173 0.930 . S
C182 C180 1.384 . S
C182 C183 1.372 . S
C183 C182 1.372 . S
C183 C184 1.400 1_554 S
C183 C188 1.490 . S
C184 H174 0.930 . S
C184 C183 1.400 1_556 S
C184 C187 1.386 . S
H185 C201 0.930 . S
H186 C202 0.931 . S
C187 H175 0.929 . S
C187 C181 1.378 1_556 S
C187 C184 1.386 . S
C188 C183 1.490 . S
C188 C190 1.395 1_554 S
C188 C191 1.403 . S
H189 C195 0.930 . S
C190 H176 0.930 . S
C190 C188 1.395 1_556 S
C190 C193 1.403 1_545 S
C191 C188 1.403 . S
C191 C192 1.524 . S
C191 C195 1.400 1_545 S
C192 H177 0.960 . S
C192 H178 0.960 . S
C192 H179 0.960 . S
C192 C191 1.524 . S
C193 C190 1.403 1_565 S
C193 C194 1.392 . S
C193 C197 1.495 . S
C194 C193 1.392 . S
C194 C195 1.385 1_556 S
C194 C196 1.478 . S
C195 H189 0.930 . S
C195 C191 1.400 1_565 S
C195 C194 1.385 1_554 S
C196 C194 1.478 . S
C196 C198 1.381 1_556 S
C196 C202 1.383 . S
C197 C193 1.495 . S
C197 H203 0.959 . S
C197 H204 0.961 . S
C197 H205 0.960 . S
C198 C196 1.381 1_554 S
C198 C199 1.394 . S
C198 H206 0.930 . S
C199 C198 1.394 . S
C199 C200 1.383 1_554 S
C199 H207 0.929 . S
C200 C199 1.383 1_556 S
C200 C201 1.377 . S
C201 H185 0.930 . S
C201 C200 1.377 . S
C201 C202 1.379 . S
C202 H186 0.931 . S
C202 C196 1.383 . S
C202 C201 1.379 . S
H203 C197 0.959 . S
H204 C197 0.961 . S
H205 C197 0.960 . S
H206 C198 0.930 . S
H207 C199 0.929 . S
H208 C216 0.929 . S
H209 C218 0.930 . S
H210 C220 0.930 . S
H211 C223 0.929 . S
H212 C226 0.930 . S
H213 C228 0.960 . S
H214 C228 0.960 . S
H215 C228 0.960 . S
C216 H208 0.929 . S
C216 C217 1.377 . S
C216 C218 1.384 . S
C217 C216 1.377 . S
C217 C223 1.390 . S
C218 H209 0.930 . S
C218 C216 1.384 . S
C218 C219 1.372 . S
C219 C218 1.372 . S
C219 C220 1.400 . S
C219 C224 1.490 . S
C220 H210 0.930 . S
C220 C219 1.400 . S
C220 C223 1.386 . S
H221 C237 0.930 . S
H222 C238 0.931 . S
C223 H211 0.929 . S
C223 C217 1.390 . S
C223 C220 1.386 . S
C224 C219 1.490 . S
C224 C226 1.395 . S
C224 C227 1.403 1_655 S
H225 C231 0.930 . S
C226 H212 0.930 . S
C226 C224 1.395 . S
C226 C229 1.403 . S
C227 C224 1.403 1_455 S
C227 C228 1.524 . S
C227 C231 1.400 . S
C228 H213 0.960 . S
C228 H214 0.960 . S
C228 H215 0.960 . S
C228 C227 1.524 . S
C229 C226 1.403 . S
C229 C230 1.392 1_655 S
C229 C233 1.495 . S
C230 C229 1.392 1_455 S
C230 C231 1.385 . S
C230 C232 1.478 . S
C231 H225 0.930 . S
C231 C227 1.400 . S
C231 C230 1.385 . S
C232 C230 1.478 . S
C232 C234 1.381 . S
C232 C238 1.383 . S
C233 C229 1.495 . S
C233 H239 0.959 . S
C233 H240 0.961 . S
C233 H241 0.960 . S
C234 C232 1.381 . S
C234 C235 1.394 . S
C234 H242 0.930 . S
C235 C234 1.394 . S
C235 C236 1.383 . S
C235 H243 0.929 . S
C236 C235 1.383 . S
C236 C237 1.377 . S
C237 H221 0.930 . S
C237 C236 1.377 . S
C237 C238 1.379 . S
C238 H222 0.931 . S
C238 C232 1.383 . S
C238 C237 1.379 . S
H239 C233 0.959 . S
H240 C233 0.961 . S
H241 C233 0.960 . S
H242 C234 0.930 . S
H243 C235 0.929 . S
H244 C252 0.929 1_455 S
H245 C254 0.930 . S
H246 C256 0.930 . S
H247 C259 0.929 . S
H248 C262 0.930 . S
H249 C264 0.960 . S
H250 C264 0.960 . S
H251 C264 0.960 . S
C252 H244 0.929 1_655 S
C252 C253 1.377 . S
C252 C254 1.384 1_655 S
C253 C252 1.377 . S
C253 C259 1.390 . S
C254 H245 0.930 . S
C254 C252 1.384 1_455 S
C254 C255 1.372 1_455 S
C255 C254 1.372 1_655 S
C255 C256 1.400 . S
C255 C260 1.490 . S
C256 H246 0.930 . S
C256 C255 1.400 . S
C256 C259 1.386 . S
H257 C273 0.930 1_655 S
H258 C274 0.931 1_655 S
C259 H247 0.929 . S
C259 C253 1.390 . S
C259 C256 1.386 . S
C260 C255 1.490 . S
C260 C262 1.395 1_655 S
C260 C263 1.403 . S
H261 C267 0.930 . S
C262 H248 0.930 . S
C262 C260 1.395 1_455 S
C262 C265 1.403 . S
C263 C260 1.403 . S
C263 C264 1.524 . S
C263 C267 1.400 . S
C264 H249 0.960 . S
C264 H250 0.960 . S
C264 H251 0.960 . S
C264 C263 1.524 . S
C265 C262 1.403 . S
C265 C266 1.392 . S
C265 C269 1.495 . S
C266 C265 1.392 . S
C266 C267 1.385 1_455 S
C266 C268 1.478 . S
C267 H261 0.930 . S
C267 C263 1.400 . S
C267 C266 1.385 1_655 S
C268 C266 1.478 . S
C268 C270 1.381 . S
C268 C274 1.383 . S
C269 C265 1.495 . S
C269 H275 0.959 . S
C269 H276 0.961 . S
C269 H277 0.960 . S
C270 C268 1.381 . S
C270 C271 1.394 . S
C270 H278 0.930 . S
C271 C270 1.394 . S
C271 C272 1.383 . S
C271 H279 0.929 . S
C272 C271 1.383 . S
C272 C273 1.377 . S
C273 H257 0.930 1_455 S
C273 C272 1.377 . S
C273 C274 1.379 . S
C274 H258 0.931 1_455 S
C274 C268 1.383 . S
C274 C273 1.379 . S
H275 C269 0.959 . S
H276 C269 0.961 . S
H277 C269 0.960 . S
H278 C270 0.930 . S
H279 C271 0.929 . S
H280 C288 0.929 . S
H281 C290 0.930 . S
H282 C292 0.930 . S
H283 C295 0.929 . S
H284 C298 0.930 . S
H285 C300 0.960 . S
H286 C300 0.960 . S
H287 C300 0.960 . S
C288 H280 0.929 . S
C288 C289 1.377 . S
C288 C290 1.384 . S
C289 C288 1.377 . S
C289 C295 1.390 . S
C290 H281 0.930 . S
C290 C288 1.384 . S
C290 C291 1.372 . S
C291 C290 1.372 . S
C291 C292 1.400 . S
C291 C296 1.490 . S
C292 H282 0.930 . S
C292 C291 1.400 . S
C292 C295 1.386 . S
H293 C309 0.930 . S
H294 C310 0.931 . S
C295 H283 0.929 . S
C295 C289 1.390 . S
C295 C292 1.386 . S
C296 C291 1.490 . S
C296 C298 1.395 . S
C296 C299 1.403 . S
H297 C303 0.930 . S
C298 H284 0.930 . S
C298 C296 1.395 . S
C298 C301 1.403 . S
C299 C296 1.403 . S
C299 C300 1.524 . S
C299 C303 1.400 . S
C300 H285 0.960 . S
C300 H286 0.960 . S
C300 H287 0.960 . S
C300 C299 1.524 . S
C301 C298 1.403 . S
C301 C302 1.392 . S
C301 C305 1.495 . S
C302 C301 1.392 . S
C302 C303 1.385 . S
C302 C304 1.478 . S
C303 H297 0.930 . S
C303 C299 1.400 . S
C303 C302 1.385 . S
C304 C302 1.478 . S
C304 C306 1.381 . S
C304 C310 1.383 . S
C305 C301 1.495 . S
C305 H311 0.959 . S
C305 H312 0.961 . S
C305 H313 0.960 . S
C306 C304 1.381 . S
C306 C307 1.394 . S
C306 H314 0.930 . S
C307 C306 1.394 . S
C307 C308 1.383 . S
C307 H315 0.929 . S
C308 C307 1.383 . S
C308 C309 1.377 . S
C309 H293 0.930 . S
C309 C308 1.377 . S
C309 C310 1.379 . S
C310 H294 0.931 . S
C310 C304 1.383 . S
C310 C309 1.379 . S
H311 C305 0.959 . S
H312 C305 0.961 . S
H313 C305 0.960 . S
H314 C306 0.930 . S
H315 C307 0.929 . S
H316 C324 0.929 . S
H317 C326 0.930 . S
H318 C328 0.930 . S
H319 C331 0.929 . S
H320 C334 0.930 . S
H321 C336 0.960 . S
H322 C336 0.960 . S
H323 C336 0.960 . S
C324 H316 0.929 . S
C324 C325 1.377 . S
C324 C326 1.384 . S
C325 C324 1.377 . S
C325 C331 1.390 . S
C326 H317 0.930 . S
C326 C324 1.384 . S
C326 C327 1.372 . S
C327 C326 1.372 . S
C327 C328 1.400 . S
C327 C332 1.490 . S
C328 H318 0.930 . S
C328 C327 1.400 . S
C328 C331 1.386 . S
H329 C345 0.930 . S
H330 C346 0.931 . S
C331 H319 0.929 . S
C331 C325 1.390 . S
C331 C328 1.386 . S
C332 C327 1.490 . S
C332 C334 1.395 . S
C332 C335 1.403 . S
H333 C339 0.930 . S
C334 H320 0.930 . S
C334 C332 1.395 . S
C334 C337 1.403 . S
C335 C332 1.403 . S
C335 C336 1.524 . S
C335 C339 1.400 . S
C336 H321 0.960 . S
C336 H322 0.960 . S
C336 H323 0.960 . S
C336 C335 1.524 . S
C337 C334 1.403 . S
C337 C338 1.392 . S
C337 C341 1.495 . S
C338 C337 1.392 . S
C338 C339 1.385 . S
C338 C340 1.478 . S
C339 H333 0.930 . S
C339 C335 1.400 . S
C339 C338 1.385 . S
C340 C338 1.478 . S
C340 C342 1.381 . S
C340 C346 1.383 . S
C341 C337 1.495 . S
C341 H347 0.959 . S
C341 H348 0.961 . S
C341 H349 0.960 . S
C342 C340 1.381 . S
C342 C343 1.394 . S
C342 H350 0.930 . S
C343 C342 1.394 . S
C343 C344 1.383 . S
C343 H351 0.929 . S
C344 C343 1.383 . S
C344 C345 1.377 . S
C345 H329 0.930 . S
C345 C344 1.377 . S
C345 C346 1.379 . S
C346 H330 0.931 . S
C346 C340 1.383 . S
C346 C345 1.379 . S
H347 C341 0.959 . S
H348 C341 0.961 . S
H349 C341 0.960 . S
H350 C342 0.930 . S
H351 C343 0.929 . S
H352 C360 0.929 . S
H353 C362 0.930 . S
H354 C364 0.930 . S
H355 C367 0.929 . S
H356 C370 0.930 . S
H357 C372 0.960 . S
H358 C372 0.960 . S
H359 C372 0.960 . S
C360 H352 0.929 . S
C360 C361 1.377 . S
C360 C362 1.384 . S
C361 C360 1.377 . S
C361 C367 1.390 1_556 S
C362 H353 0.930 . S
C362 C360 1.384 . S
C362 C363 1.372 . S
C363 C362 1.372 . S
C363 C364 1.400 1_556 S
C363 C368 1.490 . S
C364 H354 0.930 . S
C364 C363 1.400 1_554 S
C364 C367 1.386 . S
H365 C381 0.930 . S
H366 C382 0.931 . S
C367 H355 0.929 . S
C367 C361 1.390 1_554 S
C367 C364 1.386 . S
C368 C363 1.490 . S
C368 C370 1.395 . S
C368 C371 1.403 1_556 S
H369 C375 0.930 . S
C370 H356 0.930 . S
C370 C368 1.395 . S
C370 C373 1.403 . S
C371 C368 1.403 1_554 S
C371 C372 1.524 . S
C371 C375 1.400 . S
C372 H357 0.960 . S
C372 H358 0.960 . S
C372 H359 0.960 . S
C372 C371 1.524 . S
C373 C370 1.403 . S
C373 C374 1.392 . S
C373 C377 1.495 . S
C374 C373 1.392 . S
C374 C375 1.385 1_556 S
C374 C376 1.478 1_556 S
C375 H369 0.930 . S
C375 C371 1.400 . S
C375 C374 1.385 1_554 S
C376 C374 1.478 1_554 S
C376 C378 1.381 1_554 S
C376 C382 1.383 . S
C377 C373 1.495 . S
C377 H383 0.959 . S
C377 H384 0.961 . S
C377 H385 0.960 . S
C378 C376 1.381 1_556 S
C378 C379 1.394 . S
C378 H386 0.930 . S
C379 C378 1.394 . S
C379 C380 1.383 1_556 S
C379 H387 0.929 . S
C380 C379 1.383 1_554 S
C380 C381 1.377 . S
C381 H365 0.930 . S
C381 C380 1.377 . S
C381 C382 1.379 . S
C382 H366 0.931 . S
C382 C376 1.383 . S
C382 C381 1.379 . S
H383 C377 0.959 . S
H384 C377 0.961 . S
H385 C377 0.960 . S
H386 C378 0.930 . S
H387 C379 0.929 . S
H388 C396 0.929 . S
H389 C398 0.930 . S
H390 C400 0.930 . S
H391 C403 0.929 . S
H392 C406 0.930 . S
H393 C408 0.960 . S
H394 C408 0.960 . S
H395 C408 0.960 . S
C396 H388 0.929 . S
C396 C397 1.377 . S
C396 C398 1.384 . S
C397 C396 1.377 . S
C397 C403 1.390 1_554 S
C398 H389 0.930 . S
C398 C396 1.384 . S
C398 C399 1.372 . S
C399 C398 1.372 . S
C399 C400 1.400 1_554 S
C399 C404 1.490 . S
C400 H390 0.930 . S
C400 C399 1.400 1_556 S
C400 C403 1.386 . S
H401 C417 0.930 . S
H402 C418 0.931 . S
C403 H391 0.929 . S
C403 C397 1.390 1_556 S
C403 C400 1.386 . S
C404 C399 1.490 . S
C404 C406 1.395 1_554 S
C404 C407 1.403 . S
H405 C411 0.930 . S
C406 H392 0.930 . S
C406 C404 1.395 1_556 S
C406 C409 1.403 . S
C407 C404 1.403 . S
C407 C408 1.524 . S
C407 C411 1.400 . S
C408 H393 0.960 . S
C408 H394 0.960 . S
C408 H395 0.960 . S
C408 C407 1.524 . S
C409 C406 1.403 . S
C409 C410 1.392 . S
C409 C413 1.495 . S
C410 C409 1.392 . S
C410 C411 1.385 1_556 S
C410 C412 1.478 . S
C411 H405 0.930 . S
C411 C407 1.400 . S
C411 C410 1.385 1_554 S
C412 C410 1.478 . S
C412 C414 1.381 1_556 S
C412 C418 1.383 . S
C413 C409 1.495 . S
C413 H419 0.959 . S
C413 H420 0.961 . S
C413 H421 0.960 . S
C414 C412 1.381 1_554 S
C414 C415 1.394 . S
C414 H422 0.930 . S
C415 C414 1.394 . S
C415 C416 1.383 1_554 S
C415 H423 0.929 . S
C416 C415 1.383 1_556 S
C416 C417 1.377 . S
C417 H401 0.930 . S
C417 C416 1.377 . S
C417 C418 1.379 . S
C418 H402 0.931 . S
C418 C412 1.383 . S
C418 C417 1.379 . S
H419 C413 0.959 . S
H420 C413 0.961 . S
H421 C413 0.960 . S
H422 C414 0.930 . S
H423 C415 0.929 . S
H424 C432 0.929 . S
H425 C434 0.930 . S
H426 C436 0.930 . S
H427 C439 0.929 . S
H428 C442 0.930 . S
H429 C444 0.960 . S
H430 C444 0.960 . S
H431 C444 0.960 . S
C432 H424 0.929 . S
C432 C433 1.377 1_554 S
C432 C434 1.384 . S
C433 C432 1.377 1_556 S
C433 C439 1.390 . S
C434 H425 0.930 . S
C434 C432 1.384 . S
C434 C435 1.372 1_554 S
C435 C434 1.372 1_556 S
C435 C436 1.400 . S
C435 C440 1.490 . S
C436 H426 0.930 . S
C436 C435 1.400 . S
C436 C439 1.386 . S
H437 C453 0.930 . S
H438 C454 0.931 . S
C439 H427 0.929 . S
C439 C433 1.390 . S
C439 C436 1.386 . S
C440 C435 1.490 . S
C440 C442 1.395 1_556 S
C440 C443 1.403 . S
H441 C447 0.930 . S
C442 H428 0.930 . S
C442 C440 1.395 1_554 S
C442 C445 1.403 1_455 S
C443 C440 1.403 . S
C443 C444 1.524 . S
C443 C447 1.400 1_455 S
C444 H429 0.960 . S
C444 H430 0.960 . S
C444 H431 0.960 . S
C444 C443 1.524 . S
C445 C442 1.403 1_655 S
C445 C446 1.392 . S
C445 C449 1.495 . S
C446 C445 1.392 . S
C446 C447 1.385 1_554 S
C446 C448 1.478 . S
C447 H441 0.930 . S
C447 C443 1.400 1_655 S
C447 C446 1.385 1_556 S
C448 C446 1.478 . S
C448 C450 1.381 . S
C448 C454 1.383 1_554 S
C449 C445 1.495 . S
C449 H455 0.959 . S
C449 H456 0.961 . S
C449 H457 0.960 . S
C450 C448 1.381 . S
C450 C451 1.394 . S
C450 H458 0.930 . S
C451 C450 1.394 . S
C451 C452 1.383 . S
C451 H459 0.929 . S
C452 C451 1.383 . S
C452 C453 1.377 1_554 S
C453 H437 0.930 . S
C453 C452 1.377 1_556 S
C453 C454 1.379 . S
C454 H438 0.931 . S
C454 C448 1.383 1_556 S
C454 C453 1.379 . S
H455 C449 0.959 . S
H456 C449 0.961 . S
H457 C449 0.960 . S
H458 C450 0.930 . S
H459 C451 0.929 . S
H460 C468 0.929 1_556 S
H461 C470 0.931 . S
H462 C472 0.930 . S
H463 C475 0.929 . S
H464 C478 0.930 . S
H465 C480 0.960 . S
H466 C480 0.960 . S
H467 C480 0.960 . S
C468 H460 0.929 1_554 S
C468 C469 1.377 . S
C468 C470 1.384 1_554 S
C469 C468 1.377 . S
C469 C475 1.390 . S
C470 H461 0.931 . S
C470 C468 1.384 1_556 S
C470 C471 1.372 1_556 S
C471 C470 1.372 1_554 S
C471 C472 1.400 . S
C471 C476 1.490 . S
C472 H462 0.930 . S
C472 C471 1.400 . S
C472 C475 1.386 . S
H473 C489 0.930 . S
H474 C490 0.931 . S
C475 H463 0.929 . S
C475 C469 1.390 . S
C475 C472 1.386 . S
C476 C471 1.490 . S
C476 C478 1.395 1_554 S
C476 C479 1.403 . S
H477 C483 0.930 . S
C478 H464 0.930 . S
C478 C476 1.395 1_556 S
C478 C481 1.403 1_455 S
C479 C476 1.403 . S
C479 C480 1.524 . S
C479 C483 1.400 1_455 S
C480 H465 0.960 . S
C480 H466 0.960 . S
C480 H467 0.960 . S
C480 C479 1.524 . S
C481 C478 1.403 1_655 S
C481 C482 1.392 . S
C481 C485 1.495 . S
C482 C481 1.392 . S
C482 C483 1.385 1_556 S
C482 C484 1.478 . S
C483 H477 0.930 . S
C483 C479 1.400 1_655 S
C483 C482 1.385 1_554 S
C484 C482 1.478 . S
C484 C486 1.381 . S
C484 C490 1.383 . S
C485 C481 1.495 . S
C485 H491 0.959 . S
C485 H492 0.961 . S
C485 H493 0.960 . S
C486 C484 1.381 . S
C486 C487 1.394 . S
C486 H494 0.930 . S
C487 C486 1.394 . S
C487 C488 1.383 . S
C487 H495 0.929 . S
C488 C487 1.383 . S
C488 C489 1.377 . S
C489 H473 0.930 . S
C489 C488 1.377 . S
C489 C490 1.379 . S
C490 H474 0.931 . S
C490 C484 1.383 . S
C490 C489 1.379 . S
H491 C485 0.959 . S
H492 C485 0.961 . S
H493 C485 0.960 . S
H494 C486 0.930 . S
H495 C487 0.929 . S
H496 C504 0.929 . S
H497 C506 0.930 . S
H498 C508 0.930 . S
H499 C511 0.929 . S
H500 C514 0.930 . S
H501 C516 0.960 . S
H502 C516 0.960 . S
H503 C516 0.960 1_556 S
C504 H496 0.929 . S
C504 C505 1.377 . S
C504 C506 1.384 . S
C505 C504 1.377 . S
C505 C511 1.390 1_554 S
C506 H497 0.930 . S
C506 C504 1.384 . S
C506 C507 1.372 . S
C507 C506 1.372 . S
C507 C508 1.400 1_554 S
C507 C512 1.490 . S
C508 H498 0.930 . S
C508 C507 1.400 1_556 S
C508 C511 1.386 . S
H509 C525 0.930 . S
H510 C526 0.931 . S
C511 H499 0.929 . S
C511 C505 1.390 1_556 S
C511 C508 1.386 . S
C512 C507 1.490 . S
C512 C514 1.395 . S
C512 C515 1.403 . S
H513 C519 0.930 . S
C514 H500 0.930 . S
C514 C512 1.395 . S
C514 C517 1.403 . S
C515 C512 1.403 . S
C515 C516 1.524 . S
C515 C519 1.400 . S
C516 H501 0.960 . S
C516 H502 0.960 . S
C516 H503 0.960 1_554 S
C516 C515 1.524 . S
C517 C514 1.403 . S
C517 C518 1.392 . S
C517 C521 1.495 . S
C518 C517 1.392 . S
C518 C519 1.385 . S
C518 C520 1.478 . S
C519 H513 0.930 . S
C519 C515 1.400 . S
C519 C518 1.385 . S
C520 C518 1.478 . S
C520 C522 1.381 . S
C520 C526 1.383 1_554 S
C521 C517 1.495 . S
C521 H527 0.959 . S
C521 H528 0.961 . S
C521 H529 0.960 . S
C522 C520 1.381 . S
C522 C523 1.394 . S
C522 H530 0.930 . S
C523 C522 1.394 . S
C523 C524 1.383 . S
C523 H531 0.929 . S
C524 C523 1.383 . S
C524 C525 1.377 1_554 S
C525 H509 0.930 . S
C525 C524 1.377 1_556 S
C525 C526 1.379 . S
C526 H510 0.931 . S
C526 C520 1.383 1_556 S
C526 C525 1.379 . S
H527 C521 0.959 . S
H528 C521 0.961 . S
H529 C521 0.960 . S
H530 C522 0.930 . S
H531 C523 0.929 . S
H532 C540 0.929 . S
H533 C542 0.930 . S
H534 C544 0.930 . S
H535 C547 0.929 . S
H536 C550 0.931 . S
H537 C552 0.960 . S
H538 C552 0.960 . S
H539 C552 0.960 . S
C540 H532 0.929 . S
C540 C541 1.377 1_556 S
C540 C542 1.384 . S
C541 C540 1.377 1_554 S
C541 C547 1.390 . S
C542 H533 0.930 . S
C542 C540 1.384 . S
C542 C543 1.372 1_556 S
C543 C542 1.372 1_554 S
C543 C544 1.400 . S
C543 C548 1.490 . S
C544 H534 0.930 . S
C544 C543 1.400 . S
C544 C547 1.386 . S
H545 C561 0.930 . S
H546 C562 0.931 . S
C547 H535 0.929 . S
C547 C541 1.390 . S
C547 C544 1.386 . S
C548 C543 1.490 . S
C548 C550 1.395 . S
C548 C551 1.403 . S
H549 C555 0.930 . S
C550 H536 0.931 . S
C550 C548 1.395 . S
C550 C553 1.403 . S
C551 C548 1.403 . S
C551 C552 1.524 . S
C551 C555 1.400 . S
C552 H537 0.960 . S
C552 H538 0.960 . S
C552 H539 0.960 . S
C552 C551 1.524 . S
C553 C550 1.403 . S
C553 C554 1.392 . S
C553 C557 1.495 1_554 S
C554 C553 1.392 . S
C554 C555 1.385 . S
C554 C556 1.478 . S
C555 H549 0.930 . S
C555 C551 1.400 . S
C555 C554 1.385 . S
C556 C554 1.478 . S
C556 C558 1.381 1_554 S
C556 C562 1.383 . S
C557 C553 1.495 1_556 S
C557 H563 0.959 . S
C557 H564 0.961 1_556 S
C557 H565 0.960 . S
C558 C556 1.381 1_556 S
C558 C559 1.394 . S
C558 H566 0.930 . S
C559 C558 1.394 . S
C559 C560 1.383 1_556 S
C559 H567 0.929 . S
C560 C559 1.383 1_554 S
C560 C561 1.377 . S
C561 H545 0.930 . S
C561 C560 1.377 . S
C561 C562 1.379 . S
C562 H546 0.931 . S
C562 C556 1.383 . S
C562 C561 1.379 . S
H563 C557 0.959 . S
H564 C557 0.961 1_554 S
H565 C557 0.960 . S
H566 C558 0.930 . S
H567 C559 0.929 . S
H568 C576 0.929 . S
H569 C578 0.930 . S
H570 C580 0.930 . S
H571 C583 0.929 . S
H572 C586 0.930 . S
H573 C588 0.960 . S
H574 C588 0.960 1_554 S
H575 C588 0.960 . S
C576 H568 0.929 . S
C576 C577 1.377 1_554 S
C576 C578 1.384 . S
C577 C576 1.377 1_556 S
C577 C583 1.390 . S
C578 H569 0.930 . S
C578 C576 1.384 . S
C578 C579 1.372 1_554 S
C579 C578 1.372 1_556 S
C579 C580 1.400 . S
C579 C584 1.490 . S
C580 H570 0.930 . S
C580 C579 1.400 . S
C580 C583 1.386 . S
H581 C597 0.930 . S
H582 C598 0.931 . S
C583 H571 0.929 . S
C583 C577 1.390 . S
C583 C580 1.386 . S
C584 C579 1.490 . S
C584 C586 1.395 . S
C584 C587 1.403 . S
H585 C591 0.930 . S
C586 H572 0.930 . S
C586 C584 1.395 . S
C586 C589 1.403 . S
C587 C584 1.403 . S
C587 C588 1.524 . S
C587 C591 1.400 . S
C588 H573 0.960 . S
C588 H574 0.960 1_556 S
C588 H575 0.960 . S
C588 C587 1.524 . S
C589 C586 1.403 . S
C589 C590 1.392 . S
C589 C593 1.495 . S
C590 C589 1.392 . S
C590 C591 1.385 . S
C590 C592 1.478 . S
C591 H585 0.930 . S
C591 C587 1.400 . S
C591 C590 1.385 . S
C592 C590 1.478 . S
C592 C594 1.381 1_556 S
C592 C598 1.383 . S
C593 C589 1.495 . S
C593 H599 0.959 . S
C593 H600 0.961 . S
C593 H601 0.960 . S
C594 C592 1.381 1_554 S
C594 C595 1.394 . S
C594 H602 0.930 . S
C595 C594 1.394 . S
C595 C596 1.383 1_554 S
C595 H603 0.929 . S
C596 C595 1.383 1_556 S
C596 C597 1.377 . S
C597 H581 0.930 . S
C597 C596 1.377 . S
C597 C598 1.379 . S
C598 H582 0.931 . S
C598 C592 1.383 . S
C598 C597 1.379 . S
H599 C593 0.959 . S
H600 C593 0.961 . S
H601 C593 0.960 . S
H602 C594 0.930 . S
H603 C595 0.929 . S
H604 C612 0.929 1_554 S
H605 C614 0.930 1_554 S
H606 C616 0.930 . S
H607 C619 0.929 . S
H608 C622 0.930 . S
H609 C624 0.960 . S
H610 C624 0.960 . S
H611 C624 0.960 . S
C612 H604 0.929 1_556 S
C612 C613 1.377 . S
C612 C614 1.384 . S
C613 C612 1.377 . S
C613 C619 1.390 . S
C614 H605 0.930 1_556 S
C614 C612 1.384 . S
C614 C615 1.372 . S
C615 C614 1.372 . S
C615 C616 1.400 . S
C615 C620 1.490 . S
C616 H606 0.930 . S
C616 C615 1.400 . S
C616 C619 1.386 . S
H617 C633 0.930 . S
H618 C634 0.931 . S
C619 H607 0.929 . S
C619 C613 1.390 . S
C619 C616 1.386 . S
C620 C615 1.490 . S
C620 C622 1.395 1_556 S
C620 C623 1.403 . S
H621 C627 0.930 . S
C622 H608 0.930 . S
C622 C620 1.395 1_554 S
C622 C625 1.403 . S
C623 C620 1.403 . S
C623 C624 1.524 . S
C623 C627 1.400 . S
C624 H609 0.960 . S
C624 H610 0.960 . S
C624 H611 0.960 . S
C624 C623 1.524 . S
C625 C622 1.403 . S
C625 C626 1.392 1_554 S
C625 C629 1.495 . S
C626 C625 1.392 1_556 S
C626 C627 1.385 . S
C626 C628 1.478 . S
C627 H621 0.930 . S
C627 C623 1.400 . S
C627 C626 1.385 . S
C628 C626 1.478 . S
C628 C630 1.381 . S
C628 C634 1.383 . S
C629 C625 1.495 . S
C629 H635 0.959 . S
C629 H636 0.961 . S
C629 H637 0.960 . S
C630 C628 1.381 . S
C630 C631 1.394 . S
C630 H638 0.930 1_556 S
C631 C630 1.394 . S
C631 C632 1.383 . S
C631 H639 0.929 . S
C632 C631 1.383 . S
C632 C633 1.377 . S
C633 H617 0.930 . S
C633 C632 1.377 . S
C633 C634 1.379 . S
C634 H618 0.931 . S
C634 C628 1.383 . S
C634 C633 1.379 . S
H635 C629 0.959 . S
H636 C629 0.961 . S
H637 C629 0.960 . S
H638 C630 0.930 1_554 S
H639 C631 0.929 . S
C145 C17 1.525 1_556 S
C164 C51 1.522 1_656 S
C181 C119 1.525 . S
C200 C85 1.522 1_556 S
C217 C22 1.758 . S
C236 C15 1.730 . S
C253 C56 1.763 . S
C272 C49 1.784 . S
C289 C90 1.766 . S
C308 C83 1.736 . S
C325 C117 1.764 . S
C344 C124 1.790 . S
C361 C6 1.268 . S
C380 C28 1.254 . S
C397 C40 1.268 . S
C416 C62 1.262 . S
C433 C74 1.265 . S
C452 C96 1.274 . S
C469 C108 1.267 . S
C488 C130 1.272 . S
C505 C103 1.695 . S
C524 C3 1.707 . S
C541 C71 1.682 . S
C560 C35 1.659 . S
C577 C69 1.683 . S
C596 C37 1.668 . S
C613 C105 1.686 . S
C632 C1 1.663 . S
