# Generated by pormake.
# Topology zfc, (5)-cn, num edge types: 1
# Building blocks:
#     Node 0, Type 0, BuildingBlock: XOMCOT_clean_sbu_0, # of connection points: 5
#     Node 1, Type 0, BuildingBlock: XOMCOT_clean_sbu_0, # of connection points: 5
#     Node 2, Type 0, BuildingBlock: XOMCOT_clean_sbu_0, # of connection points: 5
#     Node 3, Type 0, BuildingBlock: XOMCOT_clean_sbu_0, # of connection points: 5
#     Node 4, Type 0, BuildingBlock: XOMCOT_clean_sbu_0, # of connection points: 5
#     Node 5, Type 0, BuildingBlock: XOMCOT_clean_sbu_0, # of connection points: 5
#     Node 6, Type 0, BuildingBlock: XOMCOT_clean_sbu_0, # of connection points: 5
#     Node 7, Type 0, BuildingBlock: XOMCOT_clean_sbu_0, # of connection points: 5
#     Node 8, Type 0, BuildingBlock: XOMCOT_clean_sbu_0, # of connection points: 5
#     Node 9, Type 0, BuildingBlock: XOMCOT_clean_sbu_0, # of connection points: 5
#     Node 10, Type 0, BuildingBlock: XOMCOT_clean_sbu_0, # of connection points: 5
#     Node 11, Type 0, BuildingBlock: XOMCOT_clean_sbu_0, # of connection points: 5
#     Node 12, Type 0, BuildingBlock: XOMCOT_clean_sbu_0, # of connection points: 5
#     Node 13, Type 0, BuildingBlock: XOMCOT_clean_sbu_0, # of connection points: 5
#     Node 14, Type 0, BuildingBlock: XOMCOT_clean_sbu_0, # of connection points: 5
#     Node 15, Type 0, BuildingBlock: XOMCOT_clean_sbu_0, # of connection points: 5
#     Edge 16, Type (0, 0), BuildingBlock: UVAHIK_clean_linker_0, # of connection points: 2
#     Edge 17, Type (0, 0), BuildingBlock: UVAHIK_clean_linker_0, # of connection points: 2
#     Edge 18, Type (0, 0), BuildingBlock: UVAHIK_clean_linker_0, # of connection points: 2
#     Edge 19, Type (0, 0), BuildingBlock: UVAHIK_clean_linker_0, # of connection points: 2
#     Edge 20, Type (0, 0), BuildingBlock: UVAHIK_clean_linker_0, # of connection points: 2
#     Edge 21, Type (0, 0), BuildingBlock: UVAHIK_clean_linker_0, # of connection points: 2
#     Edge 22, Type (0, 0), BuildingBlock: UVAHIK_clean_linker_0, # of connection points: 2
#     Edge 23, Type (0, 0), BuildingBlock: UVAHIK_clean_linker_0, # of connection points: 2
#     Edge 24, Type (0, 0), BuildingBlock: UVAHIK_clean_linker_0, # of connection points: 2
#     Edge 25, Type (0, 0), BuildingBlock: UVAHIK_clean_linker_0, # of connection points: 2
#     Edge 26, Type (0, 0), BuildingBlock: UVAHIK_clean_linker_0, # of connection points: 2
#     Edge 27, Type (0, 0), BuildingBlock: UVAHIK_clean_linker_0, # of connection points: 2
#     Edge 28, Type (0, 0), BuildingBlock: UVAHIK_clean_linker_0, # of connection points: 2
#     Edge 29, Type (0, 0), BuildingBlock: UVAHIK_clean_linker_0, # of connection points: 2
#     Edge 30, Type (0, 0), BuildingBlock: UVAHIK_clean_linker_0, # of connection points: 2
#     Edge 31, Type (0, 0), BuildingBlock: UVAHIK_clean_linker_0, # of connection points: 2
#     Edge 32, Type (0, 0), BuildingBlock: UVAHIK_clean_linker_0, # of connection points: 2
#     Edge 33, Type (0, 0), BuildingBlock: UVAHIK_clean_linker_0, # of connection points: 2
#     Edge 34, Type (0, 0), BuildingBlock: UVAHIK_clean_linker_0, # of connection points: 2
#     Edge 35, Type (0, 0), BuildingBlock: UVAHIK_clean_linker_0, # of connection points: 2
#     Edge 36, Type (0, 0), BuildingBlock: UVAHIK_clean_linker_0, # of connection points: 2
#     Edge 37, Type (0, 0), BuildingBlock: UVAHIK_clean_linker_0, # of connection points: 2
#     Edge 38, Type (0, 0), BuildingBlock: UVAHIK_clean_linker_0, # of connection points: 2
#     Edge 39, Type (0, 0), BuildingBlock: UVAHIK_clean_linker_0, # of connection points: 2
#     Edge 40, Type (0, 0), BuildingBlock: UVAHIK_clean_linker_0, # of connection points: 2
#     Edge 41, Type (0, 0), BuildingBlock: UVAHIK_clean_linker_0, # of connection points: 2
#     Edge 42, Type (0, 0), BuildingBlock: UVAHIK_clean_linker_0, # of connection points: 2
#     Edge 43, Type (0, 0), BuildingBlock: UVAHIK_clean_linker_0, # of connection points: 2
#     Edge 44, Type (0, 0), BuildingBlock: UVAHIK_clean_linker_0, # of connection points: 2
#     Edge 45, Type (0, 0), BuildingBlock: UVAHIK_clean_linker_0, # of connection points: 2
#     Edge 46, Type (0, 0), BuildingBlock: UVAHIK_clean_linker_0, # of connection points: 2
#     Edge 47, Type (0, 0), BuildingBlock: UVAHIK_clean_linker_0, # of connection points: 2
#     Edge 48, Type (0, 0), BuildingBlock: UVAHIK_clean_linker_0, # of connection points: 2
#     Edge 49, Type (0, 0), BuildingBlock: UVAHIK_clean_linker_0, # of connection points: 2
#     Edge 50, Type (0, 0), BuildingBlock: UVAHIK_clean_linker_0, # of connection points: 2
#     Edge 51, Type (0, 0), BuildingBlock: UVAHIK_clean_linker_0, # of connection points: 2
#     Edge 52, Type (0, 0), BuildingBlock: UVAHIK_clean_linker_0, # of connection points: 2
#     Edge 53, Type (0, 0), BuildingBlock: UVAHIK_clean_linker_0, # of connection points: 2
#     Edge 54, Type (0, 0), BuildingBlock: UVAHIK_clean_linker_0, # of connection points: 2
#     Edge 55, Type (0, 0), BuildingBlock: UVAHIK_clean_linker_0, # of connection points: 2
# Relax obj value: 0.131
# Max RMSD: 0.150
# Mean RMSD: 0.150
data_MOF--net-zfc--node1-XOMCOT_clean_sbu_0--edge1-UVAHIK_clean_linker_0
_symmetry_space_group_name_H-M    P1
_symmetry_Int_Tables_number       1
_symmetry_cell_setting            triclinic
loop_
_symmetry_equiv_pos_as_xyz
'x, y, z'
_cell_length_a     95.157777
_cell_length_b     95.095519
_cell_length_c     22.056861
_cell_angle_alpha  89.99027
_cell_angle_beta   90.014678
_cell_angle_gamma 90.060792
loop_
_atom_site_label
_atom_site_type_symbol
_atom_site_fract_x
_atom_site_fract_y
_atom_site_fract_z
_atom_type_partial_charge
Co0 Co 0.26753 0.09202 0.08714 0.0
C1 C 0.27019 0.09397 0.95421 0.0
C2 C 0.28888 0.1012 0.99907 0.0
C3 C 0.29089 0.10215 0.93732 0.0
N4 N 0.27589 0.09614 0.0094 0.0
N5 N 0.27913 0.09757 0.90918 0.0
H6 H 0.2597 0.08987 0.94734 0.0
H7 H 0.29646 0.10379 0.03389 0.0
C8 C 0.27372 0.1174 0.16107 0.0
O9 O 0.26049 0.11722 0.17834 0.0
N10 N 0.25948 0.08743 0.16623 0.0
C11 C 0.24759 0.08022 0.17862 0.0
C12 C 0.24653 0.07829 0.24027 0.0
C13 C 0.26584 0.089 0.22072 0.0
N14 N 0.25798 0.08391 0.26683 0.0
C15 C 0.23863 0.09928 0.06172 0.0
C16 C 0.2438 0.12732 0.03768 0.0
C17 C 0.22988 0.12259 0.0401 0.0
C18 C 0.22735 0.10826 0.05 0.0
C19 C 0.25471 0.11797 0.04916 0.0
N20 N 0.252 0.10439 0.06588 0.0
H21 H 0.23658 0.08823 0.06643 0.0
H22 H 0.26539 0.12175 0.04557 0.0
H23 H 0.24042 0.07591 0.14573 0.0
H24 H 0.27622 0.09344 0.22642 0.0
O25 O 0.2603 0.0747 0.05526 0.0
O26 O 0.28118 0.07734 0.09932 0.0
O27 O 0.27834 0.10808 0.12441 0.0
C28 C 0.27208 0.06911 0.07306 0.0
H29 H 0.30041 0.10559 0.91493 0.0
H30 H 0.23798 0.07307 0.26351 0.0
H31 H 0.24623 0.13818 0.02708 0.0
H32 H 0.21676 0.10408 0.04986 0.0
Co33 Co 0.90357 0.26522 0.0967 0.0
C34 C 0.9031 0.26859 0.96122 0.0
C35 C 0.89952 0.28791 0.00867 0.0
C36 C 0.89922 0.29064 0.94743 0.0
N37 N 0.90157 0.27401 0.01747 0.0
N38 N 0.90152 0.27848 0.91786 0.0
H39 H 0.90545 0.25778 0.95128 0.0
H40 H 0.89837 0.29557 0.04456 0.0
C41 C 0.87557 0.27898 0.09947 0.0
O42 O 0.87327 0.27393 0.04488 0.0
N43 N 0.90584 0.25695 0.17579 0.0
C44 C 0.90905 0.24345 0.18819 0.0
C45 C 0.90922 0.24172 0.25014 0.0
C46 C 0.90433 0.26331 0.22995 0.0
N47 N 0.90628 0.25421 0.27617 0.0
C48 C 0.89684 0.23953 0.03459 0.0
C49 C 0.87157 0.23472 0.09256 0.0
C50 C 0.87611 0.2252 0.04829 0.0
C51 C 0.88901 0.22761 0.0197 0.0
C52 C 0.87972 0.2465 0.10594 0.0
N53 N 0.8918 0.24926 0.07455 0.0
H54 H 0.90719 0.24063 0.01539 0.0
H55 H 0.87644 0.25313 0.14297 0.0
H56 H 0.91102 0.23543 0.15454 0.0
H57 H 0.90162 0.27429 0.23536 0.0
O58 O 0.9215 0.25778 0.07329 0.0
O59 O 0.91806 0.27877 0.11506 0.0
O60 O 0.88702 0.27626 0.12729 0.0
C61 C 0.92675 0.26957 0.09283 0.0
H62 H 0.89777 0.3008 0.92629 0.0
H63 H 0.91149 0.23207 0.27423 0.0
H64 H 0.86182 0.2331 0.1169 0.0
H65 H 0.89323 0.22015 0.9874 0.0
Co66 Co 0.72615 0.90439 0.10048 0.0
C67 C 0.72299 0.90379 0.96481 0.0
C68 C 0.70336 0.90297 0.01213 0.0
C69 C 0.70065 0.90293 0.95094 0.0
N70 N 0.71738 0.90326 0.02102 0.0
N71 N 0.71301 0.90343 0.92121 0.0
H72 H 0.734 0.90493 0.95528 0.0
H73 H 0.69561 0.90281 0.04799 0.0
C74 C 0.71053 0.87746 0.09984 0.0
O75 O 0.71596 0.87515 0.04598 0.0
N76 N 0.73443 0.90585 0.17982 0.0
C77 C 0.74795 0.9088 0.19253 0.0
C78 C 0.74964 0.90878 0.25448 0.0
C79 C 0.72801 0.90421 0.23375 0.0
N80 N 0.73709 0.90591 0.28027 0.0
C81 C 0.75142 0.89572 0.03893 0.0
C82 C 0.75353 0.86982 0.09479 0.0
C83 C 0.76329 0.87343 0.04999 0.0
C84 C 0.76243 0.88673 0.02308 0.0
C85 C 0.74284 0.87917 0.10961 0.0
N86 N 0.74122 0.8915 0.07854 0.0
H87 H 0.75127 0.90618 0.02004 0.0
H88 H 0.73602 0.87653 0.14698 0.0
H89 H 0.756 0.91083 0.15906 0.0
H90 H 0.71697 0.90169 0.23872 0.0
O91 O 0.73493 0.92184 0.07807 0.0
O92 O 0.7137 0.91975 0.1192 0.0
O93 O 0.71375 0.88859 0.12924 0.0
C94 C 0.7235 0.92785 0.09737 0.0
H95 H 0.69036 0.90247 0.93012 0.0
H96 H 0.7593 0.91095 0.27865 0.0
H97 H 0.75433 0.85995 0.1191 0.0
H98 H 0.77011 0.89012 0.98993 0.0
Co99 Co 0.09259 0.72621 0.07427 0.0
C100 C 0.09448 0.72331 0.93895 0.0
C101 C 0.09687 0.70373 0.98573 0.0
C102 C 0.09732 0.70114 0.92443 0.0
N103 N 0.09541 0.71768 0.99505 0.0
N104 N 0.09578 0.71347 0.89512 0.0
H105 H 0.09256 0.73422 0.9296 0.0
H106 H 0.09727 0.6959 0.02129 0.0
C107 C 0.11982 0.71143 0.08351 0.0
O108 O 0.12308 0.7173 0.0314 0.0
N109 N 0.08943 0.73426 0.15322 0.0
C110 C 0.0855 0.74755 0.16523 0.0
C111 C 0.08461 0.74917 0.22708 0.0
C112 C 0.09082 0.72792 0.20751 0.0
N113 N 0.08796 0.73682 0.25367 0.0
C114 C 0.10193 0.75172 0.01704 0.0
C115 C 0.12573 0.75529 0.08705 0.0
C116 C 0.12261 0.76527 0.04236 0.0
C117 C 0.11045 0.76346 0.00749 0.0
C118 C 0.11692 0.74373 0.09503 0.0
N119 N 0.1056 0.74159 0.05795 0.0
H120 H 0.09204 0.75121 0.99348 0.0
H121 H 0.11902 0.73676 0.13254 0.0
H122 H 0.08358 0.75555 0.13135 0.0
H123 H 0.09375 0.717 0.2129 0.0
O124 O 0.07567 0.73486 0.04543 0.0
O125 O 0.07692 0.71359 0.0868 0.0
O126 O 0.10797 0.71401 0.10839 0.0
C127 C 0.06927 0.72342 0.0622 0.0
H128 H 0.09819 0.69093 0.90313 0.0
H129 H 0.08198 0.75881 0.25054 0.0
H130 H 0.13484 0.75644 0.11608 0.0
H131 H 0.10725 0.7713 0.97466 0.0
Co132 Co 0.26511 0.90178 0.91274 0.0
C133 C 0.2675 0.89943 0.04808 0.0
C134 C 0.28665 0.89445 1.00199 0.0
C135 C 0.28908 0.89379 0.06334 0.0
N136 N 0.27301 0.89761 0.99216 0.0
N137 N 0.27703 0.89696 0.09223 0.0
H138 H 0.25698 0.90296 0.057 0.0
H139 H 0.29445 0.89315 0.96678 0.0
C140 C 0.27751 0.87344 0.90051 0.0
O141 O 0.27088 0.87027 0.95099 0.0
N142 N 0.25774 0.90626 0.8338 0.0
C143 C 0.24495 0.9116 0.82175 0.0
C144 C 0.24358 0.913 0.75997 0.0
C145 C 0.26402 0.90451 0.77961 0.0
N146 N 0.25557 0.90854 0.73349 0.0
C147 C 0.23896 0.89368 0.96806 0.0
C148 C 0.23398 0.87065 0.89488 0.0
C149 C 0.22457 0.87362 0.94198 0.0
C150 C 0.227 0.88552 0.97789 0.0
C151 C 0.24578 0.87913 0.88662 0.0
N152 N 0.2487 0.88989 0.92574 0.0
H153 H 0.24008 0.90331 0.9932 0.0
H154 H 0.25252 0.87704 0.84831 0.0
H155 H 0.23711 0.9141 0.85554 0.0
H156 H 0.27456 0.90045 0.77422 0.0
O157 O 0.25768 0.91906 0.94349 0.0
O158 O 0.27903 0.91647 0.90441 0.0
O159 O 0.27621 0.8857 0.87732 0.0
C160 C 0.26972 0.92464 0.92961 0.0
H161 H 0.29909 0.89176 0.08494 0.0
H162 H 0.23432 0.91671 0.73643 0.0
H163 H 0.23237 0.86176 0.86496 0.0
H164 H 0.21958 0.88867 0.01255 0.0
Co165 Co 0.09205 0.26443 0.90441 0.0
C166 C 0.0944 0.26708 0.03748 0.0
C167 C 0.10115 0.28589 0.99219 0.0
C168 C 0.10199 0.28801 0.05386 0.0
N169 N 0.09643 0.27276 0.9821 0.0
N170 N 0.09769 0.27619 0.08242 0.0
H171 H 0.09018 0.25663 0.04444 0.0
H172 H 0.10355 0.2935 0.95726 0.0
C173 C 0.11709 0.27183 0.82979 0.0
O174 O 0.11759 0.25865 0.81202 0.0
N175 N 0.08718 0.25637 0.8255 0.0
C176 C 0.07975 0.24454 0.81416 0.0
C177 C 0.07791 0.24313 0.75261 0.0
C178 C 0.0889 0.2624 0.77033 0.0
N179 N 0.08377 0.25432 0.72496 0.0
C180 C 0.10013 0.23574 0.92751 0.0
C181 C 0.12785 0.24149 0.95519 0.0
C182 C 0.12329 0.22747 0.95487 0.0
C183 C 0.10915 0.22469 0.94197 0.0
C184 C 0.11845 0.2522 0.94074 0.0
N185 N 0.10498 0.24921 0.92347 0.0
H186 H 0.08916 0.23345 0.92177 0.0
H187 H 0.12206 0.26296 0.9435 0.0
H188 H 0.07521 0.23769 0.84777 0.0
H189 H 0.09376 0.27254 0.76336 0.0
O190 O 0.07532 0.25652 0.93865 0.0
O191 O 0.07676 0.27759 0.89534 0.0
O192 O 0.10746 0.27593 0.86607 0.0
C193 C 0.06918 0.26822 0.92352 0.0
H194 H 0.10547 0.29758 0.07575 0.0
H195 H 0.07227 0.23473 0.73016 0.0
H196 H 0.13863 0.2442 0.96592 0.0
H197 H 0.10499 0.2141 0.94428 0.0
Co198 Co 0.72982 0.09402 0.90862 0.0
C199 C 0.72733 0.09625 0.04406 0.0
C200 C 0.70819 0.10105 0.99763 0.0
C201 C 0.70566 0.10155 0.05888 0.0
N202 N 0.72187 0.09809 0.98804 0.0
N203 N 0.71772 0.09852 0.08809 0.0
H204 H 0.73775 0.09241 0.05304 0.0
H205 H 0.70042 0.10236 0.9623 0.0
C206 C 0.71691 0.12207 0.89609 0.0
O207 O 0.72373 0.12541 0.94592 0.0
N208 N 0.73724 0.08961 0.82965 0.0
C209 C 0.7501 0.08439 0.8179 0.0
C210 C 0.75174 0.08342 0.7561 0.0
C211 C 0.73115 0.09165 0.7752 0.0
N212 N 0.73984 0.08801 0.72934 0.0
C213 C 0.75576 0.10286 0.96345 0.0
C214 C 0.76069 0.12525 0.88654 0.0
C215 C 0.77033 0.12243 0.93294 0.0
C216 C 0.76785 0.11093 0.97113 0.0
C217 C 0.74874 0.11688 0.88049 0.0
N218 N 0.74595 0.10632 0.92089 0.0
H219 H 0.75469 0.09343 0.98996 0.0
H220 H 0.74186 0.11876 0.84242 0.0
H221 H 0.75783 0.08171 0.85194 0.0
H222 H 0.72077 0.09607 0.76929 0.0
O223 O 0.7378 0.07703 0.93968 0.0
O224 O 0.7163 0.07891 0.9012 0.0
O225 O 0.71828 0.1098 0.87315 0.0
C226 C 0.7259 0.07107 0.92643 0.0
H227 H 0.69566 0.10379 0.08008 0.0
H228 H 0.76098 0.07961 0.73273 0.0
H229 H 0.76233 0.13384 0.85509 0.0
H230 H 0.77541 0.10792 0.0055 0.0
Co231 Co 0.8983 0.72813 0.93558 0.0
C232 C 0.89542 0.72615 0.07057 0.0
C233 C 0.89005 0.70695 0.02557 0.0
C234 C 0.88936 0.70472 0.08704 0.0
N235 N 0.89341 0.72053 0.01491 0.0
N236 N 0.89278 0.7168 0.11529 0.0
H237 H 0.89943 0.73656 0.07877 0.0
H238 H 0.88882 0.69899 0.99098 0.0
C239 C 0.87075 0.71443 0.91676 0.0
O240 O 0.86653 0.72136 0.965 0.0
N241 N 0.90358 0.73524 0.85696 0.0
C242 C 0.90892 0.74806 0.84507 0.0
C243 C 0.91066 0.74935 0.78341 0.0
C244 C 0.90218 0.72886 0.80273 0.0
N245 N 0.9064 0.73729 0.75679 0.0
C246 C 0.8876 0.75395 0.98631 0.0
C247 C 0.86628 0.75747 0.90261 0.0
C248 C 0.8676 0.76715 0.95 0.0
C249 C 0.87865 0.76551 0.99137 0.0
C250 C 0.8755 0.74614 0.89911 0.0
N251 N 0.88542 0.74394 0.94298 0.0
H252 H 0.89652 0.75337 0.01605 0.0
H253 H 0.87469 0.73918 0.86061 0.0
H254 H 0.91107 0.75603 0.87883 0.0
H255 H 0.89812 0.71832 0.79711 0.0
O256 O 0.91473 0.73664 0.9703 0.0
O257 O 0.91371 0.71497 0.93256 0.0
O258 O 0.88332 0.71599 0.8973 0.0
C259 C 0.92103 0.7248 0.95901 0.0
H260 H 0.88727 0.69478 0.10916 0.0
H261 H 0.91436 0.75864 0.75996 0.0
H262 H 0.85829 0.75872 0.86802 0.0
H263 H 0.88031 0.77303 0.02755 0.0
Co264 Co 0.76428 0.59126 0.58777 0.0
C265 C 0.76646 0.59395 0.45483 0.0
C266 C 0.78554 0.60034 0.49903 0.0
C267 C 0.78741 0.60138 0.43725 0.0
N268 N 0.77239 0.59575 0.50985 0.0
N269 N 0.77543 0.5973 0.40952 0.0
H270 H 0.75585 0.59015 0.44827 0.0
H271 H 0.79335 0.60244 0.5335 0.0
C272 C 0.7727 0.61554 0.6648 0.0
O273 O 0.75958 0.61626 0.68319 0.0
N274 N 0.75645 0.58627 0.6669 0.0
C275 C 0.74437 0.57936 0.67915 0.0
C276 C 0.74334 0.57723 0.74068 0.0
C277 C 0.76295 0.5874 0.72129 0.0
N278 N 0.755 0.58241 0.7673 0.0
C279 C 0.7358 0.60035 0.56767 0.0
C280 C 0.74225 0.62815 0.54405 0.0
C281 C 0.72811 0.62402 0.54551 0.0
C282 C 0.72496 0.60984 0.55609 0.0
C283 C 0.75274 0.61829 0.55557 0.0
N284 N 0.74942 0.60477 0.57119 0.0
H285 H 0.73321 0.58941 0.57179 0.0
H286 H 0.76357 0.62158 0.55223 0.0
H287 H 0.73699 0.57546 0.64614 0.0
H288 H 0.77347 0.59148 0.7271 0.0
O289 O 0.75568 0.57492 0.55292 0.0
O290 O 0.77696 0.57551 0.5945 0.0
O291 O 0.77642 0.60612 0.62672 0.0
C292 C 0.76719 0.56833 0.5669 0.0
H293 H 0.79703 0.60441 0.41452 0.0
H294 H 0.73464 0.57225 0.76385 0.0
H295 H 0.74522 0.63893 0.53487 0.0
H296 H 0.71424 0.60603 0.55434 0.0
Co297 Co 0.39879 0.76403 0.58454 0.0
C298 C 0.39626 0.76654 0.45144 0.0
C299 C 0.38951 0.78535 0.4966 0.0
C300 C 0.38862 0.78744 0.43494 0.0
N301 N 0.39426 0.77224 0.50678 0.0
N302 N 0.39293 0.77562 0.40644 0.0
H303 H 0.40051 0.75611 0.44453 0.0
H304 H 0.38714 0.79298 0.53146 0.0
C305 C 0.37403 0.77182 0.66021 0.0
O306 O 0.37341 0.75867 0.67851 0.0
N307 N 0.40383 0.75609 0.66354 0.0
C308 C 0.41137 0.74434 0.67476 0.0
C309 C 0.4133 0.74296 0.73625 0.0
C310 C 0.40217 0.76213 0.71871 0.0
N311 N 0.40741 0.7541 0.76399 0.0
C312 C 0.39019 0.7353 0.56533 0.0
C313 C 0.36228 0.74121 0.54216 0.0
C314 C 0.36654 0.72716 0.54654 0.0
C315 C 0.38078 0.72424 0.55619 0.0
C316 C 0.37208 0.75192 0.55109 0.0
N317 N 0.38562 0.74888 0.56713 0.0
H318 H 0.40115 0.73288 0.5701 0.0
H319 H 0.36868 0.7627 0.54627 0.0
H320 H 0.4159 0.73752 0.64104 0.0
H321 H 0.39728 0.77224 0.7258 0.0
O322 O 0.41536 0.7559 0.54983 0.0
O323 O 0.41421 0.77707 0.59243 0.0
O324 O 0.38361 0.77574 0.62328 0.0
C325 C 0.42166 0.76754 0.56475 0.0
H326 H 0.38512 0.79699 0.41303 0.0
H327 H 0.41902 0.7346 0.7586 0.0
H328 H 0.35148 0.74391 0.532 0.0
H329 H 0.38459 0.71352 0.55789 0.0
Co330 Co 0.22916 0.40051 0.59235 0.0
C331 C 0.22701 0.39782 0.45709 0.0
C332 C 0.20795 0.39233 0.50296 0.0
C333 C 0.20561 0.39151 0.44159 0.0
N334 N 0.22148 0.39593 0.51296 0.0
N335 N 0.2176 0.395 0.41284 0.0
H336 H 0.23744 0.40165 0.44829 0.0
H337 H 0.20015 0.39086 0.53805 0.0
C338 C 0.21753 0.37182 0.6055 0.0
O339 O 0.22436 0.36869 0.5555 0.0
N340 N 0.23632 0.40538 0.67124 0.0
C341 C 0.2489 0.41121 0.68327 0.0
C342 C 0.25023 0.41268 0.74504 0.0
C343 C 0.2301 0.40341 0.72544 0.0
N344 N 0.23841 0.40776 0.77155 0.0
C345 C 0.25564 0.39341 0.53809 0.0
C346 C 0.26135 0.37051 0.61101 0.0
C347 C 0.27076 0.37395 0.56442 0.0
C348 C 0.26795 0.3858 0.52874 0.0
C349 C 0.2492 0.3785 0.61897 0.0
N350 N 0.24596 0.38919 0.57995 0.0
H351 H 0.2542 0.403 0.51293 0.0
H352 H 0.24247 0.3761 0.65696 0.0
H353 H 0.25666 0.41398 0.64948 0.0
H354 H 0.21972 0.39893 0.73086 0.0
O355 O 0.23608 0.41797 0.56105 0.0
O356 O 0.21478 0.41478 0.59982 0.0
O357 O 0.2185 0.38416 0.62818 0.0
C358 C 0.22385 0.42318 0.57432 0.0
H359 H 0.19568 0.38916 0.41986 0.0
H360 H 0.25936 0.41672 0.76856 0.0
H361 H 0.26323 0.36166 0.64077 0.0
H362 H 0.27531 0.38933 0.49453 0.0
Co363 Co 0.58994 0.22818 0.60232 0.0
C364 C 0.59239 0.22571 0.46919 0.0
C365 C 0.59948 0.20701 0.51427 0.0
C366 C 0.60047 0.20498 0.45262 0.0
N367 N 0.59448 0.22002 0.52448 0.0
N368 N 0.59594 0.21673 0.42417 0.0
H369 H 0.58797 0.23607 0.46235 0.0
H370 H 0.60201 0.19943 0.54911 0.0
C371 C 0.61551 0.22123 0.67441 0.0
O372 O 0.61607 0.23446 0.69162 0.0
N373 N 0.58484 0.23599 0.68146 0.0
C374 C 0.57616 0.24692 0.69273 0.0
C375 C 0.57438 0.24832 0.75427 0.0
C376 C 0.58738 0.23036 0.73681 0.0
N377 N 0.58151 0.23793 0.78202 0.0
C378 C 0.59794 0.25724 0.58669 0.0
C379 C 0.62501 0.25184 0.5479 0.0
C380 C 0.62061 0.26578 0.5544 0.0
C381 C 0.60687 0.26847 0.5735 0.0
C382 C 0.61581 0.24094 0.56261 0.0
N383 N 0.60262 0.2437 0.58419 0.0
H384 H 0.58718 0.25953 0.59711 0.0
H385 H 0.61934 0.23023 0.55672 0.0
H386 H 0.57075 0.25308 0.65894 0.0
H387 H 0.59318 0.22076 0.74415 0.0
O388 O 0.57309 0.23577 0.56796 0.0
O389 O 0.57493 0.21468 0.61086 0.0
O390 O 0.60558 0.21696 0.64005 0.0
C391 C 0.56718 0.22392 0.58278 0.0
H392 H 0.6042 0.19552 0.4307 0.0
H393 H 0.56788 0.25607 0.77671 0.0
H394 H 0.63552 0.24937 0.53226 0.0
H395 H 0.60297 0.27914 0.57675 0.0
Co396 Co 0.76524 0.4001 0.40478 0.0
C397 C 0.76828 0.39856 0.54017 0.0
C398 C 0.78797 0.39792 0.49321 0.0
C399 C 0.7906 0.39764 0.55445 0.0
N400 N 0.77396 0.39824 0.48406 0.0
N401 N 0.77821 0.39805 0.584 0.0
H402 H 0.75725 0.39972 0.5494 0.0
H403 H 0.79576 0.39798 0.45753 0.0
C404 C 0.78117 0.37326 0.40009 0.0
O405 O 0.77649 0.37044 0.45482 0.0
N406 N 0.75697 0.40227 0.32568 0.0
C407 C 0.74352 0.4056 0.31345 0.0
C408 C 0.74175 0.40581 0.25154 0.0
C409 C 0.76326 0.40062 0.27147 0.0
N410 N 0.75417 0.40267 0.22526 0.0
C411 C 0.73969 0.39128 0.46321 0.0
C412 C 0.73708 0.36608 0.40201 0.0
C413 C 0.72665 0.36988 0.44373 0.0
C414 C 0.72802 0.38274 0.47424 0.0
C415 C 0.74845 0.37499 0.39192 0.0
N416 N 0.75009 0.38709 0.42461 0.0
H417 H 0.74003 0.40153 0.484 0.0
H418 H 0.75559 0.3723 0.35585 0.0
H419 H 0.73555 0.40768 0.34722 0.0
H420 H 0.7742 0.39777 0.26606 0.0
O421 O 0.75657 0.41738 0.42994 0.0
O422 O 0.77778 0.41557 0.38846 0.0
O423 O 0.77749 0.38454 0.37298 0.0
C424 C 0.768 0.42352 0.41135 0.0
H425 H 0.80087 0.39717 0.57539 0.0
H426 H 0.73211 0.40824 0.22774 0.0
H427 H 0.73643 0.35637 0.37657 0.0
H428 H 0.71992 0.38642 0.50483 0.0
Co429 Co 0.59064 0.76683 0.41799 0.0
C430 C 0.5922 0.76972 0.55096 0.0
C431 C 0.59798 0.78889 0.50593 0.0
C432 C 0.59874 0.79101 0.56765 0.0
N433 N 0.59396 0.77553 0.49572 0.0
N434 N 0.59507 0.77895 0.5959 0.0
H435 H 0.58893 0.75893 0.55791 0.0
H436 H 0.60001 0.79662 0.47102 0.0
C437 C 0.61562 0.77476 0.34441 0.0
O438 O 0.61635 0.76162 0.3263 0.0
N439 N 0.58689 0.7584 0.33888 0.0
C440 C 0.58114 0.74576 0.32613 0.0
C441 C 0.57934 0.74459 0.26445 0.0
C442 C 0.58776 0.76498 0.28458 0.0
N443 N 0.5836 0.75666 0.23824 0.0
C444 C 0.59927 0.73858 0.44758 0.0
C445 C 0.6271 0.7451 0.46963 0.0
C446 C 0.62291 0.73098 0.4702 0.0
C447 C 0.6087 0.7278 0.46114 0.0
C448 C 0.6173 0.75552 0.45627 0.0
N449 N 0.60383 0.75209 0.4406 0.0
H450 H 0.58829 0.73605 0.4439 0.0
H451 H 0.62062 0.76636 0.45827 0.0
H452 H 0.57778 0.73803 0.35871 0.0
H453 H 0.59111 0.77578 0.2792 0.0
O454 O 0.57365 0.75861 0.44876 0.0
O455 O 0.57525 0.77955 0.40431 0.0
O456 O 0.60606 0.77862 0.38157 0.0
C457 C 0.56746 0.77002 0.43019 0.0
H458 H 0.60142 0.80079 0.58992 0.0
H459 H 0.57518 0.73551 0.24091 0.0
H460 H 0.63784 0.74807 0.47961 0.0
H461 H 0.60492 0.71706 0.4635 0.0
Co462 Co 0.22444 0.5901 0.42451 0.0
C463 C 0.22113 0.5911 0.55736 0.0
C464 C 0.20226 0.5975 0.51168 0.0
C465 C 0.19998 0.59806 0.57334 0.0
N466 N 0.21552 0.59318 0.50193 0.0
N467 N 0.21186 0.59402 0.60208 0.0
H468 H 0.23172 0.58731 0.56451 0.0
H469 H 0.19476 0.60001 0.47647 0.0
C470 C 0.21839 0.61613 0.35456 0.0
O471 O 0.2317 0.61633 0.3386 0.0
N472 N 0.23311 0.58661 0.34562 0.0
C473 C 0.24557 0.58047 0.33332 0.0
C474 C 0.24707 0.57919 0.27156 0.0
C475 C 0.22692 0.58822 0.29077 0.0
N476 N 0.23536 0.58416 0.24472 0.0
C477 C 0.25289 0.59674 0.45935 0.0
C478 C 0.24791 0.62462 0.48684 0.0
C479 C 0.26171 0.61954 0.4896 0.0
C480 C 0.26408 0.60528 0.47724 0.0
C481 C 0.23707 0.61569 0.46893 0.0
N482 N 0.23978 0.6022 0.45099 0.0
H483 H 0.25475 0.58566 0.45403 0.0
H484 H 0.22646 0.61969 0.46946 0.0
H485 H 0.25289 0.57643 0.36614 0.0
H486 H 0.21642 0.59233 0.2847 0.0
O487 O 0.2315 0.5724 0.45308 0.0
O488 O 0.21094 0.57554 0.40695 0.0
O489 O 0.21375 0.60648 0.38956 0.0
C490 C 0.21987 0.56702 0.43242 0.0
H491 H 0.19034 0.60133 0.59514 0.0
H492 H 0.25593 0.57451 0.24838 0.0
H493 H 0.24549 0.63547 0.49735 0.0
H494 H 0.27445 0.60072 0.48211 0.0
Co495 Co 0.40108 0.22751 0.41903 0.0
C496 C 0.39914 0.22482 0.55451 0.0
C497 C 0.39478 0.20558 0.50775 0.0
C498 C 0.39411 0.20304 0.56903 0.0
N499 N 0.39762 0.21932 0.49843 0.0
N500 N 0.39689 0.21515 0.59832 0.0
H501 H 0.40213 0.2355 0.56387 0.0
H502 H 0.39355 0.19784 0.4722 0.0
C503 C 0.37247 0.21539 0.41118 0.0
O504 O 0.36978 0.22162 0.4631 0.0
N505 N 0.40481 0.23518 0.33988 0.0
C506 C 0.41002 0.24803 0.32773 0.0
C507 C 0.41108 0.24952 0.2659 0.0
C508 C 0.40282 0.22896 0.28569 0.0
N509 N 0.40656 0.23753 0.23947 0.0
C510 C 0.39443 0.25381 0.47682 0.0
C511 C 0.37083 0.25951 0.40826 0.0
C512 C 0.37486 0.26904 0.45342 0.0
C513 C 0.38693 0.26617 0.48748 0.0
C514 C 0.3786 0.2473 0.39932 0.0
N515 N 0.38976 0.24411 0.43584 0.0
H516 H 0.4043 0.25237 0.49986 0.0
H517 H 0.37578 0.24059 0.36177 0.0
H518 H 0.41274 0.25581 0.36153 0.0
H519 H 0.39887 0.21836 0.28041 0.0
O520 O 0.41895 0.23441 0.4462 0.0
O521 O 0.4152 0.2133 0.40595 0.0
O522 O 0.38446 0.21689 0.38598 0.0
C523 C 0.42398 0.22234 0.429 0.0
H524 H 0.39222 0.19296 0.59033 0.0
H525 H 0.41466 0.25884 0.24232 0.0
H526 H 0.36175 0.26146 0.37987 0.0
H527 H 0.3908 0.2736 0.52074 0.0
C528 C 0.28402 0.10518 0.80394 0.0
C529 C 0.27688 0.09632 0.84467 0.0
C530 C 0.28209 0.10379 0.74136 0.0
C531 C 0.25779 0.08879 0.62655 0.0
H532 H 0.28982 0.09295 0.51932 0.0
C533 C 0.25466 0.07521 0.37179 0.0
C534 C 0.26094 0.0847 0.33102 0.0
C535 C 0.25689 0.07645 0.43423 0.0
C536 C 0.28074 0.09189 0.5486 0.0
H537 H 0.2622 0.07895 0.85122 0.0
H538 H 0.2589 0.07644 0.74221 0.0
H539 H 0.29299 0.09552 0.62849 0.0
H540 H 0.27457 0.10295 0.32452 0.0
H541 H 0.27854 0.10502 0.43335 0.0
H542 H 0.24557 0.08507 0.54661 0.0
C543 C 0.26581 0.08465 0.75864 0.0
C544 C 0.28255 0.09338 0.61123 0.0
C545 C 0.2677 0.08608 0.82125 0.0
C546 C 0.26973 0.09531 0.35434 0.0
C547 C 0.27199 0.09653 0.41684 0.0
C548 C 0.256 0.08724 0.56396 0.0
C549 C 0.273 0.09347 0.71783 0.0
C550 C 0.27109 0.09187 0.65106 0.0
C551 C 0.26548 0.08719 0.45757 0.0
C552 C 0.26745 0.08877 0.52421 0.0
H553 H 0.291 0.11332 0.82045 0.0
H554 H 0.2876 0.11094 0.71144 0.0
H555 H 0.24868 0.08779 0.65564 0.0
H556 H 0.24804 0.06676 0.35556 0.0
H557 H 0.25192 0.06893 0.46426 0.0
C558 C 0.8933 0.28404 0.81458 0.0
C559 C 0.90221 0.27646 0.85331 0.0
C560 C 0.89371 0.28185 0.75195 0.0
C561 C 0.90627 0.25622 0.63638 0.0
H562 H 0.89915 0.28716 0.52622 0.0
C563 C 0.90008 0.24689 0.37997 0.0
C564 C 0.90537 0.2571 0.34005 0.0
C565 C 0.89945 0.24952 0.44219 0.0
C566 C 0.90133 0.27842 0.5562 0.0
H567 H 0.91882 0.26096 0.85708 0.0
H568 H 0.91996 0.25744 0.74775 0.0
H569 H 0.89926 0.29137 0.63483 0.0
H570 H 0.91421 0.27801 0.33367 0.0
H571 H 0.9136 0.28251 0.44257 0.0
H572 H 0.90902 0.2434 0.55785 0.0
C573 C 0.91228 0.26475 0.76554 0.0
C574 C 0.90117 0.28079 0.61875 0.0
C575 C 0.91169 0.26679 0.82822 0.0
C576 C 0.90995 0.27003 0.36349 0.0
C577 C 0.90954 0.2726 0.42591 0.0
C578 C 0.90663 0.25389 0.57388 0.0
C579 C 0.90322 0.27217 0.72651 0.0
C580 C 0.90358 0.26971 0.65975 0.0
C581 C 0.90432 0.26235 0.46618 0.0
C582 C 0.90408 0.26493 0.53287 0.0
H583 H 0.88577 0.29143 0.83294 0.0
H584 H 0.88637 0.28757 0.7237 0.0
H585 H 0.90797 0.24736 0.66631 0.0
H586 H 0.89627 0.23692 0.36291 0.0
H587 H 0.89504 0.2415 0.47138 0.0
C588 C 0.74461 0.90079 0.38511 0.0
C589 C 0.7341 0.90498 0.34416 0.0
C590 C 0.74186 0.90019 0.44723 0.0
C591 C 0.71862 0.91471 0.56413 0.0
H592 H 0.73206 0.88336 0.66045 0.0
C593 C 0.70449 0.90833 0.81729 0.0
C594 C 0.71514 0.90357 0.85646 0.0
C595 C 0.70649 0.90829 0.75454 0.0
C596 C 0.72838 0.89227 0.63434 0.0
H597 H 0.71246 0.91182 0.33632 0.0
H598 H 0.70761 0.91071 0.445 0.0
H599 H 0.73602 0.88352 0.55124 0.0
H600 H 0.73622 0.89493 0.85991 0.0
H601 H 0.73985 0.89525 0.7508 0.0
H602 H 0.71115 0.92357 0.64721 0.0
C603 C 0.718 0.90794 0.42891 0.0
C604 C 0.73062 0.89234 0.57177 0.0
C605 C 0.72073 0.90845 0.36667 0.0
C606 C 0.72785 0.89882 0.83129 0.0
C607 C 0.72986 0.89883 0.76856 0.0
C608 C 0.71643 0.91467 0.62677 0.0
C609 C 0.72856 0.90384 0.46984 0.0
C610 C 0.72581 0.90358 0.53603 0.0
C611 C 0.71919 0.90353 0.72941 0.0
C612 C 0.72133 0.90348 0.66266 0.0
H613 H 0.75496 0.8979 0.36913 0.0
H614 H 0.75024 0.8971 0.47768 0.0
H615 H 0.71496 0.92361 0.53788 0.0
H616 H 0.69462 0.91219 0.835 0.0
H617 H 0.698 0.91185 0.72569 0.0
C618 C 0.08091 0.74217 0.35912 0.0
C619 C 0.0886 0.73394 0.31787 0.0
C620 C 0.08182 0.7397 0.42139 0.0
C621 C 0.09128 0.71281 0.53433 0.0
H622 H 0.09472 0.74481 0.64231 0.0
C623 C 0.10227 0.70655 0.79081 0.0
C624 C 0.0951 0.71561 0.83048 0.0
C625 C 0.10166 0.70864 0.72812 0.0
C626 C 0.09359 0.73576 0.61289 0.0
H627 H 0.1033 0.7166 0.31029 0.0
H628 H 0.10478 0.71222 0.41904 0.0
H629 H 0.09322 0.74862 0.53327 0.0
H630 H 0.08139 0.73378 0.83521 0.0
H631 H 0.08026 0.73737 0.72606 0.0
H632 H 0.09153 0.69995 0.614 0.0
C633 C 0.09796 0.72053 0.40292 0.0
C634 C 0.09275 0.73795 0.55038 0.0
C635 C 0.09709 0.72303 0.34054 0.0
C636 C 0.08725 0.72676 0.80603 0.0
C637 C 0.0866 0.72882 0.74339 0.0
C638 C 0.09207 0.71062 0.59693 0.0
C639 C 0.09041 0.7289 0.44404 0.0
C640 C 0.09153 0.7265 0.5104 0.0
C641 C 0.09383 0.71981 0.70365 0.0
C642 C 0.09318 0.72208 0.63699 0.0
H643 H 0.07407 0.75048 0.34338 0.0
H644 H 0.07568 0.74618 0.45184 0.0
H645 H 0.09018 0.70379 0.50473 0.0
H646 H 0.10855 0.69798 0.80827 0.0
H647 H 0.10752 0.70162 0.6989 0.0
C648 C 0.26506 0.90757 0.1806 0.0
C649 C 0.27501 0.89817 0.15677 0.0
C650 C 0.2632 0.90878 0.24322 0.0
C651 C 0.28076 0.90156 0.38972 0.0
H652 H 0.24309 0.90551 0.45451 0.0
C653 C 0.26822 0.89811 0.64625 0.0
C654 C 0.25843 0.9078 0.66934 0.0
C655 C 0.27056 0.89707 0.58382 0.0
C656 C 0.25369 0.90457 0.43708 0.0
H657 H 0.29066 0.88253 0.17997 0.0
H658 H 0.28735 0.88455 0.28922 0.0
H659 H 0.24646 0.90332 0.34544 0.0
H660 H 0.24382 0.92435 0.6447 0.0
H661 H 0.24785 0.92249 0.53608 0.0
H662 H 0.28796 0.90272 0.48162 0.0
C663 C 0.28116 0.89118 0.25957 0.0
C664 C 0.25562 0.90332 0.37455 0.0
C665 C 0.28305 0.89 0.19696 0.0
C666 C 0.25122 0.91658 0.62854 0.0
C667 C 0.25354 0.91552 0.56621 0.0
C668 C 0.27882 0.90277 0.45233 0.0
C669 C 0.27121 0.90059 0.28347 0.0
C670 C 0.26918 0.90184 0.35008 0.0
C671 C 0.26315 0.90569 0.5431 0.0
C672 C 0.26527 0.90432 0.47667 0.0
H673 H 0.25887 0.91419 0.15098 0.0
H674 H 0.25562 0.91631 0.2601 0.0
H675 H 0.29136 0.90065 0.37233 0.0
H676 H 0.27382 0.89106 0.67619 0.0
H677 H 0.27793 0.88929 0.56735 0.0
C678 C 0.08591 0.27051 0.63711 0.0
C679 C 0.08472 0.2568 0.66044 0.0
C680 C 0.08709 0.27278 0.57455 0.0
C681 C 0.08108 0.25536 0.42559 0.0
H682 H 0.10636 0.2842 0.36591 0.0
C683 C 0.09587 0.26039 0.17176 0.0
C684 C 0.09629 0.27404 0.14711 0.0
C685 C 0.09437 0.25836 0.23431 0.0
C686 C 0.09915 0.27619 0.38184 0.0
H687 H 0.08414 0.23472 0.63597 0.0
H688 H 0.08629 0.23864 0.52749 0.0
H689 H 0.10379 0.28066 0.47484 0.0
H690 H 0.09523 0.29624 0.16978 0.0
H691 H 0.09278 0.29266 0.27838 0.0
H692 H 0.07656 0.25082 0.33247 0.0
C693 C 0.08599 0.24769 0.55724 0.0
C694 C 0.09765 0.27418 0.44437 0.0
C695 C 0.08475 0.24543 0.61963 0.0
C696 C 0.09521 0.28558 0.18684 0.0
C697 C 0.09378 0.28354 0.24933 0.0
C698 C 0.08264 0.25734 0.36308 0.0
C699 C 0.08717 0.26139 0.53377 0.0
C700 C 0.0886 0.26372 0.46712 0.0
C701 C 0.09331 0.26991 0.27386 0.0
C702 C 0.0917 0.26777 0.34042 0.0
H703 H 0.08576 0.27952 0.66706 0.0
H704 H 0.08777 0.28349 0.55812 0.0
H705 H 0.07383 0.24738 0.44134 0.0
H706 H 0.09687 0.25125 0.14293 0.0
H707 H 0.09424 0.24771 0.2518 0.0
C708 C 0.72353 0.08835 0.64191 0.0
C709 C 0.73725 0.08929 0.6652 0.0
C710 C 0.72111 0.08946 0.57954 0.0
C711 C 0.7369 0.10307 0.43864 0.0
H712 H 0.71175 0.07678 0.35919 0.0
C713 C 0.73318 0.09916 0.17827 0.0
C714 C 0.71976 0.09733 0.15271 0.0
C715 C 0.73513 0.09819 0.24092 0.0
C716 C 0.71867 0.08431 0.38077 0.0
H717 H 0.75914 0.09242 0.6413 0.0
H718 H 0.75494 0.09422 0.5327 0.0
H719 H 0.71527 0.07531 0.46859 0.0
H720 H 0.69792 0.09283 0.17337 0.0
H721 H 0.70126 0.09151 0.2825 0.0
H722 H 0.74027 0.11213 0.35109 0.0
C723 C 0.74605 0.09267 0.56262 0.0
C724 C 0.72068 0.08347 0.44344 0.0
C725 C 0.74847 0.09147 0.62481 0.0
C726 C 0.70836 0.09447 0.19139 0.0
C727 C 0.71031 0.09353 0.25403 0.0
C728 C 0.73485 0.10395 0.37606 0.0
C729 C 0.73235 0.09165 0.53925 0.0
C730 C 0.72988 0.09279 0.47299 0.0
C731 C 0.72371 0.09541 0.27958 0.0
C732 C 0.72576 0.09455 0.3463 0.0
H733 H 0.71469 0.08657 0.67179 0.0
H734 H 0.71043 0.08874 0.5629 0.0
H735 H 0.74389 0.11054 0.46027 0.0
H736 H 0.74217 0.10152 0.14999 0.0
H737 H 0.74563 0.09953 0.25902 0.0
C738 C 0.91458 0.74168 0.65202 0.0
C739 C 0.90574 0.73445 0.69257 0.0
C740 C 0.91351 0.73947 0.58958 0.0
C741 C 0.90025 0.71453 0.47469 0.0
H742 H 0.90114 0.74711 0.36898 0.0
C743 C 0.88614 0.711 0.22062 0.0
C744 C 0.89429 0.71887 0.17972 0.0
C745 C 0.88769 0.71281 0.28313 0.0
C746 C 0.90105 0.73788 0.39775 0.0
H747 H 0.88889 0.71913 0.69882 0.0
H748 H 0.88709 0.71523 0.58989 0.0
H749 H 0.90377 0.75021 0.47806 0.0
H750 H 0.91063 0.7347 0.17262 0.0
H751 H 0.91337 0.73785 0.28161 0.0
H752 H 0.89756 0.7022 0.39438 0.0
C753 C 0.89494 0.72252 0.60659 0.0
C754 C 0.90255 0.73966 0.4603 0.0
C755 C 0.89599 0.72474 0.66911 0.0
C756 C 0.90402 0.72864 0.20279 0.0
C757 C 0.90559 0.73043 0.26534 0.0
C758 C 0.89878 0.71275 0.41209 0.0
C759 C 0.9036 0.72996 0.56608 0.0
C760 C 0.90215 0.72801 0.49952 0.0
C761 C 0.89746 0.72253 0.30628 0.0
C762 C 0.89914 0.72441 0.37286 0.0
H763 H 0.92238 0.74902 0.6685 0.0
H764 H 0.92051 0.74518 0.55966 0.0
H765 H 0.90009 0.70532 0.5036 0.0
H766 H 0.87843 0.70354 0.20427 0.0
H767 H 0.88108 0.70673 0.3133 0.0
C768 C 0.76366 0.58591 0.32211 0.0
C769 C 0.7731 0.59598 0.34508 0.0
C770 C 0.76183 0.5843 0.25955 0.0
C771 C 0.77914 0.59195 0.11228 0.0
H772 H 0.74213 0.58433 0.0464 0.0
C773 C 0.767 0.59352 0.85486 0.0
C774 C 0.75795 0.58313 0.83152 0.0
C775 C 0.76917 0.59477 0.91738 0.0
C776 C 0.75257 0.5863 0.06412 0.0
H777 H 0.78768 0.61251 0.32013 0.0
H778 H 0.78438 0.60983 0.21119 0.0
H779 H 0.74503 0.58739 0.15539 0.0
H780 H 0.74448 0.56561 0.85611 0.0
H781 H 0.74822 0.56784 0.96492 0.0
H782 H 0.78664 0.59098 0.02079 0.0
C783 C 0.77863 0.60295 0.24143 0.0
C784 C 0.75423 0.58805 0.12668 0.0
C785 C 0.7805 0.60451 0.30396 0.0
C786 C 0.75133 0.57388 0.87234 0.0
C787 C 0.75347 0.57516 0.93483 0.0
C788 C 0.77746 0.59025 0.04968 0.0
C789 C 0.76933 0.59275 0.21834 0.0
C790 C 0.76754 0.5909 0.15163 0.0
C791 C 0.76231 0.5857 0.95817 0.0
C792 C 0.76416 0.58739 0.02483 0.0
H793 H 0.75795 0.57902 0.35241 0.0
H794 H 0.75473 0.5762 0.24349 0.0
H795 H 0.78959 0.59389 0.12989 0.0
H796 H 0.7721 0.60097 0.82502 0.0
H797 H 0.77592 0.60311 0.93386 0.0
C798 C 0.39486 0.75984 0.31713 0.0
C799 C 0.39435 0.77348 0.34176 0.0
C800 C 0.39637 0.75781 0.25459 0.0
C801 C 0.40775 0.77608 0.11376 0.0
H802 H 0.38728 0.74603 0.03428 0.0
C803 C 0.40505 0.77022 0.852 0.0
C804 C 0.40641 0.75653 0.82854 0.0
C805 C 0.40373 0.77242 0.91455 0.0
C806 C 0.39317 0.75439 0.05587 0.0
H807 H 0.39519 0.79568 0.31897 0.0
H808 H 0.39738 0.79215 0.21044 0.0
H809 H 0.38463 0.74953 0.14313 0.0
H810 H 0.40729 0.73444 0.85282 0.0
H811 H 0.40515 0.73829 0.96149 0.0
H812 H 0.41619 0.781 0.02619 0.0
C813 C 0.39682 0.78299 0.23953 0.0
C814 C 0.39168 0.75638 0.11838 0.0
C815 C 0.39536 0.78502 0.302 0.0
C816 C 0.40644 0.74513 0.86921 0.0
C817 C 0.40504 0.74732 0.93156 0.0
C818 C 0.4092 0.77413 0.05117 0.0
C819 C 0.39737 0.76936 0.21493 0.0
C820 C 0.39897 0.76724 0.14823 0.0
C821 C 0.40362 0.76098 0.95504 0.0
C822 C 0.40196 0.76323 0.02149 0.0
H823 H 0.39399 0.75069 0.346 0.0
H824 H 0.39691 0.74716 0.23744 0.0
H825 H 0.41371 0.78441 0.13526 0.0
H826 H 0.4051 0.77924 0.82215 0.0
H827 H 0.40256 0.78307 0.93112 0.0
C828 C 0.21184 0.38784 0.30809 0.0
C829 C 0.21962 0.39626 0.34832 0.0
C830 C 0.21368 0.3891 0.24549 0.0
C831 C 0.23875 0.40221 0.13039 0.0
H832 H 0.20638 0.40059 0.02372 0.0
C833 C 0.24252 0.41588 0.87657 0.0
C834 C 0.23559 0.40688 0.83571 0.0
C835 C 0.24029 0.41468 0.93891 0.0
C836 C 0.21553 0.40093 0.05289 0.0
H837 H 0.23526 0.4128 0.35417 0.0
H838 H 0.23843 0.41507 0.24506 0.0
H839 H 0.20312 0.39829 0.133 0.0
H840 H 0.22078 0.38959 0.8288 0.0
H841 H 0.2168 0.38759 0.93765 0.0
H842 H 0.25114 0.40493 0.0503 0.0
C843 C 0.23109 0.40728 0.26191 0.0
C844 C 0.21368 0.3996 0.1155 0.0
C845 C 0.22928 0.40598 0.32452 0.0
C846 C 0.22616 0.39682 0.85877 0.0
C847 C 0.22389 0.39565 0.92121 0.0
C848 C 0.2406 0.40359 0.06785 0.0
C849 C 0.22332 0.39885 0.22162 0.0
C850 C 0.22527 0.40023 0.155 0.0
C851 C 0.23103 0.40449 0.96198 0.0
C852 C 0.22901 0.40298 0.02841 0.0
H853 H 0.20446 0.38012 0.32506 0.0
H854 H 0.20769 0.38228 0.21581 0.0
H855 H 0.24794 0.4025 0.15938 0.0
H856 H 0.24964 0.42393 0.86044 0.0
H857 H 0.24575 0.42182 0.96908 0.0
C858 C 0.59371 0.23258 0.33521 0.0
C859 C 0.59463 0.21892 0.3595 0.0
C860 C 0.59226 0.23465 0.27269 0.0
C861 C 0.59831 0.21741 0.12518 0.0
H862 H 0.57122 0.24447 0.06521 0.0
C863 C 0.58495 0.22206 0.87 0.0
C864 C 0.58272 0.23562 0.8465 0.0
C865 C 0.58629 0.21995 0.93255 0.0
C866 C 0.57897 0.237 0.0811 0.0
H867 H 0.59454 0.19673 0.33612 0.0
H868 H 0.59225 0.20038 0.22756 0.0
H869 H 0.57404 0.24117 0.17414 0.0
H870 H 0.58044 0.25761 0.87039 0.0
H871 H 0.58294 0.25399 0.97901 0.0
H872 H 0.60339 0.21334 0.03234 0.0
C873 C 0.59278 0.20949 0.25695 0.0
C874 C 0.58056 0.2351 0.14361 0.0
C875 C 0.59413 0.20741 0.31941 0.0
C876 C 0.58189 0.247 0.88701 0.0
C877 C 0.58331 0.24491 0.94942 0.0
C878 C 0.59679 0.21937 0.06266 0.0
C879 C 0.5918 0.22312 0.23284 0.0
C880 C 0.59023 0.22527 0.16637 0.0
C881 C 0.58552 0.23136 0.97311 0.0
C882 C 0.58708 0.22918 0.03975 0.0
H883 H 0.59426 0.24172 0.36429 0.0
H884 H 0.59171 0.2453 0.25543 0.0
H885 H 0.60598 0.20988 0.1413 0.0
H886 H 0.58546 0.21305 0.84017 0.0
H887 H 0.58775 0.20933 0.94914 0.0
C888 C 0.7463 0.39779 0.12061 0.0
C889 C 0.75701 0.40165 0.16125 0.0
C890 C 0.74896 0.397 0.05845 0.0
C891 C 0.77267 0.41035 0.94048 0.0
H892 H 0.75806 0.37922 0.84589 0.0
C893 C 0.78676 0.40283 0.68807 0.0
C894 C 0.77603 0.39827 0.64878 0.0
C895 C 0.78468 0.40299 0.75075 0.0
C896 C 0.76207 0.38807 0.87149 0.0
H897 H 0.77891 0.40771 0.1684 0.0
H898 H 0.78359 0.40625 0.05967 0.0
H899 H 0.75406 0.37987 0.95505 0.0
H900 H 0.75472 0.39017 0.64525 0.0
H901 H 0.75096 0.39086 0.75425 0.0
H902 H 0.7805 0.41868 0.85698 0.0
C903 C 0.77311 0.40391 0.07604 0.0
C904 C 0.7598 0.38842 0.93405 0.0
C905 C 0.77048 0.40461 0.13833 0.0
C906 C 0.76317 0.3939 0.67389 0.0
C907 C 0.76107 0.39411 0.73659 0.0
C908 C 0.77487 0.41004 0.87786 0.0
C909 C 0.76237 0.40011 0.03544 0.0
C910 C 0.76505 0.39958 0.9692 0.0
C911 C 0.77181 0.39865 0.77582 0.0
C912 C 0.76957 0.39891 0.84255 0.0
H913 H 0.73587 0.39529 0.13688 0.0
H914 H 0.74043 0.39415 0.02826 0.0
H915 H 0.77667 0.41918 0.96625 0.0
H916 H 0.79675 0.40641 0.67052 0.0
H917 H 0.79324 0.40639 0.77962 0.0
C918 C 0.57523 0.75258 0.13334 0.0
C919 C 0.58407 0.75975 0.17413 0.0
C920 C 0.57624 0.75495 0.07093 0.0
C921 C 0.58933 0.78019 0.95654 0.0
H922 H 0.58819 0.74784 0.8496 0.0
C923 C 0.60223 0.78454 0.70109 0.0
C924 C 0.59402 0.77664 0.66046 0.0
C925 C 0.60104 0.78253 0.76369 0.0
C926 C 0.58836 0.75702 0.87867 0.0
H927 H 0.60086 0.77512 0.1808 0.0
H928 H 0.60254 0.77932 0.07195 0.0
H929 H 0.58583 0.74451 0.95864 0.0
H930 H 0.578 0.76049 0.65413 0.0
H931 H 0.57583 0.75703 0.76318 0.0
H932 H 0.59179 0.79271 0.87657 0.0
C933 C 0.59473 0.77195 0.08842 0.0
C934 C 0.58701 0.7551 0.94127 0.0
C935 C 0.59375 0.76956 0.1509 0.0
C936 C 0.58463 0.76661 0.68401 0.0
C937 C 0.58339 0.76463 0.74664 0.0
C938 C 0.59064 0.78211 0.89388 0.0
C939 C 0.58609 0.76456 0.04763 0.0
C940 C 0.58748 0.76666 0.98099 0.0
C941 C 0.59156 0.77258 0.78734 0.0
C942 C 0.59017 0.77055 0.85411 0.0
H943 H 0.56749 0.74514 0.14955 0.0
H944 H 0.56924 0.74927 0.04088 0.0
H945 H 0.58956 0.78934 0.98578 0.0
H946 H 0.60973 0.79219 0.6845 0.0
H947 H 0.60768 0.78867 0.79353 0.0
C948 C 0.24392 0.58621 0.13916 0.0
C949 C 0.23269 0.58513 0.18035 0.0
C950 C 0.24145 0.58728 0.07688 0.0
C951 C 0.21485 0.58005 0.95905 0.0
H952 H 0.23706 0.6061 0.86343 0.0
C953 C 0.20267 0.59138 0.70667 0.0
C954 C 0.2141 0.59299 0.66678 0.0
C955 C 0.2048 0.59047 0.76929 0.0
C956 C 0.23088 0.59864 0.88926 0.0
H957 H 0.20998 0.58423 0.18779 0.0
H958 H 0.20565 0.58624 0.07898 0.0
H959 H 0.2409 0.60449 0.97244 0.0
H960 H 0.23679 0.59499 0.66225 0.0
H961 H 0.24053 0.59307 0.77111 0.0
H962 H 0.2049 0.57411 0.87583 0.0
C963 C 0.2164 0.58616 0.09506 0.0
C964 C 0.23306 0.59774 0.95185 0.0
C965 C 0.21888 0.58515 0.15753 0.0
C966 C 0.22774 0.59362 0.69131 0.0
C967 C 0.22987 0.59269 0.75397 0.0
C968 C 0.21269 0.58092 0.89639 0.0
C969 C 0.22766 0.58727 0.05399 0.0
C970 C 0.22511 0.58841 0.98753 0.0
C971 C 0.21843 0.59112 0.79382 0.0
C972 C 0.22069 0.59021 0.86063 0.0
H973 H 0.25468 0.58641 0.15504 0.0
H974 H 0.25037 0.58797 0.04655 0.0
H975 H 0.20868 0.57261 0.98503 0.0
H976 H 0.19204 0.59069 0.6896 0.0
H977 H 0.19573 0.58942 0.79855 0.0
C978 C 0.4143 0.24204 0.13426 0.0
C979 C 0.40572 0.23467 0.17534 0.0
C980 C 0.41321 0.23965 0.07201 0.0
C981 C 0.40113 0.2139 0.95893 0.0
H982 H 0.40102 0.24613 0.85115 0.0
C983 C 0.38966 0.2089 0.70248 0.0
C984 C 0.39775 0.21719 0.66293 0.0
C985 C 0.39045 0.21089 0.76515 0.0
C986 C 0.4012 0.237 0.88052 0.0
H987 H 0.38928 0.21893 0.18276 0.0
H988 H 0.38748 0.21468 0.07397 0.0
H989 H 0.40282 0.24972 0.96022 0.0
H990 H 0.41327 0.23387 0.65836 0.0
H991 H 0.41473 0.23729 0.76756 0.0
H992 H 0.39963 0.20117 0.87918 0.0
C993 C 0.39512 0.22224 0.09022 0.0
C994 C 0.40222 0.23907 0.94304 0.0
C995 C 0.39617 0.22467 0.15259 0.0
C996 C 0.4067 0.22748 0.68747 0.0
C997 C 0.40754 0.22944 0.75012 0.0
C998 C 0.40016 0.21182 0.89632 0.0
C999 C 0.40356 0.2298 0.04925 0.0
C1000 C 0.40224 0.22754 0.98292 0.0
C1001 C 0.39939 0.22119 0.78973 0.0
C1002 C 0.40024 0.22336 0.85636 0.0
H1003 H 0.42196 0.2496 0.15012 0.0
H1004 H 0.42004 0.24545 0.04166 0.0
H1005 H 0.40128 0.2048 0.98849 0.0
H1006 H 0.38252 0.20102 0.68491 0.0
H1007 H 0.38387 0.2045 0.79429 0.0
C1008 C 0.27888 0.13742 0.23091 0.0
C1009 C 0.28325 0.12838 0.18422 0.0
C1010 C 0.28798 0.14765 0.25357 0.0
C1011 C 0.31965 0.16802 0.21631 0.0
H1012 H 0.32335 0.1716 0.39073 0.0
C1013 C 0.36471 0.19895 0.32929 0.0
C1014 C 0.3616 0.20666 0.38194 0.0
C1015 C 0.35459 0.1902 0.30324 0.0
C1016 C 0.32228 0.1709 0.34193 0.0
H1017 H 0.3005 0.12308 0.12407 0.0
H1018 H 0.3164 0.14097 0.16384 0.0
H1019 H 0.30662 0.15483 0.34874 0.0
H1020 H 0.34533 0.21158 0.4475 0.0
H1021 H 0.32762 0.19649 0.40144 0.0
H1022 H 0.33532 0.18408 0.20946 0.0
C1023 C 0.30591 0.14017 0.18259 0.0
C1024 C 0.31272 0.16127 0.31793 0.0
C1025 C 0.29684 0.12988 0.16016 0.0
C1026 C 0.34808 0.20569 0.40721 0.0
C1027 C 0.33796 0.19699 0.38101 0.0
C1028 C 0.32917 0.17771 0.24032 0.0
C1029 C 0.30159 0.1491 0.22973 0.0
C1030 C 0.31138 0.15968 0.25492 0.0
C1031 C 0.34115 0.18903 0.32916 0.0
C1032 C 0.33066 0.17918 0.3034 0.0
H1033 H 0.26847 0.13652 0.25039 0.0
H1034 H 0.28435 0.15449 0.28958 0.0
H1035 H 0.31868 0.16712 0.16753 0.0
H1036 H 0.37503 0.19947 0.30873 0.0
H1037 H 0.35743 0.18408 0.26371 0.0
C1038 C 0.79753 0.35278 0.40093 0.0
C1039 C 0.79003 0.36297 0.36824 0.0
C1040 C 0.80609 0.34316 0.37073 0.0
C1041 C 0.82411 0.33761 0.22358 0.0
H1042 H 0.82821 0.29954 0.28417 0.0
C1043 C 0.85432 0.2943 0.09501 0.0
C1044 C 0.86479 0.28762 0.1294 0.0
C1045 C 0.84447 0.30298 0.12319 0.0
C1046 C 0.82715 0.31016 0.26695 0.0
H1047 H 0.78525 0.37088 0.27836 0.0
H1048 H 0.79977 0.3538 0.22543 0.0
H1049 H 0.81209 0.31568 0.33468 0.0
H1050 H 0.87295 0.28438 0.22022 0.0
H1051 H 0.85553 0.29938 0.26952 0.0
H1052 H 0.839 0.3319 0.15514 0.0
C1053 C 0.79944 0.35348 0.27448 0.0
C1054 C 0.818 0.31943 0.29598 0.0
C1055 C 0.79106 0.36324 0.30477 0.0
C1056 C 0.86503 0.28948 0.19258 0.0
C1057 C 0.85504 0.29797 0.22083 0.0
C1058 C 0.83308 0.32827 0.19407 0.0
C1059 C 0.80716 0.34339 0.3071 0.0
C1060 C 0.81647 0.33332 0.27499 0.0
C1061 C 0.84479 0.3049 0.18627 0.0
C1062 C 0.83476 0.31452 0.21585 0.0
H1063 H 0.79699 0.35241 0.44997 0.0
H1064 H 0.81207 0.33572 0.39743 0.0
H1065 H 0.82343 0.34829 0.2068 0.0
H1066 H 0.85392 0.29307 0.04622 0.0
H1067 H 0.8366 0.30819 0.09575 0.0
C1068 C 0.62698 0.7984 0.3496 0.0
C1069 C 0.62585 0.78515 0.32189 0.0
C1070 C 0.63655 0.80831 0.32788 0.0
C1071 C 0.66844 0.8119 0.2334 0.0
H1072 H 0.65695 0.85096 0.22411 0.0
C1073 C 0.69912 0.85381 0.09904 0.0
C1074 C 0.70121 0.86686 0.1275 0.0
C1075 C 0.69028 0.84377 0.12495 0.0
C1076 C 0.66034 0.84011 0.22707 0.0
H1077 H 0.63377 0.77189 0.24958 0.0
H1078 H 0.65026 0.7893 0.2108 0.0
H1079 H 0.64075 0.83348 0.26479 0.0
H1080 H 0.69571 0.87964 0.20552 0.0
H1081 H 0.68017 0.86207 0.25058 0.0
H1082 H 0.68795 0.81856 0.19448 0.0
C1083 C 0.64398 0.79194 0.25012 0.0
C1084 C 0.65109 0.8301 0.25044 0.0
C1085 C 0.63448 0.78198 0.27214 0.0
C1086 C 0.6943 0.86968 0.18246 0.0
C1087 C 0.68536 0.85967 0.20813 0.0
C1088 C 0.67766 0.8219 0.20964 0.0
C1089 C 0.6451 0.80522 0.2777 0.0
C1090 C 0.65503 0.81588 0.25374 0.0
C1091 C 0.68328 0.84663 0.17958 0.0
C1092 C 0.67367 0.83609 0.20614 0.0
H1093 H 0.62054 0.8011 0.38835 0.0
H1094 H 0.63732 0.81836 0.35074 0.0
H1095 H 0.67188 0.80106 0.23627 0.0
H1096 H 0.70431 0.85132 0.05668 0.0
H1097 H 0.68874 0.83386 0.10171 0.0
C1098 C 0.21297 0.63597 0.28415 0.0
C1099 C 0.20868 0.62687 0.33076 0.0
C1100 C 0.20358 0.6457 0.25966 0.0
C1101 C 0.17077 0.6647 0.29001 0.0
H1102 H 0.16822 0.66682 0.11477 0.0
C1103 C 0.12646 0.69487 0.16701 0.0
C1104 C 0.13012 0.70229 0.11422 0.0
C1105 C 0.1362 0.68604 0.19516 0.0
C1106 C 0.16893 0.66651 0.16376 0.0
H1107 H 0.1913 0.62103 0.38934 0.0
H1108 H 0.17491 0.63806 0.34652 0.0
H1109 H 0.18517 0.65099 0.16137 0.0
H1110 H 0.14695 0.70655 0.05038 0.0
H1111 H 0.16398 0.6914 0.10005 0.0
H1112 H 0.15458 0.6803 0.29245 0.0
C1113 C 0.18555 0.63768 0.3291 0.0
C1114 C 0.17863 0.65743 0.19039 0.0
C1115 C 0.19491 0.62788 0.35331 0.0
C1116 C 0.14376 0.70087 0.09069 0.0
C1117 C 0.15351 0.69213 0.11899 0.0
C1118 C 0.16111 0.67387 0.26336 0.0
C1119 C 0.18976 0.64657 0.28161 0.0
C1120 C 0.17963 0.65642 0.25373 0.0
C1121 C 0.14981 0.68452 0.17123 0.0
C1122 C 0.16008 0.67486 0.1999 0.0
H1123 H 0.22352 0.63546 0.26584 0.0
H1124 H 0.20713 0.65254 0.22348 0.0
H1125 H 0.17142 0.66421 0.339 0.0
H1126 H 0.11602 0.69575 0.18622 0.0
H1127 H 0.13298 0.6802 0.23496 0.0
C1128 C 0.36345 0.79587 0.65917 0.0
C1129 C 0.36368 0.78212 0.68256 0.0
C1130 C 0.35369 0.80564 0.68049 0.0
C1131 C 0.33167 0.81348 0.81227 0.0
H1132 H 0.3114 0.83773 0.70115 0.0
C1133 C 0.28696 0.84905 0.8942 0.0
C1134 C 0.28653 0.86282 0.8713 0.0
C1135 C 0.29593 0.83909 0.86878 0.0
C1136 C 0.31709 0.83114 0.73275 0.0
H1137 H 0.35382 0.76781 0.74635 0.0
H1138 H 0.3368 0.78489 0.78355 0.0
H1139 H 0.32805 0.8205 0.66142 0.0
H1140 H 0.29494 0.8769 0.8029 0.0
H1141 H 0.31083 0.85953 0.75905 0.0
H1142 H 0.32091 0.82415 0.88364 0.0
C1143 C 0.34423 0.78812 0.74902 0.0
C1144 C 0.3266 0.82127 0.71002 0.0
C1145 C 0.35393 0.77833 0.7275 0.0
C1146 C 0.29505 0.86636 0.82156 0.0
C1147 C 0.30409 0.8564 0.79625 0.0
C1148 C 0.32223 0.82336 0.83499 0.0
C1149 C 0.34404 0.80188 0.72581 0.0
C1150 C 0.33394 0.81233 0.74959 0.0
C1151 C 0.30474 0.8427 0.82009 0.0
C1152 C 0.3148 0.83226 0.7955 0.0
H1153 H 0.37081 0.79912 0.62445 0.0
H1154 H 0.35387 0.81622 0.66224 0.0
H1155 H 0.33737 0.80689 0.84388 0.0
H1156 H 0.28043 0.84593 0.93211 0.0
H1157 H 0.29597 0.82855 0.88738 0.0
C1158 C 0.12816 0.29569 0.83172 0.0
C1159 C 0.1278 0.28193 0.80855 0.0
C1160 C 0.13835 0.30521 0.81202 0.0
C1161 C 0.16204 0.3124 0.68473 0.0
H1162 H 0.18157 0.33629 0.79981 0.0
C1163 C 0.2081 0.34738 0.61132 0.0
C1164 C 0.20838 0.36118 0.63397 0.0
C1165 C 0.19884 0.33747 0.63533 0.0
C1166 C 0.1761 0.32979 0.7671 0.0
H1167 H 0.13786 0.26734 0.74664 0.0
H1168 H 0.15566 0.28399 0.71227 0.0
H1169 H 0.16409 0.31944 0.83609 0.0
H1170 H 0.19943 0.37533 0.70073 0.0
H1171 H 0.18306 0.35805 0.74209 0.0
H1172 H 0.17385 0.3228 0.61565 0.0
C1173 C 0.14799 0.28742 0.74538 0.0
C1174 C 0.16612 0.32014 0.78786 0.0
C1175 C 0.13784 0.27788 0.76528 0.0
C1176 C 0.19946 0.36477 0.68229 0.0
C1177 C 0.19013 0.35486 0.70618 0.0
C1178 C 0.17197 0.32205 0.66397 0.0
C1179 C 0.14835 0.30118 0.76856 0.0
C1180 C 0.159 0.31135 0.74684 0.0
C1181 C 0.18959 0.34115 0.68234 0.0
C1182 C 0.17913 0.33084 0.7049 0.0
H1183 H 0.12057 0.29914 0.86515 0.0
H1184 H 0.13828 0.3158 0.83015 0.0
H1185 H 0.15655 0.30591 0.65199 0.0
H1186 H 0.21494 0.34423 0.57449 0.0
H1187 H 0.19888 0.32692 0.61681 0.0
C1188 C 0.70706 0.1463 0.89032 0.0
C1189 C 0.70743 0.13247 0.86808 0.0
C1190 C 0.69759 0.15603 0.86665 0.0
C1191 C 0.67445 0.16325 0.73594 0.0
H1192 H 0.65525 0.18735 0.85109 0.0
C1193 C 0.6265 0.19738 0.67256 0.0
C1194 C 0.6263 0.21119 0.6952 0.0
C1195 C 0.63671 0.18786 0.69202 0.0
C1196 C 0.66064 0.1808 0.81834 0.0
H1197 H 0.6984 0.11805 0.80254 0.0
H1198 H 0.68165 0.13503 0.76172 0.0
H1199 H 0.67256 0.17049 0.88725 0.0
H1200 H 0.63666 0.22589 0.75582 0.0
H1201 H 0.65447 0.20923 0.78984 0.0
H1202 H 0.66233 0.17351 0.66712 0.0
C1203 C 0.68881 0.13838 0.79705 0.0
C1204 C 0.67057 0.17115 0.83899 0.0
C1205 C 0.69836 0.12864 0.8206 0.0
C1206 C 0.63652 0.21531 0.73762 0.0
C1207 C 0.64668 0.20577 0.75731 0.0
C1208 C 0.66446 0.17288 0.71529 0.0
C1209 C 0.68821 0.15213 0.82042 0.0
C1210 C 0.67762 0.1623 0.79803 0.0
C1211 C 0.64686 0.19195 0.73472 0.0
C1212 C 0.65749 0.18177 0.75631 0.0
H1213 H 0.71401 0.14964 0.92648 0.0
H1214 H 0.69759 0.16661 0.88476 0.0
H1215 H 0.67982 0.15669 0.7032 0.0
H1216 H 0.61878 0.19387 0.63979 0.0
H1217 H 0.63651 0.17724 0.67435 0.0
C1218 C 0.79695 0.62579 0.66544 0.0
C1219 C 0.78319 0.62556 0.6886 0.0
C1220 C 0.80684 0.63527 0.68823 0.0
C1221 C 0.8146 0.6567 0.82265 0.0
H1222 H 0.83867 0.67794 0.71409 0.0
C1223 C 0.84708 0.70342 0.90697 0.0
C1224 C 0.861 0.70462 0.88644 0.0
C1225 C 0.83795 0.69372 0.88073 0.0
C1226 C 0.83214 0.67195 0.74496 0.0
H1227 H 0.769 0.6351 0.75369 0.0
H1228 H 0.78625 0.65165 0.79321 0.0
H1229 H 0.82204 0.66087 0.67245 0.0
H1230 H 0.87618 0.69682 0.82122 0.0
H1231 H 0.86018 0.67969 0.77566 0.0
H1232 H 0.82463 0.66771 0.89514 0.0
C1233 C 0.78942 0.64443 0.75782 0.0
C1234 C 0.82263 0.6622 0.72116 0.0
C1235 C 0.77952 0.635 0.73491 0.0
C1236 C 0.86551 0.69612 0.8381 0.0
C1237 C 0.85634 0.68636 0.81184 0.0
C1238 C 0.82411 0.6664 0.84641 0.0
C1239 C 0.80318 0.64464 0.73482 0.0
C1240 C 0.81367 0.65459 0.75979 0.0
C1241 C 0.84251 0.68495 0.83345 0.0
C1242 C 0.83287 0.67425 0.80782 0.0
H1243 H 0.8001 0.61864 0.62971 0.0
H1244 H 0.81741 0.63512 0.67003 0.0
H1245 H 0.80802 0.65079 0.85359 0.0
H1246 H 0.84323 0.7099 0.94374 0.0
H1247 H 0.82727 0.69309 0.89753 0.0
C1248 C 0.28856 0.04875 0.06432 0.0
C1249 C 0.27478 0.05405 0.06459 0.0
C1250 C 0.29093 0.03439 0.05509 0.0
C1251 C 0.27463 0.00038 0.07468 0.0
H1252 H 0.294 0.98767 0.92997 0.0
C1253 C 0.26191 0.94781 0.96832 0.0
C1254 C 0.27274 0.93937 0.94523 0.0
C1255 C 0.26466 0.96146 0.98744 0.0
C1256 C 0.28885 0.99102 0.97128 0.0
H1257 H 0.25271 0.04866 0.05655 0.0
H1258 H 0.25685 0.02359 0.04206 0.0
H1259 H 0.29467 0.01262 0.95789 0.0
H1260 H 0.29491 0.93865 0.92273 0.0
H1261 H 0.29976 0.96275 0.95657 0.0
H1262 H 0.2685 0.979 0.08779 0.0
C1263 C 0.26579 0.03052 0.0484 0.0
C1264 C 0.28923 0.00526 0.98713 0.0
C1265 C 0.26343 0.04483 0.05633 0.0
C1266 C 0.28636 0.94497 0.9403 0.0
C1267 C 0.28914 0.95871 0.95965 0.0
C1268 C 0.27436 0.98619 0.0593 0.0
C1269 C 0.27953 0.0252 0.04757 0.0
C1270 C 0.28166 0.01006 0.03763 0.0
C1271 C 0.27833 0.96699 0.98427 0.0
C1272 C 0.28095 0.98147 0.00604 0.0
H1273 H 0.29747 0.0557 0.07035 0.0
H1274 H 0.30161 0.03044 0.05441 0.0
H1275 H 0.26886 0.00388 0.11423 0.0
H1276 H 0.25127 0.94384 0.97219 0.0
H1277 H 0.25602 0.96771 0.0046 0.0
C1278 C 0.04669 0.26003 0.96795 0.0
C1279 C 0.05459 0.27094 0.94201 0.0
C1280 C 0.03335 0.26265 0.991 0.0
C1281 C 0.00342 0.28658 0.98342 0.0
H1282 H 0.99316 0.26691 0.13115 0.0
C1283 C 0.94699 0.28621 0.08468 0.0
C1284 C 0.94187 0.27237 0.08824 0.0
C1285 C 0.96132 0.28866 0.07513 0.0
C1286 C 0.99594 0.27259 0.09028 0.0
H1287 H 0.05466 0.29307 0.91833 0.0
H1288 H 0.03114 0.29767 0.95901 0.0
H1289 H 0.01748 0.26651 0.09648 0.0
H1290 H 0.94757 0.25031 0.08717 0.0
H1291 H 0.97257 0.2546 0.07204 0.0
H1292 H 0.98168 0.29231 0.97676 0.0
C1293 C 0.03533 0.2871 0.96129 0.0
C1294 C 0.0098 0.2723 0.0702 0.0
C1295 C 0.04875 0.28447 0.93798 0.0
C1296 C 0.95127 0.26107 0.08439 0.0
C1297 C 0.96556 0.26352 0.07614 0.0
C1298 C 0.98952 0.28697 0.00389 0.0
C1299 C 0.02762 0.27624 0.98898 0.0
C1300 C 0.01355 0.27878 0.01526 0.0
C1301 C 0.97067 0.27731 0.07059 0.0
C1302 C 0.98562 0.27951 0.0562 0.0
H1303 H 0.05086 0.24947 0.97123 0.0
H1304 H 0.02751 0.25397 0.01048 0.0
H1305 H 0.00601 0.29166 0.94091 0.0
H1306 H 0.93989 0.29508 0.08723 0.0
H1307 H 0.96507 0.29937 0.07081 0.0
C1308 C 0.70801 0.94899 0.09227 0.0
C1309 C 0.72155 0.94311 0.09204 0.0
C1310 C 0.7062 0.96338 0.08205 0.0
C1311 C 0.7245 -0.00284 0.08772 0.0
H1312 H 0.70162 0.00797 0.94974 0.0
C1313 C 0.73475 0.04804 0.962 0.0
C1314 C 0.72336 0.05635 0.94352 0.0
C1315 C 0.73254 0.03458 0.98456 0.0
C1316 C 0.70781 0.00516 0.9891 0.0
H1317 H 0.7438 0.94758 0.08329 0.0
H1318 H 0.74066 0.97272 0.06667 0.0
H1319 H 0.70111 0.98364 0.98602 0.0
H1320 H 0.70074 0.05701 0.9322 0.0
H1321 H 0.69682 0.03324 0.97222 0.0
H1322 H 0.73146 0.01849 0.09039 0.0
C1323 C 0.73146 0.96623 0.07441 0.0
C1324 C 0.70752 0.99127 0.00982 0.0
C1325 C 0.73326 0.95186 0.08355 0.0
C1326 C 0.7097 0.05077 0.94603 0.0
C1327 C 0.70747 0.03722 0.96898 0.0
C1328 C 0.72472 0.01101 0.06741 0.0
C1329 C 0.71792 0.97208 0.07276 0.0
C1330 C 0.71624 0.98709 0.05795 0.0
C1331 C 0.71887 0.02913 0.98961 0.0
C1332 C 0.71679 0.01503 0.01649 0.0
H1333 H 0.69882 0.94242 0.09846 0.0
H1334 H 0.69567 0.9677 0.08099 0.0
H1335 H 0.73115 0.99419 0.1255 0.0
H1336 H 0.74542 0.052 0.95993 0.0
H1337 H 0.74157 0.02844 0.9984 0.0
C1338 C 0.94177 0.73136 0.02106 0.0
C1339 C 0.93576 0.72268 0.97665 0.0
C1340 C 0.9559 0.72997 0.03627 0.0
C1341 C 0.98725 0.70703 0.01933 0.0
H1342 H 0.0069 0.74243 0.04019 0.0
C1343 C 0.04647 0.71107 0.08212 0.0
C1344 C 0.05404 0.72185 0.0533 0.0
C1345 C 0.03188 0.7102 0.0753 0.0
C1346 C 0.00161 0.73245 0.03404 0.0
H1347 H 0.93956 0.70546 0.91455 0.0
H1348 H 0.96452 0.70336 0.93936 0.0
H1349 H 0.98175 0.74248 0.02401 0.0
H1350 H 0.05248 0.73977 0.99278 0.0
H1351 H 0.02723 0.73806 0.97973 0.0
H1352 H 0.00739 0.6971 0.02673 0.0
C1353 C 0.95824 0.71104 0.96346 0.0
C1354 C 0.98712 0.73245 0.02571 0.0
C1355 C 0.944 0.71229 0.9489 0.0
C1356 C 0.04689 0.73146 0.01626 0.0
C1357 C 0.0324 0.73053 0.00904 0.0
C1358 C 0.00183 0.70703 0.02724 0.0
C1359 C 0.9644 0.72004 0.00659 0.0
C1360 C 0.97976 0.71976 0.01796 0.0
C1361 C 0.02469 0.72005 0.03928 0.0
C1362 C 0.00917 0.71977 0.03395 0.0
H1363 H 0.93556 0.73929 0.04398 0.0
H1364 H 0.96021 0.73682 0.07082 0.0
H1365 H 0.98186 0.69706 0.01413 0.0
H1366 H 0.05177 0.70352 0.11093 0.0
H1367 H 0.02621 0.70206 0.09941 0.0
C1368 C 0.78337 0.44477 0.4178 0.0
C1369 C 0.76986 0.43878 0.41749 0.0
C1370 C 0.78506 0.4592 0.42737 0.0
C1371 C 0.76687 0.49278 0.41576 0.0
H1372 H 0.789 0.50469 0.55433 0.0
C1373 C 0.75763 0.54581 0.52779 0.0
C1374 C 0.76915 0.55355 0.54927 0.0
C1375 C 0.75941 0.5321 0.50726 0.0
C1376 C 0.78301 0.50158 0.51476 0.0
H1377 H 0.74756 0.44307 0.425 0.0
H1378 H 0.75051 0.46831 0.44035 0.0
H1379 H 0.78936 0.48003 0.52283 0.0
H1380 H 0.79156 0.55305 0.56696 0.0
H1381 H 0.79474 0.52898 0.53008 0.0
H1382 H 0.7604 0.51417 0.40756 0.0
C1383 C 0.75976 0.46186 0.43361 0.0
C1384 C 0.78322 0.48749 0.49685 0.0
C1385 C 0.75808 0.44744 0.42521 0.0
C1386 C 0.78249 0.54726 0.55083 0.0
C1387 C 0.7843 0.5335 0.52978 0.0
C1388 C 0.76678 0.50685 0.43315 0.0
C1389 C 0.77325 0.46782 0.4354 0.0
C1390 C 0.77481 0.48294 0.44836 0.0
C1391 C 0.77279 0.52585 0.50714 0.0
C1392 C 0.77447 0.51132 0.48407 0.0
H1393 H 0.79261 0.43826 0.4122 0.0
H1394 H 0.79555 0.46362 0.4286 0.0
H1395 H 0.76045 0.4895 0.37769 0.0
H1396 H 0.7472 0.55035 0.52657 0.0
H1397 H 0.75025 0.52637 0.49172 0.0
C1398 C 0.44258 0.78327 0.55269 0.0
C1399 C 0.43648 0.76985 0.54881 0.0
C1400 C 0.45648 0.78539 0.53421 0.0
C1401 C 0.48433 0.76868 0.44145 0.0
H1402 H 0.50992 0.79097 0.53902 0.0
C1403 C 0.54363 0.76014 0.44658 0.0
C1404 C 0.55226 0.77192 0.4377 0.0
C1405 C 0.52919 0.76179 0.4538 0.0
C1406 C 0.50281 0.78491 0.51092 0.0
H1407 H 0.44015 0.74806 0.52438 0.0
H1408 H 0.46437 0.75164 0.49399 0.0
H1409 H 0.48492 0.7903 0.56497 0.0
H1410 H 0.55274 0.79465 0.42989 0.0
H1411 H 0.52732 0.79754 0.44446 0.0
H1412 H 0.50236 0.76268 0.3896 0.0
C1413 C 0.45839 0.76064 0.50939 0.0
C1414 C 0.48853 0.78454 0.52561 0.0
C1415 C 0.44454 0.75856 0.52735 0.0
C1416 C 0.54625 0.78541 0.43646 0.0
C1417 C 0.53179 0.78708 0.44492 0.0
C1418 C 0.49858 0.76891 0.42735 0.0
C1419 C 0.46448 0.7741 0.51185 0.0
C1420 C 0.47922 0.77608 0.49202 0.0
C1421 C 0.52318 0.77525 0.45327 0.0
C1422 C 0.50796 0.77674 0.46288 0.0
H1423 H 0.43656 0.79216 0.56889 0.0
H1424 H 0.46088 0.79589 0.53645 0.0
H1425 H 0.47736 0.76237 0.41368 0.0
H1426 H 0.54801 0.74963 0.44751 0.0
H1427 H 0.52273 0.75254 0.46078 0.0
C1428 C 0.20661 0.44294 0.56214 0.0
C1429 C 0.22038 0.43774 0.55737 0.0
C1430 C 0.20342 0.4565 0.54146 0.0
C1431 C 0.2173 0.48395 0.43898 0.0
H1432 H 0.19715 0.51036 0.54078 0.0
C1433 C 0.22838 0.54255 0.44368 0.0
C1434 C 0.21709 0.55188 0.43749 0.0
C1435 C 0.22595 0.52819 0.4497 0.0
C1436 C 0.20252 0.503 0.51136 0.0
H1437 H 0.24166 0.44269 0.52911 0.0
H1438 H 0.2362 0.4662 0.49434 0.0
H1439 H 0.19807 0.48547 0.56941 0.0
H1440 H 0.1944 0.5537 0.43292 0.0
H1441 H 0.19011 0.52835 0.44565 0.0
H1442 H 0.22255 0.50161 0.38327 0.0
C1443 C 0.22776 0.4598 0.51245 0.0
C1444 C 0.20305 0.48879 0.52764 0.0
C1445 C 0.23092 0.44636 0.53296 0.0
C1446 C 0.20327 0.54665 0.43737 0.0
C1447 C 0.20081 0.53224 0.44476 0.0
C1448 C 0.21689 0.49811 0.42315 0.0
C1449 C 0.21396 0.46495 0.51558 0.0
C1450 C 0.21095 0.47927 0.49286 0.0
C1451 C 0.21216 0.52294 0.45071 0.0
C1452 C 0.20994 0.50779 0.46038 0.0
H1453 H 0.19828 0.43648 0.58069 0.0
H1454 H 0.1927 0.46025 0.54459 0.0
H1455 H 0.22317 0.47676 0.41053 0.0
H1456 H 0.23913 0.54633 0.44368 0.0
H1457 H 0.23484 0.52118 0.45488 0.0
C1458 C 0.54681 0.2074 0.57166 0.0
C1459 C 0.55261 0.2209 0.5647 0.0
C1460 C 0.53329 0.2045 0.55004 0.0
C1461 C 0.50692 0.21821 0.44214 0.0
H1462 H 0.4795 0.19956 0.5445 0.0
C1463 C 0.44863 0.23042 0.43804 0.0
C1464 C 0.43902 0.21927 0.43498 0.0
C1465 C 0.4629 0.22775 0.4452 0.0
C1466 C 0.48714 0.2045 0.51494 0.0
H1467 H 0.54875 0.24202 0.53141 0.0
H1468 H 0.52523 0.23706 0.49502 0.0
H1469 H 0.5042 0.20026 0.57566 0.0
H1470 H 0.43661 0.1966 0.4369 0.0
H1471 H 0.4618 0.19192 0.45164 0.0
H1472 H 0.48973 0.22323 0.38351 0.0
C1473 C 0.53117 0.2286 0.51562 0.0
C1474 C 0.50124 0.20491 0.53269 0.0
C1475 C 0.54461 0.23149 0.53705 0.0
C1476 C 0.44388 0.20536 0.43892 0.0
C1477 C 0.45821 0.20268 0.44744 0.0
C1478 C 0.49286 0.2179 0.42478 0.0
C1479 C 0.52543 0.21505 0.52107 0.0
C1480 C 0.51114 0.21227 0.49757 0.0
C1481 C 0.46778 0.21389 0.45046 0.0
C1482 C 0.48281 0.21149 0.46212 0.0
H1483 H 0.5528 0.19904 0.59269 0.0
H1484 H 0.5291 0.19396 0.55492 0.0
H1485 H 0.5144 0.22364 0.41342 0.0
H1486 H 0.44513 0.24124 0.43485 0.0
H1487 H 0.4701 0.23656 0.44816 0.0
C1488 C 0.21854 0.14548 0.06489 0.0
C1489 C 0.21817 0.13266 0.03334 0.0
C1490 C 0.2077 0.15519 0.05841 0.0
C1491 C 0.1709 0.15905 0.00741 0.0
H1492 H 0.18123 0.19844 0.99662 0.0
C1493 C 0.13262 0.20327 0.93471 0.0
C1494 C 0.13321 0.21586 0.96811 0.0
C1495 C 0.14242 0.19261 0.94496 0.0
C1496 C 0.17818 0.18749 1.00023 0.0
H1497 H 0.20616 0.11987 0.97068 0.0
H1498 H 0.18724 0.13701 0.95834 0.0
H1499 H 0.19948 0.18077 0.00878 0.0
H1500 H 0.14415 0.22685 0.04033 0.0
H1501 H 0.16137 0.20831 0.05749 0.0
H1502 H 0.14956 0.16589 0.99769 0.0
C1503 C 0.19581 0.13944 0.98889 0.0
C1504 C 0.18862 0.17736 0.00727 0.0
C1505 C 0.20665 0.12965 0.99576 0.0
C1506 C 0.14359 0.21741 0.01293 0.0
C1507 C 0.15342 0.20679 0.0229 0.0
C1508 C 0.16044 0.16921 0.99994 0.0
C1509 C 0.19629 0.15236 0.01984 0.0
C1510 C 0.1851 0.16303 0.01131 0.0
C1511 C 0.15303 0.19437 0.98854 0.0
C1512 C 0.16399 0.18352 0.99662 0.0
H1513 H 0.22718 0.14794 0.0951 0.0
H1514 H 0.20823 0.1649 0.08397 0.0
H1515 H 0.16784 0.14811 0.01108 0.0
H1516 H 0.12485 0.20182 0.89938 0.0
H1517 H 0.14196 0.18319 0.91744 0.0
C1518 C 0.86074 0.20502 0.07877 0.0
C1519 C 0.86753 0.21271 0.03294 0.0
C1520 C 0.85201 0.19374 0.06408 0.0
C1521 C 0.83015 0.18061 0.93988 0.0
H1522 H 0.82794 0.14709 0.03968 0.0
C1523 C 0.79064 0.13609 0.89041 0.0
C1524 C 0.78303 0.13125 0.94092 0.0
C1525 C 0.80234 0.14476 0.89818 0.0
C1526 C 0.82843 0.15641 0.01154 0.0
H1527 H 0.87079 0.2144 0.9359 0.0
H1528 H 0.85567 0.19452 0.91024 0.0
H1529 H 0.84627 0.16448 0.05928 0.0
H1530 H 0.78177 0.13164 0.0391 0.0
H1531 H 0.80221 0.14676 0.05263 0.0
H1532 H 0.81214 0.17269 0.89294 0.0
C1533 C 0.85699 0.19734 0.95748 0.0
C1534 C 0.8389 0.16636 0.02274 0.0
C1535 C 0.86573 0.20863 0.9722 0.0
C1536 C 0.78752 0.13505 0.99934 0.0
C1537 C 0.79924 0.14369 0.00709 0.0
C1538 C 0.81969 0.17065 0.92862 0.0
C1539 C 0.8499 0.18989 1.00324 0.0
C1540 C 0.83971 0.17868 0.98771 0.0
C1541 C 0.8067 0.14872 0.95659 0.0
C1542 C 0.81858 0.15858 0.96502 0.0
H1543 H 0.86209 0.20778 0.12605 0.0
H1544 H 0.84658 0.1883 0.10033 0.0
H1545 H 0.83038 0.19008 0.91263 0.0
H1546 H 0.78758 0.13313 0.84486 0.0
H1547 H 0.80801 0.14835 0.85848 0.0
C1548 C 0.86194 0.79253 0.96965 0.0
C1549 C 0.85741 0.7788 0.95625 0.0
C1550 C 0.85217 0.80336 0.97685 0.0
C1551 C 0.81549 0.80911 0.0185 0.0
H1552 H 0.81981 0.84553 0.94148 0.0
C1553 C 0.7709 0.84925 0.02187 0.0
C1554 C 0.7744 0.86335 0.03285 0.0
C1555 C 0.78135 0.83942 0.0095 0.0
C1556 C 0.81855 0.83547 0.96385 0.0
H1557 H 0.83919 0.76563 0.93984 0.0
H1558 H 0.82215 0.78453 0.95232 0.0
H1559 H 0.83773 0.82742 0.92643 0.0
H1560 H 0.79149 0.87837 0.03827 0.0
H1561 H 0.8099 0.86108 0.01764 0.0
H1562 H 0.7965 0.81707 0.0567 0.0
C1563 C 0.83323 0.78691 0.95736 0.0
C1564 C 0.82878 0.82512 0.95515 0.0
C1565 C 0.84298 0.77613 0.94971 0.0
C1566 C 0.78853 0.86755 0.02959 0.0
C1567 C 0.79904 0.85767 0.01769 0.0
C1568 C 0.80534 0.81945 0.02752 0.0
C1569 C 0.83772 0.8006 0.97142 0.0
C1570 C 0.82724 0.81181 0.98192 0.0
C1571 C 0.79556 0.84345 0.00846 0.0
C1572 C 0.80666 0.83269 0.99976 0.0
H1573 H 0.87302 0.79489 0.97435 0.0
H1574 H 0.85588 0.81382 0.98794 0.0
H1575 H 0.81418 0.79902 0.04061 0.0
H1576 H 0.76004 0.84581 0.02311 0.0
H1577 H 0.77828 0.82862 1.00107 0.0
C1578 C 0.13737 0.78487 0.08389 0.0
C1579 C 0.13171 0.77775 0.03365 0.0
C1580 C 0.14628 0.79636 0.07563 0.0
C1581 C 0.15729 0.82311 0.96433 0.0
H1582 H 0.19158 0.82387 0.05933 0.0
C1583 C 0.20474 0.85838 0.90561 0.0
C1584 C 0.21236 0.86433 0.95379 0.0
C1585 C 0.19386 0.84889 0.91699 0.0
C1586 C 0.18195 0.82395 0.03314 0.0
H1587 H 0.13083 0.77718 0.93542 0.0
H1588 H 0.14643 0.79729 0.92101 0.0
H1589 H 0.17444 0.80527 0.07628 0.0
H1590 H 0.21434 0.86525 0.05172 0.0
H1591 H 0.19513 0.84894 0.07158 0.0
H1592 H 0.16489 0.84174 0.92076 0.0
C1593 C 0.14383 0.79406 0.96675 0.0
C1594 C 0.17214 0.81328 0.04281 0.0
C1595 C 0.13493 0.78254 0.975 0.0
C1596 C 0.2086 0.86092 0.01361 0.0
C1597 C 0.19771 0.85146 0.02498 0.0
C1598 C 0.16709 0.83381 0.95473 0.0
C1599 C 0.1497 0.80099 0.01699 0.0
C1600 C 0.15976 0.81269 0.00824 0.0
C1601 C 0.19036 0.84518 0.97679 0.0
C1602 C 0.17957 0.83428 0.98877 0.0
H1603 H 0.13485 0.78161 0.12966 0.0
H1604 H 0.15048 0.80165 0.1152 0.0
H1605 H 0.14774 0.823 0.93755 0.0
H1606 H 0.20724 0.86097 0.85903 0.0
H1607 H 0.18846 0.84415 0.87887 0.0
C1608 C 0.64629 0.72027 0.44839 0.0
C1609 C 0.63341 0.71972 0.47935 0.0
C1610 C 0.65622 0.70966 0.45601 0.0
C1611 C 0.66024 0.67289 0.50664 0.0
H1612 H 0.69965 0.68315 0.51577 0.0
C1613 C 0.70437 0.6338 0.57081 0.0
C1614 C 0.71672 0.63442 0.53591 0.0
C1615 C 0.69387 0.6439 0.56354 0.0
C1616 C 0.68869 0.68012 0.51272 0.0
H1617 H 0.62083 0.70771 0.54286 0.0
H1618 H 0.63831 0.68918 0.55693 0.0
H1619 H 0.68196 0.70148 0.50559 0.0
H1620 H 0.7275 0.64585 0.46452 0.0
H1621 H 0.70923 0.66358 0.45249 0.0
H1622 H 0.66706 0.65151 0.51449 0.0
C1623 C 0.64062 0.69772 0.52596 0.0
C1624 C 0.67856 0.69061 0.50684 0.0
C1625 C 0.63063 0.70832 0.51804 0.0
C1626 C 0.71824 0.64523 0.49296 0.0
C1627 C 0.70778 0.65537 0.48595 0.0
C1628 C 0.67039 0.6624 0.5129 0.0
C1629 C 0.65353 0.69829 0.49505 0.0
C1630 C 0.66422 0.68711 0.50327 0.0
C1631 C 0.69554 0.65486 0.52149 0.0
C1632 C 0.68472 0.66592 0.51556 0.0
H1633 H 0.6486 0.7288 0.41742 0.0
H1634 H 0.66593 0.71027 0.43057 0.0
H1635 H 0.6493 0.66985 0.50323 0.0
H1636 H 0.70296 0.62572 0.60487 0.0
H1637 H 0.6846 0.64335 0.59196 0.0
C1638 C 0.34343 0.71659 0.57457 0.0
C1639 C 0.35612 0.71565 0.54242 0.0
C1640 C 0.33368 0.70565 0.5723 0.0
C1641 C 0.33003 0.66792 0.53447 0.0
H1642 H 0.29044 0.67731 0.52461 0.0
C1643 C 0.28624 0.62821 0.47178 0.0
C1644 C 0.27354 0.62913 0.50406 0.0
C1645 C 0.29689 0.63808 0.48108 0.0
C1646 C 0.30145 0.67452 0.52815 0.0
H1647 H 0.36855 0.70264 0.48221 0.0
H1648 H 0.35136 0.68359 0.47719 0.0
H1649 H 0.30782 0.69606 0.52966 0.0
H1650 H 0.2624 0.64064 0.57407 0.0
H1651 H 0.28094 0.65798 0.58968 0.0
H1652 H 0.32356 0.64633 0.53155 0.0
C1653 C 0.34907 0.69265 0.5052 0.0
C1654 C 0.31141 0.68526 0.53106 0.0
C1655 C 0.35888 0.70357 0.50784 0.0
C1656 C 0.27193 0.63982 0.54753 0.0
C1657 C 0.28255 0.64973 0.55658 0.0
C1658 C 0.32004 0.65716 0.53114 0.0
C1659 C 0.33635 0.69358 0.53743 0.0
C1660 C 0.32582 0.68209 0.53432 0.0
C1661 C 0.29501 0.6491 0.52263 0.0
C1662 C 0.30566 0.66038 0.52803 0.0
H1663 H 0.34115 0.72568 0.60247 0.0
H1664 H 0.32411 0.70659 0.59858 0.0
H1665 H 0.34103 0.66512 0.53782 0.0
H1666 H 0.28775 0.62019 0.43751 0.0
H1667 H 0.30635 0.63743 0.45393 0.0
C1668 C 0.36344 0.28632 0.52346 0.0
C1669 C 0.36658 0.28197 0.46412 0.0
C1670 C 0.35463 0.29783 0.53342 0.0
C1671 C 0.32601 0.31676 0.4593 0.0
H1672 H 0.33164 0.3443 0.58673 0.0
C1673 C 0.28749 0.36233 0.49275 0.0
C1674 C 0.28335 0.3652 0.55263 0.0
C1675 C 0.29883 0.35348 0.48112 0.0
C1676 C 0.3299 0.33662 0.55125 0.0
H1677 H 0.36372 0.28678 0.36877 0.0
H1678 H 0.34831 0.30683 0.38618 0.0
H1679 H 0.34964 0.32649 0.56781 0.0
H1680 H 0.28826 0.36145 0.64735 0.0
H1681 H 0.30783 0.34562 0.62696 0.0
H1682 H 0.30619 0.32658 0.44343 0.0
C1683 C 0.35243 0.30118 0.42494 0.0
C1684 C 0.3402 0.32646 0.5404 0.0
C1685 C 0.36122 0.2897 0.415 0.0
C1686 C 0.29104 0.35928 0.60069 0.0
C1687 C 0.30238 0.35036 0.58902 0.0
C1688 C 0.31573 0.32686 0.47023 0.0
C1689 C 0.34882 0.30519 0.48421 0.0
C1690 C 0.33832 0.31641 0.49442 0.0
C1691 C 0.30626 0.34721 0.52908 0.0
C1692 C 0.31752 0.33687 0.51643 0.0
H1693 H 0.36734 0.2805 0.56217 0.0
H1694 H 0.35192 0.3006 0.57959 0.0
H1695 H 0.32414 0.30898 0.42436 0.0
H1696 H 0.28172 0.36662 0.45467 0.0
H1697 H 0.3017 0.35141 0.43444 0.0
C1698 C 0.70848 0.35901 0.51197 0.0
C1699 C 0.71428 0.36065 0.45371 0.0
C1700 C 0.69732 0.34971 0.52162 0.0
C1701 C 0.68291 0.3173 0.463 0.0
H1702 H 0.64879 0.32717 0.54902 0.0
C1703 C 0.63762 0.2778 0.4856 0.0
C1704 C 0.63029 0.27748 0.5407 0.0
C1705 C 0.64709 0.28864 0.47337 0.0
C1706 C 0.65833 0.32419 0.52563 0.0
H1707 H 0.7123 0.35436 0.35936 0.0
H1708 H 0.69321 0.33779 0.3769 0.0
H1709 H 0.66685 0.34504 0.53202 0.0
H1710 H 0.62696 0.28812 0.62623 0.0
H1711 H 0.6439 0.30682 0.60614 0.0
H1712 H 0.67484 0.29641 0.45832 0.0
C1713 C 0.69739 0.34366 0.41496 0.0
C1714 C 0.66861 0.33444 0.51573 0.0
C1715 C 0.70839 0.35307 0.40512 0.0
C1716 C 0.63245 0.28824 0.58321 0.0
C1717 C 0.64209 0.29897 0.57146 0.0
C1718 C 0.67277 0.30701 0.47368 0.0
C1719 C 0.69189 0.34178 0.47335 0.0
C1720 C 0.68094 0.33107 0.48409 0.0
C1721 C 0.6496 0.29926 0.51652 0.0
C1722 C 0.66031 0.31032 0.5049 0.0
H1723 H 0.71283 0.36458 0.55048 0.0
H1724 H 0.69327 0.34835 0.56715 0.0
H1725 H 0.69244 0.31442 0.43923 0.0
H1726 H 0.63597 0.26969 0.45183 0.0
H1727 H 0.65242 0.28869 0.43001 0.0
loop_
_geom_bond_atom_site_label_1
_geom_bond_atom_site_label_2
_geom_bond_distance
_geom_bond_site_symmetry_2
_ccdc_geom_bond_type
Co0 N4 2.148 1_554 S
Co0 N10 2.128 . S
Co0 N20 2.194 . S
Co0 O25 2.351 . S
Co0 O26 2.155 . S
Co0 O27 2.096 . S
C1 N4 1.301 . S
C1 N5 1.328 . S
C1 H6 0.930 . S
C2 C3 1.333 . S
C2 N4 1.317 . S
C2 H7 0.929 1_556 S
C3 C2 1.333 . S
C3 N5 1.350 . S
C3 H29 0.931 . S
N4 Co0 2.148 1_556 S
N4 C1 1.301 . S
N4 C2 1.317 . S
N5 C1 1.328 . S
N5 C3 1.350 . S
H6 C1 0.930 . S
H7 C2 0.929 1_554 S
C8 O9 1.224 . S
C8 O27 1.247 . S
O9 C8 1.224 . S
N10 Co0 2.128 . S
N10 C11 1.355 . S
N10 C13 1.311 . S
C11 N10 1.355 . S
C11 C12 1.363 . S
C11 H23 0.929 . S
C12 C11 1.363 . S
C12 N14 1.375 . S
C12 H30 0.931 . S
C13 N10 1.311 . S
C13 N14 1.347 . S
C13 H24 0.929 . S
N14 C12 1.375 . S
N14 C13 1.347 . S
C15 C18 1.365 . S
C15 N20 1.328 . S
C15 H21 0.929 . S
C16 C17 1.362 . S
C16 C19 1.378 . S
C16 H31 0.929 . S
C17 C16 1.362 . S
C17 C18 1.366 . S
C18 C15 1.365 . S
C18 C17 1.366 . S
C18 H32 0.930 . S
C19 C16 1.378 . S
C19 N20 1.315 . S
C19 H22 0.930 . S
N20 Co0 2.194 . S
N20 C15 1.328 . S
N20 C19 1.315 . S
H21 C15 0.929 . S
H22 C19 0.930 . S
H23 C11 0.929 . S
H24 C13 0.929 . S
O25 Co0 2.351 . S
O25 C28 1.244 . S
O26 Co0 2.155 . S
O26 C28 1.240 . S
O27 Co0 2.096 . S
O27 C8 1.247 . S
C28 O25 1.244 . S
C28 O26 1.240 . S
H29 C3 0.931 . S
H30 C12 0.931 . S
H31 C16 0.929 . S
H32 C18 0.930 . S
Co33 N37 2.148 1_554 S
Co33 N43 2.128 . S
Co33 N53 2.194 . S
Co33 O58 2.351 . S
Co33 O59 2.155 . S
Co33 O60 2.096 . S
C34 N37 1.301 . S
C34 N38 1.328 . S
C34 H39 0.930 . S
C35 C36 1.333 . S
C35 N37 1.317 . S
C35 H40 0.929 1_556 S
C36 C35 1.333 . S
C36 N38 1.350 . S
C36 H62 0.931 . S
N37 Co33 2.148 1_556 S
N37 C34 1.301 . S
N37 C35 1.317 . S
N38 C34 1.328 . S
N38 C36 1.350 . S
H39 C34 0.930 . S
H40 C35 0.929 1_554 S
C41 O42 1.224 . S
C41 O60 1.247 . S
O42 C41 1.224 . S
N43 Co33 2.128 . S
N43 C44 1.355 . S
N43 C46 1.311 . S
C44 N43 1.355 . S
C44 C45 1.363 . S
C44 H56 0.929 . S
C45 C44 1.363 . S
C45 N47 1.375 . S
C45 H63 0.931 . S
C46 N43 1.311 . S
C46 N47 1.347 . S
C46 H57 0.929 . S
N47 C45 1.375 . S
N47 C46 1.347 . S
C48 C51 1.365 . S
C48 N53 1.328 . S
C48 H54 0.929 . S
C49 C50 1.362 . S
C49 C52 1.378 . S
C49 H64 0.929 . S
C50 C49 1.362 . S
C50 C51 1.366 . S
C51 C48 1.365 . S
C51 C50 1.366 . S
C51 H65 0.930 . S
C52 C49 1.378 . S
C52 N53 1.315 . S
C52 H55 0.930 . S
N53 Co33 2.194 . S
N53 C48 1.328 . S
N53 C52 1.315 . S
H54 C48 0.929 . S
H55 C52 0.930 . S
H56 C44 0.929 . S
H57 C46 0.929 . S
O58 Co33 2.351 . S
O58 C61 1.244 . S
O59 Co33 2.155 . S
O59 C61 1.240 . S
O60 Co33 2.096 . S
O60 C41 1.247 . S
C61 O58 1.244 . S
C61 O59 1.240 . S
H62 C36 0.931 . S
H63 C45 0.931 . S
H64 C49 0.929 . S
H65 C51 0.930 . S
Co66 N70 2.148 1_554 S
Co66 N76 2.128 . S
Co66 N86 2.194 . S
Co66 O91 2.351 . S
Co66 O92 2.155 . S
Co66 O93 2.096 . S
C67 N70 1.301 . S
C67 N71 1.328 . S
C67 H72 0.930 . S
C68 C69 1.333 . S
C68 N70 1.317 . S
C68 H73 0.929 1_556 S
C69 C68 1.333 . S
C69 N71 1.350 . S
C69 H95 0.931 . S
N70 Co66 2.148 1_556 S
N70 C67 1.301 . S
N70 C68 1.317 . S
N71 C67 1.328 . S
N71 C69 1.350 . S
H72 C67 0.930 . S
H73 C68 0.929 1_554 S
C74 O75 1.224 . S
C74 O93 1.247 . S
O75 C74 1.224 . S
N76 Co66 2.128 . S
N76 C77 1.355 . S
N76 C79 1.311 . S
C77 N76 1.355 . S
C77 C78 1.363 . S
C77 H89 0.929 . S
C78 C77 1.363 . S
C78 N80 1.375 . S
C78 H96 0.931 . S
C79 N76 1.311 . S
C79 N80 1.347 . S
C79 H90 0.929 . S
N80 C78 1.375 . S
N80 C79 1.347 . S
C81 C84 1.365 . S
C81 N86 1.328 . S
C81 H87 0.929 . S
C82 C83 1.362 . S
C82 C85 1.378 . S
C82 H97 0.929 . S
C83 C82 1.362 . S
C83 C84 1.366 . S
C84 C81 1.365 . S
C84 C83 1.366 . S
C84 H98 0.930 . S
C85 C82 1.378 . S
C85 N86 1.315 . S
C85 H88 0.930 . S
N86 Co66 2.194 . S
N86 C81 1.328 . S
N86 C85 1.315 . S
H87 C81 0.929 . S
H88 C85 0.930 . S
H89 C77 0.929 . S
H90 C79 0.929 . S
O91 Co66 2.351 . S
O91 C94 1.244 . S
O92 Co66 2.155 . S
O92 C94 1.240 . S
O93 Co66 2.096 . S
O93 C74 1.247 . S
C94 O91 1.244 . S
C94 O92 1.240 . S
H95 C69 0.931 . S
H96 C78 0.931 . S
H97 C82 0.929 . S
H98 C84 0.930 . S
Co99 N103 2.148 1_554 S
Co99 N109 2.128 . S
Co99 N119 2.194 . S
Co99 O124 2.351 . S
Co99 O125 2.155 . S
Co99 O126 2.096 . S
C100 N103 1.301 . S
C100 N104 1.328 . S
C100 H105 0.930 . S
C101 C102 1.333 . S
C101 N103 1.317 . S
C101 H106 0.929 1_556 S
C102 C101 1.333 . S
C102 N104 1.350 . S
C102 H128 0.931 . S
N103 Co99 2.148 1_556 S
N103 C100 1.301 . S
N103 C101 1.317 . S
N104 C100 1.328 . S
N104 C102 1.350 . S
H105 C100 0.930 . S
H106 C101 0.929 1_554 S
C107 O108 1.224 . S
C107 O126 1.247 . S
O108 C107 1.224 . S
N109 Co99 2.128 . S
N109 C110 1.355 . S
N109 C112 1.311 . S
C110 N109 1.355 . S
C110 C111 1.363 . S
C110 H122 0.929 . S
C111 C110 1.363 . S
C111 N113 1.375 . S
C111 H129 0.931 . S
C112 N109 1.311 . S
C112 N113 1.347 . S
C112 H123 0.929 . S
N113 C111 1.375 . S
N113 C112 1.347 . S
C114 C117 1.365 . S
C114 N119 1.328 . S
C114 H120 0.929 . S
C115 C116 1.362 . S
C115 C118 1.378 . S
C115 H130 0.929 . S
C116 C115 1.362 . S
C116 C117 1.366 . S
C117 C114 1.365 . S
C117 C116 1.366 . S
C117 H131 0.930 . S
C118 C115 1.378 . S
C118 N119 1.315 . S
C118 H121 0.930 . S
N119 Co99 2.194 . S
N119 C114 1.328 . S
N119 C118 1.315 . S
H120 C114 0.929 . S
H121 C118 0.930 . S
H122 C110 0.929 . S
H123 C112 0.929 . S
O124 Co99 2.351 . S
O124 C127 1.244 . S
O125 Co99 2.155 . S
O125 C127 1.240 . S
O126 Co99 2.096 . S
O126 C107 1.247 . S
C127 O124 1.244 . S
C127 O125 1.240 . S
H128 C102 0.931 . S
H129 C111 0.931 . S
H130 C115 0.929 . S
H131 C117 0.930 . S
Co132 N136 2.148 1_556 S
Co132 N142 2.128 . S
Co132 N152 2.194 . S
Co132 O157 2.351 . S
Co132 O158 2.155 . S
Co132 O159 2.096 . S
C133 N136 1.301 . S
C133 N137 1.328 . S
C133 H138 0.930 . S
C134 C135 1.333 . S
C134 N136 1.317 . S
C134 H139 0.929 1_554 S
C135 C134 1.333 . S
C135 N137 1.350 . S
C135 H161 0.931 . S
N136 Co132 2.148 1_554 S
N136 C133 1.301 . S
N136 C134 1.317 . S
N137 C133 1.328 . S
N137 C135 1.350 . S
H138 C133 0.930 . S
H139 C134 0.929 1_556 S
C140 O141 1.224 . S
C140 O159 1.247 . S
O141 C140 1.224 . S
N142 Co132 2.128 . S
N142 C143 1.355 . S
N142 C145 1.311 . S
C143 N142 1.355 . S
C143 C144 1.363 . S
C143 H155 0.929 . S
C144 C143 1.363 . S
C144 N146 1.375 . S
C144 H162 0.931 . S
C145 N142 1.311 . S
C145 N146 1.347 . S
C145 H156 0.929 . S
N146 C144 1.375 . S
N146 C145 1.347 . S
C147 C150 1.365 . S
C147 N152 1.328 . S
C147 H153 0.929 . S
C148 C149 1.362 . S
C148 C151 1.378 . S
C148 H163 0.929 . S
C149 C148 1.362 . S
C149 C150 1.366 . S
C150 C147 1.365 . S
C150 C149 1.366 . S
C150 H164 0.930 . S
C151 C148 1.378 . S
C151 N152 1.315 . S
C151 H154 0.930 . S
N152 Co132 2.194 . S
N152 C147 1.328 . S
N152 C151 1.315 . S
H153 C147 0.929 . S
H154 C151 0.930 . S
H155 C143 0.929 . S
H156 C145 0.929 . S
O157 Co132 2.351 . S
O157 C160 1.244 . S
O158 Co132 2.155 . S
O158 C160 1.240 . S
O159 Co132 2.096 . S
O159 C140 1.247 . S
C160 O157 1.244 . S
C160 O158 1.240 . S
H161 C135 0.931 . S
H162 C144 0.931 . S
H163 C148 0.929 . S
H164 C150 0.930 . S
Co165 N169 2.148 1_556 S
Co165 N175 2.128 . S
Co165 N185 2.194 . S
Co165 O190 2.351 . S
Co165 O191 2.155 . S
Co165 O192 2.096 . S
C166 N169 1.301 . S
C166 N170 1.328 . S
C166 H171 0.930 . S
C167 C168 1.333 . S
C167 N169 1.317 . S
C167 H172 0.929 1_554 S
C168 C167 1.333 . S
C168 N170 1.350 . S
C168 H194 0.931 . S
N169 Co165 2.148 1_554 S
N169 C166 1.301 . S
N169 C167 1.317 . S
N170 C166 1.328 . S
N170 C168 1.350 . S
H171 C166 0.930 . S
H172 C167 0.929 1_556 S
C173 O174 1.224 . S
C173 O192 1.247 . S
O174 C173 1.224 . S
N175 Co165 2.128 . S
N175 C176 1.355 . S
N175 C178 1.311 . S
C176 N175 1.355 . S
C176 C177 1.363 . S
C176 H188 0.929 . S
C177 C176 1.363 . S
C177 N179 1.375 . S
C177 H195 0.931 . S
C178 N175 1.311 . S
C178 N179 1.347 . S
C178 H189 0.929 . S
N179 C177 1.375 . S
N179 C178 1.347 . S
C180 C183 1.365 . S
C180 N185 1.328 . S
C180 H186 0.929 . S
C181 C182 1.362 . S
C181 C184 1.378 . S
C181 H196 0.929 . S
C182 C181 1.362 . S
C182 C183 1.366 . S
C183 C180 1.365 . S
C183 C182 1.366 . S
C183 H197 0.930 . S
C184 C181 1.378 . S
C184 N185 1.315 . S
C184 H187 0.930 . S
N185 Co165 2.194 . S
N185 C180 1.328 . S
N185 C184 1.315 . S
H186 C180 0.929 . S
H187 C184 0.930 . S
H188 C176 0.929 . S
H189 C178 0.929 . S
O190 Co165 2.351 . S
O190 C193 1.244 . S
O191 Co165 2.155 . S
O191 C193 1.240 . S
O192 Co165 2.096 . S
O192 C173 1.247 . S
C193 O190 1.244 . S
C193 O191 1.240 . S
H194 C168 0.931 . S
H195 C177 0.931 . S
H196 C181 0.929 . S
H197 C183 0.930 . S
Co198 N202 2.148 1_556 S
Co198 N208 2.128 . S
Co198 N218 2.194 . S
Co198 O223 2.351 . S
Co198 O224 2.155 . S
Co198 O225 2.096 . S
C199 N202 1.301 . S
C199 N203 1.328 . S
C199 H204 0.930 . S
C200 C201 1.333 . S
C200 N202 1.317 . S
C200 H205 0.929 1_554 S
C201 C200 1.333 . S
C201 N203 1.350 . S
C201 H227 0.931 . S
N202 Co198 2.148 1_554 S
N202 C199 1.301 . S
N202 C200 1.317 . S
N203 C199 1.328 . S
N203 C201 1.350 . S
H204 C199 0.930 . S
H205 C200 0.929 1_556 S
C206 O207 1.224 . S
C206 O225 1.247 . S
O207 C206 1.224 . S
N208 Co198 2.128 . S
N208 C209 1.355 . S
N208 C211 1.311 . S
C209 N208 1.355 . S
C209 C210 1.363 . S
C209 H221 0.929 . S
C210 C209 1.363 . S
C210 N212 1.375 . S
C210 H228 0.931 . S
C211 N208 1.311 . S
C211 N212 1.347 . S
C211 H222 0.929 . S
N212 C210 1.375 . S
N212 C211 1.347 . S
C213 C216 1.365 . S
C213 N218 1.328 . S
C213 H219 0.929 . S
C214 C215 1.362 . S
C214 C217 1.378 . S
C214 H229 0.929 . S
C215 C214 1.362 . S
C215 C216 1.366 . S
C216 C213 1.365 . S
C216 C215 1.366 . S
C216 H230 0.930 . S
C217 C214 1.378 . S
C217 N218 1.315 . S
C217 H220 0.930 . S
N218 Co198 2.194 . S
N218 C213 1.328 . S
N218 C217 1.315 . S
H219 C213 0.929 . S
H220 C217 0.930 . S
H221 C209 0.929 . S
H222 C211 0.929 . S
O223 Co198 2.351 . S
O223 C226 1.244 . S
O224 Co198 2.155 . S
O224 C226 1.240 . S
O225 Co198 2.096 . S
O225 C206 1.247 . S
C226 O223 1.244 . S
C226 O224 1.240 . S
H227 C201 0.931 . S
H228 C210 0.931 . S
H229 C214 0.929 . S
H230 C216 0.930 . S
Co231 N235 2.148 1_556 S
Co231 N241 2.128 . S
Co231 N251 2.194 . S
Co231 O256 2.351 . S
Co231 O257 2.155 . S
Co231 O258 2.096 . S
C232 N235 1.301 . S
C232 N236 1.328 . S
C232 H237 0.930 . S
C233 C234 1.333 . S
C233 N235 1.317 . S
C233 H238 0.929 1_554 S
C234 C233 1.333 . S
C234 N236 1.350 . S
C234 H260 0.931 . S
N235 Co231 2.148 1_554 S
N235 C232 1.301 . S
N235 C233 1.317 . S
N236 C232 1.328 . S
N236 C234 1.350 . S
H237 C232 0.930 . S
H238 C233 0.929 1_556 S
C239 O240 1.224 . S
C239 O258 1.247 . S
O240 C239 1.224 . S
N241 Co231 2.128 . S
N241 C242 1.355 . S
N241 C244 1.311 . S
C242 N241 1.355 . S
C242 C243 1.363 . S
C242 H254 0.929 . S
C243 C242 1.363 . S
C243 N245 1.375 . S
C243 H261 0.931 . S
C244 N241 1.311 . S
C244 N245 1.347 . S
C244 H255 0.929 . S
N245 C243 1.375 . S
N245 C244 1.347 . S
C246 C249 1.365 . S
C246 N251 1.328 . S
C246 H252 0.929 . S
C247 C248 1.362 . S
C247 C250 1.378 . S
C247 H262 0.929 . S
C248 C247 1.362 . S
C248 C249 1.366 . S
C249 C246 1.365 . S
C249 C248 1.366 . S
C249 H263 0.930 . S
C250 C247 1.378 . S
C250 N251 1.315 . S
C250 H253 0.930 . S
N251 Co231 2.194 . S
N251 C246 1.328 . S
N251 C250 1.315 . S
H252 C246 0.929 . S
H253 C250 0.930 . S
H254 C242 0.929 . S
H255 C244 0.929 . S
O256 Co231 2.351 . S
O256 C259 1.244 . S
O257 Co231 2.155 . S
O257 C259 1.240 . S
O258 Co231 2.096 . S
O258 C239 1.247 . S
C259 O256 1.244 . S
C259 O257 1.240 . S
H260 C234 0.931 . S
H261 C243 0.931 . S
H262 C247 0.929 . S
H263 C249 0.930 . S
Co264 N268 2.148 . S
Co264 N274 2.128 . S
Co264 N284 2.194 . S
Co264 O289 2.351 . S
Co264 O290 2.155 . S
Co264 O291 2.096 . S
C265 N268 1.301 . S
C265 N269 1.328 . S
C265 H270 0.930 . S
C266 C267 1.333 . S
C266 N268 1.317 . S
C266 H271 0.930 . S
C267 C266 1.333 . S
C267 N269 1.350 . S
C267 H293 0.931 . S
N268 Co264 2.148 . S
N268 C265 1.301 . S
N268 C266 1.317 . S
N269 C265 1.328 . S
N269 C267 1.350 . S
H270 C265 0.930 . S
H271 C266 0.930 . S
C272 O273 1.224 . S
C272 O291 1.247 . S
O273 C272 1.224 . S
N274 Co264 2.128 . S
N274 C275 1.355 . S
N274 C277 1.311 . S
C275 N274 1.355 . S
C275 C276 1.363 . S
C275 H287 0.929 . S
C276 C275 1.363 . S
C276 N278 1.375 . S
C276 H294 0.931 . S
C277 N274 1.311 . S
C277 N278 1.347 . S
C277 H288 0.929 . S
N278 C276 1.375 . S
N278 C277 1.347 . S
C279 C282 1.365 . S
C279 N284 1.328 . S
C279 H285 0.929 . S
C280 C281 1.362 . S
C280 C283 1.378 . S
C280 H295 0.929 . S
C281 C280 1.362 . S
C281 C282 1.366 . S
C282 C279 1.365 . S
C282 C281 1.366 . S
C282 H296 0.930 . S
C283 C280 1.378 . S
C283 N284 1.315 . S
C283 H286 0.930 . S
N284 Co264 2.194 . S
N284 C279 1.328 . S
N284 C283 1.315 . S
H285 C279 0.929 . S
H286 C283 0.930 . S
H287 C275 0.929 . S
H288 C277 0.929 . S
O289 Co264 2.351 . S
O289 C292 1.244 . S
O290 Co264 2.155 . S
O290 C292 1.240 . S
O291 Co264 2.096 . S
O291 C272 1.247 . S
C292 O289 1.244 . S
C292 O290 1.240 . S
H293 C267 0.931 . S
H294 C276 0.931 . S
H295 C280 0.929 . S
H296 C282 0.930 . S
Co297 N301 2.148 . S
Co297 N307 2.128 . S
Co297 N317 2.194 . S
Co297 O322 2.351 . S
Co297 O323 2.155 . S
Co297 O324 2.096 . S
C298 N301 1.301 . S
C298 N302 1.328 . S
C298 H303 0.930 . S
C299 C300 1.333 . S
C299 N301 1.317 . S
C299 H304 0.930 . S
C300 C299 1.333 . S
C300 N302 1.350 . S
C300 H326 0.931 . S
N301 Co297 2.148 . S
N301 C298 1.301 . S
N301 C299 1.317 . S
N302 C298 1.328 . S
N302 C300 1.350 . S
H303 C298 0.930 . S
H304 C299 0.930 . S
C305 O306 1.224 . S
C305 O324 1.247 . S
O306 C305 1.224 . S
N307 Co297 2.128 . S
N307 C308 1.355 . S
N307 C310 1.311 . S
C308 N307 1.355 . S
C308 C309 1.363 . S
C308 H320 0.929 . S
C309 C308 1.363 . S
C309 N311 1.375 . S
C309 H327 0.931 . S
C310 N307 1.311 . S
C310 N311 1.347 . S
C310 H321 0.929 . S
N311 C309 1.375 . S
N311 C310 1.347 . S
C312 C315 1.365 . S
C312 N317 1.328 . S
C312 H318 0.929 . S
C313 C314 1.362 . S
C313 C316 1.378 . S
C313 H328 0.929 . S
C314 C313 1.362 . S
C314 C315 1.366 . S
C315 C312 1.365 . S
C315 C314 1.366 . S
C315 H329 0.930 . S
C316 C313 1.378 . S
C316 N317 1.315 . S
C316 H319 0.930 . S
N317 Co297 2.194 . S
N317 C312 1.328 . S
N317 C316 1.315 . S
H318 C312 0.929 . S
H319 C316 0.930 . S
H320 C308 0.929 . S
H321 C310 0.929 . S
O322 Co297 2.351 . S
O322 C325 1.244 . S
O323 Co297 2.155 . S
O323 C325 1.240 . S
O324 Co297 2.096 . S
O324 C305 1.247 . S
C325 O322 1.244 . S
C325 O323 1.240 . S
H326 C300 0.931 . S
H327 C309 0.931 . S
H328 C313 0.929 . S
H329 C315 0.930 . S
Co330 N334 2.148 . S
Co330 N340 2.128 . S
Co330 N350 2.194 . S
Co330 O355 2.351 . S
Co330 O356 2.155 . S
Co330 O357 2.096 . S
C331 N334 1.301 . S
C331 N335 1.328 . S
C331 H336 0.930 . S
C332 C333 1.333 . S
C332 N334 1.317 . S
C332 H337 0.930 . S
C333 C332 1.333 . S
C333 N335 1.350 . S
C333 H359 0.931 . S
N334 Co330 2.148 . S
N334 C331 1.301 . S
N334 C332 1.317 . S
N335 C331 1.328 . S
N335 C333 1.350 . S
H336 C331 0.930 . S
H337 C332 0.930 . S
C338 O339 1.224 . S
C338 O357 1.247 . S
O339 C338 1.224 . S
N340 Co330 2.128 . S
N340 C341 1.355 . S
N340 C343 1.311 . S
C341 N340 1.355 . S
C341 C342 1.363 . S
C341 H353 0.929 . S
C342 C341 1.363 . S
C342 N344 1.375 . S
C342 H360 0.931 . S
C343 N340 1.311 . S
C343 N344 1.347 . S
C343 H354 0.929 . S
N344 C342 1.375 . S
N344 C343 1.347 . S
C345 C348 1.365 . S
C345 N350 1.328 . S
C345 H351 0.929 . S
C346 C347 1.362 . S
C346 C349 1.378 . S
C346 H361 0.929 . S
C347 C346 1.362 . S
C347 C348 1.366 . S
C348 C345 1.365 . S
C348 C347 1.366 . S
C348 H362 0.930 . S
C349 C346 1.378 . S
C349 N350 1.315 . S
C349 H352 0.930 . S
N350 Co330 2.194 . S
N350 C345 1.328 . S
N350 C349 1.315 . S
H351 C345 0.929 . S
H352 C349 0.930 . S
H353 C341 0.929 . S
H354 C343 0.929 . S
O355 Co330 2.351 . S
O355 C358 1.244 . S
O356 Co330 2.155 . S
O356 C358 1.240 . S
O357 Co330 2.096 . S
O357 C338 1.247 . S
C358 O355 1.244 . S
C358 O356 1.240 . S
H359 C333 0.931 . S
H360 C342 0.931 . S
H361 C346 0.929 . S
H362 C348 0.930 . S
Co363 N367 2.148 . S
Co363 N373 2.128 . S
Co363 N383 2.194 . S
Co363 O388 2.351 . S
Co363 O389 2.155 . S
Co363 O390 2.096 . S
C364 N367 1.301 . S
C364 N368 1.328 . S
C364 H369 0.930 . S
C365 C366 1.333 . S
C365 N367 1.317 . S
C365 H370 0.930 . S
C366 C365 1.333 . S
C366 N368 1.350 . S
C366 H392 0.931 . S
N367 Co363 2.148 . S
N367 C364 1.301 . S
N367 C365 1.317 . S
N368 C364 1.328 . S
N368 C366 1.350 . S
H369 C364 0.930 . S
H370 C365 0.930 . S
C371 O372 1.224 . S
C371 O390 1.247 . S
O372 C371 1.224 . S
N373 Co363 2.128 . S
N373 C374 1.355 . S
N373 C376 1.311 . S
C374 N373 1.355 . S
C374 C375 1.363 . S
C374 H386 0.929 . S
C375 C374 1.363 . S
C375 N377 1.375 . S
C375 H393 0.931 . S
C376 N373 1.311 . S
C376 N377 1.347 . S
C376 H387 0.929 . S
N377 C375 1.375 . S
N377 C376 1.347 . S
C378 C381 1.365 . S
C378 N383 1.328 . S
C378 H384 0.929 . S
C379 C380 1.362 . S
C379 C382 1.378 . S
C379 H394 0.929 . S
C380 C379 1.362 . S
C380 C381 1.366 . S
C381 C378 1.365 . S
C381 C380 1.366 . S
C381 H395 0.930 . S
C382 C379 1.378 . S
C382 N383 1.315 . S
C382 H385 0.930 . S
N383 Co363 2.194 . S
N383 C378 1.328 . S
N383 C382 1.315 . S
H384 C378 0.929 . S
H385 C382 0.930 . S
H386 C374 0.929 . S
H387 C376 0.929 . S
O388 Co363 2.351 . S
O388 C391 1.244 . S
O389 Co363 2.155 . S
O389 C391 1.240 . S
O390 Co363 2.096 . S
O390 C371 1.247 . S
C391 O388 1.244 . S
C391 O389 1.240 . S
H392 C366 0.931 . S
H393 C375 0.931 . S
H394 C379 0.929 . S
H395 C381 0.930 . S
Co396 N400 2.148 . S
Co396 N406 2.128 . S
Co396 N416 2.194 . S
Co396 O421 2.351 . S
Co396 O422 2.155 . S
Co396 O423 2.096 . S
C397 N400 1.301 . S
C397 N401 1.328 . S
C397 H402 0.930 . S
C398 C399 1.333 . S
C398 N400 1.317 . S
C398 H403 0.930 . S
C399 C398 1.333 . S
C399 N401 1.350 . S
C399 H425 0.931 . S
N400 Co396 2.148 . S
N400 C397 1.301 . S
N400 C398 1.317 . S
N401 C397 1.328 . S
N401 C399 1.350 . S
H402 C397 0.930 . S
H403 C398 0.930 . S
C404 O405 1.224 . S
C404 O423 1.247 . S
O405 C404 1.224 . S
N406 Co396 2.128 . S
N406 C407 1.355 . S
N406 C409 1.311 . S
C407 N406 1.355 . S
C407 C408 1.363 . S
C407 H419 0.929 . S
C408 C407 1.363 . S
C408 N410 1.375 . S
C408 H426 0.931 . S
C409 N406 1.311 . S
C409 N410 1.347 . S
C409 H420 0.929 . S
N410 C408 1.375 . S
N410 C409 1.347 . S
C411 C414 1.365 . S
C411 N416 1.328 . S
C411 H417 0.929 . S
C412 C413 1.362 . S
C412 C415 1.378 . S
C412 H427 0.929 . S
C413 C412 1.362 . S
C413 C414 1.366 . S
C414 C411 1.365 . S
C414 C413 1.366 . S
C414 H428 0.930 . S
C415 C412 1.378 . S
C415 N416 1.315 . S
C415 H418 0.930 . S
N416 Co396 2.194 . S
N416 C411 1.328 . S
N416 C415 1.315 . S
H417 C411 0.929 . S
H418 C415 0.930 . S
H419 C407 0.929 . S
H420 C409 0.929 . S
O421 Co396 2.351 . S
O421 C424 1.244 . S
O422 Co396 2.155 . S
O422 C424 1.240 . S
O423 Co396 2.096 . S
O423 C404 1.247 . S
C424 O421 1.244 . S
C424 O422 1.240 . S
H425 C399 0.931 . S
H426 C408 0.931 . S
H427 C412 0.929 . S
H428 C414 0.930 . S
Co429 N433 2.148 . S
Co429 N439 2.128 . S
Co429 N449 2.194 . S
Co429 O454 2.351 . S
Co429 O455 2.155 . S
Co429 O456 2.096 . S
C430 N433 1.301 . S
C430 N434 1.328 . S
C430 H435 0.930 . S
C431 C432 1.333 . S
C431 N433 1.317 . S
C431 H436 0.930 . S
C432 C431 1.333 . S
C432 N434 1.350 . S
C432 H458 0.931 . S
N433 Co429 2.148 . S
N433 C430 1.301 . S
N433 C431 1.317 . S
N434 C430 1.328 . S
N434 C432 1.350 . S
H435 C430 0.930 . S
H436 C431 0.930 . S
C437 O438 1.224 . S
C437 O456 1.247 . S
O438 C437 1.224 . S
N439 Co429 2.128 . S
N439 C440 1.355 . S
N439 C442 1.311 . S
C440 N439 1.355 . S
C440 C441 1.363 . S
C440 H452 0.929 . S
C441 C440 1.363 . S
C441 N443 1.375 . S
C441 H459 0.931 . S
C442 N439 1.311 . S
C442 N443 1.347 . S
C442 H453 0.929 . S
N443 C441 1.375 . S
N443 C442 1.347 . S
C444 C447 1.365 . S
C444 N449 1.328 . S
C444 H450 0.929 . S
C445 C446 1.362 . S
C445 C448 1.378 . S
C445 H460 0.929 . S
C446 C445 1.362 . S
C446 C447 1.366 . S
C447 C444 1.365 . S
C447 C446 1.366 . S
C447 H461 0.930 . S
C448 C445 1.378 . S
C448 N449 1.315 . S
C448 H451 0.930 . S
N449 Co429 2.194 . S
N449 C444 1.328 . S
N449 C448 1.315 . S
H450 C444 0.929 . S
H451 C448 0.930 . S
H452 C440 0.929 . S
H453 C442 0.929 . S
O454 Co429 2.351 . S
O454 C457 1.244 . S
O455 Co429 2.155 . S
O455 C457 1.240 . S
O456 Co429 2.096 . S
O456 C437 1.247 . S
C457 O454 1.244 . S
C457 O455 1.240 . S
H458 C432 0.931 . S
H459 C441 0.931 . S
H460 C445 0.929 . S
H461 C447 0.930 . S
Co462 N466 2.148 . S
Co462 N472 2.128 . S
Co462 N482 2.194 . S
Co462 O487 2.351 . S
Co462 O488 2.155 . S
Co462 O489 2.096 . S
C463 N466 1.301 . S
C463 N467 1.328 . S
C463 H468 0.930 . S
C464 C465 1.333 . S
C464 N466 1.317 . S
C464 H469 0.930 . S
C465 C464 1.333 . S
C465 N467 1.350 . S
C465 H491 0.931 . S
N466 Co462 2.148 . S
N466 C463 1.301 . S
N466 C464 1.317 . S
N467 C463 1.328 . S
N467 C465 1.350 . S
H468 C463 0.930 . S
H469 C464 0.930 . S
C470 O471 1.224 . S
C470 O489 1.247 . S
O471 C470 1.224 . S
N472 Co462 2.128 . S
N472 C473 1.355 . S
N472 C475 1.311 . S
C473 N472 1.355 . S
C473 C474 1.363 . S
C473 H485 0.929 . S
C474 C473 1.363 . S
C474 N476 1.375 . S
C474 H492 0.931 . S
C475 N472 1.311 . S
C475 N476 1.347 . S
C475 H486 0.929 . S
N476 C474 1.375 . S
N476 C475 1.347 . S
C477 C480 1.365 . S
C477 N482 1.328 . S
C477 H483 0.929 . S
C478 C479 1.362 . S
C478 C481 1.378 . S
C478 H493 0.929 . S
C479 C478 1.362 . S
C479 C480 1.366 . S
C480 C477 1.365 . S
C480 C479 1.366 . S
C480 H494 0.930 . S
C481 C478 1.378 . S
C481 N482 1.315 . S
C481 H484 0.930 . S
N482 Co462 2.194 . S
N482 C477 1.328 . S
N482 C481 1.315 . S
H483 C477 0.929 . S
H484 C481 0.930 . S
H485 C473 0.929 . S
H486 C475 0.929 . S
O487 Co462 2.351 . S
O487 C490 1.244 . S
O488 Co462 2.155 . S
O488 C490 1.240 . S
O489 Co462 2.096 . S
O489 C470 1.247 . S
C490 O487 1.244 . S
C490 O488 1.240 . S
H491 C465 0.931 . S
H492 C474 0.931 . S
H493 C478 0.929 . S
H494 C480 0.930 . S
Co495 N499 2.148 . S
Co495 N505 2.128 . S
Co495 N515 2.194 . S
Co495 O520 2.351 . S
Co495 O521 2.155 . S
Co495 O522 2.096 . S
C496 N499 1.301 . S
C496 N500 1.328 . S
C496 H501 0.930 . S
C497 C498 1.333 . S
C497 N499 1.317 . S
C497 H502 0.930 . S
C498 C497 1.333 . S
C498 N500 1.350 . S
C498 H524 0.931 . S
N499 Co495 2.148 . S
N499 C496 1.301 . S
N499 C497 1.317 . S
N500 C496 1.328 . S
N500 C498 1.350 . S
H501 C496 0.930 . S
H502 C497 0.930 . S
C503 O504 1.224 . S
C503 O522 1.247 . S
O504 C503 1.224 . S
N505 Co495 2.128 . S
N505 C506 1.355 . S
N505 C508 1.311 . S
C506 N505 1.355 . S
C506 C507 1.363 . S
C506 H518 0.929 . S
C507 C506 1.363 . S
C507 N509 1.375 . S
C507 H525 0.931 . S
C508 N505 1.311 . S
C508 N509 1.347 . S
C508 H519 0.929 . S
N509 C507 1.375 . S
N509 C508 1.347 . S
C510 C513 1.365 . S
C510 N515 1.328 . S
C510 H516 0.929 . S
C511 C512 1.362 . S
C511 C514 1.378 . S
C511 H526 0.929 . S
C512 C511 1.362 . S
C512 C513 1.366 . S
C513 C510 1.365 . S
C513 C512 1.366 . S
C513 H527 0.930 . S
C514 C511 1.378 . S
C514 N515 1.315 . S
C514 H517 0.930 . S
N515 Co495 2.194 . S
N515 C510 1.328 . S
N515 C514 1.315 . S
H516 C510 0.929 . S
H517 C514 0.930 . S
H518 C506 0.929 . S
H519 C508 0.929 . S
O520 Co495 2.351 . S
O520 C523 1.244 . S
O521 Co495 2.155 . S
O521 C523 1.240 . S
O522 Co495 2.096 . S
O522 C503 1.247 . S
C523 O520 1.244 . S
C523 O521 1.240 . S
H524 C498 0.931 . S
H525 C507 0.931 . S
H526 C511 0.929 . S
H527 C513 0.930 . S
C528 C529 1.349 . S
C528 C530 1.327 . S
C528 H553 0.950 . S
C529 C528 1.349 . S
C529 C545 1.349 . S
C530 C528 1.327 . S
C530 C549 1.429 . S
C530 H554 0.950 . S
C531 C548 1.574 . S
C531 C550 1.368 . S
C531 H555 0.949 . S
H532 C536 0.949 . S
C533 C534 1.349 . S
C533 C535 1.327 . S
C533 H556 0.950 . S
C534 C533 1.349 . S
C534 C546 1.349 . S
C535 C533 1.327 . S
C535 C551 1.429 . S
C535 H557 0.950 . S
C536 H532 0.949 . S
C536 C544 1.574 . S
C536 C552 1.368 . S
H537 C545 0.950 . S
H538 C543 0.950 . S
H539 C544 0.949 . S
H540 C546 0.950 . S
H541 C547 0.950 . S
H542 C548 0.949 . S
C543 H538 0.950 . S
C543 C545 1.327 . S
C543 C549 1.429 . S
C544 C536 1.574 . S
C544 H539 0.949 . S
C544 C550 1.368 . S
C545 C529 1.349 . S
C545 H537 0.950 . S
C545 C543 1.327 . S
C546 C534 1.349 . S
C546 H540 0.950 . S
C546 C547 1.327 . S
C547 H541 0.950 . S
C547 C546 1.327 . S
C547 C551 1.429 . S
C548 C531 1.574 . S
C548 H542 0.949 . S
C548 C552 1.368 . S
C549 C530 1.429 . S
C549 C543 1.429 . S
C549 C550 1.523 . S
C550 C531 1.368 . S
C550 C544 1.368 . S
C550 C549 1.523 . S
C551 C535 1.429 . S
C551 C547 1.429 . S
C551 C552 1.523 . S
C552 C536 1.368 . S
C552 C548 1.368 . S
C552 C551 1.523 . S
H553 C528 0.950 . S
H554 C530 0.950 . S
H555 C531 0.949 . S
H556 C533 0.950 . S
H557 C535 0.950 . S
C558 C559 1.349 . S
C558 C560 1.327 . S
C558 H583 0.950 . S
C559 C558 1.349 . S
C559 C575 1.349 . S
C560 C558 1.327 . S
C560 C579 1.429 . S
C560 H584 0.950 . S
C561 C578 1.574 . S
C561 C580 1.368 . S
C561 H585 0.949 . S
H562 C566 0.949 . S
C563 C564 1.349 . S
C563 C565 1.327 . S
C563 H586 0.950 . S
C564 C563 1.349 . S
C564 C576 1.349 . S
C565 C563 1.327 . S
C565 C581 1.429 . S
C565 H587 0.950 . S
C566 H562 0.949 . S
C566 C574 1.574 . S
C566 C582 1.368 . S
H567 C575 0.950 . S
H568 C573 0.950 . S
H569 C574 0.949 . S
H570 C576 0.950 . S
H571 C577 0.950 . S
H572 C578 0.949 . S
C573 H568 0.950 . S
C573 C575 1.327 . S
C573 C579 1.429 . S
C574 C566 1.574 . S
C574 H569 0.949 . S
C574 C580 1.368 . S
C575 C559 1.349 . S
C575 H567 0.950 . S
C575 C573 1.327 . S
C576 C564 1.349 . S
C576 H570 0.950 . S
C576 C577 1.327 . S
C577 H571 0.950 . S
C577 C576 1.327 . S
C577 C581 1.429 . S
C578 C561 1.574 . S
C578 H572 0.949 . S
C578 C582 1.368 . S
C579 C560 1.429 . S
C579 C573 1.429 . S
C579 C580 1.523 . S
C580 C561 1.368 . S
C580 C574 1.368 . S
C580 C579 1.523 . S
C581 C565 1.429 . S
C581 C577 1.429 . S
C581 C582 1.523 . S
C582 C566 1.368 . S
C582 C578 1.368 . S
C582 C581 1.523 . S
H583 C558 0.950 . S
H584 C560 0.950 . S
H585 C561 0.949 . S
H586 C563 0.950 . S
H587 C565 0.950 . S
C588 C589 1.349 . S
C588 C590 1.327 . S
C588 H613 0.950 . S
C589 C588 1.349 . S
C589 C605 1.349 . S
C590 C588 1.327 . S
C590 C609 1.429 . S
C590 H614 0.950 . S
C591 C608 1.574 . S
C591 C610 1.368 . S
C591 H615 0.949 . S
H592 C596 0.949 . S
C593 C594 1.349 . S
C593 C595 1.327 . S
C593 H616 0.950 . S
C594 C593 1.349 . S
C594 C606 1.349 . S
C595 C593 1.327 . S
C595 C611 1.429 . S
C595 H617 0.950 . S
C596 H592 0.949 . S
C596 C604 1.574 . S
C596 C612 1.368 . S
H597 C605 0.950 . S
H598 C603 0.950 . S
H599 C604 0.949 . S
H600 C606 0.950 . S
H601 C607 0.950 . S
H602 C608 0.949 . S
C603 H598 0.950 . S
C603 C605 1.327 . S
C603 C609 1.429 . S
C604 C596 1.574 . S
C604 H599 0.949 . S
C604 C610 1.368 . S
C605 C589 1.349 . S
C605 H597 0.950 . S
C605 C603 1.327 . S
C606 C594 1.349 . S
C606 H600 0.950 . S
C606 C607 1.327 . S
C607 H601 0.950 . S
C607 C606 1.327 . S
C607 C611 1.429 . S
C608 C591 1.574 . S
C608 H602 0.949 . S
C608 C612 1.368 . S
C609 C590 1.429 . S
C609 C603 1.429 . S
C609 C610 1.523 . S
C610 C591 1.368 . S
C610 C604 1.368 . S
C610 C609 1.523 . S
C611 C595 1.429 . S
C611 C607 1.429 . S
C611 C612 1.523 . S
C612 C596 1.368 . S
C612 C608 1.368 . S
C612 C611 1.523 . S
H613 C588 0.950 . S
H614 C590 0.950 . S
H615 C591 0.949 . S
H616 C593 0.950 . S
H617 C595 0.950 . S
C618 C619 1.349 . S
C618 C620 1.327 . S
C618 H643 0.950 . S
C619 C618 1.349 . S
C619 C635 1.349 . S
C620 C618 1.327 . S
C620 C639 1.429 . S
C620 H644 0.950 . S
C621 C638 1.574 . S
C621 C640 1.368 . S
C621 H645 0.949 . S
H622 C626 0.949 . S
C623 C624 1.349 . S
C623 C625 1.327 . S
C623 H646 0.950 . S
C624 C623 1.349 . S
C624 C636 1.349 . S
C625 C623 1.327 . S
C625 C641 1.429 . S
C625 H647 0.950 . S
C626 H622 0.949 . S
C626 C634 1.574 . S
C626 C642 1.368 . S
H627 C635 0.950 . S
H628 C633 0.950 . S
H629 C634 0.949 . S
H630 C636 0.950 . S
H631 C637 0.950 . S
H632 C638 0.949 . S
C633 H628 0.950 . S
C633 C635 1.327 . S
C633 C639 1.429 . S
C634 C626 1.574 . S
C634 H629 0.949 . S
C634 C640 1.368 . S
C635 C619 1.349 . S
C635 H627 0.950 . S
C635 C633 1.327 . S
C636 C624 1.349 . S
C636 H630 0.950 . S
C636 C637 1.327 . S
C637 H631 0.950 . S
C637 C636 1.327 . S
C637 C641 1.429 . S
C638 C621 1.574 . S
C638 H632 0.949 . S
C638 C642 1.368 . S
C639 C620 1.429 . S
C639 C633 1.429 . S
C639 C640 1.523 . S
C640 C621 1.368 . S
C640 C634 1.368 . S
C640 C639 1.523 . S
C641 C625 1.429 . S
C641 C637 1.429 . S
C641 C642 1.523 . S
C642 C626 1.368 . S
C642 C638 1.368 . S
C642 C641 1.523 . S
H643 C618 0.950 . S
H644 C620 0.950 . S
H645 C621 0.949 . S
H646 C623 0.950 . S
H647 C625 0.950 . S
C648 C649 1.349 . S
C648 C650 1.327 . S
C648 H673 0.950 . S
C649 C648 1.349 . S
C649 C665 1.349 . S
C650 C648 1.327 . S
C650 C669 1.429 . S
C650 H674 0.950 . S
C651 C668 1.574 . S
C651 C670 1.368 . S
C651 H675 0.949 . S
H652 C656 0.949 . S
C653 C654 1.349 . S
C653 C655 1.327 . S
C653 H676 0.950 . S
C654 C653 1.349 . S
C654 C666 1.349 . S
C655 C653 1.327 . S
C655 C671 1.429 . S
C655 H677 0.950 . S
C656 H652 0.949 . S
C656 C664 1.574 . S
C656 C672 1.368 . S
H657 C665 0.950 . S
H658 C663 0.950 . S
H659 C664 0.949 . S
H660 C666 0.950 . S
H661 C667 0.950 . S
H662 C668 0.949 . S
C663 H658 0.950 . S
C663 C665 1.327 . S
C663 C669 1.429 . S
C664 C656 1.574 . S
C664 H659 0.949 . S
C664 C670 1.368 . S
C665 C649 1.349 . S
C665 H657 0.950 . S
C665 C663 1.327 . S
C666 C654 1.349 . S
C666 H660 0.950 . S
C666 C667 1.327 . S
C667 H661 0.950 . S
C667 C666 1.327 . S
C667 C671 1.429 . S
C668 C651 1.574 . S
C668 H662 0.949 . S
C668 C672 1.368 . S
C669 C650 1.429 . S
C669 C663 1.429 . S
C669 C670 1.523 . S
C670 C651 1.368 . S
C670 C664 1.368 . S
C670 C669 1.523 . S
C671 C655 1.429 . S
C671 C667 1.429 . S
C671 C672 1.523 . S
C672 C656 1.368 . S
C672 C668 1.368 . S
C672 C671 1.523 . S
H673 C648 0.950 . S
H674 C650 0.950 . S
H675 C651 0.949 . S
H676 C653 0.950 . S
H677 C655 0.950 . S
C678 C679 1.349 . S
C678 C680 1.327 . S
C678 H703 0.950 . S
C679 C678 1.349 . S
C679 C695 1.349 . S
C680 C678 1.327 . S
C680 C699 1.429 . S
C680 H704 0.950 . S
C681 C698 1.574 . S
C681 C700 1.368 . S
C681 H705 0.949 . S
H682 C686 0.949 . S
C683 C684 1.349 . S
C683 C685 1.327 . S
C683 H706 0.950 . S
C684 C683 1.349 . S
C684 C696 1.349 . S
C685 C683 1.327 . S
C685 C701 1.429 . S
C685 H707 0.950 . S
C686 H682 0.949 . S
C686 C694 1.574 . S
C686 C702 1.368 . S
H687 C695 0.950 . S
H688 C693 0.950 . S
H689 C694 0.949 . S
H690 C696 0.950 . S
H691 C697 0.950 . S
H692 C698 0.949 . S
C693 H688 0.950 . S
C693 C695 1.327 . S
C693 C699 1.429 . S
C694 C686 1.574 . S
C694 H689 0.949 . S
C694 C700 1.368 . S
C695 C679 1.349 . S
C695 H687 0.950 . S
C695 C693 1.327 . S
C696 C684 1.349 . S
C696 H690 0.950 . S
C696 C697 1.327 . S
C697 H691 0.950 . S
C697 C696 1.327 . S
C697 C701 1.429 . S
C698 C681 1.574 . S
C698 H692 0.949 . S
C698 C702 1.368 . S
C699 C680 1.429 . S
C699 C693 1.429 . S
C699 C700 1.523 . S
C700 C681 1.368 . S
C700 C694 1.368 . S
C700 C699 1.523 . S
C701 C685 1.429 . S
C701 C697 1.429 . S
C701 C702 1.523 . S
C702 C686 1.368 . S
C702 C698 1.368 . S
C702 C701 1.523 . S
H703 C678 0.950 . S
H704 C680 0.950 . S
H705 C681 0.949 . S
H706 C683 0.950 . S
H707 C685 0.950 . S
C708 C709 1.349 . S
C708 C710 1.327 . S
C708 H733 0.950 . S
C709 C708 1.349 . S
C709 C725 1.349 . S
C710 C708 1.327 . S
C710 C729 1.429 . S
C710 H734 0.950 . S
C711 C728 1.574 . S
C711 C730 1.368 . S
C711 H735 0.949 . S
H712 C716 0.949 . S
C713 C714 1.349 . S
C713 C715 1.327 . S
C713 H736 0.950 . S
C714 C713 1.349 . S
C714 C726 1.349 . S
C715 C713 1.327 . S
C715 C731 1.429 . S
C715 H737 0.950 . S
C716 H712 0.949 . S
C716 C724 1.574 . S
C716 C732 1.368 . S
H717 C725 0.950 . S
H718 C723 0.950 . S
H719 C724 0.949 . S
H720 C726 0.950 . S
H721 C727 0.950 . S
H722 C728 0.949 . S
C723 H718 0.950 . S
C723 C725 1.327 . S
C723 C729 1.429 . S
C724 C716 1.574 . S
C724 H719 0.949 . S
C724 C730 1.368 . S
C725 C709 1.349 . S
C725 H717 0.950 . S
C725 C723 1.327 . S
C726 C714 1.349 . S
C726 H720 0.950 . S
C726 C727 1.327 . S
C727 H721 0.950 . S
C727 C726 1.327 . S
C727 C731 1.429 . S
C728 C711 1.574 . S
C728 H722 0.949 . S
C728 C732 1.368 . S
C729 C710 1.429 . S
C729 C723 1.429 . S
C729 C730 1.523 . S
C730 C711 1.368 . S
C730 C724 1.368 . S
C730 C729 1.523 . S
C731 C715 1.429 . S
C731 C727 1.429 . S
C731 C732 1.523 . S
C732 C716 1.368 . S
C732 C728 1.368 . S
C732 C731 1.523 . S
H733 C708 0.950 . S
H734 C710 0.950 . S
H735 C711 0.949 . S
H736 C713 0.950 . S
H737 C715 0.950 . S
C738 C739 1.349 . S
C738 C740 1.327 . S
C738 H763 0.950 . S
C739 C738 1.349 . S
C739 C755 1.349 . S
C740 C738 1.327 . S
C740 C759 1.429 . S
C740 H764 0.950 . S
C741 C758 1.574 . S
C741 C760 1.368 . S
C741 H765 0.949 . S
H742 C746 0.949 . S
C743 C744 1.349 . S
C743 C745 1.327 . S
C743 H766 0.950 . S
C744 C743 1.349 . S
C744 C756 1.349 . S
C745 C743 1.327 . S
C745 C761 1.429 . S
C745 H767 0.950 . S
C746 H742 0.949 . S
C746 C754 1.574 . S
C746 C762 1.368 . S
H747 C755 0.950 . S
H748 C753 0.950 . S
H749 C754 0.949 . S
H750 C756 0.950 . S
H751 C757 0.950 . S
H752 C758 0.949 . S
C753 H748 0.950 . S
C753 C755 1.327 . S
C753 C759 1.429 . S
C754 C746 1.574 . S
C754 H749 0.949 . S
C754 C760 1.368 . S
C755 C739 1.349 . S
C755 H747 0.950 . S
C755 C753 1.327 . S
C756 C744 1.349 . S
C756 H750 0.950 . S
C756 C757 1.327 . S
C757 H751 0.950 . S
C757 C756 1.327 . S
C757 C761 1.429 . S
C758 C741 1.574 . S
C758 H752 0.949 . S
C758 C762 1.368 . S
C759 C740 1.429 . S
C759 C753 1.429 . S
C759 C760 1.523 . S
C760 C741 1.368 . S
C760 C754 1.368 . S
C760 C759 1.523 . S
C761 C745 1.429 . S
C761 C757 1.429 . S
C761 C762 1.523 . S
C762 C746 1.368 . S
C762 C758 1.368 . S
C762 C761 1.523 . S
H763 C738 0.950 . S
H764 C740 0.950 . S
H765 C741 0.949 . S
H766 C743 0.950 . S
H767 C745 0.950 . S
C768 C769 1.349 . S
C768 C770 1.327 . S
C768 H793 0.950 . S
C769 C768 1.349 . S
C769 C785 1.349 . S
C770 C768 1.327 . S
C770 C789 1.429 . S
C770 H794 0.950 . S
C771 C788 1.574 . S
C771 C790 1.368 . S
C771 H795 0.949 . S
H772 C776 0.949 . S
C773 C774 1.349 . S
C773 C775 1.327 . S
C773 H796 0.950 . S
C774 C773 1.349 . S
C774 C786 1.349 . S
C775 C773 1.327 . S
C775 C791 1.429 . S
C775 H797 0.950 . S
C776 H772 0.949 . S
C776 C784 1.574 . S
C776 C792 1.368 . S
H777 C785 0.950 . S
H778 C783 0.950 . S
H779 C784 0.949 . S
H780 C786 0.950 . S
H781 C787 0.950 . S
H782 C788 0.949 . S
C783 H778 0.950 . S
C783 C785 1.327 . S
C783 C789 1.429 . S
C784 C776 1.574 . S
C784 H779 0.949 . S
C784 C790 1.368 . S
C785 C769 1.349 . S
C785 H777 0.950 . S
C785 C783 1.327 . S
C786 C774 1.349 . S
C786 H780 0.950 . S
C786 C787 1.327 . S
C787 H781 0.950 . S
C787 C786 1.327 . S
C787 C791 1.429 . S
C788 C771 1.574 . S
C788 H782 0.949 . S
C788 C792 1.368 . S
C789 C770 1.429 . S
C789 C783 1.429 . S
C789 C790 1.523 . S
C790 C771 1.368 . S
C790 C784 1.368 . S
C790 C789 1.523 . S
C791 C775 1.429 . S
C791 C787 1.429 . S
C791 C792 1.523 1_556 S
C792 C776 1.368 . S
C792 C788 1.368 . S
C792 C791 1.523 1_554 S
H793 C768 0.950 . S
H794 C770 0.950 . S
H795 C771 0.949 . S
H796 C773 0.950 . S
H797 C775 0.950 . S
C798 C799 1.349 . S
C798 C800 1.327 . S
C798 H823 0.950 . S
C799 C798 1.349 . S
C799 C815 1.349 . S
C800 C798 1.327 . S
C800 C819 1.429 . S
C800 H824 0.950 . S
C801 C818 1.574 . S
C801 C820 1.368 . S
C801 H825 0.949 . S
H802 C806 0.949 . S
C803 C804 1.349 . S
C803 C805 1.327 . S
C803 H826 0.950 . S
C804 C803 1.349 . S
C804 C816 1.349 . S
C805 C803 1.327 . S
C805 C821 1.429 . S
C805 H827 0.950 . S
C806 H802 0.949 . S
C806 C814 1.574 . S
C806 C822 1.368 . S
H807 C815 0.950 . S
H808 C813 0.950 . S
H809 C814 0.949 . S
H810 C816 0.950 . S
H811 C817 0.950 . S
H812 C818 0.949 . S
C813 H808 0.950 . S
C813 C815 1.327 . S
C813 C819 1.429 . S
C814 C806 1.574 . S
C814 H809 0.949 . S
C814 C820 1.368 . S
C815 C799 1.349 . S
C815 H807 0.950 . S
C815 C813 1.327 . S
C816 C804 1.349 . S
C816 H810 0.950 . S
C816 C817 1.327 . S
C817 H811 0.950 . S
C817 C816 1.327 . S
C817 C821 1.429 . S
C818 C801 1.574 . S
C818 H812 0.949 . S
C818 C822 1.368 . S
C819 C800 1.429 . S
C819 C813 1.429 . S
C819 C820 1.523 . S
C820 C801 1.368 . S
C820 C814 1.368 . S
C820 C819 1.523 . S
C821 C805 1.429 . S
C821 C817 1.429 . S
C821 C822 1.523 1_556 S
C822 C806 1.368 . S
C822 C818 1.368 . S
C822 C821 1.523 1_554 S
H823 C798 0.950 . S
H824 C800 0.950 . S
H825 C801 0.949 . S
H826 C803 0.950 . S
H827 C805 0.950 . S
C828 C829 1.349 . S
C828 C830 1.327 . S
C828 H853 0.950 . S
C829 C828 1.349 . S
C829 C845 1.349 . S
C830 C828 1.327 . S
C830 C849 1.429 . S
C830 H854 0.950 . S
C831 C848 1.574 . S
C831 C850 1.368 . S
C831 H855 0.949 . S
H832 C836 0.949 . S
C833 C834 1.349 . S
C833 C835 1.327 . S
C833 H856 0.950 . S
C834 C833 1.349 . S
C834 C846 1.349 . S
C835 C833 1.327 . S
C835 C851 1.429 . S
C835 H857 0.950 . S
C836 H832 0.949 . S
C836 C844 1.574 . S
C836 C852 1.368 . S
H837 C845 0.950 . S
H838 C843 0.950 . S
H839 C844 0.949 . S
H840 C846 0.950 . S
H841 C847 0.950 . S
H842 C848 0.949 . S
C843 H838 0.950 . S
C843 C845 1.327 . S
C843 C849 1.429 . S
C844 C836 1.574 . S
C844 H839 0.949 . S
C844 C850 1.368 . S
C845 C829 1.349 . S
C845 H837 0.950 . S
C845 C843 1.327 . S
C846 C834 1.349 . S
C846 H840 0.950 . S
C846 C847 1.327 . S
C847 H841 0.950 . S
C847 C846 1.327 . S
C847 C851 1.429 . S
C848 C831 1.574 . S
C848 H842 0.949 . S
C848 C852 1.368 . S
C849 C830 1.429 . S
C849 C843 1.429 . S
C849 C850 1.523 . S
C850 C831 1.368 . S
C850 C844 1.368 . S
C850 C849 1.523 . S
C851 C835 1.429 . S
C851 C847 1.429 . S
C851 C852 1.523 1_556 S
C852 C836 1.368 . S
C852 C848 1.368 . S
C852 C851 1.523 1_554 S
H853 C828 0.950 . S
H854 C830 0.950 . S
H855 C831 0.949 . S
H856 C833 0.950 . S
H857 C835 0.950 . S
C858 C859 1.349 . S
C858 C860 1.327 . S
C858 H883 0.950 . S
C859 C858 1.349 . S
C859 C875 1.349 . S
C860 C858 1.327 . S
C860 C879 1.429 . S
C860 H884 0.950 . S
C861 C878 1.574 . S
C861 C880 1.368 . S
C861 H885 0.949 . S
H862 C866 0.949 . S
C863 C864 1.349 . S
C863 C865 1.327 . S
C863 H886 0.950 . S
C864 C863 1.349 . S
C864 C876 1.349 . S
C865 C863 1.327 . S
C865 C881 1.429 . S
C865 H887 0.950 . S
C866 H862 0.949 . S
C866 C874 1.574 . S
C866 C882 1.368 . S
H867 C875 0.950 . S
H868 C873 0.950 . S
H869 C874 0.949 . S
H870 C876 0.950 . S
H871 C877 0.950 . S
H872 C878 0.949 . S
C873 H868 0.950 . S
C873 C875 1.327 . S
C873 C879 1.429 . S
C874 C866 1.574 . S
C874 H869 0.949 . S
C874 C880 1.368 . S
C875 C859 1.349 . S
C875 H867 0.950 . S
C875 C873 1.327 . S
C876 C864 1.349 . S
C876 H870 0.950 . S
C876 C877 1.327 . S
C877 H871 0.950 . S
C877 C876 1.327 . S
C877 C881 1.429 . S
C878 C861 1.574 . S
C878 H872 0.949 . S
C878 C882 1.368 . S
C879 C860 1.429 . S
C879 C873 1.429 . S
C879 C880 1.523 . S
C880 C861 1.368 . S
C880 C874 1.368 . S
C880 C879 1.523 . S
C881 C865 1.429 . S
C881 C877 1.429 . S
C881 C882 1.523 1_556 S
C882 C866 1.368 . S
C882 C878 1.368 . S
C882 C881 1.523 1_554 S
H883 C858 0.950 . S
H884 C860 0.950 . S
H885 C861 0.949 . S
H886 C863 0.950 . S
H887 C865 0.950 . S
C888 C889 1.349 . S
C888 C890 1.327 . S
C888 H913 0.950 . S
C889 C888 1.349 . S
C889 C905 1.349 . S
C890 C888 1.327 . S
C890 C909 1.429 . S
C890 H914 0.950 . S
C891 C908 1.574 . S
C891 C910 1.368 . S
C891 H915 0.949 . S
H892 C896 0.949 . S
C893 C894 1.349 . S
C893 C895 1.327 . S
C893 H916 0.950 . S
C894 C893 1.349 . S
C894 C906 1.349 . S
C895 C893 1.327 . S
C895 C911 1.429 . S
C895 H917 0.950 . S
C896 H892 0.949 . S
C896 C904 1.574 . S
C896 C912 1.368 . S
H897 C905 0.950 . S
H898 C903 0.950 . S
H899 C904 0.949 . S
H900 C906 0.950 . S
H901 C907 0.950 . S
H902 C908 0.949 . S
C903 H898 0.950 . S
C903 C905 1.327 . S
C903 C909 1.429 . S
C904 C896 1.574 . S
C904 H899 0.949 . S
C904 C910 1.368 . S
C905 C889 1.349 . S
C905 H897 0.950 . S
C905 C903 1.327 . S
C906 C894 1.349 . S
C906 H900 0.950 . S
C906 C907 1.327 . S
C907 H901 0.950 . S
C907 C906 1.327 . S
C907 C911 1.429 . S
C908 C891 1.574 . S
C908 H902 0.949 . S
C908 C912 1.368 . S
C909 C890 1.429 . S
C909 C903 1.429 . S
C909 C910 1.523 1_554 S
C910 C891 1.368 . S
C910 C904 1.368 . S
C910 C909 1.523 1_556 S
C911 C895 1.429 . S
C911 C907 1.429 . S
C911 C912 1.523 . S
C912 C896 1.368 . S
C912 C908 1.368 . S
C912 C911 1.523 . S
H913 C888 0.950 . S
H914 C890 0.950 . S
H915 C891 0.949 . S
H916 C893 0.950 . S
H917 C895 0.950 . S
C918 C919 1.349 . S
C918 C920 1.327 . S
C918 H943 0.950 . S
C919 C918 1.349 . S
C919 C935 1.349 . S
C920 C918 1.327 . S
C920 C939 1.429 . S
C920 H944 0.950 . S
C921 C938 1.574 . S
C921 C940 1.368 . S
C921 H945 0.949 . S
H922 C926 0.949 . S
C923 C924 1.349 . S
C923 C925 1.327 . S
C923 H946 0.950 . S
C924 C923 1.349 . S
C924 C936 1.349 . S
C925 C923 1.327 . S
C925 C941 1.429 . S
C925 H947 0.950 . S
C926 H922 0.949 . S
C926 C934 1.574 . S
C926 C942 1.368 . S
H927 C935 0.950 . S
H928 C933 0.950 . S
H929 C934 0.949 . S
H930 C936 0.950 . S
H931 C937 0.950 . S
H932 C938 0.949 . S
C933 H928 0.950 . S
C933 C935 1.327 . S
C933 C939 1.429 . S
C934 C926 1.574 . S
C934 H929 0.949 . S
C934 C940 1.368 . S
C935 C919 1.349 . S
C935 H927 0.950 . S
C935 C933 1.327 . S
C936 C924 1.349 . S
C936 H930 0.950 . S
C936 C937 1.327 . S
C937 H931 0.950 . S
C937 C936 1.327 . S
C937 C941 1.429 . S
C938 C921 1.574 . S
C938 H932 0.949 . S
C938 C942 1.368 . S
C939 C920 1.429 . S
C939 C933 1.429 . S
C939 C940 1.523 1_554 S
C940 C921 1.368 . S
C940 C934 1.368 . S
C940 C939 1.523 1_556 S
C941 C925 1.429 . S
C941 C937 1.429 . S
C941 C942 1.523 . S
C942 C926 1.368 . S
C942 C938 1.368 . S
C942 C941 1.523 . S
H943 C918 0.950 . S
H944 C920 0.950 . S
H945 C921 0.949 . S
H946 C923 0.950 . S
H947 C925 0.950 . S
C948 C949 1.349 . S
C948 C950 1.327 . S
C948 H973 0.950 . S
C949 C948 1.349 . S
C949 C965 1.349 . S
C950 C948 1.327 . S
C950 C969 1.429 . S
C950 H974 0.950 . S
C951 C968 1.574 . S
C951 C970 1.368 . S
C951 H975 0.949 . S
H952 C956 0.949 . S
C953 C954 1.349 . S
C953 C955 1.327 . S
C953 H976 0.950 . S
C954 C953 1.349 . S
C954 C966 1.349 . S
C955 C953 1.327 . S
C955 C971 1.429 . S
C955 H977 0.950 . S
C956 H952 0.949 . S
C956 C964 1.574 . S
C956 C972 1.368 . S
H957 C965 0.950 . S
H958 C963 0.950 . S
H959 C964 0.949 . S
H960 C966 0.950 . S
H961 C967 0.950 . S
H962 C968 0.949 . S
C963 H958 0.950 . S
C963 C965 1.327 . S
C963 C969 1.429 . S
C964 C956 1.574 . S
C964 H959 0.949 . S
C964 C970 1.368 . S
C965 C949 1.349 . S
C965 H957 0.950 . S
C965 C963 1.327 . S
C966 C954 1.349 . S
C966 H960 0.950 . S
C966 C967 1.327 . S
C967 H961 0.950 . S
C967 C966 1.327 . S
C967 C971 1.429 . S
C968 C951 1.574 . S
C968 H962 0.949 . S
C968 C972 1.368 . S
C969 C950 1.429 . S
C969 C963 1.429 . S
C969 C970 1.523 1_554 S
C970 C951 1.368 . S
C970 C964 1.368 . S
C970 C969 1.523 1_556 S
C971 C955 1.429 . S
C971 C967 1.429 . S
C971 C972 1.523 . S
C972 C956 1.368 . S
C972 C968 1.368 . S
C972 C971 1.523 . S
H973 C948 0.950 . S
H974 C950 0.950 . S
H975 C951 0.949 . S
H976 C953 0.950 . S
H977 C955 0.950 . S
C978 C979 1.349 . S
C978 C980 1.327 . S
C978 H1003 0.950 . S
C979 C978 1.349 . S
C979 C995 1.349 . S
C980 C978 1.327 . S
C980 C999 1.429 . S
C980 H1004 0.950 . S
C981 C998 1.574 . S
C981 C1000 1.368 . S
C981 H1005 0.949 . S
H982 C986 0.949 . S
C983 C984 1.349 . S
C983 C985 1.327 . S
C983 H1006 0.950 . S
C984 C983 1.349 . S
C984 C996 1.349 . S
C985 C983 1.327 . S
C985 C1001 1.429 . S
C985 H1007 0.950 . S
C986 H982 0.949 . S
C986 C994 1.574 . S
C986 C1002 1.368 . S
H987 C995 0.950 . S
H988 C993 0.950 . S
H989 C994 0.949 . S
H990 C996 0.950 . S
H991 C997 0.950 . S
H992 C998 0.949 . S
C993 H988 0.950 . S
C993 C995 1.327 . S
C993 C999 1.429 . S
C994 C986 1.574 . S
C994 H989 0.949 . S
C994 C1000 1.368 . S
C995 C979 1.349 . S
C995 H987 0.950 . S
C995 C993 1.327 . S
C996 C984 1.349 . S
C996 H990 0.950 . S
C996 C997 1.327 . S
C997 H991 0.950 . S
C997 C996 1.327 . S
C997 C1001 1.429 . S
C998 C981 1.574 . S
C998 H992 0.949 . S
C998 C1002 1.368 . S
C999 C980 1.429 . S
C999 C993 1.429 . S
C999 C1000 1.523 1_554 S
C1000 C981 1.368 . S
C1000 C994 1.368 . S
C1000 C999 1.523 1_556 S
C1001 C985 1.429 . S
C1001 C997 1.429 . S
C1001 C1002 1.523 . S
C1002 C986 1.368 . S
C1002 C998 1.368 . S
C1002 C1001 1.523 . S
H1003 C978 0.950 . S
H1004 C980 0.950 . S
H1005 C981 0.949 . S
H1006 C983 0.950 . S
H1007 C985 0.950 . S
C1008 C1009 1.349 . S
C1008 C1010 1.327 . S
C1008 H1033 0.950 . S
C1009 C1008 1.349 . S
C1009 C1025 1.349 . S
C1010 C1008 1.327 . S
C1010 C1029 1.429 . S
C1010 H1034 0.950 . S
C1011 C1028 1.574 . S
C1011 C1030 1.368 . S
C1011 H1035 0.949 . S
H1012 C1016 0.949 . S
C1013 C1014 1.349 . S
C1013 C1015 1.327 . S
C1013 H1036 0.950 . S
C1014 C1013 1.349 . S
C1014 C1026 1.349 . S
C1015 C1013 1.327 . S
C1015 C1031 1.429 . S
C1015 H1037 0.950 . S
C1016 H1012 0.949 . S
C1016 C1024 1.574 . S
C1016 C1032 1.368 . S
H1017 C1025 0.950 . S
H1018 C1023 0.950 . S
H1019 C1024 0.949 . S
H1020 C1026 0.950 . S
H1021 C1027 0.950 . S
H1022 C1028 0.949 . S
C1023 H1018 0.950 . S
C1023 C1025 1.327 . S
C1023 C1029 1.429 . S
C1024 C1016 1.574 . S
C1024 H1019 0.949 . S
C1024 C1030 1.368 . S
C1025 C1009 1.349 . S
C1025 H1017 0.950 . S
C1025 C1023 1.327 . S
C1026 C1014 1.349 . S
C1026 H1020 0.950 . S
C1026 C1027 1.327 . S
C1027 H1021 0.950 . S
C1027 C1026 1.327 . S
C1027 C1031 1.429 . S
C1028 C1011 1.574 . S
C1028 H1022 0.949 . S
C1028 C1032 1.368 . S
C1029 C1010 1.429 . S
C1029 C1023 1.429 . S
C1029 C1030 1.523 . S
C1030 C1011 1.368 . S
C1030 C1024 1.368 . S
C1030 C1029 1.523 . S
C1031 C1015 1.429 . S
C1031 C1027 1.429 . S
C1031 C1032 1.523 . S
C1032 C1016 1.368 . S
C1032 C1028 1.368 . S
C1032 C1031 1.523 . S
H1033 C1008 0.950 . S
H1034 C1010 0.950 . S
H1035 C1011 0.949 . S
H1036 C1013 0.950 . S
H1037 C1015 0.950 . S
C1038 C1039 1.349 . S
C1038 C1040 1.327 . S
C1038 H1063 0.950 . S
C1039 C1038 1.349 . S
C1039 C1055 1.349 . S
C1040 C1038 1.327 . S
C1040 C1059 1.429 . S
C1040 H1064 0.950 . S
C1041 C1058 1.574 . S
C1041 C1060 1.368 . S
C1041 H1065 0.949 . S
H1042 C1046 0.949 . S
C1043 C1044 1.349 . S
C1043 C1045 1.327 . S
C1043 H1066 0.950 . S
C1044 C1043 1.349 . S
C1044 C1056 1.349 . S
C1045 C1043 1.327 . S
C1045 C1061 1.429 . S
C1045 H1067 0.950 . S
C1046 H1042 0.949 . S
C1046 C1054 1.574 . S
C1046 C1062 1.368 . S
H1047 C1055 0.950 . S
H1048 C1053 0.950 . S
H1049 C1054 0.949 . S
H1050 C1056 0.950 . S
H1051 C1057 0.950 . S
H1052 C1058 0.949 . S
C1053 H1048 0.950 . S
C1053 C1055 1.327 . S
C1053 C1059 1.429 . S
C1054 C1046 1.574 . S
C1054 H1049 0.949 . S
C1054 C1060 1.368 . S
C1055 C1039 1.349 . S
C1055 H1047 0.950 . S
C1055 C1053 1.327 . S
C1056 C1044 1.349 . S
C1056 H1050 0.950 . S
C1056 C1057 1.327 . S
C1057 H1051 0.950 . S
C1057 C1056 1.327 . S
C1057 C1061 1.429 . S
C1058 C1041 1.574 . S
C1058 H1052 0.949 . S
C1058 C1062 1.368 . S
C1059 C1040 1.429 . S
C1059 C1053 1.429 . S
C1059 C1060 1.523 . S
C1060 C1041 1.368 . S
C1060 C1054 1.368 . S
C1060 C1059 1.523 . S
C1061 C1045 1.429 . S
C1061 C1057 1.429 . S
C1061 C1062 1.523 . S
C1062 C1046 1.368 . S
C1062 C1058 1.368 . S
C1062 C1061 1.523 . S
H1063 C1038 0.950 . S
H1064 C1040 0.950 . S
H1065 C1041 0.949 . S
H1066 C1043 0.950 . S
H1067 C1045 0.950 . S
C1068 C1069 1.349 . S
C1068 C1070 1.327 . S
C1068 H1093 0.950 . S
C1069 C1068 1.349 . S
C1069 C1085 1.349 . S
C1070 C1068 1.327 . S
C1070 C1089 1.429 . S
C1070 H1094 0.950 . S
C1071 C1088 1.574 . S
C1071 C1090 1.368 . S
C1071 H1095 0.949 . S
H1072 C1076 0.949 . S
C1073 C1074 1.349 . S
C1073 C1075 1.327 . S
C1073 H1096 0.950 . S
C1074 C1073 1.349 . S
C1074 C1086 1.349 . S
C1075 C1073 1.327 . S
C1075 C1091 1.429 . S
C1075 H1097 0.950 . S
C1076 H1072 0.949 . S
C1076 C1084 1.574 . S
C1076 C1092 1.368 . S
H1077 C1085 0.950 . S
H1078 C1083 0.950 . S
H1079 C1084 0.949 . S
H1080 C1086 0.950 . S
H1081 C1087 0.950 . S
H1082 C1088 0.949 . S
C1083 H1078 0.950 . S
C1083 C1085 1.327 . S
C1083 C1089 1.429 . S
C1084 C1076 1.574 . S
C1084 H1079 0.949 . S
C1084 C1090 1.368 . S
C1085 C1069 1.349 . S
C1085 H1077 0.950 . S
C1085 C1083 1.327 . S
C1086 C1074 1.349 . S
C1086 H1080 0.950 . S
C1086 C1087 1.327 . S
C1087 H1081 0.950 . S
C1087 C1086 1.327 . S
C1087 C1091 1.429 . S
C1088 C1071 1.574 . S
C1088 H1082 0.949 . S
C1088 C1092 1.368 . S
C1089 C1070 1.429 . S
C1089 C1083 1.429 . S
C1089 C1090 1.523 . S
C1090 C1071 1.368 . S
C1090 C1084 1.368 . S
C1090 C1089 1.523 . S
C1091 C1075 1.429 . S
C1091 C1087 1.429 . S
C1091 C1092 1.523 . S
C1092 C1076 1.368 . S
C1092 C1088 1.368 . S
C1092 C1091 1.523 . S
H1093 C1068 0.950 . S
H1094 C1070 0.950 . S
H1095 C1071 0.949 . S
H1096 C1073 0.950 . S
H1097 C1075 0.950 . S
C1098 C1099 1.349 . S
C1098 C1100 1.327 . S
C1098 H1123 0.950 . S
C1099 C1098 1.349 . S
C1099 C1115 1.349 . S
C1100 C1098 1.327 . S
C1100 C1119 1.429 . S
C1100 H1124 0.950 . S
C1101 C1118 1.574 . S
C1101 C1120 1.368 . S
C1101 H1125 0.949 . S
H1102 C1106 0.949 . S
C1103 C1104 1.349 . S
C1103 C1105 1.327 . S
C1103 H1126 0.950 . S
C1104 C1103 1.349 . S
C1104 C1116 1.349 . S
C1105 C1103 1.327 . S
C1105 C1121 1.429 . S
C1105 H1127 0.950 . S
C1106 H1102 0.949 . S
C1106 C1114 1.574 . S
C1106 C1122 1.368 . S
H1107 C1115 0.950 . S
H1108 C1113 0.950 . S
H1109 C1114 0.949 . S
H1110 C1116 0.950 . S
H1111 C1117 0.950 . S
H1112 C1118 0.949 . S
C1113 H1108 0.950 . S
C1113 C1115 1.327 . S
C1113 C1119 1.429 . S
C1114 C1106 1.574 . S
C1114 H1109 0.949 . S
C1114 C1120 1.368 . S
C1115 C1099 1.349 . S
C1115 H1107 0.950 . S
C1115 C1113 1.327 . S
C1116 C1104 1.349 . S
C1116 H1110 0.950 . S
C1116 C1117 1.327 . S
C1117 H1111 0.950 . S
C1117 C1116 1.327 . S
C1117 C1121 1.429 . S
C1118 C1101 1.574 . S
C1118 H1112 0.949 . S
C1118 C1122 1.368 . S
C1119 C1100 1.429 . S
C1119 C1113 1.429 . S
C1119 C1120 1.523 . S
C1120 C1101 1.368 . S
C1120 C1114 1.368 . S
C1120 C1119 1.523 . S
C1121 C1105 1.429 . S
C1121 C1117 1.429 . S
C1121 C1122 1.523 . S
C1122 C1106 1.368 . S
C1122 C1118 1.368 . S
C1122 C1121 1.523 . S
H1123 C1098 0.950 . S
H1124 C1100 0.950 . S
H1125 C1101 0.949 . S
H1126 C1103 0.950 . S
H1127 C1105 0.950 . S
C1128 C1129 1.349 . S
C1128 C1130 1.327 . S
C1128 H1153 0.950 . S
C1129 C1128 1.349 . S
C1129 C1145 1.349 . S
C1130 C1128 1.327 . S
C1130 C1149 1.429 . S
C1130 H1154 0.950 . S
C1131 C1148 1.574 . S
C1131 C1150 1.368 . S
C1131 H1155 0.949 . S
H1132 C1136 0.949 . S
C1133 C1134 1.349 . S
C1133 C1135 1.327 . S
C1133 H1156 0.950 . S
C1134 C1133 1.349 . S
C1134 C1146 1.349 . S
C1135 C1133 1.327 . S
C1135 C1151 1.429 . S
C1135 H1157 0.950 . S
C1136 H1132 0.949 . S
C1136 C1144 1.574 . S
C1136 C1152 1.368 . S
H1137 C1145 0.950 . S
H1138 C1143 0.950 . S
H1139 C1144 0.949 . S
H1140 C1146 0.950 . S
H1141 C1147 0.950 . S
H1142 C1148 0.949 . S
C1143 H1138 0.950 . S
C1143 C1145 1.327 . S
C1143 C1149 1.429 . S
C1144 C1136 1.574 . S
C1144 H1139 0.949 . S
C1144 C1150 1.368 . S
C1145 C1129 1.349 . S
C1145 H1137 0.950 . S
C1145 C1143 1.327 . S
C1146 C1134 1.349 . S
C1146 H1140 0.950 . S
C1146 C1147 1.327 . S
C1147 H1141 0.950 . S
C1147 C1146 1.327 . S
C1147 C1151 1.429 . S
C1148 C1131 1.574 . S
C1148 H1142 0.949 . S
C1148 C1152 1.368 . S
C1149 C1130 1.429 . S
C1149 C1143 1.429 . S
C1149 C1150 1.523 . S
C1150 C1131 1.368 . S
C1150 C1144 1.368 . S
C1150 C1149 1.523 . S
C1151 C1135 1.429 . S
C1151 C1147 1.429 . S
C1151 C1152 1.523 . S
C1152 C1136 1.368 . S
C1152 C1148 1.368 . S
C1152 C1151 1.523 . S
H1153 C1128 0.950 . S
H1154 C1130 0.950 . S
H1155 C1131 0.949 . S
H1156 C1133 0.950 . S
H1157 C1135 0.950 . S
C1158 C1159 1.349 . S
C1158 C1160 1.327 . S
C1158 H1183 0.950 . S
C1159 C1158 1.349 . S
C1159 C1175 1.349 . S
C1160 C1158 1.327 . S
C1160 C1179 1.429 . S
C1160 H1184 0.950 . S
C1161 C1178 1.574 . S
C1161 C1180 1.368 . S
C1161 H1185 0.949 . S
H1162 C1166 0.949 . S
C1163 C1164 1.349 . S
C1163 C1165 1.327 . S
C1163 H1186 0.950 . S
C1164 C1163 1.349 . S
C1164 C1176 1.349 . S
C1165 C1163 1.327 . S
C1165 C1181 1.429 . S
C1165 H1187 0.950 . S
C1166 H1162 0.949 . S
C1166 C1174 1.574 . S
C1166 C1182 1.368 . S
H1167 C1175 0.950 . S
H1168 C1173 0.950 . S
H1169 C1174 0.949 . S
H1170 C1176 0.950 . S
H1171 C1177 0.950 . S
H1172 C1178 0.949 . S
C1173 H1168 0.950 . S
C1173 C1175 1.327 . S
C1173 C1179 1.429 . S
C1174 C1166 1.574 . S
C1174 H1169 0.949 . S
C1174 C1180 1.368 . S
C1175 C1159 1.349 . S
C1175 H1167 0.950 . S
C1175 C1173 1.327 . S
C1176 C1164 1.349 . S
C1176 H1170 0.950 . S
C1176 C1177 1.327 . S
C1177 H1171 0.950 . S
C1177 C1176 1.327 . S
C1177 C1181 1.429 . S
C1178 C1161 1.574 . S
C1178 H1172 0.949 . S
C1178 C1182 1.368 . S
C1179 C1160 1.429 . S
C1179 C1173 1.429 . S
C1179 C1180 1.523 . S
C1180 C1161 1.368 . S
C1180 C1174 1.368 . S
C1180 C1179 1.523 . S
C1181 C1165 1.429 . S
C1181 C1177 1.429 . S
C1181 C1182 1.523 . S
C1182 C1166 1.368 . S
C1182 C1178 1.368 . S
C1182 C1181 1.523 . S
H1183 C1158 0.950 . S
H1184 C1160 0.950 . S
H1185 C1161 0.949 . S
H1186 C1163 0.950 . S
H1187 C1165 0.950 . S
C1188 C1189 1.349 . S
C1188 C1190 1.327 . S
C1188 H1213 0.950 . S
C1189 C1188 1.349 . S
C1189 C1205 1.349 . S
C1190 C1188 1.327 . S
C1190 C1209 1.429 . S
C1190 H1214 0.950 . S
C1191 C1208 1.574 . S
C1191 C1210 1.368 . S
C1191 H1215 0.949 . S
H1192 C1196 0.949 . S
C1193 C1194 1.349 . S
C1193 C1195 1.327 . S
C1193 H1216 0.950 . S
C1194 C1193 1.349 . S
C1194 C1206 1.349 . S
C1195 C1193 1.327 . S
C1195 C1211 1.429 . S
C1195 H1217 0.950 . S
C1196 H1192 0.949 . S
C1196 C1204 1.574 . S
C1196 C1212 1.368 . S
H1197 C1205 0.950 . S
H1198 C1203 0.950 . S
H1199 C1204 0.949 . S
H1200 C1206 0.950 . S
H1201 C1207 0.950 . S
H1202 C1208 0.949 . S
C1203 H1198 0.950 . S
C1203 C1205 1.327 . S
C1203 C1209 1.429 . S
C1204 C1196 1.574 . S
C1204 H1199 0.949 . S
C1204 C1210 1.368 . S
C1205 C1189 1.349 . S
C1205 H1197 0.950 . S
C1205 C1203 1.327 . S
C1206 C1194 1.349 . S
C1206 H1200 0.950 . S
C1206 C1207 1.327 . S
C1207 H1201 0.950 . S
C1207 C1206 1.327 . S
C1207 C1211 1.429 . S
C1208 C1191 1.574 . S
C1208 H1202 0.949 . S
C1208 C1212 1.368 . S
C1209 C1190 1.429 . S
C1209 C1203 1.429 . S
C1209 C1210 1.523 . S
C1210 C1191 1.368 . S
C1210 C1204 1.368 . S
C1210 C1209 1.523 . S
C1211 C1195 1.429 . S
C1211 C1207 1.429 . S
C1211 C1212 1.523 . S
C1212 C1196 1.368 . S
C1212 C1208 1.368 . S
C1212 C1211 1.523 . S
H1213 C1188 0.950 . S
H1214 C1190 0.950 . S
H1215 C1191 0.949 . S
H1216 C1193 0.950 . S
H1217 C1195 0.950 . S
C1218 C1219 1.349 . S
C1218 C1220 1.327 . S
C1218 H1243 0.950 . S
C1219 C1218 1.349 . S
C1219 C1235 1.349 . S
C1220 C1218 1.327 . S
C1220 C1239 1.429 . S
C1220 H1244 0.950 . S
C1221 C1238 1.574 . S
C1221 C1240 1.368 . S
C1221 H1245 0.949 . S
H1222 C1226 0.949 . S
C1223 C1224 1.349 . S
C1223 C1225 1.327 . S
C1223 H1246 0.950 . S
C1224 C1223 1.349 . S
C1224 C1236 1.349 . S
C1225 C1223 1.327 . S
C1225 C1241 1.429 . S
C1225 H1247 0.950 . S
C1226 H1222 0.949 . S
C1226 C1234 1.574 . S
C1226 C1242 1.368 . S
H1227 C1235 0.950 . S
H1228 C1233 0.950 . S
H1229 C1234 0.949 . S
H1230 C1236 0.950 . S
H1231 C1237 0.950 . S
H1232 C1238 0.949 . S
C1233 H1228 0.950 . S
C1233 C1235 1.327 . S
C1233 C1239 1.429 . S
C1234 C1226 1.574 . S
C1234 H1229 0.949 . S
C1234 C1240 1.368 . S
C1235 C1219 1.349 . S
C1235 H1227 0.950 . S
C1235 C1233 1.327 . S
C1236 C1224 1.349 . S
C1236 H1230 0.950 . S
C1236 C1237 1.327 . S
C1237 H1231 0.950 . S
C1237 C1236 1.327 . S
C1237 C1241 1.429 . S
C1238 C1221 1.574 . S
C1238 H1232 0.949 . S
C1238 C1242 1.368 . S
C1239 C1220 1.429 . S
C1239 C1233 1.429 . S
C1239 C1240 1.523 . S
C1240 C1221 1.368 . S
C1240 C1234 1.368 . S
C1240 C1239 1.523 . S
C1241 C1225 1.429 . S
C1241 C1237 1.429 . S
C1241 C1242 1.523 . S
C1242 C1226 1.368 . S
C1242 C1238 1.368 . S
C1242 C1241 1.523 . S
H1243 C1218 0.950 . S
H1244 C1220 0.950 . S
H1245 C1221 0.949 . S
H1246 C1223 0.950 . S
H1247 C1225 0.950 . S
C1248 C1249 1.349 . S
C1248 C1250 1.327 1_554 S
C1248 H1273 0.950 1_554 S
C1249 C1248 1.349 . S
C1249 C1265 1.349 . S
C1250 C1248 1.327 1_556 S
C1250 C1269 1.429 1_556 S
C1250 H1274 0.950 . S
C1251 C1268 1.574 1_545 S
C1251 C1270 1.368 . S
C1251 H1275 0.949 . S
H1252 C1256 0.949 . S
C1253 C1254 1.349 . S
C1253 C1255 1.327 1_556 S
C1253 H1276 0.950 1_556 S
C1254 C1253 1.349 . S
C1254 C1266 1.349 . S
C1255 C1253 1.327 1_554 S
C1255 C1271 1.429 1_554 S
C1255 H1277 0.950 . S
C1256 H1252 0.949 . S
C1256 C1264 1.574 1_565 S
C1256 C1272 1.368 . S
H1257 C1265 0.950 . S
H1258 C1263 0.950 . S
H1259 C1264 0.949 . S
H1260 C1266 0.950 . S
H1261 C1267 0.950 . S
H1262 C1268 0.949 . S
C1263 H1258 0.950 . S
C1263 C1265 1.327 . S
C1263 C1269 1.429 . S
C1264 C1256 1.574 1_545 S
C1264 H1259 0.949 . S
C1264 C1270 1.368 1_556 S
C1265 C1249 1.349 . S
C1265 H1257 0.950 . S
C1265 C1263 1.327 . S
C1266 C1254 1.349 . S
C1266 H1260 0.950 . S
C1266 C1267 1.327 . S
C1267 H1261 0.950 . S
C1267 C1266 1.327 . S
C1267 C1271 1.429 . S
C1268 C1251 1.574 1_565 S
C1268 H1262 0.949 . S
C1268 C1272 1.368 1_554 S
C1269 C1250 1.429 1_554 S
C1269 C1263 1.429 . S
C1269 C1270 1.523 . S
C1270 C1251 1.368 . S
C1270 C1264 1.368 1_554 S
C1270 C1269 1.523 . S
C1271 C1255 1.429 1_556 S
C1271 C1267 1.429 . S
C1271 C1272 1.523 . S
C1272 C1256 1.368 . S
C1272 C1268 1.368 1_556 S
C1272 C1271 1.523 . S
H1273 C1248 0.950 1_556 S
H1274 C1250 0.950 . S
H1275 C1251 0.949 . S
H1276 C1253 0.950 1_554 S
H1277 C1255 0.950 . S
C1278 C1279 1.349 . S
C1278 C1280 1.327 . S
C1278 H1303 0.950 . S
C1279 C1278 1.349 . S
C1279 C1295 1.349 . S
C1280 C1278 1.327 . S
C1280 C1299 1.429 . S
C1280 H1304 0.950 1_556 S
C1281 C1298 1.574 1_455 S
C1281 C1300 1.368 . S
C1281 H1305 0.949 . S
H1282 C1286 0.949 . S
C1283 C1284 1.349 . S
C1283 C1285 1.327 . S
C1283 H1306 0.950 . S
C1284 C1283 1.349 . S
C1284 C1296 1.349 . S
C1285 C1283 1.327 . S
C1285 C1301 1.429 . S
C1285 H1307 0.950 1_554 S
C1286 H1282 0.949 . S
C1286 C1294 1.574 1_655 S
C1286 C1302 1.368 . S
H1287 C1295 0.950 . S
H1288 C1293 0.950 . S
H1289 C1294 0.949 . S
H1290 C1296 0.950 . S
H1291 C1297 0.950 . S
H1292 C1298 0.949 . S
C1293 H1288 0.950 . S
C1293 C1295 1.327 . S
C1293 C1299 1.429 . S
C1294 C1286 1.574 1_455 S
C1294 H1289 0.949 . S
C1294 C1300 1.368 1_554 S
C1295 C1279 1.349 . S
C1295 H1287 0.950 . S
C1295 C1293 1.327 . S
C1296 C1284 1.349 . S
C1296 H1290 0.950 . S
C1296 C1297 1.327 . S
C1297 H1291 0.950 . S
C1297 C1296 1.327 . S
C1297 C1301 1.429 . S
C1298 C1281 1.574 1_655 S
C1298 H1292 0.949 . S
C1298 C1302 1.368 1_556 S
C1299 C1280 1.429 . S
C1299 C1293 1.429 . S
C1299 C1300 1.523 . S
C1300 C1281 1.368 . S
C1300 C1294 1.368 1_556 S
C1300 C1299 1.523 . S
C1301 C1285 1.429 . S
C1301 C1297 1.429 . S
C1301 C1302 1.523 . S
C1302 C1286 1.368 . S
C1302 C1298 1.368 1_554 S
C1302 C1301 1.523 . S
H1303 C1278 0.950 . S
H1304 C1280 0.950 1_554 S
H1305 C1281 0.949 . S
H1306 C1283 0.950 . S
H1307 C1285 0.950 1_556 S
C1308 C1309 1.349 . S
C1308 C1310 1.327 1_554 S
C1308 H1333 0.950 1_554 S
C1309 C1308 1.349 . S
C1309 C1325 1.349 . S
C1310 C1308 1.327 1_556 S
C1310 C1329 1.429 1_556 S
C1310 H1334 0.950 . S
C1311 C1328 1.574 1_565 S
C1311 C1330 1.368 . S
C1311 H1335 0.949 . S
H1312 C1316 0.949 . S
C1313 C1314 1.349 . S
C1313 C1315 1.327 1_556 S
C1313 H1336 0.950 1_556 S
C1314 C1313 1.349 . S
C1314 C1326 1.349 . S
C1315 C1313 1.327 1_554 S
C1315 C1331 1.429 1_554 S
C1315 H1337 0.950 . S
C1316 H1312 0.949 . S
C1316 C1324 1.574 1_545 S
C1316 C1332 1.368 . S
H1317 C1325 0.950 . S
H1318 C1323 0.950 . S
H1319 C1324 0.949 . S
H1320 C1326 0.950 . S
H1321 C1327 0.950 . S
H1322 C1328 0.949 . S
C1323 H1318 0.950 . S
C1323 C1325 1.327 . S
C1323 C1329 1.429 . S
C1324 C1316 1.574 1_565 S
C1324 H1319 0.949 . S
C1324 C1330 1.368 1_556 S
C1325 C1309 1.349 . S
C1325 H1317 0.950 . S
C1325 C1323 1.327 . S
C1326 C1314 1.349 . S
C1326 H1320 0.950 . S
C1326 C1327 1.327 . S
C1327 H1321 0.950 . S
C1327 C1326 1.327 . S
C1327 C1331 1.429 . S
C1328 C1311 1.574 1_545 S
C1328 H1322 0.949 . S
C1328 C1332 1.368 1_554 S
C1329 C1310 1.429 1_554 S
C1329 C1323 1.429 . S
C1329 C1330 1.523 . S
C1330 C1311 1.368 . S
C1330 C1324 1.368 1_554 S
C1330 C1329 1.523 . S
C1331 C1315 1.429 1_556 S
C1331 C1327 1.429 . S
C1331 C1332 1.523 . S
C1332 C1316 1.368 . S
C1332 C1328 1.368 1_556 S
C1332 C1331 1.523 . S
H1333 C1308 0.950 1_556 S
H1334 C1310 0.950 . S
H1335 C1311 0.949 . S
H1336 C1313 0.950 1_554 S
H1337 C1315 0.950 . S
C1338 C1339 1.349 . S
C1338 C1340 1.327 . S
C1338 H1363 0.950 . S
C1339 C1338 1.349 . S
C1339 C1355 1.349 . S
C1340 C1338 1.327 . S
C1340 C1359 1.429 . S
C1340 H1364 0.950 1_556 S
C1341 C1358 1.574 1_655 S
C1341 C1360 1.368 . S
C1341 H1365 0.949 . S
H1342 C1346 0.949 . S
C1343 C1344 1.349 . S
C1343 C1345 1.327 . S
C1343 H1366 0.950 . S
C1344 C1343 1.349 . S
C1344 C1356 1.349 . S
C1345 C1343 1.327 . S
C1345 C1361 1.429 . S
C1345 H1367 0.950 1_554 S
C1346 H1342 0.949 . S
C1346 C1354 1.574 1_455 S
C1346 C1362 1.368 . S
H1347 C1355 0.950 . S
H1348 C1353 0.950 . S
H1349 C1354 0.949 . S
H1350 C1356 0.950 . S
H1351 C1357 0.950 . S
H1352 C1358 0.949 . S
C1353 H1348 0.950 . S
C1353 C1355 1.327 . S
C1353 C1359 1.429 . S
C1354 C1346 1.574 1_655 S
C1354 H1349 0.949 . S
C1354 C1360 1.368 1_554 S
C1355 C1339 1.349 . S
C1355 H1347 0.950 . S
C1355 C1353 1.327 . S
C1356 C1344 1.349 . S
C1356 H1350 0.950 . S
C1356 C1357 1.327 . S
C1357 H1351 0.950 . S
C1357 C1356 1.327 . S
C1357 C1361 1.429 . S
C1358 C1341 1.574 1_455 S
C1358 H1352 0.949 . S
C1358 C1362 1.368 1_556 S
C1359 C1340 1.429 . S
C1359 C1353 1.429 . S
C1359 C1360 1.523 . S
C1360 C1341 1.368 . S
C1360 C1354 1.368 1_556 S
C1360 C1359 1.523 . S
C1361 C1345 1.429 . S
C1361 C1357 1.429 . S
C1361 C1362 1.523 . S
C1362 C1346 1.368 . S
C1362 C1358 1.368 1_554 S
C1362 C1361 1.523 . S
H1363 C1338 0.950 . S
H1364 C1340 0.950 1_554 S
H1365 C1341 0.949 . S
H1366 C1343 0.950 . S
H1367 C1345 0.950 1_556 S
C1368 C1369 1.349 . S
C1368 C1370 1.327 . S
C1368 H1393 0.950 . S
C1369 C1368 1.349 . S
C1369 C1385 1.349 . S
C1370 C1368 1.327 . S
C1370 C1389 1.429 . S
C1370 H1394 0.950 . S
C1371 C1388 1.574 . S
C1371 C1390 1.368 . S
C1371 H1395 0.949 . S
H1372 C1376 0.949 . S
C1373 C1374 1.349 . S
C1373 C1375 1.327 . S
C1373 H1396 0.950 . S
C1374 C1373 1.349 . S
C1374 C1386 1.349 . S
C1375 C1373 1.327 . S
C1375 C1391 1.429 . S
C1375 H1397 0.950 . S
C1376 H1372 0.949 . S
C1376 C1384 1.574 . S
C1376 C1392 1.368 . S
H1377 C1385 0.950 . S
H1378 C1383 0.950 . S
H1379 C1384 0.949 . S
H1380 C1386 0.950 . S
H1381 C1387 0.950 . S
H1382 C1388 0.949 . S
C1383 H1378 0.950 . S
C1383 C1385 1.327 . S
C1383 C1389 1.429 . S
C1384 C1376 1.574 . S
C1384 H1379 0.949 . S
C1384 C1390 1.368 . S
C1385 C1369 1.349 . S
C1385 H1377 0.950 . S
C1385 C1383 1.327 . S
C1386 C1374 1.349 . S
C1386 H1380 0.950 . S
C1386 C1387 1.327 . S
C1387 H1381 0.950 . S
C1387 C1386 1.327 . S
C1387 C1391 1.429 . S
C1388 C1371 1.574 . S
C1388 H1382 0.949 . S
C1388 C1392 1.368 . S
C1389 C1370 1.429 . S
C1389 C1383 1.429 . S
C1389 C1390 1.523 . S
C1390 C1371 1.368 . S
C1390 C1384 1.368 . S
C1390 C1389 1.523 . S
C1391 C1375 1.429 . S
C1391 C1387 1.429 . S
C1391 C1392 1.523 . S
C1392 C1376 1.368 . S
C1392 C1388 1.368 . S
C1392 C1391 1.523 . S
H1393 C1368 0.950 . S
H1394 C1370 0.950 . S
H1395 C1371 0.949 . S
H1396 C1373 0.950 . S
H1397 C1375 0.950 . S
C1398 C1399 1.349 . S
C1398 C1400 1.327 . S
C1398 H1423 0.950 . S
C1399 C1398 1.349 . S
C1399 C1415 1.349 . S
C1400 C1398 1.327 . S
C1400 C1419 1.429 . S
C1400 H1424 0.950 . S
C1401 C1418 1.574 . S
C1401 C1420 1.368 . S
C1401 H1425 0.949 . S
H1402 C1406 0.949 . S
C1403 C1404 1.349 . S
C1403 C1405 1.327 . S
C1403 H1426 0.950 . S
C1404 C1403 1.349 . S
C1404 C1416 1.349 . S
C1405 C1403 1.327 . S
C1405 C1421 1.429 . S
C1405 H1427 0.950 . S
C1406 H1402 0.949 . S
C1406 C1414 1.574 . S
C1406 C1422 1.368 . S
H1407 C1415 0.950 . S
H1408 C1413 0.950 . S
H1409 C1414 0.949 . S
H1410 C1416 0.950 . S
H1411 C1417 0.950 . S
H1412 C1418 0.949 . S
C1413 H1408 0.950 . S
C1413 C1415 1.327 . S
C1413 C1419 1.429 . S
C1414 C1406 1.574 . S
C1414 H1409 0.949 . S
C1414 C1420 1.368 . S
C1415 C1399 1.349 . S
C1415 H1407 0.950 . S
C1415 C1413 1.327 . S
C1416 C1404 1.349 . S
C1416 H1410 0.950 . S
C1416 C1417 1.327 . S
C1417 H1411 0.950 . S
C1417 C1416 1.327 . S
C1417 C1421 1.429 . S
C1418 C1401 1.574 . S
C1418 H1412 0.949 . S
C1418 C1422 1.368 . S
C1419 C1400 1.429 . S
C1419 C1413 1.429 . S
C1419 C1420 1.523 . S
C1420 C1401 1.368 . S
C1420 C1414 1.368 . S
C1420 C1419 1.523 . S
C1421 C1405 1.429 . S
C1421 C1417 1.429 . S
C1421 C1422 1.523 . S
C1422 C1406 1.368 . S
C1422 C1418 1.368 . S
C1422 C1421 1.523 . S
H1423 C1398 0.950 . S
H1424 C1400 0.950 . S
H1425 C1401 0.949 . S
H1426 C1403 0.950 . S
H1427 C1405 0.950 . S
C1428 C1429 1.349 . S
C1428 C1430 1.327 . S
C1428 H1453 0.950 . S
C1429 C1428 1.349 . S
C1429 C1445 1.349 . S
C1430 C1428 1.327 . S
C1430 C1449 1.429 . S
C1430 H1454 0.950 . S
C1431 C1448 1.574 . S
C1431 C1450 1.368 . S
C1431 H1455 0.949 . S
H1432 C1436 0.949 . S
C1433 C1434 1.349 . S
C1433 C1435 1.327 . S
C1433 H1456 0.950 . S
C1434 C1433 1.349 . S
C1434 C1446 1.349 . S
C1435 C1433 1.327 . S
C1435 C1451 1.429 . S
C1435 H1457 0.950 . S
C1436 H1432 0.949 . S
C1436 C1444 1.574 . S
C1436 C1452 1.368 . S
H1437 C1445 0.950 . S
H1438 C1443 0.950 . S
H1439 C1444 0.949 . S
H1440 C1446 0.950 . S
H1441 C1447 0.950 . S
H1442 C1448 0.949 . S
C1443 H1438 0.950 . S
C1443 C1445 1.327 . S
C1443 C1449 1.429 . S
C1444 C1436 1.574 . S
C1444 H1439 0.949 . S
C1444 C1450 1.368 . S
C1445 C1429 1.349 . S
C1445 H1437 0.950 . S
C1445 C1443 1.327 . S
C1446 C1434 1.349 . S
C1446 H1440 0.950 . S
C1446 C1447 1.327 . S
C1447 H1441 0.950 . S
C1447 C1446 1.327 . S
C1447 C1451 1.429 . S
C1448 C1431 1.574 . S
C1448 H1442 0.949 . S
C1448 C1452 1.368 . S
C1449 C1430 1.429 . S
C1449 C1443 1.429 . S
C1449 C1450 1.523 . S
C1450 C1431 1.368 . S
C1450 C1444 1.368 . S
C1450 C1449 1.523 . S
C1451 C1435 1.429 . S
C1451 C1447 1.429 . S
C1451 C1452 1.523 . S
C1452 C1436 1.368 . S
C1452 C1448 1.368 . S
C1452 C1451 1.523 . S
H1453 C1428 0.950 . S
H1454 C1430 0.950 . S
H1455 C1431 0.949 . S
H1456 C1433 0.950 . S
H1457 C1435 0.950 . S
C1458 C1459 1.349 . S
C1458 C1460 1.327 . S
C1458 H1483 0.950 . S
C1459 C1458 1.349 . S
C1459 C1475 1.349 . S
C1460 C1458 1.327 . S
C1460 C1479 1.429 . S
C1460 H1484 0.950 . S
C1461 C1478 1.574 . S
C1461 C1480 1.368 . S
C1461 H1485 0.949 . S
H1462 C1466 0.949 . S
C1463 C1464 1.349 . S
C1463 C1465 1.327 . S
C1463 H1486 0.950 . S
C1464 C1463 1.349 . S
C1464 C1476 1.349 . S
C1465 C1463 1.327 . S
C1465 C1481 1.429 . S
C1465 H1487 0.950 . S
C1466 H1462 0.949 . S
C1466 C1474 1.574 . S
C1466 C1482 1.368 . S
H1467 C1475 0.950 . S
H1468 C1473 0.950 . S
H1469 C1474 0.949 . S
H1470 C1476 0.950 . S
H1471 C1477 0.950 . S
H1472 C1478 0.949 . S
C1473 H1468 0.950 . S
C1473 C1475 1.327 . S
C1473 C1479 1.429 . S
C1474 C1466 1.574 . S
C1474 H1469 0.949 . S
C1474 C1480 1.368 . S
C1475 C1459 1.349 . S
C1475 H1467 0.950 . S
C1475 C1473 1.327 . S
C1476 C1464 1.349 . S
C1476 H1470 0.950 . S
C1476 C1477 1.327 . S
C1477 H1471 0.950 . S
C1477 C1476 1.327 . S
C1477 C1481 1.429 . S
C1478 C1461 1.574 . S
C1478 H1472 0.949 . S
C1478 C1482 1.368 . S
C1479 C1460 1.429 . S
C1479 C1473 1.429 . S
C1479 C1480 1.523 . S
C1480 C1461 1.368 . S
C1480 C1474 1.368 . S
C1480 C1479 1.523 . S
C1481 C1465 1.429 . S
C1481 C1477 1.429 . S
C1481 C1482 1.523 . S
C1482 C1466 1.368 . S
C1482 C1478 1.368 . S
C1482 C1481 1.523 . S
H1483 C1458 0.950 . S
H1484 C1460 0.950 . S
H1485 C1461 0.949 . S
H1486 C1463 0.950 . S
H1487 C1465 0.950 . S
C1488 C1489 1.349 . S
C1488 C1490 1.327 . S
C1488 H1513 0.950 . S
C1489 C1488 1.349 . S
C1489 C1505 1.349 . S
C1490 C1488 1.327 . S
C1490 C1509 1.429 . S
C1490 H1514 0.950 . S
C1491 C1508 1.574 . S
C1491 C1510 1.368 1_556 S
C1491 H1515 0.949 . S
H1492 C1496 0.949 . S
C1493 C1494 1.349 . S
C1493 C1495 1.327 . S
C1493 H1516 0.950 . S
C1494 C1493 1.349 . S
C1494 C1506 1.349 . S
C1495 C1493 1.327 . S
C1495 C1511 1.429 . S
C1495 H1517 0.950 . S
C1496 H1492 0.949 . S
C1496 C1504 1.574 . S
C1496 C1512 1.368 1_554 S
H1497 C1505 0.956 . S
H1498 C1503 0.950 1_556 S
H1499 C1504 0.949 . S
H1500 C1506 0.956 . S
H1501 C1507 0.950 1_554 S
H1502 C1508 0.949 . S
C1503 H1498 0.950 1_554 S
C1503 C1505 1.327 . S
C1503 C1509 1.429 . S
C1504 C1496 1.574 . S
C1504 H1499 0.949 . S
C1504 C1510 1.368 . S
C1505 C1489 1.349 . S
C1505 H1497 0.956 . S
C1505 C1503 1.327 . S
C1506 C1494 1.349 . S
C1506 H1500 0.956 . S
C1506 C1507 1.327 . S
C1507 H1501 0.950 1_556 S
C1507 C1506 1.327 . S
C1507 C1511 1.429 . S
C1508 C1491 1.574 . S
C1508 H1502 0.949 . S
C1508 C1512 1.368 . S
C1509 C1490 1.429 . S
C1509 C1503 1.429 . S
C1509 C1510 1.523 . S
C1510 C1491 1.368 1_554 S
C1510 C1504 1.368 . S
C1510 C1509 1.523 . S
C1511 C1495 1.429 . S
C1511 C1507 1.429 . S
C1511 C1512 1.523 . S
C1512 C1496 1.368 1_556 S
C1512 C1508 1.368 . S
C1512 C1511 1.523 . S
H1513 C1488 0.950 . S
H1514 C1490 0.950 . S
H1515 C1491 0.949 . S
H1516 C1493 0.950 . S
H1517 C1495 0.950 . S
C1518 C1519 1.349 . S
C1518 C1520 1.327 . S
C1518 H1543 0.950 . S
C1519 C1518 1.349 . S
C1519 C1535 1.349 1_554 S
C1520 C1518 1.327 . S
C1520 C1539 1.429 . S
C1520 H1544 0.950 . S
C1521 C1538 1.574 . S
C1521 C1540 1.368 1_556 S
C1521 H1545 0.949 . S
H1522 C1526 0.949 . S
C1523 C1524 1.349 . S
C1523 C1525 1.327 . S
C1523 H1546 0.950 . S
C1524 C1523 1.349 . S
C1524 C1536 1.349 1_556 S
C1525 C1523 1.327 . S
C1525 C1541 1.429 . S
C1525 H1547 0.950 . S
C1526 H1522 0.949 . S
C1526 C1534 1.574 . S
C1526 C1542 1.368 1_554 S
H1527 C1535 0.950 . S
H1528 C1533 0.950 . S
H1529 C1534 0.949 . S
H1530 C1536 0.950 . S
H1531 C1537 0.950 . S
H1532 C1538 0.949 . S
C1533 H1528 0.950 . S
C1533 C1535 1.327 . S
C1533 C1539 1.429 1_556 S
C1534 C1526 1.574 . S
C1534 H1529 0.949 . S
C1534 C1540 1.368 . S
C1535 C1519 1.349 1_556 S
C1535 H1527 0.950 . S
C1535 C1533 1.327 . S
C1536 C1524 1.349 1_554 S
C1536 H1530 0.950 . S
C1536 C1537 1.327 . S
C1537 H1531 0.950 . S
C1537 C1536 1.327 . S
C1537 C1541 1.429 1_554 S
C1538 C1521 1.574 . S
C1538 H1532 0.949 . S
C1538 C1542 1.368 . S
C1539 C1520 1.429 . S
C1539 C1533 1.429 1_554 S
C1539 C1540 1.523 . S
C1540 C1521 1.368 1_554 S
C1540 C1534 1.368 . S
C1540 C1539 1.523 . S
C1541 C1525 1.429 . S
C1541 C1537 1.429 1_556 S
C1541 C1542 1.523 . S
C1542 C1526 1.368 1_556 S
C1542 C1538 1.368 . S
C1542 C1541 1.523 . S
H1543 C1518 0.950 . S
H1544 C1520 0.950 . S
H1545 C1521 0.949 . S
H1546 C1523 0.950 . S
H1547 C1525 0.950 . S
C1548 C1549 1.349 . S
C1548 C1550 1.327 . S
C1548 H1573 0.950 . S
C1549 C1548 1.349 . S
C1549 C1565 1.349 . S
C1550 C1548 1.327 . S
C1550 C1569 1.429 . S
C1550 H1574 0.950 1_556 S
C1551 C1568 1.574 . S
C1551 C1570 1.368 . S
C1551 H1575 0.949 . S
H1552 C1556 0.949 . S
C1553 C1554 1.349 . S
C1553 C1555 1.327 . S
C1553 H1576 0.950 . S
C1554 C1553 1.349 . S
C1554 C1566 1.349 . S
C1555 C1553 1.327 . S
C1555 C1571 1.429 . S
C1555 H1577 0.950 1_554 S
C1556 H1552 0.949 . S
C1556 C1564 1.574 . S
C1556 C1572 1.368 . S
H1557 C1565 0.950 . S
H1558 C1563 0.950 . S
H1559 C1564 0.949 . S
H1560 C1566 0.950 . S
H1561 C1567 0.950 . S
H1562 C1568 0.949 . S
C1563 H1558 0.950 . S
C1563 C1565 1.327 . S
C1563 C1569 1.429 . S
C1564 C1556 1.574 . S
C1564 H1559 0.949 . S
C1564 C1570 1.368 1_554 S
C1565 C1549 1.349 . S
C1565 H1557 0.950 . S
C1565 C1563 1.327 . S
C1566 C1554 1.349 . S
C1566 H1560 0.950 . S
C1566 C1567 1.327 . S
C1567 H1561 0.950 . S
C1567 C1566 1.327 . S
C1567 C1571 1.429 . S
C1568 C1551 1.574 . S
C1568 H1562 0.949 . S
C1568 C1572 1.368 1_556 S
C1569 C1550 1.429 . S
C1569 C1563 1.429 . S
C1569 C1570 1.523 . S
C1570 C1551 1.368 . S
C1570 C1564 1.368 1_556 S
C1570 C1569 1.523 . S
C1571 C1555 1.429 . S
C1571 C1567 1.429 . S
C1571 C1572 1.523 . S
C1572 C1556 1.368 . S
C1572 C1568 1.368 1_554 S
C1572 C1571 1.523 . S
H1573 C1548 0.950 . S
H1574 C1550 0.950 1_554 S
H1575 C1551 0.949 . S
H1576 C1553 0.950 . S
H1577 C1555 0.950 1_556 S
C1578 C1579 1.349 . S
C1578 C1580 1.327 . S
C1578 H1603 0.950 . S
C1579 C1578 1.349 . S
C1579 C1595 1.349 . S
C1580 C1578 1.327 . S
C1580 C1599 1.429 . S
C1580 H1604 0.950 . S
C1581 C1598 1.574 . S
C1581 C1600 1.368 1_556 S
C1581 H1605 0.949 . S
H1582 C1586 0.949 . S
C1583 C1584 1.349 . S
C1583 C1585 1.327 . S
C1583 H1606 0.950 . S
C1584 C1583 1.349 . S
C1584 C1596 1.349 . S
C1585 C1583 1.327 . S
C1585 C1601 1.429 . S
C1585 H1607 0.950 . S
C1586 H1582 0.949 . S
C1586 C1594 1.574 . S
C1586 C1602 1.368 1_554 S
H1587 C1595 0.950 . S
H1588 C1593 0.950 1_556 S
H1589 C1594 0.949 . S
H1590 C1596 0.950 . S
H1591 C1597 0.950 1_554 S
H1592 C1598 0.949 . S
C1593 H1588 0.950 1_554 S
C1593 C1595 1.327 . S
C1593 C1599 1.429 . S
C1594 C1586 1.574 . S
C1594 H1589 0.949 . S
C1594 C1600 1.368 . S
C1595 C1579 1.349 . S
C1595 H1587 0.950 . S
C1595 C1593 1.327 . S
C1596 C1584 1.349 . S
C1596 H1590 0.950 . S
C1596 C1597 1.327 . S
C1597 H1591 0.950 1_556 S
C1597 C1596 1.327 . S
C1597 C1601 1.429 . S
C1598 C1581 1.574 . S
C1598 H1592 0.949 . S
C1598 C1602 1.368 . S
C1599 C1580 1.429 . S
C1599 C1593 1.429 . S
C1599 C1600 1.523 . S
C1600 C1581 1.368 1_554 S
C1600 C1594 1.368 . S
C1600 C1599 1.523 . S
C1601 C1585 1.429 . S
C1601 C1597 1.429 . S
C1601 C1602 1.523 . S
C1602 C1586 1.368 1_556 S
C1602 C1598 1.368 . S
C1602 C1601 1.523 . S
H1603 C1578 0.950 . S
H1604 C1580 0.950 . S
H1605 C1581 0.949 . S
H1606 C1583 0.950 . S
H1607 C1585 0.950 . S
C1608 C1609 1.349 . S
C1608 C1610 1.327 . S
C1608 H1633 0.950 . S
C1609 C1608 1.349 . S
C1609 C1625 1.349 . S
C1610 C1608 1.327 . S
C1610 C1629 1.429 . S
C1610 H1634 0.950 . S
C1611 C1628 1.574 . S
C1611 C1630 1.368 . S
C1611 H1635 0.949 . S
H1612 C1616 0.949 . S
C1613 C1614 1.349 . S
C1613 C1615 1.327 . S
C1613 H1636 0.950 . S
C1614 C1613 1.349 . S
C1614 C1626 1.349 . S
C1615 C1613 1.327 . S
C1615 C1631 1.429 . S
C1615 H1637 0.950 . S
C1616 H1612 0.949 . S
C1616 C1624 1.574 . S
C1616 C1632 1.368 . S
H1617 C1625 0.950 . S
H1618 C1623 0.950 . S
H1619 C1624 0.949 . S
H1620 C1626 0.950 . S
H1621 C1627 0.950 . S
H1622 C1628 0.949 . S
C1623 H1618 0.950 . S
C1623 C1625 1.327 . S
C1623 C1629 1.429 . S
C1624 C1616 1.574 . S
C1624 H1619 0.949 . S
C1624 C1630 1.368 . S
C1625 C1609 1.349 . S
C1625 H1617 0.950 . S
C1625 C1623 1.327 . S
C1626 C1614 1.349 . S
C1626 H1620 0.950 . S
C1626 C1627 1.327 . S
C1627 H1621 0.950 . S
C1627 C1626 1.327 . S
C1627 C1631 1.429 . S
C1628 C1611 1.574 . S
C1628 H1622 0.949 . S
C1628 C1632 1.368 . S
C1629 C1610 1.429 . S
C1629 C1623 1.429 . S
C1629 C1630 1.523 . S
C1630 C1611 1.368 . S
C1630 C1624 1.368 . S
C1630 C1629 1.523 . S
C1631 C1615 1.429 . S
C1631 C1627 1.429 . S
C1631 C1632 1.523 . S
C1632 C1616 1.368 . S
C1632 C1628 1.368 . S
C1632 C1631 1.523 . S
H1633 C1608 0.950 . S
H1634 C1610 0.950 . S
H1635 C1611 0.949 . S
H1636 C1613 0.950 . S
H1637 C1615 0.950 . S
C1638 C1639 1.349 . S
C1638 C1640 1.327 . S
C1638 H1663 0.950 . S
C1639 C1638 1.349 . S
C1639 C1655 1.349 . S
C1640 C1638 1.327 . S
C1640 C1659 1.429 . S
C1640 H1664 0.950 . S
C1641 C1658 1.574 . S
C1641 C1660 1.368 . S
C1641 H1665 0.949 . S
H1642 C1646 0.949 . S
C1643 C1644 1.349 . S
C1643 C1645 1.327 . S
C1643 H1666 0.950 . S
C1644 C1643 1.349 . S
C1644 C1656 1.349 . S
C1645 C1643 1.327 . S
C1645 C1661 1.429 . S
C1645 H1667 0.950 . S
C1646 H1642 0.949 . S
C1646 C1654 1.574 . S
C1646 C1662 1.368 . S
H1647 C1655 0.950 . S
H1648 C1653 0.950 . S
H1649 C1654 0.949 . S
H1650 C1656 0.950 . S
H1651 C1657 0.950 . S
H1652 C1658 0.949 . S
C1653 H1648 0.950 . S
C1653 C1655 1.327 . S
C1653 C1659 1.429 . S
C1654 C1646 1.574 . S
C1654 H1649 0.949 . S
C1654 C1660 1.368 . S
C1655 C1639 1.349 . S
C1655 H1647 0.950 . S
C1655 C1653 1.327 . S
C1656 C1644 1.349 . S
C1656 H1650 0.950 . S
C1656 C1657 1.327 . S
C1657 H1651 0.950 . S
C1657 C1656 1.327 . S
C1657 C1661 1.429 . S
C1658 C1641 1.574 . S
C1658 H1652 0.949 . S
C1658 C1662 1.368 . S
C1659 C1640 1.429 . S
C1659 C1653 1.429 . S
C1659 C1660 1.523 . S
C1660 C1641 1.368 . S
C1660 C1654 1.368 . S
C1660 C1659 1.523 . S
C1661 C1645 1.429 . S
C1661 C1657 1.429 . S
C1661 C1662 1.523 . S
C1662 C1646 1.368 . S
C1662 C1658 1.368 . S
C1662 C1661 1.523 . S
H1663 C1638 0.950 . S
H1664 C1640 0.950 . S
H1665 C1641 0.949 . S
H1666 C1643 0.950 . S
H1667 C1645 0.950 . S
C1668 C1669 1.349 . S
C1668 C1670 1.327 . S
C1668 H1693 0.950 . S
C1669 C1668 1.349 . S
C1669 C1685 1.349 . S
C1670 C1668 1.327 . S
C1670 C1689 1.429 . S
C1670 H1694 0.950 . S
C1671 C1688 1.574 . S
C1671 C1690 1.368 . S
C1671 H1695 0.949 . S
H1672 C1676 0.949 . S
C1673 C1674 1.349 . S
C1673 C1675 1.327 . S
C1673 H1696 0.950 . S
C1674 C1673 1.349 . S
C1674 C1686 1.349 . S
C1675 C1673 1.327 . S
C1675 C1691 1.429 . S
C1675 H1697 0.950 . S
C1676 H1672 0.949 . S
C1676 C1684 1.574 . S
C1676 C1692 1.368 . S
H1677 C1685 0.950 . S
H1678 C1683 0.950 . S
H1679 C1684 0.949 . S
H1680 C1686 0.950 . S
H1681 C1687 0.950 . S
H1682 C1688 0.949 . S
C1683 H1678 0.950 . S
C1683 C1685 1.327 . S
C1683 C1689 1.429 . S
C1684 C1676 1.574 . S
C1684 H1679 0.949 . S
C1684 C1690 1.368 . S
C1685 C1669 1.349 . S
C1685 H1677 0.950 . S
C1685 C1683 1.327 . S
C1686 C1674 1.349 . S
C1686 H1680 0.950 . S
C1686 C1687 1.327 . S
C1687 H1681 0.950 . S
C1687 C1686 1.327 . S
C1687 C1691 1.429 . S
C1688 C1671 1.574 . S
C1688 H1682 0.949 . S
C1688 C1692 1.368 . S
C1689 C1670 1.429 . S
C1689 C1683 1.429 . S
C1689 C1690 1.523 . S
C1690 C1671 1.368 . S
C1690 C1684 1.368 . S
C1690 C1689 1.523 . S
C1691 C1675 1.429 . S
C1691 C1687 1.429 . S
C1691 C1692 1.523 . S
C1692 C1676 1.368 . S
C1692 C1688 1.368 . S
C1692 C1691 1.523 . S
H1693 C1668 0.950 . S
H1694 C1670 0.950 . S
H1695 C1671 0.949 . S
H1696 C1673 0.950 . S
H1697 C1675 0.950 . S
C1698 C1699 1.349 . S
C1698 C1700 1.327 . S
C1698 H1723 0.950 . S
C1699 C1698 1.349 . S
C1699 C1715 1.349 . S
C1700 C1698 1.327 . S
C1700 C1719 1.429 . S
C1700 H1724 0.950 . S
C1701 C1718 1.574 . S
C1701 C1720 1.368 . S
C1701 H1725 0.949 . S
H1702 C1706 0.949 . S
C1703 C1704 1.349 . S
C1703 C1705 1.327 . S
C1703 H1726 0.950 . S
C1704 C1703 1.349 . S
C1704 C1716 1.349 . S
C1705 C1703 1.327 . S
C1705 C1721 1.429 . S
C1705 H1727 0.950 . S
C1706 H1702 0.949 . S
C1706 C1714 1.574 . S
C1706 C1722 1.368 . S
H1707 C1715 0.950 . S
H1708 C1713 0.950 . S
H1709 C1714 0.949 . S
H1710 C1716 0.950 . S
H1711 C1717 0.950 . S
H1712 C1718 0.949 . S
C1713 H1708 0.950 . S
C1713 C1715 1.327 . S
C1713 C1719 1.429 . S
C1714 C1706 1.574 . S
C1714 H1709 0.949 . S
C1714 C1720 1.368 . S
C1715 C1699 1.349 . S
C1715 H1707 0.950 . S
C1715 C1713 1.327 . S
C1716 C1704 1.349 . S
C1716 H1710 0.950 . S
C1716 C1717 1.327 . S
C1717 H1711 0.950 . S
C1717 C1716 1.327 . S
C1717 C1721 1.429 . S
C1718 C1701 1.574 . S
C1718 H1712 0.949 . S
C1718 C1722 1.368 . S
C1719 C1700 1.429 . S
C1719 C1713 1.429 . S
C1719 C1720 1.523 . S
C1720 C1701 1.368 . S
C1720 C1714 1.368 . S
C1720 C1719 1.523 . S
C1721 C1705 1.429 . S
C1721 C1717 1.429 . S
C1721 C1722 1.523 . S
C1722 C1706 1.368 . S
C1722 C1718 1.368 . S
C1722 C1721 1.523 . S
H1723 C1698 0.950 . S
H1724 C1700 0.950 . S
H1725 C1701 0.949 . S
H1726 C1703 0.950 . S
H1727 C1705 0.950 . S
C529 N5 1.309 . S
C534 N14 1.307 . S
C559 N38 1.309 . S
C564 N47 1.307 . S
C589 N80 1.307 . S
C594 N71 1.309 . S
C619 N113 1.307 . S
C624 N104 1.309 . S
C649 N137 1.309 . S
C654 N146 1.307 . S
C679 N179 1.307 . S
C684 N170 1.309 . S
C709 N212 1.307 . S
C714 N203 1.309 . S
C739 N245 1.307 . S
C744 N236 1.309 . S
C769 N269 1.309 . S
C774 N278 1.307 . S
C799 N302 1.309 . S
C804 N311 1.307 . S
C829 N335 1.309 . S
C834 N344 1.307 . S
C859 N368 1.309 . S
C864 N377 1.307 . S
C889 N410 1.307 . S
C894 N401 1.309 . S
C919 N443 1.307 . S
C924 N434 1.309 . S
C949 N476 1.307 . S
C954 N467 1.309 . S
C979 N509 1.307 . S
C984 N500 1.309 . S
C1009 C8 1.265 . S
C1014 C503 1.265 . S
C1039 C404 1.265 . S
C1044 C41 1.265 . S
C1069 C437 1.265 . S
C1074 C74 1.265 . S
C1099 C470 1.265 . S
C1104 C107 1.265 . S
C1129 C305 1.265 . S
C1134 C140 1.265 . S
C1159 C173 1.265 . S
C1164 C338 1.265 . S
C1189 C206 1.265 . S
C1194 C371 1.265 . S
C1219 C272 1.265 . S
C1224 C239 1.265 . S
C1249 C28 0.971 . S
C1254 C160 0.971 . S
C1279 C193 0.971 . S
C1284 C61 0.971 . S
C1309 C94 0.971 . S
C1314 C226 0.971 . S
C1339 C259 0.971 . S
C1344 C127 0.971 . S
C1369 C424 0.971 . S
C1374 C292 0.971 . S
C1399 C325 0.971 . S
C1404 C457 0.971 . S
C1429 C358 0.971 . S
C1434 C490 0.971 . S
C1459 C391 0.971 . S
C1464 C523 0.971 . S
C1489 C17 1.503 . S
C1494 C182 1.503 . S
C1519 C50 1.503 . S
C1524 C215 1.503 . S
C1549 C248 1.503 . S
C1554 C83 1.503 . S
C1579 C116 1.503 . S
C1584 C149 1.503 . S
C1609 C446 1.503 . S
C1614 C281 1.503 . S
C1639 C314 1.503 . S
C1644 C479 1.503 . S
C1669 C512 1.503 . S
C1674 C347 1.503 . S
C1699 C413 1.503 . S
C1704 C380 1.503 . S
