# Generated by pormake.
# Topology xfu, (5)-cn, num edge types: 1
# Building blocks:
#     Node 0, Type 0, BuildingBlock: XOMCOT_clean_sbu_0, # of connection points: 5
#     Node 1, Type 0, BuildingBlock: XOMCOT_clean_sbu_0, # of connection points: 5
#     Node 2, Type 0, BuildingBlock: XOMCOT_clean_sbu_0, # of connection points: 5
#     Node 3, Type 0, BuildingBlock: XOMCOT_clean_sbu_0, # of connection points: 5
#     Node 4, Type 0, BuildingBlock: XOMCOT_clean_sbu_0, # of connection points: 5
#     Node 5, Type 0, BuildingBlock: XOMCOT_clean_sbu_0, # of connection points: 5
#     Node 6, Type 0, BuildingBlock: XOMCOT_clean_sbu_0, # of connection points: 5
#     Node 7, Type 0, BuildingBlock: XOMCOT_clean_sbu_0, # of connection points: 5
#     Edge 8, Type (0, 0), BuildingBlock: UVAHIK_clean_linker_0, # of connection points: 2
#     Edge 9, Type (0, 0), BuildingBlock: UVAHIK_clean_linker_0, # of connection points: 2
#     Edge 10, Type (0, 0), BuildingBlock: UVAHIK_clean_linker_0, # of connection points: 2
#     Edge 11, Type (0, 0), BuildingBlock: UVAHIK_clean_linker_0, # of connection points: 2
#     Edge 12, Type (0, 0), BuildingBlock: UVAHIK_clean_linker_0, # of connection points: 2
#     Edge 13, Type (0, 0), BuildingBlock: UVAHIK_clean_linker_0, # of connection points: 2
#     Edge 14, Type (0, 0), BuildingBlock: UVAHIK_clean_linker_0, # of connection points: 2
#     Edge 15, Type (0, 0), BuildingBlock: UVAHIK_clean_linker_0, # of connection points: 2
#     Edge 16, Type (0, 0), BuildingBlock: UVAHIK_clean_linker_0, # of connection points: 2
#     Edge 17, Type (0, 0), BuildingBlock: UVAHIK_clean_linker_0, # of connection points: 2
#     Edge 18, Type (0, 0), BuildingBlock: UVAHIK_clean_linker_0, # of connection points: 2
#     Edge 19, Type (0, 0), BuildingBlock: UVAHIK_clean_linker_0, # of connection points: 2
#     Edge 20, Type (0, 0), BuildingBlock: UVAHIK_clean_linker_0, # of connection points: 2
#     Edge 21, Type (0, 0), BuildingBlock: UVAHIK_clean_linker_0, # of connection points: 2
#     Edge 22, Type (0, 0), BuildingBlock: UVAHIK_clean_linker_0, # of connection points: 2
#     Edge 23, Type (0, 0), BuildingBlock: UVAHIK_clean_linker_0, # of connection points: 2
#     Edge 24, Type (0, 0), BuildingBlock: UVAHIK_clean_linker_0, # of connection points: 2
#     Edge 25, Type (0, 0), BuildingBlock: UVAHIK_clean_linker_0, # of connection points: 2
#     Edge 26, Type (0, 0), BuildingBlock: UVAHIK_clean_linker_0, # of connection points: 2
#     Edge 27, Type (0, 0), BuildingBlock: UVAHIK_clean_linker_0, # of connection points: 2
# Relax obj value: 0.392
# Max RMSD: 0.265
# Mean RMSD: 0.265
data_MOF--net-xfu--node1-XOMCOT_clean_sbu_0--edge1-UVAHIK_clean_linker_0
_symmetry_space_group_name_H-M    P1
_symmetry_Int_Tables_number       1
_symmetry_cell_setting            triclinic
loop_
_symmetry_equiv_pos_as_xyz
'x, y, z'
_cell_length_a     37.605776
_cell_length_b     37.49681
_cell_length_c     62.184556
_cell_angle_alpha  89.896887
_cell_angle_beta   89.862778
_cell_angle_gamma 89.719706
loop_
_atom_site_label
_atom_site_type_symbol
_atom_site_fract_x
_atom_site_fract_y
_atom_site_fract_z
_atom_type_partial_charge
Co0 Co 0.11068 0.23416 0.61986 0.0
C1 C 0.08918 0.16983 0.59662 0.0
C2 C 0.1178 0.15669 0.62542 0.0
C3 C 0.11026 0.12558 0.61465 0.0
N4 N 0.10453 0.18425 0.61405 0.0
N5 N 0.09237 0.13395 0.59651 0.0
H6 H 0.07747 0.18549 0.58381 0.0
H7 H 0.1329 0.15906 0.64011 0.0
C8 C 0.09793 0.24028 0.66734 0.0
O9 O 0.07763 0.26827 0.66371 0.0
N10 N 0.11832 0.28448 0.62584 0.0
C11 C 0.10645 0.31377 0.61535 0.0
C12 C 0.11904 0.34369 0.62556 0.0
C13 C 0.13964 0.29719 0.64145 0.0
N14 N 0.13973 0.33314 0.64206 0.0
C15 C 0.04354 0.25914 0.60397 0.0
C16 C 0.00187 0.22718 0.63507 0.0
C17 C 0.98597 0.2506 0.62035 0.0
C18 C 0.00707 0.26571 0.60419 0.0
C19 C 0.03856 0.22154 0.63428 0.0
N20 N 0.05926 0.23976 0.61993 0.0
H21 H 0.05902 0.26939 0.59077 0.0
H22 H 0.05025 0.20264 0.64534 0.0
H23 H 0.09038 0.3141 0.60107 0.0
H24 H 0.15388 0.28033 0.65267 0.0
O25 O 0.11989 0.24297 0.58973 0.0
O26 O 0.16069 0.22918 0.61417 0.0
O27 O 0.11203 0.22329 0.65165 0.0
C28 C 0.15313 0.23703 0.59429 0.0
H29 H 0.118 0.09898 0.6196 0.0
H30 H 0.11339 0.37108 0.62118 0.0
H31 H 0.9863 0.21394 0.64736 0.0
H32 H -0.00455 0.28227 0.59173 0.0
Co33 Co 0.80747 0.55924 0.11323 0.0
C34 C 0.87179 0.53576 0.08931 0.0
C35 C 0.85243 0.49574 0.11103 0.0
C36 C 0.88108 0.48191 0.0999 0.0
N37 N 0.84668 0.52943 0.10433 0.0
N38 N 0.89319 0.50722 0.08634 0.0
H39 H 0.87365 0.56003 0.07999 0.0
H40 H 0.83626 0.48192 0.12275 0.0
C41 C 0.84269 0.56587 0.1537 0.0
O42 O 0.82792 0.53434 0.1557 0.0
N43 N 0.76813 0.5884 0.12252 0.0
C44 C 0.74597 0.60803 0.11027 0.0
C45 C 0.72398 0.62752 0.12365 0.0
C46 C 0.75917 0.59567 0.143 0.0
N47 N 0.73253 0.61986 0.14424 0.0
C48 C 0.77825 0.52435 0.07623 0.0
C49 C 0.73171 0.48326 0.10024 0.0
C50 C 0.73538 0.4765 0.07813 0.0
C51 C 0.75825 0.49815 0.06597 0.0
C52 C 0.7522 0.50963 0.10981 0.0
N53 N 0.77547 0.52902 0.09789 0.0
H54 H 0.79725 0.53957 0.06699 0.0
H55 H 0.7509 0.51352 0.12703 0.0
H56 H 0.74645 0.60894 0.09289 0.0
H57 H 0.77218 0.58373 0.15671 0.0
O58 O 0.81568 0.59264 0.08859 0.0
O59 O 0.84068 0.60042 0.11875 0.0
O60 O 0.83926 0.58271 0.13566 0.0
C61 C 0.83626 0.61212 0.09945 0.0
H62 H 0.89191 0.45524 0.1015 0.0
H63 H 0.70425 0.64683 0.11854 0.0
H64 H 0.71503 0.46677 0.11036 0.0
H65 H 0.76182 0.49383 0.04888 0.0
Co66 Co 0.49183 0.36718 0.62081 0.0
C67 C 0.51669 0.42845 0.5954 0.0
C68 C 0.48567 0.44504 0.62269 0.0
C69 C 0.49434 0.47476 0.61079 0.0
N70 N 0.49972 0.41617 0.61299 0.0
N71 N 0.51373 0.46423 0.59362 0.0
H72 H 0.52942 0.41135 0.58364 0.0
H73 H 0.46926 0.44442 0.63699 0.0
C74 C 0.50731 0.36763 0.6682 0.0
O75 O 0.52837 0.33991 0.66549 0.0
N76 N 0.4823 0.31767 0.62871 0.0
C77 C 0.48671 0.28799 0.61667 0.0
C78 C 0.47489 0.25888 0.62808 0.0
C79 C 0.46544 0.30615 0.64663 0.0
N80 N 0.46173 0.27037 0.647 0.0
C81 C 0.55748 0.33476 0.60752 0.0
C82 C 0.60125 0.37411 0.63394 0.0
C83 C 0.61585 0.34607 0.62191 0.0
C84 C 0.59368 0.32701 0.60807 0.0
C85 C 0.56472 0.3808 0.63296 0.0
N86 N 0.54299 0.35952 0.62099 0.0
H87 H 0.54133 0.32121 0.59594 0.0
H88 H 0.55382 0.40273 0.64213 0.0
H89 H 0.49621 0.28718 0.60031 0.0
H90 H 0.45587 0.32355 0.65921 0.0
O91 O 0.48248 0.35596 0.59108 0.0
O92 O 0.44203 0.37338 0.61499 0.0
O93 O 0.49128 0.38157 0.6521 0.0
C94 C 0.44944 0.36354 0.5954 0.0
H95 H 0.4864 0.50192 0.61429 0.0
H96 H 0.47521 0.23147 0.62265 0.0
H97 H 0.6177 0.39018 0.64437 0.0
H98 H 0.6043 0.30648 0.5976 0.0
Co99 Co 0.77755 0.00207 0.11648 0.0
C100 C 0.71394 -0.00122 0.08793 0.0
C101 C 0.71424 0.95714 0.11153 0.0
C102 C 0.68376 0.9541 0.09939 0.0
N103 N 0.73295 0.98551 0.1045 0.0
N104 N 0.68362 0.98053 0.08467 0.0
H105 H 0.72188 0.02097 0.07814 0.0
H106 H 0.72184 0.94031 0.1249 0.0
C107 C 0.72297 0.01361 0.15143 0.0
O108 O 0.69899 0.02295 0.13714 0.0
N109 N 0.82189 0.01717 0.12868 0.0
C110 C 0.84711 0.03829 0.12008 0.0
C111 C 0.87749 0.03525 0.13244 0.0
C112 C 0.83695 0.00173 0.14591 0.0
N113 N 0.87101 0.01182 0.14846 0.0
C114 C 0.77259 0.061 0.08729 0.0
C115 C 0.74663 0.11037 0.11629 0.0
C116 C 0.74817 0.11943 0.09444 0.0
C117 C 0.76255 0.09472 0.07996 0.0
C118 C 0.75723 0.07639 0.12293 0.0
N119 N 0.76739 0.05126 0.10823 0.0
H120 H 0.78268 0.04203 0.07574 0.0
H121 H 0.7573 0.07072 0.1399 0.0
H122 H 0.84443 0.053 0.1052 0.0
H123 H 0.82369 0.98189 0.15568 0.0
O124 O 0.80246 0.98599 0.09084 0.0
O125 O 0.79253 0.95348 0.12008 0.0
O126 O 0.75496 0.00701 0.1457 0.0
C127 C 0.80664 0.95596 0.10107 0.0
H128 H 0.66297 0.93458 0.10161 0.0
H129 H 0.90298 0.04735 0.12906 0.0
H130 H 0.7375 0.12946 0.12816 0.0
H131 H 0.76491 0.1009 0.063 0.0
Co132 Co 0.99213 0.83599 0.37692 0.0
C133 C 0.01734 0.89216 0.40638 0.0
C134 C -0.00396 0.91394 0.37713 0.0
C135 C 0.00407 0.94161 0.39068 0.0
N136 N 0.00438 0.883 0.38698 0.0
N137 N 0.01715 0.92789 0.40912 0.0
H138 H 0.0246 0.87306 0.4187 0.0
H139 H 0.98334 0.91631 0.36163 0.0
C140 C 0.01116 0.84363 0.32997 0.0
O141 O 0.03031 0.81424 0.33084 0.0
N142 N 0.97805 0.78905 0.36656 0.0
C143 C 0.97699 0.75784 0.37744 0.0
C144 C 0.96405 0.73167 0.36411 0.0
C145 C 0.96337 0.7816 0.34729 0.0
N146 N 0.95581 0.74666 0.34504 0.0
C147 C 0.05364 0.79438 0.38803 0.0
C148 C 0.10243 0.83687 0.36696 0.0
C149 C 0.11425 0.80597 0.37748 0.0
C150 C 0.08945 0.78481 0.38831 0.0
C151 C 0.06633 0.84537 0.36705 0.0
N152 N 0.04219 0.8233 0.37663 0.0
H153 H 0.03547 0.77915 0.39764 0.0
H154 H 0.05777 0.86979 0.35935 0.0
H155 H 0.98387 0.75414 0.39413 0.0
H156 H 0.95696 0.80151 0.33536 0.0
O157 O 0.98098 0.82201 0.40603 0.0
O158 O 0.94318 0.84678 0.38288 0.0
O159 O -0.00573 0.85467 0.34655 0.0
C160 C 0.94939 0.83472 0.4022 0.0
H161 H -0.00048 0.96963 0.38744 0.0
H162 H 0.96111 0.70379 0.36821 0.0
H163 H 0.12087 0.85434 0.35873 0.0
H164 H 0.09776 0.76168 0.39752 0.0
Co165 Co 0.2439 0.48697 0.8876 0.0
C166 C 0.17639 0.49783 0.91189 0.0
C167 C 0.16892 0.46762 0.88312 0.0
C168 C 0.13778 0.46708 0.89466 0.0
N169 N 0.1931 0.48763 0.8936 0.0
N170 N 0.14259 0.48594 0.9128 0.0
H171 H 0.18948 0.51021 0.92536 0.0
H172 H 0.17426 0.45181 0.86896 0.0
C173 C 0.21284 0.49507 0.84338 0.0
O174 O 0.19242 0.5211 0.85046 0.0
N175 N 0.29419 0.48463 0.88165 0.0
C176 C 0.32043 0.50284 0.89132 0.0
C177 C 0.352 0.49515 0.88092 0.0
C178 C 0.30996 0.46584 0.86584 0.0
N179 N 0.34528 0.47192 0.86487 0.0
C180 C 0.23713 0.56015 0.90057 0.0
C181 C 0.26298 0.58934 0.86282 0.0
C182 C 0.25295 0.61222 0.8796 0.0
C183 C 0.24019 0.59708 0.89875 0.0
C184 C 0.2599 0.55256 0.86543 0.0
N185 N 0.24572 0.53838 0.88379 0.0
H186 H 0.22926 0.54913 0.9158 0.0
H187 H 0.26959 0.53545 0.85274 0.0
H188 H 0.31668 0.52115 0.90456 0.0
H189 H 0.29558 0.44915 0.85473 0.0
O190 O 0.25408 0.48414 0.91805 0.0
O191 O 0.24466 0.43794 0.89643 0.0
O192 O 0.23425 0.47909 0.85612 0.0
C193 C 0.25156 0.44977 0.91563 0.0
H194 H 0.11412 0.45223 0.89061 0.0
H195 H 0.37774 0.50624 0.88471 0.0
H196 H 0.27335 0.59962 0.8478 0.0
H197 H 0.23369 0.61349 0.91254 0.0
Co198 Co 0.61359 0.78611 0.38799 0.0
C199 C 0.60743 0.72333 0.41597 0.0
C200 C 0.64501 0.71429 0.39049 0.0
C201 C 0.64331 0.68402 0.40305 0.0
N202 N 0.6224 0.7387 0.39862 0.0
N203 N 0.61962 0.68977 0.41906 0.0
H204 H 0.58839 0.73679 0.42623 0.0
H205 H 0.66157 0.7182 0.37645 0.0
C206 C 0.60456 0.77684 0.34046 0.0
O207 O 0.57706 0.79857 0.34117 0.0
N208 N 0.60596 0.83414 0.37702 0.0
C209 C 0.58071 0.85877 0.38156 0.0
C210 C 0.58571 0.88803 0.36846 0.0
C211 C 0.62665 0.84949 0.36189 0.0
N212 N 0.61455 0.882 0.35608 0.0
C213 C 0.54207 0.7913 0.40273 0.0
C214 C 0.5125 0.744 0.37393 0.0
C215 C 0.49017 0.76367 0.38758 0.0
C216 C 0.50555 0.78629 0.40278 0.0
C217 C 0.54919 0.74968 0.37461 0.0
N218 N 0.56312 0.77539 0.38765 0.0
H219 H 0.55329 0.80868 0.4147 0.0
H220 H 0.56618 0.7335 0.36454 0.0
H221 H 0.5598 0.85629 0.39328 0.0
H222 H 0.64911 0.83617 0.35445 0.0
O223 O 0.617 0.80418 0.41698 0.0
O224 O 0.66204 0.79879 0.39398 0.0
O225 O 0.62106 0.76844 0.3577 0.0
C226 C 0.65063 0.80801 0.41296 0.0
H227 H 0.65809 0.6596 0.40039 0.0
H228 H 0.56917 0.91172 0.36792 0.0
H229 H 0.50175 0.72519 0.36249 0.0
H230 H 0.48942 0.80045 0.41446 0.0
Co231 Co 0.34981 0.1098 0.89122 0.0
C232 C 0.41327 0.08122 0.91416 0.0
C233 C 0.42669 0.12083 0.8907 0.0
C234 C 0.45689 0.11216 0.902 0.0
N235 N 0.39936 0.10103 0.89806 0.0
N236 N 0.44832 0.0873 0.91675 0.0
H237 H 0.3979 0.06516 0.9251 0.0
H238 H 0.4244 0.1417 0.87875 0.0
C239 C 0.38491 0.10199 0.84795 0.0
O240 O 0.40232 0.07382 0.85498 0.0
N241 N 0.3007 0.11956 0.88449 0.0
C242 C 0.27191 0.10653 0.89468 0.0
C243 C 0.24194 0.11766 0.88382 0.0
C244 C 0.28804 0.13859 0.86778 0.0
N245 N 0.25217 0.13771 0.86685 0.0
C246 C 0.33929 0.03725 0.90394 0.0
C247 C 0.32096 0.01141 0.8639 0.0
C248 C 0.32128 0.98818 0.8815 0.0
C249 C 0.33017 0.00149 0.90176 0.0
C250 C 0.32964 0.04722 0.86689 0.0
N251 N 0.34047 0.05941 0.88652 0.0
H252 H 0.34391 0.0473 0.91988 0.0
H253 H 0.32631 0.06521 0.85349 0.0
H254 H 0.27271 0.08936 0.90866 0.0
H255 H 0.30479 0.15157 0.85602 0.0
O256 O 0.33845 0.11267 0.92156 0.0
O257 O 0.35565 0.15802 0.90099 0.0
O258 O 0.3629 0.11825 0.86019 0.0
C259 C 0.34602 0.14632 0.9198 0.0
H260 H 0.48277 0.1243 0.90012 0.0
H261 H 0.2148 0.11097 0.88793 0.0
H262 H 0.31277 0.00228 0.84816 0.0
H263 H 0.32973 0.98446 0.91585 0.0
C264 C 0.04993 0.93418 0.44332 0.0
C265 C 0.02478 0.94716 0.42854 0.0
C266 C 0.05706 0.95304 0.46221 0.0
C267 C 0.0486 0.04318 0.48563 0.0
H268 H 0.06138 0.99424 0.54008 0.0
C269 C 0.05466 0.11975 0.56526 0.0
C270 C 0.08224 0.11027 0.5794 0.0
C271 C 0.04672 0.09833 0.54761 0.0
C272 C 0.05812 0.00821 0.52494 0.0
H273 H 0.98646 0.98936 0.42238 0.0
H274 H -0.0013 0.02202 0.45517 0.0
H275 H 0.05015 0.95969 0.50751 0.0
H276 H 0.12253 0.07025 0.5863 0.0
H277 H 0.10848 0.03275 0.55555 0.0
H278 H 0.05639 0.09164 0.50299 0.0
C279 C 0.01362 -0.0022 0.45199 0.0
C280 C 0.05179 0.98845 0.5063 0.0
C281 C 0.00662 0.97909 0.43315 0.0
C282 C 0.10088 0.07818 0.57589 0.0
C283 C 0.09287 0.05668 0.55824 0.0
C284 C 0.05477 0.06287 0.50422 0.0
C285 C 0.03907 0.98517 0.46668 0.0
C286 C 0.04678 0.00577 0.48646 0.0
C287 C 0.06613 0.06687 0.54372 0.0
C288 C 0.05943 0.04563 0.52409 0.0
H289 H 0.06445 0.90976 0.44012 0.0
H290 H 0.07708 0.94279 0.47311 0.0
H291 H 0.04557 0.0573 0.47053 0.0
H292 H 0.03932 0.14389 0.56775 0.0
H293 H 0.02549 0.1065 0.53691 0.0
C294 C 0.92772 0.47127 0.06035 0.0
C295 C 0.9212 0.50396 0.07066 0.0
C296 C 0.95323 0.4688 0.04404 0.0
C297 C 0.03262 0.51177 0.02152 0.0
H298 H 0.00359 0.46677 0.96833 0.0
C299 C 0.11807 0.51831 0.94408 0.0
C300 C 0.11874 0.48798 0.93088 0.0
C301 C 0.09473 0.52026 0.9616 0.0
C302 C 0.0124 0.47895 0.98316 0.0
H303 H 0.93717 0.55929 0.07262 0.0
H304 H 0.98194 0.55496 0.04417 0.0
H305 H 0.96246 0.46909 0.99858 0.0
H306 H 0.09654 0.43536 0.92613 0.0
H307 H 0.05648 0.43832 0.95679 0.0
H308 H 0.08276 0.52122 0.00625 0.0
C309 C 0.96722 0.53131 0.04865 0.0
C310 C 0.98876 0.48032 1.00047 0.0
C311 C 0.94143 0.53386 0.06479 0.0
C312 C 0.09605 0.45942 0.93572 0.0
C313 C 0.07304 0.46117 0.95331 0.0
C314 C 0.05647 0.51009 0.00425 0.0
C315 C 0.973 0.49888 0.03791 0.0
C316 C -0.00141 0.49678 0.0198 0.0
C317 C 0.07186 0.4917 0.9664 0.0
C318 C 0.04663 0.49368 0.98484 0.0
H319 H 0.91235 0.44788 0.06444 0.0
H320 H 0.95737 0.4434 0.03612 0.0
H321 H 0.04096 0.52439 0.03632 0.0
H322 H 0.13517 0.54075 0.9406 0.0
H323 H 0.09423 0.54438 0.97114 0.0
C324 C 0.50637 0.5166 0.56994 0.0
C325 C 0.52572 0.48607 0.57601 0.0
C326 C 0.51722 0.53719 0.55242 0.0
C327 C 0.59462 0.55979 0.51934 0.0
H328 H 0.52372 0.59107 0.47813 0.0
C329 C 0.63198 0.63705 0.44199 0.0
C330 C 0.60945 0.66538 0.43595 0.0
C331 C 0.62219 0.61369 0.4585 0.0
C332 C 0.5438 0.58291 0.48961 0.0
H333 H 0.57197 0.45356 0.56874 0.0
H334 H 0.59109 0.48972 0.53805 0.0
H335 H 0.50612 0.55342 0.50827 0.0
H336 H 0.55854 0.69077 0.44241 0.0
H337 H 0.5421 0.65095 0.47153 0.0
H338 H 0.63221 0.58985 0.50096 0.0
C339 C 0.56749 0.49761 0.54688 0.0
C340 C 0.53371 0.56128 0.50684 0.0
C341 C 0.55642 0.4768 0.56432 0.0
C342 C 0.57683 0.66963 0.44677 0.0
C343 C 0.56714 0.64641 0.46331 0.0
C344 C 0.60471 0.58167 0.50217 0.0
C345 C 0.54782 0.52787 0.54067 0.0
C346 C 0.55895 0.54972 0.52197 0.0
C347 C 0.58968 0.61815 0.4694 0.0
C348 C 0.57935 0.59373 0.48719 0.0
H349 H 0.48239 0.52422 0.57846 0.0
H350 H 0.50174 0.56057 0.54813 0.0
H351 H 0.61458 0.55153 0.53088 0.0
H352 H 0.65741 0.63309 0.43418 0.0
H353 H 0.64003 0.59198 0.46261 0.0
C354 C 0.46539 0.03934 0.94201 0.0
C355 C 0.47043 0.07391 0.93382 0.0
C356 C 0.48604 0.02683 0.95913 0.0
C357 C 0.53759 0.05853 0.00502 0.0
H358 H 0.58644 0.96732 0.00228 0.0
C359 C 0.65231 0.02416 0.06168 0.0
C360 C 0.65637 0.98899 0.06918 0.0
C361 C 0.62679 0.03252 0.04627 0.0
C362 C 0.57246 0.99256 0.00348 0.0
H363 H 0.50077 0.12256 0.93721 0.0
H364 H 0.53674 0.1008 0.9671 0.0
H365 H 0.54712 0.98547 0.97293 0.0
H366 H 0.63625 0.93511 0.06655 0.0
H367 H 0.59087 0.94992 0.03983 0.0
H368 H 0.56263 0.06582 0.03548 0.0
C369 C 0.51687 0.08337 0.96027 0.0
C370 C 0.55007 0.00297 0.98665 0.0
C371 C 0.49657 0.09568 0.94301 0.0
C372 C 0.63371 0.96246 0.06117 0.0
C373 C 0.60797 0.97089 0.04571 0.0
C374 C 0.55964 0.04804 0.0219 0.0
C375 C 0.5117 0.04891 0.96856 0.0
C376 C 0.53305 0.03639 0.98708 0.0
C377 C 0.60433 0.00604 0.03804 0.0
C378 C 0.578 0.01529 0.02112 0.0
H379 H 0.44553 0.02199 0.93511 0.0
H380 H 0.48149 0.00018 0.96527 0.0
H381 H 0.52422 0.08415 0.00593 0.0
H382 H 0.66878 0.04544 0.06777 0.0
H383 H 0.62512 0.05977 0.04053 0.0
C384 C 0.19715 0.13619 0.84509 0.0
C385 C 0.23008 0.15187 0.84989 0.0
C386 C 0.17734 0.14777 0.82739 0.0
C387 C 0.16855 0.22084 0.78725 0.0
H388 H 0.13136 0.14579 0.75098 0.0
C389 C 0.12722 0.19892 0.69351 0.0
C390 C 0.10662 0.22962 0.68964 0.0
C391 C 0.13751 0.18992 0.71437 0.0
C392 C 0.1416 0.16707 0.76093 0.0
H393 H 0.26693 0.19343 0.84047 0.0
H394 H 0.23291 0.21297 0.80936 0.0
H395 H 0.15839 0.13054 0.78533 0.0
H396 H 0.0801 0.27463 0.70473 0.0
H397 H 0.09795 0.2587 0.74128 0.0
H398 H 0.15309 0.25719 0.76234 0.0
C399 C 0.22223 0.19189 0.81936 0.0
C400 C 0.15672 0.15838 0.78075 0.0
C401 C 0.242 0.18035 0.83706 0.0
C402 C 0.09595 0.25077 0.70717 0.0
C403 C 0.10636 0.24179 0.72809 0.0
C404 C 0.15342 0.22954 0.76739 0.0
C405 C 0.18998 0.17529 0.81408 0.0
C406 C 0.17091 0.18509 0.79399 0.0
C407 C 0.12749 0.2114 0.73189 0.0
C408 C 0.14036 0.20266 0.75384 0.0
H409 H 0.18717 0.1141 0.8545 0.0
H410 H 0.15236 0.13474 0.82393 0.0
H411 H 0.17888 0.24208 0.79719 0.0
H412 H 0.13597 0.18206 0.68038 0.0
H413 H 0.15422 0.16663 0.71668 0.0
C414 C 0.92728 0.69535 0.32694 0.0
C415 C 0.94341 0.72906 0.32584 0.0
C416 C 0.91683 0.67773 0.30821 0.0
C417 C 0.93313 0.67617 0.24936 0.0
H418 H 0.84587 0.62157 0.24838 0.0
C419 C 0.87174 0.61829 0.17143 0.0
C420 C 0.85816 0.58351 0.17275 0.0
C421 C 0.88342 0.63585 0.18993 0.0
C422 C 0.87049 0.63644 0.24847 0.0
H423 H 0.96118 0.7705 0.30388 0.0
H424 H 0.94184 0.74047 0.27148 0.0
H425 H 0.8627 0.65302 0.28104 0.0
H426 H 0.84708 0.53954 0.19448 0.0
H427 H 0.86745 0.57013 0.22664 0.0
H428 H 0.94055 0.65987 0.21663 0.0
C429 C 0.9378 0.72733 0.28681 0.0
C430 C 0.88018 0.65443 0.2672 0.0
C431 C 0.94841 0.74484 0.3055 0.0
C432 C 0.8573 0.56637 0.19287 0.0
C433 C 0.86873 0.58396 0.21135 0.0
C434 C 0.9233 0.65836 0.23058 0.0
C435 C 0.92213 0.69344 0.2879 0.0
C436 C 0.91167 0.67446 0.26791 0.0
C437 C 0.8815 0.61904 0.21013 0.0
C438 C 0.89195 0.6382 0.22997 0.0
H439 H 0.92272 0.68244 0.34227 0.0
H440 H 0.90517 0.65148 0.30965 0.0
H441 H 0.95786 0.69084 0.24942 0.0
H442 H 0.87268 0.63226 0.15622 0.0
H443 H 0.89295 0.66297 0.18852 0.0
C444 C 0.39963 0.47912 0.84272 0.0
C445 C 0.3695 0.4592 0.84853 0.0
C446 C 0.42097 0.4686 0.82538 0.0
C447 C 0.44301 0.45552 0.77906 0.0
H448 H 0.45989 0.35622 0.76484 0.0
C449 C 0.47527 0.40914 0.69314 0.0
C450 C 0.49885 0.38037 0.69015 0.0
C451 C 0.46495 0.41949 0.71379 0.0
C452 C 0.45591 0.38411 0.7687 0.0
H453 H 0.33952 0.4114 0.8414 0.0
H454 H 0.37602 0.39362 0.81093 0.0
H455 H 0.43317 0.37159 0.79937 0.0
H456 H 0.53096 0.34061 0.70659 0.0
H457 H 0.51317 0.35899 0.7427 0.0
H458 H 0.46572 0.46805 0.74841 0.0
C459 C 0.3834 0.41725 0.81983 0.0
C460 C 0.44019 0.3929 0.78839 0.0
C461 C 0.36213 0.42772 0.83716 0.0
C462 C 0.51267 0.36283 0.70832 0.0
C463 C 0.50231 0.37321 0.72902 0.0
C464 C 0.45878 0.44674 0.7594 0.0
C465 C 0.41269 0.43792 0.81346 0.0
C466 C 0.43291 0.42867 0.79364 0.0
C467 C 0.47799 0.40139 0.73198 0.0
C468 C 0.46475 0.4109 0.75379 0.0
H469 H 0.40606 0.50357 0.85102 0.0
H470 H 0.44363 0.48487 0.82108 0.0
H471 H 0.43753 0.48332 0.78246 0.0
H472 H 0.46408 0.42323 0.67951 0.0
H473 H 0.44579 0.44097 0.71544 0.0
C474 C 0.66325 0.90249 0.33255 0.0
C475 C 0.62715 0.90316 0.33831 0.0
C476 C 0.67497 0.91986 0.31397 0.0
C477 C 0.64824 0.98511 0.27157 0.0
H478 H 0.71648 0.93185 0.23738 0.0
C479 C 0.67741 0.01197 0.18107 0.0
C480 C 0.71299 0.00889 0.17431 0.0
C481 C 0.66783 0.00365 0.20226 0.0
C482 C 0.69778 0.94733 0.24685 0.0
H483 H 0.57512 0.92333 0.32945 0.0
H484 H 0.59533 0.95314 0.29681 0.0
H485 H 0.69847 0.90909 0.2723 0.0
H486 H 0.76669 -0.00356 0.18485 0.0
H487 H 0.74995 0.9821 0.22163 0.0
H488 H 0.64697 0.02283 0.24557 0.0
C489 C 0.61481 0.9398 0.30683 0.0
C490 C 0.6875 0.93433 0.26694 0.0
C491 C 0.60317 0.92269 0.32554 0.0
C492 C 0.73896 -0.0012 0.18942 0.0
C493 C 0.72938 0.99042 0.2105 0.0
C494 C 0.65839 -0.00198 0.25133 0.0
C495 C 0.65075 0.938 0.30058 0.0
C496 C 0.66258 0.95299 0.27957 0.0
C497 C 0.69364 0.99197 0.21704 0.0
C498 C 0.68327 0.97922 0.23877 0.0
H499 H 0.68238 0.88812 0.34229 0.0
H500 H 0.70298 0.91861 0.30995 0.0
H501 H 0.62927 0.00037 0.28096 0.0
H502 H 0.65677 0.01969 0.16984 0.0
H503 H 0.64004 0.00493 0.20682 0.0
C504 C 0.98447 0.8931 0.30842 0.0
C505 C 0.00765 0.86366 0.30958 0.0
C506 C 0.97998 0.91163 0.28919 0.0
C507 C 0.98403 0.95631 0.24912 0.0
H508 H 0.96928 0.89874 0.19826 0.0
C509 C 0.92424 0.01658 0.17161 0.0
C510 C 0.89612 -0.00361 0.16326 0.0
C511 C 0.94713 0.0018 0.18701 0.0
C512 C 0.97346 0.91524 0.2123 0.0
H513 H 0.04504 0.83115 0.29153 0.0
H514 H 0.03736 0.86387 0.2578 0.0
H515 H 0.99192 0.87089 0.23086 0.0
H516 H 0.87143 0.94423 0.16337 0.0
H517 H 0.91026 0.91896 0.19043 0.0
H518 H 0.96307 0.00012 0.23103 0.0
C519 C 0.02239 0.8723 0.2718 0.0
C520 C 0.98687 0.89934 0.23093 0.0
C521 C 0.02682 0.8536 0.29112 0.0
C522 C 0.89228 0.96078 0.16987 0.0
C523 C 0.91505 0.94605 0.18513 0.0
C524 C 0.97037 0.97216 0.23053 0.0
C525 C -0.00134 0.90137 0.27059 0.0
C526 C 0.991 0.91943 0.24981 0.0
C527 C 0.94243 0.96647 0.19415 0.0
C528 C 0.96363 0.95149 0.21218 0.0
H529 H 0.96913 0.90153 0.32228 0.0
H530 H 0.96087 0.93333 0.28877 0.0
H531 H 0.98768 0.9727 0.26326 0.0
H532 H 0.92782 0.04405 0.16672 0.0
H533 H 0.96816 0.01813 0.19355 0.0
C534 C 0.23375 0.45649 0.81312 0.0
C535 C 0.21057 0.48316 0.82077 0.0
C536 C 0.23064 0.44363 0.79219 0.0
C537 C 0.19175 0.46249 0.73878 0.0
H538 H 0.19464 0.35954 0.73311 0.0
C539 C 0.13749 0.3868 0.66501 0.0
C540 C 0.15454 0.35499 0.65879 0.0
C541 C 0.14883 0.4054 0.68316 0.0
C542 C 0.19443 0.38836 0.73428 0.0
H543 H 0.16666 0.51804 0.81216 0.0
H544 H 0.16093 0.49516 0.77558 0.0
H545 H 0.20558 0.38654 0.76792 0.0
H546 H 0.19847 0.31925 0.66577 0.0
H547 H 0.21854 0.35186 0.69735 0.0
H548 H 0.17999 0.46413 0.70509 0.0
C549 C 0.18173 0.48449 0.78578 0.0
C550 C 0.20063 0.40385 0.75427 0.0
C551 C 0.18487 0.49743 0.80678 0.0
C552 C 0.18438 0.34328 0.67041 0.0
C553 C 0.19583 0.36195 0.68851 0.0
C554 C 0.1856 0.44696 0.7187 0.0
C555 C 0.20424 0.45704 0.77839 0.0
C556 C 0.19912 0.44106 0.75681 0.0
C557 C 0.17756 0.39267 0.69544 0.0
C558 C 0.1866 0.40967 0.71627 0.0
H559 H 0.25411 0.44512 0.82336 0.0
H560 H 0.24878 0.42291 0.78685 0.0
H561 H 0.19082 0.49127 0.74019 0.0
H562 H 0.1142 0.39633 0.65654 0.0
H563 H 0.13394 0.42876 0.68817 0.0
C564 C 0.64837 0.74203 0.31852 0.0
C565 C 0.61647 0.76164 0.31971 0.0
C566 C 0.66009 0.72806 0.29895 0.0
C567 C 0.62942 0.69983 0.24578 0.0
H568 H 0.72878 0.70947 0.23009 0.0
C569 C 0.68472 0.65262 0.1635 0.0
C570 C 0.71841 0.63617 0.1635 0.0
C571 C 0.67152 0.66909 0.18206 0.0
C572 C 0.70104 0.70616 0.23432 0.0
H573 H 0.57174 0.78175 0.30127 0.0
H574 H 0.59221 0.75702 0.26702 0.0
H575 H 0.70711 0.73591 0.26341 0.0
H576 H 0.76473 0.62464 0.18321 0.0
H577 H 0.74129 0.65203 0.21554 0.0
H578 H 0.62346 0.66946 0.21691 0.0
C579 C 0.60803 0.75249 0.28131 0.0
C580 C 0.68863 0.7214 0.2534 0.0
C581 C 0.59642 0.76676 0.30089 0.0
C582 C 0.73847 0.63649 0.18257 0.0
C583 C 0.72523 0.65277 0.20111 0.0
C584 C 0.6419 0.68433 0.22674 0.0
C585 C 0.64008 0.73314 0.28013 0.0
C586 C 0.65277 0.71817 0.25941 0.0
C587 C 0.69168 0.66944 0.20108 0.0
C588 C 0.67794 0.68704 0.22088 0.0
H589 H 0.66448 0.73758 0.3327 0.0
H590 H 0.68468 0.7129 0.29858 0.0
H591 H 0.60171 0.69664 0.25012 0.0
H592 H 0.66841 0.65268 0.14919 0.0
H593 H 0.6457 0.68197 0.18141 0.0
C594 C 0.37292 0.1463 0.8187 0.0
C595 C 0.39021 0.11504 0.82568 0.0
C596 C 0.37832 0.15937 0.79794 0.0
C597 C 0.44236 0.15631 0.75301 0.0
H598 H 0.36531 0.20155 0.72163 0.0
C599 C 0.46252 0.21425 0.66791 0.0
C600 C 0.44912 0.24892 0.66469 0.0
C601 C 0.45299 0.19466 0.68615 0.0
C602 C 0.38711 0.18912 0.73024 0.0
H603 H 0.42634 0.07266 0.81612 0.0
H604 H 0.4355 0.09533 0.77968 0.0
H605 H 0.3532 0.17273 0.75607 0.0
H606 H 0.41383 0.28947 0.67765 0.0
H607 H 0.39745 0.25543 0.70958 0.0
H608 H 0.4763 0.173 0.72726 0.0
C609 C 0.4181 0.10998 0.79043 0.0
C610 C 0.38021 0.17266 0.74999 0.0
C611 C 0.41274 0.0969 0.81129 0.0
C612 C 0.42498 0.26304 0.67977 0.0
C613 C 0.4153 0.24337 0.69796 0.0
C614 C 0.44921 0.17263 0.73322 0.0
C615 C 0.40109 0.14149 0.78355 0.0
C616 C 0.40786 0.15652 0.76177 0.0
C617 C 0.42968 0.2092 0.70153 0.0
C618 C 0.42176 0.18964 0.72176 0.0
H619 H 0.3555 0.16109 0.82937 0.0
H620 H 0.36526 0.18403 0.79334 0.0
H621 H 0.46437 0.14461 0.76178 0.0
H622 H 0.48139 0.20269 0.65672 0.0
H623 H 0.46422 0.16825 0.68835 0.0
C624 C 0.93653 0.29524 0.61967 0.0
C625 C 0.94772 0.25962 0.62183 0.0
C626 C 0.90057 0.30413 0.62109 0.0
C627 C 0.81189 0.26682 0.61408 0.0
H628 H 0.78107 0.34928 0.64692 0.0
C629 C 0.66391 0.30037 0.62543 0.0
C630 C 0.65387 0.33638 0.62368 0.0
C631 C 0.6997 0.29075 0.6265 0.0
C632 C 0.78931 0.32641 0.6375 0.0
H633 H 0.93015 0.20534 0.62717 0.0
H634 H 0.86704 0.22092 0.62967 0.0
H635 H 0.84389 0.33262 0.64639 0.0
H636 H 0.67325 0.39062 0.62185 0.0
H637 H 0.73605 0.37382 0.62338 0.0
H638 H 0.75759 0.2609 0.6048 0.0
C639 C 0.88619 0.2419 0.62682 0.0
C640 C 0.82522 0.31683 0.63725 0.0
C641 C 0.92225 0.23303 0.62555 0.0
C642 C 0.6803 0.36268 0.62336 0.0
C643 C 0.7162 0.35304 0.62429 0.0
C644 C 0.77603 0.27649 0.61422 0.0
C645 C 0.87504 0.27755 0.6246 0.0
C646 C 0.83685 0.28702 0.62548 0.0
C647 C 0.72627 0.31692 0.62571 0.0
C648 C 0.76434 0.30644 0.62589 0.0
H649 H 0.95566 0.31633 0.61704 0.0
H650 H 0.89268 0.33177 0.61912 0.0
H651 H 0.82022 0.24402 0.60461 0.0
H652 H 0.64401 0.2796 0.62609 0.0
H653 H 0.70653 0.26277 0.62804 0.0
C654 C 0.74112 0.42118 0.05611 0.0
C655 C 0.71985 0.44366 0.06889 0.0
C656 C 0.73076 0.38617 0.05212 0.0
C657 C 0.68433 0.31844 0.08207 0.0
H658 H 0.71568 0.25811 0.03508 0.0
C659 C 0.70228 0.16795 0.09441 0.0
C660 C 0.73487 0.15444 0.08683 0.0
C661 C 0.69014 0.20143 0.08775 0.0
C662 C 0.70668 0.27461 0.04831 0.0
H663 H 0.66898 0.44861 0.08512 0.0
H664 H 0.6509 0.38721 0.0782 0.0
H665 H 0.71027 0.32246 0.02955 0.0
H666 H 0.77996 0.16489 0.06603 0.0
H667 H 0.7593 0.22368 0.05481 0.0
H668 H 0.68284 0.27129 0.10126 0.0
C669 C 0.6759 0.39652 0.07164 0.0
C670 C 0.70341 0.31139 0.04511 0.0
C671 C 0.68626 0.43161 0.07562 0.0
C672 C 0.75463 0.17458 0.07202 0.0
C673 C 0.74262 0.20815 0.06548 0.0
C674 C 0.68768 0.28179 0.08529 0.0
C675 C 0.69894 0.37292 0.06086 0.0
C676 C 0.6936 0.33383 0.06222 0.0
C677 C 0.71047 0.22219 0.0735 0.0
C678 C 0.70027 0.25965 0.0687 0.0
H679 H 0.76726 0.42947 0.05079 0.0
H680 H 0.74929 0.36866 0.04389 0.0
H681 H 0.67719 0.33495 0.09571 0.0
H682 H 0.68618 0.15263 0.10552 0.0
H683 H 0.66505 0.21127 0.09401 0.0
C684 C 0.43311 0.72967 0.38298 0.0
C685 C 0.45104 0.76216 0.38574 0.0
C686 C 0.3959 0.72902 0.38241 0.0
C687 C 0.31945 0.78074 0.40119 0.0
H688 H 0.26591 0.73687 0.35512 0.0
C689 C 0.17765 0.82339 0.38227 0.0
C690 C 0.15246 0.7968 0.37818 0.0
C691 C 0.21357 0.81467 0.3838 0.0
C692 C 0.28053 0.74872 0.36826 0.0
H693 H 0.44438 0.81949 0.38863 0.0
H694 H 0.37991 0.81823 0.38792 0.0
H695 H 0.3306 0.72864 0.35673 0.0
H696 H 0.14499 0.74042 0.37199 0.0
H697 H 0.20818 0.72512 0.3748 0.0
H698 H 0.2699 0.80152 0.41251 0.0
C699 C 0.3944 0.79325 0.38669 0.0
C700 C 0.3174 0.74399 0.36918 0.0
C701 C 0.43129 0.79394 0.38713 0.0
C702 C 0.16391 0.76136 0.37534 0.0
C703 C 0.19997 0.75265 0.37678 0.0
C704 C 0.2828 0.78542 0.40029 0.0
C705 C 0.37636 0.76081 0.3847 0.0
C706 C 0.33718 0.7609 0.38529 0.0
C707 C 0.22503 0.77921 0.38127 0.0
C708 C 0.26314 0.77038 0.38348 0.0
H709 H 0.44774 0.7048 0.38185 0.0
H710 H 0.38243 0.70371 0.38077 0.0
H711 H 0.33413 0.79348 0.41401 0.0
H712 H 0.16955 0.85084 0.38472 0.0
H713 H 0.23244 0.83576 0.38695 0.0
C714 C 0.28467 0.93598 0.89245 0.0
C715 C 0.31093 0.95053 0.87906 0.0
C716 C 0.27591 0.89999 0.89092 0.0
C717 C 0.28665 0.81968 0.85629 0.0
H718 H 0.26662 0.77019 0.90976 0.0
C719 C 0.28633 0.66599 0.86642 0.0
C720 C 0.25713 0.65147 0.87755 0.0
C721 C 0.29088 0.70286 0.86519 0.0
C722 C 0.27184 0.78377 0.8947 0.0
H723 H 0.34839 0.93944 0.85344 0.0
H724 H 0.33416 0.87606 0.85124 0.0
H725 H 0.27883 0.83382 0.91032 0.0
H726 H 0.20924 0.66461 0.89551 0.0
H727 H 0.218 0.72897 0.89394 0.0
H728 H 0.28095 0.76887 0.8409 0.0
C729 C 0.31957 0.89251 0.86255 0.0
C730 C 0.27868 0.82028 0.89496 0.0
C731 C 0.3279 0.92872 0.86384 0.0
C732 C 0.2324 0.67479 0.88718 0.0
C733 C 0.23725 0.71162 0.8862 0.0
C734 C 0.28033 0.78298 0.85609 0.0
C735 C 0.2937 0.87761 0.87624 0.0
C736 C 0.28607 0.83876 0.87576 0.0
C737 C 0.26664 0.72594 0.87531 0.0
C738 C 0.27278 0.7648 0.8753 0.0
H739 H 0.27088 0.9525 0.90409 0.0
H740 H 0.25522 0.88972 0.90134 0.0
H741 H 0.29172 0.83308 0.84116 0.0
H742 H 0.30627 0.64891 0.85913 0.0
H743 H 0.31398 0.71332 0.85691 0.0
C744 C 0.42759 0.33893 0.5605 0.0
C745 C 0.42116 0.35855 0.57936 0.0
C746 C 0.3993 0.32882 0.54732 0.0
C747 C 0.33427 0.2827 0.54081 0.0
H748 H 0.24413 0.33311 0.54208 0.0
C749 C 0.21593 0.22963 0.58266 0.0
C750 C 0.18146 0.2418 0.57819 0.0
C751 C 0.24428 0.23965 0.56959 0.0
C752 C 0.26897 0.31852 0.54082 0.0
H753 H 0.38093 0.38607 0.5981 0.0
H754 H 0.3318 0.36828 0.57551 0.0
H755 H 0.29918 0.36665 0.54198 0.0
H756 H 0.14883 0.27117 0.55547 0.0
H757 H 0.19876 0.28929 0.53267 0.0
H758 H 0.30404 0.23454 0.54102 0.0
C759 C 0.35844 0.36072 0.57061 0.0
C760 C 0.3006 0.33784 0.54098 0.0
C761 C 0.38659 0.37058 0.5838 0.0
C762 C 0.17529 0.26166 0.55936 0.0
C763 C 0.20382 0.27201 0.54632 0.0
C764 C 0.30265 0.2634 0.54042 0.0
C765 C 0.36423 0.33842 0.55274 0.0
C766 C 0.33339 0.32002 0.54298 0.0
C767 C 0.2388 0.26233 0.55183 0.0
C768 C 0.2698 0.28112 0.54243 0.0
H769 H 0.45413 0.32957 0.5566 0.0
H770 H 0.40461 0.31188 0.53358 0.0
H771 H 0.35907 0.26804 0.54204 0.0
H772 H 0.22135 0.21394 0.59694 0.0
H773 H 0.27084 0.232 0.57454 0.0
C774 C 0.86954 0.66866 0.10494 0.0
C775 C 0.85175 0.64535 0.09111 0.0
C776 C 0.87955 0.70245 0.09778 0.0
C777 C 0.90267 0.77273 0.07915 0.0
H778 H 0.82037 0.81798 0.05315 0.0
C779 C 0.82795 0.91884 0.07014 0.0
C780 C 0.8274 0.92614 0.09226 0.0
C781 C 0.84377 0.88734 0.06259 0.0
C782 C 0.84417 0.80586 0.05977 0.0
H783 H 0.83328 0.63749 0.05847 0.0
H784 H 0.85112 0.69645 0.04585 0.0
H785 H 0.82512 0.75353 0.05334 0.0
H786 H 0.84548 0.90859 0.12361 0.0
H787 H 0.87319 0.85417 0.11058 0.0
H788 H 0.91992 0.82537 0.08725 0.0
C789 C 0.85672 0.68898 0.06234 0.0
C790 C 0.84693 0.76876 0.05991 0.0
C791 C 0.84652 0.65525 0.06956 0.0
C792 C 0.84516 0.9032 0.10649 0.0
C793 C 0.86147 0.87229 0.09897 0.0
C794 C 0.89979 0.80987 0.07911 0.0
C795 C 0.87211 0.71348 0.0766 0.0
C796 C 0.87511 0.75176 0.07076 0.0
C797 C 0.85989 0.86336 0.07707 0.0
C798 C 0.86942 0.8266 0.07056 0.0
H799 H 0.87407 0.66159 0.12159 0.0
H800 H 0.89091 0.7207 0.10933 0.0
H801 H 0.92517 0.76042 0.08713 0.0
H802 H 0.81447 0.93635 0.05889 0.0
H803 H 0.84214 0.88098 0.04564 0.0
C804 C 0.67529 0.80666 0.45007 0.0
C805 C 0.67514 0.82126 0.42926 0.0
C806 C 0.70291 0.81478 0.46427 0.0
C807 C 0.78435 0.80795 0.46997 0.0
H808 H 0.83119 0.89966 0.46819 0.0
C809 C 0.89463 0.86242 0.41697 0.0
C810 C 0.92269 0.83809 0.41938 0.0
C811 C 0.86878 0.86566 0.43286 0.0
C812 C 0.81862 0.87381 0.46954 0.0
H813 H 0.70087 0.85795 0.40744 0.0
H814 H 0.74832 0.87311 0.43226 0.0
H815 H 0.76665 0.8971 0.47127 0.0
H816 H 0.94689 0.79913 0.44068 0.0
H817 H 0.90028 0.80366 0.46831 0.0
H818 H 0.83563 0.78474 0.465 0.0
C819 C 0.72755 0.85532 0.43776 0.0
C820 C 0.78168 0.87237 0.47144 0.0
C821 C 0.70076 0.84635 0.42342 0.0
C822 C 0.92523 0.81788 0.43839 0.0
C823 C 0.89886 0.82068 0.45425 0.0
C824 C 0.82127 0.80939 0.4679 0.0
C825 C 0.72978 0.83851 0.45796 0.0
C826 C 0.76424 0.83958 0.46922 0.0
C827 C 0.87013 0.84433 0.45148 0.0
C828 C 0.83806 0.84249 0.46525 0.0
H829 H 0.65562 0.78708 0.45475 0.0
H830 H 0.70445 0.80109 0.4796 0.0
H831 H 0.77151 0.78226 0.46852 0.0
H832 H 0.89232 0.87872 0.40262 0.0
H833 H 0.84656 0.8835 0.42993 0.0
C834 C 0.30667 0.17907 0.94474 0.0
C835 C 0.34109 0.17103 0.9377 0.0
C836 C 0.30062 0.20888 0.95767 0.0
C837 C 0.28933 0.2768 0.98166 0.0
H838 H 0.34725 0.35121 0.95651 0.0
C839 C 0.28438 0.43136 0.94867 0.0
C840 C 0.25766 0.42487 0.93348 0.0
C841 C 0.29519 0.40418 0.96269 0.0
C842 C 0.33126 0.33102 0.96435 0.0
H843 H 0.39674 0.18427 0.94036 0.0
H844 H 0.3868 0.23485 0.96435 0.0
H845 H 0.36897 0.29087 0.95663 0.0
H846 H 0.21848 0.38703 0.92244 0.0
H847 H 0.2367 0.33992 0.94711 0.0
H848 H 0.24965 0.31729 0.98658 0.0
C849 C 0.36403 0.21966 0.95909 0.0
C850 C 0.34376 0.29599 0.96446 0.0
C851 C 0.36989 0.19054 0.94553 0.0
C852 C 0.23942 0.3924 0.93392 0.0
C853 C 0.24956 0.36565 0.94824 0.0
C854 C 0.27645 0.31184 0.98103 0.0
C855 C 0.3291 0.23078 0.9641 0.0
C856 C 0.32181 0.26796 0.97159 0.0
C857 C 0.27872 0.37063 0.96198 0.0
C858 C 0.29642 0.33869 0.971 0.0
H859 H 0.28414 0.16422 0.93872 0.0
H860 H 0.27327 0.21625 0.96085 0.0
H861 H 0.27232 0.25629 0.98826 0.0
H862 H 0.29876 0.45633 0.94856 0.0
H863 H 0.3179 0.40851 0.97304 0.0
loop_
_geom_bond_atom_site_label_1
_geom_bond_atom_site_label_2
_geom_bond_distance
_geom_bond_site_symmetry_2
_ccdc_geom_bond_type
Co0 N4 2.148 . S
Co0 N10 2.128 . S
Co0 N20 2.194 . S
Co0 O25 2.351 . S
Co0 O26 2.155 . S
Co0 O27 2.096 . S
C1 N4 1.301 . S
C1 N5 1.328 . S
C1 H6 0.930 . S
C2 C3 1.333 . S
C2 N4 1.317 . S
C2 H7 0.930 . S
C3 C2 1.333 . S
C3 N5 1.350 . S
C3 H29 0.931 . S
N4 Co0 2.148 . S
N4 C1 1.301 . S
N4 C2 1.317 . S
N5 C1 1.328 . S
N5 C3 1.350 . S
H6 C1 0.930 . S
H7 C2 0.930 . S
C8 O9 1.224 . S
C8 O27 1.247 . S
O9 C8 1.224 . S
N10 Co0 2.128 . S
N10 C11 1.355 . S
N10 C13 1.311 . S
C11 N10 1.355 . S
C11 C12 1.363 . S
C11 H23 0.929 . S
C12 C11 1.363 . S
C12 N14 1.375 . S
C12 H30 0.931 . S
C13 N10 1.311 . S
C13 N14 1.347 . S
C13 H24 0.929 . S
N14 C12 1.375 . S
N14 C13 1.347 . S
C15 C18 1.365 . S
C15 N20 1.328 . S
C15 H21 0.929 . S
C16 C17 1.362 . S
C16 C19 1.378 1_655 S
C16 H31 0.929 . S
C17 C16 1.362 . S
C17 C18 1.366 1_655 S
C18 C15 1.365 . S
C18 C17 1.366 1_455 S
C18 H32 0.930 1_455 S
C19 C16 1.378 1_455 S
C19 N20 1.315 . S
C19 H22 0.930 . S
N20 Co0 2.194 . S
N20 C15 1.328 . S
N20 C19 1.315 . S
H21 C15 0.929 . S
H22 C19 0.930 . S
H23 C11 0.929 . S
H24 C13 0.929 . S
O25 Co0 2.351 . S
O25 C28 1.244 . S
O26 Co0 2.155 . S
O26 C28 1.240 . S
O27 Co0 2.096 . S
O27 C8 1.247 . S
C28 O25 1.244 . S
C28 O26 1.240 . S
H29 C3 0.931 . S
H30 C12 0.931 . S
H31 C16 0.929 . S
H32 C18 0.930 1_655 S
Co33 N37 2.148 . S
Co33 N43 2.128 . S
Co33 N53 2.194 . S
Co33 O58 2.351 . S
Co33 O59 2.155 . S
Co33 O60 2.096 . S
C34 N37 1.301 . S
C34 N38 1.328 . S
C34 H39 0.930 . S
C35 C36 1.333 . S
C35 N37 1.317 . S
C35 H40 0.930 . S
C36 C35 1.333 . S
C36 N38 1.350 . S
C36 H62 0.931 . S
N37 Co33 2.148 . S
N37 C34 1.301 . S
N37 C35 1.317 . S
N38 C34 1.328 . S
N38 C36 1.350 . S
H39 C34 0.930 . S
H40 C35 0.930 . S
C41 O42 1.224 . S
C41 O60 1.247 . S
O42 C41 1.224 . S
N43 Co33 2.128 . S
N43 C44 1.355 . S
N43 C46 1.311 . S
C44 N43 1.355 . S
C44 C45 1.363 . S
C44 H56 0.929 . S
C45 C44 1.363 . S
C45 N47 1.375 . S
C45 H63 0.931 . S
C46 N43 1.311 . S
C46 N47 1.347 . S
C46 H57 0.929 . S
N47 C45 1.375 . S
N47 C46 1.347 . S
C48 C51 1.365 . S
C48 N53 1.328 . S
C48 H54 0.929 . S
C49 C50 1.362 . S
C49 C52 1.378 . S
C49 H64 0.929 . S
C50 C49 1.362 . S
C50 C51 1.366 . S
C51 C48 1.365 . S
C51 C50 1.366 . S
C51 H65 0.930 . S
C52 C49 1.378 . S
C52 N53 1.315 . S
C52 H55 0.930 . S
N53 Co33 2.194 . S
N53 C48 1.328 . S
N53 C52 1.315 . S
H54 C48 0.929 . S
H55 C52 0.930 . S
H56 C44 0.929 . S
H57 C46 0.929 . S
O58 Co33 2.351 . S
O58 C61 1.244 . S
O59 Co33 2.155 . S
O59 C61 1.240 . S
O60 Co33 2.096 . S
O60 C41 1.247 . S
C61 O58 1.244 . S
C61 O59 1.240 . S
H62 C36 0.931 . S
H63 C45 0.931 . S
H64 C49 0.929 . S
H65 C51 0.930 . S
Co66 N70 2.148 . S
Co66 N76 2.128 . S
Co66 N86 2.194 . S
Co66 O91 2.351 . S
Co66 O92 2.155 . S
Co66 O93 2.096 . S
C67 N70 1.301 . S
C67 N71 1.328 . S
C67 H72 0.930 . S
C68 C69 1.333 . S
C68 N70 1.317 . S
C68 H73 0.930 . S
C69 C68 1.333 . S
C69 N71 1.350 . S
C69 H95 0.931 . S
N70 Co66 2.148 . S
N70 C67 1.301 . S
N70 C68 1.317 . S
N71 C67 1.328 . S
N71 C69 1.350 . S
H72 C67 0.930 . S
H73 C68 0.930 . S
C74 O75 1.224 . S
C74 O93 1.247 . S
O75 C74 1.224 . S
N76 Co66 2.128 . S
N76 C77 1.355 . S
N76 C79 1.311 . S
C77 N76 1.355 . S
C77 C78 1.363 . S
C77 H89 0.929 . S
C78 C77 1.363 . S
C78 N80 1.375 . S
C78 H96 0.931 . S
C79 N76 1.311 . S
C79 N80 1.347 . S
C79 H90 0.929 . S
N80 C78 1.375 . S
N80 C79 1.347 . S
C81 C84 1.365 . S
C81 N86 1.328 . S
C81 H87 0.929 . S
C82 C83 1.362 . S
C82 C85 1.378 . S
C82 H97 0.929 . S
C83 C82 1.362 . S
C83 C84 1.366 . S
C84 C81 1.365 . S
C84 C83 1.366 . S
C84 H98 0.930 . S
C85 C82 1.378 . S
C85 N86 1.315 . S
C85 H88 0.930 . S
N86 Co66 2.194 . S
N86 C81 1.328 . S
N86 C85 1.315 . S
H87 C81 0.929 . S
H88 C85 0.930 . S
H89 C77 0.929 . S
H90 C79 0.929 . S
O91 Co66 2.351 . S
O91 C94 1.244 . S
O92 Co66 2.155 . S
O92 C94 1.240 . S
O93 Co66 2.096 . S
O93 C74 1.247 . S
C94 O91 1.244 . S
C94 O92 1.240 . S
H95 C69 0.931 . S
H96 C78 0.931 . S
H97 C82 0.929 . S
H98 C84 0.930 . S
Co99 N103 2.148 . S
Co99 N109 2.128 . S
Co99 N119 2.194 . S
Co99 O124 2.351 1_545 S
Co99 O125 2.155 1_545 S
Co99 O126 2.096 1_545 S
C100 N103 1.301 . S
C100 N104 1.328 . S
C100 H105 0.930 . S
C101 C102 1.333 . S
C101 N103 1.317 . S
C101 H106 0.930 . S
C102 C101 1.333 . S
C102 N104 1.350 . S
C102 H128 0.931 . S
N103 Co99 2.148 . S
N103 C100 1.301 . S
N103 C101 1.317 . S
N104 C100 1.328 . S
N104 C102 1.350 . S
H105 C100 0.930 . S
H106 C101 0.930 . S
C107 O108 1.224 . S
C107 O126 1.247 1_545 S
O108 C107 1.224 . S
N109 Co99 2.128 . S
N109 C110 1.355 . S
N109 C112 1.311 1_545 S
C110 N109 1.355 . S
C110 C111 1.363 . S
C110 H122 0.929 . S
C111 C110 1.363 . S
C111 N113 1.375 1_545 S
C111 H129 0.931 . S
C112 N109 1.311 1_565 S
C112 N113 1.347 . S
C112 H123 0.929 . S
N113 C111 1.375 1_565 S
N113 C112 1.347 . S
C114 C117 1.365 . S
C114 N119 1.328 . S
C114 H120 0.929 . S
C115 C116 1.362 . S
C115 C118 1.378 . S
C115 H130 0.929 . S
C116 C115 1.362 . S
C116 C117 1.366 . S
C117 C114 1.365 . S
C117 C116 1.366 . S
C117 H131 0.930 . S
C118 C115 1.378 . S
C118 N119 1.315 . S
C118 H121 0.930 . S
N119 Co99 2.194 . S
N119 C114 1.328 . S
N119 C118 1.315 . S
H120 C114 0.929 . S
H121 C118 0.930 . S
H122 C110 0.929 . S
H123 C112 0.929 . S
O124 Co99 2.351 1_565 S
O124 C127 1.244 . S
O125 Co99 2.155 1_565 S
O125 C127 1.240 . S
O126 Co99 2.096 1_565 S
O126 C107 1.247 1_565 S
C127 O124 1.244 . S
C127 O125 1.240 . S
H128 C102 0.931 . S
H129 C111 0.931 . S
H130 C115 0.929 . S
H131 C117 0.930 . S
Co132 N136 2.148 . S
Co132 N142 2.128 . S
Co132 N152 2.194 . S
Co132 O157 2.351 1_455 S
Co132 O158 2.155 1_455 S
Co132 O159 2.096 1_455 S
C133 N136 1.301 . S
C133 N137 1.328 . S
C133 H138 0.930 . S
C134 C135 1.333 . S
C134 N136 1.317 . S
C134 H139 0.930 . S
C135 C134 1.333 . S
C135 N137 1.350 . S
C135 H161 0.931 . S
N136 Co132 2.148 . S
N136 C133 1.301 . S
N136 C134 1.317 . S
N137 C133 1.328 . S
N137 C135 1.350 . S
H138 C133 0.930 . S
H139 C134 0.930 . S
C140 O141 1.224 . S
C140 O159 1.247 1_455 S
O141 C140 1.224 . S
N142 Co132 2.128 . S
N142 C143 1.355 . S
N142 C145 1.311 1_455 S
C143 N142 1.355 . S
C143 C144 1.363 . S
C143 H155 0.929 . S
C144 C143 1.363 . S
C144 N146 1.375 1_455 S
C144 H162 0.931 . S
C145 N142 1.311 1_655 S
C145 N146 1.347 . S
C145 H156 0.929 . S
N146 C144 1.375 1_655 S
N146 C145 1.347 . S
C147 C150 1.365 . S
C147 N152 1.328 . S
C147 H153 0.929 . S
C148 C149 1.362 . S
C148 C151 1.378 . S
C148 H163 0.929 . S
C149 C148 1.362 . S
C149 C150 1.366 . S
C150 C147 1.365 . S
C150 C149 1.366 . S
C150 H164 0.930 . S
C151 C148 1.378 . S
C151 N152 1.315 . S
C151 H154 0.930 . S
N152 Co132 2.194 . S
N152 C147 1.328 . S
N152 C151 1.315 . S
H153 C147 0.929 . S
H154 C151 0.930 . S
H155 C143 0.929 . S
H156 C145 0.929 . S
O157 Co132 2.351 1_655 S
O157 C160 1.244 . S
O158 Co132 2.155 1_655 S
O158 C160 1.240 . S
O159 Co132 2.096 1_655 S
O159 C140 1.247 1_655 S
C160 O157 1.244 . S
C160 O158 1.240 . S
H161 C135 0.931 . S
H162 C144 0.931 . S
H163 C148 0.929 . S
H164 C150 0.930 . S
Co165 N169 2.148 . S
Co165 N175 2.128 . S
Co165 N185 2.194 . S
Co165 O190 2.351 . S
Co165 O191 2.155 . S
Co165 O192 2.096 . S
C166 N169 1.301 . S
C166 N170 1.328 . S
C166 H171 0.930 . S
C167 C168 1.333 . S
C167 N169 1.317 . S
C167 H172 0.930 . S
C168 C167 1.333 . S
C168 N170 1.350 . S
C168 H194 0.931 . S
N169 Co165 2.148 . S
N169 C166 1.301 . S
N169 C167 1.317 . S
N170 C166 1.328 . S
N170 C168 1.350 . S
H171 C166 0.930 . S
H172 C167 0.930 . S
C173 O174 1.224 . S
C173 O192 1.247 . S
O174 C173 1.224 . S
N175 Co165 2.128 . S
N175 C176 1.355 . S
N175 C178 1.311 . S
C176 N175 1.355 . S
C176 C177 1.363 . S
C176 H188 0.929 . S
C177 C176 1.363 . S
C177 N179 1.375 . S
C177 H195 0.931 . S
C178 N175 1.311 . S
C178 N179 1.347 . S
C178 H189 0.929 . S
N179 C177 1.375 . S
N179 C178 1.347 . S
C180 C183 1.365 . S
C180 N185 1.328 . S
C180 H186 0.929 . S
C181 C182 1.362 . S
C181 C184 1.378 . S
C181 H196 0.929 . S
C182 C181 1.362 . S
C182 C183 1.366 . S
C183 C180 1.365 . S
C183 C182 1.366 . S
C183 H197 0.930 . S
C184 C181 1.378 . S
C184 N185 1.315 . S
C184 H187 0.930 . S
N185 Co165 2.194 . S
N185 C180 1.328 . S
N185 C184 1.315 . S
H186 C180 0.929 . S
H187 C184 0.930 . S
H188 C176 0.929 . S
H189 C178 0.929 . S
O190 Co165 2.351 . S
O190 C193 1.244 . S
O191 Co165 2.155 . S
O191 C193 1.240 . S
O192 Co165 2.096 . S
O192 C173 1.247 . S
C193 O190 1.244 . S
C193 O191 1.240 . S
H194 C168 0.931 . S
H195 C177 0.931 . S
H196 C181 0.929 . S
H197 C183 0.930 . S
Co198 N202 2.148 . S
Co198 N208 2.128 . S
Co198 N218 2.194 . S
Co198 O223 2.351 . S
Co198 O224 2.155 . S
Co198 O225 2.096 . S
C199 N202 1.301 . S
C199 N203 1.328 . S
C199 H204 0.930 . S
C200 C201 1.333 . S
C200 N202 1.317 . S
C200 H205 0.930 . S
C201 C200 1.333 . S
C201 N203 1.350 . S
C201 H227 0.931 . S
N202 Co198 2.148 . S
N202 C199 1.301 . S
N202 C200 1.317 . S
N203 C199 1.328 . S
N203 C201 1.350 . S
H204 C199 0.930 . S
H205 C200 0.930 . S
C206 O207 1.224 . S
C206 O225 1.247 . S
O207 C206 1.224 . S
N208 Co198 2.128 . S
N208 C209 1.355 . S
N208 C211 1.311 . S
C209 N208 1.355 . S
C209 C210 1.363 . S
C209 H221 0.929 . S
C210 C209 1.363 . S
C210 N212 1.375 . S
C210 H228 0.931 . S
C211 N208 1.311 . S
C211 N212 1.347 . S
C211 H222 0.929 . S
N212 C210 1.375 . S
N212 C211 1.347 . S
C213 C216 1.365 . S
C213 N218 1.328 . S
C213 H219 0.929 . S
C214 C215 1.362 . S
C214 C217 1.378 . S
C214 H229 0.929 . S
C215 C214 1.362 . S
C215 C216 1.366 . S
C216 C213 1.365 . S
C216 C215 1.366 . S
C216 H230 0.930 . S
C217 C214 1.378 . S
C217 N218 1.315 . S
C217 H220 0.930 . S
N218 Co198 2.194 . S
N218 C213 1.328 . S
N218 C217 1.315 . S
H219 C213 0.929 . S
H220 C217 0.930 . S
H221 C209 0.929 . S
H222 C211 0.929 . S
O223 Co198 2.351 . S
O223 C226 1.244 . S
O224 Co198 2.155 . S
O224 C226 1.240 . S
O225 Co198 2.096 . S
O225 C206 1.247 . S
C226 O223 1.244 . S
C226 O224 1.240 . S
H227 C201 0.931 . S
H228 C210 0.931 . S
H229 C214 0.929 . S
H230 C216 0.930 . S
Co231 N235 2.148 . S
Co231 N241 2.128 . S
Co231 N251 2.194 . S
Co231 O256 2.351 . S
Co231 O257 2.155 . S
Co231 O258 2.096 . S
C232 N235 1.301 . S
C232 N236 1.328 . S
C232 H237 0.930 . S
C233 C234 1.333 . S
C233 N235 1.317 . S
C233 H238 0.930 . S
C234 C233 1.333 . S
C234 N236 1.350 . S
C234 H260 0.931 . S
N235 Co231 2.148 . S
N235 C232 1.301 . S
N235 C233 1.317 . S
N236 C232 1.328 . S
N236 C234 1.350 . S
H237 C232 0.930 . S
H238 C233 0.930 . S
C239 O240 1.224 . S
C239 O258 1.247 . S
O240 C239 1.224 . S
N241 Co231 2.128 . S
N241 C242 1.355 . S
N241 C244 1.311 . S
C242 N241 1.355 . S
C242 C243 1.363 . S
C242 H254 0.929 . S
C243 C242 1.363 . S
C243 N245 1.375 . S
C243 H261 0.931 . S
C244 N241 1.311 . S
C244 N245 1.347 . S
C244 H255 0.929 . S
N245 C243 1.375 . S
N245 C244 1.347 . S
C246 C249 1.365 . S
C246 N251 1.328 . S
C246 H252 0.929 . S
C247 C248 1.362 . S
C247 C250 1.378 1_565 S
C247 H262 0.929 . S
C248 C247 1.362 . S
C248 C249 1.366 1_565 S
C249 C246 1.365 . S
C249 C248 1.366 1_545 S
C249 H263 0.930 1_545 S
C250 C247 1.378 1_545 S
C250 N251 1.315 . S
C250 H253 0.930 . S
N251 Co231 2.194 . S
N251 C246 1.328 . S
N251 C250 1.315 . S
H252 C246 0.929 . S
H253 C250 0.930 . S
H254 C242 0.929 . S
H255 C244 0.929 . S
O256 Co231 2.351 . S
O256 C259 1.244 . S
O257 Co231 2.155 . S
O257 C259 1.240 . S
O258 Co231 2.096 . S
O258 C239 1.247 . S
C259 O256 1.244 . S
C259 O257 1.240 . S
H260 C234 0.931 . S
H261 C243 0.931 . S
H262 C247 0.929 . S
H263 C249 0.930 1_565 S
C264 C265 1.349 . S
C264 C266 1.327 . S
C264 H289 0.950 . S
C265 C264 1.349 . S
C265 C281 1.349 . S
C266 C264 1.327 . S
C266 C285 1.429 . S
C266 H290 0.950 . S
C267 C284 1.574 . S
C267 C286 1.368 . S
C267 H291 0.949 . S
H268 C272 0.949 . S
C269 C270 1.349 . S
C269 C271 1.327 . S
C269 H292 0.950 . S
C270 C269 1.349 . S
C270 C282 1.349 . S
C271 C269 1.327 . S
C271 C287 1.429 . S
C271 H293 0.950 . S
C272 H268 0.949 . S
C272 C280 1.574 . S
C272 C288 1.368 . S
H273 C281 0.950 . S
H274 C279 0.954 . S
H275 C280 0.949 1_565 S
H276 C282 0.950 . S
H277 C283 0.950 . S
H278 C284 0.949 . S
C279 H274 0.954 . S
C279 C281 1.324 1_545 S
C279 C285 1.428 1_545 S
C280 C272 1.574 . S
C280 H275 0.949 1_545 S
C280 C286 1.368 . S
C281 C265 1.349 . S
C281 H273 0.950 . S
C281 C279 1.324 1_565 S
C282 C270 1.349 . S
C282 H276 0.950 . S
C282 C283 1.327 . S
C283 H277 0.950 . S
C283 C282 1.327 . S
C283 C287 1.429 . S
C284 C267 1.574 . S
C284 H278 0.949 . S
C284 C288 1.368 . S
C285 C266 1.429 . S
C285 C279 1.428 1_565 S
C285 C286 1.523 1_565 S
C286 C267 1.368 . S
C286 C280 1.368 . S
C286 C285 1.523 1_545 S
C287 C271 1.429 . S
C287 C283 1.429 . S
C287 C288 1.523 . S
C288 C272 1.368 . S
C288 C284 1.368 . S
C288 C287 1.523 . S
H289 C264 0.950 . S
H290 C266 0.950 . S
H291 C267 0.949 . S
H292 C269 0.950 . S
H293 C271 0.950 . S
C294 C295 1.349 . S
C294 C296 1.327 . S
C294 H319 0.950 . S
C295 C294 1.349 . S
C295 C311 1.349 . S
C296 C294 1.327 . S
C296 C315 1.429 . S
C296 H320 0.950 . S
C297 C314 1.574 1_554 S
C297 C316 1.368 . S
C297 H321 0.949 . S
H298 C302 0.949 . S
C299 C300 1.349 . S
C299 C301 1.327 . S
C299 H322 0.950 . S
C300 C299 1.349 . S
C300 C312 1.349 . S
C301 C299 1.327 . S
C301 C317 1.429 . S
C301 H323 0.950 . S
C302 H298 0.949 . S
C302 C310 1.574 1_556 S
C302 C318 1.368 . S
H303 C311 0.950 . S
H304 C309 0.950 1_455 S
H305 C310 0.949 . S
H306 C312 0.950 . S
H307 C313 0.950 . S
H308 C314 0.949 . S
C309 H304 0.950 1_655 S
C309 C311 1.327 . S
C309 C315 1.429 . S
C310 C302 1.574 1_554 S
C310 H305 0.949 . S
C310 C316 1.368 . S
C311 C295 1.349 . S
C311 H303 0.950 . S
C311 C309 1.327 . S
C312 C300 1.349 . S
C312 H306 0.950 . S
C312 C313 1.327 . S
C313 H307 0.950 . S
C313 C312 1.327 . S
C313 C317 1.429 . S
C314 C297 1.574 1_556 S
C314 H308 0.949 . S
C314 C318 1.368 . S
C315 C296 1.429 . S
C315 C309 1.429 . S
C315 C316 1.523 1_655 S
C316 C297 1.368 . S
C316 C310 1.368 . S
C316 C315 1.523 1_455 S
C317 C301 1.429 . S
C317 C313 1.429 . S
C317 C318 1.523 . S
C318 C302 1.368 . S
C318 C314 1.368 . S
C318 C317 1.523 . S
H319 C294 0.950 . S
H320 C296 0.950 . S
H321 C297 0.949 . S
H322 C299 0.950 . S
H323 C301 0.950 . S
C324 C325 1.349 . S
C324 C326 1.327 . S
C324 H349 0.950 . S
C325 C324 1.349 . S
C325 C341 1.349 . S
C326 C324 1.327 . S
C326 C345 1.429 . S
C326 H350 0.950 . S
C327 C344 1.574 . S
C327 C346 1.368 . S
C327 H351 0.949 . S
H328 C332 0.949 . S
C329 C330 1.349 . S
C329 C331 1.327 . S
C329 H352 0.950 . S
C330 C329 1.349 . S
C330 C342 1.349 . S
C331 C329 1.327 . S
C331 C347 1.429 . S
C331 H353 0.950 . S
C332 H328 0.949 . S
C332 C340 1.574 . S
C332 C348 1.368 . S
H333 C341 0.950 . S
H334 C339 0.950 . S
H335 C340 0.949 . S
H336 C342 0.950 . S
H337 C343 0.950 . S
H338 C344 0.949 . S
C339 H334 0.950 . S
C339 C341 1.327 . S
C339 C345 1.429 . S
C340 C332 1.574 . S
C340 H335 0.949 . S
C340 C346 1.368 . S
C341 C325 1.349 . S
C341 H333 0.950 . S
C341 C339 1.327 . S
C342 C330 1.349 . S
C342 H336 0.950 . S
C342 C343 1.327 . S
C343 H337 0.950 . S
C343 C342 1.327 . S
C343 C347 1.429 . S
C344 C327 1.574 . S
C344 H338 0.949 . S
C344 C348 1.368 . S
C345 C326 1.429 . S
C345 C339 1.429 . S
C345 C346 1.523 . S
C346 C327 1.368 . S
C346 C340 1.368 . S
C346 C345 1.523 . S
C347 C331 1.429 . S
C347 C343 1.429 . S
C347 C348 1.523 . S
C348 C332 1.368 . S
C348 C344 1.368 . S
C348 C347 1.523 . S
H349 C324 0.950 . S
H350 C326 0.950 . S
H351 C327 0.949 . S
H352 C329 0.950 . S
H353 C331 0.950 . S
C354 C355 1.349 . S
C354 C356 1.327 . S
C354 H379 0.950 . S
C355 C354 1.349 . S
C355 C371 1.349 . S
C356 C354 1.327 . S
C356 C375 1.429 . S
C356 H380 0.950 . S
C357 C374 1.574 . S
C357 C376 1.368 1_554 S
C357 H381 0.949 . S
H358 C362 0.949 . S
C359 C360 1.349 . S
C359 C361 1.327 . S
C359 H382 0.950 . S
C360 C359 1.349 . S
C360 C372 1.349 . S
C361 C359 1.327 . S
C361 C377 1.429 . S
C361 H383 0.950 . S
C362 H358 0.949 . S
C362 C370 1.574 . S
C362 C378 1.368 1_556 S
H363 C371 0.950 . S
H364 C369 0.950 . S
H365 C370 0.949 . S
H366 C372 0.950 1_565 S
H367 C373 0.950 . S
H368 C374 0.949 . S
C369 H364 0.950 . S
C369 C371 1.327 . S
C369 C375 1.429 . S
C370 C362 1.574 . S
C370 H365 0.949 . S
C370 C376 1.368 . S
C371 C355 1.349 . S
C371 H363 0.950 . S
C371 C369 1.327 . S
C372 C360 1.349 . S
C372 H366 0.950 1_545 S
C372 C373 1.327 . S
C373 H367 0.950 . S
C373 C372 1.327 . S
C373 C377 1.429 . S
C374 C357 1.574 . S
C374 H368 0.949 . S
C374 C378 1.368 . S
C375 C356 1.429 . S
C375 C369 1.429 . S
C375 C376 1.523 . S
C376 C357 1.368 1_556 S
C376 C370 1.368 . S
C376 C375 1.523 . S
C377 C361 1.429 . S
C377 C373 1.429 . S
C377 C378 1.523 . S
C378 C362 1.368 1_554 S
C378 C374 1.368 . S
C378 C377 1.523 . S
H379 C354 0.950 . S
H380 C356 0.950 . S
H381 C357 0.949 . S
H382 C359 0.950 . S
H383 C361 0.950 . S
C384 C385 1.349 . S
C384 C386 1.327 . S
C384 H409 0.950 . S
C385 C384 1.349 . S
C385 C401 1.349 . S
C386 C384 1.327 . S
C386 C405 1.429 . S
C386 H410 0.950 . S
C387 C404 1.574 . S
C387 C406 1.368 . S
C387 H411 0.949 . S
H388 C392 0.949 . S
C389 C390 1.349 . S
C389 C391 1.327 . S
C389 H412 0.950 . S
C390 C389 1.349 . S
C390 C402 1.349 . S
C391 C389 1.327 . S
C391 C407 1.429 . S
C391 H413 0.950 . S
C392 H388 0.949 . S
C392 C400 1.574 . S
C392 C408 1.368 . S
H393 C401 0.950 . S
H394 C399 0.950 . S
H395 C400 0.949 . S
H396 C402 0.950 . S
H397 C403 0.950 . S
H398 C404 0.949 . S
C399 H394 0.950 . S
C399 C401 1.327 . S
C399 C405 1.429 . S
C400 C392 1.574 . S
C400 H395 0.949 . S
C400 C406 1.368 . S
C401 C385 1.349 . S
C401 H393 0.950 . S
C401 C399 1.327 . S
C402 C390 1.349 . S
C402 H396 0.950 . S
C402 C403 1.327 . S
C403 H397 0.950 . S
C403 C402 1.327 . S
C403 C407 1.429 . S
C404 C387 1.574 . S
C404 H398 0.949 . S
C404 C408 1.368 . S
C405 C386 1.429 . S
C405 C399 1.429 . S
C405 C406 1.523 . S
C406 C387 1.368 . S
C406 C400 1.368 . S
C406 C405 1.523 . S
C407 C391 1.429 . S
C407 C403 1.429 . S
C407 C408 1.523 . S
C408 C392 1.368 . S
C408 C404 1.368 . S
C408 C407 1.523 . S
H409 C384 0.950 . S
H410 C386 0.950 . S
H411 C387 0.949 . S
H412 C389 0.950 . S
H413 C391 0.950 . S
C414 C415 1.349 . S
C414 C416 1.327 . S
C414 H439 0.950 . S
C415 C414 1.349 . S
C415 C431 1.349 1_655 S
C416 C414 1.327 . S
C416 C435 1.429 . S
C416 H440 0.950 . S
C417 C434 1.574 . S
C417 C436 1.368 . S
C417 H441 0.949 . S
H418 C422 0.949 . S
C419 C420 1.349 . S
C419 C421 1.327 . S
C419 H442 0.950 . S
C420 C419 1.349 . S
C420 C432 1.349 . S
C421 C419 1.327 . S
C421 C437 1.429 . S
C421 H443 0.950 . S
C422 H418 0.949 . S
C422 C430 1.574 . S
C422 C438 1.368 . S
H423 C431 0.950 . S
H424 C429 0.950 1_455 S
H425 C430 0.949 . S
H426 C432 0.950 . S
H427 C433 0.950 . S
H428 C434 0.949 . S
C429 H424 0.950 1_655 S
C429 C431 1.327 1_655 S
C429 C435 1.429 . S
C430 C422 1.574 . S
C430 H425 0.949 . S
C430 C436 1.368 . S
C431 C415 1.349 1_455 S
C431 H423 0.950 . S
C431 C429 1.327 1_455 S
C432 C420 1.349 . S
C432 H426 0.950 . S
C432 C433 1.327 . S
C433 H427 0.950 . S
C433 C432 1.327 . S
C433 C437 1.429 . S
C434 C417 1.574 . S
C434 H428 0.949 . S
C434 C438 1.368 . S
C435 C416 1.429 . S
C435 C429 1.429 . S
C435 C436 1.523 . S
C436 C417 1.368 . S
C436 C430 1.368 . S
C436 C435 1.523 . S
C437 C421 1.429 . S
C437 C433 1.429 . S
C437 C438 1.523 . S
C438 C422 1.368 . S
C438 C434 1.368 . S
C438 C437 1.523 . S
H439 C414 0.950 . S
H440 C416 0.950 . S
H441 C417 0.949 . S
H442 C419 0.950 . S
H443 C421 0.950 . S
C444 C445 1.349 . S
C444 C446 1.327 . S
C444 H469 0.950 . S
C445 C444 1.349 . S
C445 C461 1.349 . S
C446 C444 1.327 . S
C446 C465 1.429 . S
C446 H470 0.950 . S
C447 C464 1.574 . S
C447 C466 1.368 . S
C447 H471 0.949 . S
H448 C452 0.949 . S
C449 C450 1.349 . S
C449 C451 1.327 . S
C449 H472 0.950 . S
C450 C449 1.349 . S
C450 C462 1.349 . S
C451 C449 1.327 . S
C451 C467 1.429 . S
C451 H473 0.950 . S
C452 H448 0.949 . S
C452 C460 1.574 . S
C452 C468 1.368 . S
H453 C461 0.950 . S
H454 C459 0.950 . S
H455 C460 0.949 . S
H456 C462 0.950 . S
H457 C463 0.950 . S
H458 C464 0.949 . S
C459 H454 0.950 . S
C459 C461 1.327 . S
C459 C465 1.429 . S
C460 C452 1.574 . S
C460 H455 0.949 . S
C460 C466 1.368 . S
C461 C445 1.349 . S
C461 H453 0.950 . S
C461 C459 1.327 . S
C462 C450 1.349 . S
C462 H456 0.950 . S
C462 C463 1.327 . S
C463 H457 0.950 . S
C463 C462 1.327 . S
C463 C467 1.429 . S
C464 C447 1.574 . S
C464 H458 0.949 . S
C464 C468 1.368 . S
C465 C446 1.429 . S
C465 C459 1.429 . S
C465 C466 1.523 . S
C466 C447 1.368 . S
C466 C460 1.368 . S
C466 C465 1.523 . S
C467 C451 1.429 . S
C467 C463 1.429 . S
C467 C468 1.523 . S
C468 C452 1.368 . S
C468 C464 1.368 . S
C468 C467 1.523 . S
H469 C444 0.950 . S
H470 C446 0.950 . S
H471 C447 0.949 . S
H472 C449 0.950 . S
H473 C451 0.950 . S
C474 C475 1.349 . S
C474 C476 1.327 . S
C474 H499 0.950 . S
C475 C474 1.349 . S
C475 C491 1.349 . S
C476 C474 1.327 . S
C476 C495 1.429 . S
C476 H500 0.950 . S
C477 C494 1.574 . S
C477 C496 1.368 . S
C477 H501 0.949 . S
H478 C482 0.949 . S
C479 C480 1.349 1_545 S
C479 C481 1.327 1_545 S
C479 H502 0.950 . S
C480 C479 1.349 1_565 S
C480 C492 1.349 . S
C481 C479 1.327 1_565 S
C481 C497 1.429 . S
C481 H503 0.950 1_565 S
C482 H478 0.949 . S
C482 C490 1.574 . S
C482 C498 1.368 . S
H483 C491 0.950 . S
H484 C489 0.950 . S
H485 C490 0.949 . S
H486 C492 0.950 . S
H487 C493 0.950 . S
H488 C494 0.949 . S
C489 H484 0.950 . S
C489 C491 1.327 . S
C489 C495 1.429 . S
C490 C482 1.574 . S
C490 H485 0.949 . S
C490 C496 1.368 . S
C491 C475 1.349 . S
C491 H483 0.950 . S
C491 C489 1.327 . S
C492 C480 1.349 . S
C492 H486 0.950 . S
C492 C493 1.327 . S
C493 H487 0.950 . S
C493 C492 1.327 . S
C493 C497 1.429 . S
C494 C477 1.574 . S
C494 H488 0.949 . S
C494 C498 1.368 . S
C495 C476 1.429 . S
C495 C489 1.429 . S
C495 C496 1.523 . S
C496 C477 1.368 . S
C496 C490 1.368 . S
C496 C495 1.523 . S
C497 C481 1.429 . S
C497 C493 1.429 . S
C497 C498 1.523 . S
C498 C482 1.368 . S
C498 C494 1.368 . S
C498 C497 1.523 . S
H499 C474 0.950 . S
H500 C476 0.950 . S
H501 C477 0.949 . S
H502 C479 0.950 . S
H503 C481 0.950 1_545 S
C504 C505 1.349 . S
C504 C506 1.327 . S
C504 H529 0.950 . S
C505 C504 1.349 . S
C505 C521 1.349 1_655 S
C506 C504 1.327 . S
C506 C525 1.429 . S
C506 H530 0.950 . S
C507 C524 1.574 . S
C507 C526 1.368 . S
C507 H531 0.949 . S
H508 C512 0.949 . S
C509 C510 1.349 1_545 S
C509 C511 1.327 1_545 S
C509 H532 0.950 . S
C510 C509 1.349 1_565 S
C510 C522 1.349 . S
C511 C509 1.327 1_565 S
C511 C527 1.430 . S
C511 H533 0.949 1_565 S
C512 H508 0.949 . S
C512 C520 1.574 . S
C512 C528 1.368 . S
H513 C521 0.950 . S
H514 C519 0.952 . S
H515 C520 0.949 . S
H516 C522 0.950 . S
H517 C523 0.950 . S
H518 C524 0.949 . S
C519 H514 0.952 . S
C519 C521 1.327 1_655 S
C519 C525 1.429 . S
C520 C512 1.574 . S
C520 H515 0.949 . S
C520 C526 1.368 . S
C521 C505 1.349 1_455 S
C521 H513 0.950 . S
C521 C519 1.327 1_455 S
C522 C510 1.349 . S
C522 H516 0.950 . S
C522 C523 1.327 . S
C523 H517 0.950 . S
C523 C522 1.327 . S
C523 C527 1.429 . S
C524 C507 1.574 . S
C524 H518 0.949 . S
C524 C528 1.368 . S
C525 C506 1.429 . S
C525 C519 1.429 . S
C525 C526 1.523 . S
C526 C507 1.368 . S
C526 C520 1.368 . S
C526 C525 1.523 . S
C527 C511 1.430 . S
C527 C523 1.429 . S
C527 C528 1.523 . S
C528 C512 1.368 . S
C528 C524 1.368 . S
C528 C527 1.523 . S
H529 C504 0.950 . S
H530 C506 0.950 . S
H531 C507 0.949 . S
H532 C509 0.950 . S
H533 C511 0.949 1_545 S
C534 C535 1.349 . S
C534 C536 1.327 . S
C534 H559 0.950 . S
C535 C534 1.349 . S
C535 C551 1.349 . S
C536 C534 1.327 . S
C536 C555 1.429 . S
C536 H560 0.950 . S
C537 C554 1.574 . S
C537 C556 1.368 . S
C537 H561 0.949 . S
H538 C542 0.949 . S
C539 C540 1.349 . S
C539 C541 1.327 . S
C539 H562 0.950 . S
C540 C539 1.349 . S
C540 C552 1.349 . S
C541 C539 1.327 . S
C541 C557 1.429 . S
C541 H563 0.950 . S
C542 H538 0.949 . S
C542 C550 1.574 . S
C542 C558 1.368 . S
H543 C551 0.950 . S
H544 C549 0.950 . S
H545 C550 0.949 . S
H546 C552 0.950 . S
H547 C553 0.950 . S
H548 C554 0.949 . S
C549 H544 0.950 . S
C549 C551 1.327 . S
C549 C555 1.429 . S
C550 C542 1.574 . S
C550 H545 0.949 . S
C550 C556 1.368 . S
C551 C535 1.349 . S
C551 H543 0.950 . S
C551 C549 1.327 . S
C552 C540 1.349 . S
C552 H546 0.950 . S
C552 C553 1.327 . S
C553 H547 0.950 . S
C553 C552 1.327 . S
C553 C557 1.429 . S
C554 C537 1.574 . S
C554 H548 0.949 . S
C554 C558 1.368 . S
C555 C536 1.429 . S
C555 C549 1.429 . S
C555 C556 1.523 . S
C556 C537 1.368 . S
C556 C550 1.368 . S
C556 C555 1.523 . S
C557 C541 1.429 . S
C557 C553 1.429 . S
C557 C558 1.523 . S
C558 C542 1.368 . S
C558 C554 1.368 . S
C558 C557 1.523 . S
H559 C534 0.950 . S
H560 C536 0.950 . S
H561 C537 0.949 . S
H562 C539 0.950 . S
H563 C541 0.950 . S
C564 C565 1.349 . S
C564 C566 1.327 . S
C564 H589 0.950 . S
C565 C564 1.349 . S
C565 C581 1.349 . S
C566 C564 1.327 . S
C566 C585 1.429 . S
C566 H590 0.950 . S
C567 C584 1.574 . S
C567 C586 1.368 . S
C567 H591 0.949 . S
H568 C572 0.949 . S
C569 C570 1.349 . S
C569 C571 1.327 . S
C569 H592 0.950 . S
C570 C569 1.349 . S
C570 C582 1.349 . S
C571 C569 1.327 . S
C571 C587 1.429 . S
C571 H593 0.950 . S
C572 H568 0.949 . S
C572 C580 1.574 . S
C572 C588 1.368 . S
H573 C581 0.950 . S
H574 C579 0.950 . S
H575 C580 0.949 . S
H576 C582 0.950 . S
H577 C583 0.950 . S
H578 C584 0.949 . S
C579 H574 0.950 . S
C579 C581 1.327 . S
C579 C585 1.429 . S
C580 C572 1.574 . S
C580 H575 0.949 . S
C580 C586 1.368 . S
C581 C565 1.349 . S
C581 H573 0.950 . S
C581 C579 1.327 . S
C582 C570 1.349 . S
C582 H576 0.950 . S
C582 C583 1.327 . S
C583 H577 0.950 . S
C583 C582 1.327 . S
C583 C587 1.429 . S
C584 C567 1.574 . S
C584 H578 0.949 . S
C584 C588 1.368 . S
C585 C566 1.429 . S
C585 C579 1.429 . S
C585 C586 1.523 . S
C586 C567 1.368 . S
C586 C580 1.368 . S
C586 C585 1.523 . S
C587 C571 1.429 . S
C587 C583 1.429 . S
C587 C588 1.523 . S
C588 C572 1.368 . S
C588 C584 1.368 . S
C588 C587 1.523 . S
H589 C564 0.950 . S
H590 C566 0.950 . S
H591 C567 0.949 . S
H592 C569 0.950 . S
H593 C571 0.950 . S
C594 C595 1.349 . S
C594 C596 1.327 . S
C594 H619 0.950 . S
C595 C594 1.349 . S
C595 C611 1.349 . S
C596 C594 1.327 . S
C596 C615 1.429 . S
C596 H620 0.950 . S
C597 C614 1.574 . S
C597 C616 1.368 . S
C597 H621 0.949 . S
H598 C602 0.949 . S
C599 C600 1.349 . S
C599 C601 1.327 . S
C599 H622 0.950 . S
C600 C599 1.349 . S
C600 C612 1.349 . S
C601 C599 1.327 . S
C601 C617 1.429 . S
C601 H623 0.950 . S
C602 H598 0.949 . S
C602 C610 1.574 . S
C602 C618 1.368 . S
H603 C611 0.950 . S
H604 C609 0.950 . S
H605 C610 0.949 . S
H606 C612 0.950 . S
H607 C613 0.950 . S
H608 C614 0.949 . S
C609 H604 0.950 . S
C609 C611 1.327 . S
C609 C615 1.429 . S
C610 C602 1.574 . S
C610 H605 0.949 . S
C610 C616 1.368 . S
C611 C595 1.349 . S
C611 H603 0.950 . S
C611 C609 1.327 . S
C612 C600 1.349 . S
C612 H606 0.950 . S
C612 C613 1.327 . S
C613 H607 0.950 . S
C613 C612 1.327 . S
C613 C617 1.429 . S
C614 C597 1.574 . S
C614 H608 0.949 . S
C614 C618 1.368 . S
C615 C596 1.429 . S
C615 C609 1.429 . S
C615 C616 1.523 . S
C616 C597 1.368 . S
C616 C610 1.368 . S
C616 C615 1.523 . S
C617 C601 1.429 . S
C617 C613 1.429 . S
C617 C618 1.523 . S
C618 C602 1.368 . S
C618 C614 1.368 . S
C618 C617 1.523 . S
H619 C594 0.950 . S
H620 C596 0.950 . S
H621 C597 0.949 . S
H622 C599 0.950 . S
H623 C601 0.950 . S
C624 C625 1.349 . S
C624 C626 1.327 . S
C624 H649 0.950 . S
C625 C624 1.349 . S
C625 C641 1.349 . S
C626 C624 1.327 . S
C626 C645 1.429 . S
C626 H650 0.950 . S
C627 C644 1.574 . S
C627 C646 1.368 . S
C627 H651 0.949 . S
H628 C632 0.949 . S
C629 C630 1.349 . S
C629 C631 1.327 . S
C629 H652 0.950 . S
C630 C629 1.349 . S
C630 C642 1.349 . S
C631 C629 1.327 . S
C631 C647 1.429 . S
C631 H653 0.950 . S
C632 H628 0.949 . S
C632 C640 1.574 . S
C632 C648 1.368 . S
H633 C641 0.950 . S
H634 C639 0.950 . S
H635 C640 0.949 . S
H636 C642 0.950 . S
H637 C643 0.950 . S
H638 C644 0.949 . S
C639 H634 0.950 . S
C639 C641 1.327 . S
C639 C645 1.429 . S
C640 C632 1.574 . S
C640 H635 0.949 . S
C640 C646 1.368 . S
C641 C625 1.349 . S
C641 H633 0.950 . S
C641 C639 1.327 . S
C642 C630 1.349 . S
C642 H636 0.950 . S
C642 C643 1.327 . S
C643 H637 0.950 . S
C643 C642 1.327 . S
C643 C647 1.429 . S
C644 C627 1.574 . S
C644 H638 0.949 . S
C644 C648 1.368 . S
C645 C626 1.429 . S
C645 C639 1.429 . S
C645 C646 1.523 . S
C646 C627 1.368 . S
C646 C640 1.368 . S
C646 C645 1.523 . S
C647 C631 1.429 . S
C647 C643 1.429 . S
C647 C648 1.523 . S
C648 C632 1.368 . S
C648 C644 1.368 . S
C648 C647 1.523 . S
H649 C624 0.950 . S
H650 C626 0.950 . S
H651 C627 0.949 . S
H652 C629 0.950 . S
H653 C631 0.950 . S
C654 C655 1.349 . S
C654 C656 1.327 . S
C654 H679 0.950 . S
C655 C654 1.349 . S
C655 C671 1.349 . S
C656 C654 1.327 . S
C656 C675 1.429 . S
C656 H680 0.950 . S
C657 C674 1.574 . S
C657 C676 1.368 . S
C657 H681 0.949 . S
H658 C662 0.949 . S
C659 C660 1.349 . S
C659 C661 1.327 . S
C659 H682 0.950 . S
C660 C659 1.349 . S
C660 C672 1.349 . S
C661 C659 1.327 . S
C661 C677 1.429 . S
C661 H683 0.950 . S
C662 H658 0.949 . S
C662 C670 1.574 . S
C662 C678 1.368 . S
H663 C671 0.950 . S
H664 C669 0.950 . S
H665 C670 0.949 . S
H666 C672 0.950 . S
H667 C673 0.950 . S
H668 C674 0.949 . S
C669 H664 0.950 . S
C669 C671 1.327 . S
C669 C675 1.429 . S
C670 C662 1.574 . S
C670 H665 0.949 . S
C670 C676 1.368 . S
C671 C655 1.349 . S
C671 H663 0.950 . S
C671 C669 1.327 . S
C672 C660 1.349 . S
C672 H666 0.950 . S
C672 C673 1.327 . S
C673 H667 0.950 . S
C673 C672 1.327 . S
C673 C677 1.429 . S
C674 C657 1.574 . S
C674 H668 0.949 . S
C674 C678 1.368 . S
C675 C656 1.429 . S
C675 C669 1.429 . S
C675 C676 1.523 . S
C676 C657 1.368 . S
C676 C670 1.368 . S
C676 C675 1.523 . S
C677 C661 1.429 . S
C677 C673 1.429 . S
C677 C678 1.523 . S
C678 C662 1.368 . S
C678 C674 1.368 . S
C678 C677 1.523 . S
H679 C654 0.950 . S
H680 C656 0.950 . S
H681 C657 0.949 . S
H682 C659 0.950 . S
H683 C661 0.950 . S
C684 C685 1.349 . S
C684 C686 1.327 . S
C684 H709 0.950 . S
C685 C684 1.349 . S
C685 C701 1.349 . S
C686 C684 1.327 . S
C686 C705 1.429 . S
C686 H710 0.950 . S
C687 C704 1.574 . S
C687 C706 1.368 . S
C687 H711 0.949 . S
H688 C692 0.949 . S
C689 C690 1.349 . S
C689 C691 1.327 . S
C689 H712 0.950 . S
C690 C689 1.349 . S
C690 C702 1.349 . S
C691 C689 1.327 . S
C691 C707 1.429 . S
C691 H713 0.950 . S
C692 H688 0.949 . S
C692 C700 1.574 . S
C692 C708 1.368 . S
H693 C701 0.950 . S
H694 C699 0.950 . S
H695 C700 0.949 . S
H696 C702 0.950 . S
H697 C703 0.950 . S
H698 C704 0.949 . S
C699 H694 0.950 . S
C699 C701 1.327 . S
C699 C705 1.429 . S
C700 C692 1.574 . S
C700 H695 0.949 . S
C700 C706 1.368 . S
C701 C685 1.349 . S
C701 H693 0.950 . S
C701 C699 1.327 . S
C702 C690 1.349 . S
C702 H696 0.950 . S
C702 C703 1.327 . S
C703 H697 0.950 . S
C703 C702 1.327 . S
C703 C707 1.429 . S
C704 C687 1.574 . S
C704 H698 0.949 . S
C704 C708 1.368 . S
C705 C686 1.429 . S
C705 C699 1.429 . S
C705 C706 1.523 . S
C706 C687 1.368 . S
C706 C700 1.368 . S
C706 C705 1.523 . S
C707 C691 1.429 . S
C707 C703 1.429 . S
C707 C708 1.523 . S
C708 C692 1.368 . S
C708 C704 1.368 . S
C708 C707 1.523 . S
H709 C684 0.950 . S
H710 C686 0.950 . S
H711 C687 0.949 . S
H712 C689 0.950 . S
H713 C691 0.950 . S
C714 C715 1.349 . S
C714 C716 1.327 . S
C714 H739 0.950 . S
C715 C714 1.349 . S
C715 C731 1.349 . S
C716 C714 1.327 . S
C716 C735 1.429 . S
C716 H740 0.950 . S
C717 C734 1.574 . S
C717 C736 1.368 . S
C717 H741 0.949 . S
H718 C722 0.949 . S
C719 C720 1.349 . S
C719 C721 1.327 . S
C719 H742 0.950 . S
C720 C719 1.349 . S
C720 C732 1.349 . S
C721 C719 1.327 . S
C721 C737 1.429 . S
C721 H743 0.950 . S
C722 H718 0.949 . S
C722 C730 1.574 . S
C722 C738 1.368 . S
H723 C731 0.950 . S
H724 C729 0.950 . S
H725 C730 0.949 . S
H726 C732 0.950 . S
H727 C733 0.950 . S
H728 C734 0.949 . S
C729 H724 0.950 . S
C729 C731 1.327 . S
C729 C735 1.429 . S
C730 C722 1.574 . S
C730 H725 0.949 . S
C730 C736 1.368 . S
C731 C715 1.349 . S
C731 H723 0.950 . S
C731 C729 1.327 . S
C732 C720 1.349 . S
C732 H726 0.950 . S
C732 C733 1.327 . S
C733 H727 0.950 . S
C733 C732 1.327 . S
C733 C737 1.429 . S
C734 C717 1.574 . S
C734 H728 0.949 . S
C734 C738 1.368 . S
C735 C716 1.429 . S
C735 C729 1.429 . S
C735 C736 1.523 . S
C736 C717 1.368 . S
C736 C730 1.368 . S
C736 C735 1.523 . S
C737 C721 1.429 . S
C737 C733 1.429 . S
C737 C738 1.523 . S
C738 C722 1.368 . S
C738 C734 1.368 . S
C738 C737 1.523 . S
H739 C714 0.950 . S
H740 C716 0.950 . S
H741 C717 0.949 . S
H742 C719 0.950 . S
H743 C721 0.950 . S
C744 C745 1.349 . S
C744 C746 1.327 . S
C744 H769 0.950 . S
C745 C744 1.349 . S
C745 C761 1.349 . S
C746 C744 1.327 . S
C746 C765 1.429 . S
C746 H770 0.950 . S
C747 C764 1.574 . S
C747 C766 1.368 . S
C747 H771 0.949 . S
H748 C752 0.949 . S
C749 C750 1.349 . S
C749 C751 1.327 . S
C749 H772 0.950 . S
C750 C749 1.349 . S
C750 C762 1.349 . S
C751 C749 1.327 . S
C751 C767 1.429 . S
C751 H773 0.950 . S
C752 H748 0.949 . S
C752 C760 1.574 . S
C752 C768 1.368 . S
H753 C761 0.950 . S
H754 C759 0.950 . S
H755 C760 0.949 . S
H756 C762 0.950 . S
H757 C763 0.950 . S
H758 C764 0.949 . S
C759 H754 0.950 . S
C759 C761 1.327 . S
C759 C765 1.429 . S
C760 C752 1.574 . S
C760 H755 0.949 . S
C760 C766 1.368 . S
C761 C745 1.349 . S
C761 H753 0.950 . S
C761 C759 1.327 . S
C762 C750 1.349 . S
C762 H756 0.950 . S
C762 C763 1.327 . S
C763 H757 0.950 . S
C763 C762 1.327 . S
C763 C767 1.429 . S
C764 C747 1.574 . S
C764 H758 0.949 . S
C764 C768 1.368 . S
C765 C746 1.429 . S
C765 C759 1.429 . S
C765 C766 1.523 . S
C766 C747 1.368 . S
C766 C760 1.368 . S
C766 C765 1.523 . S
C767 C751 1.429 . S
C767 C763 1.429 . S
C767 C768 1.523 . S
C768 C752 1.368 . S
C768 C764 1.368 . S
C768 C767 1.523 . S
H769 C744 0.950 . S
H770 C746 0.950 . S
H771 C747 0.949 . S
H772 C749 0.950 . S
H773 C751 0.950 . S
C774 C775 1.349 . S
C774 C776 1.327 . S
C774 H799 0.950 . S
C775 C774 1.349 . S
C775 C791 1.349 . S
C776 C774 1.327 . S
C776 C795 1.429 . S
C776 H800 0.950 . S
C777 C794 1.574 . S
C777 C796 1.368 . S
C777 H801 0.949 . S
H778 C782 0.949 . S
C779 C780 1.349 . S
C779 C781 1.327 . S
C779 H802 0.950 . S
C780 C779 1.349 . S
C780 C792 1.349 . S
C781 C779 1.327 . S
C781 C797 1.429 . S
C781 H803 0.950 . S
C782 H778 0.949 . S
C782 C790 1.574 . S
C782 C798 1.368 . S
H783 C791 0.950 . S
H784 C789 0.950 . S
H785 C790 0.949 . S
H786 C792 0.950 . S
H787 C793 0.950 . S
H788 C794 0.949 . S
C789 H784 0.950 . S
C789 C791 1.327 . S
C789 C795 1.429 . S
C790 C782 1.574 . S
C790 H785 0.949 . S
C790 C796 1.368 . S
C791 C775 1.349 . S
C791 H783 0.950 . S
C791 C789 1.327 . S
C792 C780 1.349 . S
C792 H786 0.950 . S
C792 C793 1.327 . S
C793 H787 0.950 . S
C793 C792 1.327 . S
C793 C797 1.429 . S
C794 C777 1.574 . S
C794 H788 0.949 . S
C794 C798 1.368 . S
C795 C776 1.429 . S
C795 C789 1.429 . S
C795 C796 1.523 . S
C796 C777 1.368 . S
C796 C790 1.368 . S
C796 C795 1.523 . S
C797 C781 1.429 . S
C797 C793 1.429 . S
C797 C798 1.523 . S
C798 C782 1.368 . S
C798 C794 1.368 . S
C798 C797 1.523 . S
H799 C774 0.950 . S
H800 C776 0.950 . S
H801 C777 0.949 . S
H802 C779 0.950 . S
H803 C781 0.950 . S
C804 C805 1.349 . S
C804 C806 1.327 . S
C804 H829 0.950 . S
C805 C804 1.349 . S
C805 C821 1.349 . S
C806 C804 1.327 . S
C806 C825 1.429 . S
C806 H830 0.950 . S
C807 C824 1.574 . S
C807 C826 1.368 . S
C807 H831 0.949 . S
H808 C812 0.949 . S
C809 C810 1.349 . S
C809 C811 1.327 . S
C809 H832 0.950 . S
C810 C809 1.349 . S
C810 C822 1.349 . S
C811 C809 1.327 . S
C811 C827 1.429 . S
C811 H833 0.950 . S
C812 H808 0.949 . S
C812 C820 1.574 . S
C812 C828 1.368 . S
H813 C821 0.950 . S
H814 C819 0.950 . S
H815 C820 0.949 . S
H816 C822 0.950 . S
H817 C823 0.950 . S
H818 C824 0.949 . S
C819 H814 0.950 . S
C819 C821 1.327 . S
C819 C825 1.429 . S
C820 C812 1.574 . S
C820 H815 0.949 . S
C820 C826 1.368 . S
C821 C805 1.349 . S
C821 H813 0.950 . S
C821 C819 1.327 . S
C822 C810 1.349 . S
C822 H816 0.950 . S
C822 C823 1.327 . S
C823 H817 0.950 . S
C823 C822 1.327 . S
C823 C827 1.429 . S
C824 C807 1.574 . S
C824 H818 0.949 . S
C824 C828 1.368 . S
C825 C806 1.429 . S
C825 C819 1.429 . S
C825 C826 1.523 . S
C826 C807 1.368 . S
C826 C820 1.368 . S
C826 C825 1.523 . S
C827 C811 1.429 . S
C827 C823 1.429 . S
C827 C828 1.523 . S
C828 C812 1.368 . S
C828 C824 1.368 . S
C828 C827 1.523 . S
H829 C804 0.950 . S
H830 C806 0.950 . S
H831 C807 0.949 . S
H832 C809 0.950 . S
H833 C811 0.950 . S
C834 C835 1.349 . S
C834 C836 1.327 . S
C834 H859 0.950 . S
C835 C834 1.349 . S
C835 C851 1.349 . S
C836 C834 1.327 . S
C836 C855 1.429 . S
C836 H860 0.950 . S
C837 C854 1.574 . S
C837 C856 1.368 . S
C837 H861 0.949 . S
H838 C842 0.949 . S
C839 C840 1.349 . S
C839 C841 1.327 . S
C839 H862 0.950 . S
C840 C839 1.349 . S
C840 C852 1.349 . S
C841 C839 1.327 . S
C841 C857 1.429 . S
C841 H863 0.950 . S
C842 H838 0.949 . S
C842 C850 1.574 . S
C842 C858 1.368 . S
H843 C851 0.950 . S
H844 C849 0.950 . S
H845 C850 0.949 . S
H846 C852 0.950 . S
H847 C853 0.950 . S
H848 C854 0.949 . S
C849 H844 0.950 . S
C849 C851 1.327 . S
C849 C855 1.429 . S
C850 C842 1.574 . S
C850 H845 0.949 . S
C850 C856 1.368 . S
C851 C835 1.349 . S
C851 H843 0.950 . S
C851 C849 1.327 . S
C852 C840 1.349 . S
C852 H846 0.950 . S
C852 C853 1.327 . S
C853 H847 0.950 . S
C853 C852 1.327 . S
C853 C857 1.429 . S
C854 C837 1.574 . S
C854 H848 0.949 . S
C854 C858 1.368 . S
C855 C836 1.429 . S
C855 C849 1.429 . S
C855 C856 1.523 . S
C856 C837 1.368 . S
C856 C850 1.368 . S
C856 C855 1.523 . S
C857 C841 1.429 . S
C857 C853 1.429 . S
C857 C858 1.523 . S
C858 C842 1.368 . S
C858 C854 1.368 . S
C858 C857 1.523 . S
H859 C834 0.950 . S
H860 C836 0.950 . S
H861 C837 0.949 . S
H862 C839 0.950 . S
H863 C841 0.950 . S
C265 N137 1.528 . S
C270 N5 1.528 . S
C295 N38 1.528 . S
C300 N170 1.528 . S
C325 N71 1.528 . S
C330 N203 1.528 . S
C355 N236 1.528 . S
C360 N104 1.528 . S
C385 N245 0.858 . S
C390 C8 0.857 . S
C415 N146 0.858 . S
C420 C41 0.857 . S
C445 N179 0.858 . S
C450 C74 0.857 . S
C475 N212 0.858 . S
C480 C107 0.857 1_565 S
C505 C140 0.857 1_655 S
C510 N113 0.858 . S
C535 C173 0.857 . S
C540 N14 0.858 . S
C565 C206 0.857 . S
C570 N47 0.858 . S
C595 C239 0.857 . S
C600 N80 0.858 . S
C625 C17 0.834 . S
C630 C83 0.834 . S
C655 C50 0.833 . S
C660 C116 0.833 . S
C685 C215 0.834 . S
C690 C149 0.834 . S
C715 C248 0.833 . S
C720 C182 0.833 . S
C745 C94 0.587 . S
C750 C28 0.587 . S
C775 C61 0.587 . S
C780 C127 0.587 . S
C805 C226 0.587 . S
C810 C160 0.587 . S
C835 C259 0.587 . S
C840 C193 0.587 . S
