# Generated by pormake.
# Topology umy, (4)-cn, num edge types: 1
# Building blocks:
#     Node 0, Type 0, BuildingBlock: QUQFOY_clean_sbu_3, # of connection points: 4
#     Node 1, Type 0, BuildingBlock: QUQFOY_clean_sbu_3, # of connection points: 4
#     Node 2, Type 0, BuildingBlock: QUQFOY_clean_sbu_3, # of connection points: 4
#     Node 3, Type 0, BuildingBlock: QUQFOY_clean_sbu_3, # of connection points: 4
#     Node 4, Type 0, BuildingBlock: QUQFOY_clean_sbu_3, # of connection points: 4
#     Node 5, Type 0, BuildingBlock: QUQFOY_clean_sbu_3, # of connection points: 4
#     Node 6, Type 0, BuildingBlock: QUQFOY_clean_sbu_3, # of connection points: 4
#     Node 7, Type 0, BuildingBlock: QUQFOY_clean_sbu_3, # of connection points: 4
#     Node 8, Type 0, BuildingBlock: QUQFOY_clean_sbu_3, # of connection points: 4
#     Node 9, Type 0, BuildingBlock: QUQFOY_clean_sbu_3, # of connection points: 4
#     Node 10, Type 0, BuildingBlock: QUQFOY_clean_sbu_3, # of connection points: 4
#     Node 11, Type 0, BuildingBlock: QUQFOY_clean_sbu_3, # of connection points: 4
#     Edge 12, Type (0, 0), BuildingBlock: CIFDUS_clean_linker_0, # of connection points: 2
#     Edge 13, Type (0, 0), BuildingBlock: CIFDUS_clean_linker_0, # of connection points: 2
#     Edge 14, Type (0, 0), BuildingBlock: CIFDUS_clean_linker_0, # of connection points: 2
#     Edge 15, Type (0, 0), BuildingBlock: CIFDUS_clean_linker_0, # of connection points: 2
#     Edge 16, Type (0, 0), BuildingBlock: CIFDUS_clean_linker_0, # of connection points: 2
#     Edge 17, Type (0, 0), BuildingBlock: CIFDUS_clean_linker_0, # of connection points: 2
#     Edge 18, Type (0, 0), BuildingBlock: CIFDUS_clean_linker_0, # of connection points: 2
#     Edge 19, Type (0, 0), BuildingBlock: CIFDUS_clean_linker_0, # of connection points: 2
#     Edge 20, Type (0, 0), BuildingBlock: CIFDUS_clean_linker_0, # of connection points: 2
#     Edge 21, Type (0, 0), BuildingBlock: CIFDUS_clean_linker_0, # of connection points: 2
#     Edge 22, Type (0, 0), BuildingBlock: CIFDUS_clean_linker_0, # of connection points: 2
#     Edge 23, Type (0, 0), BuildingBlock: CIFDUS_clean_linker_0, # of connection points: 2
#     Edge 24, Type (0, 0), BuildingBlock: CIFDUS_clean_linker_0, # of connection points: 2
#     Edge 25, Type (0, 0), BuildingBlock: CIFDUS_clean_linker_0, # of connection points: 2
#     Edge 26, Type (0, 0), BuildingBlock: CIFDUS_clean_linker_0, # of connection points: 2
#     Edge 27, Type (0, 0), BuildingBlock: CIFDUS_clean_linker_0, # of connection points: 2
#     Edge 28, Type (0, 0), BuildingBlock: CIFDUS_clean_linker_0, # of connection points: 2
#     Edge 29, Type (0, 0), BuildingBlock: CIFDUS_clean_linker_0, # of connection points: 2
#     Edge 30, Type (0, 0), BuildingBlock: CIFDUS_clean_linker_0, # of connection points: 2
#     Edge 31, Type (0, 0), BuildingBlock: CIFDUS_clean_linker_0, # of connection points: 2
#     Edge 32, Type (0, 0), BuildingBlock: CIFDUS_clean_linker_0, # of connection points: 2
#     Edge 33, Type (0, 0), BuildingBlock: CIFDUS_clean_linker_0, # of connection points: 2
#     Edge 34, Type (0, 0), BuildingBlock: CIFDUS_clean_linker_0, # of connection points: 2
#     Edge 35, Type (0, 0), BuildingBlock: CIFDUS_clean_linker_0, # of connection points: 2
# Relax obj value: 0.100
# Max RMSD: 0.073
# Mean RMSD: 0.073
data_MOF--net-umy--node1-QUQFOY_clean_sbu_3--edge1-CIFDUS_clean_linker_0
_symmetry_space_group_name_H-M    P1
_symmetry_Int_Tables_number       1
_symmetry_cell_setting            triclinic
loop_
_symmetry_equiv_pos_as_xyz
'x, y, z'
_cell_length_a     35.04292
_cell_length_b     35.356204
_cell_length_c     45.808933
_cell_angle_alpha  89.734326
_cell_angle_beta   89.970029
_cell_angle_gamma 119.80624
loop_
_atom_site_label
_atom_site_type_symbol
_atom_site_fract_x
_atom_site_fract_y
_atom_site_fract_z
_atom_type_partial_charge
C0 C 0.96837 0.25686 0.12635 0.0
O1 O -0.01554 0.23354 0.11789 0.0
Cd2 Cd 0.0574 0.26021 0.09968 0.0
O3 O -0.00922 0.2983 0.12446 0.0
Cd4 Cd 0.06555 0.35233 0.10699 0.0
C5 C 0.10792 0.31867 0.16043 0.0
O6 O 0.06895 0.31433 0.0641 0.0
O7 O 0.13106 0.36681 0.07866 0.0
O8 O 0.03675 0.39805 0.08868 0.0
C9 C 0.10967 0.33867 0.05931 0.0
O10 O 0.1036 0.28849 0.14334 0.0
C11 C 0.0686 0.43317 0.09843 0.0
O12 O 0.09355 0.34417 0.15353 0.0
O13 O 0.09779 0.43015 0.11299 0.0
C14 C 0.69265 0.96157 0.28831 0.0
O15 O 0.73154 0.97457 0.27937 0.0
Cd16 Cd 0.7807 0.04834 0.2665 0.0
O17 O 0.6765 -0.01312 0.28737 0.0
Cd18 Cd 0.69735 0.06136 0.26964 0.0
C19 C 0.76566 0.09662 0.32764 0.0
O20 O 0.74399 0.06605 0.22961 0.0
O21 O 0.74996 0.1274 0.24227 0.0
O22 O 0.63087 0.03618 0.24085 0.0
C23 C 0.76022 0.10638 0.22454 0.0
O24 O 0.78883 0.08421 0.3136 0.0
C25 C 0.61588 0.05618 0.25563 0.0
O26 O 0.73048 0.09273 0.31675 0.0
O27 O 0.63859 0.07844 0.2772 0.0
C28 C 0.71919 0.7078 0.46078 0.0
O29 O 0.74366 0.74725 0.45302 0.0
Cd30 Cd 0.71587 0.79376 0.43872 0.0
O31 O 0.67745 0.69029 0.45984 0.0
Cd32 Cd 0.62153 0.70981 0.4445 0.0
C33 C 0.65287 0.78364 0.49903 0.0
O34 O 0.66164 0.75198 0.40273 0.0
O35 O 0.60409 0.75648 0.41322 0.0
O36 O 0.57741 0.64068 0.42002 0.0
C37 C 0.63562 0.76554 0.39571 0.0
O38 O 0.68816 0.80668 0.48461 0.0
C39 C 0.54451 0.62787 0.4369 0.0
O40 O 0.62333 0.74701 0.48943 0.0
O41 O 0.54744 0.65313 0.45744 0.0
C42 C -0.00675 0.71528 0.62398 0.0
O43 O 0.97476 0.73677 0.61612 0.0
Cd44 Cd 0.90374 0.70676 0.59455 0.0
O45 O 0.97473 0.67434 0.61962 0.0
Cd46 Cd 0.90502 0.61768 0.59778 0.0
C47 C 0.85094 0.63735 0.6514 0.0
O48 O 0.90447 0.66078 0.55699 0.0
O49 O 0.84316 0.60218 0.5651 0.0
O50 O 0.94473 0.58144 0.58063 0.0
C51 C 0.86567 0.63485 0.5487 0.0
O52 O 0.85432 0.66886 0.63588 0.0
C53 C 0.9135 0.54346 0.58674 0.0
O54 O 0.86908 0.61552 0.64361 0.0
O55 O 0.87941 0.54054 0.59864 0.0
C56 C 0.25998 0.00601 0.79645 0.0
O57 O 0.22083 -0.00582 0.78876 0.0
Cd58 Cd 0.1689 0.92145 0.7756 0.0
O59 O 0.27501 0.97984 0.79449 0.0
Cd60 Cd 0.2506 0.90501 0.77654 0.0
C61 C 0.18305 0.86929 0.8352 0.0
O62 O 0.2035 0.90331 0.73762 0.0
O63 O 0.19681 0.84107 0.7494 0.0
O64 O 0.31587 0.92773 0.74673 0.0
C65 C 0.18693 0.86308 0.73219 0.0
O66 O 0.16038 0.88314 0.82197 0.0
C67 C 0.32871 0.90481 0.76041 0.0
O68 O 0.21771 0.87277 0.82367 0.0
O69 O 0.30577 0.88275 0.78213 0.0
C70 C 0.25694 0.26865 0.97006 0.0
O71 O 0.23073 0.23071 0.96058 0.0
Cd72 Cd 0.25266 0.18025 0.94601 0.0
O73 O 0.29841 0.28335 0.97012 0.0
Cd74 Cd 0.35054 0.25898 0.95298 0.0
C75 C 0.31165 0.18527 0.00786 0.0
O76 O 0.30821 0.22118 0.91057 0.0
O77 O 0.36093 0.20887 0.9209 0.0
O78 O 0.39657 0.33325 0.93505 0.0
C79 C 0.33106 0.20414 0.90325 0.0
O80 O 0.2769 0.16482 0.99262 0.0
C81 C 0.43247 0.33578 0.94299 0.0
O82 O 0.34392 0.22088 -0.00125 0.0
O83 O 0.42995 0.30323 0.95657 0.0
C84 C 0.71558 -0.00935 0.71014 0.0
O85 O 0.7424 0.97983 0.72055 0.0
Cd86 Cd 0.72141 0.90531 0.72938 0.0
O87 O 0.67488 0.96263 0.70804 0.0
Cd88 Cd 0.6216 0.88603 0.72028 0.0
C89 C 0.66849 0.86484 0.66307 0.0
O90 O 0.65861 0.87429 0.76029 0.0
O91 O 0.60673 0.81583 0.7407 0.0
O92 O 0.57816 0.90506 0.75119 0.0
C93 C 0.63579 0.83303 0.76042 0.0
O94 O 0.70133 0.87631 0.67994 0.0
C95 C 0.54414 0.88792 0.73527 0.0
O96 O 0.63406 0.86511 0.67179 0.0
O97 O 0.54599 0.87003 0.71169 0.0
C98 C 0.74735 0.72478 0.854 0.0
O99 O 0.78778 0.7431 0.86074 0.0
Cd100 Cd 0.82252 0.70413 0.87831 0.0
O101 O 0.72257 0.68372 0.85703 0.0
Cd102 Cd 0.72908 0.62084 0.87461 0.0
C103 C 0.79916 0.63689 0.81949 0.0
O104 O 0.77383 0.6589 0.91599 0.0
O105 O 0.77165 0.59843 0.90629 0.0
O106 O 0.65363 0.59183 0.892 0.0
C107 C 0.78284 0.62989 0.92376 0.0
O108 O 0.82893 0.66639 0.83523 0.0
C109 C 0.64259 0.55243 0.88694 0.0
O110 O 0.75914 0.61718 0.82758 0.0
O111 O 0.6712 0.54529 0.87519 0.0
C112 C 0.97032 0.73505 0.04151 0.0
O113 O -0.01584 0.77175 0.0537 0.0
Cd114 Cd 0.05972 0.81443 0.06706 0.0
O115 O -0.00478 0.71852 0.03914 0.0
Cd116 Cd 0.0686 0.73084 0.05304 0.0
C117 C 0.10466 0.80799 0.00078 0.0
O118 O 0.07479 0.76876 0.09815 0.0
O119 O 0.13479 0.77313 0.08223 0.0
O120 O 0.02688 0.65444 0.06685 0.0
C121 C 0.11508 0.78124 0.10234 0.0
O122 O 0.09515 0.82949 0.01877 0.0
C123 C 0.05583 0.64542 0.05824 0.0
O124 O 0.09812 0.7702 0.00736 0.0
O125 O 0.09042 0.67598 0.04658 0.0
C126 C 0.21082 0.96718 0.21961 0.0
O127 O 0.18908 -0.01578 0.22961 0.0
Cd128 Cd 0.22254 0.06054 0.23826 0.0
O129 O 0.25256 -0.01034 0.21721 0.0
Cd130 Cd 0.31436 0.06343 0.22841 0.0
C131 C 0.27693 0.09732 0.17197 0.0
O132 O 0.28324 0.07958 0.27 0.0
O133 O 0.33874 0.1352 0.25024 0.0
O134 O 0.35538 0.0373 0.25644 0.0
C135 C 0.31077 0.11998 0.27084 0.0
O136 O 0.24515 0.09046 0.18884 0.0
C137 C 0.38862 0.05348 0.23964 0.0
O138 O 0.30727 0.09005 0.18056 0.0
O139 O 0.38692 0.07333 0.21691 0.0
C140 C 0.22161 0.2404 0.37121 0.0
O141 O 0.18196 0.22315 0.37982 0.0
Cd142 Cd 0.14671 0.26366 0.39306 0.0
O143 O 0.24592 0.28171 0.37004 0.0
Cd144 Cd 0.23983 0.34684 0.38079 0.0
C145 C 0.16289 0.31832 0.32841 0.0
O146 O 0.19753 0.31978 0.42431 0.0
O147 O 0.19719 0.37592 0.4064 0.0
O148 O 0.31103 0.38562 0.40401 0.0
C149 C 0.18676 0.34875 0.42727 0.0
O150 O 0.135 0.29156 0.34666 0.0
C151 C 0.3269 0.41715 0.38598 0.0
O152 O 0.20357 0.34015 0.33456 0.0
O153 O 0.30251 0.41562 0.365 0.0
C154 C -0.01559 0.2372 0.53317 0.0
O155 O 0.97178 0.19943 0.54356 0.0
Cd156 Cd 0.89773 0.15106 0.557 0.0
O157 O 0.95787 0.25196 0.53124 0.0
Cd158 Cd 0.88092 0.22984 0.54523 0.0
C159 C 0.84758 0.15348 0.49255 0.0
O160 O 0.88427 0.19554 0.58989 0.0
O161 O 0.81981 0.18447 0.57932 0.0
O162 O 0.91391 0.3063 0.55788 0.0
C163 C 0.8447 0.18039 0.59759 0.0
O164 O 0.86013 0.13323 0.50958 0.0
C165 C 0.88148 0.31015 0.54954 0.0
O166 O 0.85149 0.18984 0.5 0.0
O167 O 0.84904 0.27674 0.53854 0.0
H168 H 0.12011 0.62708 0.06995 0.0
H169 H -0.02021 0.56737 0.05897 0.0
H170 H 0.97114 0.4956 0.06988 0.0
H171 H 0.00377 0.4503 0.08342 0.0
H172 H 0.14352 0.51169 0.09852 0.0
H173 H 0.1522 0.58252 0.08538 0.0
C174 C 0.08773 0.59822 0.06969 0.0
C175 C 0.05069 0.6021 0.06336 0.0
C176 C 0.08294 0.55758 0.077 0.0
C177 C 0.00874 0.56486 0.06369 0.0
C178 C 0.00381 0.52396 0.06996 0.0
C179 C 0.03605 0.47925 0.08385 0.0
C180 C 0.07294 0.47591 0.09184 0.0
C181 C 0.04068 0.52 0.07684 0.0
C182 C 0.11459 0.51359 0.09259 0.0
C183 C 0.11963 0.55403 0.08495 0.0
H184 H 0.55564 0.05599 0.29249 0.0
H185 H 0.58291 0.05098 0.20127 0.0
H186 H 0.51478 0.05004 0.18796 0.0
H187 H 0.44817 0.05221 0.20245 0.0
H188 H 0.41783 0.05038 0.29388 0.0
H189 H 0.48625 0.05211 0.30705 0.0
C190 C 0.54653 0.05469 0.26974 0.0
C191 C 0.57418 0.05405 0.24784 0.0
C192 C 0.5068 0.05283 0.26234 0.0
C193 C 0.56192 0.05155 0.21844 0.0
C194 C 0.52311 0.05109 0.21084 0.0
C195 C 0.45659 0.05203 0.22522 0.0
C196 C 0.4284 0.0515 0.24718 0.0
C197 C 0.49541 0.05194 0.23261 0.0
C198 C 0.43913 0.05067 0.27662 0.0
C199 C 0.47827 0.05184 0.28416 0.0
H200 H 0.51149 0.5884 0.38545 0.0
H201 H 0.48739 0.57441 0.47826 0.0
H202 H 0.41928 0.5054 0.47064 0.0
H203 H 0.36537 0.45086 0.4374 0.0
H204 H 0.38514 0.46904 0.34436 0.0
H205 H 0.4565 0.5347 0.35209 0.0
C206 C 0.49139 0.56996 0.40396 0.0
C207 C 0.50424 0.58599 0.43235 0.0
C208 C 0.45167 0.5313 0.39931 0.0
C209 C 0.47784 0.56248 0.45622 0.0
C210 C 0.43906 0.52311 0.45187 0.0
C211 C 0.38562 0.46903 0.41888 0.0
C212 C 0.37059 0.45525 0.3904 0.0
C213 C 0.42551 0.50745 0.4235 0.0
C214 C 0.39638 0.47928 0.36647 0.0
C215 C 0.43703 0.5167 0.37089 0.0
H216 H 0.84517 0.4639 0.57537 0.0
H217 H -0.0133 0.53548 0.58098 0.0
H218 H -0.01056 0.46928 0.56936 0.0
H219 H 0.9511 0.39071 0.55877 0.0
H220 H 0.80976 0.32069 0.55037 0.0
H221 H 0.80738 0.38692 0.56166 0.0
C222 C 0.87659 0.46492 0.57413 0.0
C223 C 0.91565 0.50413 0.57937 0.0
C224 C 0.87789 0.42719 0.56681 0.0
C225 C 0.95624 0.50545 0.57712 0.0
C226 C 0.95778 0.46769 0.5705 0.0
C227 C 0.91984 0.39008 0.55928 0.0
C228 C 0.88064 0.35094 0.55396 0.0
C229 C 0.91877 0.42835 0.56545 0.0
C230 C 0.84037 0.35052 0.55435 0.0
C231 C 0.83896 0.38828 0.56093 0.0
H232 H 0.48747 0.89841 0.70064 0.0
H233 H 0.51262 0.87986 0.79018 0.0
H234 H 0.44705 0.882 0.80594 0.0
H235 H 0.38306 0.88998 0.79425 0.0
H236 H 0.36181 0.91579 0.70542 0.0
H237 H 0.42545 0.91029 0.68928 0.0
C238 C 0.47828 0.89462 0.72354 0.0
C239 C 0.50427 0.88859 0.74425 0.0
C240 C 0.4415 0.89745 0.73253 0.0
C241 C 0.49284 0.8845 0.77393 0.0
C242 C 0.45544 0.88571 0.78293 0.0
C243 C 0.39245 0.89436 0.77138 0.0
C244 C 0.36789 0.90301 0.751 0.0
C245 C 0.42963 0.89232 0.76243 0.0
C246 C 0.38051 0.90924 0.72148 0.0
C247 C 0.41671 0.90594 0.71224 0.0
H248 H 0.44926 0.41633 0.92588 0.0
H249 H 0.51159 0.33921 0.9417 0.0
H250 H 0.58169 0.39903 0.92445 0.0
H251 H 0.62493 0.47254 0.90407 0.0
H252 H 0.56481 0.55218 0.89143 0.0
H253 H 0.49389 0.49192 0.90804 0.0
C254 C 0.47829 0.41279 0.92567 0.0
C255 C 0.4753 0.37344 0.93491 0.0
C256 C 0.51864 0.44753 0.91607 0.0
C257 C 0.51314 0.36929 0.9348 0.0
C258 C 0.55317 0.40336 0.92479 0.0
C259 C 0.59618 0.47653 0.90477 0.0
C260 C 0.59965 0.51627 0.8962 0.0
C261 C 0.55617 0.44242 0.91516 0.0
C262 C 0.56261 0.5216 0.89781 0.0
C263 C 0.52221 0.48727 0.90733 0.0
H264 H 0.1978 0.37274 0.05147 0.0
H265 H 0.07163 0.28 0.01557 0.0
H266 H 0.10733 0.25393 0.98198 0.0
H267 H 0.17282 0.25164 0.96692 0.0
H268 H 0.29906 0.34195 0.00383 0.0
H269 H 0.2649 0.37536 0.03257 0.0
C270 C 0.17821 0.34727 0.036 0.0
C271 C 0.1321 0.32783 0.03632 0.0
C272 C 0.19888 0.33184 0.01708 0.0
C273 C 0.10715 0.29512 0.016 0.0
C274 C 0.12751 0.28015 -0.0032 0.0
C275 C 0.19305 0.27898 0.98098 0.0
C276 C 0.23828 0.29379 0.98359 0.0
C277 C 0.17314 0.29734 -0.00219 0.0
C278 C 0.26409 0.32973 0.00154 0.0
C279 C 0.24455 0.3487 0.0181 0.0
H280 H 0.80634 0.1932 0.21133 0.0
H281 H 0.78955 0.06833 0.18599 0.0
H282 H 0.84959 0.1039 0.15101 0.0
H283 H 0.91068 0.17029 0.13075 0.0
H284 H 0.92948 0.29576 0.15641 0.0
H285 H 0.86433 0.26002 0.18768 0.0
C286 C 0.81559 0.1738 0.19795 0.0
C287 C 0.79389 0.12825 0.20156 0.0
C288 C 0.85051 0.19451 0.17795 0.0
C289 C 0.80598 0.10349 0.18388 0.0
C290 C 0.84032 0.12377 0.16384 0.0
C291 C 0.90032 0.18992 0.14289 0.0
C292 C 0.92528 0.23564 0.14149 0.0
C293 C 0.86341 0.16927 0.16117 0.0
C294 C 0.91099 0.26048 0.15714 0.0
C295 C 0.87385 0.24008 0.17517 0.0
H296 H 0.59467 0.81102 0.37997 0.0
H297 H 0.6983 0.78545 0.35437 0.0
H298 H 0.72082 0.83975 0.31563 0.0
H299 H 0.71673 0.89996 0.2929 0.0
H300 H 0.61556 0.92862 0.31933 0.0
H301 H 0.58577 0.86692 0.35328 0.0
C302 C 0.62182 0.81701 0.36565 0.0
C303 C 0.64525 0.79481 0.37035 0.0
C304 C 0.63509 0.84884 0.34359 0.0
C305 C 0.68011 0.80256 0.35149 0.0
C306 C 0.69299 0.83356 0.32929 0.0
C307 C 0.68772 0.89238 0.30571 0.0
C308 C 0.6689 0.91933 0.30391 0.0
C309 C 0.67157 0.85775 0.32571 0.0
C310 C 0.63093 0.90858 0.3204 0.0
C311 C 0.61403 0.87348 0.33999 0.0
H312 H 0.80591 0.73294 0.46236 0.0
H313 H 0.6779 0.62775 0.48749 0.0
H314 H 0.71228 0.59278 0.51434 0.0
H315 H 0.77873 0.59664 0.53523 0.0
H316 H 0.90637 0.70344 0.5112 0.0
H317 H 0.87198 0.7329 0.47907 0.0
C318 C 0.78544 0.70211 0.47342 0.0
C319 C 0.73945 0.68339 0.47331 0.0
C320 C 0.80535 0.68257 0.48917 0.0
C321 C 0.71343 0.64308 0.48741 0.0
C322 C 0.73305 0.6231 0.50285 0.0
C323 C 0.79902 0.62596 0.52261 0.0
C324 C 0.84496 0.6482 0.52593 0.0
C325 C 0.779 0.64324 0.50458 0.0
C326 C 0.87087 0.68599 0.50928 0.0
C327 C 0.85126 0.70293 0.49095 0.0
H328 H 0.04253 0.80173 0.63476 0.0
H329 H 0.03579 0.67839 0.65217 0.0
H330 H 0.09702 0.71386 0.6863 0.0
H331 H 0.14825 0.77882 0.71418 0.0
H332 H 0.15348 0.9015 0.69692 0.0
H333 H 0.09689 0.86717 0.65976 0.0
C334 C 0.05469 0.78258 0.64575 0.0
C335 C 0.03426 0.7374 0.64115 0.0
C336 C 0.08931 0.80296 0.66563 0.0
C337 C 0.0508 0.71323 0.65537 0.0
C338 C 0.08567 0.73343 0.67502 0.0
C339 C 0.13713 0.79804 0.70217 0.0
C340 C 0.15462 0.84247 0.70854 0.0
C341 C 0.10444 0.77808 0.68084 0.0
C342 C 0.1403 0.86713 0.69259 0.0
C343 C 0.10796 0.84757 0.67131 0.0
H344 H 0.23894 0.06964 0.80263 0.0
H345 H 0.33855 0.03658 0.82496 0.0
H346 H 0.37237 0.09838 0.85827 0.0
H347 H 0.36779 0.15583 0.8856 0.0
H348 H 0.26618 0.18645 0.86407 0.0
H349 H 0.23912 0.13157 0.82588 0.0
C350 C 0.26847 0.07627 0.81441 0.0
C351 C 0.28571 0.04807 0.81166 0.0
C352 C 0.28705 0.11109 0.83401 0.0
C353 C 0.32437 0.05758 0.82679 0.0
C354 C 0.34359 0.09276 0.84601 0.0
C355 C 0.34006 0.15082 0.87231 0.0
C356 C 0.31855 0.17461 0.878 0.0
C357 C 0.32426 0.11876 0.85055 0.0
C358 C 0.28298 0.16815 0.86039 0.0
C359 C 0.26747 0.13679 0.83852 0.0
H360 H 0.66957 0.69549 0.82575 0.0
H361 H 0.78554 0.81338 0.85297 0.0
H362 H 0.75929 0.85721 0.82814 0.0
H363 H 0.70608 0.86205 0.79618 0.0
H364 H 0.59167 0.74448 0.76698 0.0
H365 H 0.61455 0.70047 0.79538 0.0
C366 C 0.68888 0.73078 0.82653 0.0
C367 C 0.72955 0.75112 0.84106 0.0
C368 C 0.67401 0.75581 0.81176 0.0
C369 C 0.75426 0.79688 0.84176 0.0
C370 C 0.73929 0.822 0.82758 0.0
C371 C 0.6859 0.82681 0.79623 0.0
C372 C 0.6474 0.80651 0.7794 0.0
C373 C 0.69963 0.80179 0.81211 0.0
C374 C 0.62161 0.76083 0.77967 0.0
C375 C 0.63467 0.73567 0.79586 0.0
H376 H 0.80411 0.68957 0.96625 0.0
H377 H 0.82759 0.58699 0.93711 0.0
H378 H 0.88448 0.60719 0.97428 0.0
H379 H 0.9332 0.65957 0.01069 0.0
H380 H 0.91079 0.76354 0.03856 0.0
H381 H 0.84715 0.7366 0.0065 0.0
C382 C 0.82134 0.67131 0.96824 0.0
C383 C 0.81233 0.63741 0.94867 0.0
C384 C 0.85424 0.68343 0.98932 0.0
C385 C 0.83426 0.61349 0.9518 0.0
C386 C 0.86685 0.6251 0.97297 0.0
C387 C 0.91401 0.67597 0.01015 0.0
C388 C 0.92725 0.71399 0.02663 0.0
C389 C 0.878 0.66088 0.99122 0.0
C390 C 0.90165 0.73448 0.0259 0.0
C391 C 0.86533 0.71921 0.00748 0.0
H392 H 0.24519 0.92738 0.18686 0.0
H393 H 0.12249 0.90934 0.22141 0.0
H394 H 0.08177 0.84632 0.18999 0.0
H395 H 0.08098 0.80336 0.14794 0.0
H396 H 0.2036 0.82329 0.11206 0.0
H397 H 0.24434 0.87843 0.14893 0.0
C398 C 0.20957 0.90914 0.18803 0.0
C399 C 0.18695 0.92358 0.2061 0.0
C400 C 0.1863 0.87371 0.16931 0.0
C401 C 0.14077 0.89928 0.20746 0.0
C402 C 0.1174 0.86335 0.18938 0.0
C403 C 0.1166 0.81938 0.14841 0.0
C404 C 0.13928 0.80991 0.12697 0.0
C405 C 0.13982 0.85144 0.16939 0.0
C406 C 0.18538 0.8304 0.12812 0.0
C407 C 0.20872 0.86196 0.14919 0.0
H408 H 0.24959 0.09555 0.31355 0.0
H409 H 0.35968 0.20874 0.27476 0.0
H410 H 0.34477 0.25633 0.30543 0.0
H411 H 0.29587 0.26556 0.33933 0.0
H412 H 0.18376 0.15203 0.37623 0.0
H413 H 0.2045 0.10473 0.35044 0.0
C414 C 0.27064 0.13063 0.31201 0.0
C415 C 0.30529 0.14864 0.29165 0.0
C416 C 0.26141 0.15769 0.32927 0.0
C417 C 0.33253 0.19411 0.2901 0.0
C418 C 0.324 0.22132 0.3076 0.0
C419 C 0.27637 0.2305 0.34214 0.0
C420 C 0.23805 0.21234 0.35942 0.0
C421 C 0.28784 0.20345 0.32669 0.0
C422 C 0.21318 0.16684 0.36284 0.0
C423 C 0.22494 0.13975 0.34805 0.0
H424 H 0.16872 0.3014 0.47644 0.0
H425 H 0.13126 0.38268 0.42798 0.0
H426 H 0.06716 0.35937 0.45986 0.0
H427 H 0.01643 0.30741 0.49655 0.0
H428 H 0.0532 0.22352 0.54267 0.0
H429 H 0.12315 0.25662 0.51673 0.0
C430 C 0.14692 0.31459 0.47315 0.0
C431 C 0.15409 0.34299 0.44965 0.0
C432 C 0.10976 0.30015 0.4909 0.0
C433 C 0.12617 0.36051 0.44588 0.0
C434 C 0.08939 0.34695 0.46395 0.0
C435 C 0.04012 0.29697 0.50131 0.0
C436 C 0.02931 0.2625 0.5211 0.0
C437 C 0.07997 0.31546 0.48579 0.0
C438 C 0.06041 0.24948 0.52718 0.0
C439 C 0.10044 0.26839 0.51237 0.0
H440 H 0.76003 0.13664 0.61718 0.0
H441 H 0.89163 0.16486 0.63834 0.0
H442 H 0.86339 0.11357 0.67905 0.0
H443 H 0.80096 0.05381 0.70408 0.0
H444 H 0.66883 0.02284 0.68186 0.0
H445 H 0.69777 0.08296 0.6468 0.0
C446 C 0.78252 0.13198 0.63096 0.0
C447 C 0.82769 0.15381 0.62439 0.0
C448 C 0.76601 0.10191 0.65416 0.0
C449 C 0.85658 0.14792 0.64266 0.0
C450 C 0.84049 0.11863 0.66598 0.0
C451 C 0.77843 0.06073 0.69208 0.0
C452 C 0.7328 0.03325 0.69518 0.0
C453 C 0.79518 0.0944 0.6713 0.0
C454 C 0.70415 0.04313 0.67968 0.0
C455 C 0.72065 0.07735 0.65944 0.0
H456 H 0.20238 0.32003 0.27764 0.0
H457 H 0.09042 0.32338 0.31359 0.0
H458 H 0.0655 0.32754 0.26428 0.0
H459 H 0.07443 0.32757 0.21102 0.0
H460 H 0.18116 0.31483 0.17512 0.0
H461 H 0.20969 0.31711 0.22436 0.0
C462 C 0.17274 0.32205 0.27456 0.0
C463 C 0.14839 0.32191 0.29895 0.0
C464 C 0.15782 0.32263 0.24626 0.0
C465 C 0.10957 0.32356 0.29495 0.0
C466 C 0.09541 0.32596 0.26686 0.0
C467 C 0.10417 0.32573 0.21408 0.0
C468 C 0.12616 0.32162 0.18973 0.0
C469 C 0.11913 0.3252 0.24237 0.0
C470 C 0.164 0.3182 0.19373 0.0
C471 C 0.1802 0.31948 0.22179 0.0
H472 H 0.80353 0.17742 0.45427 0.0
H473 H 0.85744 0.09161 0.46378 0.0
H474 H 0.83829 0.06794 0.4134 0.0
H475 H 0.80788 0.07264 0.36631 0.0
H476 H 0.74969 0.15456 0.35703 0.0
H477 H 0.76913 0.17899 0.4076 0.0
C478 C 0.81085 0.15336 0.44536 0.0
C479 C 0.83206 0.13648 0.46281 0.0
C480 C 0.79937 0.13951 0.41635 0.0
C481 C 0.84099 0.10505 0.45096 0.0
C482 C 0.83028 0.09165 0.42206 0.0
C483 C 0.79975 0.0961 0.3753 0.0
C484 C 0.77801 0.11232 0.35789 0.0
C485 C 0.80989 0.10896 0.4045 0.0
C486 C 0.76669 0.14186 0.37 0.0
C487 C 0.77773 0.15575 0.39889 0.0
H488 H 0.602 0.81792 0.62461 0.0
H489 H 0.74344 0.88739 0.63271 0.0
H490 H 0.7509 0.87108 0.58217 0.0
H491 H 0.7177 0.83585 0.53598 0.0
H492 H 0.5765 0.76185 0.52816 0.0
H493 H 0.56849 0.78144 0.5781 0.0
C494 C 0.6344 0.82949 0.61526 0.0
C495 C 0.67205 0.85374 0.63246 0.0
C496 C 0.63854 0.81935 0.58618 0.0
C497 C 0.71385 0.86832 0.62008 0.0
C498 C 0.71823 0.8592 0.5911 0.0
C499 C 0.68516 0.82443 0.54508 0.0
C500 C 0.64776 0.79779 0.52837 0.0
C501 C 0.68085 0.83466 0.57399 0.0
C502 C 0.60581 0.78252 0.54063 0.0
C503 C 0.60122 0.79363 0.56918 0.0
H504 H 0.88289 0.62371 0.70123 0.0
H505 H 0.7755 0.6367 0.66684 0.0
H506 H 0.74674 0.63197 0.71635 0.0
H507 H 0.75589 0.63034 0.76954 0.0
H508 H 0.86918 0.628 0.80387 0.0
H509 H 0.89202 0.62204 0.75431 0.0
C510 C 0.85275 0.6247 0.70463 0.0
C511 C 0.8309 0.62998 0.68061 0.0
C512 C 0.83782 0.62418 0.73313 0.0
C513 C 0.79258 0.6324 0.68514 0.0
C514 C 0.77627 0.62981 0.71338 0.0
C515 C 0.78515 0.62777 0.76608 0.0
C516 C 0.81068 0.62908 0.79011 0.0
C517 C 0.79911 0.62654 0.73755 0.0
C518 C 0.84908 0.62684 0.78556 0.0
C519 C 0.86211 0.62352 0.7573 0.0
H520 H 0.14392 0.89398 0.87556 0.0
H521 H 0.19628 0.80779 0.86247 0.0
H522 H 0.17717 0.7813 0.91289 0.0
H523 H 0.14491 0.78253 0.96059 0.0
H524 H 0.09727 0.87279 0.97386 0.0
H525 H 0.1157 0.89815 0.92357 0.0
C526 C 0.15083 0.86914 0.88369 0.0
C527 C 0.17082 0.85233 0.86529 0.0
C528 C 0.14098 0.85512 0.9128 0.0
C529 C 0.18063 0.82098 0.87626 0.0
C530 C 0.16978 0.80591 0.90505 0.0
C531 C 0.13879 0.8079 0.9525 0.0
C532 C 0.1196 0.82559 0.97098 0.0
C533 C 0.14993 0.82278 0.92353 0.0
C534 C 0.1122 0.85871 0.96021 0.0
C535 C 0.12248 0.8731 0.93137 0.0
H536 H 0.34671 0.13826 0.13464 0.0
H537 H 0.20659 0.08739 0.14083 0.0
H538 H 0.20478 0.10757 0.09012 0.0
H539 H 0.24276 0.14025 0.04417 0.0
H540 H 0.38348 0.19637 0.03842 0.0
H541 H 0.38532 0.17329 0.08868 0.0
C542 C 0.31583 0.13163 0.12485 0.0
C543 C 0.27686 0.11133 0.14149 0.0
C544 C 0.31509 0.14404 0.09573 0.0
C545 C 0.23713 0.10326 0.12859 0.0
C546 C 0.23599 0.11458 0.09953 0.0
C547 C 0.27378 0.147 0.05383 0.0
C548 C 0.31285 0.16947 0.03757 0.0
C549 C 0.27472 0.13494 0.08291 0.0
C550 C 0.35294 0.17892 0.05053 0.0
C551 C 0.354 0.16581 0.07925 0.0
loop_
_geom_bond_atom_site_label_1
_geom_bond_atom_site_label_2
_geom_bond_distance
_geom_bond_site_symmetry_2
_ccdc_geom_bond_type
C0 O1 1.306 . S
C0 O3 1.160 . S
O1 C0 1.306 . S
O1 Cd2 2.228 1_655 S
Cd2 O1 2.228 1_455 S
Cd2 O6 2.273 . S
Cd2 O10 2.277 . S
O3 C0 1.160 . S
O3 Cd4 2.203 1_655 S
Cd4 O3 2.203 1_455 S
Cd4 O6 2.411 . S
Cd4 O7 2.333 . S
Cd4 O8 2.352 . S
Cd4 O12 2.277 . S
Cd4 O13 2.356 . S
C5 O10 1.209 . S
C5 O12 1.226 . S
O6 Cd2 2.273 . S
O6 Cd4 2.411 . S
O6 C9 1.320 . S
O7 Cd4 2.333 . S
O7 C9 1.214 . S
O8 Cd4 2.352 . S
O8 C11 1.258 . S
C9 O6 1.320 . S
C9 O7 1.214 . S
O10 Cd2 2.277 . S
O10 C5 1.209 . S
C11 O8 1.258 . S
C11 O13 1.282 . S
O12 Cd4 2.277 . S
O12 C5 1.226 . S
O13 Cd4 2.356 . S
O13 C11 1.282 . S
C14 O15 1.306 . S
C14 O17 1.160 . S
O15 C14 1.306 . S
O15 Cd16 2.228 1_565 S
Cd16 O15 2.228 1_545 S
Cd16 O20 2.273 . S
Cd16 O24 2.277 . S
O17 C14 1.160 . S
O17 Cd18 2.203 1_565 S
Cd18 O17 2.203 1_545 S
Cd18 O20 2.411 . S
Cd18 O21 2.333 . S
Cd18 O22 2.352 . S
Cd18 O26 2.277 . S
Cd18 O27 2.356 . S
C19 O24 1.209 . S
C19 O26 1.226 . S
O20 Cd16 2.273 . S
O20 Cd18 2.411 . S
O20 C23 1.320 . S
O21 Cd18 2.333 . S
O21 C23 1.214 . S
O22 Cd18 2.352 . S
O22 C25 1.258 . S
C23 O20 1.320 . S
C23 O21 1.214 . S
O24 Cd16 2.277 . S
O24 C19 1.209 . S
C25 O22 1.258 . S
C25 O27 1.282 . S
O26 Cd18 2.277 . S
O26 C19 1.226 . S
O27 Cd18 2.356 . S
O27 C25 1.282 . S
C28 O29 1.306 . S
C28 O31 1.160 . S
O29 C28 1.306 . S
O29 Cd30 2.228 . S
Cd30 O29 2.228 . S
Cd30 O34 2.273 . S
Cd30 O38 2.277 . S
O31 C28 1.160 . S
O31 Cd32 2.203 . S
Cd32 O31 2.203 . S
Cd32 O34 2.411 . S
Cd32 O35 2.333 . S
Cd32 O36 2.352 . S
Cd32 O40 2.277 . S
Cd32 O41 2.356 . S
C33 O38 1.209 . S
C33 O40 1.226 . S
O34 Cd30 2.273 . S
O34 Cd32 2.411 . S
O34 C37 1.320 . S
O35 Cd32 2.333 . S
O35 C37 1.214 . S
O36 Cd32 2.352 . S
O36 C39 1.258 . S
C37 O34 1.320 . S
C37 O35 1.214 . S
O38 Cd30 2.277 . S
O38 C33 1.209 . S
C39 O36 1.258 . S
C39 O41 1.282 . S
O40 Cd32 2.277 . S
O40 C33 1.226 . S
O41 Cd32 2.356 . S
O41 C39 1.282 . S
C42 O43 1.306 . S
C42 O45 1.160 . S
O43 C42 1.306 . S
O43 Cd44 2.228 1_455 S
Cd44 O43 2.228 1_655 S
Cd44 O48 2.273 . S
Cd44 O52 2.277 . S
O45 C42 1.160 . S
O45 Cd46 2.203 1_455 S
Cd46 O45 2.203 1_655 S
Cd46 O48 2.411 . S
Cd46 O49 2.333 . S
Cd46 O50 2.352 . S
Cd46 O54 2.277 . S
Cd46 O55 2.356 . S
C47 O52 1.209 . S
C47 O54 1.226 . S
O48 Cd44 2.273 . S
O48 Cd46 2.411 . S
O48 C51 1.320 . S
O49 Cd46 2.333 . S
O49 C51 1.214 . S
O50 Cd46 2.352 . S
O50 C53 1.258 . S
C51 O48 1.320 . S
C51 O49 1.214 . S
O52 Cd44 2.277 . S
O52 C47 1.209 . S
C53 O50 1.258 . S
C53 O55 1.282 . S
O54 Cd46 2.277 . S
O54 C47 1.226 . S
O55 Cd46 2.356 . S
O55 C53 1.282 . S
C56 O57 1.306 . S
C56 O59 1.160 . S
O57 C56 1.306 . S
O57 Cd58 2.228 1_545 S
Cd58 O57 2.228 1_565 S
Cd58 O62 2.273 . S
Cd58 O66 2.277 . S
O59 C56 1.160 . S
O59 Cd60 2.203 1_545 S
Cd60 O59 2.203 1_565 S
Cd60 O62 2.411 . S
Cd60 O63 2.333 . S
Cd60 O64 2.352 . S
Cd60 O68 2.277 . S
Cd60 O69 2.356 . S
C61 O66 1.209 . S
C61 O68 1.226 . S
O62 Cd58 2.273 . S
O62 Cd60 2.411 . S
O62 C65 1.320 . S
O63 Cd60 2.333 . S
O63 C65 1.214 . S
O64 Cd60 2.352 . S
O64 C67 1.258 . S
C65 O62 1.320 . S
C65 O63 1.214 . S
O66 Cd58 2.277 . S
O66 C61 1.209 . S
C67 O64 1.258 . S
C67 O69 1.282 . S
O68 Cd60 2.277 . S
O68 C61 1.226 . S
O69 Cd60 2.356 . S
O69 C67 1.282 . S
C70 O71 1.306 . S
C70 O73 1.160 . S
O71 C70 1.306 . S
O71 Cd72 2.228 . S
Cd72 O71 2.228 . S
Cd72 O76 2.273 . S
Cd72 O80 2.278 1_556 S
O73 C70 1.160 . S
O73 Cd74 2.203 . S
Cd74 O73 2.203 . S
Cd74 O76 2.411 . S
Cd74 O77 2.333 . S
Cd74 O78 2.352 . S
Cd74 O82 2.277 1_556 S
Cd74 O83 2.356 . S
C75 O80 1.208 . S
C75 O82 1.226 . S
O76 Cd72 2.273 . S
O76 Cd74 2.411 . S
O76 C79 1.320 . S
O77 Cd74 2.333 . S
O77 C79 1.214 . S
O78 Cd74 2.352 . S
O78 C81 1.258 . S
C79 O76 1.320 . S
C79 O77 1.214 . S
O80 Cd72 2.278 1_554 S
O80 C75 1.208 . S
C81 O78 1.258 . S
C81 O83 1.282 . S
O82 Cd74 2.277 1_554 S
O82 C75 1.226 . S
O83 Cd74 2.356 . S
O83 C81 1.282 . S
C84 O85 1.306 . S
C84 O87 1.160 . S
O85 C84 1.306 . S
O85 Cd86 2.228 1_545 S
Cd86 O85 2.228 1_565 S
Cd86 O90 2.273 . S
Cd86 O94 2.277 . S
O87 C84 1.160 . S
O87 Cd88 2.203 1_545 S
Cd88 O87 2.203 1_565 S
Cd88 O90 2.411 . S
Cd88 O91 2.333 . S
Cd88 O92 2.352 . S
Cd88 O96 2.277 . S
Cd88 O97 2.356 . S
C89 O94 1.209 . S
C89 O96 1.226 . S
O90 Cd86 2.273 . S
O90 Cd88 2.411 . S
O90 C93 1.320 . S
O91 Cd88 2.333 . S
O91 C93 1.214 . S
O92 Cd88 2.352 . S
O92 C95 1.258 . S
C93 O90 1.320 . S
C93 O91 1.214 . S
O94 Cd86 2.277 . S
O94 C89 1.209 . S
C95 O92 1.258 . S
C95 O97 1.282 . S
O96 Cd88 2.277 . S
O96 C89 1.226 . S
O97 Cd88 2.356 . S
O97 C95 1.282 . S
C98 O99 1.306 . S
C98 O101 1.160 . S
O99 C98 1.306 . S
O99 Cd100 2.228 . S
Cd100 O99 2.228 . S
Cd100 O104 2.273 . S
Cd100 O108 2.277 . S
O101 C98 1.160 . S
O101 Cd102 2.203 . S
Cd102 O101 2.203 . S
Cd102 O104 2.411 . S
Cd102 O105 2.333 . S
Cd102 O106 2.352 . S
Cd102 O110 2.277 . S
Cd102 O111 2.356 . S
C103 O108 1.209 . S
C103 O110 1.226 . S
O104 Cd100 2.273 . S
O104 Cd102 2.411 . S
O104 C107 1.320 . S
O105 Cd102 2.333 . S
O105 C107 1.214 . S
O106 Cd102 2.352 . S
O106 C109 1.258 . S
C107 O104 1.320 . S
C107 O105 1.214 . S
O108 Cd100 2.277 . S
O108 C103 1.209 . S
C109 O106 1.258 . S
C109 O111 1.282 . S
O110 Cd102 2.277 . S
O110 C103 1.226 . S
O111 Cd102 2.356 . S
O111 C109 1.282 . S
C112 O113 1.306 . S
C112 O115 1.160 . S
O113 C112 1.306 . S
O113 Cd114 2.228 1_655 S
Cd114 O113 2.228 1_455 S
Cd114 O118 2.273 . S
Cd114 O122 2.272 1_554 S
O115 C112 1.160 . S
O115 Cd116 2.203 1_655 S
Cd116 O115 2.203 1_455 S
Cd116 O118 2.411 . S
Cd116 O119 2.333 . S
Cd116 O120 2.352 . S
Cd116 O124 2.277 1_554 S
Cd116 O125 2.356 . S
C117 O122 1.213 . S
C117 O124 1.226 . S
O118 Cd114 2.273 . S
O118 Cd116 2.411 . S
O118 C121 1.320 . S
O119 Cd116 2.333 . S
O119 C121 1.214 . S
O120 Cd116 2.352 . S
O120 C123 1.258 . S
C121 O118 1.320 . S
C121 O119 1.214 . S
O122 Cd114 2.272 1_556 S
O122 C117 1.213 . S
C123 O120 1.258 . S
C123 O125 1.282 . S
O124 Cd116 2.277 1_556 S
O124 C117 1.226 . S
O125 Cd116 2.356 . S
O125 C123 1.282 . S
C126 O127 1.306 . S
C126 O129 1.160 . S
O127 C126 1.306 . S
O127 Cd128 2.228 1_565 S
Cd128 O127 2.228 1_545 S
Cd128 O132 2.273 . S
Cd128 O136 2.277 . S
O129 C126 1.160 . S
O129 Cd130 2.203 1_565 S
Cd130 O129 2.203 1_545 S
Cd130 O132 2.411 . S
Cd130 O133 2.333 . S
Cd130 O134 2.352 . S
Cd130 O138 2.277 . S
Cd130 O139 2.356 . S
C131 O136 1.209 . S
C131 O138 1.226 . S
O132 Cd128 2.273 . S
O132 Cd130 2.411 . S
O132 C135 1.320 . S
O133 Cd130 2.333 . S
O133 C135 1.214 . S
O134 Cd130 2.352 . S
O134 C137 1.258 . S
C135 O132 1.320 . S
C135 O133 1.214 . S
O136 Cd128 2.277 . S
O136 C131 1.209 . S
C137 O134 1.258 . S
C137 O139 1.282 . S
O138 Cd130 2.277 . S
O138 C131 1.226 . S
O139 Cd130 2.356 . S
O139 C137 1.282 . S
C140 O141 1.306 . S
C140 O143 1.160 . S
O141 C140 1.306 . S
O141 Cd142 2.228 . S
Cd142 O141 2.228 . S
Cd142 O146 2.273 . S
Cd142 O150 2.277 . S
O143 C140 1.160 . S
O143 Cd144 2.203 . S
Cd144 O143 2.203 . S
Cd144 O146 2.411 . S
Cd144 O147 2.333 . S
Cd144 O148 2.352 . S
Cd144 O152 2.277 . S
Cd144 O153 2.356 . S
C145 O150 1.209 . S
C145 O152 1.226 . S
O146 Cd142 2.273 . S
O146 Cd144 2.411 . S
O146 C149 1.320 . S
O147 Cd144 2.333 . S
O147 C149 1.214 . S
O148 Cd144 2.352 . S
O148 C151 1.258 . S
C149 O146 1.320 . S
C149 O147 1.214 . S
O150 Cd142 2.277 . S
O150 C145 1.209 . S
C151 O148 1.258 . S
C151 O153 1.282 . S
O152 Cd144 2.277 . S
O152 C145 1.226 . S
O153 Cd144 2.356 . S
O153 C151 1.282 . S
C154 O155 1.306 . S
C154 O157 1.160 . S
O155 C154 1.306 . S
O155 Cd156 2.228 1_455 S
Cd156 O155 2.228 1_655 S
Cd156 O160 2.273 . S
Cd156 O164 2.277 . S
O157 C154 1.160 . S
O157 Cd158 2.203 1_455 S
Cd158 O157 2.203 1_655 S
Cd158 O160 2.411 . S
Cd158 O161 2.333 . S
Cd158 O162 2.352 . S
Cd158 O166 2.277 . S
Cd158 O167 2.356 . S
C159 O164 1.209 . S
C159 O166 1.226 . S
O160 Cd156 2.273 . S
O160 Cd158 2.411 . S
O160 C163 1.320 . S
O161 Cd158 2.333 . S
O161 C163 1.214 . S
O162 Cd158 2.352 . S
O162 C165 1.258 . S
C163 O160 1.320 . S
C163 O161 1.214 . S
O164 Cd156 2.277 . S
O164 C159 1.209 . S
C165 O162 1.258 . S
C165 O167 1.282 . S
O166 Cd158 2.277 . S
O166 C159 1.226 . S
O167 Cd158 2.356 . S
O167 C165 1.282 . S
H168 C174 0.930 . S
H169 C177 0.930 . S
H170 C178 0.930 . S
H171 C179 0.930 1_655 S
H172 C182 0.930 . S
H173 C183 0.930 . S
C174 H168 0.930 . S
C174 C175 1.355 . S
C174 C176 1.415 . S
C175 C174 1.355 . S
C175 C177 1.419 1_455 S
C176 C174 1.415 . S
C176 C181 1.425 . S
C176 C183 1.409 . S
C177 H169 0.930 . S
C177 C175 1.419 1_655 S
C177 C178 1.362 . S
C178 H170 0.930 . S
C178 C177 1.362 . S
C178 C181 1.409 1_655 S
C179 H171 0.930 1_455 S
C179 C180 1.355 . S
C179 C181 1.415 . S
C180 C179 1.355 . S
C180 C182 1.419 . S
C181 C176 1.425 . S
C181 C178 1.409 1_455 S
C181 C179 1.415 . S
C182 H172 0.930 . S
C182 C180 1.419 . S
C182 C183 1.362 . S
C183 H173 0.930 . S
C183 C176 1.409 . S
C183 C182 1.362 . S
H184 C190 0.930 . S
H185 C193 0.930 . S
H186 C194 0.930 . S
H187 C195 0.930 . S
H188 C198 0.930 . S
H189 C199 0.930 . S
C190 H184 0.930 . S
C190 C191 1.355 . S
C190 C192 1.415 . S
C191 C190 1.355 . S
C191 C193 1.419 . S
C192 C190 1.415 . S
C192 C197 1.425 . S
C192 C199 1.409 . S
C193 H185 0.930 . S
C193 C191 1.419 . S
C193 C194 1.362 . S
C194 H186 0.930 . S
C194 C193 1.362 . S
C194 C197 1.409 . S
C195 H187 0.930 . S
C195 C196 1.355 . S
C195 C197 1.415 . S
C196 C195 1.355 . S
C196 C198 1.419 . S
C197 C192 1.425 . S
C197 C194 1.409 . S
C197 C195 1.415 . S
C198 H188 0.930 . S
C198 C196 1.419 . S
C198 C199 1.362 . S
C199 H189 0.930 . S
C199 C192 1.409 . S
C199 C198 1.362 . S
H200 C206 0.930 . S
H201 C209 0.930 . S
H202 C210 0.930 . S
H203 C211 0.930 . S
H204 C214 0.930 . S
H205 C215 0.930 . S
C206 H200 0.930 . S
C206 C207 1.355 . S
C206 C208 1.415 . S
C207 C206 1.355 . S
C207 C209 1.419 . S
C208 C206 1.415 . S
C208 C213 1.425 . S
C208 C215 1.409 . S
C209 H201 0.930 . S
C209 C207 1.419 . S
C209 C210 1.362 . S
C210 H202 0.930 . S
C210 C209 1.362 . S
C210 C213 1.409 . S
C211 H203 0.930 . S
C211 C212 1.355 . S
C211 C213 1.415 . S
C212 C211 1.355 . S
C212 C214 1.419 . S
C213 C208 1.425 . S
C213 C210 1.409 . S
C213 C211 1.415 . S
C214 H204 0.930 . S
C214 C212 1.419 . S
C214 C215 1.362 . S
C215 H205 0.930 . S
C215 C208 1.409 . S
C215 C214 1.362 . S
H216 C222 0.930 . S
H217 C225 0.929 1_455 S
H218 C226 0.930 . S
H219 C227 0.930 1_455 S
H220 C230 0.930 . S
H221 C231 0.930 . S
C222 H216 0.930 . S
C222 C223 1.355 . S
C222 C224 1.415 . S
C223 C222 1.355 . S
C223 C225 1.421 . S
C224 C222 1.415 . S
C224 C229 1.425 . S
C224 C231 1.409 . S
C225 H217 0.929 1_655 S
C225 C223 1.421 . S
C225 C226 1.361 1_655 S
C226 H218 0.930 . S
C226 C225 1.361 1_455 S
C226 C229 1.409 1_455 S
C227 H219 0.930 1_655 S
C227 C228 1.355 . S
C227 C229 1.415 . S
C228 C227 1.355 . S
C228 C230 1.419 . S
C229 C224 1.425 . S
C229 C226 1.409 1_655 S
C229 C227 1.415 . S
C230 H220 0.930 . S
C230 C228 1.419 . S
C230 C231 1.362 . S
C231 H221 0.930 . S
C231 C224 1.409 . S
C231 C230 1.362 . S
H232 C238 0.930 . S
H233 C241 0.930 . S
H234 C242 0.930 . S
H235 C243 0.930 . S
H236 C246 0.930 . S
H237 C247 0.930 . S
C238 H232 0.930 . S
C238 C239 1.355 . S
C238 C240 1.415 . S
C239 C238 1.355 . S
C239 C241 1.419 . S
C240 C238 1.415 . S
C240 C245 1.425 . S
C240 C247 1.409 . S
C241 H233 0.930 . S
C241 C239 1.419 . S
C241 C242 1.362 . S
C242 H234 0.930 . S
C242 C241 1.362 . S
C242 C245 1.409 . S
C243 H235 0.930 . S
C243 C244 1.355 . S
C243 C245 1.415 . S
C244 C243 1.355 . S
C244 C246 1.419 . S
C245 C240 1.425 . S
C245 C242 1.409 . S
C245 C243 1.415 . S
C246 H236 0.930 . S
C246 C244 1.419 . S
C246 C247 1.362 . S
C247 H237 0.930 . S
C247 C240 1.409 . S
C247 C246 1.362 . S
H248 C254 0.930 . S
H249 C257 0.930 . S
H250 C258 0.930 . S
H251 C259 0.930 . S
H252 C262 0.930 . S
H253 C263 0.930 . S
C254 H248 0.930 . S
C254 C255 1.355 . S
C254 C256 1.415 . S
C255 C254 1.355 . S
C255 C257 1.419 . S
C256 C254 1.415 . S
C256 C261 1.425 . S
C256 C263 1.409 . S
C257 H249 0.930 . S
C257 C255 1.419 . S
C257 C258 1.362 . S
C258 H250 0.930 . S
C258 C257 1.362 . S
C258 C261 1.409 . S
C259 H251 0.930 . S
C259 C260 1.355 . S
C259 C261 1.415 . S
C260 C259 1.355 . S
C260 C262 1.419 . S
C261 C256 1.425 . S
C261 C258 1.409 . S
C261 C259 1.415 . S
C262 H252 0.930 . S
C262 C260 1.419 . S
C262 C263 1.362 . S
C263 H253 0.930 . S
C263 C256 1.409 . S
C263 C262 1.362 . S
H264 C270 0.930 . S
H265 C273 0.930 . S
H266 C274 0.930 . S
H267 C275 0.930 . S
H268 C278 0.930 . S
H269 C279 0.930 . S
C270 H264 0.930 . S
C270 C271 1.355 . S
C270 C272 1.415 . S
C271 C270 1.355 . S
C271 C273 1.419 . S
C272 C270 1.415 . S
C272 C277 1.425 . S
C272 C279 1.409 . S
C273 H265 0.930 . S
C273 C271 1.419 . S
C273 C274 1.362 . S
C274 H266 0.930 . S
C274 C273 1.362 . S
C274 C277 1.409 . S
C275 H267 0.930 . S
C275 C276 1.355 . S
C275 C277 1.415 . S
C276 C275 1.355 . S
C276 C278 1.419 1_554 S
C277 C272 1.425 . S
C277 C274 1.409 . S
C277 C275 1.415 . S
C278 H268 0.930 . S
C278 C276 1.419 1_556 S
C278 C279 1.362 1_556 S
C279 H269 0.930 . S
C279 C272 1.409 . S
C279 C278 1.362 1_554 S
H280 C286 0.930 . S
H281 C289 0.930 . S
H282 C290 0.930 . S
H283 C291 0.930 . S
H284 C294 0.930 . S
H285 C295 0.930 . S
C286 H280 0.930 . S
C286 C287 1.355 . S
C286 C288 1.415 . S
C287 C286 1.355 . S
C287 C289 1.419 . S
C288 C286 1.415 . S
C288 C293 1.425 . S
C288 C295 1.409 . S
C289 H281 0.930 . S
C289 C287 1.419 . S
C289 C290 1.362 . S
C290 H282 0.930 . S
C290 C289 1.362 . S
C290 C293 1.409 . S
C291 H283 0.930 . S
C291 C292 1.355 . S
C291 C293 1.415 . S
C292 C291 1.355 . S
C292 C294 1.419 . S
C293 C288 1.425 . S
C293 C290 1.409 . S
C293 C291 1.415 . S
C294 H284 0.930 . S
C294 C292 1.419 . S
C294 C295 1.362 . S
C295 H285 0.930 . S
C295 C288 1.409 . S
C295 C294 1.362 . S
H296 C302 0.930 . S
H297 C305 0.930 . S
H298 C306 0.930 . S
H299 C307 0.930 . S
H300 C310 0.930 . S
H301 C311 0.930 . S
C302 H296 0.930 . S
C302 C303 1.355 . S
C302 C304 1.415 . S
C303 C302 1.355 . S
C303 C305 1.419 . S
C304 C302 1.415 . S
C304 C309 1.425 . S
C304 C311 1.409 . S
C305 H297 0.930 . S
C305 C303 1.419 . S
C305 C306 1.362 . S
C306 H298 0.930 . S
C306 C305 1.362 . S
C306 C309 1.409 . S
C307 H299 0.930 . S
C307 C308 1.355 . S
C307 C309 1.415 . S
C308 C307 1.355 . S
C308 C310 1.419 . S
C309 C304 1.425 . S
C309 C306 1.409 . S
C309 C307 1.415 . S
C310 H300 0.930 . S
C310 C308 1.419 . S
C310 C311 1.362 . S
C311 H301 0.930 . S
C311 C304 1.409 . S
C311 C310 1.362 . S
H312 C318 0.930 . S
H313 C321 0.930 . S
H314 C322 0.930 . S
H315 C323 0.930 . S
H316 C326 0.930 . S
H317 C327 0.930 . S
C318 H312 0.930 . S
C318 C319 1.355 . S
C318 C320 1.415 . S
C319 C318 1.355 . S
C319 C321 1.419 . S
C320 C318 1.415 . S
C320 C325 1.425 . S
C320 C327 1.409 . S
C321 H313 0.930 . S
C321 C319 1.419 . S
C321 C322 1.362 . S
C322 H314 0.930 . S
C322 C321 1.362 . S
C322 C325 1.409 . S
C323 H315 0.930 . S
C323 C324 1.355 . S
C323 C325 1.415 . S
C324 C323 1.355 . S
C324 C326 1.419 . S
C325 C320 1.425 . S
C325 C322 1.409 . S
C325 C323 1.415 . S
C326 H316 0.930 . S
C326 C324 1.419 . S
C326 C327 1.362 . S
C327 H317 0.930 . S
C327 C320 1.409 . S
C327 C326 1.362 . S
H328 C334 0.930 . S
H329 C337 0.930 . S
H330 C338 0.930 . S
H331 C339 0.930 . S
H332 C342 0.930 . S
H333 C343 0.930 . S
C334 H328 0.930 . S
C334 C335 1.355 . S
C334 C336 1.415 . S
C335 C334 1.355 . S
C335 C337 1.419 . S
C336 C334 1.415 . S
C336 C341 1.425 . S
C336 C343 1.409 . S
C337 H329 0.930 . S
C337 C335 1.419 . S
C337 C338 1.362 . S
C338 H330 0.930 . S
C338 C337 1.362 . S
C338 C341 1.409 . S
C339 H331 0.930 . S
C339 C340 1.355 . S
C339 C341 1.415 . S
C340 C339 1.355 . S
C340 C342 1.419 . S
C341 C336 1.425 . S
C341 C338 1.409 . S
C341 C339 1.415 . S
C342 H332 0.930 . S
C342 C340 1.419 . S
C342 C343 1.362 . S
C343 H333 0.930 . S
C343 C336 1.409 . S
C343 C342 1.362 . S
H344 C350 0.930 . S
H345 C353 0.930 . S
H346 C354 0.930 . S
H347 C355 0.930 . S
H348 C358 0.930 . S
H349 C359 0.930 . S
C350 H344 0.930 . S
C350 C351 1.355 . S
C350 C352 1.415 . S
C351 C350 1.355 . S
C351 C353 1.419 . S
C352 C350 1.415 . S
C352 C357 1.425 . S
C352 C359 1.409 . S
C353 H345 0.930 . S
C353 C351 1.419 . S
C353 C354 1.362 . S
C354 H346 0.930 . S
C354 C353 1.362 . S
C354 C357 1.409 . S
C355 H347 0.930 . S
C355 C356 1.355 . S
C355 C357 1.415 . S
C356 C355 1.355 . S
C356 C358 1.419 . S
C357 C352 1.425 . S
C357 C354 1.409 . S
C357 C355 1.415 . S
C358 H348 0.930 . S
C358 C356 1.419 . S
C358 C359 1.362 . S
C359 H349 0.930 . S
C359 C352 1.409 . S
C359 C358 1.362 . S
H360 C366 0.930 . S
H361 C369 0.930 . S
H362 C370 0.930 . S
H363 C371 0.930 . S
H364 C374 0.930 . S
H365 C375 0.930 . S
C366 H360 0.930 . S
C366 C367 1.355 . S
C366 C368 1.415 . S
C367 C366 1.355 . S
C367 C369 1.419 . S
C368 C366 1.415 . S
C368 C373 1.425 . S
C368 C375 1.409 . S
C369 H361 0.930 . S
C369 C367 1.419 . S
C369 C370 1.362 . S
C370 H362 0.930 . S
C370 C369 1.362 . S
C370 C373 1.409 . S
C371 H363 0.930 . S
C371 C372 1.355 . S
C371 C373 1.415 . S
C372 C371 1.355 . S
C372 C374 1.419 . S
C373 C368 1.425 . S
C373 C370 1.409 . S
C373 C371 1.415 . S
C374 H364 0.930 . S
C374 C372 1.419 . S
C374 C375 1.362 . S
C375 H365 0.930 . S
C375 C368 1.409 . S
C375 C374 1.362 . S
H376 C382 0.930 . S
H377 C385 0.930 . S
H378 C386 0.930 . S
H379 C387 0.930 . S
H380 C390 0.930 . S
H381 C391 0.930 1_554 S
C382 H376 0.930 . S
C382 C383 1.355 . S
C382 C384 1.415 . S
C383 C382 1.355 . S
C383 C385 1.419 . S
C384 C382 1.415 . S
C384 C389 1.425 . S
C384 C391 1.409 . S
C385 H377 0.930 . S
C385 C383 1.419 . S
C385 C386 1.362 . S
C386 H378 0.930 . S
C386 C385 1.362 . S
C386 C389 1.409 . S
C387 H379 0.930 . S
C387 C388 1.355 . S
C387 C389 1.415 . S
C388 C387 1.355 . S
C388 C390 1.419 1_556 S
C389 C384 1.425 . S
C389 C386 1.409 . S
C389 C387 1.415 . S
C390 H380 0.930 . S
C390 C388 1.419 1_554 S
C390 C391 1.362 1_554 S
C391 H381 0.930 1_556 S
C391 C384 1.409 . S
C391 C390 1.362 1_556 S
H392 C398 0.930 . S
H393 C401 0.930 . S
H394 C402 0.930 . S
H395 C403 0.930 . S
H396 C406 0.930 . S
H397 C407 0.930 . S
C398 H392 0.930 . S
C398 C399 1.355 . S
C398 C400 1.415 . S
C399 C398 1.355 . S
C399 C401 1.419 . S
C400 C398 1.415 . S
C400 C405 1.425 . S
C400 C407 1.409 . S
C401 H393 0.930 . S
C401 C399 1.419 . S
C401 C402 1.362 . S
C402 H394 0.930 . S
C402 C401 1.362 . S
C402 C405 1.409 . S
C403 H395 0.930 . S
C403 C404 1.355 . S
C403 C405 1.415 . S
C404 C403 1.355 . S
C404 C406 1.419 . S
C405 C400 1.425 . S
C405 C402 1.409 . S
C405 C403 1.415 . S
C406 H396 0.930 . S
C406 C404 1.419 . S
C406 C407 1.362 . S
C407 H397 0.930 . S
C407 C400 1.409 . S
C407 C406 1.362 . S
H408 C414 0.930 . S
H409 C417 0.930 . S
H410 C418 0.930 . S
H411 C419 0.930 . S
H412 C422 0.930 . S
H413 C423 0.930 . S
C414 H408 0.930 . S
C414 C415 1.355 . S
C414 C416 1.415 . S
C415 C414 1.355 . S
C415 C417 1.419 . S
C416 C414 1.415 . S
C416 C421 1.425 . S
C416 C423 1.409 . S
C417 H409 0.930 . S
C417 C415 1.419 . S
C417 C418 1.362 . S
C418 H410 0.930 . S
C418 C417 1.362 . S
C418 C421 1.409 . S
C419 H411 0.930 . S
C419 C420 1.355 . S
C419 C421 1.415 . S
C420 C419 1.355 . S
C420 C422 1.419 . S
C421 C416 1.425 . S
C421 C418 1.409 . S
C421 C419 1.415 . S
C422 H412 0.930 . S
C422 C420 1.419 . S
C422 C423 1.362 . S
C423 H413 0.930 . S
C423 C416 1.409 . S
C423 C422 1.362 . S
H424 C430 0.930 . S
H425 C433 0.930 . S
H426 C434 0.930 . S
H427 C435 0.930 . S
H428 C438 0.930 . S
H429 C439 0.930 . S
C430 H424 0.930 . S
C430 C431 1.355 . S
C430 C432 1.415 . S
C431 C430 1.355 . S
C431 C433 1.419 . S
C432 C430 1.415 . S
C432 C437 1.425 . S
C432 C439 1.409 . S
C433 H425 0.930 . S
C433 C431 1.419 . S
C433 C434 1.362 . S
C434 H426 0.930 . S
C434 C433 1.362 . S
C434 C437 1.409 . S
C435 H427 0.930 . S
C435 C436 1.355 . S
C435 C437 1.415 . S
C436 C435 1.355 . S
C436 C438 1.419 . S
C437 C432 1.425 . S
C437 C434 1.409 . S
C437 C435 1.415 . S
C438 H428 0.930 . S
C438 C436 1.419 . S
C438 C439 1.362 . S
C439 H429 0.930 . S
C439 C432 1.409 . S
C439 C438 1.362 . S
H440 C446 0.930 . S
H441 C449 0.930 . S
H442 C450 0.930 . S
H443 C451 0.930 . S
H444 C454 0.930 . S
H445 C455 0.930 . S
C446 H440 0.930 . S
C446 C447 1.355 . S
C446 C448 1.415 . S
C447 C446 1.355 . S
C447 C449 1.419 . S
C448 C446 1.415 . S
C448 C453 1.425 . S
C448 C455 1.409 . S
C449 H441 0.930 . S
C449 C447 1.419 . S
C449 C450 1.362 . S
C450 H442 0.930 . S
C450 C449 1.362 . S
C450 C453 1.409 . S
C451 H443 0.930 . S
C451 C452 1.355 . S
C451 C453 1.415 . S
C452 C451 1.355 . S
C452 C454 1.419 . S
C453 C448 1.425 . S
C453 C450 1.409 . S
C453 C451 1.415 . S
C454 H444 0.930 . S
C454 C452 1.419 . S
C454 C455 1.362 . S
C455 H445 0.930 . S
C455 C448 1.409 . S
C455 C454 1.362 . S
H456 C462 0.930 . S
H457 C465 0.930 . S
H458 C466 0.930 . S
H459 C467 0.930 . S
H460 C470 0.930 . S
H461 C471 0.930 . S
C462 H456 0.930 . S
C462 C463 1.355 . S
C462 C464 1.415 . S
C463 C462 1.355 . S
C463 C465 1.419 . S
C464 C462 1.415 . S
C464 C469 1.425 . S
C464 C471 1.409 . S
C465 H457 0.930 . S
C465 C463 1.419 . S
C465 C466 1.362 . S
C466 H458 0.930 . S
C466 C465 1.362 . S
C466 C469 1.409 . S
C467 H459 0.930 . S
C467 C468 1.355 . S
C467 C469 1.415 . S
C468 C467 1.355 . S
C468 C470 1.419 . S
C469 C464 1.425 . S
C469 C466 1.409 . S
C469 C467 1.415 . S
C470 H460 0.930 . S
C470 C468 1.419 . S
C470 C471 1.362 . S
C471 H461 0.930 . S
C471 C464 1.409 . S
C471 C470 1.362 . S
H472 C478 0.930 . S
H473 C481 0.930 . S
H474 C482 0.930 . S
H475 C483 0.930 . S
H476 C486 0.930 . S
H477 C487 0.930 . S
C478 H472 0.930 . S
C478 C479 1.355 . S
C478 C480 1.415 . S
C479 C478 1.355 . S
C479 C481 1.419 . S
C480 C478 1.415 . S
C480 C485 1.425 . S
C480 C487 1.409 . S
C481 H473 0.930 . S
C481 C479 1.419 . S
C481 C482 1.362 . S
C482 H474 0.930 . S
C482 C481 1.362 . S
C482 C485 1.409 . S
C483 H475 0.930 . S
C483 C484 1.355 . S
C483 C485 1.415 . S
C484 C483 1.355 . S
C484 C486 1.419 . S
C485 C480 1.425 . S
C485 C482 1.409 . S
C485 C483 1.415 . S
C486 H476 0.930 . S
C486 C484 1.419 . S
C486 C487 1.362 . S
C487 H477 0.930 . S
C487 C480 1.409 . S
C487 C486 1.362 . S
H488 C494 0.930 . S
H489 C497 0.930 . S
H490 C498 0.930 . S
H491 C499 0.930 . S
H492 C502 0.930 . S
H493 C503 0.930 . S
C494 H488 0.930 . S
C494 C495 1.355 . S
C494 C496 1.415 . S
C495 C494 1.355 . S
C495 C497 1.419 . S
C496 C494 1.415 . S
C496 C501 1.425 . S
C496 C503 1.409 . S
C497 H489 0.930 . S
C497 C495 1.419 . S
C497 C498 1.362 . S
C498 H490 0.930 . S
C498 C497 1.362 . S
C498 C501 1.409 . S
C499 H491 0.930 . S
C499 C500 1.355 . S
C499 C501 1.415 . S
C500 C499 1.355 . S
C500 C502 1.419 . S
C501 C496 1.425 . S
C501 C498 1.409 . S
C501 C499 1.415 . S
C502 H492 0.930 . S
C502 C500 1.419 . S
C502 C503 1.362 . S
C503 H493 0.930 . S
C503 C496 1.409 . S
C503 C502 1.362 . S
H504 C510 0.930 . S
H505 C513 0.930 . S
H506 C514 0.930 . S
H507 C515 0.930 . S
H508 C518 0.930 . S
H509 C519 0.930 . S
C510 H504 0.930 . S
C510 C511 1.355 . S
C510 C512 1.415 . S
C511 C510 1.355 . S
C511 C513 1.419 . S
C512 C510 1.415 . S
C512 C517 1.425 . S
C512 C519 1.409 . S
C513 H505 0.930 . S
C513 C511 1.419 . S
C513 C514 1.362 . S
C514 H506 0.930 . S
C514 C513 1.362 . S
C514 C517 1.409 . S
C515 H507 0.930 . S
C515 C516 1.355 . S
C515 C517 1.415 . S
C516 C515 1.355 . S
C516 C518 1.419 . S
C517 C512 1.425 . S
C517 C514 1.409 . S
C517 C515 1.415 . S
C518 H508 0.930 . S
C518 C516 1.419 . S
C518 C519 1.362 . S
C519 H509 0.930 . S
C519 C512 1.409 . S
C519 C518 1.362 . S
H520 C526 0.930 . S
H521 C529 0.930 . S
H522 C530 0.930 . S
H523 C531 0.930 . S
H524 C534 0.930 . S
H525 C535 0.930 . S
C526 H520 0.930 . S
C526 C527 1.355 . S
C526 C528 1.415 . S
C527 C526 1.355 . S
C527 C529 1.419 . S
C528 C526 1.415 . S
C528 C533 1.425 . S
C528 C535 1.409 . S
C529 H521 0.930 . S
C529 C527 1.419 . S
C529 C530 1.362 . S
C530 H522 0.930 . S
C530 C529 1.362 . S
C530 C533 1.409 . S
C531 H523 0.930 . S
C531 C532 1.355 . S
C531 C533 1.415 . S
C532 C531 1.355 . S
C532 C534 1.419 . S
C533 C528 1.425 . S
C533 C530 1.409 . S
C533 C531 1.415 . S
C534 H524 0.930 . S
C534 C532 1.419 . S
C534 C535 1.362 . S
C535 H525 0.930 . S
C535 C528 1.409 . S
C535 C534 1.362 . S
H536 C542 0.930 . S
H537 C545 0.930 . S
H538 C546 0.930 . S
H539 C547 0.930 . S
H540 C550 0.930 . S
H541 C551 0.930 . S
C542 H536 0.930 . S
C542 C543 1.355 . S
C542 C544 1.415 . S
C543 C542 1.355 . S
C543 C545 1.419 . S
C544 C542 1.415 . S
C544 C549 1.425 . S
C544 C551 1.409 . S
C545 H537 0.930 . S
C545 C543 1.419 . S
C545 C546 1.362 . S
C546 H538 0.930 . S
C546 C545 1.362 . S
C546 C549 1.409 . S
C547 H539 0.930 . S
C547 C548 1.355 . S
C547 C549 1.415 . S
C548 C547 1.355 . S
C548 C550 1.419 . S
C549 C544 1.425 . S
C549 C546 1.409 . S
C549 C547 1.415 . S
C550 H540 0.930 . S
C550 C548 1.419 . S
C550 C551 1.362 . S
C551 H541 0.930 . S
C551 C544 1.409 . S
C551 C550 1.362 . S
C175 C123 1.430 . S
C180 C11 1.399 . S
C191 C25 1.436 . S
C196 C137 1.439 . S
C207 C39 1.403 . S
C212 C151 1.401 . S
C223 C53 1.415 . S
C228 C165 1.396 . S
C239 C95 1.444 . S
C244 C67 1.427 . S
C255 C81 1.403 . S
C260 C109 1.436 . S
C271 C9 1.541 . S
C276 C70 1.530 1_554 S
C287 C23 1.547 . S
C292 C0 1.519 . S
C303 C37 1.547 . S
C308 C14 1.512 . S
C319 C28 1.486 . S
C324 C51 1.539 . S
C335 C42 1.524 . S
C340 C65 1.525 . S
C351 C56 1.478 . S
C356 C79 1.533 . S
C367 C98 1.467 . S
C372 C93 1.522 . S
C383 C107 1.516 . S
C388 C112 1.512 1_556 S
C399 C126 1.466 . S
C404 C121 1.518 . S
C415 C135 1.512 . S
C420 C140 1.467 . S
C431 C149 1.514 . S
C436 C154 1.508 . S
C447 C163 1.545 . S
C452 C84 1.525 . S
C463 C145 1.311 . S
C468 C5 1.311 . S
C479 C159 1.314 . S
C484 C19 1.308 . S
C495 C89 1.306 . S
C500 C33 1.314 . S
C511 C47 1.314 . S
C516 C103 1.306 . S
C527 C61 1.308 . S
C532 C117 1.304 . S
C543 C131 1.305 . S
C548 C75 1.313 . S
