# Generated by pormake.
# Topology qtz-e, (6)-cn, num edge types: 1
# Building blocks:
#     Node 0, Type 0, BuildingBlock: KUMJIN_clean_sbu_1, # of connection points: 6
#     Node 1, Type 0, BuildingBlock: KUMJIN_clean_sbu_1, # of connection points: 6
#     Node 2, Type 0, BuildingBlock: KUMJIN_clean_sbu_1, # of connection points: 6
#     Node 3, Type 0, BuildingBlock: KUMJIN_clean_sbu_1, # of connection points: 6
#     Node 4, Type 0, BuildingBlock: KUMJIN_clean_sbu_1, # of connection points: 6
#     Node 5, Type 0, BuildingBlock: KUMJIN_clean_sbu_1, # of connection points: 6
#     Edge 6, Type (0, 0), BuildingBlock: OJICUG_clean_linker_0, # of connection points: 2
#     Edge 7, Type (0, 0), BuildingBlock: OJICUG_clean_linker_0, # of connection points: 2
#     Edge 8, Type (0, 0), BuildingBlock: OJICUG_clean_linker_0, # of connection points: 2
#     Edge 9, Type (0, 0), BuildingBlock: OJICUG_clean_linker_0, # of connection points: 2
#     Edge 10, Type (0, 0), BuildingBlock: OJICUG_clean_linker_0, # of connection points: 2
#     Edge 11, Type (0, 0), BuildingBlock: OJICUG_clean_linker_0, # of connection points: 2
#     Edge 12, Type (0, 0), BuildingBlock: OJICUG_clean_linker_0, # of connection points: 2
#     Edge 13, Type (0, 0), BuildingBlock: OJICUG_clean_linker_0, # of connection points: 2
#     Edge 14, Type (0, 0), BuildingBlock: OJICUG_clean_linker_0, # of connection points: 2
#     Edge 15, Type (0, 0), BuildingBlock: OJICUG_clean_linker_0, # of connection points: 2
#     Edge 16, Type (0, 0), BuildingBlock: OJICUG_clean_linker_0, # of connection points: 2
#     Edge 17, Type (0, 0), BuildingBlock: OJICUG_clean_linker_0, # of connection points: 2
#     Edge 18, Type (0, 0), BuildingBlock: OJICUG_clean_linker_0, # of connection points: 2
#     Edge 19, Type (0, 0), BuildingBlock: OJICUG_clean_linker_0, # of connection points: 2
#     Edge 20, Type (0, 0), BuildingBlock: OJICUG_clean_linker_0, # of connection points: 2
#     Edge 21, Type (0, 0), BuildingBlock: OJICUG_clean_linker_0, # of connection points: 2
#     Edge 22, Type (0, 0), BuildingBlock: OJICUG_clean_linker_0, # of connection points: 2
#     Edge 23, Type (0, 0), BuildingBlock: OJICUG_clean_linker_0, # of connection points: 2
# Relax obj value: 0.153
# Max RMSD: 0.218
# Mean RMSD: 0.218
data_MOF--net-qtz-e--node1-KUMJIN_clean_sbu_1--edge1-OJICUG_clean_linker_0
_symmetry_space_group_name_H-M    P1
_symmetry_Int_Tables_number       1
_symmetry_cell_setting            triclinic
loop_
_symmetry_equiv_pos_as_xyz
'x, y, z'
_cell_length_a     20.837822
_cell_length_b     20.928131
_cell_length_c     39.833484
_cell_angle_alpha  90.133786
_cell_angle_beta   89.782165
_cell_angle_gamma 120.0227
loop_
_atom_site_label
_atom_site_type_symbol
_atom_site_fract_x
_atom_site_fract_y
_atom_site_fract_z
_atom_type_partial_charge
Eu0 Eu 0.17953 0.34545 0.98888 0.0
C1 C 0.43186 0.7058 0.02464 0.0
N2 N 0.42092 0.647 0.04336 0.0
C3 C 0.55178 0.70237 0.05215 0.0
C4 C 0.5042 0.76354 0.01735 0.0
C5 C 0.47909 0.6465 0.05856 0.0
C6 C 0.56452 0.76053 0.03093 0.0
C7 C 0.38045 0.76966 -0.00607 0.0
C8 C 0.37045 0.70892 0.01335 0.0
C9 C 0.45237 0.82583 0.98558 0.0
C10 C 0.51406 0.82292 -0.00264 0.0
Eu11 Eu 0.29713 0.55198 0.05102 0.0
N12 N 0.30132 0.65382 0.02207 0.0
C13 C 0.31795 0.77292 0.98393 0.0
C14 C 0.24068 0.65959 0.01405 0.0
C15 C 0.24792 0.71818 -0.00556 0.0
H16 H 0.46955 0.60399 0.07626 0.0
H17 H 0.19935 0.72143 0.98776 0.0
H18 H 0.01561 0.31733 0.96195 0.0
H19 H 0.24977 0.17406 0.06537 0.0
H20 H 0.18638 0.6206 0.02303 0.0
H21 H 0.32329 0.81846 0.96891 0.0
H22 H 0.27583 0.2751 0.02619 0.0
H23 H 0.59784 0.70091 0.06385 0.0
H24 H 0.46091 0.87256 0.97055 0.0
H25 H 0.5692 0.86745 0.9913 0.0
H26 H 0.88279 0.22616 0.97024 0.0
H27 H 0.62092 0.80386 0.02603 0.0
H28 H 0.12091 0.08554 0.08135 0.0
N29 N 0.05274 0.25688 0.9908 0.0
C30 C 0.03396 0.19505 0.00901 0.0
C31 C 0.92475 0.21711 0.98149 0.0
C32 C 0.95911 0.14473 0.01647 0.0
C33 C 0.99985 0.26832 0.97668 0.0
C34 C 0.90424 0.15558 0.00189 0.0
N35 N 0.16201 0.23929 0.01762 0.0
C36 C 0.21907 0.23395 0.03129 0.0
C37 C 0.07291 0.12979 0.04664 0.0
C38 C 0.09014 0.18569 0.02286 0.0
C39 C 0.13128 0.12621 0.06224 0.0
C40 C 0.2045 0.17698 0.05367 0.0
H41 H 0.84604 0.11771 0.00679 0.0
H42 H 0.88479 0.05149 0.04735 0.0
H43 H 0.98481 0.04541 0.07659 0.0
O44 O 0.23854 0.32084 0.94962 0.0
O45 O 0.14228 0.31809 0.04425 0.0
O46 O 0.21582 0.43338 0.04901 0.0
O47 O 0.13734 0.31941 0.9374 0.0
O48 O 0.30392 0.39185 0.00041 0.0
O49 O 0.31805 0.45454 0.05001 0.0
O50 O 0.26491 0.59296 0.09448 0.0
O51 O 0.34796 0.56372 -0.00047 0.0
O52 O 0.23795 0.46859 0.98932 0.0
O53 O 0.34434 0.55293 0.09965 0.0
O54 O 0.17399 0.50764 0.03837 0.0
O55 O 0.12801 0.42297 0.99199 0.0
C56 C 0.16933 0.37331 0.06472 0.0
C57 C 0.16924 0.24531 0.90341 0.0
C58 C 0.19362 0.19248 0.85287 0.0
C59 C 0.1277 0.1258 0.85929 0.0
C60 C 0.10402 0.17792 0.90906 0.0
C61 C 0.08338 0.11883 0.88702 0.0
C62 C 0.21376 0.25254 0.87508 0.0
C63 C 0.34647 0.43533 0.02497 0.0
C64 C 0.19019 0.30884 0.92628 0.0
C65 C 0.94177 0.08861 0.04001 0.0
C66 C 0.99867 0.08334 0.05598 0.0
C67 C 0.3041 0.51392 0.97816 0.0
C68 C 0.31326 0.59555 0.14989 0.0
C69 C 0.25551 0.6023 0.20105 0.0
C70 C 0.31626 0.60949 0.21947 0.0
C71 C 0.37391 0.60235 0.1682 0.0
C72 C 0.25462 0.59668 0.16634 0.0
C73 C 0.37543 0.60979 0.20301 0.0
C74 C 0.12406 0.4693 0.01448 0.0
C75 C 0.307 0.57981 0.1142 0.0
H76 H 0.10986 0.07905 0.84256 0.0
H77 H 0.06878 0.17111 0.93041 0.0
H78 H 0.03257 0.0673 0.89143 0.0
H79 H 0.26423 0.30444 0.87056 0.0
H80 H 0.31839 0.61642 0.2465 0.0
H81 H 0.41957 0.60123 0.15568 0.0
H82 H 0.20761 0.59155 0.1524 0.0
H83 H 0.4222 0.61555 0.21723 0.0
Eu84 Eu 0.83388 0.1724 0.32355 0.0
C85 C 0.74085 0.42036 0.3442 0.0
N86 N 0.78032 0.40563 0.36693 0.0
C87 C 0.85525 0.53464 0.37942 0.0
C88 C 0.75905 0.49381 0.33753 0.0
C89 C 0.83549 0.46115 0.38511 0.0
C90 C 0.81763 0.55116 0.35517 0.0
C91 C 0.63877 0.37604 0.30466 0.0
C92 C 0.6809 0.36183 0.32801 0.0
C93 C 0.65771 0.44916 0.29763 0.0
C94 C 0.71761 0.5078 0.314 0.0
Eu95 Eu 0.74235 0.27957 0.37451 0.0
N96 N 0.66404 0.29123 0.33492 0.0
C97 C 0.57836 0.31629 0.28915 0.0
C98 C 0.60395 0.23289 0.32049 0.0
C99 C 0.56065 0.24447 0.29728 0.0
H100 H 0.86186 0.44796 0.40503 0.0
H101 H 0.51335 0.19789 0.28577 0.0
H102 H 0.71375 1.00214 0.29699 0.0
H103 H 0.06577 0.26711 0.41121 0.0
H104 H 0.58866 0.17726 0.32673 0.0
H105 H 0.54457 0.32497 0.27117 0.0
H106 H 0.99059 0.28178 0.36767 0.0
H107 H 0.89894 0.57844 0.39397 0.0
H108 H 0.62598 0.46095 0.27972 0.0
H109 H 0.73095 0.56384 0.30854 0.0
H110 H 0.68038 0.87363 0.30976 0.0
H111 H 0.83308 0.60821 0.35084 0.0
H112 H 0.03528 0.14218 0.42971 0.0
N113 N 0.8052 0.04923 0.33053 0.0
C114 C 0.84559 0.03705 0.35362 0.0
C115 C 0.72703 0.91904 0.32222 0.0
C116 C 0.82679 0.96457 0.36257 0.0
C117 C 0.7463 0.9918 0.31494 0.0
C118 C 0.76729 0.90531 0.34625 0.0
N119 N 0.91849 0.16649 0.36117 0.0
C120 C 0.97692 0.22706 0.3752 0.0
C121 C 0.94412 0.08636 0.39489 0.0
C122 C 0.90388 0.09733 0.36943 0.0
C123 C 1.00272 0.14828 0.41016 0.0
C124 C 0.01991 0.2189 0.39987 0.0
H125 H 0.75131 0.84883 0.35235 0.0
H126 H 0.85142 0.89824 0.39602 0.0
H127 H 0.95152 0.00468 0.42538 0.0
O128 O 0.92374 0.23252 0.28528 0.0
O129 O 0.79534 0.13526 0.37721 0.0
O130 O 0.81298 0.24132 0.40289 0.0
O131 O 0.83389 0.12099 0.27605 0.0
O132 O 0.90347 0.30067 0.33111 0.0
O133 O 0.86264 0.31705 0.382 0.0
O134 O 0.6544 0.22176 0.41165 0.0
O135 O 0.7789 0.30963 0.32002 0.0
O136 O 0.74797 0.19469 0.30633 0.0
O137 O 0.7253 0.34024 0.41453 0.0
O138 O 0.6654 0.15643 0.36778 0.0
O139 O 0.70405 0.10986 0.32338 0.0
C140 C 0.7992 0.17251 0.40446 0.0
C141 C 0.92381 0.17395 0.2303 0.0
C142 C 1.0057 0.22721 0.18051 0.0
C143 C 0.97138 0.15628 0.16622 0.0
C144 C 0.89191 0.10445 0.21458 0.0
C145 C 0.91531 0.09593 0.18301 0.0
C146 C 0.98113 0.23632 0.21283 0.0
C147 C 0.90878 0.34383 0.35674 0.0
C148 C 0.89368 0.17733 0.2643 0.0
C149 C 0.86607 0.95352 0.38827 0.0
C150 C 0.92364 0.01421 0.40477 0.0
C151 C 0.7704 0.26087 0.29739 0.0
C152 C 0.70221 0.2742 0.46415 0.0
C153 C 0.67042 0.23368 0.52171 0.0
C154 C 0.74619 0.26347 0.52906 0.0
C155 C 0.77779 0.30422 0.47179 0.0
C156 C 0.64883 0.23743 0.48883 0.0
C157 C 0.79942 0.29814 0.50409 0.0
C158 C 0.65406 0.10341 0.34646 0.0
C159 C 0.67915 0.28061 0.43038 0.0
H160 H 0.9879 0.14744 0.14158 0.0
H161 H 0.84821 0.05571 0.22674 0.0
H162 H 0.88973 0.04189 0.17142 0.0
H163 H 1.00638 0.29059 0.22418 0.0
H164 H 0.76478 0.26326 0.55439 0.0
H165 H 0.82017 0.33271 0.45288 0.0
H166 H 0.59069 0.21397 0.48262 0.0
H167 H 0.85763 0.32184 0.50998 0.0
Eu168 Eu 0.66129 0.83686 0.65599 0.0
C169 C 0.30647 0.7208 0.68865 0.0
N170 N 0.36609 0.77063 0.70654 0.0
C171 C 0.30645 0.8413 0.71738 0.0
C172 C 0.24607 0.73207 0.6828 0.0
C173 C 0.36477 0.82762 0.72247 0.0
C174 C 0.24737 0.79404 0.69692 0.0
C175 C 0.24368 0.6051 0.65813 0.0
C176 C 0.30523 0.65758 0.67676 0.0
C177 C 0.1846 0.61739 0.65139 0.0
C178 C 0.18568 0.68054 0.66378 0.0
Eu179 Eu 0.46284 0.74448 0.71424 0.0
N180 N 0.36317 0.64673 0.68394 0.0
C181 C 0.24258 0.54105 0.64723 0.0
C182 C 0.3598 0.58214 0.67485 0.0
C183 C 0.30052 0.52926 0.65594 0.0
H184 H 0.40727 0.86103 0.74014 0.0
H185 H 0.29916 0.47885 0.6485 0.0
H186 H 0.6907 0.69894 0.6307 0.0
H187 H 0.85005 0.09163 0.72129 0.0
H188 H 0.401 0.56919 0.68261 0.0
H189 H 0.19643 0.49956 0.63283 0.0
H190 H 0.7448 0.01109 0.68419 0.0
H191 H 0.3065 0.88749 0.72971 0.0
H192 H 0.13712 0.57768 0.63707 0.0
H193 H 0.13901 0.68849 0.65891 0.0
H194 H 0.77361 0.65084 0.6452 0.0
H195 H 0.20195 0.80448 0.69314 0.0
H196 H 0.92992 0.04615 0.74416 0.0
N197 N 0.74349 0.79118 0.66368 0.0
C198 C 0.80171 0.83113 0.68439 0.0
C199 C 0.78148 0.70105 0.65679 0.0
C200 C 0.84979 0.80519 0.69375 0.0
C201 C 0.73432 0.72831 0.64881 0.0
C202 C 0.83863 0.73889 0.67986 0.0
N203 N 0.76785 0.92308 0.68538 0.0
C204 C 0.78143 0.99228 0.69315 0.0
C205 C 0.87391 0.94226 0.71722 0.0
C206 C 0.81457 0.89934 0.69546 0.0
C207 C 0.88582 0.01176 0.727 0.0
C208 C 0.84049 0.03757 0.71427 0.0
H209 H 0.87465 0.71729 0.68624 0.0
H210 H 0.94373 0.82638 0.72474 0.0
H211 H 0.9618 0.9438 0.74681 0.0
O212 O 0.67249 0.91397 0.61596 0.0
O213 O 0.66992 0.85355 0.71284 0.0
O214 O 0.56842 0.74574 0.73228 0.0
O215 O 0.70486 0.83306 0.60627 0.0
O216 O 0.61141 0.91219 0.66351 0.0
O217 O 0.55261 0.86525 0.7137 0.0
O218 O 0.39221 0.66808 0.75307 0.0
O219 O 0.44686 0.77892 0.66241 0.0
O220 O 0.54198 0.76602 0.65725 0.0
O221 O 0.45807 0.78795 0.76324 0.0
O222 O 0.51075 0.66808 0.70431 0.0
O223 O 0.58963 0.70742 0.65669 0.0
C224 C 0.63641 0.80231 0.7361 0.0
C225 C 0.76601 0.94462 0.5747 0.0
C226 C 0.81712 0.03243 0.52764 0.0
C227 C 0.88869 0.04969 0.53762 0.0
C228 C 0.83815 0.96315 0.58395 0.0
C229 C 0.89887 0.01514 0.56544 0.0
C230 C 0.75564 0.97905 0.5463 0.0
C231 C 0.56868 0.911 0.68844 0.0
C232 C 0.70152 0.88916 0.5943 0.0
C233 C 0.90738 0.84631 0.71648 0.0
C234 C 0.9185 0.91399 0.72865 0.0
C235 C 0.4966 0.78124 0.64252 0.0
C236 C 0.37947 0.71081 0.80758 0.0
C237 C 0.34521 0.64083 0.85875 0.0
C238 C 0.3184 0.68558 0.87174 0.0
C239 C 0.35361 0.75627 0.8205 0.0
C240 C 0.37546 0.65319 0.8267 0.0
C241 C 0.32268 0.74324 0.85259 0.0
C242 C 0.54822 0.65692 0.67992 0.0
C243 C 0.40963 0.7224 0.77398 0.0
H244 H 0.93689 0.08931 0.52358 0.0
H245 H 0.84755 0.93741 0.6055 0.0
H246 H 0.95418 0.0289 0.57281 0.0
H247 H 0.70001 0.96488 0.53897 0.0
H248 H 0.29505 0.67629 0.89682 0.0
H249 H 0.35651 0.80095 0.80564 0.0
H250 H 0.39624 0.61856 0.81684 0.0
H251 H 0.30223 0.77781 0.86264 0.0
Eu252 Eu 0.83564 0.66956 0.98689 0.0
C253 C 0.58059 0.30707 0.03031 0.0
N254 N 0.59464 0.36896 0.04743 0.0
C255 C 0.46523 0.31768 0.05905 0.0
C256 C 0.50716 0.24924 0.02547 0.0
C257 C 0.53895 0.37351 0.0631 0.0
C258 C 0.44912 0.25584 0.03962 0.0
C259 C 0.62676 0.23651 0.00083 0.0
C260 C 0.63991 0.30067 0.01836 0.0
C261 C 0.55364 0.18005 -0.00509 0.0
C262 C 0.49402 0.18633 0.00725 0.0
Eu263 Eu 0.71934 0.4638 0.04959 0.0
N264 N 0.71024 0.35648 0.02431 0.0
C265 C 0.68748 0.23053 0.99005 0.0
C266 C 0.76951 0.34921 0.01505 0.0
C267 C 0.75905 0.28671 -0.00243 0.0
H268 H 0.55147 0.4196 0.07921 0.0
H269 H 0.80637 0.28189 0.98999 0.0
H270 H 1.00068 0.69851 0.96012 0.0
H271 H 0.76258 0.83919 0.06326 0.0
H272 H 0.82528 0.39051 0.02113 0.0
H273 H 0.67969 0.18222 0.97648 0.0
H274 H 0.7382 0.73852 0.02371 0.0
H275 H 0.42097 0.32216 0.07107 0.0
H276 H 0.54262 0.13074 0.98127 0.0
H277 H 0.43796 0.14171 0.00301 0.0
H278 H 0.13311 0.78886 0.96949 0.0
H279 H 0.39196 0.21264 0.0365 0.0
H280 H 0.89084 0.92767 0.07984 0.0
N281 N 0.96245 0.75831 0.98911 0.0
C282 C 0.98067 0.81993 0.00746 0.0
C283 C 0.09077 0.79787 0.98054 0.0
C284 C 0.05522 0.86979 0.01548 0.0
C285 C 0.01585 0.74709 0.97514 0.0
C286 C 0.11057 0.8589 0.00124 0.0
N287 N 0.85236 0.7757 0.0154 0.0
C288 C 0.79466 0.78037 0.02894 0.0
C289 C 0.94031 0.88462 0.04501 0.0
C290 C 0.92404 0.82938 0.02093 0.0
C291 C 0.88126 0.88763 0.06046 0.0
C292 C 0.80833 0.83684 0.05156 0.0
H293 H 0.16857 0.89639 0.0066 0.0
H294 H 0.12833 0.96208 0.04705 0.0
H295 H 0.02723 0.96798 0.07569 0.0
O296 O 0.77727 0.69427 0.94751 0.0
O297 O 0.86876 0.69781 0.04246 0.0
O298 O 0.79671 0.58258 0.04646 0.0
O299 O 0.87887 0.6955 0.93565 0.0
O300 O 0.70914 0.61857 -0.00316 0.0
O301 O 0.69512 0.55836 0.04696 0.0
O302 O 0.76675 0.43642 0.09145 0.0
O303 O 0.67415 0.44491 -0.00375 0.0
O304 O 0.77892 0.54707 0.98933 0.0
O305 O 0.68143 0.46843 0.09998 0.0
O306 O 0.84073 0.50545 0.03517 0.0
O307 O 0.89136 0.59556 0.99109 0.0
C308 C 0.84161 0.64221 0.06256 0.0
C309 C 0.84762 0.76824 0.90071 0.0
C310 C 0.82033 0.81833 0.85008 0.0
C311 C 0.89344 0.87863 0.85143 0.0
C312 C 0.9191 0.83011 0.90161 0.0
C313 C 0.94169 0.88466 0.87708 0.0
C314 C 0.79814 0.76303 0.87516 0.0
C315 C 0.66633 0.57448 0.02132 0.0
C316 C 0.82629 0.70602 0.92437 0.0
C317 C 0.07167 0.92541 0.03925 0.0
C318 C 0.01417 0.93062 0.05488 0.0
C319 C 0.71778 0.4975 0.97587 0.0
C320 C 0.7364 0.44827 0.14855 0.0
C321 C 0.78708 0.41089 0.19305 0.0
C322 C 0.77426 0.4548 0.21584 0.0
C323 C 0.72268 0.49202 0.17098 0.0
C324 C 0.76803 0.40763 0.15973 0.0
C325 C 0.7418 0.4952 0.20474 0.0
C326 C 0.89315 0.54683 0.01275 0.0
C327 C 0.73021 0.45393 0.11282 0.0
H328 H 0.91452 0.92099 0.83229 0.0
H329 H 0.95815 0.83552 0.92085 0.0
H330 H 0.99754 0.93137 0.87757 0.0
H331 H 0.74273 0.71558 0.87488 0.0
H332 H 0.78602 0.45489 0.24234 0.0
H333 H 0.69957 0.52524 0.16226 0.0
H334 H 0.7772 0.37244 0.14264 0.0
H335 H 0.73119 0.52847 0.22226 0.0
Eu336 Eu 0.16908 0.82576 0.32006 0.0
C337 C 0.2734 0.59116 0.35541 0.0
N338 N 0.22632 0.59879 0.37665 0.0
C339 C 0.1581 0.46766 0.38522 0.0
C340 C 0.26159 0.52065 0.34673 0.0
C341 C 0.17149 0.53858 0.3927 0.0
C342 C 0.20239 0.45849 0.3616 0.0
C343 C 0.38507 0.64803 0.32142 0.0
C344 C 0.33423 0.65434 0.34278 0.0
C345 C 0.37134 0.57795 0.31134 0.0
C346 C 0.30987 0.51441 0.32405 0.0
Eu347 Eu 0.24835 0.72076 0.38508 0.0
N348 N 0.34633 0.72165 0.35313 0.0
C349 C 0.44998 0.71221 0.31205 0.0
C350 C 0.41435 0.78239 0.34794 0.0
C351 C 0.4658 0.77943 0.32629 0.0
H352 H 0.1395 0.54512 0.41221 0.0
H353 H 0.51852 0.82862 0.3214 0.0
H354 H 0.30836 0.98737 0.29325 0.0
H355 H 0.93422 0.76709 0.40243 0.0
H356 H 0.43114 0.8325 0.36153 0.0
H357 H 0.49031 0.70978 0.29564 0.0
H358 H 1.00666 0.73571 0.36426 0.0
H359 H 0.11398 0.42018 0.39789 0.0
H360 H 0.40928 0.57227 0.29458 0.0
H361 H 0.30114 0.4607 0.3168 0.0
H362 H 0.35231 0.12037 0.3001 0.0
H363 H 0.1918 0.40343 0.3558 0.0
H364 H 0.97331 0.89762 0.41375 0.0
N365 N 0.21202 0.95325 0.32326 0.0
C366 C 0.17122 0.97404 0.3422 0.0
C367 C 0.30135 0.07981 0.31208 0.0
C368 C 0.1955 0.0494 0.34756 0.0
C369 C 0.27628 0.00453 0.30824 0.0
C370 C 0.2609 0.10239 0.3319 0.0
N371 N 0.08768 0.84747 0.35377 0.0
C372 C 0.02507 0.79297 0.36868 0.0
C373 C 0.06762 0.94006 0.38009 0.0
C374 C 0.10753 0.91975 0.35807 0.0
C375 C 1.0051 0.88436 0.39642 0.0
C376 C 0.98317 0.81057 0.39029 0.0
H377 H 0.28119 0.16079 0.33537 0.0
H378 H 0.17394 0.12715 0.37417 0.0
H379 H 0.06447 0.03202 0.40348 0.0
O380 O 0.07909 0.77562 0.28163 0.0
O381 O 0.20875 0.87647 0.37203 0.0
O382 O 0.18142 0.77382 0.40286 0.0
O383 O 0.18576 0.87195 0.26981 0.0
O384 O 0.08571 0.70415 0.33288 0.0
O385 O 0.12833 0.69538 0.38461 0.0
O386 O 0.33074 0.76726 0.42473 0.0
O387 O 0.2002 0.65967 0.33689 0.0
O388 O 0.23419 0.76855 0.31429 0.0
O389 O 0.22518 0.66786 0.43397 0.0
O390 O 0.32372 0.84265 0.37163 0.0
O391 O 0.2952 0.86843 0.31829 0.0
C392 C 0.20282 0.84456 0.40121 0.0
C393 C 0.09584 0.83022 0.22449 0.0
C394 C 0.01309 0.78155 0.17539 0.0
C395 C 0.05489 0.85067 0.15979 0.0
C396 C 0.1359 0.89824 0.20773 0.0
C397 C 0.11559 0.90817 0.17577 0.0
C398 C 0.03405 0.77106 0.20796 0.0
C399 C 0.08138 0.66464 0.35963 0.0
C400 C 0.11974 0.82471 0.25921 0.0
C401 C 0.15554 0.06956 0.3693 0.0
C402 C 0.09249 0.01513 0.38582 0.0
C403 C 0.20241 0.69763 0.31078 0.0
C404 C 0.32928 0.68324 0.46401 0.0
C405 C 0.41181 0.70045 0.50995 0.0
C406 C 0.39451 0.62647 0.50661 0.0
C407 C 0.3119 0.60947 0.46076 0.0
C408 C 0.38096 0.72887 0.48768 0.0
C409 C 0.34536 0.58156 0.48182 0.0
C410 C 0.34106 0.88398 0.3442 0.0
C411 C 0.29072 0.71374 0.44548 0.0
H412 H 0.04055 0.86017 0.13488 0.0
H413 H 0.18298 0.94464 0.21952 0.0
H414 H 0.14697 0.961 0.16332 0.0
H415 H 1.00236 0.71818 0.22034 0.0
H416 H 0.41592 0.60222 0.52411 0.0
H417 H 0.27173 0.57314 0.44265 0.0
H418 H 0.39392 0.78579 0.49002 0.0
H419 H 0.33105 0.52435 0.47978 0.0
Eu420 Eu 0.35405 0.1779 0.65174 0.0
C421 C 0.68387 0.26492 0.69567 0.0
N422 N 0.62353 0.21902 0.71446 0.0
C423 C 0.67764 0.14395 0.72677 0.0
C424 C 0.74189 0.24966 0.69038 0.0
C425 C 0.62129 0.16105 0.73106 0.0
C426 C 0.73756 0.18763 0.70582 0.0
C427 C 0.75115 0.3778 0.66339 0.0
C428 C 0.68826 0.32825 0.68228 0.0
C429 C 0.8075 0.36119 0.65696 0.0
C430 C 0.80295 0.29736 0.67047 0.0
Eu431 Eu 0.52786 0.24889 0.71833 0.0
N432 N 0.63259 0.34285 0.68884 0.0
C433 C 0.75676 0.44381 0.65242 0.0
C434 C 0.64218 0.41063 0.68119 0.0
C435 C 0.70284 0.46102 0.66207 0.0
H436 H 0.5771 0.12922 0.7485 0.0
H437 H 0.70875 0.51383 0.65547 0.0
H438 H 0.31913 0.30797 0.62464 0.0
H439 H 0.18463 0.93389 0.72998 0.0
H440 H 0.60564 0.42814 0.6909 0.0
H441 H 0.80415 0.48331 0.63789 0.0
H442 H 0.28335 0.00813 0.68992 0.0
H443 H 0.6751 0.09744 0.73983 0.0
H444 H 0.85579 0.39834 0.64227 0.0
H445 H 0.84769 0.28616 0.66592 0.0
H446 H 0.22476 0.34531 0.63319 0.0
H447 H 0.78113 0.17422 0.70251 0.0
H448 H 0.09395 0.97165 0.74642 0.0
N449 N 0.26266 0.21207 0.65501 0.0
C450 C 0.20349 0.17006 0.6751 0.0
C451 C 0.21831 0.29612 0.64521 0.0
C452 C 0.15075 0.19168 0.68218 0.0
C453 C 0.27116 0.2745 0.64017 0.0
C454 C 0.15814 0.25489 0.66653 0.0
N455 N 0.2518 0.08996 0.68406 0.0
C456 C 0.24541 0.02652 0.69685 0.0
C457 C 0.14093 0.06681 0.71352 0.0
C458 C 0.19826 0.10774 0.69033 0.0
C459 C 0.13701 0.00443 0.72838 0.0
C460 C 0.18844 0.98326 0.71938 0.0
H461 H 0.11842 0.27296 0.67116 0.0
H462 H 0.05453 0.16851 0.71218 0.0
H463 H 0.04937 0.06263 0.74101 0.0
O464 O 0.3272 0.09387 0.61296 0.0
O465 O 0.34039 0.21608 0.70415 0.0
O466 O 0.40773 0.17845 0.73448 0.0
O467 O 0.32137 0.19126 0.60116 0.0
O468 O 0.39659 0.09768 0.66243 0.0
O469 O 0.43824 0.12846 0.71636 0.0
O470 O 0.55797 0.33195 0.75716 0.0
O471 O 0.54629 0.21098 0.66842 0.0
O472 O 0.47591 0.24834 0.64227 0.0
O473 O 0.55669 0.22947 0.76804 0.0
O474 O 0.48527 0.32751 0.70505 0.0
O475 O 0.43315 0.30346 0.65142 0.0
C476 C 0.36033 0.2022 0.73327 0.0
C477 C 0.2473 0.08342 0.56842 0.0
C478 C 0.19432 1.00224 0.51965 0.0
C479 C 0.12652 0.99919 0.52582 0.0
C480 C 0.17897 0.07952 0.57418 0.0
C481 C 0.11908 0.03769 0.55288 0.0
C482 C 0.25474 0.04461 0.54104 0.0
C483 C 0.42545 0.08669 0.6897 0.0
C484 C 0.31184 0.12852 0.59013 0.0
C485 C 0.09438 0.15159 0.70566 0.0
C486 C 0.09058 0.09042 0.72175 0.0
C487 C 0.51872 0.21981 0.64079 0.0
C488 C 0.64458 0.33683 0.79549 0.0
C489 C 0.71037 0.41871 0.84128 0.0
C490 C 0.7717 0.40932 0.83458 0.0
C491 C 0.70557 0.32755 0.78867 0.0
C492 C 0.64846 0.3846 0.8206 0.0
C493 C 0.7695 0.36477 0.80799 0.0
C494 C 0.46383 0.3476 0.6777 0.0
C495 C 0.5742 0.29504 0.77847 0.0
H496 H 0.07953 0.96747 0.5095 0.0
H497 H 0.17204 0.10901 0.59498 0.0
H498 H 0.06676 0.03534 0.55728 0.0
H499 H 0.30749 0.04769 0.53626 0.0
H500 H 0.81994 0.43341 0.85067 0.0
H501 H 0.70357 0.29095 0.76906 0.0
H502 H 0.60122 0.39207 0.82512 0.0
H503 H 0.81625 0.35689 0.8032 0.0
C504 C 0.15074 0.58699 0.27489 0.0
C505 C 0.17723 0.66287 0.2781 0.0
H506 H 0.15248 0.50449 0.24404 0.0
C507 C 0.19682 0.70736 0.24933 0.0
H508 H 0.1331 0.55112 0.29664 0.0
C509 C 0.20642 0.68001 0.21913 0.0
C510 C 0.19809 0.60941 0.21854 0.0
H511 H 0.21604 0.76578 0.25109 0.0
H512 H 0.23384 0.71826 0.19864 0.0
C513 C 0.16081 0.55991 0.24472 0.0
C514 C 0.58889 0.17494 0.60754 0.0
C515 C 0.54291 0.20605 0.60859 0.0
H516 H 0.66317 0.15562 0.57801 0.0
C517 C 0.52637 0.23057 0.57896 0.0
H518 H 0.60092 0.15387 0.63003 0.0
C519 C 0.56321 0.23315 0.54947 0.0
C520 C 0.61602 0.21003 0.54924 0.0
H521 H 0.4897 0.25331 0.57905 0.0
H522 H 0.55501 0.2595 0.52785 0.0
C523 C 0.62465 0.17614 0.57787 0.0
C524 C 0.26329 0.49158 0.91947 0.0
C525 C 0.32191 0.51916 0.9425 0.0
H526 H 0.22652 0.509 0.87227 0.0
C527 C 0.39414 0.56909 0.93172 0.0
H528 H 0.20691 0.45465 0.92735 0.0
C529 C 0.40495 0.60161 0.90023 0.0
C530 C 0.34346 0.58349 0.8799 0.0
H531 H 0.44024 0.59045 0.94908 0.0
H532 H 0.45891 0.64793 0.89397 0.0
C533 C 0.27426 0.52337 0.88796 0.0
C534 C 0.8593 0.33743 0.25378 0.0
C535 C 0.78954 0.27957 0.26277 0.0
H536 H 0.91535 0.43043 0.22115 0.0
C537 C 0.73317 0.24713 0.23901 0.0
H538 H 0.9061 0.35489 0.2701 0.0
C539 C 0.74058 0.28479 0.20948 0.0
C540 C 0.80253 0.35538 0.20558 0.0
H541 H 0.68015 0.19928 0.24518 0.0
H542 H 0.69234 0.26606 0.19356 0.0
C543 C 0.86568 0.37757 0.22515 0.0
C544 C 0.52964 0.75649 0.58656 0.0
C545 C 0.494 0.78552 0.6061 0.0
H546 H 0.53338 0.70915 0.53964 0.0
C547 C 0.44396 0.80259 0.59111 0.0
H548 H 0.56771 0.74178 0.5976 0.0
C549 C 0.42237 0.78149 0.55804 0.0
C550 C 0.45121 0.7436 0.53982 0.0
H551 H 0.41629 0.82548 0.60576 0.0
H552 H 0.37773 0.78816 0.54817 0.0
C553 C 0.50903 0.73647 0.55345 0.0
C554 C 0.64153 0.44168 0.92514 0.0
C555 C 0.70885 0.49287 0.93963 0.0
H556 H 0.58915 0.37625 0.88212 0.0
C557 C 0.77268 0.52941 0.91965 0.0
H558 H 0.59178 0.41249 0.94028 0.0
C559 C 0.77084 0.51214 0.88604 0.0
C560 C 0.70617 0.45407 0.8725 0.0
H561 H 0.82614 0.56523 0.93061 0.0
H562 H 0.82191 0.53909 0.87169 0.0
C563 C 0.64023 0.4217 0.8917 0.0
C564 C 0.46956 0.48966 0.05284 0.0
C565 C 0.42805 0.46779 0.02321 0.0
H566 H 0.57707 0.5464 0.07518 0.0
C567 C 0.4658 0.48259 0.99227 0.0
H568 H 0.44217 0.47796 0.07707 0.0
C569 C 0.54375 0.52025 0.99119 0.0
C570 C 0.58494 0.54332 0.02107 0.0
H571 H 0.43519 0.46602 0.96894 0.0
H572 H 0.57163 0.52979 0.96718 0.0
C573 C 0.54689 0.529 0.05173 0.0
C574 C 1.00357 0.5451 0.3285 0.0
C575 C 0.034 0.58271 0.35872 0.0
H576 H 0.93956 0.44168 0.30427 0.0
C577 C 0.02328 0.54076 0.3878 0.0
H578 H 0.00885 0.57537 0.30566 0.0
C579 C 0.98867 0.46354 0.38627 0.0
C580 C 0.95878 0.4256 0.35602 0.0
H581 H 0.04292 0.56781 0.41183 0.0
H582 H 0.98207 0.43319 0.40924 0.0
C583 C 0.96588 0.46769 0.32731 0.0
C584 C 0.4743 0.01435 0.71851 0.0
C585 C 0.45631 0.03641 0.68852 0.0
H586 H 0.53145 0.96542 0.74194 0.0
C587 C 0.47574 0.01673 0.65788 0.0
H588 H 0.45844 0.02689 0.7425 0.0
C589 C 0.51479 0.97808 0.65753 0.0
C590 C 0.5352 0.95884 0.68782 0.0
H591 H 0.46215 0.03243 0.63423 0.0
H592 H 0.52797 0.96236 0.63368 0.0
C593 C 0.5162 0.97918 0.71818 0.0
C594 C 0.52193 0.54251 0.64684 0.0
C595 C 0.53393 0.58006 0.67762 0.0
H596 H 0.488 0.43823 0.6224 0.0
C597 C 0.52055 0.54006 0.70755 0.0
H598 H 0.53016 0.57168 0.62336 0.0
C599 C 0.4951 0.46465 0.70705 0.0
C600 C 0.48261 0.42629 0.67656 0.0
H601 H 0.52856 0.56707 0.73167 0.0
H602 H 0.48561 0.43634 0.73086 0.0
C603 C 0.49619 0.46597 0.64631 0.0
C604 C 0.03392 0.49673 0.04234 0.0
C605 C 0.06204 0.48492 0.01238 0.0
H606 H 0.9598 0.52553 0.06566 0.0
C607 C 0.03622 0.49666 0.98164 0.0
H608 H 0.05309 0.4891 0.06641 0.0
C609 C 0.98372 0.52059 0.98122 0.0
C610 C 0.95555 0.53166 0.01151 0.0
H611 H 0.05786 0.48916 0.95812 0.0
H612 H 0.96384 0.52853 0.95738 0.0
C613 C 0.98108 0.51882 0.04191 0.0
C614 C 0.46242 0.96249 0.31285 0.0
C615 C 0.41955 0.94501 0.34243 0.0
H616 H 0.57159 0.02487 0.2908 0.0
C617 C 0.4554 0.97799 0.37268 0.0
H618 H 0.43661 0.93688 0.28926 0.0
C619 C 0.53168 0.02588 0.37371 0.0
C620 C 0.57523 0.04331 0.34449 0.0
H621 H 0.4244 0.96544 0.39598 0.0
H622 H 0.55669 0.04997 0.39766 0.0
C623 C 0.53985 0.01119 0.31389 0.0
C624 C 0.2958 0.14316 0.78726 0.0
C625 C 0.31965 0.20131 0.76416 0.0
H626 H 0.23696 0.09448 0.83297 0.0
C627 C 0.3042 0.25828 0.7709 0.0
H628 H 0.30659 0.09834 0.78264 0.0
C629 C 0.26577 0.25711 0.80026 0.0
C630 C 0.24011 0.19783 0.823 0.0
H631 H 0.32247 0.30407 0.75361 0.0
H632 H 0.25435 0.30153 0.80469 0.0
C633 C 0.25575 0.14094 0.81604 0.0
C634 C 0.05434 0.34063 0.14333 0.0
C635 C 0.06609 0.28788 0.15984 0.0
H636 H 0.08044 0.41198 0.10034 0.0
C637 C 0.12541 0.27897 0.14859 0.0
H638 H 0.00825 0.3478 0.15069 0.0
C639 C 0.16598 0.31499 0.1196 0.0
C640 C 0.14974 0.36236 0.10121 0.0
H641 H 0.13538 0.238 0.16023 0.0
H642 H 0.20558 0.30042 0.10982 0.0
C643 C 0.09585 0.37754 0.11434 0.0
C644 C 0.76098 0.02725 0.47097 0.0
C645 C 0.80786 0.0693 0.49733 0.0
H646 H 0.72236 0.02699 0.42106 0.0
C647 C 0.84984 0.1466 0.49345 0.0
H648 H 0.72874 0.96769 0.47291 0.0
C649 C 0.84552 0.1808 0.46385 0.0
C650 C 0.8 0.13844 0.4372 0.0
H651 H 0.88668 0.18059 0.51325 0.0
H652 H 0.8798 0.24008 0.46136 0.0
C653 C 0.75771 0.0613 0.4412 0.0
C654 C 0.73357 0.87394 0.77938 0.0
C655 C 0.67973 0.80557 0.76638 0.0
H656 H 0.81672 0.93199 0.81631 0.0
C657 C 0.66944 0.74093 0.78204 0.0
H658 H 0.74186 0.92477 0.76833 0.0
C659 C 0.71404 0.74469 0.80928 0.0
C660 C 0.76928 0.81332 0.82206 0.0
H661 H 0.62848 0.68728 0.77255 0.0
H662 H 0.70633 0.69353 0.81958 0.0
C663 C 0.77702 0.87783 0.80693 0.0
C664 C 0.95272 0.66526 0.14044 0.0
C665 C 0.94866 0.72356 0.15607 0.0
H666 H 0.91834 0.5903 0.09851 0.0
C667 C 0.89376 0.73913 0.14517 0.0
H668 H 0.99521 0.65276 0.14783 0.0
C669 C 0.8507 0.70412 0.11681 0.0
C670 C 0.86049 0.65179 0.09885 0.0
H671 H 0.88973 0.78422 0.15638 0.0
H672 H 0.81496 0.72339 0.10697 0.0
C673 C 0.90869 0.62945 0.1121 0.0
C674 C 0.22751 0.99972 0.45946 0.0
C675 C 0.20178 0.9629 0.49019 0.0
H676 H 0.24911 0.99173 0.4075 0.0
C677 C 0.17878 0.88743 0.49199 0.0
H678 H 0.24507 0.05782 0.45746 0.0
C679 C 0.18065 0.84914 0.46335 0.0
C680 C 0.20475 0.88549 0.43223 0.0
H681 H 0.15835 0.85791 0.51546 0.0
H682 H 0.16179 0.79079 0.46547 0.0
C683 C 0.22923 0.96156 0.43083 0.0
loop_
_geom_bond_atom_site_label_1
_geom_bond_atom_site_label_2
_geom_bond_distance
_geom_bond_site_symmetry_2
_ccdc_geom_bond_type
Eu0 N29 2.600 1_556 S
Eu0 N35 2.562 1_556 S
Eu0 O44 2.462 . S
Eu0 O45 2.373 1_556 S
Eu0 O47 2.432 . S
Eu0 O48 2.291 1_556 S
Eu0 O52 2.335 . S
Eu0 O55 2.372 . S
Eu0 C64 2.787 . S
C1 N2 1.365 . S
C1 C4 1.405 . S
C1 C8 1.448 . S
N2 C1 1.365 . S
N2 C5 1.319 . S
N2 Eu11 2.600 . S
C3 C5 1.397 . S
C3 C6 1.367 . S
C3 H23 0.931 . S
C4 C1 1.405 . S
C4 C6 1.403 . S
C4 C10 1.439 . S
C5 N2 1.319 . S
C5 C3 1.397 . S
C5 H16 0.930 . S
C6 C3 1.367 . S
C6 C4 1.403 . S
C6 H27 0.929 . S
C7 C8 1.430 . S
C7 C9 1.387 . S
C7 C13 1.405 1_554 S
C8 C1 1.448 . S
C8 C7 1.430 . S
C8 N12 1.351 . S
C9 C7 1.387 . S
C9 C10 1.374 . S
C9 H24 0.931 1_554 S
C10 C4 1.439 . S
C10 C9 1.374 . S
C10 H25 0.931 . S
Eu11 N2 2.600 . S
Eu11 N12 2.562 . S
Eu11 O46 2.335 . S
Eu11 O49 2.372 . S
Eu11 O50 2.462 . S
Eu11 O51 2.373 1_554 S
Eu11 O53 2.432 . S
Eu11 O54 2.291 . S
Eu11 C75 2.787 . S
N12 C8 1.351 . S
N12 Eu11 2.562 . S
N12 C14 1.325 . S
C13 C7 1.405 1_556 S
C13 C15 1.366 1_556 S
C13 H21 0.930 . S
C14 N12 1.325 . S
C14 C15 1.416 . S
C14 H20 0.929 . S
C15 C13 1.366 1_554 S
C15 C14 1.416 . S
C15 H17 0.929 . S
H16 C5 0.930 . S
H17 C15 0.929 . S
H18 C33 0.930 . S
H19 C40 0.930 . S
H20 C14 0.929 . S
H21 C13 0.930 . S
H22 C36 0.929 . S
H23 C3 0.931 . S
H24 C9 0.931 1_556 S
H25 C10 0.931 . S
H26 C31 0.931 . S
H27 C6 0.929 . S
H28 C39 0.930 . S
N29 Eu0 2.600 1_554 S
N29 C30 1.365 . S
N29 C33 1.319 1_454 S
C30 N29 1.365 . S
C30 C32 1.405 1_455 S
C30 C38 1.448 . S
C31 H26 0.931 . S
C31 C33 1.397 . S
C31 C34 1.367 1_556 S
C32 C30 1.405 1_655 S
C32 C34 1.403 . S
C32 C65 1.439 . S
C33 H18 0.930 . S
C33 N29 1.319 1_656 S
C33 C31 1.397 . S
C34 C31 1.367 1_554 S
C34 C32 1.403 . S
C34 H41 0.929 . S
N35 Eu0 2.562 1_554 S
N35 C36 1.325 . S
N35 C38 1.351 . S
C36 H22 0.929 . S
C36 N35 1.325 . S
C36 C40 1.416 . S
C37 C38 1.430 . S
C37 C39 1.404 . S
C37 C66 1.387 1_455 S
C38 C30 1.448 . S
C38 N35 1.351 . S
C38 C37 1.430 . S
C39 H28 0.930 . S
C39 C37 1.404 . S
C39 C40 1.366 . S
C40 H19 0.930 . S
C40 C36 1.416 . S
C40 C39 1.366 . S
H41 C34 0.929 . S
H42 C65 0.931 1_565 S
H43 C66 0.931 1_565 S
O44 Eu0 2.462 . S
O44 C64 1.252 . S
O45 Eu0 2.373 1_554 S
O45 C56 1.249 . S
O46 Eu11 2.335 . S
O46 C56 1.264 . S
O47 Eu0 2.432 . S
O47 C64 1.268 . S
O48 Eu0 2.291 1_554 S
O48 C63 1.255 . S
O49 Eu11 2.372 . S
O49 C63 1.257 . S
O50 Eu11 2.462 . S
O50 C75 1.252 . S
O51 Eu11 2.373 1_556 S
O51 C67 1.249 . S
O52 Eu0 2.335 . S
O52 C67 1.264 . S
O53 Eu11 2.432 . S
O53 C75 1.268 . S
O54 Eu11 2.291 . S
O54 C74 1.255 . S
O55 Eu0 2.372 . S
O55 C74 1.257 1_556 S
C56 O45 1.249 . S
C56 O46 1.264 . S
C57 C60 1.382 . S
C57 C62 1.390 . S
C57 C64 1.506 . S
C58 C59 1.398 . S
C58 C62 1.392 . S
C59 C58 1.398 . S
C59 C61 1.372 . S
C59 H76 0.931 . S
C60 C57 1.382 . S
C60 C61 1.390 . S
C60 H77 0.931 . S
C61 C59 1.372 . S
C61 C60 1.390 . S
C61 H78 0.929 . S
C62 C57 1.390 . S
C62 C58 1.392 . S
C62 H79 0.930 . S
C63 O48 1.255 . S
C63 O49 1.257 . S
C64 Eu0 2.787 . S
C64 O44 1.252 . S
C64 O47 1.268 . S
C64 C57 1.506 . S
C65 C32 1.439 . S
C65 H42 0.931 1_545 S
C65 C66 1.374 . S
C66 C37 1.387 1_655 S
C66 H43 0.931 1_545 S
C66 C65 1.374 . S
C67 O51 1.249 . S
C67 O52 1.264 . S
C68 C71 1.382 . S
C68 C72 1.390 . S
C68 C75 1.506 . S
C69 C70 1.398 . S
C69 C72 1.392 . S
C70 C69 1.398 . S
C70 C73 1.372 . S
C70 H80 0.931 . S
C71 C68 1.382 . S
C71 C73 1.390 . S
C71 H81 0.931 . S
C72 C68 1.390 . S
C72 C69 1.392 . S
C72 H82 0.930 . S
C73 C70 1.372 . S
C73 C71 1.390 . S
C73 H83 0.929 . S
C74 O54 1.255 . S
C74 O55 1.257 1_554 S
C75 Eu11 2.787 . S
C75 O50 1.252 . S
C75 O53 1.268 . S
C75 C68 1.506 . S
H76 C59 0.931 . S
H77 C60 0.931 . S
H78 C61 0.929 . S
H79 C62 0.930 . S
H80 C70 0.931 . S
H81 C71 0.931 . S
H82 C72 0.930 . S
H83 C73 0.929 . S
Eu84 N113 2.600 . S
Eu84 N119 2.562 . S
Eu84 O128 2.462 . S
Eu84 O129 2.373 . S
Eu84 O131 2.432 . S
Eu84 O132 2.291 . S
Eu84 O136 2.335 . S
Eu84 O139 2.372 . S
Eu84 C148 2.787 . S
C85 N86 1.365 . S
C85 C88 1.405 . S
C85 C92 1.448 . S
N86 C85 1.365 . S
N86 C89 1.319 . S
N86 Eu95 2.600 . S
C87 C89 1.397 . S
C87 C90 1.367 . S
C87 H107 0.931 . S
C88 C85 1.405 . S
C88 C90 1.403 . S
C88 C94 1.439 . S
C89 N86 1.319 . S
C89 C87 1.397 . S
C89 H100 0.930 . S
C90 C87 1.367 . S
C90 C88 1.403 . S
C90 H111 0.929 . S
C91 C92 1.430 . S
C91 C93 1.387 . S
C91 C97 1.404 . S
C92 C85 1.448 . S
C92 C91 1.430 . S
C92 N96 1.351 . S
C93 C91 1.387 . S
C93 C94 1.374 . S
C93 H108 0.931 . S
C94 C88 1.439 . S
C94 C93 1.374 . S
C94 H109 0.931 . S
Eu95 N86 2.600 . S
Eu95 N96 2.562 . S
Eu95 O130 2.335 . S
Eu95 O133 2.372 . S
Eu95 O134 2.462 . S
Eu95 O135 2.373 . S
Eu95 O137 2.432 . S
Eu95 O138 2.291 . S
Eu95 C159 2.787 . S
N96 C92 1.351 . S
N96 Eu95 2.562 . S
N96 C98 1.325 . S
C97 C91 1.404 . S
C97 C99 1.366 . S
C97 H105 0.930 . S
C98 N96 1.325 . S
C98 C99 1.416 . S
C98 H104 0.929 . S
C99 C97 1.366 . S
C99 C98 1.416 . S
C99 H101 0.930 . S
H100 C89 0.930 . S
H101 C99 0.930 . S
H102 C117 0.930 . S
H103 C124 0.930 . S
H104 C98 0.929 . S
H105 C97 0.930 . S
H106 C120 0.929 . S
H107 C87 0.931 . S
H108 C93 0.931 . S
H109 C94 0.931 . S
H110 C115 0.931 . S
H111 C90 0.929 . S
H112 C123 0.930 . S
N113 Eu84 2.600 . S
N113 C114 1.365 . S
N113 C117 1.319 1_545 S
C114 N113 1.365 . S
C114 C116 1.405 1_545 S
C114 C122 1.448 . S
C115 H110 0.931 . S
C115 C117 1.397 . S
C115 C118 1.367 . S
C116 C114 1.405 1_565 S
C116 C118 1.403 . S
C116 C149 1.439 . S
C117 H102 0.930 . S
C117 N113 1.319 1_565 S
C117 C115 1.397 . S
C118 C115 1.367 . S
C118 C116 1.403 . S
C118 H125 0.929 . S
N119 Eu84 2.562 . S
N119 C120 1.325 1_655 S
N119 C122 1.351 . S
C120 H106 0.929 . S
C120 N119 1.325 1_455 S
C120 C124 1.416 . S
C121 C122 1.430 . S
C121 C123 1.404 1_655 S
C121 C150 1.387 1_545 S
C122 C114 1.448 . S
C122 N119 1.351 . S
C122 C121 1.430 . S
C123 H112 0.930 . S
C123 C121 1.404 1_455 S
C123 C124 1.366 . S
C124 H103 0.930 . S
C124 C120 1.416 . S
C124 C123 1.366 . S
H125 C118 0.929 . S
H126 C149 0.931 . S
H127 C150 0.931 1_455 S
O128 Eu84 2.462 . S
O128 C148 1.252 . S
O129 Eu84 2.373 . S
O129 C140 1.249 . S
O130 Eu95 2.335 . S
O130 C140 1.264 . S
O131 Eu84 2.432 . S
O131 C148 1.268 . S
O132 Eu84 2.291 . S
O132 C147 1.255 . S
O133 Eu95 2.372 . S
O133 C147 1.257 . S
O134 Eu95 2.462 . S
O134 C159 1.252 . S
O135 Eu95 2.373 . S
O135 C151 1.249 . S
O136 Eu84 2.335 . S
O136 C151 1.264 . S
O137 Eu95 2.432 . S
O137 C159 1.268 . S
O138 Eu95 2.291 . S
O138 C158 1.255 . S
O139 Eu84 2.372 . S
O139 C158 1.257 . S
C140 O129 1.249 . S
C140 O130 1.264 . S
C141 C144 1.382 . S
C141 C146 1.390 1_655 S
C141 C148 1.506 . S
C142 C143 1.398 . S
C142 C146 1.392 . S
C143 C142 1.398 . S
C143 C145 1.372 1_455 S
C143 H160 0.931 . S
C144 C141 1.382 . S
C144 C145 1.390 . S
C144 H161 0.931 . S
C145 C143 1.372 1_655 S
C145 C144 1.390 . S
C145 H162 0.929 . S
C146 C141 1.390 1_455 S
C146 C142 1.392 . S
C146 H163 0.930 . S
C147 O132 1.255 . S
C147 O133 1.257 . S
C148 Eu84 2.787 . S
C148 O128 1.252 . S
C148 O131 1.268 . S
C148 C141 1.506 . S
C149 C116 1.439 . S
C149 H126 0.931 . S
C149 C150 1.374 . S
C150 C121 1.387 1_565 S
C150 H127 0.931 1_655 S
C150 C149 1.374 . S
C151 O135 1.249 . S
C151 O136 1.264 . S
C152 C155 1.382 . S
C152 C156 1.390 . S
C152 C159 1.506 . S
C153 C154 1.398 . S
C153 C156 1.392 . S
C154 C153 1.398 . S
C154 C157 1.372 . S
C154 H164 0.931 . S
C155 C152 1.382 . S
C155 C157 1.390 . S
C155 H165 0.931 . S
C156 C152 1.390 . S
C156 C153 1.392 . S
C156 H166 0.930 . S
C157 C154 1.372 . S
C157 C155 1.390 . S
C157 H167 0.929 . S
C158 O138 1.255 . S
C158 O139 1.257 . S
C159 Eu95 2.787 . S
C159 O134 1.252 . S
C159 O137 1.268 . S
C159 C152 1.506 . S
H160 C143 0.931 . S
H161 C144 0.931 . S
H162 C145 0.929 . S
H163 C146 0.930 . S
H164 C154 0.931 . S
H165 C155 0.931 . S
H166 C156 0.930 . S
H167 C157 0.929 . S
Eu168 N197 2.600 . S
Eu168 N203 2.562 . S
Eu168 O212 2.462 . S
Eu168 O213 2.373 . S
Eu168 O215 2.432 . S
Eu168 O216 2.291 . S
Eu168 O220 2.335 . S
Eu168 O223 2.372 . S
Eu168 C232 2.787 . S
C169 N170 1.365 . S
C169 C172 1.405 . S
C169 C176 1.448 . S
N170 C169 1.365 . S
N170 C173 1.319 . S
N170 Eu179 2.600 . S
C171 C173 1.397 . S
C171 C174 1.367 . S
C171 H191 0.931 . S
C172 C169 1.405 . S
C172 C174 1.403 . S
C172 C178 1.439 . S
C173 N170 1.319 . S
C173 C171 1.397 . S
C173 H184 0.930 . S
C174 C171 1.367 . S
C174 C172 1.403 . S
C174 H195 0.929 . S
C175 C176 1.430 . S
C175 C177 1.387 . S
C175 C181 1.404 . S
C176 C169 1.448 . S
C176 C175 1.430 . S
C176 N180 1.351 . S
C177 C175 1.387 . S
C177 C178 1.374 . S
C177 H192 0.931 . S
C178 C172 1.439 . S
C178 C177 1.374 . S
C178 H193 0.931 . S
Eu179 N170 2.600 . S
Eu179 N180 2.562 . S
Eu179 O214 2.335 . S
Eu179 O217 2.372 . S
Eu179 O218 2.462 . S
Eu179 O219 2.373 . S
Eu179 O221 2.432 . S
Eu179 O222 2.291 . S
Eu179 C243 2.787 . S
N180 C176 1.351 . S
N180 Eu179 2.562 . S
N180 C182 1.325 . S
C181 C175 1.404 . S
C181 C183 1.366 . S
C181 H189 0.930 . S
C182 N180 1.325 . S
C182 C183 1.416 . S
C182 H188 0.929 . S
C183 C181 1.366 . S
C183 C182 1.416 . S
C183 H185 0.930 . S
H184 C173 0.930 . S
H185 C183 0.930 . S
H186 C201 0.930 . S
H187 C208 0.930 . S
H188 C182 0.929 . S
H189 C181 0.930 . S
H190 C204 0.929 . S
H191 C171 0.931 . S
H192 C177 0.931 . S
H193 C178 0.931 . S
H194 C199 0.931 . S
H195 C174 0.929 . S
H196 C207 0.930 . S
N197 Eu168 2.600 . S
N197 C198 1.365 . S
N197 C201 1.319 . S
C198 N197 1.365 . S
C198 C200 1.405 . S
C198 C206 1.448 . S
C199 H194 0.931 . S
C199 C201 1.397 . S
C199 C202 1.367 . S
C200 C198 1.405 . S
C200 C202 1.403 . S
C200 C233 1.439 . S
C201 H186 0.930 . S
C201 N197 1.319 . S
C201 C199 1.397 . S
C202 C199 1.367 . S
C202 C200 1.403 . S
C202 H209 0.929 . S
N203 Eu168 2.562 . S
N203 C204 1.325 1_565 S
N203 C206 1.351 . S
C204 H190 0.929 . S
C204 N203 1.325 1_545 S
C204 C208 1.416 . S
C205 C206 1.430 . S
C205 C207 1.404 1_565 S
C205 C234 1.387 . S
C206 C198 1.448 . S
C206 N203 1.351 . S
C206 C205 1.430 . S
C207 H196 0.930 . S
C207 C205 1.404 1_545 S
C207 C208 1.366 . S
C208 H187 0.930 . S
C208 C204 1.416 . S
C208 C207 1.366 . S
H209 C202 0.929 . S
H210 C233 0.931 1_455 S
H211 C234 0.931 1_445 S
O212 Eu168 2.462 . S
O212 C232 1.252 . S
O213 Eu168 2.373 . S
O213 C224 1.249 . S
O214 Eu179 2.335 . S
O214 C224 1.264 . S
O215 Eu168 2.432 . S
O215 C232 1.268 . S
O216 Eu168 2.291 . S
O216 C231 1.255 . S
O217 Eu179 2.372 . S
O217 C231 1.257 . S
O218 Eu179 2.462 . S
O218 C243 1.252 . S
O219 Eu179 2.373 . S
O219 C235 1.249 . S
O220 Eu168 2.335 . S
O220 C235 1.264 . S
O221 Eu179 2.432 . S
O221 C243 1.268 . S
O222 Eu179 2.291 . S
O222 C242 1.255 . S
O223 Eu168 2.372 . S
O223 C242 1.257 . S
C224 O213 1.249 . S
C224 O214 1.264 . S
C225 C228 1.382 . S
C225 C230 1.390 1_565 S
C225 C232 1.506 . S
C226 C227 1.398 . S
C226 C230 1.392 . S
C227 C226 1.398 . S
C227 C229 1.372 1_545 S
C227 H244 0.931 . S
C228 C225 1.382 . S
C228 C229 1.390 . S
C228 H245 0.931 . S
C229 C227 1.372 1_565 S
C229 C228 1.390 . S
C229 H246 0.929 . S
C230 C225 1.390 1_545 S
C230 C226 1.392 . S
C230 H247 0.930 . S
C231 O216 1.255 . S
C231 O217 1.257 . S
C232 Eu168 2.787 . S
C232 O212 1.252 . S
C232 O215 1.268 . S
C232 C225 1.506 . S
C233 C200 1.439 . S
C233 H210 0.931 1_655 S
C233 C234 1.374 . S
C234 C205 1.387 . S
C234 H211 0.931 1_665 S
C234 C233 1.374 . S
C235 O219 1.249 . S
C235 O220 1.264 . S
C236 C239 1.382 . S
C236 C240 1.390 . S
C236 C243 1.506 . S
C237 C238 1.398 . S
C237 C240 1.392 . S
C238 C237 1.398 . S
C238 C241 1.372 . S
C238 H248 0.931 . S
C239 C236 1.382 . S
C239 C241 1.390 . S
C239 H249 0.931 . S
C240 C236 1.390 . S
C240 C237 1.392 . S
C240 H250 0.930 . S
C241 C238 1.372 . S
C241 C239 1.390 . S
C241 H251 0.929 . S
C242 O222 1.255 . S
C242 O223 1.257 . S
C243 Eu179 2.787 . S
C243 O218 1.252 . S
C243 O221 1.268 . S
C243 C236 1.506 . S
H244 C227 0.931 . S
H245 C228 0.931 . S
H246 C229 0.929 . S
H247 C230 0.930 . S
H248 C238 0.931 . S
H249 C239 0.931 . S
H250 C240 0.930 . S
H251 C241 0.929 . S
Eu252 N281 2.600 1_556 S
Eu252 N287 2.562 1_556 S
Eu252 O296 2.462 . S
Eu252 O297 2.373 1_556 S
Eu252 O299 2.432 . S
Eu252 O300 2.291 1_556 S
Eu252 O304 2.335 . S
Eu252 O307 2.372 . S
Eu252 C316 2.787 . S
C253 N254 1.365 . S
C253 C256 1.405 . S
C253 C260 1.448 . S
N254 C253 1.365 . S
N254 C257 1.319 . S
N254 Eu263 2.600 . S
C255 C257 1.397 . S
C255 C258 1.367 . S
C255 H275 0.931 . S
C256 C253 1.405 . S
C256 C258 1.403 . S
C256 C262 1.439 . S
C257 N254 1.319 . S
C257 C255 1.397 . S
C257 H268 0.930 . S
C258 C255 1.367 . S
C258 C256 1.403 . S
C258 H279 0.929 . S
C259 C260 1.430 . S
C259 C261 1.387 . S
C259 C265 1.405 1_554 S
C260 C253 1.448 . S
C260 C259 1.430 . S
C260 N264 1.351 . S
C261 C259 1.387 . S
C261 C262 1.374 . S
C261 H276 0.931 1_554 S
C262 C256 1.439 . S
C262 C261 1.374 . S
C262 H277 0.931 . S
Eu263 N254 2.600 . S
Eu263 N264 2.562 . S
Eu263 O298 2.335 . S
Eu263 O301 2.372 . S
Eu263 O302 2.462 . S
Eu263 O303 2.373 1_554 S
Eu263 O305 2.432 . S
Eu263 O306 2.291 . S
Eu263 C327 2.787 . S
N264 C260 1.351 . S
N264 Eu263 2.562 . S
N264 C266 1.325 . S
C265 C259 1.405 1_556 S
C265 C267 1.366 1_556 S
C265 H273 0.930 . S
C266 N264 1.325 . S
C266 C267 1.416 . S
C266 H272 0.929 . S
C267 C265 1.366 1_554 S
C267 C266 1.416 . S
C267 H269 0.931 1_554 S
H268 C257 0.930 . S
H269 C267 0.931 1_556 S
H270 C285 0.930 . S
H271 C292 0.930 . S
H272 C266 0.929 . S
H273 C265 0.930 . S
H274 C288 0.929 . S
H275 C255 0.931 . S
H276 C261 0.931 1_556 S
H277 C262 0.931 . S
H278 C283 0.931 . S
H279 C258 0.929 . S
H280 C291 0.930 . S
N281 Eu252 2.600 1_554 S
N281 C282 1.365 . S
N281 C285 1.319 1_654 S
C282 N281 1.365 . S
C282 C284 1.405 1_655 S
C282 C290 1.448 . S
C283 H278 0.931 . S
C283 C285 1.397 . S
C283 C286 1.367 1_556 S
C284 C282 1.405 1_455 S
C284 C286 1.403 . S
C284 C317 1.439 . S
C285 H270 0.930 . S
C285 N281 1.319 1_456 S
C285 C283 1.397 . S
C286 C283 1.367 1_554 S
C286 C284 1.403 . S
C286 H293 0.929 . S
N287 Eu252 2.562 1_554 S
N287 C288 1.325 . S
N287 C290 1.351 . S
C288 H274 0.929 . S
C288 N287 1.325 . S
C288 C292 1.416 . S
C289 C290 1.430 . S
C289 C291 1.404 . S
C289 C318 1.387 1_655 S
C290 C282 1.448 . S
C290 N287 1.351 . S
C290 C289 1.430 . S
C291 H280 0.930 . S
C291 C289 1.404 . S
C291 C292 1.366 . S
C292 H271 0.930 . S
C292 C288 1.416 . S
C292 C291 1.366 . S
H293 C286 0.929 . S
H294 C317 0.931 1_545 S
H295 C318 0.931 1_545 S
O296 Eu252 2.462 . S
O296 C316 1.252 . S
O297 Eu252 2.373 1_554 S
O297 C308 1.249 . S
O298 Eu263 2.335 . S
O298 C308 1.264 . S
O299 Eu252 2.432 . S
O299 C316 1.268 . S
O300 Eu252 2.291 1_554 S
O300 C315 1.255 . S
O301 Eu263 2.372 . S
O301 C315 1.257 . S
O302 Eu263 2.462 . S
O302 C327 1.252 . S
O303 Eu263 2.373 1_556 S
O303 C319 1.249 . S
O304 Eu252 2.335 . S
O304 C319 1.264 . S
O305 Eu263 2.432 . S
O305 C327 1.268 . S
O306 Eu263 2.291 . S
O306 C326 1.255 . S
O307 Eu252 2.372 . S
O307 C326 1.257 1_556 S
C308 O297 1.249 . S
C308 O298 1.264 . S
C309 C312 1.382 . S
C309 C314 1.390 . S
C309 C316 1.506 . S
C310 C311 1.398 . S
C310 C314 1.392 . S
C311 C310 1.398 . S
C311 C313 1.372 . S
C311 H328 0.931 . S
C312 C309 1.382 . S
C312 C313 1.390 . S
C312 H329 0.931 . S
C313 C311 1.372 . S
C313 C312 1.390 . S
C313 H330 0.929 . S
C314 C309 1.390 . S
C314 C310 1.392 . S
C314 H331 0.930 . S
C315 O300 1.255 . S
C315 O301 1.257 . S
C316 Eu252 2.787 . S
C316 O296 1.252 . S
C316 O299 1.268 . S
C316 C309 1.506 . S
C317 C284 1.439 . S
C317 H294 0.931 1_565 S
C317 C318 1.374 . S
C318 C289 1.387 1_455 S
C318 H295 0.931 1_565 S
C318 C317 1.374 . S
C319 O303 1.249 . S
C319 O304 1.264 . S
C320 C323 1.382 . S
C320 C324 1.390 . S
C320 C327 1.506 . S
C321 C322 1.398 . S
C321 C324 1.392 . S
C322 C321 1.398 . S
C322 C325 1.372 . S
C322 H332 0.931 . S
C323 C320 1.382 . S
C323 C325 1.390 . S
C323 H333 0.931 . S
C324 C320 1.390 . S
C324 C321 1.392 . S
C324 H334 0.930 . S
C325 C322 1.372 . S
C325 C323 1.390 . S
C325 H335 0.929 . S
C326 O306 1.255 . S
C326 O307 1.257 1_554 S
C327 Eu263 2.787 . S
C327 O302 1.252 . S
C327 O305 1.268 . S
C327 C320 1.506 . S
H328 C311 0.931 . S
H329 C312 0.931 . S
H330 C313 0.929 . S
H331 C314 0.930 . S
H332 C322 0.931 . S
H333 C323 0.931 . S
H334 C324 0.930 . S
H335 C325 0.929 . S
Eu336 N365 2.600 . S
Eu336 N371 2.562 . S
Eu336 O380 2.462 . S
Eu336 O381 2.373 . S
Eu336 O383 2.432 . S
Eu336 O384 2.291 . S
Eu336 O388 2.335 . S
Eu336 O391 2.372 . S
Eu336 C400 2.787 . S
C337 N338 1.365 . S
C337 C340 1.405 . S
C337 C344 1.448 . S
N338 C337 1.365 . S
N338 C341 1.319 . S
N338 Eu347 2.600 . S
C339 C341 1.397 . S
C339 C342 1.367 . S
C339 H359 0.931 . S
C340 C337 1.405 . S
C340 C342 1.403 . S
C340 C346 1.439 . S
C341 N338 1.319 . S
C341 C339 1.397 . S
C341 H352 0.930 . S
C342 C339 1.367 . S
C342 C340 1.403 . S
C342 H363 0.929 . S
C343 C344 1.430 . S
C343 C345 1.387 . S
C343 C349 1.404 . S
C344 C337 1.448 . S
C344 C343 1.430 . S
C344 N348 1.351 . S
C345 C343 1.387 . S
C345 C346 1.374 . S
C345 H360 0.931 . S
C346 C340 1.439 . S
C346 C345 1.374 . S
C346 H361 0.931 . S
Eu347 N338 2.600 . S
Eu347 N348 2.562 . S
Eu347 O382 2.335 . S
Eu347 O385 2.372 . S
Eu347 O386 2.462 . S
Eu347 O387 2.373 . S
Eu347 O389 2.432 . S
Eu347 O390 2.291 . S
Eu347 C411 2.787 . S
N348 C344 1.351 . S
N348 Eu347 2.562 . S
N348 C350 1.325 . S
C349 C343 1.404 . S
C349 C351 1.366 . S
C349 H357 0.930 . S
C350 N348 1.325 . S
C350 C351 1.416 . S
C350 H356 0.929 . S
C351 C349 1.366 . S
C351 C350 1.416 . S
C351 H353 0.930 . S
H352 C341 0.930 . S
H353 C351 0.930 . S
H354 C369 0.930 . S
H355 C376 0.930 . S
H356 C350 0.929 . S
H357 C349 0.930 . S
H358 C372 0.929 . S
H359 C339 0.931 . S
H360 C345 0.931 . S
H361 C346 0.931 . S
H362 C367 0.931 . S
H363 C342 0.929 . S
H364 C375 0.930 . S
N365 Eu336 2.600 . S
N365 C366 1.365 . S
N365 C369 1.319 1_565 S
C366 N365 1.365 . S
C366 C368 1.405 1_565 S
C366 C374 1.448 . S
C367 H362 0.931 . S
C367 C369 1.397 . S
C367 C370 1.367 . S
C368 C366 1.405 1_545 S
C368 C370 1.403 . S
C368 C401 1.439 . S
C369 H354 0.930 . S
C369 N365 1.319 1_545 S
C369 C367 1.397 . S
C370 C367 1.367 . S
C370 C368 1.403 . S
C370 H377 0.929 . S
N371 Eu336 2.562 . S
N371 C372 1.325 1_455 S
N371 C374 1.351 . S
C372 H358 0.929 . S
C372 N371 1.325 1_655 S
C372 C376 1.416 . S
C373 C374 1.430 . S
C373 C375 1.404 1_455 S
C373 C402 1.387 1_565 S
C374 C366 1.448 . S
C374 N371 1.351 . S
C374 C373 1.430 . S
C375 H364 0.930 . S
C375 C373 1.404 1_655 S
C375 C376 1.366 . S
C376 H355 0.930 . S
C376 C372 1.416 . S
C376 C375 1.366 . S
H377 C370 0.929 . S
H378 C401 0.931 . S
H379 C402 0.931 1_655 S
O380 Eu336 2.462 . S
O380 C400 1.252 . S
O381 Eu336 2.373 . S
O381 C392 1.249 . S
O382 Eu347 2.335 . S
O382 C392 1.264 . S
O383 Eu336 2.432 . S
O383 C400 1.268 . S
O384 Eu336 2.291 . S
O384 C399 1.255 . S
O385 Eu347 2.372 . S
O385 C399 1.257 . S
O386 Eu347 2.462 . S
O386 C411 1.252 . S
O387 Eu347 2.373 . S
O387 C403 1.249 . S
O388 Eu336 2.335 . S
O388 C403 1.264 . S
O389 Eu347 2.432 . S
O389 C411 1.268 . S
O390 Eu347 2.291 . S
O390 C410 1.255 . S
O391 Eu336 2.372 . S
O391 C410 1.257 . S
C392 O381 1.249 . S
C392 O382 1.264 . S
C393 C396 1.382 . S
C393 C398 1.390 1_455 S
C393 C400 1.506 . S
C394 C395 1.398 . S
C394 C398 1.392 . S
C395 C394 1.398 . S
C395 C397 1.372 1_655 S
C395 H412 0.931 . S
C396 C393 1.382 . S
C396 C397 1.390 . S
C396 H413 0.931 . S
C397 C395 1.372 1_455 S
C397 C396 1.390 . S
C397 H414 0.929 . S
C398 C393 1.390 1_655 S
C398 C394 1.392 . S
C398 H415 0.930 . S
C399 O384 1.255 . S
C399 O385 1.257 . S
C400 Eu336 2.787 . S
C400 O380 1.252 . S
C400 O383 1.268 . S
C400 C393 1.506 . S
C401 C368 1.439 . S
C401 H378 0.931 . S
C401 C402 1.374 . S
C402 C373 1.387 1_545 S
C402 H379 0.931 1_455 S
C402 C401 1.374 . S
C403 O387 1.249 . S
C403 O388 1.264 . S
C404 C407 1.382 . S
C404 C408 1.390 . S
C404 C411 1.506 . S
C405 C406 1.398 . S
C405 C408 1.392 . S
C406 C405 1.398 . S
C406 C409 1.372 . S
C406 H416 0.931 . S
C407 C404 1.382 . S
C407 C409 1.390 . S
C407 H417 0.931 . S
C408 C404 1.390 . S
C408 C405 1.392 . S
C408 H418 0.930 . S
C409 C406 1.372 . S
C409 C407 1.390 . S
C409 H419 0.929 . S
C410 O390 1.255 . S
C410 O391 1.257 . S
C411 Eu347 2.787 . S
C411 O386 1.252 . S
C411 O389 1.268 . S
C411 C404 1.506 . S
H412 C395 0.931 . S
H413 C396 0.931 . S
H414 C397 0.929 . S
H415 C398 0.930 . S
H416 C406 0.931 . S
H417 C407 0.931 . S
H418 C408 0.930 . S
H419 C409 0.929 . S
Eu420 N449 2.600 . S
Eu420 N455 2.562 . S
Eu420 O464 2.462 . S
Eu420 O465 2.373 . S
Eu420 O467 2.432 . S
Eu420 O468 2.291 . S
Eu420 O472 2.335 . S
Eu420 O475 2.372 . S
Eu420 C484 2.787 . S
C421 N422 1.365 . S
C421 C424 1.405 . S
C421 C428 1.448 . S
N422 C421 1.365 . S
N422 C425 1.319 . S
N422 Eu431 2.600 . S
C423 C425 1.397 . S
C423 C426 1.367 . S
C423 H443 0.931 . S
C424 C421 1.405 . S
C424 C426 1.403 . S
C424 C430 1.439 . S
C425 N422 1.319 . S
C425 C423 1.397 . S
C425 H436 0.930 . S
C426 C423 1.367 . S
C426 C424 1.403 . S
C426 H447 0.929 . S
C427 C428 1.430 . S
C427 C429 1.387 . S
C427 C433 1.404 . S
C428 C421 1.448 . S
C428 C427 1.430 . S
C428 N432 1.351 . S
C429 C427 1.387 . S
C429 C430 1.374 . S
C429 H444 0.931 . S
C430 C424 1.439 . S
C430 C429 1.374 . S
C430 H445 0.931 . S
Eu431 N422 2.600 . S
Eu431 N432 2.562 . S
Eu431 O466 2.335 . S
Eu431 O469 2.372 . S
Eu431 O470 2.462 . S
Eu431 O471 2.373 . S
Eu431 O473 2.432 . S
Eu431 O474 2.291 . S
Eu431 C495 2.787 . S
N432 C428 1.351 . S
N432 Eu431 2.562 . S
N432 C434 1.325 . S
C433 C427 1.404 . S
C433 C435 1.366 . S
C433 H441 0.930 . S
C434 N432 1.325 . S
C434 C435 1.416 . S
C434 H440 0.929 . S
C435 C433 1.366 . S
C435 C434 1.416 . S
C435 H437 0.930 . S
H436 C425 0.930 . S
H437 C435 0.930 . S
H438 C453 0.930 . S
H439 C460 0.930 . S
H440 C434 0.929 . S
H441 C433 0.930 . S
H442 C456 0.929 . S
H443 C423 0.931 . S
H444 C429 0.931 . S
H445 C430 0.931 . S
H446 C451 0.931 . S
H447 C426 0.929 . S
H448 C459 0.930 . S
N449 Eu420 2.600 . S
N449 C450 1.365 . S
N449 C453 1.319 . S
C450 N449 1.365 . S
C450 C452 1.405 . S
C450 C458 1.448 . S
C451 H446 0.931 . S
C451 C453 1.397 . S
C451 C454 1.367 . S
C452 C450 1.405 . S
C452 C454 1.403 . S
C452 C485 1.439 . S
C453 H438 0.930 . S
C453 N449 1.319 . S
C453 C451 1.397 . S
C454 C451 1.367 . S
C454 C452 1.403 . S
C454 H461 0.929 . S
N455 Eu420 2.562 . S
N455 C456 1.325 1_545 S
N455 C458 1.351 . S
C456 H442 0.929 . S
C456 N455 1.325 1_565 S
C456 C460 1.416 . S
C457 C458 1.430 . S
C457 C459 1.404 1_545 S
C457 C486 1.387 . S
C458 C450 1.448 . S
C458 N455 1.351 . S
C458 C457 1.430 . S
C459 H448 0.930 . S
C459 C457 1.404 1_565 S
C459 C460 1.366 . S
C460 H439 0.930 . S
C460 C456 1.416 . S
C460 C459 1.366 . S
H461 C454 0.929 . S
H462 C485 0.931 1_655 S
H463 C486 0.931 1_665 S
O464 Eu420 2.462 . S
O464 C484 1.252 . S
O465 Eu420 2.373 . S
O465 C476 1.249 . S
O466 Eu431 2.335 . S
O466 C476 1.264 . S
O467 Eu420 2.432 . S
O467 C484 1.268 . S
O468 Eu420 2.291 . S
O468 C483 1.255 . S
O469 Eu431 2.372 . S
O469 C483 1.257 . S
O470 Eu431 2.462 . S
O470 C495 1.252 . S
O471 Eu431 2.373 . S
O471 C487 1.249 . S
O472 Eu420 2.335 . S
O472 C487 1.264 . S
O473 Eu431 2.432 . S
O473 C495 1.268 . S
O474 Eu431 2.291 . S
O474 C494 1.255 . S
O475 Eu420 2.372 . S
O475 C494 1.257 . S
C476 O465 1.249 . S
C476 O466 1.264 . S
C477 C480 1.382 . S
C477 C482 1.390 1_545 S
C477 C484 1.506 . S
C478 C479 1.398 . S
C478 C482 1.392 . S
C479 C478 1.398 . S
C479 C481 1.372 1_565 S
C479 H496 0.931 . S
C480 C477 1.382 . S
C480 C481 1.390 . S
C480 H497 0.931 . S
C481 C479 1.372 1_545 S
C481 C480 1.390 . S
C481 H498 0.929 . S
C482 C477 1.390 1_565 S
C482 C478 1.392 . S
C482 H499 0.930 . S
C483 O468 1.255 . S
C483 O469 1.257 . S
C484 Eu420 2.787 . S
C484 O464 1.252 . S
C484 O467 1.268 . S
C484 C477 1.506 . S
C485 C452 1.439 . S
C485 H462 0.931 1_455 S
C485 C486 1.374 . S
C486 C457 1.387 . S
C486 H463 0.931 1_445 S
C486 C485 1.374 . S
C487 O471 1.249 . S
C487 O472 1.264 . S
C488 C491 1.382 . S
C488 C492 1.390 . S
C488 C495 1.506 . S
C489 C490 1.398 . S
C489 C492 1.392 . S
C490 C489 1.398 . S
C490 C493 1.372 . S
C490 H500 0.931 . S
C491 C488 1.382 . S
C491 C493 1.390 . S
C491 H501 0.931 . S
C492 C488 1.390 . S
C492 C489 1.392 . S
C492 H502 0.930 . S
C493 C490 1.372 . S
C493 C491 1.390 . S
C493 H503 0.929 . S
C494 O474 1.255 . S
C494 O475 1.257 . S
C495 Eu431 2.787 . S
C495 O470 1.252 . S
C495 O473 1.268 . S
C495 C488 1.506 . S
H496 C479 0.931 . S
H497 C480 0.931 . S
H498 C481 0.929 . S
H499 C482 0.930 . S
H500 C490 0.931 . S
H501 C491 0.931 . S
H502 C492 0.930 . S
H503 C493 0.929 . S
C504 C505 1.387 . S
C504 H508 0.950 . S
C504 C513 1.390 . S
C505 C504 1.387 . S
C505 C507 1.387 . S
H506 C513 0.950 . S
C507 C505 1.387 . S
C507 C509 1.390 . S
C507 H511 0.950 . S
H508 C504 0.950 . S
C509 C507 1.390 . S
C509 C510 1.387 . S
C509 H512 0.950 . S
C510 C509 1.387 . S
C510 C513 1.387 . S
H511 C507 0.950 . S
H512 C509 0.950 . S
C513 C504 1.390 . S
C513 H506 0.950 . S
C513 C510 1.387 . S
C514 C515 1.387 . S
C514 H518 0.950 . S
C514 C523 1.390 . S
C515 C514 1.387 . S
C515 C517 1.387 . S
H516 C523 0.950 . S
C517 C515 1.387 . S
C517 C519 1.390 . S
C517 H521 0.950 . S
H518 C514 0.950 . S
C519 C517 1.390 . S
C519 C520 1.387 . S
C519 H522 0.950 . S
C520 C519 1.387 . S
C520 C523 1.387 . S
H521 C517 0.950 . S
H522 C519 0.950 . S
C523 C514 1.390 . S
C523 H516 0.950 . S
C523 C520 1.387 . S
C524 C525 1.387 . S
C524 H528 0.950 . S
C524 C533 1.390 . S
C525 C524 1.387 . S
C525 C527 1.387 . S
H526 C533 0.950 . S
C527 C525 1.387 . S
C527 C529 1.390 . S
C527 H531 0.950 . S
H528 C524 0.950 . S
C529 C527 1.390 . S
C529 C530 1.387 . S
C529 H532 0.950 . S
C530 C529 1.387 . S
C530 C533 1.387 . S
H531 C527 0.950 . S
H532 C529 0.950 . S
C533 C524 1.390 . S
C533 H526 0.950 . S
C533 C530 1.387 . S
C534 C535 1.387 . S
C534 H538 0.950 . S
C534 C543 1.390 . S
C535 C534 1.387 . S
C535 C537 1.387 . S
H536 C543 0.950 . S
C537 C535 1.387 . S
C537 C539 1.390 . S
C537 H541 0.950 . S
H538 C534 0.950 . S
C539 C537 1.390 . S
C539 C540 1.387 . S
C539 H542 0.950 . S
C540 C539 1.387 . S
C540 C543 1.387 . S
H541 C537 0.950 . S
H542 C539 0.950 . S
C543 C534 1.390 . S
C543 H536 0.950 . S
C543 C540 1.387 . S
C544 C545 1.387 . S
C544 H548 0.950 . S
C544 C553 1.390 . S
C545 C544 1.387 . S
C545 C547 1.387 . S
H546 C553 0.950 . S
C547 C545 1.387 . S
C547 C549 1.390 . S
C547 H551 0.950 . S
H548 C544 0.950 . S
C549 C547 1.390 . S
C549 C550 1.387 . S
C549 H552 0.950 . S
C550 C549 1.387 . S
C550 C553 1.387 . S
H551 C547 0.950 . S
H552 C549 0.950 . S
C553 C544 1.390 . S
C553 H546 0.950 . S
C553 C550 1.387 . S
C554 C555 1.387 . S
C554 H558 0.950 . S
C554 C563 1.390 . S
C555 C554 1.387 . S
C555 C557 1.387 . S
H556 C563 0.950 . S
C557 C555 1.387 . S
C557 C559 1.390 . S
C557 H561 0.950 . S
H558 C554 0.950 . S
C559 C557 1.390 . S
C559 C560 1.387 . S
C559 H562 0.950 . S
C560 C559 1.387 . S
C560 C563 1.387 . S
H561 C557 0.950 . S
H562 C559 0.950 . S
C563 C554 1.390 . S
C563 H556 0.950 . S
C563 C560 1.387 . S
C564 C565 1.387 . S
C564 H568 0.950 . S
C564 C573 1.390 . S
C565 C564 1.387 . S
C565 C567 1.387 . S
H566 C573 0.950 . S
C567 C565 1.387 . S
C567 C569 1.390 . S
C567 H571 0.950 1_554 S
H568 C564 0.950 . S
C569 C567 1.390 . S
C569 C570 1.387 . S
C569 H572 0.950 1_554 S
C570 C569 1.387 . S
C570 C573 1.387 . S
H571 C567 0.950 1_556 S
H572 C569 0.950 1_556 S
C573 C564 1.390 . S
C573 H566 0.950 . S
C573 C570 1.387 . S
C574 C575 1.387 . S
C574 H578 0.950 . S
C574 C583 1.390 1_455 S
C575 C574 1.387 . S
C575 C577 1.387 . S
H576 C583 0.950 . S
C577 C575 1.387 . S
C577 C579 1.390 1_455 S
C577 H581 0.950 . S
H578 C574 0.950 . S
C579 C577 1.390 1_655 S
C579 C580 1.387 . S
C579 H582 0.950 . S
C580 C579 1.387 . S
C580 C583 1.387 . S
H581 C577 0.950 . S
H582 C579 0.950 . S
C583 C574 1.390 1_655 S
C583 H576 0.950 . S
C583 C580 1.387 . S
C584 C585 1.387 . S
C584 H588 0.950 . S
C584 C593 1.390 1_545 S
C585 C584 1.387 . S
C585 C587 1.387 . S
H586 C593 0.950 . S
C587 C585 1.387 . S
C587 C589 1.390 1_545 S
C587 H591 0.950 . S
H588 C584 0.950 . S
C589 C587 1.390 1_565 S
C589 C590 1.387 . S
C589 H592 0.950 . S
C590 C589 1.387 . S
C590 C593 1.387 . S
H591 C587 0.950 . S
H592 C589 0.950 . S
C593 C584 1.390 1_565 S
C593 H586 0.950 . S
C593 C590 1.387 . S
C594 C595 1.387 . S
C594 H598 0.950 . S
C594 C603 1.390 . S
C595 C594 1.387 . S
C595 C597 1.387 . S
H596 C603 0.950 . S
C597 C595 1.387 . S
C597 C599 1.390 . S
C597 H601 0.950 . S
H598 C594 0.950 . S
C599 C597 1.390 . S
C599 C600 1.387 . S
C599 H602 0.950 . S
C600 C599 1.387 . S
C600 C603 1.387 . S
H601 C597 0.950 . S
H602 C599 0.950 . S
C603 C594 1.390 . S
C603 H596 0.950 . S
C603 C600 1.387 . S
C604 C605 1.387 . S
C604 H608 0.950 . S
C604 C613 1.390 1_455 S
C605 C604 1.387 . S
C605 C607 1.387 1_554 S
H606 C613 0.950 . S
C607 C605 1.387 1_556 S
C607 C609 1.390 1_455 S
C607 H611 0.950 . S
H608 C604 0.950 . S
C609 C607 1.390 1_655 S
C609 C610 1.387 1_556 S
C609 H612 0.950 . S
C610 C609 1.387 1_554 S
C610 C613 1.387 . S
H611 C607 0.950 . S
H612 C609 0.950 . S
C613 C604 1.390 1_655 S
C613 H606 0.950 . S
C613 C610 1.387 . S
C614 C615 1.387 . S
C614 H618 0.950 . S
C614 C623 1.390 1_565 S
C615 C614 1.387 . S
C615 C617 1.387 . S
H616 C623 0.950 . S
C617 C615 1.387 . S
C617 C619 1.390 1_565 S
C617 H621 0.950 . S
H618 C614 0.950 . S
C619 C617 1.390 1_545 S
C619 C620 1.387 . S
C619 H622 0.950 . S
C620 C619 1.387 . S
C620 C623 1.387 . S
H621 C617 0.950 . S
H622 C619 0.950 . S
C623 C614 1.390 1_545 S
C623 H616 0.950 . S
C623 C620 1.387 . S
C624 C625 1.387 . S
C624 H628 0.950 . S
C624 C633 1.390 . S
C625 C624 1.387 . S
C625 C627 1.387 . S
H626 C633 0.950 . S
C627 C625 1.387 . S
C627 C629 1.390 . S
C627 H631 0.950 . S
H628 C624 0.950 . S
C629 C627 1.390 . S
C629 C630 1.387 . S
C629 H632 0.950 . S
C630 C629 1.387 . S
C630 C633 1.387 . S
H631 C627 0.950 . S
H632 C629 0.950 . S
C633 C624 1.390 . S
C633 H626 0.950 . S
C633 C630 1.387 . S
C634 C635 1.387 . S
C634 H638 0.950 . S
C634 C643 1.390 . S
C635 C634 1.387 . S
C635 C637 1.387 . S
H636 C643 0.950 . S
C637 C635 1.387 . S
C637 C639 1.390 . S
C637 H641 0.950 . S
H638 C634 0.950 . S
C639 C637 1.390 . S
C639 C640 1.387 . S
C639 H642 0.950 . S
C640 C639 1.387 . S
C640 C643 1.387 . S
H641 C637 0.950 . S
H642 C639 0.950 . S
C643 C634 1.390 . S
C643 H636 0.950 . S
C643 C640 1.387 . S
C644 C645 1.387 . S
C644 H648 0.950 1_545 S
C644 C653 1.390 . S
C645 C644 1.387 . S
C645 C647 1.387 . S
H646 C653 0.950 . S
C647 C645 1.387 . S
C647 C649 1.390 . S
C647 H651 0.950 . S
H648 C644 0.950 1_565 S
C649 C647 1.390 . S
C649 C650 1.387 . S
C649 H652 0.950 . S
C650 C649 1.387 . S
C650 C653 1.387 . S
H651 C647 0.950 . S
H652 C649 0.950 . S
C653 C644 1.390 . S
C653 H646 0.950 . S
C653 C650 1.387 . S
C654 C655 1.387 . S
C654 H658 0.950 . S
C654 C663 1.390 . S
C655 C654 1.387 . S
C655 C657 1.387 . S
H656 C663 0.950 . S
C657 C655 1.387 . S
C657 C659 1.390 . S
C657 H661 0.950 . S
H658 C654 0.950 . S
C659 C657 1.390 . S
C659 C660 1.387 . S
C659 H662 0.950 . S
C660 C659 1.387 . S
C660 C663 1.387 . S
H661 C657 0.950 . S
H662 C659 0.950 . S
C663 C654 1.390 . S
C663 H656 0.950 . S
C663 C660 1.387 . S
C664 C665 1.387 . S
C664 H668 0.950 . S
C664 C673 1.390 . S
C665 C664 1.387 . S
C665 C667 1.387 . S
H666 C673 0.950 . S
C667 C665 1.387 . S
C667 C669 1.390 . S
C667 H671 0.950 . S
H668 C664 0.950 . S
C669 C667 1.390 . S
C669 C670 1.387 . S
C669 H672 0.950 . S
C670 C669 1.387 . S
C670 C673 1.387 . S
H671 C667 0.950 . S
H672 C669 0.950 . S
C673 C664 1.390 . S
C673 H666 0.950 . S
C673 C670 1.387 . S
C674 C675 1.387 . S
C674 H678 0.950 . S
C674 C683 1.390 . S
C675 C674 1.387 . S
C675 C677 1.387 . S
H676 C683 0.950 . S
C677 C675 1.387 . S
C677 C679 1.390 . S
C677 H681 0.950 . S
H678 C674 0.950 . S
C679 C677 1.390 . S
C679 C680 1.387 . S
C679 H682 0.950 . S
C680 C679 1.387 . S
C680 C683 1.387 . S
H681 C677 0.950 . S
H682 C679 0.950 . S
C683 C674 1.390 . S
C683 H676 0.950 . S
C683 C680 1.387 . S
C505 C403 1.289 . S
C510 C69 1.020 . S
C515 C487 1.289 . S
C520 C153 1.020 . S
C525 C67 1.286 . S
C530 C237 1.014 . S
C535 C151 1.288 . S
C540 C321 1.018 . S
C545 C235 1.286 . S
C550 C405 1.013 . S
C555 C319 1.289 . S
C560 C489 1.018 . S
C565 C63 1.821 . S
C570 C315 1.821 . S
C575 C399 1.825 . S
C580 C147 1.825 . S
C585 C483 1.822 . S
C590 C231 1.822 . S
C595 C242 1.879 . S
C600 C494 1.879 . S
C605 C74 1.881 . S
C610 C326 1.881 . S
C615 C410 1.878 . S
C620 C158 1.878 . S
C625 C476 1.236 . S
C630 C58 1.088 . S
C635 C142 1.081 . S
C640 C56 1.235 . S
C645 C226 1.083 . S
C650 C140 1.234 . S
C655 C224 1.236 . S
C660 C310 1.088 . S
C665 C394 1.082 . S
C670 C308 1.236 . S
C675 C478 1.085 . S
C680 C392 1.234 . S
