# Generated by pormake.
# Topology ums, (4)-cn, num edge types: 1
# Building blocks:
#     Node 0, Type 0, BuildingBlock: AZAVOO_clean_sbu_0, # of connection points: 4
#     Node 1, Type 0, BuildingBlock: AZAVOO_clean_sbu_0, # of connection points: 4
#     Node 2, Type 0, BuildingBlock: AZAVOO_clean_sbu_0, # of connection points: 4
#     Node 3, Type 0, BuildingBlock: AZAVOO_clean_sbu_0, # of connection points: 4
#     Node 4, Type 0, BuildingBlock: AZAVOO_clean_sbu_0, # of connection points: 4
#     Node 5, Type 0, BuildingBlock: AZAVOO_clean_sbu_0, # of connection points: 4
#     Node 6, Type 0, BuildingBlock: AZAVOO_clean_sbu_0, # of connection points: 4
#     Node 7, Type 0, BuildingBlock: AZAVOO_clean_sbu_0, # of connection points: 4
#     Node 8, Type 0, BuildingBlock: AZAVOO_clean_sbu_0, # of connection points: 4
#     Node 9, Type 0, BuildingBlock: AZAVOO_clean_sbu_0, # of connection points: 4
#     Node 10, Type 0, BuildingBlock: AZAVOO_clean_sbu_0, # of connection points: 4
#     Node 11, Type 0, BuildingBlock: AZAVOO_clean_sbu_0, # of connection points: 4
#     Node 12, Type 0, BuildingBlock: AZAVOO_clean_sbu_0, # of connection points: 4
#     Node 13, Type 0, BuildingBlock: AZAVOO_clean_sbu_0, # of connection points: 4
#     Node 14, Type 0, BuildingBlock: AZAVOO_clean_sbu_0, # of connection points: 4
#     Node 15, Type 0, BuildingBlock: AZAVOO_clean_sbu_0, # of connection points: 4
#     Node 16, Type 0, BuildingBlock: AZAVOO_clean_sbu_0, # of connection points: 4
#     Node 17, Type 0, BuildingBlock: AZAVOO_clean_sbu_0, # of connection points: 4
#     Node 18, Type 0, BuildingBlock: AZAVOO_clean_sbu_0, # of connection points: 4
#     Node 19, Type 0, BuildingBlock: AZAVOO_clean_sbu_0, # of connection points: 4
#     Node 20, Type 0, BuildingBlock: AZAVOO_clean_sbu_0, # of connection points: 4
#     Node 21, Type 0, BuildingBlock: AZAVOO_clean_sbu_0, # of connection points: 4
#     Node 22, Type 0, BuildingBlock: AZAVOO_clean_sbu_0, # of connection points: 4
#     Node 23, Type 0, BuildingBlock: AZAVOO_clean_sbu_0, # of connection points: 4
#     Node 24, Type 0, BuildingBlock: AZAVOO_clean_sbu_0, # of connection points: 4
#     Node 25, Type 0, BuildingBlock: AZAVOO_clean_sbu_0, # of connection points: 4
#     Node 26, Type 0, BuildingBlock: AZAVOO_clean_sbu_0, # of connection points: 4
#     Node 27, Type 0, BuildingBlock: AZAVOO_clean_sbu_0, # of connection points: 4
#     Node 28, Type 0, BuildingBlock: AZAVOO_clean_sbu_0, # of connection points: 4
#     Node 29, Type 0, BuildingBlock: AZAVOO_clean_sbu_0, # of connection points: 4
#     Node 30, Type 0, BuildingBlock: AZAVOO_clean_sbu_0, # of connection points: 4
#     Node 31, Type 0, BuildingBlock: AZAVOO_clean_sbu_0, # of connection points: 4
#     Node 32, Type 0, BuildingBlock: AZAVOO_clean_sbu_0, # of connection points: 4
#     Node 33, Type 0, BuildingBlock: AZAVOO_clean_sbu_0, # of connection points: 4
#     Node 34, Type 0, BuildingBlock: AZAVOO_clean_sbu_0, # of connection points: 4
#     Node 35, Type 0, BuildingBlock: AZAVOO_clean_sbu_0, # of connection points: 4
#     Edge 36, Type (0, 0), BuildingBlock: AJUNOK_clean_linker_0, # of connection points: 2
#     Edge 37, Type (0, 0), BuildingBlock: AJUNOK_clean_linker_0, # of connection points: 2
#     Edge 38, Type (0, 0), BuildingBlock: AJUNOK_clean_linker_0, # of connection points: 2
#     Edge 39, Type (0, 0), BuildingBlock: AJUNOK_clean_linker_0, # of connection points: 2
#     Edge 40, Type (0, 0), BuildingBlock: AJUNOK_clean_linker_0, # of connection points: 2
#     Edge 41, Type (0, 0), BuildingBlock: AJUNOK_clean_linker_0, # of connection points: 2
#     Edge 42, Type (0, 0), BuildingBlock: AJUNOK_clean_linker_0, # of connection points: 2
#     Edge 43, Type (0, 0), BuildingBlock: AJUNOK_clean_linker_0, # of connection points: 2
#     Edge 44, Type (0, 0), BuildingBlock: AJUNOK_clean_linker_0, # of connection points: 2
#     Edge 45, Type (0, 0), BuildingBlock: AJUNOK_clean_linker_0, # of connection points: 2
#     Edge 46, Type (0, 0), BuildingBlock: AJUNOK_clean_linker_0, # of connection points: 2
#     Edge 47, Type (0, 0), BuildingBlock: AJUNOK_clean_linker_0, # of connection points: 2
#     Edge 48, Type (0, 0), BuildingBlock: AJUNOK_clean_linker_0, # of connection points: 2
#     Edge 49, Type (0, 0), BuildingBlock: AJUNOK_clean_linker_0, # of connection points: 2
#     Edge 50, Type (0, 0), BuildingBlock: AJUNOK_clean_linker_0, # of connection points: 2
#     Edge 51, Type (0, 0), BuildingBlock: AJUNOK_clean_linker_0, # of connection points: 2
#     Edge 52, Type (0, 0), BuildingBlock: AJUNOK_clean_linker_0, # of connection points: 2
#     Edge 53, Type (0, 0), BuildingBlock: AJUNOK_clean_linker_0, # of connection points: 2
#     Edge 54, Type (0, 0), BuildingBlock: AJUNOK_clean_linker_0, # of connection points: 2
#     Edge 55, Type (0, 0), BuildingBlock: AJUNOK_clean_linker_0, # of connection points: 2
#     Edge 56, Type (0, 0), BuildingBlock: AJUNOK_clean_linker_0, # of connection points: 2
#     Edge 57, Type (0, 0), BuildingBlock: AJUNOK_clean_linker_0, # of connection points: 2
#     Edge 58, Type (0, 0), BuildingBlock: AJUNOK_clean_linker_0, # of connection points: 2
#     Edge 59, Type (0, 0), BuildingBlock: AJUNOK_clean_linker_0, # of connection points: 2
#     Edge 60, Type (0, 0), BuildingBlock: AJUNOK_clean_linker_0, # of connection points: 2
#     Edge 61, Type (0, 0), BuildingBlock: AJUNOK_clean_linker_0, # of connection points: 2
#     Edge 62, Type (0, 0), BuildingBlock: AJUNOK_clean_linker_0, # of connection points: 2
#     Edge 63, Type (0, 0), BuildingBlock: AJUNOK_clean_linker_0, # of connection points: 2
#     Edge 64, Type (0, 0), BuildingBlock: AJUNOK_clean_linker_0, # of connection points: 2
#     Edge 65, Type (0, 0), BuildingBlock: AJUNOK_clean_linker_0, # of connection points: 2
#     Edge 66, Type (0, 0), BuildingBlock: AJUNOK_clean_linker_0, # of connection points: 2
#     Edge 67, Type (0, 0), BuildingBlock: AJUNOK_clean_linker_0, # of connection points: 2
#     Edge 68, Type (0, 0), BuildingBlock: AJUNOK_clean_linker_0, # of connection points: 2
#     Edge 69, Type (0, 0), BuildingBlock: AJUNOK_clean_linker_0, # of connection points: 2
#     Edge 70, Type (0, 0), BuildingBlock: AJUNOK_clean_linker_0, # of connection points: 2
#     Edge 71, Type (0, 0), BuildingBlock: AJUNOK_clean_linker_0, # of connection points: 2
#     Edge 72, Type (0, 0), BuildingBlock: AJUNOK_clean_linker_0, # of connection points: 2
#     Edge 73, Type (0, 0), BuildingBlock: AJUNOK_clean_linker_0, # of connection points: 2
#     Edge 74, Type (0, 0), BuildingBlock: AJUNOK_clean_linker_0, # of connection points: 2
#     Edge 75, Type (0, 0), BuildingBlock: AJUNOK_clean_linker_0, # of connection points: 2
#     Edge 76, Type (0, 0), BuildingBlock: AJUNOK_clean_linker_0, # of connection points: 2
#     Edge 77, Type (0, 0), BuildingBlock: AJUNOK_clean_linker_0, # of connection points: 2
#     Edge 78, Type (0, 0), BuildingBlock: AJUNOK_clean_linker_0, # of connection points: 2
#     Edge 79, Type (0, 0), BuildingBlock: AJUNOK_clean_linker_0, # of connection points: 2
#     Edge 80, Type (0, 0), BuildingBlock: AJUNOK_clean_linker_0, # of connection points: 2
#     Edge 81, Type (0, 0), BuildingBlock: AJUNOK_clean_linker_0, # of connection points: 2
#     Edge 82, Type (0, 0), BuildingBlock: AJUNOK_clean_linker_0, # of connection points: 2
#     Edge 83, Type (0, 0), BuildingBlock: AJUNOK_clean_linker_0, # of connection points: 2
#     Edge 84, Type (0, 0), BuildingBlock: AJUNOK_clean_linker_0, # of connection points: 2
#     Edge 85, Type (0, 0), BuildingBlock: AJUNOK_clean_linker_0, # of connection points: 2
#     Edge 86, Type (0, 0), BuildingBlock: AJUNOK_clean_linker_0, # of connection points: 2
#     Edge 87, Type (0, 0), BuildingBlock: AJUNOK_clean_linker_0, # of connection points: 2
#     Edge 88, Type (0, 0), BuildingBlock: AJUNOK_clean_linker_0, # of connection points: 2
#     Edge 89, Type (0, 0), BuildingBlock: AJUNOK_clean_linker_0, # of connection points: 2
#     Edge 90, Type (0, 0), BuildingBlock: AJUNOK_clean_linker_0, # of connection points: 2
#     Edge 91, Type (0, 0), BuildingBlock: AJUNOK_clean_linker_0, # of connection points: 2
#     Edge 92, Type (0, 0), BuildingBlock: AJUNOK_clean_linker_0, # of connection points: 2
#     Edge 93, Type (0, 0), BuildingBlock: AJUNOK_clean_linker_0, # of connection points: 2
#     Edge 94, Type (0, 0), BuildingBlock: AJUNOK_clean_linker_0, # of connection points: 2
#     Edge 95, Type (0, 0), BuildingBlock: AJUNOK_clean_linker_0, # of connection points: 2
#     Edge 96, Type (0, 0), BuildingBlock: AJUNOK_clean_linker_0, # of connection points: 2
#     Edge 97, Type (0, 0), BuildingBlock: AJUNOK_clean_linker_0, # of connection points: 2
#     Edge 98, Type (0, 0), BuildingBlock: AJUNOK_clean_linker_0, # of connection points: 2
#     Edge 99, Type (0, 0), BuildingBlock: AJUNOK_clean_linker_0, # of connection points: 2
#     Edge 100, Type (0, 0), BuildingBlock: AJUNOK_clean_linker_0, # of connection points: 2
#     Edge 101, Type (0, 0), BuildingBlock: AJUNOK_clean_linker_0, # of connection points: 2
#     Edge 102, Type (0, 0), BuildingBlock: AJUNOK_clean_linker_0, # of connection points: 2
#     Edge 103, Type (0, 0), BuildingBlock: AJUNOK_clean_linker_0, # of connection points: 2
#     Edge 104, Type (0, 0), BuildingBlock: AJUNOK_clean_linker_0, # of connection points: 2
#     Edge 105, Type (0, 0), BuildingBlock: AJUNOK_clean_linker_0, # of connection points: 2
#     Edge 106, Type (0, 0), BuildingBlock: AJUNOK_clean_linker_0, # of connection points: 2
#     Edge 107, Type (0, 0), BuildingBlock: AJUNOK_clean_linker_0, # of connection points: 2
# Relax obj value: 0.204
# Max RMSD: 0.160
# Mean RMSD: 0.153
data_MOF--net-ums--node1-AZAVOO_clean_sbu_0--edge1-AJUNOK_clean_linker_0
_symmetry_space_group_name_H-M    P1
_symmetry_Int_Tables_number       1
_symmetry_cell_setting            triclinic
loop_
_symmetry_equiv_pos_as_xyz
'x, y, z'
_cell_length_a     75.490306
_cell_length_b     74.698853
_cell_length_c     17.093782
_cell_angle_alpha  89.074583
_cell_angle_beta   89.975793
_cell_angle_gamma 120.33723
loop_
_atom_site_label
_atom_site_type_symbol
_atom_site_fract_x
_atom_site_fract_y
_atom_site_fract_z
_atom_type_partial_charge
Mg0 Mg 0.17383 0.24059 0.18232 0.0
O1 O 0.18357 0.27452 0.15037 0.0
O2 O 0.15503 0.27493 0.11915 0.0
Mg3 Mg 0.12727 0.24269 0.13934 0.0
C4 C 0.1745 0.28408 0.12606 0.0
C5 C 0.21964 0.25574 0.16614 0.0
O6 O 0.21554 0.2611 0.09796 0.0
O7 O 0.16235 0.24296 0.30494 0.0
O8 O 0.13439 0.24419 0.26898 0.0
O9 O 0.17489 0.23553 0.05397 0.0
O10 O 0.14726 0.23004 0.11969 0.0
C11 C 0.14641 0.24414 0.32131 0.0
C12 C 0.15603 0.23125 0.05397 0.0
O13 O 0.20618 0.24968 0.22046 0.0
Mg14 Mg 0.7564 0.92693 0.28209 0.0
O15 O 0.72755 0.90282 0.21862 0.0
O16 O 0.70239 0.89907 0.29934 0.0
Mg17 Mg 0.7149 0.91125 0.42276 0.0
C18 C 0.70861 0.89622 0.23351 0.0
C19 C 0.77372 0.93664 0.09748 0.0
O20 O 0.78632 0.95073 0.04675 0.0
O21 O 0.74472 0.94923 0.27049 0.0
O22 O 0.72575 0.94459 0.37734 0.0
O23 O 0.76522 0.90451 0.33533 0.0
O24 O 0.7436 0.91233 0.38855 0.0
C25 C 0.73514 0.95492 0.31563 0.0
C26 C 0.75358 0.90263 0.39428 0.0
O27 O 0.77425 0.94174 0.16837 0.0
Mg28 Mg 0.06482 0.82525 0.13487 0.0
O29 O 0.08686 0.81429 0.09405 0.0
O30 O 0.11596 0.8424 0.053 0.0
Mg31 Mg 0.11311 0.87104 0.07128 0.0
C32 C 0.10484 0.82282 0.06346 0.0
C33 C 0.03675 0.78884 0.25672 0.0
O34 O 0.04747 0.8026 0.30975 0.0
O35 O 0.08219 0.83869 0.25003 0.0
O36 O 0.11072 0.86656 0.20383 0.0
O37 O 0.05519 0.82224 0.01006 0.0
O38 O 0.07975 0.851 0.06341 0.0
C39 C 0.09955 0.85514 0.26067 0.0
C40 C 0.0702 0.84115 0.00208 0.0
O41 O 0.04185 0.79325 0.18514 0.0
Mg42 Mg 0.26188 0.17712 0.30427 0.0
O43 O 0.29568 0.189 0.33541 0.0
O44 O 0.29777 0.16188 0.38054 0.0
Mg45 Mg 0.2661 0.13274 0.37244 0.0
C46 C 0.30594 0.18125 0.3651 0.0
C47 C 0.2599 0.20879 0.19082 0.0
O48 O 0.24886 0.19171 0.15161 0.0
O49 O 0.26349 0.16204 0.18955 0.0
O50 O 0.26512 0.13502 0.23924 0.0
O51 O 0.25748 0.18223 0.42931 0.0
O52 O 0.25259 0.15259 0.3818 0.0
C53 C 0.26417 0.14539 0.18096 0.0
C54 C 0.25371 0.16348 0.44107 0.0
O55 O 0.26986 0.20823 0.2496 0.0
Mg56 Mg 0.82235 0.07677 0.27414 0.0
O57 O 0.81128 0.0996 0.28301 0.0
O58 O 0.79262 0.09703 0.17873 0.0
Mg59 Mg 0.79709 0.07579 0.09377 0.0
C60 C 0.79981 0.10453 0.24557 0.0
C61 C 0.83586 0.07396 0.4455 0.0
O62 O 0.84232 0.0624 0.41338 0.0
O63 O 0.79004 0.04981 0.29011 0.0
O64 O 0.77629 0.04712 0.17213 0.0
O65 O 0.85198 0.10119 0.22302 0.0
O66 O 0.82522 0.07959 0.15261 0.0
C67 C 0.77537 0.04037 0.24217 0.0
C68 C 0.84393 0.09481 0.15491 0.0
O69 O 0.82647 0.0806 0.40377 0.0
Mg70 Mg 0.9186 0.75228 0.34511 0.0
O71 O 0.89401 0.71776 0.36834 0.0
O72 O 0.86572 0.71794 0.40632 0.0
Mg73 Mg 0.87109 0.75078 0.40315 0.0
C74 C 0.8753 0.70831 0.39196 0.0
C75 C 0.95165 0.73967 0.33717 0.0
O76 O 0.94521 0.73444 0.40982 0.0
O77 O 0.90396 0.75289 0.22721 0.0
O78 O 0.8757 0.75232 0.27097 0.0
O79 O 0.9258 0.75443 0.47311 0.0
O80 O 0.90356 0.76179 0.4189 0.0
C81 C 0.88727 0.75301 0.2151 0.0
C82 C 0.91158 0.75909 0.48078 0.0
O83 O 0.94134 0.74436 0.29092 0.0
Mg84 Mg 0.82044 0.74054 0.78452 0.0
O85 O 0.84106 0.74971 0.89133 0.0
O86 O 0.86963 0.78008 0.86912 0.0
Mg87 Mg 0.86608 0.7913 0.74747 0.0
C88 C 0.85868 0.76412 0.91243 0.0
C89 C 0.78476 0.69699 0.83191 0.0
O90 O 0.78723 0.69424 0.75786 0.0
O91 O 0.80955 0.76321 0.81127 0.0
O92 O 0.83768 0.79343 0.78151 0.0
O93 O 0.83787 0.72637 0.73618 0.0
O94 O 0.84579 0.75881 0.71364 0.0
C95 C 0.81879 0.7829 0.80224 0.0
C96 C 0.85035 0.7445 0.70588 0.0
O97 O 0.79544 0.715 0.85964 0.0
Mg98 Mg 0.26454 0.08603 0.74479 0.0
O99 O 0.25777 0.09686 0.85833 0.0
O100 O 0.22908 0.09816 0.84902 0.0
Mg101 Mg 0.21649 0.08649 0.72582 0.0
C102 C 0.24484 0.10114 0.88714 0.0
C103 C 0.30691 0.09512 0.80187 0.0
O104 O 0.31202 0.10806 0.74189 0.0
O105 O 0.24003 0.05203 0.76269 0.0
O106 O 0.21184 0.05373 0.73904 0.0
O107 O 0.2804 0.1192 0.70221 0.0
O108 O 0.24773 0.0964 0.6832 0.0
C109 C 0.22073 0.04322 0.75088 0.0
C110 C 0.2627 0.11509 0.67553 0.0
O111 O 0.28804 0.08225 0.81428 0.0
Mg112 Mg 0.91058 0.16568 0.7432 0.0
O113 O 0.89963 0.14581 0.85482 0.0
O114 O 0.9004 0.11675 0.83565 0.0
Mg115 Mg 0.91434 0.11931 0.71367 0.0
C116 C 0.89603 0.12797 0.87779 0.0
C117 C 0.90672 0.20416 0.78701 0.0
O118 O 0.90276 0.20362 0.71198 0.0
O119 O 0.94433 0.17703 0.76363 0.0
O120 O 0.94547 0.14856 0.73547 0.0
O121 O 0.87849 0.14752 0.69933 0.0
O122 O 0.90248 0.1396 0.67645 0.0
C123 C 0.95442 0.16782 0.75171 0.0
C124 C 0.88365 0.13487 0.67024 0.0
O125 O 0.91151 0.19136 0.8151 0.0
Mg126 Mg 0.73431 0.8323 0.83746 0.0
O127 O 0.74326 0.85352 0.72935 0.0
O128 O 0.77502 0.88012 0.73941 0.0
Mg129 Mg 0.78519 0.87718 0.86478 0.0
C130 C 0.75846 0.86994 0.70097 0.0
C131 C 0.69893 0.78942 0.75992 0.0
O132 O 0.70036 0.77869 0.81868 0.0
O133 O 0.75619 0.82069 0.80566 0.0
O134 O 0.78663 0.84819 0.83391 0.0
O135 O 0.7219 0.85069 0.89619 0.0
O136 O 0.75343 0.85649 0.90928 0.0
C137 C 0.77563 0.82928 0.81371 0.0
C138 C 0.73991 0.86139 0.92688 0.0
O139 O 0.70961 0.80908 0.75877 0.0
Mg140 Mg 0.16415 0.90878 0.69538 0.0
O141 O 0.14567 0.89882 0.58295 0.0
O142 O 0.11891 0.90356 0.59299 0.0
Mg143 Mg 0.12116 0.91834 0.71177 0.0
C144 C 0.1292 0.89713 0.55579 0.0
C145 C 0.20166 0.90188 0.65631 0.0
O146 O 0.20173 0.89897 0.73227 0.0
O147 O 0.17903 0.94361 0.67009 0.0
O148 O 0.15224 0.94789 0.6919 0.0
O149 O 0.14246 0.87701 0.7467 0.0
O150 O 0.13859 0.90417 0.75788 0.0
C151 C 0.17138 0.95532 0.67884 0.0
C152 C 0.13168 0.88486 0.77179 0.0
O153 O 0.18891 0.90651 0.62786 0.0
Mg154 Mg 0.08735 0.25506 0.74294 0.0
O155 O 0.10099 0.24727 0.63994 0.0
O156 O 0.09823 0.21639 0.65546 0.0
Mg157 Mg 0.08149 0.2036 0.77346 0.0
C158 C 0.10441 0.23324 0.61635 0.0
C159 C 0.09572 0.29955 0.68591 0.0
O160 O 0.09982 0.30426 0.75993 0.0
O161 O 0.05414 0.2328 0.70897 0.0
O162 O 0.05163 0.20232 0.73823 0.0
O163 O 0.11779 0.26748 0.80259 0.0
O164 O 0.09202 0.23528 0.81409 0.0
C165 C 0.04351 0.21307 0.71761 0.0
C166 C 0.11055 0.2488 0.8305 0.0
O167 O 0.08954 0.28109 0.66517 0.0
Mg168 Mg 0.83517 0.57803 0.52693 0.0
O169 O 0.84285 0.61162 0.49712 0.0
O170 O 0.8133 0.60883 0.4589 0.0
Mg171 Mg 0.78709 0.5754 0.47034 0.0
C172 C 0.83256 0.61973 0.47075 0.0
C173 C 0.88117 0.59187 0.53296 0.0
O174 O 0.87883 0.59364 0.45767 0.0
O175 O 0.82028 0.57786 0.64496 0.0
O176 O 0.7913 0.5759 0.60232 0.0
O177 O 0.8392 0.57424 0.39882 0.0
O178 O 0.8098 0.56593 0.45708 0.0
C179 C 0.80299 0.57669 0.65767 0.0
C180 C 0.81984 0.56796 0.39397 0.0
O181 O 0.86664 0.58873 0.57932 0.0
Mg182 Mg 0.42595 0.26092 0.59142 0.0
O183 O 0.39545 0.23709 0.53696 0.0
O184 O 0.37169 0.23517 0.6207 0.0
Mg185 Mg 0.38652 0.2507 0.73714 0.0
C186 C 0.37682 0.23083 0.55549 0.0
C187 C 0.43998 0.26653 0.40019 0.0
O188 O 0.4533 0.27982 0.34899 0.0
O189 O 0.41721 0.28552 0.57437 0.0
O190 O 0.39765 0.28267 0.67737 0.0
O191 O 0.43129 0.23663 0.65145 0.0
O192 O 0.41476 0.25055 0.70443 0.0
C193 C 0.4076 0.29209 0.6151 0.0
C194 C 0.42181 0.23818 0.71181 0.0
O195 O 0.44221 0.27157 0.47183 0.0
Mg196 Mg 0.7417 0.16679 0.47836 0.0
O197 O 0.76066 0.15238 0.43677 0.0
O198 O 0.79141 0.17836 0.39755 0.0
Mg199 Mg 0.79247 0.20909 0.41706 0.0
C200 C 0.77844 0.15905 0.40654 0.0
C201 C 0.7111 0.13072 0.59767 0.0
O202 O 0.72245 0.14345 0.65254 0.0
O203 O 0.75922 0.17853 0.5944 0.0
O204 O 0.78918 0.20474 0.54985 0.0
O205 O 0.73249 0.16532 0.35359 0.0
O206 O 0.75894 0.19238 0.40831 0.0
C207 C 0.77722 0.19398 0.60616 0.0
C208 C 0.74875 0.18349 0.34672 0.0
O209 O 0.71647 0.13563 0.52657 0.0
Mg210 Mg 0.91261 0.50652 0.69377 0.0
O211 O 0.94744 0.52002 0.7069 0.0
O212 O 0.95202 0.49398 0.74755 0.0
Mg213 Mg 0.92071 0.46475 0.76437 0.0
C214 C 0.95906 0.513 0.72831 0.0
C215 C 0.92247 0.55156 0.658 0.0
O216 O 0.92775 0.5531 0.73184 0.0
O217 O 0.91096 0.48856 0.58326 0.0
O218 O 0.91468 0.46279 0.63242 0.0
O219 O 0.91251 0.51569 0.81728 0.0
O220 O 0.90798 0.48524 0.78175 0.0
C221 C 0.91153 0.47188 0.57477 0.0
C222 C 0.91104 0.49818 0.83633 0.0
O223 O 0.91713 0.53469 0.62308 0.0
Mg224 Mg 0.49636 0.40867 0.58964 0.0
O225 O 0.48997 0.43226 0.64796 0.0
O226 O 0.46784 0.43374 0.56435 0.0
Mg227 Mg 0.46981 0.42166 0.44251 0.0
C228 C 0.47678 0.43758 0.63072 0.0
C229 C 0.50206 0.40067 0.77816 0.0
O230 O 0.50012 0.38704 0.832 0.0
O231 O 0.46256 0.38504 0.5995 0.0
O232 O 0.44878 0.38803 0.48808 0.0
O233 O 0.52748 0.43173 0.53571 0.0
O234 O 0.49787 0.42217 0.48086 0.0
C235 C 0.44783 0.37817 0.55117 0.0
C236 C 0.5175 0.43254 0.47545 0.0
O237 O 0.49928 0.39521 0.70706 0.0
Mg238 Mg 0.59126 0.09485 0.67398 0.0
O239 O 0.56861 0.05984 0.69773 0.0
O240 O 0.53902 0.05738 0.73486 0.0
Mg241 Mg 0.54191 0.08924 0.73189 0.0
C242 C 0.5499 0.04912 0.72065 0.0
C243 C 0.6251 0.08345 0.66861 0.0
O244 O 0.61782 0.07738 0.73993 0.0
O245 O 0.57599 0.09394 0.55579 0.0
O246 O 0.54655 0.0908 0.59977 0.0
O247 O 0.59864 0.09797 0.80187 0.0
O248 O 0.57482 0.10286 0.74704 0.0
C249 C 0.5585 0.09234 0.54393 0.0
C250 C 0.58354 0.10135 0.8091 0.0
O251 O 0.61535 0.08867 0.62161 0.0
Mg252 Mg 0.49132 0.0799 0.11064 0.0
O253 O 0.51116 0.0883 0.21902 0.0
O254 O 0.53925 0.11933 0.20401 0.0
Mg255 Mg 0.5365 0.13141 0.08255 0.0
C256 C 0.52824 0.10274 0.24417 0.0
C257 C 0.45747 0.03536 0.15559 0.0
O258 O 0.46188 0.03286 0.08365 0.0
O259 O 0.47967 0.10179 0.13885 0.0
O260 O 0.5074 0.13269 0.11343 0.0
O261 O 0.50955 0.06673 0.062 0.0
O262 O 0.51706 0.09919 0.04329 0.0
C263 C 0.48839 0.1215 0.13175 0.0
C264 C 0.522 0.08518 0.0343 0.0
O265 O 0.46614 0.05355 0.18246 0.0
Mg266 Mg 0.92949 0.42878 0.1338 0.0
O267 O 0.916 0.43246 0.24792 0.0
O268 O 0.88679 0.43192 0.22175 0.0
Mg269 Mg 0.88051 0.42586 0.09041 0.0
C270 C 0.90076 0.43418 0.2694 0.0
C271 C 0.97076 0.43221 0.17865 0.0
O272 O 0.97435 0.43884 0.1055 0.0
O273 O 0.907 0.39358 0.12494 0.0
O274 O 0.8793 0.3948 0.08856 0.0
O275 O 0.94464 0.46323 0.11453 0.0
O276 O 0.91376 0.44064 0.07184 0.0
C277 C 0.88856 0.3847 0.09985 0.0
C278 C 0.92783 0.45964 0.08093 0.0
O279 O 0.95279 0.42514 0.2065 0.0
Mg280 Mg 0.57083 0.50221 0.03445 0.0
O281 O 0.55681 0.48034 0.13967 0.0
O282 O 0.55779 0.45144 0.12371 0.0
Mg283 Mg 0.5697 0.45388 0.99635 0.0
C284 C 0.55349 0.46283 0.1651 0.0
C285 C 0.56418 0.53655 0.11456 0.0
O286 O 0.5551 0.5365 0.04899 0.0
O287 O 0.60333 0.50924 0.06295 0.0
O288 O 0.60192 0.47984 0.02807 0.0
O289 O 0.53963 0.48755 0.97711 0.0
O290 O 0.56269 0.47816 0.95744 0.0
C291 C 0.61198 0.49853 0.05137 0.0
C292 C 0.54498 0.4757 0.94223 0.0
O293 O 0.57296 0.52593 0.12021 0.0
Mg294 Mg 0.39845 0.16425 0.14406 0.0
O295 O 0.40968 0.18671 0.03902 0.0
O296 O 0.43898 0.2154 0.06622 0.0
Mg297 Mg 0.44697 0.21023 0.19253 0.0
C298 C 0.42443 0.20454 0.01938 0.0
C299 C 0.36197 0.1228 0.06335 0.0
O300 O 0.35708 0.1137 0.13273 0.0
O301 O 0.42225 0.15471 0.12119 0.0
O302 O 0.45117 0.18288 0.15836 0.0
O303 O 0.38342 0.18104 0.19716 0.0
O304 O 0.41469 0.18749 0.22409 0.0
C305 C 0.44152 0.16418 0.13461 0.0
C306 C 0.40028 0.19146 0.23577 0.0
O307 O 0.37654 0.14143 0.0564 0.0
Mg308 Mg 0.8415 0.25278 0.03819 0.0
O309 O 0.82297 0.24093 0.92591 0.0
O310 O 0.7951 0.24383 0.93439 0.0
Mg311 Mg 0.79678 0.25959 0.05031 0.0
C312 C 0.806 0.23791 0.89853 0.0
C313 C 0.87421 0.2403 -0.00085 0.0
O314 O 0.86838 0.23143 0.06875 0.0
O315 O 0.85504 0.28724 0.00849 0.0
O316 O 0.82701 0.28975 0.02561 0.0
O317 O 0.82109 0.22117 0.09252 0.0
O318 O 0.81558 0.24739 0.0997 0.0
C319 C 0.84626 0.29803 0.01258 0.0
C320 C 0.80958 0.22837 0.11579 0.0
O321 O 0.8669 0.25124 0.97355 0.0
Mg322 Mg 0.74463 0.58229 0.08979 0.0
O323 O 0.75763 0.57542 0.98175 0.0
O324 O 0.75621 0.54503 0.99695 0.0
Mg325 Mg 0.74024 0.5315 0.11514 0.0
C326 C 0.76142 0.56164 0.95762 0.0
C327 C 0.75192 0.6264 0.0455 0.0
O328 O 0.75763 0.62973 0.11896 0.0
O329 O 0.71161 0.55968 0.05686 0.0
O330 O 0.70977 0.52931 0.08035 0.0
O331 O 0.77568 0.59597 0.14295 0.0
O332 O 0.75128 0.56316 0.15733 0.0
C333 C 0.70136 0.53989 0.0614 0.0
C334 C 0.76989 0.57747 0.16974 0.0
O335 O 0.74501 0.60834 0.01881 0.0
Mg336 Mg 0.51566 0.91919 0.84426 0.0
O337 O 0.52251 0.95274 0.81516 0.0
O338 O 0.49255 0.9486 0.77473 0.0
Mg339 Mg 0.46705 0.91489 0.78389 0.0
C340 C 0.51167 0.96018 0.788 0.0
C341 C 0.54807 0.91921 0.95224 0.0
O342 O 0.53102 0.90707 0.99132 0.0
O343 O 0.50001 0.91858 0.96178 0.0
O344 O 0.47092 0.9158 0.91593 0.0
O345 O 0.52069 0.91609 0.71675 0.0
O346 O 0.49071 0.90676 0.77241 0.0
C347 C 0.48251 0.91712 0.97249 0.0
C348 C 0.50127 0.90939 0.71015 0.0
O349 O 0.54741 0.92968 0.89414 0.0
Mg350 Mg 0.0862 0.59256 0.87805 0.0
O351 O 0.05302 0.56919 0.85253 0.0
O352 O 0.03446 0.56794 0.95611 0.0
Mg353 Mg 0.05703 0.58503 0.05599 0.0
C354 C 0.03582 0.56299 0.88615 0.0
C355 C 0.10651 0.59392 0.72433 0.0
O356 O 0.12045 0.59653 0.77608 0.0
O357 O 0.07902 0.61845 0.87654 0.0
O358 O 0.06576 0.61639 0.99553 0.0
O359 O 0.09262 0.56788 0.91558 0.0
O360 O 0.08274 0.58412 0.99627 0.0
C361 C 0.07262 0.62571 0.9295 0.0
C362 C 0.08793 0.57029 0.98596 0.0
O363 O 0.09096 0.59463 0.74763 0.0
Mg364 Mg 0.4089 0.48055 0.90955 0.0
O365 O 0.43175 0.47051 0.86869 0.0
O366 O 0.46079 0.49921 0.83192 0.0
Mg367 Mg 0.4573 0.52731 0.85435 0.0
C368 C 0.44996 0.47953 0.83989 0.0
C369 C 0.37732 0.43384 0.90659 0.0
O370 O 0.38487 0.43723 0.8351 0.0
O371 O 0.42476 0.49277 0.02781 0.0
O372 O 0.45356 0.52112 0.98598 0.0
O373 O 0.40016 0.47887 0.78401 0.0
O374 O 0.42408 0.50717 0.84189 0.0
C375 C 0.44201 0.50911 0.04085 0.0
C376 C 0.41496 0.49793 0.77905 0.0
O377 O 0.38618 0.44812 0.9564 0.0
Mg378 Mg 0.59376 0.83935 0.97846 0.0
O379 O 0.62848 0.85477 0.00658 0.0
O380 O 0.63441 0.82894 0.03527 0.0
Mg381 Mg 0.60518 0.79776 0.02015 0.0
C382 C 0.64048 0.84824 0.02888 0.0
C383 C 0.59905 0.88305 0.9892 0.0
O384 O 0.60443 0.88034 0.05948 0.0
O385 O 0.59701 0.82885 0.85511 0.0
O386 O 0.60302 0.80341 0.89033 0.0
O387 O 0.58859 0.8393 0.10754 0.0
O388 O 0.58806 0.81345 0.04376 0.0
C389 C 0.6001 0.81399 0.83798 0.0
C390 C 0.58764 0.82154 0.10881 0.0
O391 O 0.5963 0.86996 0.93685 0.0
Mg392 Mg 0.1583 0.74867 0.92573 0.0
O393 O 0.1468 0.77124 0.93904 0.0
O394 O 0.12906 0.7692 0.83205 0.0
Mg395 Mg 0.1362 0.75122 0.74074 0.0
C396 C 0.13506 0.77575 0.90101 0.0
C397 C 0.17488 0.74745 0.08859 0.0
O398 O 0.18499 0.74107 0.04558 0.0
O399 O 0.12577 0.72159 0.93027 0.0
O400 O 0.11484 0.72059 0.80798 0.0
O401 O 0.18907 0.77342 0.88487 0.0
O402 O 0.16313 0.75465 0.80612 0.0
C403 C 0.1125 0.71268 0.87683 0.0
C404 C 0.18195 0.76919 0.81452 0.0
O405 O 0.16083 0.74945 0.05676 0.0
Mg406 Mg 0.2631 0.41251 0.95905 0.0
O407 O 0.23774 0.37921 0.99244 0.0
O408 O 0.21038 0.38098 0.03087 0.0
Mg409 Mg 0.21697 0.41413 0.01411 0.0
C410 C 0.21947 0.3707 0.02018 0.0
C411 C 0.29136 0.39397 0.96152 0.0
O412 O 0.28312 0.38892 0.0319 0.0
O413 O 0.24813 0.41151 0.84023 0.0
O414 O 0.22056 0.41256 0.8826 0.0
O415 O 0.27099 0.41705 0.08657 0.0
O416 O 0.24947 0.42464 0.02717 0.0
C417 C 0.23153 0.41176 0.8275 0.0
C418 C 0.25753 0.42287 0.09066 0.0
O419 O 0.28395 0.40126 0.91199 0.0
Mg420 Mg 0.16776 0.409 0.39515 0.0
O421 O 0.18704 0.41467 0.50385 0.0
O422 O 0.21676 0.44432 0.49262 0.0
Mg423 Mg 0.21597 0.45857 0.37356 0.0
C424 C 0.20456 0.4277 0.5305 0.0
C425 C 0.13315 0.36474 0.44918 0.0
O426 O 0.13882 0.35997 0.38375 0.0
O427 O 0.15855 0.43289 0.42546 0.0
O428 O 0.18827 0.4621 0.40209 0.0
O429 O 0.18462 0.3945 0.3414 0.0
O430 O 0.19406 0.42757 0.32914 0.0
C431 C 0.16914 0.45265 0.41899 0.0
C432 C 0.19773 0.41294 0.31523 0.0
O433 O 0.1413 0.3837 0.46673 0.0
Mg434 Mg 0.60151 0.74709 0.43003 0.0
O435 O 0.59495 0.76262 0.5298 0.0
O436 O 0.56623 0.76333 0.50957 0.0
Mg437 Mg 0.55366 0.7468 0.39243 0.0
C438 C 0.58214 0.76804 0.55015 0.0
C439 C 0.64368 0.75838 0.49785 0.0
O440 O 0.64914 0.76966 0.43302 0.0
O441 O 0.57666 0.71452 0.4658 0.0
O442 O 0.54822 0.71477 0.43166 0.0
O443 O 0.61763 0.77817 0.36911 0.0
O444 O 0.58485 0.75477 0.35526 0.0
C445 C 0.55728 0.70516 0.45546 0.0
C446 C 0.59989 0.77306 0.33995 0.0
O447 O 0.62476 0.74581 0.51049 0.0
Mg448 Mg 0.24938 0.83779 0.39374 0.0
O449 O 0.23587 0.81861 0.50506 0.0
O450 O 0.23718 0.78947 0.50007 0.0
Mg451 Mg 0.24999 0.78923 0.37812 0.0
C452 C 0.23255 0.80151 0.53527 0.0
C453 C 0.23876 0.87111 0.43958 0.0
O454 O 0.22913 0.86489 0.37273 0.0
O455 O 0.28263 0.8472 0.4232 0.0
O456 O 0.2816 0.81733 0.40092 0.0
O457 O 0.2179 0.8209 0.34291 0.0
O458 O 0.24072 0.81092 0.3313 0.0
C459 C 0.29159 0.83662 0.41629 0.0
C460 C 0.22245 0.80735 0.31883 0.0
O461 O 0.25043 0.86434 0.46107 0.0
Mg462 Mg 0.08622 0.50279 0.41527 0.0
O463 O 0.09064 0.52024 0.2996 0.0
O464 O 0.12223 0.5478 0.2941 0.0
Mg465 Mg 0.13706 0.54967 0.41308 0.0
C466 C 0.1047 0.53621 0.26394 0.0
C467 C 0.0407 0.46809 0.38417 0.0
O468 O 0.03797 0.47471 0.45135 0.0
O469 O 0.10798 0.49083 0.38395 0.0
O470 O 0.13805 0.51996 0.39779 0.0
O471 O 0.07436 0.52203 0.46804 0.0
O472 O 0.10679 0.53032 0.47042 0.0
C473 C 0.12758 0.50042 0.38787 0.0
C474 C 0.0931 0.535 0.48771 0.0
O475 O 0.05886 0.47556 0.35781 0.0
Mg476 Mg 0.50618 0.57071 0.46866 0.0
O477 O 0.48709 0.55717 0.36011 0.0
O478 O 0.45891 0.55948 0.36455 0.0
Mg479 Mg 0.46036 0.57536 0.48098 0.0
C480 C 0.47018 0.55366 0.33076 0.0
C481 C 0.53276 0.5549 0.39049 0.0
O482 O 0.52018 0.53825 0.43184 0.0
O483 O 0.51732 0.6041 0.43364 0.0
O484 O 0.48949 0.60672 0.45301 0.0
O485 O 0.48759 0.53934 0.52616 0.0
O486 O 0.48023 0.56437 0.53178 0.0
C487 C 0.50866 0.61496 0.43797 0.0
C488 C 0.4753 0.54564 0.54891 0.0
O489 O 0.53209 0.57137 0.39924 0.0
Mg490 Mg 0.42457 0.92214 0.40996 0.0
O491 O 0.43655 0.91552 0.29853 0.0
O492 O 0.43548 0.88527 0.30913 0.0
Mg493 Mg 0.42121 0.87172 0.42984 0.0
C494 C 0.4401 0.9019 0.27098 0.0
C495 C 0.42702 0.96485 0.36873 0.0
O496 O 0.42963 0.96762 0.44447 0.0
O497 O 0.39099 0.8992 0.38377 0.0
O498 O 0.39011 0.86926 0.40593 0.0
O499 O 0.45629 0.93614 0.45799 0.0
O500 O 0.43234 0.90326 0.47417 0.0
C501 C 0.38105 0.87944 0.39088 0.0
C502 C 0.45097 0.91775 0.48462 0.0
O503 O 0.42386 0.94788 0.34061 0.0
C504 C 0.24885 0.22931 0.10948 0.0
C505 C 0.2554 0.22584 0.18213 0.0
C506 C 0.23919 0.24109 0.10346 0.0
C507 C 0.23524 0.24935 0.17032 0.0
H508 H 0.25005 0.22179 0.05769 0.0
H509 H 0.23319 0.24212 0.04706 0.0
S510 S 0.25224 0.24762 0.37209 0.0
N511 N 0.25986 0.23416 0.32065 0.0
N512 N 0.24101 0.25567 0.30932 0.0
C513 C 0.2433 0.24757 0.24203 0.0
C514 C 0.25358 0.23597 0.24795 0.0
C515 C 0.75013 0.00422 0.2046 0.0
C516 C 0.75895 0.01905 0.26363 0.0
C517 C 0.74017 0.98299 0.22285 0.0
C518 C 0.73834 0.97585 0.30072 0.0
H519 H 0.75267 0.00894 0.14344 0.0
H520 H 0.7354 0.97214 0.17525 0.0
S521 S 0.75419 0.0082 0.4776 0.0
N522 N 0.76182 0.02507 0.40375 0.0
N523 N 0.74281 0.98504 0.43793 0.0
C524 C 0.74458 0.99037 0.36074 0.0
C525 C 0.755 0.01205 0.34217 0.0
C526 C 0.97985 0.75157 0.23793 0.0
C527 C 0.97333 0.74663 0.31641 0.0
C528 C 0.00072 0.7636 0.21831 0.0
C529 C 0.01588 0.77144 0.27655 0.0
H530 H 0.96871 0.7473 0.1916 0.0
H531 H 0.00478 0.76814 0.15748 0.0
S532 S 0.00728 0.75911 0.489 0.0
N533 N 0.98402 0.74741 0.4515 0.0
N534 N 0.0232 0.77042 0.41436 0.0
C535 C 0.00974 0.76477 0.35427 0.0
C536 C 0.98847 0.75224 0.37427 0.0
C537 C 0.81779 0.81579 0.80725 0.0
C538 C 0.80708 0.79396 0.80819 0.0
C539 C 0.80745 0.82691 0.80676 0.0
C540 C 0.78585 0.81677 0.80701 0.0
H541 H 0.83443 0.82452 0.80667 0.0
H542 H 0.81658 0.84368 0.80658 0.0
S543 S 0.75035 0.75972 0.8088 0.0
N544 N 0.77348 0.76251 0.80874 0.0
N545 N 0.75401 0.78345 0.80816 0.0
C546 C 0.77486 0.79491 0.80759 0.0
C547 C 0.78544 0.78352 0.80841 0.0
C548 C 0.18778 0.01138 0.71708 0.0
C549 C 0.20869 0.0205 0.73638 0.0
C550 C 0.17633 0.99073 0.69413 0.0
C551 C 0.18509 0.97802 0.68969 0.0
H552 H 0.18008 0.02027 0.71892 0.0
H553 H 0.16025 0.98459 0.68108 0.0
S554 S 0.2393 0.99414 0.73353 0.0
N555 N 0.23783 0.01513 0.74852 0.0
N556 N 0.21615 0.97615 0.70635 0.0
C557 C 0.20605 0.98689 0.70812 0.0
C558 C 0.21781 0.00807 0.73158 0.0
C559 C 0.00935 0.18056 0.71947 0.0
C560 C 0.02072 0.20239 0.71799 0.0
C561 C 0.98815 0.16969 0.73278 0.0
C562 C 0.97721 0.18008 0.74517 0.0
H563 H 0.01693 0.17166 0.71172 0.0
H564 H 0.98031 0.15289 0.73319 0.0
S565 S 0.99955 0.23728 0.74505 0.0
N566 N 0.01935 0.23413 0.72882 0.0
N567 N 0.9794 0.21368 0.75315 0.0
C568 C 0.9883 0.20196 0.74277 0.0
C569 C 0.01001 0.21309 0.72895 0.0
C570 C 0.90044 0.58689 0.64162 0.0
C571 C 0.89685 0.58694 0.5609 0.0
C572 C 0.91061 0.57703 0.67216 0.0
C573 C 0.91724 0.56655 0.62316 0.0
H574 H 0.89421 0.59336 0.6821 0.0
H575 H 0.91176 0.57622 0.73514 0.0
S576 S 0.91526 0.56554 0.40658 0.0
N577 N 0.90375 0.57846 0.43143 0.0
N578 N 0.92237 0.5595 0.48948 0.0
C579 C 0.91553 0.56819 0.54193 0.0
C580 C 0.90549 0.57854 0.51059 0.0
C581 C 0.41556 0.32715 0.65632 0.0
C582 C 0.41127 0.31304 0.59583 0.0
C583 C 0.42559 0.34853 0.64039 0.0
C584 C 0.43126 0.35644 0.56342 0.0
H585 H 0.41303 0.32186 0.71687 0.0
H586 H 0.4304 0.35901 0.6892 0.0
S587 S 0.41926 0.32552 0.38336 0.0
N588 N 0.41035 0.30809 0.45543 0.0
N589 N 0.42883 0.3483 0.42527 0.0
C590 C 0.42471 0.34234 0.5018 0.0
C591 C 0.41482 0.32059 0.51812 0.0
C592 C 0.67505 0.10686 0.55565 0.0
C593 C 0.68976 0.11401 0.61559 0.0
C594 C 0.65401 0.09531 0.57286 0.0
C595 C 0.64684 0.09018 0.65052 0.0
H596 H 0.67965 0.11148 0.49524 0.0
H597 H 0.64329 0.09151 0.52524 0.0
S598 S 0.6792 0.10106 0.82712 0.0
N599 N 0.69581 0.11222 0.75433 0.0
N600 N 0.65628 0.09016 0.7869 0.0
C601 C 0.66143 0.09517 0.71018 0.0
C602 C 0.68289 0.1072 0.69266 0.0
C603 C 0.48566 0.15349 0.13728 0.0
C604 C 0.47583 0.13169 0.13611 0.0
C605 C 0.47445 0.16375 0.13478 0.0
C606 C 0.45288 0.15274 0.13053 0.0
H607 H 0.50223 0.16282 0.13984 0.0
H608 H 0.48288 0.18054 0.13638 0.0
S609 S 0.41953 0.09539 0.12577 0.0
N610 N 0.44307 0.09934 0.13031 0.0
N611 N 0.42203 0.11865 0.12563 0.0
C612 C 0.44278 0.13091 0.12912 0.0
C613 C 0.45422 0.1204 0.1322 0.0
C614 C 0.87749 0.3297 0.06146 0.0
C615 C 0.85882 0.32084 0.02057 0.0
C616 C 0.88703 0.35029 0.08723 0.0
C617 C 0.87825 0.36278 0.07325 0.0
H618 H 0.88423 0.32035 0.07738 0.0
H619 H 0.90115 0.35627 0.11979 0.0
S620 S 0.83071 0.34743 0.95937 0.0
N621 N 0.83293 0.32657 0.96088 0.0
N622 N 0.85053 0.365 0.00852 0.0
C623 C 0.86005 0.35428 0.02878 0.0
C624 C 0.85047 0.33343 0.00255 0.0
C625 C 0.64688 0.53038 0.05833 0.0
C626 C 0.63468 0.5086 0.0569 0.0
C627 C 0.66838 0.54035 0.05687 0.0
C628 C 0.67863 0.529 0.05442 0.0
H629 H 0.63983 0.53989 0.05953 0.0
H630 H 0.67698 0.55715 0.05902 0.0
S631 S 0.65387 0.47156 0.04979 0.0
N632 N 0.63455 0.47595 0.05309 0.0
N633 N 0.67481 0.49465 0.04983 0.0
C634 C 0.66662 0.50719 0.05272 0.0
C635 C 0.64473 0.49704 0.05423 0.0
C636 C 0.56992 0.91059 0.03536 0.0
C637 C 0.56545 0.91544 0.96096 0.0
C638 C 0.58242 0.90181 0.04412 0.0
C639 C 0.59045 0.89696 0.97859 0.0
H640 H 0.56281 0.91259 0.08703 0.0
H641 H 0.58448 0.89739 0.10259 0.0
S642 S 0.58518 0.90874 0.77126 0.0
N643 N 0.57177 0.91677 0.82079 0.0
N644 N 0.59474 0.89964 0.83724 0.0
C645 C 0.58723 0.90302 0.90414 0.0
C646 C 0.57487 0.91243 0.89533 0.0
C647 C 0.08003 0.65558 0.84098 0.0
C648 C 0.07649 0.64709 0.91739 0.0
C649 C 0.08967 0.67704 0.82789 0.0
C650 C 0.09636 0.69078 0.89082 0.0
H651 H 0.07671 0.64573 0.79084 0.0
H652 H 0.09359 0.68287 0.76817 0.0
S653 S 0.08614 0.67623 0.10142 0.0
N654 N 0.07683 0.65389 0.05642 0.0
N655 N 0.09517 0.69428 0.03161 0.0
C656 C 0.09063 0.68238 0.96708 0.0
C657 C 0.08061 0.66049 0.98045 0.0
C658 C 0.32054 0.40189 0.87135 0.0
C659 C 0.31239 0.39771 0.94786 0.0
C660 C 0.34174 0.41158 0.85789 0.0
C661 C 0.35558 0.41774 0.92058 0.0
H662 H 0.31061 0.39908 0.82165 0.0
H663 H 0.34731 0.41594 0.79823 0.0
S664 S 0.34194 0.40595 0.1308 0.0
N665 N 0.31968 0.39689 0.08642 0.0
N666 N 0.35956 0.41563 0.06073 0.0
C667 C 0.34754 0.41151 0.99665 0.0
C668 C 0.32591 0.40131 0.01041 0.0
C669 C 0.12739 0.4666 0.39432 0.0
C670 C 0.13849 0.48846 0.39285 0.0
C671 C 0.13722 0.45508 0.40657 0.0
C672 C 0.15859 0.46493 0.41797 0.0
H673 H 0.11091 0.45824 0.38643 0.0
H674 H 0.12803 0.43833 0.40524 0.0
S675 S 0.19479 0.52182 0.42266 0.0
N676 N 0.17224 0.51947 0.40536 0.0
N677 N 0.19043 0.4979 0.42987 0.0
C678 C 0.16983 0.48677 0.41797 0.0
C679 C 0.1599 0.49849 0.40483 0.0
C680 C 0.51224 0.65016 0.44123 0.0
C681 C 0.52162 0.63798 0.4385 0.0
C682 C 0.52381 0.67168 0.45028 0.0
C683 C 0.54532 0.68208 0.45739 0.0
H684 H 0.49573 0.64302 0.43677 0.0
H685 H 0.51575 0.68025 0.45078 0.0
S686 S 0.57756 0.65747 0.45509 0.0
N687 N 0.5539 0.63802 0.4445 0.0
N688 N 0.57558 0.6784 0.46163 0.0
C689 C 0.55494 0.6701 0.45555 0.0
C690 C 0.54315 0.64814 0.44572 0.0
C691 C 0.34765 0.87927 0.39656 0.0
C692 C 0.35817 0.86817 0.39326 0.0
C693 C 0.32626 0.86907 0.40719 0.0
C694 C 0.31443 0.84731 0.41488 0.0
H695 H 0.35599 0.89605 0.39192 0.0
H696 H 0.31895 0.87835 0.40802 0.0
S697 S 0.33441 0.81086 0.41097 0.0
N698 N 0.35492 0.83402 0.39835 0.0
N699 N 0.31501 0.81498 0.41958 0.0
C700 C 0.32477 0.83601 0.41214 0.0
C701 C 0.3465 0.84637 0.40084 0.0
C702 C 0.14432 0.2552 0.88231 0.0
C703 C 0.12283 0.24259 0.87874 0.0
C704 C 0.15574 0.25021 0.93385 0.0
C705 C 0.14591 0.23254 0.98306 0.0
H706 H 0.15226 0.26936 0.84741 0.0
H707 H 0.17204 0.26104 0.93946 0.0
S708 S 0.09043 0.19386 0.99351 0.0
N709 N 0.09245 0.21113 0.92736 0.0
N710 N 0.11408 0.2018 0.02198 0.0
C711 C 0.12473 0.21923 0.97665 0.0
C712 C 0.11311 0.22428 0.92513 0.0
C713 C 0.76952 0.90221 0.07725 0.0
C714 C 0.76119 0.9152 0.07148 0.0
C715 C 0.76185 0.88439 0.03225 0.0
C716 C 0.7455 0.87886 0.98008 0.0
H717 H 0.78296 0.90662 0.11269 0.0
H718 H 0.76934 0.87528 0.03633 0.0
S719 S 0.71674 0.90656 0.95184 0.0
N720 N 0.73474 0.9207 0.01545 0.0
N721 N 0.71985 0.88674 0.93178 0.0
C722 C 0.73604 0.89093 0.97822 0.0
C723 C 0.74407 0.90928 0.0236 0.0
C724 C 0.08729 0.83983 0.8804 0.0
C725 C 0.07984 0.85008 0.92635 0.0
C726 C 0.10342 0.85098 0.82661 0.0
C727 C 0.11246 0.87264 0.8176 0.0
H728 H 0.08198 0.82355 0.89115 0.0
H729 H 0.10959 0.84279 0.79547 0.0
S730 S 0.09641 0.90586 0.9202 0.0
N731 N 0.08084 0.8822 0.95457 0.0
N732 N 0.11138 0.90344 0.85621 0.0
C733 C 0.10388 0.88263 0.85948 0.0
C734 C 0.08742 0.87123 0.91306 0.0
C735 C 0.2404 0.12364 0.59625 0.0
C736 C 0.25949 0.13049 0.63239 0.0
C737 C 0.23788 0.13583 0.53998 0.0
C738 C 0.25421 0.15542 0.51878 0.0
H739 H 0.22767 0.10807 0.60616 0.0
H740 H 0.22358 0.12917 0.50815 0.0
S741 S 0.30607 0.18232 0.6053 0.0
N742 N 0.29419 0.15942 0.65037 0.0
N743 N 0.28917 0.18255 0.54447 0.0
C744 C 0.27267 0.1635 0.56 0.0
C745 C 0.27539 0.15094 0.61699 0.0
C746 C 0.86399 0.08801 0.54207 0.0
C747 C 0.84474 0.0847 0.51929 0.0
C748 C 0.87594 0.10348 0.59501 0.0
C749 C 0.86896 0.11599 0.62814 0.0
H750 H 0.87073 0.07993 0.51385 0.0
H751 H 0.8913 0.10645 0.6055 0.0
S752 S 0.81749 0.11001 0.60111 0.0
N753 N 0.81766 0.09259 0.54336 0.0
N754 N 0.84007 0.12156 0.64417 0.0
C755 C 0.84878 0.11122 0.61254 0.0
C756 C 0.83665 0.09554 0.55795 0.0
C757 C 0.88118 0.76865 0.62682 0.0
C758 C 0.86911 0.74893 0.66232 0.0
C759 C 0.89687 0.77259 0.57411 0.0
C760 C 0.90123 0.75704 0.55533 0.0
H761 H 0.87768 0.78085 0.63514 0.0
H762 H 0.90461 0.78743 0.54325 0.0
S763 S 0.87585 0.70345 0.63668 0.0
N764 N 0.86391 0.71413 0.67952 0.0
N765 N 0.89363 0.72175 0.57946 0.0
C766 C 0.89053 0.73777 0.59447 0.0
C767 C 0.87436 0.73364 0.64818 0.0
C768 C 0.85288 0.74878 0.04715 0.0
C769 C 0.86674 0.76151 0.98824 0.0
C770 C 0.85979 0.74563 0.11906 0.0
C771 C 0.88088 0.75477 0.13484 0.0
H772 H 0.83647 0.74141 0.03826 0.0
H773 H 0.84846 0.73606 0.16311 0.0
S774 S 0.92361 0.78851 -0.00102 0.0
N775 N 0.90266 0.78275 0.94939 0.0
N776 N 0.91564 0.77658 0.0849 0.0
C777 C 0.89498 0.76705 0.07585 0.0
C778 C 0.88792 0.77055 0.00264 0.0
C779 C 0.24167 0.12496 0.98118 0.0
C780 C 0.24977 0.11214 0.96289 0.0
C781 C 0.24735 0.13673 0.04962 0.0
C782 C 0.26114 0.13593 0.10289 0.0
H783 H 0.23099 0.12609 0.94199 0.0
H784 H 0.24032 0.14594 0.06217 0.0
S785 S 0.28729 0.10545 0.0819 0.0
N786 N 0.27284 0.09993 0.00342 0.0
N787 N 0.28325 0.12181 0.13176 0.0
C788 C 0.26957 0.12344 0.08486 0.0
C789 C 0.26395 0.11161 0.01509 0.0
C790 C 0.87333 0.1237 0.08037 0.0
C791 C 0.85666 0.1032 0.083 0.0
C792 C 0.88631 0.13156 0.01439 0.0
C793 C 0.88354 0.11896 0.94987 0.0
H794 H 0.87623 0.13382 0.12935 0.0
H795 H 0.89863 0.14759 0.0139 0.0
S796 S 0.84239 0.06409 0.92815 0.0
N797 N 0.83811 0.07048 0.01522 0.0
N798 N 0.86282 0.08502 0.89252 0.0
C799 C 0.86711 0.09835 0.95228 0.0
C800 C 0.85358 0.09054 0.01845 0.0
C801 C 0.77264 0.89524 0.49735 0.0
C802 C 0.75384 0.89218 0.46858 0.0
C803 C 0.77406 0.88815 0.57255 0.0
C804 C 0.75664 0.87723 0.62123 0.0
H805 H 0.78655 0.90393 0.46268 0.0
H806 H 0.78894 0.89124 0.59264 0.0
S807 S 0.70351 0.86396 0.57105 0.0
N808 N 0.71734 0.87696 0.49341 0.0
N809 N 0.71974 0.86298 0.6333 0.0
C810 C 0.7376 0.87343 0.59184 0.0
C811 C 0.73627 0.88109 0.51602 0.0
C812 C 0.12753 0.8753 0.35528 0.0
C813 C 0.10637 0.86319 0.34031 0.0
C814 C 0.13474 0.88616 0.42506 0.0
C815 C 0.12109 0.88576 0.48198 0.0
H816 H 0.13867 0.87672 0.31192 0.0
H817 H 0.15117 0.89531 0.43368 0.0
S818 S 0.06417 0.85551 0.47333 0.0
N819 N 0.07181 0.85065 0.38986 0.0
N820 N 0.08533 0.87131 0.52074 0.0
C821 C 0.09986 0.87333 0.46868 0.0
C822 C 0.09251 0.86193 0.39808 0.0
C823 C 0.12344 0.22337 0.52125 0.0
C824 C 0.11693 0.23727 0.54379 0.0
C825 C 0.13482 0.22666 0.45199 0.0
C826 C 0.14002 0.24389 0.40284 0.0
H827 H 0.11934 0.2096 0.55633 0.0
H828 H 0.13851 0.21502 0.43456 0.0
S829 S 0.1287 0.28594 0.43702 0.0
N830 N 0.1182 0.26992 0.51271 0.0
N831 N 0.13921 0.27563 0.38274 0.0
C832 C 0.1345 0.25833 0.42605 0.0
C833 C 0.12307 0.25515 0.49642 0.0
C834 C 0.81772 0.5851 0.27203 0.0
C835 C 0.80983 0.56724 0.32003 0.0
C836 C 0.80492 0.58786 0.21977 0.0
C837 C 0.78393 0.57285 0.21439 0.0
H838 H 0.83328 0.59777 0.27993 0.0
H839 H 0.81126 0.60234 0.18682 0.0
S840 S 0.75689 0.52233 0.3229 0.0
N841 N 0.78076 0.53354 0.35395 0.0
N842 N 0.75649 0.53868 0.25792 0.0
C843 C 0.77641 0.55422 0.25819 0.0
C844 C 0.78948 0.55143 0.31041 0.0
C845 C 0.40464 0.22631 0.25865 0.0
C846 C 0.40417 0.20847 0.28828 0.0
C847 C 0.41462 0.24494 0.29984 0.0
C848 C 0.42398 0.2461 0.37244 0.0
H849 H 0.39901 0.2264 0.20043 0.0
H850 H 0.41632 0.25888 0.27211 0.0
S851 S 0.42402 0.2027 0.47967 0.0
N852 N 0.41188 0.1924 0.39749 0.0
N853 N 0.42997 0.22723 0.47587 0.0
C854 C 0.42171 0.22782 0.40597 0.0
C855 C 0.412 0.20903 0.36338 0.0
C856 C 0.78224 0.19419 0.17171 0.0
C857 C 0.79054 0.21573 0.16193 0.0
C858 C 0.76628 0.18273 0.22578 0.0
C859 C 0.75829 0.19256 0.27122 0.0
H860 H 0.78885 0.18636 0.14084 0.0
H861 H 0.76151 0.16659 0.23706 0.0
S862 S 0.77299 0.24783 0.26355 0.0
N863 N 0.78821 0.24593 0.19921 0.0
N864 N 0.75817 0.22413 0.29907 0.0
C865 C 0.76523 0.21357 0.25766 0.0
C866 C 0.78144 0.22526 0.20343 0.0
C867 C 0.93693 0.49857 0.92557 0.0
C868 C 0.91691 0.49475 0.91415 0.0
C869 C 0.94138 0.48928 0.98826 0.0
C870 C 0.92587 0.47612 0.04125 0.0
H871 H 0.94881 0.50742 0.88282 0.0
H872 H 0.95635 0.49062 0.9901 0.0
S873 S 0.87316 0.4677 0.05208 0.0
N874 N 0.88288 0.48122 0.96998 0.0
N875 N 0.89159 0.46484 0.0914 0.0
C876 C 0.90679 0.47512 0.03753 0.0
C877 C 0.90216 0.48418 0.97269 0.0
C878 C 0.54041 0.4555 0.82277 0.0
C879 C 0.53149 0.45917 0.88843 0.0
C880 C 0.52955 0.43738 0.77957 0.0
C881 C 0.5096 0.42215 0.80191 0.0
H882 H 0.55633 0.46617 0.80738 0.0
H883 H 0.53752 0.4344 0.73337 0.0
S884 S 0.4782 0.42582 0.96064 0.0
N885 N 0.50056 0.44755 0.96633 0.0
N886 N 0.48035 0.41293 0.88704 0.0
C887 C 0.49989 0.42643 0.86299 0.0
C888 C 0.51079 0.44514 0.90587 0.0
C889 C 0.5684 0.11434 0.90279 0.0
C890 C 0.57325 0.09915 0.88387 0.0
C891 C 0.55267 0.11003 0.95599 0.0
C892 C 0.54101 0.09023 0.99131 0.0
H893 H 0.57578 0.12917 0.8718 0.0
H894 H 0.54878 0.12195 0.9648 0.0
S895 S 0.54926 0.04569 0.96569 0.0
N896 N 0.56669 0.06422 0.90819 0.0
N897 N 0.53683 0.05584 0.00864 0.0
C898 C 0.54679 0.07534 0.9771 0.0
C899 C 0.56304 0.07989 0.9232 0.0
C900 C 0.55677 0.1122 0.34033 0.0
C901 C 0.53599 0.0994 0.31988 0.0
C902 C 0.56446 0.10906 0.41095 0.0
C903 C 0.55159 0.09317 0.46391 0.0
H904 H 0.5672 0.12482 0.30175 0.0
H905 H 0.58033 0.11966 0.42563 0.0
S906 S 0.49653 0.0545 0.4373 0.0
N907 N 0.50303 0.06943 0.35793 0.0
N908 N 0.51753 0.06387 0.49021 0.0
C909 C 0.53102 0.07996 0.44352 0.0
C910 C 0.5232 0.08298 0.3717 0.0
C911 C 0.91191 0.43868 0.40901 0.0
C912 C 0.90127 0.4422 0.34883 0.0
C913 C 0.91502 0.44828 0.48155 0.0
C914 C 0.90799 0.46216 0.49668 0.0
H915 H 0.91814 0.42861 0.39968 0.0
H916 H 0.92339 0.44506 0.52566 0.0
S917 S 0.87914 0.47667 0.35876 0.0
N918 N 0.88345 0.46039 0.30948 0.0
N919 N 0.88952 0.47861 0.44548 0.0
C920 C 0.89717 0.46571 0.43724 0.0
C921 C 0.89371 0.45566 0.36361 0.0
C922 C 0.54242 0.43772 0.36897 0.0
C923 C 0.52794 0.44233 0.40009 0.0
C924 C 0.55041 0.44413 0.29268 0.0
C925 C 0.54465 0.45591 0.24535 0.0
H926 H 0.54702 0.42837 0.40274 0.0
H927 H 0.56125 0.43991 0.27079 0.0
S928 S 0.5081 0.47313 0.30154 0.0
N929 N 0.50849 0.4597 0.37862 0.0
N930 N 0.5241 0.4726 0.23692 0.0
C931 C 0.53067 0.4612 0.277 0.0
C932 C 0.52213 0.45418 0.35382 0.0
C933 C 0.42008 0.23773 0.85835 0.0
C934 C 0.42134 0.22839 0.78907 0.0
C935 C 0.42166 0.23028 0.93257 0.0
C936 C 0.42406 0.21289 0.94054 0.0
H937 H 0.4184 0.25129 0.85533 0.0
H938 H 0.42071 0.23801 0.98415 0.0
S939 S 0.42781 0.18244 0.77894 0.0
N940 N 0.42523 0.20074 0.73409 0.0
N941 N 0.42726 0.18623 0.87367 0.0
C942 C 0.42492 0.20311 0.87224 0.0
C943 C 0.42382 0.21099 0.79652 0.0
C944 C 0.80489 0.21416 0.70231 0.0
C945 C 0.78378 0.20215 0.68604 0.0
C946 C 0.8119 0.22551 0.77123 0.0
C947 C 0.79811 0.22569 0.82612 0.0
H948 H 0.81618 0.21523 0.66038 0.0
H949 H 0.8283 0.23465 0.78051 0.0
S950 S 0.74121 0.19563 0.81451 0.0
N951 N 0.74909 0.19016 0.73301 0.0
N952 N 0.76222 0.21164 0.86218 0.0
C953 C 0.77692 0.21321 0.81194 0.0
C954 C 0.76977 0.20136 0.74221 0.0
C955 C 0.77181 0.57888 0.82606 0.0
C956 C 0.77296 0.56572 0.88304 0.0
C957 C 0.78242 0.58308 0.75481 0.0
C958 C 0.79494 0.57464 0.73814 0.0
H959 H 0.76225 0.58564 0.8357 0.0
H960 H 0.78049 0.59274 0.71171 0.0
S961 S 0.80444 0.54049 0.86965 0.0
N962 N 0.78845 0.54508 0.91959 0.0
N963 N 0.80862 0.55325 0.78549 0.0
C964 C 0.79691 0.56212 0.7956 0.0
C965 C 0.78581 0.55753 0.86795 0.0
C966 C 0.48614 0.92917 0.53616 0.0
C967 C 0.46542 0.91353 0.52854 0.0
C968 C 0.49907 0.92679 0.58901 0.0
C969 C 0.49161 0.90867 0.63529 0.0
H970 H 0.49207 0.94385 0.50485 0.0
H971 H 0.51428 0.93988 0.59884 0.0
S972 S 0.43974 0.86217 0.63165 0.0
N973 N 0.43886 0.87851 0.56793 0.0
N974 N 0.46341 0.87412 0.6649 0.0
C975 C 0.47167 0.89228 0.6232 0.0
C976 C 0.45845 0.89469 0.57046 0.0
C977 C 0.08649 0.57298 0.61026 0.0
C978 C 0.10533 0.58355 0.64983 0.0
C979 C 0.08308 0.55823 0.55373 0.0
C980 C 0.09839 0.55357 0.53444 0.0
H981 H 0.07373 0.57494 0.62683 0.0
H982 H 0.06794 0.5496 0.52843 0.0
S983 S 0.15173 0.57999 0.61034 0.0
N984 N 0.14049 0.59082 0.65678 0.0
N985 N 0.13406 0.56283 0.55238 0.0
C986 C 0.11792 0.5655 0.56825 0.0
C987 C 0.1214 0.5806 0.62536 0.0
C988 C 0.43356 0.49877 0.65881 0.0
C989 C 0.42475 0.50774 0.7046 0.0
C990 C 0.44931 0.51091 0.6049 0.0
C991 C 0.45652 0.53226 0.59536 0.0
H992 H 0.42958 0.48282 0.66958 0.0
H993 H 0.45658 0.50377 0.57377 0.0
S994 S 0.43641 0.56211 0.69717 0.0
N995 N 0.4227 0.53827 0.733 0.0
N996 N 0.45219 0.56127 0.63254 0.0
C997 C 0.44657 0.54089 0.63703 0.0
C998 C 0.43065 0.52853 0.69151 0.0
C999 C 0.57433 0.79103 0.19517 0.0
C1000 C 0.58918 0.81179 0.18095 0.0
C1001 C 0.57772 0.77904 0.24951 0.0
C1002 C 0.59631 0.78729 0.29067 0.0
H1003 H 0.56042 0.78368 0.16091 0.0
H1004 H 0.56604 0.76283 0.25577 0.0
S1005 S 0.63976 0.84149 0.27608 0.0
N1006 N 0.62266 0.84071 0.21383 0.0
N1007 N 0.62938 0.81801 0.31617 0.0
C1008 C 0.611 0.8084 0.27932 0.0
C1009 C 0.60734 0.82073 0.22437 0.0
C1010 C 0.21482 0.77649 0.2405 0.0
C1011 C 0.20785 0.78889 0.27453 0.0
C1012 C 0.20304 0.76148 0.18579 0.0
C1013 C 0.18385 0.75835 0.16247 0.0
H1014 H 0.23007 0.77921 0.25212 0.0
H1015 H 0.20975 0.75338 0.15758 0.0
S1016 S 0.1566 0.78341 0.24737 0.0
N1017 N 0.17908 0.7946 0.29104 0.0
N1018 N 0.1568 0.7663 0.188 0.0
C1019 C 0.17572 0.76904 0.20232 0.0
C1020 C 0.18779 0.78439 0.25821 0.0
C1021 C 0.23775 0.40519 0.21124 0.0
C1022 C 0.24791 0.42325 0.16426 0.0
C1023 C 0.22209 0.40228 0.26342 0.0
C1024 C 0.21622 0.41736 0.26971 0.0
H1025 H 0.24063 0.39253 0.20274 0.0
H1026 H 0.21386 0.38772 0.29579 0.0
S1027 S 0.2399 0.46816 0.16277 0.0
N1028 N 0.2526 0.45702 0.13144 0.0
N1029 N 0.22304 0.45165 0.22709 0.0
C1030 C 0.22741 0.43609 0.2264 0.0
C1031 C 0.24334 0.43902 0.17433 0.0
C1032 C 0.23915 0.42863 0.69487 0.0
C1033 C 0.22523 0.41322 0.74713 0.0
C1034 C 0.23234 0.43331 0.62516 0.0
C1035 C 0.21139 0.42258 0.60492 0.0
H1036 H 0.25523 0.43782 0.70974 0.0
H1037 H 0.24359 0.44555 0.58728 0.0
S1038 S 0.16918 0.3795 0.72027 0.0
N1039 N 0.18992 0.38645 0.77281 0.0
N1040 N 0.17702 0.39484 0.64186 0.0
C1041 C 0.19749 0.4065 0.65568 0.0
C1042 C 0.20443 0.40193 0.72669 0.0
C1043 C 0.60907 0.79723 0.73335 0.0
C1044 C 0.59752 0.80622 0.75723 0.0
C1045 C 0.604 0.78516 0.6664 0.0
C1046 C 0.58698 0.7813 0.62031 0.0
H1047 H 0.62174 0.7989 0.76855 0.0
H1048 H 0.61331 0.77839 0.65201 0.0
S1049 S 0.55247 0.80244 0.65506 0.0
N1050 N 0.56892 0.81138 0.72788 0.0
N1051 N 0.55929 0.78868 0.60132 0.0
C1052 C 0.57575 0.79092 0.64177 0.0
C1053 C 0.58109 0.80342 0.71012 0.0
C1054 C 0.18918 0.78566 0.68112 0.0
C1055 C 0.19565 0.77884 0.74619 0.0
C1056 C 0.20165 0.79367 0.61399 0.0
C1057 C 0.22061 0.79436 0.60881 0.0
H1058 H 0.17441 0.7848 0.68215 0.0
H1059 H 0.19614 0.79876 0.56478 0.0
S1060 S 0.24426 0.77805 0.76272 0.0
N1061 N 0.22234 0.77355 0.80194 0.0
N1062 N 0.24525 0.78764 0.674 0.0
C1063 C 0.22719 0.78752 0.67324 0.0
C1064 C 0.21483 0.78001 0.74251 0.0
C1065 C 0.07779 0.55283 0.11793 0.0
C1066 C 0.09119 0.5596 0.05306 0.0
C1067 C 0.08179 0.54425 0.18462 0.0
C1068 C 0.09968 0.54287 0.18958 0.0
H1069 H 0.06424 0.55433 0.11738 0.0
H1070 H 0.07125 0.53949 0.23395 0.0
S1071 S 0.13953 0.55827 0.03554 0.0
N1072 N 0.12271 0.56373 0.99697 0.0
N1073 N 0.13063 0.54854 0.12384 0.0
C1074 C 0.11307 0.54939 0.12496 0.0
C1075 C 0.1087 0.5575 0.05622 0.0
C1076 C 0.43499 0.52052 0.16742 0.0
C1077 C 0.44801 0.51664 0.12108 0.0
C1078 C 0.44228 0.53257 0.23486 0.0
C1079 C 0.46283 0.54102 0.25873 0.0
H1080 H 0.41938 0.51519 0.14913 0.0
H1081 H 0.43176 0.53547 0.26786 0.0
S1082 S 0.50238 0.53338 0.15976 0.0
N1083 N 0.48182 0.52093 0.10503 0.0
N1084 N 0.49563 0.54315 0.23211 0.0
C1085 C 0.4757 0.53634 0.21423 0.0
C1086 C 0.46826 0.52427 0.14539 0.0
C1087 C 0.47427 0.90149 0.10758 0.0
C1088 C 0.47415 0.9155 0.05206 0.0
C1089 C 0.46295 0.89692 0.17776 0.0
C1090 C 0.45138 0.90643 0.19529 0.0
H1091 H 0.48242 0.89336 0.09527 0.0
H1092 H 0.4633 0.88586 0.21855 0.0
S1093 S 0.44726 0.94531 0.07037 0.0
N1094 N 0.46227 0.93947 0.02005 0.0
N1095 N 0.44134 0.93123 0.15188 0.0
C1096 C 0.45176 0.921 0.141 0.0
C1097 C 0.46306 0.92544 0.06947 0.0
C1098 C 0.18745 0.33832 0.06233 0.0
C1099 C 0.20861 0.34847 0.04504 0.0
C1100 C 0.17677 0.31771 0.08937 0.0
C1101 C 0.18674 0.30626 0.10102 0.0
H1102 H 0.17893 0.34632 0.05488 0.0
H1103 H 0.16049 0.31074 0.10134 0.0
S1104 S 0.24209 0.3255 0.06501 0.0
N1105 N 0.23924 0.34543 0.04186 0.0
N1106 N 0.21913 0.30665 0.09284 0.0
C1107 C 0.20794 0.31618 0.0843 0.0
C1108 C 0.21884 0.33723 0.05613 0.0
C1109 C 0.67821 0.89112 0.15805 0.0
C1110 C 0.69323 0.88562 0.17178 0.0
C1111 C 0.66224 0.88018 0.10519 0.0
C1112 C 0.66038 0.86294 0.06552 0.0
H1113 H 0.67851 0.90368 0.19 0.0
H1114 H 0.65049 0.88437 0.09984 0.0
S1115 S 0.69675 0.84329 0.07701 0.0
N1116 N 0.70627 0.863 0.13734 0.0
N1117 N 0.67593 0.84191 0.03961 0.0
C1118 C 0.67596 0.85799 0.07584 0.0
C1119 C 0.69246 0.86944 0.1286 0.0
C1120 C 0.13996 0.80393 0.99111 0.0
C1121 C 0.12712 0.78767 0.94135 0.0
C1122 C 0.13257 0.81499 0.03216 0.0
C1123 C 0.11188 0.80963 0.02728 0.0
H1124 H 0.15594 0.80835 0.99732 0.0
H1125 H 0.1431 0.82783 0.06787 0.0
S1126 S 0.07179 0.76782 0.90758 0.0
N1127 N 0.0927 0.76663 0.89032 0.0
N1128 N 0.07861 0.78688 0.96966 0.0
C1129 C 0.09877 0.7931 0.97924 0.0
C1130 C 0.10644 0.78226 0.93566 0.0
C1131 C 0.33018 0.21449 0.42921 0.0
C1132 C 0.32636 0.19544 0.39895 0.0
C1133 C 0.3468 0.22599 0.4787 0.0
C1134 C 0.36058 0.21922 0.49795 0.0
H1135 H 0.31948 0.21991 0.41915 0.0
H1136 H 0.34863 0.24008 0.50355 0.0
S1137 S 0.35894 0.17179 0.42754 0.0
N1138 N 0.3387 0.17114 0.38767 0.0
N1139 N 0.37041 0.19329 0.4786 0.0
C1140 C 0.35785 0.20103 0.46404 0.0
C1141 C 0.34062 0.18901 0.41502 0.0
C1142 C 0.80306 0.14715 0.37344 0.0
C1143 C 0.78317 0.14418 0.36947 0.0
C1144 C 0.80831 0.13431 0.33265 0.0
C1145 C 0.79408 0.11851 0.28419 0.0
H1146 H 0.81464 0.15946 0.40847 0.0
H1147 H 0.82374 0.13694 0.33841 0.0
S1148 S 0.74012 0.1048 0.25215 0.0
N1149 N 0.74918 0.12435 0.31316 0.0
N1150 N 0.75925 0.10064 0.23466 0.0
C1151 C 0.77421 0.11555 0.27899 0.0
C1152 C 0.7687 0.12826 0.32218 0.0
C1153 C 0.87523 0.67567 0.43091 0.0
C1154 C 0.86439 0.68558 0.40747 0.0
C1155 C 0.86488 0.65448 0.45207 0.0
C1156 C 0.84328 0.64232 0.45002 0.0
H1157 H 0.89181 0.68445 0.43473 0.0
H1158 H 0.87393 0.64763 0.47012 0.0
S1159 S 0.80786 0.66083 0.38843 0.0
N1160 N 0.83096 0.68153 0.38054 0.0
N1161 N 0.81152 0.64197 0.41993 0.0
C1162 C 0.83232 0.65208 0.42528 0.0
C1163 C 0.84286 0.67361 0.40415 0.0
C1164 C 0.77551 0.68156 0.96707 0.0
C1165 C 0.77295 0.67894 0.88564 0.0
C1166 C 0.76761 0.66447 0.01879 0.0
C1167 C 0.75677 0.64406 0.99128 0.0
H1168 H 0.78458 0.6969 0.99112 0.0
H1169 H 0.77089 0.66735 0.08048 0.0
S1170 S 0.74277 0.62884 0.78453 0.0
N1171 N 0.75657 0.65441 0.78078 0.0
N1172 N 0.74163 0.62228 0.87784 0.0
C1173 C 0.7527 0.64125 0.91053 0.0
C1174 C 0.76082 0.65868 0.85779 0.0
C1175 C 0.32856 0.09703 0.00355 0.0
C1176 C 0.34917 0.11276 0.99413 0.0
C1177 C 0.31522 0.09021 0.93963 0.0
C1178 C 0.32204 0.09887 0.86404 0.0
H1179 H 0.32235 0.09082 0.06126 0.0
H1180 H 0.29919 0.07898 0.95069 0.0
S1181 S 0.37565 0.13721 0.80593 0.0
N1182 N 0.37655 0.13441 0.90155 0.0
N1183 N 0.35151 0.12159 0.78175 0.0
C1184 C 0.34305 0.11318 0.85283 0.0
C1185 C 0.3566 0.12014 0.9178 0.0
C1186 C 0.90053 0.21231 0.92203 0.0
C1187 C 0.90197 0.21657 0.84094 0.0
C1188 C 0.89264 0.22103 0.9734 0.0
C1189 C 0.88597 0.23448 0.94599 0.0
H1190 H 0.90454 0.20132 0.94593 0.0
H1191 H 0.89095 0.21644 0.03462 0.0
S1192 S 0.8897 0.25339 0.74072 0.0
N1193 N 0.89841 0.23712 0.73695 0.0
N1194 N 0.88372 0.25365 0.8334 0.0
C1195 C 0.88884 0.24017 0.86589 0.0
C1196 C 0.89678 0.23117 0.81344 0.0
C1197 C 0.69103 0.78957 0.61908 0.0
C1198 C 0.68562 0.77921 0.69227 0.0
C1199 C 0.67791 0.78188 0.55519 0.0
C1200 C 0.65865 0.76365 0.56201 0.0
H1201 H 0.70536 0.80409 0.6114 0.0
H1202 H 0.68258 0.79093 0.50115 0.0
S1203 S 0.63811 0.72954 0.73906 0.0
N1204 N 0.66057 0.74887 0.76649 0.0
N1205 N 0.63557 0.7344 0.64642 0.0
C1206 C 0.65351 0.75248 0.63378 0.0
C1207 C 0.66708 0.76026 0.69889 0.0
C1208 C 0.21142 0.8976 0.52098 0.0
C1209 C 0.21411 0.89707 0.60238 0.0
C1210 C 0.22048 0.89031 0.46857 0.0
C1211 C 0.23275 0.88228 0.49505 0.0
H1212 H 0.20151 0.90289 0.49728 0.0
H1213 H 0.21715 0.89026 0.4069 0.0
S1214 S 0.24691 0.8799 0.70159 0.0
N1215 N 0.23164 0.8897 0.7064 0.0
N1216 N 0.24876 0.87606 0.60785 0.0
C1217 C 0.23676 0.88295 0.57584 0.0
C1218 C 0.22741 0.89031 0.62946 0.0
C1219 C 0.11275 0.32731 0.48911 0.0
C1220 C 0.12033 0.34821 0.50756 0.0
C1221 C 0.10362 0.31157 0.54633 0.0
C1222 C 0.1019 0.31605 0.62475 0.0
H1223 H 0.11459 0.32307 0.43062 0.0
H1224 H 0.09876 0.29586 0.52935 0.0
S1225 S 0.11564 0.3677 0.70072 0.0
N1226 N 0.12273 0.37218 0.60774 0.0
N1227 N 0.10586 0.34253 0.7155 0.0
C1228 C 0.10796 0.33665 0.64288 0.0
C1229 C 0.11709 0.35272 0.58428 0.0
C1230 C 0.00102 0.55534 0.84543 0.0
C1231 C 0.01698 0.55091 0.8402 0.0
C1232 C 0.983 0.54419 0.80233 0.0
C1233 C 0.98006 0.52782 0.75413 0.0
H1234 H 0.00242 0.56744 0.88346 0.0
H1235 H 0.97076 0.54757 0.81078 0.0
S1236 S 0.01763 0.51079 0.71717 0.0
N1237 N 0.02932 0.53003 0.77901 0.0
N1238 N 0.9949 0.50828 0.70126 0.0
C1239 C 0.99612 0.52361 0.74677 0.0
C1240 C 0.01473 0.53536 0.78895 0.0
C1241 C 0.44292 0.45001 0.75467 0.0
C1242 C 0.45707 0.46695 0.79889 0.0
C1243 C 0.44952 0.44053 0.70112 0.0
C1244 C 0.47047 0.44727 0.69109 0.0
H1245 H 0.42668 0.4448 0.75791 0.0
H1246 H 0.43812 0.42799 0.6664 0.0
S1247 S 0.5136 0.48987 0.79698 0.0
N1248 N 0.49296 0.48946 0.83162 0.0
N1249 N 0.50527 0.47099 0.73308 0.0
C1250 C 0.48472 0.46337 0.73803 0.0
C1251 C 0.47804 0.4734 0.79129 0.0
C1252 C 0.54267 0.99631 0.77833 0.0
C1253 C 0.52138 0.98284 0.76925 0.0
C1254 C 0.55198 0.01765 0.7604 0.0
C1255 C 0.54034 0.02639 0.73343 0.0
H1256 H 0.55225 0.99037 0.7997 0.0
H1257 H 0.56832 0.02745 0.76957 0.0
S1258 S 0.48441 0.99809 0.69448 0.0
N1259 N 0.48917 0.98009 0.72756 0.0
N1260 N 0.50669 0.01993 0.69474 0.0
C1261 C 0.51918 0.01314 0.72279 0.0
C1262 C 0.50971 0.99148 0.74043 0.0
C1263 C 0.44047 0.99724 0.18202 0.0
C1264 C 0.44608 0.0171 0.20883 0.0
C1265 C 0.43319 0.98022 0.23368 0.0
C1266 C 0.43124 0.98232 0.3145 0.0
H1267 H 0.44262 0.99491 0.12115 0.0
H1268 H 0.43002 0.96552 0.21021 0.0
S1269 S 0.44004 0.03011 0.41233 0.0
N1270 N 0.4464 0.03728 0.31992 0.0
N1271 N 0.43278 0.00524 0.41716 0.0
C1272 C 0.43522 0.00171 0.34124 0.0
C1273 C 0.44261 0.0191 0.28842 0.0
C1274 C 0.00277 0.44774 0.36252 0.0
C1275 C 0.02281 0.45523 0.33354 0.0
C1276 C 0.98578 0.43889 0.31285 0.0
C1277 C 0.98815 0.43733 0.23197 0.0
H1278 H 0.00021 0.44955 0.42351 0.0
H1279 H 0.97085 0.43438 0.33755 0.0
S1280 S 0.03683 0.45141 0.1285 0.0
N1281 N 0.04365 0.458 0.22002 0.0
N1282 N 0.01174 0.44158 0.12685 0.0
C1283 C 0.00786 0.44328 0.2032 0.0
C1284 C 0.02517 0.45216 0.2539 0.0
C1285 C 0.55631 0.53253 0.25723 0.0
C1286 C 0.55966 0.54402 0.18711 0.0
C1287 C 0.5486 0.53688 0.32417 0.0
C1288 C 0.54438 0.55317 0.32416 0.0
H1289 H 0.55851 0.51928 0.25932 0.0
H1290 H 0.54522 0.52692 0.37543 0.0
S1291 S 0.55272 0.58932 0.15773 0.0
N1292 N 0.55962 0.57321 0.12298 0.0
N1293 N 0.54576 0.58197 0.24967 0.0
C1294 C 0.54904 0.56571 0.256 0.0
C1295 C 0.55647 0.56095 0.18716 0.0
loop_
_geom_bond_atom_site_label_1
_geom_bond_atom_site_label_2
_geom_bond_distance
_geom_bond_site_symmetry_2
_ccdc_geom_bond_type
Mg0 O1 2.028 . S
Mg0 O7 1.986 . S
Mg0 O9 2.114 . S
Mg0 O10 2.251 . S
Mg0 O13 2.010 . S
O1 Mg0 2.028 . S
O1 C4 1.250 . S
O2 Mg3 2.028 . S
O2 C4 1.248 . S
Mg3 O2 2.028 . S
Mg3 O8 2.032 . S
Mg3 O10 2.079 . S
C4 O1 1.250 . S
C4 O2 1.248 . S
C5 O6 1.264 . S
C5 O13 1.249 . S
O6 C5 1.264 . S
O7 Mg0 1.986 . S
O7 C11 1.246 . S
O8 Mg3 2.032 . S
O8 C11 1.259 . S
O9 Mg0 2.114 . S
O9 C12 1.252 . S
O10 Mg0 2.251 . S
O10 Mg3 2.079 . S
O10 C12 1.273 . S
C11 O7 1.246 . S
C11 O8 1.259 . S
C12 O9 1.252 . S
C12 O10 1.273 . S
O13 Mg0 2.010 . S
O13 C5 1.249 . S
Mg14 O15 2.028 . S
Mg14 O21 1.986 . S
Mg14 O23 2.114 . S
Mg14 O24 2.251 . S
Mg14 O27 2.010 . S
O15 Mg14 2.028 . S
O15 C18 1.250 . S
O16 Mg17 2.028 . S
O16 C18 1.248 . S
Mg17 O16 2.028 . S
Mg17 O22 2.032 . S
Mg17 O24 2.079 . S
C18 O15 1.250 . S
C18 O16 1.248 . S
C19 O20 1.264 . S
C19 O27 1.249 . S
O20 C19 1.264 . S
O21 Mg14 1.986 . S
O21 C25 1.246 . S
O22 Mg17 2.032 . S
O22 C25 1.259 . S
O23 Mg14 2.114 . S
O23 C26 1.252 . S
O24 Mg14 2.251 . S
O24 Mg17 2.079 . S
O24 C26 1.273 . S
C25 O21 1.246 . S
C25 O22 1.259 . S
C26 O23 1.252 . S
C26 O24 1.273 . S
O27 Mg14 2.010 . S
O27 C19 1.249 . S
Mg28 O29 2.028 . S
Mg28 O35 1.986 . S
Mg28 O37 2.114 . S
Mg28 O38 2.251 . S
Mg28 O41 2.010 . S
O29 Mg28 2.028 . S
O29 C32 1.250 . S
O30 Mg31 2.028 . S
O30 C32 1.248 . S
Mg31 O30 2.028 . S
Mg31 O36 2.032 . S
Mg31 O38 2.079 . S
C32 O29 1.250 . S
C32 O30 1.248 . S
C33 O34 1.264 . S
C33 O41 1.249 . S
O34 C33 1.264 . S
O35 Mg28 1.986 . S
O35 C39 1.246 . S
O36 Mg31 2.032 . S
O36 C39 1.259 . S
O37 Mg28 2.114 . S
O37 C40 1.252 . S
O38 Mg28 2.251 . S
O38 Mg31 2.079 . S
O38 C40 1.273 . S
C39 O35 1.246 . S
C39 O36 1.259 . S
C40 O37 1.252 . S
C40 O38 1.273 . S
O41 Mg28 2.010 . S
O41 C33 1.249 . S
Mg42 O43 2.028 . S
Mg42 O49 1.986 . S
Mg42 O51 2.114 . S
Mg42 O52 2.251 . S
Mg42 O55 2.010 . S
O43 Mg42 2.028 . S
O43 C46 1.250 . S
O44 Mg45 2.028 . S
O44 C46 1.248 . S
Mg45 O44 2.028 . S
Mg45 O50 2.032 . S
Mg45 O52 2.079 . S
C46 O43 1.250 . S
C46 O44 1.248 . S
C47 O48 1.264 . S
C47 O55 1.249 . S
O48 C47 1.264 . S
O49 Mg42 1.986 . S
O49 C53 1.246 . S
O50 Mg45 2.032 . S
O50 C53 1.259 . S
O51 Mg42 2.114 . S
O51 C54 1.252 . S
O52 Mg42 2.251 . S
O52 Mg45 2.079 . S
O52 C54 1.273 . S
C53 O49 1.246 . S
C53 O50 1.259 . S
C54 O51 1.252 . S
C54 O52 1.273 . S
O55 Mg42 2.010 . S
O55 C47 1.249 . S
Mg56 O57 2.028 . S
Mg56 O63 1.986 . S
Mg56 O65 2.114 . S
Mg56 O66 2.251 . S
Mg56 O69 2.010 . S
O57 Mg56 2.028 . S
O57 C60 1.250 . S
O58 Mg59 2.028 . S
O58 C60 1.248 . S
Mg59 O58 2.028 . S
Mg59 O64 2.032 . S
Mg59 O66 2.079 . S
C60 O57 1.250 . S
C60 O58 1.248 . S
C61 O62 1.264 . S
C61 O69 1.249 . S
O62 C61 1.264 . S
O63 Mg56 1.986 . S
O63 C67 1.246 . S
O64 Mg59 2.032 . S
O64 C67 1.259 . S
O65 Mg56 2.114 . S
O65 C68 1.252 . S
O66 Mg56 2.251 . S
O66 Mg59 2.079 . S
O66 C68 1.273 . S
C67 O63 1.246 . S
C67 O64 1.259 . S
C68 O65 1.252 . S
C68 O66 1.273 . S
O69 Mg56 2.010 . S
O69 C61 1.249 . S
Mg70 O71 2.028 . S
Mg70 O77 1.986 . S
Mg70 O79 2.114 . S
Mg70 O80 2.251 . S
Mg70 O83 2.010 . S
O71 Mg70 2.028 . S
O71 C74 1.250 . S
O72 Mg73 2.028 . S
O72 C74 1.248 . S
Mg73 O72 2.028 . S
Mg73 O78 2.032 . S
Mg73 O80 2.079 . S
C74 O71 1.250 . S
C74 O72 1.248 . S
C75 O76 1.264 . S
C75 O83 1.249 . S
O76 C75 1.264 . S
O77 Mg70 1.986 . S
O77 C81 1.246 . S
O78 Mg73 2.032 . S
O78 C81 1.259 . S
O79 Mg70 2.114 . S
O79 C82 1.252 . S
O80 Mg70 2.251 . S
O80 Mg73 2.079 . S
O80 C82 1.273 . S
C81 O77 1.246 . S
C81 O78 1.259 . S
C82 O79 1.252 . S
C82 O80 1.273 . S
O83 Mg70 2.010 . S
O83 C75 1.249 . S
Mg84 O85 2.028 . S
Mg84 O91 1.986 . S
Mg84 O93 2.114 . S
Mg84 O94 2.251 . S
Mg84 O97 2.010 . S
O85 Mg84 2.028 . S
O85 C88 1.250 . S
O86 Mg87 2.028 . S
O86 C88 1.248 . S
Mg87 O86 2.028 . S
Mg87 O92 2.032 . S
Mg87 O94 2.079 . S
C88 O85 1.250 . S
C88 O86 1.248 . S
C89 O90 1.264 . S
C89 O97 1.249 . S
O90 C89 1.264 . S
O91 Mg84 1.986 . S
O91 C95 1.246 . S
O92 Mg87 2.032 . S
O92 C95 1.259 . S
O93 Mg84 2.114 . S
O93 C96 1.252 . S
O94 Mg84 2.251 . S
O94 Mg87 2.079 . S
O94 C96 1.273 . S
C95 O91 1.246 . S
C95 O92 1.259 . S
C96 O93 1.252 . S
C96 O94 1.273 . S
O97 Mg84 2.010 . S
O97 C89 1.249 . S
Mg98 O99 2.028 . S
Mg98 O105 1.986 . S
Mg98 O107 2.114 . S
Mg98 O108 2.251 . S
Mg98 O111 2.010 . S
O99 Mg98 2.028 . S
O99 C102 1.250 . S
O100 Mg101 2.028 . S
O100 C102 1.248 . S
Mg101 O100 2.028 . S
Mg101 O106 2.032 . S
Mg101 O108 2.079 . S
C102 O99 1.250 . S
C102 O100 1.248 . S
C103 O104 1.264 . S
C103 O111 1.249 . S
O104 C103 1.264 . S
O105 Mg98 1.986 . S
O105 C109 1.246 . S
O106 Mg101 2.032 . S
O106 C109 1.259 . S
O107 Mg98 2.114 . S
O107 C110 1.252 . S
O108 Mg98 2.251 . S
O108 Mg101 2.079 . S
O108 C110 1.273 . S
C109 O105 1.246 . S
C109 O106 1.259 . S
C110 O107 1.252 . S
C110 O108 1.273 . S
O111 Mg98 2.010 . S
O111 C103 1.249 . S
Mg112 O113 2.028 . S
Mg112 O119 1.986 . S
Mg112 O121 2.114 . S
Mg112 O122 2.251 . S
Mg112 O125 2.010 . S
O113 Mg112 2.028 . S
O113 C116 1.250 . S
O114 Mg115 2.028 . S
O114 C116 1.248 . S
Mg115 O114 2.028 . S
Mg115 O120 2.032 . S
Mg115 O122 2.079 . S
C116 O113 1.250 . S
C116 O114 1.248 . S
C117 O118 1.264 . S
C117 O125 1.249 . S
O118 C117 1.264 . S
O119 Mg112 1.986 . S
O119 C123 1.246 . S
O120 Mg115 2.032 . S
O120 C123 1.259 . S
O121 Mg112 2.114 . S
O121 C124 1.252 . S
O122 Mg112 2.251 . S
O122 Mg115 2.079 . S
O122 C124 1.273 . S
C123 O119 1.246 . S
C123 O120 1.259 . S
C124 O121 1.252 . S
C124 O122 1.273 . S
O125 Mg112 2.010 . S
O125 C117 1.249 . S
Mg126 O127 2.028 . S
Mg126 O133 1.986 . S
Mg126 O135 2.114 . S
Mg126 O136 2.251 . S
Mg126 O139 2.010 . S
O127 Mg126 2.028 . S
O127 C130 1.250 . S
O128 Mg129 2.028 . S
O128 C130 1.248 . S
Mg129 O128 2.028 . S
Mg129 O134 2.032 . S
Mg129 O136 2.079 . S
C130 O127 1.250 . S
C130 O128 1.248 . S
C131 O132 1.264 . S
C131 O139 1.249 . S
O132 C131 1.264 . S
O133 Mg126 1.986 . S
O133 C137 1.246 . S
O134 Mg129 2.032 . S
O134 C137 1.259 . S
O135 Mg126 2.114 . S
O135 C138 1.252 . S
O136 Mg126 2.251 . S
O136 Mg129 2.079 . S
O136 C138 1.273 . S
C137 O133 1.246 . S
C137 O134 1.259 . S
C138 O135 1.252 . S
C138 O136 1.273 . S
O139 Mg126 2.010 . S
O139 C131 1.249 . S
Mg140 O141 2.028 . S
Mg140 O147 1.986 . S
Mg140 O149 2.114 . S
Mg140 O150 2.251 . S
Mg140 O153 2.010 . S
O141 Mg140 2.028 . S
O141 C144 1.250 . S
O142 Mg143 2.028 . S
O142 C144 1.248 . S
Mg143 O142 2.028 . S
Mg143 O148 2.032 . S
Mg143 O150 2.079 . S
C144 O141 1.250 . S
C144 O142 1.248 . S
C145 O146 1.264 . S
C145 O153 1.249 . S
O146 C145 1.264 . S
O147 Mg140 1.986 . S
O147 C151 1.246 . S
O148 Mg143 2.032 . S
O148 C151 1.259 . S
O149 Mg140 2.114 . S
O149 C152 1.252 . S
O150 Mg140 2.251 . S
O150 Mg143 2.079 . S
O150 C152 1.273 . S
C151 O147 1.246 . S
C151 O148 1.259 . S
C152 O149 1.252 . S
C152 O150 1.273 . S
O153 Mg140 2.010 . S
O153 C145 1.249 . S
Mg154 O155 2.028 . S
Mg154 O161 1.986 . S
Mg154 O163 2.114 . S
Mg154 O164 2.251 . S
Mg154 O167 2.010 . S
O155 Mg154 2.028 . S
O155 C158 1.250 . S
O156 Mg157 2.028 . S
O156 C158 1.248 . S
Mg157 O156 2.028 . S
Mg157 O162 2.032 . S
Mg157 O164 2.079 . S
C158 O155 1.250 . S
C158 O156 1.248 . S
C159 O160 1.264 . S
C159 O167 1.249 . S
O160 C159 1.264 . S
O161 Mg154 1.986 . S
O161 C165 1.246 . S
O162 Mg157 2.032 . S
O162 C165 1.259 . S
O163 Mg154 2.114 . S
O163 C166 1.252 . S
O164 Mg154 2.251 . S
O164 Mg157 2.079 . S
O164 C166 1.273 . S
C165 O161 1.246 . S
C165 O162 1.259 . S
C166 O163 1.252 . S
C166 O164 1.273 . S
O167 Mg154 2.010 . S
O167 C159 1.249 . S
Mg168 O169 2.028 . S
Mg168 O175 1.986 . S
Mg168 O177 2.114 . S
Mg168 O178 2.251 . S
Mg168 O181 2.010 . S
O169 Mg168 2.028 . S
O169 C172 1.250 . S
O170 Mg171 2.028 . S
O170 C172 1.248 . S
Mg171 O170 2.028 . S
Mg171 O176 2.032 . S
Mg171 O178 2.079 . S
C172 O169 1.250 . S
C172 O170 1.248 . S
C173 O174 1.264 . S
C173 O181 1.249 . S
O174 C173 1.264 . S
O175 Mg168 1.986 . S
O175 C179 1.246 . S
O176 Mg171 2.032 . S
O176 C179 1.259 . S
O177 Mg168 2.114 . S
O177 C180 1.252 . S
O178 Mg168 2.251 . S
O178 Mg171 2.079 . S
O178 C180 1.273 . S
C179 O175 1.246 . S
C179 O176 1.259 . S
C180 O177 1.252 . S
C180 O178 1.273 . S
O181 Mg168 2.010 . S
O181 C173 1.249 . S
Mg182 O183 2.028 . S
Mg182 O189 1.986 . S
Mg182 O191 2.114 . S
Mg182 O192 2.251 . S
Mg182 O195 2.010 . S
O183 Mg182 2.028 . S
O183 C186 1.250 . S
O184 Mg185 2.028 . S
O184 C186 1.248 . S
Mg185 O184 2.028 . S
Mg185 O190 2.032 . S
Mg185 O192 2.079 . S
C186 O183 1.250 . S
C186 O184 1.248 . S
C187 O188 1.264 . S
C187 O195 1.249 . S
O188 C187 1.264 . S
O189 Mg182 1.986 . S
O189 C193 1.246 . S
O190 Mg185 2.032 . S
O190 C193 1.259 . S
O191 Mg182 2.114 . S
O191 C194 1.252 . S
O192 Mg182 2.251 . S
O192 Mg185 2.079 . S
O192 C194 1.273 . S
C193 O189 1.246 . S
C193 O190 1.259 . S
C194 O191 1.252 . S
C194 O192 1.273 . S
O195 Mg182 2.010 . S
O195 C187 1.249 . S
Mg196 O197 2.028 . S
Mg196 O203 1.986 . S
Mg196 O205 2.114 . S
Mg196 O206 2.251 . S
Mg196 O209 2.010 . S
O197 Mg196 2.028 . S
O197 C200 1.250 . S
O198 Mg199 2.028 . S
O198 C200 1.248 . S
Mg199 O198 2.028 . S
Mg199 O204 2.032 . S
Mg199 O206 2.079 . S
C200 O197 1.250 . S
C200 O198 1.248 . S
C201 O202 1.264 . S
C201 O209 1.249 . S
O202 C201 1.264 . S
O203 Mg196 1.986 . S
O203 C207 1.246 . S
O204 Mg199 2.032 . S
O204 C207 1.259 . S
O205 Mg196 2.114 . S
O205 C208 1.252 . S
O206 Mg196 2.251 . S
O206 Mg199 2.079 . S
O206 C208 1.273 . S
C207 O203 1.246 . S
C207 O204 1.259 . S
C208 O205 1.252 . S
C208 O206 1.273 . S
O209 Mg196 2.010 . S
O209 C201 1.249 . S
Mg210 O211 2.028 . S
Mg210 O217 1.986 . S
Mg210 O219 2.114 . S
Mg210 O220 2.251 . S
Mg210 O223 2.010 . S
O211 Mg210 2.028 . S
O211 C214 1.250 . S
O212 Mg213 2.028 . S
O212 C214 1.248 . S
Mg213 O212 2.028 . S
Mg213 O218 2.032 . S
Mg213 O220 2.079 . S
C214 O211 1.250 . S
C214 O212 1.248 . S
C215 O216 1.264 . S
C215 O223 1.249 . S
O216 C215 1.264 . S
O217 Mg210 1.986 . S
O217 C221 1.246 . S
O218 Mg213 2.032 . S
O218 C221 1.259 . S
O219 Mg210 2.114 . S
O219 C222 1.252 . S
O220 Mg210 2.251 . S
O220 Mg213 2.079 . S
O220 C222 1.273 . S
C221 O217 1.246 . S
C221 O218 1.259 . S
C222 O219 1.252 . S
C222 O220 1.273 . S
O223 Mg210 2.010 . S
O223 C215 1.249 . S
Mg224 O225 2.028 . S
Mg224 O231 1.986 . S
Mg224 O233 2.114 . S
Mg224 O234 2.251 . S
Mg224 O237 2.010 . S
O225 Mg224 2.028 . S
O225 C228 1.250 . S
O226 Mg227 2.028 . S
O226 C228 1.248 . S
Mg227 O226 2.028 . S
Mg227 O232 2.032 . S
Mg227 O234 2.079 . S
C228 O225 1.250 . S
C228 O226 1.248 . S
C229 O230 1.264 . S
C229 O237 1.249 . S
O230 C229 1.264 . S
O231 Mg224 1.986 . S
O231 C235 1.246 . S
O232 Mg227 2.032 . S
O232 C235 1.259 . S
O233 Mg224 2.114 . S
O233 C236 1.252 . S
O234 Mg224 2.251 . S
O234 Mg227 2.079 . S
O234 C236 1.273 . S
C235 O231 1.246 . S
C235 O232 1.259 . S
C236 O233 1.252 . S
C236 O234 1.273 . S
O237 Mg224 2.010 . S
O237 C229 1.249 . S
Mg238 O239 2.028 . S
Mg238 O245 1.986 . S
Mg238 O247 2.114 . S
Mg238 O248 2.251 . S
Mg238 O251 2.010 . S
O239 Mg238 2.028 . S
O239 C242 1.250 . S
O240 Mg241 2.028 . S
O240 C242 1.248 . S
Mg241 O240 2.028 . S
Mg241 O246 2.032 . S
Mg241 O248 2.079 . S
C242 O239 1.250 . S
C242 O240 1.248 . S
C243 O244 1.264 . S
C243 O251 1.249 . S
O244 C243 1.264 . S
O245 Mg238 1.986 . S
O245 C249 1.246 . S
O246 Mg241 2.032 . S
O246 C249 1.259 . S
O247 Mg238 2.114 . S
O247 C250 1.252 . S
O248 Mg238 2.251 . S
O248 Mg241 2.079 . S
O248 C250 1.273 . S
C249 O245 1.246 . S
C249 O246 1.259 . S
C250 O247 1.252 . S
C250 O248 1.273 . S
O251 Mg238 2.010 . S
O251 C243 1.249 . S
Mg252 O253 2.028 . S
Mg252 O259 1.986 . S
Mg252 O261 2.114 . S
Mg252 O262 2.251 . S
Mg252 O265 2.010 . S
O253 Mg252 2.028 . S
O253 C256 1.250 . S
O254 Mg255 2.028 . S
O254 C256 1.248 . S
Mg255 O254 2.028 . S
Mg255 O260 2.032 . S
Mg255 O262 2.079 . S
C256 O253 1.250 . S
C256 O254 1.248 . S
C257 O258 1.264 . S
C257 O265 1.249 . S
O258 C257 1.264 . S
O259 Mg252 1.986 . S
O259 C263 1.246 . S
O260 Mg255 2.032 . S
O260 C263 1.259 . S
O261 Mg252 2.114 . S
O261 C264 1.252 . S
O262 Mg252 2.251 . S
O262 Mg255 2.079 . S
O262 C264 1.273 . S
C263 O259 1.246 . S
C263 O260 1.259 . S
C264 O261 1.252 . S
C264 O262 1.273 . S
O265 Mg252 2.010 . S
O265 C257 1.249 . S
Mg266 O267 2.028 . S
Mg266 O273 1.986 . S
Mg266 O275 2.114 . S
Mg266 O276 2.251 . S
Mg266 O279 2.010 . S
O267 Mg266 2.028 . S
O267 C270 1.250 . S
O268 Mg269 2.028 . S
O268 C270 1.248 . S
Mg269 O268 2.028 . S
Mg269 O274 2.032 . S
Mg269 O276 2.079 . S
C270 O267 1.250 . S
C270 O268 1.248 . S
C271 O272 1.264 . S
C271 O279 1.249 . S
O272 C271 1.264 . S
O273 Mg266 1.986 . S
O273 C277 1.246 . S
O274 Mg269 2.032 . S
O274 C277 1.259 . S
O275 Mg266 2.114 . S
O275 C278 1.252 . S
O276 Mg266 2.251 . S
O276 Mg269 2.079 . S
O276 C278 1.273 . S
C277 O273 1.246 . S
C277 O274 1.259 . S
C278 O275 1.252 . S
C278 O276 1.273 . S
O279 Mg266 2.010 . S
O279 C271 1.249 . S
Mg280 O281 2.028 . S
Mg280 O287 1.986 . S
Mg280 O289 2.114 . S
Mg280 O290 2.251 . S
Mg280 O293 2.010 . S
O281 Mg280 2.028 . S
O281 C284 1.250 . S
O282 Mg283 2.028 . S
O282 C284 1.248 . S
Mg283 O282 2.028 . S
Mg283 O288 2.032 . S
Mg283 O290 2.079 . S
C284 O281 1.250 . S
C284 O282 1.248 . S
C285 O286 1.264 . S
C285 O293 1.249 . S
O286 C285 1.264 . S
O287 Mg280 1.986 . S
O287 C291 1.246 . S
O288 Mg283 2.032 . S
O288 C291 1.259 . S
O289 Mg280 2.114 . S
O289 C292 1.252 . S
O290 Mg280 2.251 . S
O290 Mg283 2.079 . S
O290 C292 1.273 . S
C291 O287 1.246 . S
C291 O288 1.259 . S
C292 O289 1.252 . S
C292 O290 1.273 . S
O293 Mg280 2.010 . S
O293 C285 1.249 . S
Mg294 O295 2.028 1_554 S
Mg294 O301 1.986 . S
Mg294 O303 2.114 . S
Mg294 O304 2.251 . S
Mg294 O307 2.010 . S
O295 Mg294 2.028 1_556 S
O295 C298 1.250 . S
O296 Mg297 2.028 1_556 S
O296 C298 1.248 . S
Mg297 O296 2.028 1_554 S
Mg297 O302 2.032 . S
Mg297 O304 2.079 . S
C298 O295 1.250 . S
C298 O296 1.248 . S
C299 O300 1.264 1_556 S
C299 O307 1.249 1_556 S
O300 C299 1.264 1_554 S
O301 Mg294 1.986 . S
O301 C305 1.246 . S
O302 Mg297 2.032 . S
O302 C305 1.259 . S
O303 Mg294 2.114 . S
O303 C306 1.252 . S
O304 Mg294 2.251 . S
O304 Mg297 2.079 . S
O304 C306 1.273 . S
C305 O301 1.246 . S
C305 O302 1.259 . S
C306 O303 1.252 . S
C306 O304 1.273 . S
O307 Mg294 2.010 . S
O307 C299 1.249 1_554 S
Mg308 O309 2.028 1_554 S
Mg308 O315 1.986 . S
Mg308 O317 2.114 . S
Mg308 O318 2.251 . S
Mg308 O321 2.010 . S
O309 Mg308 2.028 1_556 S
O309 C312 1.250 . S
O310 Mg311 2.028 1_556 S
O310 C312 1.248 . S
Mg311 O310 2.028 1_554 S
Mg311 O316 2.032 . S
Mg311 O318 2.079 . S
C312 O309 1.250 . S
C312 O310 1.248 . S
C313 O314 1.264 . S
C313 O321 1.249 . S
O314 C313 1.264 . S
O315 Mg308 1.986 . S
O315 C319 1.246 . S
O316 Mg311 2.032 . S
O316 C319 1.259 . S
O317 Mg308 2.114 . S
O317 C320 1.252 . S
O318 Mg308 2.251 . S
O318 Mg311 2.079 . S
O318 C320 1.273 . S
C319 O315 1.246 . S
C319 O316 1.259 . S
C320 O317 1.252 . S
C320 O318 1.273 . S
O321 Mg308 2.010 . S
O321 C313 1.249 . S
Mg322 O323 2.028 1_554 S
Mg322 O329 1.986 . S
Mg322 O331 2.114 . S
Mg322 O332 2.251 . S
Mg322 O335 2.010 . S
O323 Mg322 2.028 1_556 S
O323 C326 1.250 . S
O324 Mg325 2.028 1_556 S
O324 C326 1.248 . S
Mg325 O324 2.028 1_554 S
Mg325 O330 2.032 . S
Mg325 O332 2.079 . S
C326 O323 1.250 . S
C326 O324 1.248 . S
C327 O328 1.264 . S
C327 O335 1.249 . S
O328 C327 1.264 . S
O329 Mg322 1.986 . S
O329 C333 1.246 . S
O330 Mg325 2.032 . S
O330 C333 1.259 . S
O331 Mg322 2.114 . S
O331 C334 1.252 . S
O332 Mg322 2.251 . S
O332 Mg325 2.079 . S
O332 C334 1.273 . S
C333 O329 1.246 . S
C333 O330 1.259 . S
C334 O331 1.252 . S
C334 O332 1.273 . S
O335 Mg322 2.010 . S
O335 C327 1.249 . S
Mg336 O337 2.028 . S
Mg336 O343 1.986 . S
Mg336 O345 2.114 . S
Mg336 O346 2.251 . S
Mg336 O349 2.010 . S
O337 Mg336 2.028 . S
O337 C340 1.250 . S
O338 Mg339 2.028 . S
O338 C340 1.248 . S
Mg339 O338 2.028 . S
Mg339 O344 2.032 . S
Mg339 O346 2.079 . S
C340 O337 1.250 . S
C340 O338 1.248 . S
C341 O342 1.264 . S
C341 O349 1.249 . S
O342 C341 1.264 . S
O343 Mg336 1.986 . S
O343 C347 1.246 . S
O344 Mg339 2.032 . S
O344 C347 1.259 . S
O345 Mg336 2.114 . S
O345 C348 1.252 . S
O346 Mg336 2.251 . S
O346 Mg339 2.079 . S
O346 C348 1.273 . S
C347 O343 1.246 . S
C347 O344 1.259 . S
C348 O345 1.252 . S
C348 O346 1.273 . S
O349 Mg336 2.010 . S
O349 C341 1.249 . S
Mg350 O351 2.028 . S
Mg350 O357 1.986 . S
Mg350 O359 2.114 . S
Mg350 O360 2.251 . S
Mg350 O363 2.010 . S
O351 Mg350 2.028 . S
O351 C354 1.250 . S
O352 Mg353 2.028 . S
O352 C354 1.248 . S
Mg353 O352 2.028 . S
Mg353 O358 2.032 . S
Mg353 O360 2.079 . S
C354 O351 1.250 . S
C354 O352 1.248 . S
C355 O356 1.264 . S
C355 O363 1.249 . S
O356 C355 1.264 . S
O357 Mg350 1.986 . S
O357 C361 1.246 . S
O358 Mg353 2.032 . S
O358 C361 1.259 . S
O359 Mg350 2.114 . S
O359 C362 1.252 . S
O360 Mg350 2.251 . S
O360 Mg353 2.079 . S
O360 C362 1.273 . S
C361 O357 1.246 . S
C361 O358 1.259 . S
C362 O359 1.252 . S
C362 O360 1.273 . S
O363 Mg350 2.010 . S
O363 C355 1.249 . S
Mg364 O365 2.028 . S
Mg364 O371 1.986 . S
Mg364 O373 2.114 . S
Mg364 O374 2.251 . S
Mg364 O377 2.010 . S
O365 Mg364 2.028 . S
O365 C368 1.250 . S
O366 Mg367 2.028 . S
O366 C368 1.248 . S
Mg367 O366 2.028 . S
Mg367 O372 2.032 . S
Mg367 O374 2.079 . S
C368 O365 1.250 . S
C368 O366 1.248 . S
C369 O370 1.264 . S
C369 O377 1.249 . S
O370 C369 1.264 . S
O371 Mg364 1.986 . S
O371 C375 1.246 . S
O372 Mg367 2.032 . S
O372 C375 1.259 . S
O373 Mg364 2.114 . S
O373 C376 1.252 . S
O374 Mg364 2.251 . S
O374 Mg367 2.079 . S
O374 C376 1.273 . S
C375 O371 1.246 . S
C375 O372 1.259 . S
C376 O373 1.252 . S
C376 O374 1.273 . S
O377 Mg364 2.010 . S
O377 C369 1.249 . S
Mg378 O379 2.028 . S
Mg378 O385 1.986 . S
Mg378 O387 2.114 1_556 S
Mg378 O388 2.251 1_556 S
Mg378 O391 2.010 . S
O379 Mg378 2.028 . S
O379 C382 1.250 1_556 S
O380 Mg381 2.028 . S
O380 C382 1.248 . S
Mg381 O380 2.028 . S
Mg381 O386 2.032 1_554 S
Mg381 O388 2.079 . S
C382 O379 1.250 1_554 S
C382 O380 1.248 . S
C383 O384 1.264 . S
C383 O391 1.249 . S
O384 C383 1.264 . S
O385 Mg378 1.986 . S
O385 C389 1.246 . S
O386 Mg381 2.032 1_556 S
O386 C389 1.259 . S
O387 Mg378 2.114 1_554 S
O387 C390 1.252 . S
O388 Mg378 2.251 1_554 S
O388 Mg381 2.079 . S
O388 C390 1.273 . S
C389 O385 1.246 . S
C389 O386 1.259 . S
C390 O387 1.252 . S
C390 O388 1.273 . S
O391 Mg378 2.010 . S
O391 C383 1.249 . S
Mg392 O393 2.028 1_556 S
Mg392 O399 1.986 1_556 S
Mg392 O401 2.114 . S
Mg392 O402 2.251 . S
Mg392 O405 2.010 1_556 S
O393 Mg392 2.028 1_554 S
O393 C396 1.250 1_554 S
O394 Mg395 2.028 . S
O394 C396 1.248 . S
Mg395 O394 2.028 . S
Mg395 O400 2.032 . S
Mg395 O402 2.079 . S
C396 O393 1.250 1_556 S
C396 O394 1.248 . S
C397 O398 1.264 . S
C397 O405 1.249 . S
O398 C397 1.264 . S
O399 Mg392 1.986 1_554 S
O399 C403 1.246 1_554 S
O400 Mg395 2.032 . S
O400 C403 1.259 . S
O401 Mg392 2.114 . S
O401 C404 1.252 . S
O402 Mg392 2.251 . S
O402 Mg395 2.079 . S
O402 C404 1.273 . S
C403 O399 1.246 1_556 S
C403 O400 1.259 . S
C404 O401 1.252 . S
C404 O402 1.273 . S
O405 Mg392 2.010 1_554 S
O405 C397 1.249 . S
Mg406 O407 2.029 . S
Mg406 O413 1.986 . S
Mg406 O415 2.114 1_556 S
Mg406 O416 2.251 1_556 S
Mg406 O419 2.010 . S
O407 Mg406 2.029 . S
O407 C410 1.249 1_556 S
O408 Mg409 2.028 . S
O408 C410 1.248 . S
Mg409 O408 2.028 . S
Mg409 O414 2.032 1_554 S
Mg409 O416 2.079 . S
C410 O407 1.249 1_554 S
C410 O408 1.248 . S
C411 O412 1.264 . S
C411 O419 1.249 . S
O412 C411 1.264 . S
O413 Mg406 1.986 . S
O413 C417 1.246 . S
O414 Mg409 2.032 1_556 S
O414 C417 1.259 . S
O415 Mg406 2.114 1_554 S
O415 C418 1.252 . S
O416 Mg406 2.251 1_554 S
O416 Mg409 2.079 . S
O416 C418 1.273 . S
C417 O413 1.246 . S
C417 O414 1.259 . S
C418 O415 1.252 . S
C418 O416 1.273 . S
O419 Mg406 2.010 . S
O419 C411 1.249 . S
Mg420 O421 2.028 . S
Mg420 O427 1.986 . S
Mg420 O429 2.114 . S
Mg420 O430 2.251 . S
Mg420 O433 2.010 . S
O421 Mg420 2.028 . S
O421 C424 1.250 . S
O422 Mg423 2.028 . S
O422 C424 1.248 . S
Mg423 O422 2.028 . S
Mg423 O428 2.032 . S
Mg423 O430 2.079 . S
C424 O421 1.250 . S
C424 O422 1.248 . S
C425 O426 1.264 . S
C425 O433 1.249 . S
O426 C425 1.264 . S
O427 Mg420 1.986 . S
O427 C431 1.246 . S
O428 Mg423 2.032 . S
O428 C431 1.259 . S
O429 Mg420 2.114 . S
O429 C432 1.252 . S
O430 Mg420 2.251 . S
O430 Mg423 2.079 . S
O430 C432 1.273 . S
C431 O427 1.246 . S
C431 O428 1.259 . S
C432 O429 1.252 . S
C432 O430 1.273 . S
O433 Mg420 2.010 . S
O433 C425 1.249 . S
Mg434 O435 2.028 . S
Mg434 O441 1.986 . S
Mg434 O443 2.114 . S
Mg434 O444 2.251 . S
Mg434 O447 2.010 . S
O435 Mg434 2.028 . S
O435 C438 1.250 . S
O436 Mg437 2.028 . S
O436 C438 1.248 . S
Mg437 O436 2.028 . S
Mg437 O442 2.032 . S
Mg437 O444 2.079 . S
C438 O435 1.250 . S
C438 O436 1.248 . S
C439 O440 1.264 . S
C439 O447 1.249 . S
O440 C439 1.264 . S
O441 Mg434 1.986 . S
O441 C445 1.246 . S
O442 Mg437 2.032 . S
O442 C445 1.259 . S
O443 Mg434 2.114 . S
O443 C446 1.252 . S
O444 Mg434 2.251 . S
O444 Mg437 2.079 . S
O444 C446 1.273 . S
C445 O441 1.246 . S
C445 O442 1.259 . S
C446 O443 1.252 . S
C446 O444 1.273 . S
O447 Mg434 2.010 . S
O447 C439 1.249 . S
Mg448 O449 2.028 . S
Mg448 O455 1.986 . S
Mg448 O457 2.114 . S
Mg448 O458 2.251 . S
Mg448 O461 2.010 . S
O449 Mg448 2.028 . S
O449 C452 1.250 . S
O450 Mg451 2.028 . S
O450 C452 1.248 . S
Mg451 O450 2.028 . S
Mg451 O456 2.032 . S
Mg451 O458 2.079 . S
C452 O449 1.250 . S
C452 O450 1.248 . S
C453 O454 1.264 . S
C453 O461 1.249 . S
O454 C453 1.264 . S
O455 Mg448 1.986 . S
O455 C459 1.246 . S
O456 Mg451 2.032 . S
O456 C459 1.259 . S
O457 Mg448 2.114 . S
O457 C460 1.252 . S
O458 Mg448 2.251 . S
O458 Mg451 2.079 . S
O458 C460 1.273 . S
C459 O455 1.246 . S
C459 O456 1.259 . S
C460 O457 1.252 . S
C460 O458 1.273 . S
O461 Mg448 2.010 . S
O461 C453 1.249 . S
Mg462 O463 2.028 . S
Mg462 O469 1.986 . S
Mg462 O471 2.114 . S
Mg462 O472 2.251 . S
Mg462 O475 2.010 . S
O463 Mg462 2.028 . S
O463 C466 1.250 . S
O464 Mg465 2.028 . S
O464 C466 1.248 . S
Mg465 O464 2.028 . S
Mg465 O470 2.032 . S
Mg465 O472 2.079 . S
C466 O463 1.250 . S
C466 O464 1.248 . S
C467 O468 1.264 . S
C467 O475 1.249 . S
O468 C467 1.264 . S
O469 Mg462 1.986 . S
O469 C473 1.246 . S
O470 Mg465 2.032 . S
O470 C473 1.259 . S
O471 Mg462 2.114 . S
O471 C474 1.252 . S
O472 Mg462 2.251 . S
O472 Mg465 2.079 . S
O472 C474 1.273 . S
C473 O469 1.246 . S
C473 O470 1.259 . S
C474 O471 1.252 . S
C474 O472 1.273 . S
O475 Mg462 2.010 . S
O475 C467 1.249 . S
Mg476 O477 2.028 . S
Mg476 O483 1.986 . S
Mg476 O485 2.114 . S
Mg476 O486 2.251 . S
Mg476 O489 2.010 . S
O477 Mg476 2.028 . S
O477 C480 1.250 . S
O478 Mg479 2.028 . S
O478 C480 1.248 . S
Mg479 O478 2.028 . S
Mg479 O484 2.032 . S
Mg479 O486 2.079 . S
C480 O477 1.250 . S
C480 O478 1.248 . S
C481 O482 1.264 . S
C481 O489 1.249 . S
O482 C481 1.264 . S
O483 Mg476 1.986 . S
O483 C487 1.246 . S
O484 Mg479 2.032 . S
O484 C487 1.259 . S
O485 Mg476 2.114 . S
O485 C488 1.252 . S
O486 Mg476 2.251 . S
O486 Mg479 2.079 . S
O486 C488 1.273 . S
C487 O483 1.246 . S
C487 O484 1.259 . S
C488 O485 1.252 . S
C488 O486 1.273 . S
O489 Mg476 2.010 . S
O489 C481 1.249 . S
Mg490 O491 2.028 . S
Mg490 O497 1.986 . S
Mg490 O499 2.114 . S
Mg490 O500 2.251 . S
Mg490 O503 2.010 . S
O491 Mg490 2.028 . S
O491 C494 1.250 . S
O492 Mg493 2.028 . S
O492 C494 1.248 . S
Mg493 O492 2.028 . S
Mg493 O498 2.032 . S
Mg493 O500 2.079 . S
C494 O491 1.250 . S
C494 O492 1.248 . S
C495 O496 1.264 . S
C495 O503 1.249 . S
O496 C495 1.264 . S
O497 Mg490 1.986 . S
O497 C501 1.246 . S
O498 Mg493 2.032 . S
O498 C501 1.259 . S
O499 Mg490 2.114 . S
O499 C502 1.252 . S
O500 Mg490 2.251 . S
O500 Mg493 2.079 . S
O500 C502 1.273 . S
C501 O497 1.246 . S
C501 O498 1.259 . S
C502 O499 1.252 . S
C502 O500 1.273 . S
O503 Mg490 2.010 . S
O503 C495 1.249 . S
C504 C505 1.369 . S
C504 C506 1.419 . S
C504 H508 0.930 . S
C505 C504 1.369 . S
C505 C514 1.429 . S
C506 C504 1.419 . S
C506 C507 1.363 . S
C506 H509 0.929 . S
C507 C506 1.363 . S
C507 C513 1.428 . S
H508 C504 0.930 . S
H509 C506 0.929 . S
S510 N511 1.613 . S
S510 N512 1.610 . S
N511 S510 1.613 . S
N511 C514 1.350 . S
N512 S510 1.610 . S
N512 C513 1.351 . S
C513 C507 1.428 . S
C513 N512 1.351 . S
C513 C514 1.434 . S
C514 C505 1.429 . S
C514 N511 1.350 . S
C514 C513 1.434 . S
C515 C516 1.369 . S
C515 C517 1.419 1_545 S
C515 H519 0.930 . S
C516 C515 1.369 . S
C516 C525 1.429 . S
C517 C515 1.419 1_565 S
C517 C518 1.363 . S
C517 H520 0.929 . S
C518 C517 1.363 . S
C518 C524 1.428 . S
H519 C515 0.930 . S
H520 C517 0.929 . S
S521 N522 1.613 1_565 S
S521 N523 1.610 . S
N522 S521 1.613 1_545 S
N522 C525 1.350 . S
N523 S521 1.610 . S
N523 C524 1.351 . S
C524 C518 1.428 . S
C524 N523 1.351 . S
C524 C525 1.434 1_565 S
C525 C516 1.429 . S
C525 N522 1.350 . S
C525 C524 1.434 1_545 S
C526 C527 1.369 . S
C526 C528 1.419 1_655 S
C526 H530 0.930 . S
C527 C526 1.369 . S
C527 C536 1.429 . S
C528 C526 1.419 1_455 S
C528 C529 1.363 . S
C528 H531 0.929 . S
C529 C528 1.363 . S
C529 C535 1.428 . S
H530 C526 0.930 . S
H531 C528 0.929 . S
S532 N533 1.613 1_455 S
S532 N534 1.610 . S
N533 S532 1.613 1_655 S
N533 C536 1.350 . S
N534 S532 1.610 . S
N534 C535 1.351 . S
C535 C529 1.428 . S
C535 N534 1.351 . S
C535 C536 1.434 1_455 S
C536 C527 1.429 . S
C536 N533 1.350 . S
C536 C535 1.434 1_655 S
C537 C538 1.369 . S
C537 C539 1.419 . S
C537 H541 0.930 . S
C538 C537 1.369 . S
C538 C547 1.429 . S
C539 C537 1.419 . S
C539 C540 1.363 . S
C539 H542 0.929 . S
C540 C539 1.363 . S
C540 C546 1.428 . S
H541 C537 0.930 . S
H542 C539 0.929 . S
S543 N544 1.613 . S
S543 N545 1.610 . S
N544 S543 1.613 . S
N544 C547 1.350 . S
N545 S543 1.610 . S
N545 C546 1.351 . S
C546 C540 1.428 . S
C546 N545 1.351 . S
C546 C547 1.434 . S
C547 C538 1.429 . S
C547 N544 1.350 . S
C547 C546 1.434 . S
C548 C549 1.369 . S
C548 C550 1.419 1_545 S
C548 H552 0.930 . S
C549 C548 1.369 . S
C549 C558 1.426 . S
C550 C548 1.419 1_565 S
C550 C551 1.363 . S
C550 H553 0.929 . S
C551 C550 1.363 . S
C551 C557 1.428 . S
H552 C548 0.930 . S
H553 C550 0.929 . S
S554 N555 1.613 . S
S554 N556 1.610 . S
N555 S554 1.613 . S
N555 C558 1.350 1_565 S
N556 S554 1.610 . S
N556 C557 1.351 . S
C557 C551 1.428 . S
C557 N556 1.351 . S
C557 C558 1.438 1_565 S
C558 C549 1.426 . S
C558 N555 1.350 1_545 S
C558 C557 1.438 1_545 S
C559 C560 1.369 . S
C559 C561 1.419 1_455 S
C559 H563 0.930 . S
C560 C559 1.369 . S
C560 C569 1.429 . S
C561 C559 1.419 1_655 S
C561 C562 1.363 . S
C561 H564 0.929 . S
C562 C561 1.363 . S
C562 C568 1.428 . S
H563 C559 0.930 . S
H564 C561 0.929 . S
S565 N566 1.613 1_655 S
S565 N567 1.610 . S
N566 S565 1.613 1_455 S
N566 C569 1.350 . S
N567 S565 1.610 . S
N567 C568 1.351 . S
C568 C562 1.428 . S
C568 N567 1.351 . S
C568 C569 1.434 1_655 S
C569 C560 1.429 . S
C569 N566 1.350 . S
C569 C568 1.434 1_455 S
C570 C571 1.369 . S
C570 C572 1.419 . S
C570 H574 0.930 . S
C571 C570 1.369 . S
C571 C580 1.429 . S
C572 C570 1.419 . S
C572 C573 1.363 . S
C572 H575 0.929 . S
C573 C572 1.363 . S
C573 C579 1.428 . S
H574 C570 0.930 . S
H575 C572 0.929 . S
S576 N577 1.613 . S
S576 N578 1.610 . S
N577 S576 1.613 . S
N577 C580 1.350 . S
N578 S576 1.610 . S
N578 C579 1.351 . S
C579 C573 1.428 . S
C579 N578 1.351 . S
C579 C580 1.434 . S
C580 C571 1.429 . S
C580 N577 1.350 . S
C580 C579 1.434 . S
C581 C582 1.369 . S
C581 C583 1.419 . S
C581 H585 0.930 . S
C582 C581 1.369 . S
C582 C591 1.429 . S
C583 C581 1.419 . S
C583 C584 1.363 . S
C583 H586 0.929 . S
C584 C583 1.363 . S
C584 C590 1.428 . S
H585 C581 0.930 . S
H586 C583 0.929 . S
S587 N588 1.613 . S
S587 N589 1.610 . S
N588 S587 1.613 . S
N588 C591 1.350 . S
N589 S587 1.610 . S
N589 C590 1.351 . S
C590 C584 1.428 . S
C590 N589 1.351 . S
C590 C591 1.434 . S
C591 C582 1.429 . S
C591 N588 1.350 . S
C591 C590 1.434 . S
C592 C593 1.369 . S
C592 C594 1.419 . S
C592 H596 0.930 . S
C593 C592 1.369 . S
C593 C602 1.429 . S
C594 C592 1.419 . S
C594 C595 1.363 . S
C594 H597 0.929 . S
C595 C594 1.363 . S
C595 C601 1.428 . S
H596 C592 0.930 . S
H597 C594 0.929 . S
S598 N599 1.613 . S
S598 N600 1.610 . S
N599 S598 1.613 . S
N599 C602 1.350 . S
N600 S598 1.610 . S
N600 C601 1.351 . S
C601 C595 1.428 . S
C601 N600 1.351 . S
C601 C602 1.434 . S
C602 C593 1.429 . S
C602 N599 1.350 . S
C602 C601 1.434 . S
C603 C604 1.369 . S
C603 C605 1.421 . S
C603 H607 0.930 . S
C604 C603 1.369 . S
C604 C613 1.429 . S
C605 C603 1.421 . S
C605 C606 1.365 . S
C605 H608 0.925 1_554 S
C606 C605 1.365 . S
C606 C612 1.428 . S
H607 C603 0.930 . S
H608 C605 0.925 1_556 S
S609 N610 1.613 . S
S609 N611 1.610 . S
N610 S609 1.613 . S
N610 C613 1.350 . S
N611 S609 1.610 . S
N611 C612 1.351 . S
C612 C606 1.428 . S
C612 N611 1.351 . S
C612 C613 1.434 . S
C613 C604 1.429 . S
C613 N610 1.350 . S
C613 C612 1.434 . S
C614 C615 1.369 . S
C614 C616 1.419 . S
C614 H618 0.930 1_554 S
C615 C614 1.369 . S
C615 C624 1.429 . S
C616 C614 1.419 . S
C616 C617 1.363 . S
C616 H619 0.929 . S
C617 C616 1.363 . S
C617 C623 1.428 . S
H618 C614 0.930 1_556 S
H619 C616 0.929 . S
S620 N621 1.613 . S
S620 N622 1.610 . S
N621 S620 1.613 . S
N621 C624 1.350 . S
N622 S620 1.610 . S
N622 C623 1.351 . S
C623 C617 1.428 . S
C623 N622 1.351 . S
C623 C624 1.434 . S
C624 C615 1.429 . S
C624 N621 1.350 . S
C624 C623 1.434 . S
C625 C626 1.369 . S
C625 C627 1.419 . S
C625 H629 0.930 . S
C626 C625 1.369 . S
C626 C635 1.429 . S
C627 C625 1.419 . S
C627 C628 1.363 . S
C627 H630 0.929 . S
C628 C627 1.363 . S
C628 C634 1.428 . S
H629 C625 0.930 . S
H630 C627 0.929 . S
S631 N632 1.613 . S
S631 N633 1.610 . S
N632 S631 1.613 . S
N632 C635 1.350 . S
N633 S631 1.610 . S
N633 C634 1.351 . S
C634 C628 1.428 . S
C634 N633 1.351 . S
C634 C635 1.434 . S
C635 C626 1.429 . S
C635 N632 1.350 . S
C635 C634 1.434 . S
C636 C637 1.369 . S
C636 C638 1.419 . S
C636 H640 0.930 . S
C637 C636 1.369 . S
C637 C646 1.429 . S
C638 C636 1.419 . S
C638 C639 1.363 . S
C638 H641 0.929 . S
C639 C638 1.363 . S
C639 C645 1.428 . S
H640 C636 0.930 . S
H641 C638 0.929 . S
S642 N643 1.613 . S
S642 N644 1.610 . S
N643 S642 1.613 . S
N643 C646 1.350 . S
N644 S642 1.610 . S
N644 C645 1.351 . S
C645 C639 1.428 . S
C645 N644 1.351 . S
C645 C646 1.434 . S
C646 C637 1.429 . S
C646 N643 1.350 . S
C646 C645 1.434 . S
C647 C648 1.369 . S
C647 C649 1.419 . S
C647 H651 0.930 . S
C648 C647 1.369 . S
C648 C657 1.429 . S
C649 C647 1.419 . S
C649 C650 1.363 . S
C649 H652 0.929 . S
C650 C649 1.363 . S
C650 C656 1.434 . S
H651 C647 0.930 . S
H652 C649 0.929 . S
S653 N654 1.613 . S
S653 N655 1.610 . S
N654 S653 1.613 . S
N654 C657 1.350 1_554 S
N655 S653 1.610 . S
N655 C656 1.339 1_554 S
C656 C650 1.434 . S
C656 N655 1.339 1_556 S
C656 C657 1.439 . S
C657 C648 1.429 . S
C657 N654 1.350 1_556 S
C657 C656 1.439 . S
C658 C659 1.369 . S
C658 C660 1.419 . S
C658 H662 0.930 . S
C659 C658 1.369 . S
C659 C668 1.429 . S
C660 C658 1.419 . S
C660 C661 1.363 . S
C660 H663 0.929 . S
C661 C660 1.363 . S
C661 C667 1.428 . S
H662 C658 0.930 . S
H663 C660 0.929 . S
S664 N665 1.613 . S
S664 N666 1.610 . S
N665 S664 1.613 . S
N665 C668 1.350 1_554 S
N666 S664 1.610 . S
N666 C667 1.351 1_554 S
C667 C661 1.428 . S
C667 N666 1.351 1_556 S
C667 C668 1.434 . S
C668 C659 1.429 . S
C668 N665 1.350 1_556 S
C668 C667 1.434 . S
C669 C670 1.369 . S
C669 C671 1.419 . S
C669 H673 0.930 . S
C670 C669 1.369 . S
C670 C679 1.429 . S
C671 C669 1.419 . S
C671 C672 1.363 . S
C671 H674 0.929 . S
C672 C671 1.363 . S
C672 C678 1.428 . S
H673 C669 0.930 . S
H674 C671 0.929 . S
S675 N676 1.613 . S
S675 N677 1.610 . S
N676 S675 1.613 . S
N676 C679 1.350 . S
N677 S675 1.610 . S
N677 C678 1.351 . S
C678 C672 1.428 . S
C678 N677 1.351 . S
C678 C679 1.434 . S
C679 C670 1.429 . S
C679 N676 1.350 . S
C679 C678 1.434 . S
C680 C681 1.369 . S
C680 C682 1.419 . S
C680 H684 0.930 . S
C681 C680 1.369 . S
C681 C690 1.429 . S
C682 C680 1.419 . S
C682 C683 1.363 . S
C682 H685 0.929 . S
C683 C682 1.363 . S
C683 C689 1.428 . S
H684 C680 0.930 . S
H685 C682 0.929 . S
S686 N687 1.613 . S
S686 N688 1.610 . S
N687 S686 1.613 . S
N687 C690 1.350 . S
N688 S686 1.610 . S
N688 C689 1.351 . S
C689 C683 1.428 . S
C689 N688 1.351 . S
C689 C690 1.434 . S
C690 C681 1.429 . S
C690 N687 1.350 . S
C690 C689 1.434 . S
C691 C692 1.369 . S
C691 C693 1.419 . S
C691 H695 0.930 . S
C692 C691 1.369 . S
C692 C701 1.429 . S
C693 C691 1.419 . S
C693 C694 1.363 . S
C693 H696 0.929 . S
C694 C693 1.363 . S
C694 C700 1.428 . S
H695 C691 0.930 . S
H696 C693 0.929 . S
S697 N698 1.613 . S
S697 N699 1.610 . S
N698 S697 1.613 . S
N698 C701 1.350 . S
N699 S697 1.610 . S
N699 C700 1.351 . S
C700 C694 1.428 . S
C700 N699 1.351 . S
C700 C701 1.434 . S
C701 C692 1.429 . S
C701 N698 1.350 . S
C701 C700 1.434 . S
C702 C703 1.369 . S
C702 C704 1.419 . S
C702 H706 0.930 . S
C703 C702 1.369 . S
C703 C712 1.429 . S
C704 C702 1.419 . S
C704 C705 1.363 1_556 S
C704 H707 0.929 . S
C705 C704 1.363 1_554 S
C705 C711 1.428 . S
H706 C702 0.930 . S
H707 C704 0.929 . S
S708 N709 1.613 1_554 S
S708 N710 1.610 . S
N709 S708 1.613 1_556 S
N709 C712 1.350 . S
N710 S708 1.610 . S
N710 C711 1.351 . S
C711 C705 1.428 . S
C711 N710 1.351 . S
C711 C712 1.434 1_554 S
C712 C703 1.429 . S
C712 N709 1.350 . S
C712 C711 1.434 1_556 S
C713 C714 1.369 . S
C713 C715 1.419 . S
C713 H717 0.930 1_556 S
C714 C713 1.369 . S
C714 C723 1.429 . S
C715 C713 1.419 . S
C715 C716 1.363 . S
C715 H718 0.929 . S
C716 C715 1.363 . S
C716 C722 1.428 . S
H717 C713 0.930 1_554 S
H718 C715 0.929 . S
S719 N720 1.613 . S
S719 N721 1.610 . S
N720 S719 1.613 . S
N720 C723 1.350 . S
N721 S719 1.610 . S
N721 C722 1.351 . S
C722 C716 1.428 . S
C722 N721 1.351 . S
C722 C723 1.434 . S
C723 C714 1.429 . S
C723 N720 1.350 . S
C723 C722 1.434 . S
C724 C725 1.361 1_556 S
C724 C726 1.419 . S
C724 H728 0.930 . S
C725 C724 1.361 1_554 S
C725 C734 1.430 . S
C726 C724 1.419 . S
C726 C727 1.363 . S
C726 H729 0.929 . S
C727 C726 1.363 . S
C727 C733 1.428 . S
H728 C724 0.930 . S
H729 C726 0.929 . S
S730 N731 1.613 . S
S730 N732 1.610 1_554 S
N731 S730 1.613 . S
N731 C734 1.350 . S
N732 S730 1.610 1_556 S
N732 C733 1.351 . S
C733 C727 1.428 . S
C733 N732 1.351 . S
C733 C734 1.434 1_556 S
C734 C725 1.430 . S
C734 N731 1.350 . S
C734 C733 1.434 1_554 S
C735 C736 1.369 . S
C735 C737 1.419 . S
C735 H739 0.930 . S
C736 C735 1.369 . S
C736 C745 1.429 . S
C737 C735 1.419 . S
C737 C738 1.363 . S
C737 H740 0.929 . S
C738 C737 1.363 . S
C738 C744 1.428 . S
H739 C735 0.930 . S
H740 C737 0.929 . S
S741 N742 1.613 . S
S741 N743 1.610 . S
N742 S741 1.613 . S
N742 C745 1.350 . S
N743 S741 1.610 . S
N743 C744 1.351 . S
C744 C738 1.428 . S
C744 N743 1.351 . S
C744 C745 1.434 . S
C745 C736 1.429 . S
C745 N742 1.350 . S
C745 C744 1.434 . S
C746 C747 1.369 . S
C746 C748 1.419 . S
C746 H750 0.930 . S
C747 C746 1.369 . S
C747 C756 1.429 . S
C748 C746 1.419 . S
C748 C749 1.363 . S
C748 H751 0.929 . S
C749 C748 1.363 . S
C749 C755 1.428 . S
H750 C746 0.930 . S
H751 C748 0.929 . S
S752 N753 1.613 . S
S752 N754 1.610 . S
N753 S752 1.613 . S
N753 C756 1.350 . S
N754 S752 1.610 . S
N754 C755 1.351 . S
C755 C749 1.428 . S
C755 N754 1.351 . S
C755 C756 1.434 . S
C756 C747 1.429 . S
C756 N753 1.350 . S
C756 C755 1.434 . S
C757 C758 1.369 . S
C757 C759 1.419 . S
C757 H761 0.930 . S
C758 C757 1.369 . S
C758 C767 1.429 . S
C759 C757 1.419 . S
C759 C760 1.363 . S
C759 H762 0.929 . S
C760 C759 1.363 . S
C760 C766 1.428 . S
H761 C757 0.930 . S
H762 C759 0.929 . S
S763 N764 1.613 . S
S763 N765 1.610 . S
N764 S763 1.613 . S
N764 C767 1.350 . S
N765 S763 1.610 . S
N765 C766 1.351 . S
C766 C760 1.428 . S
C766 N765 1.351 . S
C766 C767 1.434 . S
C767 C758 1.429 . S
C767 N764 1.350 . S
C767 C766 1.434 . S
C768 C769 1.369 . S
C768 C770 1.419 1_556 S
C768 H772 0.930 . S
C769 C768 1.369 . S
C769 C778 1.429 1_556 S
C770 C768 1.419 1_554 S
C770 C771 1.363 . S
C770 H773 0.929 . S
C771 C770 1.363 . S
C771 C777 1.428 . S
H772 C768 0.930 . S
H773 C770 0.929 . S
S774 N775 1.613 . S
S774 N776 1.610 . S
N775 S774 1.613 . S
N775 C778 1.350 . S
N776 S774 1.610 . S
N776 C777 1.351 . S
C777 C771 1.428 . S
C777 N776 1.351 . S
C777 C778 1.434 . S
C778 C769 1.429 1_554 S
C778 N775 1.350 . S
C778 C777 1.434 . S
C779 C780 1.369 . S
C779 C781 1.419 1_556 S
C779 H783 0.930 . S
C780 C779 1.369 . S
C780 C789 1.429 1_556 S
C781 C779 1.419 1_554 S
C781 C782 1.363 . S
C781 H784 0.929 . S
C782 C781 1.363 . S
C782 C788 1.428 . S
H783 C779 0.930 . S
H784 C781 0.929 . S
S785 N786 1.613 . S
S785 N787 1.610 . S
N786 S785 1.613 . S
N786 C789 1.350 . S
N787 S785 1.610 . S
N787 C788 1.351 . S
C788 C782 1.428 . S
C788 N787 1.351 . S
C788 C789 1.434 . S
C789 C780 1.429 1_554 S
C789 N786 1.350 . S
C789 C788 1.434 . S
C790 C791 1.369 . S
C790 C792 1.419 . S
C790 H794 0.930 . S
C791 C790 1.369 . S
C791 C800 1.429 . S
C792 C790 1.419 . S
C792 C793 1.363 . S
C792 H795 0.929 . S
C793 C792 1.363 . S
C793 C799 1.428 . S
H794 C790 0.930 . S
H795 C792 0.929 . S
S796 N797 1.613 1_556 S
S796 N798 1.610 . S
N797 S796 1.613 1_554 S
N797 C800 1.350 . S
N798 S796 1.610 . S
N798 C799 1.351 1_556 S
C799 C793 1.428 . S
C799 N798 1.351 1_554 S
C799 C800 1.434 . S
C800 C791 1.429 . S
C800 N797 1.350 . S
C800 C799 1.434 . S
C801 C802 1.369 . S
C801 C803 1.419 . S
C801 H805 0.930 . S
C802 C801 1.369 . S
C802 C811 1.429 . S
C803 C801 1.419 . S
C803 C804 1.363 . S
C803 H806 0.929 . S
C804 C803 1.363 . S
C804 C810 1.428 . S
H805 C801 0.930 . S
H806 C803 0.929 . S
S807 N808 1.613 . S
S807 N809 1.610 . S
N808 S807 1.613 . S
N808 C811 1.350 . S
N809 S807 1.610 . S
N809 C810 1.351 . S
C810 C804 1.428 . S
C810 N809 1.351 . S
C810 C811 1.434 . S
C811 C802 1.429 . S
C811 N808 1.350 . S
C811 C810 1.434 . S
C812 C813 1.369 . S
C812 C814 1.419 . S
C812 H816 0.930 . S
C813 C812 1.369 . S
C813 C822 1.429 . S
C814 C812 1.419 . S
C814 C815 1.363 . S
C814 H817 0.929 . S
C815 C814 1.363 . S
C815 C821 1.428 . S
H816 C812 0.930 . S
H817 C814 0.929 . S
S818 N819 1.613 . S
S818 N820 1.610 . S
N819 S818 1.613 . S
N819 C822 1.350 . S
N820 S818 1.610 . S
N820 C821 1.351 . S
C821 C815 1.428 . S
C821 N820 1.351 . S
C821 C822 1.434 . S
C822 C813 1.429 . S
C822 N819 1.350 . S
C822 C821 1.434 . S
C823 C824 1.369 . S
C823 C825 1.419 . S
C823 H827 0.930 . S
C824 C823 1.369 . S
C824 C833 1.429 . S
C825 C823 1.419 . S
C825 C826 1.363 . S
C825 H828 0.929 . S
C826 C825 1.363 . S
C826 C832 1.428 . S
H827 C823 0.930 . S
H828 C825 0.929 . S
S829 N830 1.613 . S
S829 N831 1.610 . S
N830 S829 1.613 . S
N830 C833 1.350 . S
N831 S829 1.610 . S
N831 C832 1.351 . S
C832 C826 1.428 . S
C832 N831 1.351 . S
C832 C833 1.434 . S
C833 C824 1.429 . S
C833 N830 1.350 . S
C833 C832 1.434 . S
C834 C835 1.369 . S
C834 C836 1.419 . S
C834 H838 0.930 . S
C835 C834 1.369 . S
C835 C844 1.429 . S
C836 C834 1.419 . S
C836 C837 1.363 . S
C836 H839 0.929 . S
C837 C836 1.363 . S
C837 C843 1.428 . S
H838 C834 0.930 . S
H839 C836 0.929 . S
S840 N841 1.613 . S
S840 N842 1.610 . S
N841 S840 1.613 . S
N841 C844 1.350 . S
N842 S840 1.610 . S
N842 C843 1.351 . S
C843 C837 1.428 . S
C843 N842 1.351 . S
C843 C844 1.434 . S
C844 C835 1.429 . S
C844 N841 1.350 . S
C844 C843 1.434 . S
C845 C846 1.369 . S
C845 C847 1.419 . S
C845 H849 0.930 . S
C846 C845 1.369 . S
C846 C855 1.429 . S
C847 C845 1.419 . S
C847 C848 1.363 . S
C847 H850 0.929 . S
C848 C847 1.363 . S
C848 C854 1.428 . S
H849 C845 0.930 . S
H850 C847 0.929 . S
S851 N852 1.613 . S
S851 N853 1.610 . S
N852 S851 1.613 . S
N852 C855 1.350 . S
N853 S851 1.610 . S
N853 C854 1.351 . S
C854 C848 1.428 . S
C854 N853 1.351 . S
C854 C855 1.434 . S
C855 C846 1.429 . S
C855 N852 1.350 . S
C855 C854 1.434 . S
C856 C857 1.369 . S
C856 C858 1.419 . S
C856 H860 0.930 . S
C857 C856 1.369 . S
C857 C866 1.429 . S
C858 C856 1.419 . S
C858 C859 1.363 . S
C858 H861 0.929 . S
C859 C858 1.363 . S
C859 C865 1.428 . S
H860 C856 0.930 . S
H861 C858 0.929 . S
S862 N863 1.613 . S
S862 N864 1.610 . S
N863 S862 1.613 . S
N863 C866 1.350 . S
N864 S862 1.610 . S
N864 C865 1.351 . S
C865 C859 1.428 . S
C865 N864 1.351 . S
C865 C866 1.434 . S
C866 C857 1.429 . S
C866 N863 1.350 . S
C866 C865 1.434 . S
C867 C868 1.369 . S
C867 C869 1.419 . S
C867 H871 0.930 . S
C868 C867 1.369 . S
C868 C877 1.429 . S
C869 C867 1.419 . S
C869 C870 1.363 . S
C869 H872 0.929 . S
C870 C869 1.363 . S
C870 C876 1.428 . S
H871 C867 0.930 . S
H872 C869 0.929 . S
S873 N874 1.613 1_554 S
S873 N875 1.610 . S
N874 S873 1.613 1_556 S
N874 C877 1.350 . S
N875 S873 1.610 . S
N875 C876 1.351 1_554 S
C876 C870 1.428 . S
C876 N875 1.351 1_556 S
C876 C877 1.434 . S
C877 C868 1.429 . S
C877 N874 1.350 . S
C877 C876 1.434 . S
C878 C879 1.369 1_556 S
C878 C880 1.419 . S
C878 H882 0.930 . S
C879 C878 1.369 1_554 S
C879 C888 1.429 . S
C880 C878 1.419 . S
C880 C881 1.363 . S
C880 H883 0.929 . S
C881 C880 1.363 . S
C881 C887 1.428 . S
H882 C878 0.930 . S
H883 C880 0.929 . S
S884 N885 1.613 . S
S884 N886 1.610 1_554 S
N885 S884 1.613 . S
N885 C888 1.350 . S
N886 S884 1.610 1_556 S
N886 C887 1.351 . S
C887 C881 1.428 . S
C887 N886 1.351 . S
C887 C888 1.434 1_556 S
C888 C879 1.429 . S
C888 N885 1.350 . S
C888 C887 1.434 1_554 S
C889 C890 1.369 . S
C889 C891 1.419 . S
C889 H893 0.930 . S
C890 C889 1.369 . S
C890 C899 1.429 . S
C891 C889 1.419 . S
C891 C892 1.363 . S
C891 H894 0.929 . S
C892 C891 1.363 . S
C892 C898 1.428 . S
H893 C889 0.930 . S
H894 C891 0.929 . S
S895 N896 1.613 . S
S895 N897 1.610 1_556 S
N896 S895 1.613 . S
N896 C899 1.350 . S
N897 S895 1.610 1_554 S
N897 C898 1.351 1_554 S
C898 C892 1.428 . S
C898 N897 1.351 1_556 S
C898 C899 1.434 . S
C899 C890 1.429 . S
C899 N896 1.350 . S
C899 C898 1.434 . S
C900 C901 1.369 . S
C900 C902 1.419 . S
C900 H904 0.930 . S
C901 C900 1.369 . S
C901 C910 1.429 . S
C902 C900 1.419 . S
C902 C903 1.363 . S
C902 H905 0.929 . S
C903 C902 1.363 . S
C903 C909 1.428 . S
H904 C900 0.930 . S
H905 C902 0.929 . S
S906 N907 1.613 . S
S906 N908 1.610 . S
N907 S906 1.613 . S
N907 C910 1.350 . S
N908 S906 1.610 . S
N908 C909 1.351 . S
C909 C903 1.428 . S
C909 N908 1.351 . S
C909 C910 1.434 . S
C910 C901 1.429 . S
C910 N907 1.350 . S
C910 C909 1.434 . S
C911 C912 1.369 . S
C911 C913 1.419 . S
C911 H915 0.930 . S
C912 C911 1.369 . S
C912 C921 1.429 . S
C913 C911 1.419 . S
C913 C914 1.363 . S
C913 H916 0.929 . S
C914 C913 1.363 . S
C914 C920 1.428 . S
H915 C911 0.930 . S
H916 C913 0.929 . S
S917 N918 1.613 . S
S917 N919 1.610 . S
N918 S917 1.613 . S
N918 C921 1.350 . S
N919 S917 1.610 . S
N919 C920 1.351 . S
C920 C914 1.428 . S
C920 N919 1.351 . S
C920 C921 1.434 . S
C921 C912 1.429 . S
C921 N918 1.350 . S
C921 C920 1.434 . S
C922 C923 1.369 . S
C922 C924 1.419 . S
C922 H926 0.930 . S
C923 C922 1.369 . S
C923 C932 1.429 . S
C924 C922 1.419 . S
C924 C925 1.363 . S
C924 H927 0.929 . S
C925 C924 1.363 . S
C925 C931 1.428 . S
H926 C922 0.930 . S
H927 C924 0.929 . S
S928 N929 1.613 . S
S928 N930 1.610 . S
N929 S928 1.613 . S
N929 C932 1.350 . S
N930 S928 1.610 . S
N930 C931 1.351 . S
C931 C925 1.428 . S
C931 N930 1.351 . S
C931 C932 1.434 . S
C932 C923 1.429 . S
C932 N929 1.350 . S
C932 C931 1.434 . S
C933 C934 1.369 . S
C933 C935 1.419 . S
C933 H937 0.930 . S
C934 C933 1.369 . S
C934 C943 1.429 . S
C935 C933 1.419 . S
C935 C936 1.363 . S
C935 H938 0.929 . S
C936 C935 1.363 . S
C936 C942 1.428 . S
H937 C933 0.930 . S
H938 C935 0.929 . S
S939 N940 1.613 . S
S939 N941 1.610 . S
N940 S939 1.613 . S
N940 C943 1.350 . S
N941 S939 1.610 . S
N941 C942 1.351 . S
C942 C936 1.428 . S
C942 N941 1.351 . S
C942 C943 1.434 . S
C943 C934 1.429 . S
C943 N940 1.350 . S
C943 C942 1.434 . S
C944 C945 1.369 . S
C944 C946 1.419 . S
C944 H948 0.930 . S
C945 C944 1.369 . S
C945 C954 1.429 . S
C946 C944 1.419 . S
C946 C947 1.363 . S
C946 H949 0.929 . S
C947 C946 1.363 . S
C947 C953 1.428 . S
H948 C944 0.930 . S
H949 C946 0.929 . S
S950 N951 1.613 . S
S950 N952 1.610 . S
N951 S950 1.613 . S
N951 C954 1.350 . S
N952 S950 1.610 . S
N952 C953 1.351 . S
C953 C947 1.428 . S
C953 N952 1.351 . S
C953 C954 1.434 . S
C954 C945 1.429 . S
C954 N951 1.350 . S
C954 C953 1.434 . S
C955 C956 1.369 . S
C955 C957 1.419 . S
C955 H959 0.930 . S
C956 C955 1.369 . S
C956 C965 1.429 . S
C957 C955 1.419 . S
C957 C958 1.363 . S
C957 H960 0.929 . S
C958 C957 1.363 . S
C958 C964 1.428 . S
H959 C955 0.930 . S
H960 C957 0.929 . S
S961 N962 1.613 . S
S961 N963 1.610 . S
N962 S961 1.613 . S
N962 C965 1.350 . S
N963 S961 1.610 . S
N963 C964 1.351 . S
C964 C958 1.428 . S
C964 N963 1.351 . S
C964 C965 1.434 . S
C965 C956 1.429 . S
C965 N962 1.350 . S
C965 C964 1.434 . S
C966 C967 1.369 . S
C966 C968 1.419 . S
C966 H970 0.930 . S
C967 C966 1.369 . S
C967 C976 1.429 . S
C968 C966 1.419 . S
C968 C969 1.363 . S
C968 H971 0.929 . S
C969 C968 1.363 . S
C969 C975 1.428 . S
H970 C966 0.930 . S
H971 C968 0.929 . S
S972 N973 1.613 . S
S972 N974 1.610 . S
N973 S972 1.613 . S
N973 C976 1.350 . S
N974 S972 1.610 . S
N974 C975 1.351 . S
C975 C969 1.428 . S
C975 N974 1.351 . S
C975 C976 1.434 . S
C976 C967 1.429 . S
C976 N973 1.350 . S
C976 C975 1.434 . S
C977 C978 1.369 . S
C977 C979 1.419 . S
C977 H981 0.930 . S
C978 C977 1.369 . S
C978 C987 1.429 . S
C979 C977 1.419 . S
C979 C980 1.363 . S
C979 H982 0.929 . S
C980 C979 1.363 . S
C980 C986 1.428 . S
H981 C977 0.930 . S
H982 C979 0.929 . S
S983 N984 1.613 . S
S983 N985 1.610 . S
N984 S983 1.613 . S
N984 C987 1.350 . S
N985 S983 1.610 . S
N985 C986 1.351 . S
C986 C980 1.428 . S
C986 N985 1.351 . S
C986 C987 1.434 . S
C987 C978 1.429 . S
C987 N984 1.350 . S
C987 C986 1.434 . S
C988 C989 1.369 . S
C988 C990 1.419 . S
C988 H992 0.930 . S
C989 C988 1.369 . S
C989 C998 1.429 . S
C990 C988 1.419 . S
C990 C991 1.363 . S
C990 H993 0.929 . S
C991 C990 1.363 . S
C991 C997 1.428 . S
H992 C988 0.930 . S
H993 C990 0.929 . S
S994 N995 1.613 . S
S994 N996 1.610 . S
N995 S994 1.613 . S
N995 C998 1.350 . S
N996 S994 1.610 . S
N996 C997 1.351 . S
C997 C991 1.428 . S
C997 N996 1.351 . S
C997 C998 1.434 . S
C998 C989 1.429 . S
C998 N995 1.350 . S
C998 C997 1.434 . S
C999 C1000 1.369 . S
C999 C1001 1.419 . S
C999 H1003 0.930 . S
C1000 C999 1.369 . S
C1000 C1009 1.429 . S
C1001 C999 1.419 . S
C1001 C1002 1.363 . S
C1001 H1004 0.929 . S
C1002 C1001 1.363 . S
C1002 C1008 1.428 . S
H1003 C999 0.930 . S
H1004 C1001 0.929 . S
S1005 N1006 1.613 . S
S1005 N1007 1.610 . S
N1006 S1005 1.613 . S
N1006 C1009 1.350 . S
N1007 S1005 1.610 . S
N1007 C1008 1.351 . S
C1008 C1002 1.428 . S
C1008 N1007 1.351 . S
C1008 C1009 1.434 . S
C1009 C1000 1.429 . S
C1009 N1006 1.350 . S
C1009 C1008 1.434 . S
C1010 C1011 1.369 . S
C1010 C1012 1.419 . S
C1010 H1014 0.930 . S
C1011 C1010 1.369 . S
C1011 C1020 1.429 . S
C1012 C1010 1.419 . S
C1012 C1013 1.363 . S
C1012 H1015 0.929 . S
C1013 C1012 1.363 . S
C1013 C1019 1.428 . S
H1014 C1010 0.930 . S
H1015 C1012 0.929 . S
S1016 N1017 1.613 . S
S1016 N1018 1.610 . S
N1017 S1016 1.613 . S
N1017 C1020 1.350 . S
N1018 S1016 1.610 . S
N1018 C1019 1.351 . S
C1019 C1013 1.428 . S
C1019 N1018 1.351 . S
C1019 C1020 1.434 . S
C1020 C1011 1.429 . S
C1020 N1017 1.350 . S
C1020 C1019 1.434 . S
C1021 C1022 1.369 . S
C1021 C1023 1.419 . S
C1021 H1025 0.930 . S
C1022 C1021 1.369 . S
C1022 C1031 1.429 . S
C1023 C1021 1.419 . S
C1023 C1024 1.363 . S
C1023 H1026 0.929 . S
C1024 C1023 1.363 . S
C1024 C1030 1.428 . S
H1025 C1021 0.930 . S
H1026 C1023 0.929 . S
S1027 N1028 1.613 . S
S1027 N1029 1.610 . S
N1028 S1027 1.613 . S
N1028 C1031 1.350 . S
N1029 S1027 1.610 . S
N1029 C1030 1.351 . S
C1030 C1024 1.428 . S
C1030 N1029 1.351 . S
C1030 C1031 1.434 . S
C1031 C1022 1.429 . S
C1031 N1028 1.350 . S
C1031 C1030 1.434 . S
C1032 C1033 1.369 . S
C1032 C1034 1.419 . S
C1032 H1036 0.930 . S
C1033 C1032 1.369 . S
C1033 C1042 1.429 . S
C1034 C1032 1.419 . S
C1034 C1035 1.363 . S
C1034 H1037 0.929 . S
C1035 C1034 1.363 . S
C1035 C1041 1.428 . S
H1036 C1032 0.930 . S
H1037 C1034 0.929 . S
S1038 N1039 1.613 . S
S1038 N1040 1.610 . S
N1039 S1038 1.613 . S
N1039 C1042 1.350 . S
N1040 S1038 1.610 . S
N1040 C1041 1.351 . S
C1041 C1035 1.428 . S
C1041 N1040 1.351 . S
C1041 C1042 1.434 . S
C1042 C1033 1.429 . S
C1042 N1039 1.350 . S
C1042 C1041 1.434 . S
C1043 C1044 1.369 . S
C1043 C1045 1.419 . S
C1043 H1047 0.930 . S
C1044 C1043 1.369 . S
C1044 C1053 1.429 . S
C1045 C1043 1.419 . S
C1045 C1046 1.363 . S
C1045 H1048 0.929 . S
C1046 C1045 1.363 . S
C1046 C1052 1.428 . S
H1047 C1043 0.930 . S
H1048 C1045 0.929 . S
S1049 N1050 1.613 . S
S1049 N1051 1.610 . S
N1050 S1049 1.613 . S
N1050 C1053 1.350 . S
N1051 S1049 1.610 . S
N1051 C1052 1.351 . S
C1052 C1046 1.428 . S
C1052 N1051 1.351 . S
C1052 C1053 1.434 . S
C1053 C1044 1.429 . S
C1053 N1050 1.350 . S
C1053 C1052 1.434 . S
C1054 C1055 1.369 . S
C1054 C1056 1.419 . S
C1054 H1058 0.930 . S
C1055 C1054 1.369 . S
C1055 C1064 1.429 . S
C1056 C1054 1.419 . S
C1056 C1057 1.363 . S
C1056 H1059 0.929 . S
C1057 C1056 1.363 . S
C1057 C1063 1.428 . S
H1058 C1054 0.930 . S
H1059 C1056 0.929 . S
S1060 N1061 1.613 . S
S1060 N1062 1.610 . S
N1061 S1060 1.613 . S
N1061 C1064 1.350 . S
N1062 S1060 1.610 . S
N1062 C1063 1.351 . S
C1063 C1057 1.428 . S
C1063 N1062 1.351 . S
C1063 C1064 1.434 . S
C1064 C1055 1.429 . S
C1064 N1061 1.350 . S
C1064 C1063 1.434 . S
C1065 C1066 1.369 . S
C1065 C1067 1.419 . S
C1065 H1069 0.930 . S
C1066 C1065 1.369 . S
C1066 C1075 1.429 . S
C1067 C1065 1.419 . S
C1067 C1068 1.363 . S
C1067 H1070 0.929 . S
C1068 C1067 1.363 . S
C1068 C1074 1.428 . S
H1069 C1065 0.930 . S
H1070 C1067 0.929 . S
S1071 N1072 1.613 . S
S1071 N1073 1.610 1_556 S
N1072 S1071 1.613 . S
N1072 C1075 1.350 1_556 S
N1073 S1071 1.610 1_554 S
N1073 C1074 1.351 . S
C1074 C1068 1.428 . S
C1074 N1073 1.351 . S
C1074 C1075 1.434 . S
C1075 C1066 1.429 . S
C1075 N1072 1.350 1_554 S
C1075 C1074 1.434 . S
C1076 C1077 1.369 . S
C1076 C1078 1.419 . S
C1076 H1080 0.930 . S
C1077 C1076 1.369 . S
C1077 C1086 1.429 . S
C1078 C1076 1.419 . S
C1078 C1079 1.363 . S
C1078 H1081 0.929 . S
C1079 C1078 1.363 . S
C1079 C1085 1.428 . S
H1080 C1076 0.930 . S
H1081 C1078 0.929 . S
S1082 N1083 1.613 . S
S1082 N1084 1.610 . S
N1083 S1082 1.613 . S
N1083 C1086 1.350 . S
N1084 S1082 1.610 . S
N1084 C1085 1.351 . S
C1085 C1079 1.428 . S
C1085 N1084 1.351 . S
C1085 C1086 1.434 . S
C1086 C1077 1.429 . S
C1086 N1083 1.350 . S
C1086 C1085 1.434 . S
C1087 C1088 1.369 . S
C1087 C1089 1.419 . S
C1087 H1091 0.930 . S
C1088 C1087 1.369 . S
C1088 C1097 1.429 . S
C1089 C1087 1.419 . S
C1089 C1090 1.363 . S
C1089 H1092 0.929 . S
C1090 C1089 1.363 . S
C1090 C1096 1.428 . S
H1091 C1087 0.930 . S
H1092 C1089 0.929 . S
S1093 N1094 1.613 . S
S1093 N1095 1.610 . S
N1094 S1093 1.613 . S
N1094 C1097 1.350 . S
N1095 S1093 1.610 . S
N1095 C1096 1.351 . S
C1096 C1090 1.428 . S
C1096 N1095 1.351 . S
C1096 C1097 1.434 . S
C1097 C1088 1.429 . S
C1097 N1094 1.350 . S
C1097 C1096 1.434 . S
C1098 C1099 1.369 . S
C1098 C1100 1.419 . S
C1098 H1102 0.930 . S
C1099 C1098 1.369 . S
C1099 C1108 1.429 . S
C1100 C1098 1.419 . S
C1100 C1101 1.363 . S
C1100 H1103 0.929 . S
C1101 C1100 1.363 . S
C1101 C1107 1.428 . S
H1102 C1098 0.930 . S
H1103 C1100 0.929 . S
S1104 N1105 1.613 . S
S1104 N1106 1.610 . S
N1105 S1104 1.613 . S
N1105 C1108 1.350 1_556 S
N1106 S1104 1.610 . S
N1106 C1107 1.351 1_556 S
C1107 C1101 1.428 . S
C1107 N1106 1.351 1_554 S
C1107 C1108 1.434 . S
C1108 C1099 1.429 . S
C1108 N1105 1.350 1_554 S
C1108 C1107 1.434 . S
C1109 C1110 1.369 . S
C1109 C1111 1.419 . S
C1109 H1113 0.930 . S
C1110 C1109 1.369 . S
C1110 C1119 1.429 . S
C1111 C1109 1.419 . S
C1111 C1112 1.363 . S
C1111 H1114 0.929 1_554 S
C1112 C1111 1.363 . S
C1112 C1118 1.428 . S
H1113 C1109 0.930 . S
H1114 C1111 0.929 1_556 S
S1115 N1116 1.613 . S
S1115 N1117 1.610 . S
N1116 S1115 1.613 . S
N1116 C1119 1.350 . S
N1117 S1115 1.610 . S
N1117 C1118 1.351 . S
C1118 C1112 1.428 . S
C1118 N1117 1.351 . S
C1118 C1119 1.434 . S
C1119 C1110 1.429 . S
C1119 N1116 1.350 . S
C1119 C1118 1.434 . S
C1120 C1121 1.369 . S
C1120 C1122 1.419 . S
C1120 H1124 0.930 . S
C1121 C1120 1.369 . S
C1121 C1130 1.429 . S
C1122 C1120 1.419 . S
C1122 C1123 1.363 . S
C1122 H1125 0.929 . S
C1123 C1122 1.363 . S
C1123 C1129 1.428 . S
H1124 C1120 0.930 . S
H1125 C1122 0.929 . S
S1126 N1127 1.613 1_554 S
S1126 N1128 1.610 . S
N1127 S1126 1.613 1_556 S
N1127 C1130 1.350 1_556 S
N1128 S1126 1.610 . S
N1128 C1129 1.351 . S
C1129 C1123 1.428 . S
C1129 N1128 1.351 . S
C1129 C1130 1.434 . S
C1130 C1121 1.429 . S
C1130 N1127 1.350 1_554 S
C1130 C1129 1.434 . S
C1131 C1132 1.369 . S
C1131 C1133 1.419 . S
C1131 H1135 0.930 . S
C1132 C1131 1.369 . S
C1132 C1141 1.429 . S
C1133 C1131 1.419 . S
C1133 C1134 1.363 . S
C1133 H1136 0.929 . S
C1134 C1133 1.363 . S
C1134 C1140 1.428 . S
H1135 C1131 0.930 . S
H1136 C1133 0.929 . S
S1137 N1138 1.613 . S
S1137 N1139 1.610 . S
N1138 S1137 1.613 . S
N1138 C1141 1.350 . S
N1139 S1137 1.610 . S
N1139 C1140 1.351 . S
C1140 C1134 1.428 . S
C1140 N1139 1.351 . S
C1140 C1141 1.434 . S
C1141 C1132 1.429 . S
C1141 N1138 1.350 . S
C1141 C1140 1.434 . S
C1142 C1143 1.369 . S
C1142 C1144 1.419 . S
C1142 H1146 0.930 . S
C1143 C1142 1.369 . S
C1143 C1152 1.429 . S
C1144 C1142 1.419 . S
C1144 C1145 1.363 . S
C1144 H1147 0.929 . S
C1145 C1144 1.363 . S
C1145 C1151 1.428 . S
H1146 C1142 0.930 . S
H1147 C1144 0.929 . S
S1148 N1149 1.613 . S
S1148 N1150 1.610 . S
N1149 S1148 1.613 . S
N1149 C1152 1.350 . S
N1150 S1148 1.610 . S
N1150 C1151 1.351 . S
C1151 C1145 1.428 . S
C1151 N1150 1.351 . S
C1151 C1152 1.434 . S
C1152 C1143 1.429 . S
C1152 N1149 1.350 . S
C1152 C1151 1.434 . S
C1153 C1154 1.369 . S
C1153 C1155 1.419 . S
C1153 H1157 0.930 . S
C1154 C1153 1.369 . S
C1154 C1163 1.429 . S
C1155 C1153 1.419 . S
C1155 C1156 1.363 . S
C1155 H1158 0.929 . S
C1156 C1155 1.363 . S
C1156 C1162 1.428 . S
H1157 C1153 0.930 . S
H1158 C1155 0.929 . S
S1159 N1160 1.613 . S
S1159 N1161 1.610 . S
N1160 S1159 1.613 . S
N1160 C1163 1.350 . S
N1161 S1159 1.610 . S
N1161 C1162 1.351 . S
C1162 C1156 1.428 . S
C1162 N1161 1.351 . S
C1162 C1163 1.434 . S
C1163 C1154 1.429 . S
C1163 N1160 1.350 . S
C1163 C1162 1.434 . S
C1164 C1165 1.369 . S
C1164 C1166 1.419 . S
C1164 H1168 0.930 . S
C1165 C1164 1.369 . S
C1165 C1174 1.429 . S
C1166 C1164 1.419 . S
C1166 C1167 1.363 . S
C1166 H1169 0.929 . S
C1167 C1166 1.363 . S
C1167 C1173 1.428 . S
H1168 C1164 0.930 . S
H1169 C1166 0.929 . S
S1170 N1171 1.613 . S
S1170 N1172 1.610 . S
N1171 S1170 1.613 . S
N1171 C1174 1.350 . S
N1172 S1170 1.610 . S
N1172 C1173 1.351 . S
C1173 C1167 1.428 . S
C1173 N1172 1.351 . S
C1173 C1174 1.434 . S
C1174 C1165 1.429 . S
C1174 N1171 1.350 . S
C1174 C1173 1.434 . S
C1175 C1176 1.369 . S
C1175 C1177 1.419 . S
C1175 H1179 0.930 1_556 S
C1176 C1175 1.369 . S
C1176 C1185 1.429 . S
C1177 C1175 1.419 . S
C1177 C1178 1.363 . S
C1177 H1180 0.929 . S
C1178 C1177 1.363 . S
C1178 C1184 1.428 . S
H1179 C1175 0.930 1_554 S
H1180 C1177 0.929 . S
S1181 N1182 1.613 . S
S1181 N1183 1.610 . S
N1182 S1181 1.613 . S
N1182 C1185 1.350 . S
N1183 S1181 1.610 . S
N1183 C1184 1.351 . S
C1184 C1178 1.428 . S
C1184 N1183 1.351 . S
C1184 C1185 1.434 . S
C1185 C1176 1.429 . S
C1185 N1182 1.350 . S
C1185 C1184 1.434 . S
C1186 C1187 1.369 . S
C1186 C1188 1.419 1_556 S
C1186 H1190 0.930 1_556 S
C1187 C1186 1.369 . S
C1187 C1196 1.429 . S
C1188 C1186 1.419 1_554 S
C1188 C1189 1.363 1_554 S
C1188 H1191 0.929 . S
C1189 C1188 1.363 1_556 S
C1189 C1195 1.428 . S
H1190 C1186 0.930 1_554 S
H1191 C1188 0.929 . S
S1192 N1193 1.613 . S
S1192 N1194 1.610 . S
N1193 S1192 1.613 . S
N1193 C1196 1.350 . S
N1194 S1192 1.610 . S
N1194 C1195 1.351 . S
C1195 C1189 1.428 . S
C1195 N1194 1.351 . S
C1195 C1196 1.434 . S
C1196 C1187 1.429 . S
C1196 N1193 1.350 . S
C1196 C1195 1.434 . S
C1197 C1198 1.369 . S
C1197 C1199 1.419 . S
C1197 H1201 0.930 . S
C1198 C1197 1.369 . S
C1198 C1207 1.429 . S
C1199 C1197 1.419 . S
C1199 C1200 1.363 . S
C1199 H1202 0.929 . S
C1200 C1199 1.363 . S
C1200 C1206 1.428 . S
H1201 C1197 0.930 . S
H1202 C1199 0.929 . S
S1203 N1204 1.613 . S
S1203 N1205 1.610 . S
N1204 S1203 1.613 . S
N1204 C1207 1.350 . S
N1205 S1203 1.610 . S
N1205 C1206 1.351 . S
C1206 C1200 1.428 . S
C1206 N1205 1.351 . S
C1206 C1207 1.434 . S
C1207 C1198 1.429 . S
C1207 N1204 1.350 . S
C1207 C1206 1.434 . S
C1208 C1209 1.369 . S
C1208 C1210 1.419 . S
C1208 H1212 0.930 . S
C1209 C1208 1.369 . S
C1209 C1218 1.429 . S
C1210 C1208 1.419 . S
C1210 C1211 1.363 . S
C1210 H1213 0.929 . S
C1211 C1210 1.363 . S
C1211 C1217 1.428 . S
H1212 C1208 0.930 . S
H1213 C1210 0.929 . S
S1214 N1215 1.613 . S
S1214 N1216 1.610 . S
N1215 S1214 1.613 . S
N1215 C1218 1.350 . S
N1216 S1214 1.610 . S
N1216 C1217 1.351 . S
C1217 C1211 1.428 . S
C1217 N1216 1.351 . S
C1217 C1218 1.434 . S
C1218 C1209 1.429 . S
C1218 N1215 1.350 . S
C1218 C1217 1.434 . S
C1219 C1220 1.369 . S
C1219 C1221 1.419 . S
C1219 H1223 0.930 . S
C1220 C1219 1.369 . S
C1220 C1229 1.429 . S
C1221 C1219 1.419 . S
C1221 C1222 1.363 . S
C1221 H1224 0.929 . S
C1222 C1221 1.363 . S
C1222 C1228 1.428 . S
H1223 C1219 0.930 . S
H1224 C1221 0.929 . S
S1225 N1226 1.613 . S
S1225 N1227 1.610 . S
N1226 S1225 1.613 . S
N1226 C1229 1.350 . S
N1227 S1225 1.610 . S
N1227 C1228 1.351 . S
C1228 C1222 1.428 . S
C1228 N1227 1.351 . S
C1228 C1229 1.434 . S
C1229 C1220 1.429 . S
C1229 N1226 1.350 . S
C1229 C1228 1.434 . S
C1230 C1231 1.369 . S
C1230 C1232 1.419 1_455 S
C1230 H1234 0.930 . S
C1231 C1230 1.369 . S
C1231 C1240 1.429 . S
C1232 C1230 1.419 1_655 S
C1232 C1233 1.363 . S
C1232 H1235 0.929 . S
C1233 C1232 1.363 . S
C1233 C1239 1.428 . S
H1234 C1230 0.930 . S
H1235 C1232 0.929 . S
S1236 N1237 1.613 . S
S1236 N1238 1.610 1_455 S
N1237 S1236 1.613 . S
N1237 C1240 1.350 . S
N1238 S1236 1.610 1_655 S
N1238 C1239 1.351 . S
C1239 C1233 1.428 . S
C1239 N1238 1.351 . S
C1239 C1240 1.434 1_655 S
C1240 C1231 1.429 . S
C1240 N1237 1.350 . S
C1240 C1239 1.434 1_455 S
C1241 C1242 1.369 . S
C1241 C1243 1.419 . S
C1241 H1245 0.930 . S
C1242 C1241 1.369 . S
C1242 C1251 1.429 . S
C1243 C1241 1.419 . S
C1243 C1244 1.363 . S
C1243 H1246 0.929 . S
C1244 C1243 1.363 . S
C1244 C1250 1.428 . S
H1245 C1241 0.930 . S
H1246 C1243 0.929 . S
S1247 N1248 1.613 . S
S1247 N1249 1.610 . S
N1248 S1247 1.613 . S
N1248 C1251 1.350 . S
N1249 S1247 1.610 . S
N1249 C1250 1.351 . S
C1250 C1244 1.428 . S
C1250 N1249 1.351 . S
C1250 C1251 1.434 . S
C1251 C1242 1.429 . S
C1251 N1248 1.350 . S
C1251 C1250 1.434 . S
C1252 C1253 1.369 . S
C1252 C1254 1.419 1_565 S
C1252 H1256 0.930 . S
C1253 C1252 1.369 . S
C1253 C1262 1.429 . S
C1254 C1252 1.419 1_545 S
C1254 C1255 1.363 . S
C1254 H1257 0.929 . S
C1255 C1254 1.363 . S
C1255 C1261 1.428 . S
H1256 C1252 0.930 . S
H1257 C1254 0.929 . S
S1258 N1259 1.613 . S
S1258 N1260 1.638 . S
N1259 S1258 1.613 . S
N1259 C1262 1.350 . S
N1260 S1258 1.638 . S
N1260 C1261 1.350 1_565 S
C1261 C1255 1.428 . S
C1261 N1260 1.350 1_545 S
C1261 C1262 1.434 1_545 S
C1262 C1253 1.429 . S
C1262 N1259 1.350 . S
C1262 C1261 1.434 1_565 S
C1263 C1264 1.369 . S
C1263 C1265 1.419 1_545 S
C1263 H1267 0.930 . S
C1264 C1263 1.369 . S
C1264 C1273 1.429 . S
C1265 C1263 1.419 1_565 S
C1265 C1266 1.363 . S
C1265 H1268 0.929 . S
C1266 C1265 1.363 . S
C1266 C1272 1.428 . S
H1267 C1263 0.930 . S
H1268 C1265 0.929 . S
S1269 N1270 1.613 . S
S1269 N1271 1.610 1_545 S
N1270 S1269 1.613 . S
N1270 C1273 1.350 . S
N1271 S1269 1.610 1_565 S
N1271 C1272 1.351 . S
C1272 C1266 1.428 . S
C1272 N1271 1.351 . S
C1272 C1273 1.434 1_565 S
C1273 C1264 1.429 . S
C1273 N1270 1.350 . S
C1273 C1272 1.434 1_545 S
C1274 C1275 1.369 . S
C1274 C1276 1.419 1_455 S
C1274 H1278 0.930 . S
C1275 C1274 1.369 . S
C1275 C1284 1.429 . S
C1276 C1274 1.419 1_655 S
C1276 C1277 1.363 . S
C1276 H1279 0.929 . S
C1277 C1276 1.363 . S
C1277 C1283 1.428 . S
H1278 C1274 0.930 . S
H1279 C1276 0.929 . S
S1280 N1281 1.613 . S
S1280 N1282 1.610 1_455 S
N1281 S1280 1.613 . S
N1281 C1284 1.350 . S
N1282 S1280 1.610 1_655 S
N1282 C1283 1.351 . S
C1283 C1277 1.428 . S
C1283 N1282 1.351 . S
C1283 C1284 1.434 1_655 S
C1284 C1275 1.429 . S
C1284 N1281 1.350 . S
C1284 C1283 1.434 1_455 S
C1285 C1286 1.369 . S
C1285 C1287 1.419 . S
C1285 H1289 0.930 . S
C1286 C1285 1.369 . S
C1286 C1295 1.429 . S
C1287 C1285 1.419 . S
C1287 C1288 1.363 . S
C1287 H1290 0.929 . S
C1288 C1287 1.363 . S
C1288 C1294 1.428 . S
H1289 C1285 0.930 . S
H1290 C1287 0.929 . S
S1291 N1292 1.613 . S
S1291 N1293 1.610 . S
N1292 S1291 1.613 . S
N1292 C1295 1.350 . S
N1293 S1291 1.610 . S
N1293 C1294 1.351 . S
C1294 C1288 1.428 . S
C1294 N1293 1.351 . S
C1294 C1295 1.434 . S
C1295 C1286 1.429 . S
C1295 N1292 1.350 . S
C1295 C1294 1.434 . S
C505 C47 1.125 . S
C507 C5 1.129 . S
C516 C67 1.274 . S
C518 C25 1.267 . S
C527 C75 1.110 . S
C529 C33 1.106 . S
C538 C95 1.328 . S
C540 C137 1.331 . S
C549 C109 1.301 . S
C551 C151 1.292 . S
C560 C165 1.329 . S
C562 C123 1.332 . S
C571 C173 1.118 . S
C573 C215 1.109 . S
C582 C193 1.274 . S
C584 C235 1.264 . S
C593 C201 1.103 . S
C595 C243 1.116 . S
C604 C263 1.321 . S
C606 C305 1.320 . S
C615 C319 1.280 . S
C617 C277 1.285 . S
C626 C291 1.334 . S
C628 C333 1.328 . S
C637 C341 1.130 . S
C639 C383 1.118 . S
C648 C361 1.261 . S
C650 C403 1.271 . S
C659 C411 1.113 . S
C661 C369 1.105 . S
C670 C473 1.332 . S
C672 C431 1.331 . S
C681 C487 1.281 . S
C683 C445 1.289 . S
C692 C501 1.321 . S
C694 C459 1.321 . S
C703 C166 1.285 . S
C705 C12 1.271 . S
C714 C19 1.118 1_556 S
C716 C138 1.220 . S
C725 C40 1.221 . S
C727 C152 1.226 . S
C736 C110 1.230 . S
C738 C54 1.217 . S
C747 C61 1.114 . S
C749 C124 1.219 . S
C758 C96 1.287 . S
C760 C82 1.275 . S
C769 C88 1.461 . S
C771 C81 1.451 . S
C780 C102 1.487 . S
C782 C53 1.474 . S
C791 C68 1.466 . S
C793 C116 1.461 1_554 S
C802 C26 1.465 . S
C804 C130 1.462 . S
C813 C39 1.477 . S
C815 C144 1.491 . S
C824 C158 1.458 . S
C826 C11 1.453 . S
C835 C180 1.269 . S
C837 C334 1.281 . S
C846 C306 1.206 . S
C848 C187 1.098 . S
C857 C320 1.228 . S
C859 C208 1.217 . S
C868 C222 1.218 . S
C870 C278 1.228 1_556 S
C879 C292 1.215 . S
C881 C229 1.108 . S
C890 C250 1.269 . S
C892 C264 1.284 1_556 S
C901 C256 1.458 . S
C903 C249 1.444 . S
C912 C270 1.474 . S
C914 C221 1.468 . S
C923 C236 1.471 . S
C925 C284 1.465 . S
C934 C194 1.477 . S
C936 C298 1.475 . S
C945 C207 1.472 . S
C947 C312 1.476 . S
C956 C326 1.467 . S
C958 C179 1.457 . S
C967 C502 1.283 . S
C969 C348 1.270 . S
C978 C355 1.099 . S
C980 C474 1.215 . S
C989 C376 1.217 . S
C991 C488 1.228 . S
C1000 C390 1.215 . S
C1002 C446 1.227 . S
C1011 C460 1.230 . S
C1013 C397 1.129 . S
C1022 C418 1.271 . S
C1024 C432 1.283 . S
C1033 C417 1.457 . S
C1035 C424 1.464 . S
C1044 C389 1.470 . S
C1046 C438 1.480 . S
C1055 C404 1.448 . S
C1057 C452 1.450 . S
C1066 C362 1.467 1_554 S
C1068 C466 1.469 . S
C1077 C375 1.470 1_554 S
C1079 C480 1.476 . S
C1088 C347 1.447 1_554 S
C1090 C494 1.455 . S
C1099 C410 1.680 . S
C1101 C4 1.677 . S
C1110 C18 1.811 . S
C1112 C382 1.688 . S
C1121 C396 1.818 1_554 S
C1123 C32 1.699 . S
C1132 C46 1.691 . S
C1134 C186 1.816 . S
C1143 C200 1.696 . S
C1145 C60 1.811 . S
C1154 C74 1.675 . S
C1156 C172 1.677 . S
C1165 C89 1.118 . S
C1167 C327 1.127 1_556 S
C1176 C299 1.100 . S
C1178 C103 1.096 . S
C1187 C117 1.073 . S
C1189 C313 1.096 1_556 S
C1198 C131 1.073 . S
C1200 C439 1.095 . S
C1209 C145 1.093 . S
C1211 C453 1.085 . S
C1220 C425 1.127 . S
C1222 C159 1.114 . S
C1231 C354 1.812 . S
C1233 C214 1.692 . S
C1242 C368 1.687 . S
C1244 C228 1.811 . S
C1253 C340 1.678 . S
C1255 C242 1.681 . S
C1264 C257 1.121 . S
C1266 C495 1.109 . S
C1275 C467 1.087 . S
C1277 C271 1.084 . S
C1286 C285 1.080 . S
C1288 C481 1.098 . S
