# Generated by pormake.
# Topology ske, (6)-cn, num edge types: 1
# Building blocks:
#     Node 0, Type 0, BuildingBlock: BETDAH_clean_sbu_0, # of connection points: 6
#     Node 1, Type 0, BuildingBlock: BETDAH_clean_sbu_0, # of connection points: 6
#     Node 2, Type 0, BuildingBlock: BETDAH_clean_sbu_0, # of connection points: 6
#     Node 3, Type 0, BuildingBlock: BETDAH_clean_sbu_0, # of connection points: 6
#     Node 4, Type 0, BuildingBlock: BETDAH_clean_sbu_0, # of connection points: 6
#     Node 5, Type 0, BuildingBlock: BETDAH_clean_sbu_0, # of connection points: 6
#     Node 6, Type 0, BuildingBlock: BETDAH_clean_sbu_0, # of connection points: 6
#     Node 7, Type 0, BuildingBlock: BETDAH_clean_sbu_0, # of connection points: 6
#     Edge 8, Type (0, 0), BuildingBlock: ZUJKAS_clean_linker_0, # of connection points: 2
#     Edge 9, Type (0, 0), BuildingBlock: ZUJKAS_clean_linker_0, # of connection points: 2
#     Edge 10, Type (0, 0), BuildingBlock: ZUJKAS_clean_linker_0, # of connection points: 2
#     Edge 11, Type (0, 0), BuildingBlock: ZUJKAS_clean_linker_0, # of connection points: 2
#     Edge 12, Type (0, 0), BuildingBlock: ZUJKAS_clean_linker_0, # of connection points: 2
#     Edge 13, Type (0, 0), BuildingBlock: ZUJKAS_clean_linker_0, # of connection points: 2
#     Edge 14, Type (0, 0), BuildingBlock: ZUJKAS_clean_linker_0, # of connection points: 2
#     Edge 15, Type (0, 0), BuildingBlock: ZUJKAS_clean_linker_0, # of connection points: 2
#     Edge 16, Type (0, 0), BuildingBlock: ZUJKAS_clean_linker_0, # of connection points: 2
#     Edge 17, Type (0, 0), BuildingBlock: ZUJKAS_clean_linker_0, # of connection points: 2
#     Edge 18, Type (0, 0), BuildingBlock: ZUJKAS_clean_linker_0, # of connection points: 2
#     Edge 19, Type (0, 0), BuildingBlock: ZUJKAS_clean_linker_0, # of connection points: 2
#     Edge 20, Type (0, 0), BuildingBlock: ZUJKAS_clean_linker_0, # of connection points: 2
#     Edge 21, Type (0, 0), BuildingBlock: ZUJKAS_clean_linker_0, # of connection points: 2
#     Edge 22, Type (0, 0), BuildingBlock: ZUJKAS_clean_linker_0, # of connection points: 2
#     Edge 23, Type (0, 0), BuildingBlock: ZUJKAS_clean_linker_0, # of connection points: 2
#     Edge 24, Type (0, 0), BuildingBlock: ZUJKAS_clean_linker_0, # of connection points: 2
#     Edge 25, Type (0, 0), BuildingBlock: ZUJKAS_clean_linker_0, # of connection points: 2
#     Edge 26, Type (0, 0), BuildingBlock: ZUJKAS_clean_linker_0, # of connection points: 2
#     Edge 27, Type (0, 0), BuildingBlock: ZUJKAS_clean_linker_0, # of connection points: 2
#     Edge 28, Type (0, 0), BuildingBlock: ZUJKAS_clean_linker_0, # of connection points: 2
#     Edge 29, Type (0, 0), BuildingBlock: ZUJKAS_clean_linker_0, # of connection points: 2
#     Edge 30, Type (0, 0), BuildingBlock: ZUJKAS_clean_linker_0, # of connection points: 2
#     Edge 31, Type (0, 0), BuildingBlock: ZUJKAS_clean_linker_0, # of connection points: 2
# Relax obj value: 0.203
# Max RMSD: 0.206
# Mean RMSD: 0.200
data_MOF--net-ske--node1-BETDAH_clean_sbu_0--edge1-ZUJKAS_clean_linker_0
_symmetry_space_group_name_H-M    P1
_symmetry_Int_Tables_number       1
_symmetry_cell_setting            triclinic
loop_
_symmetry_equiv_pos_as_xyz
'x, y, z'
_cell_length_a     120.73769
_cell_length_b     38.070985
_cell_length_c     20.122033
_cell_angle_alpha  90.020948
_cell_angle_beta   89.975107
_cell_angle_gamma 83.942234
loop_
_atom_site_label
_atom_site_type_symbol
_atom_site_fract_x
_atom_site_fract_y
_atom_site_fract_z
_atom_type_partial_charge
Ho0 Ho 0.15084 0.25517 0.54608 0.0
Ho1 Ho 0.12616 0.24736 0.55197 0.0
C2 C 0.13925 0.24561 0.68922 0.0
C3 C 0.17075 0.27501 0.55544 0.0
C4 C 0.18138 0.27017 0.59338 0.0
C5 C 0.18553 0.29971 0.62226 0.0
C6 C 0.19623 0.2971 0.65012 0.0
C7 C 0.20312 0.26484 0.64954 0.0
C8 C 0.19879 0.23495 0.62258 0.0
C9 C 0.18808 0.23758 0.59476 0.0
C10 C 0.14589 0.18734 0.53469 0.0
C11 C 0.13823 0.25207 0.40898 0.0
C12 C 0.10602 0.22885 0.54565 0.0
C13 C 0.09409 0.24002 0.53059 0.0
C14 C 0.08872 0.22277 0.48006 0.0
C15 C 0.0771 0.22813 0.47272 0.0
C16 C 0.07055 0.25062 0.51625 0.0
C17 C 0.07599 0.26896 0.56511 0.0
C18 C 0.0876 0.26375 0.57222 0.0
C19 C 0.13128 0.31568 0.55651 0.0
O20 O 0.14731 0.2592 0.65667 0.0
O21 O 0.13109 0.23259 0.65676 0.0
O22 O 0.16822 0.24885 0.5183 0.0
O23 O 0.16201 0.29175 0.58421 0.0
O24 O 0.15433 0.19971 0.50691 0.0
O25 O 0.14107 0.21054 0.57268 0.0
O26 O 0.1304 0.2379 0.44291 0.0
O27 O 0.14609 0.26734 0.44019 0.0
O28 O 0.1103 0.24219 0.59825 0.0
O29 O 0.11316 0.2242 0.49677 0.0
O30 O 0.12284 0.30434 0.58609 0.0
O31 O 0.13591 0.29106 0.52146 0.0
H32 H 0.18061 0.32522 0.62155 0.0
H33 H 0.19915 0.32056 0.67141 0.0
H34 H 0.20385 0.20973 0.62056 0.0
H35 H 0.1852 0.21429 0.57249 0.0
H36 H 0.09345 0.20391 0.4479 0.0
H37 H 0.07322 0.21332 0.43489 0.0
H38 H 0.07124 0.2869 0.59886 0.0
H39 H 0.09141 0.27738 0.612 0.0
Ho40 Ho 0.87004 0.25497 0.54568 0.0
Ho41 Ho 0.89468 0.26212 0.55379 0.0
C42 C 0.8813 0.26458 0.6898 0.0
C43 C 0.84992 0.23662 0.55401 0.0
C44 C 0.83928 0.24181 0.5921 0.0
C45 C 0.83574 0.21367 0.62895 0.0
C46 C 0.82506 0.21614 0.6571 0.0
C47 C 0.81756 0.24676 0.64879 0.0
C48 C 0.82124 0.27535 0.61363 0.0
C49 C 0.83193 0.27289 0.58556 0.0
C50 C 0.87531 0.32236 0.53373 0.0
C51 C 0.88307 0.25596 0.40932 0.0
C52 C 0.91489 0.28009 0.54971 0.0
C53 C 0.92672 0.27015 0.53058 0.0
C54 C 0.932 0.29214 0.48741 0.0
C55 C 0.94359 0.28739 0.47841 0.0
C56 C 0.95021 0.2607 0.51292 0.0
C57 C 0.94485 0.23773 0.55386 0.0
C58 C 0.93326 0.24236 0.5626 0.0
C59 C 0.88937 0.19408 0.55859 0.0
O60 O 0.87331 0.25099 0.65664 0.0
O61 O 0.88952 0.27753 0.65787 0.0
O62 O 0.85266 0.26292 0.51804 0.0
O63 O 0.85857 0.21888 0.58192 0.0
O64 O 0.86712 0.3099 0.50358 0.0
O65 O 0.87982 0.29941 0.57331 0.0
O66 O 0.89103 0.26941 0.44344 0.0
O67 O 0.87494 0.2419 0.44031 0.0
O68 O 0.91087 0.26285 0.59861 0.0
O69 O 0.90749 0.28874 0.50348 0.0
O70 O 0.89771 0.20537 0.58928 0.0
O71 O 0.88492 0.21859 0.52266 0.0
H72 H 0.84114 0.18923 0.63437 0.0
H73 H 0.82263 0.19377 0.68469 0.0
H74 H 0.8157 0.29922 0.60538 0.0
H75 H 0.83428 0.29499 0.55684 0.0
H76 H 0.92723 0.3141 0.46288 0.0
H77 H 0.94741 0.30579 0.44694 0.0
H78 H 0.94964 0.21654 0.5804 0.0
H79 H 0.9295 0.22497 0.5965 0.0
Ho80 Ho 0.12594 0.74758 0.47566 0.0
Ho81 Ho 0.15058 0.75548 0.48193 0.0
C82 C 0.13786 0.75347 0.61894 0.0
C83 C 0.10586 0.72853 0.48176 0.0
C84 C 0.09397 0.73918 0.49862 0.0
C85 C 0.08857 0.71911 0.54469 0.0
C86 C 0.07697 0.72439 0.55276 0.0
C87 C 0.07046 0.7497 0.51442 0.0
C88 C 0.07594 0.77078 0.47028 0.0
C89 C 0.08754 0.76562 0.46247 0.0
C90 C 0.13085 0.816 0.4705 0.0
C91 C 0.1391 0.74589 0.33855 0.0
C92 C 0.17061 0.77454 0.47334 0.0
C93 C 0.18119 0.77033 0.43495 0.0
C94 C 0.18633 0.80054 0.41839 0.0
C95 C 0.19702 0.79757 0.39031 0.0
C96 C 0.20288 0.76421 0.37821 0.0
C97 C 0.19755 0.73391 0.39291 0.0
C98 C 0.18684 0.73692 0.42095 0.0
C99 C 0.14543 0.68784 0.49435 0.0
O100 O 0.13 0.73933 0.58521 0.0
O101 O 0.14579 0.76832 0.58756 0.0
O102 O 0.10998 0.74328 0.43009 0.0
O103 O 0.11313 0.72275 0.52969 0.0
O104 O 0.12236 0.80437 0.442 0.0
O105 O 0.13564 0.79162 0.50553 0.0
O106 O 0.14716 0.75938 0.37125 0.0
O107 O 0.13091 0.73294 0.37085 0.0
O108 O 0.16802 0.74751 0.50785 0.0
O109 O 0.16189 0.79232 0.44632 0.0
O110 O 0.15364 0.70046 0.5241 0.0
O111 O 0.14087 0.7108 0.45505 0.0
H112 H 0.09327 0.6982 0.57251 0.0
H113 H 0.07305 0.70745 0.5868 0.0
H114 H 0.07123 0.7909 0.44071 0.0
H115 H 0.09139 0.78152 0.42629 0.0
H116 H 0.18223 0.8266 0.42933 0.0
H117 H 0.20085 0.82152 0.38054 0.0
H118 H 0.20171 0.70779 0.38338 0.0
H119 H 0.18311 0.71308 0.43318 0.0
Ho120 Ho 0.89454 0.76211 0.47428 0.0
Ho121 Ho 0.86987 0.75502 0.48178 0.0
C122 C 0.88278 0.75624 0.61844 0.0
C123 C 0.91475 0.78014 0.47884 0.0
C124 C 0.92661 0.76977 0.49687 0.0
C125 C 0.93181 0.78963 0.54425 0.0
C126 C 0.94341 0.78482 0.55303 0.0
C127 C 0.95011 0.76026 0.51408 0.0
C128 C 0.94483 0.73933 0.46868 0.0
C129 C 0.93325 0.744 0.46017 0.0
C130 C 0.88928 0.69406 0.46952 0.0
C131 C 0.88123 0.76468 0.33796 0.0
C132 C 0.84976 0.73658 0.47364 0.0
C133 C 0.83922 0.7405 0.43474 0.0
C134 C 0.83484 0.71011 0.41116 0.0
C135 C 0.82417 0.71225 0.38296 0.0
C136 C 0.81755 0.74489 0.37785 0.0
C137 C 0.82212 0.77551 0.39936 0.0
C138 C 0.8328 0.77335 0.42756 0.0
C139 C 0.87524 0.82229 0.49459 0.0
O140 O 0.89077 0.76964 0.5845 0.0
O141 O 0.87466 0.74221 0.58733 0.0
O142 O 0.91065 0.76389 0.42889 0.0
O143 O 0.90741 0.78783 0.52588 0.0
O144 O 0.89766 0.70533 0.43925 0.0
O145 O 0.88473 0.7186 0.50509 0.0
O146 O 0.87318 0.75121 0.37087 0.0
O147 O 0.88945 0.77746 0.3701 0.0
O148 O 0.8524 0.76396 0.50696 0.0
O149 O 0.85847 0.71808 0.44791 0.0
O150 O 0.86704 0.80984 0.52479 0.0
O151 O 0.87968 0.79938 0.45471 0.0
H152 H 0.92697 0.81007 0.5725 0.0
H153 H 0.94716 0.80161 0.58807 0.0
H154 H 0.9497 0.71979 0.43857 0.0
H155 H 0.92956 0.72831 0.4229 0.0
H156 H 0.83954 0.68441 0.41643 0.0
H157 H 0.82106 0.68816 0.36594 0.0
H158 H 0.81727 0.80109 0.39689 0.0
H159 H 0.83587 0.79731 0.44565 0.0
Ho160 Ho 0.65057 0.75605 0.04912 0.0
Ho161 Ho 0.6259 0.74786 0.05487 0.0
C162 C 0.63899 0.74656 0.1922 0.0
C163 C 0.67046 0.77606 0.05862 0.0
C164 C 0.68104 0.77181 0.09704 0.0
C165 C 0.68546 0.80203 0.12111 0.0
C166 C 0.69613 0.79965 0.14923 0.0
C167 C 0.70273 0.76693 0.15379 0.0
C168 C 0.69812 0.73646 0.13176 0.0
C169 C 0.68742 0.73886 0.10363 0.0
C170 C 0.64568 0.68811 0.03782 0.0
C171 C 0.63785 0.75382 0.91157 0.0
C172 C 0.60586 0.7286 0.0497 0.0
C173 C 0.59405 0.73773 0.02956 0.0
C174 C 0.58898 0.71484 0.9872 0.0
C175 C 0.57743 0.71893 0.97718 0.0
C176 C 0.57059 0.74593 1.0097 0.0
C177 C 0.57575 0.76978 0.04987 0.0
C178 C 0.58732 0.76573 0.05975 0.0
C179 C 0.63083 0.81641 0.05916 0.0
O180 O 0.64705 0.76015 0.15961 0.0
O181 O 0.63085 0.73346 0.15982 0.0
O182 O 0.668 0.7494 0.02254 0.0
O183 O 0.66167 0.79308 0.08639 0.0
O184 O 0.65407 0.70065 1.00976 0.0
O185 O 0.64085 0.71127 0.07593 0.0
O186 O 0.62984 0.74032 0.94508 0.0
O187 O 0.64589 0.76813 0.94301 0.0
O188 O 0.60966 0.74639 0.09861 0.0
O189 O 0.6134 0.72015 1.0041 0.0
O190 O 0.62237 0.80483 0.08802 0.0
O191 O 0.6356 0.7918 0.0245 0.0
H192 H 0.68077 0.82778 0.11636 0.0
H193 H 0.69927 0.82362 0.16668 0.0
H194 H 0.70294 0.71084 0.13385 0.0
H195 H 0.68431 0.71504 0.0852 0.0
H196 H 0.59392 0.69282 0.96378 0.0
H197 H 0.57382 0.70042 0.9449 0.0
H198 H 0.57081 0.7907 0.07631 0.0
H199 H 0.5909 0.78369 0.0933 0.0
Ho200 Ho 0.37002 0.75419 0.05081 0.0
Ho201 Ho 0.39464 0.76193 0.0574 0.0
C202 C 0.38146 0.76362 0.1943 0.0
C203 C 0.34998 0.73522 0.05958 0.0
C204 C 0.33944 0.73941 0.09834 0.0
C205 C 0.33428 0.70921 0.11488 0.0
C206 C 0.32362 0.71219 0.14332 0.0
C207 C 0.31779 0.74556 0.1558 0.0
C208 C 0.32313 0.77584 0.14114 0.0
C209 C 0.33382 0.77282 0.11275 0.0
C210 C 0.37514 0.82182 0.03877 0.0
C211 C 0.38283 0.75564 0.91365 0.0
C212 C 0.41473 0.78082 0.05254 0.0
C213 C 0.42652 0.77176 0.03191 0.0
C214 C 0.43165 0.79537 0.99144 0.0
C215 C 0.4432 0.79119 0.98133 0.0
C216 C 0.44997 0.76337 1.01187 0.0
C217 C 0.44475 0.73882 0.05002 0.0
C218 C 0.43318 0.74297 0.06 0.0
C219 C 0.38961 0.69351 0.06199 0.0
O220 O 0.37342 0.75009 0.16149 0.0
O221 O 0.38964 0.77665 0.16208 0.0
O222 O 0.35256 0.76234 0.02529 0.0
O223 O 0.35871 0.71729 0.08618 0.0
O224 O 0.36695 0.80917 1.00886 0.0
O225 O 0.37974 0.79886 0.07804 0.0
O226 O 0.39084 0.76909 0.9473 0.0
O227 O 0.37475 0.74153 0.94501 0.0
O228 O 0.41093 0.76259 0.10083 0.0
O229 O 0.40717 0.78985 1.00738 0.0
O230 O 0.39803 0.7051 0.09136 0.0
O231 O 0.38493 0.71803 0.02684 0.0
H232 H 0.33836 0.68315 0.10364 0.0
H233 H 0.31979 0.68826 0.15305 0.0
H234 H 0.319 0.80197 0.15096 0.0
H235 H 0.33755 0.79666 0.10057 0.0
H236 H 0.42676 0.81798 0.96966 0.0
H237 H 0.44686 0.81027 0.9506 0.0
H238 H 0.44964 0.71724 0.07487 0.0
H239 H 0.42954 0.72443 0.09204 0.0
Ho240 Ho 0.6257 0.24804 0.97143 0.0
Ho241 Ho 0.65043 0.2559 0.97788 0.0
C242 C 0.63748 0.25461 0.11526 0.0
C243 C 0.60575 0.22817 0.97493 0.0
C244 C 0.59404 0.23429 0.9982 0.0
C245 C 0.58853 0.20497 0.01579 0.0
C246 C 0.57699 0.20841 0.02582 0.0
C247 C 0.57063 0.24135 0.01851 0.0
C248 C 0.57624 0.27111 1.00413 0.0
C249 C 0.58781 0.26759 0.99378 0.0
C250 C 0.63074 0.31641 0.96758 0.0
C251 C 0.63887 0.2474 0.83439 0.0
C252 C 0.67043 0.27509 0.96857 0.0
C253 C 0.68108 0.26979 0.93057 0.0
C254 C 0.6846 0.29784 0.89346 0.0
C255 C 0.69528 0.29531 0.86522 0.0
C256 C 0.70278 0.2647 0.87369 0.0
C257 C 0.69911 0.23619 0.9091 0.0
C258 C 0.68842 0.23871 0.93726 0.0
C259 C 0.64536 0.18811 0.98817 0.0
O260 O 0.62934 0.24178 0.08174 0.0
O261 O 0.64568 0.26816 0.08393 0.0
O262 O 0.60908 0.25025 0.93149 0.0
O263 O 0.61359 0.21652 0.01669 0.0
O264 O 0.62227 0.305 0.93834 0.0
O265 O 0.63549 0.29177 1.00225 0.0
O266 O 0.64695 0.26056 0.86743 0.0
O267 O 0.63065 0.23436 0.86623 0.0
O268 O 0.6678 0.24915 1.00591 0.0
O269 O 0.66173 0.29208 0.93986 0.0
O270 O 0.65373 0.20038 0.01684 0.0
O271 O 0.64066 0.21149 0.95008 0.0
H272 H 0.59311 0.17896 0.01901 0.0
H273 H 0.57301 0.18504 0.03795 0.0
H274 H 0.57162 0.29685 0.99777 0.0
H275 H 0.59181 0.29066 0.97971 0.0
H276 H 0.67921 0.32226 0.88788 0.0
H277 H 0.6977 0.31762 0.83743 0.0
H278 H 0.70464 0.21232 0.91745 0.0
H279 H 0.68607 0.21667 0.96613 0.0
Ho280 Ho 0.39476 0.26178 0.97253 0.0
Ho281 Ho 0.37004 0.25442 0.9797 0.0
C282 C 0.38305 0.25577 0.11686 0.0
C283 C 0.41482 0.2809 0.97517 0.0
C284 C 0.42649 0.27469 0.99883 0.0
C285 C 0.43238 0.30401 1.00978 0.0
C286 C 0.44391 0.29972 0.02039 0.0
C287 C 0.44988 0.26587 0.02046 0.0
C288 C 0.44385 0.23635 1.01233 0.0
C289 C 0.43229 0.24071 1.00141 0.0
C290 C 0.38949 0.19365 0.96933 0.0
C291 C 0.38154 0.26284 0.8359 0.0
C292 C 0.35003 0.23526 0.97089 0.0
C293 C 0.33947 0.23991 0.93227 0.0
C294 C 0.33537 0.21026 0.90348 0.0
C295 C 0.32471 0.21276 0.87504 0.0
C296 C 0.31782 0.24501 0.87493 0.0
C297 C 0.3221 0.27499 0.90179 0.0
C298 C 0.33277 0.27248 0.93019 0.0
C299 C 0.3752 0.32204 0.98992 0.0
O300 O 0.39124 0.26813 0.08306 0.0
O301 O 0.37476 0.24254 0.08583 0.0
O302 O 0.41144 0.25824 0.93302 0.0
O303 O 0.40697 0.29341 0.01631 0.0
O304 O 0.39784 0.2048 0.93845 0.0
O305 O 0.38493 0.21845 1.00434 0.0
O306 O 0.37346 0.24975 0.86908 0.0
O307 O 0.38978 0.27576 0.86763 0.0
O308 O 0.35263 0.26188 1.00659 0.0
O309 O 0.35876 0.2177 0.94346 0.0
O310 O 0.36683 0.30988 0.01886 0.0
O311 O 0.37986 0.29865 0.95159 0.0
H312 H 0.42813 0.33051 1.00704 0.0
H313 H 0.44818 0.32317 0.02544 0.0
H314 H 0.44808 0.20983 1.01321 0.0
H315 H 0.42797 0.2176 0.99281 0.0
H316 H 0.34029 0.18476 0.90473 0.0
H317 H 0.32183 0.18921 0.85385 0.0
H318 H 0.31704 0.30021 0.90331 0.0
H319 H 0.3356 0.29586 0.95237 0.0
H320 H 0.21813 0.31385 0.63532 0.0
H321 H 0.23744 0.31001 0.67334 0.0
H322 H 0.2343 0.20738 0.75719 0.0
H323 H 0.21491 0.21109 0.71987 0.0
H324 H 0.24637 0.30251 0.80006 0.0
H325 H 0.26217 0.1884 0.6427 0.0
H326 H 0.24874 0.21299 0.62935 0.0
H327 H 0.25056 0.18048 0.69433 0.0
C328 C 0.22147 0.29055 0.66244 0.0
C329 C 0.21489 0.26275 0.6743 0.0
C330 C 0.23257 0.28832 0.68383 0.0
C331 C 0.23743 0.25817 0.71723 0.0
C332 C 0.23085 0.23058 0.73013 0.0
H333 H 0.3028 0.19599 0.88883 0.0
H334 H 0.28352 0.19976 0.85024 0.0
C335 C 0.21974 0.23277 0.70874 0.0
C336 C 0.2493 0.25593 0.73927 0.0
H337 H 0.27465 0.2072 0.72308 0.0
C338 C 0.25256 0.28175 0.78298 0.0
C339 C 0.25742 0.22886 0.71708 0.0
C340 C 0.25461 0.20126 0.6678 0.0
C341 C 0.2636 0.28086 0.80603 0.0
C342 C 0.27171 0.25377 0.78388 0.0
C343 C 0.26846 0.22796 0.74015 0.0
C344 C 0.28358 0.25151 0.80603 0.0
C345 C 0.26641 0.30847 0.85528 0.0
C346 C 0.29017 0.27905 0.7931 0.0
C347 C 0.30126 0.2769 0.8148 0.0
C348 C 0.30608 0.247 0.84962 0.0
C349 C 0.29949 0.21922 0.86145 0.0
C350 C 0.2884 0.22141 0.83973 0.0
H351 H 0.25884 0.32141 0.88025 0.0
H352 H 0.27225 0.29673 0.89383 0.0
H353 H 0.27049 0.32919 0.82876 0.0
H354 H 0.28675 0.30221 0.76583 0.0
H355 H 0.3061 0.29855 0.80368 0.0
H356 H 0.71569 0.20813 0.81801 0.0
H357 H 0.73513 0.20517 0.78169 0.0
H358 H 0.73588 0.31475 0.83338 0.0
H359 H 0.71663 0.31765 0.872 0.0
H360 H 0.74506 0.2426 0.68435 0.0
H361 H 0.76311 0.26864 0.93059 0.0
H362 H 0.74903 0.25757 0.92089 0.0
H363 H 0.75229 0.3018 0.90488 0.0
C364 C 0.72 0.23155 0.82235 0.0
C365 C 0.71452 0.26309 0.84841 0.0
C366 C 0.73112 0.22986 0.80111 0.0
C367 C 0.73708 0.25955 0.8058 0.0
C368 C 0.73158 0.29124 0.83048 0.0
H369 H 0.80464 0.30325 0.70468 0.0
H370 H 0.7852 0.30616 0.74082 0.0
C371 C 0.72047 0.29297 0.85173 0.0
C372 C 0.74897 0.2575 0.78409 0.0
H373 H 0.77527 0.26873 0.83783 0.0
C374 C 0.75166 0.24814 0.71803 0.0
C375 C 0.75764 0.26479 0.82788 0.0
C376 C 0.75542 0.27344 0.90017 0.0
C377 C 0.76269 0.24654 0.69429 0.0
C378 C 0.77135 0.25383 0.73808 0.0
C379 C 0.76866 0.26319 0.80415 0.0
C380 C 0.78325 0.25181 0.71639 0.0
C381 C 0.7649 0.23791 0.62199 0.0
C382 C 0.78875 0.22015 0.69158 0.0
C383 C 0.79986 0.21845 0.67042 0.0
C384 C 0.80581 0.24833 0.67397 0.0
C385 C 0.80033 0.27983 0.70015 0.0
C386 C 0.7892 0.2815 0.72128 0.0
H387 H 0.75721 0.24275 0.59158 0.0
H388 H 0.77129 0.25378 0.60129 0.0
H389 H 0.76802 0.20955 0.61725 0.0
H390 H 0.78445 0.19665 0.68852 0.0
H391 H 0.80371 0.19381 0.65005 0.0
H392 H 0.30863 0.70444 0.24952 0.0
H393 H 0.28918 0.70744 0.28564 0.0
H394 H 0.28086 0.79702 0.15752 0.0
H395 H 0.30018 0.79356 0.11953 0.0
H396 H 0.27561 0.7612 0.34759 0.0
H397 H 0.2581 0.73091 0.10188 0.0
H398 H 0.27283 0.72431 0.11935 0.0
H399 H 0.26622 0.76779 0.10113 0.0
C400 C 0.30266 0.72463 0.22851 0.0
C401 C 0.30604 0.74861 0.18113 0.0
C402 C 0.29153 0.72643 0.24957 0.0
C403 C 0.28347 0.75205 0.2235 0.0
C404 C 0.28685 0.77654 0.17744 0.0
H405 H 0.21208 0.80524 0.2845 0.0
H406 H 0.23154 0.80227 0.24872 0.0
C407 C 0.29797 0.7748 0.1564 0.0
C408 C 0.27157 0.7533 0.2449 0.0
H409 H 0.2451 0.74858 0.18712 0.0
C410 C 0.26895 0.75827 0.31253 0.0
C411 C 0.26284 0.74952 0.19924 0.0
C412 C 0.26511 0.74251 0.12644 0.0
C413 C 0.25787 0.76026 0.33548 0.0
C414 C 0.24914 0.75649 0.28982 0.0
C415 C 0.25176 0.75151 0.22219 0.0
C416 C 0.23724 0.75777 0.31117 0.0
C417 C 0.2556 0.76729 0.40828 0.0
C418 C 0.23385 0.73334 0.35731 0.0
C419 C 0.22272 0.73508 0.37818 0.0
C420 C 0.21465 0.76119 0.35316 0.0
C421 C 0.21804 0.78511 0.30573 0.0
C422 C 0.22918 0.78332 0.28486 0.0
H423 H 0.26261 0.77891 0.43281 0.0
H424 H 0.24788 0.78547 0.41537 0.0
H425 H 0.2545 0.742 0.43361 0.0
H426 H 0.23983 0.7129 0.37742 0.0
H427 H 0.22049 0.71637 0.41511 0.0
H428 H 0.71402 0.71565 0.2324 0.0
H429 H 0.73338 0.71217 0.27062 0.0
H430 H 0.73752 0.8097 0.16952 0.0
H431 H 0.71827 0.81328 0.13075 0.0
H432 H 0.75296 0.70878 0.19769 0.0
H433 H 0.7489 0.82914 0.35472 0.0
H434 H 0.73697 0.80919 0.32422 0.0
H435 H 0.74425 0.83689 0.27077 0.0
C436 C 0.71904 0.73636 0.21812 0.0
C437 C 0.71448 0.76492 0.1788 0.0
C438 C 0.73012 0.73439 0.24028 0.0
C439 C 0.73689 0.76098 0.22403 0.0
C440 C 0.73241 0.78931 0.18432 0.0
H441 H 0.8062 0.79581 0.29868 0.0
H442 H 0.78684 0.79908 0.26079 0.0
C443 C 0.72135 0.79132 0.16218 0.0
C444 C 0.74873 0.7586 0.24686 0.0
H445 H 0.76729 0.80249 0.33458 0.0
C446 C 0.75607 0.72918 0.22796 0.0
C447 C 0.75284 0.78525 0.2862 0.0
C448 C 0.74532 0.81675 0.31075 0.0
C449 C 0.7674 0.726 0.24612 0.0
C450 C 0.77152 0.75268 0.28538 0.0
C451 C 0.76418 0.78209 0.30432 0.0
C452 C 0.78337 0.75038 0.30798 0.0
C453 C 0.77493 0.69449 0.22165 0.0
C454 C 0.78788 0.72217 0.34787 0.0
C455 C 0.79895 0.72028 0.36985 0.0
C456 C 0.8058 0.7467 0.35286 0.0
C457 C 0.80121 0.77511 0.31328 0.0
C458 C 0.79012 0.77696 0.2913 0.0
H459 H 0.77133 0.68196 0.1779 0.0
H460 H 0.78326 0.70208 0.20789 0.0
H461 H 0.77604 0.67446 0.2618 0.0
H462 H 0.78279 0.70179 0.36296 0.0
H463 H 0.80205 0.69843 0.40148 0.0
H464 H 0.14727 0.84604 0.53761 0.0
H465 H 0.14932 0.90914 0.55068 0.0
H466 H 0.11964 0.93522 0.43394 0.0
H467 H 0.11777 0.87233 0.41922 0.0
H468 H 0.13516 0.97485 0.39697 0.0
H469 H 0.13246 0.97975 0.67148 0.0
H470 H 0.14351 0.94829 0.64241 0.0
H471 H 0.12926 0.9418 0.62429 0.0
C472 C 0.14119 0.86527 0.5148 0.0
C473 C 0.13232 0.85415 0.47768 0.0
C474 C 0.1423 0.90141 0.52282 0.0
C475 C 0.13449 0.92726 0.49462 0.0
C476 C 0.12574 0.91602 0.45668 0.0
H477 H 0.1289 0.15472 0.59204 0.0
H478 H 0.12557 0.09217 0.58228 0.0
C479 C 0.12468 0.87997 0.44828 0.0
C480 C 0.13557 0.96593 0.50265 0.0
H481 H 0.13814 0.03084 0.61792 0.0
C482 C 0.13576 0.98702 0.4454 0.0
C483 C 0.13614 0.98229 0.56575 0.0
C484 C 0.13522 0.96196 0.6295 0.0
C485 C 0.13675 0.02349 0.4493 0.0
C486 C 0.13788 0.03951 0.51222 0.0
C487 C 0.13741 0.01867 0.56961 0.0
C488 C 0.13985 0.07754 0.51914 0.0
C489 C 0.1364 0.0446 0.38571 0.0
C490 C 0.14905 0.0902 0.48798 0.0
C491 C 0.15091 0.12578 0.49319 0.0
C492 C 0.1437 0.14965 0.53053 0.0
C493 C 0.13459 0.13699 0.56286 0.0
C494 C 0.1327 0.10124 0.55735 0.0
H495 H 0.13202 0.03155 0.34559 0.0
H496 H 0.13218 0.07166 0.39317 0.0
H497 H 0.14504 0.04675 0.36859 0.0
H498 H 0.15487 0.07248 0.45968 0.0
H499 H 0.15805 0.13455 0.46801 0.0
H500 H 0.88824 0.35911 0.61626 0.0
H501 H 0.89069 0.42244 0.61125 0.0
H502 H 0.8702 0.43307 0.43538 0.0
H503 H 0.86743 0.37058 0.44167 0.0
H504 H 0.89949 0.4634 0.52298 0.0
H505 H 0.85481 0.51059 0.54533 0.0
H506 H 0.86006 0.46508 0.55915 0.0
H507 H 0.85731 0.48129 0.47599 0.0
C508 C 0.88424 0.37508 0.57673 0.0
C509 C 0.87751 0.35998 0.52991 0.0
C510 C 0.88564 0.41127 0.57383 0.0
C511 C 0.88038 0.433 0.52395 0.0
C512 C 0.87404 0.41742 0.47576 0.0
H513 H 0.89855 0.63831 0.39587 0.0
H514 H 0.89648 0.57553 0.41099 0.0
C515 C 0.87253 0.38152 0.4791 0.0
C516 C 0.88158 0.47174 0.52128 0.0
H517 H 0.86665 0.55293 0.50668 0.0
C518 C 0.8923 0.48297 0.51998 0.0
C519 C 0.87223 0.49763 0.51876 0.0
C520 C 0.86047 0.48807 0.52564 0.0
C521 C 0.89392 0.51898 0.51414 0.0
C522 C 0.88457 0.54464 0.5073 0.0
C523 C 0.87386 0.53347 0.51072 0.0
C524 C 0.88567 0.58312 0.49694 0.0
C525 C 0.90567 0.52908 0.51669 0.0
C526 C 0.87989 0.60884 0.53795 0.0
C527 C 0.88086 0.64489 0.5283 0.0
C528 C 0.88771 0.65609 0.47763 0.0
C529 C 0.89332 0.63049 0.43581 0.0
C530 C 0.89222 0.59449 0.44492 0.0
H531 H 0.9113 0.50898 0.54371 0.0
H532 H 0.90891 0.53075 0.4653 0.0
H533 H 0.906 0.55505 0.54132 0.0
H534 H 0.8747 0.60099 0.57809 0.0
H535 H 0.87641 0.66396 0.56127 0.0
H536 H 0.88804 0.85931 0.41181 0.0
H537 H 0.89073 0.92234 0.41841 0.0
H538 H 0.8706 0.93231 0.59599 0.0
H539 H 0.86757 0.87007 0.58795 0.0
H540 H 0.86459 0.98516 0.51752 0.0
H541 H 0.91063 0.97269 0.53492 0.0
H542 H 0.90571 0.95278 0.46131 0.0
H543 H 0.90278 0.9351 0.54163 0.0
C544 C 0.88426 0.87499 0.4524 0.0
C545 C 0.87758 0.85975 0.49931 0.0
C546 C 0.88586 0.91101 0.45647 0.0
C547 C 0.881 0.93229 0.50832 0.0
C548 C 0.87444 0.91674 0.55545 0.0
H549 H 0.89861 0.13854 0.63263 0.0
H550 H 0.89628 0.07578 0.6192 0.0
C551 C 0.87273 0.88104 0.5509 0.0
C552 C 0.88232 0.97094 0.51293 0.0
H553 H 0.90156 0.0307 0.52201 0.0
C554 C 0.8727 0.99503 0.51858 0.0
C555 C 0.89287 0.9841 0.51521 0.0
C556 C 0.90359 0.95982 0.51363 0.0
C557 C 0.87329 0.03153 0.52667 0.0
C558 C 0.88383 0.04482 0.52698 0.0
C559 C 0.89346 0.02076 0.52122 0.0
C560 C 0.88507 0.08334 0.53526 0.0
C561 C 0.8626 0.05524 0.53712 0.0
C562 C 0.8796 0.10885 0.49258 0.0
C563 C 0.88079 0.14487 0.50094 0.0
C564 C 0.88767 0.15616 0.55129 0.0
C565 C 0.89324 0.13068 0.59346 0.0
C566 C 0.89194 0.09474 0.58562 0.0
H567 H 0.85583 0.0402 0.55575 0.0
H568 H 0.86376 0.0767 0.573 0.0
H569 H 0.85983 0.06737 0.489 0.0
H570 H 0.87449 0.10091 0.45218 0.0
H571 H 0.87648 0.16381 0.4672 0.0
H572 H 0.15342 0.63954 0.58615 0.0
H573 H 0.15066 0.57703 0.59264 0.0
H574 H 0.13003 0.58765 0.41736 0.0
H575 H 0.13246 0.65098 0.41227 0.0
H576 H 0.12128 0.54666 0.50489 0.0
H577 H 0.16596 0.49922 0.48362 0.0
H578 H 0.16343 0.52843 0.55306 0.0
H579 H 0.16075 0.54478 0.46991 0.0
C580 C 0.1483 0.62859 0.54889 0.0
C581 C 0.14326 0.65015 0.49825 0.0
C582 C 0.1468 0.59266 0.55232 0.0
C583 C 0.14041 0.57705 0.50437 0.0
C584 C 0.13511 0.5988 0.45463 0.0
H585 H 0.14434 0.34595 0.46588 0.0
H586 H 0.14612 0.40895 0.44983 0.0
C587 C 0.1365 0.63501 0.45167 0.0
C588 C 0.13919 0.53826 0.5071 0.0
H589 H 0.15406 0.45693 0.52165 0.0
C590 C 0.12846 0.52706 0.50801 0.0
C591 C 0.14852 0.51229 0.50979 0.0
C592 C 0.1603 0.52176 0.50329 0.0
C593 C 0.12681 0.49104 0.51351 0.0
C594 C 0.13614 0.46529 0.52045 0.0
C595 C 0.14687 0.47643 0.51752 0.0
C596 C 0.135 0.42675 0.53035 0.0
C597 C 0.11506 0.48104 0.51041 0.0
C598 C 0.12834 0.41527 0.58177 0.0
C599 C 0.12721 0.37925 0.59039 0.0
C600 C 0.13288 0.35369 0.54874 0.0
C601 C 0.13983 0.36497 0.49869 0.0
C602 C 0.14085 0.40106 0.48951 0.0
H603 H 0.10947 0.50123 0.48328 0.0
H604 H 0.11473 0.45512 0.48558 0.0
H605 H 0.11176 0.47933 0.56165 0.0
H606 H 0.12404 0.43416 0.61562 0.0
H607 H 0.12189 0.37138 0.62988 0.0
H608 H 0.62856 0.65509 0.0931 0.0
H609 H 0.62547 0.59239 0.08358 0.0
H610 H 0.65526 0.57309 0.96502 0.0
H611 H 0.65816 0.63539 0.97285 0.0
H612 H 0.63908 0.54165 0.91059 0.0
H613 H 0.64083 0.50778 0.17857 0.0
H614 H 0.63035 0.54318 0.15843 0.0
H615 H 0.64483 0.54901 0.14723 0.0
C616 C 0.63446 0.63736 0.06532 0.0
C617 C 0.64364 0.65023 0.03407 0.0
C618 C 0.63274 0.60141 0.06024 0.0
C619 C 0.64024 0.57755 0.02443 0.0
C620 C 0.64936 0.59065 0.99309 0.0
H621 H 0.64695 0.34603 0.03752 0.0
H622 H 0.6492 0.40908 0.05059 0.0
C623 C 0.65102 0.62641 0.99775 0.0
C624 C 0.63856 0.5392 0.01743 0.0
H625 H 0.6358 0.46341 0.10494 0.0
C626 C 0.63836 0.52462 0.95323 0.0
C627 C 0.63778 0.51655 0.07281 0.0
C628 C 0.63856 0.52976 0.14316 0.0
C629 C 0.63738 0.48846 0.94285 0.0
C630 C 0.63628 0.46601 0.99814 0.0
C631 C 0.63655 0.48048 0.0624 0.0
C632 C 0.63492 0.42751 0.99023 0.0
C633 C 0.63787 0.47455 0.87255 0.0
C634 C 0.6261 0.41654 0.95247 0.0
C635 C 0.62487 0.38055 0.94452 0.0
C636 C 0.63233 0.35451 0.97489 0.0
C637 C 0.64109 0.3654 1.01331 0.0
C638 C 0.64235 0.40148 0.02098 0.0
H639 H 0.64205 0.49207 0.83865 0.0
H640 H 0.64238 0.44761 0.87006 0.0
H641 H 0.62927 0.47331 0.85398 0.0
H642 H 0.62008 0.43588 0.92949 0.0
H643 H 0.61799 0.37312 0.91504 0.0
H644 H 0.38826 0.85885 0.11978 0.0
H645 H 0.39075 0.92213 0.11367 0.0
H646 H 0.36987 0.93237 0.93945 0.0
H647 H 0.36706 0.86995 0.94691 0.0
H648 H 0.39941 0.9628 0.0248 0.0
H649 H 0.35481 0.01069 0.04836 0.0
H650 H 0.36 0.96516 0.06248 0.0
H651 H 0.35718 0.98117 0.97925 0.0
C652 C 0.38418 0.87472 0.0804 0.0
C653 C 0.37733 0.8595 0.03439 0.0
C654 C 0.38561 0.91091 0.07686 0.0
C655 C 0.38025 0.93256 0.02712 0.0
C656 C 0.37378 0.91684 0.97976 0.0
H657 H 0.3987 0.1375 0.89634 0.0
H658 H 0.39654 0.07482 0.91202 0.0
C659 C 0.37225 0.88095 0.98375 0.0
C660 C 0.3815 0.97133 0.02371 0.0
H661 H 0.36667 0.0527 1.00863 0.0
C662 C 0.39224 0.98244 0.02182 0.0
C663 C 0.37219 0.99736 0.02118 0.0
C664 C 0.36041 0.98803 0.02868 0.0
C665 C 0.39391 0.01842 0.01545 0.0
C666 C 0.38459 0.04422 1.00867 0.0
C667 C 0.37386 0.03317 1.01262 0.0
C668 C 0.38574 0.08271 0.99791 0.0
C669 C 0.40568 0.02833 0.01747 0.0
C670 C 0.37998 0.10864 0.03864 0.0
C671 C 0.38101 0.14467 0.02867 0.0
C672 C 0.38787 0.15568 0.9779 0.0
C673 C 0.39345 0.12987 0.93636 0.0
C674 C 0.39231 0.0939 0.9458 0.0
H675 H 0.4113 0.00824 0.04457 0.0
H676 H 0.40888 0.02976 0.96595 0.0
H677 H 0.40607 0.05436 0.04175 0.0
H678 H 0.37477 0.10099 0.07885 0.0
H679 H 0.37657 0.16388 0.06144 0.0
H680 H 0.39229 0.35463 0.93281 0.0
H681 H 0.39565 0.41718 0.9432 0.0
H682 H 0.36619 0.4369 0.06439 0.0
H683 H 0.36299 0.37494 0.0556 0.0
H684 H 0.38327 0.47908 0.9081 0.0
H685 H 0.38889 0.47686 0.18072 0.0
H686 H 0.38875 0.437 0.13234 0.0
H687 H 0.37587 0.46189 0.15681 0.0
C688 C 0.38657 0.37238 0.96178 0.0
C689 C 0.37741 0.35974 0.99371 0.0
C690 C 0.38849 0.40813 0.96766 0.0
C691 C 0.38131 0.43183 1.00578 0.0
C692 C 0.37204 0.41919 0.03626 0.0
H693 H 0.37352 0.66341 0.99189 0.0
H694 H 0.37171 0.60027 0.97673 0.0
C695 C 0.37018 0.38366 0.03076 0.0
C696 C 0.38331 0.4698 1.0136 0.0
H697 H 0.38564 0.53391 0.13057 0.0
C698 C 0.38388 0.49099 0.95675 0.0
C699 C 0.38428 0.4855 0.07697 0.0
C700 C 0.38454 0.46405 0.14012 0.0
C701 C 0.38506 0.52741 0.96157 0.0
C702 C 0.38544 0.54346 0.02509 0.0
C703 C 0.38518 0.522 0.0818 0.0
C704 C 0.38639 0.58216 0.03418 0.0
C705 C 0.3861 0.54812 0.89838 0.0
C706 C 0.39496 0.59343 0.0736 0.0
C707 C 0.39588 0.62949 0.0832 0.0
C708 C 0.38826 0.65533 0.05357 0.0
C709 C 0.37957 0.64418 0.01494 0.0
C710 C 0.37861 0.60801 1.00571 0.0
H711 H 0.38903 0.53062 0.85633 0.0
H712 H 0.37781 0.56161 0.88486 0.0
H713 H 0.39196 0.56847 0.90467 0.0
H714 H 0.40104 0.57425 0.09659 0.0
H715 H 0.40265 0.63714 0.11339 0.0
H716 H 0.62843 0.15521 0.92997 0.0
H717 H 0.6251 0.09263 0.9402 0.0
H718 H 0.65424 0.07344 0.06411 0.0
H719 H 0.65741 0.13544 0.05534 0.0
H720 H 0.63771 0.03077 0.90619 0.0
H721 H 0.63123 0.03326 0.17819 0.0
H722 H 0.63145 0.07307 0.12982 0.0
H723 H 0.64428 0.04841 0.15551 0.0
C724 C 0.63408 0.13758 0.95951 0.0
C725 C 0.64315 0.15039 0.99214 0.0
C726 C 0.63219 0.1018 0.9653 0.0
C727 C 0.63929 0.07822 1.00408 0.0
C728 C 0.64845 0.09104 0.03539 0.0
H729 H 0.64715 0.84642 0.99067 0.0
H730 H 0.64902 0.90953 0.97583 0.0
C731 C 0.6503 0.1266 0.02992 0.0
C732 C 0.63731 0.04019 1.01166 0.0
H733 H 0.63462 0.97619 0.12828 0.0
C734 C 0.63694 0.01891 0.95475 0.0
C735 C 0.63615 0.02455 0.07489 0.0
C736 C 0.63568 0.04608 0.13802 0.0
C737 C 0.63576 0.98248 0.9594 0.0
C738 C 0.63517 0.96649 0.02284 0.0
C739 C 0.63524 0.98804 0.07959 0.0
C740 C 0.63419 0.92777 0.03179 0.0
C741 C 0.63495 0.96169 0.89608 0.0
C742 C 0.62549 0.91656 0.07028 0.0
C743 C 0.62452 0.8805 0.07971 0.0
C744 C 0.63222 0.8546 0.05083 0.0
C745 C 0.64103 0.86569 1.01312 0.0
C746 C 0.64204 0.90185 1.00407 0.0
H747 H 0.63217 0.97913 0.8537 0.0
H748 H 0.64329 0.94821 0.88353 0.0
H749 H 0.62907 0.94133 0.90163 0.0
H750 H 0.61935 0.93578 0.09268 0.0
H751 H 0.61766 0.87292 0.10919 0.0
H752 H 0.12331 0.22417 0.32598 0.0
H753 H 0.1236 0.22193 0.20422 0.0
H754 H 0.15319 0.27612 0.20229 0.0
H755 H 0.15304 0.27821 0.32363 0.0
H756 H 0.12272 0.27719 0.11142 0.0
H757 H 0.16224 0.1897 0.08613 0.0
H758 H 0.15477 0.19534 0.16381 0.0
H759 H 0.16336 0.22827 0.13603 0.0
C760 C 0.1299 0.23556 0.29973 0.0
C761 C 0.13818 0.25122 0.33491 0.0
C762 C 0.13004 0.23427 0.23002 0.0
C763 C 0.13852 0.24831 0.19394 0.0
C764 C 0.1467 0.2644 0.22889 0.0
H765 H 0.15445 0.27047 0.77428 0.0
H766 H 0.15408 0.27107 0.89599 0.0
C767 C 0.14655 0.26577 0.29847 0.0
C768 C 0.13871 0.24677 0.11982 0.0
H769 H 0.15464 0.21619 0.98706 0.0
C770 C 0.12966 0.26366 0.08424 0.0
C771 C 0.1478 0.22923 0.08419 0.0
C772 C 0.15756 0.20931 0.11937 0.0
C773 C 0.12955 0.26415 1.01425 0.0
C774 C 0.13864 0.24665 0.97859 0.0
C775 C 0.14768 0.22967 1.01421 0.0
C776 C 0.13894 0.24564 0.9044 0.0
C777 C 0.11982 0.28427 0.97918 0.0
C778 C 0.13068 0.23052 0.86831 0.0
C779 C 0.13086 0.23015 0.79867 0.0
C780 C 0.13936 0.24466 0.76331 0.0
C781 C 0.14776 0.2591 0.79964 0.0
C782 C 0.14757 0.25947 0.86936 0.0
H783 H 0.11516 0.30389 1.01253 0.0
H784 H 0.12262 0.29829 0.93484 0.0
H785 H 0.11398 0.26545 0.96242 0.0
H786 H 0.12408 0.21893 0.89404 0.0
H787 H 0.12428 0.21863 0.77259 0.0
H788 H 0.86819 0.23037 0.3238 0.0
H789 H 0.86815 0.23217 0.20243 0.0
H790 H 0.89805 0.28482 0.2048 0.0
H791 H 0.89824 0.2828 0.32648 0.0
H792 H 0.86686 0.29039 0.11895 0.0
H793 H 0.90613 0.20408 0.0742 0.0
H794 H 0.89922 0.20668 0.15391 0.0
H795 H 0.90757 0.24073 0.12857 0.0
C796 C 0.87482 0.24213 0.2987 0.0
C797 C 0.88326 0.25628 0.33524 0.0
C798 C 0.87476 0.2432 0.22911 0.0
C799 C 0.88316 0.25821 0.19418 0.0
C800 C 0.89159 0.27245 0.23042 0.0
H801 H 0.89627 0.29092 0.77389 0.0
H802 H 0.89636 0.29036 0.89537 0.0
C803 C 0.89166 0.27142 0.30014 0.0
C804 C 0.88289 0.25975 0.12004 0.0
H805 H 0.89762 0.23323 0.9803 0.0
C806 C 0.87357 0.27777 0.08864 0.0
C807 C 0.89165 0.24336 0.08032 0.0
C808 C 0.90167 0.22233 0.11077 0.0
C809 C 0.87284 0.28033 0.01892 0.0
C810 C 0.88158 0.26386 0.97918 0.0
C811 C 0.89092 0.2459 1.0106 0.0
C812 C 0.88124 0.26498 0.90501 0.0
C813 C 0.86282 0.30139 0.98854 0.0
C814 C 0.87273 0.25076 0.86953 0.0
C815 C 0.87262 0.25112 0.79979 0.0
C816 C 0.88108 0.26552 0.76388 0.0
C817 C 0.88959 0.27974 0.79964 0.0
C818 C 0.88968 0.27937 0.86928 0.0
H819 H 0.85847 0.32001 0.02492 0.0
H820 H 0.86523 0.31666 0.94481 0.0
H821 H 0.85683 0.28304 0.97174 0.0
H822 H 0.86624 0.23883 0.89575 0.0
H823 H 0.86599 0.23967 0.77409 0.0
H824 H 0.15437 0.77058 0.2537 0.0
H825 H 0.15398 0.77153 0.13198 0.0
H826 H 0.12386 0.72002 0.13356 0.0
H827 H 0.12408 0.71934 0.25499 0.0
H828 H 0.15437 0.71686 0.04011 0.0
H829 H 0.1151 0.80572 0.01652 0.0
H830 H 0.1226 0.79969 0.09396 0.0
H831 H 0.11384 0.76721 0.06625 0.0
C832 C 0.14765 0.75941 0.22825 0.0
C833 C 0.13922 0.74505 0.26446 0.0
C834 C 0.14745 0.75999 0.15854 0.0
C835 C 0.13877 0.74645 0.12341 0.0
C836 C 0.13049 0.73139 0.15938 0.0
H837 H 0.12284 0.72625 0.70225 0.0
H838 H 0.12318 0.72401 0.82399 0.0
C839 C 0.13069 0.7308 0.22901 0.0
C840 C 0.13846 0.74774 0.04926 0.0
H841 H 0.12253 0.77912 0.91715 0.0
C842 C 0.14743 0.73061 1.01326 0.0
C843 C 0.12939 0.76562 1.01401 0.0
C844 C 0.11973 0.78589 0.04954 0.0
C845 C 0.14751 0.73037 0.94328 0.0
C846 C 0.13844 0.74826 0.90806 0.0
C847 C 0.12946 0.76533 0.94402 0.0
C848 C 0.1382 0.74994 0.83396 0.0
C849 C 0.15719 0.71026 0.90765 0.0
C850 C 0.14641 0.76582 0.79886 0.0
C851 C 0.14623 0.76719 0.72929 0.0
C852 C 0.1378 0.75286 0.69302 0.0
C853 C 0.12948 0.73748 0.72837 0.0
C854 C 0.12965 0.73618 0.79806 0.0
H855 H 0.16185 0.69048 0.9406 0.0
H856 H 0.15433 0.69647 0.86321 0.0
H857 H 0.16304 0.72907 0.89093 0.0
H858 H 0.15295 0.77733 0.82532 0.0
H859 H 0.15275 0.77941 0.70399 0.0
H860 H 0.89815 0.78173 0.70177 0.0
H861 H 0.89802 0.7829 0.82361 0.0
H862 H 0.86745 0.73373 0.82469 0.0
H863 H 0.8676 0.73192 0.70346 0.0
H864 H 0.88232 0.81576 0.90967 0.0
H865 H 0.88652 0.67117 0.95259 0.0
H866 H 0.88908 0.69019 0.87263 0.0
H867 H 0.87506 0.68625 0.89952 0.0
C868 C 0.89144 0.7709 0.7279 0.0
C869 C 0.88293 0.7565 0.69252 0.0
C870 C 0.89137 0.77166 0.79765 0.0
C871 C 0.88282 0.75787 0.8336 0.0
C872 C 0.87428 0.74376 0.79836 0.0
H873 H 0.86575 0.74102 0.2532 0.0
H874 H 0.866 0.7408 0.13143 0.0
C875 C 0.87435 0.74295 0.72878 0.0
C876 C 0.88264 0.75914 0.90778 0.0
H877 H 0.88193 0.70762 0.04671 0.0
C878 C 0.88231 0.79208 0.93963 0.0
C879 C 0.88258 0.72828 0.94709 0.0
C880 C 0.88344 0.69194 0.91634 0.0
C881 C 0.88169 0.79509 1.00933 0.0
C882 C 0.88159 0.76424 0.04861 0.0
C883 C 0.88195 0.73129 0.01676 0.0
C884 C 0.88128 0.76547 0.12277 0.0
C885 C 0.88088 0.83141 0.04016 0.0
C886 C 0.88981 0.7792 0.15876 0.0
C887 C 0.88968 0.77946 0.22839 0.0
C888 C 0.88105 0.76575 0.26389 0.0
C889 C 0.87251 0.75196 0.22771 0.0
C890 C 0.87265 0.75173 0.15798 0.0
H891 H 0.87792 0.85227 1.00379 0.0
H892 H 0.87514 0.83326 0.08345 0.0
H893 H 0.88924 0.83682 0.0577 0.0
H894 H 0.8967 0.78922 0.133 0.0
H895 H 0.89646 0.79002 0.25435 0.0
H896 H 0.65447 0.77013 0.27684 0.0
H897 H 0.65428 0.77019 0.39854 0.0
H898 H 0.62353 0.72205 0.39728 0.0
H899 H 0.62372 0.72142 0.27586 0.0
H900 H 0.63845 0.8033 0.4838 0.0
H901 H 0.64242 0.65852 0.52541 0.0
H902 H 0.64515 0.67773 0.44585 0.0
H903 H 0.63106 0.67423 0.47198 0.0
C904 C 0.64771 0.75925 0.30235 0.0
C905 C 0.63914 0.74557 0.26625 0.0
C906 C 0.64761 0.75937 0.37206 0.0
C907 C 0.63898 0.74565 0.40732 0.0
C908 C 0.63041 0.73206 0.37142 0.0
H909 H 0.62248 0.72854 0.82818 0.0
H910 H 0.62258 0.72761 0.70642 0.0
C911 C 0.63051 0.7319 0.30178 0.0
C912 C 0.63875 0.74669 0.48147 0.0
H913 H 0.63821 0.69481 0.62001 0.0
C914 C 0.63846 0.77955 0.51357 0.0
C915 C 0.6387 0.71574 0.52049 0.0
C916 C 0.63945 0.67951 0.48932 0.0
C917 C 0.63794 0.78238 0.58328 0.0
C918 C 0.63793 0.75142 0.62233 0.0
C919 C 0.63819 0.71856 0.59023 0.0
C920 C 0.6378 0.7525 0.69648 0.0
C921 C 0.63715 0.81864 0.61438 0.0
C922 C 0.64638 0.76645 0.73172 0.0
C923 C 0.64633 0.76713 0.80132 0.0
C924 C 0.63774 0.75359 0.83752 0.0
C925 C 0.6292 0.73933 0.80211 0.0
C926 C 0.62926 0.73872 0.73239 0.0
H927 H 0.63407 0.83954 0.57839 0.0
H928 H 0.63154 0.82032 0.65823 0.0
H929 H 0.64555 0.82417 0.63108 0.0
H930 H 0.65321 0.77648 0.70539 0.0
H931 H 0.65309 0.77804 0.8267 0.0
H932 H 0.39802 0.78192 0.83021 0.0
H933 H 0.39766 0.78415 0.70848 0.0
H934 H 0.36759 0.73239 0.70747 0.0
H935 H 0.3678 0.73034 0.82878 0.0
H936 H 0.39801 0.72925 0.61523 0.0
H937 H 0.35903 0.81955 0.59259 0.0
H938 H 0.36656 0.81312 0.66988 0.0
H939 H 0.35767 0.78103 0.64213 0.0
C940 C 0.39132 0.77101 0.80417 0.0
C941 C 0.38291 0.7561 0.83959 0.0
C942 C 0.39113 0.77231 0.73448 0.0
C943 C 0.38249 0.75901 0.69869 0.0
C944 C 0.3742 0.74355 0.73387 0.0
H945 H 0.36613 0.73915 0.27904 0.0
H946 H 0.36654 0.73804 0.40077 0.0
C947 C 0.37439 0.74219 0.80342 0.0
C948 C 0.38222 0.76075 0.62462 0.0
H949 H 0.36634 0.7929 0.4929 0.0
C950 C 0.39112 0.74335 0.58849 0.0
C951 C 0.3732 0.77905 0.5896 0.0
C952 C 0.36361 0.79954 0.62541 0.0
C953 C 0.39116 0.74312 0.51852 0.0
C954 C 0.38214 0.76139 0.48347 0.0
C955 C 0.37324 0.77884 0.51962 0.0
C956 C 0.3818 0.76278 0.40937 0.0
C957 C 0.40073 0.72253 0.48276 0.0
C958 C 0.39011 0.77772 0.37346 0.0
C959 C 0.38991 0.77841 0.30385 0.0
C960 C 0.38134 0.76437 0.26837 0.0
C961 C 0.37288 0.75014 0.30452 0.0
C962 C 0.37309 0.74948 0.37423 0.0
H963 H 0.40532 0.70256 0.51567 0.0
H964 H 0.39778 0.70886 0.43843 0.0
H965 H 0.40668 0.74098 0.46586 0.0
H966 H 0.39678 0.7889 0.39931 0.0
H967 H 0.39654 0.78976 0.27791 0.0
H968 H 0.65282 0.27812 0.20028 0.0
H969 H 0.65297 0.27598 0.32165 0.0
H970 H 0.622 0.22908 0.32005 0.0
H971 H 0.62185 0.23059 0.19842 0.0
H972 H 0.63791 0.30673 0.41291 0.0
H973 H 0.64145 0.16081 0.4373 0.0
H974 H 0.64374 0.18255 0.35955 0.0
H975 H 0.6298 0.17894 0.38831 0.0
C976 C 0.64603 0.26729 0.22556 0.0
C977 C 0.63734 0.25436 0.18928 0.0
C978 C 0.64613 0.26611 0.29513 0.0
C979 C 0.6376 0.25183 0.33017 0.0
C980 C 0.62881 0.23949 0.29422 0.0
H981 H 0.62351 0.22338 0.74995 0.0
H982 H 0.62334 0.22496 0.6285 0.0
C983 C 0.6287 0.2406 0.22455 0.0
C984 C 0.63786 0.2504 0.40425 0.0
H985 H 0.63838 0.19394 0.53669 0.0
C986 C 0.63806 0.28205 0.43996 0.0
C987 C 0.63805 0.2182 0.43969 0.0
C988 C 0.63836 0.18314 0.40437 0.0
C989 C 0.63824 0.28247 0.5099 0.0
C990 C 0.63844 0.25027 0.54534 0.0
C991 C 0.63823 0.21862 0.50964 0.0
C992 C 0.63875 0.24888 0.61942 0.0
C993 C 0.63794 0.31754 0.54519 0.0
C994 C 0.64757 0.26119 0.65506 0.0
C995 C 0.6477 0.26038 0.72473 0.0
C996 C 0.63903 0.24696 0.76036 0.0
C997 C 0.63033 0.23395 0.72439 0.0
C998 C 0.63021 0.23482 0.65479 0.0
H999 H 0.63483 0.33985 0.51227 0.0
H1000 H 0.63257 0.31812 0.59006 0.0
H1001 H 0.6465 0.32175 0.56117 0.0
H1002 H 0.65439 0.27143 0.62897 0.0
H1003 H 0.65456 0.27045 0.7506 0.0
H1004 H 0.36765 0.23275 0.20201 0.0
H1005 H 0.36751 0.23489 0.32333 0.0
H1006 H 0.39864 0.2809 0.32153 0.0
H1007 H 0.39877 0.2794 0.19985 0.0
H1008 H 0.38252 0.20371 0.41429 0.0
H1009 H 0.37934 0.3496 0.43911 0.0
H1010 H 0.37698 0.32797 0.36132 0.0
H1011 H 0.39094 0.33115 0.39003 0.0
C1012 C 0.37448 0.24339 0.22722 0.0
C1013 C 0.3832 0.25606 0.19086 0.0
C1014 C 0.37438 0.24457 0.29676 0.0
C1015 C 0.38296 0.2586 0.33174 0.0
C1016 C 0.39179 0.2707 0.29573 0.0
H1017 H 0.39694 0.28664 0.75158 0.0
H1018 H 0.39714 0.2851 0.63016 0.0
C1019 C 0.39189 0.26958 0.22606 0.0
C1020 C 0.38271 0.26 0.40582 0.0
H1021 H 0.38222 0.31639 0.53841 0.0
C1022 C 0.38241 0.22837 0.44142 0.0
C1023 C 0.38257 0.29217 0.44134 0.0
C1024 C 0.38237 0.32721 0.40612 0.0
C1025 C 0.38218 0.22793 0.51134 0.0
C1026 C 0.38203 0.2601 0.54687 0.0
C1027 C 0.38233 0.29173 0.51128 0.0
C1028 C 0.38169 0.26147 0.62095 0.0
C1029 C 0.38238 0.19287 0.54652 0.0
C1030 C 0.37283 0.2493 0.65651 0.0
C1031 C 0.37269 0.25008 0.7262 0.0
C1032 C 0.38138 0.26333 0.76188 0.0
C1033 C 0.39011 0.27621 0.72598 0.0
C1034 C 0.39025 0.27536 0.65639 0.0
H1035 H 0.38546 0.17051 0.51358 0.0
H1036 H 0.38773 0.19215 0.59148 0.0
H1037 H 0.3738 0.18884 0.56233 0.0
H1038 H 0.366 0.2392 0.63037 0.0
H1039 H 0.3658 0.24012 0.75203 0.0
H1040 H 0.05701 0.25509 0.40567 0.0
H1041 H 0.03664 0.25801 0.40176 0.0
H1042 H 0.03554 0.25402 0.61576 0.0
H1043 H 0.05582 0.25147 0.62004 0.0
H1044 H 0.02261 0.21196 0.44385 0.0
H1045 H 0.0131 0.33754 0.58109 0.0
H1046 H 0.02689 0.32299 0.55075 0.0
H1047 H 0.02198 0.30568 0.62735 0.0
C1048 C 0.05243 0.25495 0.45192 0.0
C1049 C 0.05809 0.25343 0.5132 0.0
C1050 C 0.04077 0.25669 0.44963 0.0
C1051 C 0.03447 0.25696 0.50849 0.0
C1052 C 0.04012 0.25497 0.56964 0.0
H1053 H 0.96516 0.24875 0.61499 0.0
H1054 H 0.98546 0.24704 0.61076 0.0
C1055 C 0.05176 0.25347 0.572 0.0
C1056 C 0.02206 0.25814 0.50607 0.0
H1057 H 0.99798 0.3027 0.56564 0.0
C1058 C 0.01723 0.23202 0.46998 0.0
C1059 C 0.01497 0.28432 0.54005 0.0
C1060 C 0.01949 0.31442 0.57642 0.0
C1061 C 1.00561 0.23078 0.46852 0.0
C1062 C 0.99857 0.25652 0.50359 0.0
C1063 C 1.00337 0.28284 0.53906 0.0
C1064 C 0.98622 0.25637 0.50495 0.0
C1065 C 1.00095 0.20136 0.43096 0.0
C1066 C 0.97984 0.26228 0.44687 0.0
C1067 C 0.96819 0.26325 0.44908 0.0
C1068 C 0.96266 0.25822 0.50945 0.0
C1069 C 0.96911 0.25212 0.56742 0.0
C1070 C 0.98073 0.2514 0.56522 0.0
H1071 H 1.0075 0.17964 0.41842 0.0
H1072 H 0.99434 0.19031 0.46035 0.0
H1073 H 0.99716 0.21197 0.38389 0.0
H1074 H 0.98385 0.26667 0.39991 0.0
H1075 H 0.96351 0.2679 0.40346 0.0
H1076 H 0.96506 0.7545 0.41113 0.0
H1077 H 0.98536 0.75279 0.41626 0.0
H1078 H 0.98374 0.76037 0.62979 0.0
H1079 H 0.96339 0.76165 0.62522 0.0
H1080 H 0.99786 0.80592 0.4745 0.0
H1081 H 1.00737 0.67446 0.59364 0.0
H1082 H 0.99426 0.68755 0.55282 0.0
H1083 H 0.99695 0.70447 0.63381 0.0
C1084 C 0.96901 0.75525 0.45935 0.0
C1085 C 0.96255 0.75795 0.51782 0.0
C1086 C 0.98063 0.75454 0.46213 0.0
C1087 C 0.9861 0.75611 0.5234 0.0
C1088 C 0.97972 0.75867 0.58196 0.0
H1089 H 0.05701 0.74743 0.62472 0.0
H1090 H 0.03663 0.75053 0.62852 0.0
C1091 C 0.96807 0.75966 0.57922 0.0
C1092 C 0.99846 0.75613 0.52555 0.0
H1093 H 0.02249 0.70784 0.5757 0.0
C1094 C 1.00325 0.78448 0.49661 0.0
C1095 C 1.00549 0.72829 0.55481 0.0
C1096 C 1.00082 0.69677 0.58519 0.0
C1097 C 0.01486 0.78588 0.49649 0.0
C1098 C 0.02195 0.75765 0.52449 0.0
C1099 C 0.01712 0.72948 0.55414 0.0
C1100 C 0.03437 0.75647 0.52228 0.0
C1101 C 0.01938 0.81804 0.46753 0.0
C1102 C 0.03997 0.75836 0.46134 0.0
C1103 C 0.05161 0.75677 0.45907 0.0
C1104 C 0.058 0.75273 0.51764 0.0
C1105 C 0.05238 0.75041 0.57861 0.0
C1106 C 0.04072 0.75225 0.58086 0.0
H1107 H 0.01302 0.84136 0.46804 0.0
H1108 H 0.02682 0.82479 0.49525 0.0
H1109 H 0.02181 0.81264 0.41504 0.0
H1110 H 0.03534 0.76051 0.41518 0.0
H1111 H 0.05562 0.7578 0.41108 0.0
H1112 H 0.55744 0.69126 1.00621 0.0
H1113 H 0.53714 0.69445 1.00132 0.0
H1114 H 0.53505 0.80817 1.00136 0.0
H1115 H 0.55538 0.80527 1.00353 0.0
H1116 H 0.52179 0.72333 0.09036 0.0
H1117 H 0.51483 0.79045 0.84721 0.0
H1118 H 0.52842 0.77137 0.87393 0.0
H1119 H 0.52275 0.81393 0.90447 0.0
C1120 C 0.55271 0.71702 1.00373 0.0
C1121 C 0.55814 0.74802 1.00465 0.0
C1122 C 0.54106 0.71878 1.00157 0.0
C1123 C 0.53451 0.75153 0.99998 0.0
C1124 C 0.53988 0.78254 1.00113 0.0
H1125 H 0.46328 0.8177 1.01273 0.0
H1126 H 0.4836 0.81404 1.00897 0.0
C1127 C 0.55154 0.78083 1.00318 0.0
C1128 C 0.52208 0.7531 0.99955 0.0
H1129 H 0.49876 0.78498 0.91311 0.0
C1130 C 0.51676 0.73663 0.05134 0.0
C1131 C 0.51548 0.7705 0.94877 0.0
C1132 C 0.52065 0.78729 0.89009 0.0
C1133 C 0.50508 0.73764 0.05443 0.0
C1134 C 0.49848 0.75512 1.00376 0.0
C1135 C 0.50379 0.77158 0.95196 0.0
C1136 C 0.48606 0.75702 1.00411 0.0
C1137 C 0.49989 0.72074 0.11292 0.0
C1138 C 0.48061 0.72621 1.00134 0.0
C1139 C 0.46894 0.72819 1.00294 0.0
C1140 C 0.46242 0.76108 1.007 0.0
C1141 C 0.46795 0.79191 1.00856 0.0
C1142 C 0.4796 0.78988 1.00686 0.0
H1143 H 0.50579 0.7164 0.15518 0.0
H1144 H 0.49232 0.73729 0.13032 0.0
H1145 H 0.49741 0.69468 0.09764 0.0
H1146 H 0.48538 0.70055 0.9977 0.0
H1147 H 0.46503 0.70391 1.00054 0.0
H1148 H 0.46338 0.30473 0.09524 0.0
H1149 H 0.48371 0.30108 0.09541 0.0
H1150 H 0.48518 0.21311 0.95967 0.0
H1151 H 0.46487 0.21769 0.9564 0.0
H1152 H 0.49971 0.25016 0.1318 0.0
H1153 H 0.5043 0.27668 0.8631 0.0
H1154 H 0.491 0.28263 0.9047 0.0
H1155 H 0.49682 0.23928 0.87891 0.0
C1156 C 0.46799 0.28481 0.06474 0.0
C1157 C 0.46236 0.26176 0.02525 0.0
C1158 C 0.47966 0.2826 0.06532 0.0
C1159 C 0.48604 0.25733 0.02641 0.0
C1160 C 0.48049 0.23347 0.98881 0.0
H1161 H 0.55671 0.19612 0.96622 0.0
H1162 H 0.53636 0.2006 0.97068 0.0
C1163 C 0.46881 0.23577 0.98788 0.0
C1164 C 0.49848 0.25587 0.02553 0.0
H1165 H 0.52094 0.25762 0.92209 0.0
C1166 C 0.50433 0.25203 0.08594 0.0
C1167 C 0.50457 0.25847 0.96578 0.0
C1168 C 0.49886 0.26485 0.89954 0.0
C1169 C 0.51605 0.24985 0.08806 0.0
C1170 C 0.52213 0.25188 0.02825 0.0
C1171 C 0.51629 0.25593 0.96792 0.0
C1172 C 0.53455 0.24923 0.02702 0.0
C1173 C 0.52188 0.24455 0.15414 0.0
C1174 C 0.54035 0.27526 0.05675 0.0
C1175 C 0.55203 0.27279 0.05429 0.0
C1176 C 0.55818 0.24412 0.02228 0.0
C1177 C 0.5523 0.21822 0.99238 0.0
C1178 C 0.54064 0.22085 0.99445 0.0
H1179 H 0.51624 0.23623 0.19343 0.0
H1180 H 0.52919 0.22438 0.15004 0.0
H1181 H 0.52492 0.26976 0.16993 0.0
H1182 H 0.53583 0.29769 0.08135 0.0
H1183 H 0.55626 0.29317 0.07793 0.0
loop_
_geom_bond_atom_site_label_1
_geom_bond_atom_site_label_2
_geom_bond_distance
_geom_bond_site_symmetry_2
_ccdc_geom_bond_type
Ho0 C3 2.811 . S
Ho0 O20 2.322 . S
Ho0 O22 2.378 . S
Ho0 O23 2.524 . S
Ho0 O24 2.381 . S
Ho0 O25 2.669 . S
Ho0 O27 2.346 . S
Ho0 O31 2.305 . S
Ho1 C12 2.811 . S
Ho1 O21 2.346 . S
Ho1 O25 2.305 . S
Ho1 O26 2.322 . S
Ho1 O28 2.378 . S
Ho1 O29 2.524 . S
Ho1 O30 2.381 . S
Ho1 O31 2.669 . S
C2 O20 1.259 . S
C2 O21 1.268 . S
C3 Ho0 2.811 . S
C3 C4 1.488 . S
C3 O22 1.215 . S
C3 O23 1.289 . S
C4 C3 1.488 . S
C4 C5 1.348 . S
C4 C9 1.413 . S
C5 C4 1.348 . S
C5 C6 1.442 . S
C5 H32 0.930 . S
C6 C5 1.442 . S
C6 C7 1.381 . S
C6 H33 0.931 . S
C7 C6 1.381 . S
C7 C8 1.321 . S
C8 C7 1.321 . S
C8 C9 1.403 . S
C8 H34 0.934 . S
C9 C4 1.413 . S
C9 C8 1.403 . S
C9 H35 0.930 . S
C10 O24 1.275 . S
C10 O25 1.256 . S
C11 O26 1.259 . S
C11 O27 1.268 . S
C12 Ho1 2.811 . S
C12 C13 1.488 . S
C12 O28 1.215 . S
C12 O29 1.289 . S
C13 C12 1.488 . S
C13 C14 1.348 . S
C13 C18 1.413 . S
C14 C13 1.348 . S
C14 C15 1.442 . S
C14 H36 0.930 . S
C15 C14 1.442 . S
C15 C16 1.381 . S
C15 H37 0.931 . S
C16 C15 1.381 . S
C16 C17 1.321 . S
C17 C16 1.321 . S
C17 C18 1.403 . S
C17 H38 0.934 . S
C18 C13 1.413 . S
C18 C17 1.403 . S
C18 H39 0.930 . S
C19 O30 1.275 . S
C19 O31 1.256 . S
O20 Ho0 2.322 . S
O20 C2 1.259 . S
O21 Ho1 2.346 . S
O21 C2 1.268 . S
O22 Ho0 2.378 . S
O22 C3 1.215 . S
O23 Ho0 2.524 . S
O23 C3 1.289 . S
O24 Ho0 2.381 . S
O24 C10 1.275 . S
O25 Ho0 2.669 . S
O25 Ho1 2.305 . S
O25 C10 1.256 . S
O26 Ho1 2.322 . S
O26 C11 1.259 . S
O27 Ho0 2.346 . S
O27 C11 1.268 . S
O28 Ho1 2.378 . S
O28 C12 1.215 . S
O29 Ho1 2.524 . S
O29 C12 1.289 . S
O30 Ho1 2.381 . S
O30 C19 1.275 . S
O31 Ho0 2.305 . S
O31 Ho1 2.669 . S
O31 C19 1.256 . S
H32 C5 0.930 . S
H33 C6 0.931 . S
H34 C8 0.934 . S
H35 C9 0.930 . S
H36 C14 0.930 . S
H37 C15 0.931 . S
H38 C17 0.934 . S
H39 C18 0.930 . S
Ho40 C43 2.811 . S
Ho40 O60 2.322 . S
Ho40 O62 2.378 . S
Ho40 O63 2.524 . S
Ho40 O64 2.381 . S
Ho40 O65 2.669 . S
Ho40 O67 2.346 . S
Ho40 O71 2.305 . S
Ho41 C52 2.811 . S
Ho41 O61 2.346 . S
Ho41 O65 2.305 . S
Ho41 O66 2.322 . S
Ho41 O68 2.378 . S
Ho41 O69 2.524 . S
Ho41 O70 2.381 . S
Ho41 O71 2.669 . S
C42 O60 1.259 . S
C42 O61 1.268 . S
C43 Ho40 2.811 . S
C43 C44 1.488 . S
C43 O62 1.215 . S
C43 O63 1.289 . S
C44 C43 1.488 . S
C44 C45 1.348 . S
C44 C49 1.413 . S
C45 C44 1.348 . S
C45 C46 1.442 . S
C45 H72 0.930 . S
C46 C45 1.442 . S
C46 C47 1.381 . S
C46 H73 0.931 . S
C47 C46 1.381 . S
C47 C48 1.321 . S
C48 C47 1.321 . S
C48 C49 1.403 . S
C48 H74 0.934 . S
C49 C44 1.413 . S
C49 C48 1.403 . S
C49 H75 0.930 . S
C50 O64 1.275 . S
C50 O65 1.256 . S
C51 O66 1.259 . S
C51 O67 1.268 . S
C52 Ho41 2.811 . S
C52 C53 1.488 . S
C52 O68 1.215 . S
C52 O69 1.289 . S
C53 C52 1.488 . S
C53 C54 1.348 . S
C53 C58 1.413 . S
C54 C53 1.348 . S
C54 C55 1.442 . S
C54 H76 0.930 . S
C55 C54 1.442 . S
C55 C56 1.381 . S
C55 H77 0.931 . S
C56 C55 1.381 . S
C56 C57 1.321 . S
C57 C56 1.321 . S
C57 C58 1.403 . S
C57 H78 0.934 . S
C58 C53 1.413 . S
C58 C57 1.403 . S
C58 H79 0.930 . S
C59 O70 1.275 . S
C59 O71 1.256 . S
O60 Ho40 2.322 . S
O60 C42 1.259 . S
O61 Ho41 2.346 . S
O61 C42 1.268 . S
O62 Ho40 2.378 . S
O62 C43 1.215 . S
O63 Ho40 2.524 . S
O63 C43 1.289 . S
O64 Ho40 2.381 . S
O64 C50 1.275 . S
O65 Ho40 2.669 . S
O65 Ho41 2.305 . S
O65 C50 1.256 . S
O66 Ho41 2.322 . S
O66 C51 1.259 . S
O67 Ho40 2.346 . S
O67 C51 1.268 . S
O68 Ho41 2.378 . S
O68 C52 1.215 . S
O69 Ho41 2.524 . S
O69 C52 1.289 . S
O70 Ho41 2.381 . S
O70 C59 1.275 . S
O71 Ho40 2.305 . S
O71 Ho41 2.669 . S
O71 C59 1.256 . S
H72 C45 0.930 . S
H73 C46 0.931 . S
H74 C48 0.934 . S
H75 C49 0.930 . S
H76 C54 0.930 . S
H77 C55 0.931 . S
H78 C57 0.934 . S
H79 C58 0.930 . S
Ho80 C83 2.811 . S
Ho80 O100 2.322 . S
Ho80 O102 2.378 . S
Ho80 O103 2.524 . S
Ho80 O104 2.381 . S
Ho80 O105 2.669 . S
Ho80 O107 2.346 . S
Ho80 O111 2.305 . S
Ho81 C92 2.811 . S
Ho81 O101 2.346 . S
Ho81 O105 2.305 . S
Ho81 O106 2.322 . S
Ho81 O108 2.378 . S
Ho81 O109 2.524 . S
Ho81 O110 2.381 . S
Ho81 O111 2.669 . S
C82 O100 1.259 . S
C82 O101 1.268 . S
C83 Ho80 2.811 . S
C83 C84 1.488 . S
C83 O102 1.215 . S
C83 O103 1.289 . S
C84 C83 1.488 . S
C84 C85 1.348 . S
C84 C89 1.413 . S
C85 C84 1.348 . S
C85 C86 1.442 . S
C85 H112 0.930 . S
C86 C85 1.442 . S
C86 C87 1.381 . S
C86 H113 0.931 . S
C87 C86 1.381 . S
C87 C88 1.321 . S
C88 C87 1.321 . S
C88 C89 1.403 . S
C88 H114 0.934 . S
C89 C84 1.413 . S
C89 C88 1.403 . S
C89 H115 0.930 . S
C90 O104 1.275 . S
C90 O105 1.256 . S
C91 O106 1.259 . S
C91 O107 1.268 . S
C92 Ho81 2.811 . S
C92 C93 1.488 . S
C92 O108 1.215 . S
C92 O109 1.289 . S
C93 C92 1.488 . S
C93 C94 1.348 . S
C93 C98 1.413 . S
C94 C93 1.348 . S
C94 C95 1.442 . S
C94 H116 0.930 . S
C95 C94 1.442 . S
C95 C96 1.381 . S
C95 H117 0.931 . S
C96 C95 1.381 . S
C96 C97 1.321 . S
C97 C96 1.321 . S
C97 C98 1.403 . S
C97 H118 0.934 . S
C98 C93 1.413 . S
C98 C97 1.403 . S
C98 H119 0.930 . S
C99 O110 1.275 . S
C99 O111 1.256 . S
O100 Ho80 2.322 . S
O100 C82 1.259 . S
O101 Ho81 2.346 . S
O101 C82 1.268 . S
O102 Ho80 2.378 . S
O102 C83 1.215 . S
O103 Ho80 2.524 . S
O103 C83 1.289 . S
O104 Ho80 2.381 . S
O104 C90 1.275 . S
O105 Ho80 2.669 . S
O105 Ho81 2.305 . S
O105 C90 1.256 . S
O106 Ho81 2.322 . S
O106 C91 1.259 . S
O107 Ho80 2.346 . S
O107 C91 1.268 . S
O108 Ho81 2.378 . S
O108 C92 1.215 . S
O109 Ho81 2.524 . S
O109 C92 1.289 . S
O110 Ho81 2.381 . S
O110 C99 1.275 . S
O111 Ho80 2.305 . S
O111 Ho81 2.669 . S
O111 C99 1.256 . S
H112 C85 0.930 . S
H113 C86 0.931 . S
H114 C88 0.934 . S
H115 C89 0.930 . S
H116 C94 0.930 . S
H117 C95 0.931 . S
H118 C97 0.934 . S
H119 C98 0.930 . S
Ho120 C123 2.811 . S
Ho120 O140 2.322 . S
Ho120 O142 2.378 . S
Ho120 O143 2.524 . S
Ho120 O144 2.381 . S
Ho120 O145 2.669 . S
Ho120 O147 2.346 . S
Ho120 O151 2.305 . S
Ho121 C132 2.811 . S
Ho121 O141 2.346 . S
Ho121 O145 2.305 . S
Ho121 O146 2.322 . S
Ho121 O148 2.378 . S
Ho121 O149 2.524 . S
Ho121 O150 2.381 . S
Ho121 O151 2.669 . S
C122 O140 1.259 . S
C122 O141 1.268 . S
C123 Ho120 2.811 . S
C123 C124 1.488 . S
C123 O142 1.215 . S
C123 O143 1.289 . S
C124 C123 1.488 . S
C124 C125 1.348 . S
C124 C129 1.413 . S
C125 C124 1.348 . S
C125 C126 1.442 . S
C125 H152 0.930 . S
C126 C125 1.442 . S
C126 C127 1.381 . S
C126 H153 0.931 . S
C127 C126 1.381 . S
C127 C128 1.321 . S
C128 C127 1.321 . S
C128 C129 1.403 . S
C128 H154 0.934 . S
C129 C124 1.413 . S
C129 C128 1.403 . S
C129 H155 0.930 . S
C130 O144 1.275 . S
C130 O145 1.256 . S
C131 O146 1.259 . S
C131 O147 1.268 . S
C132 Ho121 2.811 . S
C132 C133 1.488 . S
C132 O148 1.215 . S
C132 O149 1.289 . S
C133 C132 1.488 . S
C133 C134 1.348 . S
C133 C138 1.413 . S
C134 C133 1.348 . S
C134 C135 1.442 . S
C134 H156 0.930 . S
C135 C134 1.442 . S
C135 C136 1.381 . S
C135 H157 0.931 . S
C136 C135 1.381 . S
C136 C137 1.321 . S
C137 C136 1.321 . S
C137 C138 1.403 . S
C137 H158 0.934 . S
C138 C133 1.413 . S
C138 C137 1.403 . S
C138 H159 0.930 . S
C139 O150 1.275 . S
C139 O151 1.256 . S
O140 Ho120 2.322 . S
O140 C122 1.259 . S
O141 Ho121 2.346 . S
O141 C122 1.268 . S
O142 Ho120 2.378 . S
O142 C123 1.215 . S
O143 Ho120 2.524 . S
O143 C123 1.289 . S
O144 Ho120 2.381 . S
O144 C130 1.275 . S
O145 Ho120 2.669 . S
O145 Ho121 2.305 . S
O145 C130 1.256 . S
O146 Ho121 2.322 . S
O146 C131 1.259 . S
O147 Ho120 2.346 . S
O147 C131 1.268 . S
O148 Ho121 2.378 . S
O148 C132 1.215 . S
O149 Ho121 2.524 . S
O149 C132 1.289 . S
O150 Ho121 2.381 . S
O150 C139 1.275 . S
O151 Ho120 2.305 . S
O151 Ho121 2.669 . S
O151 C139 1.256 . S
H152 C125 0.930 . S
H153 C126 0.931 . S
H154 C128 0.934 . S
H155 C129 0.930 . S
H156 C134 0.930 . S
H157 C135 0.931 . S
H158 C137 0.934 . S
H159 C138 0.930 . S
Ho160 C163 2.811 1_556 S
Ho160 O180 2.322 1_556 S
Ho160 O182 2.378 1_556 S
Ho160 O183 2.524 1_556 S
Ho160 O184 2.381 . S
Ho160 O185 2.669 . S
Ho160 O187 2.346 . S
Ho160 O191 2.305 1_556 S
Ho161 C172 2.811 1_554 S
Ho161 O181 2.346 . S
Ho161 O185 2.305 1_554 S
Ho161 O186 2.322 1_554 S
Ho161 O188 2.378 1_554 S
Ho161 O189 2.524 1_554 S
Ho161 O190 2.381 . S
Ho161 O191 2.669 . S
C162 O180 1.259 . S
C162 O181 1.268 . S
C163 Ho160 2.811 1_554 S
C163 C164 1.488 . S
C163 O182 1.215 . S
C163 O183 1.289 . S
C164 C163 1.488 . S
C164 C165 1.348 . S
C164 C169 1.413 . S
C165 C164 1.348 . S
C165 C166 1.442 . S
C165 H192 0.930 . S
C166 C165 1.442 . S
C166 C167 1.381 . S
C166 H193 0.931 . S
C167 C166 1.381 . S
C167 C168 1.321 . S
C168 C167 1.321 . S
C168 C169 1.403 . S
C168 H194 0.934 . S
C169 C164 1.413 . S
C169 C168 1.403 . S
C169 H195 0.930 . S
C170 O184 1.275 . S
C170 O185 1.256 . S
C171 O186 1.259 . S
C171 O187 1.268 . S
C172 Ho161 2.811 1_556 S
C172 C173 1.488 . S
C172 O188 1.215 . S
C172 O189 1.289 . S
C173 C172 1.488 . S
C173 C174 1.348 . S
C173 C178 1.413 . S
C174 C173 1.348 . S
C174 C175 1.442 . S
C174 H196 0.930 . S
C175 C174 1.442 . S
C175 C176 1.381 . S
C175 H197 0.931 . S
C176 C175 1.381 . S
C176 C177 1.321 . S
C177 C176 1.321 . S
C177 C178 1.403 . S
C177 H198 0.934 . S
C178 C173 1.413 . S
C178 C177 1.403 . S
C178 H199 0.930 . S
C179 O190 1.275 . S
C179 O191 1.256 . S
O180 Ho160 2.322 1_554 S
O180 C162 1.259 . S
O181 Ho161 2.346 . S
O181 C162 1.268 . S
O182 Ho160 2.378 1_554 S
O182 C163 1.215 . S
O183 Ho160 2.524 1_554 S
O183 C163 1.289 . S
O184 Ho160 2.381 . S
O184 C170 1.275 . S
O185 Ho160 2.669 . S
O185 Ho161 2.305 1_556 S
O185 C170 1.256 . S
O186 Ho161 2.322 1_556 S
O186 C171 1.259 . S
O187 Ho160 2.346 . S
O187 C171 1.268 . S
O188 Ho161 2.378 1_556 S
O188 C172 1.215 . S
O189 Ho161 2.524 1_556 S
O189 C172 1.289 . S
O190 Ho161 2.381 . S
O190 C179 1.275 . S
O191 Ho160 2.305 1_554 S
O191 Ho161 2.669 . S
O191 C179 1.256 . S
H192 C165 0.930 . S
H193 C166 0.931 . S
H194 C168 0.934 . S
H195 C169 0.930 . S
H196 C174 0.930 . S
H197 C175 0.931 . S
H198 C177 0.934 . S
H199 C178 0.930 . S
Ho200 C203 2.811 1_556 S
Ho200 O220 2.322 1_556 S
Ho200 O222 2.378 1_556 S
Ho200 O223 2.524 1_556 S
Ho200 O224 2.381 . S
Ho200 O225 2.669 . S
Ho200 O227 2.346 . S
Ho200 O231 2.305 1_556 S
Ho201 C212 2.811 1_554 S
Ho201 O221 2.346 . S
Ho201 O225 2.305 1_554 S
Ho201 O226 2.322 1_554 S
Ho201 O228 2.378 1_554 S
Ho201 O229 2.524 1_554 S
Ho201 O230 2.381 . S
Ho201 O231 2.669 . S
C202 O220 1.259 . S
C202 O221 1.268 . S
C203 Ho200 2.811 1_554 S
C203 C204 1.488 . S
C203 O222 1.215 . S
C203 O223 1.289 . S
C204 C203 1.488 . S
C204 C205 1.348 . S
C204 C209 1.413 . S
C205 C204 1.348 . S
C205 C206 1.442 . S
C205 H232 0.930 . S
C206 C205 1.442 . S
C206 C207 1.381 . S
C206 H233 0.931 . S
C207 C206 1.381 . S
C207 C208 1.321 . S
C208 C207 1.321 . S
C208 C209 1.403 . S
C208 H234 0.934 . S
C209 C204 1.413 . S
C209 C208 1.403 . S
C209 H235 0.930 . S
C210 O224 1.275 . S
C210 O225 1.256 . S
C211 O226 1.259 . S
C211 O227 1.268 . S
C212 Ho201 2.811 1_556 S
C212 C213 1.488 . S
C212 O228 1.215 . S
C212 O229 1.289 . S
C213 C212 1.488 . S
C213 C214 1.348 . S
C213 C218 1.413 . S
C214 C213 1.348 . S
C214 C215 1.442 . S
C214 H236 0.930 . S
C215 C214 1.442 . S
C215 C216 1.381 . S
C215 H237 0.931 . S
C216 C215 1.381 . S
C216 C217 1.321 . S
C217 C216 1.321 . S
C217 C218 1.403 . S
C217 H238 0.934 . S
C218 C213 1.413 . S
C218 C217 1.403 . S
C218 H239 0.930 . S
C219 O230 1.275 . S
C219 O231 1.256 . S
O220 Ho200 2.322 1_554 S
O220 C202 1.259 . S
O221 Ho201 2.346 . S
O221 C202 1.268 . S
O222 Ho200 2.378 1_554 S
O222 C203 1.215 . S
O223 Ho200 2.524 1_554 S
O223 C203 1.289 . S
O224 Ho200 2.381 . S
O224 C210 1.275 . S
O225 Ho200 2.669 . S
O225 Ho201 2.305 1_556 S
O225 C210 1.256 . S
O226 Ho201 2.322 1_556 S
O226 C211 1.259 . S
O227 Ho200 2.346 . S
O227 C211 1.268 . S
O228 Ho201 2.378 1_556 S
O228 C212 1.215 . S
O229 Ho201 2.524 1_556 S
O229 C212 1.289 . S
O230 Ho201 2.381 . S
O230 C219 1.275 . S
O231 Ho200 2.305 1_554 S
O231 Ho201 2.669 . S
O231 C219 1.256 . S
H232 C205 0.930 . S
H233 C206 0.931 . S
H234 C208 0.934 . S
H235 C209 0.930 . S
H236 C214 0.930 . S
H237 C215 0.931 . S
H238 C217 0.934 . S
H239 C218 0.930 . S
Ho240 C243 2.811 1_556 S
Ho240 O260 2.322 1_556 S
Ho240 O262 2.378 1_556 S
Ho240 O263 2.524 1_556 S
Ho240 O264 2.381 . S
Ho240 O265 2.669 . S
Ho240 O267 2.346 . S
Ho240 O271 2.305 1_556 S
Ho241 C252 2.811 1_554 S
Ho241 O261 2.346 . S
Ho241 O265 2.305 1_554 S
Ho241 O266 2.322 1_554 S
Ho241 O268 2.378 1_554 S
Ho241 O269 2.524 1_554 S
Ho241 O270 2.381 . S
Ho241 O271 2.669 . S
C242 O260 1.259 . S
C242 O261 1.268 . S
C243 Ho240 2.811 1_554 S
C243 C244 1.488 . S
C243 O262 1.215 . S
C243 O263 1.289 . S
C244 C243 1.488 . S
C244 C245 1.348 . S
C244 C249 1.413 . S
C245 C244 1.348 . S
C245 C246 1.442 . S
C245 H272 0.930 . S
C246 C245 1.442 . S
C246 C247 1.381 . S
C246 H273 0.931 . S
C247 C246 1.381 . S
C247 C248 1.321 . S
C248 C247 1.321 . S
C248 C249 1.403 . S
C248 H274 0.934 . S
C249 C244 1.413 . S
C249 C248 1.403 . S
C249 H275 0.930 . S
C250 O264 1.275 . S
C250 O265 1.256 . S
C251 O266 1.259 . S
C251 O267 1.268 . S
C252 Ho241 2.811 1_556 S
C252 C253 1.488 . S
C252 O268 1.215 . S
C252 O269 1.289 . S
C253 C252 1.488 . S
C253 C254 1.348 . S
C253 C258 1.413 . S
C254 C253 1.348 . S
C254 C255 1.442 . S
C254 H276 0.930 . S
C255 C254 1.442 . S
C255 C256 1.381 . S
C255 H277 0.931 . S
C256 C255 1.381 . S
C256 C257 1.321 . S
C257 C256 1.321 . S
C257 C258 1.403 . S
C257 H278 0.934 . S
C258 C253 1.413 . S
C258 C257 1.403 . S
C258 H279 0.930 . S
C259 O270 1.275 . S
C259 O271 1.256 . S
O260 Ho240 2.322 1_554 S
O260 C242 1.259 . S
O261 Ho241 2.346 . S
O261 C242 1.268 . S
O262 Ho240 2.378 1_554 S
O262 C243 1.215 . S
O263 Ho240 2.524 1_554 S
O263 C243 1.289 . S
O264 Ho240 2.381 . S
O264 C250 1.275 . S
O265 Ho240 2.669 . S
O265 Ho241 2.305 1_556 S
O265 C250 1.256 . S
O266 Ho241 2.322 1_556 S
O266 C251 1.259 . S
O267 Ho240 2.346 . S
O267 C251 1.268 . S
O268 Ho241 2.378 1_556 S
O268 C252 1.215 . S
O269 Ho241 2.524 1_556 S
O269 C252 1.289 . S
O270 Ho241 2.381 . S
O270 C259 1.275 . S
O271 Ho240 2.305 1_554 S
O271 Ho241 2.669 . S
O271 C259 1.256 . S
H272 C245 0.930 . S
H273 C246 0.931 . S
H274 C248 0.934 . S
H275 C249 0.930 . S
H276 C254 0.930 . S
H277 C255 0.931 . S
H278 C257 0.934 . S
H279 C258 0.930 . S
Ho280 C283 2.811 1_556 S
Ho280 O300 2.322 1_556 S
Ho280 O302 2.378 1_556 S
Ho280 O303 2.524 1_556 S
Ho280 O304 2.381 . S
Ho280 O305 2.669 . S
Ho280 O307 2.346 . S
Ho280 O311 2.305 1_556 S
Ho281 C292 2.811 1_554 S
Ho281 O301 2.346 . S
Ho281 O305 2.305 1_554 S
Ho281 O306 2.322 1_554 S
Ho281 O308 2.378 1_554 S
Ho281 O309 2.524 1_554 S
Ho281 O310 2.381 . S
Ho281 O311 2.669 . S
C282 O300 1.259 . S
C282 O301 1.268 . S
C283 Ho280 2.811 1_554 S
C283 C284 1.488 . S
C283 O302 1.215 . S
C283 O303 1.289 . S
C284 C283 1.488 . S
C284 C285 1.348 . S
C284 C289 1.413 . S
C285 C284 1.348 . S
C285 C286 1.442 . S
C285 H312 0.930 . S
C286 C285 1.442 . S
C286 C287 1.381 . S
C286 H313 0.931 . S
C287 C286 1.381 . S
C287 C288 1.321 . S
C288 C287 1.321 . S
C288 C289 1.403 . S
C288 H314 0.934 . S
C289 C284 1.413 . S
C289 C288 1.403 . S
C289 H315 0.930 . S
C290 O304 1.275 . S
C290 O305 1.256 . S
C291 O306 1.259 . S
C291 O307 1.268 . S
C292 Ho281 2.811 1_556 S
C292 C293 1.488 . S
C292 O308 1.215 . S
C292 O309 1.289 . S
C293 C292 1.488 . S
C293 C294 1.348 . S
C293 C298 1.413 . S
C294 C293 1.348 . S
C294 C295 1.442 . S
C294 H316 0.930 . S
C295 C294 1.442 . S
C295 C296 1.381 . S
C295 H317 0.931 . S
C296 C295 1.381 . S
C296 C297 1.321 . S
C297 C296 1.321 . S
C297 C298 1.403 . S
C297 H318 0.934 . S
C298 C293 1.413 . S
C298 C297 1.403 . S
C298 H319 0.930 . S
C299 O310 1.275 . S
C299 O311 1.256 . S
O300 Ho280 2.322 1_554 S
O300 C282 1.259 . S
O301 Ho281 2.346 . S
O301 C282 1.268 . S
O302 Ho280 2.378 1_554 S
O302 C283 1.215 . S
O303 Ho280 2.524 1_554 S
O303 C283 1.289 . S
O304 Ho280 2.381 . S
O304 C290 1.275 . S
O305 Ho280 2.669 . S
O305 Ho281 2.305 1_556 S
O305 C290 1.256 . S
O306 Ho281 2.322 1_556 S
O306 C291 1.259 . S
O307 Ho280 2.346 . S
O307 C291 1.268 . S
O308 Ho281 2.378 1_556 S
O308 C292 1.215 . S
O309 Ho281 2.524 1_556 S
O309 C292 1.289 . S
O310 Ho281 2.381 . S
O310 C299 1.275 . S
O311 Ho280 2.305 1_554 S
O311 Ho281 2.669 . S
O311 C299 1.256 . S
H312 C285 0.930 . S
H313 C286 0.931 . S
H314 C288 0.934 . S
H315 C289 0.930 . S
H316 C294 0.930 . S
H317 C295 0.931 . S
H318 C297 0.934 . S
H319 C298 0.930 . S
H320 C328 0.929 . S
H321 C330 0.930 . S
H322 C332 0.930 . S
H323 C335 0.929 . S
H324 C338 0.930 . S
H325 C340 0.960 . S
H326 C340 0.960 . S
H327 C340 0.960 . S
C328 H320 0.929 . S
C328 C329 1.377 . S
C328 C330 1.384 . S
C329 C328 1.377 . S
C329 C335 1.390 . S
C330 H321 0.930 . S
C330 C328 1.384 . S
C330 C331 1.372 . S
C331 C330 1.372 . S
C331 C332 1.400 . S
C331 C336 1.490 . S
C332 H322 0.930 . S
C332 C331 1.400 . S
C332 C335 1.386 . S
H333 C349 0.930 . S
H334 C350 0.931 . S
C335 H323 0.929 . S
C335 C329 1.390 . S
C335 C332 1.386 . S
C336 C331 1.490 . S
C336 C338 1.395 . S
C336 C339 1.403 . S
H337 C343 0.930 . S
C338 H324 0.930 . S
C338 C336 1.395 . S
C338 C341 1.403 . S
C339 C336 1.403 . S
C339 C340 1.524 . S
C339 C343 1.400 . S
C340 H325 0.960 . S
C340 H326 0.960 . S
C340 H327 0.960 . S
C340 C339 1.524 . S
C341 C338 1.403 . S
C341 C342 1.392 . S
C341 C345 1.495 . S
C342 C341 1.392 . S
C342 C343 1.385 . S
C342 C344 1.478 . S
C343 H337 0.930 . S
C343 C339 1.400 . S
C343 C342 1.385 . S
C344 C342 1.478 . S
C344 C346 1.381 . S
C344 C350 1.383 . S
C345 C341 1.495 . S
C345 H351 0.959 . S
C345 H352 0.961 . S
C345 H353 0.960 . S
C346 C344 1.381 . S
C346 C347 1.394 . S
C346 H354 0.930 . S
C347 C346 1.394 . S
C347 C348 1.383 . S
C347 H355 0.929 . S
C348 C347 1.383 . S
C348 C349 1.377 . S
C349 H333 0.930 . S
C349 C348 1.377 . S
C349 C350 1.379 . S
C350 H334 0.931 . S
C350 C344 1.383 . S
C350 C349 1.379 . S
H351 C345 0.959 . S
H352 C345 0.961 . S
H353 C345 0.960 . S
H354 C346 0.930 . S
H355 C347 0.929 . S
H356 C364 0.929 . S
H357 C366 0.930 . S
H358 C368 0.930 . S
H359 C371 0.929 . S
H360 C374 0.930 . S
H361 C376 0.960 . S
H362 C376 0.960 . S
H363 C376 0.960 . S
C364 H356 0.929 . S
C364 C365 1.377 . S
C364 C366 1.384 . S
C365 C364 1.377 . S
C365 C371 1.390 . S
C366 H357 0.930 . S
C366 C364 1.384 . S
C366 C367 1.372 . S
C367 C366 1.372 . S
C367 C368 1.400 . S
C367 C372 1.490 . S
C368 H358 0.930 . S
C368 C367 1.400 . S
C368 C371 1.386 . S
H369 C385 0.930 . S
H370 C386 0.931 . S
C371 H359 0.929 . S
C371 C365 1.390 . S
C371 C368 1.386 . S
C372 C367 1.490 . S
C372 C374 1.395 . S
C372 C375 1.403 . S
H373 C379 0.930 . S
C374 H360 0.930 . S
C374 C372 1.395 . S
C374 C377 1.403 . S
C375 C372 1.403 . S
C375 C376 1.524 . S
C375 C379 1.400 . S
C376 H361 0.960 . S
C376 H362 0.960 . S
C376 H363 0.960 . S
C376 C375 1.524 . S
C377 C374 1.403 . S
C377 C378 1.392 . S
C377 C381 1.495 . S
C378 C377 1.392 . S
C378 C379 1.385 . S
C378 C380 1.478 . S
C379 H373 0.930 . S
C379 C375 1.400 . S
C379 C378 1.385 . S
C380 C378 1.478 . S
C380 C382 1.381 . S
C380 C386 1.383 . S
C381 C377 1.495 . S
C381 H387 0.959 . S
C381 H388 0.961 . S
C381 H389 0.960 . S
C382 C380 1.381 . S
C382 C383 1.394 . S
C382 H390 0.930 . S
C383 C382 1.394 . S
C383 C384 1.383 . S
C383 H391 0.929 . S
C384 C383 1.383 . S
C384 C385 1.377 . S
C385 H369 0.930 . S
C385 C384 1.377 . S
C385 C386 1.379 . S
C386 H370 0.931 . S
C386 C380 1.383 . S
C386 C385 1.379 . S
H387 C381 0.959 . S
H388 C381 0.961 . S
H389 C381 0.960 . S
H390 C382 0.930 . S
H391 C383 0.929 . S
H392 C400 0.929 . S
H393 C402 0.930 . S
H394 C404 0.930 . S
H395 C407 0.929 . S
H396 C410 0.930 . S
H397 C412 0.960 . S
H398 C412 0.960 . S
H399 C412 0.960 . S
C400 H392 0.929 . S
C400 C401 1.377 . S
C400 C402 1.384 . S
C401 C400 1.377 . S
C401 C407 1.390 . S
C402 H393 0.930 . S
C402 C400 1.384 . S
C402 C403 1.372 . S
C403 C402 1.372 . S
C403 C404 1.400 . S
C403 C408 1.490 . S
C404 H394 0.930 . S
C404 C403 1.400 . S
C404 C407 1.386 . S
H405 C421 0.930 . S
H406 C422 0.931 . S
C407 H395 0.929 . S
C407 C401 1.390 . S
C407 C404 1.386 . S
C408 C403 1.490 . S
C408 C410 1.395 . S
C408 C411 1.403 . S
H409 C415 0.930 . S
C410 H396 0.930 . S
C410 C408 1.395 . S
C410 C413 1.403 . S
C411 C408 1.403 . S
C411 C412 1.524 . S
C411 C415 1.400 . S
C412 H397 0.960 . S
C412 H398 0.960 . S
C412 H399 0.960 . S
C412 C411 1.524 . S
C413 C410 1.403 . S
C413 C414 1.392 . S
C413 C417 1.495 . S
C414 C413 1.392 . S
C414 C415 1.385 . S
C414 C416 1.478 . S
C415 H409 0.930 . S
C415 C411 1.400 . S
C415 C414 1.385 . S
C416 C414 1.478 . S
C416 C418 1.381 . S
C416 C422 1.383 . S
C417 C413 1.495 . S
C417 H423 0.959 . S
C417 H424 0.961 . S
C417 H425 0.960 . S
C418 C416 1.381 . S
C418 C419 1.394 . S
C418 H426 0.930 . S
C419 C418 1.394 . S
C419 C420 1.383 . S
C419 H427 0.929 . S
C420 C419 1.383 . S
C420 C421 1.377 . S
C421 H405 0.930 . S
C421 C420 1.377 . S
C421 C422 1.379 . S
C422 H406 0.931 . S
C422 C416 1.383 . S
C422 C421 1.379 . S
H423 C417 0.959 . S
H424 C417 0.961 . S
H425 C417 0.960 . S
H426 C418 0.930 . S
H427 C419 0.929 . S
H428 C436 0.929 . S
H429 C438 0.930 . S
H430 C440 0.930 . S
H431 C443 0.929 . S
H432 C446 0.930 . S
H433 C448 0.960 . S
H434 C448 0.960 . S
H435 C448 0.960 . S
C436 H428 0.929 . S
C436 C437 1.377 . S
C436 C438 1.384 . S
C437 C436 1.377 . S
C437 C443 1.390 . S
C438 H429 0.930 . S
C438 C436 1.384 . S
C438 C439 1.372 . S
C439 C438 1.372 . S
C439 C440 1.400 . S
C439 C444 1.490 . S
C440 H430 0.930 . S
C440 C439 1.400 . S
C440 C443 1.386 . S
H441 C457 0.930 . S
H442 C458 0.931 . S
C443 H431 0.929 . S
C443 C437 1.390 . S
C443 C440 1.386 . S
C444 C439 1.490 . S
C444 C446 1.395 . S
C444 C447 1.403 . S
H445 C451 0.930 . S
C446 H432 0.930 . S
C446 C444 1.395 . S
C446 C449 1.403 . S
C447 C444 1.403 . S
C447 C448 1.524 . S
C447 C451 1.400 . S
C448 H433 0.960 . S
C448 H434 0.960 . S
C448 H435 0.960 . S
C448 C447 1.524 . S
C449 C446 1.403 . S
C449 C450 1.392 . S
C449 C453 1.495 . S
C450 C449 1.392 . S
C450 C451 1.385 . S
C450 C452 1.478 . S
C451 H445 0.930 . S
C451 C447 1.400 . S
C451 C450 1.385 . S
C452 C450 1.478 . S
C452 C454 1.381 . S
C452 C458 1.383 . S
C453 C449 1.495 . S
C453 H459 0.959 . S
C453 H460 0.961 . S
C453 H461 0.960 . S
C454 C452 1.381 . S
C454 C455 1.394 . S
C454 H462 0.930 . S
C455 C454 1.394 . S
C455 C456 1.383 . S
C455 H463 0.929 . S
C456 C455 1.383 . S
C456 C457 1.377 . S
C457 H441 0.930 . S
C457 C456 1.377 . S
C457 C458 1.379 . S
C458 H442 0.931 . S
C458 C452 1.383 . S
C458 C457 1.379 . S
H459 C453 0.959 . S
H460 C453 0.961 . S
H461 C453 0.960 . S
H462 C454 0.930 . S
H463 C455 0.929 . S
H464 C472 0.929 . S
H465 C474 0.930 . S
H466 C476 0.930 . S
H467 C479 0.929 . S
H468 C482 0.930 . S
H469 C484 0.960 1_545 S
H470 C484 0.960 . S
H471 C484 0.960 . S
C472 H464 0.929 . S
C472 C473 1.377 . S
C472 C474 1.384 . S
C473 C472 1.377 . S
C473 C479 1.390 . S
C474 H465 0.930 . S
C474 C472 1.384 . S
C474 C475 1.372 . S
C475 C474 1.372 . S
C475 C476 1.400 . S
C475 C480 1.490 . S
C476 H466 0.930 . S
C476 C475 1.400 . S
C476 C479 1.386 . S
H477 C493 0.930 . S
H478 C494 0.931 . S
C479 H467 0.929 . S
C479 C473 1.390 . S
C479 C476 1.386 . S
C480 C475 1.490 . S
C480 C482 1.395 . S
C480 C483 1.403 . S
H481 C487 0.930 . S
C482 H468 0.930 . S
C482 C480 1.395 . S
C482 C485 1.403 1_565 S
C483 C480 1.403 . S
C483 C484 1.524 . S
C483 C487 1.400 1_565 S
C484 H469 0.960 1_565 S
C484 H470 0.960 . S
C484 H471 0.960 . S
C484 C483 1.524 . S
C485 C482 1.403 1_545 S
C485 C486 1.392 . S
C485 C489 1.495 . S
C486 C485 1.392 . S
C486 C487 1.385 . S
C486 C488 1.478 . S
C487 H481 0.930 . S
C487 C483 1.400 1_545 S
C487 C486 1.385 . S
C488 C486 1.478 . S
C488 C490 1.381 . S
C488 C494 1.383 . S
C489 C485 1.495 . S
C489 H495 0.959 1_545 S
C489 H496 0.961 . S
C489 H497 0.960 . S
C490 C488 1.381 . S
C490 C491 1.394 . S
C490 H498 0.930 . S
C491 C490 1.394 . S
C491 C492 1.383 . S
C491 H499 0.929 . S
C492 C491 1.383 . S
C492 C493 1.377 . S
C493 H477 0.930 . S
C493 C492 1.377 . S
C493 C494 1.379 . S
C494 H478 0.931 . S
C494 C488 1.383 . S
C494 C493 1.379 . S
H495 C489 0.959 1_565 S
H496 C489 0.961 . S
H497 C489 0.960 . S
H498 C490 0.930 . S
H499 C491 0.929 . S
H500 C508 0.929 . S
H501 C510 0.930 . S
H502 C512 0.930 . S
H503 C515 0.929 . S
H504 C518 0.930 . S
H505 C520 0.960 . S
H506 C520 0.960 . S
H507 C520 0.960 . S
C508 H500 0.929 . S
C508 C509 1.377 . S
C508 C510 1.384 . S
C509 C508 1.377 . S
C509 C515 1.390 . S
C510 H501 0.930 . S
C510 C508 1.384 . S
C510 C511 1.372 . S
C511 C510 1.372 . S
C511 C512 1.400 . S
C511 C516 1.490 . S
C512 H502 0.930 . S
C512 C511 1.400 . S
C512 C515 1.386 . S
H513 C529 0.930 . S
H514 C530 0.931 . S
C515 H503 0.929 . S
C515 C509 1.390 . S
C515 C512 1.386 . S
C516 C511 1.490 . S
C516 C518 1.395 . S
C516 C519 1.403 . S
H517 C523 0.930 . S
C518 H504 0.930 . S
C518 C516 1.395 . S
C518 C521 1.403 . S
C519 C516 1.403 . S
C519 C520 1.524 . S
C519 C523 1.400 . S
C520 H505 0.960 . S
C520 H506 0.960 . S
C520 H507 0.960 . S
C520 C519 1.524 . S
C521 C518 1.403 . S
C521 C522 1.392 . S
C521 C525 1.495 . S
C522 C521 1.392 . S
C522 C523 1.385 . S
C522 C524 1.478 . S
C523 H517 0.930 . S
C523 C519 1.400 . S
C523 C522 1.385 . S
C524 C522 1.478 . S
C524 C526 1.381 . S
C524 C530 1.383 . S
C525 C521 1.495 . S
C525 H531 0.959 . S
C525 H532 0.961 . S
C525 H533 0.960 . S
C526 C524 1.381 . S
C526 C527 1.394 . S
C526 H534 0.930 . S
C527 C526 1.394 . S
C527 C528 1.383 . S
C527 H535 0.929 . S
C528 C527 1.383 . S
C528 C529 1.377 . S
C529 H513 0.930 . S
C529 C528 1.377 . S
C529 C530 1.379 . S
C530 H514 0.931 . S
C530 C524 1.383 . S
C530 C529 1.379 . S
H531 C525 0.959 . S
H532 C525 0.961 . S
H533 C525 0.960 . S
H534 C526 0.930 . S
H535 C527 0.929 . S
H536 C544 0.929 . S
H537 C546 0.930 . S
H538 C548 0.930 . S
H539 C551 0.929 . S
H540 C554 0.930 . S
H541 C556 0.960 . S
H542 C556 0.960 . S
H543 C556 0.960 . S
C544 H536 0.929 . S
C544 C545 1.377 . S
C544 C546 1.384 . S
C545 C544 1.377 . S
C545 C551 1.390 . S
C546 H537 0.930 . S
C546 C544 1.384 . S
C546 C547 1.372 . S
C547 C546 1.372 . S
C547 C548 1.400 . S
C547 C552 1.490 . S
C548 H538 0.930 . S
C548 C547 1.400 . S
C548 C551 1.386 . S
H549 C565 0.930 . S
H550 C566 0.931 . S
C551 H539 0.929 . S
C551 C545 1.390 . S
C551 C548 1.386 . S
C552 C547 1.490 . S
C552 C554 1.395 . S
C552 C555 1.403 . S
H553 C559 0.930 . S
C554 H540 0.930 . S
C554 C552 1.395 . S
C554 C557 1.403 1_565 S
C555 C552 1.403 . S
C555 C556 1.524 . S
C555 C559 1.400 1_565 S
C556 H541 0.960 . S
C556 H542 0.960 . S
C556 H543 0.960 . S
C556 C555 1.524 . S
C557 C554 1.403 1_545 S
C557 C558 1.392 . S
C557 C561 1.495 . S
C558 C557 1.392 . S
C558 C559 1.385 . S
C558 C560 1.478 . S
C559 H553 0.930 . S
C559 C555 1.400 1_545 S
C559 C558 1.385 . S
C560 C558 1.478 . S
C560 C562 1.381 . S
C560 C566 1.383 . S
C561 C557 1.495 . S
C561 H567 0.959 . S
C561 H568 0.961 . S
C561 H569 0.960 . S
C562 C560 1.381 . S
C562 C563 1.394 . S
C562 H570 0.930 . S
C563 C562 1.394 . S
C563 C564 1.383 . S
C563 H571 0.929 . S
C564 C563 1.383 . S
C564 C565 1.377 . S
C565 H549 0.930 . S
C565 C564 1.377 . S
C565 C566 1.379 . S
C566 H550 0.931 . S
C566 C560 1.383 . S
C566 C565 1.379 . S
H567 C561 0.959 . S
H568 C561 0.961 . S
H569 C561 0.960 . S
H570 C562 0.930 . S
H571 C563 0.929 . S
H572 C580 0.929 . S
H573 C582 0.930 . S
H574 C584 0.930 . S
H575 C587 0.929 . S
H576 C590 0.930 . S
H577 C592 0.960 . S
H578 C592 0.960 . S
H579 C592 0.960 . S
C580 H572 0.929 . S
C580 C581 1.377 . S
C580 C582 1.384 . S
C581 C580 1.377 . S
C581 C587 1.390 . S
C582 H573 0.930 . S
C582 C580 1.384 . S
C582 C583 1.372 . S
C583 C582 1.372 . S
C583 C584 1.400 . S
C583 C588 1.490 . S
C584 H574 0.930 . S
C584 C583 1.400 . S
C584 C587 1.386 . S
H585 C601 0.930 . S
H586 C602 0.931 . S
C587 H575 0.929 . S
C587 C581 1.390 . S
C587 C584 1.386 . S
C588 C583 1.490 . S
C588 C590 1.395 . S
C588 C591 1.403 . S
H589 C595 0.930 . S
C590 H576 0.930 . S
C590 C588 1.395 . S
C590 C593 1.403 . S
C591 C588 1.403 . S
C591 C592 1.524 . S
C591 C595 1.400 . S
C592 H577 0.960 . S
C592 H578 0.960 . S
C592 H579 0.960 . S
C592 C591 1.524 . S
C593 C590 1.403 . S
C593 C594 1.392 . S
C593 C597 1.495 . S
C594 C593 1.392 . S
C594 C595 1.385 . S
C594 C596 1.478 . S
C595 H589 0.930 . S
C595 C591 1.400 . S
C595 C594 1.385 . S
C596 C594 1.478 . S
C596 C598 1.381 . S
C596 C602 1.383 . S
C597 C593 1.495 . S
C597 H603 0.959 . S
C597 H604 0.961 . S
C597 H605 0.960 . S
C598 C596 1.381 . S
C598 C599 1.394 . S
C598 H606 0.930 . S
C599 C598 1.394 . S
C599 C600 1.383 . S
C599 H607 0.929 . S
C600 C599 1.383 . S
C600 C601 1.377 . S
C601 H585 0.930 . S
C601 C600 1.377 . S
C601 C602 1.379 . S
C602 H586 0.931 . S
C602 C596 1.383 . S
C602 C601 1.379 . S
H603 C597 0.959 . S
H604 C597 0.961 . S
H605 C597 0.960 . S
H606 C598 0.930 . S
H607 C599 0.929 . S
H608 C616 0.929 . S
H609 C618 0.930 . S
H610 C620 0.930 . S
H611 C623 0.929 . S
H612 C626 0.930 . S
H613 C628 0.960 . S
H614 C628 0.960 . S
H615 C628 0.960 . S
C616 H608 0.929 . S
C616 C617 1.377 . S
C616 C618 1.384 . S
C617 C616 1.377 . S
C617 C623 1.390 . S
C618 H609 0.930 . S
C618 C616 1.384 . S
C618 C619 1.372 . S
C619 C618 1.372 . S
C619 C620 1.400 . S
C619 C624 1.490 . S
C620 H610 0.930 . S
C620 C619 1.400 . S
C620 C623 1.386 . S
H621 C637 0.930 . S
H622 C638 0.931 . S
C623 H611 0.929 . S
C623 C617 1.390 . S
C623 C620 1.386 . S
C624 C619 1.490 . S
C624 C626 1.395 . S
C624 C627 1.403 1_556 S
H625 C631 0.930 . S
C626 H612 0.930 . S
C626 C624 1.395 . S
C626 C629 1.403 . S
C627 C624 1.403 1_554 S
C627 C628 1.524 . S
C627 C631 1.400 . S
C628 H613 0.960 . S
C628 H614 0.960 . S
C628 H615 0.960 . S
C628 C627 1.524 . S
C629 C626 1.403 . S
C629 C630 1.392 . S
C629 C633 1.495 . S
C630 C629 1.392 . S
C630 C631 1.385 1_556 S
C630 C632 1.478 . S
C631 H625 0.930 . S
C631 C627 1.400 . S
C631 C630 1.385 1_554 S
C632 C630 1.478 . S
C632 C634 1.381 . S
C632 C638 1.383 . S
C633 C629 1.495 . S
C633 H639 0.959 . S
C633 H640 0.961 . S
C633 H641 0.960 . S
C634 C632 1.381 . S
C634 C635 1.394 . S
C634 H642 0.930 . S
C635 C634 1.394 . S
C635 C636 1.383 . S
C635 H643 0.928 1_556 S
C636 C635 1.383 . S
C636 C637 1.377 . S
C637 H621 0.930 . S
C637 C636 1.377 . S
C637 C638 1.379 . S
C638 H622 0.931 . S
C638 C632 1.383 . S
C638 C637 1.379 . S
H639 C633 0.959 . S
H640 C633 0.961 . S
H641 C633 0.960 . S
H642 C634 0.930 . S
H643 C635 0.928 1_554 S
H644 C652 0.929 . S
H645 C654 0.930 . S
H646 C656 0.930 . S
H647 C659 0.929 . S
H648 C662 0.930 . S
H649 C664 0.960 . S
H650 C664 0.960 . S
H651 C664 0.960 . S
C652 H644 0.929 . S
C652 C653 1.377 1_554 S
C652 C654 1.384 . S
C653 C652 1.377 1_556 S
C653 C659 1.390 . S
C654 H645 0.930 . S
C654 C652 1.384 . S
C654 C655 1.359 1_554 S
C655 C654 1.359 1_556 S
C655 C656 1.413 . S
C655 C660 1.490 1_556 S
C656 H646 0.930 . S
C656 C655 1.413 . S
C656 C659 1.386 . S
H657 C673 0.930 . S
H658 C674 0.931 . S
C659 H647 0.929 . S
C659 C653 1.390 . S
C659 C656 1.386 . S
C660 C655 1.490 1_554 S
C660 C662 1.404 . S
C660 C663 1.394 1_554 S
H661 C667 0.930 . S
C662 H648 0.930 . S
C662 C660 1.404 . S
C662 C665 1.403 1_565 S
C663 C660 1.394 1_556 S
C663 C664 1.524 . S
C663 C667 1.400 1_565 S
C664 H649 0.960 . S
C664 H650 0.960 . S
C664 H651 0.960 . S
C664 C663 1.524 . S
C665 C662 1.403 1_545 S
C665 C666 1.392 . S
C665 C669 1.495 . S
C666 C665 1.392 . S
C666 C667 1.385 1_554 S
C666 C668 1.478 . S
C667 H661 0.930 . S
C667 C663 1.400 1_545 S
C667 C666 1.385 1_556 S
C668 C666 1.478 . S
C668 C670 1.381 . S
C668 C674 1.383 1_554 S
C669 C665 1.495 . S
C669 H675 0.959 . S
C669 H676 0.961 . S
C669 H677 0.960 . S
C670 C668 1.381 . S
C670 C671 1.394 . S
C670 H678 0.930 . S
C671 C670 1.394 . S
C671 C672 1.368 1_554 S
C671 H679 0.929 . S
C672 C671 1.368 1_556 S
C672 C673 1.391 . S
C673 H657 0.930 . S
C673 C672 1.391 . S
C673 C674 1.379 . S
C674 H658 0.931 . S
C674 C668 1.383 1_556 S
C674 C673 1.379 . S
H675 C669 0.959 . S
H676 C669 0.961 . S
H677 C669 0.960 . S
H678 C670 0.930 . S
H679 C671 0.929 . S
H680 C688 0.929 . S
H681 C690 0.930 . S
H682 C692 0.930 . S
H683 C695 0.929 . S
H684 C698 0.930 . S
H685 C700 0.960 . S
H686 C700 0.960 . S
H687 C700 0.960 . S
C688 H680 0.929 . S
C688 C689 1.377 . S
C688 C690 1.384 . S
C689 C688 1.377 . S
C689 C695 1.390 1_554 S
C690 H681 0.930 . S
C690 C688 1.384 . S
C690 C691 1.372 . S
C691 C690 1.372 . S
C691 C692 1.400 1_554 S
C691 C696 1.490 . S
C692 H682 0.930 . S
C692 C691 1.400 1_556 S
C692 C695 1.386 . S
H693 C709 0.930 . S
H694 C710 0.931 . S
C695 H683 0.929 . S
C695 C689 1.390 1_556 S
C695 C692 1.386 . S
C696 C691 1.490 . S
C696 C698 1.395 1_554 S
C696 C699 1.403 . S
H697 C703 0.930 . S
C698 H684 0.930 . S
C698 C696 1.395 1_556 S
C698 C701 1.403 . S
C699 C696 1.403 . S
C699 C700 1.524 . S
C699 C703 1.400 . S
C700 H685 0.960 . S
C700 H686 0.960 . S
C700 H687 0.960 . S
C700 C699 1.524 . S
C701 C698 1.403 . S
C701 C702 1.387 1_556 S
C701 C705 1.495 . S
C702 C701 1.387 1_554 S
C702 C703 1.391 . S
C702 C704 1.477 1_554 S
C703 H697 0.930 . S
C703 C699 1.400 . S
C703 C702 1.391 . S
C704 C702 1.477 1_556 S
C704 C706 1.372 1_556 S
C704 C710 1.391 . S
C705 C701 1.495 . S
C705 H711 0.959 . S
C705 H712 0.961 . S
C705 H713 0.960 . S
C706 C704 1.372 1_554 S
C706 C707 1.394 . S
C706 H714 0.930 . S
C707 C706 1.394 . S
C707 C708 1.383 . S
C707 H715 0.929 . S
C708 C707 1.383 . S
C708 C709 1.377 1_554 S
C709 H693 0.930 . S
C709 C708 1.377 1_556 S
C709 C710 1.379 . S
C710 H694 0.931 . S
C710 C704 1.391 . S
C710 C709 1.379 . S
H711 C705 0.959 . S
H712 C705 0.961 . S
H713 C705 0.960 . S
H714 C706 0.930 . S
H715 C707 0.929 . S
H716 C724 0.929 . S
H717 C726 0.930 . S
H718 C728 0.930 . S
H719 C731 0.929 . S
H720 C734 0.930 . S
H721 C736 0.960 . S
H722 C736 0.960 . S
H723 C736 0.960 . S
C724 H716 0.929 . S
C724 C725 1.377 . S
C724 C726 1.384 . S
C725 C724 1.377 . S
C725 C731 1.390 1_554 S
C726 H717 0.930 . S
C726 C724 1.384 . S
C726 C727 1.372 . S
C727 C726 1.372 . S
C727 C728 1.400 1_554 S
C727 C732 1.490 . S
C728 H718 0.930 . S
C728 C727 1.400 1_556 S
C728 C731 1.386 . S
H729 C745 0.930 . S
H730 C746 0.931 . S
C731 H719 0.929 . S
C731 C725 1.390 1_556 S
C731 C728 1.386 . S
C732 C727 1.490 . S
C732 C734 1.395 1_554 S
C732 C735 1.403 . S
H733 C739 0.930 . S
C734 H720 0.930 . S
C734 C732 1.395 1_556 S
C734 C737 1.403 1_545 S
C735 C732 1.403 . S
C735 C736 1.524 . S
C735 C739 1.400 1_545 S
C736 H721 0.960 . S
C736 H722 0.960 . S
C736 H723 0.960 . S
C736 C735 1.524 . S
C737 C734 1.403 1_565 S
C737 C738 1.392 . S
C737 C741 1.495 . S
C738 C737 1.392 . S
C738 C739 1.385 1_556 S
C738 C740 1.478 . S
C739 H733 0.930 . S
C739 C735 1.400 1_565 S
C739 C738 1.385 1_554 S
C740 C738 1.478 . S
C740 C742 1.381 1_556 S
C740 C746 1.383 . S
C741 C737 1.495 . S
C741 H747 0.959 . S
C741 H748 0.961 . S
C741 H749 0.960 . S
C742 C740 1.381 1_554 S
C742 C743 1.394 . S
C742 H750 0.930 . S
C743 C742 1.394 . S
C743 C744 1.384 . S
C743 H751 0.929 . S
C744 C743 1.384 . S
C744 C745 1.376 1_554 S
C745 H729 0.930 . S
C745 C744 1.376 1_556 S
C745 C746 1.379 . S
C746 H730 0.931 . S
C746 C740 1.383 . S
C746 C745 1.379 . S
H747 C741 0.959 . S
H748 C741 0.961 . S
H749 C741 0.960 . S
H750 C742 0.930 . S
H751 C743 0.929 . S
H752 C760 0.929 . S
H753 C762 0.930 . S
H754 C764 0.930 . S
H755 C767 0.929 . S
H756 C770 0.930 . S
H757 C772 0.960 1_556 S
H758 C772 0.960 . S
H759 C772 0.960 . S
C760 H752 0.929 . S
C760 C761 1.377 . S
C760 C762 1.384 . S
C761 C760 1.377 . S
C761 C767 1.390 . S
C762 H753 0.930 . S
C762 C760 1.384 . S
C762 C763 1.372 . S
C763 C762 1.372 . S
C763 C764 1.400 . S
C763 C768 1.490 . S
C764 H754 0.930 . S
C764 C763 1.400 . S
C764 C767 1.386 . S
H765 C781 0.930 . S
H766 C782 0.931 . S
C767 H755 0.929 . S
C767 C761 1.390 . S
C767 C764 1.386 . S
C768 C763 1.490 . S
C768 C770 1.395 1_554 S
C768 C771 1.403 1_554 S
H769 C775 0.930 . S
C770 H756 0.930 . S
C770 C768 1.395 1_556 S
C770 C773 1.403 . S
C771 C768 1.403 1_556 S
C771 C772 1.524 1_556 S
C771 C775 1.400 . S
C772 H757 0.960 1_554 S
C772 H758 0.960 . S
C772 H759 0.960 . S
C772 C771 1.524 1_554 S
C773 C770 1.403 . S
C773 C774 1.392 . S
C773 C777 1.495 . S
C774 C773 1.392 . S
C774 C775 1.385 . S
C774 C776 1.478 . S
C775 H769 0.930 . S
C775 C771 1.400 . S
C775 C774 1.385 . S
C776 C774 1.478 . S
C776 C778 1.381 . S
C776 C782 1.383 . S
C777 C773 1.495 . S
C777 H783 0.959 . S
C777 H784 0.961 . S
C777 H785 0.960 . S
C778 C776 1.381 . S
C778 C779 1.394 . S
C778 H786 0.930 . S
C779 C778 1.394 . S
C779 C780 1.383 . S
C779 H787 0.929 . S
C780 C779 1.383 . S
C780 C781 1.377 . S
C781 H765 0.930 . S
C781 C780 1.377 . S
C781 C782 1.379 . S
C782 H766 0.931 . S
C782 C776 1.383 . S
C782 C781 1.379 . S
H783 C777 0.959 . S
H784 C777 0.961 . S
H785 C777 0.960 . S
H786 C778 0.930 . S
H787 C779 0.929 . S
H788 C796 0.929 . S
H789 C798 0.930 . S
H790 C800 0.930 . S
H791 C803 0.929 . S
H792 C806 0.930 1_554 S
H793 C808 0.960 . S
H794 C808 0.960 1_554 S
H795 C808 0.960 1_554 S
C796 H788 0.929 . S
C796 C797 1.377 . S
C796 C798 1.384 . S
C797 C796 1.377 . S
C797 C803 1.390 . S
C798 H789 0.930 . S
C798 C796 1.384 . S
C798 C799 1.372 . S
C799 C798 1.372 . S
C799 C800 1.400 . S
C799 C804 1.490 . S
C800 H790 0.930 . S
C800 C799 1.400 . S
C800 C803 1.386 . S
H801 C817 0.930 . S
H802 C818 0.931 . S
C803 H791 0.929 . S
C803 C797 1.390 . S
C803 C800 1.386 . S
C804 C799 1.490 . S
C804 C806 1.395 1_554 S
C804 C807 1.403 1_554 S
H805 C811 0.930 . S
C806 H792 0.930 1_556 S
C806 C804 1.395 1_556 S
C806 C809 1.403 . S
C807 C804 1.403 1_556 S
C807 C808 1.524 . S
C807 C811 1.400 . S
C808 H793 0.960 . S
C808 H794 0.960 1_556 S
C808 H795 0.960 1_556 S
C808 C807 1.524 . S
C809 C806 1.403 . S
C809 C810 1.392 . S
C809 C813 1.495 . S
C810 C809 1.392 . S
C810 C811 1.385 . S
C810 C812 1.478 . S
C811 H805 0.930 . S
C811 C807 1.400 . S
C811 C810 1.385 . S
C812 C810 1.478 . S
C812 C814 1.381 . S
C812 C818 1.383 . S
C813 C809 1.495 . S
C813 H819 0.959 . S
C813 H820 0.961 . S
C813 H821 0.960 . S
C814 C812 1.381 . S
C814 C815 1.394 . S
C814 H822 0.930 . S
C815 C814 1.394 . S
C815 C816 1.383 . S
C815 H823 0.929 . S
C816 C815 1.383 . S
C816 C817 1.377 . S
C817 H801 0.930 . S
C817 C816 1.377 . S
C817 C818 1.379 . S
C818 H802 0.931 . S
C818 C812 1.383 . S
C818 C817 1.379 . S
H819 C813 0.959 . S
H820 C813 0.961 . S
H821 C813 0.960 . S
H822 C814 0.930 . S
H823 C815 0.929 . S
H824 C832 0.929 . S
H825 C834 0.930 . S
H826 C836 0.930 . S
H827 C839 0.929 . S
H828 C842 0.930 . S
H829 C844 0.960 . S
H830 C844 0.960 . S
H831 C844 0.960 . S
C832 H824 0.929 . S
C832 C833 1.377 . S
C832 C834 1.384 . S
C833 C832 1.377 . S
C833 C839 1.390 . S
C834 H825 0.930 . S
C834 C832 1.384 . S
C834 C835 1.372 . S
C835 C834 1.372 . S
C835 C836 1.400 . S
C835 C840 1.490 . S
C836 H826 0.930 . S
C836 C835 1.400 . S
C836 C839 1.386 . S
H837 C853 0.930 . S
H838 C854 0.931 . S
C839 H827 0.929 . S
C839 C833 1.390 . S
C839 C836 1.386 . S
C840 C835 1.490 . S
C840 C842 1.395 . S
C840 C843 1.403 . S
H841 C847 0.930 . S
C842 H828 0.930 . S
C842 C840 1.395 . S
C842 C845 1.403 . S
C843 C840 1.403 . S
C843 C844 1.524 . S
C843 C847 1.400 . S
C844 H829 0.960 . S
C844 H830 0.960 . S
C844 H831 0.960 . S
C844 C843 1.524 . S
C845 C842 1.403 . S
C845 C846 1.392 1_554 S
C845 C849 1.495 1_554 S
C846 C845 1.392 1_556 S
C846 C847 1.385 1_556 S
C846 C848 1.478 . S
C847 H841 0.930 . S
C847 C843 1.400 . S
C847 C846 1.385 1_554 S
C848 C846 1.478 . S
C848 C850 1.381 . S
C848 C854 1.383 . S
C849 C845 1.495 1_556 S
C849 H855 0.959 1_556 S
C849 H856 0.961 . S
C849 H857 0.960 . S
C850 C848 1.381 . S
C850 C851 1.394 . S
C850 H858 0.930 . S
C851 C850 1.394 . S
C851 C852 1.383 . S
C851 H859 0.929 . S
C852 C851 1.383 . S
C852 C853 1.377 . S
C853 H837 0.930 . S
C853 C852 1.377 . S
C853 C854 1.379 . S
C854 H838 0.931 . S
C854 C848 1.383 . S
C854 C853 1.379 . S
H855 C849 0.959 1_554 S
H856 C849 0.961 . S
H857 C849 0.960 . S
H858 C850 0.930 . S
H859 C851 0.929 . S
H860 C868 0.929 . S
H861 C870 0.930 . S
H862 C872 0.930 . S
H863 C875 0.929 . S
H864 C878 0.930 1_556 S
H865 C880 0.965 . S
H866 C880 0.957 1_556 S
H867 C880 0.956 1_556 S
C868 H860 0.929 . S
C868 C869 1.377 . S
C868 C870 1.384 . S
C869 C868 1.377 . S
C869 C875 1.390 . S
C870 H861 0.930 . S
C870 C868 1.384 . S
C870 C871 1.372 . S
C871 C870 1.372 . S
C871 C872 1.400 . S
C871 C876 1.490 . S
C872 H862 0.930 . S
C872 C871 1.400 . S
C872 C875 1.386 . S
H873 C889 0.930 . S
H874 C890 0.931 . S
C875 H863 0.929 . S
C875 C869 1.390 . S
C875 C872 1.386 . S
C876 C871 1.490 . S
C876 C878 1.395 1_556 S
C876 C879 1.403 1_556 S
H877 C883 0.930 . S
C878 H864 0.930 1_554 S
C878 C876 1.395 1_554 S
C878 C881 1.403 . S
C879 C876 1.403 1_554 S
C879 C880 1.526 . S
C879 C883 1.400 . S
C880 H865 0.965 . S
C880 H866 0.957 1_554 S
C880 H867 0.956 1_554 S
C880 C879 1.526 . S
C881 C878 1.403 . S
C881 C882 1.392 . S
C881 C885 1.495 . S
C882 C881 1.392 . S
C882 C883 1.385 . S
C882 C884 1.478 . S
C883 H877 0.930 . S
C883 C879 1.400 . S
C883 C882 1.385 . S
C884 C882 1.478 . S
C884 C886 1.381 . S
C884 C890 1.383 . S
C885 C881 1.495 . S
C885 H891 0.959 . S
C885 H892 0.961 . S
C885 H893 0.960 . S
C886 C884 1.381 . S
C886 C887 1.394 . S
C886 H894 0.930 . S
C887 C886 1.394 . S
C887 C888 1.383 . S
C887 H895 0.929 . S
C888 C887 1.383 . S
C888 C889 1.377 . S
C889 H873 0.930 . S
C889 C888 1.377 . S
C889 C890 1.379 . S
C890 H874 0.931 . S
C890 C884 1.383 . S
C890 C889 1.379 . S
H891 C885 0.959 . S
H892 C885 0.961 . S
H893 C885 0.960 . S
H894 C886 0.930 . S
H895 C887 0.929 . S
H896 C904 0.929 . S
H897 C906 0.930 . S
H898 C908 0.930 . S
H899 C911 0.929 . S
H900 C914 0.930 . S
H901 C916 0.960 . S
H902 C916 0.960 . S
H903 C916 0.960 . S
C904 H896 0.929 . S
C904 C905 1.377 . S
C904 C906 1.384 . S
C905 C904 1.377 . S
C905 C911 1.390 . S
C906 H897 0.930 . S
C906 C904 1.384 . S
C906 C907 1.372 . S
C907 C906 1.372 . S
C907 C908 1.400 . S
C907 C912 1.490 . S
C908 H898 0.930 . S
C908 C907 1.400 . S
C908 C911 1.386 . S
H909 C925 0.930 . S
H910 C926 0.931 . S
C911 H899 0.929 . S
C911 C905 1.390 . S
C911 C908 1.386 . S
C912 C907 1.490 . S
C912 C914 1.395 . S
C912 C915 1.403 . S
H913 C919 0.930 . S
C914 H900 0.930 . S
C914 C912 1.395 . S
C914 C917 1.403 . S
C915 C912 1.403 . S
C915 C916 1.524 . S
C915 C919 1.400 . S
C916 H901 0.960 . S
C916 H902 0.960 . S
C916 H903 0.960 . S
C916 C915 1.524 . S
C917 C914 1.403 . S
C917 C918 1.392 . S
C917 C921 1.495 . S
C918 C917 1.392 . S
C918 C919 1.385 . S
C918 C920 1.478 . S
C919 H913 0.930 . S
C919 C915 1.400 . S
C919 C918 1.385 . S
C920 C918 1.478 . S
C920 C922 1.381 . S
C920 C926 1.383 . S
C921 C917 1.495 . S
C921 H927 0.959 . S
C921 H928 0.961 . S
C921 H929 0.960 . S
C922 C920 1.381 . S
C922 C923 1.394 . S
C922 H930 0.930 . S
C923 C922 1.394 . S
C923 C924 1.383 . S
C923 H931 0.929 . S
C924 C923 1.383 . S
C924 C925 1.377 . S
C925 H909 0.930 . S
C925 C924 1.377 . S
C925 C926 1.379 . S
C926 H910 0.931 . S
C926 C920 1.383 . S
C926 C925 1.379 . S
H927 C921 0.959 . S
H928 C921 0.961 . S
H929 C921 0.960 . S
H930 C922 0.930 . S
H931 C923 0.929 . S
H932 C940 0.929 . S
H933 C942 0.930 . S
H934 C944 0.930 . S
H935 C947 0.929 . S
H936 C950 0.930 . S
H937 C952 0.960 . S
H938 C952 0.960 . S
H939 C952 0.960 . S
C940 H932 0.929 . S
C940 C941 1.377 . S
C940 C942 1.384 . S
C941 C940 1.377 . S
C941 C947 1.390 . S
C942 H933 0.930 . S
C942 C940 1.384 . S
C942 C943 1.372 . S
C943 C942 1.372 . S
C943 C944 1.400 . S
C943 C948 1.490 . S
C944 H934 0.930 . S
C944 C943 1.400 . S
C944 C947 1.386 . S
H945 C961 0.930 . S
H946 C962 0.931 . S
C947 H935 0.929 . S
C947 C941 1.390 . S
C947 C944 1.386 . S
C948 C943 1.490 . S
C948 C950 1.395 . S
C948 C951 1.403 . S
H949 C955 0.930 . S
C950 H936 0.930 . S
C950 C948 1.395 . S
C950 C953 1.403 . S
C951 C948 1.403 . S
C951 C952 1.524 . S
C951 C955 1.400 . S
C952 H937 0.960 . S
C952 H938 0.960 . S
C952 H939 0.960 . S
C952 C951 1.524 . S
C953 C950 1.403 . S
C953 C954 1.392 . S
C953 C957 1.495 . S
C954 C953 1.392 . S
C954 C955 1.385 . S
C954 C956 1.478 . S
C955 H949 0.930 . S
C955 C951 1.400 . S
C955 C954 1.385 . S
C956 C954 1.478 . S
C956 C958 1.381 . S
C956 C962 1.383 . S
C957 C953 1.495 . S
C957 H963 0.959 . S
C957 H964 0.961 . S
C957 H965 0.960 . S
C958 C956 1.381 . S
C958 C959 1.394 . S
C958 H966 0.930 . S
C959 C958 1.394 . S
C959 C960 1.383 . S
C959 H967 0.929 . S
C960 C959 1.383 . S
C960 C961 1.377 . S
C961 H945 0.930 . S
C961 C960 1.377 . S
C961 C962 1.379 . S
C962 H946 0.931 . S
C962 C956 1.383 . S
C962 C961 1.379 . S
H963 C957 0.959 . S
H964 C957 0.961 . S
H965 C957 0.960 . S
H966 C958 0.930 . S
H967 C959 0.929 . S
H968 C976 0.929 . S
H969 C978 0.930 . S
H970 C980 0.930 . S
H971 C983 0.929 . S
H972 C986 0.930 . S
H973 C988 0.960 . S
H974 C988 0.960 . S
H975 C988 0.960 . S
C976 H968 0.929 . S
C976 C977 1.377 . S
C976 C978 1.384 . S
C977 C976 1.377 . S
C977 C983 1.390 . S
C978 H969 0.930 . S
C978 C976 1.384 . S
C978 C979 1.372 . S
C979 C978 1.372 . S
C979 C980 1.400 . S
C979 C984 1.490 . S
C980 H970 0.930 . S
C980 C979 1.400 . S
C980 C983 1.386 . S
H981 C997 0.930 . S
H982 C998 0.931 . S
C983 H971 0.929 . S
C983 C977 1.390 . S
C983 C980 1.386 . S
C984 C979 1.490 . S
C984 C986 1.395 . S
C984 C987 1.403 . S
H985 C991 0.930 . S
C986 H972 0.930 . S
C986 C984 1.395 . S
C986 C989 1.403 . S
C987 C984 1.403 . S
C987 C988 1.524 . S
C987 C991 1.400 . S
C988 H973 0.960 . S
C988 H974 0.960 . S
C988 H975 0.960 . S
C988 C987 1.524 . S
C989 C986 1.403 . S
C989 C990 1.392 . S
C989 C993 1.495 . S
C990 C989 1.392 . S
C990 C991 1.385 . S
C990 C992 1.478 . S
C991 H985 0.930 . S
C991 C987 1.400 . S
C991 C990 1.385 . S
C992 C990 1.478 . S
C992 C994 1.381 . S
C992 C998 1.383 . S
C993 C989 1.495 . S
C993 H999 0.959 . S
C993 H1000 0.961 . S
C993 H1001 0.960 . S
C994 C992 1.381 . S
C994 C995 1.394 . S
C994 H1002 0.930 . S
C995 C994 1.394 . S
C995 C996 1.383 . S
C995 H1003 0.929 . S
C996 C995 1.383 . S
C996 C997 1.377 . S
C997 H981 0.930 . S
C997 C996 1.377 . S
C997 C998 1.379 . S
C998 H982 0.931 . S
C998 C992 1.383 . S
C998 C997 1.379 . S
H999 C993 0.959 . S
H1000 C993 0.961 . S
H1001 C993 0.960 . S
H1002 C994 0.930 . S
H1003 C995 0.929 . S
H1004 C1012 0.929 . S
H1005 C1014 0.930 . S
H1006 C1016 0.930 . S
H1007 C1019 0.929 . S
H1008 C1022 0.930 . S
H1009 C1024 0.960 . S
H1010 C1024 0.960 . S
H1011 C1024 0.960 . S
C1012 H1004 0.929 . S
C1012 C1013 1.377 . S
C1012 C1014 1.384 . S
C1013 C1012 1.377 . S
C1013 C1019 1.390 . S
C1014 H1005 0.930 . S
C1014 C1012 1.384 . S
C1014 C1015 1.372 . S
C1015 C1014 1.372 . S
C1015 C1016 1.400 . S
C1015 C1020 1.490 . S
C1016 H1006 0.930 . S
C1016 C1015 1.400 . S
C1016 C1019 1.386 . S
H1017 C1033 0.930 . S
H1018 C1034 0.931 . S
C1019 H1007 0.929 . S
C1019 C1013 1.390 . S
C1019 C1016 1.386 . S
C1020 C1015 1.490 . S
C1020 C1022 1.395 . S
C1020 C1023 1.403 . S
H1021 C1027 0.930 . S
C1022 H1008 0.930 . S
C1022 C1020 1.395 . S
C1022 C1025 1.403 . S
C1023 C1020 1.403 . S
C1023 C1024 1.524 . S
C1023 C1027 1.400 . S
C1024 H1009 0.960 . S
C1024 H1010 0.960 . S
C1024 H1011 0.960 . S
C1024 C1023 1.524 . S
C1025 C1022 1.403 . S
C1025 C1026 1.392 . S
C1025 C1029 1.495 . S
C1026 C1025 1.392 . S
C1026 C1027 1.385 . S
C1026 C1028 1.478 . S
C1027 H1021 0.930 . S
C1027 C1023 1.400 . S
C1027 C1026 1.385 . S
C1028 C1026 1.478 . S
C1028 C1030 1.381 . S
C1028 C1034 1.383 . S
C1029 C1025 1.495 . S
C1029 H1035 0.959 . S
C1029 H1036 0.961 . S
C1029 H1037 0.960 . S
C1030 C1028 1.381 . S
C1030 C1031 1.394 . S
C1030 H1038 0.930 . S
C1031 C1030 1.394 . S
C1031 C1032 1.383 . S
C1031 H1039 0.929 . S
C1032 C1031 1.383 . S
C1032 C1033 1.377 . S
C1033 H1017 0.930 . S
C1033 C1032 1.377 . S
C1033 C1034 1.379 . S
C1034 H1018 0.931 . S
C1034 C1028 1.383 . S
C1034 C1033 1.379 . S
H1035 C1029 0.959 . S
H1036 C1029 0.961 . S
H1037 C1029 0.960 . S
H1038 C1030 0.930 . S
H1039 C1031 0.929 . S
H1040 C1048 0.929 . S
H1041 C1050 0.930 . S
H1042 C1052 0.930 . S
H1043 C1055 0.929 . S
H1044 C1058 0.930 . S
H1045 C1060 0.960 . S
H1046 C1060 0.960 . S
H1047 C1060 0.960 . S
C1048 H1040 0.929 . S
C1048 C1049 1.377 . S
C1048 C1050 1.384 . S
C1049 C1048 1.377 . S
C1049 C1055 1.390 . S
C1050 H1041 0.930 . S
C1050 C1048 1.384 . S
C1050 C1051 1.372 . S
C1051 C1050 1.372 . S
C1051 C1052 1.400 . S
C1051 C1056 1.490 . S
C1052 H1042 0.930 . S
C1052 C1051 1.400 . S
C1052 C1055 1.386 . S
H1053 C1069 0.930 . S
H1054 C1070 0.931 . S
C1055 H1043 0.929 . S
C1055 C1049 1.390 . S
C1055 C1052 1.386 . S
C1056 C1051 1.490 . S
C1056 C1058 1.395 . S
C1056 C1059 1.403 . S
H1057 C1063 0.930 . S
C1058 H1044 0.930 . S
C1058 C1056 1.395 . S
C1058 C1061 1.403 1_455 S
C1059 C1056 1.403 . S
C1059 C1060 1.524 . S
C1059 C1063 1.400 1_455 S
C1060 H1045 0.960 . S
C1060 H1046 0.960 . S
C1060 H1047 0.960 . S
C1060 C1059 1.524 . S
C1061 C1058 1.403 1_655 S
C1061 C1062 1.392 . S
C1061 C1065 1.495 . S
C1062 C1061 1.392 . S
C1062 C1063 1.385 . S
C1062 C1064 1.478 . S
C1063 H1057 0.930 . S
C1063 C1059 1.400 1_655 S
C1063 C1062 1.385 . S
C1064 C1062 1.478 . S
C1064 C1066 1.381 . S
C1064 C1070 1.383 . S
C1065 C1061 1.495 . S
C1065 H1071 0.959 . S
C1065 H1072 0.961 . S
C1065 H1073 0.960 . S
C1066 C1064 1.381 . S
C1066 C1067 1.394 . S
C1066 H1074 0.930 . S
C1067 C1066 1.394 . S
C1067 C1068 1.383 . S
C1067 H1075 0.929 . S
C1068 C1067 1.383 . S
C1068 C1069 1.377 . S
C1069 H1053 0.930 . S
C1069 C1068 1.377 . S
C1069 C1070 1.379 . S
C1070 H1054 0.931 . S
C1070 C1064 1.383 . S
C1070 C1069 1.379 . S
H1071 C1065 0.959 . S
H1072 C1065 0.961 . S
H1073 C1065 0.960 . S
H1074 C1066 0.930 . S
H1075 C1067 0.929 . S
H1076 C1084 0.929 . S
H1077 C1086 0.930 . S
H1078 C1088 0.930 . S
H1079 C1091 0.929 . S
H1080 C1094 0.930 . S
H1081 C1096 0.960 . S
H1082 C1096 0.960 . S
H1083 C1096 0.960 . S
C1084 H1076 0.929 . S
C1084 C1085 1.377 . S
C1084 C1086 1.384 . S
C1085 C1084 1.377 . S
C1085 C1091 1.390 . S
C1086 H1077 0.930 . S
C1086 C1084 1.384 . S
C1086 C1087 1.372 . S
C1087 C1086 1.372 . S
C1087 C1088 1.400 . S
C1087 C1092 1.490 . S
C1088 H1078 0.930 . S
C1088 C1087 1.400 . S
C1088 C1091 1.386 . S
H1089 C1105 0.930 . S
H1090 C1106 0.931 . S
C1091 H1079 0.929 . S
C1091 C1085 1.390 . S
C1091 C1088 1.386 . S
C1092 C1087 1.490 . S
C1092 C1094 1.395 . S
C1092 C1095 1.403 . S
H1093 C1099 0.930 . S
C1094 H1080 0.930 . S
C1094 C1092 1.395 . S
C1094 C1097 1.403 1_655 S
C1095 C1092 1.403 . S
C1095 C1096 1.524 . S
C1095 C1099 1.400 1_655 S
C1096 H1081 0.960 . S
C1096 H1082 0.960 . S
C1096 H1083 0.960 . S
C1096 C1095 1.524 . S
C1097 C1094 1.403 1_455 S
C1097 C1098 1.392 . S
C1097 C1101 1.495 . S
C1098 C1097 1.392 . S
C1098 C1099 1.385 . S
C1098 C1100 1.478 . S
C1099 H1093 0.930 . S
C1099 C1095 1.400 1_455 S
C1099 C1098 1.385 . S
C1100 C1098 1.478 . S
C1100 C1102 1.381 . S
C1100 C1106 1.383 . S
C1101 C1097 1.495 . S
C1101 H1107 0.959 . S
C1101 H1108 0.961 . S
C1101 H1109 0.960 . S
C1102 C1100 1.381 . S
C1102 C1103 1.394 . S
C1102 H1110 0.930 . S
C1103 C1102 1.394 . S
C1103 C1104 1.383 . S
C1103 H1111 0.929 . S
C1104 C1103 1.383 . S
C1104 C1105 1.377 . S
C1105 H1089 0.930 . S
C1105 C1104 1.377 . S
C1105 C1106 1.379 . S
C1106 H1090 0.931 . S
C1106 C1100 1.383 . S
C1106 C1105 1.379 . S
H1107 C1101 0.959 . S
H1108 C1101 0.961 . S
H1109 C1101 0.960 . S
H1110 C1102 0.930 . S
H1111 C1103 0.929 . S
H1112 C1120 0.929 . S
H1113 C1122 0.930 . S
H1114 C1124 0.930 . S
H1115 C1127 0.929 . S
H1116 C1130 0.930 . S
H1117 C1132 0.960 . S
H1118 C1132 0.960 . S
H1119 C1132 0.960 . S
C1120 H1112 0.929 . S
C1120 C1121 1.377 . S
C1120 C1122 1.384 . S
C1121 C1120 1.377 . S
C1121 C1127 1.390 . S
C1122 H1113 0.930 . S
C1122 C1120 1.384 . S
C1122 C1123 1.372 . S
C1123 C1122 1.372 . S
C1123 C1124 1.400 . S
C1123 C1128 1.490 . S
C1124 H1114 0.930 . S
C1124 C1123 1.400 . S
C1124 C1127 1.386 . S
H1125 C1141 0.930 . S
H1126 C1142 0.931 . S
C1127 H1115 0.929 . S
C1127 C1121 1.390 . S
C1127 C1124 1.386 . S
C1128 C1123 1.490 . S
C1128 C1130 1.395 . S
C1128 C1131 1.403 . S
H1129 C1135 0.930 . S
C1130 H1116 0.930 . S
C1130 C1128 1.395 . S
C1130 C1133 1.403 . S
C1131 C1128 1.403 . S
C1131 C1132 1.524 . S
C1131 C1135 1.400 . S
C1132 H1117 0.960 . S
C1132 H1118 0.960 . S
C1132 H1119 0.960 . S
C1132 C1131 1.524 . S
C1133 C1130 1.403 . S
C1133 C1134 1.392 . S
C1133 C1137 1.495 . S
C1134 C1133 1.392 . S
C1134 C1135 1.385 . S
C1134 C1136 1.478 . S
C1135 H1129 0.930 . S
C1135 C1131 1.400 . S
C1135 C1134 1.385 . S
C1136 C1134 1.478 . S
C1136 C1138 1.381 . S
C1136 C1142 1.383 . S
C1137 C1133 1.495 . S
C1137 H1143 0.959 . S
C1137 H1144 0.961 . S
C1137 H1145 0.960 . S
C1138 C1136 1.381 . S
C1138 C1139 1.394 . S
C1138 H1146 0.930 . S
C1139 C1138 1.394 . S
C1139 C1140 1.383 . S
C1139 H1147 0.929 . S
C1140 C1139 1.383 . S
C1140 C1141 1.377 . S
C1141 H1125 0.930 . S
C1141 C1140 1.377 . S
C1141 C1142 1.379 . S
C1142 H1126 0.931 . S
C1142 C1136 1.383 . S
C1142 C1141 1.379 . S
H1143 C1137 0.959 . S
H1144 C1137 0.961 . S
H1145 C1137 0.960 . S
H1146 C1138 0.930 . S
H1147 C1139 0.929 . S
H1148 C1156 0.929 . S
H1149 C1158 0.930 . S
H1150 C1160 0.930 . S
H1151 C1163 0.929 . S
H1152 C1166 0.930 . S
H1153 C1168 0.960 . S
H1154 C1168 0.960 . S
H1155 C1168 0.960 . S
C1156 H1148 0.929 . S
C1156 C1157 1.377 . S
C1156 C1158 1.384 . S
C1157 C1156 1.377 . S
C1157 C1163 1.390 . S
C1158 H1149 0.930 . S
C1158 C1156 1.384 . S
C1158 C1159 1.372 . S
C1159 C1158 1.372 . S
C1159 C1160 1.400 . S
C1159 C1164 1.490 . S
C1160 H1150 0.930 . S
C1160 C1159 1.400 . S
C1160 C1163 1.386 . S
H1161 C1177 0.930 . S
H1162 C1178 0.931 . S
C1163 H1151 0.929 . S
C1163 C1157 1.390 . S
C1163 C1160 1.386 . S
C1164 C1159 1.490 . S
C1164 C1166 1.395 . S
C1164 C1167 1.403 . S
H1165 C1171 0.930 . S
C1166 H1152 0.930 . S
C1166 C1164 1.395 . S
C1166 C1169 1.403 . S
C1167 C1164 1.403 . S
C1167 C1168 1.524 . S
C1167 C1171 1.400 . S
C1168 H1153 0.960 . S
C1168 H1154 0.960 . S
C1168 H1155 0.960 . S
C1168 C1167 1.524 . S
C1169 C1166 1.403 . S
C1169 C1170 1.392 . S
C1169 C1173 1.495 . S
C1170 C1169 1.392 . S
C1170 C1171 1.385 . S
C1170 C1172 1.478 . S
C1171 H1165 0.930 . S
C1171 C1167 1.400 . S
C1171 C1170 1.385 . S
C1172 C1170 1.478 . S
C1172 C1174 1.381 . S
C1172 C1178 1.383 . S
C1173 C1169 1.495 . S
C1173 H1179 0.959 . S
C1173 H1180 0.961 . S
C1173 H1181 0.960 . S
C1174 C1172 1.381 . S
C1174 C1175 1.394 . S
C1174 H1182 0.930 . S
C1175 C1174 1.394 . S
C1175 C1176 1.383 . S
C1175 H1183 0.929 . S
C1176 C1175 1.383 . S
C1176 C1177 1.377 . S
C1177 H1161 0.930 . S
C1177 C1176 1.377 . S
C1177 C1178 1.379 . S
C1178 H1162 0.931 . S
C1178 C1172 1.383 . S
C1178 C1177 1.379 . S
H1179 C1173 0.959 . S
H1180 C1173 0.961 . S
H1181 C1173 0.960 . S
H1182 C1174 0.930 . S
H1183 C1175 0.929 . S
C329 C7 1.705 . S
C348 C296 1.697 . S
C365 C256 1.705 . S
C384 C47 1.696 . S
C401 C207 1.705 . S
C420 C96 1.695 . S
C437 C167 1.707 . S
C456 C136 1.704 . S
C473 C90 1.549 . S
C492 C10 1.541 . S
C509 C50 1.549 . S
C528 C130 1.522 . S
C545 C139 1.556 . S
C564 C59 1.566 . S
C581 C99 1.551 . S
C600 C19 1.519 . S
C617 C170 1.454 . S
C636 C250 1.436 . S
C653 C210 1.446 . S
C672 C290 1.433 . S
C689 C299 1.449 . S
C708 C219 1.428 . S
C725 C259 1.452 . S
C744 C179 1.436 . S
C761 C11 2.082 . S
C780 C2 2.063 . S
C797 C51 2.086 . S
C816 C42 2.097 . S
C833 C91 2.085 . S
C852 C82 2.066 . S
C869 C122 2.087 . S
C888 C131 2.077 . S
C905 C162 2.086 . S
C924 C171 2.074 . S
C941 C211 2.083 . S
C960 C202 2.063 . S
C977 C242 2.080 . S
C996 C251 2.072 . S
C1013 C282 2.081 . S
C1032 C291 2.084 . S
C1049 C16 2.383 . S
C1068 C56 2.386 . S
C1085 C127 2.380 . S
C1104 C87 2.371 . S
C1121 C176 2.385 . S
C1140 C216 2.365 . S
C1157 C287 2.384 . S
C1176 C247 2.391 . S
