# Generated by pormake.
# Topology uoh, (4)-cn, num edge types: 1
# Building blocks:
#     Node 0, Type 0, BuildingBlock: GALJAG_clean_sbu_0, # of connection points: 4
#     Node 1, Type 0, BuildingBlock: GALJAG_clean_sbu_0, # of connection points: 4
#     Node 2, Type 0, BuildingBlock: GALJAG_clean_sbu_0, # of connection points: 4
#     Node 3, Type 0, BuildingBlock: GALJAG_clean_sbu_0, # of connection points: 4
#     Node 4, Type 0, BuildingBlock: GALJAG_clean_sbu_0, # of connection points: 4
#     Node 5, Type 0, BuildingBlock: GALJAG_clean_sbu_0, # of connection points: 4
#     Node 6, Type 0, BuildingBlock: GALJAG_clean_sbu_0, # of connection points: 4
#     Node 7, Type 0, BuildingBlock: GALJAG_clean_sbu_0, # of connection points: 4
#     Node 8, Type 0, BuildingBlock: GALJAG_clean_sbu_0, # of connection points: 4
#     Node 9, Type 0, BuildingBlock: GALJAG_clean_sbu_0, # of connection points: 4
#     Node 10, Type 0, BuildingBlock: GALJAG_clean_sbu_0, # of connection points: 4
#     Node 11, Type 0, BuildingBlock: GALJAG_clean_sbu_0, # of connection points: 4
#     Node 12, Type 0, BuildingBlock: GALJAG_clean_sbu_0, # of connection points: 4
#     Node 13, Type 0, BuildingBlock: GALJAG_clean_sbu_0, # of connection points: 4
#     Node 14, Type 0, BuildingBlock: GALJAG_clean_sbu_0, # of connection points: 4
#     Node 15, Type 0, BuildingBlock: GALJAG_clean_sbu_0, # of connection points: 4
#     Node 16, Type 0, BuildingBlock: GALJAG_clean_sbu_0, # of connection points: 4
#     Node 17, Type 0, BuildingBlock: GALJAG_clean_sbu_0, # of connection points: 4
#     Node 18, Type 0, BuildingBlock: GALJAG_clean_sbu_0, # of connection points: 4
#     Node 19, Type 0, BuildingBlock: GALJAG_clean_sbu_0, # of connection points: 4
#     Node 20, Type 0, BuildingBlock: GALJAG_clean_sbu_0, # of connection points: 4
#     Node 21, Type 0, BuildingBlock: GALJAG_clean_sbu_0, # of connection points: 4
#     Node 22, Type 0, BuildingBlock: GALJAG_clean_sbu_0, # of connection points: 4
#     Node 23, Type 0, BuildingBlock: GALJAG_clean_sbu_0, # of connection points: 4
#     Node 24, Type 0, BuildingBlock: GALJAG_clean_sbu_0, # of connection points: 4
#     Node 25, Type 0, BuildingBlock: GALJAG_clean_sbu_0, # of connection points: 4
#     Node 26, Type 0, BuildingBlock: GALJAG_clean_sbu_0, # of connection points: 4
#     Node 27, Type 0, BuildingBlock: GALJAG_clean_sbu_0, # of connection points: 4
#     Node 28, Type 0, BuildingBlock: GALJAG_clean_sbu_0, # of connection points: 4
#     Node 29, Type 0, BuildingBlock: GALJAG_clean_sbu_0, # of connection points: 4
#     Node 30, Type 0, BuildingBlock: GALJAG_clean_sbu_0, # of connection points: 4
#     Node 31, Type 0, BuildingBlock: GALJAG_clean_sbu_0, # of connection points: 4
#     Node 32, Type 0, BuildingBlock: GALJAG_clean_sbu_0, # of connection points: 4
#     Node 33, Type 0, BuildingBlock: GALJAG_clean_sbu_0, # of connection points: 4
#     Node 34, Type 0, BuildingBlock: GALJAG_clean_sbu_0, # of connection points: 4
#     Node 35, Type 0, BuildingBlock: GALJAG_clean_sbu_0, # of connection points: 4
#     Edge 36, Type (0, 0), BuildingBlock: TEMPAE_clean_linker_10, # of connection points: 2
#     Edge 37, Type (0, 0), BuildingBlock: TEMPAE_clean_linker_10, # of connection points: 2
#     Edge 38, Type (0, 0), BuildingBlock: TEMPAE_clean_linker_10, # of connection points: 2
#     Edge 39, Type (0, 0), BuildingBlock: TEMPAE_clean_linker_10, # of connection points: 2
#     Edge 40, Type (0, 0), BuildingBlock: TEMPAE_clean_linker_10, # of connection points: 2
#     Edge 41, Type (0, 0), BuildingBlock: TEMPAE_clean_linker_10, # of connection points: 2
#     Edge 42, Type (0, 0), BuildingBlock: TEMPAE_clean_linker_10, # of connection points: 2
#     Edge 43, Type (0, 0), BuildingBlock: TEMPAE_clean_linker_10, # of connection points: 2
#     Edge 44, Type (0, 0), BuildingBlock: TEMPAE_clean_linker_10, # of connection points: 2
#     Edge 45, Type (0, 0), BuildingBlock: TEMPAE_clean_linker_10, # of connection points: 2
#     Edge 46, Type (0, 0), BuildingBlock: TEMPAE_clean_linker_10, # of connection points: 2
#     Edge 47, Type (0, 0), BuildingBlock: TEMPAE_clean_linker_10, # of connection points: 2
#     Edge 48, Type (0, 0), BuildingBlock: TEMPAE_clean_linker_10, # of connection points: 2
#     Edge 49, Type (0, 0), BuildingBlock: TEMPAE_clean_linker_10, # of connection points: 2
#     Edge 50, Type (0, 0), BuildingBlock: TEMPAE_clean_linker_10, # of connection points: 2
#     Edge 51, Type (0, 0), BuildingBlock: TEMPAE_clean_linker_10, # of connection points: 2
#     Edge 52, Type (0, 0), BuildingBlock: TEMPAE_clean_linker_10, # of connection points: 2
#     Edge 53, Type (0, 0), BuildingBlock: TEMPAE_clean_linker_10, # of connection points: 2
#     Edge 54, Type (0, 0), BuildingBlock: TEMPAE_clean_linker_10, # of connection points: 2
#     Edge 55, Type (0, 0), BuildingBlock: TEMPAE_clean_linker_10, # of connection points: 2
#     Edge 56, Type (0, 0), BuildingBlock: TEMPAE_clean_linker_10, # of connection points: 2
#     Edge 57, Type (0, 0), BuildingBlock: TEMPAE_clean_linker_10, # of connection points: 2
#     Edge 58, Type (0, 0), BuildingBlock: TEMPAE_clean_linker_10, # of connection points: 2
#     Edge 59, Type (0, 0), BuildingBlock: TEMPAE_clean_linker_10, # of connection points: 2
#     Edge 60, Type (0, 0), BuildingBlock: TEMPAE_clean_linker_10, # of connection points: 2
#     Edge 61, Type (0, 0), BuildingBlock: TEMPAE_clean_linker_10, # of connection points: 2
#     Edge 62, Type (0, 0), BuildingBlock: TEMPAE_clean_linker_10, # of connection points: 2
#     Edge 63, Type (0, 0), BuildingBlock: TEMPAE_clean_linker_10, # of connection points: 2
#     Edge 64, Type (0, 0), BuildingBlock: TEMPAE_clean_linker_10, # of connection points: 2
#     Edge 65, Type (0, 0), BuildingBlock: TEMPAE_clean_linker_10, # of connection points: 2
#     Edge 66, Type (0, 0), BuildingBlock: TEMPAE_clean_linker_10, # of connection points: 2
#     Edge 67, Type (0, 0), BuildingBlock: TEMPAE_clean_linker_10, # of connection points: 2
#     Edge 68, Type (0, 0), BuildingBlock: TEMPAE_clean_linker_10, # of connection points: 2
#     Edge 69, Type (0, 0), BuildingBlock: TEMPAE_clean_linker_10, # of connection points: 2
#     Edge 70, Type (0, 0), BuildingBlock: TEMPAE_clean_linker_10, # of connection points: 2
#     Edge 71, Type (0, 0), BuildingBlock: TEMPAE_clean_linker_10, # of connection points: 2
#     Edge 72, Type (0, 0), BuildingBlock: TEMPAE_clean_linker_10, # of connection points: 2
#     Edge 73, Type (0, 0), BuildingBlock: TEMPAE_clean_linker_10, # of connection points: 2
#     Edge 74, Type (0, 0), BuildingBlock: TEMPAE_clean_linker_10, # of connection points: 2
#     Edge 75, Type (0, 0), BuildingBlock: TEMPAE_clean_linker_10, # of connection points: 2
#     Edge 76, Type (0, 0), BuildingBlock: TEMPAE_clean_linker_10, # of connection points: 2
#     Edge 77, Type (0, 0), BuildingBlock: TEMPAE_clean_linker_10, # of connection points: 2
#     Edge 78, Type (0, 0), BuildingBlock: TEMPAE_clean_linker_10, # of connection points: 2
#     Edge 79, Type (0, 0), BuildingBlock: TEMPAE_clean_linker_10, # of connection points: 2
#     Edge 80, Type (0, 0), BuildingBlock: TEMPAE_clean_linker_10, # of connection points: 2
#     Edge 81, Type (0, 0), BuildingBlock: TEMPAE_clean_linker_10, # of connection points: 2
#     Edge 82, Type (0, 0), BuildingBlock: TEMPAE_clean_linker_10, # of connection points: 2
#     Edge 83, Type (0, 0), BuildingBlock: TEMPAE_clean_linker_10, # of connection points: 2
#     Edge 84, Type (0, 0), BuildingBlock: TEMPAE_clean_linker_10, # of connection points: 2
#     Edge 85, Type (0, 0), BuildingBlock: TEMPAE_clean_linker_10, # of connection points: 2
#     Edge 86, Type (0, 0), BuildingBlock: TEMPAE_clean_linker_10, # of connection points: 2
#     Edge 87, Type (0, 0), BuildingBlock: TEMPAE_clean_linker_10, # of connection points: 2
#     Edge 88, Type (0, 0), BuildingBlock: TEMPAE_clean_linker_10, # of connection points: 2
#     Edge 89, Type (0, 0), BuildingBlock: TEMPAE_clean_linker_10, # of connection points: 2
#     Edge 90, Type (0, 0), BuildingBlock: TEMPAE_clean_linker_10, # of connection points: 2
#     Edge 91, Type (0, 0), BuildingBlock: TEMPAE_clean_linker_10, # of connection points: 2
#     Edge 92, Type (0, 0), BuildingBlock: TEMPAE_clean_linker_10, # of connection points: 2
#     Edge 93, Type (0, 0), BuildingBlock: TEMPAE_clean_linker_10, # of connection points: 2
#     Edge 94, Type (0, 0), BuildingBlock: TEMPAE_clean_linker_10, # of connection points: 2
#     Edge 95, Type (0, 0), BuildingBlock: TEMPAE_clean_linker_10, # of connection points: 2
#     Edge 96, Type (0, 0), BuildingBlock: TEMPAE_clean_linker_10, # of connection points: 2
#     Edge 97, Type (0, 0), BuildingBlock: TEMPAE_clean_linker_10, # of connection points: 2
#     Edge 98, Type (0, 0), BuildingBlock: TEMPAE_clean_linker_10, # of connection points: 2
#     Edge 99, Type (0, 0), BuildingBlock: TEMPAE_clean_linker_10, # of connection points: 2
#     Edge 100, Type (0, 0), BuildingBlock: TEMPAE_clean_linker_10, # of connection points: 2
#     Edge 101, Type (0, 0), BuildingBlock: TEMPAE_clean_linker_10, # of connection points: 2
#     Edge 102, Type (0, 0), BuildingBlock: TEMPAE_clean_linker_10, # of connection points: 2
#     Edge 103, Type (0, 0), BuildingBlock: TEMPAE_clean_linker_10, # of connection points: 2
#     Edge 104, Type (0, 0), BuildingBlock: TEMPAE_clean_linker_10, # of connection points: 2
#     Edge 105, Type (0, 0), BuildingBlock: TEMPAE_clean_linker_10, # of connection points: 2
#     Edge 106, Type (0, 0), BuildingBlock: TEMPAE_clean_linker_10, # of connection points: 2
#     Edge 107, Type (0, 0), BuildingBlock: TEMPAE_clean_linker_10, # of connection points: 2
# Relax obj value: 0.044
# Max RMSD: 0.095
# Mean RMSD: 0.095
data_MOF--net-uoh--node1-GALJAG_clean_sbu_0--edge1-TEMPAE_clean_linker_10
_symmetry_space_group_name_H-M    P1
_symmetry_Int_Tables_number       1
_symmetry_cell_setting            triclinic
loop_
_symmetry_equiv_pos_as_xyz
'x, y, z'
_cell_length_a     87.45331
_cell_length_b     87.444648
_cell_length_c     29.009586
_cell_angle_alpha  89.974363
_cell_angle_beta   90.008852
_cell_angle_gamma 120.01455
loop_
_atom_site_label
_atom_site_type_symbol
_atom_site_fract_x
_atom_site_fract_y
_atom_site_fract_z
_atom_type_partial_charge
In0 In 0.23171 0.14139 0.14391 0.0
O1 O 0.23744 0.16908 0.16198 0.0
O2 O 0.21073 0.14921 0.14934 0.0
C3 C 0.26539 0.14972 0.13041 0.0
C4 C 0.22398 0.12717 0.22928 0.0
C5 C 0.21857 0.12746 0.06026 0.0
O6 O 0.26007 0.16046 0.12207 0.0
O7 O 0.2537 0.13476 0.14471 0.0
O8 O 0.21764 0.11782 0.09396 0.0
O9 O 0.22574 0.14368 0.06941 0.0
C10 C 0.22144 0.16506 0.15992 0.0
O11 O 0.21383 0.11947 0.19548 0.0
O12 O 0.23768 0.1415 0.21937 0.0
In13 In 0.85289 0.09632 0.21674 0.0
O14 O 0.82651 0.07067 0.21387 0.0
O15 O 0.84987 0.06929 0.22604 0.0
C16 C 0.8437 0.12135 0.21789 0.0
C17 C 0.86539 0.10138 0.30325 0.0
C18 C 0.86616 0.10075 0.13073 0.0
O19 O 0.83249 0.10518 0.21259 0.0
O20 O 0.85949 0.12485 0.22225 0.0
O21 O 0.87602 0.10449 0.16582 0.0
O22 O 0.85007 0.0948 0.13962 0.0
C23 C 0.8333 0.0611 0.2215 0.0
O24 O 0.87546 0.10445 0.26877 0.0
O25 O 0.8494 0.09586 0.29352 0.0
In26 In 0.89837 0.76491 0.21986 0.0
O27 O 0.89769 0.78535 0.26869 0.0
O28 O 0.88208 0.75817 0.28534 0.0
C29 C 0.90251 0.78111 0.13731 0.0
C30 C 0.93053 0.77111 0.2449 0.0
C31 C 0.87487 0.73066 0.20408 0.0
O32 O 0.88959 0.7775 0.16356 0.0
O33 O 0.91357 0.77741 0.15386 0.0
O34 O 0.88812 0.7355 0.22993 0.0
O35 O 0.87351 0.74307 0.18615 0.0
C36 C 0.88758 0.7739 0.29754 0.0
O37 O 0.92122 0.75929 0.21595 0.0
O38 O 0.92364 0.77968 0.26071 0.0
In39 In 0.1334 0.2311 0.31031 0.0
O40 O 0.16062 0.23894 0.28141 0.0
O41 O 0.14364 0.21219 0.3017 0.0
C42 C 0.14217 0.26473 0.32685 0.0
C43 C 0.1157 0.22115 0.22936 0.0
C44 C 0.12229 0.2176 0.39551 0.0
O45 O 0.15328 0.25954 0.32929 0.0
O46 O 0.12661 0.25288 0.3171 0.0
O47 O 0.11197 0.2186 0.36665 0.0
O48 O 0.13773 0.22311 0.38098 0.0
C49 C 0.15833 0.22354 0.28513 0.0
O50 O 0.11189 0.21031 0.26222 0.0
O51 O 0.12761 0.23666 0.23848 0.0
In52 In 0.75617 0.89587 0.28582 0.0
O53 O 0.75367 0.92053 0.28253 0.0
O54 O 0.77781 0.92238 0.26031 0.0
C55 C 0.72193 0.87175 0.29835 0.0
C56 C 0.76184 0.88699 0.20138 0.0
C57 C 0.76964 0.89614 0.37005 0.0
O58 O 0.72743 0.88814 0.2978 0.0
O59 O 0.7337 0.86758 0.29302 0.0
O60 O 0.76959 0.88632 0.33797 0.0
O61 O 0.76348 0.90589 0.35886 0.0
C62 C 0.769 0.93006 0.26626 0.0
O63 O 0.77229 0.88954 0.23454 0.0
O64 O 0.74869 0.88863 0.21147 0.0
In65 In 0.0936 0.85639 0.32294 0.0
O66 O 0.09909 0.87851 0.27119 0.0
O67 O 0.10009 0.8559 0.24799 0.0
C68 C 0.09322 0.86965 0.40694 0.0
C69 C 0.05948 0.83407 0.30467 0.0
C70 C 0.11884 0.84783 0.33578 0.0
O71 O 0.10236 0.87952 0.3741 0.0
O72 O 0.08424 0.85354 0.39674 0.0
O73 O 0.10259 0.83649 0.33735 0.0
O74 O 0.12231 0.86346 0.32815 0.0
C75 C 0.1014 0.87054 0.2378 0.0
O76 O 0.06984 0.82864 0.3166 0.0
O77 O 0.06633 0.85064 0.30261 0.0
In78 In 0.75385 0.84701 0.78353 0.0
O79 O 0.75102 0.81961 0.78361 0.0
O80 O 0.77537 0.8415 0.76139 0.0
C81 C 0.71957 0.83701 0.79303 0.0
C82 C 0.76126 0.86395 0.70176 0.0
C83 C 0.76583 0.859 0.86924 0.0
O84 O 0.7246 0.82708 0.77521 0.0
O85 O 0.73182 0.85189 0.80626 0.0
O86 O 0.76757 0.86939 0.83665 0.0
O87 O 0.75852 0.84295 0.85795 0.0
C88 C 0.76648 0.8251 0.76868 0.0
O89 O 0.77184 0.87011 0.73544 0.0
O90 O 0.7471 0.84985 0.71019 0.0
In91 In 0.1418 0.90478 0.82044 0.0
O92 O 0.11919 0.90059 0.77134 0.0
O93 O 0.1394 0.89594 0.74673 0.0
C94 C 0.12947 0.90396 0.90617 0.0
C95 C 0.16435 0.93867 0.79953 0.0
C96 C 0.15138 0.88039 0.83437 0.0
O97 O 0.11917 0.89586 0.87295 0.0
O98 O 0.14559 0.91259 0.89547 0.0
O99 O 0.1622 0.89675 0.83758 0.0
O100 O 0.13574 0.87638 0.82459 0.0
C101 C 0.12551 0.8963 0.73774 0.0
O102 O 0.16851 0.92683 0.79588 0.0
O103 O 0.14899 0.93346 0.81464 0.0
In104 In 0.10054 0.23025 0.81064 0.0
O105 O 0.07738 0.23515 0.81932 0.0
O106 O 0.07631 0.21829 0.765 0.0
C107 C 0.12336 0.26505 0.82174 0.0
C108 C 0.11125 0.21999 0.73528 0.0
C109 C 0.09677 0.21344 0.89212 0.0
O110 O 0.1106 0.25917 0.79392 0.0
O111 O 0.12452 0.2534 0.84459 0.0
O112 O 0.10982 0.21773 0.86587 0.0
O113 O 0.08543 0.21686 0.87615 0.0
C114 C 0.0689 0.22554 0.78552 0.0
O115 O 0.09903 0.209 0.76107 0.0
O116 O 0.11881 0.23566 0.74983 0.0
In117 In 0.86649 0.76292 0.72062 0.0
O118 O 0.83771 0.75584 0.71331 0.0
O119 O 0.85426 0.77678 0.75865 0.0
C120 C 0.85576 0.7285 0.70786 0.0
C121 C 0.88656 0.77335 0.79801 0.0
C122 C 0.87874 0.77891 0.63787 0.0
O123 O 0.84807 0.73372 0.7351 0.0
O124 O 0.86887 0.74065 0.68695 0.0
O125 O 0.88764 0.77455 0.66345 0.0
O126 O 0.86435 0.77603 0.65517 0.0
C127 C 0.83913 0.76756 0.74118 0.0
O128 O 0.88699 0.78432 0.76895 0.0
O129 O 0.8771 0.75745 0.78619 0.0
In130 In 0.23195 0.09342 0.64552 0.0
O131 O 0.23816 0.07228 0.66882 0.0
O132 O 0.21153 0.06437 0.65161 0.0
C133 C 0.26546 0.1192 0.63273 0.0
C134 C 0.22368 0.10073 0.72914 0.0
C135 C 0.2197 0.09394 0.56039 0.0
O136 O 0.2606 0.10314 0.62587 0.0
O137 O 0.25338 0.12222 0.64512 0.0
O138 O 0.21735 0.10175 0.59407 0.0
O139 O 0.22774 0.08578 0.57032 0.0
C140 C 0.22236 0.05989 0.66589 0.0
O141 O 0.21297 0.09633 0.69568 0.0
O142 O 0.23817 0.10169 0.7196 0.0
In143 In 0.90515 0.15054 0.71763 0.0
O144 O 0.93069 0.17713 0.71941 0.0
O145 O 0.93222 0.15354 0.72143 0.0
C146 C 0.87954 0.15888 0.72064 0.0
C147 C 0.90104 0.1377 0.80362 0.0
C148 C 0.90047 0.13761 0.63126 0.0
O149 O 0.89546 0.1703 0.7125 0.0
O150 O 0.87661 0.14335 0.7268 0.0
O151 O 0.89705 0.12769 0.66612 0.0
O152 O 0.90616 0.15364 0.64048 0.0
C153 C 0.94035 0.1702 0.7221 0.0
O154 O 0.89772 0.1278 0.76868 0.0
O155 O 0.90627 0.15369 0.79461 0.0
In156 In 0.89404 0.46313 0.50293 0.0
O157 O 0.89666 0.49048 0.50379 0.0
O158 O 0.87513 0.46952 0.53966 0.0
C159 C 0.92872 0.47549 0.4896 0.0
C160 C 0.88753 0.44415 0.58124 0.0
C161 C 0.87934 0.45073 0.41934 0.0
O162 O 0.92297 0.48383 0.51253 0.0
O163 O 0.91697 0.46104 0.47274 0.0
O164 O 0.88065 0.44093 0.44924 0.0
O165 O 0.88488 0.46638 0.43237 0.0
C166 C 0.88315 0.48562 0.52866 0.0
O167 O 0.87568 0.44028 0.55114 0.0
O168 O 0.90251 0.45673 0.57032 0.0
In169 In 0.53533 0.43424 0.52047 0.0
O170 O 0.50827 0.41679 0.55242 0.0
O171 O 0.51519 0.40699 0.49381 0.0
C172 C 0.52642 0.45956 0.52586 0.0
C173 C 0.55251 0.4335 0.59774 0.0
C174 C 0.55198 0.43734 0.43894 0.0
O175 O 0.51852 0.44629 0.49981 0.0
O176 O 0.53889 0.4601 0.54909 0.0
O177 O 0.54863 0.42508 0.46715 0.0
O178 O 0.54797 0.44847 0.45318 0.0
C179 C 0.50396 0.40412 0.52487 0.0
O180 O 0.55858 0.44695 0.57204 0.0
O181 O 0.53876 0.42037 0.58248 0.0
In182 In 0.5708 0.09712 0.51829 0.0
O183 O 0.59011 0.09206 0.55916 0.0
O184 O 0.60061 0.11413 0.51385 0.0
C185 C 0.54792 0.06227 0.51055 0.0
C186 C 0.56119 0.10983 0.59131 0.0
C187 C 0.57203 0.10799 0.43063 0.0
O188 O 0.56279 0.06829 0.52979 0.0
O189 O 0.54477 0.07382 0.49443 0.0
O190 O 0.56469 0.11193 0.46241 0.0
O191 O 0.57868 0.09879 0.44343 0.0
C192 C 0.60366 0.10533 0.5431 0.0
O193 O 0.57474 0.11949 0.56763 0.0
O194 O 0.55193 0.09444 0.57575 0.0
In195 In 0.80151 0.56505 0.64315 0.0
O196 O 0.82839 0.56716 0.63439 0.0
O197 O 0.80531 0.54288 0.61693 0.0
C198 C 0.81331 0.59941 0.65964 0.0
C199 C 0.7866 0.56044 0.55937 0.0
C200 C 0.78773 0.55107 0.72654 0.0
O201 O 0.82346 0.59302 0.65929 0.0
O202 O 0.79726 0.58845 0.65196 0.0
O203 O 0.77848 0.55242 0.69506 0.0
O204 O 0.80344 0.55616 0.71513 0.0
C205 C 0.82194 0.55161 0.61909 0.0
O206 O 0.77895 0.54948 0.59173 0.0
O207 O 0.80125 0.57365 0.57004 0.0
In208 In 0.42547 0.24372 0.62041 0.0
O209 O 0.42115 0.26721 0.61401 0.0
O210 O 0.4476 0.27217 0.61743 0.0
C211 C 0.392 0.21691 0.62183 0.0
C212 C 0.4346 0.2379 0.53594 0.0
C213 C 0.43493 0.24242 0.70818 0.0
O214 O 0.39592 0.23263 0.61353 0.0
O215 O 0.40495 0.2147 0.6299 0.0
O216 O 0.4425 0.23979 0.67434 0.0
O217 O 0.42294 0.24577 0.69731 0.0
C218 C 0.43744 0.27846 0.61338 0.0
O219 O 0.4411 0.23529 0.57212 0.0
O220 O 0.4239 0.24329 0.54311 0.0
In221 In 0.75701 0.19652 0.70316 0.0
O222 O 0.73548 0.16851 0.68589 0.0
O223 O 0.72879 0.18883 0.68617 0.0
C224 C 0.78105 0.18659 0.71906 0.0
C225 C 0.76772 0.21484 0.62297 0.0
C226 C 0.75461 0.2074 0.78852 0.0
O227 O 0.76616 0.17637 0.70135 0.0
O228 O 0.78367 0.20171 0.72983 0.0
O229 O 0.76543 0.21784 0.75894 0.0
O230 O 0.74496 0.19176 0.77465 0.0
C231 C 0.72376 0.17272 0.67975 0.0
O232 O 0.76005 0.21875 0.6538 0.0
O233 O 0.7705 0.20253 0.63379 0.0
In234 In 0.42752 0.1925 0.11985 0.0
O235 O 0.42451 0.16536 0.11099 0.0
O236 O 0.45029 0.18711 0.12396 0.0
C237 C 0.39349 0.18409 0.11974 0.0
C238 C 0.43707 0.20761 0.0355 0.0
C239 C 0.4358 0.20323 0.20793 0.0
O240 O 0.39822 0.17282 0.11282 0.0
O241 O 0.40591 0.19962 0.12709 0.0
O242 O 0.4435 0.21361 0.17444 0.0
O243 O 0.42421 0.18777 0.19654 0.0
C244 C 0.44076 0.17077 0.11623 0.0
O245 O 0.44242 0.21686 0.07183 0.0
O246 O 0.4274 0.19132 0.04247 0.0
In247 In 0.79639 0.23698 0.2004 0.0
O248 O 0.82248 0.25608 0.16588 0.0
O249 O 0.80716 0.26652 0.19414 0.0
C250 C 0.80906 0.21496 0.21427 0.0
C251 C 0.77467 0.22539 0.12587 0.0
C252 C 0.7865 0.23945 0.28695 0.0
O253 O 0.81735 0.2291 0.19149 0.0
O254 O 0.79453 0.2121 0.23097 0.0
O255 O 0.77545 0.22969 0.25683 0.0
O256 O 0.80225 0.248 0.27302 0.0
C257 C 0.82093 0.26948 0.17272 0.0
O258 O 0.77688 0.23847 0.14932 0.0
O259 O 0.78226 0.2176 0.14212 0.0
In260 In 0.75749 0.56972 0.13991 0.0
O261 O 0.73551 0.5749 0.11711 0.0
O262 O 0.72896 0.54846 0.13231 0.0
C263 C 0.78234 0.60349 0.1545 0.0
C264 C 0.76555 0.56108 0.05786 0.0
C265 C 0.75735 0.55773 0.22568 0.0
O266 O 0.76603 0.5983 0.15663 0.0
O267 O 0.78607 0.59163 0.14508 0.0
O268 O 0.76614 0.55607 0.19336 0.0
O269 O 0.74861 0.56499 0.21413 0.0
C270 C 0.72369 0.55882 0.11935 0.0
O271 O 0.76092 0.55064 0.0919 0.0
O272 O 0.76649 0.57567 0.06601 0.0
In273 In 0.53108 0.09994 0.01036 0.0
O274 O 0.50384 0.09492 0.03081 0.0
O275 O 0.52433 0.12154 0.01929 0.0
C276 C 0.52174 0.06626 0.99199 0.0
C277 C 0.54542 0.10611 0.0954 0.0
C278 C 0.54466 0.11423 0.92744 0.0
O279 O 0.51102 0.07189 0.98799 0.0
O280 O 0.53712 0.07767 0.00434 0.0
O281 O 0.55408 0.11292 0.9586 0.0
O282 O 0.52883 0.10868 0.93865 0.0
C283 C 0.50845 0.11112 0.03028 0.0
O284 O 0.55328 0.11671 0.06247 0.0
O285 O 0.53097 0.09275 0.08465 0.0
In286 In 0.89442 0.42156 0.00344 0.0
O287 O 0.87561 0.42544 0.05176 0.0
O288 O 0.90031 0.42989 0.07752 0.0
C289 C 0.88206 0.41983 0.91738 0.0
C290 C 0.88412 0.38812 0.02634 0.0
C291 C 0.92768 0.4478 0.9899 0.0
O292 O 0.88029 0.42901 0.94845 0.0
O293 O 0.88971 0.4116 0.93023 0.0
O294 O 0.92341 0.43173 0.98649 0.0
O295 O 0.91516 0.45053 0.99932 0.0
C296 C 0.88601 0.42955 0.08584 0.0
O297 O 0.90017 0.40011 0.02749 0.0
O298 O 0.8735 0.39301 0.01291 0.0
In299 In 0.56657 0.46348 0.02458 0.0
O300 O 0.58568 0.49116 0.05084 0.0
O301 O 0.59501 0.48015 1.00054 0.0
C302 C 0.54111 0.47184 0.0357 0.0
C303 C 0.56428 0.44353 0.09913 0.0
C304 C 0.56386 0.45208 0.93672 0.0
O305 O 0.55654 0.48128 0.05128 0.0
O306 O 0.53846 0.45809 0.01461 0.0
O307 O 0.56761 0.44497 0.96948 0.0
O308 O 0.56125 0.46444 0.94865 0.0
C309 C 0.59846 0.49302 0.02657 0.0
O310 O 0.55089 0.44144 0.07742 0.0
O311 O 0.57869 0.45449 0.08084 0.0
In312 In 0.55991 0.80033 0.83452 0.0
O313 O 0.5409 0.77837 0.88434 0.0
O314 O 0.5659 0.79839 0.90899 0.0
C315 C 0.5459 0.78879 0.75003 0.0
C316 C 0.55174 0.8252 0.85504 0.0
C317 C 0.59289 0.80687 0.81859 0.0
O318 O 0.54588 0.77833 0.78023 0.0
O319 O 0.5526 0.80458 0.763 0.0
O320 O 0.58865 0.81866 0.81463 0.0
O321 O 0.58047 0.79181 0.8299 0.0
C322 C 0.55143 0.78473 0.91812 0.0
O323 O 0.56757 0.82858 0.85308 0.0
O324 O 0.54022 0.80937 0.8467 0.0
In325 In 0.20163 0.76727 0.881 0.0
O326 O 0.22282 0.768 0.92991 0.0
O327 O 0.21143 0.78379 0.94596 0.0
C328 C 0.21369 0.76404 0.79749 0.0
C329 C 0.17582 0.73477 0.90422 0.0
C330 C 0.18982 0.79007 0.86818 0.0
O331 O 0.22291 0.77682 0.82419 0.0
O332 O 0.19903 0.75272 0.81397 0.0
O333 O 0.18209 0.77676 0.89417 0.0
O334 O 0.20346 0.79184 0.84837 0.0
C335 C 0.22165 0.77832 0.95834 0.0
O336 O 0.17317 0.7446 0.87748 0.0
O337 O 0.19142 0.74133 0.91899 0.0
In338 In 0.24026 0.42766 0.85543 0.0
O339 O 0.23687 0.44675 0.90399 0.0
O340 O 0.2313 0.42166 0.92924 0.0
C341 C 0.24071 0.43945 0.76923 0.0
C342 C 0.27409 0.43871 0.8755 0.0
C343 C 0.21548 0.39376 0.8424 0.0
O344 O 0.2313 0.44063 0.80067 0.0
O345 O 0.24976 0.43263 0.78173 0.0
O346 O 0.2318 0.39893 0.84083 0.0
O347 O 0.21174 0.40575 0.84972 0.0
C348 C 0.23221 0.4362 0.93781 0.0
O349 O 0.26222 0.42269 0.87926 0.0
O350 O 0.26886 0.44897 0.86141 0.0
In351 In 0.47139 0.90215 0.9743 0.0
O352 O 0.49687 0.90756 0.93843 0.0
O353 O 0.48494 0.88621 0.98597 0.0
C354 C 0.48272 0.93698 0.97654 0.0
C355 C 0.44927 0.88743 0.90146 0.0
C356 C 0.4615 0.89239 0.06238 0.0
O357 O 0.49089 0.93071 0.95502 0.0
O358 O 0.46897 0.92571 0.99724 0.0
O359 O 0.4503 0.88724 0.02997 0.0
O360 O 0.47729 0.90227 0.04997 0.0
C361 C 0.49738 0.89494 0.95811 0.0
O362 O 0.45522 0.87924 0.92407 0.0
O363 O 0.45329 0.90228 0.91794 0.0
In364 In 0.08845 0.57009 0.96498 0.0
O365 O 0.10502 0.56308 0.91683 0.0
O366 O 0.08212 0.56268 0.89032 0.0
C367 C 0.09991 0.5698 0.05103 0.0
C368 C 0.10261 0.60486 0.95072 0.0
C369 C 0.05424 0.54546 0.97316 0.0
O370 O 0.10294 0.56228 0.01783 0.0
O371 O 0.09152 0.57754 0.04022 0.0
O372 O 0.05916 0.56072 0.95749 0.0
O373 O 0.06655 0.54272 0.9851 0.0
C374 C 0.0952 0.56072 0.88233 0.0
O375 O 0.08692 0.5954 0.96481 0.0
O376 O 0.11098 0.59676 0.9443 0.0
In377 In 0.43055 0.52537 0.02035 0.0
O378 O 0.40946 0.49884 0.99205 0.0
O379 O 0.40184 0.51757 0.01168 0.0
C380 C 0.45389 0.51456 0.03632 0.0
C381 C 0.44008 0.54317 0.9396 0.0
C382 C 0.42979 0.53688 0.10618 0.0
O383 O 0.43741 0.50421 0.03873 0.0
O384 O 0.45855 0.53038 0.02664 0.0
O385 O 0.43999 0.54724 0.07543 0.0
O386 O 0.42002 0.5212 0.09302 0.0
C387 C 0.39725 0.50249 0.99548 0.0
O388 O 0.43413 0.54815 0.97257 0.0
O389 O 0.44157 0.52988 0.94833 0.0
In390 In 0.0917 0.52172 0.46579 0.0
O391 O 0.10687 0.54476 0.4153 0.0
O392 O 0.08571 0.52039 0.39012 0.0
C393 C 0.10287 0.53376 0.55197 0.0
C394 C 0.10682 0.50219 0.44929 0.0
C395 C 0.05743 0.51201 0.47346 0.0
O396 O 0.10545 0.54423 0.51887 0.0
O397 O 0.09511 0.51768 0.54098 0.0
O398 O 0.0627 0.50093 0.47497 0.0
O399 O 0.06945 0.5279 0.46869 0.0
C400 C 0.09769 0.53595 0.38102 0.0
O401 O 0.09064 0.49525 0.4595 0.0
O402 O 0.11526 0.51885 0.44812 0.0
In403 In 0.4736 0.57098 0.52114 0.0
O404 O 0.44997 0.56393 0.47326 0.0
O405 O 0.46933 0.55748 0.45206 0.0
C406 C 0.4617 0.57245 0.60619 0.0
C407 C 0.49277 0.60443 0.4916 0.0
C408 C 0.4874 0.54991 0.5348 0.0
O409 O 0.45182 0.56147 0.57615 0.0
O410 O 0.47723 0.58284 0.5927 0.0
O411 O 0.49636 0.56536 0.51872 0.0
O412 O 0.47159 0.54524 0.54465 0.0
C413 C 0.45544 0.55775 0.44206 0.0
O414 O 0.49982 0.59675 0.51206 0.0
O415 O 0.47622 0.59544 0.48763 0.0
In416 In 0.43056 0.89961 0.4854 0.0
O417 O 0.43555 0.88337 0.43103 0.0
O418 O 0.43624 0.90712 0.41069 0.0
C419 C 0.43001 0.88332 0.56543 0.0
C420 C 0.39691 0.88979 0.46737 0.0
C421 C 0.45561 0.93341 0.50029 0.0
O422 O 0.44212 0.88763 0.53596 0.0
O423 O 0.41818 0.88669 0.55375 0.0
O424 O 0.43943 0.92801 0.50699 0.0
O425 O 0.45906 0.92171 0.48725 0.0
C426 C 0.43747 0.89393 0.39865 0.0
O427 O 0.40741 0.90471 0.48477 0.0
O428 O 0.40339 0.87994 0.46 0.0
In429 In 0.19709 0.42946 0.35464 0.0
O430 O 0.17022 0.4278 0.35183 0.0
O431 O 0.19061 0.44836 0.39149 0.0
C432 C 0.18281 0.39439 0.34321 0.0
C433 C 0.21604 0.43575 0.43299 0.0
C434 C 0.21061 0.44378 0.27123 0.0
O435 O 0.17544 0.40104 0.36671 0.0
O436 O 0.19727 0.40545 0.32483 0.0
O437 O 0.21972 0.44156 0.30153 0.0
O438 O 0.19517 0.43938 0.28383 0.0
C439 C 0.17484 0.44098 0.37778 0.0
O440 O 0.21951 0.44785 0.40394 0.0
O441 O 0.20391 0.42069 0.42099 0.0
In442 In 0.55781 0.7601 0.33728 0.0
O443 O 0.53851 0.76345 0.38438 0.0
O444 O 0.56575 0.77708 0.40147 0.0
C445 C 0.54352 0.75729 0.25276 0.0
C446 C 0.54759 0.72734 0.36759 0.0
C447 C 0.59262 0.78214 0.32501 0.0
O448 O 0.54463 0.7685 0.28204 0.0
O449 O 0.54901 0.74726 0.26688 0.0
O450 O 0.58664 0.76849 0.34991 0.0
O451 O 0.58104 0.78458 0.3059 0.0
C452 C 0.55031 0.77311 0.413 0.0
O453 O 0.56111 0.73578 0.34262 0.0
O454 O 0.53914 0.73521 0.37582 0.0
In455 In 0.23548 0.8022 0.38142 0.0
O456 O 0.25875 0.83052 0.38122 0.0
O457 O 0.261 0.81103 0.41985 0.0
C458 C 0.21231 0.81352 0.36813 0.0
C459 C 0.22424 0.78201 0.45841 0.0
C460 C 0.23908 0.79071 0.29751 0.0
O461 O 0.2258 0.82169 0.39334 0.0
O462 O 0.21058 0.79974 0.34935 0.0
O463 O 0.22666 0.781 0.32467 0.0
O464 O 0.24986 0.80568 0.31354 0.0
C465 C 0.26808 0.82694 0.4074 0.0
O466 O 0.23391 0.78029 0.42888 0.0
O467 O 0.21942 0.79287 0.44728 0.0
C468 C 0.23373 0.11196 0.80834 0.0
C469 C 0.21982 0.104 0.77661 0.0
C470 C 0.2307 0.11441 0.85439 0.0
C471 C 0.21326 0.10863 0.86946 0.0
C472 C 0.19909 0.10066 0.83761 0.0
C473 C 0.20255 0.09851 0.79132 0.0
C474 C 0.24625 0.1232 0.88693 0.0
C475 C 0.18033 0.09425 0.85257 0.0
C476 C 0.21024 0.10414 0.99965 0.0
C477 C 0.21346 0.12094 0.01249 0.0
C478 C 0.20863 0.09928 0.95289 0.0
C479 C 0.21029 0.11154 0.91846 0.0
C480 C 0.21209 0.12794 0.9316 0.0
C481 C 0.21367 0.13244 0.97842 0.0
C482 C 0.20655 0.0816 0.9403 0.0
C483 C 0.21387 0.1414 0.89616 0.0
H484 H 0.24712 0.1163 0.79717 0.0
H485 H 0.19175 0.09222 0.76696 0.0
H486 H 0.2471 0.13529 0.90177 0.0
H487 H 0.24446 0.1142 0.916 0.0
H488 H 0.25898 0.12693 0.86965 0.0
H489 H 0.17082 0.08852 0.82355 0.0
H490 H 0.17651 0.08408 0.87984 0.0
H491 H 0.17922 0.10531 0.86767 0.0
H492 H 0.20997 0.09516 0.02585 0.0
H493 H 0.21593 0.14538 0.98816 0.0
H494 H 0.2193 0.08353 0.92707 0.0
H495 H 0.1966 0.07523 0.91254 0.0
H496 H 0.20253 0.07254 0.9704 0.0
H497 H 0.22706 0.14724 0.87965 0.0
H498 H 0.21249 0.15224 0.91175 0.0
H499 H 0.20383 0.13508 0.86863 0.0
C500 C 0.90021 0.14279 0.88766 0.0
C501 C 0.89843 0.13128 0.85175 0.0
C502 C 0.89657 0.13692 0.93337 0.0
C503 C 0.89121 0.11912 0.94366 0.0
C504 C 0.89022 0.10762 0.9079 0.0
C505 C 0.89372 0.11381 0.86216 0.0
C506 C 0.89756 0.14958 0.97028 0.0
C507 C 0.88484 0.08863 0.9177 0.0
C508 C 0.89036 0.10972 0.07203 0.0
C509 C 0.87264 0.10387 0.08261 0.0
C510 C 0.8965 0.1138 0.02631 0.0
C511 C 0.88467 0.11225 0.99079 0.0
C512 C 0.86666 0.10577 1.00124 0.0
C513 C 0.86087 0.10155 0.04686 0.0
C514 C 0.91572 0.12036 0.01625 0.0
C515 C 0.85363 0.10414 0.96461 0.0
H516 H 0.90393 0.15634 0.87991 0.0
H517 H 0.89249 0.10491 0.83456 0.0
H518 H 0.88414 0.14511 0.98409 0.0
H519 H 0.90586 0.14976 0.99942 0.0
H520 H 0.90308 0.16327 0.95709 0.0
H521 H 0.88707 0.08215 0.88757 0.0
H522 H 0.8923 0.0878 0.94762 0.0
H523 H 0.87062 0.08114 0.92677 0.0
H524 H 0.89948 0.1114 0.0995 0.0
H525 H 0.84712 0.09697 0.05471 0.0
H526 H 0.92244 0.13461 0.00743 0.0
H527 H 0.91706 0.11331 0.9861 0.0
H528 H 0.92262 0.11859 0.04618 0.0
H529 H 0.85739 0.11744 0.95105 0.0
H530 H 0.8399 0.09794 0.97796 0.0
H531 H 0.85388 0.09616 0.93524 0.0
C532 C 0.88804 0.78393 0.06597 0.0
C533 C 0.90325 0.78624 0.08834 0.0
C534 C 0.88746 0.78485 0.01767 0.0
C535 C 0.90251 0.78835 0.99126 0.0
C536 C 0.91836 0.79221 0.01401 0.0
C537 C 0.91851 0.791 0.06227 0.0
C538 C 0.87028 0.78066 0.99481 0.0
C539 C 0.9348 0.79633 0.9873 0.0
C540 C 0.89191 0.76494 0.87579 0.0
C541 C 0.89371 0.77821 0.8454 0.0
C542 C 0.89534 0.76829 0.92301 0.0
C543 C 0.90085 0.7854 0.94042 0.0
C544 C 0.90372 0.79915 0.90954 0.0
C545 C 0.90006 0.79538 0.8623 0.0
C546 C 0.89218 0.75324 0.95459 0.0
C547 C 0.90984 0.81762 0.92665 0.0
H548 H 0.87621 0.78024 0.0859 0.0
H549 H 0.93037 0.79295 0.07941 0.0
H550 H 0.87257 0.79058 0.96786 0.0
H551 H 0.86452 0.76759 0.97761 0.0
H552 H 0.8605 0.78025 0.01991 0.0
H553 H 0.94667 0.8019 0.00976 0.0
H554 H 0.93307 0.78405 0.97128 0.0
H555 H 0.93713 0.80583 0.95909 0.0
H556 H 0.88706 0.75165 0.86298 0.0
H557 H 0.90142 0.80569 0.83903 0.0
H558 H 0.8813 0.75049 0.97888 0.0
H559 H 0.90415 0.75688 0.97547 0.0
H560 H 0.88865 0.74092 0.93534 0.0
H561 H 0.89903 0.81776 0.94629 0.0
H562 H 0.91374 0.82726 0.89791 0.0
H563 H 0.92121 0.822 0.95045 0.0
C564 C 0.1047 0.21446 0.46642 0.0
C565 C 0.11764 0.21223 0.4441 0.0
C566 C 0.10278 0.21284 0.51459 0.0
C567 C 0.11386 0.20856 0.54069 0.0
C568 C 0.12588 0.20482 0.51772 0.0
C569 C 0.12777 0.2069 0.46975 0.0
C570 C 0.08988 0.21705 0.53779 0.0
C571 C 0.1376 0.19979 0.54405 0.0
C572 C 0.12616 0.22949 0.65916 0.0
C573 C 0.11402 0.21583 0.68761 0.0
C574 C 0.12652 0.22709 0.61152 0.0
C575 C 0.11463 0.2105 0.59178 0.0
C576 C 0.10315 0.19628 0.62067 0.0
C577 C 0.10289 0.19915 0.66833 0.0
C578 C 0.13901 0.24262 0.58205 0.0
C579 C 0.09059 0.1783 0.60103 0.0
H580 H 0.09689 0.21863 0.44666 0.0
H581 H 0.13767 0.20498 0.45245 0.0
H582 H 0.0817 0.20665 0.56317 0.0
H583 H 0.09727 0.22968 0.55694 0.0
H584 H 0.081 0.21833 0.51264 0.0
H585 H 0.144 0.19449 0.52098 0.0
H586 H 0.14811 0.21159 0.56195 0.0
H587 H 0.12993 0.18975 0.57076 0.0
H588 H 0.13482 0.24242 0.67379 0.0
H589 H 0.09345 0.18854 0.69011 0.0
H590 H 0.13134 0.24606 0.55793 0.0
H591 H 0.1474 0.23914 0.56093 0.0
H592 H 0.14775 0.25448 0.60293 0.0
H593 H 0.08001 0.1789 0.58144 0.0
H594 H 0.08434 0.16812 0.6284 0.0
H595 H 0.09757 0.17412 0.57663 0.0
C596 C 0.77365 0.90634 0.45155 0.0
C597 C 0.77425 0.89493 0.41849 0.0
C598 C 0.77449 0.90346 0.49878 0.0
C599 C 0.77604 0.88886 0.51336 0.0
C600 C 0.77815 0.87818 0.48009 0.0
C601 C 0.77719 0.88132 0.43291 0.0
C602 C 0.77221 0.91519 0.53298 0.0
C603 C 0.78008 0.86262 0.49427 0.0
C604 C 0.78261 0.88363 0.64123 0.0
C605 C 0.76527 0.87161 0.65488 0.0
C606 C 0.78645 0.88942 0.59517 0.0
C607 C 0.77257 0.88315 0.56244 0.0
C608 C 0.75501 0.87137 0.57652 0.0
C609 C 0.75161 0.8657 0.62242 0.0
C610 C 0.80532 0.90192 0.58132 0.0
C611 C 0.73977 0.86455 0.54297 0.0
H612 H 0.77157 0.91702 0.44063 0.0
H613 H 0.77777 0.87254 0.40752 0.0
H614 H 0.75881 0.90783 0.54835 0.0
H615 H 0.78188 0.919 0.56152 0.0
H616 H 0.77377 0.92737 0.51659 0.0
H617 H 0.78435 0.85741 0.46509 0.0
H618 H 0.78976 0.86633 0.52275 0.0
H619 H 0.7672 0.85187 0.50713 0.0
H620 H 0.79322 0.8881 0.66618 0.0
H621 H 0.73817 0.85645 0.63283 0.0
H622 H 0.80642 0.91386 0.56472 0.0
H623 H 0.80961 0.89545 0.55555 0.0
H624 H 0.81449 0.90608 0.61119 0.0
H625 H 0.73915 0.87577 0.52707 0.0
H626 H 0.72687 0.85568 0.5597 0.0
H627 H 0.74177 0.85717 0.51474 0.0
C628 C 0.10547 0.89721 0.67682 0.0
C629 C 0.11806 0.89267 0.69059 0.0
C630 C 0.09956 0.89485 0.63078 0.0
C631 C 0.10634 0.88768 0.5982 0.0
C632 C 0.11883 0.88283 0.61234 0.0
C633 C 0.12454 0.88544 0.65818 0.0
C634 C 0.08629 0.90022 0.61684 0.0
C635 C 0.12625 0.87494 0.57896 0.0
C636 C 0.08345 0.86376 0.48885 0.0
C637 C 0.0943 0.87578 0.45502 0.0
C638 C 0.0863 0.86803 0.53581 0.0
C639 C 0.10032 0.88474 0.54933 0.0
C640 C 0.11037 0.89746 0.51521 0.0
C641 C 0.10726 0.89281 0.46832 0.0
C642 C 0.07524 0.85406 0.57093 0.0
C643 C 0.12532 0.9155 0.52821 0.0
H644 H 0.10053 0.90293 0.70171 0.0
H645 H 0.13424 0.88185 0.66862 0.0
H646 H 0.09206 0.91061 0.58993 0.0
H647 H 0.07445 0.8888 0.60162 0.0
H648 H 0.08208 0.90531 0.64641 0.0
H649 H 0.13581 0.87182 0.59561 0.0
H650 H 0.11539 0.86261 0.56389 0.0
H651 H 0.13303 0.88425 0.55013 0.0
H652 H 0.07326 0.85062 0.47878 0.0
H653 H 0.1156 0.90219 0.44232 0.0
H654 H 0.07108 0.85976 0.59909 0.0
H655 H 0.08325 0.8488 0.58665 0.0
H656 H 0.06329 0.84288 0.55524 0.0
H657 H 0.12126 0.92125 0.5565 0.0
H658 H 0.12985 0.92474 0.49846 0.0
H659 H 0.13664 0.9143 0.54088 0.0
C660 C 0.78115 0.88538 0.1397 0.0
C661 C 0.76479 0.88308 0.15369 0.0
C662 C 0.78406 0.88255 0.09353 0.0
C663 C 0.7702 0.87711 0.06103 0.0
C664 C 0.75361 0.8746 0.07528 0.0
C665 C 0.75116 0.87769 0.12129 0.0
C666 C 0.80194 0.88549 0.07945 0.0
C667 C 0.73839 0.86857 0.04192 0.0
C668 C 0.77581 0.88204 0.93118 0.0
C669 C 0.77007 0.86459 0.91793 0.0
C670 C 0.77718 0.88666 0.97805 0.0
C671 C 0.77257 0.87347 0.01222 0.0
C672 C 0.76788 0.8561 0.99894 0.0
C673 C 0.76674 0.85189 0.95199 0.0
C674 C 0.78246 0.90539 0.99089 0.0
C675 C 0.76279 0.84162 0.03416 0.0
H676 H 0.79176 0.88968 0.1646 0.0
H677 H 0.73846 0.87585 0.13192 0.0
H678 H 0.80062 0.87312 0.06517 0.0
H679 H 0.80756 0.89559 0.0518 0.0
H680 H 0.81138 0.88988 0.10875 0.0
H681 H 0.72634 0.86721 0.05862 0.0
H682 H 0.74216 0.87814 0.01311 0.0
H683 H 0.73513 0.85564 0.02681 0.0
H684 H 0.77851 0.89193 0.90502 0.0
H685 H 0.76243 0.83839 0.94201 0.0
H686 H 0.7923 0.91018 0.01923 0.0
H687 H 0.77071 0.90582 0.0035 0.0
H688 H 0.7881 0.91455 0.96113 0.0
H689 H 0.77267 0.84608 0.06235 0.0
H690 H 0.76156 0.82943 0.01868 0.0
H691 H 0.74992 0.83829 0.04986 0.0
C692 C 0.10999 0.86894 0.15704 0.0
C693 C 0.10487 0.87726 0.18992 0.0
C694 C 0.11294 0.87455 0.11104 0.0
C695 C 0.11054 0.88875 0.0973 0.0
C696 C 0.10525 0.89716 0.13022 0.0
C697 C 0.10257 0.89137 0.17635 0.0
C698 C 0.1188 0.86535 0.07724 0.0
C699 C 0.10241 0.91222 0.11667 0.0
C700 C 0.13626 0.91119 0.98934 0.0
C701 C 0.12368 0.90219 0.95479 0.0
C702 C 0.13186 0.90776 0.03611 0.0
C703 C 0.1144 0.89508 0.04875 0.0
C704 C 0.10133 0.88685 0.01413 0.0
C705 C 0.10615 0.89047 0.96743 0.0
C706 C 0.14623 0.91678 0.07181 0.0
C707 C 0.08252 0.87342 0.02628 0.0
H708 H 0.11181 0.85804 0.16731 0.0
H709 H 0.09848 0.89773 0.20161 0.0
H710 H 0.10929 0.85986 0.04823 0.0
H711 H 0.13183 0.87498 0.06247 0.0
H712 H 0.11991 0.85443 0.09345 0.0
H713 H 0.09774 0.91697 0.14601 0.0
H714 H 0.11492 0.92341 0.10342 0.0
H715 H 0.09258 0.908 0.0884 0.0
H716 H 0.14983 0.92039 0.97985 0.0
H717 H 0.09634 0.88355 0.94089 0.0
H718 H 0.14929 0.90701 0.08726 0.0
H719 H 0.14177 0.92215 0.1001 0.0
H720 H 0.15857 0.92771 0.05684 0.0
H721 H 0.08191 0.86107 0.03817 0.0
H722 H 0.07349 0.87023 0.99637 0.0
H723 H 0.07771 0.87831 0.05494 0.0
C724 C 0.11101 0.20869 0.96127 0.0
C725 C 0.0961 0.2078 0.94059 0.0
C726 C 0.11195 0.20735 0.00935 0.0
C727 C 0.09763 0.20501 0.03726 0.0
C728 C 0.08194 0.20245 0.01612 0.0
C729 C 0.08137 0.20391 0.96803 0.0
C730 C 0.12889 0.20999 0.03046 0.0
C731 C 0.06628 0.19971 0.04444 0.0
C732 C 0.10062 0.1987 0.16654 0.0
C733 C 0.10852 0.21621 0.18211 0.0
C734 C 0.09646 0.19464 0.11956 0.0
C735 C 0.10027 0.20842 0.08779 0.0
C736 C 0.10745 0.22597 0.10395 0.0
C737 C 0.11148 0.22962 0.15077 0.0
C738 C 0.08873 0.17578 0.10369 0.0
C739 C 0.11155 0.24107 0.07147 0.0
H740 H 0.1224 0.2116 0.94026 0.0
H741 H 0.06972 0.20301 0.95222 0.0
H742 H 0.13608 0.22326 0.0466 0.0
H743 H 0.12605 0.20009 0.05793 0.0
H744 H 0.13767 0.20901 0.00439 0.0
H745 H 0.05417 0.19482 0.02313 0.0
H746 H 0.06363 0.19018 0.07281 0.0
H747 H 0.06922 0.21243 0.06032 0.0
H748 H 0.09842 0.18831 0.19062 0.0
H749 H 0.1175 0.24317 0.16266 0.0
H750 H 0.09878 0.17441 0.08367 0.0
H751 H 0.07729 0.17204 0.08055 0.0
H752 H 0.0844 0.16638 0.13309 0.0
H753 H 0.12177 0.24256 0.04631 0.0
H754 H 0.11643 0.25382 0.08989 0.0
H755 H 0.09959 0.23827 0.05162 0.0
C756 C 0.87344 0.76462 0.3747 0.0
C757 C 0.885 0.77823 0.34522 0.0
C758 C 0.87319 0.76746 0.42218 0.0
C759 C 0.88478 0.78437 0.44082 0.0
C760 C 0.89576 0.79845 0.41091 0.0
C761 C 0.89575 0.79521 0.36336 0.0
C762 C 0.86114 0.75209 0.4527 0.0
C763 C 0.90815 0.81669 0.42936 0.0
C764 C 0.87272 0.78919 0.56335 0.0
C765 C 0.88308 0.78411 0.5889 0.0
C766 C 0.87405 0.79064 0.51512 0.0
C767 C 0.88593 0.78677 0.49185 0.0
C768 C 0.89733 0.7829 0.51775 0.0
C769 C 0.89581 0.78167 0.56604 0.0
C770 C 0.86184 0.79507 0.48897 0.0
C771 C 0.91024 0.77874 0.4943 0.0
H772 H 0.86506 0.75148 0.36091 0.0
H773 H 0.90479 0.80577 0.3408 0.0
H774 H 0.86916 0.74895 0.47637 0.0
H775 H 0.85287 0.75559 0.47428 0.0
H776 H 0.8523 0.74004 0.43256 0.0
H777 H 0.91406 0.82665 0.40135 0.0
H778 H 0.90114 0.82088 0.45363 0.0
H779 H 0.91898 0.81652 0.44882 0.0
H780 H 0.86292 0.79123 0.58085 0.0
H781 H 0.90386 0.77774 0.58557 0.0
H782 H 0.85133 0.78297 0.47211 0.0
H783 H 0.86912 0.80486 0.46142 0.0
H784 H 0.85547 0.80042 0.51195 0.0
H785 H 0.90287 0.76586 0.47626 0.0
H786 H 0.9195 0.77799 0.51916 0.0
H787 H 0.91801 0.7889 0.46796 0.0
C788 C 0.21842 0.08639 0.47717 0.0
C789 C 0.21516 0.0955 0.51207 0.0
C790 C 0.21703 0.08967 0.4305 0.0
C791 C 0.21218 0.10234 0.4183 0.0
C792 C 0.20761 0.11063 0.45334 0.0
C793 C 0.2092 0.10715 0.49993 0.0
C794 C 0.22209 0.08056 0.39439 0.0
C795 C 0.20218 0.12407 0.44173 0.0
C796 C 0.23392 0.1286 0.31021 0.0
C797 C 0.22049 0.12043 0.27722 0.0
C798 C 0.23123 0.12293 0.35613 0.0
C799 C 0.2146 0.10879 0.36982 0.0
C800 C 0.20086 0.10054 0.33686 0.0
C801 C 0.20401 0.1064 0.29073 0.0
C802 C 0.24633 0.13198 0.38991 0.0
C803 C 0.18292 0.08554 0.35033 0.0
H804 H 0.22288 0.07723 0.48627 0.0
H805 H 0.20655 0.11415 0.52674 0.0
H806 H 0.21217 0.07533 0.36628 0.0
H807 H 0.23494 0.09024 0.37881 0.0
H808 H 0.22336 0.06951 0.40905 0.0
H809 H 0.19638 0.12717 0.47191 0.0
H810 H 0.21391 0.13647 0.42998 0.0
H811 H 0.19244 0.11927 0.41317 0.0
H812 H 0.24671 0.13944 0.30005 0.0
H813 H 0.19355 0.10013 0.26541 0.0
H814 H 0.2497 0.12227 0.40429 0.0
H815 H 0.24239 0.13742 0.41918 0.0
H816 H 0.25838 0.14292 0.37379 0.0
H817 H 0.18413 0.07422 0.36304 0.0
H818 H 0.17345 0.08099 0.3211 0.0
H819 H 0.17743 0.08971 0.37899 0.0
C820 C 0.89938 0.14288 0.54741 0.0
C821 C 0.89747 0.13122 0.58308 0.0
C822 C 0.89548 0.13711 0.50168 0.0
C823 C 0.8897 0.11924 0.4911 0.0
C824 C 0.88848 0.10754 0.5266 0.0
C825 C 0.89226 0.11364 0.57238 0.0
C826 C 0.89675 0.14999 0.46502 0.0
C827 C 0.88263 0.08847 0.51645 0.0
C828 C 0.85978 0.1025 0.38685 0.0
C829 C 0.87162 0.10453 0.35158 0.0
C830 C 0.86539 0.10655 0.43267 0.0
C831 C 0.88328 0.11263 0.44374 0.0
C832 C 0.89517 0.11398 0.40864 0.0
C833 C 0.88921 0.11001 0.36278 0.0
C834 C 0.85231 0.10512 0.46888 0.0
C835 C 0.91428 0.12018 0.41929 0.0
H836 H 0.90346 0.15651 0.55537 0.0
H837 H 0.89089 0.10462 0.59979 0.0
H838 H 0.90504 0.15013 0.43592 0.0
H839 H 0.8834 0.14576 0.45104 0.0
H840 H 0.90243 0.16365 0.47849 0.0
H841 H 0.88436 0.08166 0.54664 0.0
H842 H 0.86848 0.08137 0.50657 0.0
H843 H 0.89018 0.08753 0.48691 0.0
H844 H 0.84613 0.0982 0.37851 0.0
H845 H 0.89838 0.11147 0.33568 0.0
H846 H 0.85625 0.11845 0.48248 0.0
H847 H 0.85227 0.097 0.4983 0.0
H848 H 0.83865 0.09917 0.45511 0.0
H849 H 0.92115 0.13437 0.42871 0.0
H850 H 0.92125 0.11846 0.38948 0.0
H851 H 0.91531 0.11285 0.44925 0.0
C852 C 0.86452 0.42708 0.1471 0.0
C853 C 0.88191 0.43294 0.13288 0.0
C854 C 0.86076 0.4288 0.19343 0.0
C855 C 0.87475 0.4367 0.22579 0.0
C856 C 0.89235 0.44311 0.21103 0.0
C857 C 0.89567 0.44109 0.16493 0.0
C858 C 0.84184 0.42177 0.20799 0.0
C859 C 0.90772 0.45185 0.24415 0.0
C860 C 0.87391 0.45738 0.33938 0.0
C861 C 0.87413 0.44531 0.37089 0.0
C862 C 0.87256 0.45406 0.29183 0.0
C863 C 0.87137 0.43827 0.2754 0.0
C864 C 0.87002 0.42535 0.30728 0.0
C865 C 0.87145 0.42905 0.35475 0.0
C866 C 0.87398 0.46816 0.25914 0.0
C867 C 0.86854 0.40825 0.29119 0.0
H868 H 0.85384 0.42066 0.12244 0.0
H869 H 0.90916 0.44574 0.15405 0.0
H870 H 0.83783 0.41057 0.23219 0.0
H871 H 0.84047 0.4321 0.2266 0.0
H872 H 0.83263 0.41713 0.17818 0.0
H873 H 0.92063 0.45654 0.2268 0.0
H874 H 0.90787 0.4633 0.26105 0.0
H875 H 0.90628 0.44241 0.27167 0.0
H876 H 0.87579 0.46992 0.35165 0.0
H877 H 0.87148 0.41961 0.37894 0.0
H878 H 0.86425 0.46226 0.23074 0.0
H879 H 0.88734 0.47495 0.2434 0.0
H880 H 0.87189 0.4782 0.27698 0.0
H881 H 0.85866 0.4023 0.26311 0.0
H882 H 0.86475 0.39852 0.31967 0.0
H883 H 0.88145 0.41092 0.27717 0.0
C884 C 0.54711 0.42862 0.1702 0.0
C885 C 0.56333 0.43713 0.14695 0.0
C886 C 0.54641 0.42663 0.21834 0.0
C887 C 0.56232 0.43324 0.24378 0.0
C888 C 0.5786 0.44035 0.22003 0.0
C889 C 0.57892 0.44223 0.17187 0.0
C890 C 0.52874 0.41881 0.24224 0.0
C891 C 0.59583 0.44732 0.24568 0.0
C892 C 0.5606 0.45132 0.36132 0.0
C893 C 0.55746 0.4373 0.39062 0.0
C894 C 0.56288 0.45039 0.31375 0.0
C895 C 0.56202 0.43504 0.29487 0.0
C896 C 0.5598 0.42121 0.32457 0.0
C897 C 0.55752 0.42249 0.37218 0.0
C898 C 0.56537 0.46553 0.28344 0.0
C899 C 0.55896 0.40471 0.30586 0.0
H900 H 0.53501 0.42459 0.1512 0.0
H901 H 0.59152 0.44874 0.15413 0.0
H902 H 0.52743 0.40902 0.26852 0.0
H903 H 0.52771 0.42944 0.26037 0.0
H904 H 0.51755 0.41229 0.21761 0.0
H905 H 0.60685 0.44958 0.22235 0.0
H906 H 0.59922 0.46006 0.2623 0.0
H907 H 0.5947 0.43805 0.27335 0.0
H908 H 0.56061 0.46282 0.37532 0.0
H909 H 0.55505 0.41158 0.39463 0.0
H910 H 0.5539 0.461 0.25994 0.0
H911 H 0.57732 0.47013 0.26169 0.0
H912 H 0.56671 0.4769 0.30375 0.0
H913 H 0.54647 0.3969 0.28644 0.0
H914 H 0.55951 0.39627 0.33372 0.0
H915 H 0.56999 0.40814 0.28148 0.0
C916 C 0.58108 0.10836 0.34901 0.0
C917 C 0.5718 0.11246 0.38153 0.0
C918 C 0.57917 0.1101 0.30163 0.0
C919 C 0.56765 0.11603 0.28635 0.0
C920 C 0.55919 0.12134 0.31909 0.0
C921 C 0.56138 0.11949 0.36641 0.0
C922 C 0.58848 0.10434 0.26797 0.0
C923 C 0.54685 0.12778 0.30418 0.0
C924 C 0.56631 0.125 0.15803 0.0
C925 C 0.55189 0.10895 0.14352 0.0
C926 C 0.57162 0.12766 0.20459 0.0
C927 C 0.56231 0.11392 0.237 0.0
C928 C 0.54787 0.09768 0.22224 0.0
C929 C 0.54285 0.09543 0.17585 0.0
C930 C 0.58707 0.14514 0.2192 0.0
C931 C 0.53764 0.08261 0.25548 0.0
H932 H 0.58933 0.1031 0.36049 0.0
H933 H 0.55427 0.12279 0.39141 0.0
H934 H 0.57871 0.09164 0.25191 0.0
H935 H 0.59468 0.11416 0.23987 0.0
H936 H 0.59881 0.10247 0.28497 0.0
H937 H 0.54343 0.13384 0.33314 0.0
H938 H 0.55283 0.13761 0.27599 0.0
H939 H 0.53446 0.11651 0.29065 0.0
H940 H 0.57327 0.13551 0.13319 0.0
H941 H 0.5317 0.08297 0.16492 0.0
H942 H 0.59744 0.14307 0.23503 0.0
H943 H 0.58277 0.15131 0.24579 0.0
H944 H 0.59294 0.15446 0.18983 0.0
H945 H 0.5466 0.07861 0.27165 0.0
H946 H 0.52667 0.07087 0.23841 0.0
H947 H 0.53202 0.08691 0.28355 0.0
C948 C 0.79322 0.5458 0.80767 0.0
C949 C 0.78174 0.54637 0.77482 0.0
C950 C 0.78958 0.54504 0.85494 0.0
C951 C 0.77404 0.54478 0.86971 0.0
C952 C 0.76164 0.54377 0.83658 0.0
C953 C 0.76567 0.54462 0.7894 0.0
C954 C 0.80314 0.5461 0.889 0.0
C955 C 0.7448 0.54324 0.85094 0.0
C956 C 0.76218 0.539 0.99754 0.0
C957 C 0.7687 0.55658 0.01106 0.0
C958 C 0.76378 0.53482 0.95155 0.0
C959 C 0.77226 0.54859 0.9188 0.0
C960 C 0.77926 0.56637 0.93279 0.0
C961 C 0.77731 0.57011 0.97859 0.0
C962 C 0.75605 0.51573 0.93777 0.0
C963 C 0.78867 0.5815 0.89922 0.0
H964 H 0.8056 0.54696 0.79661 0.0
H965 H 0.75668 0.54493 0.76415 0.0
H966 H 0.81019 0.55952 0.9043 0.0
H967 H 0.7967 0.53657 0.91759 0.0
H968 H 0.81304 0.54345 0.87247 0.0
H969 H 0.73535 0.53961 0.82183 0.0
H970 H 0.73829 0.53366 0.87942 0.0
H971 H 0.74793 0.55644 0.86384 0.0
H972 H 0.75538 0.52849 0.02251 0.0
H973 H 0.78244 0.58373 0.98894 0.0
H974 H 0.76623 0.51367 0.92073 0.0
H975 H 0.74528 0.51215 0.91239 0.0
H976 H 0.75064 0.50664 0.96774 0.0
H977 H 0.79997 0.58107 0.88327 0.0
H978 H 0.79369 0.59458 0.91594 0.0
H979 H 0.77955 0.58027 0.87103 0.0
C980 C 0.4276 0.24059 0.79169 0.0
C981 C 0.43883 0.24071 0.75701 0.0
C982 C 0.42982 0.23731 0.83781 0.0
C983 C 0.44381 0.23433 0.84983 0.0
C984 C 0.45582 0.23544 0.8154 0.0
C985 C 0.45309 0.23845 0.76922 0.0
C986 C 0.41653 0.23599 0.87317 0.0
C987 C 0.47109 0.23268 0.827 0.0
C988 C 0.45075 0.23303 0.9793 0.0
C989 C 0.44068 0.21485 0.98801 0.0
C990 C 0.45274 0.23963 0.93401 0.0
C991 C 0.44426 0.22777 0.89696 0.0
C992 C 0.43464 0.20939 0.90559 0.0
C993 C 0.43307 0.20319 0.9508 0.0
C994 C 0.46337 0.2593 0.92601 0.0
C995 C 0.42522 0.19624 0.86733 0.0
H996 H 0.41657 0.24238 0.78258 0.0
H997 H 0.46192 0.2387 0.74262 0.0
H998 H 0.40873 0.22217 0.88562 0.0
H999 H 0.42335 0.24441 0.90343 0.0
H1000 H 0.40725 0.24 0.85898 0.0
H1001 H 0.48067 0.23659 0.79813 0.0
H1002 H 0.47811 0.24038 0.85812 0.0
H1003 H 0.46606 0.21854 0.83489 0.0
H1004 H 0.45674 0.2421 0.00786 0.0
H1005 H 0.42535 0.1891 0.95711 0.0
H1006 H 0.45439 0.26434 0.9167 0.0
H1007 H 0.47264 0.26231 0.8968 0.0
H1008 H 0.47102 0.26651 0.95706 0.0
H1009 H 0.41476 0.19841 0.85252 0.0
H1010 H 0.41903 0.18235 0.87948 0.0
H1011 H 0.43458 0.19814 0.83915 0.0
C1012 C 0.73975 0.20186 0.86502 0.0
C1013 C 0.75445 0.21232 0.83715 0.0
C1014 C 0.74035 0.20457 0.91283 0.0
C1015 C 0.7562 0.21773 0.93331 0.0
C1016 C 0.77074 0.22899 0.90493 0.0
C1017 C 0.76961 0.22626 0.85704 0.0
C1018 C 0.72439 0.19263 0.94165 0.0
C1019 C 0.78796 0.24304 0.9254 0.0
C1020 C 0.76011 0.23147 0.0593 0.0
C1021 C 0.76691 0.22146 0.07904 0.0
C1022 C 0.75567 0.2298 0.0122 0.0
C1023 C 0.75848 0.21815 0.98425 0.0
C1024 C 0.76457 0.20745 0.00458 0.0
C1025 C 0.76852 0.20911 0.05174 0.0
C1026 C 0.74873 0.24105 0.99202 0.0
C1027 C 0.76787 0.19493 0.97607 0.0
H1028 H 0.72793 0.19117 0.84961 0.0
H1029 H 0.781 0.23434 0.83557 0.0
H1030 H 0.7268 0.18295 0.96025 0.0
H1031 H 0.72194 0.20038 0.96792 0.0
H1032 H 0.71233 0.18523 0.92025 0.0
H1033 H 0.7974 0.2517 0.89859 0.0
H1034 H 0.78561 0.25136 0.94996 0.0
H1035 H 0.79417 0.23666 0.94498 0.0
H1036 H 0.75883 0.24103 0.08024 0.0
H1037 H 0.77377 0.20132 0.0667 0.0
H1038 H 0.73712 0.23298 0.96967 0.0
H1039 H 0.75905 0.25154 0.97015 0.0
H1040 H 0.74487 0.24743 0.01917 0.0
H1041 H 0.75573 0.18556 0.95716 0.0
H1042 H 0.77218 0.18721 0.99739 0.0
H1043 H 0.77825 0.2025 0.95 0.0
C1044 C 0.42991 0.2375 0.45139 0.0
C1045 C 0.43836 0.23446 0.48846 0.0
C1046 C 0.43195 0.23328 0.40614 0.0
C1047 C 0.44287 0.22594 0.39737 0.0
C1048 C 0.45206 0.2235 0.43432 0.0
C1049 C 0.44963 0.22772 0.47962 0.0
C1050 C 0.42179 0.236 0.36795 0.0
C1051 C 0.46399 0.21592 0.42617 0.0
C1052 C 0.42843 0.19691 0.29123 0.0
C1053 C 0.43922 0.20868 0.25693 0.0
C1054 C 0.43017 0.20209 0.33753 0.0
C1055 C 0.44317 0.21944 0.35009 0.0
C1056 C 0.45479 0.2311 0.31605 0.0
C1057 C 0.45259 0.22561 0.26971 0.0
C1058 C 0.41735 0.18929 0.37251 0.0
C1059 C 0.469 0.2496 0.32823 0.0
H1060 H 0.42126 0.24282 0.4578 0.0
H1061 H 0.45627 0.22544 0.5081 0.0
H1062 H 0.43087 0.24407 0.33991 0.0
H1063 H 0.4121 0.22304 0.35291 0.0
H1064 H 0.41454 0.24264 0.38024 0.0
H1065 H 0.47179 0.21682 0.45733 0.0
H1066 H 0.45594 0.20183 0.4162 0.0
H1067 H 0.47321 0.22291 0.39731 0.0
H1068 H 0.41812 0.18375 0.28171 0.0
H1069 H 0.46109 0.23471 0.24341 0.0
H1070 H 0.40855 0.19416 0.38493 0.0
H1071 H 0.42455 0.18836 0.40286 0.0
H1072 H 0.40903 0.17585 0.35798 0.0
H1073 H 0.46286 0.25772 0.33647 0.0
H1074 H 0.47852 0.25606 0.29952 0.0
H1075 H 0.47635 0.24947 0.35929 0.0
C1076 C 0.78053 0.2173 0.5451 0.0
C1077 C 0.77153 0.22239 0.57591 0.0
C1078 C 0.78238 0.22212 0.49856 0.0
C1079 C 0.77516 0.23242 0.48223 0.0
C1080 C 0.76669 0.23826 0.51346 0.0
C1081 C 0.76492 0.23312 0.56008 0.0
C1082 C 0.79158 0.21565 0.46656 0.0
C1083 C 0.75903 0.24943 0.49735 0.0
C1084 C 0.79433 0.25233 0.36593 0.0
C1085 C 0.78193 0.23956 0.33598 0.0
C1086 C 0.79158 0.25102 0.41376 0.0
C1087 C 0.77619 0.23644 0.43207 0.0
C1088 C 0.76306 0.22419 0.40174 0.0
C1089 C 0.76605 0.22596 0.35394 0.0
C1090 C 0.80577 0.26453 0.44478 0.0
C1091 C 0.74648 0.20843 0.41985 0.0
H1092 H 0.78573 0.20906 0.55711 0.0
H1093 H 0.7579 0.23702 0.58373 0.0
H1094 H 0.78226 0.20707 0.43951 0.0
H1095 H 0.80276 0.22699 0.44893 0.0
H1096 H 0.79675 0.20803 0.48498 0.0
H1097 H 0.75444 0.25433 0.52655 0.0
H1098 H 0.76897 0.26091 0.47722 0.0
H1099 H 0.74766 0.24154 0.47418 0.0
H1100 H 0.80655 0.263 0.35214 0.0
H1101 H 0.75641 0.21608 0.3309 0.0
H1102 H 0.81309 0.25864 0.46123 0.0
H1103 H 0.79987 0.26856 0.47274 0.0
H1104 H 0.81536 0.27649 0.42543 0.0
H1105 H 0.74989 0.19896 0.43567 0.0
H1106 H 0.73661 0.20148 0.39216 0.0
H1107 H 0.74034 0.2125 0.44706 0.0
C1108 C 0.76658 0.54117 0.49632 0.0
C1109 C 0.77981 0.55778 0.51168 0.0
C1110 C 0.76127 0.53846 0.44982 0.0
C1111 C 0.76926 0.55275 0.41839 0.0
C1112 C 0.78237 0.5696 0.4341 0.0
C1113 C 0.78752 0.57187 0.48042 0.0
C1114 C 0.74733 0.5203 0.43419 0.0
C1115 C 0.79105 0.58527 0.4019 0.0
C1116 C 0.77074 0.54849 0.28853 0.0
C1117 C 0.75838 0.55327 0.27436 0.0
C1118 C 0.77358 0.54702 0.33564 0.0
C1119 C 0.76387 0.55047 0.36908 0.0
C1120 C 0.75056 0.55411 0.35476 0.0
C1121 C 0.74797 0.55545 0.30759 0.0
C1122 C 0.78777 0.54292 0.34958 0.0
C1123 C 0.73991 0.55787 0.3892 0.0
H1124 H 0.7607 0.53021 0.52034 0.0
H1125 H 0.79773 0.58475 0.49216 0.0
H1126 H 0.73611 0.52089 0.41824 0.0
H1127 H 0.75289 0.5154 0.40743 0.0
H1128 H 0.74223 0.51064 0.46302 0.0
H1129 H 0.80091 0.59751 0.41974 0.0
H1130 H 0.79779 0.58248 0.37348 0.0
H1131 H 0.78091 0.5877 0.38608 0.0
H1132 H 0.77875 0.54671 0.26298 0.0
H1133 H 0.73826 0.55898 0.29685 0.0
H1134 H 0.78292 0.5328 0.37723 0.0
H1135 H 0.79928 0.55502 0.36355 0.0
H1136 H 0.79233 0.53814 0.32006 0.0
H1137 H 0.73474 0.54774 0.41682 0.0
H1138 H 0.72862 0.55825 0.37279 0.0
H1139 H 0.74853 0.57084 0.40583 0.0
C1140 C 0.54505 0.10168 0.66592 0.0
C1141 C 0.55826 0.11466 0.63803 0.0
C1142 C 0.54415 0.10453 0.71309 0.0
C1143 C 0.55654 0.12093 0.73285 0.0
C1144 C 0.56918 0.13455 0.70433 0.0
C1145 C 0.57001 0.13119 0.65721 0.0
C1146 C 0.53048 0.0896 0.74222 0.0
C1147 C 0.58228 0.15236 0.72388 0.0
C1148 C 0.54186 0.12595 0.8517 0.0
C1149 C 0.5507 0.11977 0.87967 0.0
C1150 C 0.54485 0.12798 0.80401 0.0
C1151 C 0.55659 0.12322 0.78373 0.0
C1152 C 0.56644 0.11811 0.81228 0.0
C1153 C 0.56351 0.11663 0.86013 0.0
C1154 C 0.5345 0.13399 0.77505 0.0
C1155 C 0.57896 0.11274 0.792 0.0
H1156 H 0.53593 0.08887 0.65138 0.0
H1157 H 0.58027 0.14128 0.63583 0.0
H1158 H 0.53716 0.0857 0.76839 0.0
H1159 H 0.52229 0.09396 0.76102 0.0
H1160 H 0.52161 0.07779 0.72136 0.0
H1161 H 0.58944 0.16225 0.69637 0.0
H1162 H 0.57553 0.15736 0.74656 0.0
H1163 H 0.59212 0.15111 0.74527 0.0
H1164 H 0.53206 0.12855 0.8669 0.0
H1165 H 0.5703 0.11178 0.8817 0.0
H1166 H 0.52374 0.12248 0.75682 0.0
H1167 H 0.54308 0.1436 0.74849 0.0
H1168 H 0.52848 0.14017 0.79633 0.0
H1169 H 0.57129 0.1001 0.77307 0.0
H1170 H 0.58698 0.11095 0.81889 0.0
H1171 H 0.588 0.12277 0.76691 0.0
C1172 C 0.86667 0.42606 0.64449 0.0
C1173 C 0.88398 0.4366 0.62827 0.0
C1174 C 0.86339 0.42118 0.69126 0.0
C1175 C 0.87777 0.42707 0.72226 0.0
C1176 C 0.89527 0.43715 0.70555 0.0
C1177 C 0.89814 0.44173 0.65883 0.0
C1178 C 0.84458 0.41025 0.70777 0.0
C1179 C 0.91101 0.44363 0.73732 0.0
C1180 C 0.87528 0.43363 0.85066 0.0
C1181 C 0.87731 0.41987 0.86851 0.0
C1182 C 0.87414 0.43547 0.80284 0.0
C1183 C 0.87485 0.42314 0.77246 0.0
C1184 C 0.87542 0.40843 0.79067 0.0
C1185 C 0.87676 0.40704 0.83847 0.0
C1186 C 0.87355 0.45136 0.78476 0.0
C1187 C 0.87594 0.39485 0.75961 0.0
H1188 H 0.85568 0.42215 0.62104 0.0
H1189 H 0.91156 0.44985 0.64651 0.0
H1190 H 0.84293 0.39877 0.72806 0.0
H1191 H 0.84132 0.41832 0.7309 0.0
H1192 H 0.835 0.40537 0.67877 0.0
H1193 H 0.92376 0.45108 0.71866 0.0
H1194 H 0.91042 0.45236 0.76416 0.0
H1195 H 0.91077 0.4323 0.75525 0.0
H1196 H 0.87568 0.44356 0.8738 0.0
H1197 H 0.87811 0.39624 0.8522 0.0
H1198 H 0.86335 0.4474 0.75756 0.0
H1199 H 0.88647 0.46072 0.76893 0.0
H1200 H 0.87075 0.45838 0.81247 0.0
H1201 H 0.86595 0.39084 0.7318 0.0
H1202 H 0.87355 0.38287 0.77893 0.0
H1203 H 0.8891 0.40066 0.74293 0.0
C1204 C 0.57232 0.44951 0.66455 0.0
C1205 C 0.55844 0.43397 0.64584 0.0
C1206 C 0.57526 0.45129 0.71243 0.0
C1207 C 0.56385 0.43732 0.74216 0.0
C1208 C 0.55074 0.42113 0.72307 0.0
C1209 C 0.54831 0.41961 0.67514 0.0
C1210 C 0.5897 0.46861 0.73135 0.0
C1211 C 0.53814 0.40596 0.75333 0.0
C1212 C 0.57291 0.43946 0.87145 0.0
C1213 C 0.56319 0.44713 0.88774 0.0
C1214 C 0.57345 0.4363 0.82402 0.0
C1215 C 0.56373 0.44055 0.79258 0.0
C1216 C 0.55353 0.44785 0.80926 0.0
C1217 C 0.55356 0.45123 0.85648 0.0
C1218 C 0.58472 0.42882 0.80743 0.0
C1219 C 0.54262 0.45221 0.77719 0.0
H1220 H 0.58027 0.46062 0.64211 0.0
H1221 H 0.53759 0.40751 0.66097 0.0
H1222 H 0.58376 0.47613 0.74626 0.0
H1223 H 0.59697 0.46632 0.75936 0.0
H1224 H 0.59924 0.47685 0.70419 0.0
H1225 H 0.5304 0.39356 0.73341 0.0
H1226 H 0.54536 0.40356 0.78121 0.0
H1227 H 0.52878 0.40934 0.76993 0.0
H1228 H 0.58053 0.43647 0.89556 0.0
H1229 H 0.54599 0.45711 0.86901 0.0
H1230 H 0.59512 0.43839 0.78391 0.0
H1231 H 0.57661 0.41654 0.78745 0.0
H1232 H 0.59116 0.42583 0.83633 0.0
H1233 H 0.55135 0.46238 0.75193 0.0
H1234 H 0.53494 0.45723 0.79593 0.0
H1235 H 0.53328 0.4403 0.75741 0.0
C1236 C 0.5406 0.76925 0.68187 0.0
C1237 C 0.54054 0.78383 0.70157 0.0
C1238 C 0.53925 0.76673 0.63385 0.0
C1239 C 0.53756 0.77897 0.60524 0.0
C1240 C 0.53592 0.79278 0.62549 0.0
C1241 C 0.53756 0.79512 0.6734 0.0
C1242 C 0.54105 0.75182 0.61358 0.0
C1243 C 0.53377 0.80591 0.59639 0.0
C1244 C 0.56044 0.78746 0.48949 0.0
C1245 C 0.54641 0.77684 0.45991 0.0
C1246 C 0.5576 0.78858 0.53656 0.0
C1247 C 0.54025 0.77893 0.55459 0.0
C1248 C 0.52588 0.76895 0.5245 0.0
C1249 C 0.52914 0.76798 0.47739 0.0
C1250 C 0.57331 0.7995 0.56735 0.0
C1251 C 0.5072 0.75869 0.54236 0.0
H1252 H 0.5429 0.7605 0.70356 0.0
H1253 H 0.5373 0.80631 0.68864 0.0
H1254 H 0.53075 0.74466 0.5871 0.0
H1255 H 0.55408 0.7573 0.5963 0.0
H1256 H 0.54006 0.74225 0.64028 0.0
H1257 H 0.52977 0.81396 0.61735 0.0
H1258 H 0.54648 0.81496 0.5792 0.0
H1259 H 0.52378 0.79906 0.56898 0.0
H1260 H 0.57381 0.79437 0.47618 0.0
H1261 H 0.51825 0.75967 0.45472 0.0
H1262 H 0.57463 0.79082 0.59304 0.0
H1263 H 0.57135 0.80933 0.58668 0.0
H1264 H 0.58585 0.80662 0.54765 0.0
H1265 H 0.50564 0.74745 0.5636 0.0
H1266 H 0.49736 0.75341 0.51397 0.0
H1267 H 0.50423 0.76714 0.56486 0.0
C1268 C 0.23144 0.76746 0.52278 0.0
C1269 C 0.22134 0.77459 0.50559 0.0
C1270 C 0.23115 0.76359 0.57 0.0
C1271 C 0.22054 0.76696 0.60054 0.0
C1272 C 0.20961 0.77325 0.5828 0.0
C1273 C 0.21013 0.77695 0.53563 0.0
C1274 C 0.24284 0.75672 0.58749 0.0
C1275 C 0.19796 0.77689 0.614 0.0
C1276 C 0.20735 0.74864 0.72154 0.0
C1277 C 0.2181 0.76359 0.74838 0.0
C1278 C 0.20889 0.74909 0.67331 0.0
C1279 C 0.22138 0.76493 0.65137 0.0
C1280 C 0.23315 0.77964 0.67853 0.0
C1281 C 0.2314 0.77878 0.72678 0.0
C1282 C 0.19627 0.73303 0.64578 0.0
C1283 C 0.24671 0.79676 0.65651 0.0
H1284 H 0.2402 0.7657 0.49978 0.0
H1285 H 0.20225 0.78242 0.52256 0.0
H1286 H 0.25388 0.76718 0.60775 0.0
H1287 H 0.23535 0.74528 0.61081 0.0
H1288 H 0.2485 0.75266 0.55892 0.0
H1289 H 0.18963 0.78093 0.59447 0.0
H1290 H 0.1892 0.76497 0.63458 0.0
H1291 H 0.20627 0.78758 0.63858 0.0
H1292 H 0.19712 0.73679 0.73805 0.0
H1293 H 0.23975 0.79037 0.74731 0.0
H1294 H 0.20335 0.73045 0.61785 0.0
H1295 H 0.18621 0.73542 0.6293 0.0
H1296 H 0.18935 0.72105 0.66771 0.0
H1297 H 0.25424 0.79426 0.62972 0.0
H1298 H 0.25615 0.8062 0.68215 0.0
H1299 H 0.23992 0.80305 0.63926 0.0
C1300 C 0.21878 0.42459 0.50955 0.0
C1301 C 0.22351 0.439 0.4801 0.0
C1302 C 0.22327 0.42707 0.55636 0.0
C1303 C 0.23284 0.44442 0.57431 0.0
C1304 C 0.23833 0.45908 0.54442 0.0
C1305 C 0.23356 0.45619 0.49754 0.0
C1306 C 0.21723 0.41106 0.58691 0.0
C1307 C 0.24873 0.47776 0.56225 0.0
C1308 C 0.22608 0.44557 0.7032 0.0
C1309 C 0.24025 0.4441 0.72044 0.0
C1310 C 0.22409 0.44688 0.6555 0.0
C1311 C 0.23667 0.4469 0.62462 0.0
C1312 C 0.2517 0.4468 0.64225 0.0
C1313 C 0.25325 0.44529 0.68992 0.0
C1314 C 0.20786 0.44695 0.63804 0.0
C1315 C 0.26555 0.44706 0.61066 0.0
H1316 H 0.21104 0.41126 0.49629 0.0
H1317 H 0.23716 0.46737 0.47497 0.0
H1318 H 0.22873 0.41155 0.60448 0.0
H1319 H 0.20827 0.411 0.61407 0.0
H1320 H 0.21017 0.39848 0.56734 0.0
H1321 H 0.25331 0.48765 0.53399 0.0
H1322 H 0.2404 0.48037 0.58614 0.0
H1323 H 0.26038 0.4796 0.58208 0.0
H1324 H 0.21603 0.44468 0.72669 0.0
H1325 H 0.26435 0.44437 0.70317 0.0
H1326 H 0.19891 0.4341 0.6213 0.0
H1327 H 0.21151 0.4574 0.61168 0.0
H1328 H 0.20052 0.44906 0.66624 0.0
H1329 H 0.26009 0.43411 0.59302 0.0
H1330 H 0.27762 0.4496 0.62972 0.0
H1331 H 0.26931 0.4573 0.5836 0.0
C1332 C 0.47026 0.89357 0.14446 0.0
C1333 C 0.45679 0.88824 0.11156 0.0
C1334 C 0.46649 0.89189 0.19173 0.0
C1335 C 0.4488 0.88471 0.20653 0.0
C1336 C 0.43501 0.87827 0.17351 0.0
C1337 C 0.43918 0.88012 0.12625 0.0
C1338 C 0.48159 0.89891 0.22571 0.0
C1339 C 0.41597 0.87044 0.18799 0.0
C1340 C 0.43976 0.87559 0.3351 0.0
C1341 C 0.44033 0.89114 0.34984 0.0
C1342 C 0.44209 0.87304 0.28827 0.0
C1343 C 0.44514 0.88639 0.25579 0.0
C1344 C 0.44564 0.90204 0.27065 0.0
C1345 C 0.44321 0.90419 0.31735 0.0
C1346 C 0.44143 0.85617 0.27356 0.0
C1347 C 0.44898 0.91667 0.23727 0.0
H1348 H 0.4839 0.89968 0.13332 0.0
H1349 H 0.42871 0.87588 0.10094 0.0
H1350 H 0.48319 0.9111 0.242 0.0
H1351 H 0.47879 0.88918 0.25362 0.0
H1352 H 0.49428 0.90209 0.209 0.0
H1353 H 0.40673 0.86375 0.15892 0.0
H1354 H 0.41279 0.8608 0.21636 0.0
H1355 H 0.41374 0.88108 0.20116 0.0
H1356 H 0.43742 0.86542 0.36007 0.0
H1357 H 0.44364 0.91624 0.32844 0.0
H1358 H 0.45438 0.8592 0.259 0.0
H1359 H 0.43144 0.84964 0.24597 0.0
H1360 H 0.43816 0.84676 0.30264 0.0
H1361 H 0.46215 0.92187 0.22106 0.0
H1362 H 0.4485 0.92781 0.25427 0.0
H1363 H 0.43902 0.91149 0.20924 0.0
C1364 C 0.11224 0.55857 0.11185 0.0
C1365 C 0.10413 0.56834 0.09966 0.0
C1366 C 0.11399 0.55519 0.15839 0.0
C1367 C 0.10729 0.56159 0.19329 0.0
C1368 C 0.10008 0.57235 0.18116 0.0
C1369 C 0.09867 0.57566 0.13454 0.0
C1370 C 0.12202 0.5439 0.17004 0.0
C1371 C 0.09264 0.57932 0.21717 0.0
C1372 C 0.08775 0.53334 0.29975 0.0
C1373 C 0.10052 0.54288 0.33341 0.0
C1374 C 0.08996 0.53924 0.25409 0.0
C1375 C 0.10544 0.55503 0.24146 0.0
C1376 C 0.11852 0.56468 0.27512 0.0
C1377 C 0.11585 0.55854 0.32094 0.0
C1378 C 0.07555 0.52867 0.21949 0.0
C1379 C 0.13527 0.58145 0.26272 0.0
H1380 H 0.11661 0.55299 0.08505 0.0
H1381 H 0.0925 0.58335 0.1254 0.0
H1382 H 0.13147 0.54974 0.19906 0.0
H1383 H 0.11146 0.53063 0.18117 0.0
H1384 H 0.12898 0.54225 0.14008 0.0
H1385 H 0.08935 0.58908 0.20267 0.0
H1386 H 0.08045 0.56818 0.23198 0.0
H1387 H 0.10216 0.58563 0.24584 0.0
H1388 H 0.07586 0.52124 0.30918 0.0
H1389 H 0.1258 0.56588 0.34682 0.0
H1390 H 0.08096 0.52463 0.19036 0.0
H1391 H 0.07035 0.53692 0.20504 0.0
H1392 H 0.06438 0.51662 0.2349 0.0
H1393 H 0.14213 0.57888 0.23417 0.0
H1394 H 0.14446 0.58701 0.29243 0.0
H1395 H 0.13206 0.59151 0.25028 0.0
C1396 C 0.44431 0.55767 0.17224 0.0
C1397 C 0.43031 0.54188 0.15511 0.0
C1398 C 0.44642 0.56091 0.21995 0.0
C1399 C 0.43421 0.54807 0.25098 0.0
C1400 C 0.41936 0.53273 0.23355 0.0
C1401 C 0.4176 0.52981 0.18584 0.0
C1402 C 0.46238 0.5775 0.2372 0.0
C1403 C 0.40596 0.51877 0.26533 0.0
C1404 C 0.45332 0.54446 0.36498 0.0
C1405 C 0.44791 0.55337 0.3951 0.0
C1406 C 0.44861 0.54236 0.31831 0.0
C1407 C 0.43829 0.54944 0.30114 0.0
C1408 C 0.43224 0.55792 0.33168 0.0
C1409 C 0.43709 0.55974 0.37848 0.0
C1410 C 0.45514 0.53301 0.2871 0.0
C1411 C 0.42121 0.56562 0.3146 0.0
H1412 H 0.45412 0.56706 0.14862 0.0
H1413 H 0.40663 0.51765 0.17275 0.0
H1414 H 0.45851 0.58391 0.26416 0.0
H1415 H 0.4718 0.57406 0.25313 0.0
H1416 H 0.46929 0.58715 0.20903 0.0
H1417 H 0.39397 0.50895 0.24653 0.0
H1418 H 0.41197 0.5117 0.28248 0.0
H1419 H 0.40195 0.52488 0.29277 0.0
H1420 H 0.46166 0.53948 0.37771 0.0
H1421 H 0.43302 0.56679 0.40159 0.0
H1422 H 0.4639 0.54225 0.26016 0.0
H1423 H 0.44384 0.52186 0.26928 0.0
H1424 H 0.46257 0.52778 0.3062 0.0
H1425 H 0.42919 0.57678 0.29088 0.0
H1426 H 0.41638 0.57052 0.34325 0.0
H1427 H 0.40969 0.5556 0.29477 0.0
C1428 C 0.11541 0.55928 0.82309 0.0
C1429 C 0.09883 0.55684 0.83531 0.0
C1430 C 0.11901 0.55671 0.77731 0.0
C1431 C 0.10562 0.55141 0.74342 0.0
C1432 C 0.08881 0.54872 0.75593 0.0
C1433 C 0.08567 0.55154 0.80157 0.0
C1434 C 0.13711 0.55981 0.76509 0.0
C1435 C 0.07406 0.54282 0.72109 0.0
C1436 C 0.11257 0.55676 0.61404 0.0
C1437 C 0.10687 0.53932 0.60073 0.0
C1438 C 0.11359 0.56127 0.66093 0.0
C1439 C 0.10868 0.54799 0.695 0.0
C1440 C 0.10412 0.53066 0.6817 0.0
C1441 C 0.10332 0.52656 0.63477 0.0
C1442 C 0.11875 0.57996 0.67381 0.0
C1443 C 0.09872 0.51608 0.71679 0.0
H1444 H 0.12566 0.56352 0.84903 0.0
H1445 H 0.0728 0.5496 0.81084 0.0
H1446 H 0.13606 0.54758 0.75068 0.0
H1447 H 0.14311 0.57013 0.73803 0.0
H1448 H 0.1461 0.56402 0.79534 0.0
H1449 H 0.06176 0.54133 0.7365 0.0
H1450 H 0.07821 0.55253 0.69251 0.0
H1451 H 0.07107 0.52997 0.70588 0.0
H1452 H 0.11545 0.5667 0.58788 0.0
H1453 H 0.09908 0.51308 0.62476 0.0
H1454 H 0.12818 0.58462 0.70307 0.0
H1455 H 0.10684 0.58038 0.68509 0.0
H1456 H 0.12481 0.58922 0.64441 0.0
H1457 H 0.10825 0.52051 0.74581 0.0
H1458 H 0.09779 0.504 0.70149 0.0
H1459 H 0.08563 0.51259 0.73131 0.0
C1460 C 0.43749 0.56214 0.87832 0.0
C1461 C 0.4439 0.5511 0.89297 0.0
C1462 C 0.43947 0.56785 0.83214 0.0
C1463 C 0.4481 0.56241 0.80026 0.0
C1464 C 0.45511 0.55179 0.81549 0.0
C1465 C 0.4529 0.54627 0.8615 0.0
C1466 C 0.43187 0.5792 0.81716 0.0
C1467 C 0.46457 0.54582 0.78286 0.0
C1468 C 0.44045 0.55785 0.67124 0.0
C1469 C 0.45643 0.57186 0.65496 0.0
C1470 C 0.43687 0.5554 0.71874 0.0
C1471 C 0.44958 0.56726 0.75055 0.0
C1472 C 0.46507 0.58222 0.73403 0.0
C1473 C 0.46832 0.58432 0.68643 0.0
C1474 C 0.42013 0.53934 0.7349 0.0
C1475 C 0.47889 0.59526 0.76667 0.0
H1476 H 0.43044 0.56583 0.90249 0.0
H1477 H 0.45797 0.53782 0.87266 0.0
H1478 H 0.44195 0.59103 0.79838 0.0
H1479 H 0.42074 0.57165 0.79301 0.0
H1480 H 0.42696 0.58358 0.84679 0.0
H1481 H 0.46969 0.53802 0.80055 0.0
H1482 H 0.45544 0.53757 0.75509 0.0
H1483 H 0.47581 0.55743 0.76624 0.0
H1484 H 0.43116 0.54823 0.64708 0.0
H1485 H 0.48063 0.5953 0.67404 0.0
H1486 H 0.41376 0.54293 0.76258 0.0
H1487 H 0.42339 0.52958 0.74952 0.0
H1488 H 0.41053 0.53292 0.70637 0.0
H1489 H 0.47267 0.59877 0.79494 0.0
H1490 H 0.48862 0.60755 0.74875 0.0
H1491 H 0.4861 0.58916 0.7826 0.0
C1492 C 0.43925 0.89388 0.82747 0.0
C1493 C 0.44162 0.88199 0.85476 0.0
C1494 C 0.43577 0.89094 0.78018 0.0
C1495 C 0.43425 0.87554 0.75971 0.0
C1496 C 0.43532 0.86283 0.78769 0.0
C1497 C 0.43917 0.86629 0.83492 0.0
C1498 C 0.43478 0.90489 0.75165 0.0
C1499 C 0.43327 0.84601 0.76742 0.0
C1500 C 0.41534 0.86902 0.63935 0.0
C1501 C 0.43077 0.87746 0.6127 0.0
C1502 C 0.41613 0.86678 0.68703 0.0
C1503 C 0.43279 0.8736 0.70864 0.0
C1504 C 0.44832 0.88099 0.68132 0.0
C1505 C 0.44709 0.88265 0.63348 0.0
C1506 C 0.39923 0.85829 0.71462 0.0
C1507 C 0.46636 0.88856 0.70302 0.0
H1508 H 0.44112 0.90604 0.84254 0.0
H1509 H 0.44097 0.85703 0.85585 0.0
H1510 H 0.44573 0.91051 0.72621 0.0
H1511 H 0.42222 0.89896 0.73203 0.0
H1512 H 0.43568 0.91584 0.77309 0.0
H1513 H 0.43149 0.83628 0.79454 0.0
H1514 H 0.4218 0.83987 0.74362 0.0
H1515 H 0.44521 0.84907 0.74712 0.0
H1516 H 0.40266 0.86485 0.62322 0.0
H1517 H 0.45904 0.88924 0.61297 0.0
H1518 H 0.39785 0.86867 0.73295 0.0
H1519 H 0.39946 0.84923 0.74103 0.0
H1520 H 0.38746 0.8508 0.6923 0.0
H1521 H 0.46937 0.9006 0.72284 0.0
H1522 H 0.47691 0.89215 0.67688 0.0
H1523 H 0.46667 0.87899 0.72756 0.0
C1524 C 0.23228 0.45025 0.20723 0.0
C1525 C 0.21639 0.44869 0.22283 0.0
C1526 C 0.23614 0.45146 0.15986 0.0
C1527 C 0.22377 0.45101 0.1275 0.0
C1528 C 0.20841 0.45089 0.14337 0.0
C1529 C 0.20492 0.44976 0.19083 0.0
C1530 C 0.25279 0.45182 0.14438 0.0
C1531 C 0.19487 0.45041 0.11017 0.0
C1532 C 0.23564 0.45789 0.99956 0.0
C1533 C 0.22892 0.4404 0.98485 0.0
C1534 C 0.23403 0.46167 0.04594 0.0
C1535 C 0.22535 0.44763 0.07789 0.0
C1536 C 0.21808 0.42996 0.06263 0.0
C1537 C 0.22004 0.4266 0.01649 0.0
C1538 C 0.24202 0.48066 0.06103 0.0
C1539 C 0.20847 0.41454 0.09526 0.0
H1540 H 0.24126 0.44955 0.23179 0.0
H1541 H 0.19268 0.44873 0.20265 0.0
H1542 H 0.24938 0.43871 0.13021 0.0
H1543 H 0.25937 0.4617 0.11656 0.0
H1544 H 0.26227 0.45495 0.17322 0.0
H1545 H 0.18516 0.45311 0.12765 0.0
H1546 H 0.20135 0.46018 0.0821 0.0
H1547 H 0.18759 0.43714 0.09403 0.0
H1548 H 0.24265 0.46859 0.97525 0.0
H1549 H 0.21474 0.41305 0.00524 0.0
H1550 H 0.2529 0.4839 0.08577 0.0
H1551 H 0.23203 0.48271 0.0792 0.0
H1552 H 0.24735 0.48999 0.03154 0.0
H1553 H 0.21755 0.41528 0.12301 0.0
H1554 H 0.20318 0.4016 0.07756 0.0
H1555 H 0.19733 0.41508 0.11193 0.0
C1556 C 0.56096 0.78363 0.99805 0.0
C1557 C 0.54729 0.77756 0.96555 0.0
C1558 C 0.55756 0.77834 0.04421 0.0
C1559 C 0.53999 0.76675 0.05857 0.0
C1560 C 0.52611 0.76027 0.02581 0.0
C1561 C 0.52994 0.76571 0.97947 0.0
C1562 C 0.57282 0.78542 0.07779 0.0
C1563 C 0.50722 0.74795 0.03994 0.0
C1564 C 0.53914 0.74542 0.17267 0.0
C1565 C 0.53868 0.75743 0.20391 0.0
C1566 C 0.53809 0.74742 0.12498 0.0
C1567 C 0.53651 0.76176 0.10815 0.0
C1568 C 0.53452 0.77302 0.13968 0.0
C1569 C 0.53567 0.77074 0.18727 0.0
C1570 C 0.5402 0.73508 0.09266 0.0
C1571 C 0.53262 0.78836 0.12317 0.0
H1572 H 0.57442 0.79272 0.98746 0.0
H1573 H 0.51933 0.76108 0.95447 0.0
H1574 H 0.57093 0.79321 0.10509 0.0
H1575 H 0.57331 0.77433 0.09494 0.0
H1576 H 0.58574 0.79399 0.06078 0.0
H1577 H 0.4981 0.74332 0.00996 0.0
H1578 H 0.50613 0.73629 0.05819 0.0
H1579 H 0.50289 0.75479 0.06436 0.0
H1580 H 0.54131 0.73499 0.18531 0.0
H1581 H 0.53517 0.77999 0.21124 0.0
H1582 H 0.55363 0.74204 0.07736 0.0
H1583 H 0.53058 0.73095 0.06392 0.0
H1584 H 0.53844 0.72308 0.11067 0.0
H1585 H 0.54549 0.79886 0.10954 0.0
H1586 H 0.52844 0.79408 0.15132 0.0
H1587 H 0.52288 0.78421 0.0947 0.0
C1588 C 0.22468 0.77262 0.22715 0.0
C1589 C 0.2397 0.78623 0.24856 0.0
C1590 C 0.22393 0.77063 0.17898 0.0
C1591 C 0.23861 0.78241 0.15173 0.0
C1592 C 0.2543 0.79522 0.17357 0.0
C1593 C 0.25462 0.79706 0.22171 0.0
C1594 C 0.20693 0.75678 0.15708 0.0
C1595 C 0.27036 0.80782 0.14595 0.0
C1596 C 0.23619 0.77153 0.02368 0.0
C1597 C 0.22899 0.78145 0.00566 0.0
C1598 C 0.24011 0.77218 0.07098 0.0
C1599 C 0.23662 0.78292 0.10078 0.0
C1600 C 0.23023 0.79364 0.0822 0.0
C1601 C 0.22656 0.79282 0.03495 0.0
C1602 C 0.24718 0.76079 0.08935 0.0
C1603 C 0.2264 0.80536 0.11259 0.0
H1604 H 0.21312 0.76422 0.24771 0.0
H1605 H 0.26633 0.80752 0.23812 0.0
H1606 H 0.20055 0.76333 0.13903 0.0
H1607 H 0.20961 0.74916 0.13096 0.0
H1608 H 0.1975 0.74745 0.1829 0.0
H1609 H 0.28228 0.81498 0.16798 0.0
H1610 H 0.2731 0.80068 0.11855 0.0
H1611 H 0.26785 0.81771 0.1288 0.0
H1612 H 0.23803 0.76267 1.00125 0.0
H1613 H 0.22106 0.80057 0.02127 0.0
H1614 H 0.23679 0.7498 0.10992 0.0
H1615 H 0.25858 0.76853 0.11258 0.0
H1616 H 0.25137 0.75506 0.06124 0.0
H1617 H 0.21579 0.79713 0.13746 0.0
H1618 H 0.22218 0.81342 0.09247 0.0
H1619 H 0.2383 0.8144 0.13288 0.0
C1620 C 0.18287 0.22798 0.23297 0.0
C1621 C 0.17127 0.21869 0.26906 0.0
C1622 C 0.19344 0.22183 0.2132 0.0
C1623 C 0.19253 0.20629 0.23078 0.0
C1624 C 0.18166 0.19758 0.26924 0.0
C1625 C 0.17098 0.20378 0.28756 0.0
C1626 C 0.2047 0.2313 0.17186 0.0
C1627 C 0.18061 0.18118 0.28963 0.0
C1628 C 0.19881 0.17423 0.15764 0.0
C1629 C 0.21539 0.17745 0.17242 0.0
C1630 C 0.19177 0.18447 0.17393 0.0
C1631 C 0.20141 0.19795 0.20659 0.0
C1632 C 0.21856 0.20185 0.21984 0.0
C1633 C 0.22544 0.19161 0.20216 0.0
C1634 C 0.17357 0.18018 0.15822 0.0
C1635 C 0.22911 0.21597 0.25503 0.0
H1636 H 0.18301 0.2395 0.21861 0.0
H1637 H 0.16211 0.19672 0.31584 0.0
H1638 H 0.2182 0.23332 0.17592 0.0
H1639 H 0.19887 0.22308 0.14063 0.0
H1640 H 0.20568 0.24433 0.16612 0.0
H1641 H 0.17302 0.17715 0.32239 0.0
H1642 H 0.17411 0.1701 0.26477 0.0
H1643 H 0.19406 0.18337 0.29628 0.0
H1644 H 0.19112 0.16338 0.1342 0.0
H1645 H 0.23828 0.19406 0.21364 0.0
H1646 H 0.17355 0.1924 0.1481 0.0
H1647 H 0.16407 0.17407 0.18705 0.0
H1648 H 0.16882 0.17088 0.1286 0.0
H1649 H 0.22897 0.2283 0.24701 0.0
H1650 H 0.24303 0.21898 0.25685 0.0
H1651 H 0.22301 0.21144 0.28953 0.0
C1652 C 0.7713 0.9591 0.28201 0.0
C1653 C 0.77638 0.9489 0.25602 0.0
C1654 C 0.77952 0.97741 0.27533 0.0
C1655 C 0.79267 0.98547 0.24089 0.0
C1656 C 0.79714 0.97502 0.21298 0.0
C1657 C 0.78914 0.95686 0.22144 0.0
C1658 C 0.77478 0.98822 0.30657 0.0
C1659 C 0.81074 0.98308 0.17507 0.0
C1660 C 0.80651 0.03224 0.20359 0.0
C1661 C 0.82269 0.04184 0.22649 0.0
C1662 C 0.79657 0.01379 0.20763 0.0
C1663 C 0.80277 0.00496 0.23643 0.0
C1664 C 0.81892 0.01471 0.26045 0.0
C1665 C 0.82883 0.03304 0.25457 0.0
C1666 C 0.77967 0.00372 0.18048 0.0
C1667 C 0.82573 0.00581 0.2924 0.0
H1668 H 0.76148 0.95288 0.30891 0.0
H1669 H 0.79289 0.94886 0.20107 0.0
H1670 H 0.78642 0.99721 0.32777 0.0
H1671 H 0.77114 0.9966 0.28592 0.0
H1672 H 0.76364 0.97983 0.33004 0.0
H1673 H 0.81126 0.9729 0.15335 0.0
H1674 H 0.8078 0.99158 0.15267 0.0
H1675 H 0.82399 0.9916 0.19032 0.0
H1676 H 0.80186 0.03912 0.18169 0.0
H1677 H 0.84129 0.04054 0.27263 0.0
H1678 H 0.76842 0.99597 0.2041 0.0
H1679 H 0.78062 0.99419 0.15711 0.0
H1680 H 0.77673 0.01258 0.15952 0.0
H1681 H 0.81555 0.99785 0.31854 0.0
H1682 H 0.838 0.01545 0.31054 0.0
H1683 H 0.82851 0.99663 0.27257 0.0
C1684 C 0.9589 0.77222 0.22635 0.0
C1685 C 0.94866 0.77571 0.257 0.0
C1686 C 0.97704 0.77925 0.23415 0.0
C1687 C 0.98486 0.7897 0.27387 0.0
C1688 C 0.97422 0.79201 0.30668 0.0
C1689 C 0.95625 0.78513 0.29758 0.0
C1690 C 0.988 0.77663 0.19824 0.0
C1691 C 0.98202 0.80278 0.34991 0.0
C1692 C 0.03203 0.80456 0.30948 0.0
C1693 C 0.04071 0.82211 0.29415 0.0
C1694 C 0.01384 0.79355 0.30206 0.0
C1695 C 0.00434 0.80027 0.27817 0.0
C1696 C 0.01326 0.81777 0.26098 0.0
C1697 C 0.03131 0.82852 0.26956 0.0
C1698 C 0.00468 0.77503 0.32132 0.0
C1699 C 0.00363 0.82533 0.23472 0.0
H1700 H 0.95299 0.76492 0.19494 0.0
H1701 H 0.94824 0.78763 0.32158 0.0
H1702 H 0.99601 0.78917 0.17909 0.0
H1703 H 0.99731 0.77315 0.21465 0.0
H1704 H 0.97968 0.76615 0.17311 0.0
H1705 H 0.97166 0.80127 0.37467 0.0
H1706 H 0.99083 0.79885 0.36728 0.0
H1707 H 0.99012 0.81695 0.34069 0.0
H1708 H 0.03932 0.79962 0.32854 0.0
H1709 H 0.03807 0.84204 0.25722 0.0
H1710 H 0.99655 0.76538 0.29434 0.0
H1711 H 0.9956 0.77399 0.34941 0.0
H1712 H 0.01418 0.77129 0.3353 0.0
H1713 H 0.99604 0.81649 0.20576 0.0
H1714 H 0.01276 0.83868 0.22062 0.0
H1715 H 0.99404 0.8263 0.25782 0.0
C1716 C 0.81077 0.76569 0.71839 0.0
C1717 C 0.82485 0.77148 0.74947 0.0
C1718 C 0.79872 0.77181 0.72175 0.0
C1719 C 0.8008 0.78377 0.75734 0.0
C1720 C 0.8142 0.78854 0.79083 0.0
C1721 C 0.82617 0.78243 0.78627 0.0
C1722 C 0.78464 0.76651 0.68531 0.0
C1723 C 0.81666 0.80104 0.82973 0.0
C1724 C 0.78966 0.8197 0.73679 0.0
C1725 C 0.77405 0.81355 0.76214 0.0
C1726 C 0.79802 0.80968 0.73325 0.0
C1727 C 0.79069 0.79321 0.75619 0.0
C1728 C 0.77459 0.78662 0.78053 0.0
C1729 C 0.76636 0.79687 0.783 0.0
C1730 C 0.81507 0.81706 0.7064 0.0
C1731 C 0.7665 0.76917 0.80564 0.0
H1732 H 0.80973 0.75719 0.68993 0.0
H1733 H 0.83695 0.78673 0.81065 0.0
H1734 H 0.77172 0.76287 0.70122 0.0
H1735 H 0.7882 0.77788 0.66204 0.0
H1736 H 0.78313 0.75524 0.66422 0.0
H1737 H 0.82617 0.8016 0.856 0.0
H1738 H 0.82168 0.81453 0.81571 0.0
H1739 H 0.80386 0.79703 0.84689 0.0
H1740 H 0.79552 0.83253 0.72025 0.0
H1741 H 0.75428 0.79212 0.80267 0.0
H1742 H 0.8143 0.8072 0.68106 0.0
H1743 H 0.82612 0.81998 0.73027 0.0
H1744 H 0.81824 0.82939 0.68768 0.0
H1745 H 0.7657 0.75867 0.78263 0.0
H1746 H 0.75307 0.76509 0.81885 0.0
H1747 H 0.77501 0.77023 0.83523 0.0
C1748 C 0.20069 0.02774 0.66597 0.0
C1749 C 0.2166 0.04187 0.68194 0.0
C1750 C 0.19398 0.01081 0.68464 0.0
C1751 C 0.2032 0.00813 0.72099 0.0
C1752 C 0.21956 0.02225 0.73627 0.0
C1753 C 0.2262 0.03897 0.71609 0.0
C1754 C 0.17668 0.99595 0.66668 0.0
C1755 C 0.22956 0.01995 0.77557 0.0
C1756 C 0.17308 0.97042 0.79935 0.0
C1757 C 0.17589 0.9569 0.78365 0.0
C1758 C 0.18263 0.98746 0.78088 0.0
C1759 C 0.19494 0.99087 0.74508 0.0
C1760 C 0.19825 0.97739 0.73017 0.0
C1761 C 0.18879 0.96055 0.75008 0.0
C1762 C 0.17906 0.00164 0.79845 0.0
C1763 C 0.21104 0.98047 0.69151 0.0
H1764 H 0.19334 0.03 0.63933 0.0
H1765 H 0.23845 0.04997 0.72867 0.0
H1766 H 0.17798 0.98427 0.65841 0.0
H1767 H 0.16636 0.99188 0.69363 0.0
H1768 H 0.17212 -0.00018 0.63534 0.0
H1769 H 0.24277 0.03182 0.7807 0.0
H1770 H 0.22187 0.01737 0.8079 0.0
H1771 H 0.23128 0.00839 0.76939 0.0
H1772 H 0.16318 0.96759 0.82559 0.0
H1773 H 0.19088 0.95004 0.73776 0.0
H1774 H 0.17247 0.00516 0.77115 0.0
H1775 H 0.19164 0.01377 0.80705 0.0
H1776 H 0.17047 0.99733 0.82951 0.0
H1777 H 0.20582 0.98269 0.65886 0.0
H1778 H 0.21322 0.9691 0.68667 0.0
H1779 H 0.22395 0.99249 0.69822 0.0
C1780 C 0.96858 0.17216 0.74481 0.0
C1781 C 0.95961 0.18057 0.72843 0.0
C1782 C 0.98676 0.18167 0.75294 0.0
C1783 C 0.99627 0.20001 0.74354 0.0
C1784 C 0.98734 0.20859 0.7264 0.0
C1785 C 0.969 0.19876 0.71947 0.0
C1786 C 0.99577 0.17208 0.77185 0.0
C1787 C 0.99718 0.22805 0.71514 0.0
C1788 C 0.04018 0.22336 0.80527 0.0
C1789 C 0.05116 0.22193 0.77257 0.0
C1790 C 0.02235 0.21725 0.79533 0.0
C1791 C 0.01559 0.20992 0.7514 0.0
C1792 C 0.02704 0.2098 0.71712 0.0
C1793 C 0.04467 0.21561 0.72833 0.0
C1794 C 0.01048 0.21735 0.83298 0.0
C1795 C 0.0204 0.20244 0.66956 0.0
H1796 H 0.96131 0.15811 0.75212 0.0
H1797 H 0.96204 0.20525 0.70669 0.0
H1798 H 0.00582 0.17295 0.74701 0.0
H1799 H 0.00275 0.1784 0.80439 0.0
H1800 H 0.98632 0.15791 0.77881 0.0
H1801 H 0.9883 0.23268 0.70167 0.0
H1802 H 0.00395 0.23581 0.74636 0.0
H1803 H 0.00754 0.23087 0.68904 0.0
H1804 H 0.04524 0.22827 0.83949 0.0
H1805 H 0.05327 0.21474 0.70284 0.0
H1806 H 0.00161 0.20362 0.84498 0.0
H1807 H 0.002 0.22248 0.81979 0.0
H1808 H 0.01811 0.22546 0.86301 0.0
H1809 H 0.01223 0.18784 0.67149 0.0
H1810 H 0.03141 0.20585 0.64502 0.0
H1811 H 0.01193 0.20748 0.6557 0.0
C1812 C 0.82586 0.5298 0.57374 0.0
C1813 C 0.83288 0.5441 0.60429 0.0
C1814 C 0.83572 0.52197 0.56023 0.0
C1815 C 0.85285 0.52837 0.57863 0.0
C1816 C 0.86015 0.54304 0.60888 0.0
C1817 C 0.85011 0.55089 0.62099 0.0
C1818 C 0.82762 0.50656 0.52717 0.0
C1819 C 0.87824 0.54997 0.62978 0.0
C1820 C 0.866 0.49333 0.58234 0.0
C1821 C 0.87689 0.49761 0.54351 0.0
C1822 C 0.85888 0.50385 0.5956 0.0
C1823 C 0.86242 0.51876 0.56865 0.0
C1824 C 0.87384 0.52345 0.53011 0.0
C1825 C 0.88113 0.51288 0.51825 0.0
C1826 C 0.84705 0.49864 0.63749 0.0
C1827 C 0.87764 0.53909 0.50017 0.0
H1828 H 0.81261 0.52469 0.56037 0.0
H1829 H 0.8555 0.56196 0.64468 0.0
H1830 H 0.83677 0.50889 0.49807 0.0
H1831 H 0.82536 0.49439 0.54509 0.0
H1832 H 0.81482 0.50422 0.51299 0.0
H1833 H 0.88247 0.56219 0.65018 0.0
H1834 H 0.87816 0.53977 0.65272 0.0
H1835 H 0.88816 0.55278 0.60243 0.0
H1836 H 0.86291 0.48162 0.6022 0.0
H1837 H 0.88955 0.51615 0.48816 0.0
H1838 H 0.83329 0.49421 0.62662 0.0
H1839 H 0.85127 0.51015 0.66068 0.0
H1840 H 0.84711 0.48779 0.65729 0.0
H1841 H 0.86538 0.53649 0.48216 0.0
H1842 H 0.88795 0.54184 0.4739 0.0
H1843 H 0.882 0.55107 0.52155 0.0
C1844 C 0.46215 0.30949 0.61116 0.0
C1845 C 0.4442 0.29737 0.60471 0.0
C1846 C 0.46927 0.32721 0.59851 0.0
C1847 C 0.45819 0.33288 0.57842 0.0
C1848 C 0.43991 0.32085 0.57337 0.0
C1849 C 0.43309 0.30319 0.58683 0.0
C1850 C 0.48882 0.33972 0.60515 0.0
C1851 C 0.42773 0.32643 0.55193 0.0
C1852 C 0.47996 0.38259 0.57602 0.0
C1853 C 0.48883 0.38636 0.53363 0.0
C1854 C 0.46869 0.36509 0.58984 0.0
C1855 C 0.46619 0.35115 0.56032 0.0
C1856 C 0.47372 0.35496 0.51565 0.0
C1857 C 0.48504 0.37257 0.50288 0.0
C1858 C 0.46082 0.36155 0.63764 0.0
C1859 C 0.4711 0.34044 0.48285 0.0
H1860 H 0.47074 0.30503 0.62528 0.0
H1861 H 0.41919 0.29381 0.5817 0.0
H1862 H 0.49532 0.34428 0.5711 0.0
H1863 H 0.49101 0.35157 0.62461 0.0
H1864 H 0.49535 0.33347 0.62395 0.0
H1865 H 0.41362 0.31607 0.55523 0.0
H1866 H 0.42965 0.33876 0.56811 0.0
H1867 H 0.4309 0.32924 0.51477 0.0
H1868 H 0.48278 0.39323 0.59984 0.0
H1869 H 0.49174 0.37545 0.46988 0.0
H1870 H 0.46829 0.3574 0.66037 0.0
H1871 H 0.44688 0.35068 0.63719 0.0
H1872 H 0.46136 0.37347 0.65288 0.0
H1873 H 0.47871 0.33421 0.49531 0.0
H1874 H 0.47562 0.34549 0.4474 0.0
H1875 H 0.457 0.33 0.48149 0.0
C1876 C 0.63624 0.12436 0.5369 0.0
C1877 C 0.62156 0.11133 0.56075 0.0
C1878 C 0.65312 0.13223 0.55647 0.0
C1879 C 0.65527 0.12713 0.60123 0.0
C1880 C 0.64065 0.11327 0.62438 0.0
C1881 C 0.62393 0.10542 0.60363 0.0
C1882 C 0.66847 0.14675 0.53035 0.0
C1883 C 0.64241 0.10758 0.67228 0.0
C1884 C 0.70231 0.14435 0.64196 0.0
C1885 C 0.70581 0.16007 0.66378 0.0
C1886 C 0.68569 0.13313 0.62238 0.0
C1887 C 0.67232 0.13769 0.62554 0.0
C1888 C 0.67559 0.15315 0.64949 0.0
C1889 C 0.69237 0.16425 0.66796 0.0
C1890 C 0.68272 0.11687 0.59661 0.0
C1891 C 0.66154 0.15829 0.65428 0.0
H1892 H 0.63443 0.12882 0.50353 0.0
H1893 H 0.61257 0.09536 0.62215 0.0
H1894 H 0.67271 0.15961 0.54741 0.0
H1895 H 0.67991 0.14454 0.53064 0.0
H1896 H 0.66501 0.14766 0.49399 0.0
H1897 H 0.63039 0.09521 0.68302 0.0
H1898 H 0.65394 0.10555 0.67433 0.0
H1899 H 0.6447 0.11814 0.6972 0.0
H1900 H 0.71274 0.14116 0.63859 0.0
H1901 H 0.69505 0.17634 0.68517 0.0
H1902 H 0.68103 0.1185 0.55935 0.0
H1903 H 0.67043 0.10509 0.60865 0.0
H1904 H 0.69391 0.11437 0.60077 0.0
H1905 H 0.65832 0.16145 0.61985 0.0
H1906 H 0.66579 0.16994 0.67703 0.0
H1907 H 0.64924 0.1471 0.6685 0.0
C1908 C 0.46426 0.16332 0.13104 0.0
C1909 C 0.44832 0.15925 0.10968 0.0
C1910 C 0.4726 0.15358 0.12114 0.0
C1911 C 0.46508 0.1399 0.08791 0.0
C1912 C 0.44866 0.13537 0.06744 0.0
C1913 C 0.44032 0.14497 0.07915 0.0
C1914 C 0.48984 0.15843 0.14472 0.0
C1915 C 0.44047 0.12118 0.03102 0.0
C1916 C 0.49867 0.13314 0.02281 0.0
C1917 C 0.49645 0.1176 0.04283 0.0
C1918 C 0.48803 0.14013 0.03603 0.0
C1919 C 0.47531 0.13168 0.07125 0.0
C1920 C 0.47292 0.11588 0.09137 0.0
C1921 C 0.48338 0.10884 0.07632 0.0
C1922 C 0.49061 0.15673 0.01282 0.0
C1923 C 0.45983 0.10681 0.12989 0.0
H1924 H 0.47033 0.17429 0.15498 0.0
H1925 H 0.42802 0.14192 0.06245 0.0
H1926 H 0.48962 0.14641 0.15794 0.0
H1927 H 0.50082 0.16475 0.11954 0.0
H1928 H 0.49267 0.16772 0.17384 0.0
H1929 H 0.42695 0.1182 0.02151 0.0
H1930 H 0.44883 0.12556 0.9996 0.0
H1931 H 0.43983 0.10884 0.04303 0.0
H1932 H 0.50873 0.1398 0.99666 0.0
H1933 H 0.48183 0.09689 0.09202 0.0
H1934 H 0.49567 0.1677 0.03813 0.0
H1935 H 0.47779 0.1547 0.99976 0.0
H1936 H 0.50006 0.16083 0.98358 0.0
H1937 H 0.46371 0.1157 0.16026 0.0
H1938 H 0.45907 0.09424 0.1405 0.0
H1939 H 0.44649 0.10399 0.11928 0.0
C1940 C 0.88775 0.36668 0.07516 0.0
C1941 C 0.87784 0.37007 0.04307 0.0
C1942 C 0.88061 0.35011 0.09657 0.0
C1943 C 0.86334 0.33666 0.08481 0.0
C1944 C 0.85378 0.33973 0.05022 0.0
C1945 C 0.86109 0.35648 0.03009 0.0
C1946 C 0.89111 0.34734 0.13365 0.0
C1947 C 0.83545 0.3256 0.03606 0.0
C1948 C 0.84496 0.28872 0.11817 0.0
C1949 C 0.8335 0.28702 0.15411 0.0
C1950 C 0.85539 0.30503 0.09628 0.0
C1951 C 0.85448 0.31994 0.11134 0.0
C1952 C 0.8437 0.31847 0.14941 0.0
C1953 C 0.83319 0.30197 0.17008 0.0
C1954 C 0.86658 0.30606 0.05547 0.0
C1955 C 0.84262 0.33417 0.16697 0.0
H1956 H 0.9007 0.37724 0.08533 0.0
H1957 H 0.85349 0.35908 0.00493 0.0
H1958 H 0.88488 0.34637 0.16767 0.0
H1959 H 0.89107 0.33478 0.128 0.0
H1960 H 0.905 0.35834 0.13501 0.0
H1961 H 0.83058 0.32954 0.00546 0.0
H1962 H 0.83528 0.31311 0.02811 0.0
H1963 H 0.82612 0.32287 0.06497 0.0
H1964 H 0.84517 0.27713 0.10573 0.0
H1965 H 0.82445 0.30068 0.19817 0.0
H1966 H 0.88016 0.31747 0.05899 0.0
H1967 H 0.86086 0.30815 0.02355 0.0
H1968 H 0.86735 0.29384 0.05133 0.0
H1969 H 0.85606 0.34557 0.17274 0.0
H1970 H 0.83504 0.33122 0.19966 0.0
H1971 H 0.83609 0.33823 0.14078 0.0
C1972 C 0.70037 0.56306 0.08152 0.0
C1973 C 0.70518 0.55233 0.10624 0.0
C1974 C 0.68297 0.55635 0.06594 0.0
C1975 C 0.6702 0.53861 0.07579 0.0
C1976 C 0.67491 0.52795 0.10215 0.0
C1977 C 0.69237 0.53493 0.11684 0.0
C1978 C 0.67839 0.56801 0.03773 0.0
C1979 C 0.66161 0.50901 0.11387 0.0
C1980 C 0.62076 0.51874 0.07182 0.0
C1981 C 0.61659 0.50777 0.03313 0.0
C1982 C 0.63839 0.53014 0.08426 0.0
C1983 C 0.65204 0.5306 0.05705 0.0
C1984 C 0.64787 0.52085 0.01549 0.0
C1985 C 0.63014 0.50944 0.00413 0.0
C1986 C 0.64232 0.54038 0.12876 0.0
C1987 C 0.66208 0.52122 0.98515 0.0
H1988 H 0.71031 0.57652 0.07324 0.0
H1989 H 0.69604 0.52665 0.13625 0.0
H1990 H 0.67525 0.56294 1.0019 0.0
H1991 H 0.66647 0.56774 0.05188 0.0
H1992 H 0.68938 0.58192 0.03669 0.0
H1993 H 0.66724 0.50283 0.13661 0.0
H1994 H 0.64999 0.5083 0.13135 0.0
H1995 H 0.65682 0.5011 0.08177 0.0
H1996 H 0.61028 0.51756 0.09417 0.0
H1997 H 0.62693 0.50113 0.97384 0.0
H1998 H 0.65359 0.55399 0.12447 0.0
H1999 H 0.64606 0.53379 0.15555 0.0
H2000 H 0.6307 0.5411 0.14139 0.0
H2001 H 0.67304 0.53496 0.98022 0.0
H2002 H 0.65689 0.51525 0.95081 0.0
H2003 H 0.66766 0.51369 0.00203 0.0
C2004 C 0.51955 0.89476 0.90447 0.0
C2005 C 0.51031 0.8895 0.94626 0.0
C2006 C 0.52927 0.88697 0.88893 0.0
C2007 C 0.52981 0.87383 0.91621 0.0
C2008 C 0.52176 0.86964 0.96024 0.0
C2009 C 0.51199 0.87746 0.9746 0.0
C2010 C 0.53768 0.89175 0.84179 0.0
C2011 C 0.52229 0.85589 0.99066 0.0
C2012 C 0.52949 0.83481 0.85975 0.0
C2013 C 0.54683 0.83852 0.86715 0.0
C2014 C 0.52406 0.84665 0.87377 0.0
C2015 C 0.53625 0.86249 0.89627 0.0
C2016 C 0.55395 0.86661 0.90252 0.0
C2017 C 0.55909 0.85456 0.88761 0.0
C2018 C 0.50509 0.84187 0.86596 0.0
C2019 C 0.56724 0.88334 0.9266 0.0
H2020 H 0.5183 0.90412 0.88257 0.0
H2021 H 0.50503 0.87356 0.00725 0.0
H2022 H 0.55108 0.89335 0.84252 0.0
H2023 H 0.52961 0.88091 0.81731 0.0
H2024 H 0.53864 0.90412 0.82847 0.0
H2025 H 0.51757 0.85598 0.02616 0.0
H2026 H 0.51375 0.84259 0.97563 0.0
H2027 H 0.53589 0.85805 0.99267 0.0
H2028 H 0.52004 0.82249 0.84348 0.0
H2029 H 0.57252 0.85744 0.89332 0.0
H2030 H 0.50454 0.85283 0.84824 0.0
H2031 H 0.4983 0.83976 0.89962 0.0
H2032 H 0.49768 0.82969 0.845 0.0
H2033 H 0.56707 0.89494 0.91173 0.0
H2034 H 0.58086 0.88551 0.9242 0.0
H2035 H 0.56366 0.88259 0.96356 0.0
C2036 C 0.12613 0.6326 0.91595 0.0
C2037 C 0.11084 0.62399 0.94289 0.0
C2038 C 0.13486 0.65091 0.90988 0.0
C2039 C 0.12827 0.66086 0.93203 0.0
C2040 C 0.1126 0.65221 0.95851 0.0
C2041 C 0.10394 0.63376 0.96333 0.0
C2042 C 0.15139 0.65964 0.88074 0.0
C2043 C 0.10538 0.66246 0.98305 0.0
C2044 C 0.16447 0.70781 0.95254 0.0
C2045 C 0.16216 0.71654 0.91506 0.0
C2046 C 0.15272 0.68985 0.96036 0.0
C2047 C 0.13856 0.68039 0.92935 0.0
C2048 C 0.13565 0.68935 0.89275 0.0
C2049 C 0.14745 0.70743 0.88626 0.0
C2050 C 0.15606 0.68081 1.00028 0.0
C2051 C 0.12081 0.67963 0.85872 0.0
H2052 H 0.13137 0.62501 0.89975 0.0
H2053 H 0.09212 0.62707 0.98427 0.0
H2054 H 0.15028 0.66815 0.85411 0.0
H2055 H 0.16293 0.66826 0.90268 0.0
H2056 H 0.15402 0.64988 0.8633 0.0
H2057 H 0.09241 0.65367 0.99956 0.0
H2058 H 0.11483 0.6709 0.01006 0.0
H2059 H 0.10386 0.67137 0.9586 0.0
H2060 H 0.17575 0.71493 0.97516 0.0
H2061 H 0.14567 0.7142 0.85724 0.0
H2062 H 0.16067 0.6719 0.98701 0.0
H2063 H 0.14369 0.67257 0.0198 0.0
H2064 H 0.16621 0.69041 0.02434 0.0
H2065 H 0.12368 0.67092 0.83703 0.0
H2066 H 0.11905 0.68881 0.83574 0.0
H2067 H 0.1082 0.67109 0.87695 0.0
C2068 C 0.29669 0.43637 0.92237 0.0
C2069 C 0.29252 0.44529 0.88901 0.0
C2070 C 0.31391 0.44381 0.93982 0.0
C2071 C 0.3272 0.4603 0.92258 0.0
C2072 C 0.32323 0.46878 0.88682 0.0
C2073 C 0.30585 0.46126 0.87087 0.0
C2074 C 0.31762 0.43456 0.97847 0.0
C2075 C 0.33716 0.4862 0.86684 0.0
C2076 C 0.36523 0.49243 0.99692 0.0
C2077 C 0.37911 0.49043 0.97997 0.0
C2078 C 0.34805 0.482 0.98008 0.0
C2079 C 0.34483 0.46962 0.94466 0.0
C2080 C 0.35872 0.46721 0.92825 0.0
C2081 C 0.37573 0.47756 0.94655 0.0
C2082 C 0.33347 0.48468 0.9991 0.0
C2083 C 0.3558 0.45436 0.88992 0.0
H2084 H 0.28631 0.42403 0.93648 0.0
H2085 H 0.30262 0.46805 0.84469 0.0
H2086 H 0.32956 0.43364 0.97078 0.0
H2087 H 0.3203 0.44235 0.01066 0.0
H2088 H 0.30636 0.42105 0.98475 0.0
H2089 H 0.33237 0.49002 0.83588 0.0
H2090 H 0.3412 0.49675 0.8931 0.0
H2091 H 0.3491 0.48553 0.85727 0.0
H2092 H 0.36785 0.50229 0.0231 0.0
H2093 H 0.38652 0.4761 0.93334 0.0
H2094 H 0.32198 0.47182 0.0093 0.0
H2095 H 0.3289 0.49045 0.97208 0.0
H2096 H 0.33784 0.49361 0.02947 0.0
H2097 H 0.34439 0.44115 0.89791 0.0
H2098 H 0.3676 0.45299 0.88379 0.0
H2099 H 0.35263 0.45896 0.85756 0.0
C2100 C 0.13085 0.49929 0.41254 0.0
C2101 C 0.11531 0.49173 0.43869 0.0
C2102 C 0.13933 0.48974 0.40229 0.0
C2103 C 0.13232 0.47238 0.41961 0.0
C2104 C 0.11658 0.46464 0.44598 0.0
C2105 C 0.10811 0.47438 0.45476 0.0
C2106 C 0.1559 0.49831 0.37326 0.0
C2107 C 0.10898 0.44629 0.46582 0.0
C2108 C 0.14859 0.44424 0.36219 0.0
C2109 C 0.16295 0.44765 0.39038 0.0
C2110 C 0.13812 0.45184 0.37194 0.0
C2111 C 0.14194 0.46269 0.41137 0.0
C2112 C 0.15591 0.46544 0.44111 0.0
C2113 C 0.16641 0.45806 0.4299 0.0
C2114 C 0.12355 0.44893 0.33896 0.0
C2115 C 0.16013 0.47663 0.48401 0.0
H2116 H 0.13631 0.51268 0.39973 0.0
H2117 H 0.09611 0.46858 0.47515 0.0
H2118 H 0.16729 0.49992 0.39392 0.0
H2119 H 0.15447 0.48976 0.34343 0.0
H2120 H 0.15898 0.51149 0.36014 0.0
H2121 H 0.09643 0.44205 0.4847 0.0
H2122 H 0.1065 0.43665 0.43795 0.0
H2123 H 0.11863 0.44587 0.48986 0.0
H2124 H 0.14597 0.43621 0.33154 0.0
H2125 H 0.17743 0.46052 0.45196 0.0
H2126 H 0.1268 0.46165 0.3224 0.0
H2127 H 0.11094 0.44418 0.3578 0.0
H2128 H 0.12157 0.43924 0.31154 0.0
H2129 H 0.16513 0.49061 0.47422 0.0
H2130 H 0.17024 0.47598 0.5058 0.0
H2131 H 0.14801 0.4723 0.50488 0.0
C2132 C 0.51987 0.63428 0.48855 0.0
C2133 C 0.50294 0.62233 0.47225 0.0
C2134 C 0.52908 0.65164 0.47152 0.0
C2135 C 0.52124 0.65689 0.43686 0.0
C2136 C 0.50446 0.64458 0.41897 0.0
C2137 C 0.49543 0.6275 0.43726 0.0
C2138 C 0.54683 0.66453 0.49186 0.0
C2139 C 0.49579 0.64958 0.38142 0.0
C2140 C 0.53101 0.70393 0.42546 0.0
C2141 C 0.54208 0.70977 0.38681 0.0
C2142 C 0.52491 0.68703 0.44356 0.0
C2143 C 0.52971 0.67557 0.4218 0.0
C2144 C 0.54128 0.68154 0.38342 0.0
C2145 C 0.5475 0.69872 0.36659 0.0
C2146 C 0.51285 0.68125 0.48505 0.0
C2147 C 0.54643 0.66955 0.35896 0.0
H2148 H 0.52566 0.63024 0.51558 0.0
H2149 H 0.48243 0.61816 0.42415 0.0
H2150 H 0.55674 0.67113 0.46413 0.0
H2151 H 0.54581 0.67498 0.51093 0.0
H2152 H 0.55171 0.65802 0.5159 0.0
H2153 H 0.48347 0.63802 0.36846 0.0
H2154 H 0.49249 0.65947 0.39481 0.0
H2155 H 0.505 0.65574 0.35204 0.0
H2156 H 0.52702 0.71259 0.44152 0.0
H2157 H 0.55609 0.70327 0.33671 0.0
H2158 H 0.51768 0.67561 0.51176 0.0
H2159 H 0.49943 0.67075 0.47482 0.0
H2160 H 0.51181 0.69232 0.50054 0.0
H2161 H 0.55143 0.6635 0.38399 0.0
H2162 H 0.55669 0.67666 0.33225 0.0
H2163 H 0.53462 0.65862 0.34211 0.0
C2164 C 0.36968 0.89197 0.4776 0.0
C2165 C 0.37833 0.88393 0.4568 0.0
C2166 C 0.35154 0.8853 0.47046 0.0
C2167 C 0.34208 0.87046 0.44142 0.0
C2168 C 0.35102 0.86292 0.41856 0.0
C2169 C 0.36902 0.86967 0.42684 0.0
C2170 C 0.34238 0.89356 0.49563 0.0
C2171 C 0.34144 0.84724 0.38677 0.0
C2172 C 0.29415 0.83636 0.45786 0.0
C2173 C 0.28633 0.8399 0.42037 0.0
C2174 C 0.31215 0.84713 0.46727 0.0
C2175 C 0.32258 0.8616 0.43792 0.0
C2176 C 0.31453 0.86588 0.40167 0.0
C2177 C 0.29638 0.85499 0.39348 0.0
C2178 C 0.32019 0.84229 0.50675 0.0
C2179 C 0.32527 0.88115 0.36954 0.0
H2180 H 0.37692 0.90303 0.50075 0.0
H2181 H 0.37576 0.86359 0.41025 0.0
H2182 H 0.334 0.89605 0.47159 0.0
H2183 H 0.33355 0.8843 0.52245 0.0
H2184 H 0.3519 0.90618 0.51256 0.0
H2185 H 0.35062 0.84396 0.36863 0.0
H2186 H 0.33193 0.83551 0.40692 0.0
H2187 H 0.33378 0.84987 0.36063 0.0
H2188 H 0.2863 0.82481 0.47907 0.0
H2189 H 0.29029 0.85774 0.3645 0.0
H2190 H 0.32891 0.85413 0.52761 0.0
H2191 H 0.32845 0.837 0.4929 0.0
H2192 H 0.30998 0.83215 0.5297 0.0
H2193 H 0.33459 0.89309 0.38921 0.0
H2194 H 0.31677 0.88435 0.34785 0.0
H2195 H 0.33323 0.87773 0.34648 0.0
C2196 C 0.29078 0.14631 0.15442 0.0
C2197 C 0.28405 0.15458 0.1263 0.0
C2198 C 0.30872 0.15137 0.15291 0.0
C2199 C 0.32 0.16461 0.12145 0.0
C2200 C 0.31315 0.1727 0.09214 0.0
C2201 C 0.29526 0.16778 0.09548 0.0
C2202 C 0.31564 0.14279 0.18559 0.0
C2203 C 0.3247 0.18649 0.05725 0.0
C2204 C 0.36924 0.18914 0.14559 0.0
C2205 C 0.37484 0.17944 0.11928 0.0
C2206 C 0.35138 0.18444 0.14669 0.0
C2207 C 0.33902 0.17006 0.11964 0.0
C2208 C 0.34474 0.16055 0.09198 0.0
C2209 C 0.36258 0.16518 0.09275 0.0
C2210 C 0.34568 0.19457 0.17762 0.0
C2211 C 0.33203 0.14547 0.06169 0.0
H2212 H 0.28211 0.13622 0.17859 0.0
H2213 H 0.28998 0.17409 0.07361 0.0
H2214 H 0.32135 0.13598 0.16587 0.0
H2215 H 0.32638 0.15303 0.20708 0.0
H2216 H 0.30519 0.13303 0.20874 0.0
H2217 H 0.31713 0.19089 0.03559 0.0
H2218 H 0.33538 0.19817 0.0751 0.0
H2219 H 0.3311 0.18116 0.03441 0.0
H2220 H 0.37875 0.20011 0.1663 0.0
H2221 H 0.36699 0.15779 0.07206 0.0
H2222 H 0.33583 0.18545 0.20299 0.0
H2223 H 0.33919 0.2004 0.15699 0.0
H2224 H 0.35694 0.20534 0.19666 0.0
H2225 H 0.32204 0.13458 0.0833 0.0
H2226 H 0.33881 0.14018 0.04006 0.0
H2227 H 0.32483 0.1499 0.03877 0.0
C2228 C 0.82701 0.20213 0.18536 0.0
C2229 C 0.81521 0.20211 0.21806 0.0
C2230 C 0.83186 0.18909 0.18601 0.0
C2231 C 0.8251 0.17603 0.22094 0.0
C2232 C 0.81365 0.17632 0.25498 0.0
C2233 C 0.80864 0.18924 0.25275 0.0
C2234 C 0.84381 0.18899 0.14856 0.0
C2235 C 0.80654 0.16288 0.29342 0.0
C2236 C 0.8232 0.1324 0.19813 0.0
C2237 C 0.83878 0.13517 0.21925 0.0
C2238 C 0.81863 0.14565 0.19821 0.0
C2239 C 0.82968 0.16182 0.22108 0.0
C2240 C 0.84524 0.16451 0.24332 0.0
C2241 C 0.84974 0.15122 0.24157 0.0
C2242 C 0.80215 0.14248 0.17317 0.0
C2243 C 0.8571 0.1814 0.26901 0.0
H2244 H 0.83198 0.212 0.15827 0.0
H2245 H 0.79957 0.18929 0.27817 0.0
H2246 H 0.85579 0.18977 0.16395 0.0
H2247 H 0.83689 0.17641 0.12904 0.0
H2248 H 0.84797 0.20013 0.12399 0.0
H2249 H 0.79868 0.16561 0.31876 0.0
H2250 H 0.79804 0.14948 0.27892 0.0
H2251 H 0.81759 0.16271 0.3118 0.0
H2252 H 0.81479 0.12 0.18065 0.0
H2253 H 0.86172 0.15329 0.25825 0.0
H2254 H 0.80562 0.15273 0.14628 0.0
H2255 H 0.79297 0.14355 0.19754 0.0
H2256 H 0.79514 0.12927 0.15652 0.0
H2257 H 0.86253 0.19276 0.24486 0.0
H2258 H 0.86828 0.18107 0.28621 0.0
H2259 H 0.84938 0.1838 0.29548 0.0
C2260 C 0.79199 0.63353 0.18559 0.0
C2261 C 0.79604 0.62203 0.162 0.0
C2262 C 0.80496 0.65119 0.19318 0.0
C2263 C 0.82222 0.65753 0.17574 0.0
C2264 C 0.82631 0.64599 0.1515 0.0
C2265 C 0.8132 0.62829 0.14538 0.0
C2266 C 0.80022 0.66303 0.22002 0.0
C2267 C 0.84448 0.65238 0.13158 0.0
C2268 C 0.8504 0.70701 0.15819 0.0
C2269 C 0.86172 0.71194 0.1963 0.0
C2270 C 0.83765 0.68927 0.15065 0.0
C2271 C 0.83597 0.67628 0.18262 0.0
C2272 C 0.84734 0.68122 0.2213 0.0
C2273 C 0.86024 0.69901 0.22739 0.0
C2274 C 0.82602 0.68444 0.10847 0.0
C2275 C 0.84569 0.66778 0.25659 0.0
H2276 H 0.77874 0.62865 0.19869 0.0
H2277 H 0.8163 0.61942 0.12687 0.0
H2278 H 0.80913 0.6687 0.25017 0.0
H2279 H 0.80207 0.67423 0.19812 0.0
H2280 H 0.78634 0.65589 0.23248 0.0
H2281 H 0.84541 0.64178 0.11294 0.0
H2282 H 0.8479 0.66346 0.10735 0.0
H2283 H 0.85449 0.65749 0.15947 0.0
H2284 H 0.85161 0.71701 0.13399 0.0
H2285 H 0.86893 0.70284 0.25705 0.0
H2286 H 0.81199 0.6785 0.11898 0.0
H2287 H 0.8272 0.67438 0.08789 0.0
H2288 H 0.82946 0.69604 0.08613 0.0
H2289 H 0.8322 0.66105 0.27153 0.0
H2290 H 0.85541 0.67383 0.28504 0.0
H2291 H 0.84766 0.65748 0.23989 0.0
C2292 C 0.18125 0.36816 0.30479 0.0
C2293 C 0.17571 0.37519 0.34009 0.0
C2294 C 0.17517 0.34998 0.30264 0.0
C2295 C 0.16364 0.3387 0.33732 0.0
C2296 C 0.15798 0.34576 0.37301 0.0
C2297 C 0.16393 0.36392 0.37364 0.0
C2298 C 0.18115 0.34287 0.26344 0.0
C2299 C 0.14599 0.33419 0.41109 0.0
C2300 C 0.13659 0.2896 0.31257 0.0
C2301 C 0.14718 0.28343 0.33195 0.0
C2302 C 0.14177 0.30758 0.3141 0.0
C2303 C 0.15771 0.31955 0.33653 0.0
C2304 C 0.16819 0.31329 0.35738 0.0
C2305 C 0.1629 0.29531 0.3543 0.0
C2306 C 0.13045 0.31382 0.29066 0.0
C2307 C 0.18505 0.32562 0.38254 0.0
H2308 H 0.19031 0.37688 0.27874 0.0
H2309 H 0.15975 0.36938 0.4012 0.0
H2310 H 0.1889 0.33698 0.27713 0.0
H2311 H 0.16952 0.33222 0.24528 0.0
H2312 H 0.18942 0.35327 0.23806 0.0
H2313 H 0.14281 0.34175 0.43631 0.0
H2314 H 0.13348 0.32352 0.39637 0.0
H2315 H 0.15237 0.32777 0.42971 0.0
H2316 H 0.12449 0.28044 0.29492 0.0
H2317 H 0.17105 0.29052 0.36947 0.0
H2318 H 0.13818 0.32347 0.26321 0.0
H2319 H 0.12642 0.32071 0.31575 0.0
H2320 H 0.11838 0.30278 0.27497 0.0
H2321 H 0.19473 0.33549 0.35814 0.0
H2322 H 0.19115 0.31849 0.39906 0.0
H2323 H 0.18241 0.333 0.4095 0.0
C2324 C 0.62342 0.79559 0.35453 0.0
C2325 C 0.61166 0.79475 0.32047 0.0
C2326 C 0.64146 0.80813 0.35193 0.0
C2327 C 0.64791 0.81974 0.31373 0.0
C2328 C 0.63612 0.81868 0.27873 0.0
C2329 C 0.61806 0.80633 0.28287 0.0
C2330 C 0.65357 0.80915 0.39042 0.0
C2331 C 0.64258 0.83056 0.23693 0.0
C2332 C 0.69132 0.86292 0.32333 0.0
C2333 C 0.7031 0.85842 0.30321 0.0
C2334 C 0.67334 0.85035 0.32773 0.0
C2335 C 0.66698 0.83306 0.31043 0.0
C2336 C 0.67883 0.82852 0.28974 0.0
C2337 C 0.69681 0.84122 0.28693 0.0
C2338 C 0.66116 0.85554 0.35101 0.0
C2339 C 0.67247 0.81035 0.26996 0.0
H2340 H 0.61843 0.78673 0.38385 0.0
H2341 H 0.60896 0.80562 0.25643 0.0
H2342 H 0.66407 0.80683 0.37667 0.0
H2343 H 0.66019 0.82257 0.40579 0.0
H2344 H 0.6464 0.79935 0.41811 0.0
H2345 H 0.63181 0.82757 0.21198 0.0
H2346 H 0.64855 0.84456 0.24768 0.0
H2347 H 0.65303 0.82912 0.21916 0.0
H2348 H 0.69622 0.87621 0.33614 0.0
H2349 H 0.70591 0.83778 0.27103 0.0
H2350 H 0.65429 0.84651 0.3803 0.0
H2351 H 0.65087 0.85426 0.32644 0.0
H2352 H 0.66832 0.86932 0.36413 0.0
H2353 H 0.66621 0.80022 0.29734 0.0
H2354 H 0.68335 0.80905 0.25424 0.0
H2355 H 0.66227 0.80741 0.24326 0.0
C2356 C 0.18747 0.8132 0.32516 0.0
C2357 C 0.19916 0.81923 0.36257 0.0
C2358 C 0.17461 0.81818 0.32006 0.0
C2359 C 0.17317 0.82908 0.35384 0.0
C2360 C 0.18493 0.83516 0.39176 0.0
C2361 C 0.19795 0.83033 0.39536 0.0
C2362 C 0.16256 0.81178 0.2786 0.0
C2363 C 0.18356 0.8465 0.42893 0.0
C2364 C 0.14973 0.85437 0.32378 0.0
C2365 C 0.13275 0.84315 0.34113 0.0
C2366 C 0.16299 0.84987 0.32728 0.0
C2367 C 0.15925 0.83399 0.34969 0.0
C2368 C 0.14219 0.82275 0.36796 0.0
C2369 C 0.12905 0.82737 0.36292 0.0
C2370 C 0.18091 0.86198 0.30647 0.0
C2371 C 0.13784 0.8059 0.39296 0.0
H2372 H 0.18847 0.80468 0.29966 0.0
H2373 H 0.20692 0.83489 0.4245 0.0
H2374 H 0.14866 0.80341 0.28989 0.0
H2375 H 0.16339 0.82319 0.25963 0.0
H2376 H 0.16589 0.804 0.25453 0.0
H2377 H 0.19362 0.84998 0.45641 0.0
H2378 H 0.18522 0.85889 0.41374 0.0
H2379 H 0.17025 0.83945 0.44488 0.0
H2380 H 0.15255 0.86652 0.30658 0.0
H2381 H 0.11594 0.81873 0.37655 0.0
H2382 H 0.18412 0.85467 0.2806 0.0
H2383 H 0.19122 0.86663 0.33356 0.0
H2384 H 0.18156 0.87368 0.28949 0.0
H2385 H 0.1395 0.79685 0.36939 0.0
H2386 H 0.12412 0.79894 0.4065 0.0
H2387 H 0.1471 0.80886 0.42218 0.0
C2388 C 0.68836 0.81929 0.76676 0.0
C2389 C 0.70083 0.83188 0.79681 0.0
C2390 C 0.67059 0.81491 0.76862 0.0
C2391 C 0.66518 0.82297 0.8022 0.0
C2392 C 0.67769 0.83542 0.83328 0.0
C2393 C 0.69545 0.83992 0.82976 0.0
C2394 C 0.65769 0.80189 0.73422 0.0
C2395 C 0.67232 0.84394 0.87031 0.0
C2396 C 0.62316 0.82496 0.78604 0.0
C2397 C 0.61115 0.81059 0.81268 0.0
C2398 C 0.64071 0.82886 0.78127 0.0
C2399 C 0.64642 0.81842 0.80485 0.0
C2400 C 0.63431 0.8039 0.83187 0.0
C2401 C 0.61673 0.8 0.83493 0.0
C2402 C 0.65316 0.84419 0.75121 0.0
C2403 C 0.64003 0.79275 0.85845 0.0
H2404 H 0.69257 0.8132 0.74101 0.0
H2405 H 0.70511 0.84959 0.85317 0.0
H2406 H 0.64695 0.79037 0.75248 0.0
H2407 H 0.65146 0.80816 0.71423 0.0
H2408 H 0.6641 0.79706 0.70977 0.0
H2409 H 0.68356 0.85282 0.89289 0.0
H2410 H 0.66688 0.85174 0.85434 0.0
H2411 H 0.66174 0.83362 0.89203 0.0
H2412 H 0.61879 0.83308 0.76864 0.0
H2413 H 0.60745 0.78896 0.85587 0.0
H2414 H 0.65933 0.8397 0.72511 0.0
H2415 H 0.66397 0.85443 0.7725 0.0
H2416 H 0.64638 0.85033 0.73313 0.0
H2417 H 0.64558 0.78686 0.8346 0.0
H2418 H 0.62896 0.78193 0.87792 0.0
H2419 H 0.65063 0.80116 0.88314 0.0
C2420 C 0.18958 0.81469 0.82544 0.0
C2421 C 0.18372 0.80291 0.86268 0.0
C2422 C 0.18407 0.82715 0.82025 0.0
C2423 C 0.17275 0.82805 0.85369 0.0
C2424 C 0.16686 0.81622 0.89147 0.0
C2425 C 0.17227 0.80364 0.89523 0.0
C2426 C 0.19033 0.83932 0.779 0.0
C2427 C 0.15504 0.817 0.92823 0.0
C2428 C 0.17248 0.87119 0.86274 0.0
C2429 C 0.15669 0.86696 0.84017 0.0
C2430 C 0.17776 0.85855 0.86799 0.0
C2431 C 0.16716 0.84144 0.84927 0.0
C2432 C 0.15124 0.83715 0.82619 0.0
C2433 C 0.1461 0.84993 0.82237 0.0
C2434 C 0.19463 0.86348 0.89363 0.0
C2435 C 0.13978 0.81915 0.80503 0.0
H2436 H 0.19838 0.81407 0.80013 0.0
H2437 H 0.16781 0.7946 0.92423 0.0
H2438 H 0.17882 0.83801 0.75947 0.0
H2439 H 0.19813 0.85325 0.79057 0.0
H2440 H 0.19862 0.83652 0.75536 0.0
H2441 H 0.15182 0.80699 0.95571 0.0
H2442 H 0.16157 0.83031 0.94427 0.0
H2443 H 0.14254 0.81485 0.91261 0.0
H2444 H 0.18064 0.88434 0.87671 0.0
H2445 H 0.13394 0.84668 0.80461 0.0
H2446 H 0.20406 0.86229 0.87044 0.0
H2447 H 0.19185 0.85423 0.92281 0.0
H2448 H 0.20107 0.87717 0.90734 0.0
H2449 H 0.14752 0.8164 0.77942 0.0
H2450 H 0.12794 0.81803 0.78766 0.0
H2451 H 0.13536 0.8088 0.83199 0.0
C2452 C 0.20586 0.36279 0.81902 0.0
C2453 C 0.20178 0.37502 0.83814 0.0
C2454 C 0.19299 0.34487 0.81577 0.0
C2455 C 0.17579 0.33906 0.83301 0.0
C2456 C 0.17165 0.35137 0.85257 0.0
C2457 C 0.18467 0.36926 0.85444 0.0
C2458 C 0.19777 0.33215 0.79384 0.0
C2459 C 0.15355 0.3456 0.87206 0.0
C2460 C 0.13775 0.29565 0.79037 0.0
C2461 C 0.1364 0.28402 0.82547 0.0
C2462 C 0.15061 0.31359 0.79223 0.0
C2463 C 0.16212 0.32008 0.8306 0.0
C2464 C 0.16059 0.30845 0.86658 0.0
C2465 C 0.14785 0.29048 0.86333 0.0
C2466 C 0.15205 0.32555 0.75284 0.0
C2467 C 0.17241 0.31499 0.90846 0.0
H2468 H 0.21909 0.36726 0.80626 0.0
H2469 H 0.18154 0.3787 0.86959 0.0
H2470 H 0.19613 0.32195 0.8192 0.0
H2471 H 0.18873 0.32522 0.76462 0.0
H2472 H 0.21158 0.33889 0.78092 0.0
H2473 H 0.15257 0.35681 0.88674 0.0
H2474 H 0.1434 0.33927 0.84477 0.0
H2475 H 0.15037 0.33562 0.89953 0.0
H2476 H 0.12899 0.29064 0.76088 0.0
H2477 H 0.14676 0.2815 0.89058 0.0
H2478 H 0.16549 0.33173 0.73762 0.0
H2479 H 0.15009 0.33639 0.76566 0.0
H2480 H 0.14223 0.31836 0.72524 0.0
H2481 H 0.1864 0.32059 0.89794 0.0
H2482 H 0.16914 0.30433 0.93406 0.0
H2483 H 0.17124 0.32573 0.92539 0.0
C2484 C 0.85511 0.70407 0.66205 0.0
C2485 C 0.8499 0.70965 0.70123 0.0
C2486 C 0.84933 0.68612 0.65492 0.0
C2487 C 0.83841 0.67358 0.68833 0.0
C2488 C 0.83337 0.67922 0.72836 0.0
C2489 C 0.83901 0.69719 0.73406 0.0
C2490 C 0.85467 0.68055 0.61137 0.0
C2491 C 0.82202 0.66626 0.76514 0.0
C2492 C 0.8095 0.6257 0.65316 0.0
C2493 C 0.81973 0.61832 0.66733 0.0
C2494 C 0.81554 0.64374 0.65928 0.0
C2495 C 0.83201 0.65452 0.68105 0.0
C2496 C 0.84229 0.64707 0.69596 0.0
C2497 C 0.83611 0.62906 0.68841 0.0
C2498 C 0.80437 0.65128 0.6421 0.0
C2499 C 0.85974 0.6581 0.72017 0.0
H2500 H 0.86347 0.7137 0.63653 0.0
H2501 H 0.83507 0.70153 0.76455 0.0
H2502 H 0.862 0.67362 0.62007 0.0
H2503 H 0.84272 0.67111 0.59185 0.0
H2504 H 0.86309 0.69194 0.58866 0.0
H2505 H 0.81986 0.67289 0.79504 0.0
H2506 H 0.80899 0.65659 0.75053 0.0
H2507 H 0.82831 0.65871 0.77763 0.0
H2508 H 0.79688 0.61742 0.63653 0.0
H2509 H 0.84398 0.62333 0.69957 0.0
H2510 H 0.81206 0.66217 0.61738 0.0
H2511 H 0.80067 0.65696 0.67129 0.0
H2512 H 0.79211 0.64119 0.62481 0.0
H2513 H 0.86902 0.66898 0.69731 0.0
H2514 H 0.86594 0.6502 0.7305 0.0
H2515 H 0.85782 0.66425 0.75144 0.0
C2516 C 0.29569 0.13159 0.59962 0.0
C2517 C 0.284 0.13335 0.62914 0.0
C2518 C 0.31342 0.14501 0.59645 0.0
C2519 C 0.31963 0.16019 0.62464 0.0
C2520 C 0.30788 0.16187 0.65499 0.0
C2521 C 0.29011 0.14853 0.6563 0.0
C2522 C 0.32547 0.14303 0.56273 0.0
C2523 C 0.31411 0.17762 0.68652 0.0
C2524 C 0.36875 0.18732 0.64928 0.0
C2525 C 0.37365 0.20222 0.62174 0.0
C2526 C 0.35117 0.17349 0.65058 0.0
C2527 C 0.3384 0.17441 0.62249 0.0
C2528 C 0.34345 0.18922 0.59358 0.0
C2529 C 0.36099 0.20311 0.59415 0.0
C2530 C 0.34617 0.15814 0.68284 0.0
C2531 C 0.33031 0.19042 0.56219 0.0
H2532 H 0.29089 0.11984 0.57849 0.0
H2533 H 0.28108 0.14978 0.67951 0.0
H2534 H 0.33138 0.15445 0.53876 0.0
H2535 H 0.3365 0.14296 0.58143 0.0
H2536 H 0.31842 0.13069 0.5422 0.0
H2537 H 0.30342 0.17658 0.70929 0.0
H2538 H 0.32513 0.17896 0.7084 0.0
H2539 H 0.31925 0.1899 0.66587 0.0
H2540 H 0.37858 0.18671 0.67077 0.0
H2541 H 0.36487 0.21459 0.57249 0.0
H2542 H 0.34019 0.14559 0.6632 0.0
H2543 H 0.33611 0.15718 0.70779 0.0
H2544 H 0.3577 0.15945 0.70238 0.0
H2545 H 0.32359 0.17846 0.54022 0.0
H2546 H 0.33663 0.20226 0.53956 0.0
H2547 H 0.31997 0.19099 0.58303 0.0
C2548 C 0.85026 0.1528 0.74956 0.0
C2549 C 0.86535 0.16325 0.72304 0.0
C2550 C 0.83649 0.1566 0.75189 0.0
C2551 C 0.83766 0.17085 0.72593 0.0
C2552 C 0.85289 0.18143 0.699 0.0
C2553 C 0.86671 0.17766 0.69845 0.0
C2554 C 0.82068 0.14533 0.78198 0.0
C2555 C 0.85441 0.19646 0.66993 0.0
C2556 C 0.7948 0.16908 0.69359 0.0
C2557 C 0.79491 0.1818 0.72313 0.0
C2558 C 0.80869 0.16543 0.69406 0.0
C2559 C 0.82272 0.17436 0.72579 0.0
C2560 C 0.82258 0.1868 0.75677 0.0
C2561 C 0.80878 0.19058 0.75458 0.0
C2562 C 0.80858 0.15239 0.65976 0.0
C2563 C 0.83706 0.19619 0.79195 0.0
H2564 H 0.84931 0.14175 0.76892 0.0
H2565 H 0.87837 0.18566 0.67776 0.0
H2566 H 0.81841 0.1538 0.80624 0.0
H2567 H 0.80867 0.13823 0.76036 0.0
H2568 H 0.82233 0.13545 0.80218 0.0
H2569 H 0.8671 0.20335 0.65078 0.0
H2570 H 0.84339 0.19136 0.64472 0.0
H2571 H 0.85329 0.20621 0.69198 0.0
H2572 H 0.78415 0.16242 0.66893 0.0
H2573 H 0.80881 0.20037 0.77753 0.0
H2574 H 0.80894 0.14144 0.67808 0.0
H2575 H 0.82057 0.15898 0.6378 0.0
H2576 H 0.79675 0.1467 0.63712 0.0
H2577 H 0.83854 0.18642 0.81305 0.0
H2578 H 0.83444 0.20469 0.81531 0.0
H2579 H 0.84984 0.20456 0.77424 0.0
C2580 C 0.02637 0.49093 0.49662 0.0
C2581 C 0.03863 0.50681 0.4756 0.0
C2582 C 0.00845 0.48596 0.49903 0.0
C2583 C 0.00266 0.49692 0.47872 0.0
C2584 C 0.01498 0.51285 0.45681 0.0
C2585 C 0.03288 0.51773 0.4561 0.0
C2586 C 0.99575 0.4691 0.52369 0.0
C2587 C 0.00924 0.52465 0.43378 0.0
C2588 C 0.95391 0.47544 0.44959 0.0
C2589 C 0.94769 0.48157 0.4855 0.0
C2590 C 0.97187 0.48063 0.4464 0.0
C2591 C 0.98372 0.4918 0.4807 0.0
C2592 C 0.97747 0.49798 0.5171 0.0
C2593 C 0.95954 0.49298 0.5187 0.0
C2594 C 0.97816 0.47416 0.40641 0.0
C2595 C 0.98963 0.50958 0.55487 0.0
H2596 H 0.03085 0.48254 0.5119 0.0
H2597 H 0.04236 0.52995 0.43946 0.0
H2598 H 0.98899 0.47202 0.55182 0.0
H2599 H 0.9854 0.45992 0.49948 0.0
H2600 H 0.00246 0.46231 0.53868 0.0
H2601 H 0.0204 0.53628 0.41689 0.0
H2602 H -0.00099 0.51706 0.40743 0.0
H2603 H 0.00322 0.52942 0.45954 0.0
H2604 H 0.94474 0.46667 0.42382 0.0
H2605 H 0.95468 0.49759 0.54674 0.0
H2606 H 0.98362 0.46593 0.41929 0.0
H2607 H 0.98896 0.48555 0.38787 0.0
H2608 H 0.9674 0.46623 0.38155 0.0
H2609 H 0.99582 0.50273 0.57234 0.0
H2610 H 0.98261 0.51304 0.58109 0.0
H2611 H 0.00045 0.52196 0.53997 0.0
C2612 C 0.51019 0.54165 0.51621 0.0
C2613 C 0.49441 0.53771 0.53842 0.0
C2614 C 0.51613 0.52942 0.51565 0.0
C2615 C 0.50615 0.51301 0.53841 0.0
C2616 C 0.49055 0.50925 0.56238 0.0
C2617 C 0.48479 0.52162 0.56181 0.0
C2618 C 0.53273 0.53381 0.48931 0.0
C2619 C 0.4797 0.49199 0.5876 0.0
C2620 C 0.50974 0.47381 0.49671 0.0
C2621 C 0.52141 0.47333 0.52898 0.0
C2622 C 0.50481 0.48678 0.49917 0.0
C2623 C 0.51153 0.49939 0.53517 0.0
C2624 C 0.52326 0.49892 0.56801 0.0
C2625 C 0.52816 0.48594 0.56432 0.0
C2626 C 0.49243 0.487 0.4632 0.0
C2627 C 0.53049 0.51201 0.6072 0.0
H2628 H 0.51762 0.55406 0.49794 0.0
H2629 H 0.47262 0.51857 0.57921 0.0
H2630 H 0.54215 0.53237 0.51196 0.0
H2631 H 0.52944 0.5244 0.4603 0.0
H2632 H 0.53938 0.54745 0.47518 0.0
H2633 H 0.46863 0.49164 0.60724 0.0
H2634 H 0.47416 0.48092 0.56257 0.0
H2635 H 0.48816 0.4897 0.61186 0.0
H2636 H 0.50454 0.46412 0.46924 0.0
H2637 H 0.53714 0.48555 0.58945 0.0
H2638 H 0.49871 0.49999 0.4455 0.0
H2639 H 0.48022 0.48518 0.47991 0.0
H2640 H 0.48869 0.47649 0.43688 0.0
H2641 H 0.53792 0.52566 0.5934 0.0
H2642 H 0.53938 0.50977 0.63003 0.0
H2643 H 0.51946 0.51109 0.6282 0.0
C2644 C 0.53582 0.03166 0.54065 0.0
C2645 C 0.53484 0.04326 0.50906 0.0
C2646 C 0.52292 0.01369 0.54123 0.0
C2647 C 0.50901 0.00717 0.50867 0.0
C2648 C 0.50815 0.0188 0.47616 0.0
C2649 C 0.52098 0.03678 0.47713 0.0
C2650 C 0.52406 0.00174 0.57699 0.0
C2651 C 0.49375 0.01224 0.44021 0.0
C2652 C 0.48548 0.95826 0.48099 0.0
C2653 C 0.46942 0.95211 0.50433 0.0
C2654 C 0.49847 0.97616 0.48206 0.0
C2655 C 0.49548 0.9881 0.50807 0.0
C2656 C 0.47945 0.98189 0.53268 0.0
C2657 C 0.46648 0.96396 0.53001 0.0
C2658 C 0.51521 0.98236 0.45453 0.0
C2659 C 0.47599 0.99418 0.56162 0.0
H2660 H 0.54646 0.03671 0.56566 0.0
H2661 H 0.52026 0.04575 0.4526 0.0
H2662 H 0.51174 0.99529 0.59769 0.0
H2663 H 0.52534 0.9911 0.55986 0.0
H2664 H 0.53544 0.009 0.60067 0.0
H2665 H 0.49522 0.02293 0.41673 0.0
H2666 H 0.49388 0.00168 0.41928 0.0
H2667 H 0.48065 0.00638 0.45717 0.0
H2668 H 0.48771 0.94913 0.46077 0.0
H2669 H 0.45409 0.95918 0.54822 0.0
H2670 H 0.52687 0.98875 0.4776 0.0
H2671 H 0.51658 0.99241 0.42896 0.0
H2672 H 0.51544 0.97137 0.43595 0.0
H2673 H 0.4868 0.00116 0.58701 0.0
H2674 H 0.46324 0.98709 0.58048 0.0
H2675 H 0.47576 0.00439 0.53937 0.0
C2676 C 0.50095 0.03603 0.96207 0.0
C2677 C 0.51649 0.04754 0.98569 0.0
C2678 C 0.49551 0.01803 0.95784 0.0
C2679 C 0.50567 0.01141 0.97872 0.0
C2680 C 0.52145 0.02303 0.00229 0.0
C2681 C 0.52677 0.04101 0.00504 0.0
C2682 C 0.47881 0.00607 0.93157 0.0
C2683 C 0.53245 0.0164 0.02577 0.0
C2684 C 0.48247 0.9629 0.0111 0.0
C2685 C 0.48859 0.95597 0.97693 0.0
C2686 C 0.48796 0.98095 0.0121 0.0
C2687 C 0.49951 0.99221 0.97744 0.0
C2688 C 0.50549 0.98521 0.94239 0.0
C2689 C 0.50012 0.96717 0.94288 0.0
C2690 C 0.4816 0.98801 0.05059 0.0
C2691 C 0.51753 0.99677 0.90437 0.0
H2692 H 0.49304 0.0411 0.94689 0.0
H2693 H 0.53875 0.04988 0.02359 0.0
H2694 H 0.48153 -0.00126 0.90464 0.0
H2695 H 0.46883 0.99614 0.95529 0.0
H2696 H 0.47306 0.01349 0.91488 0.0
H2697 H 0.54448 0.02721 0.04223 0.0
H2698 H 0.52445 0.00658 0.05262 0.0
H2699 H 0.53653 0.00961 1.0005 0.0
H2700 H 0.4736 0.95425 0.03754 0.0
H2701 H 0.50473 0.96177 0.9162 0.0
H2702 H 0.47435 0.99431 0.03616 0.0
H2703 H 0.49307 -0.00167 0.06998 0.0
H2704 H 0.47278 0.97751 0.07509 0.0
H2705 H 0.51142 0.00358 0.88637 0.0
H2706 H 0.52038 0.98912 0.87864 0.0
H2707 H 0.5302 0.00713 0.91919 0.0
C2708 C 0.95136 0.47829 0.00873 0.0
C2709 C 0.94603 0.46234 0.98565 0.0
C2710 C 0.96894 0.49205 0.00698 0.0
C2711 C 0.98133 0.48995 0.98035 0.0
C2712 C 0.9759 0.474 0.95602 0.0
C2713 C 0.95832 0.46024 0.95958 0.0
C2714 C 0.97435 0.50866 0.03442 0.0
C2715 C 0.98864 0.47148 0.92629 0.0
C2716 C 0.02319 0.53176 0.94539 0.0
C2717 C 0.03554 0.53159 0.9758 0.0
C2718 C 0.00551 0.51811 0.94597 0.0
C2719 C 4e-05 0.50433 0.97871 0.0
C2720 C 0.01243 0.50434 0.01015 0.0
C2721 C 0.03013 0.51786 0.00782 0.0
C2722 C 0.99277 0.5183 0.91116 0.0
C2723 C 0.00699 0.49015 0.04641 0.0
H2724 H 0.94186 0.47984 0.02925 0.0
H2725 H 0.95414 0.44791 0.94154 0.0
H2726 H 0.9849 0.51081 0.05924 0.0
H2727 H 0.97985 0.52028 0.01115 0.0
H2728 H 0.96313 0.50809 0.05386 0.0
H2729 H 0.98208 0.45866 0.90768 0.0
H2730 H 0.99487 0.48232 0.90064 0.0
H2731 H -0.00062 0.47206 0.94789 0.0
H2732 H 0.02746 0.54231 0.92031 0.0
H2733 H 0.0397 0.5178 0.03148 0.0
H2734 H 0.98185 0.51884 0.92908 0.0
H2735 H 0.98677 0.50592 0.89068 0.0
H2736 H -0.00074 0.5297 0.88718 0.0
H2737 H 0.9962 0.48955 0.06789 0.0
H2738 H 0.01812 0.49245 0.06932 0.0
H2739 H 0.00179 0.47707 0.02972 0.0
C2740 C 0.51358 0.47071 0.00841 0.0
C2741 C 0.52749 0.47694 0.04012 0.0
C2742 C 0.50129 0.47654 0.01 0.0
C2743 C 0.50273 0.4885 0.04494 0.0
C2744 C 0.51636 0.49428 0.07816 0.0
C2745 C 0.52876 0.48862 0.07494 0.0
C2746 C 0.48717 0.4704 0.97335 0.0
C2747 C 0.51803 0.50666 0.11659 0.0
C2748 C 0.48332 0.51789 0.02041 0.0
C2749 C 0.4667 0.50842 0.04125 0.0
C2750 C 0.49521 0.51157 0.02154 0.0
C2751 C 0.4905 0.49565 0.04518 0.0
C2752 C 0.47396 0.48635 0.06769 0.0
C2753 C 0.46211 0.49273 0.06487 0.0
C2754 C 0.51258 0.52165 0.99626 0.0
C2755 C 0.46871 0.46959 0.09428 0.0
H2756 H 0.51268 0.46176 0.98131 0.0
H2757 H 0.53946 0.49333 0.0997 0.0
H2758 H 0.4739 0.4641 0.9895 0.0
H2759 H 0.48876 0.48193 0.95335 0.0
H2760 H 0.48768 0.46084 0.94909 0.0
H2761 H 0.52845 0.50871 0.14179 0.0
H2762 H 0.52126 0.51967 0.10203 0.0
H2763 H 0.50527 0.50141 0.13513 0.0
H2764 H 0.48681 0.52996 1.00182 0.0
H2765 H 0.44927 0.48546 0.08121 0.0
H2766 H 0.51348 0.51312 0.96936 0.0
H2767 H 0.52373 0.52542 0.02043 0.0
H2768 H 0.51421 0.53381 0.97954 0.0
H2769 H 0.46761 0.45916 0.07049 0.0
H2770 H 0.4559 0.46462 0.11243 0.0
H2771 H 0.47902 0.47189 0.12005 0.0
loop_
_geom_bond_atom_site_label_1
_geom_bond_atom_site_label_2
_geom_bond_distance
_geom_bond_site_symmetry_2
_ccdc_geom_bond_type
In0 O1 2.294 . S
In0 O2 2.326 . S
In0 O6 2.266 . S
In0 O7 2.326 . S
In0 O8 2.266 . S
In0 O9 2.326 . S
In0 O11 2.294 . S
In0 O12 2.326 . S
O1 In0 2.294 . S
O1 C10 1.240 . S
O2 In0 2.326 . S
O2 C10 1.252 . S
C3 O6 1.252 . S
C3 O7 1.260 . S
C4 O11 1.240 . S
C4 O12 1.252 . S
C5 O8 1.252 . S
C5 O9 1.260 . S
O6 In0 2.266 . S
O6 C3 1.252 . S
O7 In0 2.326 . S
O7 C3 1.260 . S
O8 In0 2.266 . S
O8 C5 1.252 . S
O9 In0 2.326 . S
O9 C5 1.260 . S
C10 O1 1.240 . S
C10 O2 1.252 . S
O11 In0 2.294 . S
O11 C4 1.240 . S
O12 In0 2.326 . S
O12 C4 1.252 . S
In13 O14 2.294 . S
In13 O15 2.326 . S
In13 O19 2.266 . S
In13 O20 2.326 . S
In13 O21 2.266 . S
In13 O22 2.326 . S
In13 O24 2.294 . S
In13 O25 2.326 . S
O14 In13 2.294 . S
O14 C23 1.240 . S
O15 In13 2.326 . S
O15 C23 1.252 . S
C16 O19 1.252 . S
C16 O20 1.260 . S
C17 O24 1.240 . S
C17 O25 1.252 . S
C18 O21 1.252 . S
C18 O22 1.260 . S
O19 In13 2.266 . S
O19 C16 1.252 . S
O20 In13 2.326 . S
O20 C16 1.260 . S
O21 In13 2.266 . S
O21 C18 1.252 . S
O22 In13 2.326 . S
O22 C18 1.260 . S
C23 O14 1.240 . S
C23 O15 1.252 . S
O24 In13 2.294 . S
O24 C17 1.240 . S
O25 In13 2.326 . S
O25 C17 1.252 . S
In26 O27 2.294 . S
In26 O28 2.326 . S
In26 O32 2.266 . S
In26 O33 2.326 . S
In26 O34 2.266 . S
In26 O35 2.326 . S
In26 O37 2.294 . S
In26 O38 2.326 . S
O27 In26 2.294 . S
O27 C36 1.240 . S
O28 In26 2.326 . S
O28 C36 1.252 . S
C29 O32 1.252 . S
C29 O33 1.260 . S
C30 O37 1.240 . S
C30 O38 1.252 . S
C31 O34 1.252 . S
C31 O35 1.260 . S
O32 In26 2.266 . S
O32 C29 1.252 . S
O33 In26 2.326 . S
O33 C29 1.260 . S
O34 In26 2.266 . S
O34 C31 1.252 . S
O35 In26 2.326 . S
O35 C31 1.260 . S
C36 O27 1.240 . S
C36 O28 1.252 . S
O37 In26 2.294 . S
O37 C30 1.240 . S
O38 In26 2.326 . S
O38 C30 1.252 . S
In39 O40 2.294 . S
In39 O41 2.326 . S
In39 O45 2.266 . S
In39 O46 2.326 . S
In39 O47 2.266 . S
In39 O48 2.326 . S
In39 O50 2.294 . S
In39 O51 2.326 . S
O40 In39 2.294 . S
O40 C49 1.240 . S
O41 In39 2.326 . S
O41 C49 1.252 . S
C42 O45 1.252 . S
C42 O46 1.260 . S
C43 O50 1.240 . S
C43 O51 1.252 . S
C44 O47 1.252 . S
C44 O48 1.260 . S
O45 In39 2.266 . S
O45 C42 1.252 . S
O46 In39 2.326 . S
O46 C42 1.260 . S
O47 In39 2.266 . S
O47 C44 1.252 . S
O48 In39 2.326 . S
O48 C44 1.260 . S
C49 O40 1.240 . S
C49 O41 1.252 . S
O50 In39 2.294 . S
O50 C43 1.240 . S
O51 In39 2.326 . S
O51 C43 1.252 . S
In52 O53 2.294 . S
In52 O54 2.326 . S
In52 O58 2.266 . S
In52 O59 2.326 . S
In52 O60 2.266 . S
In52 O61 2.326 . S
In52 O63 2.294 . S
In52 O64 2.326 . S
O53 In52 2.294 . S
O53 C62 1.240 . S
O54 In52 2.326 . S
O54 C62 1.252 . S
C55 O58 1.252 . S
C55 O59 1.260 . S
C56 O63 1.240 . S
C56 O64 1.252 . S
C57 O60 1.252 . S
C57 O61 1.260 . S
O58 In52 2.266 . S
O58 C55 1.252 . S
O59 In52 2.326 . S
O59 C55 1.260 . S
O60 In52 2.266 . S
O60 C57 1.252 . S
O61 In52 2.326 . S
O61 C57 1.260 . S
C62 O53 1.240 . S
C62 O54 1.252 . S
O63 In52 2.294 . S
O63 C56 1.240 . S
O64 In52 2.326 . S
O64 C56 1.252 . S
In65 O66 2.294 . S
In65 O67 2.326 . S
In65 O71 2.266 . S
In65 O72 2.326 . S
In65 O73 2.266 . S
In65 O74 2.326 . S
In65 O76 2.294 . S
In65 O77 2.326 . S
O66 In65 2.294 . S
O66 C75 1.240 . S
O67 In65 2.326 . S
O67 C75 1.252 . S
C68 O71 1.252 . S
C68 O72 1.260 . S
C69 O76 1.240 . S
C69 O77 1.252 . S
C70 O73 1.252 . S
C70 O74 1.260 . S
O71 In65 2.266 . S
O71 C68 1.252 . S
O72 In65 2.326 . S
O72 C68 1.260 . S
O73 In65 2.266 . S
O73 C70 1.252 . S
O74 In65 2.326 . S
O74 C70 1.260 . S
C75 O66 1.240 . S
C75 O67 1.252 . S
O76 In65 2.294 . S
O76 C69 1.240 . S
O77 In65 2.326 . S
O77 C69 1.252 . S
In78 O79 2.294 . S
In78 O80 2.326 . S
In78 O84 2.266 . S
In78 O85 2.326 . S
In78 O86 2.266 . S
In78 O87 2.326 . S
In78 O89 2.294 . S
In78 O90 2.326 . S
O79 In78 2.294 . S
O79 C88 1.240 . S
O80 In78 2.326 . S
O80 C88 1.252 . S
C81 O84 1.252 . S
C81 O85 1.260 . S
C82 O89 1.240 . S
C82 O90 1.252 . S
C83 O86 1.252 . S
C83 O87 1.260 . S
O84 In78 2.266 . S
O84 C81 1.252 . S
O85 In78 2.326 . S
O85 C81 1.260 . S
O86 In78 2.266 . S
O86 C83 1.252 . S
O87 In78 2.326 . S
O87 C83 1.260 . S
C88 O79 1.240 . S
C88 O80 1.252 . S
O89 In78 2.294 . S
O89 C82 1.240 . S
O90 In78 2.326 . S
O90 C82 1.252 . S
In91 O92 2.294 . S
In91 O93 2.326 . S
In91 O97 2.266 . S
In91 O98 2.326 . S
In91 O99 2.266 . S
In91 O100 2.326 . S
In91 O102 2.294 . S
In91 O103 2.326 . S
O92 In91 2.294 . S
O92 C101 1.240 . S
O93 In91 2.326 . S
O93 C101 1.252 . S
C94 O97 1.252 . S
C94 O98 1.260 . S
C95 O102 1.240 . S
C95 O103 1.252 . S
C96 O99 1.252 . S
C96 O100 1.260 . S
O97 In91 2.266 . S
O97 C94 1.252 . S
O98 In91 2.326 . S
O98 C94 1.260 . S
O99 In91 2.266 . S
O99 C96 1.252 . S
O100 In91 2.326 . S
O100 C96 1.260 . S
C101 O92 1.240 . S
C101 O93 1.252 . S
O102 In91 2.294 . S
O102 C95 1.240 . S
O103 In91 2.326 . S
O103 C95 1.252 . S
In104 O105 2.294 . S
In104 O106 2.326 . S
In104 O110 2.266 . S
In104 O111 2.326 . S
In104 O112 2.266 . S
In104 O113 2.326 . S
In104 O115 2.294 . S
In104 O116 2.326 . S
O105 In104 2.294 . S
O105 C114 1.240 . S
O106 In104 2.326 . S
O106 C114 1.252 . S
C107 O110 1.252 . S
C107 O111 1.260 . S
C108 O115 1.240 . S
C108 O116 1.252 . S
C109 O112 1.252 . S
C109 O113 1.260 . S
O110 In104 2.266 . S
O110 C107 1.252 . S
O111 In104 2.326 . S
O111 C107 1.260 . S
O112 In104 2.266 . S
O112 C109 1.252 . S
O113 In104 2.326 . S
O113 C109 1.260 . S
C114 O105 1.240 . S
C114 O106 1.252 . S
O115 In104 2.294 . S
O115 C108 1.240 . S
O116 In104 2.326 . S
O116 C108 1.252 . S
In117 O118 2.294 . S
In117 O119 2.326 . S
In117 O123 2.266 . S
In117 O124 2.326 . S
In117 O125 2.266 . S
In117 O126 2.326 . S
In117 O128 2.294 . S
In117 O129 2.326 . S
O118 In117 2.294 . S
O118 C127 1.240 . S
O119 In117 2.326 . S
O119 C127 1.252 . S
C120 O123 1.252 . S
C120 O124 1.260 . S
C121 O128 1.240 . S
C121 O129 1.252 . S
C122 O125 1.252 . S
C122 O126 1.260 . S
O123 In117 2.266 . S
O123 C120 1.252 . S
O124 In117 2.326 . S
O124 C120 1.260 . S
O125 In117 2.266 . S
O125 C122 1.252 . S
O126 In117 2.326 . S
O126 C122 1.260 . S
C127 O118 1.240 . S
C127 O119 1.252 . S
O128 In117 2.294 . S
O128 C121 1.240 . S
O129 In117 2.326 . S
O129 C121 1.252 . S
In130 O131 2.294 . S
In130 O132 2.326 . S
In130 O136 2.266 . S
In130 O137 2.326 . S
In130 O138 2.266 . S
In130 O139 2.326 . S
In130 O141 2.294 . S
In130 O142 2.326 . S
O131 In130 2.294 . S
O131 C140 1.240 . S
O132 In130 2.326 . S
O132 C140 1.252 . S
C133 O136 1.252 . S
C133 O137 1.260 . S
C134 O141 1.240 . S
C134 O142 1.252 . S
C135 O138 1.252 . S
C135 O139 1.260 . S
O136 In130 2.266 . S
O136 C133 1.252 . S
O137 In130 2.326 . S
O137 C133 1.260 . S
O138 In130 2.266 . S
O138 C135 1.252 . S
O139 In130 2.326 . S
O139 C135 1.260 . S
C140 O131 1.240 . S
C140 O132 1.252 . S
O141 In130 2.294 . S
O141 C134 1.240 . S
O142 In130 2.326 . S
O142 C134 1.252 . S
In143 O144 2.294 . S
In143 O145 2.326 . S
In143 O149 2.266 . S
In143 O150 2.326 . S
In143 O151 2.266 . S
In143 O152 2.326 . S
In143 O154 2.294 . S
In143 O155 2.326 . S
O144 In143 2.294 . S
O144 C153 1.240 . S
O145 In143 2.326 . S
O145 C153 1.252 . S
C146 O149 1.252 . S
C146 O150 1.260 . S
C147 O154 1.240 . S
C147 O155 1.252 . S
C148 O151 1.252 . S
C148 O152 1.260 . S
O149 In143 2.266 . S
O149 C146 1.252 . S
O150 In143 2.326 . S
O150 C146 1.260 . S
O151 In143 2.266 . S
O151 C148 1.252 . S
O152 In143 2.326 . S
O152 C148 1.260 . S
C153 O144 1.240 . S
C153 O145 1.252 . S
O154 In143 2.294 . S
O154 C147 1.240 . S
O155 In143 2.326 . S
O155 C147 1.252 . S
In156 O157 2.294 . S
In156 O158 2.326 . S
In156 O162 2.266 . S
In156 O163 2.326 . S
In156 O164 2.266 . S
In156 O165 2.326 . S
In156 O167 2.294 . S
In156 O168 2.326 . S
O157 In156 2.294 . S
O157 C166 1.240 . S
O158 In156 2.326 . S
O158 C166 1.252 . S
C159 O162 1.252 . S
C159 O163 1.260 . S
C160 O167 1.240 . S
C160 O168 1.252 . S
C161 O164 1.252 . S
C161 O165 1.260 . S
O162 In156 2.266 . S
O162 C159 1.252 . S
O163 In156 2.326 . S
O163 C159 1.260 . S
O164 In156 2.266 . S
O164 C161 1.252 . S
O165 In156 2.326 . S
O165 C161 1.260 . S
C166 O157 1.240 . S
C166 O158 1.252 . S
O167 In156 2.294 . S
O167 C160 1.240 . S
O168 In156 2.326 . S
O168 C160 1.252 . S
In169 O170 2.294 . S
In169 O171 2.326 . S
In169 O175 2.266 . S
In169 O176 2.326 . S
In169 O177 2.266 . S
In169 O178 2.326 . S
In169 O180 2.294 . S
In169 O181 2.326 . S
O170 In169 2.294 . S
O170 C179 1.240 . S
O171 In169 2.326 . S
O171 C179 1.252 . S
C172 O175 1.252 . S
C172 O176 1.260 . S
C173 O180 1.240 . S
C173 O181 1.252 . S
C174 O177 1.252 . S
C174 O178 1.260 . S
O175 In169 2.266 . S
O175 C172 1.252 . S
O176 In169 2.326 . S
O176 C172 1.260 . S
O177 In169 2.266 . S
O177 C174 1.252 . S
O178 In169 2.326 . S
O178 C174 1.260 . S
C179 O170 1.240 . S
C179 O171 1.252 . S
O180 In169 2.294 . S
O180 C173 1.240 . S
O181 In169 2.326 . S
O181 C173 1.252 . S
In182 O183 2.294 . S
In182 O184 2.326 . S
In182 O188 2.266 . S
In182 O189 2.326 . S
In182 O190 2.266 . S
In182 O191 2.326 . S
In182 O193 2.294 . S
In182 O194 2.326 . S
O183 In182 2.294 . S
O183 C192 1.240 . S
O184 In182 2.326 . S
O184 C192 1.252 . S
C185 O188 1.252 . S
C185 O189 1.260 . S
C186 O193 1.240 . S
C186 O194 1.252 . S
C187 O190 1.252 . S
C187 O191 1.260 . S
O188 In182 2.266 . S
O188 C185 1.252 . S
O189 In182 2.326 . S
O189 C185 1.260 . S
O190 In182 2.266 . S
O190 C187 1.252 . S
O191 In182 2.326 . S
O191 C187 1.260 . S
C192 O183 1.240 . S
C192 O184 1.252 . S
O193 In182 2.294 . S
O193 C186 1.240 . S
O194 In182 2.326 . S
O194 C186 1.252 . S
In195 O196 2.294 . S
In195 O197 2.326 . S
In195 O201 2.266 . S
In195 O202 2.326 . S
In195 O203 2.266 . S
In195 O204 2.326 . S
In195 O206 2.294 . S
In195 O207 2.326 . S
O196 In195 2.294 . S
O196 C205 1.240 . S
O197 In195 2.326 . S
O197 C205 1.252 . S
C198 O201 1.252 . S
C198 O202 1.260 . S
C199 O206 1.240 . S
C199 O207 1.252 . S
C200 O203 1.252 . S
C200 O204 1.260 . S
O201 In195 2.266 . S
O201 C198 1.252 . S
O202 In195 2.326 . S
O202 C198 1.260 . S
O203 In195 2.266 . S
O203 C200 1.252 . S
O204 In195 2.326 . S
O204 C200 1.260 . S
C205 O196 1.240 . S
C205 O197 1.252 . S
O206 In195 2.294 . S
O206 C199 1.240 . S
O207 In195 2.326 . S
O207 C199 1.252 . S
In208 O209 2.294 . S
In208 O210 2.326 . S
In208 O214 2.266 . S
In208 O215 2.326 . S
In208 O216 2.266 . S
In208 O217 2.326 . S
In208 O219 2.294 . S
In208 O220 2.326 . S
O209 In208 2.294 . S
O209 C218 1.240 . S
O210 In208 2.326 . S
O210 C218 1.252 . S
C211 O214 1.252 . S
C211 O215 1.260 . S
C212 O219 1.240 . S
C212 O220 1.252 . S
C213 O216 1.252 . S
C213 O217 1.260 . S
O214 In208 2.266 . S
O214 C211 1.252 . S
O215 In208 2.326 . S
O215 C211 1.260 . S
O216 In208 2.266 . S
O216 C213 1.252 . S
O217 In208 2.326 . S
O217 C213 1.260 . S
C218 O209 1.240 . S
C218 O210 1.252 . S
O219 In208 2.294 . S
O219 C212 1.240 . S
O220 In208 2.326 . S
O220 C212 1.252 . S
In221 O222 2.294 . S
In221 O223 2.326 . S
In221 O227 2.266 . S
In221 O228 2.326 . S
In221 O229 2.266 . S
In221 O230 2.326 . S
In221 O232 2.294 . S
In221 O233 2.326 . S
O222 In221 2.294 . S
O222 C231 1.240 . S
O223 In221 2.326 . S
O223 C231 1.252 . S
C224 O227 1.252 . S
C224 O228 1.260 . S
C225 O232 1.240 . S
C225 O233 1.252 . S
C226 O229 1.252 . S
C226 O230 1.260 . S
O227 In221 2.266 . S
O227 C224 1.252 . S
O228 In221 2.326 . S
O228 C224 1.260 . S
O229 In221 2.266 . S
O229 C226 1.252 . S
O230 In221 2.326 . S
O230 C226 1.260 . S
C231 O222 1.240 . S
C231 O223 1.252 . S
O232 In221 2.294 . S
O232 C225 1.240 . S
O233 In221 2.326 . S
O233 C225 1.252 . S
In234 O235 2.294 . S
In234 O236 2.326 . S
In234 O240 2.266 . S
In234 O241 2.326 . S
In234 O242 2.266 . S
In234 O243 2.326 . S
In234 O245 2.294 . S
In234 O246 2.326 . S
O235 In234 2.294 . S
O235 C244 1.240 . S
O236 In234 2.326 . S
O236 C244 1.252 . S
C237 O240 1.252 . S
C237 O241 1.260 . S
C238 O245 1.240 . S
C238 O246 1.252 . S
C239 O242 1.252 . S
C239 O243 1.260 . S
O240 In234 2.266 . S
O240 C237 1.252 . S
O241 In234 2.326 . S
O241 C237 1.260 . S
O242 In234 2.266 . S
O242 C239 1.252 . S
O243 In234 2.326 . S
O243 C239 1.260 . S
C244 O235 1.240 . S
C244 O236 1.252 . S
O245 In234 2.294 . S
O245 C238 1.240 . S
O246 In234 2.326 . S
O246 C238 1.252 . S
In247 O248 2.294 . S
In247 O249 2.326 . S
In247 O253 2.266 . S
In247 O254 2.326 . S
In247 O255 2.266 . S
In247 O256 2.326 . S
In247 O258 2.294 . S
In247 O259 2.326 . S
O248 In247 2.294 . S
O248 C257 1.240 . S
O249 In247 2.326 . S
O249 C257 1.252 . S
C250 O253 1.252 . S
C250 O254 1.260 . S
C251 O258 1.240 . S
C251 O259 1.252 . S
C252 O255 1.252 . S
C252 O256 1.260 . S
O253 In247 2.266 . S
O253 C250 1.252 . S
O254 In247 2.326 . S
O254 C250 1.260 . S
O255 In247 2.266 . S
O255 C252 1.252 . S
O256 In247 2.326 . S
O256 C252 1.260 . S
C257 O248 1.240 . S
C257 O249 1.252 . S
O258 In247 2.294 . S
O258 C251 1.240 . S
O259 In247 2.326 . S
O259 C251 1.252 . S
In260 O261 2.294 . S
In260 O262 2.326 . S
In260 O266 2.266 . S
In260 O267 2.326 . S
In260 O268 2.266 . S
In260 O269 2.326 . S
In260 O271 2.294 . S
In260 O272 2.326 . S
O261 In260 2.294 . S
O261 C270 1.240 . S
O262 In260 2.326 . S
O262 C270 1.252 . S
C263 O266 1.252 . S
C263 O267 1.260 . S
C264 O271 1.240 . S
C264 O272 1.252 . S
C265 O268 1.252 . S
C265 O269 1.260 . S
O266 In260 2.266 . S
O266 C263 1.252 . S
O267 In260 2.326 . S
O267 C263 1.260 . S
O268 In260 2.266 . S
O268 C265 1.252 . S
O269 In260 2.326 . S
O269 C265 1.260 . S
C270 O261 1.240 . S
C270 O262 1.252 . S
O271 In260 2.294 . S
O271 C264 1.240 . S
O272 In260 2.326 . S
O272 C264 1.252 . S
In273 O274 2.294 . S
In273 O275 2.326 . S
In273 O279 2.266 . S
In273 O280 2.326 . S
In273 O281 2.266 1_554 S
In273 O282 2.326 1_554 S
In273 O284 2.294 . S
In273 O285 2.326 . S
O274 In273 2.294 . S
O274 C283 1.240 . S
O275 In273 2.326 . S
O275 C283 1.252 . S
C276 O279 1.252 . S
C276 O280 1.260 . S
C277 O284 1.240 . S
C277 O285 1.252 . S
C278 O281 1.252 . S
C278 O282 1.260 . S
O279 In273 2.266 . S
O279 C276 1.252 . S
O280 In273 2.326 . S
O280 C276 1.260 . S
O281 In273 2.266 1_556 S
O281 C278 1.252 . S
O282 In273 2.326 1_556 S
O282 C278 1.260 . S
C283 O274 1.240 . S
C283 O275 1.252 . S
O284 In273 2.294 . S
O284 C277 1.240 . S
O285 In273 2.326 . S
O285 C277 1.252 . S
In286 O287 2.294 . S
In286 O288 2.326 . S
In286 O292 2.266 1_554 S
In286 O293 2.326 1_554 S
In286 O294 2.266 . S
In286 O295 2.326 . S
In286 O297 2.294 . S
In286 O298 2.326 . S
O287 In286 2.294 . S
O287 C296 1.240 . S
O288 In286 2.326 . S
O288 C296 1.252 . S
C289 O292 1.252 . S
C289 O293 1.260 . S
C290 O297 1.240 . S
C290 O298 1.252 . S
C291 O294 1.252 . S
C291 O295 1.260 . S
O292 In286 2.266 1_556 S
O292 C289 1.252 . S
O293 In286 2.326 1_556 S
O293 C289 1.260 . S
O294 In286 2.266 . S
O294 C291 1.252 . S
O295 In286 2.326 . S
O295 C291 1.260 . S
C296 O287 1.240 . S
C296 O288 1.252 . S
O297 In286 2.294 . S
O297 C290 1.240 . S
O298 In286 2.326 . S
O298 C290 1.252 . S
In299 O300 2.294 . S
In299 O301 2.326 . S
In299 O305 2.266 . S
In299 O306 2.326 . S
In299 O307 2.266 1_554 S
In299 O308 2.326 1_554 S
In299 O310 2.294 . S
In299 O311 2.326 . S
O300 In299 2.294 . S
O300 C309 1.240 . S
O301 In299 2.326 . S
O301 C309 1.252 . S
C302 O305 1.252 . S
C302 O306 1.260 . S
C303 O310 1.240 . S
C303 O311 1.252 . S
C304 O307 1.252 . S
C304 O308 1.260 . S
O305 In299 2.266 . S
O305 C302 1.252 . S
O306 In299 2.326 . S
O306 C302 1.260 . S
O307 In299 2.266 1_556 S
O307 C304 1.252 . S
O308 In299 2.326 1_556 S
O308 C304 1.260 . S
C309 O300 1.240 . S
C309 O301 1.252 . S
O310 In299 2.294 . S
O310 C303 1.240 . S
O311 In299 2.326 . S
O311 C303 1.252 . S
In312 O313 2.294 . S
In312 O314 2.326 . S
In312 O318 2.266 . S
In312 O319 2.326 . S
In312 O320 2.266 . S
In312 O321 2.326 . S
In312 O323 2.294 . S
In312 O324 2.326 . S
O313 In312 2.294 . S
O313 C322 1.240 . S
O314 In312 2.326 . S
O314 C322 1.252 . S
C315 O318 1.252 . S
C315 O319 1.260 . S
C316 O323 1.240 . S
C316 O324 1.252 . S
C317 O320 1.252 . S
C317 O321 1.260 . S
O318 In312 2.266 . S
O318 C315 1.252 . S
O319 In312 2.326 . S
O319 C315 1.260 . S
O320 In312 2.266 . S
O320 C317 1.252 . S
O321 In312 2.326 . S
O321 C317 1.260 . S
C322 O313 1.240 . S
C322 O314 1.252 . S
O323 In312 2.294 . S
O323 C316 1.240 . S
O324 In312 2.326 . S
O324 C316 1.252 . S
In325 O326 2.294 . S
In325 O327 2.326 . S
In325 O331 2.266 . S
In325 O332 2.326 . S
In325 O333 2.266 . S
In325 O334 2.326 . S
In325 O336 2.294 . S
In325 O337 2.326 . S
O326 In325 2.294 . S
O326 C335 1.240 . S
O327 In325 2.326 . S
O327 C335 1.252 . S
C328 O331 1.252 . S
C328 O332 1.260 . S
C329 O336 1.240 . S
C329 O337 1.252 . S
C330 O333 1.252 . S
C330 O334 1.260 . S
O331 In325 2.266 . S
O331 C328 1.252 . S
O332 In325 2.326 . S
O332 C328 1.260 . S
O333 In325 2.266 . S
O333 C330 1.252 . S
O334 In325 2.326 . S
O334 C330 1.260 . S
C335 O326 1.240 . S
C335 O327 1.252 . S
O336 In325 2.294 . S
O336 C329 1.240 . S
O337 In325 2.326 . S
O337 C329 1.252 . S
In338 O339 2.294 . S
In338 O340 2.326 . S
In338 O344 2.266 . S
In338 O345 2.326 . S
In338 O346 2.266 . S
In338 O347 2.326 . S
In338 O349 2.294 . S
In338 O350 2.326 . S
O339 In338 2.294 . S
O339 C348 1.240 . S
O340 In338 2.326 . S
O340 C348 1.252 . S
C341 O344 1.252 . S
C341 O345 1.260 . S
C342 O349 1.240 . S
C342 O350 1.252 . S
C343 O346 1.252 . S
C343 O347 1.260 . S
O344 In338 2.266 . S
O344 C341 1.252 . S
O345 In338 2.326 . S
O345 C341 1.260 . S
O346 In338 2.266 . S
O346 C343 1.252 . S
O347 In338 2.326 . S
O347 C343 1.260 . S
C348 O339 1.240 . S
C348 O340 1.252 . S
O349 In338 2.294 . S
O349 C342 1.240 . S
O350 In338 2.326 . S
O350 C342 1.252 . S
In351 O352 2.294 . S
In351 O353 2.326 . S
In351 O357 2.266 . S
In351 O358 2.326 . S
In351 O359 2.266 1_556 S
In351 O360 2.326 1_556 S
In351 O362 2.294 . S
In351 O363 2.326 . S
O352 In351 2.294 . S
O352 C361 1.240 . S
O353 In351 2.326 . S
O353 C361 1.252 . S
C354 O357 1.252 . S
C354 O358 1.260 . S
C355 O362 1.240 . S
C355 O363 1.252 . S
C356 O359 1.252 . S
C356 O360 1.260 . S
O357 In351 2.266 . S
O357 C354 1.252 . S
O358 In351 2.326 . S
O358 C354 1.260 . S
O359 In351 2.266 1_554 S
O359 C356 1.252 . S
O360 In351 2.326 1_554 S
O360 C356 1.260 . S
C361 O352 1.240 . S
C361 O353 1.252 . S
O362 In351 2.294 . S
O362 C355 1.240 . S
O363 In351 2.326 . S
O363 C355 1.252 . S
In364 O365 2.294 . S
In364 O366 2.326 . S
In364 O370 2.266 1_556 S
In364 O371 2.326 1_556 S
In364 O372 2.266 . S
In364 O373 2.326 . S
In364 O375 2.294 . S
In364 O376 2.326 . S
O365 In364 2.294 . S
O365 C374 1.240 . S
O366 In364 2.326 . S
O366 C374 1.252 . S
C367 O370 1.252 . S
C367 O371 1.260 . S
C368 O375 1.240 . S
C368 O376 1.252 . S
C369 O372 1.252 . S
C369 O373 1.260 . S
O370 In364 2.266 1_554 S
O370 C367 1.252 . S
O371 In364 2.326 1_554 S
O371 C367 1.260 . S
O372 In364 2.266 . S
O372 C369 1.252 . S
O373 In364 2.326 . S
O373 C369 1.260 . S
C374 O365 1.240 . S
C374 O366 1.252 . S
O375 In364 2.294 . S
O375 C368 1.240 . S
O376 In364 2.326 . S
O376 C368 1.252 . S
In377 O378 2.294 . S
In377 O379 2.326 . S
In377 O383 2.266 . S
In377 O384 2.326 . S
In377 O385 2.266 1_556 S
In377 O386 2.326 1_556 S
In377 O388 2.294 . S
In377 O389 2.326 . S
O378 In377 2.294 . S
O378 C387 1.240 . S
O379 In377 2.326 . S
O379 C387 1.252 . S
C380 O383 1.252 . S
C380 O384 1.260 . S
C381 O388 1.240 . S
C381 O389 1.252 . S
C382 O385 1.252 . S
C382 O386 1.260 . S
O383 In377 2.266 . S
O383 C380 1.252 . S
O384 In377 2.326 . S
O384 C380 1.260 . S
O385 In377 2.266 1_554 S
O385 C382 1.252 . S
O386 In377 2.326 1_554 S
O386 C382 1.260 . S
C387 O378 1.240 . S
C387 O379 1.252 . S
O388 In377 2.294 . S
O388 C381 1.240 . S
O389 In377 2.326 . S
O389 C381 1.252 . S
In390 O391 2.294 . S
In390 O392 2.326 . S
In390 O396 2.266 . S
In390 O397 2.326 . S
In390 O398 2.266 . S
In390 O399 2.326 . S
In390 O401 2.294 . S
In390 O402 2.326 . S
O391 In390 2.294 . S
O391 C400 1.240 . S
O392 In390 2.326 . S
O392 C400 1.252 . S
C393 O396 1.252 . S
C393 O397 1.260 . S
C394 O401 1.240 . S
C394 O402 1.252 . S
C395 O398 1.252 . S
C395 O399 1.260 . S
O396 In390 2.266 . S
O396 C393 1.252 . S
O397 In390 2.326 . S
O397 C393 1.260 . S
O398 In390 2.266 . S
O398 C395 1.252 . S
O399 In390 2.326 . S
O399 C395 1.260 . S
C400 O391 1.240 . S
C400 O392 1.252 . S
O401 In390 2.294 . S
O401 C394 1.240 . S
O402 In390 2.326 . S
O402 C394 1.252 . S
In403 O404 2.294 . S
In403 O405 2.326 . S
In403 O409 2.266 . S
In403 O410 2.326 . S
In403 O411 2.266 . S
In403 O412 2.326 . S
In403 O414 2.294 . S
In403 O415 2.326 . S
O404 In403 2.294 . S
O404 C413 1.240 . S
O405 In403 2.326 . S
O405 C413 1.252 . S
C406 O409 1.252 . S
C406 O410 1.260 . S
C407 O414 1.240 . S
C407 O415 1.252 . S
C408 O411 1.252 . S
C408 O412 1.260 . S
O409 In403 2.266 . S
O409 C406 1.252 . S
O410 In403 2.326 . S
O410 C406 1.260 . S
O411 In403 2.266 . S
O411 C408 1.252 . S
O412 In403 2.326 . S
O412 C408 1.260 . S
C413 O404 1.240 . S
C413 O405 1.252 . S
O414 In403 2.294 . S
O414 C407 1.240 . S
O415 In403 2.326 . S
O415 C407 1.252 . S
In416 O417 2.294 . S
In416 O418 2.326 . S
In416 O422 2.266 . S
In416 O423 2.326 . S
In416 O424 2.266 . S
In416 O425 2.326 . S
In416 O427 2.294 . S
In416 O428 2.326 . S
O417 In416 2.294 . S
O417 C426 1.240 . S
O418 In416 2.326 . S
O418 C426 1.252 . S
C419 O422 1.252 . S
C419 O423 1.260 . S
C420 O427 1.240 . S
C420 O428 1.252 . S
C421 O424 1.252 . S
C421 O425 1.260 . S
O422 In416 2.266 . S
O422 C419 1.252 . S
O423 In416 2.326 . S
O423 C419 1.260 . S
O424 In416 2.266 . S
O424 C421 1.252 . S
O425 In416 2.326 . S
O425 C421 1.260 . S
C426 O417 1.240 . S
C426 O418 1.252 . S
O427 In416 2.294 . S
O427 C420 1.240 . S
O428 In416 2.326 . S
O428 C420 1.252 . S
In429 O430 2.294 . S
In429 O431 2.326 . S
In429 O435 2.266 . S
In429 O436 2.326 . S
In429 O437 2.266 . S
In429 O438 2.326 . S
In429 O440 2.294 . S
In429 O441 2.326 . S
O430 In429 2.294 . S
O430 C439 1.240 . S
O431 In429 2.326 . S
O431 C439 1.252 . S
C432 O435 1.252 . S
C432 O436 1.260 . S
C433 O440 1.240 . S
C433 O441 1.252 . S
C434 O437 1.252 . S
C434 O438 1.260 . S
O435 In429 2.266 . S
O435 C432 1.252 . S
O436 In429 2.326 . S
O436 C432 1.260 . S
O437 In429 2.266 . S
O437 C434 1.252 . S
O438 In429 2.326 . S
O438 C434 1.260 . S
C439 O430 1.240 . S
C439 O431 1.252 . S
O440 In429 2.294 . S
O440 C433 1.240 . S
O441 In429 2.326 . S
O441 C433 1.252 . S
In442 O443 2.294 . S
In442 O444 2.326 . S
In442 O448 2.266 . S
In442 O449 2.326 . S
In442 O450 2.266 . S
In442 O451 2.326 . S
In442 O453 2.294 . S
In442 O454 2.326 . S
O443 In442 2.294 . S
O443 C452 1.240 . S
O444 In442 2.326 . S
O444 C452 1.252 . S
C445 O448 1.252 . S
C445 O449 1.260 . S
C446 O453 1.240 . S
C446 O454 1.252 . S
C447 O450 1.252 . S
C447 O451 1.260 . S
O448 In442 2.266 . S
O448 C445 1.252 . S
O449 In442 2.326 . S
O449 C445 1.260 . S
O450 In442 2.266 . S
O450 C447 1.252 . S
O451 In442 2.326 . S
O451 C447 1.260 . S
C452 O443 1.240 . S
C452 O444 1.252 . S
O453 In442 2.294 . S
O453 C446 1.240 . S
O454 In442 2.326 . S
O454 C446 1.252 . S
In455 O456 2.294 . S
In455 O457 2.326 . S
In455 O461 2.266 . S
In455 O462 2.326 . S
In455 O463 2.266 . S
In455 O464 2.326 . S
In455 O466 2.294 . S
In455 O467 2.326 . S
O456 In455 2.294 . S
O456 C465 1.240 . S
O457 In455 2.326 . S
O457 C465 1.252 . S
C458 O461 1.252 . S
C458 O462 1.260 . S
C459 O466 1.240 . S
C459 O467 1.252 . S
C460 O463 1.252 . S
C460 O464 1.260 . S
O461 In455 2.266 . S
O461 C458 1.252 . S
O462 In455 2.326 . S
O462 C458 1.260 . S
O463 In455 2.266 . S
O463 C460 1.252 . S
O464 In455 2.326 . S
O464 C460 1.260 . S
C465 O456 1.240 . S
C465 O457 1.252 . S
O466 In455 2.294 . S
O466 C459 1.240 . S
O467 In455 2.326 . S
O467 C459 1.252 . S
C468 C469 1.391 . S
C468 C470 1.394 . S
C468 H484 0.931 . S
C469 C468 1.391 . S
C469 C473 1.376 . S
C470 C468 1.394 . S
C470 C471 1.369 . S
C470 C474 1.531 . S
C471 C470 1.369 . S
C471 C472 1.410 . S
C471 C479 1.503 . S
C472 C471 1.410 . S
C472 C473 1.392 . S
C472 C475 1.511 . S
C473 C469 1.376 . S
C473 C472 1.392 . S
C473 H485 0.929 . S
C474 C470 1.531 . S
C474 H486 0.960 . S
C474 H487 0.962 . S
C474 H488 0.960 . S
C475 C472 1.511 . S
C475 H489 0.961 . S
C475 H490 0.961 . S
C475 H491 0.961 . S
C476 C477 1.370 . S
C476 C478 1.363 . S
C476 H492 0.931 . S
C477 C476 1.370 . S
C477 C481 1.408 . S
C478 C476 1.363 . S
C478 C479 1.370 1_554 S
C478 C482 1.524 1_554 S
C479 C471 1.503 . S
C479 C478 1.370 1_556 S
C479 C480 1.403 1_556 S
C480 C479 1.403 1_554 S
C480 C481 1.404 . S
C480 C483 1.539 1_554 S
C481 C477 1.408 . S
C481 C480 1.404 . S
C481 H493 0.930 . S
C482 C478 1.524 1_556 S
C482 H494 0.956 . S
C482 H495 0.961 . S
C482 H496 0.961 1_556 S
C483 C480 1.539 1_556 S
C483 H497 0.958 . S
C483 H498 0.961 1_556 S
C483 H499 0.960 . S
H484 C468 0.931 . S
H485 C473 0.929 . S
H486 C474 0.960 . S
H487 C474 0.962 . S
H488 C474 0.960 . S
H489 C475 0.961 . S
H490 C475 0.961 . S
H491 C475 0.961 . S
H492 C476 0.931 . S
H493 C481 0.930 . S
H494 C482 0.956 . S
H495 C482 0.961 . S
H496 C482 0.961 1_554 S
H497 C483 0.958 . S
H498 C483 0.961 1_554 S
H499 C483 0.960 . S
C500 C501 1.391 . S
C500 C502 1.394 . S
C500 H516 0.931 . S
C501 C500 1.391 . S
C501 C505 1.376 . S
C502 C500 1.394 . S
C502 C503 1.369 . S
C502 C506 1.531 . S
C503 C502 1.369 . S
C503 C504 1.410 . S
C503 C511 1.503 . S
C504 C503 1.410 . S
C504 C505 1.392 . S
C504 C507 1.511 . S
C505 C501 1.376 . S
C505 C504 1.392 . S
C505 H517 0.929 . S
C506 C502 1.531 . S
C506 H518 0.960 . S
C506 H519 0.962 . S
C506 H520 0.960 . S
C507 C504 1.511 . S
C507 H521 0.961 . S
C507 H522 0.961 . S
C507 H523 0.961 . S
C508 C509 1.370 . S
C508 C510 1.363 . S
C508 H524 0.931 . S
C509 C508 1.370 . S
C509 C513 1.408 . S
C510 C508 1.363 . S
C510 C511 1.370 1_554 S
C510 C514 1.524 1_554 S
C511 C503 1.503 . S
C511 C510 1.370 1_556 S
C511 C512 1.403 1_556 S
C512 C511 1.403 1_554 S
C512 C513 1.404 . S
C512 C515 1.539 1_554 S
C513 C509 1.408 . S
C513 C512 1.404 . S
C513 H525 0.930 . S
C514 C510 1.524 1_556 S
C514 H526 0.956 . S
C514 H527 0.961 . S
C514 H528 0.961 . S
C515 C512 1.539 1_556 S
C515 H529 0.958 . S
C515 H530 0.961 1_556 S
C515 H531 0.960 . S
H516 C500 0.931 . S
H517 C505 0.929 . S
H518 C506 0.960 . S
H519 C506 0.962 . S
H520 C506 0.960 . S
H521 C507 0.961 . S
H522 C507 0.961 . S
H523 C507 0.961 . S
H524 C508 0.931 . S
H525 C513 0.930 . S
H526 C514 0.956 . S
H527 C514 0.961 . S
H528 C514 0.961 . S
H529 C515 0.958 . S
H530 C515 0.961 1_554 S
H531 C515 0.960 . S
C532 C533 1.391 . S
C532 C534 1.394 . S
C532 H548 0.931 . S
C533 C532 1.391 . S
C533 C537 1.376 . S
C534 C532 1.394 . S
C534 C535 1.369 1_554 S
C534 C538 1.531 1_554 S
C535 C534 1.369 1_556 S
C535 C536 1.410 1_556 S
C535 C543 1.503 . S
C536 C535 1.410 1_554 S
C536 C537 1.392 . S
C536 C539 1.511 1_554 S
C537 C533 1.376 . S
C537 C536 1.392 . S
C537 H549 0.929 . S
C538 C534 1.531 1_556 S
C538 H550 0.960 . S
C538 H551 0.962 . S
C538 H552 0.960 1_556 S
C539 C536 1.511 1_556 S
C539 H553 0.961 . S
C539 H554 0.961 . S
C539 H555 0.961 . S
C540 C541 1.370 . S
C540 C542 1.363 . S
C540 H556 0.931 . S
C541 C540 1.370 . S
C541 C545 1.408 . S
C542 C540 1.363 . S
C542 C543 1.370 . S
C542 C546 1.524 . S
C543 C535 1.503 . S
C543 C542 1.370 . S
C543 C544 1.403 . S
C544 C543 1.403 . S
C544 C545 1.404 . S
C544 C547 1.539 . S
C545 C541 1.408 . S
C545 C544 1.404 . S
C545 H557 0.930 . S
C546 C542 1.524 . S
C546 H558 0.956 . S
C546 H559 0.961 . S
C546 H560 0.961 . S
C547 C544 1.539 . S
C547 H561 0.958 . S
C547 H562 0.961 . S
C547 H563 0.960 . S
H548 C532 0.931 . S
H549 C537 0.929 . S
H550 C538 0.960 . S
H551 C538 0.962 . S
H552 C538 0.960 1_554 S
H553 C539 0.961 . S
H554 C539 0.961 . S
H555 C539 0.961 . S
H556 C540 0.931 . S
H557 C545 0.930 . S
H558 C546 0.956 . S
H559 C546 0.961 . S
H560 C546 0.961 . S
H561 C547 0.958 . S
H562 C547 0.961 . S
H563 C547 0.960 . S
C564 C565 1.391 . S
C564 C566 1.394 . S
C564 H580 0.931 . S
C565 C564 1.391 . S
C565 C569 1.376 . S
C566 C564 1.394 . S
C566 C567 1.369 . S
C566 C570 1.531 . S
C567 C566 1.369 . S
C567 C568 1.410 . S
C567 C575 1.503 . S
C568 C567 1.410 . S
C568 C569 1.392 . S
C568 C571 1.511 . S
C569 C565 1.376 . S
C569 C568 1.392 . S
C569 H581 0.929 . S
C570 C566 1.531 . S
C570 H582 0.960 . S
C570 H583 0.962 . S
C570 H584 0.960 . S
C571 C568 1.511 . S
C571 H585 0.961 . S
C571 H586 0.961 . S
C571 H587 0.961 . S
C572 C573 1.370 . S
C572 C574 1.363 . S
C572 H588 0.931 . S
C573 C572 1.370 . S
C573 C577 1.408 . S
C574 C572 1.363 . S
C574 C575 1.370 . S
C574 C578 1.524 . S
C575 C567 1.503 . S
C575 C574 1.370 . S
C575 C576 1.403 . S
C576 C575 1.403 . S
C576 C577 1.404 . S
C576 C579 1.539 . S
C577 C573 1.408 . S
C577 C576 1.404 . S
C577 H589 0.930 . S
C578 C574 1.524 . S
C578 H590 0.956 . S
C578 H591 0.961 . S
C578 H592 0.961 . S
C579 C576 1.539 . S
C579 H593 0.958 . S
C579 H594 0.961 . S
C579 H595 0.960 . S
H580 C564 0.931 . S
H581 C569 0.929 . S
H582 C570 0.960 . S
H583 C570 0.962 . S
H584 C570 0.960 . S
H585 C571 0.961 . S
H586 C571 0.961 . S
H587 C571 0.961 . S
H588 C572 0.931 . S
H589 C577 0.930 . S
H590 C578 0.956 . S
H591 C578 0.961 . S
H592 C578 0.961 . S
H593 C579 0.958 . S
H594 C579 0.961 . S
H595 C579 0.960 . S
C596 C597 1.391 . S
C596 C598 1.394 . S
C596 H612 0.931 . S
C597 C596 1.391 . S
C597 C601 1.376 . S
C598 C596 1.394 . S
C598 C599 1.369 . S
C598 C602 1.531 . S
C599 C598 1.369 . S
C599 C600 1.410 . S
C599 C607 1.503 . S
C600 C599 1.410 . S
C600 C601 1.392 . S
C600 C603 1.511 . S
C601 C597 1.376 . S
C601 C600 1.392 . S
C601 H613 0.929 . S
C602 C598 1.531 . S
C602 H614 0.960 . S
C602 H615 0.962 . S
C602 H616 0.960 . S
C603 C600 1.511 . S
C603 H617 0.961 . S
C603 H618 0.961 . S
C603 H619 0.961 . S
C604 C605 1.370 . S
C604 C606 1.363 . S
C604 H620 0.931 . S
C605 C604 1.370 . S
C605 C609 1.408 . S
C606 C604 1.363 . S
C606 C607 1.370 . S
C606 C610 1.524 . S
C607 C599 1.503 . S
C607 C606 1.370 . S
C607 C608 1.403 . S
C608 C607 1.403 . S
C608 C609 1.404 . S
C608 C611 1.539 . S
C609 C605 1.408 . S
C609 C608 1.404 . S
C609 H621 0.930 . S
C610 C606 1.524 . S
C610 H622 0.956 . S
C610 H623 0.961 . S
C610 H624 0.961 . S
C611 C608 1.539 . S
C611 H625 0.958 . S
C611 H626 0.961 . S
C611 H627 0.960 . S
H612 C596 0.931 . S
H613 C601 0.929 . S
H614 C602 0.960 . S
H615 C602 0.962 . S
H616 C602 0.960 . S
H617 C603 0.961 . S
H618 C603 0.961 . S
H619 C603 0.961 . S
H620 C604 0.931 . S
H621 C609 0.930 . S
H622 C610 0.956 . S
H623 C610 0.961 . S
H624 C610 0.961 . S
H625 C611 0.958 . S
H626 C611 0.961 . S
H627 C611 0.960 . S
C628 C629 1.391 . S
C628 C630 1.394 . S
C628 H644 0.931 . S
C629 C628 1.391 . S
C629 C633 1.376 . S
C630 C628 1.394 . S
C630 C631 1.369 . S
C630 C634 1.531 . S
C631 C630 1.369 . S
C631 C632 1.410 . S
C631 C639 1.503 . S
C632 C631 1.410 . S
C632 C633 1.392 . S
C632 C635 1.511 . S
C633 C629 1.376 . S
C633 C632 1.392 . S
C633 H645 0.929 . S
C634 C630 1.531 . S
C634 H646 0.960 . S
C634 H647 0.962 . S
C634 H648 0.960 . S
C635 C632 1.511 . S
C635 H649 0.961 . S
C635 H650 0.961 . S
C635 H651 0.961 . S
C636 C637 1.370 . S
C636 C638 1.363 . S
C636 H652 0.931 . S
C637 C636 1.370 . S
C637 C641 1.408 . S
C638 C636 1.363 . S
C638 C639 1.370 . S
C638 C642 1.524 . S
C639 C631 1.503 . S
C639 C638 1.370 . S
C639 C640 1.403 . S
C640 C639 1.403 . S
C640 C641 1.404 . S
C640 C643 1.539 . S
C641 C637 1.408 . S
C641 C640 1.404 . S
C641 H653 0.930 . S
C642 C638 1.524 . S
C642 H654 0.956 . S
C642 H655 0.961 . S
C642 H656 0.961 . S
C643 C640 1.539 . S
C643 H657 0.958 . S
C643 H658 0.961 . S
C643 H659 0.960 . S
H644 C628 0.931 . S
H645 C633 0.929 . S
H646 C634 0.960 . S
H647 C634 0.962 . S
H648 C634 0.960 . S
H649 C635 0.961 . S
H650 C635 0.961 . S
H651 C635 0.961 . S
H652 C636 0.931 . S
H653 C641 0.930 . S
H654 C642 0.956 . S
H655 C642 0.961 . S
H656 C642 0.961 . S
H657 C643 0.958 . S
H658 C643 0.961 . S
H659 C643 0.960 . S
C660 C661 1.391 . S
C660 C662 1.394 . S
C660 H676 0.931 . S
C661 C660 1.391 . S
C661 C665 1.376 . S
C662 C660 1.394 . S
C662 C663 1.369 . S
C662 C666 1.531 . S
C663 C662 1.369 . S
C663 C664 1.410 . S
C663 C671 1.503 . S
C664 C663 1.410 . S
C664 C665 1.392 . S
C664 C667 1.511 . S
C665 C661 1.376 . S
C665 C664 1.392 . S
C665 H677 0.929 . S
C666 C662 1.531 . S
C666 H678 0.960 . S
C666 H679 0.962 . S
C666 H680 0.960 . S
C667 C664 1.511 . S
C667 H681 0.961 . S
C667 H682 0.961 . S
C667 H683 0.961 . S
C668 C669 1.370 . S
C668 C670 1.363 . S
C668 H684 0.931 . S
C669 C668 1.370 . S
C669 C673 1.408 . S
C670 C668 1.363 . S
C670 C671 1.370 1_556 S
C670 C674 1.524 1_556 S
C671 C663 1.503 . S
C671 C670 1.370 1_554 S
C671 C672 1.403 1_554 S
C672 C671 1.403 1_556 S
C672 C673 1.404 . S
C672 C675 1.539 1_556 S
C673 C669 1.408 . S
C673 C672 1.404 . S
C673 H685 0.930 . S
C674 C670 1.524 1_554 S
C674 H686 0.956 . S
C674 H687 0.961 . S
C674 H688 0.961 1_554 S
C675 C672 1.539 1_554 S
C675 H689 0.958 . S
C675 H690 0.961 1_554 S
C675 H691 0.960 . S
H676 C660 0.931 . S
H677 C665 0.929 . S
H678 C666 0.960 . S
H679 C666 0.962 . S
H680 C666 0.960 . S
H681 C667 0.961 . S
H682 C667 0.961 . S
H683 C667 0.961 . S
H684 C668 0.931 . S
H685 C673 0.930 . S
H686 C674 0.956 . S
H687 C674 0.961 . S
H688 C674 0.961 1_556 S
H689 C675 0.958 . S
H690 C675 0.961 1_556 S
H691 C675 0.960 . S
C692 C693 1.391 . S
C692 C694 1.394 . S
C692 H708 0.931 . S
C693 C692 1.391 . S
C693 C697 1.376 . S
C694 C692 1.394 . S
C694 C695 1.369 . S
C694 C698 1.531 . S
C695 C694 1.369 . S
C695 C696 1.410 . S
C695 C703 1.503 . S
C696 C695 1.410 . S
C696 C697 1.392 . S
C696 C699 1.511 . S
C697 C693 1.376 . S
C697 C696 1.392 . S
C697 H709 0.929 . S
C698 C694 1.531 . S
C698 H710 0.960 . S
C698 H711 0.962 . S
C698 H712 0.960 . S
C699 C696 1.511 . S
C699 H713 0.961 . S
C699 H714 0.961 . S
C699 H715 0.961 . S
C700 C701 1.370 . S
C700 C702 1.363 . S
C700 H716 0.931 . S
C701 C700 1.370 . S
C701 C705 1.408 . S
C702 C700 1.363 . S
C702 C703 1.370 1_556 S
C702 C706 1.524 1_556 S
C703 C695 1.503 . S
C703 C702 1.370 1_554 S
C703 C704 1.403 1_554 S
C704 C703 1.403 1_556 S
C704 C705 1.404 . S
C704 C707 1.539 1_556 S
C705 C701 1.408 . S
C705 C704 1.404 . S
C705 H717 0.930 . S
C706 C702 1.524 1_554 S
C706 H718 0.956 . S
C706 H719 0.961 . S
C706 H720 0.961 . S
C707 C704 1.539 1_554 S
C707 H721 0.958 . S
C707 H722 0.961 1_554 S
C707 H723 0.960 . S
H708 C692 0.931 . S
H709 C697 0.929 . S
H710 C698 0.960 . S
H711 C698 0.962 . S
H712 C698 0.960 . S
H713 C699 0.961 . S
H714 C699 0.961 . S
H715 C699 0.961 . S
H716 C700 0.931 . S
H717 C705 0.930 . S
H718 C706 0.956 . S
H719 C706 0.961 . S
H720 C706 0.961 . S
H721 C707 0.958 . S
H722 C707 0.961 1_556 S
H723 C707 0.960 . S
C724 C725 1.391 . S
C724 C726 1.394 . S
C724 H740 0.931 . S
C725 C724 1.391 . S
C725 C729 1.376 . S
C726 C724 1.394 . S
C726 C727 1.369 1_556 S
C726 C730 1.531 1_556 S
C727 C726 1.369 1_554 S
C727 C728 1.410 1_554 S
C727 C735 1.503 . S
C728 C727 1.410 1_556 S
C728 C729 1.392 . S
C728 C731 1.511 1_556 S
C729 C725 1.376 . S
C729 C728 1.392 . S
C729 H741 0.929 . S
C730 C726 1.531 1_554 S
C730 H742 0.960 . S
C730 H743 0.962 . S
C730 H744 0.960 1_554 S
C731 C728 1.511 1_554 S
C731 H745 0.961 . S
C731 H746 0.961 . S
C731 H747 0.961 . S
C732 C733 1.370 . S
C732 C734 1.363 . S
C732 H748 0.931 . S
C733 C732 1.370 . S
C733 C737 1.408 . S
C734 C732 1.363 . S
C734 C735 1.370 . S
C734 C738 1.524 . S
C735 C727 1.503 . S
C735 C734 1.370 . S
C735 C736 1.403 . S
C736 C735 1.403 . S
C736 C737 1.404 . S
C736 C739 1.539 . S
C737 C733 1.408 . S
C737 C736 1.404 . S
C737 H749 0.930 . S
C738 C734 1.524 . S
C738 H750 0.956 . S
C738 H751 0.961 . S
C738 H752 0.961 . S
C739 C736 1.539 . S
C739 H753 0.958 . S
C739 H754 0.961 . S
C739 H755 0.960 . S
H740 C724 0.931 . S
H741 C729 0.929 . S
H742 C730 0.960 . S
H743 C730 0.962 . S
H744 C730 0.960 1_556 S
H745 C731 0.961 . S
H746 C731 0.961 . S
H747 C731 0.961 . S
H748 C732 0.931 . S
H749 C737 0.930 . S
H750 C738 0.956 . S
H751 C738 0.961 . S
H752 C738 0.961 . S
H753 C739 0.958 . S
H754 C739 0.961 . S
H755 C739 0.960 . S
C756 C757 1.391 . S
C756 C758 1.394 . S
C756 H772 0.931 . S
C757 C756 1.391 . S
C757 C761 1.376 . S
C758 C756 1.394 . S
C758 C759 1.369 . S
C758 C762 1.531 . S
C759 C758 1.369 . S
C759 C760 1.410 . S
C759 C767 1.503 . S
C760 C759 1.410 . S
C760 C761 1.392 . S
C760 C763 1.511 . S
C761 C757 1.376 . S
C761 C760 1.392 . S
C761 H773 0.929 . S
C762 C758 1.531 . S
C762 H774 0.960 . S
C762 H775 0.962 . S
C762 H776 0.960 . S
C763 C760 1.511 . S
C763 H777 0.961 . S
C763 H778 0.961 . S
C763 H779 0.961 . S
C764 C765 1.370 . S
C764 C766 1.363 . S
C764 H780 0.931 . S
C765 C764 1.370 . S
C765 C769 1.408 . S
C766 C764 1.363 . S
C766 C767 1.370 . S
C766 C770 1.524 . S
C767 C759 1.503 . S
C767 C766 1.370 . S
C767 C768 1.403 . S
C768 C767 1.403 . S
C768 C769 1.404 . S
C768 C771 1.539 . S
C769 C765 1.408 . S
C769 C768 1.404 . S
C769 H781 0.930 . S
C770 C766 1.524 . S
C770 H782 0.956 . S
C770 H783 0.961 . S
C770 H784 0.961 . S
C771 C768 1.539 . S
C771 H785 0.958 . S
C771 H786 0.961 . S
C771 H787 0.960 . S
H772 C756 0.931 . S
H773 C761 0.929 . S
H774 C762 0.960 . S
H775 C762 0.962 . S
H776 C762 0.960 . S
H777 C763 0.961 . S
H778 C763 0.961 . S
H779 C763 0.961 . S
H780 C764 0.931 . S
H781 C769 0.930 . S
H782 C770 0.956 . S
H783 C770 0.961 . S
H784 C770 0.961 . S
H785 C771 0.958 . S
H786 C771 0.961 . S
H787 C771 0.960 . S
C788 C789 1.391 . S
C788 C790 1.394 . S
C788 H804 0.931 . S
C789 C788 1.391 . S
C789 C793 1.376 . S
C790 C788 1.394 . S
C790 C791 1.369 . S
C790 C794 1.531 . S
C791 C790 1.369 . S
C791 C792 1.410 . S
C791 C799 1.503 . S
C792 C791 1.410 . S
C792 C793 1.392 . S
C792 C795 1.511 . S
C793 C789 1.376 . S
C793 C792 1.392 . S
C793 H805 0.929 . S
C794 C790 1.531 . S
C794 H806 0.960 . S
C794 H807 0.962 . S
C794 H808 0.960 . S
C795 C792 1.511 . S
C795 H809 0.961 . S
C795 H810 0.961 . S
C795 H811 0.961 . S
C796 C797 1.370 . S
C796 C798 1.363 . S
C796 H812 0.931 . S
C797 C796 1.370 . S
C797 C801 1.408 . S
C798 C796 1.363 . S
C798 C799 1.370 . S
C798 C802 1.524 . S
C799 C791 1.503 . S
C799 C798 1.370 . S
C799 C800 1.403 . S
C800 C799 1.403 . S
C800 C801 1.404 . S
C800 C803 1.539 . S
C801 C797 1.408 . S
C801 C800 1.404 . S
C801 H813 0.930 . S
C802 C798 1.524 . S
C802 H814 0.956 . S
C802 H815 0.961 . S
C802 H816 0.961 . S
C803 C800 1.539 . S
C803 H817 0.958 . S
C803 H818 0.961 . S
C803 H819 0.960 . S
H804 C788 0.931 . S
H805 C793 0.929 . S
H806 C794 0.960 . S
H807 C794 0.962 . S
H808 C794 0.960 . S
H809 C795 0.961 . S
H810 C795 0.961 . S
H811 C795 0.961 . S
H812 C796 0.931 . S
H813 C801 0.930 . S
H814 C802 0.956 . S
H815 C802 0.961 . S
H816 C802 0.961 . S
H817 C803 0.958 . S
H818 C803 0.961 . S
H819 C803 0.960 . S
C820 C821 1.391 . S
C820 C822 1.394 . S
C820 H836 0.931 . S
C821 C820 1.391 . S
C821 C825 1.376 . S
C822 C820 1.394 . S
C822 C823 1.369 . S
C822 C826 1.531 . S
C823 C822 1.369 . S
C823 C824 1.410 . S
C823 C831 1.503 . S
C824 C823 1.410 . S
C824 C825 1.392 . S
C824 C827 1.511 . S
C825 C821 1.376 . S
C825 C824 1.392 . S
C825 H837 0.929 . S
C826 C822 1.531 . S
C826 H838 0.960 . S
C826 H839 0.962 . S
C826 H840 0.960 . S
C827 C824 1.511 . S
C827 H841 0.961 . S
C827 H842 0.961 . S
C827 H843 0.961 . S
C828 C829 1.370 . S
C828 C830 1.363 . S
C828 H844 0.931 . S
C829 C828 1.370 . S
C829 C833 1.408 . S
C830 C828 1.363 . S
C830 C831 1.370 . S
C830 C834 1.524 . S
C831 C823 1.503 . S
C831 C830 1.370 . S
C831 C832 1.403 . S
C832 C831 1.403 . S
C832 C833 1.404 . S
C832 C835 1.539 . S
C833 C829 1.408 . S
C833 C832 1.404 . S
C833 H845 0.930 . S
C834 C830 1.524 . S
C834 H846 0.956 . S
C834 H847 0.961 . S
C834 H848 0.961 . S
C835 C832 1.539 . S
C835 H849 0.958 . S
C835 H850 0.961 . S
C835 H851 0.960 . S
H836 C820 0.931 . S
H837 C825 0.929 . S
H838 C826 0.960 . S
H839 C826 0.962 . S
H840 C826 0.960 . S
H841 C827 0.961 . S
H842 C827 0.961 . S
H843 C827 0.961 . S
H844 C828 0.931 . S
H845 C833 0.930 . S
H846 C834 0.956 . S
H847 C834 0.961 . S
H848 C834 0.961 . S
H849 C835 0.958 . S
H850 C835 0.961 . S
H851 C835 0.960 . S
C852 C853 1.391 . S
C852 C854 1.394 . S
C852 H868 0.931 . S
C853 C852 1.391 . S
C853 C857 1.376 . S
C854 C852 1.394 . S
C854 C855 1.369 . S
C854 C858 1.531 . S
C855 C854 1.369 . S
C855 C856 1.410 . S
C855 C863 1.503 . S
C856 C855 1.410 . S
C856 C857 1.392 . S
C856 C859 1.511 . S
C857 C853 1.376 . S
C857 C856 1.392 . S
C857 H869 0.929 . S
C858 C854 1.531 . S
C858 H870 0.960 . S
C858 H871 0.962 . S
C858 H872 0.960 . S
C859 C856 1.511 . S
C859 H873 0.961 . S
C859 H874 0.961 . S
C859 H875 0.961 . S
C860 C861 1.370 . S
C860 C862 1.363 . S
C860 H876 0.931 . S
C861 C860 1.370 . S
C861 C865 1.408 . S
C862 C860 1.363 . S
C862 C863 1.370 . S
C862 C866 1.524 . S
C863 C855 1.503 . S
C863 C862 1.370 . S
C863 C864 1.403 . S
C864 C863 1.403 . S
C864 C865 1.404 . S
C864 C867 1.539 . S
C865 C861 1.408 . S
C865 C864 1.404 . S
C865 H877 0.930 . S
C866 C862 1.524 . S
C866 H878 0.956 . S
C866 H879 0.961 . S
C866 H880 0.961 . S
C867 C864 1.539 . S
C867 H881 0.958 . S
C867 H882 0.961 . S
C867 H883 0.960 . S
H868 C852 0.931 . S
H869 C857 0.929 . S
H870 C858 0.960 . S
H871 C858 0.962 . S
H872 C858 0.960 . S
H873 C859 0.961 . S
H874 C859 0.961 . S
H875 C859 0.961 . S
H876 C860 0.931 . S
H877 C865 0.930 . S
H878 C866 0.956 . S
H879 C866 0.961 . S
H880 C866 0.961 . S
H881 C867 0.958 . S
H882 C867 0.961 . S
H883 C867 0.960 . S
C884 C885 1.391 . S
C884 C886 1.394 . S
C884 H900 0.931 . S
C885 C884 1.391 . S
C885 C889 1.376 . S
C886 C884 1.394 . S
C886 C887 1.369 . S
C886 C890 1.531 . S
C887 C886 1.369 . S
C887 C888 1.410 . S
C887 C895 1.503 . S
C888 C887 1.410 . S
C888 C889 1.392 . S
C888 C891 1.511 . S
C889 C885 1.376 . S
C889 C888 1.392 . S
C889 H901 0.929 . S
C890 C886 1.531 . S
C890 H902 0.960 . S
C890 H903 0.962 . S
C890 H904 0.960 . S
C891 C888 1.511 . S
C891 H905 0.961 . S
C891 H906 0.961 . S
C891 H907 0.961 . S
C892 C893 1.370 . S
C892 C894 1.363 . S
C892 H908 0.931 . S
C893 C892 1.370 . S
C893 C897 1.408 . S
C894 C892 1.363 . S
C894 C895 1.370 . S
C894 C898 1.524 . S
C895 C887 1.503 . S
C895 C894 1.370 . S
C895 C896 1.403 . S
C896 C895 1.403 . S
C896 C897 1.404 . S
C896 C899 1.539 . S
C897 C893 1.408 . S
C897 C896 1.404 . S
C897 H909 0.930 . S
C898 C894 1.524 . S
C898 H910 0.956 . S
C898 H911 0.961 . S
C898 H912 0.961 . S
C899 C896 1.539 . S
C899 H913 0.958 . S
C899 H914 0.961 . S
C899 H915 0.960 . S
H900 C884 0.931 . S
H901 C889 0.929 . S
H902 C890 0.960 . S
H903 C890 0.962 . S
H904 C890 0.960 . S
H905 C891 0.961 . S
H906 C891 0.961 . S
H907 C891 0.961 . S
H908 C892 0.931 . S
H909 C897 0.930 . S
H910 C898 0.956 . S
H911 C898 0.961 . S
H912 C898 0.961 . S
H913 C899 0.958 . S
H914 C899 0.961 . S
H915 C899 0.960 . S
C916 C917 1.391 . S
C916 C918 1.394 . S
C916 H932 0.931 . S
C917 C916 1.391 . S
C917 C921 1.376 . S
C918 C916 1.394 . S
C918 C919 1.369 . S
C918 C922 1.531 . S
C919 C918 1.369 . S
C919 C920 1.410 . S
C919 C927 1.503 . S
C920 C919 1.410 . S
C920 C921 1.392 . S
C920 C923 1.511 . S
C921 C917 1.376 . S
C921 C920 1.392 . S
C921 H933 0.929 . S
C922 C918 1.531 . S
C922 H934 0.960 . S
C922 H935 0.962 . S
C922 H936 0.960 . S
C923 C920 1.511 . S
C923 H937 0.961 . S
C923 H938 0.961 . S
C923 H939 0.961 . S
C924 C925 1.370 . S
C924 C926 1.363 . S
C924 H940 0.931 . S
C925 C924 1.370 . S
C925 C929 1.408 . S
C926 C924 1.363 . S
C926 C927 1.370 . S
C926 C930 1.524 . S
C927 C919 1.503 . S
C927 C926 1.370 . S
C927 C928 1.403 . S
C928 C927 1.403 . S
C928 C929 1.404 . S
C928 C931 1.539 . S
C929 C925 1.408 . S
C929 C928 1.404 . S
C929 H941 0.930 . S
C930 C926 1.524 . S
C930 H942 0.956 . S
C930 H943 0.961 . S
C930 H944 0.961 . S
C931 C928 1.539 . S
C931 H945 0.958 . S
C931 H946 0.961 . S
C931 H947 0.960 . S
H932 C916 0.931 . S
H933 C921 0.929 . S
H934 C922 0.960 . S
H935 C922 0.962 . S
H936 C922 0.960 . S
H937 C923 0.961 . S
H938 C923 0.961 . S
H939 C923 0.961 . S
H940 C924 0.931 . S
H941 C929 0.930 . S
H942 C930 0.956 . S
H943 C930 0.961 . S
H944 C930 0.961 . S
H945 C931 0.958 . S
H946 C931 0.961 . S
H947 C931 0.960 . S
C948 C949 1.391 . S
C948 C950 1.394 . S
C948 H964 0.931 . S
C949 C948 1.391 . S
C949 C953 1.376 . S
C950 C948 1.394 . S
C950 C951 1.369 . S
C950 C954 1.531 . S
C951 C950 1.369 . S
C951 C952 1.410 . S
C951 C959 1.503 . S
C952 C951 1.410 . S
C952 C953 1.392 . S
C952 C955 1.511 . S
C953 C949 1.376 . S
C953 C952 1.392 . S
C953 H965 0.929 . S
C954 C950 1.531 . S
C954 H966 0.960 . S
C954 H967 0.962 . S
C954 H968 0.960 . S
C955 C952 1.511 . S
C955 H969 0.961 . S
C955 H970 0.961 . S
C955 H971 0.961 . S
C956 C957 1.370 . S
C956 C958 1.363 . S
C956 H972 0.931 . S
C957 C956 1.370 . S
C957 C961 1.408 . S
C958 C956 1.363 . S
C958 C959 1.370 . S
C958 C962 1.524 . S
C959 C951 1.503 . S
C959 C958 1.370 . S
C959 C960 1.403 . S
C960 C959 1.403 . S
C960 C961 1.404 . S
C960 C963 1.539 . S
C961 C957 1.408 . S
C961 C960 1.404 . S
C961 H973 0.930 . S
C962 C958 1.524 . S
C962 H974 0.956 . S
C962 H975 0.961 . S
C962 H976 0.961 . S
C963 C960 1.539 . S
C963 H977 0.958 . S
C963 H978 0.961 . S
C963 H979 0.960 . S
H964 C948 0.931 . S
H965 C953 0.929 . S
H966 C954 0.960 . S
H967 C954 0.962 . S
H968 C954 0.960 . S
H969 C955 0.961 . S
H970 C955 0.961 . S
H971 C955 0.961 . S
H972 C956 0.931 . S
H973 C961 0.930 . S
H974 C962 0.956 . S
H975 C962 0.961 . S
H976 C962 0.961 . S
H977 C963 0.958 . S
H978 C963 0.961 . S
H979 C963 0.960 . S
C980 C981 1.391 . S
C980 C982 1.394 . S
C980 H996 0.931 . S
C981 C980 1.391 . S
C981 C985 1.376 . S
C982 C980 1.394 . S
C982 C983 1.369 . S
C982 C986 1.531 . S
C983 C982 1.369 . S
C983 C984 1.410 . S
C983 C991 1.503 . S
C984 C983 1.410 . S
C984 C985 1.392 . S
C984 C987 1.511 . S
C985 C981 1.376 . S
C985 C984 1.392 . S
C985 H997 0.929 . S
C986 C982 1.531 . S
C986 H998 0.960 . S
C986 H999 0.962 . S
C986 H1000 0.960 . S
C987 C984 1.511 . S
C987 H1001 0.961 . S
C987 H1002 0.961 . S
C987 H1003 0.961 . S
C988 C989 1.370 . S
C988 C990 1.363 . S
C988 H1004 0.931 . S
C989 C988 1.370 . S
C989 C993 1.408 . S
C990 C988 1.363 . S
C990 C991 1.370 . S
C990 C994 1.524 . S
C991 C983 1.503 . S
C991 C990 1.370 . S
C991 C992 1.403 . S
C992 C991 1.403 . S
C992 C993 1.404 . S
C992 C995 1.539 . S
C993 C989 1.408 . S
C993 C992 1.404 . S
C993 H1005 0.930 . S
C994 C990 1.524 . S
C994 H1006 0.956 . S
C994 H1007 0.961 . S
C994 H1008 0.961 . S
C995 C992 1.539 . S
C995 H1009 0.958 . S
C995 H1010 0.961 . S
C995 H1011 0.960 . S
H996 C980 0.931 . S
H997 C985 0.929 . S
H998 C986 0.960 . S
H999 C986 0.962 . S
H1000 C986 0.960 . S
H1001 C987 0.961 . S
H1002 C987 0.961 . S
H1003 C987 0.961 . S
H1004 C988 0.931 . S
H1005 C993 0.930 . S
H1006 C994 0.956 . S
H1007 C994 0.961 . S
H1008 C994 0.961 . S
H1009 C995 0.958 . S
H1010 C995 0.961 . S
H1011 C995 0.960 . S
C1012 C1013 1.391 . S
C1012 C1014 1.394 . S
C1012 H1028 0.931 . S
C1013 C1012 1.391 . S
C1013 C1017 1.376 . S
C1014 C1012 1.394 . S
C1014 C1015 1.369 . S
C1014 C1018 1.531 . S
C1015 C1014 1.369 . S
C1015 C1016 1.410 . S
C1015 C1023 1.503 . S
C1016 C1015 1.410 . S
C1016 C1017 1.392 . S
C1016 C1019 1.511 . S
C1017 C1013 1.376 . S
C1017 C1016 1.392 . S
C1017 H1029 0.929 . S
C1018 C1014 1.531 . S
C1018 H1030 0.960 . S
C1018 H1031 0.962 . S
C1018 H1032 0.960 . S
C1019 C1016 1.511 . S
C1019 H1033 0.961 . S
C1019 H1034 0.961 . S
C1019 H1035 0.961 . S
C1020 C1021 1.370 . S
C1020 C1022 1.363 . S
C1020 H1036 0.931 . S
C1021 C1020 1.370 . S
C1021 C1025 1.408 . S
C1022 C1020 1.363 . S
C1022 C1023 1.370 . S
C1022 C1026 1.524 . S
C1023 C1015 1.503 . S
C1023 C1022 1.370 . S
C1023 C1024 1.403 . S
C1024 C1023 1.403 . S
C1024 C1025 1.404 . S
C1024 C1027 1.539 . S
C1025 C1021 1.408 . S
C1025 C1024 1.404 . S
C1025 H1037 0.930 . S
C1026 C1022 1.524 . S
C1026 H1038 0.956 . S
C1026 H1039 0.961 . S
C1026 H1040 0.961 . S
C1027 C1024 1.539 . S
C1027 H1041 0.958 . S
C1027 H1042 0.961 . S
C1027 H1043 0.960 . S
H1028 C1012 0.931 . S
H1029 C1017 0.929 . S
H1030 C1018 0.960 . S
H1031 C1018 0.962 . S
H1032 C1018 0.960 . S
H1033 C1019 0.961 . S
H1034 C1019 0.961 . S
H1035 C1019 0.961 . S
H1036 C1020 0.931 . S
H1037 C1025 0.930 . S
H1038 C1026 0.956 . S
H1039 C1026 0.961 . S
H1040 C1026 0.961 . S
H1041 C1027 0.958 . S
H1042 C1027 0.961 . S
H1043 C1027 0.960 . S
C1044 C1045 1.391 . S
C1044 C1046 1.394 . S
C1044 H1060 0.931 . S
C1045 C1044 1.391 . S
C1045 C1049 1.376 . S
C1046 C1044 1.394 . S
C1046 C1047 1.369 . S
C1046 C1050 1.531 . S
C1047 C1046 1.369 . S
C1047 C1048 1.410 . S
C1047 C1055 1.503 . S
C1048 C1047 1.410 . S
C1048 C1049 1.392 . S
C1048 C1051 1.511 . S
C1049 C1045 1.376 . S
C1049 C1048 1.392 . S
C1049 H1061 0.929 . S
C1050 C1046 1.531 . S
C1050 H1062 0.960 . S
C1050 H1063 0.962 . S
C1050 H1064 0.960 . S
C1051 C1048 1.511 . S
C1051 H1065 0.961 . S
C1051 H1066 0.961 . S
C1051 H1067 0.961 . S
C1052 C1053 1.370 . S
C1052 C1054 1.363 . S
C1052 H1068 0.931 . S
C1053 C1052 1.370 . S
C1053 C1057 1.408 . S
C1054 C1052 1.363 . S
C1054 C1055 1.370 . S
C1054 C1058 1.524 . S
C1055 C1047 1.503 . S
C1055 C1054 1.370 . S
C1055 C1056 1.403 . S
C1056 C1055 1.403 . S
C1056 C1057 1.404 . S
C1056 C1059 1.539 . S
C1057 C1053 1.408 . S
C1057 C1056 1.404 . S
C1057 H1069 0.930 . S
C1058 C1054 1.524 . S
C1058 H1070 0.956 . S
C1058 H1071 0.961 . S
C1058 H1072 0.961 . S
C1059 C1056 1.539 . S
C1059 H1073 0.958 . S
C1059 H1074 0.961 . S
C1059 H1075 0.960 . S
H1060 C1044 0.931 . S
H1061 C1049 0.929 . S
H1062 C1050 0.960 . S
H1063 C1050 0.962 . S
H1064 C1050 0.960 . S
H1065 C1051 0.961 . S
H1066 C1051 0.961 . S
H1067 C1051 0.961 . S
H1068 C1052 0.931 . S
H1069 C1057 0.930 . S
H1070 C1058 0.956 . S
H1071 C1058 0.961 . S
H1072 C1058 0.961 . S
H1073 C1059 0.958 . S
H1074 C1059 0.961 . S
H1075 C1059 0.960 . S
C1076 C1077 1.391 . S
C1076 C1078 1.394 . S
C1076 H1092 0.931 . S
C1077 C1076 1.391 . S
C1077 C1081 1.376 . S
C1078 C1076 1.394 . S
C1078 C1079 1.369 . S
C1078 C1082 1.531 . S
C1079 C1078 1.369 . S
C1079 C1080 1.410 . S
C1079 C1087 1.503 . S
C1080 C1079 1.410 . S
C1080 C1081 1.392 . S
C1080 C1083 1.511 . S
C1081 C1077 1.376 . S
C1081 C1080 1.392 . S
C1081 H1093 0.929 . S
C1082 C1078 1.531 . S
C1082 H1094 0.960 . S
C1082 H1095 0.962 . S
C1082 H1096 0.960 . S
C1083 C1080 1.511 . S
C1083 H1097 0.961 . S
C1083 H1098 0.961 . S
C1083 H1099 0.961 . S
C1084 C1085 1.370 . S
C1084 C1086 1.363 . S
C1084 H1100 0.931 . S
C1085 C1084 1.370 . S
C1085 C1089 1.408 . S
C1086 C1084 1.363 . S
C1086 C1087 1.370 . S
C1086 C1090 1.524 . S
C1087 C1079 1.503 . S
C1087 C1086 1.370 . S
C1087 C1088 1.403 . S
C1088 C1087 1.403 . S
C1088 C1089 1.404 . S
C1088 C1091 1.539 . S
C1089 C1085 1.408 . S
C1089 C1088 1.404 . S
C1089 H1101 0.930 . S
C1090 C1086 1.524 . S
C1090 H1102 0.956 . S
C1090 H1103 0.961 . S
C1090 H1104 0.961 . S
C1091 C1088 1.539 . S
C1091 H1105 0.958 . S
C1091 H1106 0.961 . S
C1091 H1107 0.960 . S
H1092 C1076 0.931 . S
H1093 C1081 0.929 . S
H1094 C1082 0.960 . S
H1095 C1082 0.962 . S
H1096 C1082 0.960 . S
H1097 C1083 0.961 . S
H1098 C1083 0.961 . S
H1099 C1083 0.961 . S
H1100 C1084 0.931 . S
H1101 C1089 0.930 . S
H1102 C1090 0.956 . S
H1103 C1090 0.961 . S
H1104 C1090 0.961 . S
H1105 C1091 0.958 . S
H1106 C1091 0.961 . S
H1107 C1091 0.960 . S
C1108 C1109 1.391 . S
C1108 C1110 1.394 . S
C1108 H1124 0.931 . S
C1109 C1108 1.391 . S
C1109 C1113 1.376 . S
C1110 C1108 1.394 . S
C1110 C1111 1.369 . S
C1110 C1114 1.531 . S
C1111 C1110 1.369 . S
C1111 C1112 1.410 . S
C1111 C1119 1.503 . S
C1112 C1111 1.410 . S
C1112 C1113 1.392 . S
C1112 C1115 1.511 . S
C1113 C1109 1.376 . S
C1113 C1112 1.392 . S
C1113 H1125 0.929 . S
C1114 C1110 1.531 . S
C1114 H1126 0.960 . S
C1114 H1127 0.962 . S
C1114 H1128 0.960 . S
C1115 C1112 1.511 . S
C1115 H1129 0.961 . S
C1115 H1130 0.961 . S
C1115 H1131 0.961 . S
C1116 C1117 1.370 . S
C1116 C1118 1.363 . S
C1116 H1132 0.931 . S
C1117 C1116 1.370 . S
C1117 C1121 1.408 . S
C1118 C1116 1.363 . S
C1118 C1119 1.370 . S
C1118 C1122 1.524 . S
C1119 C1111 1.503 . S
C1119 C1118 1.370 . S
C1119 C1120 1.403 . S
C1120 C1119 1.403 . S
C1120 C1121 1.404 . S
C1120 C1123 1.539 . S
C1121 C1117 1.408 . S
C1121 C1120 1.404 . S
C1121 H1133 0.930 . S
C1122 C1118 1.524 . S
C1122 H1134 0.956 . S
C1122 H1135 0.961 . S
C1122 H1136 0.961 . S
C1123 C1120 1.539 . S
C1123 H1137 0.958 . S
C1123 H1138 0.961 . S
C1123 H1139 0.960 . S
H1124 C1108 0.931 . S
H1125 C1113 0.929 . S
H1126 C1114 0.960 . S
H1127 C1114 0.962 . S
H1128 C1114 0.960 . S
H1129 C1115 0.961 . S
H1130 C1115 0.961 . S
H1131 C1115 0.961 . S
H1132 C1116 0.931 . S
H1133 C1121 0.930 . S
H1134 C1122 0.956 . S
H1135 C1122 0.961 . S
H1136 C1122 0.961 . S
H1137 C1123 0.958 . S
H1138 C1123 0.961 . S
H1139 C1123 0.960 . S
C1140 C1141 1.391 . S
C1140 C1142 1.394 . S
C1140 H1156 0.931 . S
C1141 C1140 1.391 . S
C1141 C1145 1.376 . S
C1142 C1140 1.394 . S
C1142 C1143 1.369 . S
C1142 C1146 1.531 . S
C1143 C1142 1.369 . S
C1143 C1144 1.410 . S
C1143 C1151 1.503 . S
C1144 C1143 1.410 . S
C1144 C1145 1.392 . S
C1144 C1147 1.511 . S
C1145 C1141 1.376 . S
C1145 C1144 1.392 . S
C1145 H1157 0.929 . S
C1146 C1142 1.531 . S
C1146 H1158 0.960 . S
C1146 H1159 0.962 . S
C1146 H1160 0.960 . S
C1147 C1144 1.511 . S
C1147 H1161 0.961 . S
C1147 H1162 0.961 . S
C1147 H1163 0.961 . S
C1148 C1149 1.370 . S
C1148 C1150 1.363 . S
C1148 H1164 0.931 . S
C1149 C1148 1.370 . S
C1149 C1153 1.408 . S
C1150 C1148 1.363 . S
C1150 C1151 1.370 . S
C1150 C1154 1.524 . S
C1151 C1143 1.503 . S
C1151 C1150 1.370 . S
C1151 C1152 1.403 . S
C1152 C1151 1.403 . S
C1152 C1153 1.404 . S
C1152 C1155 1.539 . S
C1153 C1149 1.408 . S
C1153 C1152 1.404 . S
C1153 H1165 0.930 . S
C1154 C1150 1.524 . S
C1154 H1166 0.956 . S
C1154 H1167 0.961 . S
C1154 H1168 0.961 . S
C1155 C1152 1.539 . S
C1155 H1169 0.958 . S
C1155 H1170 0.961 . S
C1155 H1171 0.960 . S
H1156 C1140 0.931 . S
H1157 C1145 0.929 . S
H1158 C1146 0.960 . S
H1159 C1146 0.962 . S
H1160 C1146 0.960 . S
H1161 C1147 0.961 . S
H1162 C1147 0.961 . S
H1163 C1147 0.961 . S
H1164 C1148 0.931 . S
H1165 C1153 0.930 . S
H1166 C1154 0.956 . S
H1167 C1154 0.961 . S
H1168 C1154 0.961 . S
H1169 C1155 0.958 . S
H1170 C1155 0.961 . S
H1171 C1155 0.960 . S
C1172 C1173 1.391 . S
C1172 C1174 1.394 . S
C1172 H1188 0.931 . S
C1173 C1172 1.391 . S
C1173 C1177 1.376 . S
C1174 C1172 1.394 . S
C1174 C1175 1.369 . S
C1174 C1178 1.531 . S
C1175 C1174 1.369 . S
C1175 C1176 1.410 . S
C1175 C1183 1.503 . S
C1176 C1175 1.410 . S
C1176 C1177 1.392 . S
C1176 C1179 1.511 . S
C1177 C1173 1.376 . S
C1177 C1176 1.392 . S
C1177 H1189 0.929 . S
C1178 C1174 1.531 . S
C1178 H1190 0.960 . S
C1178 H1191 0.962 . S
C1178 H1192 0.960 . S
C1179 C1176 1.511 . S
C1179 H1193 0.961 . S
C1179 H1194 0.961 . S
C1179 H1195 0.961 . S
C1180 C1181 1.370 . S
C1180 C1182 1.363 . S
C1180 H1196 0.931 . S
C1181 C1180 1.370 . S
C1181 C1185 1.408 . S
C1182 C1180 1.363 . S
C1182 C1183 1.370 . S
C1182 C1186 1.524 . S
C1183 C1175 1.503 . S
C1183 C1182 1.370 . S
C1183 C1184 1.403 . S
C1184 C1183 1.403 . S
C1184 C1185 1.404 . S
C1184 C1187 1.539 . S
C1185 C1181 1.408 . S
C1185 C1184 1.404 . S
C1185 H1197 0.930 . S
C1186 C1182 1.524 . S
C1186 H1198 0.956 . S
C1186 H1199 0.961 . S
C1186 H1200 0.961 . S
C1187 C1184 1.539 . S
C1187 H1201 0.958 . S
C1187 H1202 0.961 . S
C1187 H1203 0.960 . S
H1188 C1172 0.931 . S
H1189 C1177 0.929 . S
H1190 C1178 0.960 . S
H1191 C1178 0.962 . S
H1192 C1178 0.960 . S
H1193 C1179 0.961 . S
H1194 C1179 0.961 . S
H1195 C1179 0.961 . S
H1196 C1180 0.931 . S
H1197 C1185 0.930 . S
H1198 C1186 0.956 . S
H1199 C1186 0.961 . S
H1200 C1186 0.961 . S
H1201 C1187 0.958 . S
H1202 C1187 0.961 . S
H1203 C1187 0.960 . S
C1204 C1205 1.391 . S
C1204 C1206 1.394 . S
C1204 H1220 0.931 . S
C1205 C1204 1.391 . S
C1205 C1209 1.376 . S
C1206 C1204 1.394 . S
C1206 C1207 1.369 . S
C1206 C1210 1.531 . S
C1207 C1206 1.369 . S
C1207 C1208 1.410 . S
C1207 C1215 1.503 . S
C1208 C1207 1.410 . S
C1208 C1209 1.392 . S
C1208 C1211 1.511 . S
C1209 C1205 1.376 . S
C1209 C1208 1.392 . S
C1209 H1221 0.929 . S
C1210 C1206 1.531 . S
C1210 H1222 0.960 . S
C1210 H1223 0.962 . S
C1210 H1224 0.960 . S
C1211 C1208 1.511 . S
C1211 H1225 0.961 . S
C1211 H1226 0.961 . S
C1211 H1227 0.961 . S
C1212 C1213 1.370 . S
C1212 C1214 1.363 . S
C1212 H1228 0.931 . S
C1213 C1212 1.370 . S
C1213 C1217 1.408 . S
C1214 C1212 1.363 . S
C1214 C1215 1.370 . S
C1214 C1218 1.524 . S
C1215 C1207 1.503 . S
C1215 C1214 1.370 . S
C1215 C1216 1.403 . S
C1216 C1215 1.403 . S
C1216 C1217 1.404 . S
C1216 C1219 1.539 . S
C1217 C1213 1.408 . S
C1217 C1216 1.404 . S
C1217 H1229 0.930 . S
C1218 C1214 1.524 . S
C1218 H1230 0.956 . S
C1218 H1231 0.961 . S
C1218 H1232 0.961 . S
C1219 C1216 1.539 . S
C1219 H1233 0.958 . S
C1219 H1234 0.961 . S
C1219 H1235 0.960 . S
H1220 C1204 0.931 . S
H1221 C1209 0.929 . S
H1222 C1210 0.960 . S
H1223 C1210 0.962 . S
H1224 C1210 0.960 . S
H1225 C1211 0.961 . S
H1226 C1211 0.961 . S
H1227 C1211 0.961 . S
H1228 C1212 0.931 . S
H1229 C1217 0.930 . S
H1230 C1218 0.956 . S
H1231 C1218 0.961 . S
H1232 C1218 0.961 . S
H1233 C1219 0.958 . S
H1234 C1219 0.961 . S
H1235 C1219 0.960 . S
C1236 C1237 1.391 . S
C1236 C1238 1.394 . S
C1236 H1252 0.931 . S
C1237 C1236 1.391 . S
C1237 C1241 1.376 . S
C1238 C1236 1.394 . S
C1238 C1239 1.369 . S
C1238 C1242 1.531 . S
C1239 C1238 1.369 . S
C1239 C1240 1.410 . S
C1239 C1247 1.503 . S
C1240 C1239 1.410 . S
C1240 C1241 1.392 . S
C1240 C1243 1.511 . S
C1241 C1237 1.376 . S
C1241 C1240 1.392 . S
C1241 H1253 0.929 . S
C1242 C1238 1.531 . S
C1242 H1254 0.960 . S
C1242 H1255 0.962 . S
C1242 H1256 0.960 . S
C1243 C1240 1.511 . S
C1243 H1257 0.961 . S
C1243 H1258 0.961 . S
C1243 H1259 0.961 . S
C1244 C1245 1.370 . S
C1244 C1246 1.363 . S
C1244 H1260 0.931 . S
C1245 C1244 1.370 . S
C1245 C1249 1.408 . S
C1246 C1244 1.363 . S
C1246 C1247 1.370 . S
C1246 C1250 1.524 . S
C1247 C1239 1.503 . S
C1247 C1246 1.370 . S
C1247 C1248 1.403 . S
C1248 C1247 1.403 . S
C1248 C1249 1.404 . S
C1248 C1251 1.539 . S
C1249 C1245 1.408 . S
C1249 C1248 1.404 . S
C1249 H1261 0.930 . S
C1250 C1246 1.524 . S
C1250 H1262 0.956 . S
C1250 H1263 0.961 . S
C1250 H1264 0.961 . S
C1251 C1248 1.539 . S
C1251 H1265 0.958 . S
C1251 H1266 0.961 . S
C1251 H1267 0.960 . S
H1252 C1236 0.931 . S
H1253 C1241 0.929 . S
H1254 C1242 0.960 . S
H1255 C1242 0.962 . S
H1256 C1242 0.960 . S
H1257 C1243 0.961 . S
H1258 C1243 0.961 . S
H1259 C1243 0.961 . S
H1260 C1244 0.931 . S
H1261 C1249 0.930 . S
H1262 C1250 0.956 . S
H1263 C1250 0.961 . S
H1264 C1250 0.961 . S
H1265 C1251 0.958 . S
H1266 C1251 0.961 . S
H1267 C1251 0.960 . S
C1268 C1269 1.391 . S
C1268 C1270 1.394 . S
C1268 H1284 0.931 . S
C1269 C1268 1.391 . S
C1269 C1273 1.376 . S
C1270 C1268 1.394 . S
C1270 C1271 1.369 . S
C1270 C1274 1.531 . S
C1271 C1270 1.369 . S
C1271 C1272 1.410 . S
C1271 C1279 1.503 . S
C1272 C1271 1.410 . S
C1272 C1273 1.392 . S
C1272 C1275 1.511 . S
C1273 C1269 1.376 . S
C1273 C1272 1.392 . S
C1273 H1285 0.929 . S
C1274 C1270 1.531 . S
C1274 H1286 0.960 . S
C1274 H1287 0.962 . S
C1274 H1288 0.960 . S
C1275 C1272 1.511 . S
C1275 H1289 0.961 . S
C1275 H1290 0.961 . S
C1275 H1291 0.961 . S
C1276 C1277 1.370 . S
C1276 C1278 1.363 . S
C1276 H1292 0.931 . S
C1277 C1276 1.370 . S
C1277 C1281 1.408 . S
C1278 C1276 1.363 . S
C1278 C1279 1.370 . S
C1278 C1282 1.524 . S
C1279 C1271 1.503 . S
C1279 C1278 1.370 . S
C1279 C1280 1.403 . S
C1280 C1279 1.403 . S
C1280 C1281 1.404 . S
C1280 C1283 1.539 . S
C1281 C1277 1.408 . S
C1281 C1280 1.404 . S
C1281 H1293 0.930 . S
C1282 C1278 1.524 . S
C1282 H1294 0.956 . S
C1282 H1295 0.961 . S
C1282 H1296 0.961 . S
C1283 C1280 1.539 . S
C1283 H1297 0.958 . S
C1283 H1298 0.961 . S
C1283 H1299 0.960 . S
H1284 C1268 0.931 . S
H1285 C1273 0.929 . S
H1286 C1274 0.960 . S
H1287 C1274 0.962 . S
H1288 C1274 0.960 . S
H1289 C1275 0.961 . S
H1290 C1275 0.961 . S
H1291 C1275 0.961 . S
H1292 C1276 0.931 . S
H1293 C1281 0.930 . S
H1294 C1282 0.956 . S
H1295 C1282 0.961 . S
H1296 C1282 0.961 . S
H1297 C1283 0.958 . S
H1298 C1283 0.961 . S
H1299 C1283 0.960 . S
C1300 C1301 1.391 . S
C1300 C1302 1.394 . S
C1300 H1316 0.931 . S
C1301 C1300 1.391 . S
C1301 C1305 1.376 . S
C1302 C1300 1.394 . S
C1302 C1303 1.369 . S
C1302 C1306 1.531 . S
C1303 C1302 1.369 . S
C1303 C1304 1.410 . S
C1303 C1311 1.503 . S
C1304 C1303 1.410 . S
C1304 C1305 1.392 . S
C1304 C1307 1.511 . S
C1305 C1301 1.376 . S
C1305 C1304 1.392 . S
C1305 H1317 0.929 . S
C1306 C1302 1.531 . S
C1306 H1318 0.960 . S
C1306 H1319 0.962 . S
C1306 H1320 0.960 . S
C1307 C1304 1.511 . S
C1307 H1321 0.961 . S
C1307 H1322 0.961 . S
C1307 H1323 0.961 . S
C1308 C1309 1.370 . S
C1308 C1310 1.363 . S
C1308 H1324 0.931 . S
C1309 C1308 1.370 . S
C1309 C1313 1.408 . S
C1310 C1308 1.363 . S
C1310 C1311 1.370 . S
C1310 C1314 1.524 . S
C1311 C1303 1.503 . S
C1311 C1310 1.370 . S
C1311 C1312 1.403 . S
C1312 C1311 1.403 . S
C1312 C1313 1.404 . S
C1312 C1315 1.539 . S
C1313 C1309 1.408 . S
C1313 C1312 1.404 . S
C1313 H1325 0.930 . S
C1314 C1310 1.524 . S
C1314 H1326 0.956 . S
C1314 H1327 0.961 . S
C1314 H1328 0.961 . S
C1315 C1312 1.539 . S
C1315 H1329 0.958 . S
C1315 H1330 0.961 . S
C1315 H1331 0.960 . S
H1316 C1300 0.931 . S
H1317 C1305 0.929 . S
H1318 C1306 0.960 . S
H1319 C1306 0.962 . S
H1320 C1306 0.960 . S
H1321 C1307 0.961 . S
H1322 C1307 0.961 . S
H1323 C1307 0.961 . S
H1324 C1308 0.931 . S
H1325 C1313 0.930 . S
H1326 C1314 0.956 . S
H1327 C1314 0.961 . S
H1328 C1314 0.961 . S
H1329 C1315 0.958 . S
H1330 C1315 0.961 . S
H1331 C1315 0.960 . S
C1332 C1333 1.391 . S
C1332 C1334 1.394 . S
C1332 H1348 0.931 . S
C1333 C1332 1.391 . S
C1333 C1337 1.376 . S
C1334 C1332 1.394 . S
C1334 C1335 1.369 . S
C1334 C1338 1.531 . S
C1335 C1334 1.369 . S
C1335 C1336 1.410 . S
C1335 C1343 1.503 . S
C1336 C1335 1.410 . S
C1336 C1337 1.392 . S
C1336 C1339 1.511 . S
C1337 C1333 1.376 . S
C1337 C1336 1.392 . S
C1337 H1349 0.929 . S
C1338 C1334 1.531 . S
C1338 H1350 0.960 . S
C1338 H1351 0.962 . S
C1338 H1352 0.960 . S
C1339 C1336 1.511 . S
C1339 H1353 0.961 . S
C1339 H1354 0.961 . S
C1339 H1355 0.961 . S
C1340 C1341 1.370 . S
C1340 C1342 1.363 . S
C1340 H1356 0.931 . S
C1341 C1340 1.370 . S
C1341 C1345 1.408 . S
C1342 C1340 1.363 . S
C1342 C1343 1.370 . S
C1342 C1346 1.524 . S
C1343 C1335 1.503 . S
C1343 C1342 1.370 . S
C1343 C1344 1.403 . S
C1344 C1343 1.403 . S
C1344 C1345 1.404 . S
C1344 C1347 1.539 . S
C1345 C1341 1.408 . S
C1345 C1344 1.404 . S
C1345 H1357 0.930 . S
C1346 C1342 1.524 . S
C1346 H1358 0.956 . S
C1346 H1359 0.961 . S
C1346 H1360 0.961 . S
C1347 C1344 1.539 . S
C1347 H1361 0.958 . S
C1347 H1362 0.961 . S
C1347 H1363 0.960 . S
H1348 C1332 0.931 . S
H1349 C1337 0.929 . S
H1350 C1338 0.960 . S
H1351 C1338 0.962 . S
H1352 C1338 0.960 . S
H1353 C1339 0.961 . S
H1354 C1339 0.961 . S
H1355 C1339 0.961 . S
H1356 C1340 0.931 . S
H1357 C1345 0.930 . S
H1358 C1346 0.956 . S
H1359 C1346 0.961 . S
H1360 C1346 0.961 . S
H1361 C1347 0.958 . S
H1362 C1347 0.961 . S
H1363 C1347 0.960 . S
C1364 C1365 1.391 . S
C1364 C1366 1.394 . S
C1364 H1380 0.931 . S
C1365 C1364 1.391 . S
C1365 C1369 1.376 . S
C1366 C1364 1.394 . S
C1366 C1367 1.369 . S
C1366 C1370 1.531 . S
C1367 C1366 1.369 . S
C1367 C1368 1.410 . S
C1367 C1375 1.503 . S
C1368 C1367 1.410 . S
C1368 C1369 1.392 . S
C1368 C1371 1.511 . S
C1369 C1365 1.376 . S
C1369 C1368 1.392 . S
C1369 H1381 0.929 . S
C1370 C1366 1.531 . S
C1370 H1382 0.960 . S
C1370 H1383 0.962 . S
C1370 H1384 0.960 . S
C1371 C1368 1.511 . S
C1371 H1385 0.961 . S
C1371 H1386 0.961 . S
C1371 H1387 0.961 . S
C1372 C1373 1.370 . S
C1372 C1374 1.363 . S
C1372 H1388 0.931 . S
C1373 C1372 1.370 . S
C1373 C1377 1.408 . S
C1374 C1372 1.363 . S
C1374 C1375 1.370 . S
C1374 C1378 1.524 . S
C1375 C1367 1.503 . S
C1375 C1374 1.370 . S
C1375 C1376 1.403 . S
C1376 C1375 1.403 . S
C1376 C1377 1.404 . S
C1376 C1379 1.539 . S
C1377 C1373 1.408 . S
C1377 C1376 1.404 . S
C1377 H1389 0.930 . S
C1378 C1374 1.524 . S
C1378 H1390 0.956 . S
C1378 H1391 0.961 . S
C1378 H1392 0.961 . S
C1379 C1376 1.539 . S
C1379 H1393 0.958 . S
C1379 H1394 0.961 . S
C1379 H1395 0.960 . S
H1380 C1364 0.931 . S
H1381 C1369 0.929 . S
H1382 C1370 0.960 . S
H1383 C1370 0.962 . S
H1384 C1370 0.960 . S
H1385 C1371 0.961 . S
H1386 C1371 0.961 . S
H1387 C1371 0.961 . S
H1388 C1372 0.931 . S
H1389 C1377 0.930 . S
H1390 C1378 0.956 . S
H1391 C1378 0.961 . S
H1392 C1378 0.961 . S
H1393 C1379 0.958 . S
H1394 C1379 0.961 . S
H1395 C1379 0.960 . S
C1396 C1397 1.391 . S
C1396 C1398 1.394 . S
C1396 H1412 0.931 . S
C1397 C1396 1.391 . S
C1397 C1401 1.376 . S
C1398 C1396 1.394 . S
C1398 C1399 1.369 . S
C1398 C1402 1.531 . S
C1399 C1398 1.369 . S
C1399 C1400 1.410 . S
C1399 C1407 1.503 . S
C1400 C1399 1.410 . S
C1400 C1401 1.392 . S
C1400 C1403 1.511 . S
C1401 C1397 1.376 . S
C1401 C1400 1.392 . S
C1401 H1413 0.929 . S
C1402 C1398 1.531 . S
C1402 H1414 0.960 . S
C1402 H1415 0.962 . S
C1402 H1416 0.960 . S
C1403 C1400 1.511 . S
C1403 H1417 0.961 . S
C1403 H1418 0.961 . S
C1403 H1419 0.961 . S
C1404 C1405 1.370 . S
C1404 C1406 1.363 . S
C1404 H1420 0.931 . S
C1405 C1404 1.370 . S
C1405 C1409 1.408 . S
C1406 C1404 1.363 . S
C1406 C1407 1.370 . S
C1406 C1410 1.524 . S
C1407 C1399 1.503 . S
C1407 C1406 1.370 . S
C1407 C1408 1.403 . S
C1408 C1407 1.403 . S
C1408 C1409 1.404 . S
C1408 C1411 1.539 . S
C1409 C1405 1.408 . S
C1409 C1408 1.404 . S
C1409 H1421 0.930 . S
C1410 C1406 1.524 . S
C1410 H1422 0.956 . S
C1410 H1423 0.961 . S
C1410 H1424 0.961 . S
C1411 C1408 1.539 . S
C1411 H1425 0.958 . S
C1411 H1426 0.961 . S
C1411 H1427 0.960 . S
H1412 C1396 0.931 . S
H1413 C1401 0.929 . S
H1414 C1402 0.960 . S
H1415 C1402 0.962 . S
H1416 C1402 0.960 . S
H1417 C1403 0.961 . S
H1418 C1403 0.961 . S
H1419 C1403 0.961 . S
H1420 C1404 0.931 . S
H1421 C1409 0.930 . S
H1422 C1410 0.956 . S
H1423 C1410 0.961 . S
H1424 C1410 0.961 . S
H1425 C1411 0.958 . S
H1426 C1411 0.961 . S
H1427 C1411 0.960 . S
C1428 C1429 1.391 . S
C1428 C1430 1.394 . S
C1428 H1444 0.931 . S
C1429 C1428 1.391 . S
C1429 C1433 1.376 . S
C1430 C1428 1.394 . S
C1430 C1431 1.369 . S
C1430 C1434 1.531 . S
C1431 C1430 1.369 . S
C1431 C1432 1.410 . S
C1431 C1439 1.503 . S
C1432 C1431 1.410 . S
C1432 C1433 1.392 . S
C1432 C1435 1.511 . S
C1433 C1429 1.376 . S
C1433 C1432 1.392 . S
C1433 H1445 0.929 . S
C1434 C1430 1.531 . S
C1434 H1446 0.960 . S
C1434 H1447 0.962 . S
C1434 H1448 0.960 . S
C1435 C1432 1.511 . S
C1435 H1449 0.961 . S
C1435 H1450 0.961 . S
C1435 H1451 0.961 . S
C1436 C1437 1.370 . S
C1436 C1438 1.363 . S
C1436 H1452 0.931 . S
C1437 C1436 1.370 . S
C1437 C1441 1.408 . S
C1438 C1436 1.363 . S
C1438 C1439 1.370 . S
C1438 C1442 1.524 . S
C1439 C1431 1.503 . S
C1439 C1438 1.370 . S
C1439 C1440 1.403 . S
C1440 C1439 1.403 . S
C1440 C1441 1.404 . S
C1440 C1443 1.539 . S
C1441 C1437 1.408 . S
C1441 C1440 1.404 . S
C1441 H1453 0.930 . S
C1442 C1438 1.524 . S
C1442 H1454 0.956 . S
C1442 H1455 0.961 . S
C1442 H1456 0.961 . S
C1443 C1440 1.539 . S
C1443 H1457 0.958 . S
C1443 H1458 0.961 . S
C1443 H1459 0.960 . S
H1444 C1428 0.931 . S
H1445 C1433 0.929 . S
H1446 C1434 0.960 . S
H1447 C1434 0.962 . S
H1448 C1434 0.960 . S
H1449 C1435 0.961 . S
H1450 C1435 0.961 . S
H1451 C1435 0.961 . S
H1452 C1436 0.931 . S
H1453 C1441 0.930 . S
H1454 C1442 0.956 . S
H1455 C1442 0.961 . S
H1456 C1442 0.961 . S
H1457 C1443 0.958 . S
H1458 C1443 0.961 . S
H1459 C1443 0.960 . S
C1460 C1461 1.391 . S
C1460 C1462 1.394 . S
C1460 H1476 0.931 . S
C1461 C1460 1.391 . S
C1461 C1465 1.376 . S
C1462 C1460 1.394 . S
C1462 C1463 1.369 . S
C1462 C1466 1.531 . S
C1463 C1462 1.369 . S
C1463 C1464 1.410 . S
C1463 C1471 1.503 . S
C1464 C1463 1.410 . S
C1464 C1465 1.392 . S
C1464 C1467 1.511 . S
C1465 C1461 1.376 . S
C1465 C1464 1.392 . S
C1465 H1477 0.929 . S
C1466 C1462 1.531 . S
C1466 H1478 0.960 . S
C1466 H1479 0.962 . S
C1466 H1480 0.960 . S
C1467 C1464 1.511 . S
C1467 H1481 0.961 . S
C1467 H1482 0.961 . S
C1467 H1483 0.961 . S
C1468 C1469 1.370 . S
C1468 C1470 1.363 . S
C1468 H1484 0.931 . S
C1469 C1468 1.370 . S
C1469 C1473 1.408 . S
C1470 C1468 1.363 . S
C1470 C1471 1.370 . S
C1470 C1474 1.524 . S
C1471 C1463 1.503 . S
C1471 C1470 1.370 . S
C1471 C1472 1.403 . S
C1472 C1471 1.403 . S
C1472 C1473 1.404 . S
C1472 C1475 1.539 . S
C1473 C1469 1.408 . S
C1473 C1472 1.404 . S
C1473 H1485 0.930 . S
C1474 C1470 1.524 . S
C1474 H1486 0.956 . S
C1474 H1487 0.961 . S
C1474 H1488 0.961 . S
C1475 C1472 1.539 . S
C1475 H1489 0.958 . S
C1475 H1490 0.961 . S
C1475 H1491 0.960 . S
H1476 C1460 0.931 . S
H1477 C1465 0.929 . S
H1478 C1466 0.960 . S
H1479 C1466 0.962 . S
H1480 C1466 0.960 . S
H1481 C1467 0.961 . S
H1482 C1467 0.961 . S
H1483 C1467 0.961 . S
H1484 C1468 0.931 . S
H1485 C1473 0.930 . S
H1486 C1474 0.956 . S
H1487 C1474 0.961 . S
H1488 C1474 0.961 . S
H1489 C1475 0.958 . S
H1490 C1475 0.961 . S
H1491 C1475 0.960 . S
C1492 C1493 1.391 . S
C1492 C1494 1.394 . S
C1492 H1508 0.931 . S
C1493 C1492 1.391 . S
C1493 C1497 1.376 . S
C1494 C1492 1.394 . S
C1494 C1495 1.369 . S
C1494 C1498 1.531 . S
C1495 C1494 1.369 . S
C1495 C1496 1.410 . S
C1495 C1503 1.503 . S
C1496 C1495 1.410 . S
C1496 C1497 1.392 . S
C1496 C1499 1.511 . S
C1497 C1493 1.376 . S
C1497 C1496 1.392 . S
C1497 H1509 0.929 . S
C1498 C1494 1.531 . S
C1498 H1510 0.960 . S
C1498 H1511 0.962 . S
C1498 H1512 0.960 . S
C1499 C1496 1.511 . S
C1499 H1513 0.961 . S
C1499 H1514 0.961 . S
C1499 H1515 0.961 . S
C1500 C1501 1.370 . S
C1500 C1502 1.363 . S
C1500 H1516 0.931 . S
C1501 C1500 1.370 . S
C1501 C1505 1.408 . S
C1502 C1500 1.363 . S
C1502 C1503 1.370 . S
C1502 C1506 1.524 . S
C1503 C1495 1.503 . S
C1503 C1502 1.370 . S
C1503 C1504 1.403 . S
C1504 C1503 1.403 . S
C1504 C1505 1.404 . S
C1504 C1507 1.539 . S
C1505 C1501 1.408 . S
C1505 C1504 1.404 . S
C1505 H1517 0.930 . S
C1506 C1502 1.524 . S
C1506 H1518 0.956 . S
C1506 H1519 0.961 . S
C1506 H1520 0.961 . S
C1507 C1504 1.539 . S
C1507 H1521 0.958 . S
C1507 H1522 0.961 . S
C1507 H1523 0.960 . S
H1508 C1492 0.931 . S
H1509 C1497 0.929 . S
H1510 C1498 0.960 . S
H1511 C1498 0.962 . S
H1512 C1498 0.960 . S
H1513 C1499 0.961 . S
H1514 C1499 0.961 . S
H1515 C1499 0.961 . S
H1516 C1500 0.931 . S
H1517 C1505 0.930 . S
H1518 C1506 0.956 . S
H1519 C1506 0.961 . S
H1520 C1506 0.961 . S
H1521 C1507 0.958 . S
H1522 C1507 0.961 . S
H1523 C1507 0.960 . S
C1524 C1525 1.391 . S
C1524 C1526 1.394 . S
C1524 H1540 0.931 . S
C1525 C1524 1.391 . S
C1525 C1529 1.376 . S
C1526 C1524 1.394 . S
C1526 C1527 1.369 . S
C1526 C1530 1.531 . S
C1527 C1526 1.369 . S
C1527 C1528 1.410 . S
C1527 C1535 1.503 . S
C1528 C1527 1.410 . S
C1528 C1529 1.392 . S
C1528 C1531 1.511 . S
C1529 C1525 1.376 . S
C1529 C1528 1.392 . S
C1529 H1541 0.929 . S
C1530 C1526 1.531 . S
C1530 H1542 0.960 . S
C1530 H1543 0.962 . S
C1530 H1544 0.960 . S
C1531 C1528 1.511 . S
C1531 H1545 0.961 . S
C1531 H1546 0.961 . S
C1531 H1547 0.961 . S
C1532 C1533 1.370 . S
C1532 C1534 1.363 . S
C1532 H1548 0.931 . S
C1533 C1532 1.370 . S
C1533 C1537 1.408 . S
C1534 C1532 1.363 . S
C1534 C1535 1.370 . S
C1534 C1538 1.524 . S
C1535 C1527 1.503 . S
C1535 C1534 1.370 . S
C1535 C1536 1.403 . S
C1536 C1535 1.403 . S
C1536 C1537 1.404 . S
C1536 C1539 1.539 . S
C1537 C1533 1.408 . S
C1537 C1536 1.404 . S
C1537 H1549 0.930 . S
C1538 C1534 1.524 . S
C1538 H1550 0.956 . S
C1538 H1551 0.961 . S
C1538 H1552 0.961 . S
C1539 C1536 1.539 . S
C1539 H1553 0.958 . S
C1539 H1554 0.961 . S
C1539 H1555 0.960 . S
H1540 C1524 0.931 . S
H1541 C1529 0.929 . S
H1542 C1530 0.960 . S
H1543 C1530 0.962 . S
H1544 C1530 0.960 . S
H1545 C1531 0.961 . S
H1546 C1531 0.961 . S
H1547 C1531 0.961 . S
H1548 C1532 0.931 . S
H1549 C1537 0.930 . S
H1550 C1538 0.956 . S
H1551 C1538 0.961 . S
H1552 C1538 0.961 . S
H1553 C1539 0.958 . S
H1554 C1539 0.961 . S
H1555 C1539 0.960 . S
C1556 C1557 1.391 . S
C1556 C1558 1.394 . S
C1556 H1572 0.931 . S
C1557 C1556 1.391 . S
C1557 C1561 1.376 . S
C1558 C1556 1.394 . S
C1558 C1559 1.369 . S
C1558 C1562 1.531 . S
C1559 C1558 1.369 . S
C1559 C1560 1.410 . S
C1559 C1567 1.503 . S
C1560 C1559 1.410 . S
C1560 C1561 1.392 . S
C1560 C1563 1.511 . S
C1561 C1557 1.376 . S
C1561 C1560 1.392 . S
C1561 H1573 0.929 . S
C1562 C1558 1.531 . S
C1562 H1574 0.960 . S
C1562 H1575 0.962 . S
C1562 H1576 0.960 . S
C1563 C1560 1.511 . S
C1563 H1577 0.961 . S
C1563 H1578 0.961 . S
C1563 H1579 0.961 . S
C1564 C1565 1.370 . S
C1564 C1566 1.363 . S
C1564 H1580 0.931 . S
C1565 C1564 1.370 . S
C1565 C1569 1.408 . S
C1566 C1564 1.363 . S
C1566 C1567 1.370 . S
C1566 C1570 1.524 . S
C1567 C1559 1.503 . S
C1567 C1566 1.370 . S
C1567 C1568 1.403 . S
C1568 C1567 1.403 . S
C1568 C1569 1.404 . S
C1568 C1571 1.539 . S
C1569 C1565 1.408 . S
C1569 C1568 1.404 . S
C1569 H1581 0.930 . S
C1570 C1566 1.524 . S
C1570 H1582 0.956 . S
C1570 H1583 0.961 . S
C1570 H1584 0.961 . S
C1571 C1568 1.539 . S
C1571 H1585 0.958 . S
C1571 H1586 0.961 . S
C1571 H1587 0.960 . S
H1572 C1556 0.931 . S
H1573 C1561 0.929 . S
H1574 C1562 0.960 . S
H1575 C1562 0.962 . S
H1576 C1562 0.960 . S
H1577 C1563 0.961 . S
H1578 C1563 0.961 . S
H1579 C1563 0.961 . S
H1580 C1564 0.931 . S
H1581 C1569 0.930 . S
H1582 C1570 0.956 . S
H1583 C1570 0.961 . S
H1584 C1570 0.961 . S
H1585 C1571 0.958 . S
H1586 C1571 0.961 . S
H1587 C1571 0.960 . S
C1588 C1589 1.391 . S
C1588 C1590 1.394 . S
C1588 H1604 0.931 . S
C1589 C1588 1.391 . S
C1589 C1593 1.376 . S
C1590 C1588 1.394 . S
C1590 C1591 1.369 . S
C1590 C1594 1.531 . S
C1591 C1590 1.369 . S
C1591 C1592 1.410 . S
C1591 C1599 1.503 . S
C1592 C1591 1.410 . S
C1592 C1593 1.392 . S
C1592 C1595 1.511 . S
C1593 C1589 1.376 . S
C1593 C1592 1.392 . S
C1593 H1605 0.929 . S
C1594 C1590 1.531 . S
C1594 H1606 0.960 . S
C1594 H1607 0.962 . S
C1594 H1608 0.960 . S
C1595 C1592 1.511 . S
C1595 H1609 0.961 . S
C1595 H1610 0.961 . S
C1595 H1611 0.961 . S
C1596 C1597 1.370 . S
C1596 C1598 1.363 . S
C1596 H1612 0.931 . S
C1597 C1596 1.370 . S
C1597 C1601 1.408 . S
C1598 C1596 1.363 . S
C1598 C1599 1.370 . S
C1598 C1602 1.524 . S
C1599 C1591 1.503 . S
C1599 C1598 1.370 . S
C1599 C1600 1.403 . S
C1600 C1599 1.403 . S
C1600 C1601 1.404 . S
C1600 C1603 1.539 . S
C1601 C1597 1.408 . S
C1601 C1600 1.404 . S
C1601 H1613 0.930 . S
C1602 C1598 1.524 . S
C1602 H1614 0.956 . S
C1602 H1615 0.961 . S
C1602 H1616 0.961 . S
C1603 C1600 1.539 . S
C1603 H1617 0.958 . S
C1603 H1618 0.961 . S
C1603 H1619 0.960 . S
H1604 C1588 0.931 . S
H1605 C1593 0.929 . S
H1606 C1594 0.960 . S
H1607 C1594 0.962 . S
H1608 C1594 0.960 . S
H1609 C1595 0.961 . S
H1610 C1595 0.961 . S
H1611 C1595 0.961 . S
H1612 C1596 0.931 . S
H1613 C1601 0.930 . S
H1614 C1602 0.956 . S
H1615 C1602 0.961 . S
H1616 C1602 0.961 . S
H1617 C1603 0.958 . S
H1618 C1603 0.961 . S
H1619 C1603 0.960 . S
C1620 C1621 1.391 . S
C1620 C1622 1.394 . S
C1620 H1636 0.931 . S
C1621 C1620 1.391 . S
C1621 C1625 1.376 . S
C1622 C1620 1.394 . S
C1622 C1623 1.369 . S
C1622 C1626 1.531 . S
C1623 C1622 1.369 . S
C1623 C1624 1.410 . S
C1623 C1631 1.503 . S
C1624 C1623 1.410 . S
C1624 C1625 1.392 . S
C1624 C1627 1.511 . S
C1625 C1621 1.376 . S
C1625 C1624 1.392 . S
C1625 H1637 0.929 . S
C1626 C1622 1.531 . S
C1626 H1638 0.960 . S
C1626 H1639 0.962 . S
C1626 H1640 0.960 . S
C1627 C1624 1.511 . S
C1627 H1641 0.961 . S
C1627 H1642 0.961 . S
C1627 H1643 0.961 . S
C1628 C1629 1.370 . S
C1628 C1630 1.363 . S
C1628 H1644 0.931 . S
C1629 C1628 1.370 . S
C1629 C1633 1.408 . S
C1630 C1628 1.363 . S
C1630 C1631 1.370 . S
C1630 C1634 1.524 . S
C1631 C1623 1.503 . S
C1631 C1630 1.370 . S
C1631 C1632 1.403 . S
C1632 C1631 1.403 . S
C1632 C1633 1.404 . S
C1632 C1635 1.539 . S
C1633 C1629 1.408 . S
C1633 C1632 1.404 . S
C1633 H1645 0.930 . S
C1634 C1630 1.524 . S
C1634 H1646 0.956 . S
C1634 H1647 0.961 . S
C1634 H1648 0.961 . S
C1635 C1632 1.539 . S
C1635 H1649 0.958 . S
C1635 H1650 0.961 . S
C1635 H1651 0.960 . S
H1636 C1620 0.931 . S
H1637 C1625 0.929 . S
H1638 C1626 0.960 . S
H1639 C1626 0.962 . S
H1640 C1626 0.960 . S
H1641 C1627 0.961 . S
H1642 C1627 0.961 . S
H1643 C1627 0.961 . S
H1644 C1628 0.931 . S
H1645 C1633 0.930 . S
H1646 C1634 0.956 . S
H1647 C1634 0.961 . S
H1648 C1634 0.961 . S
H1649 C1635 0.958 . S
H1650 C1635 0.961 . S
H1651 C1635 0.960 . S
C1652 C1653 1.391 . S
C1652 C1654 1.394 . S
C1652 H1668 0.931 . S
C1653 C1652 1.391 . S
C1653 C1657 1.376 . S
C1654 C1652 1.394 . S
C1654 C1655 1.369 . S
C1654 C1658 1.531 . S
C1655 C1654 1.369 . S
C1655 C1656 1.410 . S
C1655 C1663 1.503 1_565 S
C1656 C1655 1.410 . S
C1656 C1657 1.392 . S
C1656 C1659 1.511 . S
C1657 C1653 1.376 . S
C1657 C1656 1.392 . S
C1657 H1669 0.929 . S
C1658 C1654 1.531 . S
C1658 H1670 0.960 1_565 S
C1658 H1671 0.962 . S
C1658 H1672 0.960 . S
C1659 C1656 1.511 . S
C1659 H1673 0.961 . S
C1659 H1674 0.962 . S
C1659 H1675 0.961 . S
C1660 C1661 1.370 . S
C1660 C1662 1.363 . S
C1660 H1676 0.931 . S
C1661 C1660 1.370 . S
C1661 C1665 1.408 . S
C1662 C1660 1.363 . S
C1662 C1663 1.370 . S
C1662 C1666 1.524 . S
C1663 C1655 1.503 1_545 S
C1663 C1662 1.370 . S
C1663 C1664 1.403 . S
C1664 C1663 1.403 . S
C1664 C1665 1.404 . S
C1664 C1667 1.539 . S
C1665 C1661 1.408 . S
C1665 C1664 1.404 . S
C1665 H1677 0.930 . S
C1666 C1662 1.524 . S
C1666 H1678 0.956 1_545 S
C1666 H1679 0.961 1_545 S
C1666 H1680 0.961 . S
C1667 C1664 1.539 . S
C1667 H1681 0.958 . S
C1667 H1682 0.961 . S
C1667 H1683 0.960 . S
H1668 C1652 0.931 . S
H1669 C1657 0.929 . S
H1670 C1658 0.960 1_545 S
H1671 C1658 0.962 . S
H1672 C1658 0.960 . S
H1673 C1659 0.961 . S
H1674 C1659 0.962 . S
H1675 C1659 0.961 . S
H1676 C1660 0.931 . S
H1677 C1665 0.930 . S
H1678 C1666 0.956 1_565 S
H1679 C1666 0.961 1_565 S
H1680 C1666 0.961 . S
H1681 C1667 0.958 . S
H1682 C1667 0.961 . S
H1683 C1667 0.960 . S
C1684 C1685 1.391 . S
C1684 C1686 1.394 . S
C1684 H1700 0.931 . S
C1685 C1684 1.391 . S
C1685 C1689 1.376 . S
C1686 C1684 1.394 . S
C1686 C1687 1.369 . S
C1686 C1690 1.531 . S
C1687 C1686 1.369 . S
C1687 C1688 1.410 . S
C1687 C1695 1.503 1_655 S
C1688 C1687 1.410 . S
C1688 C1689 1.392 . S
C1688 C1691 1.511 . S
C1689 C1685 1.376 . S
C1689 C1688 1.392 . S
C1689 H1701 0.929 . S
C1690 C1686 1.531 . S
C1690 H1702 0.960 1_655 S
C1690 H1703 0.962 . S
C1690 H1704 0.960 . S
C1691 C1688 1.511 . S
C1691 H1705 0.961 . S
C1691 H1706 0.961 . S
C1691 H1707 0.961 . S
C1692 C1693 1.370 . S
C1692 C1694 1.363 . S
C1692 H1708 0.931 . S
C1693 C1692 1.370 . S
C1693 C1697 1.408 . S
C1694 C1692 1.363 . S
C1694 C1695 1.370 . S
C1694 C1698 1.524 . S
C1695 C1687 1.503 1_455 S
C1695 C1694 1.370 . S
C1695 C1696 1.403 . S
C1696 C1695 1.403 . S
C1696 C1697 1.404 . S
C1696 C1699 1.539 . S
C1697 C1693 1.408 . S
C1697 C1696 1.404 . S
C1697 H1709 0.930 . S
C1698 C1694 1.524 . S
C1698 H1710 0.956 1_455 S
C1698 H1711 0.961 1_455 S
C1698 H1712 0.961 . S
C1699 C1696 1.539 . S
C1699 H1713 0.958 . S
C1699 H1714 0.961 . S
C1699 H1715 0.960 . S
H1700 C1684 0.931 . S
H1701 C1689 0.929 . S
H1702 C1690 0.960 1_455 S
H1703 C1690 0.962 . S
H1704 C1690 0.960 . S
H1705 C1691 0.961 . S
H1706 C1691 0.961 . S
H1707 C1691 0.961 . S
H1708 C1692 0.931 . S
H1709 C1697 0.930 . S
H1710 C1698 0.956 1_655 S
H1711 C1698 0.961 1_655 S
H1712 C1698 0.961 . S
H1713 C1699 0.958 . S
H1714 C1699 0.961 . S
H1715 C1699 0.960 . S
C1716 C1717 1.391 . S
C1716 C1718 1.394 . S
C1716 H1732 0.931 . S
C1717 C1716 1.391 . S
C1717 C1721 1.376 . S
C1718 C1716 1.394 . S
C1718 C1719 1.369 . S
C1718 C1722 1.531 . S
C1719 C1718 1.369 . S
C1719 C1720 1.410 . S
C1719 C1727 1.503 . S
C1720 C1719 1.410 . S
C1720 C1721 1.392 . S
C1720 C1723 1.511 . S
C1721 C1717 1.376 . S
C1721 C1720 1.392 . S
C1721 H1733 0.929 . S
C1722 C1718 1.531 . S
C1722 H1734 0.960 . S
C1722 H1735 0.962 . S
C1722 H1736 0.960 . S
C1723 C1720 1.511 . S
C1723 H1737 0.961 . S
C1723 H1738 0.961 . S
C1723 H1739 0.961 . S
C1724 C1725 1.370 . S
C1724 C1726 1.363 . S
C1724 H1740 0.931 . S
C1725 C1724 1.370 . S
C1725 C1729 1.408 . S
C1726 C1724 1.363 . S
C1726 C1727 1.370 . S
C1726 C1730 1.524 . S
C1727 C1719 1.503 . S
C1727 C1726 1.370 . S
C1727 C1728 1.403 . S
C1728 C1727 1.403 . S
C1728 C1729 1.404 . S
C1728 C1731 1.539 . S
C1729 C1725 1.408 . S
C1729 C1728 1.404 . S
C1729 H1741 0.930 . S
C1730 C1726 1.524 . S
C1730 H1742 0.956 . S
C1730 H1743 0.961 . S
C1730 H1744 0.961 . S
C1731 C1728 1.539 . S
C1731 H1745 0.958 . S
C1731 H1746 0.961 . S
C1731 H1747 0.960 . S
H1732 C1716 0.931 . S
H1733 C1721 0.929 . S
H1734 C1722 0.960 . S
H1735 C1722 0.962 . S
H1736 C1722 0.960 . S
H1737 C1723 0.961 . S
H1738 C1723 0.961 . S
H1739 C1723 0.961 . S
H1740 C1724 0.931 . S
H1741 C1729 0.930 . S
H1742 C1730 0.956 . S
H1743 C1730 0.961 . S
H1744 C1730 0.961 . S
H1745 C1731 0.958 . S
H1746 C1731 0.961 . S
H1747 C1731 0.960 . S
C1748 C1749 1.391 . S
C1748 C1750 1.394 . S
C1748 H1764 0.931 . S
C1749 C1748 1.391 . S
C1749 C1753 1.376 . S
C1750 C1748 1.394 . S
C1750 C1751 1.369 . S
C1750 C1754 1.531 . S
C1751 C1750 1.369 . S
C1751 C1752 1.410 . S
C1751 C1759 1.503 1_545 S
C1752 C1751 1.410 . S
C1752 C1753 1.392 . S
C1752 C1755 1.511 . S
C1753 C1749 1.376 . S
C1753 C1752 1.392 . S
C1753 H1765 0.929 . S
C1754 C1750 1.531 . S
C1754 H1766 0.960 1_545 S
C1754 H1767 0.962 . S
C1754 H1768 0.960 . S
C1755 C1752 1.511 . S
C1755 H1769 0.961 . S
C1755 H1770 0.961 . S
C1755 H1771 0.961 . S
C1756 C1757 1.370 . S
C1756 C1758 1.363 . S
C1756 H1772 0.931 . S
C1757 C1756 1.370 . S
C1757 C1761 1.408 . S
C1758 C1756 1.363 . S
C1758 C1759 1.370 . S
C1758 C1762 1.524 . S
C1759 C1751 1.503 1_565 S
C1759 C1758 1.370 . S
C1759 C1760 1.403 . S
C1760 C1759 1.403 . S
C1760 C1761 1.404 . S
C1760 C1763 1.539 . S
C1761 C1757 1.408 . S
C1761 C1760 1.404 . S
C1761 H1773 0.930 . S
C1762 C1758 1.524 . S
C1762 H1774 0.992 . S
C1762 H1775 0.961 1_565 S
C1762 H1776 0.961 . S
C1763 C1760 1.539 . S
C1763 H1777 0.958 . S
C1763 H1778 0.961 . S
C1763 H1779 1.017 . S
H1764 C1748 0.931 . S
H1765 C1753 0.929 . S
H1766 C1754 0.960 1_565 S
H1767 C1754 0.962 . S
H1768 C1754 0.960 . S
H1769 C1755 0.961 . S
H1770 C1755 0.961 . S
H1771 C1755 0.961 . S
H1772 C1756 0.931 . S
H1773 C1761 0.930 . S
H1774 C1762 0.992 . S
H1775 C1762 0.961 1_545 S
H1776 C1762 0.961 . S
H1777 C1763 0.958 . S
H1778 C1763 0.961 . S
H1779 C1763 1.017 . S
C1780 C1781 1.391 . S
C1780 C1782 1.394 . S
C1780 H1796 0.931 . S
C1781 C1780 1.391 . S
C1781 C1785 1.376 . S
C1782 C1780 1.394 . S
C1782 C1783 1.369 . S
C1782 C1786 1.531 . S
C1783 C1782 1.369 . S
C1783 C1784 1.410 . S
C1783 C1791 1.503 1_655 S
C1784 C1783 1.410 . S
C1784 C1785 1.392 . S
C1784 C1787 1.511 . S
C1785 C1781 1.376 . S
C1785 C1784 1.392 . S
C1785 H1797 0.929 . S
C1786 C1782 1.531 . S
C1786 H1798 0.960 1_655 S
C1786 H1799 0.962 . S
C1786 H1800 0.960 . S
C1787 C1784 1.511 . S
C1787 H1801 0.961 . S
C1787 H1802 0.961 1_655 S
C1787 H1803 0.961 . S
C1788 C1789 1.370 . S
C1788 C1790 1.363 . S
C1788 H1804 0.931 . S
C1789 C1788 1.370 . S
C1789 C1793 1.408 . S
C1790 C1788 1.363 . S
C1790 C1791 1.370 . S
C1790 C1794 1.524 . S
C1791 C1783 1.503 1_455 S
C1791 C1790 1.370 . S
C1791 C1792 1.403 . S
C1792 C1791 1.403 . S
C1792 C1793 1.404 . S
C1792 C1795 1.539 . S
C1793 C1789 1.408 . S
C1793 C1792 1.404 . S
C1793 H1805 0.930 . S
C1794 C1790 1.524 . S
C1794 H1806 0.956 1_455 S
C1794 H1807 0.961 1_455 S
C1794 H1808 0.961 . S
C1795 C1792 1.539 . S
C1795 H1809 0.958 . S
C1795 H1810 0.961 . S
C1795 H1811 0.960 . S
H1796 C1780 0.931 . S
H1797 C1785 0.929 . S
H1798 C1786 0.960 1_455 S
H1799 C1786 0.962 . S
H1800 C1786 0.960 . S
H1801 C1787 0.961 . S
H1802 C1787 0.961 1_455 S
H1803 C1787 0.961 . S
H1804 C1788 0.931 . S
H1805 C1793 0.930 . S
H1806 C1794 0.956 1_655 S
H1807 C1794 0.961 1_655 S
H1808 C1794 0.961 . S
H1809 C1795 0.958 . S
H1810 C1795 0.961 . S
H1811 C1795 0.960 . S
C1812 C1813 1.391 . S
C1812 C1814 1.394 . S
C1812 H1828 0.931 . S
C1813 C1812 1.391 . S
C1813 C1817 1.376 . S
C1814 C1812 1.394 . S
C1814 C1815 1.369 . S
C1814 C1818 1.531 . S
C1815 C1814 1.369 . S
C1815 C1816 1.410 . S
C1815 C1823 1.503 . S
C1816 C1815 1.410 . S
C1816 C1817 1.392 . S
C1816 C1819 1.511 . S
C1817 C1813 1.376 . S
C1817 C1816 1.392 . S
C1817 H1829 0.929 . S
C1818 C1814 1.531 . S
C1818 H1830 0.960 . S
C1818 H1831 0.962 . S
C1818 H1832 0.960 . S
C1819 C1816 1.511 . S
C1819 H1833 0.961 . S
C1819 H1834 0.961 . S
C1819 H1835 0.961 . S
C1820 C1821 1.370 . S
C1820 C1822 1.363 . S
C1820 H1836 0.931 . S
C1821 C1820 1.370 . S
C1821 C1825 1.408 . S
C1822 C1820 1.363 . S
C1822 C1823 1.370 . S
C1822 C1826 1.524 . S
C1823 C1815 1.503 . S
C1823 C1822 1.370 . S
C1823 C1824 1.403 . S
C1824 C1823 1.403 . S
C1824 C1825 1.404 . S
C1824 C1827 1.539 . S
C1825 C1821 1.408 . S
C1825 C1824 1.404 . S
C1825 H1837 0.930 . S
C1826 C1822 1.524 . S
C1826 H1838 0.956 . S
C1826 H1839 0.961 . S
C1826 H1840 0.961 . S
C1827 C1824 1.539 . S
C1827 H1841 0.958 . S
C1827 H1842 0.961 . S
C1827 H1843 0.960 . S
H1828 C1812 0.931 . S
H1829 C1817 0.929 . S
H1830 C1818 0.960 . S
H1831 C1818 0.962 . S
H1832 C1818 0.960 . S
H1833 C1819 0.961 . S
H1834 C1819 0.961 . S
H1835 C1819 0.961 . S
H1836 C1820 0.931 . S
H1837 C1825 0.930 . S
H1838 C1826 0.956 . S
H1839 C1826 0.961 . S
H1840 C1826 0.961 . S
H1841 C1827 0.958 . S
H1842 C1827 0.961 . S
H1843 C1827 0.960 . S
C1844 C1845 1.391 . S
C1844 C1846 1.394 . S
C1844 H1860 0.931 . S
C1845 C1844 1.391 . S
C1845 C1849 1.376 . S
C1846 C1844 1.394 . S
C1846 C1847 1.369 . S
C1846 C1850 1.531 . S
C1847 C1846 1.369 . S
C1847 C1848 1.410 . S
C1847 C1855 1.503 . S
C1848 C1847 1.410 . S
C1848 C1849 1.392 . S
C1848 C1851 1.511 . S
C1849 C1845 1.376 . S
C1849 C1848 1.392 . S
C1849 H1861 0.929 . S
C1850 C1846 1.531 . S
C1850 H1862 0.960 . S
C1850 H1863 0.962 . S
C1850 H1864 0.960 . S
C1851 C1848 1.511 . S
C1851 H1865 0.961 . S
C1851 H1866 0.961 . S
C1851 H1867 0.961 . S
C1852 C1853 1.370 . S
C1852 C1854 1.363 . S
C1852 H1868 0.931 . S
C1853 C1852 1.370 . S
C1853 C1857 1.408 . S
C1854 C1852 1.363 . S
C1854 C1855 1.370 . S
C1854 C1858 1.524 . S
C1855 C1847 1.503 . S
C1855 C1854 1.370 . S
C1855 C1856 1.403 . S
C1856 C1855 1.403 . S
C1856 C1857 1.404 . S
C1856 C1859 1.539 . S
C1857 C1853 1.408 . S
C1857 C1856 1.404 . S
C1857 H1869 0.930 . S
C1858 C1854 1.524 . S
C1858 H1870 0.956 . S
C1858 H1871 0.961 . S
C1858 H1872 0.961 . S
C1859 C1856 1.539 . S
C1859 H1873 0.958 . S
C1859 H1874 0.961 . S
C1859 H1875 0.960 . S
H1860 C1844 0.931 . S
H1861 C1849 0.929 . S
H1862 C1850 0.960 . S
H1863 C1850 0.962 . S
H1864 C1850 0.960 . S
H1865 C1851 0.961 . S
H1866 C1851 0.961 . S
H1867 C1851 0.961 . S
H1868 C1852 0.931 . S
H1869 C1857 0.930 . S
H1870 C1858 0.956 . S
H1871 C1858 0.961 . S
H1872 C1858 0.961 . S
H1873 C1859 0.958 . S
H1874 C1859 0.961 . S
H1875 C1859 0.960 . S
C1876 C1877 1.391 . S
C1876 C1878 1.394 . S
C1876 H1892 0.931 . S
C1877 C1876 1.391 . S
C1877 C1881 1.376 . S
C1878 C1876 1.394 . S
C1878 C1879 1.369 . S
C1878 C1882 1.531 . S
C1879 C1878 1.369 . S
C1879 C1880 1.410 . S
C1879 C1887 1.503 . S
C1880 C1879 1.410 . S
C1880 C1881 1.392 . S
C1880 C1883 1.511 . S
C1881 C1877 1.376 . S
C1881 C1880 1.392 . S
C1881 H1893 0.929 . S
C1882 C1878 1.531 . S
C1882 H1894 0.960 . S
C1882 H1895 0.962 . S
C1882 H1896 0.960 . S
C1883 C1880 1.511 . S
C1883 H1897 0.961 . S
C1883 H1898 0.961 . S
C1883 H1899 0.961 . S
C1884 C1885 1.370 . S
C1884 C1886 1.363 . S
C1884 H1900 0.931 . S
C1885 C1884 1.370 . S
C1885 C1889 1.408 . S
C1886 C1884 1.363 . S
C1886 C1887 1.370 . S
C1886 C1890 1.524 . S
C1887 C1879 1.503 . S
C1887 C1886 1.370 . S
C1887 C1888 1.403 . S
C1888 C1887 1.403 . S
C1888 C1889 1.404 . S
C1888 C1891 1.539 . S
C1889 C1885 1.408 . S
C1889 C1888 1.404 . S
C1889 H1901 0.930 . S
C1890 C1886 1.524 . S
C1890 H1902 0.956 . S
C1890 H1903 0.961 . S
C1890 H1904 0.961 . S
C1891 C1888 1.539 . S
C1891 H1905 0.958 . S
C1891 H1906 0.961 . S
C1891 H1907 0.960 . S
H1892 C1876 0.931 . S
H1893 C1881 0.929 . S
H1894 C1882 0.960 . S
H1895 C1882 0.962 . S
H1896 C1882 0.960 . S
H1897 C1883 0.961 . S
H1898 C1883 0.961 . S
H1899 C1883 0.961 . S
H1900 C1884 0.931 . S
H1901 C1889 0.930 . S
H1902 C1890 0.956 . S
H1903 C1890 0.961 . S
H1904 C1890 0.961 . S
H1905 C1891 0.958 . S
H1906 C1891 0.961 . S
H1907 C1891 0.960 . S
C1908 C1909 1.391 . S
C1908 C1910 1.394 . S
C1908 H1924 0.931 . S
C1909 C1908 1.391 . S
C1909 C1913 1.376 . S
C1910 C1908 1.394 . S
C1910 C1911 1.369 . S
C1910 C1914 1.531 . S
C1911 C1910 1.369 . S
C1911 C1912 1.410 . S
C1911 C1919 1.503 . S
C1912 C1911 1.410 . S
C1912 C1913 1.392 . S
C1912 C1915 1.511 . S
C1913 C1909 1.376 . S
C1913 C1912 1.392 . S
C1913 H1925 0.929 . S
C1914 C1910 1.531 . S
C1914 H1926 0.960 . S
C1914 H1927 0.962 . S
C1914 H1928 0.960 . S
C1915 C1912 1.511 . S
C1915 H1929 0.961 1_554 S
C1915 H1930 0.961 . S
C1915 H1931 0.961 . S
C1916 C1917 1.370 . S
C1916 C1918 1.363 . S
C1916 H1932 0.931 . S
C1917 C1916 1.370 . S
C1917 C1921 1.408 . S
C1918 C1916 1.363 . S
C1918 C1919 1.370 . S
C1918 C1922 1.524 . S
C1919 C1911 1.503 . S
C1919 C1918 1.370 . S
C1919 C1920 1.403 . S
C1920 C1919 1.403 . S
C1920 C1921 1.404 . S
C1920 C1923 1.539 . S
C1921 C1917 1.408 . S
C1921 C1920 1.404 . S
C1921 H1933 0.930 . S
C1922 C1918 1.524 . S
C1922 H1934 0.956 . S
C1922 H1935 0.961 . S
C1922 H1936 0.961 . S
C1923 C1920 1.539 . S
C1923 H1937 0.958 . S
C1923 H1938 0.961 . S
C1923 H1939 0.960 . S
H1924 C1908 0.931 . S
H1925 C1913 0.929 . S
H1926 C1914 0.960 . S
H1927 C1914 0.962 . S
H1928 C1914 0.960 . S
H1929 C1915 0.961 1_556 S
H1930 C1915 0.961 . S
H1931 C1915 0.961 . S
H1932 C1916 0.931 . S
H1933 C1921 0.930 . S
H1934 C1922 0.956 . S
H1935 C1922 0.961 . S
H1936 C1922 0.961 . S
H1937 C1923 0.958 . S
H1938 C1923 0.961 . S
H1939 C1923 0.960 . S
C1940 C1941 1.391 . S
C1940 C1942 1.394 . S
C1940 H1956 0.931 . S
C1941 C1940 1.391 . S
C1941 C1945 1.376 . S
C1942 C1940 1.394 . S
C1942 C1943 1.369 . S
C1942 C1946 1.531 . S
C1943 C1942 1.369 . S
C1943 C1944 1.410 . S
C1943 C1951 1.503 . S
C1944 C1943 1.410 . S
C1944 C1945 1.392 . S
C1944 C1947 1.511 . S
C1945 C1941 1.376 . S
C1945 C1944 1.392 . S
C1945 H1957 0.929 . S
C1946 C1942 1.531 . S
C1946 H1958 0.960 . S
C1946 H1959 0.962 . S
C1946 H1960 0.960 . S
C1947 C1944 1.511 . S
C1947 H1961 0.961 . S
C1947 H1962 0.961 . S
C1947 H1963 0.961 . S
C1948 C1949 1.370 . S
C1948 C1950 1.363 . S
C1948 H1964 0.931 . S
C1949 C1948 1.370 . S
C1949 C1953 1.408 . S
C1950 C1948 1.363 . S
C1950 C1951 1.370 . S
C1950 C1954 1.524 . S
C1951 C1943 1.503 . S
C1951 C1950 1.370 . S
C1951 C1952 1.403 . S
C1952 C1951 1.403 . S
C1952 C1953 1.404 . S
C1952 C1955 1.539 . S
C1953 C1949 1.408 . S
C1953 C1952 1.404 . S
C1953 H1965 0.930 . S
C1954 C1950 1.524 . S
C1954 H1966 0.956 . S
C1954 H1967 0.961 . S
C1954 H1968 0.961 1_554 S
C1955 C1952 1.539 . S
C1955 H1969 0.958 . S
C1955 H1970 0.961 . S
C1955 H1971 0.960 . S
H1956 C1940 0.931 . S
H1957 C1945 0.929 . S
H1958 C1946 0.960 . S
H1959 C1946 0.962 . S
H1960 C1946 0.960 . S
H1961 C1947 0.961 . S
H1962 C1947 0.961 . S
H1963 C1947 0.961 . S
H1964 C1948 0.931 . S
H1965 C1953 0.930 . S
H1966 C1954 0.956 . S
H1967 C1954 0.961 . S
H1968 C1954 0.961 1_556 S
H1969 C1955 0.958 . S
H1970 C1955 0.961 . S
H1971 C1955 0.960 . S
C1972 C1973 1.391 . S
C1972 C1974 1.394 . S
C1972 H1988 0.931 . S
C1973 C1972 1.391 . S
C1973 C1977 1.376 . S
C1974 C1972 1.394 . S
C1974 C1975 1.369 . S
C1974 C1978 1.531 . S
C1975 C1974 1.369 . S
C1975 C1976 1.410 . S
C1975 C1983 1.503 . S
C1976 C1975 1.410 . S
C1976 C1977 1.392 . S
C1976 C1979 1.511 . S
C1977 C1973 1.376 . S
C1977 C1976 1.392 . S
C1977 H1989 0.929 . S
C1978 C1974 1.531 . S
C1978 H1990 0.960 . S
C1978 H1991 0.962 . S
C1978 H1992 0.960 . S
C1979 C1976 1.511 . S
C1979 H1993 0.961 . S
C1979 H1994 0.961 . S
C1979 H1995 0.961 . S
C1980 C1981 1.370 . S
C1980 C1982 1.363 . S
C1980 H1996 0.931 . S
C1981 C1980 1.370 . S
C1981 C1985 1.408 . S
C1982 C1980 1.363 . S
C1982 C1983 1.370 . S
C1982 C1986 1.524 . S
C1983 C1975 1.503 . S
C1983 C1982 1.370 . S
C1983 C1984 1.403 . S
C1984 C1983 1.403 . S
C1984 C1985 1.404 . S
C1984 C1987 1.539 1_554 S
C1985 C1981 1.408 . S
C1985 C1984 1.404 . S
C1985 H1997 0.930 1_554 S
C1986 C1982 1.524 . S
C1986 H1998 0.956 . S
C1986 H1999 0.961 . S
C1986 H2000 0.961 . S
C1987 C1984 1.539 1_556 S
C1987 H2001 0.958 . S
C1987 H2002 0.961 . S
C1987 H2003 0.960 . S
H1988 C1972 0.931 . S
H1989 C1977 0.929 . S
H1990 C1978 0.960 . S
H1991 C1978 0.962 . S
H1992 C1978 0.960 . S
H1993 C1979 0.961 . S
H1994 C1979 0.961 . S
H1995 C1979 0.961 . S
H1996 C1980 0.931 . S
H1997 C1985 0.930 1_556 S
H1998 C1986 0.956 . S
H1999 C1986 0.961 . S
H2000 C1986 0.961 . S
H2001 C1987 0.958 . S
H2002 C1987 0.961 . S
H2003 C1987 0.960 . S
C2004 C2005 1.391 . S
C2004 C2006 1.394 . S
C2004 H2020 0.931 . S
C2005 C2004 1.391 . S
C2005 C2009 1.376 . S
C2006 C2004 1.394 . S
C2006 C2007 1.369 . S
C2006 C2010 1.531 . S
C2007 C2006 1.369 . S
C2007 C2008 1.410 . S
C2007 C2015 1.503 . S
C2008 C2007 1.410 . S
C2008 C2009 1.392 . S
C2008 C2011 1.502 1_556 S
C2009 C2005 1.376 . S
C2009 C2008 1.392 . S
C2009 H2021 0.929 . S
C2010 C2006 1.531 . S
C2010 H2022 0.960 . S
C2010 H2023 0.962 . S
C2010 H2024 0.960 . S
C2011 C2008 1.502 1_554 S
C2011 H2025 0.966 . S
C2011 H2026 0.956 1_554 S
C2011 H2027 0.969 . S
C2012 C2013 1.370 . S
C2012 C2014 1.363 . S
C2012 H2028 0.931 . S
C2013 C2012 1.370 . S
C2013 C2017 1.408 . S
C2014 C2012 1.363 . S
C2014 C2015 1.370 . S
C2014 C2018 1.524 . S
C2015 C2007 1.503 . S
C2015 C2014 1.370 . S
C2015 C2016 1.403 . S
C2016 C2015 1.403 . S
C2016 C2017 1.404 . S
C2016 C2019 1.539 . S
C2017 C2013 1.408 . S
C2017 C2016 1.404 . S
C2017 H2029 0.930 . S
C2018 C2014 1.524 . S
C2018 H2030 0.956 . S
C2018 H2031 0.961 . S
C2018 H2032 0.961 . S
C2019 C2016 1.539 . S
C2019 H2033 0.958 . S
C2019 H2034 0.961 . S
C2019 H2035 0.960 . S
H2020 C2004 0.931 . S
H2021 C2009 0.929 . S
H2022 C2010 0.960 . S
H2023 C2010 0.962 . S
H2024 C2010 0.960 . S
H2025 C2011 0.966 . S
H2026 C2011 0.956 1_556 S
H2027 C2011 0.969 . S
H2028 C2012 0.931 . S
H2029 C2017 0.930 . S
H2030 C2018 0.956 . S
H2031 C2018 0.961 . S
H2032 C2018 0.961 . S
H2033 C2019 0.958 . S
H2034 C2019 0.961 . S
H2035 C2019 0.960 . S
C2036 C2037 1.391 . S
C2036 C2038 1.394 . S
C2036 H2052 0.931 . S
C2037 C2036 1.391 . S
C2037 C2041 1.376 . S
C2038 C2036 1.394 . S
C2038 C2039 1.369 . S
C2038 C2042 1.531 . S
C2039 C2038 1.369 . S
C2039 C2040 1.410 . S
C2039 C2047 1.503 . S
C2040 C2039 1.410 . S
C2040 C2041 1.392 . S
C2040 C2043 1.511 . S
C2041 C2037 1.376 . S
C2041 C2040 1.392 . S
C2041 H2053 0.929 . S
C2042 C2038 1.531 . S
C2042 H2054 0.960 . S
C2042 H2055 0.962 . S
C2042 H2056 0.960 . S
C2043 C2040 1.511 . S
C2043 H2057 0.961 1_556 S
C2043 H2058 0.961 . S
C2043 H2059 0.961 . S
C2044 C2045 1.370 . S
C2044 C2046 1.363 . S
C2044 H2060 0.931 . S
C2045 C2044 1.370 . S
C2045 C2049 1.408 . S
C2046 C2044 1.363 . S
C2046 C2047 1.370 . S
C2046 C2050 1.524 . S
C2047 C2039 1.503 . S
C2047 C2046 1.370 . S
C2047 C2048 1.403 . S
C2048 C2047 1.403 . S
C2048 C2049 1.404 . S
C2048 C2051 1.539 . S
C2049 C2045 1.408 . S
C2049 C2048 1.404 . S
C2049 H2061 0.930 . S
C2050 C2046 1.524 . S
C2050 H2062 0.956 . S
C2050 H2063 0.961 . S
C2050 H2064 0.961 . S
C2051 C2048 1.539 . S
C2051 H2065 0.958 . S
C2051 H2066 0.961 . S
C2051 H2067 0.960 . S
H2052 C2036 0.931 . S
H2053 C2041 0.929 . S
H2054 C2042 0.960 . S
H2055 C2042 0.962 . S
H2056 C2042 0.960 . S
H2057 C2043 0.961 1_554 S
H2058 C2043 0.961 . S
H2059 C2043 0.961 . S
H2060 C2044 0.931 . S
H2061 C2049 0.930 . S
H2062 C2050 0.956 . S
H2063 C2050 0.961 . S
H2064 C2050 0.961 . S
H2065 C2051 0.958 . S
H2066 C2051 0.961 . S
H2067 C2051 0.960 . S
C2068 C2069 1.391 . S
C2068 C2070 1.394 . S
C2068 H2084 0.931 . S
C2069 C2068 1.391 . S
C2069 C2073 1.376 . S
C2070 C2068 1.394 . S
C2070 C2071 1.369 . S
C2070 C2074 1.531 . S
C2071 C2070 1.369 . S
C2071 C2072 1.410 . S
C2071 C2079 1.503 . S
C2072 C2071 1.410 . S
C2072 C2073 1.392 . S
C2072 C2075 1.511 . S
C2073 C2069 1.376 . S
C2073 C2072 1.392 . S
C2073 H2085 0.929 . S
C2074 C2070 1.531 . S
C2074 H2086 0.960 . S
C2074 H2087 0.962 . S
C2074 H2088 0.960 . S
C2075 C2072 1.511 . S
C2075 H2089 0.961 . S
C2075 H2090 0.961 . S
C2075 H2091 0.961 . S
C2076 C2077 1.370 . S
C2076 C2078 1.363 . S
C2076 H2092 0.931 . S
C2077 C2076 1.370 . S
C2077 C2081 1.408 . S
C2078 C2076 1.363 . S
C2078 C2079 1.370 . S
C2078 C2082 1.524 . S
C2079 C2071 1.503 . S
C2079 C2078 1.370 . S
C2079 C2080 1.403 . S
C2080 C2079 1.403 . S
C2080 C2081 1.404 . S
C2080 C2083 1.539 . S
C2081 C2077 1.408 . S
C2081 C2080 1.404 . S
C2081 H2093 0.930 . S
C2082 C2078 1.524 . S
C2082 H2094 0.958 . S
C2082 H2095 0.961 . S
C2082 H2096 0.961 1_556 S
C2083 C2080 1.539 . S
C2083 H2097 0.958 . S
C2083 H2098 0.961 . S
C2083 H2099 0.960 . S
H2084 C2068 0.931 . S
H2085 C2073 0.929 . S
H2086 C2074 0.960 . S
H2087 C2074 0.962 . S
H2088 C2074 0.960 . S
H2089 C2075 0.961 . S
H2090 C2075 0.961 . S
H2091 C2075 0.961 . S
H2092 C2076 0.931 . S
H2093 C2081 0.930 . S
H2094 C2082 0.958 . S
H2095 C2082 0.961 . S
H2096 C2082 0.961 1_554 S
H2097 C2083 0.958 . S
H2098 C2083 0.961 . S
H2099 C2083 0.960 . S
C2100 C2101 1.391 . S
C2100 C2102 1.394 . S
C2100 H2116 0.931 . S
C2101 C2100 1.391 . S
C2101 C2105 1.376 . S
C2102 C2100 1.394 . S
C2102 C2103 1.369 . S
C2102 C2106 1.531 . S
C2103 C2102 1.369 . S
C2103 C2104 1.410 . S
C2103 C2111 1.503 . S
C2104 C2103 1.410 . S
C2104 C2105 1.392 . S
C2104 C2107 1.511 . S
C2105 C2101 1.376 . S
C2105 C2104 1.392 . S
C2105 H2117 0.929 . S
C2106 C2102 1.531 . S
C2106 H2118 0.960 . S
C2106 H2119 0.962 . S
C2106 H2120 0.960 . S
C2107 C2104 1.511 . S
C2107 H2121 0.961 . S
C2107 H2122 0.961 . S
C2107 H2123 0.961 . S
C2108 C2109 1.370 . S
C2108 C2110 1.363 . S
C2108 H2124 0.931 . S
C2109 C2108 1.370 . S
C2109 C2113 1.408 . S
C2110 C2108 1.363 . S
C2110 C2111 1.370 . S
C2110 C2114 1.524 . S
C2111 C2103 1.503 . S
C2111 C2110 1.370 . S
C2111 C2112 1.403 . S
C2112 C2111 1.403 . S
C2112 C2113 1.404 . S
C2112 C2115 1.539 . S
C2113 C2109 1.408 . S
C2113 C2112 1.404 . S
C2113 H2125 0.930 . S
C2114 C2110 1.524 . S
C2114 H2126 0.956 . S
C2114 H2127 0.961 . S
C2114 H2128 0.961 . S
C2115 C2112 1.539 . S
C2115 H2129 0.958 . S
C2115 H2130 0.961 . S
C2115 H2131 0.960 . S
H2116 C2100 0.931 . S
H2117 C2105 0.929 . S
H2118 C2106 0.960 . S
H2119 C2106 0.962 . S
H2120 C2106 0.960 . S
H2121 C2107 0.961 . S
H2122 C2107 0.961 . S
H2123 C2107 0.961 . S
H2124 C2108 0.931 . S
H2125 C2113 0.930 . S
H2126 C2114 0.956 . S
H2127 C2114 0.961 . S
H2128 C2114 0.961 . S
H2129 C2115 0.958 . S
H2130 C2115 0.961 . S
H2131 C2115 0.960 . S
C2132 C2133 1.391 . S
C2132 C2134 1.394 . S
C2132 H2148 0.931 . S
C2133 C2132 1.391 . S
C2133 C2137 1.376 . S
C2134 C2132 1.394 . S
C2134 C2135 1.369 . S
C2134 C2138 1.531 . S
C2135 C2134 1.369 . S
C2135 C2136 1.410 . S
C2135 C2143 1.503 . S
C2136 C2135 1.410 . S
C2136 C2137 1.392 . S
C2136 C2139 1.511 . S
C2137 C2133 1.376 . S
C2137 C2136 1.392 . S
C2137 H2149 0.929 . S
C2138 C2134 1.531 . S
C2138 H2150 0.960 . S
C2138 H2151 0.962 . S
C2138 H2152 0.960 . S
C2139 C2136 1.511 . S
C2139 H2153 0.961 . S
C2139 H2154 0.961 . S
C2139 H2155 0.961 . S
C2140 C2141 1.370 . S
C2140 C2142 1.363 . S
C2140 H2156 0.931 . S
C2141 C2140 1.370 . S
C2141 C2145 1.408 . S
C2142 C2140 1.363 . S
C2142 C2143 1.370 . S
C2142 C2146 1.524 . S
C2143 C2135 1.503 . S
C2143 C2142 1.370 . S
C2143 C2144 1.403 . S
C2144 C2143 1.403 . S
C2144 C2145 1.404 . S
C2144 C2147 1.539 . S
C2145 C2141 1.408 . S
C2145 C2144 1.404 . S
C2145 H2157 0.930 . S
C2146 C2142 1.524 . S
C2146 H2158 0.956 . S
C2146 H2159 0.961 . S
C2146 H2160 0.961 . S
C2147 C2144 1.539 . S
C2147 H2161 0.958 . S
C2147 H2162 0.961 . S
C2147 H2163 0.960 . S
H2148 C2132 0.931 . S
H2149 C2137 0.929 . S
H2150 C2138 0.960 . S
H2151 C2138 0.962 . S
H2152 C2138 0.960 . S
H2153 C2139 0.961 . S
H2154 C2139 0.961 . S
H2155 C2139 0.961 . S
H2156 C2140 0.931 . S
H2157 C2145 0.930 . S
H2158 C2146 0.956 . S
H2159 C2146 0.961 . S
H2160 C2146 0.961 . S
H2161 C2147 0.958 . S
H2162 C2147 0.961 . S
H2163 C2147 0.960 . S
C2164 C2165 1.391 . S
C2164 C2166 1.394 . S
C2164 H2180 0.931 . S
C2165 C2164 1.391 . S
C2165 C2169 1.376 . S
C2166 C2164 1.394 . S
C2166 C2167 1.369 . S
C2166 C2170 1.531 . S
C2167 C2166 1.369 . S
C2167 C2168 1.410 . S
C2167 C2175 1.503 . S
C2168 C2167 1.410 . S
C2168 C2169 1.392 . S
C2168 C2171 1.511 . S
C2169 C2165 1.376 . S
C2169 C2168 1.392 . S
C2169 H2181 0.929 . S
C2170 C2166 1.531 . S
C2170 H2182 0.960 . S
C2170 H2183 0.962 . S
C2170 H2184 0.960 . S
C2171 C2168 1.511 . S
C2171 H2185 0.961 . S
C2171 H2186 0.961 . S
C2171 H2187 0.961 . S
C2172 C2173 1.370 . S
C2172 C2174 1.363 . S
C2172 H2188 0.931 . S
C2173 C2172 1.370 . S
C2173 C2177 1.408 . S
C2174 C2172 1.363 . S
C2174 C2175 1.370 . S
C2174 C2178 1.524 . S
C2175 C2167 1.503 . S
C2175 C2174 1.370 . S
C2175 C2176 1.403 . S
C2176 C2175 1.403 . S
C2176 C2177 1.404 . S
C2176 C2179 1.539 . S
C2177 C2173 1.408 . S
C2177 C2176 1.404 . S
C2177 H2189 0.930 . S
C2178 C2174 1.524 . S
C2178 H2190 0.956 . S
C2178 H2191 0.961 . S
C2178 H2192 0.961 . S
C2179 C2176 1.539 . S
C2179 H2193 0.958 . S
C2179 H2194 0.961 . S
C2179 H2195 0.960 . S
H2180 C2164 0.931 . S
H2181 C2169 0.929 . S
H2182 C2170 0.960 . S
H2183 C2170 0.962 . S
H2184 C2170 0.960 . S
H2185 C2171 0.961 . S
H2186 C2171 0.961 . S
H2187 C2171 0.961 . S
H2188 C2172 0.931 . S
H2189 C2177 0.930 . S
H2190 C2178 0.956 . S
H2191 C2178 0.961 . S
H2192 C2178 0.961 . S
H2193 C2179 0.958 . S
H2194 C2179 0.961 . S
H2195 C2179 0.960 . S
C2196 C2197 1.391 . S
C2196 C2198 1.394 . S
C2196 H2212 0.931 . S
C2197 C2196 1.391 . S
C2197 C2201 1.376 . S
C2198 C2196 1.394 . S
C2198 C2199 1.369 . S
C2198 C2202 1.531 . S
C2199 C2198 1.369 . S
C2199 C2200 1.410 . S
C2199 C2207 1.503 . S
C2200 C2199 1.410 . S
C2200 C2201 1.392 . S
C2200 C2203 1.511 . S
C2201 C2197 1.376 . S
C2201 C2200 1.392 . S
C2201 H2213 0.929 . S
C2202 C2198 1.531 . S
C2202 H2214 0.960 . S
C2202 H2215 0.962 . S
C2202 H2216 0.960 . S
C2203 C2200 1.511 . S
C2203 H2217 0.961 . S
C2203 H2218 0.961 . S
C2203 H2219 0.961 . S
C2204 C2205 1.370 . S
C2204 C2206 1.363 . S
C2204 H2220 0.931 . S
C2205 C2204 1.370 . S
C2205 C2209 1.408 . S
C2206 C2204 1.363 . S
C2206 C2207 1.370 . S
C2206 C2210 1.524 . S
C2207 C2199 1.503 . S
C2207 C2206 1.370 . S
C2207 C2208 1.403 . S
C2208 C2207 1.403 . S
C2208 C2209 1.404 . S
C2208 C2211 1.539 . S
C2209 C2205 1.408 . S
C2209 C2208 1.404 . S
C2209 H2221 0.930 . S
C2210 C2206 1.524 . S
C2210 H2222 0.956 . S
C2210 H2223 0.961 . S
C2210 H2224 0.961 . S
C2211 C2208 1.539 . S
C2211 H2225 0.958 . S
C2211 H2226 0.961 . S
C2211 H2227 0.960 . S
H2212 C2196 0.931 . S
H2213 C2201 0.929 . S
H2214 C2202 0.960 . S
H2215 C2202 0.962 . S
H2216 C2202 0.960 . S
H2217 C2203 0.961 . S
H2218 C2203 0.961 . S
H2219 C2203 0.961 . S
H2220 C2204 0.931 . S
H2221 C2209 0.930 . S
H2222 C2210 0.956 . S
H2223 C2210 0.961 . S
H2224 C2210 0.961 . S
H2225 C2211 0.958 . S
H2226 C2211 0.961 . S
H2227 C2211 0.960 . S
C2228 C2229 1.391 . S
C2228 C2230 1.394 . S
C2228 H2244 0.931 . S
C2229 C2228 1.391 . S
C2229 C2233 1.376 . S
C2230 C2228 1.394 . S
C2230 C2231 1.369 . S
C2230 C2234 1.531 . S
C2231 C2230 1.369 . S
C2231 C2232 1.410 . S
C2231 C2239 1.503 . S
C2232 C2231 1.410 . S
C2232 C2233 1.392 . S
C2232 C2235 1.511 . S
C2233 C2229 1.376 . S
C2233 C2232 1.392 . S
C2233 H2245 0.929 . S
C2234 C2230 1.531 . S
C2234 H2246 0.960 . S
C2234 H2247 0.962 . S
C2234 H2248 0.960 . S
C2235 C2232 1.511 . S
C2235 H2249 0.961 . S
C2235 H2250 0.961 . S
C2235 H2251 0.961 . S
C2236 C2237 1.370 . S
C2236 C2238 1.363 . S
C2236 H2252 0.931 . S
C2237 C2236 1.370 . S
C2237 C2241 1.408 . S
C2238 C2236 1.363 . S
C2238 C2239 1.370 . S
C2238 C2242 1.524 . S
C2239 C2231 1.503 . S
C2239 C2238 1.370 . S
C2239 C2240 1.403 . S
C2240 C2239 1.403 . S
C2240 C2241 1.404 . S
C2240 C2243 1.539 . S
C2241 C2237 1.408 . S
C2241 C2240 1.404 . S
C2241 H2253 0.930 . S
C2242 C2238 1.524 . S
C2242 H2254 0.956 . S
C2242 H2255 0.961 . S
C2242 H2256 0.961 . S
C2243 C2240 1.539 . S
C2243 H2257 0.958 . S
C2243 H2258 0.961 . S
C2243 H2259 0.960 . S
H2244 C2228 0.931 . S
H2245 C2233 0.929 . S
H2246 C2234 0.960 . S
H2247 C2234 0.962 . S
H2248 C2234 0.960 . S
H2249 C2235 0.961 . S
H2250 C2235 0.961 . S
H2251 C2235 0.961 . S
H2252 C2236 0.931 . S
H2253 C2241 0.930 . S
H2254 C2242 0.956 . S
H2255 C2242 0.961 . S
H2256 C2242 0.961 . S
H2257 C2243 0.958 . S
H2258 C2243 0.961 . S
H2259 C2243 0.960 . S
C2260 C2261 1.391 . S
C2260 C2262 1.394 . S
C2260 H2276 0.931 . S
C2261 C2260 1.391 . S
C2261 C2265 1.376 . S
C2262 C2260 1.394 . S
C2262 C2263 1.369 . S
C2262 C2266 1.531 . S
C2263 C2262 1.369 . S
C2263 C2264 1.410 . S
C2263 C2271 1.503 . S
C2264 C2263 1.410 . S
C2264 C2265 1.392 . S
C2264 C2267 1.511 . S
C2265 C2261 1.376 . S
C2265 C2264 1.392 . S
C2265 H2277 0.929 . S
C2266 C2262 1.531 . S
C2266 H2278 0.960 . S
C2266 H2279 0.962 . S
C2266 H2280 0.960 . S
C2267 C2264 1.511 . S
C2267 H2281 0.961 . S
C2267 H2282 0.961 . S
C2267 H2283 0.961 . S
C2268 C2269 1.370 . S
C2268 C2270 1.363 . S
C2268 H2284 0.931 . S
C2269 C2268 1.370 . S
C2269 C2273 1.408 . S
C2270 C2268 1.363 . S
C2270 C2271 1.370 . S
C2270 C2274 1.524 . S
C2271 C2263 1.503 . S
C2271 C2270 1.370 . S
C2271 C2272 1.403 . S
C2272 C2271 1.403 . S
C2272 C2273 1.404 . S
C2272 C2275 1.539 . S
C2273 C2269 1.408 . S
C2273 C2272 1.404 . S
C2273 H2285 0.930 . S
C2274 C2270 1.524 . S
C2274 H2286 0.956 . S
C2274 H2287 0.961 . S
C2274 H2288 0.961 . S
C2275 C2272 1.539 . S
C2275 H2289 0.958 . S
C2275 H2290 0.961 . S
C2275 H2291 0.960 . S
H2276 C2260 0.931 . S
H2277 C2265 0.929 . S
H2278 C2266 0.960 . S
H2279 C2266 0.962 . S
H2280 C2266 0.960 . S
H2281 C2267 0.961 . S
H2282 C2267 0.961 . S
H2283 C2267 0.961 . S
H2284 C2268 0.931 . S
H2285 C2273 0.930 . S
H2286 C2274 0.956 . S
H2287 C2274 0.961 . S
H2288 C2274 0.961 . S
H2289 C2275 0.958 . S
H2290 C2275 0.961 . S
H2291 C2275 0.960 . S
C2292 C2293 1.391 . S
C2292 C2294 1.394 . S
C2292 H2308 0.931 . S
C2293 C2292 1.391 . S
C2293 C2297 1.376 . S
C2294 C2292 1.394 . S
C2294 C2295 1.369 . S
C2294 C2298 1.531 . S
C2295 C2294 1.369 . S
C2295 C2296 1.410 . S
C2295 C2303 1.503 . S
C2296 C2295 1.410 . S
C2296 C2297 1.392 . S
C2296 C2299 1.511 . S
C2297 C2293 1.376 . S
C2297 C2296 1.392 . S
C2297 H2309 0.929 . S
C2298 C2294 1.531 . S
C2298 H2310 0.960 . S
C2298 H2311 0.962 . S
C2298 H2312 0.960 . S
C2299 C2296 1.511 . S
C2299 H2313 0.961 . S
C2299 H2314 0.961 . S
C2299 H2315 0.961 . S
C2300 C2301 1.370 . S
C2300 C2302 1.363 . S
C2300 H2316 0.931 . S
C2301 C2300 1.370 . S
C2301 C2305 1.408 . S
C2302 C2300 1.363 . S
C2302 C2303 1.370 . S
C2302 C2306 1.524 . S
C2303 C2295 1.503 . S
C2303 C2302 1.370 . S
C2303 C2304 1.403 . S
C2304 C2303 1.403 . S
C2304 C2305 1.404 . S
C2304 C2307 1.539 . S
C2305 C2301 1.408 . S
C2305 C2304 1.404 . S
C2305 H2317 0.930 . S
C2306 C2302 1.524 . S
C2306 H2318 0.956 . S
C2306 H2319 0.961 . S
C2306 H2320 0.961 . S
C2307 C2304 1.539 . S
C2307 H2321 0.958 . S
C2307 H2322 0.961 . S
C2307 H2323 0.960 . S
H2308 C2292 0.931 . S
H2309 C2297 0.929 . S
H2310 C2298 0.960 . S
H2311 C2298 0.962 . S
H2312 C2298 0.960 . S
H2313 C2299 0.961 . S
H2314 C2299 0.961 . S
H2315 C2299 0.961 . S
H2316 C2300 0.931 . S
H2317 C2305 0.930 . S
H2318 C2306 0.956 . S
H2319 C2306 0.961 . S
H2320 C2306 0.961 . S
H2321 C2307 0.958 . S
H2322 C2307 0.961 . S
H2323 C2307 0.960 . S
C2324 C2325 1.391 . S
C2324 C2326 1.394 . S
C2324 H2340 0.931 . S
C2325 C2324 1.391 . S
C2325 C2329 1.376 . S
C2326 C2324 1.394 . S
C2326 C2327 1.369 . S
C2326 C2330 1.531 . S
C2327 C2326 1.369 . S
C2327 C2328 1.410 . S
C2327 C2335 1.503 . S
C2328 C2327 1.410 . S
C2328 C2329 1.392 . S
C2328 C2331 1.511 . S
C2329 C2325 1.376 . S
C2329 C2328 1.392 . S
C2329 H2341 0.929 . S
C2330 C2326 1.531 . S
C2330 H2342 0.960 . S
C2330 H2343 0.962 . S
C2330 H2344 0.960 . S
C2331 C2328 1.511 . S
C2331 H2345 0.961 . S
C2331 H2346 0.961 . S
C2331 H2347 0.961 . S
C2332 C2333 1.370 . S
C2332 C2334 1.363 . S
C2332 H2348 0.931 . S
C2333 C2332 1.370 . S
C2333 C2337 1.408 . S
C2334 C2332 1.363 . S
C2334 C2335 1.370 . S
C2334 C2338 1.524 . S
C2335 C2327 1.503 . S
C2335 C2334 1.370 . S
C2335 C2336 1.403 . S
C2336 C2335 1.403 . S
C2336 C2337 1.404 . S
C2336 C2339 1.539 . S
C2337 C2333 1.408 . S
C2337 C2336 1.404 . S
C2337 H2349 0.930 . S
C2338 C2334 1.524 . S
C2338 H2350 0.956 . S
C2338 H2351 0.961 . S
C2338 H2352 0.961 . S
C2339 C2336 1.539 . S
C2339 H2353 0.958 . S
C2339 H2354 0.961 . S
C2339 H2355 0.960 . S
H2340 C2324 0.931 . S
H2341 C2329 0.929 . S
H2342 C2330 0.960 . S
H2343 C2330 0.962 . S
H2344 C2330 0.960 . S
H2345 C2331 0.961 . S
H2346 C2331 0.961 . S
H2347 C2331 0.961 . S
H2348 C2332 0.931 . S
H2349 C2337 0.930 . S
H2350 C2338 0.956 . S
H2351 C2338 0.961 . S
H2352 C2338 0.961 . S
H2353 C2339 0.958 . S
H2354 C2339 0.961 . S
H2355 C2339 0.960 . S
C2356 C2357 1.391 . S
C2356 C2358 1.394 . S
C2356 H2372 0.931 . S
C2357 C2356 1.391 . S
C2357 C2361 1.376 . S
C2358 C2356 1.394 . S
C2358 C2359 1.369 . S
C2358 C2362 1.531 . S
C2359 C2358 1.369 . S
C2359 C2360 1.410 . S
C2359 C2367 1.503 . S
C2360 C2359 1.410 . S
C2360 C2361 1.392 . S
C2360 C2363 1.511 . S
C2361 C2357 1.376 . S
C2361 C2360 1.392 . S
C2361 H2373 0.929 . S
C2362 C2358 1.531 . S
C2362 H2374 0.960 . S
C2362 H2375 0.962 . S
C2362 H2376 0.960 . S
C2363 C2360 1.511 . S
C2363 H2377 0.961 . S
C2363 H2378 0.961 . S
C2363 H2379 0.961 . S
C2364 C2365 1.370 . S
C2364 C2366 1.363 . S
C2364 H2380 0.931 . S
C2365 C2364 1.370 . S
C2365 C2369 1.408 . S
C2366 C2364 1.363 . S
C2366 C2367 1.370 . S
C2366 C2370 1.524 . S
C2367 C2359 1.503 . S
C2367 C2366 1.370 . S
C2367 C2368 1.403 . S
C2368 C2367 1.403 . S
C2368 C2369 1.404 . S
C2368 C2371 1.539 . S
C2369 C2365 1.408 . S
C2369 C2368 1.404 . S
C2369 H2381 0.930 . S
C2370 C2366 1.524 . S
C2370 H2382 0.956 . S
C2370 H2383 0.961 . S
C2370 H2384 0.961 . S
C2371 C2368 1.539 . S
C2371 H2385 0.958 . S
C2371 H2386 0.961 . S
C2371 H2387 0.960 . S
H2372 C2356 0.931 . S
H2373 C2361 0.929 . S
H2374 C2362 0.960 . S
H2375 C2362 0.962 . S
H2376 C2362 0.960 . S
H2377 C2363 0.961 . S
H2378 C2363 0.961 . S
H2379 C2363 0.961 . S
H2380 C2364 0.931 . S
H2381 C2369 0.930 . S
H2382 C2370 0.956 . S
H2383 C2370 0.961 . S
H2384 C2370 0.961 . S
H2385 C2371 0.958 . S
H2386 C2371 0.961 . S
H2387 C2371 0.960 . S
C2388 C2389 1.391 . S
C2388 C2390 1.394 . S
C2388 H2404 0.931 . S
C2389 C2388 1.391 . S
C2389 C2393 1.376 . S
C2390 C2388 1.394 . S
C2390 C2391 1.369 . S
C2390 C2394 1.531 . S
C2391 C2390 1.369 . S
C2391 C2392 1.410 . S
C2391 C2399 1.503 . S
C2392 C2391 1.410 . S
C2392 C2393 1.392 . S
C2392 C2395 1.511 . S
C2393 C2389 1.376 . S
C2393 C2392 1.392 . S
C2393 H2405 0.929 . S
C2394 C2390 1.531 . S
C2394 H2406 0.960 . S
C2394 H2407 0.962 . S
C2394 H2408 0.960 . S
C2395 C2392 1.511 . S
C2395 H2409 0.961 . S
C2395 H2410 0.961 . S
C2395 H2411 0.961 . S
C2396 C2397 1.370 . S
C2396 C2398 1.363 . S
C2396 H2412 0.931 . S
C2397 C2396 1.370 . S
C2397 C2401 1.408 . S
C2398 C2396 1.363 . S
C2398 C2399 1.370 . S
C2398 C2402 1.524 . S
C2399 C2391 1.503 . S
C2399 C2398 1.370 . S
C2399 C2400 1.403 . S
C2400 C2399 1.403 . S
C2400 C2401 1.404 . S
C2400 C2403 1.539 . S
C2401 C2397 1.408 . S
C2401 C2400 1.404 . S
C2401 H2413 0.930 . S
C2402 C2398 1.524 . S
C2402 H2414 0.956 . S
C2402 H2415 0.961 . S
C2402 H2416 0.961 . S
C2403 C2400 1.539 . S
C2403 H2417 0.958 . S
C2403 H2418 0.961 . S
C2403 H2419 0.960 . S
H2404 C2388 0.931 . S
H2405 C2393 0.929 . S
H2406 C2394 0.960 . S
H2407 C2394 0.962 . S
H2408 C2394 0.960 . S
H2409 C2395 0.961 . S
H2410 C2395 0.961 . S
H2411 C2395 0.961 . S
H2412 C2396 0.931 . S
H2413 C2401 0.930 . S
H2414 C2402 0.956 . S
H2415 C2402 0.961 . S
H2416 C2402 0.961 . S
H2417 C2403 0.958 . S
H2418 C2403 0.961 . S
H2419 C2403 0.960 . S
C2420 C2421 1.391 . S
C2420 C2422 1.394 . S
C2420 H2436 0.931 . S
C2421 C2420 1.391 . S
C2421 C2425 1.376 . S
C2422 C2420 1.394 . S
C2422 C2423 1.369 . S
C2422 C2426 1.531 . S
C2423 C2422 1.369 . S
C2423 C2424 1.410 . S
C2423 C2431 1.503 . S
C2424 C2423 1.410 . S
C2424 C2425 1.392 . S
C2424 C2427 1.511 . S
C2425 C2421 1.376 . S
C2425 C2424 1.392 . S
C2425 H2437 0.929 . S
C2426 C2422 1.531 . S
C2426 H2438 0.960 . S
C2426 H2439 0.962 . S
C2426 H2440 0.960 . S
C2427 C2424 1.511 . S
C2427 H2441 0.961 . S
C2427 H2442 0.961 . S
C2427 H2443 0.961 . S
C2428 C2429 1.370 . S
C2428 C2430 1.363 . S
C2428 H2444 0.931 . S
C2429 C2428 1.370 . S
C2429 C2433 1.408 . S
C2430 C2428 1.363 . S
C2430 C2431 1.370 . S
C2430 C2434 1.524 . S
C2431 C2423 1.503 . S
C2431 C2430 1.370 . S
C2431 C2432 1.403 . S
C2432 C2431 1.403 . S
C2432 C2433 1.404 . S
C2432 C2435 1.539 . S
C2433 C2429 1.408 . S
C2433 C2432 1.404 . S
C2433 H2445 0.930 . S
C2434 C2430 1.524 . S
C2434 H2446 0.956 . S
C2434 H2447 0.961 . S
C2434 H2448 0.961 . S
C2435 C2432 1.539 . S
C2435 H2449 0.958 . S
C2435 H2450 0.961 . S
C2435 H2451 0.960 . S
H2436 C2420 0.931 . S
H2437 C2425 0.929 . S
H2438 C2426 0.960 . S
H2439 C2426 0.962 . S
H2440 C2426 0.960 . S
H2441 C2427 0.961 . S
H2442 C2427 0.961 . S
H2443 C2427 0.961 . S
H2444 C2428 0.931 . S
H2445 C2433 0.930 . S
H2446 C2434 0.956 . S
H2447 C2434 0.961 . S
H2448 C2434 0.961 . S
H2449 C2435 0.958 . S
H2450 C2435 0.961 . S
H2451 C2435 0.960 . S
C2452 C2453 1.391 . S
C2452 C2454 1.394 . S
C2452 H2468 0.931 . S
C2453 C2452 1.391 . S
C2453 C2457 1.376 . S
C2454 C2452 1.394 . S
C2454 C2455 1.369 . S
C2454 C2458 1.531 . S
C2455 C2454 1.369 . S
C2455 C2456 1.410 . S
C2455 C2463 1.503 . S
C2456 C2455 1.410 . S
C2456 C2457 1.392 . S
C2456 C2459 1.511 . S
C2457 C2453 1.376 . S
C2457 C2456 1.392 . S
C2457 H2469 0.929 . S
C2458 C2454 1.531 . S
C2458 H2470 0.960 . S
C2458 H2471 0.962 . S
C2458 H2472 0.960 . S
C2459 C2456 1.511 . S
C2459 H2473 0.961 . S
C2459 H2474 0.961 . S
C2459 H2475 0.961 . S
C2460 C2461 1.370 . S
C2460 C2462 1.363 . S
C2460 H2476 0.931 . S
C2461 C2460 1.370 . S
C2461 C2465 1.408 . S
C2462 C2460 1.363 . S
C2462 C2463 1.370 . S
C2462 C2466 1.524 . S
C2463 C2455 1.503 . S
C2463 C2462 1.370 . S
C2463 C2464 1.403 . S
C2464 C2463 1.403 . S
C2464 C2465 1.404 . S
C2464 C2467 1.539 . S
C2465 C2461 1.408 . S
C2465 C2464 1.404 . S
C2465 H2477 0.930 . S
C2466 C2462 1.524 . S
C2466 H2478 0.956 . S
C2466 H2479 0.961 . S
C2466 H2480 0.961 . S
C2467 C2464 1.539 . S
C2467 H2481 0.958 . S
C2467 H2482 0.961 . S
C2467 H2483 0.960 . S
H2468 C2452 0.931 . S
H2469 C2457 0.929 . S
H2470 C2458 0.960 . S
H2471 C2458 0.962 . S
H2472 C2458 0.960 . S
H2473 C2459 0.961 . S
H2474 C2459 0.961 . S
H2475 C2459 0.961 . S
H2476 C2460 0.931 . S
H2477 C2465 0.930 . S
H2478 C2466 0.956 . S
H2479 C2466 0.961 . S
H2480 C2466 0.961 . S
H2481 C2467 0.958 . S
H2482 C2467 0.961 . S
H2483 C2467 0.960 . S
C2484 C2485 1.391 . S
C2484 C2486 1.394 . S
C2484 H2500 0.931 . S
C2485 C2484 1.391 . S
C2485 C2489 1.376 . S
C2486 C2484 1.394 . S
C2486 C2487 1.369 . S
C2486 C2490 1.531 . S
C2487 C2486 1.369 . S
C2487 C2488 1.410 . S
C2487 C2495 1.503 . S
C2488 C2487 1.410 . S
C2488 C2489 1.392 . S
C2488 C2491 1.511 . S
C2489 C2485 1.376 . S
C2489 C2488 1.392 . S
C2489 H2501 0.929 . S
C2490 C2486 1.531 . S
C2490 H2502 0.960 . S
C2490 H2503 0.962 . S
C2490 H2504 0.960 . S
C2491 C2488 1.511 . S
C2491 H2505 0.961 . S
C2491 H2506 0.961 . S
C2491 H2507 0.961 . S
C2492 C2493 1.370 . S
C2492 C2494 1.363 . S
C2492 H2508 0.931 . S
C2493 C2492 1.370 . S
C2493 C2497 1.408 . S
C2494 C2492 1.363 . S
C2494 C2495 1.370 . S
C2494 C2498 1.524 . S
C2495 C2487 1.503 . S
C2495 C2494 1.370 . S
C2495 C2496 1.403 . S
C2496 C2495 1.403 . S
C2496 C2497 1.404 . S
C2496 C2499 1.539 . S
C2497 C2493 1.408 . S
C2497 C2496 1.404 . S
C2497 H2509 0.930 . S
C2498 C2494 1.524 . S
C2498 H2510 0.956 . S
C2498 H2511 0.961 . S
C2498 H2512 0.961 . S
C2499 C2496 1.539 . S
C2499 H2513 0.958 . S
C2499 H2514 0.961 . S
C2499 H2515 0.960 . S
H2500 C2484 0.931 . S
H2501 C2489 0.929 . S
H2502 C2490 0.960 . S
H2503 C2490 0.962 . S
H2504 C2490 0.960 . S
H2505 C2491 0.961 . S
H2506 C2491 0.961 . S
H2507 C2491 0.961 . S
H2508 C2492 0.931 . S
H2509 C2497 0.930 . S
H2510 C2498 0.956 . S
H2511 C2498 0.961 . S
H2512 C2498 0.961 . S
H2513 C2499 0.958 . S
H2514 C2499 0.961 . S
H2515 C2499 0.960 . S
C2516 C2517 1.391 . S
C2516 C2518 1.394 . S
C2516 H2532 0.931 . S
C2517 C2516 1.391 . S
C2517 C2521 1.376 . S
C2518 C2516 1.394 . S
C2518 C2519 1.369 . S
C2518 C2522 1.531 . S
C2519 C2518 1.369 . S
C2519 C2520 1.410 . S
C2519 C2527 1.503 . S
C2520 C2519 1.410 . S
C2520 C2521 1.392 . S
C2520 C2523 1.511 . S
C2521 C2517 1.376 . S
C2521 C2520 1.392 . S
C2521 H2533 0.929 . S
C2522 C2518 1.531 . S
C2522 H2534 0.960 . S
C2522 H2535 0.962 . S
C2522 H2536 0.960 . S
C2523 C2520 1.511 . S
C2523 H2537 0.961 . S
C2523 H2538 0.961 . S
C2523 H2539 0.961 . S
C2524 C2525 1.370 . S
C2524 C2526 1.363 . S
C2524 H2540 0.931 . S
C2525 C2524 1.370 . S
C2525 C2529 1.408 . S
C2526 C2524 1.363 . S
C2526 C2527 1.370 . S
C2526 C2530 1.524 . S
C2527 C2519 1.503 . S
C2527 C2526 1.370 . S
C2527 C2528 1.403 . S
C2528 C2527 1.403 . S
C2528 C2529 1.404 . S
C2528 C2531 1.539 . S
C2529 C2525 1.408 . S
C2529 C2528 1.404 . S
C2529 H2541 0.930 . S
C2530 C2526 1.524 . S
C2530 H2542 0.956 . S
C2530 H2543 0.961 . S
C2530 H2544 0.961 . S
C2531 C2528 1.539 . S
C2531 H2545 0.958 . S
C2531 H2546 0.961 . S
C2531 H2547 0.960 . S
H2532 C2516 0.931 . S
H2533 C2521 0.929 . S
H2534 C2522 0.960 . S
H2535 C2522 0.962 . S
H2536 C2522 0.960 . S
H2537 C2523 0.961 . S
H2538 C2523 0.961 . S
H2539 C2523 0.961 . S
H2540 C2524 0.931 . S
H2541 C2529 0.930 . S
H2542 C2530 0.956 . S
H2543 C2530 0.961 . S
H2544 C2530 0.961 . S
H2545 C2531 0.958 . S
H2546 C2531 0.961 . S
H2547 C2531 0.960 . S
C2548 C2549 1.391 . S
C2548 C2550 1.394 . S
C2548 H2564 0.931 . S
C2549 C2548 1.391 . S
C2549 C2553 1.376 . S
C2550 C2548 1.394 . S
C2550 C2551 1.369 . S
C2550 C2554 1.531 . S
C2551 C2550 1.369 . S
C2551 C2552 1.410 . S
C2551 C2559 1.503 . S
C2552 C2551 1.410 . S
C2552 C2553 1.392 . S
C2552 C2555 1.511 . S
C2553 C2549 1.376 . S
C2553 C2552 1.392 . S
C2553 H2565 0.929 . S
C2554 C2550 1.531 . S
C2554 H2566 0.960 . S
C2554 H2567 0.962 . S
C2554 H2568 0.960 . S
C2555 C2552 1.511 . S
C2555 H2569 0.961 . S
C2555 H2570 0.961 . S
C2555 H2571 0.961 . S
C2556 C2557 1.370 . S
C2556 C2558 1.363 . S
C2556 H2572 0.931 . S
C2557 C2556 1.370 . S
C2557 C2561 1.408 . S
C2558 C2556 1.363 . S
C2558 C2559 1.370 . S
C2558 C2562 1.524 . S
C2559 C2551 1.503 . S
C2559 C2558 1.370 . S
C2559 C2560 1.403 . S
C2560 C2559 1.403 . S
C2560 C2561 1.404 . S
C2560 C2563 1.539 . S
C2561 C2557 1.408 . S
C2561 C2560 1.404 . S
C2561 H2573 0.930 . S
C2562 C2558 1.524 . S
C2562 H2574 0.956 . S
C2562 H2575 0.961 . S
C2562 H2576 0.961 . S
C2563 C2560 1.539 . S
C2563 H2577 0.958 . S
C2563 H2578 0.961 . S
C2563 H2579 0.960 . S
H2564 C2548 0.931 . S
H2565 C2553 0.929 . S
H2566 C2554 0.960 . S
H2567 C2554 0.962 . S
H2568 C2554 0.960 . S
H2569 C2555 0.961 . S
H2570 C2555 0.961 . S
H2571 C2555 0.961 . S
H2572 C2556 0.931 . S
H2573 C2561 0.930 . S
H2574 C2562 0.956 . S
H2575 C2562 0.961 . S
H2576 C2562 0.961 . S
H2577 C2563 0.958 . S
H2578 C2563 0.961 . S
H2579 C2563 0.960 . S
C2580 C2581 1.391 . S
C2580 C2582 1.394 . S
C2580 H2596 0.931 . S
C2581 C2580 1.391 . S
C2581 C2585 1.376 . S
C2582 C2580 1.394 . S
C2582 C2583 1.369 . S
C2582 C2586 1.531 . S
C2583 C2582 1.369 . S
C2583 C2584 1.410 . S
C2583 C2591 1.503 1_455 S
C2584 C2583 1.410 . S
C2584 C2585 1.392 . S
C2584 C2587 1.511 . S
C2585 C2581 1.376 . S
C2585 C2584 1.392 . S
C2585 H2597 0.929 . S
C2586 C2582 1.531 . S
C2586 H2598 0.960 1_455 S
C2586 H2599 0.962 . S
C2586 H2600 0.960 . S
C2587 C2584 1.511 . S
C2587 H2601 0.961 . S
C2587 H2602 0.961 . S
C2587 H2603 0.961 . S
C2588 C2589 1.370 . S
C2588 C2590 1.363 . S
C2588 H2604 0.931 . S
C2589 C2588 1.370 . S
C2589 C2593 1.408 . S
C2590 C2588 1.363 . S
C2590 C2591 1.370 . S
C2590 C2594 1.524 . S
C2591 C2583 1.503 1_655 S
C2591 C2590 1.370 . S
C2591 C2592 1.403 . S
C2592 C2591 1.403 . S
C2592 C2593 1.404 . S
C2592 C2595 1.539 . S
C2593 C2589 1.408 . S
C2593 C2592 1.404 . S
C2593 H2605 0.930 . S
C2594 C2590 1.524 . S
C2594 H2606 0.956 . S
C2594 H2607 0.961 . S
C2594 H2608 0.961 . S
C2595 C2592 1.539 . S
C2595 H2609 0.958 . S
C2595 H2610 0.961 . S
C2595 H2611 0.960 1_655 S
H2596 C2580 0.931 . S
H2597 C2585 0.929 . S
H2598 C2586 0.960 1_655 S
H2599 C2586 0.962 . S
H2600 C2586 0.960 . S
H2601 C2587 0.961 . S
H2602 C2587 0.961 . S
H2603 C2587 0.961 . S
H2604 C2588 0.931 . S
H2605 C2593 0.930 . S
H2606 C2594 0.956 . S
H2607 C2594 0.961 . S
H2608 C2594 0.961 . S
H2609 C2595 0.958 . S
H2610 C2595 0.961 . S
H2611 C2595 0.960 1_455 S
C2612 C2613 1.391 . S
C2612 C2614 1.394 . S
C2612 H2628 0.931 . S
C2613 C2612 1.391 . S
C2613 C2617 1.376 . S
C2614 C2612 1.394 . S
C2614 C2615 1.369 . S
C2614 C2618 1.531 . S
C2615 C2614 1.369 . S
C2615 C2616 1.410 . S
C2615 C2623 1.503 . S
C2616 C2615 1.410 . S
C2616 C2617 1.392 . S
C2616 C2619 1.511 . S
C2617 C2613 1.376 . S
C2617 C2616 1.392 . S
C2617 H2629 0.929 . S
C2618 C2614 1.531 . S
C2618 H2630 0.960 . S
C2618 H2631 0.962 . S
C2618 H2632 0.960 . S
C2619 C2616 1.511 . S
C2619 H2633 0.961 . S
C2619 H2634 0.961 . S
C2619 H2635 0.961 . S
C2620 C2621 1.370 . S
C2620 C2622 1.363 . S
C2620 H2636 0.931 . S
C2621 C2620 1.370 . S
C2621 C2625 1.408 . S
C2622 C2620 1.363 . S
C2622 C2623 1.370 . S
C2622 C2626 1.524 . S
C2623 C2615 1.503 . S
C2623 C2622 1.370 . S
C2623 C2624 1.403 . S
C2624 C2623 1.403 . S
C2624 C2625 1.404 . S
C2624 C2627 1.539 . S
C2625 C2621 1.408 . S
C2625 C2624 1.404 . S
C2625 H2637 0.930 . S
C2626 C2622 1.524 . S
C2626 H2638 0.956 . S
C2626 H2639 0.961 . S
C2626 H2640 0.961 . S
C2627 C2624 1.539 . S
C2627 H2641 0.958 . S
C2627 H2642 0.961 . S
C2627 H2643 0.960 . S
H2628 C2612 0.931 . S
H2629 C2617 0.929 . S
H2630 C2618 0.960 . S
H2631 C2618 0.962 . S
H2632 C2618 0.960 . S
H2633 C2619 0.961 . S
H2634 C2619 0.961 . S
H2635 C2619 0.961 . S
H2636 C2620 0.931 . S
H2637 C2625 0.930 . S
H2638 C2626 0.956 . S
H2639 C2626 0.961 . S
H2640 C2626 0.961 . S
H2641 C2627 0.958 . S
H2642 C2627 0.961 . S
H2643 C2627 0.960 . S
C2644 C2645 1.391 . S
C2644 C2646 1.394 . S
C2644 H2660 0.931 . S
C2645 C2644 1.391 . S
C2645 C2649 1.376 . S
C2646 C2644 1.394 . S
C2646 C2647 1.369 . S
C2646 C2650 1.531 . S
C2647 C2646 1.369 . S
C2647 C2648 1.410 . S
C2647 C2655 1.503 1_545 S
C2648 C2647 1.410 . S
C2648 C2649 1.392 . S
C2648 C2651 1.511 . S
C2649 C2645 1.376 . S
C2649 C2648 1.392 . S
C2649 H2661 0.929 . S
C2650 C2646 1.531 . S
C2650 H2662 0.960 1_545 S
C2650 H2663 0.962 1_545 S
C2650 H2664 0.960 . S
C2651 C2648 1.511 . S
C2651 H2665 0.961 . S
C2651 H2666 0.961 . S
C2651 H2667 0.961 . S
C2652 C2653 1.370 . S
C2652 C2654 1.363 . S
C2652 H2668 0.931 . S
C2653 C2652 1.370 . S
C2653 C2657 1.408 . S
C2654 C2652 1.363 . S
C2654 C2655 1.370 . S
C2654 C2658 1.524 . S
C2655 C2647 1.503 1_565 S
C2655 C2654 1.370 . S
C2655 C2656 1.403 . S
C2656 C2655 1.403 . S
C2656 C2657 1.404 . S
C2656 C2659 1.539 . S
C2657 C2653 1.408 . S
C2657 C2656 1.404 . S
C2657 H2669 0.930 . S
C2658 C2654 1.524 . S
C2658 H2670 0.956 . S
C2658 H2671 0.961 1_565 S
C2658 H2672 0.961 . S
C2659 C2656 1.539 . S
C2659 H2673 0.958 . S
C2659 H2674 0.961 . S
C2659 H2675 0.960 1_565 S
H2660 C2644 0.931 . S
H2661 C2649 0.929 . S
H2662 C2650 0.960 1_565 S
H2663 C2650 0.962 1_565 S
H2664 C2650 0.960 . S
H2665 C2651 0.961 . S
H2666 C2651 0.961 . S
H2667 C2651 0.961 . S
H2668 C2652 0.931 . S
H2669 C2657 0.930 . S
H2670 C2658 0.956 . S
H2671 C2658 0.961 1_545 S
H2672 C2658 0.961 . S
H2673 C2659 0.958 . S
H2674 C2659 0.961 . S
H2675 C2659 0.960 1_545 S
C2676 C2677 1.391 . S
C2676 C2678 1.394 1_554 S
C2676 H2692 0.931 . S
C2677 C2676 1.391 . S
C2677 C2681 1.376 . S
C2678 C2676 1.394 1_556 S
C2678 C2679 1.369 . S
C2678 C2682 1.531 . S
C2679 C2678 1.369 . S
C2679 C2680 1.410 . S
C2679 C2687 1.503 1_545 S
C2680 C2679 1.410 . S
C2680 C2681 1.392 1_556 S
C2680 C2683 1.511 . S
C2681 C2677 1.376 . S
C2681 C2680 1.392 1_554 S
C2681 H2693 0.929 . S
C2682 C2678 1.531 . S
C2682 H2694 0.960 1_545 S
C2682 H2695 0.962 1_546 S
C2682 H2696 0.960 . S
C2683 C2680 1.511 . S
C2683 H2697 0.961 1_556 S
C2683 H2698 0.955 1_556 S
C2683 H2699 0.961 . S
C2684 C2685 1.370 1_554 S
C2684 C2686 1.363 . S
C2684 H2700 0.931 . S
C2685 C2684 1.370 1_556 S
C2685 C2689 1.408 . S
C2686 C2684 1.363 . S
C2686 C2687 1.370 1_554 S
C2686 C2690 1.524 . S
C2687 C2679 1.503 1_565 S
C2687 C2686 1.370 1_556 S
C2687 C2688 1.403 . S
C2688 C2687 1.403 . S
C2688 C2689 1.404 . S
C2688 C2691 1.539 . S
C2689 C2685 1.408 . S
C2689 C2688 1.404 . S
C2689 H2701 0.930 . S
C2690 C2686 1.524 . S
C2690 H2702 0.956 . S
C2690 H2703 0.961 . S
C2690 H2704 0.961 . S
C2691 C2688 1.539 . S
C2691 H2705 0.958 . S
C2691 H2706 0.961 . S
C2691 H2707 0.960 1_565 S
H2692 C2676 0.931 . S
H2693 C2681 0.929 . S
H2694 C2682 0.960 1_565 S
H2695 C2682 0.962 1_564 S
H2696 C2682 0.960 . S
H2697 C2683 0.961 1_554 S
H2698 C2683 0.955 1_554 S
H2699 C2683 0.961 . S
H2700 C2684 0.931 . S
H2701 C2689 0.930 . S
H2702 C2690 0.956 . S
H2703 C2690 0.961 . S
H2704 C2690 0.961 . S
H2705 C2691 0.958 . S
H2706 C2691 0.961 . S
H2707 C2691 0.960 1_545 S
C2708 C2709 1.391 . S
C2708 C2710 1.394 . S
C2708 H2724 0.931 . S
C2709 C2708 1.391 . S
C2709 C2713 1.375 1_554 S
C2710 C2708 1.394 . S
C2710 C2711 1.369 . S
C2710 C2714 1.531 . S
C2711 C2710 1.369 . S
C2711 C2712 1.410 1_554 S
C2711 C2719 1.503 1_655 S
C2712 C2711 1.410 1_556 S
C2712 C2713 1.392 . S
C2712 C2715 1.511 . S
C2713 C2709 1.375 1_556 S
C2713 C2712 1.392 . S
C2713 H2725 0.930 . S
C2714 C2710 1.531 . S
C2714 H2726 0.960 1_655 S
C2714 H2727 0.962 . S
C2714 H2728 0.960 . S
C2715 C2712 1.511 . S
C2715 H2729 0.961 . S
C2715 H2730 0.961 1_655 S
C2715 H2731 0.961 . S
C2716 C2717 1.370 . S
C2716 C2718 1.363 . S
C2716 H2732 0.931 . S
C2717 C2716 1.370 . S
C2717 C2721 1.408 1_556 S
C2718 C2716 1.363 . S
C2718 C2719 1.370 1_556 S
C2718 C2722 1.565 . S
C2719 C2711 1.503 1_455 S
C2719 C2718 1.370 1_554 S
C2719 C2720 1.403 . S
C2720 C2719 1.403 . S
C2720 C2721 1.404 . S
C2720 C2723 1.539 . S
C2721 C2717 1.408 1_554 S
C2721 C2720 1.404 . S
C2721 H2733 0.930 . S
C2722 C2718 1.565 . S
C2722 H2734 0.911 1_455 S
C2722 H2735 0.957 1_455 S
C2722 H2736 0.972 . S
C2723 C2720 1.539 . S
C2723 H2737 0.958 . S
C2723 H2738 0.961 . S
C2723 H2739 0.960 . S
H2724 C2708 0.931 . S
H2725 C2713 0.930 . S
H2726 C2714 0.960 1_455 S
H2727 C2714 0.962 . S
H2728 C2714 0.960 . S
H2729 C2715 0.961 . S
H2730 C2715 0.961 1_455 S
H2731 C2715 0.961 . S
H2732 C2716 0.931 . S
H2733 C2721 0.930 . S
H2734 C2722 0.911 1_655 S
H2735 C2722 0.957 1_655 S
H2736 C2722 0.972 . S
H2737 C2723 0.958 . S
H2738 C2723 0.961 . S
H2739 C2723 0.960 . S
C2740 C2741 1.391 . S
C2740 C2742 1.394 . S
C2740 H2756 0.931 1_554 S
C2741 C2740 1.391 . S
C2741 C2745 1.376 . S
C2742 C2740 1.394 . S
C2742 C2743 1.369 . S
C2742 C2746 1.531 1_554 S
C2743 C2742 1.369 . S
C2743 C2744 1.410 . S
C2743 C2751 1.503 . S
C2744 C2743 1.410 . S
C2744 C2745 1.392 . S
C2744 C2747 1.511 . S
C2745 C2741 1.376 . S
C2745 C2744 1.392 . S
C2745 H2757 0.929 . S
C2746 C2742 1.531 1_556 S
C2746 H2758 0.960 . S
C2746 H2759 0.962 . S
C2746 H2760 0.960 . S
C2747 C2744 1.511 . S
C2747 H2761 0.961 . S
C2747 H2762 0.961 . S
C2747 H2763 0.961 . S
C2748 C2749 1.370 . S
C2748 C2750 1.363 . S
C2748 H2764 0.931 . S
C2749 C2748 1.370 . S
C2749 C2753 1.408 1_556 S
C2750 C2748 1.363 . S
C2750 C2751 1.370 1_556 S
C2750 C2754 1.524 . S
C2751 C2743 1.503 . S
C2751 C2750 1.370 1_554 S
C2751 C2752 1.403 . S
C2752 C2751 1.403 . S
C2752 C2753 1.404 . S
C2752 C2755 1.539 . S
C2753 C2749 1.408 1_554 S
C2753 C2752 1.404 . S
C2753 H2765 0.930 . S
C2754 C2750 1.524 . S
C2754 H2766 0.956 . S
C2754 H2767 0.961 . S
C2754 H2768 0.961 . S
C2755 C2752 1.539 . S
C2755 H2769 0.958 . S
C2755 H2770 0.961 . S
C2755 H2771 0.960 . S
H2756 C2740 0.931 1_556 S
H2757 C2745 0.929 . S
H2758 C2746 0.960 . S
H2759 C2746 0.962 . S
H2760 C2746 0.960 . S
H2761 C2747 0.961 . S
H2762 C2747 0.961 . S
H2763 C2747 0.961 . S
H2764 C2748 0.931 . S
H2765 C2753 0.930 . S
H2766 C2754 0.956 . S
H2767 C2754 0.961 . S
H2768 C2754 0.961 . S
H2769 C2755 0.958 . S
H2770 C2755 0.961 . S
H2771 C2755 0.960 . S
C469 C134 1.370 . S
C477 C5 1.345 . S
C501 C147 1.335 . S
C509 C18 1.345 . S
C533 C29 1.342 . S
C541 C121 1.363 . S
C565 C44 1.341 . S
C573 C108 1.363 . S
C597 C57 1.369 . S
C605 C82 1.349 . S
C629 C101 1.359 . S
C637 C68 1.359 . S
C661 C56 1.344 . S
C669 C83 1.344 . S
C693 C75 1.335 . S
C701 C94 1.360 . S
C725 C109 1.324 . S
C733 C43 1.357 . S
C757 C36 1.330 . S
C765 C122 1.352 . S
C789 C135 1.339 . S
C797 C4 1.363 . S
C821 C148 1.328 . S
C829 C17 1.362 . S
C853 C296 1.331 . S
C861 C161 1.357 . S
C885 C303 1.365 . S
C893 C174 1.357 . S
C917 C187 1.361 . S
C925 C277 1.346 . S
C949 C200 1.341 . S
C957 C264 1.345 1_556 S
C981 C213 1.368 . S
C989 C238 1.348 1_556 S
C1013 C226 1.326 . S
C1021 C251 1.351 1_556 S
C1045 C212 1.351 . S
C1053 C239 1.359 . S
C1077 C225 1.330 . S
C1085 C252 1.358 . S
C1109 C199 1.372 . S
C1117 C265 1.348 . S
C1141 C186 1.328 . S
C1149 C278 1.354 . S
C1173 C160 1.364 . S
C1181 C289 1.341 . S
C1205 C173 1.347 . S
C1213 C304 1.343 . S
C1237 C315 1.370 . S
C1245 C452 1.355 . S
C1269 C459 1.329 . S
C1277 C328 1.350 . S
C1301 C433 1.349 . S
C1309 C341 1.341 . S
C1333 C356 1.348 . S
C1341 C426 1.344 . S
C1365 C367 1.325 . S
C1373 C400 1.358 . S
C1397 C382 1.369 . S
C1405 C413 1.356 . S
C1429 C374 1.339 . S
C1437 C393 1.345 . S
C1461 C381 1.369 . S
C1469 C406 1.342 . S
C1493 C355 1.328 . S
C1501 C419 1.355 . S
C1525 C434 1.327 . S
C1533 C348 1.353 1_554 S
C1557 C322 1.334 1_554 S
C1565 C445 1.360 . S
C1589 C460 1.325 . S
C1597 C335 1.355 1_554 S
C1621 C49 1.565 . S
C1629 C10 1.567 . S
C1653 C62 1.566 . S
C1661 C23 1.568 . S
C1685 C30 1.567 . S
C1693 C69 1.568 . S
C1717 C127 1.560 . S
C1725 C88 1.568 . S
C1749 C140 1.561 . S
C1757 C95 1.566 . S
C1781 C153 1.565 . S
C1789 C114 1.567 . S
C1813 C205 1.560 . S
C1821 C166 1.567 . S
C1845 C218 1.564 . S
C1853 C179 1.569 . S
C1877 C192 1.563 . S
C1885 C231 1.568 . S
C1909 C244 1.561 . S
C1917 C283 1.566 . S
C1941 C290 1.564 . S
C1949 C257 1.569 . S
C1973 C270 1.562 . S
C1981 C309 1.568 . S
C2005 C361 1.562 . S
C2013 C316 1.567 . S
C2037 C368 1.560 . S
C2045 C329 1.567 . S
C2069 C342 1.565 . S
C2077 C387 1.567 . S
C2101 C394 1.566 . S
C2109 C439 1.567 . S
C2133 C407 1.561 . S
C2141 C446 1.568 . S
C2165 C420 1.560 . S
C2173 C465 1.566 . S
C2197 C3 1.550 . S
C2205 C237 1.553 . S
C2229 C250 1.550 . S
C2237 C16 1.553 . S
C2261 C263 1.550 . S
C2269 C31 1.553 . S
C2293 C432 1.548 . S
C2301 C42 1.554 . S
C2325 C447 1.551 . S
C2333 C55 1.553 . S
C2357 C458 1.548 . S
C2365 C70 1.554 . S
C2389 C81 1.551 . S
C2397 C317 1.553 . S
C2421 C330 1.551 . S
C2429 C96 1.553 . S
C2453 C343 1.550 . S
C2461 C107 1.553 . S
C2485 C120 1.548 . S
C2493 C198 1.554 . S
C2517 C133 1.549 . S
C2525 C211 1.553 . S
C2549 C146 1.550 . S
C2557 C224 1.553 . S
C2581 C395 1.550 . S
C2589 C159 1.553 . S
C2613 C408 1.550 . S
C2621 C172 1.553 . S
C2645 C185 1.548 . S
C2653 C421 1.554 . S
C2677 C276 1.551 . S
C2685 C354 1.553 . S
C2709 C291 1.549 . S
C2717 C369 1.553 . S
C2741 C302 1.548 . S
C2749 C380 1.554 . S
