# Generated by pormake.
# Topology unr, (4)-cn, num edge types: 1
# Building blocks:
#     Node 0, Type 0, BuildingBlock: AZAVOO_clean_sbu_0, # of connection points: 4
#     Node 1, Type 0, BuildingBlock: AZAVOO_clean_sbu_0, # of connection points: 4
#     Node 2, Type 0, BuildingBlock: AZAVOO_clean_sbu_0, # of connection points: 4
#     Node 3, Type 0, BuildingBlock: AZAVOO_clean_sbu_0, # of connection points: 4
#     Node 4, Type 0, BuildingBlock: AZAVOO_clean_sbu_0, # of connection points: 4
#     Node 5, Type 0, BuildingBlock: AZAVOO_clean_sbu_0, # of connection points: 4
#     Node 6, Type 0, BuildingBlock: AZAVOO_clean_sbu_0, # of connection points: 4
#     Node 7, Type 0, BuildingBlock: AZAVOO_clean_sbu_0, # of connection points: 4
#     Node 8, Type 0, BuildingBlock: AZAVOO_clean_sbu_0, # of connection points: 4
#     Node 9, Type 0, BuildingBlock: AZAVOO_clean_sbu_0, # of connection points: 4
#     Node 10, Type 0, BuildingBlock: AZAVOO_clean_sbu_0, # of connection points: 4
#     Node 11, Type 0, BuildingBlock: AZAVOO_clean_sbu_0, # of connection points: 4
#     Node 12, Type 0, BuildingBlock: AZAVOO_clean_sbu_0, # of connection points: 4
#     Node 13, Type 0, BuildingBlock: AZAVOO_clean_sbu_0, # of connection points: 4
#     Node 14, Type 0, BuildingBlock: AZAVOO_clean_sbu_0, # of connection points: 4
#     Node 15, Type 0, BuildingBlock: AZAVOO_clean_sbu_0, # of connection points: 4
#     Node 16, Type 0, BuildingBlock: AZAVOO_clean_sbu_0, # of connection points: 4
#     Node 17, Type 0, BuildingBlock: AZAVOO_clean_sbu_0, # of connection points: 4
#     Node 18, Type 0, BuildingBlock: AZAVOO_clean_sbu_0, # of connection points: 4
#     Node 19, Type 0, BuildingBlock: AZAVOO_clean_sbu_0, # of connection points: 4
#     Node 20, Type 0, BuildingBlock: AZAVOO_clean_sbu_0, # of connection points: 4
#     Node 21, Type 0, BuildingBlock: AZAVOO_clean_sbu_0, # of connection points: 4
#     Node 22, Type 0, BuildingBlock: AZAVOO_clean_sbu_0, # of connection points: 4
#     Node 23, Type 0, BuildingBlock: AZAVOO_clean_sbu_0, # of connection points: 4
#     Node 24, Type 0, BuildingBlock: AZAVOO_clean_sbu_0, # of connection points: 4
#     Node 25, Type 0, BuildingBlock: AZAVOO_clean_sbu_0, # of connection points: 4
#     Node 26, Type 0, BuildingBlock: AZAVOO_clean_sbu_0, # of connection points: 4
#     Node 27, Type 0, BuildingBlock: AZAVOO_clean_sbu_0, # of connection points: 4
#     Node 28, Type 0, BuildingBlock: AZAVOO_clean_sbu_0, # of connection points: 4
#     Node 29, Type 0, BuildingBlock: AZAVOO_clean_sbu_0, # of connection points: 4
#     Node 30, Type 0, BuildingBlock: AZAVOO_clean_sbu_0, # of connection points: 4
#     Node 31, Type 0, BuildingBlock: AZAVOO_clean_sbu_0, # of connection points: 4
#     Node 32, Type 0, BuildingBlock: AZAVOO_clean_sbu_0, # of connection points: 4
#     Node 33, Type 0, BuildingBlock: AZAVOO_clean_sbu_0, # of connection points: 4
#     Node 34, Type 0, BuildingBlock: AZAVOO_clean_sbu_0, # of connection points: 4
#     Node 35, Type 0, BuildingBlock: AZAVOO_clean_sbu_0, # of connection points: 4
#     Edge 36, Type (0, 0), BuildingBlock: XUDNAN_clean_linker_2, # of connection points: 2
#     Edge 37, Type (0, 0), BuildingBlock: XUDNAN_clean_linker_2, # of connection points: 2
#     Edge 38, Type (0, 0), BuildingBlock: XUDNAN_clean_linker_2, # of connection points: 2
#     Edge 39, Type (0, 0), BuildingBlock: XUDNAN_clean_linker_2, # of connection points: 2
#     Edge 40, Type (0, 0), BuildingBlock: XUDNAN_clean_linker_2, # of connection points: 2
#     Edge 41, Type (0, 0), BuildingBlock: XUDNAN_clean_linker_2, # of connection points: 2
#     Edge 42, Type (0, 0), BuildingBlock: XUDNAN_clean_linker_2, # of connection points: 2
#     Edge 43, Type (0, 0), BuildingBlock: XUDNAN_clean_linker_2, # of connection points: 2
#     Edge 44, Type (0, 0), BuildingBlock: XUDNAN_clean_linker_2, # of connection points: 2
#     Edge 45, Type (0, 0), BuildingBlock: XUDNAN_clean_linker_2, # of connection points: 2
#     Edge 46, Type (0, 0), BuildingBlock: XUDNAN_clean_linker_2, # of connection points: 2
#     Edge 47, Type (0, 0), BuildingBlock: XUDNAN_clean_linker_2, # of connection points: 2
#     Edge 48, Type (0, 0), BuildingBlock: XUDNAN_clean_linker_2, # of connection points: 2
#     Edge 49, Type (0, 0), BuildingBlock: XUDNAN_clean_linker_2, # of connection points: 2
#     Edge 50, Type (0, 0), BuildingBlock: XUDNAN_clean_linker_2, # of connection points: 2
#     Edge 51, Type (0, 0), BuildingBlock: XUDNAN_clean_linker_2, # of connection points: 2
#     Edge 52, Type (0, 0), BuildingBlock: XUDNAN_clean_linker_2, # of connection points: 2
#     Edge 53, Type (0, 0), BuildingBlock: XUDNAN_clean_linker_2, # of connection points: 2
#     Edge 54, Type (0, 0), BuildingBlock: XUDNAN_clean_linker_2, # of connection points: 2
#     Edge 55, Type (0, 0), BuildingBlock: XUDNAN_clean_linker_2, # of connection points: 2
#     Edge 56, Type (0, 0), BuildingBlock: XUDNAN_clean_linker_2, # of connection points: 2
#     Edge 57, Type (0, 0), BuildingBlock: XUDNAN_clean_linker_2, # of connection points: 2
#     Edge 58, Type (0, 0), BuildingBlock: XUDNAN_clean_linker_2, # of connection points: 2
#     Edge 59, Type (0, 0), BuildingBlock: XUDNAN_clean_linker_2, # of connection points: 2
#     Edge 60, Type (0, 0), BuildingBlock: XUDNAN_clean_linker_2, # of connection points: 2
#     Edge 61, Type (0, 0), BuildingBlock: XUDNAN_clean_linker_2, # of connection points: 2
#     Edge 62, Type (0, 0), BuildingBlock: XUDNAN_clean_linker_2, # of connection points: 2
#     Edge 63, Type (0, 0), BuildingBlock: XUDNAN_clean_linker_2, # of connection points: 2
#     Edge 64, Type (0, 0), BuildingBlock: XUDNAN_clean_linker_2, # of connection points: 2
#     Edge 65, Type (0, 0), BuildingBlock: XUDNAN_clean_linker_2, # of connection points: 2
#     Edge 66, Type (0, 0), BuildingBlock: XUDNAN_clean_linker_2, # of connection points: 2
#     Edge 67, Type (0, 0), BuildingBlock: XUDNAN_clean_linker_2, # of connection points: 2
#     Edge 68, Type (0, 0), BuildingBlock: XUDNAN_clean_linker_2, # of connection points: 2
#     Edge 69, Type (0, 0), BuildingBlock: XUDNAN_clean_linker_2, # of connection points: 2
#     Edge 70, Type (0, 0), BuildingBlock: XUDNAN_clean_linker_2, # of connection points: 2
#     Edge 71, Type (0, 0), BuildingBlock: XUDNAN_clean_linker_2, # of connection points: 2
#     Edge 72, Type (0, 0), BuildingBlock: XUDNAN_clean_linker_2, # of connection points: 2
#     Edge 73, Type (0, 0), BuildingBlock: XUDNAN_clean_linker_2, # of connection points: 2
#     Edge 74, Type (0, 0), BuildingBlock: XUDNAN_clean_linker_2, # of connection points: 2
#     Edge 75, Type (0, 0), BuildingBlock: XUDNAN_clean_linker_2, # of connection points: 2
#     Edge 76, Type (0, 0), BuildingBlock: XUDNAN_clean_linker_2, # of connection points: 2
#     Edge 77, Type (0, 0), BuildingBlock: XUDNAN_clean_linker_2, # of connection points: 2
#     Edge 78, Type (0, 0), BuildingBlock: XUDNAN_clean_linker_2, # of connection points: 2
#     Edge 79, Type (0, 0), BuildingBlock: XUDNAN_clean_linker_2, # of connection points: 2
#     Edge 80, Type (0, 0), BuildingBlock: XUDNAN_clean_linker_2, # of connection points: 2
#     Edge 81, Type (0, 0), BuildingBlock: XUDNAN_clean_linker_2, # of connection points: 2
#     Edge 82, Type (0, 0), BuildingBlock: XUDNAN_clean_linker_2, # of connection points: 2
#     Edge 83, Type (0, 0), BuildingBlock: XUDNAN_clean_linker_2, # of connection points: 2
#     Edge 84, Type (0, 0), BuildingBlock: XUDNAN_clean_linker_2, # of connection points: 2
#     Edge 85, Type (0, 0), BuildingBlock: XUDNAN_clean_linker_2, # of connection points: 2
#     Edge 86, Type (0, 0), BuildingBlock: XUDNAN_clean_linker_2, # of connection points: 2
#     Edge 87, Type (0, 0), BuildingBlock: XUDNAN_clean_linker_2, # of connection points: 2
#     Edge 88, Type (0, 0), BuildingBlock: XUDNAN_clean_linker_2, # of connection points: 2
#     Edge 89, Type (0, 0), BuildingBlock: XUDNAN_clean_linker_2, # of connection points: 2
#     Edge 90, Type (0, 0), BuildingBlock: XUDNAN_clean_linker_2, # of connection points: 2
#     Edge 91, Type (0, 0), BuildingBlock: XUDNAN_clean_linker_2, # of connection points: 2
#     Edge 92, Type (0, 0), BuildingBlock: XUDNAN_clean_linker_2, # of connection points: 2
#     Edge 93, Type (0, 0), BuildingBlock: XUDNAN_clean_linker_2, # of connection points: 2
#     Edge 94, Type (0, 0), BuildingBlock: XUDNAN_clean_linker_2, # of connection points: 2
#     Edge 95, Type (0, 0), BuildingBlock: XUDNAN_clean_linker_2, # of connection points: 2
#     Edge 96, Type (0, 0), BuildingBlock: XUDNAN_clean_linker_2, # of connection points: 2
#     Edge 97, Type (0, 0), BuildingBlock: XUDNAN_clean_linker_2, # of connection points: 2
#     Edge 98, Type (0, 0), BuildingBlock: XUDNAN_clean_linker_2, # of connection points: 2
#     Edge 99, Type (0, 0), BuildingBlock: XUDNAN_clean_linker_2, # of connection points: 2
#     Edge 100, Type (0, 0), BuildingBlock: XUDNAN_clean_linker_2, # of connection points: 2
#     Edge 101, Type (0, 0), BuildingBlock: XUDNAN_clean_linker_2, # of connection points: 2
#     Edge 102, Type (0, 0), BuildingBlock: XUDNAN_clean_linker_2, # of connection points: 2
#     Edge 103, Type (0, 0), BuildingBlock: XUDNAN_clean_linker_2, # of connection points: 2
#     Edge 104, Type (0, 0), BuildingBlock: XUDNAN_clean_linker_2, # of connection points: 2
#     Edge 105, Type (0, 0), BuildingBlock: XUDNAN_clean_linker_2, # of connection points: 2
#     Edge 106, Type (0, 0), BuildingBlock: XUDNAN_clean_linker_2, # of connection points: 2
#     Edge 107, Type (0, 0), BuildingBlock: XUDNAN_clean_linker_2, # of connection points: 2
# Relax obj value: 0.383
# Max RMSD: 0.232
# Mean RMSD: 0.232
data_MOF--net-unr--node1-AZAVOO_clean_sbu_0--edge1-XUDNAN_clean_linker_2
_symmetry_space_group_name_H-M    P1
_symmetry_Int_Tables_number       1
_symmetry_cell_setting            triclinic
loop_
_symmetry_equiv_pos_as_xyz
'x, y, z'
_cell_length_a     43.713045
_cell_length_b     43.700277
_cell_length_c     135.14354
_cell_angle_alpha  90.008791
_cell_angle_beta   89.989434
_cell_angle_gamma 120.01457
loop_
_atom_site_label
_atom_site_type_symbol
_atom_site_fract_x
_atom_site_fract_y
_atom_site_fract_z
_atom_type_partial_charge
Mg0 Mg 0.18448 0.19874 0.18556 0.0
O1 O 0.16037 0.14041 0.18903 0.0
O2 O 0.10836 0.11758 0.1966 0.0
Mg3 Mg 0.10234 0.16629 0.19968 0.0
C4 C 0.13315 0.11423 0.19272 0.0
C5 C 0.26191 0.20798 0.1777 0.0
O6 O 0.27758 0.24233 0.17638 0.0
O7 O 0.20426 0.21226 0.20155 0.0
O8 O 0.15205 0.1905 0.20927 0.0
O9 O 0.14933 0.18228 0.17226 0.0
O10 O 0.13447 0.19512 0.1866 0.0
C11 C 0.18571 0.2059 0.2094 0.0
C12 C 0.12527 0.18223 0.17785 0.0
O13 O 0.23036 0.19118 0.18088 0.0
Mg14 Mg 0.80446 0.99214 0.19131 0.0
O15 O 0.86425 0.02587 0.19423 0.0
O16 O 0.87851 0.99587 0.20478 0.0
Mg17 Mg 0.82958 0.94149 0.20771 0.0
C18 C 0.88704 0.02314 0.19946 0.0
C19 C 0.78086 0.04466 0.18284 0.0
O20 O 0.74939 0.01738 0.18456 0.0
O21 O 0.79076 0.00315 0.20703 0.0
O22 O 0.8031 0.96726 0.21587 0.0
O23 O 0.81657 0.9655 0.17864 0.0
O24 O 0.80525 0.94497 0.19384 0.0
C25 C 0.79099 0.9883 0.21517 0.0
C26 C 0.81443 0.94239 0.185 0.0
O27 O 0.80797 0.04229 0.18486 0.0
Mg28 Mg 0.01497 0.80553 0.19348 0.0
O29 O 0.97407 0.82356 0.19371 0.0
O30 O 0.99745 0.87458 0.20188 0.0
Mg31 Mg 0.05217 0.88824 0.20756 0.0
C32 C 0.97214 0.8498 0.197 0.0
C33 C 0.95403 0.75098 0.17992 0.0
O34 O 0.96778 0.77815 0.17388 0.0
O35 O 0.00289 0.78705 0.20969 0.0
O36 O 0.02649 0.83942 0.2174 0.0
O37 O 0.03928 0.84097 0.18014 0.0
O38 O 0.05683 0.85714 0.19552 0.0
C39 C 0.01031 0.80573 0.21754 0.0
C40 C 0.05907 0.86548 0.18636 0.0
O41 O 0.96927 0.75317 0.18812 0.0
Mg42 Mg 0.20021 0.1902 0.30382 0.0
O43 O 0.13971 0.1623 0.30435 0.0
O44 O 0.11781 0.10732 0.29856 0.0
Mg45 Mg 0.16409 0.10306 0.29219 0.0
C46 C 0.11381 0.13157 0.30254 0.0
C47 C 0.19469 0.24798 0.3165 0.0
O48 O 0.19191 0.22677 0.32377 0.0
O49 O 0.20157 0.20241 0.28729 0.0
O50 O 0.17984 0.14804 0.28114 0.0
O51 O 0.1963 0.16218 0.3181 0.0
O52 O 0.19844 0.14125 0.30342 0.0
C53 C 0.19267 0.18121 0.27995 0.0
C54 C 0.19284 0.13601 0.31277 0.0
O55 O 0.19983 0.24086 0.30775 0.0
Mg56 Mg 0.81418 0.01189 0.30872 0.0
O57 O 0.84211 0.97924 0.30876 0.0
O58 O 0.89505 0.0115 0.30169 0.0
Mg59 Mg 0.89753 0.06056 0.29478 0.0
C60 C 0.8724 0.98408 0.30636 0.0
C61 C 0.76754 0.95586 0.32415 0.0
O62 O 0.79614 0.97753 0.3291 0.0
O63 O 0.79575 0.99736 0.29247 0.0
O64 O 0.84834 0.03032 0.28528 0.0
O65 O 0.84798 0.04039 0.32197 0.0
O66 O 0.86298 0.05926 0.30669 0.0
C67 C 0.81498 0.00984 0.28472 0.0
C68 C 0.87179 0.06168 0.31583 0.0
O69 O 0.7654 0.96245 0.31507 0.0
Mg70 Mg 0.98817 0.80556 0.31189 0.0
O71 O 0.01981 0.86588 0.31038 0.0
O72 O 0.98426 0.88493 0.30469 0.0
Mg73 Mg 0.93214 0.83573 0.30028 0.0
C74 C 0.014 0.89075 0.30803 0.0
C75 C 0.05392 0.81003 0.3235 0.0
O76 O 0.03483 0.80648 0.33138 0.0
O77 O 0.99361 0.79797 0.29532 0.0
O78 O 0.95883 0.81714 0.28915 0.0
O79 O 0.96861 0.81512 0.32631 0.0
O80 O 0.94038 0.80609 0.31213 0.0
C81 C 0.97917 0.80428 0.28798 0.0
C82 C 0.94366 0.81554 0.32125 0.0
O83 O 0.04116 0.80894 0.31496 0.0
Mg84 Mg 0.8193 0.79821 0.81338 0.0
O85 O 0.84493 0.85815 0.81419 0.0
O86 O 0.89565 0.88403 0.80579 0.0
Mg87 Mg 0.90072 0.83927 0.79855 0.0
C88 C 0.8727 0.8856 0.81124 0.0
C89 C 0.74098 0.78722 0.81828 0.0
O90 O 0.72899 0.76816 0.8102 0.0
O91 O 0.79857 0.79666 0.79752 0.0
O92 O 0.85071 0.82269 0.78967 0.0
O93 O 0.8556 0.80307 0.82591 0.0
O94 O 0.86801 0.80187 0.81014 0.0
C95 C 0.81713 0.80835 0.78964 0.0
C96 C 0.87796 0.8059 0.8192 0.0
O97 O 0.77291 0.79912 0.82088 0.0
Mg98 Mg 0.20828 0.01285 0.80877 0.0
O99 O 0.14905 0.97529 0.80769 0.0
O100 O 0.12178 0.00416 0.80265 0.0
Mg101 Mg 0.16578 0.05921 0.79789 0.0
C102 C 0.12102 0.97632 0.80586 0.0
C103 C 0.19579 0.94534 0.81981 0.0
O104 O 0.17986 0.95696 0.82568 0.0
O105 O 0.21478 0.00792 0.79202 0.0
O106 O 0.18764 0.03641 0.78653 0.0
O107 O 0.19642 0.0297 0.82332 0.0
O108 O 0.20055 0.05662 0.80916 0.0
C109 C 0.20416 0.01969 0.78493 0.0
C110 C 0.19162 0.05221 0.81832 0.0
O111 O 0.21201 0.96347 0.81221 0.0
Mg112 Mg 0.99485 0.18233 0.80887 0.0
O113 O 0.02299 0.1496 0.80878 0.0
O114 O 0.9846 0.09543 0.80325 0.0
Mg115 Mg 0.93622 0.09636 0.79733 0.0
C116 C 0.01432 0.11754 0.80703 0.0
C117 C 0.04591 0.24679 0.82114 0.0
O118 O 0.01485 0.23711 0.82505 0.0
O119 O 0.00499 0.19515 0.79217 0.0
O120 O 0.96753 0.14109 0.78654 0.0
O121 O 0.97054 0.15514 0.82322 0.0
O122 O 0.94521 0.13576 0.80869 0.0
C123 C 0.98986 0.17358 0.78501 0.0
C124 C 0.94595 0.1301 0.81799 0.0
O125 O 0.04737 0.23022 0.81359 0.0
Mg126 Mg 0.80286 0.81108 0.69438 0.0
O127 O 0.86231 0.83144 0.69398 0.0
O128 O 0.89144 0.88729 0.6993 0.0
Mg129 Mg 0.85005 0.89995 0.70538 0.0
C130 C 0.891 0.86025 0.69557 0.0
C131 C 0.80756 0.75239 0.68217 0.0
O132 O 0.82441 0.77938 0.67615 0.0
O133 O 0.80003 0.79923 0.71118 0.0
O134 O 0.82926 0.85503 0.71654 0.0
O135 O 0.81042 0.84101 0.68002 0.0
O136 O 0.81155 0.86265 0.69482 0.0
C137 C 0.81249 0.82184 0.71822 0.0
C138 C 0.81615 0.86772 0.68548 0.0
O139 O 0.7948 0.75664 0.69018 0.0
Mg140 Mg 0.19183 0.9817 0.68994 0.0
O141 O 0.16659 0.01625 0.68971 0.0
O142 O 0.11537 0.99035 0.6979 0.0
Mg143 Mg 0.10913 0.93863 0.70409 0.0
C144 C 0.13883 0.01571 0.69277 0.0
C145 C 0.24391 0.04694 0.67654 0.0
O146 O 0.21801 0.03211 0.67009 0.0
O147 O 0.20983 0.996 0.7061 0.0
O148 O 0.15761 0.96952 0.71391 0.0
O149 O 0.15752 0.95432 0.67669 0.0
O150 O 0.14258 0.93662 0.69214 0.0
C151 C 0.19124 0.98817 0.71398 0.0
C152 C 0.13398 0.93338 0.68298 0.0
O153 O 0.24171 0.03116 0.68465 0.0
Mg154 Mg 0.01965 0.20145 0.69039 0.0
O155 O 0.98473 0.14108 0.68953 0.0
O156 O 0.01016 0.1156 0.69792 0.0
Mg157 Mg 0.05862 0.15988 0.7056 0.0
C158 C 0.98568 0.1138 0.6924 0.0
C159 C 0.96588 0.1924 0.67436 0.0
O160 O 0.98681 0.18355 0.66978 0.0
O161 O 0.0008 0.20387 0.70614 0.0
O162 O 0.02563 0.17735 0.71436 0.0
O163 O 0.05096 0.19677 0.67785 0.0
O164 O 0.06392 0.19636 0.69359 0.0
C165 C 0.00705 0.19237 0.71414 0.0
C166 C 0.06925 0.19174 0.68451 0.0
O167 O 0.9731 0.20349 0.68323 0.0
Mg168 Mg 0.85168 0.54131 0.52651 0.0
O169 O 0.82844 0.48244 0.52392 0.0
O170 O 0.77141 0.45136 0.528 0.0
Mg171 Mg 0.76067 0.49143 0.53606 0.0
C172 C 0.79936 0.45342 0.5244 0.0
C173 C 0.91317 0.55505 0.51239 0.0
O174 O 0.89549 0.566 0.50701 0.0
O175 O 0.86133 0.53286 0.54295 0.0
O176 O 0.80395 0.50159 0.54686 0.0
O177 O 0.82273 0.54337 0.51259 0.0
O178 O 0.80144 0.53576 0.52765 0.0
C179 C 0.83646 0.51519 0.54915 0.0
C180 C 0.79672 0.5372 0.51838 0.0
O181 O 0.90349 0.54555 0.52127 0.0
Mg182 Mg 0.46603 0.32216 0.52504 0.0
O183 O 0.52446 0.36422 0.5233 0.0
O184 O 0.55827 0.3499 0.53227 0.0
Mg185 Mg 0.52047 0.29775 0.54011 0.0
C186 C 0.55461 0.37044 0.5263 0.0
C187 C 0.46824 0.37149 0.50871 0.0
O188 O 0.48114 0.35317 0.50456 0.0
O189 O 0.46205 0.34089 0.54074 0.0
O190 O 0.49587 0.32432 0.54898 0.0
O191 O 0.47523 0.29265 0.51282 0.0
O192 O 0.47937 0.28329 0.52865 0.0
C193 C 0.47618 0.33815 0.54874 0.0
C194 C 0.48385 0.2775 0.51961 0.0
O195 O 0.4561 0.36351 0.51747 0.0
Mg196 Mg 0.67873 0.14885 0.52414 0.0
O197 O 0.64892 0.17719 0.52873 0.0
O198 O 0.6864 0.22489 0.53743 0.0
Mg199 Mg 0.73694 0.22281 0.5403 0.0
C200 C 0.6565 0.20571 0.53326 0.0
C201 C 0.62813 0.08622 0.51085 0.0
O202 O 0.65913 0.09228 0.50772 0.0
O203 O 0.66934 0.12243 0.53943 0.0
O204 O 0.70661 0.16998 0.5483 0.0
O205 O 0.70177 0.18846 0.51171 0.0
O206 O 0.72751 0.19499 0.52621 0.0
C207 C 0.68436 0.13706 0.54758 0.0
C208 C 0.72674 0.20827 0.51781 0.0
O209 O 0.62687 0.10454 0.51797 0.0
Mg210 Mg 0.84917 0.51046 0.64343 0.0
O211 O 0.7894 0.47484 0.64527 0.0
O212 O 0.77211 0.41949 0.6407 0.0
Mg213 Mg 0.82054 0.42146 0.63338 0.0
C214 C 0.76551 0.44263 0.64427 0.0
C215 C 0.82694 0.5504 0.65759 0.0
O216 O 0.81835 0.52054 0.6621 0.0
O217 O 0.84043 0.51832 0.62678 0.0
O218 O 0.82319 0.46237 0.62278 0.0
O219 O 0.85791 0.4854 0.65734 0.0
O220 O 0.85689 0.4669 0.64219 0.0
C221 C 0.82942 0.49321 0.62043 0.0
C222 C 0.8596 0.46304 0.65143 0.0
O223 O 0.84157 0.55603 0.64911 0.0
Mg224 Mg 0.47227 0.34479 0.64378 0.0
O225 O 0.49815 0.3102 0.64414 0.0
O226 O 0.55267 0.34066 0.63788 0.0
Mg227 Mg 0.56149 0.39489 0.63315 0.0
C228 C 0.52767 0.3129 0.64184 0.0
C229 C 0.41144 0.29207 0.65685 0.0
O230 O 0.42868 0.32003 0.66251 0.0
O231 O 0.46176 0.33725 0.62688 0.0
O232 O 0.51743 0.3705 0.62172 0.0
O233 O 0.49878 0.36548 0.65838 0.0
O234 O 0.5227 0.39095 0.64418 0.0
C235 C 0.48447 0.35144 0.61991 0.0
C236 C 0.52631 0.38815 0.65351 0.0
O237 O 0.42065 0.29419 0.64784 0.0
Mg238 Mg 0.66977 0.13993 0.64076 0.0
O239 O 0.71404 0.19727 0.6418 0.0
O240 O 0.69838 0.23192 0.6338 0.0
Mg241 Mg 0.64386 0.19581 0.62689 0.0
C242 C 0.7202 0.22759 0.63902 0.0
C243 C 0.72876 0.14142 0.65426 0.0
O244 O 0.71913 0.15951 0.65995 0.0
O245 O 0.68298 0.13409 0.62456 0.0
O246 O 0.66227 0.16584 0.61715 0.0
O247 O 0.64219 0.15002 0.65378 0.0
O248 O 0.63212 0.15493 0.63811 0.0
C249 C 0.67515 0.14533 0.61676 0.0
C250 C 0.62584 0.15799 0.64718 0.0
O251 O 0.71115 0.12701 0.64645 0.0
Mg252 Mg 0.48322 0.13489 0.14303 0.0
O253 O 0.50566 0.19438 0.1427 0.0
O254 O 0.55848 0.22213 0.13539 0.0
Mg255 Mg 0.56471 0.17789 0.12837 0.0
C256 C 0.53348 0.22253 0.14014 0.0
C257 C 0.40718 0.10947 0.15344 0.0
O258 O 0.40274 0.07745 0.15373 0.0
O259 O 0.46224 0.12959 0.12715 0.0
O260 O 0.51439 0.15868 0.11938 0.0
O261 O 0.51976 0.14363 0.15587 0.0
O262 O 0.53319 0.14117 0.14028 0.0
C263 C 0.48069 0.14218 0.1193 0.0
C264 C 0.54309 0.14736 0.14935 0.0
O265 O 0.43502 0.13441 0.14962 0.0
Mg266 Mg 0.87754 0.34624 0.14467 0.0
O267 O 0.81773 0.31417 0.14377 0.0
O268 O 0.79515 0.34031 0.13457 0.0
Mg269 Mg 0.84339 0.39134 0.12891 0.0
C270 C 0.79151 0.315 0.14006 0.0
C271 C 0.85037 0.28324 0.15866 0.0
O272 O 0.83652 0.30187 0.16198 0.0
O273 O 0.88382 0.33037 0.12879 0.0
O274 O 0.86307 0.36003 0.12019 0.0
O275 O 0.86975 0.37584 0.15718 0.0
O276 O 0.87608 0.39272 0.14158 0.0
C277 C 0.87648 0.34001 0.12061 0.0
C278 C 0.86928 0.39691 0.15054 0.0
O279 O 0.87276 0.29578 0.15163 0.0
Mg280 Mg 0.66545 0.52617 0.1413 0.0
O281 O 0.70133 0.50229 0.13995 0.0
O282 O 0.67214 0.44647 0.13454 0.0
Mg283 Mg 0.61801 0.4361 0.12904 0.0
C284 C 0.70005 0.47319 0.13791 0.0
C285 C 0.71558 0.57853 0.15675 0.0
O286 O 0.68807 0.55609 0.16196 0.0
O287 O 0.67624 0.54657 0.12489 0.0
O288 O 0.64435 0.4898 0.12274 0.0
O289 O 0.64033 0.4911 0.15485 0.0
O290 O 0.6191 0.47449 0.13987 0.0
C291 C 0.65934 0.52042 0.11909 0.0
C292 C 0.61716 0.46736 0.14907 0.0
O293 O 0.71411 0.57567 0.14737 0.0
Mg294 Mg 0.46824 0.14292 0.02422 0.0
O295 O 0.52804 0.16489 0.024 0.0
O296 O 0.55557 0.22085 0.02924 0.0
Mg297 Mg 0.51287 0.2318 0.0352 0.0
C298 C 0.55615 0.1942 0.0256 0.0
C299 C 0.47663 0.08557 0.01244 0.0
O300 O 0.494 0.11269 0.00649 0.0
O301 O 0.46523 0.13109 0.04099 0.0
O302 O 0.49282 0.18694 0.04631 0.0
O303 O 0.47521 0.17306 0.00986 0.0
O304 O 0.47498 0.1936 0.02471 0.0
C305 C 0.47683 0.15378 0.04802 0.0
C306 C 0.47947 0.1991 0.01539 0.0
O307 O 0.46216 0.08929 0.02017 0.0
Mg308 Mg 0.85916 0.32604 0.0263 0.0
O309 O 0.83627 0.36224 0.02759 0.0
O310 O 0.78216 0.33373 0.03403 0.0
Mg311 Mg 0.77277 0.27878 0.03859 0.0
C312 C 0.80798 0.36136 0.03025 0.0
C313 C 0.91571 0.38985 0.01348 0.0
O314 O 0.8936 0.37189 0.00633 0.0
O315 O 0.87368 0.33299 0.04292 0.0
O316 O 0.81939 0.302 0.04934 0.0
O317 O 0.8267 0.30388 0.01224 0.0
O318 O 0.80908 0.28068 0.02706 0.0
C319 C 0.85292 0.31994 0.05036 0.0
C320 C 0.80231 0.28028 0.01784 0.0
O321 O 0.91014 0.37664 0.02214 0.0
Mg322 Mg 0.67688 0.53174 0.02479 0.0
O323 O 0.64251 0.47199 0.02259 0.0
O324 O 0.66686 0.44525 0.03084 0.0
Mg325 Mg 0.71723 0.48827 0.03845 0.0
C326 C 0.64285 0.44423 0.02525 0.0
C327 C 0.61118 0.51966 0.01174 0.0
O328 O 0.61982 0.49989 0.00645 0.0
O329 O 0.65737 0.52836 0.04071 0.0
O330 O 0.68569 0.50436 0.04848 0.0
O331 O 0.70956 0.5315 0.01182 0.0
O332 O 0.72143 0.52724 0.02745 0.0
C333 C 0.66567 0.51782 0.04854 0.0
C334 C 0.72854 0.52662 0.01829 0.0
O335 O 0.63036 0.53677 0.01908 0.0
Mg336 Mg 0.51877 0.86294 0.85899 0.0
O337 O 0.48751 0.80217 0.85973 0.0
O338 O 0.43552 0.78617 0.86689 0.0
Mg339 Mg 0.4372 0.83578 0.87298 0.0
C340 C 0.45652 0.77861 0.86237 0.0
C341 C 0.56397 0.83851 0.84669 0.0
O342 O 0.53304 0.81832 0.84255 0.0
O343 O 0.53686 0.86787 0.87521 0.0
O344 O 0.48553 0.85252 0.88265 0.0
O345 O 0.48658 0.85766 0.84544 0.0
O346 O 0.47195 0.86477 0.86053 0.0
C347 C 0.51853 0.86332 0.88302 0.0
C348 C 0.46323 0.85739 0.85139 0.0
O349 O 0.56666 0.85975 0.85353 0.0
Mg350 Mg 0.13002 0.65653 0.85911 0.0
O351 O 0.1899 0.69062 0.85828 0.0
O352 O 0.21597 0.66764 0.86744 0.0
Mg353 Mg 0.17119 0.61885 0.87505 0.0
C354 C 0.21739 0.69102 0.86151 0.0
C355 C 0.14432 0.7105 0.84271 0.0
O356 O 0.15596 0.6904 0.83902 0.0
O357 O 0.12793 0.67756 0.87465 0.0
O358 O 0.15395 0.65308 0.88331 0.0
O359 O 0.13507 0.62345 0.84711 0.0
O360 O 0.13429 0.61236 0.86307 0.0
C361 C 0.1393 0.67199 0.88279 0.0
C362 C 0.13853 0.60534 0.85414 0.0
O363 O 0.12937 0.7027 0.85115 0.0
Mg364 Mg 0.34402 0.47877 0.85869 0.0
O365 O 0.30983 0.50347 0.86146 0.0
O366 O 0.34182 0.55929 0.86661 0.0
Mg367 Mg 0.39685 0.56679 0.8698 0.0
C368 C 0.31259 0.53292 0.86383 0.0
C369 C 0.28232 0.41228 0.84748 0.0
O370 O 0.30578 0.42189 0.84035 0.0
O371 O 0.34286 0.46607 0.8753 0.0
O372 O 0.3748 0.52137 0.8809 0.0
O373 O 0.35814 0.50837 0.84429 0.0
O374 O 0.38943 0.52919 0.85796 0.0
C375 C 0.35719 0.48808 0.88241 0.0
C376 C 0.38299 0.53477 0.84908 0.0
O377 O 0.29136 0.42833 0.85575 0.0
Mg378 Mg 0.53017 0.84785 0.97639 0.0
O379 O 0.4698 0.81575 0.97474 0.0
O380 O 0.45565 0.76497 0.96713 0.0
Mg381 Mg 0.50667 0.76812 0.96173 0.0
C382 C 0.44698 0.78504 0.97169 0.0
C383 C 0.50378 0.88596 0.98999 0.0
O384 O 0.4899 0.854 0.99372 0.0
O385 O 0.53847 0.86837 0.96032 0.0
O386 O 0.52581 0.81809 0.95261 0.0
O387 O 0.52308 0.8143 0.98973 0.0
O388 O 0.53285 0.80104 0.97477 0.0
C389 C 0.5361 0.85098 0.95247 0.0
C390 C 0.52358 0.79137 0.98378 0.0
O391 O 0.52335 0.89346 0.98236 0.0
Mg392 Mg 0.1477 0.67885 0.97726 0.0
O393 O 0.16768 0.64025 0.97468 0.0
O394 O 0.22338 0.66946 0.96922 0.0
Mg395 Mg 0.2356 0.7258 0.96567 0.0
C396 C 0.19629 0.64121 0.97223 0.0
C397 C 0.0861 0.63004 0.99054 0.0
O398 O 0.1049 0.6586 0.99587 0.0
O399 O 0.13371 0.67698 0.96064 0.0
O400 O 0.18917 0.70599 0.95504 0.0
O401 O 0.17858 0.69261 0.99148 0.0
O402 O 0.19996 0.7219 0.97756 0.0
C403 C 0.15591 0.69024 0.95351 0.0
C404 C 0.20542 0.71579 0.98648 0.0
O405 O 0.09477 0.63026 0.98154 0.0
Mg406 Mg 0.31805 0.45828 0.97666 0.0
O407 O 0.35188 0.51832 0.97718 0.0
O408 O 0.32781 0.54379 0.96824 0.0
Mg409 Mg 0.27863 0.49824 0.96097 0.0
C410 C 0.35185 0.54562 0.97396 0.0
C411 C 0.37576 0.47599 0.99215 0.0
O412 O 0.35732 0.48949 0.99587 0.0
O413 O 0.33792 0.45583 0.96106 0.0
O414 O 0.31278 0.48136 0.95247 0.0
O415 O 0.28589 0.46351 0.98889 0.0
O416 O 0.27332 0.46185 0.97301 0.0
C417 C 0.33189 0.46692 0.95295 0.0
C418 C 0.26692 0.46629 0.98199 0.0
O419 O 0.36522 0.45836 0.98415 0.0
Mg420 Mg 0.13815 0.47808 0.47567 0.0
O421 O 0.1621 0.53755 0.47614 0.0
O422 O 0.21619 0.56428 0.46964 0.0
Mg423 Mg 0.22392 0.52018 0.46296 0.0
C424 C 0.19104 0.56533 0.47411 0.0
C425 C 0.07874 0.47987 0.48912 0.0
O426 O 0.09649 0.47718 0.49658 0.0
O427 O 0.12281 0.47478 0.45919 0.0
O428 O 0.1768 0.49865 0.45252 0.0
O429 O 0.17139 0.48418 0.48936 0.0
O430 O 0.18793 0.48266 0.4741 0.0
C431 C 0.14328 0.48354 0.45168 0.0
C432 C 0.19571 0.48722 0.4833 0.0
O433 O 0.08776 0.47774 0.48032 0.0
Mg434 Mg 0.53196 0.67555 0.47614 0.0
O435 O 0.47217 0.64217 0.47757 0.0
O436 O 0.44754 0.66944 0.46976 0.0
Mg437 Mg 0.4925 0.72192 0.46359 0.0
C438 C 0.44518 0.64374 0.47484 0.0
C439 C 0.51733 0.60798 0.48844 0.0
O440 O 0.50199 0.61981 0.49446 0.0
O441 O 0.53099 0.66118 0.45966 0.0
O442 O 0.51002 0.69363 0.45282 0.0
O443 O 0.52981 0.7041 0.48989 0.0
O444 O 0.52933 0.7217 0.47463 0.0
C445 C 0.52276 0.67307 0.45207 0.0
C446 C 0.52671 0.72557 0.48392 0.0
O447 O 0.53333 0.62599 0.48081 0.0
Mg448 Mg 0.32801 0.85762 0.47489 0.0
O449 O 0.36244 0.8327 0.47429 0.0
O450 O 0.33172 0.77664 0.46945 0.0
Mg451 Mg 0.27573 0.76668 0.4658 0.0
C452 C 0.36045 0.80331 0.4724 0.0
C453 C 0.39022 0.92668 0.48494 0.0
O454 O 0.36726 0.91967 0.49208 0.0
O455 O 0.33037 0.86441 0.45794 0.0
O456 O 0.29488 0.80797 0.45346 0.0
O457 O 0.30924 0.83216 0.49005 0.0
O458 O 0.28196 0.80865 0.47599 0.0
C459 C 0.31359 0.84076 0.45135 0.0
C460 C 0.28374 0.806 0.48537 0.0
O461 O 0.38051 0.90829 0.47707 0.0
Mg462 Mg 0.14001 0.47288 0.35904 0.0
O463 O 0.20048 0.49619 0.36011 0.0
O464 O 0.22317 0.54945 0.36716 0.0
Mg465 Mg 0.17797 0.54259 0.37699 0.0
C466 C 0.22657 0.52664 0.36212 0.0
C467 C 0.14245 0.42849 0.34141 0.0
O468 O 0.14292 0.45504 0.33672 0.0
O469 O 0.12671 0.44555 0.37412 0.0
O470 O 0.17186 0.4895 0.38197 0.0
O471 O 0.15195 0.51686 0.3481 0.0
O472 O 0.14303 0.51905 0.3641 0.0
C473 C 0.14427 0.45904 0.38202 0.0
C474 C 0.151 0.53454 0.35567 0.0
O475 O 0.13954 0.42698 0.35078 0.0
Mg476 Mg 0.51943 0.65535 0.35774 0.0
O477 O 0.48451 0.68031 0.35993 0.0
O478 O 0.43144 0.638 0.36514 0.0
Mg479 Mg 0.4349 0.58839 0.36847 0.0
C480 C 0.45237 0.66952 0.36221 0.0
C481 C 0.57386 0.72501 0.34651 0.0
O482 O 0.55412 0.70702 0.33896 0.0
O483 O 0.53116 0.65855 0.37443 0.0
O484 O 0.47875 0.61572 0.37994 0.0
O485 O 0.49263 0.63709 0.34302 0.0
O486 O 0.47429 0.60491 0.35661 0.0
C487 C 0.51083 0.63942 0.3814 0.0
C488 C 0.46813 0.60985 0.34762 0.0
O489 O 0.56659 0.71096 0.35507 0.0
Mg490 Mg 0.34707 0.86782 0.3575 0.0
O491 O 0.31186 0.80901 0.3603 0.0
O492 O 0.34225 0.78769 0.36823 0.0
Mg493 Mg 0.39641 0.83546 0.37196 0.0
C494 C 0.31427 0.78357 0.36404 0.0
C495 C 0.29562 0.87328 0.34291 0.0
O496 O 0.32322 0.88159 0.33729 0.0
O497 O 0.33769 0.87787 0.37355 0.0
O498 O 0.36951 0.85839 0.38157 0.0
O499 O 0.3663 0.85261 0.34414 0.0
O500 O 0.39202 0.8622 0.35877 0.0
C501 C 0.3498 0.87223 0.38153 0.0
C502 C 0.38817 0.84963 0.34996 0.0
O503 O 0.29745 0.86785 0.35207 0.0
H504 H 0.06664 0.19008 0.17967 0.0
H505 H 0.10004 0.11368 0.17362 0.0
H506 H 0.04205 0.06575 0.17915 0.0
H507 H 0.01735 0.15658 0.19978 0.0
H508 H 0.97926 0.1604 0.19671 0.0
H509 H 0.02129 0.18962 0.19107 0.0
H510 H 0.99461 0.17043 0.17354 0.0
H511 H 0.95201 0.14236 0.1791 0.0
H512 H 0.97008 0.12408 0.17049 0.0
H513 H 0.99553 0.03524 0.19212 0.0
H514 H 0.93911 0.00705 0.20099 0.0
H515 H 0.9228 0.09407 0.19331 0.0
C516 C 0.06093 0.16304 0.17898 0.0
C517 C 0.08792 0.15548 0.17642 0.0
C518 C 0.0798 0.11997 0.17561 0.0
C519 C 0.04724 0.09267 0.17892 0.0
C520 C 0.02256 0.10132 0.18237 0.0
C521 C 0.02743 0.13491 0.18157 0.0
C522 C 0.99473 0.13564 0.18517 0.0
C523 C 0.00373 0.16215 0.19369 0.0
C524 C 0.97678 0.14359 0.17656 0.0
C525 C 0.97218 0.09781 0.18879 0.0
C526 C 0.99 0.07945 0.18754 0.0
C527 C 0.97937 0.04759 0.19229 0.0
C528 C 0.94736 0.03193 0.1974 0.0
C529 C 0.92503 0.04668 0.19715 0.0
C530 C 0.93836 0.08106 0.19315 0.0
H531 H 0.8802 0.96317 0.19043 0.0
H532 H 0.78956 0.87579 0.17669 0.0
H533 H 0.81953 0.83986 0.17768 0.0
H534 H 0.95481 0.94638 0.18257 0.0
H535 H 0.97009 0.96736 0.19443 0.0
H536 H 0.94148 0.97628 0.18691 0.0
H537 H 0.90398 0.9527 0.20623 0.0
H538 H 0.93609 0.94007 0.20945 0.0
H539 H 0.88976 0.90768 0.20898 0.0
H540 H 0.86403 0.81488 0.18078 0.0
H541 H 0.91183 0.8037 0.18635 0.0
H542 H 0.96216 0.90449 0.2016 0.0
C543 C 0.86662 0.93658 0.18762 0.0
C544 C 0.83298 0.92243 0.18344 0.0
C545 C 0.81597 0.88742 0.17972 0.0
C546 C 0.83267 0.86681 0.18036 0.0
C547 C 0.86562 0.88142 0.18505 0.0
C548 C 0.88178 0.91544 0.18873 0.0
C549 C 0.91482 0.92475 0.1944 0.0
C550 C 0.94719 0.95549 0.18933 0.0
C551 C 0.91108 0.93187 0.20538 0.0
C552 C 0.91556 0.89106 0.19335 0.0
C553 C 0.88774 0.8663 0.18774 0.0
C554 C 0.8855 0.83416 0.18529 0.0
C555 C 0.91271 0.82798 0.18853 0.0
C556 C 0.9412 0.85351 0.19434 0.0
C557 C 0.94151 0.8847 0.197 0.0
H558 H 0.0719 0.05043 0.1912 0.0
H559 H 0.18592 0.09818 0.19124 0.0
H560 H 0.17998 0.04002 0.18754 0.0
H561 H 0.0527 0.96756 0.20224 0.0
H562 H 0.01362 0.94392 0.19479 0.0
H563 H 0.0296 0.98949 0.19797 0.0
H564 H 0.02844 0.00044 0.17895 0.0
H565 H 0.0158 0.95538 0.17606 0.0
H566 H 0.05545 0.99118 0.17078 0.0
H567 H 0.16072 0.97515 0.18519 0.0
H568 H 0.12976 0.90969 0.18453 0.0
H569 H 0.02906 0.90605 0.18403 0.0
C570 C 0.09561 0.04869 0.1904 0.0
C571 C 0.12933 0.07883 0.19147 0.0
C572 C 0.15976 0.07538 0.19042 0.0
C573 C 0.15667 0.04251 0.18826 0.0
C574 C 0.12296 0.01345 0.18697 0.0
C575 C 0.09305 0.01635 0.18797 0.0
C576 C 0.05992 0.98112 0.18646 0.0
C577 C 0.03762 0.96988 0.19595 0.0
C578 C 0.03866 0.98212 0.17753 0.0
C579 C 0.0756 0.9577 0.1845 0.0
C580 C 0.1121 0.97678 0.1849 0.0
C581 C 0.13224 0.96012 0.18455 0.0
C582 C 0.11453 0.92302 0.18409 0.0
C583 C 0.07722 0.90318 0.18379 0.0
C584 C 0.05765 0.92081 0.18376 0.0
H585 H 0.18929 0.07776 0.30428 0.0
H586 H 0.14902 0.11092 0.32888 0.0
H587 H 0.10169 0.04917 0.33136 0.0
H588 H 0.10974 0.02436 0.29396 0.0
H589 H 0.11805 0.99018 0.28963 0.0
H590 H 0.15418 0.03452 0.29117 0.0
H591 H 0.18603 0.01299 0.30299 0.0
H592 H 0.1507 0.96819 0.30123 0.0
H593 H 0.16279 0.98618 0.31355 0.0
H594 H 0.05164 0.98803 0.32863 0.0
H595 H 0.00751 0.92861 0.32273 0.0
H596 H 0.07956 0.93398 0.29995 0.0
C597 C 0.17126 0.07181 0.31042 0.0
C598 C 0.17266 0.09915 0.31635 0.0
C599 C 0.14869 0.09041 0.32431 0.0
C600 C 0.12151 0.05539 0.32572 0.0
C601 C 0.11903 0.02956 0.31916 0.0
C602 C 0.14379 0.03714 0.31182 0.0
C603 C 0.1331 0.00556 0.30509 0.0
C604 C 0.1285 0.01419 0.29433 0.0
C605 C 0.15974 0.99245 0.30576 0.0
C606 C 0.09794 0.9793 0.30963 0.0
C607 C 0.09031 0.99378 0.31771 0.0
C608 C 0.05778 0.9761 0.32249 0.0
C609 C 0.03272 0.94256 0.31904 0.0
C610 C 0.04033 0.9269 0.31097 0.0
C611 C 0.07341 0.94537 0.30623 0.0
H612 H 0.92556 0.11635 0.30595 0.0
H613 H 0.90365 0.04523 0.3307 0.0
H614 H 0.96638 0.06121 0.33109 0.0
H615 H 0.97599 0.09215 0.29335 0.0
H616 H 0.00773 0.13484 0.28848 0.0
H617 H 0.96399 0.1257 0.2916 0.0
H618 H 0.98924 0.17942 0.30343 0.0
H619 H 0.03332 0.18967 0.30013 0.0
H620 H 0.02011 0.18382 0.31294 0.0
H621 H 0.02625 0.07276 0.32608 0.0
H622 H 0.08299 0.08821 0.31804 0.0
H623 H 0.06735 0.15311 0.29674 0.0
C624 C 0.93432 0.1053 0.31172 0.0
C625 C 0.9098 0.07953 0.31829 0.0
C626 C 0.92205 0.06537 0.32569 0.0
C627 C 0.95762 0.0741 0.3259 0.0
C628 C 0.98049 0.09728 0.31874 0.0
C629 C 0.96961 0.11354 0.31197 0.0
C630 C 0.99829 0.13459 0.30443 0.0
C631 C 0.98573 0.12099 0.29384 0.0
C632 C 0.011 0.17424 0.30529 0.0
C633 C 0.02652 0.12649 0.30777 0.0
C634 C 0.01568 0.10486 0.31603 0.0
C635 C 0.03547 0.09057 0.31982 0.0
C636 C 0.06742 0.09915 0.31516 0.0
C637 C 0.07936 0.12197 0.30688 0.0
C638 C 0.05884 0.13601 0.30317 0.0
H639 H 0.84282 0.91209 0.3044 0.0
H640 H 0.92853 0.00439 0.31835 0.0
H641 H 0.94679 0.9666 0.32716 0.0
H642 H 0.82415 0.84706 0.3245 0.0
H643 H 0.81824 0.81272 0.316 0.0
H644 H 0.80742 0.84576 0.31222 0.0
H645 H 0.84954 0.86216 0.29715 0.0
H646 H 0.8597 0.82867 0.30076 0.0
H647 H 0.89484 0.87366 0.29914 0.0
H648 H 0.95704 0.91943 0.33399 0.0
H649 H 0.97087 0.87117 0.33416 0.0
H650 H 0.8821 0.80971 0.31468 0.0
C651 C 0.86511 0.92408 0.30942 0.0
C652 C 0.88405 0.96097 0.31087 0.0
C653 C 0.91364 0.97609 0.31725 0.0
C654 C 0.92387 0.95479 0.32237 0.0
C655 C 0.90452 0.91838 0.3209 0.0
C656 C 0.87645 0.90323 0.31434 0.0
C657 C 0.86414 0.86443 0.31278 0.0
C658 C 0.82623 0.84112 0.31661 0.0
C659 C 0.86727 0.8568 0.30181 0.0
C660 C 0.89046 0.86053 0.31921 0.0
C661 C 0.91242 0.89152 0.32418 0.0
C662 C 0.94004 0.89498 0.33013 0.0
C663 C 0.94749 0.86724 0.33029 0.0
C664 C 0.92774 0.8369 0.32437 0.0
C665 C 0.89754 0.83265 0.3193 0.0
H666 H 0.92092 0.87444 0.82361 0.0
H667 H 0.92016 0.77712 0.81747 0.0
H668 H 0.98498 0.81059 0.81504 0.0
H669 H 0.97427 0.9193 0.80456 0.0
H670 H 0.99929 0.96219 0.81027 0.0
H671 H 0.95546 0.93213 0.81448 0.0
H672 H 0.97626 0.93383 0.83239 0.0
H673 H 0.0202 0.96609 0.8285 0.0
H674 H 0.01268 0.92648 0.83476 0.0
H675 H 0.04791 0.85515 0.81091 0.0
H676 H 0.10404 0.9071 0.80558 0.0
H677 H 0.06184 0.97562 0.81265 0.0
C678 C 0.93483 0.86027 0.8223 0.0
C679 C 0.91605 0.82328 0.82113 0.0
C680 C 0.9345 0.80536 0.81879 0.0
C681 C 0.9712 0.82422 0.81731 0.0
C682 C 0.98878 0.861 0.818 0.0
C683 C 0.97121 0.87889 0.82049 0.0
C684 C 0.99496 0.9185 0.8193 0.0
C685 C 0.98008 0.93386 0.81169 0.0
C686 C 0.00142 0.93733 0.82934 0.0
C687 C 0.02814 0.91999 0.81546 0.0
C688 C 0.02435 0.88667 0.81496 0.0
C689 C 0.05122 0.88137 0.81135 0.0
C690 C 0.08285 0.91094 0.80826 0.0
C691 C 0.08695 0.9452 0.80856 0.0
C692 C 0.05918 0.94965 0.8122 0.0
H693 H 0.08645 0.1493 0.80558 0.0
H694 H 0.99381 0.05598 0.81677 0.0
H695 H 0.03184 0.03441 0.82377 0.0
H696 H 0.12882 0.10239 0.79756 0.0
H697 H 0.17276 0.13789 0.80025 0.0
H698 H 0.1384 0.14759 0.7973 0.0
H699 H 0.15074 0.18223 0.8138 0.0
H700 H 0.18463 0.17182 0.81688 0.0
H701 H 0.14852 0.16037 0.82531 0.0
H702 H 0.07972 0.02201 0.82904 0.0
H703 H 0.13151 0.01352 0.8291 0.0
H704 H 0.19257 0.11302 0.81366 0.0
C705 C 0.07435 0.12455 0.80961 0.0
C706 C 0.03736 0.10437 0.81072 0.0
C707 C 0.02219 0.07172 0.81583 0.0
C708 C 0.04358 0.05949 0.81993 0.0
C709 C 0.08007 0.08008 0.81877 0.0
C710 C 0.09527 0.11151 0.81353 0.0
C711 C 0.13459 0.12626 0.81223 0.0
C712 C 0.14419 0.12865 0.80118 0.0
C713 C 0.15587 0.16231 0.81736 0.0
C714 C 0.13909 0.09811 0.81748 0.0
C715 C 0.1075 0.07215 0.82142 0.0
C716 C 0.10468 0.04233 0.82608 0.0
C717 C 0.13438 0.03795 0.82621 0.0
C718 C 0.16613 0.06293 0.82153 0.0
C719 C 0.16882 0.094 0.8175 0.0
H720 H 0.85444 0.9316 0.80331 0.0
H721 H 0.90727 0.91615 0.82829 0.0
H722 H 0.92387 0.97544 0.83461 0.0
H723 H 0.91497 0.02028 0.79906 0.0
H724 H 0.88215 0.03213 0.79589 0.0
H725 H 0.87283 0.98759 0.79409 0.0
H726 H 0.81646 0.96591 0.80493 0.0
H727 H 0.82697 0.0109 0.80698 0.0
H728 H 0.82058 0.98244 0.81737 0.0
H729 H 0.94259 0.03939 0.83665 0.0
H730 H 0.96151 0.10238 0.83418 0.0
H731 H 0.88921 0.07412 0.80942 0.0
C732 C 0.869 0.94066 0.81018 0.0
C733 C 0.88027 0.91991 0.81523 0.0
C734 C 0.89908 0.93214 0.82423 0.0
C735 C 0.90827 0.96559 0.82793 0.0
C736 C 0.89735 0.9859 0.8227 0.0
C737 C 0.87767 0.97372 0.8141 0.0
C738 C 0.87098 0.00152 0.80961 0.0
C739 C 0.88618 0.01094 0.79905 0.0
C740 C 0.83139 0.98946 0.80973 0.0
C741 C 0.89139 0.03176 0.81676 0.0
C742 C 0.90626 0.0222 0.8243 0.0
C743 C 0.93028 0.04702 0.83096 0.0
C744 C 0.94072 0.08277 0.82955 0.0
C745 C 0.92702 0.09317 0.82157 0.0
C746 C 0.90032 0.06698 0.81556 0.0
H747 H 0.91995 0.06793 0.69947 0.0
H748 H 0.9944 0.08219 0.67633 0.0
H749 H 0.95294 0.02233 0.66984 0.0
H750 H 0.89515 0.98052 0.70459 0.0
H751 H 0.84963 0.96656 0.70727 0.0
H752 H 0.88306 0.01194 0.70904 0.0
H753 H 0.84849 0.03136 0.69746 0.0
H754 H 0.81519 0.9858 0.69556 0.0
H755 H 0.83751 0.0137 0.68509 0.0
H756 H 0.90686 0.95814 0.66736 0.0
H757 H 0.86207 0.895 0.66971 0.0
H758 H 0.81654 0.92383 0.69394 0.0
C759 C 0.92696 0.05858 0.69291 0.0
C760 C 0.95988 0.07934 0.68829 0.0
C761 C 0.96895 0.06638 0.67987 0.0
C762 C 0.94555 0.03261 0.67612 0.0
C763 C 0.9132 0.01235 0.68088 0.0
C764 C 0.90391 0.02492 0.68909 0.0
C765 C 0.8694 0.99676 0.69348 0.0
C766 C 0.87464 0.98846 0.70423 0.0
C767 C 0.84097 0.00756 0.69285 0.0
C768 C 0.86112 0.96618 0.68662 0.0
C769 C 0.88644 0.97563 0.67933 0.0
C770 C 0.88639 0.95059 0.67288 0.0
C771 C 0.86069 0.91481 0.6742 0.0
C772 C 0.83571 0.90464 0.68194 0.0
C773 C 0.83504 0.93094 0.68786 0.0
H774 H 0.09176 0.96 0.67847 0.0
H775 H 0.09153 0.86238 0.68376 0.0
H776 H 0.02651 0.83079 0.68557 0.0
H777 H 0.03679 0.9497 0.69691 0.0
H778 H 0.01252 0.96826 0.69115 0.0
H779 H 0.05668 0.98204 0.68718 0.0
H780 H 0.03659 0.96441 0.66917 0.0
H781 H 0.99216 0.95189 0.67282 0.0
H782 H 0.00067 0.92066 0.66645 0.0
H783 H 0.96338 0.81201 0.68938 0.0
H784 H 0.90722 0.80744 0.69486 0.0
H785 H 0.95004 0.91896 0.68875 0.0
C786 C 0.07766 0.93165 0.67942 0.0
C787 C 0.09622 0.91321 0.68056 0.0
C788 C 0.07741 0.8765 0.68246 0.0
C789 C 0.04056 0.85849 0.68358 0.0
C790 C 0.0231 0.87778 0.68293 0.0
C791 C 0.041 0.91358 0.68082 0.0
C792 C 0.01714 0.92928 0.68202 0.0
C793 C 0.03166 0.95904 0.68979 0.0
C794 C 0.01129 0.94232 0.67202 0.0
C795 C 0.98365 0.89718 0.6856 0.0
C796 C 0.98727 0.86753 0.68581 0.0
C797 C 0.96015 0.83499 0.68914 0.0
C798 C 0.92846 0.83267 0.6923 0.0
C799 C 0.92455 0.86294 0.69235 0.0
C800 C 0.95252 0.89551 0.68892 0.0
H801 H 0.11344 0.18253 0.69672 0.0
H802 H 0.06629 0.15573 0.66749 0.0
H803 H 0.08568 0.11165 0.66574 0.0
H804 H 0.18629 0.16315 0.69306 0.0
H805 H 0.17947 0.14341 0.70516 0.0
H806 H 0.17014 0.17865 0.70303 0.0
H807 H 0.10677 0.13871 0.70967 0.0
H808 H 0.11516 0.10286 0.71155 0.0
H809 H 0.07866 0.09651 0.7039 0.0
H810 H 0.10414 0.0658 0.66804 0.0
H811 H 0.11828 0.02107 0.6743 0.0
H812 H 0.14437 0.07211 0.70298 0.0
C813 C 0.1077 0.16787 0.68987 0.0
C814 C 0.08811 0.17236 0.68227 0.0
C815 C 0.08159 0.15301 0.67337 0.0
C816 C 0.09234 0.12777 0.67234 0.0
C817 C 0.10935 0.12222 0.6803 0.0
C818 C 0.11701 0.14182 0.68889 0.0
C819 C 0.1307 0.12755 0.69691 0.0
C820 C 0.16893 0.15481 0.6997 0.0
C821 C 0.10636 0.1157 0.70604 0.0
C822 C 0.1289 0.09632 0.69157 0.0
C823 C 0.11736 0.09421 0.68192 0.0
C824 C 0.11325 0.0673 0.67557 0.0
C825 C 0.12109 0.04195 0.67919 0.0
C826 C 0.13177 0.04314 0.68912 0.0
C827 C 0.13591 0.07068 0.69537 0.0
H828 H 0.60312 0.43153 0.53525 0.0
H829 H 0.57743 0.37576 0.50731 0.0
H830 H 0.63538 0.42026 0.50054 0.0
H831 H 0.65304 0.52303 0.52334 0.0
H832 H 0.68368 0.53973 0.53354 0.0
H833 H 0.63846 0.50582 0.53563 0.0
H834 H 0.65981 0.46596 0.54365 0.0
H835 H 0.70486 0.49957 0.54164 0.0
H836 H 0.68894 0.45569 0.5368 0.0
H837 H 0.70115 0.46303 0.49844 0.0
H838 H 0.76555 0.50245 0.50091 0.0
H839 H 0.74443 0.53753 0.52874 0.0
C840 C 0.60947 0.42938 0.52763 0.0
C841 C 0.5864 0.40003 0.52185 0.0
C842 C 0.59518 0.3978 0.5119 0.0
C843 C 0.62789 0.42316 0.50796 0.0
C844 C 0.65074 0.45145 0.51393 0.0
C845 C 0.64135 0.4553 0.52345 0.0
C846 C 0.67107 0.4871 0.52851 0.0
C847 C 0.66095 0.51561 0.53036 0.0
C848 C 0.68181 0.47642 0.53821 0.0
C849 C 0.69955 0.49886 0.52067 0.0
C850 C 0.68745 0.4782 0.51227 0.0
C851 C 0.71069 0.48035 0.50481 0.0
C852 C 0.74726 0.50301 0.50621 0.0
C853 C 0.75992 0.5232 0.51497 0.0
C854 C 0.73545 0.52271 0.5219 0.0
H855 H 0.47961 0.21405 0.524 0.0
H856 H 0.54772 0.31778 0.51163 0.0
H857 H 0.59972 0.311 0.51457 0.0
H858 H 0.53175 0.21198 0.54212 0.0
H859 H 0.52405 0.1678 0.54033 0.0
H860 H 0.49112 0.17865 0.53657 0.0
H861 H 0.49191 0.15792 0.51867 0.0
H862 H 0.52388 0.14565 0.52245 0.0
H863 H 0.53337 0.17543 0.51219 0.0
H864 H 0.64299 0.29934 0.52325 0.0
H865 H 0.67821 0.27398 0.52995 0.0
H866 H 0.58321 0.172 0.53283 0.0
C867 C 0.50529 0.23445 0.52145 0.0
C868 C 0.51008 0.26669 0.51765 0.0
C869 C 0.54389 0.29309 0.51453 0.0
C870 C 0.57348 0.28953 0.51626 0.0
C871 C 0.56828 0.25841 0.5206 0.0
C872 C 0.53496 0.23032 0.52254 0.0
C873 C 0.53717 0.19923 0.52676 0.0
C874 C 0.52 0.18883 0.53705 0.0
C875 C 0.52061 0.16769 0.51959 0.0
C876 C 0.57695 0.21513 0.52738 0.0
C877 C 0.59413 0.24969 0.5241 0.0
C878 C 0.6303 0.27172 0.52527 0.0
C879 C 0.64994 0.2573 0.52919 0.0
C880 C 0.63361 0.22102 0.53154 0.0
C881 C 0.59645 0.19971 0.53083 0.0
H882 H 0.71109 0.25359 0.50775 0.0
H883 H 0.7922 0.24969 0.52524 0.0
H884 H 0.82526 0.31463 0.52619 0.0
H885 H 0.77643 0.34229 0.49502 0.0
H886 H 0.74422 0.35651 0.49499 0.0
H887 H 0.73019 0.31027 0.49359 0.0
H888 H 0.6882 0.29353 0.50938 0.0
H889 H 0.70038 0.33933 0.50898 0.0
H890 H 0.70691 0.32149 0.52017 0.0
H891 H 0.84394 0.37756 0.52792 0.0
H892 H 0.84641 0.43466 0.53049 0.0
H893 H 0.75248 0.39897 0.51254 0.0
C894 C 0.73656 0.26662 0.51139 0.0
C895 C 0.74941 0.24674 0.51631 0.0
C896 C 0.78218 0.2645 0.52133 0.0
C897 C 0.80119 0.3014 0.52188 0.0
C898 C 0.78728 0.32031 0.51731 0.0
C899 C 0.7559 0.3037 0.51206 0.0
C900 C 0.74537 0.33035 0.50868 0.0
C901 C 0.74929 0.33514 0.4974 0.0
C902 C 0.70792 0.32038 0.512 0.0
C903 C 0.77303 0.36324 0.51397 0.0
C904 C 0.79798 0.35725 0.51845 0.0
C905 C 0.82493 0.38277 0.5243 0.0
C906 C 0.826 0.41499 0.52577 0.0
C907 C 0.79954 0.42087 0.52174 0.0
C908 C 0.77302 0.39493 0.51566 0.0
H909 H 0.80927 0.41244 0.6633 0.0
H910 H 0.90028 0.43693 0.64525 0.0
H911 H 0.87944 0.37365 0.64325 0.0
H912 H 0.7981 0.31988 0.67338 0.0
H913 H 0.75089 0.30157 0.67322 0.0
H914 H 0.77947 0.34711 0.6767 0.0
H915 H 0.75069 0.3662 0.66326 0.0
H916 H 0.72243 0.32114 0.65969 0.0
H917 H 0.75061 0.35278 0.65054 0.0
H918 H 0.84003 0.31175 0.63828 0.0
H919 H 0.78834 0.25556 0.63271 0.0
H920 H 0.72235 0.26957 0.65394 0.0
C921 C 0.82612 0.4043 0.65966 0.0
C922 C 0.85666 0.4294 0.6546 0.0
C923 C 0.87724 0.41804 0.64938 0.0
C924 C 0.86547 0.38203 0.64816 0.0
C925 C 0.83343 0.35757 0.65243 0.0
C926 C 0.81469 0.36812 0.65846 0.0
C927 C 0.77847 0.33695 0.66082 0.0
C928 C 0.77664 0.32571 0.67167 0.0
C929 C 0.7488 0.34478 0.65842 0.0
C930 C 0.77773 0.30928 0.65393 0.0
C931 C 0.81027 0.32101 0.64952 0.0
C932 C 0.8148 0.30183 0.64194 0.0
C933 C 0.78532 0.27024 0.63873 0.0
C934 C 0.75175 0.25879 0.64291 0.0
C935 C 0.74807 0.27803 0.65073 0.0
H936 H 0.58784 0.44892 0.64914 0.0
H937 H 0.54505 0.35126 0.66572 0.0
H938 H 0.60392 0.35658 0.66606 0.0
H939 H 0.64254 0.44034 0.63431 0.0
H940 H 0.68018 0.48441 0.63482 0.0
H941 H 0.63675 0.4773 0.63736 0.0
H942 H 0.65692 0.50714 0.65451 0.0
H943 H 0.70096 0.5156 0.65192 0.0
H944 H 0.67847 0.4921 0.66298 0.0
H945 H 0.65999 0.36257 0.65967 0.0
H946 H 0.71782 0.37961 0.6524 0.0
H947 H 0.7304 0.48006 0.64332 0.0
C948 C 0.59142 0.42982 0.65333 0.0
C949 C 0.56199 0.39933 0.65726 0.0
C950 C 0.5673 0.37458 0.6626 0.0
C951 C 0.6006 0.37735 0.6628 0.0
C952 C 0.6286 0.40626 0.65816 0.0
C953 C 0.62496 0.43322 0.65406 0.0
C954 C 0.65932 0.46092 0.64935 0.0
C955 C 0.65437 0.466 0.63831 0.0
C956 C 0.67484 0.49602 0.65503 0.0
C957 C 0.68178 0.44378 0.65075 0.0
C958 C 0.66326 0.41203 0.65573 0.0
C959 C 0.67573 0.38841 0.65636 0.0
C960 C 0.70866 0.39821 0.6522 0.0
C961 C 0.72949 0.43175 0.64782 0.0
C962 C 0.71568 0.45479 0.64703 0.0
H963 H 0.58609 0.17027 0.6342 0.0
H964 H 0.617 0.18389 0.6651 0.0
H965 H 0.58711 0.21905 0.66756 0.0
H966 H 0.61064 0.25787 0.63071 0.0
H967 H 0.57657 0.24922 0.62179 0.0
H968 H 0.5928 0.21889 0.62305 0.0
H969 H 0.52923 0.16753 0.62632 0.0
H970 H 0.51261 0.19764 0.62501 0.0
H971 H 0.50336 0.17152 0.63609 0.0
H972 H 0.55667 0.25614 0.66607 0.0
H973 H 0.53588 0.29675 0.66067 0.0
H974 H 0.53596 0.26658 0.63018 0.0
C975 C 0.58667 0.18046 0.64153 0.0
C976 C 0.60433 0.17468 0.64945 0.0
C977 C 0.60353 0.18787 0.65894 0.0
C978 C 0.58664 0.20785 0.66038 0.0
C979 C 0.57109 0.21452 0.65222 0.0
C980 C 0.57137 0.20138 0.64296 0.0
C981 C 0.55765 0.216 0.63507 0.0
C982 C 0.58612 0.23673 0.6272 0.0
C983 C 0.52369 0.1864 0.63035 0.0
C984 C 0.55011 0.24019 0.64127 0.0
C985 C 0.55686 0.23812 0.65119 0.0
C986 C 0.55155 0.25801 0.65832 0.0
C987 C 0.53988 0.28109 0.65519 0.0
C988 C 0.53492 0.28499 0.64502 0.0
C989 C 0.53971 0.26402 0.638 0.0
H990 H 0.73814 0.25931 0.13011 0.0
H991 H 0.76671 0.31202 0.15855 0.0
H992 H 0.70714 0.27055 0.16501 0.0
H993 H 0.64951 0.23911 0.12927 0.0
H994 H 0.63317 0.19598 0.12387 0.0
H995 H 0.67812 0.23 0.12175 0.0
H996 H 0.6994 0.18816 0.12855 0.0
H997 H 0.65432 0.15441 0.13088 0.0
H998 H 0.6862 0.16973 0.14079 0.0
H999 H 0.6417 0.22789 0.16752 0.0
H1000 H 0.57753 0.18542 0.16607 0.0
H1001 H 0.59547 0.15351 0.13725 0.0
C1002 C 0.7317 0.26187 0.1377 0.0
C1003 C 0.75634 0.28923 0.14378 0.0
C1004 C 0.74764 0.29162 0.15373 0.0
C1005 C 0.71404 0.26803 0.15749 0.0
C1006 C 0.69 0.24137 0.1513 0.0
C1007 C 0.69869 0.2377 0.14168 0.0
C1008 C 0.6682 0.20664 0.1366 0.0
C1009 C 0.65657 0.21867 0.12733 0.0
C1010 C 0.6776 0.17804 0.13406 0.0
C1011 C 0.64061 0.19438 0.1447 0.0
C1012 C 0.6535 0.21479 0.15311 0.0
C1013 C 0.63147 0.21109 0.16107 0.0
C1014 C 0.5951 0.18677 0.16022 0.0
C1015 C 0.58142 0.16637 0.15152 0.0
C1016 C 0.60497 0.16902 0.14395 0.0
H1017 H 0.79955 0.37004 0.15317 0.0
H1018 H 0.89801 0.46837 0.15015 0.0
H1019 H 0.86493 0.50036 0.14801 0.0
H1020 H 0.75942 0.38431 0.1339 0.0
H1021 H 0.71527 0.36465 0.13886 0.0
H1022 H 0.7444 0.34964 0.14304 0.0
H1023 H 0.73881 0.36306 0.16123 0.0
H1024 H 0.70711 0.37551 0.15742 0.0
H1025 H 0.74507 0.40577 0.16458 0.0
H1026 H 0.82044 0.52025 0.14455 0.0
H1027 H 0.76915 0.52611 0.13952 0.0
H1028 H 0.70148 0.41266 0.1418 0.0
C1029 C 0.81399 0.39844 0.15253 0.0
C1030 C 0.85115 0.41704 0.15222 0.0
C1031 C 0.86948 0.45403 0.15079 0.0
C1032 C 0.85089 0.47226 0.14949 0.0
C1033 C 0.81402 0.45283 0.14939 0.0
C1034 C 0.79578 0.41664 0.15085 0.0
C1035 C 0.75659 0.40108 0.14902 0.0
C1036 C 0.74321 0.37334 0.1407 0.0
C1037 C 0.73567 0.38546 0.15864 0.0
C1038 C 0.7558 0.4339 0.14592 0.0
C1039 C 0.7889 0.46367 0.1465 0.0
C1040 C 0.79441 0.49709 0.1441 0.0
C1041 C 0.76518 0.50012 0.14119 0.0
C1042 C 0.73117 0.46975 0.14037 0.0
C1043 C 0.72684 0.43629 0.14257 0.0
H1044 H 0.58981 0.27804 0.14905 0.0
H1045 H 0.48436 0.2427 0.13794 0.0
H1046 H 0.49036 0.30043 0.14237 0.0
H1047 H 0.58157 0.33125 0.17015 0.0
H1048 H 0.62768 0.36426 0.16932 0.0
H1049 H 0.61344 0.31879 0.16642 0.0
H1050 H 0.64262 0.33722 0.14904 0.0
H1051 H 0.6572 0.38216 0.15241 0.0
H1052 H 0.63192 0.36407 0.14121 0.0
H1053 H 0.51188 0.3642 0.14516 0.0
H1054 H 0.54707 0.42919 0.14616 0.0
H1055 H 0.63669 0.42252 0.15695 0.0
C1056 C 0.56797 0.28254 0.14766 0.0
C1057 C 0.53687 0.25648 0.14304 0.0
C1058 C 0.50845 0.26266 0.14144 0.0
C1059 C 0.51154 0.29517 0.144 0.0
C1060 C 0.5427 0.32058 0.1485 0.0
C1061 C 0.57017 0.3144 0.15048 0.0
C1062 C 0.60131 0.34663 0.15498 0.0
C1063 C 0.60628 0.33981 0.16586 0.0
C1064 C 0.63523 0.35813 0.14901 0.0
C1065 C 0.5887 0.37313 0.15421 0.0
C1066 C 0.55429 0.35718 0.15075 0.0
C1067 C 0.53829 0.37678 0.14823 0.0
C1068 C 0.55837 0.41366 0.14887 0.0
C1069 C 0.59397 0.43051 0.15202 0.0
C1070 C 0.60893 0.41002 0.15506 0.0
H1071 H 0.57731 0.39562 0.03196 0.0
H1072 H 0.65139 0.41712 0.00807 0.0
H1073 H 0.61182 0.35826 0.00095 0.0
H1074 H 0.55277 0.30811 0.03556 0.0
H1075 H 0.50685 0.29295 0.03803 0.0
H1076 H 0.53956 0.33809 0.04049 0.0
H1077 H 0.50538 0.35891 0.02923 0.0
H1078 H 0.47282 0.3136 0.02663 0.0
H1079 H 0.49579 0.34365 0.0166 0.0
H1080 H 0.56865 0.29353 0.99806 0.0
H1081 H 0.52569 0.22955 0.99978 0.0
H1082 H 0.47602 0.25258 0.02417 0.0
C1083 C 0.58469 0.38805 0.02512 0.0
C1084 C 0.61747 0.41045 0.02063 0.0
C1085 C 0.62659 0.39997 0.01171 0.0
C1086 C 0.60409 0.36672 0.00755 0.0
C1087 C 0.57207 0.34473 0.01224 0.0
C1088 C 0.56214 0.35519 0.02076 0.0
C1089 C 0.52749 0.32583 0.02472 0.0
C1090 C 0.53196 0.31564 0.03532 0.0
C1091 C 0.49866 0.33612 0.02426 0.0
C1092 C 0.52032 0.2968 0.01737 0.0
C1093 C 0.54615 0.30813 0.01018 0.0
C1094 C 0.54761 0.28454 0.00346 0.0
C1095 C 0.52295 0.24826 0.00441 0.0
C1096 C 0.49738 0.23623 0.01203 0.0
C1097 C 0.49499 0.26113 0.01817 0.0
H1098 H 0.75758 0.30051 0.01011 0.0
H1099 H 0.764 0.20967 0.01988 0.0
H1100 H 0.69898 0.17395 0.02031 0.0
H1101 H 0.69788 0.29314 0.02546 0.0
H1102 H 0.6715 0.30472 0.01772 0.0
H1103 H 0.71661 0.3196 0.01448 0.0
H1104 H 0.69984 0.29224 0.99734 0.0
H1105 H 0.65416 0.27753 1.00008 0.0
H1106 H 0.66699 0.24621 0.99607 0.0
H1107 H 0.6348 0.1517 0.02293 0.0
H1108 H 0.57667 0.14482 0.0273 0.0
H1109 H 0.61218 0.25144 0.0171 0.0
C1110 C 0.74508 0.27249 0.01167 0.0
C1111 C 0.76555 0.25737 0.01462 0.0
C1112 C 0.74859 0.22126 0.01728 0.0
C1113 C 0.71166 0.20082 0.01758 0.0
C1114 C 0.69201 0.2169 0.01519 0.0
C1115 C 0.70805 0.25176 0.01208 0.0
C1116 C 0.68126 0.26412 0.01142 0.0
C1117 C 0.69241 0.29733 0.01769 0.0
C1118 C 0.6752 0.27038 0.00058 0.0
C1119 C 0.64889 0.23232 0.01562 0.0
C1120 C 0.65513 0.20474 0.01731 0.0
C1121 C 0.62949 0.17297 0.0215 0.0
C1122 C 0.59669 0.16936 0.02402 0.0
C1123 C 0.59031 0.19779 0.02267 0.0
C1124 C 0.61665 0.22949 0.01833 0.0
H1125 H 0.74785 0.3617 0.02536 0.0
H1126 H 0.86001 0.43095 0.0297 0.0
H1127 H 0.854 0.48215 0.02457 0.0
H1128 H 0.74585 0.40857 0.00232 0.0
H1129 H 0.70192 0.40054 0.00481 0.0
H1130 H 0.71438 0.36893 0.00866 0.0
H1131 H 0.69862 0.37269 0.02707 0.0
H1132 H 0.68296 0.40109 0.0228 0.0
H1133 H 0.71525 0.41572 0.03261 0.0
H1134 H 0.83339 0.526 0.02094 0.0
H1135 H 0.80017 0.55786 0.01891 0.0
H1136 H 0.70441 0.45879 0.01384 0.0
C1137 C 0.77115 0.38745 0.02501 0.0
C1138 C 0.80423 0.39232 0.02788 0.0
C1139 C 0.83428 0.42668 0.02756 0.0
C1140 C 0.83119 0.45581 0.02456 0.0
C1141 C 0.79819 0.44981 0.02148 0.0
C1142 C 0.76886 0.41629 0.02147 0.0
C1143 C 0.7364 0.41669 0.0178 0.0
C1144 C 0.72394 0.39754 0.00781 0.0
C1145 C 0.70662 0.40069 0.02555 0.0
C1146 C 0.75135 0.45603 0.01651 0.0
C1147 C 0.78716 0.47476 0.01852 0.0
C1148 C 0.80568 0.51162 0.01897 0.0
C1149 C 0.78678 0.52958 0.01769 0.0
C1150 C 0.75009 0.51067 0.01577 0.0
C1151 C 0.73265 0.47369 0.01481 0.0
H1152 H 0.26856 0.75154 0.87009 0.0
H1153 H 0.24227 0.68877 0.84335 0.0
H1154 H 0.30119 0.73007 0.83641 0.0
H1155 H 0.31876 0.83808 0.8574 0.0
H1156 H 0.35041 0.85692 0.86732 0.0
H1157 H 0.30558 0.82319 0.86994 0.0
H1158 H 0.32776 0.78422 0.87838 0.0
H1159 H 0.37224 0.81883 0.87609 0.0
H1160 H 0.35777 0.77468 0.87172 0.0
H1161 H 0.36616 0.77305 0.83369 0.0
H1162 H 0.43015 0.81565 0.83516 0.0
H1163 H 0.4103 0.85732 0.86201 0.0
C1164 C 0.27525 0.74692 0.86273 0.0
C1165 C 0.25154 0.71691 0.85729 0.0
C1166 C 0.26059 0.71149 0.84766 0.0
C1167 C 0.29382 0.7349 0.84364 0.0
C1168 C 0.31702 0.76422 0.84922 0.0
C1169 C 0.30786 0.77067 0.85848 0.0
C1170 C 0.33781 0.80356 0.86306 0.0
C1171 C 0.32751 0.83213 0.86451 0.0
C1172 C 0.34959 0.79477 0.87288 0.0
C1173 C 0.36564 0.81394 0.85509 0.0
C1174 C 0.35333 0.7908 0.84719 0.0
C1175 C 0.37589 0.79203 0.83969 0.0
C1176 C 0.41219 0.81649 0.84053 0.0
C1177 C 0.4253 0.83954 0.84876 0.0
C1178 C 0.40122 0.83965 0.85572 0.0
H1179 H 0.20666 0.63072 0.84893 0.0
H1180 H 0.11124 0.5353 0.85736 0.0
H1181 H 0.14555 0.50476 0.85968 0.0
H1182 H 0.25483 0.58881 0.83715 0.0
H1183 H 0.29639 0.62167 0.84237 0.0
H1184 H 0.26334 0.63317 0.83921 0.0
H1185 H 0.26634 0.65538 0.85707 0.0
H1186 H 0.29825 0.64283 0.86046 0.0
H1187 H 0.25752 0.62572 0.86731 0.0
H1188 H 0.1908 0.48691 0.86282 0.0
H1189 H 0.24382 0.48239 0.86643 0.0
H1190 H 0.31081 0.59168 0.85758 0.0
C1191 C 0.19294 0.60295 0.85077 0.0
C1192 C 0.15626 0.58478 0.85259 0.0
C1193 C 0.13915 0.54905 0.85558 0.0
C1194 C 0.15849 0.53169 0.85699 0.0
C1195 C 0.19497 0.55081 0.85556 0.0
C1196 C 0.21209 0.58566 0.85248 0.0
C1197 C 0.2519 0.60152 0.8527 0.0
C1198 C 0.26753 0.61189 0.84223 0.0
C1199 C 0.2695 0.63321 0.85982 0.0
C1200 C 0.25447 0.57042 0.85661 0.0
C1201 C 0.22133 0.54128 0.85805 0.0
C1202 C 0.21687 0.50949 0.86169 0.0
C1203 C 0.24709 0.50725 0.86377 0.0
C1204 C 0.28128 0.53684 0.86242 0.0
C1205 C 0.28495 0.56887 0.85886 0.0
H1206 H 0.44489 0.59295 0.85411 0.0
H1207 H 0.34621 0.55955 0.8387 0.0
H1208 H 0.35721 0.62073 0.83928 0.0
H1209 H 0.43525 0.645 0.87076 0.0
H1210 H 0.48088 0.67942 0.87146 0.0
H1211 H 0.4699 0.63537 0.86798 0.0
H1212 H 0.50513 0.65859 0.85165 0.0
H1213 H 0.51719 0.70298 0.8552 0.0
H1214 H 0.49585 0.68555 0.84348 0.0
H1215 H 0.37205 0.68122 0.84488 0.0
H1216 H 0.39528 0.74036 0.8524 0.0
H1217 H 0.4859 0.73591 0.86358 0.0
C1218 C 0.42655 0.59896 0.8504 0.0
C1219 C 0.39494 0.57168 0.84624 0.0
C1220 C 0.37096 0.58017 0.84171 0.0
C1221 C 0.37683 0.61481 0.84212 0.0
C1222 C 0.40709 0.64062 0.84691 0.0
C1223 C 0.43212 0.63337 0.85072 0.0
C1224 C 0.46062 0.66483 0.85633 0.0
C1225 C 0.4617 0.65558 0.86727 0.0
C1226 C 0.49684 0.67882 0.85136 0.0
C1227 C 0.44732 0.69068 0.85528 0.0
C1228 C 0.41622 0.67605 0.8499 0.0
C1229 C 0.39687 0.6933 0.84886 0.0
C1230 C 0.41 0.72662 0.85325 0.0
C1231 C 0.44233 0.74249 0.85852 0.0
C1232 C 0.46134 0.72441 0.85948 0.0
H1233 H 0.41233 0.59602 0.96511 0.0
H1234 H 0.35068 0.57173 0.99202 0.0
H1235 H 0.39279 0.63076 0.99872 0.0
H1236 H 0.49917 0.64527 0.97757 0.0
H1237 H 0.51835 0.67658 0.96758 0.0
H1238 H 0.48385 0.63197 0.96506 0.0
H1239 H 0.44612 0.65544 0.9566 0.0
H1240 H 0.48114 0.6998 0.95888 0.0
H1241 H 0.43712 0.68584 0.96326 0.0
H1242 H 0.43685 0.69536 0.00129 0.0
H1243 H 0.48108 0.75884 0.99987 0.0
H1244 H 0.52111 0.73726 0.97297 0.0
C1245 C 0.40807 0.6032 0.97244 0.0
C1246 C 0.37811 0.58001 0.978 0.0
C1247 C 0.37328 0.58966 0.98761 0.0
C1248 C 0.39715 0.62296 0.9915 0.0
C1249 C 0.42637 0.64563 0.9858 0.0
C1250 C 0.43231 0.63591 0.97656 0.0
C1251 C 0.46548 0.66531 0.97191 0.0
C1252 C 0.49337 0.6541 0.97045 0.0
C1253 C 0.45693 0.67731 0.96209 0.0
C1254 C 0.47663 0.69344 0.97983 0.0
C1255 C 0.45358 0.68175 0.98775 0.0
C1256 C 0.4557 0.7046 0.99527 0.0
C1257 C 0.48109 0.74062 0.99444 0.0
C1258 C 0.5042 0.7532 0.98621 0.0
C1259 C 0.50326 0.72874 0.97921 0.0
H1260 H 0.26517 0.77827 0.983 0.0
H1261 H 0.22711 0.67323 0.99485 0.0
H1262 H 0.28705 0.68142 0.99334 0.0
H1263 H 0.31636 0.77607 0.96517 0.0
H1264 H 0.35295 0.8206 0.96619 0.0
H1265 H 0.30967 0.81052 0.97018 0.0
H1266 H 0.33323 0.83497 0.98769 0.0
H1267 H 0.37704 0.84649 0.98369 0.0
H1268 H 0.35799 0.81895 0.99443 0.0
H1269 H 0.34583 0.69487 0.9865 0.0
H1270 H 0.40489 0.71895 0.97889 0.0
H1271 H 0.4069 0.81731 0.97267 0.0
C1272 C 0.27 0.75782 0.98578 0.0
C1273 C 0.24177 0.72533 0.98916 0.0
C1274 C 0.24858 0.69862 0.99247 0.0
C1275 C 0.28245 0.70286 0.9915 0.0
C1276 C 0.30921 0.73425 0.98745 0.0
C1277 C 0.30378 0.76191 0.98503 0.0
C1278 C 0.33639 0.79208 0.98029 0.0
C1279 C 0.32833 0.80026 0.96984 0.0
C1280 C 0.3521 0.82508 0.98692 0.0
C1281 C 0.36026 0.77627 0.97989 0.0
C1282 C 0.34399 0.74279 0.984 0.0
C1283 C 0.35928 0.72146 0.98355 0.0
C1284 C 0.39253 0.73514 0.97908 0.0
C1285 C 0.41029 0.76994 0.97521 0.0
C1286 C 0.39394 0.79073 0.97565 0.0
H1287 H 0.25397 0.63833 0.97862 0.0
H1288 H 0.14429 0.57238 0.9701 0.0
H1289 H 0.14808 0.51889 0.97383 0.0
H1290 H 0.28663 0.58551 0.96901 0.0
H1291 H 0.3166 0.59386 0.97913 0.0
H1292 H 0.30411 0.626 0.97601 0.0
H1293 H 0.28355 0.62379 0.99409 0.0
H1294 H 0.29484 0.59056 0.99717 0.0
H1295 H 0.25062 0.58229 0.99932 0.0
H1296 H 0.16601 0.47314 0.97678 0.0
H1297 H 0.19671 0.43885 0.97887 0.0
H1298 H 0.29215 0.53414 0.98734 0.0
C1299 C 0.2308 0.61261 0.97753 0.0
C1300 C 0.19897 0.60932 0.97395 0.0
C1301 C 0.16899 0.57531 0.97277 0.0
C1302 C 0.17084 0.54487 0.97493 0.0
C1303 C 0.20256 0.54901 0.97854 0.0
C1304 C 0.23189 0.58205 0.97994 0.0
C1305 C 0.263 0.57931 0.98374 0.0
C1306 C 0.2944 0.5972 0.97654 0.0
C1307 C 0.2736 0.59491 0.9942 0.0
C1308 C 0.24704 0.53955 0.9839 0.0
C1309 C 0.21207 0.52251 0.98092 0.0
C1310 C 0.19299 0.48605 0.97943 0.0
C1311 C 0.21044 0.46672 0.98071 0.0
C1312 C 0.24623 0.48381 0.98367 0.0
C1313 C 0.26435 0.52041 0.98555 0.0
H1314 H 0.24734 0.48771 0.47219 0.0
H1315 H 0.22976 0.52488 0.5002 0.0
H1316 H 0.29458 0.56349 0.50216 0.0
H1317 H 0.33559 0.49773 0.47678 0.0
H1318 H 0.35027 0.51472 0.46448 0.0
H1319 H 0.30437 0.48321 0.46671 0.0
H1320 H 0.28727 0.52659 0.45894 0.0
H1321 H 0.33287 0.55887 0.45694 0.0
H1322 H 0.30516 0.57041 0.46403 0.0
H1323 H 0.36126 0.60276 0.49998 0.0
H1324 H 0.42137 0.64221 0.49347 0.0
H1325 H 0.3918 0.5867 0.46546 0.0
C1326 C 0.25703 0.50333 0.47888 0.0
C1327 C 0.23347 0.50335 0.48605 0.0
C1328 C 0.24731 0.52408 0.49468 0.0
C1329 C 0.28408 0.5462 0.49581 0.0
C1330 C 0.30635 0.5474 0.48819 0.0
C1331 C 0.29315 0.52653 0.47986 0.0
C1332 C 0.32113 0.53674 0.47194 0.0
C1333 C 0.32826 0.50628 0.46986 0.0
C1334 C 0.31099 0.54888 0.46241 0.0
C1335 C 0.35223 0.56716 0.47701 0.0
C1336 C 0.34357 0.57222 0.48649 0.0
C1337 C 0.36815 0.59899 0.49257 0.0
C1338 C 0.40212 0.62137 0.48879 0.0
C1339 C 0.41065 0.61771 0.47892 0.0
C1340 C 0.38562 0.59004 0.47301 0.0
H1341 H 0.45874 0.70042 0.48874 0.0
H1342 H 0.5574 0.797 0.48387 0.0
H1343 H 0.52517 0.82985 0.48211 0.0
H1344 H 0.41548 0.71109 0.47031 0.0
H1345 H 0.37248 0.69386 0.4759 0.0
H1346 H 0.40153 0.67906 0.48019 0.0
H1347 H 0.40003 0.69799 0.49811 0.0
H1348 H 0.36837 0.71037 0.49417 0.0
H1349 H 0.40792 0.74194 0.50053 0.0
H1350 H 0.48125 0.85 0.47832 0.0
H1351 H 0.43008 0.85557 0.47298 0.0
H1352 H 0.3615 0.74314 0.47713 0.0
C1353 C 0.47352 0.72878 0.48794 0.0
C1354 C 0.51051 0.74653 0.48688 0.0
C1355 C 0.52914 0.78336 0.48515 0.0
C1356 C 0.51098 0.80209 0.48403 0.0
C1357 C 0.47415 0.78335 0.4845 0.0
C1358 C 0.45561 0.74745 0.48647 0.0
C1359 C 0.41624 0.73235 0.48508 0.0
C1360 C 0.40062 0.70238 0.47739 0.0
C1361 C 0.397 0.71997 0.49506 0.0
C1362 C 0.41578 0.76468 0.48132 0.0
C1363 C 0.44913 0.79417 0.48145 0.0
C1364 C 0.455 0.82706 0.47829 0.0
C1365 C 0.42585 0.82988 0.47515 0.0
C1366 C 0.39156 0.79969 0.47479 0.0
C1367 C 0.38696 0.76669 0.47765 0.0
H1368 H 0.30342 0.76093 0.49296 0.0
H1369 H 0.21296 0.77187 0.48593 0.0
H1370 H 0.1752 0.70722 0.48535 0.0
H1371 H 0.29398 0.70475 0.47757 0.0
H1372 H 0.30372 0.67493 0.4843 0.0
H1373 H 0.32024 0.71909 0.48876 0.0
H1374 H 0.29192 0.69806 0.50561 0.0
H1375 H 0.27577 0.65309 0.50168 0.0
H1376 H 0.24549 0.66612 0.50646 0.0
H1377 H 0.15179 0.64468 0.48077 0.0
H1378 H 0.14343 0.58823 0.47413 0.0
H1379 H 0.24979 0.61766 0.48314 0.0
C1380 C 0.27513 0.74944 0.49213 0.0
C1381 C 0.26076 0.77112 0.48978 0.0
C1382 C 0.22409 0.75555 0.48806 0.0
C1383 C 0.20246 0.71879 0.48766 0.0
C1384 C 0.21787 0.69792 0.48915 0.0
C1385 C 0.25314 0.71252 0.49174 0.0
C1386 C 0.26425 0.6847 0.49138 0.0
C1387 C 0.29747 0.69653 0.48507 0.0
C1388 C 0.26966 0.67491 0.50191 0.0
C1389 C 0.23191 0.65435 0.48667 0.0
C1390 C 0.2047 0.66171 0.486 0.0
C1391 C 0.17269 0.63837 0.48146 0.0
C1392 C 0.16831 0.60663 0.47759 0.0
C1393 C 0.19628 0.59918 0.47795 0.0
C1394 C 0.2283 0.6232 0.48262 0.0
H1395 H 0.3049 0.73281 0.35086 0.0
H1396 H 0.25481 0.75563 0.37513 0.0
H1397 H 0.20234 0.69576 0.37358 0.0
H1398 H 0.22074 0.67802 0.33679 0.0
H1399 H 0.23494 0.64834 0.33227 0.0
H1400 H 0.26699 0.69408 0.33457 0.0
H1401 H 0.30227 0.67691 0.34708 0.0
H1402 H 0.27235 0.63284 0.34312 0.0
H1403 H 0.27735 0.64338 0.35619 0.0
H1404 H 0.15897 0.63316 0.3705 0.0
H1405 H 0.1283 0.56939 0.36709 0.0
H1406 H 0.20556 0.58597 0.34448 0.0
C1407 C 0.28275 0.72499 0.3558 0.0
C1408 C 0.28364 0.7481 0.3632 0.0
C1409 C 0.25432 0.73777 0.36949 0.0
C1410 C 0.22446 0.7041 0.36859 0.0
C1411 C 0.22432 0.68165 0.36122 0.0
C1412 C 0.2526 0.69162 0.35491 0.0
C1413 C 0.24633 0.66184 0.34794 0.0
C1414 C 0.24199 0.67114 0.33726 0.0
C1415 C 0.2763 0.65317 0.34867 0.0
C1416 C 0.21154 0.63241 0.35197 0.0
C1417 C 0.1988 0.64504 0.35936 0.0
C1418 C 0.1683 0.623 0.36464 0.0
C1419 C 0.15106 0.58684 0.36264 0.0
C1420 C 0.16447 0.5729 0.35549 0.0
C1421 C 0.19439 0.59608 0.34983 0.0
H1422 H 0.27148 0.49997 0.36391 0.0
H1423 H 0.25638 0.57832 0.34874 0.0
H1424 H 0.31376 0.60063 0.34014 0.0
H1425 H 0.36011 0.55505 0.36897 0.0
H1426 H 0.37287 0.52197 0.36741 0.0
H1427 H 0.32837 0.50898 0.37089 0.0
H1428 H 0.30529 0.46681 0.35576 0.0
H1429 H 0.35003 0.48042 0.35214 0.0
H1430 H 0.32061 0.48418 0.34352 0.0
H1431 H 0.3748 0.61829 0.33473 0.0
H1432 H 0.438 0.63639 0.33507 0.0
H1433 H 0.41417 0.54597 0.3535 0.0
C1434 C 0.28014 0.52132 0.35862 0.0
C1435 C 0.26013 0.53798 0.35696 0.0
C1436 C 0.27214 0.56609 0.35014 0.0
C1437 C 0.30422 0.57834 0.34513 0.0
C1438 C 0.32384 0.56181 0.34698 0.0
C1439 C 0.31242 0.53406 0.35362 0.0
C1440 C 0.34061 0.52413 0.35528 0.0
C1441 C 0.35112 0.52779 0.36629 0.0
C1442 C 0.3284 0.48666 0.35145 0.0
C1443 C 0.3702 0.55173 0.34894 0.0
C1444 C 0.3596 0.57244 0.34395 0.0
C1445 C 0.38329 0.60184 0.33843 0.0
C1446 C 0.41919 0.61181 0.33859 0.0
C1447 C 0.43094 0.59256 0.34432 0.0
C1448 C 0.40579 0.56098 0.34901 0.0
H1449 H 0.44649 0.84845 0.35675 0.0
H1450 H 0.35062 0.78845 0.33962 0.0
H1451 H 0.35739 0.73581 0.34076 0.0
H1452 H 0.49368 0.80352 0.3459 0.0
H1453 H 0.51485 0.80584 0.35754 0.0
H1454 H 0.50462 0.8397 0.35427 0.0
H1455 H 0.46987 0.82805 0.37067 0.0
H1456 H 0.47894 0.7934 0.37388 0.0
H1457 H 0.43393 0.78424 0.3733 0.0
H1458 H 0.36725 0.68729 0.34696 0.0
H1459 H 0.38887 0.64902 0.35367 0.0
H1460 H 0.48238 0.74122 0.36498 0.0
C1461 C 0.42775 0.82458 0.35291 0.0
C1462 C 0.39812 0.82249 0.34807 0.0
C1463 C 0.3738 0.79077 0.34324 0.0
C1464 C 0.37718 0.76059 0.34396 0.0
C1465 C 0.4055 0.76292 0.34931 0.0
C1466 C 0.43121 0.79443 0.35335 0.0
C1467 C 0.45881 0.7896 0.35881 0.0
C1468 C 0.49514 0.81092 0.35383 0.0
C1469 C 0.46046 0.7994 0.36982 0.0
C1470 C 0.4439 0.75022 0.35751 0.0
C1471 C 0.41276 0.73526 0.35216 0.0
C1472 C 0.39219 0.69884 0.35086 0.0
C1473 C 0.40451 0.6773 0.35477 0.0
C1474 C 0.43751 0.69228 0.35968 0.0
C1475 C 0.4573 0.7292 0.36113 0.0
H1476 H 0.1886 0.14475 0.26322 0.0
H1477 H 0.21202 0.24851 0.27338 0.0
H1478 H 0.22244 0.26966 0.256 0.0
H1479 H 0.25302 0.17496 0.24298 0.0
H1480 H 0.2238 0.13859 0.23514 0.0
H1481 H 0.22172 0.13309 0.24838 0.0
H1482 H 0.15491 0.11299 0.24817 0.0
H1483 H 0.15672 0.11787 0.23495 0.0
H1484 H 0.1406 0.14096 0.24244 0.0
H1485 H 0.22415 0.27703 0.23724 0.0
H1486 H 0.21348 0.26873 0.21914 0.0
H1487 H 0.19054 0.16068 0.2218 0.0
C1488 C 0.19617 0.17206 0.26186 0.0
C1489 C 0.19935 0.19494 0.26968 0.0
C1490 C 0.20941 0.23048 0.26751 0.0
C1491 C 0.21559 0.24275 0.25768 0.0
C1492 C 0.21212 0.21929 0.25015 0.0
C1493 C 0.20266 0.18468 0.25219 0.0
C1494 C 0.19819 0.1638 0.24286 0.0
C1495 C 0.22584 0.15192 0.24231 0.0
C1496 C 0.16037 0.13206 0.24206 0.0
C1497 C 0.20521 0.19159 0.23517 0.0
C1498 C 0.21384 0.22369 0.23948 0.0
C1499 C 0.21829 0.25232 0.2338 0.0
C1500 C 0.21251 0.24754 0.22354 0.0
C1501 C 0.20244 0.21446 0.21915 0.0
C1502 C 0.19964 0.18657 0.22499 0.0
H1503 H 0.82743 0.0437 0.22732 0.0
H1504 H 0.7289 0.94545 0.22428 0.0
H1505 H 0.71884 0.94437 0.24231 0.0
H1506 H 0.85598 0.0199 0.24652 0.0
H1507 H 0.87745 0.06131 0.25311 0.0
H1508 H 0.87181 0.06105 0.23996 0.0
H1509 H 0.83837 0.09572 0.24176 0.0
H1510 H 0.84487 0.09722 0.25496 0.0
H1511 H 0.80098 0.07955 0.24998 0.0
H1512 H 0.72652 0.9473 0.26099 0.0
H1513 H 0.74978 0.9562 0.27817 0.0
H1514 H 0.8443 0.05127 0.26862 0.0
C1515 C 0.80261 0.02343 0.2304 0.0
C1516 C 0.77824 0.99545 0.22444 0.0
C1517 C 0.7471 0.96785 0.22873 0.0
C1518 C 0.74138 0.96688 0.23898 0.0
C1519 C 0.76711 0.99377 0.24481 0.0
C1520 C 0.79682 0.02198 0.24063 0.0
C1521 C 0.82315 0.04448 0.24848 0.0
C1522 C 0.85918 0.04677 0.24692 0.0
C1523 C 0.82705 0.08143 0.24881 0.0
C1524 C 0.80475 0.02342 0.25763 0.0
C1525 C 0.77211 0.99471 0.25548 0.0
C1526 C 0.75175 0.97017 0.26278 0.0
C1527 C 0.76518 0.97525 0.2725 0.0
C1528 C 0.79896 0.00419 0.27473 0.0
C1529 C 0.81847 0.02866 0.26718 0.0
H1530 H 0.94754 0.8093 0.27117 0.0
H1531 H 0.02306 0.77961 0.28158 0.0
H1532 H 0.03199 0.76661 0.26431 0.0
H1533 H 0.90971 0.74413 0.25096 0.0
H1534 H 0.90527 0.77485 0.24304 0.0
H1535 H 0.90179 0.77739 0.25627 0.0
H1536 H 0.95165 0.84308 0.25603 0.0
H1537 H 0.95487 0.84082 0.24283 0.0
H1538 H 0.99352 0.85468 0.25042 0.0
H1539 H 0.03653 0.7625 0.24559 0.0
H1540 H 0.04011 0.77293 0.22746 0.0
H1541 H 0.96192 0.80559 0.22981 0.0
C1542 C 0.96571 0.79967 0.2699 0.0
C1543 C 0.9846 0.79549 0.27777 0.0
C1544 C 0.00821 0.78296 0.27569 0.0
C1545 C 0.01326 0.77528 0.26591 0.0
C1546 C 0.9942 0.77989 0.25833 0.0
C1547 C 0.97093 0.79186 0.26027 0.0
C1548 C 0.9558 0.79765 0.25087 0.0
C1549 C 0.91577 0.77197 0.25025 0.0
C1550 C 0.96451 0.83635 0.24999 0.0
C1551 C 0.97539 0.78867 0.24326 0.0
C1552 C 0.99677 0.77758 0.24767 0.0
C1553 C 0.01933 0.77042 0.24207 0.0
C1554 C 0.02101 0.77607 0.23179 0.0
C1555 C 0.00053 0.78906 0.22732 0.0
C1556 C 0.97687 0.7945 0.23308 0.0
H1557 H 0.841 0.86403 0.73427 0.0
H1558 H 0.76819 0.75509 0.72615 0.0
H1559 H 0.75461 0.74014 0.74397 0.0
H1560 H 0.87606 0.84658 0.75552 0.0
H1561 H 0.88025 0.88434 0.76212 0.0
H1562 H 0.88237 0.88502 0.74884 0.0
H1563 H 0.83141 0.89924 0.74824 0.0
H1564 H 0.82855 0.89767 0.76155 0.0
H1565 H 0.78999 0.86992 0.75421 0.0
H1566 H 0.75122 0.73804 0.76323 0.0
H1567 H 0.76362 0.74775 0.78127 0.0
H1568 H 0.83691 0.85846 0.77575 0.0
C1569 C 0.82206 0.83691 0.73614 0.0
C1570 C 0.80559 0.81075 0.72876 0.0
C1571 C 0.78126 0.7756 0.73166 0.0
C1572 C 0.77316 0.76698 0.74176 0.0
C1573 C 0.78943 0.79387 0.7488 0.0
C1574 C 0.81359 0.82806 0.74604 0.0
C1575 C 0.82894 0.85226 0.75484 0.0
C1576 C 0.86927 0.86794 0.75536 0.0
C1577 C 0.81912 0.88149 0.7547 0.0
C1578 C 0.81026 0.82637 0.76311 0.0
C1579 C 0.78718 0.79283 0.75958 0.0
C1580 C 0.76886 0.76432 0.76603 0.0
C1581 C 0.77566 0.77009 0.77627 0.0
C1582 C 0.80071 0.80398 0.77984 0.0
C1583 C 0.81706 0.83248 0.7732 0.0
H1584 H 0.18705 0.04439 0.7686 0.0
H1585 H 0.23771 0.98493 0.77747 0.0
H1586 H 0.24825 0.97774 0.7598 0.0
H1587 H 0.14092 0.99226 0.74867 0.0
H1588 H 0.14581 0.02851 0.74115 0.0
H1589 H 0.14646 0.03199 0.7544 0.0
H1590 H 0.20743 0.08949 0.75344 0.0
H1591 H 0.20712 0.08586 0.74015 0.0
H1592 H 0.24358 0.08894 0.74719 0.0
H1593 H 0.24909 0.97385 0.74084 0.0
H1594 H 0.23478 0.96856 0.72291 0.0
H1595 H 0.18246 0.02941 0.72713 0.0
C1596 C 0.20075 0.03012 0.76691 0.0
C1597 C 0.21161 0.01527 0.77447 0.0
C1598 C 0.22922 0.99665 0.77183 0.0
C1599 C 0.2355 0.99264 0.76181 0.0
C1600 C 0.22427 0.00766 0.75456 0.0
C1601 C 0.20716 0.02594 0.75705 0.0
C1602 C 0.19506 0.03729 0.74801 0.0
C1603 C 0.15468 0.02155 0.74806 0.0
C1604 C 0.21446 0.0778 0.74715 0.0
C1605 C 0.20662 0.02128 0.73998 0.0
C1606 C 0.2243 0.00507 0.74383 0.0
C1607 C 0.23577 0.98693 0.73776 0.0
C1608 C 0.22784 0.98428 0.7276 0.0
C1609 C 0.2082 0.99922 0.72371 0.0
C1610 C 0.19825 0.01855 0.72994 0.0
H1611 H 0.9643 0.14349 0.72725 0.0
H1612 H 0.02997 0.25619 0.72297 0.0
H1613 H 0.03009 0.26554 0.74108 0.0
H1614 H 0.91334 0.14829 0.74952 0.0
H1615 H 0.91264 0.11018 0.75488 0.0
H1616 H 0.91163 0.1142 0.74163 0.0
H1617 H 0.96637 0.10622 0.74027 0.0
H1618 H 0.96848 0.1035 0.75349 0.0
H1619 H 0.00634 0.13634 0.74676 0.0
H1620 H 0.03178 0.26045 0.76005 0.0
H1621 H 0.02826 0.24203 0.77761 0.0
H1622 H 0.96217 0.13259 0.76868 0.0
C1623 C 0.97695 0.17024 0.73011 0.0
C1624 C 0.99628 0.1992 0.72378 0.0
C1625 C 0.014 0.23383 0.72773 0.0
C1626 C 0.01454 0.23928 0.73801 0.0
C1627 C 0.99683 0.20981 0.74415 0.0
C1628 C 0.97751 0.17602 0.74028 0.0
C1629 C 0.96345 0.14837 0.74832 0.0
C1630 C 0.92286 0.12913 0.74861 0.0
C1631 C 0.977 0.1221 0.74713 0.0
C1632 C 0.97928 0.17156 0.7573 0.0
C1633 C 0.99814 0.20695 0.75486 0.0
C1634 C 0.01648 0.23281 0.76204 0.0
C1635 C 0.01466 0.22212 0.77198 0.0
C1636 C 0.99493 0.18588 0.77458 0.0
C1637 C 0.97739 0.16057 0.76705 0.0
H1638 H 0.87898 0.56101 0.56411 0.0
H1639 H 0.80601 0.45103 0.557 0.0
H1640 H 0.7938 0.43736 0.57461 0.0
H1641 H 0.91268 0.53615 0.58756 0.0
H1642 H 0.91931 0.57507 0.59404 0.0
H1643 H 0.92509 0.57627 0.58081 0.0
H1644 H 0.88013 0.59798 0.57895 0.0
H1645 H 0.87305 0.59542 0.59213 0.0
H1646 H 0.83615 0.57156 0.58388 0.0
H1647 H 0.77704 0.43868 0.59149 0.0
H1648 H 0.77673 0.44506 0.60944 0.0
H1649 H 0.86915 0.55008 0.6075 0.0
C1650 C 0.86196 0.53381 0.56634 0.0
C1651 C 0.84296 0.50705 0.55922 0.0
C1652 C 0.82056 0.47182 0.56235 0.0
C1653 C 0.81307 0.46388 0.57232 0.0
C1654 C 0.82951 0.49117 0.57911 0.0
C1655 C 0.85527 0.52485 0.57645 0.0
C1656 C 0.8699 0.54805 0.58564 0.0
C1657 C 0.90907 0.55956 0.5871 0.0
C1658 C 0.86447 0.58016 0.58511 0.0
C1659 C 0.84692 0.5223 0.59369 0.0
C1660 C 0.82307 0.49023 0.58953 0.0
C1661 C 0.7966 0.46298 0.59497 0.0
C1662 C 0.79643 0.46711 0.60515 0.0
C1663 C 0.82352 0.49755 0.60989 0.0
C1664 C 0.84825 0.52642 0.60408 0.0
H1665 H 0.52232 0.38074 0.5625 0.0
H1666 H 0.41073 0.31247 0.55696 0.0
H1667 H 0.39855 0.31171 0.57492 0.0
H1668 H 0.5282 0.33964 0.58253 0.0
H1669 H 0.55925 0.37814 0.58939 0.0
H1670 H 0.55826 0.37985 0.57613 0.0
H1671 H 0.54806 0.43334 0.57687 0.0
H1672 H 0.55011 0.4326 0.59019 0.0
H1673 H 0.51224 0.43046 0.5842 0.0
H1674 H 0.40099 0.31007 0.59401 0.0
H1675 H 0.41708 0.31326 0.61178 0.0
H1676 H 0.52717 0.38274 0.60405 0.0
C1677 C 0.49517 0.36718 0.56503 0.0
C1678 C 0.46737 0.34734 0.55839 0.0
C1679 C 0.43222 0.32872 0.56194 0.0
C1680 C 0.42516 0.32786 0.57214 0.0
C1681 C 0.45356 0.34625 0.57861 0.0
C1682 C 0.48778 0.36637 0.57511 0.0
C1683 C 0.51416 0.38128 0.58347 0.0
C1684 C 0.54154 0.36896 0.58283 0.0
C1685 C 0.5322 0.42183 0.5837 0.0
C1686 C 0.48982 0.36498 0.59222 0.0
C1687 C 0.4549 0.34518 0.58938 0.0
C1688 C 0.42823 0.32612 0.59631 0.0
C1689 C 0.43761 0.32785 0.60638 0.0
C1690 C 0.47339 0.3482 0.60937 0.0
C1691 C 0.49951 0.36692 0.60211 0.0
H1692 H 0.63183 0.12402 0.56021 0.0
H1693 H 0.72225 0.11043 0.55599 0.0
H1694 H 0.72322 0.09936 0.5739 0.0
H1695 H 0.66224 0.17522 0.5793 0.0
H1696 H 0.62205 0.15959 0.58631 0.0
H1697 H 0.61993 0.1538 0.57316 0.0
H1698 H 0.57901 0.08624 0.57508 0.0
H1699 H 0.58001 0.09179 0.58832 0.0
H1700 H 0.59218 0.0616 0.58297 0.0
H1701 H 0.72334 0.10465 0.59253 0.0
H1702 H 0.72056 0.12316 0.60975 0.0
H1703 H 0.63156 0.13559 0.60148 0.0
C1704 C 0.65012 0.11618 0.56301 0.0
C1705 C 0.6761 0.11668 0.55677 0.0
C1706 C 0.70133 0.10873 0.56067 0.0
C1707 C 0.70218 0.10268 0.57084 0.0
C1708 C 0.67758 0.10468 0.57698 0.0
C1709 C 0.65147 0.11051 0.57315 0.0
C1710 C 0.63211 0.11761 0.58129 0.0
C1711 C 0.63427 0.15369 0.57993 0.0
C1712 C 0.59354 0.08751 0.58195 0.0
C1713 C 0.65309 0.11762 0.59017 0.0
C1714 C 0.67853 0.10909 0.58766 0.0
C1715 C 0.70296 0.11056 0.59462 0.0
C1716 C 0.70139 0.12128 0.60436 0.0
C1717 C 0.67619 0.13122 0.6069 0.0
C1718 C 0.6514 0.12849 0.59974 0.0
H1719 H 0.50057 0.19685 0.06403 0.0
H1720 H 0.4366 0.08625 0.05595 0.0
H1721 H 0.42288 0.07096 0.07374 0.0
H1722 H 0.53846 0.18494 0.08534 0.0
H1723 H 0.53835 0.22085 0.09187 0.0
H1724 H 0.54075 0.22163 0.0786 0.0
H1725 H 0.48538 0.22894 0.07784 0.0
H1726 H 0.48236 0.2273 0.09115 0.0
H1727 H 0.4451 0.19672 0.0838 0.0
H1728 H 0.41915 0.0688 0.09294 0.0
H1729 H 0.43122 0.07935 0.11097 0.0
H1730 H 0.49601 0.19151 0.10544 0.0
C1731 C 0.4835 0.16928 0.06589 0.0
C1732 C 0.46963 0.14275 0.05854 0.0
C1733 C 0.44765 0.10707 0.06144 0.0
C1734 C 0.43947 0.09822 0.07152 0.0
C1735 C 0.45322 0.12541 0.07853 0.0
C1736 C 0.47494 0.16018 0.07577 0.0
C1737 C 0.48817 0.18474 0.08454 0.0
C1738 C 0.52882 0.20415 0.08512 0.0
C1739 C 0.47442 0.21097 0.08431 0.0
C1740 C 0.47135 0.1584 0.09281 0.0
C1741 C 0.45077 0.12428 0.08929 0.0
C1742 C 0.43475 0.09547 0.09574 0.0
C1743 C 0.44136 0.10168 0.10597 0.0
C1744 C 0.46401 0.13631 0.10952 0.0
C1745 C 0.47797 0.16492 0.10288 0.0
H1746 H 0.81714 0.28218 0.06659 0.0
H1747 H 0.92059 0.36551 0.05723 0.0
H1748 H 0.94179 0.37175 0.07455 0.0
H1749 H 0.81212 0.32055 0.08811 0.0
H1750 H 0.78945 0.27991 0.09504 0.0
H1751 H 0.78496 0.27918 0.08183 0.0
H1752 H 0.80642 0.23363 0.08065 0.0
H1753 H 0.8115 0.23472 0.09391 0.0
H1754 H 0.84833 0.24405 0.08599 0.0
H1755 H 0.94889 0.37336 0.09328 0.0
H1756 H 0.93984 0.37373 0.11136 0.0
H1757 H 0.83182 0.28927 0.10807 0.0
C1758 C 0.84445 0.30155 0.0681 0.0
C1759 C 0.86719 0.32349 0.06053 0.0
C1760 C 0.9027 0.34835 0.06289 0.0
C1761 C 0.91499 0.35189 0.0727 0.0
C1762 C 0.89159 0.32994 0.07999 0.0
C1763 C 0.85706 0.3052 0.07775 0.0
C1764 C 0.83604 0.28688 0.08693 0.0
C1765 C 0.80378 0.29198 0.08804 0.0
C1766 C 0.82492 0.24748 0.08686 0.0
C1767 C 0.86348 0.30655 0.09482 0.0
C1768 C 0.89571 0.33061 0.09069 0.0
C1769 C 0.92409 0.35399 0.09657 0.0
C1770 C 0.91888 0.35378 0.10684 0.0
C1771 C 0.88554 0.33059 0.11107 0.0
C1772 C 0.85794 0.30606 0.10502 0.0
H1773 H 0.7017 0.56901 0.10478 0.0
H1774 H 0.59839 0.47723 0.1099 0.0
H1775 H 0.58486 0.47386 0.09223 0.0
H1776 H 0.67229 0.60509 0.08312 0.0
H1777 H 0.71316 0.61915 0.0766 0.0
H1778 H 0.71267 0.61965 0.08995 0.0
H1779 H 0.74151 0.58033 0.0904 0.0
H1780 H 0.74225 0.57987 0.07711 0.0
H1781 H 0.72074 0.53877 0.08386 0.0
H1782 H 0.58511 0.47354 0.07417 0.0
H1783 H 0.60104 0.47576 0.05651 0.0
H1784 H 0.70377 0.56662 0.06245 0.0
C1785 C 0.67586 0.54915 0.10217 0.0
C1786 C 0.65107 0.5236 0.1087 0.0
C1787 C 0.61782 0.49718 0.10502 0.0
C1788 C 0.60967 0.49514 0.09499 0.0
C1789 C 0.63487 0.51989 0.08866 0.0
C1790 C 0.66725 0.54656 0.09206 0.0
C1791 C 0.69097 0.56693 0.08344 0.0
C1792 C 0.69767 0.60497 0.08327 0.0
C1793 C 0.72591 0.56639 0.08372 0.0
C1794 C 0.66785 0.54576 0.0748 0.0
C1795 C 0.6351 0.51954 0.07799 0.0
C1796 C 0.61022 0.49462 0.07151 0.0
C1797 C 0.61933 0.49608 0.06152 0.0
C1798 C 0.65308 0.52194 0.0582 0.0
C1799 C 0.67736 0.54741 0.06485 0.0
H1800 H 0.50781 0.88081 0.94047 0.0
H1801 H 0.59251 0.85718 0.94281 0.0
H1802 H 0.6054 0.86941 0.92502 0.0
H1803 H 0.47276 0.83737 0.92003 0.0
H1804 H 0.46152 0.86742 0.91411 0.0
H1805 H 0.46574 0.86792 0.92732 0.0
H1806 H 0.51255 0.93456 0.92692 0.0
H1807 H 0.50808 0.93448 0.91365 0.0
H1808 H 0.55092 0.94988 0.91912 0.0
H1809 H 0.60014 0.87042 0.90666 0.0
H1810 H 0.57791 0.86212 0.88941 0.0
H1811 H 0.49638 0.88449 0.89896 0.0
C1812 C 0.53036 0.88039 0.9373 0.0
C1813 C 0.5498 0.86901 0.94297 0.0
C1814 C 0.57798 0.86676 0.93857 0.0
C1815 C 0.58546 0.87363 0.92847 0.0
C1816 C 0.56464 0.88297 0.92289 0.0
C1817 C 0.53808 0.88711 0.92718 0.0
C1818 C 0.51633 0.89228 0.91935 0.0
C1819 C 0.47678 0.86458 0.92026 0.0
C1820 C 0.52233 0.93005 0.91979 0.0
C1821 C 0.53251 0.8869 0.91008 0.0
C1822 C 0.56115 0.88285 0.91221 0.0
C1823 C 0.57829 0.87446 0.90486 0.0
C1824 C 0.56546 0.86964 0.8951 0.0
C1825 C 0.53534 0.87241 0.89289 0.0
C1826 C 0.51941 0.88204 0.90045 0.0
H1827 H 0.19814 0.71672 0.93737 0.0
H1828 H 0.08764 0.66106 0.94598 0.0
H1829 H 0.07078 0.65968 0.92834 0.0
H1830 H 0.19176 0.76944 0.91733 0.0
H1831 H 0.22367 0.76509 0.90992 0.0
H1832 H 0.2264 0.76511 0.92323 0.0
H1833 H 0.22444 0.70476 0.92277 0.0
H1834 H 0.22239 0.70496 0.90951 0.0
H1835 H 0.18874 0.66808 0.91637 0.0
H1836 H 0.06697 0.6602 0.90926 0.0
H1837 H 0.0764 0.65668 0.89127 0.0
H1838 H 0.18938 0.71199 0.89597 0.0
C1839 C 0.17026 0.70455 0.93567 0.0
C1840 C 0.14421 0.68905 0.94312 0.0
C1841 C 0.10812 0.67317 0.94042 0.0
C1842 C 0.09836 0.67253 0.93043 0.0
C1843 C 0.12501 0.68814 0.92328 0.0
C1844 C 0.16023 0.70372 0.92586 0.0
C1845 C 0.18411 0.71586 0.91691 0.0
C1846 C 0.20788 0.75627 0.91685 0.0
C1847 C 0.20617 0.69729 0.91636 0.0
C1848 C 0.15691 0.70372 0.90877 0.0
C1849 C 0.12291 0.68843 0.91252 0.0
C1850 C 0.0935 0.67274 0.90628 0.0
C1851 C 0.09905 0.6712 0.89606 0.0
C1852 C 0.13366 0.68489 0.89228 0.0
C1853 C 0.16277 0.70239 0.89868 0.0
H1854 H 0.38422 0.52925 0.89877 0.0
H1855 H 0.32427 0.4194 0.88964 0.0
H1856 H 0.32035 0.40104 0.9072 0.0
H1857 H 0.43277 0.51782 0.91923 0.0
H1858 H 0.42986 0.55046 0.92669 0.0
H1859 H 0.43154 0.55427 0.91339 0.0
H1860 H 0.37314 0.55621 0.9134 0.0
H1861 H 0.37173 0.55309 0.92665 0.0
H1862 H 0.3347 0.52133 0.91944 0.0
H1863 H 0.31887 0.39568 0.92613 0.0
H1864 H 0.31412 0.40407 0.94412 0.0
H1865 H 0.37452 0.51739 0.94018 0.0
C1866 C 0.37063 0.50121 0.90036 0.0
C1867 C 0.35468 0.47576 0.89278 0.0
C1868 C 0.33682 0.43942 0.89531 0.0
C1869 C 0.3347 0.42877 0.90525 0.0
C1870 C 0.35082 0.45479 0.91253 0.0
C1871 C 0.36828 0.49028 0.91014 0.0
C1872 C 0.38054 0.51345 0.91924 0.0
C1873 C 0.42109 0.53528 0.91966 0.0
C1874 C 0.36402 0.53739 0.91971 0.0
C1875 C 0.36615 0.48557 0.92721 0.0
C1876 C 0.34981 0.45181 0.92326 0.0
C1877 C 0.3322 0.42197 0.92929 0.0
C1878 C 0.32994 0.4269 0.9395 0.0
C1879 C 0.34478 0.46136 0.94348 0.0
C1880 C 0.364 0.49084 0.93731 0.0
H1881 H 0.16582 0.45256 0.43878 0.0
H1882 H 0.08917 0.48707 0.44206 0.0
H1883 H 0.07204 0.47212 0.42439 0.0
H1884 H 0.19859 0.48865 0.4167 0.0
H1885 H 0.20406 0.45314 0.41192 0.0
H1886 H 0.20439 0.45967 0.42502 0.0
H1887 H 0.15348 0.395 0.42715 0.0
H1888 H 0.15293 0.38833 0.41396 0.0
H1889 H 0.11309 0.37973 0.42027 0.0
H1890 H 0.07024 0.46141 0.40583 0.0
H1891 H 0.08666 0.46071 0.38835 0.0
H1892 H 0.16596 0.43508 0.39753 0.0
C1893 C 0.14483 0.45624 0.43582 0.0
C1894 C 0.12878 0.47099 0.44169 0.0
C1895 C 0.10147 0.47547 0.43765 0.0
C1896 C 0.09159 0.46693 0.42766 0.0
C1897 C 0.10872 0.45316 0.42198 0.0
C1898 C 0.13456 0.44755 0.426 0.0
C1899 C 0.15171 0.43599 0.41826 0.0
C1900 C 0.19204 0.46087 0.41796 0.0
C1901 C 0.14224 0.39748 0.42002 0.0
C1902 C 0.13385 0.43899 0.40905 0.0
C1903 C 0.10801 0.44741 0.41136 0.0
C1904 C 0.08972 0.45394 0.40398 0.0
C1905 C 0.09898 0.45317 0.39407 0.0
C1906 C 0.12682 0.44679 0.39166 0.0
C1907 C 0.14377 0.43874 0.39922 0.0
H1908 H 0.53239 0.69568 0.39383 0.0
H1909 H 0.51539 0.58943 0.39193 0.0
H1910 H 0.52516 0.58942 0.40995 0.0
H1911 H 0.59812 0.72727 0.41504 0.0
H1912 H 0.57897 0.75164 0.42039 0.0
H1913 H 0.57879 0.74633 0.40716 0.0
H1914 H 0.51085 0.71963 0.407 0.0
H1915 H 0.51074 0.72443 0.4202 0.0
H1916 H 0.48362 0.68168 0.41462 0.0
H1917 H 0.52872 0.59788 0.42842 0.0
H1918 H 0.52388 0.61365 0.44576 0.0
H1919 H 0.53526 0.71294 0.43554 0.0
C1920 C 0.53242 0.67318 0.39719 0.0
C1921 C 0.52423 0.64295 0.39155 0.0
C1922 C 0.52253 0.61311 0.39617 0.0
C1923 C 0.52802 0.61288 0.40638 0.0
C1924 C 0.53491 0.64266 0.41186 0.0
C1925 C 0.53728 0.67236 0.40742 0.0
C1926 C 0.54017 0.69891 0.41509 0.0
C1927 C 0.57616 0.73306 0.41438 0.0
C1928 C 0.50951 0.70657 0.41417 0.0
C1929 C 0.5374 0.67884 0.42449 0.0
C1930 C 0.5353 0.64686 0.42251 0.0
C1931 C 0.53084 0.6231 0.43006 0.0
C1932 C 0.52806 0.63219 0.43988 0.0
C1933 C 0.52897 0.66434 0.44197 0.0
C1934 C 0.53429 0.68805 0.43416 0.0
H1935 H 0.36846 0.88707 0.43942 0.0
H1936 H 0.25525 0.8158 0.44002 0.0
H1937 H 0.25146 0.82683 0.42232 0.0
H1938 H 0.3682 0.94884 0.41955 0.0
H1939 H 0.40787 0.95372 0.41399 0.0
H1940 H 0.40111 0.94705 0.42716 0.0
H1941 H 0.40984 0.89267 0.42604 0.0
H1942 H 0.41688 0.89938 0.41295 0.0
H1943 H 0.38287 0.85732 0.41761 0.0
H1944 H 0.26013 0.83965 0.40438 0.0
H1945 H 0.2818 0.84665 0.38716 0.0
H1946 H 0.38969 0.90548 0.39771 0.0
C1947 C 0.34286 0.87484 0.43585 0.0
C1948 C 0.31209 0.85104 0.44106 0.0
C1949 C 0.27908 0.83436 0.43613 0.0
C1950 C 0.27661 0.8407 0.4261 0.0
C1951 C 0.30744 0.8637 0.42106 0.0
C1952 C 0.34003 0.88034 0.42573 0.0
C1953 C 0.36955 0.89949 0.41829 0.0
C1954 C 0.38776 0.93966 0.41984 0.0
C1955 C 0.39633 0.88639 0.41875 0.0
C1956 C 0.34866 0.88882 0.40871 0.0
C1957 C 0.31275 0.86961 0.41051 0.0
C1958 C 0.28814 0.85522 0.40285 0.0
C1959 C 0.30061 0.85948 0.3931 0.0
C1960 C 0.33728 0.87701 0.39118 0.0
C1961 C 0.36151 0.89259 0.39904 0.0
H1962 H 0.32917 0.23261 0.17016 0.0
H1963 H 0.23417 0.13664 0.17913 0.0
H1964 H 0.26123 0.1014 0.17424 0.0
H1965 H 0.3475 0.19671 0.14881 0.0
H1966 H 0.39476 0.22053 0.15047 0.0
H1967 H 0.36861 0.23879 0.15507 0.0
H1968 H 0.39444 0.24353 0.17263 0.0
H1969 H 0.42076 0.22538 0.16806 0.0
H1970 H 0.39121 0.20474 0.17834 0.0
H1971 H 0.29763 0.0759 0.16797 0.0
H1972 H 0.34162 0.06238 0.16083 0.0
H1973 H 0.41279 0.17443 0.15583 0.0
C1974 C 0.31417 0.20424 0.17116 0.0
C1975 C 0.27951 0.18754 0.17505 0.0
C1976 C 0.26078 0.15023 0.1762 0.0
C1977 C 0.2759 0.12985 0.17343 0.0
C1978 C 0.3099 0.14704 0.16954 0.0
C1979 C 0.32892 0.18337 0.16843 0.0
C1980 C 0.36487 0.19505 0.16393 0.0
C1981 C 0.36916 0.21387 0.15398 0.0
C1982 C 0.39457 0.21856 0.17117 0.0
C1983 C 0.36269 0.15958 0.16253 0.0
C1984 C 0.33087 0.13225 0.16588 0.0
C1985 C 0.32273 0.09708 0.16534 0.0
C1986 C 0.34785 0.08965 0.16126 0.0
C1987 C 0.38061 0.11725 0.15774 0.0
C1988 C 0.38796 0.15264 0.15841 0.0
H1989 H 0.84202 0.1047 0.17706 0.0
H1990 H 0.72839 0.05995 0.17934 0.0
H1991 H 0.73432 0.11546 0.17293 0.0
H1992 H 0.86601 0.19231 0.18456 0.0
H1993 H 0.90241 0.21393 0.17603 0.0
H1994 H 0.88949 0.17036 0.18056 0.0
H1995 H 0.88183 0.14729 0.16258 0.0
H1996 H 0.89477 0.1908 0.15797 0.0
H1997 H 0.85319 0.15351 0.15424 0.0
H1998 H 0.75232 0.17621 0.1673 0.0
H1999 H 0.78114 0.23834 0.1619 0.0
H2000 H 0.88313 0.24406 0.16232 0.0
C2001 C 0.81835 0.10651 0.17618 0.0
C2002 C 0.78468 0.0779 0.17874 0.0
C2003 C 0.75443 0.0814 0.17744 0.0
C2004 C 0.75752 0.11285 0.1738 0.0
C2005 C 0.79103 0.14054 0.17141 0.0
C2006 C 0.82093 0.1377 0.17247 0.0
C2007 C 0.85381 0.17173 0.1694 0.0
C2008 C 0.87943 0.18804 0.17816 0.0
C2009 C 0.87196 0.16544 0.16052 0.0
C2010 C 0.83767 0.19419 0.16653 0.0
C2011 C 0.80141 0.1756 0.16783 0.0
C2012 C 0.78062 0.19094 0.16617 0.0
C2013 C 0.79726 0.22628 0.16316 0.0
C2014 C 0.83429 0.24586 0.16169 0.0
C2015 C 0.85474 0.22949 0.16329 0.0
H2016 H 0.91851 0.73005 0.1622 0.0
H2017 H 0.90816 0.70464 0.19352 0.0
H2018 H 0.84599 0.65887 0.19092 0.0
H2019 H 0.83344 0.71918 0.1585 0.0
H2020 H 0.82638 0.69852 0.14653 0.0
H2021 H 0.87061 0.7288 0.15068 0.0
H2022 H 0.8883 0.68096 0.14801 0.0
H2023 H 0.84424 0.65065 0.14372 0.0
H2024 H 0.86278 0.63839 0.15384 0.0
H2025 H 0.78439 0.6191 0.18526 0.0
H2026 H 0.7283 0.5821 0.17656 0.0
H2027 H 0.77839 0.6305 0.14863 0.0
C2028 C 0.90324 0.71455 0.16848 0.0
C2029 C 0.91818 0.7209 0.17806 0.0
C2030 C 0.8974 0.70006 0.1861 0.0
C2031 C 0.86198 0.67415 0.18471 0.0
C2032 C 0.84787 0.66901 0.17522 0.0
C2033 C 0.86793 0.68808 0.1672 0.0
C2034 C 0.84628 0.67672 0.15775 0.0
C2035 C 0.84405 0.70765 0.15309 0.0
C2036 C 0.86129 0.66073 0.15039 0.0
C2037 C 0.81075 0.64878 0.16176 0.0
C2038 C 0.81233 0.64501 0.17187 0.0
C2039 C 0.78287 0.62152 0.17733 0.0
C2040 C 0.75104 0.60073 0.17231 0.0
C2041 C 0.74887 0.60327 0.1619 0.0
C2042 C 0.77917 0.62789 0.15658 0.0
H2043 H 0.15731 0.37885 0.34896 0.0
H2044 H 0.14139 0.41987 0.32136 0.0
H2045 H 0.15436 0.37915 0.31203 0.0
H2046 H 0.23007 0.36934 0.34037 0.0
H2047 H 0.21704 0.32926 0.3472 0.0
H2048 H 0.20593 0.3612 0.35179 0.0
H2049 H 0.13971 0.31303 0.35236 0.0
H2050 H 0.15066 0.2809 0.34786 0.0
H2051 H 0.11872 0.28797 0.34135 0.0
H2052 H 0.17009 0.3349 0.30566 0.0
H2053 H 0.18462 0.28792 0.3027 0.0
H2054 H 0.19016 0.27535 0.33441 0.0
C2055 C 0.15622 0.37905 0.34095 0.0
C2056 C 0.1482 0.4025 0.33589 0.0
C2057 C 0.14746 0.40217 0.32541 0.0
C2058 C 0.15485 0.37918 0.32003 0.0
C2059 C 0.16311 0.35676 0.32524 0.0
C2060 C 0.16373 0.3564 0.33546 0.0
C2061 C 0.17372 0.32989 0.33924 0.0
C2062 C 0.20877 0.34854 0.34499 0.0
C2063 C 0.14391 0.30125 0.34557 0.0
C2064 C 0.17794 0.31496 0.32955 0.0
C2065 C 0.17207 0.33111 0.32156 0.0
C2066 C 0.1747 0.32202 0.31185 0.0
C2067 C 0.1831 0.29537 0.31025 0.0
C2068 C 0.1885 0.27788 0.31831 0.0
C2069 C 0.18611 0.28812 0.32808 0.0
H2070 H 0.59882 0.7614 0.329 0.0
H2071 H 0.61733 0.77087 0.36072 0.0
H2072 H 0.6675 0.83126 0.35835 0.0
H2073 H 0.69029 0.80817 0.32182 0.0
H2074 H 0.68332 0.82932 0.3113 0.0
H2075 H 0.6484 0.787 0.31547 0.0
H2076 H 0.60661 0.81275 0.31716 0.0
H2077 H 0.64144 0.8552 0.31303 0.0
H2078 H 0.61985 0.85144 0.3247 0.0
H2079 H 0.716 0.88981 0.35263 0.0
H2080 H 0.76049 0.94308 0.34395 0.0
H2081 H 0.71095 0.89661 0.31582 0.0
C2082 C 0.61334 0.77618 0.33546 0.0
C2083 C 0.60405 0.76132 0.34506 0.0
C2084 C 0.62389 0.78158 0.3533 0.0
C2085 C 0.65242 0.81596 0.35203 0.0
C2086 C 0.66084 0.82975 0.34248 0.0
C2087 C 0.64198 0.81056 0.33433 0.0
C2088 C 0.657 0.83152 0.32486 0.0
C2089 C 0.67056 0.81289 0.31796 0.0
C2090 C 0.62959 0.83812 0.31963 0.0
C2091 C 0.68725 0.86554 0.32897 0.0
C2092 C 0.6889 0.86382 0.33916 0.0
C2093 C 0.71492 0.89152 0.34466 0.0
C2094 C 0.74012 0.92169 0.33964 0.0
C2095 C 0.73922 0.92415 0.32919 0.0
C2096 C 0.71217 0.89569 0.32381 0.0
H2097 H 0.08876 0.80829 0.34031 0.0
H2098 H 0.10384 0.83266 0.30892 0.0
H2099 H 0.16704 0.85197 0.31061 0.0
H2100 H 0.16987 0.88055 0.34866 0.0
H2101 H 0.17772 0.85587 0.35801 0.0
H2102 H 0.13318 0.84272 0.35438 0.0
H2103 H 0.12145 0.7799 0.3502 0.0
H2104 H 0.16587 0.79274 0.35391 0.0
H2105 H 0.15046 0.77478 0.34174 0.0
H2106 H 0.22878 0.87095 0.31571 0.0
H2107 H 0.28487 0.8847 0.3237 0.0
H2108 H 0.23036 0.84728 0.3518 0.0
C2109 C 0.10531 0.81745 0.33378 0.0
C2110 C 0.09128 0.81901 0.32448 0.0
C2111 C 0.11385 0.83108 0.31612 0.0
C2112 C 0.14986 0.84224 0.317 0.0
C2113 C 0.16293 0.84088 0.32629 0.0
C2114 C 0.14135 0.82841 0.33451 0.0
C2115 C 0.16223 0.82949 0.34361 0.0
C2116 C 0.16065 0.8536 0.35164 0.0
C2117 C 0.14923 0.792 0.3476 0.0
C2118 C 0.199 0.84522 0.33923 0.0
C2119 C 0.19871 0.85151 0.32922 0.0
C2120 C 0.22935 0.86599 0.32354 0.0
C2121 C 0.26113 0.87381 0.32816 0.0
C2122 C 0.26212 0.86714 0.33838 0.0
C2123 C 0.23056 0.85288 0.34398 0.0
H2124 H 0.66889 0.76064 0.81711 0.0
H2125 H 0.76372 0.83986 0.83201 0.0
H2126 H 0.72885 0.86142 0.84078 0.0
H2127 H 0.62854 0.81351 0.81373 0.0
H2128 H 0.58427 0.77832 0.81626 0.0
H2129 H 0.61637 0.76829 0.8112 0.0
H2130 H 0.60576 0.72573 0.82583 0.0
H2131 H 0.57348 0.7355 0.8309 0.0
H2132 H 0.61039 0.74177 0.83834 0.0
H2133 H 0.68447 0.87567 0.84766 0.0
H2134 H 0.63256 0.88011 0.85269 0.0
H2135 H 0.56601 0.79134 0.83361 0.0
C2136 C 0.68225 0.78239 0.82225 0.0
C2137 C 0.71907 0.79848 0.82387 0.0
C2138 C 0.73554 0.82687 0.83068 0.0
C2139 C 0.71598 0.83945 0.83569 0.0
C2140 C 0.67986 0.8232 0.8339 0.0
C2141 C 0.66301 0.7951 0.82742 0.0
C2142 C 0.62375 0.78227 0.82694 0.0
C2143 C 0.61259 0.78583 0.8164 0.0
C2144 C 0.60207 0.74405 0.83073 0.0
C2145 C 0.62141 0.80798 0.83401 0.0
C2146 C 0.65408 0.83128 0.83795 0.0
C2147 C 0.65868 0.85748 0.84466 0.0
C2148 C 0.62903 0.85979 0.84746 0.0
C2149 C 0.59518 0.8361 0.84356 0.0
C2150 C 0.5915 0.80993 0.83672 0.0
H2151 H 0.13627 0.76572 0.8495 0.0
H2152 H 0.17032 0.72987 0.82402 0.0
H2153 H 0.18777 0.78608 0.81552 0.0
H2154 H 0.10106 0.81281 0.83574 0.0
H2155 H 0.11632 0.84829 0.84461 0.0
H2156 H 0.10546 0.80468 0.8486 0.0
H2157 H 0.16796 0.83038 0.85623 0.0
H2158 H 0.17911 0.87401 0.85217 0.0
H2159 H 0.20626 0.85562 0.84855 0.0
H2160 H 0.20371 0.84696 0.80995 0.0
H2161 H 0.21367 0.90723 0.80735 0.0
H2162 H 0.16896 0.90365 0.83631 0.0
C2163 C 0.14698 0.76952 0.84209 0.0
C2164 C 0.15184 0.74328 0.83743 0.0
C2165 C 0.16632 0.74951 0.82776 0.0
C2166 C 0.17639 0.78141 0.82285 0.0
C2167 C 0.17186 0.80695 0.82771 0.0
C2168 C 0.15728 0.80134 0.83707 0.0
C2169 C 0.15575 0.83343 0.84065 0.0
C2170 C 0.11736 0.82424 0.84251 0.0
C2171 C 0.17863 0.84929 0.84995 0.0
C2172 C 0.17153 0.85776 0.83181 0.0
C2173 C 0.18087 0.84206 0.82446 0.0
C2174 C 0.19639 0.85952 0.81564 0.0
C2175 C 0.20209 0.89381 0.81425 0.0
C2176 C 0.19209 0.91019 0.82161 0.0
C2177 C 0.17683 0.89186 0.83052 0.0
H2178 H 0.25346 0.36206 0.83274 0.0
H2179 H 0.22558 0.40709 0.85739 0.0
H2180 H 0.1626 0.37048 0.85309 0.0
H2181 H 0.18933 0.35652 0.81569 0.0
H2182 H 0.17914 0.31432 0.8106 0.0
H2183 H 0.22226 0.34317 0.81572 0.0
H2184 H 0.21514 0.29353 0.82762 0.0
H2185 H 0.17215 0.26437 0.82245 0.0
H2186 H 0.17702 0.27249 0.83559 0.0
H2187 H 0.10318 0.33167 0.84571 0.0
H2188 H 0.05006 0.28877 0.83662 0.0
H2189 H 0.11537 0.26688 0.81693 0.0
C2190 C 0.23404 0.36391 0.83728 0.0
C2191 C 0.24448 0.38742 0.84542 0.0
C2192 C 0.21827 0.38905 0.85119 0.0
C2193 C 0.1824 0.36851 0.84877 0.0
C2194 C 0.17303 0.34603 0.84063 0.0
C2195 C 0.19795 0.34309 0.83507 0.0
C2196 C 0.18053 0.31633 0.82679 0.0
C2197 C 0.1936 0.33364 0.8166 0.0
C2198 C 0.18657 0.28481 0.8282 0.0
C2199 C 0.14207 0.30548 0.82844 0.0
C2200 C 0.13844 0.32297 0.83647 0.0
C2201 C 0.10563 0.3176 0.83945 0.0
C2202 C 0.0756 0.2932 0.83421 0.0
C2203 C 0.07844 0.27437 0.82605 0.0
C2204 C 0.11228 0.28093 0.8231 0.0
H2205 H 0.84178 0.61641 0.65088 0.0
H2206 H 0.79535 0.54337 0.67547 0.0
H2207 H 0.78361 0.58604 0.68405 0.0
H2208 H 0.88488 0.69525 0.66532 0.0
H2209 H 0.87613 0.72167 0.6568 0.0
H2210 H 0.87979 0.68485 0.6523 0.0
H2211 H 0.8178 0.65822 0.64428 0.0
H2212 H 0.81395 0.69499 0.64877 0.0
H2213 H 0.78055 0.65044 0.65182 0.0
H2214 H 0.77812 0.63683 0.69029 0.0
H2215 H 0.77994 0.69313 0.6938 0.0
H2216 H 0.82991 0.73388 0.66532 0.0
C2217 C 0.829 0.60935 0.65804 0.0
C2218 C 0.81956 0.57646 0.66248 0.0
C2219 C 0.80292 0.56833 0.67189 0.0
C2220 C 0.79604 0.5924 0.67684 0.0
C2221 C 0.8058 0.62457 0.67231 0.0
C2222 C 0.82186 0.63315 0.66312 0.0
C2223 C 0.83017 0.6699 0.66002 0.0
C2224 C 0.87012 0.69436 0.65852 0.0
C2225 C 0.80937 0.66828 0.65067 0.0
C2226 C 0.81692 0.68078 0.66899 0.0
C2227 C 0.80269 0.65407 0.67594 0.0
C2228 C 0.78907 0.65792 0.68489 0.0
C2229 C 0.79021 0.69002 0.68681 0.0
C2230 C 0.80503 0.71799 0.67985 0.0
C2231 C 0.81836 0.71306 0.6708 0.0
H2232 H 0.36467 0.2291 0.64759 0.0
H2233 H 0.4014 0.27707 0.67651 0.0
H2234 H 0.36412 0.21946 0.68442 0.0
H2235 H 0.2736 0.16916 0.65539 0.0
H2236 H 0.26839 0.13366 0.64748 0.0
H2237 H 0.29803 0.17886 0.64397 0.0
H2238 H 0.34906 0.16515 0.64244 0.0
H2239 H 0.31966 0.12001 0.64606 0.0
H2240 H 0.35989 0.14664 0.65287 0.0
H2241 H 0.3265 0.15674 0.68928 0.0
H2242 H 0.28377 0.09321 0.69098 0.0
H2243 H 0.2673 0.0851 0.65918 0.0
C2244 C 0.36459 0.22748 0.65558 0.0
C2245 C 0.38611 0.25768 0.66141 0.0
C2246 C 0.38516 0.25446 0.67186 0.0
C2247 C 0.36419 0.22176 0.67645 0.0
C2248 C 0.34384 0.19246 0.67052 0.0
C2249 C 0.34324 0.19498 0.66033 0.0
C2250 C 0.31807 0.15927 0.65578 0.0
C2251 C 0.28772 0.16031 0.65034 0.0
C2252 C 0.33786 0.14706 0.64888 0.0
C2253 C 0.30495 0.13641 0.665 0.0
C2254 C 0.32063 0.15614 0.67339 0.0
C2255 C 0.31377 0.14101 0.68278 0.0
C2256 C 0.28963 0.10481 0.68366 0.0
C2257 C 0.27216 0.08417 0.67522 0.0
C2258 C 0.28016 0.10024 0.66576 0.0
H2259 H 0.76918 0.16108 0.67118 0.0
H2260 H 0.76733 0.12848 0.64073 0.0
H2261 H 0.82823 0.13981 0.64252 0.0
H2262 H 0.85792 0.23075 0.67177 0.0
H2263 H 0.867 0.22183 0.68412 0.0
H2264 H 0.82263 0.21004 0.68068 0.0
H2265 H 0.80007 0.1451 0.68586 0.0
H2266 H 0.84428 0.15682 0.68947 0.0
H2267 H 0.82055 0.12172 0.68068 0.0
H2268 H 0.89003 0.15758 0.64722 0.0
H2269 H 0.94714 0.17456 0.65509 0.0
H2270 H 0.90917 0.19435 0.68271 0.0
C2271 C 0.78145 0.1559 0.66494 0.0
C2272 C 0.76344 0.14385 0.65582 0.0
C2273 C 0.78041 0.1374 0.64781 0.0
C2274 C 0.81512 0.144 0.64873 0.0
C2275 C 0.83238 0.1566 0.65774 0.0
C2276 C 0.81599 0.16189 0.66576 0.0
C2277 C 0.84042 0.17499 0.67466 0.0
C2278 C 0.8474 0.21158 0.678 0.0
C2279 C 0.82544 0.14805 0.68317 0.0
C2280 C 0.87334 0.17698 0.6703 0.0
C2281 C 0.86804 0.16628 0.66053 0.0
C2282 C 0.89442 0.16574 0.6549 0.0
C2283 C 0.92683 0.17554 0.65944 0.0
C2284 C 0.93268 0.18573 0.66953 0.0
C2285 C 0.90563 0.18689 0.67498 0.0
H2286 H 0.03795 0.47057 0.50566 0.0
H2287 H 0.06262 0.51798 0.47641 0.0
H2288 H 0.02472 0.54383 0.47949 0.0
H2289 H 0.9451 0.44882 0.50511 0.0
H2290 H 0.94412 0.45726 0.51812 0.0
H2291 H 0.97299 0.44207 0.51359 0.0
H2292 H 0.02641 0.4963 0.52163 0.0
H2293 H 0.99779 0.51188 0.52608 0.0
H2294 H 0.03544 0.54016 0.5185 0.0
H2295 H 0.98629 0.56645 0.48584 0.0
H2296 H 0.94488 0.58003 0.49451 0.0
H2297 H 0.94308 0.51685 0.51955 0.0
C2298 C 0.03509 0.48616 0.49989 0.0
C2299 C 0.05318 0.4922 0.49079 0.0
C2300 C 0.04872 0.51265 0.4834 0.0
C2301 C 0.02744 0.52767 0.4851 0.0
C2302 C 0.01031 0.5216 0.49418 0.0
C2303 C 0.01332 0.50085 0.5014 0.0
C2304 C 0.99107 0.49772 0.51038 0.0
C2305 C 0.96157 0.45918 0.51188 0.0
C2306 C 0.01407 0.5124 0.5197 0.0
C2307 C 0.97603 0.52083 0.50718 0.0
C2308 C 0.98748 0.53425 0.4978 0.0
C2309 C 0.97699 0.55599 0.49318 0.0
C2310 C 0.95353 0.56363 0.49818 0.0
C2311 C 0.94079 0.54964 0.50772 0.0
C2312 C 0.95262 0.52829 0.51231 0.0
H2313 H 0.459 0.42504 0.51639 0.0
H2314 H 0.48909 0.39131 0.48968 0.0
H2315 H 0.50448 0.44779 0.4817 0.0
H2316 H 0.4213 0.47347 0.50377 0.0
H2317 H 0.43765 0.50802 0.51294 0.0
H2318 H 0.42679 0.4639 0.51641 0.0
H2319 H 0.48989 0.48846 0.52349 0.0
H2320 H 0.5011 0.53257 0.51992 0.0
H2321 H 0.52754 0.51417 0.51562 0.0
H2322 H 0.52102 0.50912 0.47698 0.0
H2323 H 0.53259 0.57012 0.47523 0.0
H2324 H 0.49077 0.56463 0.50475 0.0
C2325 C 0.46816 0.42927 0.5088 0.0
C2326 C 0.4728 0.40365 0.50367 0.0
C2327 C 0.4853 0.41045 0.49379 0.0
C2328 C 0.4942 0.44253 0.48918 0.0
C2329 C 0.4903 0.46758 0.49451 0.0
C2330 C 0.47715 0.46126 0.50405 0.0
C2331 C 0.47634 0.49319 0.50816 0.0
C2332 C 0.43825 0.48409 0.51045 0.0
C2333 C 0.50014 0.50796 0.51734 0.0
C2334 C 0.49142 0.51841 0.49947 0.0
C2335 C 0.49941 0.50307 0.4917 0.0
C2336 C 0.51458 0.52135 0.48297 0.0
C2337 C 0.52124 0.5561 0.48208 0.0
C2338 C 0.51255 0.57221 0.48984 0.0
C2339 C 0.4976 0.55304 0.49867 0.0
H2340 H 0.56047 0.0739 0.5136 0.0
H2341 H 0.62187 0.03941 0.49649 0.0
H2342 H 0.56806 0.99723 0.48746 0.0
H2343 H 0.48281 0.98939 0.51622 0.0
H2344 H 0.45264 0.00595 0.51488 0.0
H2345 H 0.49617 0.03408 0.51983 0.0
H2346 H 0.50776 0.08071 0.50632 0.0
H2347 H 0.46435 0.05255 0.50125 0.0
H2348 H 0.50277 0.06804 0.49347 0.0
H2349 H 0.50822 0.95944 0.48017 0.0
H2350 H 0.44499 0.9246 0.47599 0.0
H2351 H 0.42154 0.98202 0.49812 0.0
C2352 C 0.5626 0.0574 0.50798 0.0
C2353 C 0.59544 0.06 0.50575 0.0
C2354 C 0.59707 0.038 0.49831 0.0
C2355 C 0.56667 0.01402 0.49312 0.0
C2356 C 0.53485 0.01244 0.49542 0.0
C2357 C 0.53249 0.03335 0.5027 0.0
C2358 C 0.49487 0.02597 0.5038 0.0
C2359 C 0.4808 0.01306 0.51431 0.0
C2360 C 0.4923 0.05877 0.50104 0.0
C2361 C 0.47628 0.99685 0.49621 0.0
C2362 C 0.50002 0.99003 0.49132 0.0
C2363 C 0.48937 0.96454 0.48393 0.0
C2364 C 0.45338 0.94503 0.48158 0.0
C2365 C 0.42835 0.95066 0.48672 0.0
C2366 C 0.44009 0.97716 0.49407 0.0
H2367 H 0.50256 0.06784 0.9962 0.0
H2368 H 0.44902 0.02683 0.02426 0.0
H2369 H 0.4498 0.97149 0.02138 0.0
H2370 H 0.4572 0.98404 0.98289 0.0
H2371 H 0.49576 0.99285 0.97584 0.0
H2372 H 0.49006 0.02892 0.97995 0.0
H2373 H 0.55107 0.0574 0.98862 0.0
H2374 H 0.55688 0.02136 0.98458 0.0
H2375 H 0.55981 0.0321 0.99755 0.0
H2376 H 0.45741 0.92139 0.01572 0.0
H2377 H 0.47071 0.879 0.00761 0.0
H2378 H 0.51978 0.95208 0.98315 0.0
C2379 C 0.49081 0.04716 0.00172 0.0
C2380 C 0.47569 0.05172 0.01046 0.0
C2381 C 0.46064 0.02397 0.01749 0.0
C2382 C 0.46099 0.99243 0.01593 0.0
C2383 C 0.47633 0.98893 0.00728 0.0
C2384 C 0.49081 0.01541 1.00026 0.0
C2385 C 0.50585 0.00488 0.99164 0.0
C2386 C 0.48603 0.00254 0.98201 0.0
C2387 C 0.54577 0.03046 0.99054 0.0
C2388 C 0.49818 0.96862 0.99501 0.0
C2389 C 0.48089 0.95992 0.00402 0.0
C2390 C 0.47086 0.92786 0.00866 0.0
C2391 C 0.47858 0.90394 0.00397 0.0
C2392 C 0.49637 0.91217 0.99474 0.0
C2393 C 0.50631 0.94505 0.99022 0.0
H2394 H 0.9446 0.42323 0.99579 0.0
H2395 H 0.94887 0.44101 0.02749 0.0
H2396 H 0.99076 0.50438 0.02486 0.0
H2397 H 0.03803 0.48519 0.99135 0.0
H2398 H 0.03034 0.49949 0.97957 0.0
H2399 H 0.00055 0.4554 0.98394 0.0
H2400 H 0.94807 0.46671 0.98196 0.0
H2401 H 0.97776 0.51098 0.97771 0.0
H2402 H 0.94938 0.50387 0.98818 0.0
H2403 H 0.02956 0.5658 0.01887 0.0
H2404 H 0.06902 0.62106 0.01011 0.0
H2405 H 0.04274 0.56414 0.9822 0.0
C2406 C 0.95458 0.44044 0.00217 0.0
C2407 C 0.94344 0.42713 0.01185 0.0
C2408 C 0.95719 0.45049 0.02002 0.0
C2409 C 0.98082 0.48659 0.01859 0.0
C2410 C 0.99084 0.49894 0.00896 0.0
C2411 C 0.97871 0.47658 0.00089 0.0
C2412 C 0.99462 0.49672 0.99135 0.0
C2413 C 0.01723 0.48341 0.98626 0.0
C2414 C 0.96573 0.49443 0.98439 0.0
C2415 C 0.01734 0.53393 0.99534 0.0
C2416 C 0.01437 0.53452 0.00551 0.0
C2417 C 0.03233 0.56567 0.01092 0.0
C2418 C 0.05462 0.597 0.00584 0.0
C2419 C 0.05917 0.59707 0.99545 0.0
C2420 C 0.03985 0.56504 0.99013 0.0
H2421 H 0.42468 0.45797 0.98565 0.0
H2422 H 0.40469 0.51431 0.00893 0.0
H2423 H 0.46314 0.53278 0.0161 0.0
H2424 H 0.47142 0.42661 0.00097 0.0
H2425 H 0.5026 0.43212 0.99143 0.0
H2426 H 0.4589 0.42295 0.98813 0.0
H2427 H 0.48608 0.47917 0.97718 0.0
H2428 H 0.52987 0.48867 0.98052 0.0
H2429 H 0.51681 0.5213 0.98257 0.0
H2430 H 0.52401 0.54653 0.02058 0.0
H2431 H 0.58227 0.55143 0.02273 0.0
H2432 H 0.56322 0.48573 0.99675 0.0
C2433 C 0.43248 0.47393 0.9923 0.0
C2434 C 0.40998 0.48463 0.99673 0.0
C2435 C 0.42133 0.5057 0.0054 0.0
C2436 C 0.45458 0.51645 0.00952 0.0
C2437 C 0.47627 0.50591 0.00492 0.0
C2438 C 0.46567 0.48491 0.99655 0.0
C2439 C 0.49421 0.47724 0.99311 0.0
C2440 C 0.48099 0.43736 0.99344 0.0
C2441 C 0.50752 0.49251 0.98273 0.0
C2442 C 0.52232 0.49706 0.00089 0.0
C2443 C 0.51147 0.51362 0.00757 0.0
C2444 C 0.5328 0.53362 0.01541 0.0
C2445 C 0.56594 0.53633 0.01655 0.0
C2446 C 0.57741 0.51897 0.00992 0.0
C2447 C 0.5553 0.49936 0.00194 0.0
loop_
_geom_bond_atom_site_label_1
_geom_bond_atom_site_label_2
_geom_bond_distance
_geom_bond_site_symmetry_2
_ccdc_geom_bond_type
Mg0 O1 2.028 . S
Mg0 O7 1.986 . S
Mg0 O9 2.114 . S
Mg0 O10 2.251 . S
Mg0 O13 2.010 . S
O1 Mg0 2.028 . S
O1 C4 1.250 . S
O2 Mg3 2.028 . S
O2 C4 1.248 . S
Mg3 O2 2.028 . S
Mg3 O8 2.032 . S
Mg3 O10 2.079 . S
C4 O1 1.250 . S
C4 O2 1.248 . S
C5 O6 1.264 . S
C5 O13 1.249 . S
O6 C5 1.264 . S
O7 Mg0 1.986 . S
O7 C11 1.246 . S
O8 Mg3 2.032 . S
O8 C11 1.259 . S
O9 Mg0 2.114 . S
O9 C12 1.252 . S
O10 Mg0 2.251 . S
O10 Mg3 2.079 . S
O10 C12 1.273 . S
C11 O7 1.246 . S
C11 O8 1.259 . S
C12 O9 1.252 . S
C12 O10 1.273 . S
O13 Mg0 2.010 . S
O13 C5 1.249 . S
Mg14 O15 2.028 . S
Mg14 O21 1.986 . S
Mg14 O23 2.114 1_545 S
Mg14 O24 2.251 1_545 S
Mg14 O27 2.010 . S
O15 Mg14 2.028 . S
O15 C18 1.250 . S
O16 Mg17 2.028 1_545 S
O16 C18 1.248 . S
Mg17 O16 2.028 1_565 S
Mg17 O22 2.032 . S
Mg17 O24 2.079 . S
C18 O15 1.250 . S
C18 O16 1.248 . S
C19 O20 1.264 . S
C19 O27 1.249 . S
O20 C19 1.264 . S
O21 Mg14 1.986 . S
O21 C25 1.246 . S
O22 Mg17 2.032 . S
O22 C25 1.259 1_565 S
O23 Mg14 2.114 1_565 S
O23 C26 1.252 . S
O24 Mg14 2.251 1_565 S
O24 Mg17 2.079 . S
O24 C26 1.273 . S
C25 O21 1.246 . S
C25 O22 1.259 1_545 S
C26 O23 1.252 . S
C26 O24 1.273 . S
O27 Mg14 2.010 . S
O27 C19 1.249 . S
Mg28 O29 2.028 . S
Mg28 O35 1.986 . S
Mg28 O37 2.114 1_655 S
Mg28 O38 2.251 1_655 S
Mg28 O41 2.010 . S
O29 Mg28 2.028 . S
O29 C32 1.250 . S
O30 Mg31 2.028 1_655 S
O30 C32 1.248 . S
Mg31 O30 2.028 1_455 S
Mg31 O36 2.032 . S
Mg31 O38 2.079 . S
C32 O29 1.250 . S
C32 O30 1.248 . S
C33 O34 1.264 . S
C33 O41 1.249 . S
O34 C33 1.264 . S
O35 Mg28 1.986 . S
O35 C39 1.246 . S
O36 Mg31 2.032 . S
O36 C39 1.259 1_455 S
O37 Mg28 2.114 1_455 S
O37 C40 1.252 . S
O38 Mg28 2.251 1_455 S
O38 Mg31 2.079 . S
O38 C40 1.273 . S
C39 O35 1.246 . S
C39 O36 1.259 1_655 S
C40 O37 1.252 . S
C40 O38 1.273 . S
O41 Mg28 2.010 . S
O41 C33 1.249 . S
Mg42 O43 2.028 . S
Mg42 O49 1.986 . S
Mg42 O51 2.114 . S
Mg42 O52 2.251 . S
Mg42 O55 2.010 . S
O43 Mg42 2.028 . S
O43 C46 1.250 . S
O44 Mg45 2.028 . S
O44 C46 1.248 . S
Mg45 O44 2.028 . S
Mg45 O50 2.032 . S
Mg45 O52 2.079 . S
C46 O43 1.250 . S
C46 O44 1.248 . S
C47 O48 1.264 . S
C47 O55 1.249 . S
O48 C47 1.264 . S
O49 Mg42 1.986 . S
O49 C53 1.246 . S
O50 Mg45 2.032 . S
O50 C53 1.259 . S
O51 Mg42 2.114 . S
O51 C54 1.252 . S
O52 Mg42 2.251 . S
O52 Mg45 2.079 . S
O52 C54 1.273 . S
C53 O49 1.246 . S
C53 O50 1.259 . S
C54 O51 1.252 . S
C54 O52 1.273 . S
O55 Mg42 2.010 . S
O55 C47 1.249 . S
Mg56 O57 2.028 . S
Mg56 O63 1.986 . S
Mg56 O65 2.114 1_565 S
Mg56 O66 2.251 1_565 S
Mg56 O69 2.010 . S
O57 Mg56 2.028 . S
O57 C60 1.250 . S
O58 Mg59 2.028 1_565 S
O58 C60 1.248 . S
Mg59 O58 2.028 1_545 S
Mg59 O64 2.032 . S
Mg59 O66 2.079 . S
C60 O57 1.250 . S
C60 O58 1.248 . S
C61 O62 1.264 . S
C61 O69 1.249 . S
O62 C61 1.264 . S
O63 Mg56 1.986 . S
O63 C67 1.246 . S
O64 Mg59 2.032 . S
O64 C67 1.259 1_545 S
O65 Mg56 2.114 1_545 S
O65 C68 1.252 . S
O66 Mg56 2.251 1_545 S
O66 Mg59 2.079 . S
O66 C68 1.273 . S
C67 O63 1.246 . S
C67 O64 1.259 1_565 S
C68 O65 1.252 . S
C68 O66 1.273 . S
O69 Mg56 2.010 . S
O69 C61 1.249 . S
Mg70 O71 2.028 . S
Mg70 O77 1.986 . S
Mg70 O79 2.114 1_455 S
Mg70 O80 2.251 1_455 S
Mg70 O83 2.010 . S
O71 Mg70 2.028 . S
O71 C74 1.250 . S
O72 Mg73 2.028 1_455 S
O72 C74 1.248 . S
Mg73 O72 2.028 1_655 S
Mg73 O78 2.032 . S
Mg73 O80 2.079 . S
C74 O71 1.250 . S
C74 O72 1.248 . S
C75 O76 1.264 . S
C75 O83 1.249 . S
O76 C75 1.264 . S
O77 Mg70 1.986 . S
O77 C81 1.246 . S
O78 Mg73 2.032 . S
O78 C81 1.259 1_655 S
O79 Mg70 2.114 1_655 S
O79 C82 1.252 . S
O80 Mg70 2.251 1_655 S
O80 Mg73 2.079 . S
O80 C82 1.273 . S
C81 O77 1.246 . S
C81 O78 1.259 1_455 S
C82 O79 1.252 . S
C82 O80 1.273 . S
O83 Mg70 2.010 . S
O83 C75 1.249 . S
Mg84 O85 2.028 . S
Mg84 O91 1.986 . S
Mg84 O93 2.114 . S
Mg84 O94 2.251 . S
Mg84 O97 2.010 . S
O85 Mg84 2.028 . S
O85 C88 1.250 . S
O86 Mg87 2.028 . S
O86 C88 1.248 . S
Mg87 O86 2.028 . S
Mg87 O92 2.032 . S
Mg87 O94 2.079 . S
C88 O85 1.250 . S
C88 O86 1.248 . S
C89 O90 1.264 . S
C89 O97 1.249 . S
O90 C89 1.264 . S
O91 Mg84 1.986 . S
O91 C95 1.246 . S
O92 Mg87 2.032 . S
O92 C95 1.259 . S
O93 Mg84 2.114 . S
O93 C96 1.252 . S
O94 Mg84 2.251 . S
O94 Mg87 2.079 . S
O94 C96 1.273 . S
C95 O91 1.246 . S
C95 O92 1.259 . S
C96 O93 1.252 . S
C96 O94 1.273 . S
O97 Mg84 2.010 . S
O97 C89 1.249 . S
Mg98 O99 2.028 . S
Mg98 O105 1.986 . S
Mg98 O107 2.114 1_565 S
Mg98 O108 2.251 1_565 S
Mg98 O111 2.010 . S
O99 Mg98 2.028 . S
O99 C102 1.250 . S
O100 Mg101 2.028 1_565 S
O100 C102 1.248 . S
Mg101 O100 2.028 1_545 S
Mg101 O106 2.032 . S
Mg101 O108 2.079 . S
C102 O99 1.250 . S
C102 O100 1.248 . S
C103 O104 1.264 . S
C103 O111 1.249 . S
O104 C103 1.264 . S
O105 Mg98 1.986 . S
O105 C109 1.246 . S
O106 Mg101 2.032 . S
O106 C109 1.259 1_545 S
O107 Mg98 2.114 1_545 S
O107 C110 1.252 . S
O108 Mg98 2.251 1_545 S
O108 Mg101 2.079 . S
O108 C110 1.273 . S
C109 O105 1.246 . S
C109 O106 1.259 1_565 S
C110 O107 1.252 . S
C110 O108 1.273 . S
O111 Mg98 2.010 . S
O111 C103 1.249 . S
Mg112 O113 2.028 . S
Mg112 O119 1.986 . S
Mg112 O121 2.114 1_455 S
Mg112 O122 2.251 1_455 S
Mg112 O125 2.010 . S
O113 Mg112 2.028 . S
O113 C116 1.250 . S
O114 Mg115 2.028 1_455 S
O114 C116 1.248 . S
Mg115 O114 2.028 1_655 S
Mg115 O120 2.032 . S
Mg115 O122 2.079 . S
C116 O113 1.250 . S
C116 O114 1.248 . S
C117 O118 1.264 . S
C117 O125 1.249 . S
O118 C117 1.264 . S
O119 Mg112 1.986 . S
O119 C123 1.246 . S
O120 Mg115 2.032 . S
O120 C123 1.259 1_655 S
O121 Mg112 2.114 1_655 S
O121 C124 1.252 . S
O122 Mg112 2.251 1_655 S
O122 Mg115 2.079 . S
O122 C124 1.273 . S
C123 O119 1.246 . S
C123 O120 1.259 1_455 S
C124 O121 1.252 . S
C124 O122 1.273 . S
O125 Mg112 2.010 . S
O125 C117 1.249 . S
Mg126 O127 2.028 . S
Mg126 O133 1.986 . S
Mg126 O135 2.114 . S
Mg126 O136 2.251 . S
Mg126 O139 2.010 . S
O127 Mg126 2.028 . S
O127 C130 1.250 . S
O128 Mg129 2.028 . S
O128 C130 1.248 . S
Mg129 O128 2.028 . S
Mg129 O134 2.032 . S
Mg129 O136 2.079 . S
C130 O127 1.250 . S
C130 O128 1.248 . S
C131 O132 1.264 . S
C131 O139 1.249 . S
O132 C131 1.264 . S
O133 Mg126 1.986 . S
O133 C137 1.246 . S
O134 Mg129 2.032 . S
O134 C137 1.259 . S
O135 Mg126 2.114 . S
O135 C138 1.252 . S
O136 Mg126 2.251 . S
O136 Mg129 2.079 . S
O136 C138 1.273 . S
C137 O133 1.246 . S
C137 O134 1.259 . S
C138 O135 1.252 . S
C138 O136 1.273 . S
O139 Mg126 2.010 . S
O139 C131 1.249 . S
Mg140 O141 2.028 . S
Mg140 O147 1.986 . S
Mg140 O149 2.114 1_545 S
Mg140 O150 2.251 1_545 S
Mg140 O153 2.010 . S
O141 Mg140 2.028 . S
O141 C144 1.250 . S
O142 Mg143 2.028 1_545 S
O142 C144 1.248 . S
Mg143 O142 2.028 1_565 S
Mg143 O148 2.032 . S
Mg143 O150 2.079 . S
C144 O141 1.250 . S
C144 O142 1.248 . S
C145 O146 1.264 . S
C145 O153 1.249 . S
O146 C145 1.264 . S
O147 Mg140 1.986 . S
O147 C151 1.246 . S
O148 Mg143 2.032 . S
O148 C151 1.259 1_565 S
O149 Mg140 2.114 1_565 S
O149 C152 1.252 . S
O150 Mg140 2.251 1_565 S
O150 Mg143 2.079 . S
O150 C152 1.273 . S
C151 O147 1.246 . S
C151 O148 1.259 1_545 S
C152 O149 1.252 . S
C152 O150 1.273 . S
O153 Mg140 2.010 . S
O153 C145 1.249 . S
Mg154 O155 2.028 . S
Mg154 O161 1.986 . S
Mg154 O163 2.114 1_655 S
Mg154 O164 2.251 1_655 S
Mg154 O167 2.010 . S
O155 Mg154 2.028 . S
O155 C158 1.250 . S
O156 Mg157 2.028 1_655 S
O156 C158 1.248 . S
Mg157 O156 2.028 1_455 S
Mg157 O162 2.032 . S
Mg157 O164 2.079 . S
C158 O155 1.250 . S
C158 O156 1.248 . S
C159 O160 1.264 . S
C159 O167 1.249 . S
O160 C159 1.264 . S
O161 Mg154 1.986 . S
O161 C165 1.246 . S
O162 Mg157 2.032 . S
O162 C165 1.259 1_455 S
O163 Mg154 2.114 1_455 S
O163 C166 1.252 . S
O164 Mg154 2.251 1_455 S
O164 Mg157 2.079 . S
O164 C166 1.273 . S
C165 O161 1.246 . S
C165 O162 1.259 1_655 S
C166 O163 1.252 . S
C166 O164 1.273 . S
O167 Mg154 2.010 . S
O167 C159 1.249 . S
Mg168 O169 2.028 . S
Mg168 O175 1.986 . S
Mg168 O177 2.114 . S
Mg168 O178 2.251 . S
Mg168 O181 2.010 . S
O169 Mg168 2.028 . S
O169 C172 1.250 . S
O170 Mg171 2.028 . S
O170 C172 1.248 . S
Mg171 O170 2.028 . S
Mg171 O176 2.032 . S
Mg171 O178 2.079 . S
C172 O169 1.250 . S
C172 O170 1.248 . S
C173 O174 1.264 . S
C173 O181 1.249 . S
O174 C173 1.264 . S
O175 Mg168 1.986 . S
O175 C179 1.246 . S
O176 Mg171 2.032 . S
O176 C179 1.259 . S
O177 Mg168 2.114 . S
O177 C180 1.252 . S
O178 Mg168 2.251 . S
O178 Mg171 2.079 . S
O178 C180 1.273 . S
C179 O175 1.246 . S
C179 O176 1.259 . S
C180 O177 1.252 . S
C180 O178 1.273 . S
O181 Mg168 2.010 . S
O181 C173 1.249 . S
Mg182 O183 2.028 . S
Mg182 O189 1.986 . S
Mg182 O191 2.114 . S
Mg182 O192 2.251 . S
Mg182 O195 2.010 . S
O183 Mg182 2.028 . S
O183 C186 1.250 . S
O184 Mg185 2.028 . S
O184 C186 1.248 . S
Mg185 O184 2.028 . S
Mg185 O190 2.032 . S
Mg185 O192 2.079 . S
C186 O183 1.250 . S
C186 O184 1.248 . S
C187 O188 1.264 . S
C187 O195 1.249 . S
O188 C187 1.264 . S
O189 Mg182 1.986 . S
O189 C193 1.246 . S
O190 Mg185 2.032 . S
O190 C193 1.259 . S
O191 Mg182 2.114 . S
O191 C194 1.252 . S
O192 Mg182 2.251 . S
O192 Mg185 2.079 . S
O192 C194 1.273 . S
C193 O189 1.246 . S
C193 O190 1.259 . S
C194 O191 1.252 . S
C194 O192 1.273 . S
O195 Mg182 2.010 . S
O195 C187 1.249 . S
Mg196 O197 2.028 . S
Mg196 O203 1.986 . S
Mg196 O205 2.114 . S
Mg196 O206 2.251 . S
Mg196 O209 2.010 . S
O197 Mg196 2.028 . S
O197 C200 1.250 . S
O198 Mg199 2.028 . S
O198 C200 1.248 . S
Mg199 O198 2.028 . S
Mg199 O204 2.032 . S
Mg199 O206 2.079 . S
C200 O197 1.250 . S
C200 O198 1.248 . S
C201 O202 1.264 . S
C201 O209 1.249 . S
O202 C201 1.264 . S
O203 Mg196 1.986 . S
O203 C207 1.246 . S
O204 Mg199 2.032 . S
O204 C207 1.259 . S
O205 Mg196 2.114 . S
O205 C208 1.252 . S
O206 Mg196 2.251 . S
O206 Mg199 2.079 . S
O206 C208 1.273 . S
C207 O203 1.246 . S
C207 O204 1.259 . S
C208 O205 1.252 . S
C208 O206 1.273 . S
O209 Mg196 2.010 . S
O209 C201 1.249 . S
Mg210 O211 2.028 . S
Mg210 O217 1.986 . S
Mg210 O219 2.114 . S
Mg210 O220 2.251 . S
Mg210 O223 2.010 . S
O211 Mg210 2.028 . S
O211 C214 1.250 . S
O212 Mg213 2.028 . S
O212 C214 1.248 . S
Mg213 O212 2.028 . S
Mg213 O218 2.032 . S
Mg213 O220 2.079 . S
C214 O211 1.250 . S
C214 O212 1.248 . S
C215 O216 1.264 . S
C215 O223 1.249 . S
O216 C215 1.264 . S
O217 Mg210 1.986 . S
O217 C221 1.246 . S
O218 Mg213 2.032 . S
O218 C221 1.259 . S
O219 Mg210 2.114 . S
O219 C222 1.252 . S
O220 Mg210 2.251 . S
O220 Mg213 2.079 . S
O220 C222 1.273 . S
C221 O217 1.246 . S
C221 O218 1.259 . S
C222 O219 1.252 . S
C222 O220 1.273 . S
O223 Mg210 2.010 . S
O223 C215 1.249 . S
Mg224 O225 2.028 . S
Mg224 O231 1.986 . S
Mg224 O233 2.114 . S
Mg224 O234 2.251 . S
Mg224 O237 2.010 . S
O225 Mg224 2.028 . S
O225 C228 1.250 . S
O226 Mg227 2.028 . S
O226 C228 1.248 . S
Mg227 O226 2.028 . S
Mg227 O232 2.032 . S
Mg227 O234 2.079 . S
C228 O225 1.250 . S
C228 O226 1.248 . S
C229 O230 1.264 . S
C229 O237 1.249 . S
O230 C229 1.264 . S
O231 Mg224 1.986 . S
O231 C235 1.246 . S
O232 Mg227 2.032 . S
O232 C235 1.259 . S
O233 Mg224 2.114 . S
O233 C236 1.252 . S
O234 Mg224 2.251 . S
O234 Mg227 2.079 . S
O234 C236 1.273 . S
C235 O231 1.246 . S
C235 O232 1.259 . S
C236 O233 1.252 . S
C236 O234 1.273 . S
O237 Mg224 2.010 . S
O237 C229 1.249 . S
Mg238 O239 2.028 . S
Mg238 O245 1.986 . S
Mg238 O247 2.114 . S
Mg238 O248 2.251 . S
Mg238 O251 2.010 . S
O239 Mg238 2.028 . S
O239 C242 1.250 . S
O240 Mg241 2.028 . S
O240 C242 1.248 . S
Mg241 O240 2.028 . S
Mg241 O246 2.032 . S
Mg241 O248 2.079 . S
C242 O239 1.250 . S
C242 O240 1.248 . S
C243 O244 1.264 . S
C243 O251 1.249 . S
O244 C243 1.264 . S
O245 Mg238 1.986 . S
O245 C249 1.246 . S
O246 Mg241 2.032 . S
O246 C249 1.259 . S
O247 Mg238 2.114 . S
O247 C250 1.252 . S
O248 Mg238 2.251 . S
O248 Mg241 2.079 . S
O248 C250 1.273 . S
C249 O245 1.246 . S
C249 O246 1.259 . S
C250 O247 1.252 . S
C250 O248 1.273 . S
O251 Mg238 2.010 . S
O251 C243 1.249 . S
Mg252 O253 2.028 . S
Mg252 O259 1.986 . S
Mg252 O261 2.114 . S
Mg252 O262 2.251 . S
Mg252 O265 2.010 . S
O253 Mg252 2.028 . S
O253 C256 1.250 . S
O254 Mg255 2.028 . S
O254 C256 1.248 . S
Mg255 O254 2.028 . S
Mg255 O260 2.032 . S
Mg255 O262 2.079 . S
C256 O253 1.250 . S
C256 O254 1.248 . S
C257 O258 1.264 . S
C257 O265 1.249 . S
O258 C257 1.264 . S
O259 Mg252 1.986 . S
O259 C263 1.246 . S
O260 Mg255 2.032 . S
O260 C263 1.259 . S
O261 Mg252 2.114 . S
O261 C264 1.252 . S
O262 Mg252 2.251 . S
O262 Mg255 2.079 . S
O262 C264 1.273 . S
C263 O259 1.246 . S
C263 O260 1.259 . S
C264 O261 1.252 . S
C264 O262 1.273 . S
O265 Mg252 2.010 . S
O265 C257 1.249 . S
Mg266 O267 2.028 . S
Mg266 O273 1.986 . S
Mg266 O275 2.114 . S
Mg266 O276 2.251 . S
Mg266 O279 2.010 . S
O267 Mg266 2.028 . S
O267 C270 1.250 . S
O268 Mg269 2.028 . S
O268 C270 1.248 . S
Mg269 O268 2.028 . S
Mg269 O274 2.032 . S
Mg269 O276 2.079 . S
C270 O267 1.250 . S
C270 O268 1.248 . S
C271 O272 1.264 . S
C271 O279 1.249 . S
O272 C271 1.264 . S
O273 Mg266 1.986 . S
O273 C277 1.246 . S
O274 Mg269 2.032 . S
O274 C277 1.259 . S
O275 Mg266 2.114 . S
O275 C278 1.252 . S
O276 Mg266 2.251 . S
O276 Mg269 2.079 . S
O276 C278 1.273 . S
C277 O273 1.246 . S
C277 O274 1.259 . S
C278 O275 1.252 . S
C278 O276 1.273 . S
O279 Mg266 2.010 . S
O279 C271 1.249 . S
Mg280 O281 2.028 . S
Mg280 O287 1.986 . S
Mg280 O289 2.114 . S
Mg280 O290 2.251 . S
Mg280 O293 2.010 . S
O281 Mg280 2.028 . S
O281 C284 1.250 . S
O282 Mg283 2.028 . S
O282 C284 1.248 . S
Mg283 O282 2.028 . S
Mg283 O288 2.032 . S
Mg283 O290 2.079 . S
C284 O281 1.250 . S
C284 O282 1.248 . S
C285 O286 1.264 . S
C285 O293 1.249 . S
O286 C285 1.264 . S
O287 Mg280 1.986 . S
O287 C291 1.246 . S
O288 Mg283 2.032 . S
O288 C291 1.259 . S
O289 Mg280 2.114 . S
O289 C292 1.252 . S
O290 Mg280 2.251 . S
O290 Mg283 2.079 . S
O290 C292 1.273 . S
C291 O287 1.246 . S
C291 O288 1.259 . S
C292 O289 1.252 . S
C292 O290 1.273 . S
O293 Mg280 2.010 . S
O293 C285 1.249 . S
Mg294 O295 2.028 . S
Mg294 O301 1.986 . S
Mg294 O303 2.114 . S
Mg294 O304 2.251 . S
Mg294 O307 2.010 . S
O295 Mg294 2.028 . S
O295 C298 1.250 . S
O296 Mg297 2.028 . S
O296 C298 1.248 . S
Mg297 O296 2.028 . S
Mg297 O302 2.032 . S
Mg297 O304 2.079 . S
C298 O295 1.250 . S
C298 O296 1.248 . S
C299 O300 1.264 . S
C299 O307 1.249 . S
O300 C299 1.264 . S
O301 Mg294 1.986 . S
O301 C305 1.246 . S
O302 Mg297 2.032 . S
O302 C305 1.259 . S
O303 Mg294 2.114 . S
O303 C306 1.252 . S
O304 Mg294 2.251 . S
O304 Mg297 2.079 . S
O304 C306 1.273 . S
C305 O301 1.246 . S
C305 O302 1.259 . S
C306 O303 1.252 . S
C306 O304 1.273 . S
O307 Mg294 2.010 . S
O307 C299 1.249 . S
Mg308 O309 2.028 . S
Mg308 O315 1.986 . S
Mg308 O317 2.114 . S
Mg308 O318 2.251 . S
Mg308 O321 2.010 . S
O309 Mg308 2.028 . S
O309 C312 1.250 . S
O310 Mg311 2.028 . S
O310 C312 1.248 . S
Mg311 O310 2.028 . S
Mg311 O316 2.032 . S
Mg311 O318 2.079 . S
C312 O309 1.250 . S
C312 O310 1.248 . S
C313 O314 1.264 . S
C313 O321 1.249 . S
O314 C313 1.264 . S
O315 Mg308 1.986 . S
O315 C319 1.246 . S
O316 Mg311 2.032 . S
O316 C319 1.259 . S
O317 Mg308 2.114 . S
O317 C320 1.252 . S
O318 Mg308 2.251 . S
O318 Mg311 2.079 . S
O318 C320 1.273 . S
C319 O315 1.246 . S
C319 O316 1.259 . S
C320 O317 1.252 . S
C320 O318 1.273 . S
O321 Mg308 2.010 . S
O321 C313 1.249 . S
Mg322 O323 2.028 . S
Mg322 O329 1.986 . S
Mg322 O331 2.114 . S
Mg322 O332 2.251 . S
Mg322 O335 2.010 . S
O323 Mg322 2.028 . S
O323 C326 1.250 . S
O324 Mg325 2.028 . S
O324 C326 1.248 . S
Mg325 O324 2.028 . S
Mg325 O330 2.032 . S
Mg325 O332 2.079 . S
C326 O323 1.250 . S
C326 O324 1.248 . S
C327 O328 1.264 . S
C327 O335 1.249 . S
O328 C327 1.264 . S
O329 Mg322 1.986 . S
O329 C333 1.246 . S
O330 Mg325 2.032 . S
O330 C333 1.259 . S
O331 Mg322 2.114 . S
O331 C334 1.252 . S
O332 Mg322 2.251 . S
O332 Mg325 2.079 . S
O332 C334 1.273 . S
C333 O329 1.246 . S
C333 O330 1.259 . S
C334 O331 1.252 . S
C334 O332 1.273 . S
O335 Mg322 2.010 . S
O335 C327 1.249 . S
Mg336 O337 2.028 . S
Mg336 O343 1.986 . S
Mg336 O345 2.114 . S
Mg336 O346 2.251 . S
Mg336 O349 2.010 . S
O337 Mg336 2.028 . S
O337 C340 1.250 . S
O338 Mg339 2.028 . S
O338 C340 1.248 . S
Mg339 O338 2.028 . S
Mg339 O344 2.032 . S
Mg339 O346 2.079 . S
C340 O337 1.250 . S
C340 O338 1.248 . S
C341 O342 1.264 . S
C341 O349 1.249 . S
O342 C341 1.264 . S
O343 Mg336 1.986 . S
O343 C347 1.246 . S
O344 Mg339 2.032 . S
O344 C347 1.259 . S
O345 Mg336 2.114 . S
O345 C348 1.252 . S
O346 Mg336 2.251 . S
O346 Mg339 2.079 . S
O346 C348 1.273 . S
C347 O343 1.246 . S
C347 O344 1.259 . S
C348 O345 1.252 . S
C348 O346 1.273 . S
O349 Mg336 2.010 . S
O349 C341 1.249 . S
Mg350 O351 2.028 . S
Mg350 O357 1.986 . S
Mg350 O359 2.114 . S
Mg350 O360 2.251 . S
Mg350 O363 2.010 . S
O351 Mg350 2.028 . S
O351 C354 1.250 . S
O352 Mg353 2.028 . S
O352 C354 1.248 . S
Mg353 O352 2.028 . S
Mg353 O358 2.032 . S
Mg353 O360 2.079 . S
C354 O351 1.250 . S
C354 O352 1.248 . S
C355 O356 1.264 . S
C355 O363 1.249 . S
O356 C355 1.264 . S
O357 Mg350 1.986 . S
O357 C361 1.246 . S
O358 Mg353 2.032 . S
O358 C361 1.259 . S
O359 Mg350 2.114 . S
O359 C362 1.252 . S
O360 Mg350 2.251 . S
O360 Mg353 2.079 . S
O360 C362 1.273 . S
C361 O357 1.246 . S
C361 O358 1.259 . S
C362 O359 1.252 . S
C362 O360 1.273 . S
O363 Mg350 2.010 . S
O363 C355 1.249 . S
Mg364 O365 2.028 . S
Mg364 O371 1.986 . S
Mg364 O373 2.114 . S
Mg364 O374 2.251 . S
Mg364 O377 2.010 . S
O365 Mg364 2.028 . S
O365 C368 1.250 . S
O366 Mg367 2.028 . S
O366 C368 1.248 . S
Mg367 O366 2.028 . S
Mg367 O372 2.032 . S
Mg367 O374 2.079 . S
C368 O365 1.250 . S
C368 O366 1.248 . S
C369 O370 1.264 . S
C369 O377 1.249 . S
O370 C369 1.264 . S
O371 Mg364 1.986 . S
O371 C375 1.246 . S
O372 Mg367 2.032 . S
O372 C375 1.259 . S
O373 Mg364 2.114 . S
O373 C376 1.252 . S
O374 Mg364 2.251 . S
O374 Mg367 2.079 . S
O374 C376 1.273 . S
C375 O371 1.246 . S
C375 O372 1.259 . S
C376 O373 1.252 . S
C376 O374 1.273 . S
O377 Mg364 2.010 . S
O377 C369 1.249 . S
Mg378 O379 2.028 . S
Mg378 O385 1.986 . S
Mg378 O387 2.114 . S
Mg378 O388 2.251 . S
Mg378 O391 2.010 . S
O379 Mg378 2.028 . S
O379 C382 1.250 . S
O380 Mg381 2.028 . S
O380 C382 1.248 . S
Mg381 O380 2.028 . S
Mg381 O386 2.032 . S
Mg381 O388 2.079 . S
C382 O379 1.250 . S
C382 O380 1.248 . S
C383 O384 1.264 . S
C383 O391 1.249 . S
O384 C383 1.264 . S
O385 Mg378 1.986 . S
O385 C389 1.246 . S
O386 Mg381 2.032 . S
O386 C389 1.259 . S
O387 Mg378 2.114 . S
O387 C390 1.252 . S
O388 Mg378 2.251 . S
O388 Mg381 2.079 . S
O388 C390 1.273 . S
C389 O385 1.246 . S
C389 O386 1.259 . S
C390 O387 1.252 . S
C390 O388 1.273 . S
O391 Mg378 2.010 . S
O391 C383 1.249 . S
Mg392 O393 2.028 . S
Mg392 O399 1.986 . S
Mg392 O401 2.114 . S
Mg392 O402 2.251 . S
Mg392 O405 2.010 . S
O393 Mg392 2.028 . S
O393 C396 1.250 . S
O394 Mg395 2.028 . S
O394 C396 1.248 . S
Mg395 O394 2.028 . S
Mg395 O400 2.032 . S
Mg395 O402 2.079 . S
C396 O393 1.250 . S
C396 O394 1.248 . S
C397 O398 1.264 . S
C397 O405 1.249 . S
O398 C397 1.264 . S
O399 Mg392 1.986 . S
O399 C403 1.246 . S
O400 Mg395 2.032 . S
O400 C403 1.259 . S
O401 Mg392 2.114 . S
O401 C404 1.252 . S
O402 Mg392 2.251 . S
O402 Mg395 2.079 . S
O402 C404 1.273 . S
C403 O399 1.246 . S
C403 O400 1.259 . S
C404 O401 1.252 . S
C404 O402 1.273 . S
O405 Mg392 2.010 . S
O405 C397 1.249 . S
Mg406 O407 2.028 . S
Mg406 O413 1.986 . S
Mg406 O415 2.114 . S
Mg406 O416 2.251 . S
Mg406 O419 2.010 . S
O407 Mg406 2.028 . S
O407 C410 1.250 . S
O408 Mg409 2.028 . S
O408 C410 1.248 . S
Mg409 O408 2.028 . S
Mg409 O414 2.032 . S
Mg409 O416 2.079 . S
C410 O407 1.250 . S
C410 O408 1.248 . S
C411 O412 1.264 . S
C411 O419 1.249 . S
O412 C411 1.264 . S
O413 Mg406 1.986 . S
O413 C417 1.246 . S
O414 Mg409 2.032 . S
O414 C417 1.259 . S
O415 Mg406 2.114 . S
O415 C418 1.252 . S
O416 Mg406 2.251 . S
O416 Mg409 2.079 . S
O416 C418 1.273 . S
C417 O413 1.246 . S
C417 O414 1.259 . S
C418 O415 1.252 . S
C418 O416 1.273 . S
O419 Mg406 2.010 . S
O419 C411 1.249 . S
Mg420 O421 2.028 . S
Mg420 O427 1.986 . S
Mg420 O429 2.114 . S
Mg420 O430 2.251 . S
Mg420 O433 2.010 . S
O421 Mg420 2.028 . S
O421 C424 1.250 . S
O422 Mg423 2.028 . S
O422 C424 1.248 . S
Mg423 O422 2.028 . S
Mg423 O428 2.032 . S
Mg423 O430 2.079 . S
C424 O421 1.250 . S
C424 O422 1.248 . S
C425 O426 1.264 . S
C425 O433 1.249 . S
O426 C425 1.264 . S
O427 Mg420 1.986 . S
O427 C431 1.246 . S
O428 Mg423 2.032 . S
O428 C431 1.259 . S
O429 Mg420 2.114 . S
O429 C432 1.252 . S
O430 Mg420 2.251 . S
O430 Mg423 2.079 . S
O430 C432 1.273 . S
C431 O427 1.246 . S
C431 O428 1.259 . S
C432 O429 1.252 . S
C432 O430 1.273 . S
O433 Mg420 2.010 . S
O433 C425 1.249 . S
Mg434 O435 2.028 . S
Mg434 O441 1.986 . S
Mg434 O443 2.114 . S
Mg434 O444 2.251 . S
Mg434 O447 2.010 . S
O435 Mg434 2.028 . S
O435 C438 1.250 . S
O436 Mg437 2.028 . S
O436 C438 1.248 . S
Mg437 O436 2.028 . S
Mg437 O442 2.032 . S
Mg437 O444 2.079 . S
C438 O435 1.250 . S
C438 O436 1.248 . S
C439 O440 1.264 . S
C439 O447 1.249 . S
O440 C439 1.264 . S
O441 Mg434 1.986 . S
O441 C445 1.246 . S
O442 Mg437 2.032 . S
O442 C445 1.259 . S
O443 Mg434 2.114 . S
O443 C446 1.252 . S
O444 Mg434 2.251 . S
O444 Mg437 2.079 . S
O444 C446 1.273 . S
C445 O441 1.246 . S
C445 O442 1.259 . S
C446 O443 1.252 . S
C446 O444 1.273 . S
O447 Mg434 2.010 . S
O447 C439 1.249 . S
Mg448 O449 2.028 . S
Mg448 O455 1.986 . S
Mg448 O457 2.114 . S
Mg448 O458 2.251 . S
Mg448 O461 2.010 . S
O449 Mg448 2.028 . S
O449 C452 1.250 . S
O450 Mg451 2.028 . S
O450 C452 1.248 . S
Mg451 O450 2.028 . S
Mg451 O456 2.032 . S
Mg451 O458 2.079 . S
C452 O449 1.250 . S
C452 O450 1.248 . S
C453 O454 1.264 . S
C453 O461 1.249 . S
O454 C453 1.264 . S
O455 Mg448 1.986 . S
O455 C459 1.246 . S
O456 Mg451 2.032 . S
O456 C459 1.259 . S
O457 Mg448 2.114 . S
O457 C460 1.252 . S
O458 Mg448 2.251 . S
O458 Mg451 2.079 . S
O458 C460 1.273 . S
C459 O455 1.246 . S
C459 O456 1.259 . S
C460 O457 1.252 . S
C460 O458 1.273 . S
O461 Mg448 2.010 . S
O461 C453 1.249 . S
Mg462 O463 2.028 . S
Mg462 O469 1.986 . S
Mg462 O471 2.114 . S
Mg462 O472 2.251 . S
Mg462 O475 2.010 . S
O463 Mg462 2.028 . S
O463 C466 1.250 . S
O464 Mg465 2.028 . S
O464 C466 1.248 . S
Mg465 O464 2.028 . S
Mg465 O470 2.032 . S
Mg465 O472 2.079 . S
C466 O463 1.250 . S
C466 O464 1.248 . S
C467 O468 1.264 . S
C467 O475 1.249 . S
O468 C467 1.264 . S
O469 Mg462 1.986 . S
O469 C473 1.246 . S
O470 Mg465 2.032 . S
O470 C473 1.259 . S
O471 Mg462 2.114 . S
O471 C474 1.252 . S
O472 Mg462 2.251 . S
O472 Mg465 2.079 . S
O472 C474 1.273 . S
C473 O469 1.246 . S
C473 O470 1.259 . S
C474 O471 1.252 . S
C474 O472 1.273 . S
O475 Mg462 2.010 . S
O475 C467 1.249 . S
Mg476 O477 2.028 . S
Mg476 O483 1.986 . S
Mg476 O485 2.114 . S
Mg476 O486 2.251 . S
Mg476 O489 2.010 . S
O477 Mg476 2.028 . S
O477 C480 1.250 . S
O478 Mg479 2.028 . S
O478 C480 1.248 . S
Mg479 O478 2.028 . S
Mg479 O484 2.032 . S
Mg479 O486 2.079 . S
C480 O477 1.250 . S
C480 O478 1.248 . S
C481 O482 1.264 . S
C481 O489 1.249 . S
O482 C481 1.264 . S
O483 Mg476 1.986 . S
O483 C487 1.246 . S
O484 Mg479 2.032 . S
O484 C487 1.259 . S
O485 Mg476 2.114 . S
O485 C488 1.252 . S
O486 Mg476 2.251 . S
O486 Mg479 2.079 . S
O486 C488 1.273 . S
C487 O483 1.246 . S
C487 O484 1.259 . S
C488 O485 1.252 . S
C488 O486 1.273 . S
O489 Mg476 2.010 . S
O489 C481 1.249 . S
Mg490 O491 2.028 . S
Mg490 O497 1.986 . S
Mg490 O499 2.114 . S
Mg490 O500 2.251 . S
Mg490 O503 2.010 . S
O491 Mg490 2.028 . S
O491 C494 1.250 . S
O492 Mg493 2.028 . S
O492 C494 1.248 . S
Mg493 O492 2.028 . S
Mg493 O498 2.032 . S
Mg493 O500 2.079 . S
C494 O491 1.250 . S
C494 O492 1.248 . S
C495 O496 1.264 . S
C495 O503 1.249 . S
O496 C495 1.264 . S
O497 Mg490 1.986 . S
O497 C501 1.246 . S
O498 Mg493 2.032 . S
O498 C501 1.259 . S
O499 Mg490 2.114 . S
O499 C502 1.252 . S
O500 Mg490 2.251 . S
O500 Mg493 2.079 . S
O500 C502 1.273 . S
C501 O497 1.246 . S
C501 O498 1.259 . S
C502 O499 1.252 . S
C502 O500 1.273 . S
O503 Mg490 2.010 . S
O503 C495 1.249 . S
H504 C516 0.930 . S
H505 C518 0.930 . S
H506 C519 0.930 . S
H507 C523 0.970 . S
H508 C523 0.985 . S
H509 C523 0.945 1_455 S
H510 C524 0.960 . S
H511 C524 0.961 1_655 S
H512 C524 0.959 . S
H513 C527 0.929 . S
H514 C528 0.931 . S
H515 C530 0.930 . S
C516 H504 0.930 . S
C516 C517 1.399 . S
C516 C521 1.399 . S
C517 C516 1.399 . S
C517 C518 1.376 . S
C518 H505 0.930 . S
C518 C517 1.376 . S
C518 C519 1.388 . S
C519 H506 0.930 . S
C519 C518 1.388 . S
C519 C520 1.390 . S
C520 C519 1.390 . S
C520 C521 1.394 . S
C520 C526 1.465 1_455 S
C521 C516 1.399 . S
C521 C520 1.394 . S
C521 C522 1.516 . S
C522 C521 1.516 . S
C522 C523 1.482 1_455 S
C522 C524 1.561 . S
C522 C525 1.526 1_455 S
C523 H507 0.970 . S
C523 H508 0.985 . S
C523 H509 0.945 1_655 S
C523 C522 1.482 1_655 S
C524 H510 0.960 . S
C524 H511 0.961 1_455 S
C524 H512 0.959 . S
C524 C522 1.561 . S
C525 C522 1.526 1_655 S
C525 C526 1.396 . S
C525 C530 1.390 . S
C526 C520 1.465 1_655 S
C526 C525 1.396 . S
C526 C527 1.399 . S
C527 H513 0.929 . S
C527 C526 1.399 . S
C527 C528 1.385 . S
C528 H514 0.931 . S
C528 C527 1.385 . S
C528 C529 1.389 . S
C529 C528 1.389 . S
C529 C530 1.387 . S
C530 H515 0.930 . S
C530 C525 1.390 . S
C530 C529 1.387 . S
H531 C543 0.930 . S
H532 C545 0.930 . S
H533 C546 0.930 . S
H534 C550 0.959 . S
H535 C550 0.959 . S
H536 C550 0.961 . S
H537 C551 0.960 . S
H538 C551 0.961 . S
H539 C551 0.959 . S
H540 C554 0.929 . S
H541 C555 0.931 . S
H542 C557 0.930 . S
C543 H531 0.930 . S
C543 C544 1.399 . S
C543 C548 1.399 . S
C544 C543 1.399 . S
C544 C545 1.376 . S
C545 H532 0.930 . S
C545 C544 1.376 . S
C545 C546 1.388 . S
C546 H533 0.930 . S
C546 C545 1.388 . S
C546 C547 1.390 . S
C547 C546 1.390 . S
C547 C548 1.394 . S
C547 C553 1.465 . S
C548 C543 1.399 . S
C548 C547 1.394 . S
C548 C549 1.516 . S
C549 C548 1.516 . S
C549 C550 1.502 . S
C549 C551 1.561 . S
C549 C552 1.526 . S
C550 H534 0.959 . S
C550 H535 0.959 . S
C550 H536 0.961 . S
C550 C549 1.502 . S
C551 H537 0.960 . S
C551 H538 0.961 . S
C551 H539 0.959 . S
C551 C549 1.561 . S
C552 C549 1.526 . S
C552 C553 1.396 . S
C552 C557 1.390 . S
C553 C547 1.465 . S
C553 C552 1.396 . S
C553 C554 1.399 . S
C554 H540 0.929 . S
C554 C553 1.399 . S
C554 C555 1.385 . S
C555 H541 0.931 . S
C555 C554 1.385 . S
C555 C556 1.389 . S
C556 C555 1.389 . S
C556 C557 1.387 . S
C557 H542 0.930 . S
C557 C552 1.390 . S
C557 C556 1.387 . S
H558 C570 0.930 . S
H559 C572 0.930 . S
H560 C573 0.930 . S
H561 C577 0.959 . S
H562 C577 0.959 . S
H563 C577 0.961 1_545 S
H564 C578 0.960 1_545 S
H565 C578 0.961 . S
H566 C578 0.959 . S
H567 C581 0.929 . S
H568 C582 0.931 . S
H569 C584 0.930 . S
C570 H558 0.930 . S
C570 C571 1.399 . S
C570 C575 1.399 . S
C571 C570 1.399 . S
C571 C572 1.376 . S
C572 H559 0.930 . S
C572 C571 1.376 . S
C572 C573 1.388 . S
C573 H560 0.930 . S
C573 C572 1.388 . S
C573 C574 1.390 . S
C574 C573 1.390 . S
C574 C575 1.394 . S
C574 C580 1.465 1_545 S
C575 C570 1.399 . S
C575 C574 1.394 . S
C575 C576 1.516 1_545 S
C576 C575 1.516 1_565 S
C576 C577 1.502 . S
C576 C578 1.561 . S
C576 C579 1.526 . S
C577 H561 0.959 . S
C577 H562 0.959 . S
C577 H563 0.961 1_565 S
C577 C576 1.502 . S
C578 H564 0.960 1_565 S
C578 H565 0.961 . S
C578 H566 0.959 . S
C578 C576 1.561 . S
C579 C576 1.526 . S
C579 C580 1.396 . S
C579 C584 1.390 . S
C580 C574 1.465 1_565 S
C580 C579 1.396 . S
C580 C581 1.399 . S
C581 H567 0.929 . S
C581 C580 1.399 . S
C581 C582 1.385 . S
C582 H568 0.931 . S
C582 C581 1.385 . S
C582 C583 1.389 . S
C583 C582 1.389 . S
C583 C584 1.387 . S
C584 H569 0.930 . S
C584 C579 1.390 . S
C584 C583 1.387 . S
H585 C597 0.930 . S
H586 C599 0.930 . S
H587 C600 0.930 . S
H588 C604 0.959 . S
H589 C604 0.959 . S
H590 C604 0.961 . S
H591 C605 0.960 . S
H592 C605 0.961 . S
H593 C605 0.959 . S
H594 C608 0.929 . S
H595 C609 0.931 . S
H596 C611 0.930 . S
C597 H585 0.930 . S
C597 C598 1.399 . S
C597 C602 1.399 . S
C598 C597 1.399 . S
C598 C599 1.376 . S
C599 H586 0.930 . S
C599 C598 1.376 . S
C599 C600 1.388 . S
C600 H587 0.930 . S
C600 C599 1.388 . S
C600 C601 1.390 . S
C601 C600 1.390 . S
C601 C602 1.394 . S
C601 C607 1.465 1_545 S
C602 C597 1.399 . S
C602 C601 1.394 . S
C602 C603 1.516 . S
C603 C602 1.516 . S
C603 C604 1.502 . S
C603 C605 1.561 . S
C603 C606 1.526 1_545 S
C604 H588 0.959 . S
C604 H589 0.959 . S
C604 H590 0.961 . S
C604 C603 1.502 . S
C605 H591 0.960 . S
C605 H592 0.961 . S
C605 H593 0.959 . S
C605 C603 1.561 . S
C606 C603 1.526 1_565 S
C606 C607 1.396 . S
C606 C611 1.390 . S
C607 C601 1.465 1_565 S
C607 C606 1.396 . S
C607 C608 1.399 . S
C608 H594 0.929 . S
C608 C607 1.399 . S
C608 C609 1.385 . S
C609 H595 0.931 . S
C609 C608 1.385 . S
C609 C610 1.389 . S
C610 C609 1.389 . S
C610 C611 1.387 . S
C611 H596 0.930 . S
C611 C606 1.390 . S
C611 C610 1.387 . S
H612 C624 0.930 . S
H613 C626 0.930 . S
H614 C627 0.930 . S
H615 C631 0.959 . S
H616 C631 0.959 . S
H617 C631 0.961 . S
H618 C632 0.960 . S
H619 C632 0.961 . S
H620 C632 0.959 . S
H621 C635 0.929 . S
H622 C636 0.931 . S
H623 C638 0.930 . S
C624 H612 0.930 . S
C624 C625 1.399 . S
C624 C629 1.399 . S
C625 C624 1.399 . S
C625 C626 1.376 . S
C626 H613 0.930 . S
C626 C625 1.376 . S
C626 C627 1.388 . S
C627 H614 0.930 . S
C627 C626 1.388 . S
C627 C628 1.390 . S
C628 C627 1.390 . S
C628 C629 1.394 . S
C628 C634 1.465 1_655 S
C629 C624 1.399 . S
C629 C628 1.394 . S
C629 C630 1.516 . S
C630 C629 1.516 . S
C630 C631 1.502 . S
C630 C632 1.561 . S
C630 C633 1.526 1_655 S
C631 H615 0.959 . S
C631 H616 0.959 . S
C631 H617 0.961 . S
C631 C630 1.502 . S
C632 H618 0.960 . S
C632 H619 0.961 . S
C632 H620 0.959 . S
C632 C630 1.561 . S
C633 C630 1.526 1_455 S
C633 C634 1.396 . S
C633 C638 1.390 . S
C634 C628 1.465 1_455 S
C634 C633 1.396 . S
C634 C635 1.399 . S
C635 H621 0.929 . S
C635 C634 1.399 . S
C635 C636 1.385 . S
C636 H622 0.931 . S
C636 C635 1.385 . S
C636 C637 1.389 . S
C637 C636 1.389 . S
C637 C638 1.387 . S
C638 H623 0.930 . S
C638 C633 1.390 . S
C638 C637 1.387 . S
H639 C651 0.930 . S
H640 C653 0.930 . S
H641 C654 0.930 . S
H642 C658 0.959 . S
H643 C658 0.959 . S
H644 C658 0.961 . S
H645 C659 0.960 . S
H646 C659 0.961 . S
H647 C659 0.959 . S
H648 C662 0.929 . S
H649 C663 0.931 . S
H650 C665 0.930 . S
C651 H639 0.930 . S
C651 C652 1.399 . S
C651 C656 1.399 . S
C652 C651 1.399 . S
C652 C653 1.376 . S
C653 H640 0.930 . S
C653 C652 1.376 . S
C653 C654 1.388 . S
C654 H641 0.930 . S
C654 C653 1.388 . S
C654 C655 1.390 . S
C655 C654 1.390 . S
C655 C656 1.394 . S
C655 C661 1.465 . S
C656 C651 1.399 . S
C656 C655 1.394 . S
C656 C657 1.516 . S
C657 C656 1.516 . S
C657 C658 1.502 . S
C657 C659 1.561 . S
C657 C660 1.526 . S
C658 H642 0.959 . S
C658 H643 0.959 . S
C658 H644 0.961 . S
C658 C657 1.502 . S
C659 H645 0.960 . S
C659 H646 0.961 . S
C659 H647 0.959 . S
C659 C657 1.561 . S
C660 C657 1.526 . S
C660 C661 1.396 . S
C660 C665 1.390 . S
C661 C655 1.465 . S
C661 C660 1.396 . S
C661 C662 1.399 . S
C662 H648 0.929 . S
C662 C661 1.399 . S
C662 C663 1.385 . S
C663 H649 0.931 . S
C663 C662 1.385 . S
C663 C664 1.389 . S
C664 C663 1.389 . S
C664 C665 1.387 . S
C665 H650 0.930 . S
C665 C660 1.390 . S
C665 C664 1.387 . S
H666 C678 0.930 . S
H667 C680 0.930 . S
H668 C681 0.930 . S
H669 C685 0.959 . S
H670 C685 0.959 1_455 S
H671 C685 0.961 . S
H672 C686 0.960 . S
H673 C686 0.961 1_455 S
H674 C686 0.959 1_455 S
H675 C689 0.929 . S
H676 C690 0.931 . S
H677 C692 0.930 . S
C678 H666 0.930 . S
C678 C679 1.399 . S
C678 C683 1.399 . S
C679 C678 1.399 . S
C679 C680 1.376 . S
C680 H667 0.930 . S
C680 C679 1.376 . S
C680 C681 1.388 . S
C681 H668 0.930 . S
C681 C680 1.388 . S
C681 C682 1.390 . S
C682 C681 1.390 . S
C682 C683 1.394 . S
C682 C688 1.465 1_655 S
C683 C678 1.399 . S
C683 C682 1.394 . S
C683 C684 1.516 . S
C684 C683 1.516 . S
C684 C685 1.502 . S
C684 C686 1.561 . S
C684 C687 1.526 1_655 S
C685 H669 0.959 . S
C685 H670 0.959 1_655 S
C685 H671 0.961 . S
C685 C684 1.502 . S
C686 H672 0.960 . S
C686 H673 0.961 1_655 S
C686 H674 0.959 1_655 S
C686 C684 1.561 . S
C687 C684 1.526 1_455 S
C687 C688 1.396 . S
C687 C692 1.390 . S
C688 C682 1.465 1_455 S
C688 C687 1.396 . S
C688 C689 1.399 . S
C689 H675 0.929 . S
C689 C688 1.399 . S
C689 C690 1.385 . S
C690 H676 0.931 . S
C690 C689 1.385 . S
C690 C691 1.389 . S
C691 C690 1.389 . S
C691 C692 1.387 . S
C692 H677 0.930 . S
C692 C687 1.390 . S
C692 C691 1.387 . S
H693 C705 0.930 . S
H694 C707 0.930 . S
H695 C708 0.930 . S
H696 C712 0.959 . S
H697 C712 0.959 . S
H698 C712 0.961 . S
H699 C713 0.960 . S
H700 C713 0.961 . S
H701 C713 0.959 . S
H702 C716 0.929 . S
H703 C717 0.931 . S
H704 C719 0.930 . S
C705 H693 0.930 . S
C705 C706 1.399 . S
C705 C710 1.399 . S
C706 C705 1.399 . S
C706 C707 1.376 . S
C707 H694 0.930 . S
C707 C706 1.376 . S
C707 C708 1.388 . S
C708 H695 0.930 . S
C708 C707 1.388 . S
C708 C709 1.390 . S
C709 C708 1.390 . S
C709 C710 1.394 . S
C709 C715 1.465 . S
C710 C705 1.399 . S
C710 C709 1.394 . S
C710 C711 1.516 . S
C711 C710 1.516 . S
C711 C712 1.502 . S
C711 C713 1.561 . S
C711 C714 1.526 . S
C712 H696 0.959 . S
C712 H697 0.959 . S
C712 H698 0.961 . S
C712 C711 1.502 . S
C713 H699 0.960 . S
C713 H700 0.961 . S
C713 H701 0.959 . S
C713 C711 1.561 . S
C714 C711 1.526 . S
C714 C715 1.396 . S
C714 C719 1.390 . S
C715 C709 1.465 . S
C715 C714 1.396 . S
C715 C716 1.399 . S
C716 H702 0.929 . S
C716 C715 1.399 . S
C716 C717 1.385 . S
C717 H703 0.931 . S
C717 C716 1.385 . S
C717 C718 1.389 . S
C718 C717 1.389 . S
C718 C719 1.387 . S
C719 H704 0.930 . S
C719 C714 1.390 . S
C719 C718 1.387 . S
H720 C732 0.930 . S
H721 C734 0.930 . S
H722 C735 0.930 . S
H723 C739 0.959 . S
H724 C739 0.959 . S
H725 C739 0.961 . S
H726 C740 0.961 . S
H727 C740 0.961 . S
H728 C740 0.959 . S
H729 C743 0.929 . S
H730 C744 0.931 . S
H731 C746 0.930 . S
C732 H720 0.930 . S
C732 C733 1.399 . S
C732 C737 1.399 . S
C733 C732 1.399 . S
C733 C734 1.376 . S
C734 H721 0.930 . S
C734 C733 1.376 . S
C734 C735 1.388 . S
C735 H722 0.930 . S
C735 C734 1.388 . S
C735 C736 1.390 . S
C736 C735 1.390 . S
C736 C737 1.394 . S
C736 C742 1.465 1_565 S
C737 C732 1.399 . S
C737 C736 1.394 . S
C737 C738 1.516 1_565 S
C738 C737 1.516 1_545 S
C738 C739 1.502 . S
C738 C740 1.561 . S
C738 C741 1.526 . S
C739 H723 0.959 . S
C739 H724 0.959 . S
C739 H725 0.961 . S
C739 C738 1.502 . S
C740 H726 0.961 . S
C740 H727 0.961 . S
C740 H728 0.959 . S
C740 C738 1.561 . S
C741 C738 1.526 . S
C741 C742 1.396 . S
C741 C746 1.390 . S
C742 C736 1.465 1_545 S
C742 C741 1.396 . S
C742 C743 1.399 . S
C743 H729 0.929 . S
C743 C742 1.399 . S
C743 C744 1.385 . S
C744 H730 0.931 . S
C744 C743 1.385 . S
C744 C745 1.389 . S
C745 C744 1.389 . S
C745 C746 1.387 . S
C746 H731 0.930 . S
C746 C741 1.390 . S
C746 C745 1.387 . S
H747 C759 0.930 . S
H748 C761 0.930 . S
H749 C762 0.930 . S
H750 C766 0.959 . S
H751 C766 0.959 . S
H752 C766 0.961 . S
H753 C767 0.960 . S
H754 C767 0.961 . S
H755 C767 0.959 . S
H756 C770 0.929 . S
H757 C771 0.931 . S
H758 C773 0.930 . S
C759 H747 0.930 . S
C759 C760 1.399 . S
C759 C764 1.399 . S
C760 C759 1.399 . S
C760 C761 1.376 . S
C761 H748 0.930 . S
C761 C760 1.376 . S
C761 C762 1.388 . S
C762 H749 0.930 . S
C762 C761 1.388 . S
C762 C763 1.390 . S
C763 C762 1.390 . S
C763 C764 1.394 . S
C763 C769 1.465 1_545 S
C764 C759 1.399 . S
C764 C763 1.394 . S
C764 C765 1.516 1_545 S
C765 C764 1.516 1_565 S
C765 C766 1.502 . S
C765 C767 1.561 . S
C765 C768 1.526 . S
C766 H750 0.959 . S
C766 H751 0.959 . S
C766 H752 0.961 . S
C766 C765 1.502 . S
C767 H753 0.960 . S
C767 H754 0.961 . S
C767 H755 0.959 . S
C767 C765 1.561 . S
C768 C765 1.526 . S
C768 C769 1.396 . S
C768 C773 1.390 . S
C769 C763 1.465 1_565 S
C769 C768 1.396 . S
C769 C770 1.399 . S
C770 H756 0.929 . S
C770 C769 1.399 . S
C770 C771 1.385 . S
C771 H757 0.931 . S
C771 C770 1.385 . S
C771 C772 1.389 . S
C772 C771 1.389 . S
C772 C773 1.387 . S
C773 H758 0.930 . S
C773 C768 1.390 . S
C773 C772 1.387 . S
H774 C786 0.930 . S
H775 C788 0.930 . S
H776 C789 0.930 . S
H777 C793 0.959 . S
H778 C793 0.959 1_655 S
H779 C793 0.961 . S
H780 C794 0.962 1_455 S
H781 C794 0.959 . S
H782 C794 0.959 . S
H783 C797 0.929 . S
H784 C798 0.931 . S
H785 C800 0.930 . S
C786 H774 0.930 . S
C786 C787 1.399 . S
C786 C791 1.399 . S
C787 C786 1.399 . S
C787 C788 1.376 . S
C788 H775 0.930 . S
C788 C787 1.376 . S
C788 C789 1.388 . S
C789 H776 0.930 . S
C789 C788 1.388 . S
C789 C790 1.390 . S
C790 C789 1.390 . S
C790 C791 1.394 . S
C790 C796 1.465 1_455 S
C791 C786 1.399 . S
C791 C790 1.394 . S
C791 C792 1.516 . S
C792 C791 1.516 . S
C792 C793 1.502 . S
C792 C794 1.560 1_455 S
C792 C795 1.526 1_455 S
C793 H777 0.959 . S
C793 H778 0.959 1_455 S
C793 H779 0.961 . S
C793 C792 1.502 . S
C794 H780 0.962 1_655 S
C794 H781 0.959 . S
C794 H782 0.959 . S
C794 C792 1.560 1_655 S
C795 C792 1.526 1_655 S
C795 C796 1.396 . S
C795 C800 1.390 . S
C796 C790 1.465 1_655 S
C796 C795 1.396 . S
C796 C797 1.399 . S
C797 H783 0.929 . S
C797 C796 1.399 . S
C797 C798 1.385 . S
C798 H784 0.931 . S
C798 C797 1.385 . S
C798 C799 1.389 . S
C799 C798 1.389 . S
C799 C800 1.387 . S
C800 H785 0.930 . S
C800 C795 1.390 . S
C800 C799 1.387 . S
H801 C813 0.930 . S
H802 C815 0.930 . S
H803 C816 0.930 . S
H804 C820 0.959 . S
H805 C820 0.959 . S
H806 C820 0.961 . S
H807 C821 0.960 . S
H808 C821 0.961 . S
H809 C821 0.959 . S
H810 C824 0.929 . S
H811 C825 0.931 . S
H812 C827 0.930 . S
C813 H801 0.930 . S
C813 C814 1.399 . S
C813 C818 1.399 . S
C814 C813 1.399 . S
C814 C815 1.376 . S
C815 H802 0.930 . S
C815 C814 1.376 . S
C815 C816 1.388 . S
C816 H803 0.930 . S
C816 C815 1.388 . S
C816 C817 1.390 . S
C817 C816 1.390 . S
C817 C818 1.394 . S
C817 C823 1.465 . S
C818 C813 1.399 . S
C818 C817 1.394 . S
C818 C819 1.516 . S
C819 C818 1.516 . S
C819 C820 1.502 . S
C819 C821 1.561 . S
C819 C822 1.526 . S
C820 H804 0.959 . S
C820 H805 0.959 . S
C820 H806 0.961 . S
C820 C819 1.502 . S
C821 H807 0.960 . S
C821 H808 0.961 . S
C821 H809 0.959 . S
C821 C819 1.561 . S
C822 C819 1.526 . S
C822 C823 1.396 . S
C822 C827 1.390 . S
C823 C817 1.465 . S
C823 C822 1.396 . S
C823 C824 1.399 . S
C824 H810 0.929 . S
C824 C823 1.399 . S
C824 C825 1.385 . S
C825 H811 0.931 . S
C825 C824 1.385 . S
C825 C826 1.389 . S
C826 C825 1.389 . S
C826 C827 1.387 . S
C827 H812 0.930 . S
C827 C822 1.390 . S
C827 C826 1.387 . S
H828 C840 0.930 . S
H829 C842 0.930 . S
H830 C843 0.930 . S
H831 C847 0.959 . S
H832 C847 0.959 . S
H833 C847 0.961 . S
H834 C848 0.960 . S
H835 C848 0.961 . S
H836 C848 0.959 . S
H837 C851 0.929 . S
H838 C852 0.931 . S
H839 C854 0.930 . S
C840 H828 0.930 . S
C840 C841 1.399 . S
C840 C845 1.399 . S
C841 C840 1.399 . S
C841 C842 1.376 . S
C842 H829 0.930 . S
C842 C841 1.376 . S
C842 C843 1.388 . S
C843 H830 0.930 . S
C843 C842 1.388 . S
C843 C844 1.390 . S
C844 C843 1.390 . S
C844 C845 1.394 . S
C844 C850 1.465 . S
C845 C840 1.399 . S
C845 C844 1.394 . S
C845 C846 1.516 . S
C846 C845 1.516 . S
C846 C847 1.502 . S
C846 C848 1.561 . S
C846 C849 1.526 . S
C847 H831 0.959 . S
C847 H832 0.959 . S
C847 H833 0.961 . S
C847 C846 1.502 . S
C848 H834 0.960 . S
C848 H835 0.961 . S
C848 H836 0.959 . S
C848 C846 1.561 . S
C849 C846 1.526 . S
C849 C850 1.396 . S
C849 C854 1.390 . S
C850 C844 1.465 . S
C850 C849 1.396 . S
C850 C851 1.399 . S
C851 H837 0.929 . S
C851 C850 1.399 . S
C851 C852 1.385 . S
C852 H838 0.931 . S
C852 C851 1.385 . S
C852 C853 1.389 . S
C853 C852 1.389 . S
C853 C854 1.387 . S
C854 H839 0.930 . S
C854 C849 1.390 . S
C854 C853 1.387 . S
H855 C867 0.930 . S
H856 C869 0.930 . S
H857 C870 0.930 . S
H858 C874 0.959 . S
H859 C874 0.959 . S
H860 C874 0.961 . S
H861 C875 0.960 . S
H862 C875 0.961 . S
H863 C875 0.959 . S
H864 C878 0.929 . S
H865 C879 0.931 . S
H866 C881 0.930 . S
C867 H855 0.930 . S
C867 C868 1.399 . S
C867 C872 1.399 . S
C868 C867 1.399 . S
C868 C869 1.376 . S
C869 H856 0.930 . S
C869 C868 1.376 . S
C869 C870 1.388 . S
C870 H857 0.930 . S
C870 C869 1.388 . S
C870 C871 1.390 . S
C871 C870 1.390 . S
C871 C872 1.394 . S
C871 C877 1.465 . S
C872 C867 1.399 . S
C872 C871 1.394 . S
C872 C873 1.516 . S
C873 C872 1.516 . S
C873 C874 1.502 . S
C873 C875 1.561 . S
C873 C876 1.526 . S
C874 H858 0.959 . S
C874 H859 0.959 . S
C874 H860 0.961 . S
C874 C873 1.502 . S
C875 H861 0.960 . S
C875 H862 0.961 . S
C875 H863 0.959 . S
C875 C873 1.561 . S
C876 C873 1.526 . S
C876 C877 1.396 . S
C876 C881 1.390 . S
C877 C871 1.465 . S
C877 C876 1.396 . S
C877 C878 1.399 . S
C878 H864 0.929 . S
C878 C877 1.399 . S
C878 C879 1.385 . S
C879 H865 0.931 . S
C879 C878 1.385 . S
C879 C880 1.389 . S
C880 C879 1.389 . S
C880 C881 1.387 . S
C881 H866 0.930 . S
C881 C876 1.390 . S
C881 C880 1.387 . S
H882 C894 0.930 . S
H883 C896 0.930 . S
H884 C897 0.930 . S
H885 C901 0.959 . S
H886 C901 0.959 . S
H887 C901 0.961 . S
H888 C902 0.960 . S
H889 C902 0.961 . S
H890 C902 0.959 . S
H891 C905 0.929 . S
H892 C906 0.931 . S
H893 C908 0.930 . S
C894 H882 0.930 . S
C894 C895 1.399 . S
C894 C899 1.399 . S
C895 C894 1.399 . S
C895 C896 1.376 . S
C896 H883 0.930 . S
C896 C895 1.376 . S
C896 C897 1.388 . S
C897 H884 0.930 . S
C897 C896 1.388 . S
C897 C898 1.390 . S
C898 C897 1.390 . S
C898 C899 1.394 . S
C898 C904 1.465 . S
C899 C894 1.399 . S
C899 C898 1.394 . S
C899 C900 1.516 . S
C900 C899 1.516 . S
C900 C901 1.502 . S
C900 C902 1.561 . S
C900 C903 1.526 . S
C901 H885 0.959 . S
C901 H886 0.959 . S
C901 H887 0.961 . S
C901 C900 1.502 . S
C902 H888 0.960 . S
C902 H889 0.961 . S
C902 H890 0.959 . S
C902 C900 1.561 . S
C903 C900 1.526 . S
C903 C904 1.396 . S
C903 C908 1.390 . S
C904 C898 1.465 . S
C904 C903 1.396 . S
C904 C905 1.399 . S
C905 H891 0.929 . S
C905 C904 1.399 . S
C905 C906 1.385 . S
C906 H892 0.931 . S
C906 C905 1.385 . S
C906 C907 1.389 . S
C907 C906 1.389 . S
C907 C908 1.387 . S
C908 H893 0.930 . S
C908 C903 1.390 . S
C908 C907 1.387 . S
H909 C921 0.930 . S
H910 C923 0.930 . S
H911 C924 0.930 . S
H912 C928 0.959 . S
H913 C928 0.959 . S
H914 C928 0.961 . S
H915 C929 0.960 . S
H916 C929 0.961 . S
H917 C929 0.959 . S
H918 C932 0.929 . S
H919 C933 0.931 . S
H920 C935 0.930 . S
C921 H909 0.930 . S
C921 C922 1.399 . S
C921 C926 1.399 . S
C922 C921 1.399 . S
C922 C923 1.376 . S
C923 H910 0.930 . S
C923 C922 1.376 . S
C923 C924 1.388 . S
C924 H911 0.930 . S
C924 C923 1.388 . S
C924 C925 1.390 . S
C925 C924 1.390 . S
C925 C926 1.394 . S
C925 C931 1.465 . S
C926 C921 1.399 . S
C926 C925 1.394 . S
C926 C927 1.516 . S
C927 C926 1.516 . S
C927 C928 1.502 . S
C927 C929 1.561 . S
C927 C930 1.526 . S
C928 H912 0.959 . S
C928 H913 0.959 . S
C928 H914 0.961 . S
C928 C927 1.502 . S
C929 H915 0.960 . S
C929 H916 0.961 . S
C929 H917 0.959 . S
C929 C927 1.561 . S
C930 C927 1.526 . S
C930 C931 1.396 . S
C930 C935 1.390 . S
C931 C925 1.465 . S
C931 C930 1.396 . S
C931 C932 1.399 . S
C932 H918 0.929 . S
C932 C931 1.399 . S
C932 C933 1.385 . S
C933 H919 0.931 . S
C933 C932 1.385 . S
C933 C934 1.389 . S
C934 C933 1.389 . S
C934 C935 1.387 . S
C935 H920 0.930 . S
C935 C930 1.390 . S
C935 C934 1.387 . S
H936 C948 0.930 . S
H937 C950 0.930 . S
H938 C951 0.930 . S
H939 C955 0.959 . S
H940 C955 0.959 . S
H941 C955 0.961 . S
H942 C956 0.960 . S
H943 C956 0.961 . S
H944 C956 0.959 . S
H945 C959 0.929 . S
H946 C960 0.931 . S
H947 C962 0.930 . S
C948 H936 0.930 . S
C948 C949 1.399 . S
C948 C953 1.399 . S
C949 C948 1.399 . S
C949 C950 1.376 . S
C950 H937 0.930 . S
C950 C949 1.376 . S
C950 C951 1.388 . S
C951 H938 0.930 . S
C951 C950 1.388 . S
C951 C952 1.390 . S
C952 C951 1.390 . S
C952 C953 1.394 . S
C952 C958 1.465 . S
C953 C948 1.399 . S
C953 C952 1.394 . S
C953 C954 1.516 . S
C954 C953 1.516 . S
C954 C955 1.502 . S
C954 C956 1.561 . S
C954 C957 1.526 . S
C955 H939 0.959 . S
C955 H940 0.959 . S
C955 H941 0.961 . S
C955 C954 1.502 . S
C956 H942 0.960 . S
C956 H943 0.961 . S
C956 H944 0.959 . S
C956 C954 1.561 . S
C957 C954 1.526 . S
C957 C958 1.396 . S
C957 C962 1.390 . S
C958 C952 1.465 . S
C958 C957 1.396 . S
C958 C959 1.399 . S
C959 H945 0.929 . S
C959 C958 1.399 . S
C959 C960 1.385 . S
C960 H946 0.931 . S
C960 C959 1.385 . S
C960 C961 1.389 . S
C961 C960 1.389 . S
C961 C962 1.387 . S
C962 H947 0.930 . S
C962 C957 1.390 . S
C962 C961 1.387 . S
H963 C975 0.930 . S
H964 C977 0.930 . S
H965 C978 0.930 . S
H966 C982 0.959 . S
H967 C982 0.959 . S
H968 C982 0.961 . S
H969 C983 0.960 . S
H970 C983 0.961 . S
H971 C983 0.959 . S
H972 C986 0.929 . S
H973 C987 0.931 . S
H974 C989 0.930 . S
C975 H963 0.930 . S
C975 C976 1.399 . S
C975 C980 1.399 . S
C976 C975 1.399 . S
C976 C977 1.376 . S
C977 H964 0.930 . S
C977 C976 1.376 . S
C977 C978 1.388 . S
C978 H965 0.930 . S
C978 C977 1.388 . S
C978 C979 1.390 . S
C979 C978 1.390 . S
C979 C980 1.394 . S
C979 C985 1.465 . S
C980 C975 1.399 . S
C980 C979 1.394 . S
C980 C981 1.516 . S
C981 C980 1.516 . S
C981 C982 1.502 . S
C981 C983 1.561 . S
C981 C984 1.526 . S
C982 H966 0.959 . S
C982 H967 0.959 . S
C982 H968 0.961 . S
C982 C981 1.502 . S
C983 H969 0.960 . S
C983 H970 0.961 . S
C983 H971 0.959 . S
C983 C981 1.561 . S
C984 C981 1.526 . S
C984 C985 1.396 . S
C984 C989 1.390 . S
C985 C979 1.465 . S
C985 C984 1.396 . S
C985 C986 1.399 . S
C986 H972 0.929 . S
C986 C985 1.399 . S
C986 C987 1.385 . S
C987 H973 0.931 . S
C987 C986 1.385 . S
C987 C988 1.389 . S
C988 C987 1.389 . S
C988 C989 1.387 . S
C989 H974 0.930 . S
C989 C984 1.390 . S
C989 C988 1.387 . S
H990 C1002 0.930 . S
H991 C1004 0.930 . S
H992 C1005 0.930 . S
H993 C1009 0.959 . S
H994 C1009 0.959 . S
H995 C1009 0.961 . S
H996 C1010 0.960 . S
H997 C1010 0.961 . S
H998 C1010 0.959 . S
H999 C1013 0.929 . S
H1000 C1014 0.931 . S
H1001 C1016 0.930 . S
C1002 H990 0.930 . S
C1002 C1003 1.399 . S
C1002 C1007 1.399 . S
C1003 C1002 1.399 . S
C1003 C1004 1.376 . S
C1004 H991 0.930 . S
C1004 C1003 1.376 . S
C1004 C1005 1.388 . S
C1005 H992 0.930 . S
C1005 C1004 1.388 . S
C1005 C1006 1.390 . S
C1006 C1005 1.390 . S
C1006 C1007 1.394 . S
C1006 C1012 1.465 . S
C1007 C1002 1.399 . S
C1007 C1006 1.394 . S
C1007 C1008 1.516 . S
C1008 C1007 1.516 . S
C1008 C1009 1.502 . S
C1008 C1010 1.561 . S
C1008 C1011 1.526 . S
C1009 H993 0.959 . S
C1009 H994 0.959 . S
C1009 H995 0.961 . S
C1009 C1008 1.502 . S
C1010 H996 0.960 . S
C1010 H997 0.961 . S
C1010 H998 0.959 . S
C1010 C1008 1.561 . S
C1011 C1008 1.526 . S
C1011 C1012 1.396 . S
C1011 C1016 1.390 . S
C1012 C1006 1.465 . S
C1012 C1011 1.396 . S
C1012 C1013 1.399 . S
C1013 H999 0.929 . S
C1013 C1012 1.399 . S
C1013 C1014 1.385 . S
C1014 H1000 0.931 . S
C1014 C1013 1.385 . S
C1014 C1015 1.389 . S
C1015 C1014 1.389 . S
C1015 C1016 1.387 . S
C1016 H1001 0.930 . S
C1016 C1011 1.390 . S
C1016 C1015 1.387 . S
H1017 C1029 0.930 . S
H1018 C1031 0.930 . S
H1019 C1032 0.930 . S
H1020 C1036 0.959 . S
H1021 C1036 0.959 . S
H1022 C1036 0.961 . S
H1023 C1037 0.960 . S
H1024 C1037 0.961 . S
H1025 C1037 0.959 . S
H1026 C1040 0.929 . S
H1027 C1041 0.931 . S
H1028 C1043 0.930 . S
C1029 H1017 0.930 . S
C1029 C1030 1.399 . S
C1029 C1034 1.399 . S
C1030 C1029 1.399 . S
C1030 C1031 1.376 . S
C1031 H1018 0.930 . S
C1031 C1030 1.376 . S
C1031 C1032 1.388 . S
C1032 H1019 0.930 . S
C1032 C1031 1.388 . S
C1032 C1033 1.390 . S
C1033 C1032 1.390 . S
C1033 C1034 1.394 . S
C1033 C1039 1.465 . S
C1034 C1029 1.399 . S
C1034 C1033 1.394 . S
C1034 C1035 1.516 . S
C1035 C1034 1.516 . S
C1035 C1036 1.502 . S
C1035 C1037 1.561 . S
C1035 C1038 1.526 . S
C1036 H1020 0.959 . S
C1036 H1021 0.959 . S
C1036 H1022 0.961 . S
C1036 C1035 1.502 . S
C1037 H1023 0.960 . S
C1037 H1024 0.961 . S
C1037 H1025 0.959 . S
C1037 C1035 1.561 . S
C1038 C1035 1.526 . S
C1038 C1039 1.396 . S
C1038 C1043 1.390 . S
C1039 C1033 1.465 . S
C1039 C1038 1.396 . S
C1039 C1040 1.399 . S
C1040 H1026 0.929 . S
C1040 C1039 1.399 . S
C1040 C1041 1.385 . S
C1041 H1027 0.931 . S
C1041 C1040 1.385 . S
C1041 C1042 1.389 . S
C1042 C1041 1.389 . S
C1042 C1043 1.387 . S
C1043 H1028 0.930 . S
C1043 C1038 1.390 . S
C1043 C1042 1.387 . S
H1044 C1056 0.930 . S
H1045 C1058 0.930 . S
H1046 C1059 0.930 . S
H1047 C1063 0.959 . S
H1048 C1063 0.959 . S
H1049 C1063 0.961 . S
H1050 C1064 0.960 . S
H1051 C1064 0.961 . S
H1052 C1064 0.959 . S
H1053 C1067 0.929 . S
H1054 C1068 0.931 . S
H1055 C1070 0.930 . S
C1056 H1044 0.930 . S
C1056 C1057 1.399 . S
C1056 C1061 1.399 . S
C1057 C1056 1.399 . S
C1057 C1058 1.376 . S
C1058 H1045 0.930 . S
C1058 C1057 1.376 . S
C1058 C1059 1.388 . S
C1059 H1046 0.930 . S
C1059 C1058 1.388 . S
C1059 C1060 1.390 . S
C1060 C1059 1.390 . S
C1060 C1061 1.394 . S
C1060 C1066 1.465 . S
C1061 C1056 1.399 . S
C1061 C1060 1.394 . S
C1061 C1062 1.516 . S
C1062 C1061 1.516 . S
C1062 C1063 1.502 . S
C1062 C1064 1.561 . S
C1062 C1065 1.526 . S
C1063 H1047 0.959 . S
C1063 H1048 0.959 . S
C1063 H1049 0.961 . S
C1063 C1062 1.502 . S
C1064 H1050 0.960 . S
C1064 H1051 0.961 . S
C1064 H1052 0.959 . S
C1064 C1062 1.561 . S
C1065 C1062 1.526 . S
C1065 C1066 1.396 . S
C1065 C1070 1.390 . S
C1066 C1060 1.465 . S
C1066 C1065 1.396 . S
C1066 C1067 1.399 . S
C1067 H1053 0.929 . S
C1067 C1066 1.399 . S
C1067 C1068 1.385 . S
C1068 H1054 0.931 . S
C1068 C1067 1.385 . S
C1068 C1069 1.389 . S
C1069 C1068 1.389 . S
C1069 C1070 1.387 . S
C1070 H1055 0.930 . S
C1070 C1065 1.390 . S
C1070 C1069 1.387 . S
H1071 C1083 0.930 . S
H1072 C1085 0.930 . S
H1073 C1086 0.930 . S
H1074 C1090 0.959 . S
H1075 C1090 0.959 . S
H1076 C1090 0.961 . S
H1077 C1091 0.960 . S
H1078 C1091 0.961 . S
H1079 C1091 0.959 . S
H1080 C1094 0.929 . S
H1081 C1095 0.931 . S
H1082 C1097 0.930 . S
C1083 H1071 0.930 . S
C1083 C1084 1.399 . S
C1083 C1088 1.399 . S
C1084 C1083 1.399 . S
C1084 C1085 1.376 . S
C1085 H1072 0.930 . S
C1085 C1084 1.376 . S
C1085 C1086 1.388 . S
C1086 H1073 0.930 . S
C1086 C1085 1.388 . S
C1086 C1087 1.390 . S
C1087 C1086 1.390 . S
C1087 C1088 1.394 . S
C1087 C1093 1.465 . S
C1088 C1083 1.399 . S
C1088 C1087 1.394 . S
C1088 C1089 1.516 . S
C1089 C1088 1.516 . S
C1089 C1090 1.502 . S
C1089 C1091 1.561 . S
C1089 C1092 1.526 . S
C1090 H1074 0.959 . S
C1090 H1075 0.959 . S
C1090 H1076 0.961 . S
C1090 C1089 1.502 . S
C1091 H1077 0.960 . S
C1091 H1078 0.961 . S
C1091 H1079 0.959 . S
C1091 C1089 1.561 . S
C1092 C1089 1.526 . S
C1092 C1093 1.396 . S
C1092 C1097 1.390 . S
C1093 C1087 1.465 . S
C1093 C1092 1.396 . S
C1093 C1094 1.399 . S
C1094 H1080 0.929 . S
C1094 C1093 1.399 . S
C1094 C1095 1.385 . S
C1095 H1081 0.931 . S
C1095 C1094 1.385 . S
C1095 C1096 1.389 . S
C1096 C1095 1.389 . S
C1096 C1097 1.387 . S
C1097 H1082 0.930 . S
C1097 C1092 1.390 . S
C1097 C1096 1.387 . S
H1098 C1110 0.930 . S
H1099 C1112 0.930 . S
H1100 C1113 0.930 . S
H1101 C1117 0.959 . S
H1102 C1117 0.959 1_556 S
H1103 C1117 0.961 1_556 S
H1104 C1118 0.960 . S
H1105 C1118 0.961 . S
H1106 C1118 0.959 . S
H1107 C1121 0.929 . S
H1108 C1122 0.931 . S
H1109 C1124 0.930 . S
C1110 H1098 0.930 . S
C1110 C1111 1.399 . S
C1110 C1115 1.399 . S
C1111 C1110 1.399 . S
C1111 C1112 1.376 . S
C1112 H1099 0.930 . S
C1112 C1111 1.376 . S
C1112 C1113 1.388 . S
C1113 H1100 0.930 . S
C1113 C1112 1.388 . S
C1113 C1114 1.390 . S
C1114 C1113 1.390 . S
C1114 C1115 1.394 . S
C1114 C1120 1.465 . S
C1115 C1110 1.399 . S
C1115 C1114 1.394 . S
C1115 C1116 1.516 . S
C1116 C1115 1.516 . S
C1116 C1117 1.502 . S
C1116 C1118 1.561 . S
C1116 C1119 1.526 . S
C1117 H1101 0.959 . S
C1117 H1102 0.959 1_554 S
C1117 H1103 0.961 1_554 S
C1117 C1116 1.502 . S
C1118 H1104 0.960 . S
C1118 H1105 0.961 . S
C1118 H1106 0.959 . S
C1118 C1116 1.561 . S
C1119 C1116 1.526 . S
C1119 C1120 1.396 . S
C1119 C1124 1.390 . S
C1120 C1114 1.465 . S
C1120 C1119 1.396 . S
C1120 C1121 1.399 . S
C1121 H1107 0.929 . S
C1121 C1120 1.399 . S
C1121 C1122 1.385 . S
C1122 H1108 0.931 . S
C1122 C1121 1.385 . S
C1122 C1123 1.389 . S
C1123 C1122 1.389 . S
C1123 C1124 1.387 . S
C1124 H1109 0.930 . S
C1124 C1119 1.390 . S
C1124 C1123 1.387 . S
H1125 C1137 0.930 . S
H1126 C1139 0.930 . S
H1127 C1140 0.930 . S
H1128 C1144 0.959 . S
H1129 C1144 0.959 1_556 S
H1130 C1144 0.987 . S
H1131 C1145 0.975 . S
H1132 C1145 0.961 1_556 S
H1133 C1145 0.959 . S
H1134 C1148 0.929 . S
H1135 C1149 0.931 . S
H1136 C1151 0.930 . S
C1137 H1125 0.930 . S
C1137 C1138 1.399 . S
C1137 C1142 1.399 . S
C1138 C1137 1.399 . S
C1138 C1139 1.376 . S
C1139 H1126 0.930 . S
C1139 C1138 1.376 . S
C1139 C1140 1.388 . S
C1140 H1127 0.930 . S
C1140 C1139 1.388 . S
C1140 C1141 1.390 . S
C1141 C1140 1.390 . S
C1141 C1142 1.394 . S
C1141 C1147 1.465 . S
C1142 C1137 1.399 . S
C1142 C1141 1.394 . S
C1142 C1143 1.516 . S
C1143 C1142 1.516 . S
C1143 C1144 1.502 . S
C1143 C1145 1.561 . S
C1143 C1146 1.526 . S
C1144 H1128 0.959 . S
C1144 H1129 0.959 1_554 S
C1144 H1130 0.987 . S
C1144 C1143 1.502 . S
C1145 H1131 0.975 . S
C1145 H1132 0.961 1_554 S
C1145 H1133 0.959 . S
C1145 C1143 1.561 . S
C1146 C1143 1.526 . S
C1146 C1147 1.396 . S
C1146 C1151 1.390 . S
C1147 C1141 1.465 . S
C1147 C1146 1.396 . S
C1147 C1148 1.399 . S
C1148 H1134 0.929 . S
C1148 C1147 1.399 . S
C1148 C1149 1.385 . S
C1149 H1135 0.931 . S
C1149 C1148 1.385 . S
C1149 C1150 1.389 . S
C1150 C1149 1.389 . S
C1150 C1151 1.387 . S
C1151 H1136 0.930 . S
C1151 C1146 1.390 . S
C1151 C1150 1.387 . S
H1152 C1164 0.930 . S
H1153 C1166 0.930 . S
H1154 C1167 0.930 . S
H1155 C1171 0.959 . S
H1156 C1171 0.959 . S
H1157 C1171 0.961 . S
H1158 C1172 0.960 . S
H1159 C1172 0.961 . S
H1160 C1172 0.959 . S
H1161 C1175 0.929 . S
H1162 C1176 0.931 . S
H1163 C1178 0.930 . S
C1164 H1152 0.930 . S
C1164 C1165 1.399 . S
C1164 C1169 1.399 . S
C1165 C1164 1.399 . S
C1165 C1166 1.376 . S
C1166 H1153 0.930 . S
C1166 C1165 1.376 . S
C1166 C1167 1.388 . S
C1167 H1154 0.930 . S
C1167 C1166 1.388 . S
C1167 C1168 1.390 . S
C1168 C1167 1.390 . S
C1168 C1169 1.394 . S
C1168 C1174 1.465 . S
C1169 C1164 1.399 . S
C1169 C1168 1.394 . S
C1169 C1170 1.516 . S
C1170 C1169 1.516 . S
C1170 C1171 1.502 . S
C1170 C1172 1.561 . S
C1170 C1173 1.526 . S
C1171 H1155 0.959 . S
C1171 H1156 0.959 . S
C1171 H1157 0.961 . S
C1171 C1170 1.502 . S
C1172 H1158 0.960 . S
C1172 H1159 0.961 . S
C1172 H1160 0.959 . S
C1172 C1170 1.561 . S
C1173 C1170 1.526 . S
C1173 C1174 1.396 . S
C1173 C1178 1.390 . S
C1174 C1168 1.465 . S
C1174 C1173 1.396 . S
C1174 C1175 1.399 . S
C1175 H1161 0.929 . S
C1175 C1174 1.399 . S
C1175 C1176 1.385 . S
C1176 H1162 0.931 . S
C1176 C1175 1.385 . S
C1176 C1177 1.389 . S
C1177 C1176 1.389 . S
C1177 C1178 1.387 . S
C1178 H1163 0.930 . S
C1178 C1173 1.390 . S
C1178 C1177 1.387 . S
H1179 C1191 0.930 . S
H1180 C1193 0.930 . S
H1181 C1194 0.930 . S
H1182 C1198 0.959 . S
H1183 C1198 0.959 . S
H1184 C1198 0.961 . S
H1185 C1199 0.960 . S
H1186 C1199 0.961 . S
H1187 C1199 0.959 . S
H1188 C1202 0.929 . S
H1189 C1203 0.931 . S
H1190 C1205 0.930 . S
C1191 H1179 0.930 . S
C1191 C1192 1.399 . S
C1191 C1196 1.399 . S
C1192 C1191 1.399 . S
C1192 C1193 1.376 . S
C1193 H1180 0.930 . S
C1193 C1192 1.376 . S
C1193 C1194 1.388 . S
C1194 H1181 0.930 . S
C1194 C1193 1.388 . S
C1194 C1195 1.390 . S
C1195 C1194 1.390 . S
C1195 C1196 1.394 . S
C1195 C1201 1.465 . S
C1196 C1191 1.399 . S
C1196 C1195 1.394 . S
C1196 C1197 1.516 . S
C1197 C1196 1.516 . S
C1197 C1198 1.502 . S
C1197 C1199 1.561 . S
C1197 C1200 1.526 . S
C1198 H1182 0.959 . S
C1198 H1183 0.959 . S
C1198 H1184 0.961 . S
C1198 C1197 1.502 . S
C1199 H1185 0.960 . S
C1199 H1186 0.961 . S
C1199 H1187 0.959 . S
C1199 C1197 1.561 . S
C1200 C1197 1.526 . S
C1200 C1201 1.396 . S
C1200 C1205 1.390 . S
C1201 C1195 1.465 . S
C1201 C1200 1.396 . S
C1201 C1202 1.399 . S
C1202 H1188 0.929 . S
C1202 C1201 1.399 . S
C1202 C1203 1.385 . S
C1203 H1189 0.931 . S
C1203 C1202 1.385 . S
C1203 C1204 1.389 . S
C1204 C1203 1.389 . S
C1204 C1205 1.387 . S
C1205 H1190 0.930 . S
C1205 C1200 1.390 . S
C1205 C1204 1.387 . S
H1206 C1218 0.930 . S
H1207 C1220 0.930 . S
H1208 C1221 0.930 . S
H1209 C1225 0.959 . S
H1210 C1225 0.959 . S
H1211 C1225 0.961 . S
H1212 C1226 0.960 . S
H1213 C1226 0.961 . S
H1214 C1226 0.959 . S
H1215 C1229 0.929 . S
H1216 C1230 0.931 . S
H1217 C1232 0.930 . S
C1218 H1206 0.930 . S
C1218 C1219 1.399 . S
C1218 C1223 1.399 . S
C1219 C1218 1.399 . S
C1219 C1220 1.376 . S
C1220 H1207 0.930 . S
C1220 C1219 1.376 . S
C1220 C1221 1.388 . S
C1221 H1208 0.930 . S
C1221 C1220 1.388 . S
C1221 C1222 1.390 . S
C1222 C1221 1.390 . S
C1222 C1223 1.394 . S
C1222 C1228 1.465 . S
C1223 C1218 1.399 . S
C1223 C1222 1.394 . S
C1223 C1224 1.516 . S
C1224 C1223 1.516 . S
C1224 C1225 1.502 . S
C1224 C1226 1.561 . S
C1224 C1227 1.526 . S
C1225 H1209 0.959 . S
C1225 H1210 0.959 . S
C1225 H1211 0.961 . S
C1225 C1224 1.502 . S
C1226 H1212 0.960 . S
C1226 H1213 0.961 . S
C1226 H1214 0.959 . S
C1226 C1224 1.561 . S
C1227 C1224 1.526 . S
C1227 C1228 1.396 . S
C1227 C1232 1.390 . S
C1228 C1222 1.465 . S
C1228 C1227 1.396 . S
C1228 C1229 1.399 . S
C1229 H1215 0.929 . S
C1229 C1228 1.399 . S
C1229 C1230 1.385 . S
C1230 H1216 0.931 . S
C1230 C1229 1.385 . S
C1230 C1231 1.389 . S
C1231 C1230 1.389 . S
C1231 C1232 1.387 . S
C1232 H1217 0.930 . S
C1232 C1227 1.390 . S
C1232 C1231 1.387 . S
H1233 C1245 0.930 . S
H1234 C1247 0.930 . S
H1235 C1248 0.930 . S
H1236 C1252 0.959 . S
H1237 C1252 0.959 . S
H1238 C1252 0.961 . S
H1239 C1253 0.960 . S
H1240 C1253 0.961 . S
H1241 C1253 0.959 . S
H1242 C1256 0.929 . S
H1243 C1257 0.931 . S
H1244 C1259 0.930 . S
C1245 H1233 0.930 . S
C1245 C1246 1.399 . S
C1245 C1250 1.399 . S
C1246 C1245 1.399 . S
C1246 C1247 1.376 . S
C1247 H1234 0.930 . S
C1247 C1246 1.376 . S
C1247 C1248 1.388 . S
C1248 H1235 0.930 . S
C1248 C1247 1.388 . S
C1248 C1249 1.390 . S
C1249 C1248 1.390 . S
C1249 C1250 1.394 . S
C1249 C1255 1.465 . S
C1250 C1245 1.399 . S
C1250 C1249 1.394 . S
C1250 C1251 1.516 . S
C1251 C1250 1.516 . S
C1251 C1252 1.502 . S
C1251 C1253 1.561 . S
C1251 C1254 1.526 . S
C1252 H1236 0.959 . S
C1252 H1237 0.959 . S
C1252 H1238 0.961 . S
C1252 C1251 1.502 . S
C1253 H1239 0.960 . S
C1253 H1240 0.961 . S
C1253 H1241 0.959 . S
C1253 C1251 1.561 . S
C1254 C1251 1.526 . S
C1254 C1255 1.396 . S
C1254 C1259 1.390 . S
C1255 C1249 1.465 . S
C1255 C1254 1.396 . S
C1255 C1256 1.399 . S
C1256 H1242 0.929 . S
C1256 C1255 1.399 . S
C1256 C1257 1.385 . S
C1257 H1243 0.931 . S
C1257 C1256 1.385 . S
C1257 C1258 1.389 . S
C1258 C1257 1.389 . S
C1258 C1259 1.387 . S
C1259 H1244 0.930 . S
C1259 C1254 1.390 . S
C1259 C1258 1.387 . S
H1260 C1272 0.930 . S
H1261 C1274 0.930 . S
H1262 C1275 0.930 . S
H1263 C1279 0.959 . S
H1264 C1279 0.959 . S
H1265 C1279 0.961 . S
H1266 C1280 0.960 1_554 S
H1267 C1280 0.961 1_554 S
H1268 C1280 0.959 . S
H1269 C1283 0.929 . S
H1270 C1284 0.931 . S
H1271 C1286 0.930 . S
C1272 H1260 0.930 . S
C1272 C1273 1.399 . S
C1272 C1277 1.399 . S
C1273 C1272 1.399 . S
C1273 C1274 1.376 . S
C1274 H1261 0.930 . S
C1274 C1273 1.376 . S
C1274 C1275 1.388 . S
C1275 H1262 0.930 . S
C1275 C1274 1.388 . S
C1275 C1276 1.390 . S
C1276 C1275 1.390 . S
C1276 C1277 1.394 . S
C1276 C1282 1.465 . S
C1277 C1272 1.399 . S
C1277 C1276 1.394 . S
C1277 C1278 1.516 . S
C1278 C1277 1.516 . S
C1278 C1279 1.502 . S
C1278 C1280 1.561 . S
C1278 C1281 1.526 . S
C1279 H1263 0.959 . S
C1279 H1264 0.959 . S
C1279 H1265 0.961 . S
C1279 C1278 1.502 . S
C1280 H1266 0.960 1_556 S
C1280 H1267 0.961 1_556 S
C1280 H1268 0.959 . S
C1280 C1278 1.561 . S
C1281 C1278 1.526 . S
C1281 C1282 1.396 . S
C1281 C1286 1.390 . S
C1282 C1276 1.465 . S
C1282 C1281 1.396 . S
C1282 C1283 1.399 . S
C1283 H1269 0.929 . S
C1283 C1282 1.399 . S
C1283 C1284 1.385 . S
C1284 H1270 0.931 . S
C1284 C1283 1.385 . S
C1284 C1285 1.389 . S
C1285 C1284 1.389 . S
C1285 C1286 1.387 . S
C1286 H1271 0.930 . S
C1286 C1281 1.390 . S
C1286 C1285 1.387 . S
H1287 C1299 0.930 . S
H1288 C1301 0.930 . S
H1289 C1302 0.930 . S
H1290 C1306 0.959 . S
H1291 C1306 0.959 1_554 S
H1292 C1306 0.918 1_554 S
H1293 C1307 0.960 . S
H1294 C1307 0.977 . S
H1295 C1307 0.959 . S
H1296 C1310 0.929 . S
H1297 C1311 0.931 . S
H1298 C1313 0.930 . S
C1299 H1287 0.930 . S
C1299 C1300 1.399 . S
C1299 C1304 1.399 . S
C1300 C1299 1.399 . S
C1300 C1301 1.376 . S
C1301 H1288 0.930 . S
C1301 C1300 1.376 . S
C1301 C1302 1.388 . S
C1302 H1289 0.930 . S
C1302 C1301 1.388 . S
C1302 C1303 1.390 . S
C1303 C1302 1.390 . S
C1303 C1304 1.394 . S
C1303 C1309 1.465 . S
C1304 C1299 1.399 . S
C1304 C1303 1.394 . S
C1304 C1305 1.516 . S
C1305 C1304 1.516 . S
C1305 C1306 1.502 . S
C1305 C1307 1.561 . S
C1305 C1308 1.526 . S
C1306 H1290 0.959 . S
C1306 H1291 0.959 1_556 S
C1306 H1292 0.918 1_556 S
C1306 C1305 1.502 . S
C1307 H1293 0.960 . S
C1307 H1294 0.977 . S
C1307 H1295 0.959 . S
C1307 C1305 1.561 . S
C1308 C1305 1.526 . S
C1308 C1309 1.396 . S
C1308 C1313 1.390 . S
C1309 C1303 1.465 . S
C1309 C1308 1.396 . S
C1309 C1310 1.399 . S
C1310 H1296 0.929 . S
C1310 C1309 1.399 . S
C1310 C1311 1.385 . S
C1311 H1297 0.931 . S
C1311 C1310 1.385 . S
C1311 C1312 1.389 . S
C1312 C1311 1.389 . S
C1312 C1313 1.387 . S
C1313 H1298 0.930 . S
C1313 C1308 1.390 . S
C1313 C1312 1.387 . S
H1314 C1326 0.930 . S
H1315 C1328 0.930 . S
H1316 C1329 0.930 . S
H1317 C1333 0.959 . S
H1318 C1333 0.959 . S
H1319 C1333 0.961 . S
H1320 C1334 0.960 . S
H1321 C1334 0.961 . S
H1322 C1334 0.959 . S
H1323 C1337 0.929 . S
H1324 C1338 0.931 . S
H1325 C1340 0.930 . S
C1326 H1314 0.930 . S
C1326 C1327 1.399 . S
C1326 C1331 1.399 . S
C1327 C1326 1.399 . S
C1327 C1328 1.376 . S
C1328 H1315 0.930 . S
C1328 C1327 1.376 . S
C1328 C1329 1.388 . S
C1329 H1316 0.930 . S
C1329 C1328 1.388 . S
C1329 C1330 1.390 . S
C1330 C1329 1.390 . S
C1330 C1331 1.394 . S
C1330 C1336 1.465 . S
C1331 C1326 1.399 . S
C1331 C1330 1.394 . S
C1331 C1332 1.516 . S
C1332 C1331 1.516 . S
C1332 C1333 1.502 . S
C1332 C1334 1.561 . S
C1332 C1335 1.526 . S
C1333 H1317 0.959 . S
C1333 H1318 0.959 . S
C1333 H1319 0.961 . S
C1333 C1332 1.502 . S
C1334 H1320 0.960 . S
C1334 H1321 0.961 . S
C1334 H1322 0.959 . S
C1334 C1332 1.561 . S
C1335 C1332 1.526 . S
C1335 C1336 1.396 . S
C1335 C1340 1.390 . S
C1336 C1330 1.465 . S
C1336 C1335 1.396 . S
C1336 C1337 1.399 . S
C1337 H1323 0.929 . S
C1337 C1336 1.399 . S
C1337 C1338 1.385 . S
C1338 H1324 0.931 . S
C1338 C1337 1.385 . S
C1338 C1339 1.389 . S
C1339 C1338 1.389 . S
C1339 C1340 1.387 . S
C1340 H1325 0.930 . S
C1340 C1335 1.390 . S
C1340 C1339 1.387 . S
H1341 C1353 0.930 . S
H1342 C1355 0.930 . S
H1343 C1356 0.930 . S
H1344 C1360 0.959 . S
H1345 C1360 0.959 . S
H1346 C1360 0.961 . S
H1347 C1361 0.960 . S
H1348 C1361 0.961 . S
H1349 C1361 0.959 . S
H1350 C1364 0.929 . S
H1351 C1365 0.931 . S
H1352 C1367 0.930 . S
C1353 H1341 0.930 . S
C1353 C1354 1.399 . S
C1353 C1358 1.399 . S
C1354 C1353 1.399 . S
C1354 C1355 1.376 . S
C1355 H1342 0.930 . S
C1355 C1354 1.376 . S
C1355 C1356 1.388 . S
C1356 H1343 0.930 . S
C1356 C1355 1.388 . S
C1356 C1357 1.390 . S
C1357 C1356 1.390 . S
C1357 C1358 1.394 . S
C1357 C1363 1.465 . S
C1358 C1353 1.399 . S
C1358 C1357 1.394 . S
C1358 C1359 1.516 . S
C1359 C1358 1.516 . S
C1359 C1360 1.502 . S
C1359 C1361 1.561 . S
C1359 C1362 1.526 . S
C1360 H1344 0.959 . S
C1360 H1345 0.959 . S
C1360 H1346 0.961 . S
C1360 C1359 1.502 . S
C1361 H1347 0.960 . S
C1361 H1348 0.961 . S
C1361 H1349 0.959 . S
C1361 C1359 1.561 . S
C1362 C1359 1.526 . S
C1362 C1363 1.396 . S
C1362 C1367 1.390 . S
C1363 C1357 1.465 . S
C1363 C1362 1.396 . S
C1363 C1364 1.399 . S
C1364 H1350 0.929 . S
C1364 C1363 1.399 . S
C1364 C1365 1.385 . S
C1365 H1351 0.931 . S
C1365 C1364 1.385 . S
C1365 C1366 1.389 . S
C1366 C1365 1.389 . S
C1366 C1367 1.387 . S
C1367 H1352 0.930 . S
C1367 C1362 1.390 . S
C1367 C1366 1.387 . S
H1368 C1380 0.930 . S
H1369 C1382 0.930 . S
H1370 C1383 0.930 . S
H1371 C1387 0.959 . S
H1372 C1387 0.959 . S
H1373 C1387 0.961 . S
H1374 C1388 0.960 . S
H1375 C1388 0.961 . S
H1376 C1388 0.959 . S
H1377 C1391 0.929 . S
H1378 C1392 0.931 . S
H1379 C1394 0.930 . S
C1380 H1368 0.930 . S
C1380 C1381 1.399 . S
C1380 C1385 1.399 . S
C1381 C1380 1.399 . S
C1381 C1382 1.376 . S
C1382 H1369 0.930 . S
C1382 C1381 1.376 . S
C1382 C1383 1.388 . S
C1383 H1370 0.930 . S
C1383 C1382 1.388 . S
C1383 C1384 1.390 . S
C1384 C1383 1.390 . S
C1384 C1385 1.394 . S
C1384 C1390 1.465 . S
C1385 C1380 1.399 . S
C1385 C1384 1.394 . S
C1385 C1386 1.516 . S
C1386 C1385 1.516 . S
C1386 C1387 1.502 . S
C1386 C1388 1.561 . S
C1386 C1389 1.526 . S
C1387 H1371 0.959 . S
C1387 H1372 0.959 . S
C1387 H1373 0.961 . S
C1387 C1386 1.502 . S
C1388 H1374 0.960 . S
C1388 H1375 0.961 . S
C1388 H1376 0.959 . S
C1388 C1386 1.561 . S
C1389 C1386 1.526 . S
C1389 C1390 1.396 . S
C1389 C1394 1.390 . S
C1390 C1384 1.465 . S
C1390 C1389 1.396 . S
C1390 C1391 1.399 . S
C1391 H1377 0.929 . S
C1391 C1390 1.399 . S
C1391 C1392 1.385 . S
C1392 H1378 0.931 . S
C1392 C1391 1.385 . S
C1392 C1393 1.389 . S
C1393 C1392 1.389 . S
C1393 C1394 1.387 . S
C1394 H1379 0.930 . S
C1394 C1389 1.390 . S
C1394 C1393 1.387 . S
H1395 C1407 0.930 . S
H1396 C1409 0.930 . S
H1397 C1410 0.930 . S
H1398 C1414 0.959 . S
H1399 C1414 0.959 . S
H1400 C1414 0.961 . S
H1401 C1415 0.960 . S
H1402 C1415 0.961 . S
H1403 C1415 0.959 . S
H1404 C1418 0.929 . S
H1405 C1419 0.931 . S
H1406 C1421 0.930 . S
C1407 H1395 0.930 . S
C1407 C1408 1.399 . S
C1407 C1412 1.399 . S
C1408 C1407 1.399 . S
C1408 C1409 1.376 . S
C1409 H1396 0.930 . S
C1409 C1408 1.376 . S
C1409 C1410 1.388 . S
C1410 H1397 0.930 . S
C1410 C1409 1.388 . S
C1410 C1411 1.390 . S
C1411 C1410 1.390 . S
C1411 C1412 1.394 . S
C1411 C1417 1.465 . S
C1412 C1407 1.399 . S
C1412 C1411 1.394 . S
C1412 C1413 1.516 . S
C1413 C1412 1.516 . S
C1413 C1414 1.502 . S
C1413 C1415 1.561 . S
C1413 C1416 1.526 . S
C1414 H1398 0.959 . S
C1414 H1399 0.959 . S
C1414 H1400 0.961 . S
C1414 C1413 1.502 . S
C1415 H1401 0.960 . S
C1415 H1402 0.961 . S
C1415 H1403 0.959 . S
C1415 C1413 1.561 . S
C1416 C1413 1.526 . S
C1416 C1417 1.396 . S
C1416 C1421 1.390 . S
C1417 C1411 1.465 . S
C1417 C1416 1.396 . S
C1417 C1418 1.399 . S
C1418 H1404 0.929 . S
C1418 C1417 1.399 . S
C1418 C1419 1.385 . S
C1419 H1405 0.931 . S
C1419 C1418 1.385 . S
C1419 C1420 1.389 . S
C1420 C1419 1.389 . S
C1420 C1421 1.387 . S
C1421 H1406 0.930 . S
C1421 C1416 1.390 . S
C1421 C1420 1.387 . S
H1422 C1434 0.930 . S
H1423 C1436 0.930 . S
H1424 C1437 0.930 . S
H1425 C1441 0.959 . S
H1426 C1441 0.959 . S
H1427 C1441 0.961 . S
H1428 C1442 0.960 . S
H1429 C1442 0.961 . S
H1430 C1442 0.959 . S
H1431 C1445 0.929 . S
H1432 C1446 0.931 . S
H1433 C1448 0.930 . S
C1434 H1422 0.930 . S
C1434 C1435 1.399 . S
C1434 C1439 1.399 . S
C1435 C1434 1.399 . S
C1435 C1436 1.376 . S
C1436 H1423 0.930 . S
C1436 C1435 1.376 . S
C1436 C1437 1.388 . S
C1437 H1424 0.930 . S
C1437 C1436 1.388 . S
C1437 C1438 1.390 . S
C1438 C1437 1.390 . S
C1438 C1439 1.394 . S
C1438 C1444 1.465 . S
C1439 C1434 1.399 . S
C1439 C1438 1.394 . S
C1439 C1440 1.516 . S
C1440 C1439 1.516 . S
C1440 C1441 1.502 . S
C1440 C1442 1.561 . S
C1440 C1443 1.526 . S
C1441 H1425 0.959 . S
C1441 H1426 0.959 . S
C1441 H1427 0.961 . S
C1441 C1440 1.502 . S
C1442 H1428 0.960 . S
C1442 H1429 0.961 . S
C1442 H1430 0.959 . S
C1442 C1440 1.561 . S
C1443 C1440 1.526 . S
C1443 C1444 1.396 . S
C1443 C1448 1.390 . S
C1444 C1438 1.465 . S
C1444 C1443 1.396 . S
C1444 C1445 1.399 . S
C1445 H1431 0.929 . S
C1445 C1444 1.399 . S
C1445 C1446 1.385 . S
C1446 H1432 0.931 . S
C1446 C1445 1.385 . S
C1446 C1447 1.389 . S
C1447 C1446 1.389 . S
C1447 C1448 1.387 . S
C1448 H1433 0.930 . S
C1448 C1443 1.390 . S
C1448 C1447 1.387 . S
H1449 C1461 0.930 . S
H1450 C1463 0.930 . S
H1451 C1464 0.930 . S
H1452 C1468 0.959 . S
H1453 C1468 0.959 . S
H1454 C1468 0.961 . S
H1455 C1469 0.960 . S
H1456 C1469 0.961 . S
H1457 C1469 0.959 . S
H1458 C1472 0.929 . S
H1459 C1473 0.931 . S
H1460 C1475 0.930 . S
C1461 H1449 0.930 . S
C1461 C1462 1.399 . S
C1461 C1466 1.399 . S
C1462 C1461 1.399 . S
C1462 C1463 1.376 . S
C1463 H1450 0.930 . S
C1463 C1462 1.376 . S
C1463 C1464 1.388 . S
C1464 H1451 0.930 . S
C1464 C1463 1.388 . S
C1464 C1465 1.390 . S
C1465 C1464 1.390 . S
C1465 C1466 1.394 . S
C1465 C1471 1.465 . S
C1466 C1461 1.399 . S
C1466 C1465 1.394 . S
C1466 C1467 1.516 . S
C1467 C1466 1.516 . S
C1467 C1468 1.502 . S
C1467 C1469 1.561 . S
C1467 C1470 1.526 . S
C1468 H1452 0.959 . S
C1468 H1453 0.959 . S
C1468 H1454 0.961 . S
C1468 C1467 1.502 . S
C1469 H1455 0.960 . S
C1469 H1456 0.961 . S
C1469 H1457 0.959 . S
C1469 C1467 1.561 . S
C1470 C1467 1.526 . S
C1470 C1471 1.396 . S
C1470 C1475 1.390 . S
C1471 C1465 1.465 . S
C1471 C1470 1.396 . S
C1471 C1472 1.399 . S
C1472 H1458 0.929 . S
C1472 C1471 1.399 . S
C1472 C1473 1.385 . S
C1473 H1459 0.931 . S
C1473 C1472 1.385 . S
C1473 C1474 1.389 . S
C1474 C1473 1.389 . S
C1474 C1475 1.387 . S
C1475 H1460 0.930 . S
C1475 C1470 1.390 . S
C1475 C1474 1.387 . S
H1476 C1488 0.930 . S
H1477 C1490 0.930 . S
H1478 C1491 0.930 . S
H1479 C1495 0.959 . S
H1480 C1495 0.959 . S
H1481 C1495 0.961 . S
H1482 C1496 0.960 . S
H1483 C1496 0.961 . S
H1484 C1496 0.959 . S
H1485 C1499 0.929 . S
H1486 C1500 0.931 . S
H1487 C1502 0.930 . S
C1488 H1476 0.930 . S
C1488 C1489 1.399 . S
C1488 C1493 1.399 . S
C1489 C1488 1.399 . S
C1489 C1490 1.376 . S
C1490 H1477 0.930 . S
C1490 C1489 1.376 . S
C1490 C1491 1.388 . S
C1491 H1478 0.930 . S
C1491 C1490 1.388 . S
C1491 C1492 1.390 . S
C1492 C1491 1.390 . S
C1492 C1493 1.394 . S
C1492 C1498 1.465 . S
C1493 C1488 1.399 . S
C1493 C1492 1.394 . S
C1493 C1494 1.516 . S
C1494 C1493 1.516 . S
C1494 C1495 1.502 . S
C1494 C1496 1.561 . S
C1494 C1497 1.526 . S
C1495 H1479 0.959 . S
C1495 H1480 0.959 . S
C1495 H1481 0.961 . S
C1495 C1494 1.502 . S
C1496 H1482 0.960 . S
C1496 H1483 0.961 . S
C1496 H1484 0.959 . S
C1496 C1494 1.561 . S
C1497 C1494 1.526 . S
C1497 C1498 1.396 . S
C1497 C1502 1.390 . S
C1498 C1492 1.465 . S
C1498 C1497 1.396 . S
C1498 C1499 1.399 . S
C1499 H1485 0.929 . S
C1499 C1498 1.399 . S
C1499 C1500 1.385 . S
C1500 H1486 0.931 . S
C1500 C1499 1.385 . S
C1500 C1501 1.389 . S
C1501 C1500 1.389 . S
C1501 C1502 1.387 . S
C1502 H1487 0.930 . S
C1502 C1497 1.390 . S
C1502 C1501 1.387 . S
H1503 C1515 0.930 . S
H1504 C1517 0.930 . S
H1505 C1518 0.930 . S
H1506 C1522 0.959 . S
H1507 C1522 0.959 . S
H1508 C1522 0.961 . S
H1509 C1523 0.960 . S
H1510 C1523 0.961 . S
H1511 C1523 0.959 . S
H1512 C1526 0.929 . S
H1513 C1527 0.931 . S
H1514 C1529 0.930 . S
C1515 H1503 0.930 . S
C1515 C1516 1.399 . S
C1515 C1520 1.399 . S
C1516 C1515 1.399 . S
C1516 C1517 1.376 1_545 S
C1517 H1504 0.930 . S
C1517 C1516 1.376 1_565 S
C1517 C1518 1.388 . S
C1518 H1505 0.930 . S
C1518 C1517 1.388 . S
C1518 C1519 1.390 . S
C1519 C1518 1.390 . S
C1519 C1520 1.394 1_565 S
C1519 C1525 1.465 . S
C1520 C1515 1.399 . S
C1520 C1519 1.394 1_545 S
C1520 C1521 1.516 . S
C1521 C1520 1.516 . S
C1521 C1522 1.502 . S
C1521 C1523 1.561 . S
C1521 C1524 1.526 . S
C1522 H1506 0.959 . S
C1522 H1507 0.959 . S
C1522 H1508 0.961 . S
C1522 C1521 1.502 . S
C1523 H1509 0.960 . S
C1523 H1510 0.961 . S
C1523 H1511 0.959 . S
C1523 C1521 1.561 . S
C1524 C1521 1.526 . S
C1524 C1525 1.396 1_545 S
C1524 C1529 1.390 . S
C1525 C1519 1.465 . S
C1525 C1524 1.396 1_565 S
C1525 C1526 1.399 . S
C1526 H1512 0.929 . S
C1526 C1525 1.399 . S
C1526 C1527 1.385 . S
C1527 H1513 0.931 . S
C1527 C1526 1.385 . S
C1527 C1528 1.389 . S
C1528 C1527 1.389 . S
C1528 C1529 1.387 1_565 S
C1529 H1514 0.930 . S
C1529 C1524 1.390 . S
C1529 C1528 1.387 1_545 S
H1530 C1542 0.930 . S
H1531 C1544 0.930 . S
H1532 C1545 0.930 . S
H1533 C1549 0.959 . S
H1534 C1549 0.959 . S
H1535 C1549 0.961 . S
H1536 C1550 0.960 . S
H1537 C1550 0.961 . S
H1538 C1550 0.959 . S
H1539 C1553 0.929 . S
H1540 C1554 0.931 . S
H1541 C1556 0.930 . S
C1542 H1530 0.930 . S
C1542 C1543 1.399 1_655 S
C1542 C1547 1.399 . S
C1543 C1542 1.399 1_455 S
C1543 C1544 1.376 . S
C1544 H1531 0.930 . S
C1544 C1543 1.376 . S
C1544 C1545 1.388 . S
C1545 H1532 0.930 . S
C1545 C1544 1.388 . S
C1545 C1546 1.390 . S
C1546 C1545 1.390 . S
C1546 C1547 1.394 1_455 S
C1546 C1552 1.465 . S
C1547 C1542 1.399 . S
C1547 C1546 1.394 1_655 S
C1547 C1548 1.516 . S
C1548 C1547 1.516 . S
C1548 C1549 1.502 . S
C1548 C1550 1.561 . S
C1548 C1551 1.526 . S
C1549 H1533 0.959 . S
C1549 H1534 0.959 . S
C1549 H1535 0.961 . S
C1549 C1548 1.502 . S
C1550 H1536 0.960 . S
C1550 H1537 0.961 . S
C1550 H1538 0.959 . S
C1550 C1548 1.561 . S
C1551 C1548 1.526 . S
C1551 C1552 1.396 1_655 S
C1551 C1556 1.390 . S
C1552 C1546 1.465 . S
C1552 C1551 1.396 1_455 S
C1552 C1553 1.399 . S
C1553 H1539 0.929 . S
C1553 C1552 1.399 . S
C1553 C1554 1.385 . S
C1554 H1540 0.931 . S
C1554 C1553 1.385 . S
C1554 C1555 1.389 1_455 S
C1555 C1554 1.389 1_655 S
C1555 C1556 1.387 . S
C1556 H1541 0.930 . S
C1556 C1551 1.390 . S
C1556 C1555 1.387 . S
H1557 C1569 0.930 . S
H1558 C1571 0.930 . S
H1559 C1572 0.930 . S
H1560 C1576 0.959 . S
H1561 C1576 0.959 . S
H1562 C1576 0.961 . S
H1563 C1577 0.960 . S
H1564 C1577 0.961 . S
H1565 C1577 0.959 . S
H1566 C1580 0.929 . S
H1567 C1581 0.931 . S
H1568 C1583 0.930 . S
C1569 H1557 0.930 . S
C1569 C1570 1.399 . S
C1569 C1574 1.399 . S
C1570 C1569 1.399 . S
C1570 C1571 1.376 . S
C1571 H1558 0.930 . S
C1571 C1570 1.376 . S
C1571 C1572 1.388 . S
C1572 H1559 0.930 . S
C1572 C1571 1.388 . S
C1572 C1573 1.390 . S
C1573 C1572 1.390 . S
C1573 C1574 1.394 . S
C1573 C1579 1.465 . S
C1574 C1569 1.399 . S
C1574 C1573 1.394 . S
C1574 C1575 1.516 . S
C1575 C1574 1.516 . S
C1575 C1576 1.502 . S
C1575 C1577 1.561 . S
C1575 C1578 1.526 . S
C1576 H1560 0.959 . S
C1576 H1561 0.959 . S
C1576 H1562 0.961 . S
C1576 C1575 1.502 . S
C1577 H1563 0.960 . S
C1577 H1564 0.961 . S
C1577 H1565 0.959 . S
C1577 C1575 1.561 . S
C1578 C1575 1.526 . S
C1578 C1579 1.396 . S
C1578 C1583 1.390 . S
C1579 C1573 1.465 . S
C1579 C1578 1.396 . S
C1579 C1580 1.399 . S
C1580 H1566 0.929 . S
C1580 C1579 1.399 . S
C1580 C1581 1.385 . S
C1581 H1567 0.931 . S
C1581 C1580 1.385 . S
C1581 C1582 1.389 . S
C1582 C1581 1.389 . S
C1582 C1583 1.387 . S
C1583 H1568 0.930 . S
C1583 C1578 1.390 . S
C1583 C1582 1.387 . S
H1584 C1596 0.930 . S
H1585 C1598 0.930 . S
H1586 C1599 0.930 . S
H1587 C1603 0.959 . S
H1588 C1603 0.959 . S
H1589 C1603 0.961 . S
H1590 C1604 0.960 . S
H1591 C1604 0.961 . S
H1592 C1604 0.959 . S
H1593 C1607 0.929 . S
H1594 C1608 0.931 . S
H1595 C1610 0.930 . S
C1596 H1584 0.930 . S
C1596 C1597 1.399 1_545 S
C1596 C1601 1.399 . S
C1597 C1596 1.399 1_565 S
C1597 C1598 1.376 . S
C1598 H1585 0.930 . S
C1598 C1597 1.376 . S
C1598 C1599 1.388 . S
C1599 H1586 0.930 . S
C1599 C1598 1.388 . S
C1599 C1600 1.390 . S
C1600 C1599 1.390 . S
C1600 C1601 1.394 1_565 S
C1600 C1606 1.465 . S
C1601 C1596 1.399 . S
C1601 C1600 1.394 1_545 S
C1601 C1602 1.516 . S
C1602 C1601 1.516 . S
C1602 C1603 1.502 . S
C1602 C1604 1.561 . S
C1602 C1605 1.526 . S
C1603 H1587 0.959 . S
C1603 H1588 0.959 . S
C1603 H1589 0.961 . S
C1603 C1602 1.502 . S
C1604 H1590 0.960 . S
C1604 H1591 0.961 . S
C1604 H1592 0.959 . S
C1604 C1602 1.561 . S
C1605 C1602 1.526 . S
C1605 C1606 1.396 1_545 S
C1605 C1610 1.390 . S
C1606 C1600 1.465 . S
C1606 C1605 1.396 1_565 S
C1606 C1607 1.399 . S
C1607 H1593 0.929 . S
C1607 C1606 1.399 . S
C1607 C1608 1.385 . S
C1608 H1594 0.931 . S
C1608 C1607 1.385 . S
C1608 C1609 1.389 1_565 S
C1609 C1608 1.389 1_545 S
C1609 C1610 1.387 . S
C1610 H1595 0.930 . S
C1610 C1605 1.390 . S
C1610 C1609 1.387 . S
H1611 C1623 0.930 . S
H1612 C1625 0.930 . S
H1613 C1626 0.930 . S
H1614 C1630 0.959 . S
H1615 C1630 0.959 . S
H1616 C1630 0.961 . S
H1617 C1631 0.960 . S
H1618 C1631 0.961 . S
H1619 C1631 0.964 . S
H1620 C1634 0.929 . S
H1621 C1635 0.931 . S
H1622 C1637 0.930 . S
C1623 H1611 0.930 . S
C1623 C1624 1.410 . S
C1623 C1628 1.399 . S
C1624 C1623 1.410 . S
C1624 C1625 1.361 1_655 S
C1625 H1612 0.930 . S
C1625 C1624 1.361 1_455 S
C1625 C1626 1.388 . S
C1626 H1613 0.930 . S
C1626 C1625 1.388 . S
C1626 C1627 1.390 . S
C1627 C1626 1.390 . S
C1627 C1628 1.394 1_455 S
C1627 C1633 1.465 . S
C1628 C1623 1.399 . S
C1628 C1627 1.394 1_655 S
C1628 C1629 1.516 . S
C1629 C1628 1.516 . S
C1629 C1630 1.502 . S
C1629 C1631 1.561 . S
C1629 C1632 1.526 . S
C1630 H1614 0.959 . S
C1630 H1615 0.959 . S
C1630 H1616 0.961 . S
C1630 C1629 1.502 . S
C1631 H1617 0.960 . S
C1631 H1618 0.961 . S
C1631 H1619 0.964 . S
C1631 C1629 1.561 . S
C1632 C1629 1.526 . S
C1632 C1633 1.396 1_655 S
C1632 C1637 1.390 . S
C1633 C1627 1.465 . S
C1633 C1632 1.396 1_455 S
C1633 C1634 1.399 . S
C1634 H1620 0.929 . S
C1634 C1633 1.399 . S
C1634 C1635 1.385 . S
C1635 H1621 0.931 . S
C1635 C1634 1.385 . S
C1635 C1636 1.389 . S
C1636 C1635 1.389 . S
C1636 C1637 1.387 1_455 S
C1637 H1622 0.930 . S
C1637 C1632 1.390 . S
C1637 C1636 1.387 1_655 S
H1638 C1650 0.930 . S
H1639 C1652 0.930 . S
H1640 C1653 0.930 . S
H1641 C1657 0.959 . S
H1642 C1657 0.959 . S
H1643 C1657 0.961 . S
H1644 C1658 0.960 . S
H1645 C1658 0.961 . S
H1646 C1658 0.959 . S
H1647 C1661 0.929 . S
H1648 C1662 0.931 . S
H1649 C1664 0.930 . S
C1650 H1638 0.930 . S
C1650 C1651 1.399 . S
C1650 C1655 1.399 . S
C1651 C1650 1.399 . S
C1651 C1652 1.376 . S
C1652 H1639 0.930 . S
C1652 C1651 1.376 . S
C1652 C1653 1.388 . S
C1653 H1640 0.930 . S
C1653 C1652 1.388 . S
C1653 C1654 1.390 . S
C1654 C1653 1.390 . S
C1654 C1655 1.394 . S
C1654 C1660 1.465 . S
C1655 C1650 1.399 . S
C1655 C1654 1.394 . S
C1655 C1656 1.516 . S
C1656 C1655 1.516 . S
C1656 C1657 1.502 . S
C1656 C1658 1.561 . S
C1656 C1659 1.526 . S
C1657 H1641 0.959 . S
C1657 H1642 0.959 . S
C1657 H1643 0.961 . S
C1657 C1656 1.502 . S
C1658 H1644 0.960 . S
C1658 H1645 0.961 . S
C1658 H1646 0.959 . S
C1658 C1656 1.561 . S
C1659 C1656 1.526 . S
C1659 C1660 1.396 . S
C1659 C1664 1.390 . S
C1660 C1654 1.465 . S
C1660 C1659 1.396 . S
C1660 C1661 1.399 . S
C1661 H1647 0.929 . S
C1661 C1660 1.399 . S
C1661 C1662 1.385 . S
C1662 H1648 0.931 . S
C1662 C1661 1.385 . S
C1662 C1663 1.389 . S
C1663 C1662 1.389 . S
C1663 C1664 1.387 . S
C1664 H1649 0.930 . S
C1664 C1659 1.390 . S
C1664 C1663 1.387 . S
H1665 C1677 0.930 . S
H1666 C1679 0.930 . S
H1667 C1680 0.930 . S
H1668 C1684 0.959 . S
H1669 C1684 0.959 . S
H1670 C1684 0.961 . S
H1671 C1685 0.960 . S
H1672 C1685 0.961 . S
H1673 C1685 0.959 . S
H1674 C1688 0.929 . S
H1675 C1689 0.931 . S
H1676 C1691 0.930 . S
C1677 H1665 0.930 . S
C1677 C1678 1.399 . S
C1677 C1682 1.399 . S
C1678 C1677 1.399 . S
C1678 C1679 1.376 . S
C1679 H1666 0.930 . S
C1679 C1678 1.376 . S
C1679 C1680 1.388 . S
C1680 H1667 0.930 . S
C1680 C1679 1.388 . S
C1680 C1681 1.390 . S
C1681 C1680 1.390 . S
C1681 C1682 1.394 . S
C1681 C1687 1.465 . S
C1682 C1677 1.399 . S
C1682 C1681 1.394 . S
C1682 C1683 1.516 . S
C1683 C1682 1.516 . S
C1683 C1684 1.502 . S
C1683 C1685 1.561 . S
C1683 C1686 1.526 . S
C1684 H1668 0.959 . S
C1684 H1669 0.959 . S
C1684 H1670 0.961 . S
C1684 C1683 1.502 . S
C1685 H1671 0.960 . S
C1685 H1672 0.961 . S
C1685 H1673 0.959 . S
C1685 C1683 1.561 . S
C1686 C1683 1.526 . S
C1686 C1687 1.396 . S
C1686 C1691 1.390 . S
C1687 C1681 1.465 . S
C1687 C1686 1.396 . S
C1687 C1688 1.399 . S
C1688 H1674 0.929 . S
C1688 C1687 1.399 . S
C1688 C1689 1.385 . S
C1689 H1675 0.931 . S
C1689 C1688 1.385 . S
C1689 C1690 1.389 . S
C1690 C1689 1.389 . S
C1690 C1691 1.387 . S
C1691 H1676 0.930 . S
C1691 C1686 1.390 . S
C1691 C1690 1.387 . S
H1692 C1704 0.930 . S
H1693 C1706 0.930 . S
H1694 C1707 0.930 . S
H1695 C1711 0.959 . S
H1696 C1711 0.959 . S
H1697 C1711 0.961 . S
H1698 C1712 0.960 . S
H1699 C1712 0.961 . S
H1700 C1712 0.959 . S
H1701 C1715 0.929 . S
H1702 C1716 0.931 . S
H1703 C1718 0.930 . S
C1704 H1692 0.930 . S
C1704 C1705 1.399 . S
C1704 C1709 1.399 . S
C1705 C1704 1.399 . S
C1705 C1706 1.376 . S
C1706 H1693 0.930 . S
C1706 C1705 1.376 . S
C1706 C1707 1.388 . S
C1707 H1694 0.930 . S
C1707 C1706 1.388 . S
C1707 C1708 1.390 . S
C1708 C1707 1.390 . S
C1708 C1709 1.394 . S
C1708 C1714 1.465 . S
C1709 C1704 1.399 . S
C1709 C1708 1.394 . S
C1709 C1710 1.516 . S
C1710 C1709 1.516 . S
C1710 C1711 1.502 . S
C1710 C1712 1.561 . S
C1710 C1713 1.526 . S
C1711 H1695 0.959 . S
C1711 H1696 0.959 . S
C1711 H1697 0.961 . S
C1711 C1710 1.502 . S
C1712 H1698 0.960 . S
C1712 H1699 0.961 . S
C1712 H1700 0.959 . S
C1712 C1710 1.561 . S
C1713 C1710 1.526 . S
C1713 C1714 1.396 . S
C1713 C1718 1.390 . S
C1714 C1708 1.465 . S
C1714 C1713 1.396 . S
C1714 C1715 1.399 . S
C1715 H1701 0.929 . S
C1715 C1714 1.399 . S
C1715 C1716 1.385 . S
C1716 H1702 0.931 . S
C1716 C1715 1.385 . S
C1716 C1717 1.389 . S
C1717 C1716 1.389 . S
C1717 C1718 1.387 . S
C1718 H1703 0.930 . S
C1718 C1713 1.390 . S
C1718 C1717 1.387 . S
H1719 C1731 0.930 . S
H1720 C1733 0.930 . S
H1721 C1734 0.930 . S
H1722 C1738 0.959 . S
H1723 C1738 0.959 . S
H1724 C1738 0.961 . S
H1725 C1739 0.960 . S
H1726 C1739 0.961 . S
H1727 C1739 0.959 . S
H1728 C1742 0.929 . S
H1729 C1743 0.931 . S
H1730 C1745 0.930 . S
C1731 H1719 0.930 . S
C1731 C1732 1.399 . S
C1731 C1736 1.399 . S
C1732 C1731 1.399 . S
C1732 C1733 1.376 . S
C1733 H1720 0.930 . S
C1733 C1732 1.376 . S
C1733 C1734 1.388 . S
C1734 H1721 0.930 . S
C1734 C1733 1.388 . S
C1734 C1735 1.390 . S
C1735 C1734 1.390 . S
C1735 C1736 1.394 . S
C1735 C1741 1.465 . S
C1736 C1731 1.399 . S
C1736 C1735 1.394 . S
C1736 C1737 1.516 . S
C1737 C1736 1.516 . S
C1737 C1738 1.502 . S
C1737 C1739 1.561 . S
C1737 C1740 1.526 . S
C1738 H1722 0.959 . S
C1738 H1723 0.959 . S
C1738 H1724 0.961 . S
C1738 C1737 1.502 . S
C1739 H1725 0.960 . S
C1739 H1726 0.961 . S
C1739 H1727 0.959 . S
C1739 C1737 1.561 . S
C1740 C1737 1.526 . S
C1740 C1741 1.396 . S
C1740 C1745 1.390 . S
C1741 C1735 1.465 . S
C1741 C1740 1.396 . S
C1741 C1742 1.399 . S
C1742 H1728 0.929 . S
C1742 C1741 1.399 . S
C1742 C1743 1.385 . S
C1743 H1729 0.931 . S
C1743 C1742 1.385 . S
C1743 C1744 1.389 . S
C1744 C1743 1.389 . S
C1744 C1745 1.387 . S
C1745 H1730 0.930 . S
C1745 C1740 1.390 . S
C1745 C1744 1.387 . S
H1746 C1758 0.930 . S
H1747 C1760 0.930 . S
H1748 C1761 0.930 . S
H1749 C1765 0.959 . S
H1750 C1765 0.959 . S
H1751 C1765 0.961 . S
H1752 C1766 0.960 . S
H1753 C1766 0.961 . S
H1754 C1766 0.959 . S
H1755 C1769 0.929 . S
H1756 C1770 0.931 . S
H1757 C1772 0.930 . S
C1758 H1746 0.930 . S
C1758 C1759 1.399 . S
C1758 C1763 1.399 . S
C1759 C1758 1.399 . S
C1759 C1760 1.376 . S
C1760 H1747 0.930 . S
C1760 C1759 1.376 . S
C1760 C1761 1.388 . S
C1761 H1748 0.930 . S
C1761 C1760 1.388 . S
C1761 C1762 1.390 . S
C1762 C1761 1.390 . S
C1762 C1763 1.394 . S
C1762 C1768 1.465 . S
C1763 C1758 1.399 . S
C1763 C1762 1.394 . S
C1763 C1764 1.516 . S
C1764 C1763 1.516 . S
C1764 C1765 1.502 . S
C1764 C1766 1.561 . S
C1764 C1767 1.526 . S
C1765 H1749 0.959 . S
C1765 H1750 0.959 . S
C1765 H1751 0.961 . S
C1765 C1764 1.502 . S
C1766 H1752 0.960 . S
C1766 H1753 0.961 . S
C1766 H1754 0.959 . S
C1766 C1764 1.561 . S
C1767 C1764 1.526 . S
C1767 C1768 1.396 . S
C1767 C1772 1.390 . S
C1768 C1762 1.465 . S
C1768 C1767 1.396 . S
C1768 C1769 1.399 . S
C1769 H1755 0.929 . S
C1769 C1768 1.399 . S
C1769 C1770 1.385 . S
C1770 H1756 0.931 . S
C1770 C1769 1.385 . S
C1770 C1771 1.389 . S
C1771 C1770 1.389 . S
C1771 C1772 1.387 . S
C1772 H1757 0.930 . S
C1772 C1767 1.390 . S
C1772 C1771 1.387 . S
H1773 C1785 0.930 . S
H1774 C1787 0.930 . S
H1775 C1788 0.930 . S
H1776 C1792 0.959 . S
H1777 C1792 0.959 . S
H1778 C1792 0.961 . S
H1779 C1793 0.960 . S
H1780 C1793 0.961 . S
H1781 C1793 0.959 . S
H1782 C1796 0.929 . S
H1783 C1797 0.931 . S
H1784 C1799 0.930 . S
C1785 H1773 0.930 . S
C1785 C1786 1.399 . S
C1785 C1790 1.399 . S
C1786 C1785 1.399 . S
C1786 C1787 1.376 . S
C1787 H1774 0.930 . S
C1787 C1786 1.376 . S
C1787 C1788 1.388 . S
C1788 H1775 0.930 . S
C1788 C1787 1.388 . S
C1788 C1789 1.390 . S
C1789 C1788 1.390 . S
C1789 C1790 1.394 . S
C1789 C1795 1.465 . S
C1790 C1785 1.399 . S
C1790 C1789 1.394 . S
C1790 C1791 1.516 . S
C1791 C1790 1.516 . S
C1791 C1792 1.502 . S
C1791 C1793 1.561 . S
C1791 C1794 1.526 . S
C1792 H1776 0.959 . S
C1792 H1777 0.959 . S
C1792 H1778 0.961 . S
C1792 C1791 1.502 . S
C1793 H1779 0.960 . S
C1793 H1780 0.961 . S
C1793 H1781 0.959 . S
C1793 C1791 1.561 . S
C1794 C1791 1.526 . S
C1794 C1795 1.396 . S
C1794 C1799 1.390 . S
C1795 C1789 1.465 . S
C1795 C1794 1.396 . S
C1795 C1796 1.399 . S
C1796 H1782 0.929 . S
C1796 C1795 1.399 . S
C1796 C1797 1.385 . S
C1797 H1783 0.931 . S
C1797 C1796 1.385 . S
C1797 C1798 1.389 . S
C1798 C1797 1.389 . S
C1798 C1799 1.387 . S
C1799 H1784 0.930 . S
C1799 C1794 1.390 . S
C1799 C1798 1.387 . S
H1800 C1812 0.930 . S
H1801 C1814 0.930 . S
H1802 C1815 0.930 . S
H1803 C1819 0.959 . S
H1804 C1819 0.959 . S
H1805 C1819 0.961 . S
H1806 C1820 0.960 . S
H1807 C1820 0.961 . S
H1808 C1820 0.959 . S
H1809 C1823 0.929 . S
H1810 C1824 0.931 . S
H1811 C1826 0.930 . S
C1812 H1800 0.930 . S
C1812 C1813 1.399 . S
C1812 C1817 1.399 . S
C1813 C1812 1.399 . S
C1813 C1814 1.376 . S
C1814 H1801 0.930 . S
C1814 C1813 1.376 . S
C1814 C1815 1.388 . S
C1815 H1802 0.930 . S
C1815 C1814 1.388 . S
C1815 C1816 1.390 . S
C1816 C1815 1.390 . S
C1816 C1817 1.394 . S
C1816 C1822 1.465 . S
C1817 C1812 1.399 . S
C1817 C1816 1.394 . S
C1817 C1818 1.516 . S
C1818 C1817 1.516 . S
C1818 C1819 1.502 . S
C1818 C1820 1.561 . S
C1818 C1821 1.526 . S
C1819 H1803 0.959 . S
C1819 H1804 0.959 . S
C1819 H1805 0.961 . S
C1819 C1818 1.502 . S
C1820 H1806 0.960 . S
C1820 H1807 0.961 . S
C1820 H1808 0.959 . S
C1820 C1818 1.561 . S
C1821 C1818 1.526 . S
C1821 C1822 1.396 . S
C1821 C1826 1.390 . S
C1822 C1816 1.465 . S
C1822 C1821 1.396 . S
C1822 C1823 1.399 . S
C1823 H1809 0.929 . S
C1823 C1822 1.399 . S
C1823 C1824 1.385 . S
C1824 H1810 0.931 . S
C1824 C1823 1.385 . S
C1824 C1825 1.389 . S
C1825 C1824 1.389 . S
C1825 C1826 1.387 . S
C1826 H1811 0.930 . S
C1826 C1821 1.390 . S
C1826 C1825 1.387 . S
H1827 C1839 0.930 . S
H1828 C1841 0.930 . S
H1829 C1842 0.930 . S
H1830 C1846 0.959 . S
H1831 C1846 0.959 . S
H1832 C1846 0.961 . S
H1833 C1847 0.960 . S
H1834 C1847 0.961 . S
H1835 C1847 0.959 . S
H1836 C1850 0.929 . S
H1837 C1851 0.931 . S
H1838 C1853 0.930 . S
C1839 H1827 0.930 . S
C1839 C1840 1.399 . S
C1839 C1844 1.399 . S
C1840 C1839 1.399 . S
C1840 C1841 1.376 . S
C1841 H1828 0.930 . S
C1841 C1840 1.376 . S
C1841 C1842 1.388 . S
C1842 H1829 0.930 . S
C1842 C1841 1.388 . S
C1842 C1843 1.390 . S
C1843 C1842 1.390 . S
C1843 C1844 1.394 . S
C1843 C1849 1.465 . S
C1844 C1839 1.399 . S
C1844 C1843 1.394 . S
C1844 C1845 1.516 . S
C1845 C1844 1.516 . S
C1845 C1846 1.502 . S
C1845 C1847 1.561 . S
C1845 C1848 1.526 . S
C1846 H1830 0.959 . S
C1846 H1831 0.959 . S
C1846 H1832 0.961 . S
C1846 C1845 1.502 . S
C1847 H1833 0.960 . S
C1847 H1834 0.961 . S
C1847 H1835 0.959 . S
C1847 C1845 1.561 . S
C1848 C1845 1.526 . S
C1848 C1849 1.396 . S
C1848 C1853 1.390 . S
C1849 C1843 1.465 . S
C1849 C1848 1.396 . S
C1849 C1850 1.399 . S
C1850 H1836 0.929 . S
C1850 C1849 1.399 . S
C1850 C1851 1.385 . S
C1851 H1837 0.931 . S
C1851 C1850 1.385 . S
C1851 C1852 1.389 . S
C1852 C1851 1.389 . S
C1852 C1853 1.387 . S
C1853 H1838 0.930 . S
C1853 C1848 1.390 . S
C1853 C1852 1.387 . S
H1854 C1866 0.930 . S
H1855 C1868 0.930 . S
H1856 C1869 0.930 . S
H1857 C1873 0.959 . S
H1858 C1873 0.959 . S
H1859 C1873 0.961 . S
H1860 C1874 0.960 . S
H1861 C1874 0.961 . S
H1862 C1874 0.959 . S
H1863 C1877 0.929 . S
H1864 C1878 0.931 . S
H1865 C1880 0.930 . S
C1866 H1854 0.930 . S
C1866 C1867 1.399 . S
C1866 C1871 1.399 . S
C1867 C1866 1.399 . S
C1867 C1868 1.376 . S
C1868 H1855 0.930 . S
C1868 C1867 1.376 . S
C1868 C1869 1.388 . S
C1869 H1856 0.930 . S
C1869 C1868 1.388 . S
C1869 C1870 1.390 . S
C1870 C1869 1.390 . S
C1870 C1871 1.394 . S
C1870 C1876 1.465 . S
C1871 C1866 1.399 . S
C1871 C1870 1.394 . S
C1871 C1872 1.516 . S
C1872 C1871 1.516 . S
C1872 C1873 1.502 . S
C1872 C1874 1.561 . S
C1872 C1875 1.526 . S
C1873 H1857 0.959 . S
C1873 H1858 0.959 . S
C1873 H1859 0.961 . S
C1873 C1872 1.502 . S
C1874 H1860 0.960 . S
C1874 H1861 0.961 . S
C1874 H1862 0.959 . S
C1874 C1872 1.561 . S
C1875 C1872 1.526 . S
C1875 C1876 1.396 . S
C1875 C1880 1.390 . S
C1876 C1870 1.465 . S
C1876 C1875 1.396 . S
C1876 C1877 1.399 . S
C1877 H1863 0.929 . S
C1877 C1876 1.399 . S
C1877 C1878 1.385 . S
C1878 H1864 0.931 . S
C1878 C1877 1.385 . S
C1878 C1879 1.389 . S
C1879 C1878 1.389 . S
C1879 C1880 1.387 . S
C1880 H1865 0.930 . S
C1880 C1875 1.390 . S
C1880 C1879 1.387 . S
H1881 C1893 0.930 . S
H1882 C1895 0.930 . S
H1883 C1896 0.930 . S
H1884 C1900 0.959 . S
H1885 C1900 0.959 . S
H1886 C1900 0.961 . S
H1887 C1901 0.960 . S
H1888 C1901 0.961 . S
H1889 C1901 0.959 . S
H1890 C1904 0.929 . S
H1891 C1905 0.931 . S
H1892 C1907 0.930 . S
C1893 H1881 0.930 . S
C1893 C1894 1.399 . S
C1893 C1898 1.399 . S
C1894 C1893 1.399 . S
C1894 C1895 1.376 . S
C1895 H1882 0.930 . S
C1895 C1894 1.376 . S
C1895 C1896 1.388 . S
C1896 H1883 0.930 . S
C1896 C1895 1.388 . S
C1896 C1897 1.390 . S
C1897 C1896 1.390 . S
C1897 C1898 1.394 . S
C1897 C1903 1.465 . S
C1898 C1893 1.399 . S
C1898 C1897 1.394 . S
C1898 C1899 1.516 . S
C1899 C1898 1.516 . S
C1899 C1900 1.502 . S
C1899 C1901 1.561 . S
C1899 C1902 1.526 . S
C1900 H1884 0.959 . S
C1900 H1885 0.959 . S
C1900 H1886 0.961 . S
C1900 C1899 1.502 . S
C1901 H1887 0.960 . S
C1901 H1888 0.961 . S
C1901 H1889 0.959 . S
C1901 C1899 1.561 . S
C1902 C1899 1.526 . S
C1902 C1903 1.396 . S
C1902 C1907 1.390 . S
C1903 C1897 1.465 . S
C1903 C1902 1.396 . S
C1903 C1904 1.399 . S
C1904 H1890 0.929 . S
C1904 C1903 1.399 . S
C1904 C1905 1.385 . S
C1905 H1891 0.931 . S
C1905 C1904 1.385 . S
C1905 C1906 1.389 . S
C1906 C1905 1.389 . S
C1906 C1907 1.387 . S
C1907 H1892 0.930 . S
C1907 C1902 1.390 . S
C1907 C1906 1.387 . S
H1908 C1920 0.930 . S
H1909 C1922 0.930 . S
H1910 C1923 0.930 . S
H1911 C1927 0.959 . S
H1912 C1927 0.959 . S
H1913 C1927 0.961 . S
H1914 C1928 0.960 . S
H1915 C1928 0.961 . S
H1916 C1928 0.959 . S
H1917 C1931 0.929 . S
H1918 C1932 0.931 . S
H1919 C1934 0.930 . S
C1920 H1908 0.930 . S
C1920 C1921 1.399 . S
C1920 C1925 1.399 . S
C1921 C1920 1.399 . S
C1921 C1922 1.376 . S
C1922 H1909 0.930 . S
C1922 C1921 1.376 . S
C1922 C1923 1.388 . S
C1923 H1910 0.930 . S
C1923 C1922 1.388 . S
C1923 C1924 1.390 . S
C1924 C1923 1.390 . S
C1924 C1925 1.394 . S
C1924 C1930 1.465 . S
C1925 C1920 1.399 . S
C1925 C1924 1.394 . S
C1925 C1926 1.516 . S
C1926 C1925 1.516 . S
C1926 C1927 1.502 . S
C1926 C1928 1.561 . S
C1926 C1929 1.526 . S
C1927 H1911 0.959 . S
C1927 H1912 0.959 . S
C1927 H1913 0.961 . S
C1927 C1926 1.502 . S
C1928 H1914 0.960 . S
C1928 H1915 0.961 . S
C1928 H1916 0.959 . S
C1928 C1926 1.561 . S
C1929 C1926 1.526 . S
C1929 C1930 1.396 . S
C1929 C1934 1.390 . S
C1930 C1924 1.465 . S
C1930 C1929 1.396 . S
C1930 C1931 1.399 . S
C1931 H1917 0.929 . S
C1931 C1930 1.399 . S
C1931 C1932 1.385 . S
C1932 H1918 0.931 . S
C1932 C1931 1.385 . S
C1932 C1933 1.389 . S
C1933 C1932 1.389 . S
C1933 C1934 1.387 . S
C1934 H1919 0.930 . S
C1934 C1929 1.390 . S
C1934 C1933 1.387 . S
H1935 C1947 0.930 . S
H1936 C1949 0.930 . S
H1937 C1950 0.930 . S
H1938 C1954 0.959 . S
H1939 C1954 0.959 . S
H1940 C1954 0.961 . S
H1941 C1955 0.960 . S
H1942 C1955 0.961 . S
H1943 C1955 0.959 . S
H1944 C1958 0.929 . S
H1945 C1959 0.931 . S
H1946 C1961 0.930 . S
C1947 H1935 0.930 . S
C1947 C1948 1.399 . S
C1947 C1952 1.399 . S
C1948 C1947 1.399 . S
C1948 C1949 1.376 . S
C1949 H1936 0.930 . S
C1949 C1948 1.376 . S
C1949 C1950 1.388 . S
C1950 H1937 0.930 . S
C1950 C1949 1.388 . S
C1950 C1951 1.390 . S
C1951 C1950 1.390 . S
C1951 C1952 1.394 . S
C1951 C1957 1.465 . S
C1952 C1947 1.399 . S
C1952 C1951 1.394 . S
C1952 C1953 1.516 . S
C1953 C1952 1.516 . S
C1953 C1954 1.502 . S
C1953 C1955 1.561 . S
C1953 C1956 1.526 . S
C1954 H1938 0.959 . S
C1954 H1939 0.959 . S
C1954 H1940 0.961 . S
C1954 C1953 1.502 . S
C1955 H1941 0.960 . S
C1955 H1942 0.961 . S
C1955 H1943 0.959 . S
C1955 C1953 1.561 . S
C1956 C1953 1.526 . S
C1956 C1957 1.396 . S
C1956 C1961 1.390 . S
C1957 C1951 1.465 . S
C1957 C1956 1.396 . S
C1957 C1958 1.399 . S
C1958 H1944 0.929 . S
C1958 C1957 1.399 . S
C1958 C1959 1.385 . S
C1959 H1945 0.931 . S
C1959 C1958 1.385 . S
C1959 C1960 1.389 . S
C1960 C1959 1.389 . S
C1960 C1961 1.387 . S
C1961 H1946 0.930 . S
C1961 C1956 1.390 . S
C1961 C1960 1.387 . S
H1962 C1974 0.930 . S
H1963 C1976 0.930 . S
H1964 C1977 0.930 . S
H1965 C1981 0.959 . S
H1966 C1981 0.959 . S
H1967 C1981 0.961 . S
H1968 C1982 0.960 . S
H1969 C1982 0.961 . S
H1970 C1982 0.959 . S
H1971 C1985 0.929 . S
H1972 C1986 0.931 . S
H1973 C1988 0.930 . S
C1974 H1962 0.930 . S
C1974 C1975 1.399 . S
C1974 C1979 1.399 . S
C1975 C1974 1.399 . S
C1975 C1976 1.376 . S
C1976 H1963 0.930 . S
C1976 C1975 1.376 . S
C1976 C1977 1.388 . S
C1977 H1964 0.930 . S
C1977 C1976 1.388 . S
C1977 C1978 1.390 . S
C1978 C1977 1.390 . S
C1978 C1979 1.394 . S
C1978 C1984 1.465 . S
C1979 C1974 1.399 . S
C1979 C1978 1.394 . S
C1979 C1980 1.516 . S
C1980 C1979 1.516 . S
C1980 C1981 1.502 . S
C1980 C1982 1.561 . S
C1980 C1983 1.526 . S
C1981 H1965 0.959 . S
C1981 H1966 0.959 . S
C1981 H1967 0.961 . S
C1981 C1980 1.502 . S
C1982 H1968 0.960 . S
C1982 H1969 0.961 . S
C1982 H1970 0.959 . S
C1982 C1980 1.561 . S
C1983 C1980 1.526 . S
C1983 C1984 1.396 . S
C1983 C1988 1.390 . S
C1984 C1978 1.465 . S
C1984 C1983 1.396 . S
C1984 C1985 1.399 . S
C1985 H1971 0.929 . S
C1985 C1984 1.399 . S
C1985 C1986 1.385 . S
C1986 H1972 0.931 . S
C1986 C1985 1.385 . S
C1986 C1987 1.389 . S
C1987 C1986 1.389 . S
C1987 C1988 1.387 . S
C1988 H1973 0.930 . S
C1988 C1983 1.390 . S
C1988 C1987 1.387 . S
H1989 C2001 0.930 . S
H1990 C2003 0.930 . S
H1991 C2004 0.930 . S
H1992 C2008 0.959 . S
H1993 C2008 0.959 . S
H1994 C2008 0.961 . S
H1995 C2009 0.960 . S
H1996 C2009 0.961 . S
H1997 C2009 0.959 . S
H1998 C2012 0.929 . S
H1999 C2013 0.931 . S
H2000 C2015 0.930 . S
C2001 H1989 0.930 . S
C2001 C2002 1.399 . S
C2001 C2006 1.399 . S
C2002 C2001 1.399 . S
C2002 C2003 1.376 . S
C2003 H1990 0.930 . S
C2003 C2002 1.376 . S
C2003 C2004 1.388 . S
C2004 H1991 0.930 . S
C2004 C2003 1.388 . S
C2004 C2005 1.390 . S
C2005 C2004 1.390 . S
C2005 C2006 1.394 . S
C2005 C2011 1.465 . S
C2006 C2001 1.399 . S
C2006 C2005 1.394 . S
C2006 C2007 1.516 . S
C2007 C2006 1.516 . S
C2007 C2008 1.502 . S
C2007 C2009 1.561 . S
C2007 C2010 1.526 . S
C2008 H1992 0.959 . S
C2008 H1993 0.959 . S
C2008 H1994 0.961 . S
C2008 C2007 1.502 . S
C2009 H1995 0.960 . S
C2009 H1996 0.961 . S
C2009 H1997 0.959 . S
C2009 C2007 1.561 . S
C2010 C2007 1.526 . S
C2010 C2011 1.396 . S
C2010 C2015 1.390 . S
C2011 C2005 1.465 . S
C2011 C2010 1.396 . S
C2011 C2012 1.399 . S
C2012 H1998 0.929 . S
C2012 C2011 1.399 . S
C2012 C2013 1.385 . S
C2013 H1999 0.931 . S
C2013 C2012 1.385 . S
C2013 C2014 1.389 . S
C2014 C2013 1.389 . S
C2014 C2015 1.387 . S
C2015 H2000 0.930 . S
C2015 C2010 1.390 . S
C2015 C2014 1.387 . S
H2016 C2028 0.930 . S
H2017 C2030 0.930 . S
H2018 C2031 0.930 . S
H2019 C2035 0.959 . S
H2020 C2035 0.959 . S
H2021 C2035 0.961 . S
H2022 C2036 0.960 . S
H2023 C2036 0.961 . S
H2024 C2036 0.959 . S
H2025 C2039 0.929 . S
H2026 C2040 0.931 . S
H2027 C2042 0.930 . S
C2028 H2016 0.930 . S
C2028 C2029 1.399 . S
C2028 C2033 1.399 . S
C2029 C2028 1.399 . S
C2029 C2030 1.376 . S
C2030 H2017 0.930 . S
C2030 C2029 1.376 . S
C2030 C2031 1.388 . S
C2031 H2018 0.930 . S
C2031 C2030 1.388 . S
C2031 C2032 1.390 . S
C2032 C2031 1.390 . S
C2032 C2033 1.394 . S
C2032 C2038 1.465 . S
C2033 C2028 1.399 . S
C2033 C2032 1.394 . S
C2033 C2034 1.516 . S
C2034 C2033 1.516 . S
C2034 C2035 1.502 . S
C2034 C2036 1.561 . S
C2034 C2037 1.526 . S
C2035 H2019 0.959 . S
C2035 H2020 0.959 . S
C2035 H2021 0.961 . S
C2035 C2034 1.502 . S
C2036 H2022 0.960 . S
C2036 H2023 0.961 . S
C2036 H2024 0.959 . S
C2036 C2034 1.561 . S
C2037 C2034 1.526 . S
C2037 C2038 1.396 . S
C2037 C2042 1.390 . S
C2038 C2032 1.465 . S
C2038 C2037 1.396 . S
C2038 C2039 1.399 . S
C2039 H2025 0.929 . S
C2039 C2038 1.399 . S
C2039 C2040 1.385 . S
C2040 H2026 0.931 . S
C2040 C2039 1.385 . S
C2040 C2041 1.389 . S
C2041 C2040 1.389 . S
C2041 C2042 1.387 . S
C2042 H2027 0.930 . S
C2042 C2037 1.390 . S
C2042 C2041 1.387 . S
H2043 C2055 0.930 . S
H2044 C2057 0.930 . S
H2045 C2058 0.930 . S
H2046 C2062 0.959 . S
H2047 C2062 0.959 . S
H2048 C2062 0.961 . S
H2049 C2063 0.960 . S
H2050 C2063 0.961 . S
H2051 C2063 0.959 . S
H2052 C2066 0.929 . S
H2053 C2067 0.931 . S
H2054 C2069 0.930 . S
C2055 H2043 0.930 . S
C2055 C2056 1.399 . S
C2055 C2060 1.399 . S
C2056 C2055 1.399 . S
C2056 C2057 1.376 . S
C2057 H2044 0.930 . S
C2057 C2056 1.376 . S
C2057 C2058 1.388 . S
C2058 H2045 0.930 . S
C2058 C2057 1.388 . S
C2058 C2059 1.390 . S
C2059 C2058 1.390 . S
C2059 C2060 1.394 . S
C2059 C2065 1.465 . S
C2060 C2055 1.399 . S
C2060 C2059 1.394 . S
C2060 C2061 1.516 . S
C2061 C2060 1.516 . S
C2061 C2062 1.502 . S
C2061 C2063 1.561 . S
C2061 C2064 1.526 . S
C2062 H2046 0.959 . S
C2062 H2047 0.959 . S
C2062 H2048 0.961 . S
C2062 C2061 1.502 . S
C2063 H2049 0.960 . S
C2063 H2050 0.961 . S
C2063 H2051 0.959 . S
C2063 C2061 1.561 . S
C2064 C2061 1.526 . S
C2064 C2065 1.396 . S
C2064 C2069 1.390 . S
C2065 C2059 1.465 . S
C2065 C2064 1.396 . S
C2065 C2066 1.399 . S
C2066 H2052 0.929 . S
C2066 C2065 1.399 . S
C2066 C2067 1.385 . S
C2067 H2053 0.931 . S
C2067 C2066 1.385 . S
C2067 C2068 1.389 . S
C2068 C2067 1.389 . S
C2068 C2069 1.387 . S
C2069 H2054 0.930 . S
C2069 C2064 1.390 . S
C2069 C2068 1.387 . S
H2070 C2082 0.930 . S
H2071 C2084 0.930 . S
H2072 C2085 0.930 . S
H2073 C2089 0.959 . S
H2074 C2089 0.959 . S
H2075 C2089 0.961 . S
H2076 C2090 0.960 . S
H2077 C2090 0.961 . S
H2078 C2090 0.959 . S
H2079 C2093 0.929 . S
H2080 C2094 0.931 . S
H2081 C2096 0.930 . S
C2082 H2070 0.930 . S
C2082 C2083 1.399 . S
C2082 C2087 1.399 . S
C2083 C2082 1.399 . S
C2083 C2084 1.376 . S
C2084 H2071 0.930 . S
C2084 C2083 1.376 . S
C2084 C2085 1.388 . S
C2085 H2072 0.930 . S
C2085 C2084 1.388 . S
C2085 C2086 1.390 . S
C2086 C2085 1.390 . S
C2086 C2087 1.394 . S
C2086 C2092 1.465 . S
C2087 C2082 1.399 . S
C2087 C2086 1.394 . S
C2087 C2088 1.516 . S
C2088 C2087 1.516 . S
C2088 C2089 1.502 . S
C2088 C2090 1.561 . S
C2088 C2091 1.526 . S
C2089 H2073 0.959 . S
C2089 H2074 0.959 . S
C2089 H2075 0.961 . S
C2089 C2088 1.502 . S
C2090 H2076 0.960 . S
C2090 H2077 0.961 . S
C2090 H2078 0.959 . S
C2090 C2088 1.561 . S
C2091 C2088 1.526 . S
C2091 C2092 1.396 . S
C2091 C2096 1.390 . S
C2092 C2086 1.465 . S
C2092 C2091 1.396 . S
C2092 C2093 1.399 . S
C2093 H2079 0.929 . S
C2093 C2092 1.399 . S
C2093 C2094 1.385 . S
C2094 H2080 0.931 . S
C2094 C2093 1.385 . S
C2094 C2095 1.389 . S
C2095 C2094 1.389 . S
C2095 C2096 1.387 . S
C2096 H2081 0.930 . S
C2096 C2091 1.390 . S
C2096 C2095 1.387 . S
H2097 C2109 0.930 . S
H2098 C2111 0.930 . S
H2099 C2112 0.930 . S
H2100 C2116 0.959 . S
H2101 C2116 0.959 . S
H2102 C2116 0.961 . S
H2103 C2117 0.960 . S
H2104 C2117 0.961 . S
H2105 C2117 0.959 . S
H2106 C2120 0.929 . S
H2107 C2121 0.931 . S
H2108 C2123 0.930 . S
C2109 H2097 0.930 . S
C2109 C2110 1.399 . S
C2109 C2114 1.399 . S
C2110 C2109 1.399 . S
C2110 C2111 1.376 . S
C2111 H2098 0.930 . S
C2111 C2110 1.376 . S
C2111 C2112 1.388 . S
C2112 H2099 0.930 . S
C2112 C2111 1.388 . S
C2112 C2113 1.390 . S
C2113 C2112 1.390 . S
C2113 C2114 1.394 . S
C2113 C2119 1.465 . S
C2114 C2109 1.399 . S
C2114 C2113 1.394 . S
C2114 C2115 1.516 . S
C2115 C2114 1.516 . S
C2115 C2116 1.502 . S
C2115 C2117 1.561 . S
C2115 C2118 1.526 . S
C2116 H2100 0.959 . S
C2116 H2101 0.959 . S
C2116 H2102 0.961 . S
C2116 C2115 1.502 . S
C2117 H2103 0.960 . S
C2117 H2104 0.961 . S
C2117 H2105 0.959 . S
C2117 C2115 1.561 . S
C2118 C2115 1.526 . S
C2118 C2119 1.396 . S
C2118 C2123 1.390 . S
C2119 C2113 1.465 . S
C2119 C2118 1.396 . S
C2119 C2120 1.399 . S
C2120 H2106 0.929 . S
C2120 C2119 1.399 . S
C2120 C2121 1.385 . S
C2121 H2107 0.931 . S
C2121 C2120 1.385 . S
C2121 C2122 1.389 . S
C2122 C2121 1.389 . S
C2122 C2123 1.387 . S
C2123 H2108 0.930 . S
C2123 C2118 1.390 . S
C2123 C2122 1.387 . S
H2124 C2136 0.930 . S
H2125 C2138 0.930 . S
H2126 C2139 0.930 . S
H2127 C2143 0.959 . S
H2128 C2143 0.959 . S
H2129 C2143 0.961 . S
H2130 C2144 0.960 . S
H2131 C2144 0.961 . S
H2132 C2144 0.959 . S
H2133 C2147 0.929 . S
H2134 C2148 0.931 . S
H2135 C2150 0.930 . S
C2136 H2124 0.930 . S
C2136 C2137 1.399 . S
C2136 C2141 1.399 . S
C2137 C2136 1.399 . S
C2137 C2138 1.376 . S
C2138 H2125 0.930 . S
C2138 C2137 1.376 . S
C2138 C2139 1.388 . S
C2139 H2126 0.930 . S
C2139 C2138 1.388 . S
C2139 C2140 1.390 . S
C2140 C2139 1.390 . S
C2140 C2141 1.394 . S
C2140 C2146 1.465 . S
C2141 C2136 1.399 . S
C2141 C2140 1.394 . S
C2141 C2142 1.516 . S
C2142 C2141 1.516 . S
C2142 C2143 1.502 . S
C2142 C2144 1.561 . S
C2142 C2145 1.526 . S
C2143 H2127 0.959 . S
C2143 H2128 0.959 . S
C2143 H2129 0.961 . S
C2143 C2142 1.502 . S
C2144 H2130 0.960 . S
C2144 H2131 0.961 . S
C2144 H2132 0.959 . S
C2144 C2142 1.561 . S
C2145 C2142 1.526 . S
C2145 C2146 1.396 . S
C2145 C2150 1.390 . S
C2146 C2140 1.465 . S
C2146 C2145 1.396 . S
C2146 C2147 1.399 . S
C2147 H2133 0.929 . S
C2147 C2146 1.399 . S
C2147 C2148 1.385 . S
C2148 H2134 0.931 . S
C2148 C2147 1.385 . S
C2148 C2149 1.389 . S
C2149 C2148 1.389 . S
C2149 C2150 1.387 . S
C2150 H2135 0.930 . S
C2150 C2145 1.390 . S
C2150 C2149 1.387 . S
H2151 C2163 0.930 . S
H2152 C2165 0.930 . S
H2153 C2166 0.930 . S
H2154 C2170 0.959 . S
H2155 C2170 0.959 . S
H2156 C2170 0.961 . S
H2157 C2171 0.960 . S
H2158 C2171 0.961 . S
H2159 C2171 0.959 . S
H2160 C2174 0.929 . S
H2161 C2175 0.931 . S
H2162 C2177 0.930 . S
C2163 H2151 0.930 . S
C2163 C2164 1.399 . S
C2163 C2168 1.399 . S
C2164 C2163 1.399 . S
C2164 C2165 1.376 . S
C2165 H2152 0.930 . S
C2165 C2164 1.376 . S
C2165 C2166 1.388 . S
C2166 H2153 0.930 . S
C2166 C2165 1.388 . S
C2166 C2167 1.390 . S
C2167 C2166 1.390 . S
C2167 C2168 1.394 . S
C2167 C2173 1.465 . S
C2168 C2163 1.399 . S
C2168 C2167 1.394 . S
C2168 C2169 1.516 . S
C2169 C2168 1.516 . S
C2169 C2170 1.502 . S
C2169 C2171 1.561 . S
C2169 C2172 1.526 . S
C2170 H2154 0.959 . S
C2170 H2155 0.959 . S
C2170 H2156 0.961 . S
C2170 C2169 1.502 . S
C2171 H2157 0.960 . S
C2171 H2158 0.961 . S
C2171 H2159 0.959 . S
C2171 C2169 1.561 . S
C2172 C2169 1.526 . S
C2172 C2173 1.396 . S
C2172 C2177 1.390 . S
C2173 C2167 1.465 . S
C2173 C2172 1.396 . S
C2173 C2174 1.399 . S
C2174 H2160 0.929 . S
C2174 C2173 1.399 . S
C2174 C2175 1.385 . S
C2175 H2161 0.931 . S
C2175 C2174 1.385 . S
C2175 C2176 1.389 . S
C2176 C2175 1.389 . S
C2176 C2177 1.387 . S
C2177 H2162 0.930 . S
C2177 C2172 1.390 . S
C2177 C2176 1.387 . S
H2178 C2190 0.930 . S
H2179 C2192 0.930 . S
H2180 C2193 0.930 . S
H2181 C2197 0.959 . S
H2182 C2197 0.959 . S
H2183 C2197 0.961 . S
H2184 C2198 0.960 . S
H2185 C2198 0.961 . S
H2186 C2198 0.959 . S
H2187 C2201 0.929 . S
H2188 C2202 0.931 . S
H2189 C2204 0.930 . S
C2190 H2178 0.930 . S
C2190 C2191 1.399 . S
C2190 C2195 1.399 . S
C2191 C2190 1.399 . S
C2191 C2192 1.376 . S
C2192 H2179 0.930 . S
C2192 C2191 1.376 . S
C2192 C2193 1.388 . S
C2193 H2180 0.930 . S
C2193 C2192 1.388 . S
C2193 C2194 1.390 . S
C2194 C2193 1.390 . S
C2194 C2195 1.394 . S
C2194 C2200 1.465 . S
C2195 C2190 1.399 . S
C2195 C2194 1.394 . S
C2195 C2196 1.516 . S
C2196 C2195 1.516 . S
C2196 C2197 1.502 . S
C2196 C2198 1.561 . S
C2196 C2199 1.526 . S
C2197 H2181 0.959 . S
C2197 H2182 0.959 . S
C2197 H2183 0.961 . S
C2197 C2196 1.502 . S
C2198 H2184 0.960 . S
C2198 H2185 0.961 . S
C2198 H2186 0.959 . S
C2198 C2196 1.561 . S
C2199 C2196 1.526 . S
C2199 C2200 1.396 . S
C2199 C2204 1.390 . S
C2200 C2194 1.465 . S
C2200 C2199 1.396 . S
C2200 C2201 1.399 . S
C2201 H2187 0.929 . S
C2201 C2200 1.399 . S
C2201 C2202 1.385 . S
C2202 H2188 0.931 . S
C2202 C2201 1.385 . S
C2202 C2203 1.389 . S
C2203 C2202 1.389 . S
C2203 C2204 1.387 . S
C2204 H2189 0.930 . S
C2204 C2199 1.390 . S
C2204 C2203 1.387 . S
H2205 C2217 0.930 . S
H2206 C2219 0.930 . S
H2207 C2220 0.930 . S
H2208 C2224 0.959 . S
H2209 C2224 0.959 . S
H2210 C2224 0.961 . S
H2211 C2225 0.960 . S
H2212 C2225 0.961 . S
H2213 C2225 0.959 . S
H2214 C2228 0.929 . S
H2215 C2229 0.931 . S
H2216 C2231 0.930 . S
C2217 H2205 0.930 . S
C2217 C2218 1.399 . S
C2217 C2222 1.399 . S
C2218 C2217 1.399 . S
C2218 C2219 1.376 . S
C2219 H2206 0.930 . S
C2219 C2218 1.376 . S
C2219 C2220 1.388 . S
C2220 H2207 0.930 . S
C2220 C2219 1.388 . S
C2220 C2221 1.390 . S
C2221 C2220 1.390 . S
C2221 C2222 1.394 . S
C2221 C2227 1.465 . S
C2222 C2217 1.399 . S
C2222 C2221 1.394 . S
C2222 C2223 1.516 . S
C2223 C2222 1.516 . S
C2223 C2224 1.502 . S
C2223 C2225 1.561 . S
C2223 C2226 1.526 . S
C2224 H2208 0.959 . S
C2224 H2209 0.959 . S
C2224 H2210 0.961 . S
C2224 C2223 1.502 . S
C2225 H2211 0.960 . S
C2225 H2212 0.961 . S
C2225 H2213 0.959 . S
C2225 C2223 1.561 . S
C2226 C2223 1.526 . S
C2226 C2227 1.396 . S
C2226 C2231 1.390 . S
C2227 C2221 1.465 . S
C2227 C2226 1.396 . S
C2227 C2228 1.399 . S
C2228 H2214 0.929 . S
C2228 C2227 1.399 . S
C2228 C2229 1.385 . S
C2229 H2215 0.931 . S
C2229 C2228 1.385 . S
C2229 C2230 1.389 . S
C2230 C2229 1.389 . S
C2230 C2231 1.387 . S
C2231 H2216 0.930 . S
C2231 C2226 1.390 . S
C2231 C2230 1.387 . S
H2232 C2244 0.930 . S
H2233 C2246 0.930 . S
H2234 C2247 0.930 . S
H2235 C2251 0.959 . S
H2236 C2251 0.959 . S
H2237 C2251 0.961 . S
H2238 C2252 0.960 . S
H2239 C2252 0.961 . S
H2240 C2252 0.959 . S
H2241 C2255 0.929 . S
H2242 C2256 0.931 . S
H2243 C2258 0.930 . S
C2244 H2232 0.930 . S
C2244 C2245 1.399 . S
C2244 C2249 1.399 . S
C2245 C2244 1.399 . S
C2245 C2246 1.376 . S
C2246 H2233 0.930 . S
C2246 C2245 1.376 . S
C2246 C2247 1.388 . S
C2247 H2234 0.930 . S
C2247 C2246 1.388 . S
C2247 C2248 1.390 . S
C2248 C2247 1.390 . S
C2248 C2249 1.394 . S
C2248 C2254 1.465 . S
C2249 C2244 1.399 . S
C2249 C2248 1.394 . S
C2249 C2250 1.516 . S
C2250 C2249 1.516 . S
C2250 C2251 1.502 . S
C2250 C2252 1.561 . S
C2250 C2253 1.526 . S
C2251 H2235 0.959 . S
C2251 H2236 0.959 . S
C2251 H2237 0.961 . S
C2251 C2250 1.502 . S
C2252 H2238 0.960 . S
C2252 H2239 0.961 . S
C2252 H2240 0.959 . S
C2252 C2250 1.561 . S
C2253 C2250 1.526 . S
C2253 C2254 1.396 . S
C2253 C2258 1.390 . S
C2254 C2248 1.465 . S
C2254 C2253 1.396 . S
C2254 C2255 1.399 . S
C2255 H2241 0.929 . S
C2255 C2254 1.399 . S
C2255 C2256 1.385 . S
C2256 H2242 0.931 . S
C2256 C2255 1.385 . S
C2256 C2257 1.389 . S
C2257 C2256 1.389 . S
C2257 C2258 1.387 . S
C2258 H2243 0.930 . S
C2258 C2253 1.390 . S
C2258 C2257 1.387 . S
H2259 C2271 0.930 . S
H2260 C2273 0.930 . S
H2261 C2274 0.930 . S
H2262 C2278 0.959 . S
H2263 C2278 0.959 . S
H2264 C2278 0.961 . S
H2265 C2279 0.960 . S
H2266 C2279 0.961 . S
H2267 C2279 0.959 . S
H2268 C2282 0.929 . S
H2269 C2283 0.931 . S
H2270 C2285 0.930 . S
C2271 H2259 0.930 . S
C2271 C2272 1.399 . S
C2271 C2276 1.399 . S
C2272 C2271 1.399 . S
C2272 C2273 1.376 . S
C2273 H2260 0.930 . S
C2273 C2272 1.376 . S
C2273 C2274 1.388 . S
C2274 H2261 0.930 . S
C2274 C2273 1.388 . S
C2274 C2275 1.390 . S
C2275 C2274 1.390 . S
C2275 C2276 1.394 . S
C2275 C2281 1.465 . S
C2276 C2271 1.399 . S
C2276 C2275 1.394 . S
C2276 C2277 1.516 . S
C2277 C2276 1.516 . S
C2277 C2278 1.502 . S
C2277 C2279 1.561 . S
C2277 C2280 1.526 . S
C2278 H2262 0.959 . S
C2278 H2263 0.959 . S
C2278 H2264 0.961 . S
C2278 C2277 1.502 . S
C2279 H2265 0.960 . S
C2279 H2266 0.961 . S
C2279 H2267 0.959 . S
C2279 C2277 1.561 . S
C2280 C2277 1.526 . S
C2280 C2281 1.396 . S
C2280 C2285 1.390 . S
C2281 C2275 1.465 . S
C2281 C2280 1.396 . S
C2281 C2282 1.399 . S
C2282 H2268 0.929 . S
C2282 C2281 1.399 . S
C2282 C2283 1.385 . S
C2283 H2269 0.931 . S
C2283 C2282 1.385 . S
C2283 C2284 1.389 . S
C2284 C2283 1.389 . S
C2284 C2285 1.387 . S
C2285 H2270 0.930 . S
C2285 C2280 1.390 . S
C2285 C2284 1.387 . S
H2286 C2298 0.930 . S
H2287 C2300 0.930 . S
H2288 C2301 0.930 . S
H2289 C2305 0.959 . S
H2290 C2305 0.959 . S
H2291 C2305 0.961 . S
H2292 C2306 0.960 . S
H2293 C2306 0.961 . S
H2294 C2306 0.968 . S
H2295 C2309 0.929 . S
H2296 C2310 0.931 . S
H2297 C2312 0.930 . S
C2298 H2286 0.930 . S
C2298 C2299 1.399 . S
C2298 C2303 1.399 . S
C2299 C2298 1.399 . S
C2299 C2300 1.376 . S
C2300 H2287 0.930 . S
C2300 C2299 1.376 . S
C2300 C2301 1.388 . S
C2301 H2288 0.930 . S
C2301 C2300 1.388 . S
C2301 C2302 1.390 . S
C2302 C2301 1.390 . S
C2302 C2303 1.394 . S
C2302 C2308 1.467 . S
C2303 C2298 1.399 . S
C2303 C2302 1.394 . S
C2303 C2304 1.516 1_455 S
C2304 C2303 1.516 1_655 S
C2304 C2305 1.502 . S
C2304 C2306 1.561 . S
C2304 C2307 1.526 . S
C2305 H2289 0.959 . S
C2305 H2290 0.959 . S
C2305 H2291 0.961 . S
C2305 C2304 1.502 . S
C2306 H2292 0.960 . S
C2306 H2293 0.961 . S
C2306 H2294 0.968 . S
C2306 C2304 1.561 . S
C2307 C2304 1.526 . S
C2307 C2308 1.395 1_655 S
C2307 C2312 1.390 . S
C2308 C2302 1.467 . S
C2308 C2307 1.395 1_455 S
C2308 C2309 1.398 . S
C2309 H2295 0.929 . S
C2309 C2308 1.398 . S
C2309 C2310 1.385 1_455 S
C2310 H2296 0.931 . S
C2310 C2309 1.385 1_655 S
C2310 C2311 1.389 . S
C2311 C2310 1.389 . S
C2311 C2312 1.387 . S
C2312 H2297 0.930 . S
C2312 C2307 1.390 . S
C2312 C2311 1.387 . S
H2313 C2325 0.930 . S
H2314 C2327 0.930 . S
H2315 C2328 0.930 . S
H2316 C2332 0.959 . S
H2317 C2332 0.959 . S
H2318 C2332 0.961 . S
H2319 C2333 0.960 . S
H2320 C2333 0.961 . S
H2321 C2333 0.959 . S
H2322 C2336 0.929 . S
H2323 C2337 0.931 . S
H2324 C2339 0.930 . S
C2325 H2313 0.930 . S
C2325 C2326 1.399 . S
C2325 C2330 1.399 . S
C2326 C2325 1.399 . S
C2326 C2327 1.376 . S
C2327 H2314 0.930 . S
C2327 C2326 1.376 . S
C2327 C2328 1.388 . S
C2328 H2315 0.930 . S
C2328 C2327 1.388 . S
C2328 C2329 1.390 . S
C2329 C2328 1.390 . S
C2329 C2330 1.394 . S
C2329 C2335 1.465 . S
C2330 C2325 1.399 . S
C2330 C2329 1.394 . S
C2330 C2331 1.516 . S
C2331 C2330 1.516 . S
C2331 C2332 1.502 . S
C2331 C2333 1.561 . S
C2331 C2334 1.526 . S
C2332 H2316 0.959 . S
C2332 H2317 0.959 . S
C2332 H2318 0.961 . S
C2332 C2331 1.502 . S
C2333 H2319 0.960 . S
C2333 H2320 0.961 . S
C2333 H2321 0.959 . S
C2333 C2331 1.561 . S
C2334 C2331 1.526 . S
C2334 C2335 1.396 . S
C2334 C2339 1.390 . S
C2335 C2329 1.465 . S
C2335 C2334 1.396 . S
C2335 C2336 1.399 . S
C2336 H2322 0.929 . S
C2336 C2335 1.399 . S
C2336 C2337 1.385 . S
C2337 H2323 0.931 . S
C2337 C2336 1.385 . S
C2337 C2338 1.389 . S
C2338 C2337 1.389 . S
C2338 C2339 1.387 . S
C2339 H2324 0.930 . S
C2339 C2334 1.390 . S
C2339 C2338 1.387 . S
H2340 C2352 0.930 . S
H2341 C2354 0.930 . S
H2342 C2355 0.930 . S
H2343 C2359 0.959 . S
H2344 C2359 0.959 . S
H2345 C2359 0.961 . S
H2346 C2360 0.960 . S
H2347 C2360 0.961 . S
H2348 C2360 0.959 . S
H2349 C2363 0.929 . S
H2350 C2364 0.931 . S
H2351 C2366 0.930 . S
C2352 H2340 0.930 . S
C2352 C2353 1.399 . S
C2352 C2357 1.399 . S
C2353 C2352 1.399 . S
C2353 C2354 1.376 . S
C2354 H2341 0.930 . S
C2354 C2353 1.376 . S
C2354 C2355 1.388 1_545 S
C2355 H2342 0.930 . S
C2355 C2354 1.388 1_565 S
C2355 C2356 1.391 . S
C2356 C2355 1.391 . S
C2356 C2357 1.392 1_565 S
C2356 C2362 1.465 . S
C2357 C2352 1.399 . S
C2357 C2356 1.392 1_545 S
C2357 C2358 1.516 . S
C2358 C2357 1.516 . S
C2358 C2359 1.502 . S
C2358 C2360 1.561 . S
C2358 C2361 1.526 1_545 S
C2359 H2343 0.959 . S
C2359 H2344 0.959 . S
C2359 H2345 0.961 . S
C2359 C2358 1.502 . S
C2360 H2346 0.960 . S
C2360 H2347 0.961 . S
C2360 H2348 0.959 . S
C2360 C2358 1.561 . S
C2361 C2358 1.526 1_565 S
C2361 C2362 1.396 . S
C2361 C2366 1.390 . S
C2362 C2356 1.465 . S
C2362 C2361 1.396 . S
C2362 C2363 1.399 . S
C2363 H2349 0.929 . S
C2363 C2362 1.399 . S
C2363 C2364 1.385 . S
C2364 H2350 0.931 . S
C2364 C2363 1.385 . S
C2364 C2365 1.389 . S
C2365 C2364 1.389 . S
C2365 C2366 1.387 . S
C2366 H2351 0.930 . S
C2366 C2361 1.390 . S
C2366 C2365 1.387 . S
H2367 C2379 0.985 . S
H2368 C2381 0.930 . S
H2369 C2382 0.930 . S
H2370 C2386 0.959 1_565 S
H2371 C2386 0.959 1_565 S
H2372 C2386 0.961 . S
H2373 C2387 0.960 . S
H2374 C2387 0.961 . S
H2375 C2387 0.959 . S
H2376 C2390 0.929 . S
H2377 C2391 0.931 . S
H2378 C2393 0.930 . S
C2379 H2367 0.985 . S
C2379 C2380 1.337 1_556 S
C2379 C2384 1.408 . S
C2380 C2379 1.337 1_554 S
C2380 C2381 1.376 . S
C2381 H2368 0.930 . S
C2381 C2380 1.376 . S
C2381 C2382 1.388 . S
C2382 H2369 0.930 . S
C2382 C2381 1.388 . S
C2382 C2383 1.390 . S
C2383 C2382 1.390 . S
C2383 C2384 1.394 1_554 S
C2383 C2389 1.465 1_545 S
C2384 C2379 1.408 . S
C2384 C2383 1.394 1_556 S
C2384 C2385 1.516 . S
C2385 C2384 1.516 . S
C2385 C2386 1.502 . S
C2385 C2387 1.561 . S
C2385 C2388 1.526 1_545 S
C2386 H2370 0.959 1_545 S
C2386 H2371 0.959 1_545 S
C2386 H2372 0.961 . S
C2386 C2385 1.502 . S
C2387 H2373 0.960 . S
C2387 H2374 0.961 . S
C2387 H2375 0.959 . S
C2387 C2385 1.561 . S
C2388 C2385 1.526 1_565 S
C2388 C2389 1.396 1_556 S
C2388 C2393 1.390 . S
C2389 C2383 1.465 1_565 S
C2389 C2388 1.396 1_554 S
C2389 C2390 1.399 . S
C2390 H2376 0.929 . S
C2390 C2389 1.399 . S
C2390 C2391 1.385 . S
C2391 H2377 0.931 . S
C2391 C2390 1.385 . S
C2391 C2392 1.389 1_554 S
C2392 C2391 1.389 1_556 S
C2392 C2393 1.387 . S
C2393 H2378 0.930 . S
C2393 C2388 1.390 . S
C2393 C2392 1.387 . S
H2394 C2406 0.976 . S
H2395 C2408 0.930 . S
H2396 C2409 0.930 . S
H2397 C2413 0.959 . S
H2398 C2413 0.959 . S
H2399 C2413 0.961 . S
H2400 C2414 0.960 . S
H2401 C2414 0.961 . S
H2402 C2414 0.959 . S
H2403 C2417 0.929 . S
H2404 C2418 0.931 . S
H2405 C2420 0.930 . S
C2406 H2394 0.976 . S
C2406 C2407 1.346 1_556 S
C2406 C2411 1.408 . S
C2407 C2406 1.346 1_554 S
C2407 C2408 1.376 . S
C2408 H2395 0.930 . S
C2408 C2407 1.376 . S
C2408 C2409 1.388 . S
C2409 H2396 0.930 . S
C2409 C2408 1.388 . S
C2409 C2410 1.390 . S
C2410 C2409 1.390 . S
C2410 C2411 1.394 1_554 S
C2410 C2416 1.465 1_655 S
C2411 C2406 1.408 . S
C2411 C2410 1.394 1_556 S
C2411 C2412 1.516 . S
C2412 C2411 1.516 . S
C2412 C2413 1.502 1_655 S
C2412 C2414 1.561 . S
C2412 C2415 1.526 1_655 S
C2413 H2397 0.959 . S
C2413 H2398 0.959 . S
C2413 H2399 0.961 . S
C2413 C2412 1.502 1_455 S
C2414 H2400 0.960 . S
C2414 H2401 0.961 . S
C2414 H2402 0.959 . S
C2414 C2412 1.561 . S
C2415 C2412 1.526 1_455 S
C2415 C2416 1.396 1_556 S
C2415 C2420 1.390 . S
C2416 C2410 1.465 1_455 S
C2416 C2415 1.396 1_554 S
C2416 C2417 1.399 . S
C2417 H2403 0.929 . S
C2417 C2416 1.399 . S
C2417 C2418 1.385 . S
C2418 H2404 0.931 . S
C2418 C2417 1.385 . S
C2418 C2419 1.389 1_554 S
C2419 C2418 1.389 1_556 S
C2419 C2420 1.387 . S
C2420 H2405 0.930 . S
C2420 C2415 1.390 . S
C2420 C2419 1.387 . S
H2421 C2433 0.930 . S
H2422 C2435 0.930 . S
H2423 C2436 0.930 . S
H2424 C2440 0.959 . S
H2425 C2440 0.959 . S
H2426 C2440 0.961 . S
H2427 C2441 0.960 . S
H2428 C2441 0.961 . S
H2429 C2441 0.959 . S
H2430 C2444 0.929 . S
H2431 C2445 0.931 . S
H2432 C2447 0.927 . S
C2433 H2421 0.930 . S
C2433 C2434 1.399 . S
C2433 C2438 1.399 . S
C2434 C2433 1.399 . S
C2434 C2435 1.376 1_556 S
C2435 H2422 0.930 . S
C2435 C2434 1.376 1_554 S
C2435 C2436 1.388 . S
C2436 H2423 0.930 . S
C2436 C2435 1.388 . S
C2436 C2437 1.390 . S
C2437 C2436 1.390 . S
C2437 C2438 1.394 1_554 S
C2437 C2443 1.465 . S
C2438 C2433 1.399 . S
C2438 C2437 1.394 1_556 S
C2438 C2439 1.516 . S
C2439 C2438 1.516 . S
C2439 C2440 1.502 . S
C2439 C2441 1.561 . S
C2439 C2442 1.526 . S
C2440 H2424 0.959 . S
C2440 H2425 0.959 . S
C2440 H2426 0.961 . S
C2440 C2439 1.502 . S
C2441 H2427 0.960 . S
C2441 H2428 0.961 . S
C2441 H2429 0.959 . S
C2441 C2439 1.561 . S
C2442 C2439 1.526 . S
C2442 C2443 1.396 1_556 S
C2442 C2447 1.389 . S
C2443 C2437 1.465 . S
C2443 C2442 1.396 1_554 S
C2443 C2444 1.399 . S
C2444 H2430 0.929 . S
C2444 C2443 1.399 . S
C2444 C2445 1.385 . S
C2445 H2431 0.931 . S
C2445 C2444 1.385 . S
C2445 C2446 1.389 . S
C2446 C2445 1.389 . S
C2446 C2447 1.390 1_554 S
C2447 H2432 0.927 . S
C2447 C2442 1.389 . S
C2447 C2446 1.390 1_556 S
C517 C12 0.913 . S
C529 C18 1.042 . S
C544 C26 1.083 . S
C556 C32 1.116 . S
C571 C4 1.102 . S
C583 C40 1.030 . S
C598 C54 1.083 . S
C610 C74 1.109 . S
C625 C68 1.083 . S
C637 C46 1.109 . S
C652 C60 1.050 . S
C664 C82 0.925 . S
C679 C96 1.046 . S
C691 C102 1.088 . S
C706 C116 1.103 . S
C718 C110 1.040 . S
C733 C88 1.114 . S
C745 C124 1.069 . S
C760 C158 1.116 . S
C772 C138 1.075 . S
C787 C152 0.975 . S
C799 C130 1.055 . S
C814 C166 0.974 . S
C826 C144 1.075 . S
C841 C186 1.052 . S
C853 C180 0.975 . S
C868 C194 0.912 . S
C880 C200 1.041 . S
C895 C208 0.914 . S
C907 C172 1.044 . S
C922 C222 0.922 . S
C934 C242 1.050 . S
C949 C236 0.914 . S
C961 C214 1.038 . S
C976 C250 1.060 . S
C988 C228 1.092 . S
C1003 C270 1.113 . S
C1015 C264 1.066 . S
C1030 C278 1.025 . S
C1042 C284 1.077 . S
C1057 C256 1.038 . S
C1069 C292 0.929 . S
C1084 C326 1.116 . S
C1096 C306 1.078 . S
C1111 C320 0.982 . S
C1123 C298 1.058 . S
C1138 C312 1.042 . S
C1150 C334 0.940 . S
C1165 C354 1.069 . S
C1177 C348 1.015 . S
C1192 C362 0.925 . S
C1204 C368 1.052 . S
C1219 C376 1.085 . S
C1231 C340 1.111 . S
C1246 C410 1.064 . S
C1258 C390 1.004 . S
C1273 C404 0.913 . S
C1285 C382 1.042 . S
C1300 C396 1.073 . S
C1312 C418 0.965 . S
C1327 C432 0.962 . S
C1339 C438 1.069 . S
C1354 C446 1.005 . S
C1366 C452 1.068 . S
C1381 C460 1.029 . S
C1393 C424 1.079 . S
C1408 C494 1.040 . S
C1420 C474 0.934 . S
C1435 C466 1.083 . S
C1447 C488 0.993 . S
C1462 C502 0.975 . S
C1474 C480 1.075 . S
C1489 C53 1.497 . S
C1501 C11 1.495 . S
C1516 C25 1.506 . S
C1528 C67 1.507 . S
C1543 C81 1.464 . S
C1555 C39 1.463 . S
C1570 C137 1.519 . S
C1582 C95 1.517 . S
C1597 C109 1.514 . S
C1609 C151 1.493 . S
C1624 C165 1.477 . S
C1636 C123 1.504 . S
C1651 C179 1.435 . S
C1663 C221 1.437 . S
C1678 C193 1.508 . S
C1690 C235 1.509 . S
C1705 C207 1.489 . S
C1717 C249 1.491 . S
C1732 C305 1.518 . S
C1744 C263 1.518 . S
C1759 C319 1.491 . S
C1771 C277 1.464 . S
C1786 C291 1.438 . S
C1798 C333 1.438 . S
C1813 C389 1.465 . S
C1825 C347 1.467 . S
C1840 C403 1.495 . S
C1852 C361 1.494 . S
C1867 C375 1.497 . S
C1879 C417 1.496 . S
C1894 C431 1.478 . S
C1906 C473 1.452 . S
C1921 C487 1.446 . S
C1933 C445 1.470 . S
C1948 C459 1.440 . S
C1960 C501 1.437 . S
C1975 C5 1.719 . S
C1987 C257 1.666 . S
C2002 C19 1.671 . S
C2014 C271 1.723 . S
C2029 C33 1.681 . S
C2041 C285 1.698 . S
C2056 C467 1.670 . S
C2068 C47 1.712 . S
C2083 C481 1.697 . S
C2095 C61 1.702 . S
C2110 C75 1.697 . S
C2122 C495 1.684 . S
C2137 C89 1.724 . S
C2149 C341 1.664 . S
C2164 C355 1.718 . S
C2176 C103 1.680 . S
C2191 C369 1.714 . S
C2203 C117 1.668 . S
C2218 C215 1.718 . S
C2230 C131 1.680 . S
C2245 C229 1.712 . S
C2257 C145 1.686 . S
C2272 C243 1.684 . S
C2284 C159 1.697 . S
C2299 C425 1.726 . S
C2311 C173 1.668 . S
C2326 C187 1.723 . S
C2338 C439 1.671 . S
C2353 C201 1.669 . S
C2365 C453 1.724 . S
C2380 C299 1.696 . S
C2392 C383 1.702 . S
C2407 C313 1.708 . S
C2419 C397 1.691 . S
C2434 C411 1.723 . S
C2446 C327 1.672 . S
