# Generated by pormake.
# Topology sxb, (6)-cn, num edge types: 1
# Building blocks:
#     Node 0, Type 0, BuildingBlock: BETDAH_clean_sbu_0, # of connection points: 6
#     Node 1, Type 0, BuildingBlock: BETDAH_clean_sbu_0, # of connection points: 6
#     Node 2, Type 0, BuildingBlock: BETDAH_clean_sbu_0, # of connection points: 6
#     Node 3, Type 0, BuildingBlock: BETDAH_clean_sbu_0, # of connection points: 6
#     Edge 4, Type (0, 0), BuildingBlock: UVAHIK_clean_linker_0, # of connection points: 2
#     Edge 5, Type (0, 0), BuildingBlock: UVAHIK_clean_linker_0, # of connection points: 2
#     Edge 6, Type (0, 0), BuildingBlock: UVAHIK_clean_linker_0, # of connection points: 2
#     Edge 7, Type (0, 0), BuildingBlock: UVAHIK_clean_linker_0, # of connection points: 2
#     Edge 8, Type (0, 0), BuildingBlock: UVAHIK_clean_linker_0, # of connection points: 2
#     Edge 9, Type (0, 0), BuildingBlock: UVAHIK_clean_linker_0, # of connection points: 2
#     Edge 10, Type (0, 0), BuildingBlock: UVAHIK_clean_linker_0, # of connection points: 2
#     Edge 11, Type (0, 0), BuildingBlock: UVAHIK_clean_linker_0, # of connection points: 2
#     Edge 12, Type (0, 0), BuildingBlock: UVAHIK_clean_linker_0, # of connection points: 2
#     Edge 13, Type (0, 0), BuildingBlock: UVAHIK_clean_linker_0, # of connection points: 2
#     Edge 14, Type (0, 0), BuildingBlock: UVAHIK_clean_linker_0, # of connection points: 2
#     Edge 15, Type (0, 0), BuildingBlock: UVAHIK_clean_linker_0, # of connection points: 2
# Relax obj value: 0.280
# Max RMSD: 0.114
# Mean RMSD: 0.071
data_MOF--net-sxb--node1-BETDAH_clean_sbu_0--edge1-UVAHIK_clean_linker_0
_symmetry_space_group_name_H-M    P1
_symmetry_Int_Tables_number       1
_symmetry_cell_setting            triclinic
loop_
_symmetry_equiv_pos_as_xyz
'x, y, z'
_cell_length_a     21.386634
_cell_length_b     43.498317
_cell_length_c     38.746382
_cell_angle_alpha  93.025722
_cell_angle_beta   92.977691
_cell_angle_gamma 71.209238
loop_
_atom_site_label
_atom_site_type_symbol
_atom_site_fract_x
_atom_site_fract_y
_atom_site_fract_z
_atom_type_partial_charge
Ho0 Ho 1.03465 1.02905 0.99176 0.0
Ho1 Ho 0.15019 0.04338 -0.00509 0.0
C2 C 1.0246 0.10661 0.98929 0.0
C3 C 0.92177 1.02507 0.00738 0.0
C4 C 0.9051 1.00943 0.03651 0.0
C5 C 0.95549 0.9898 0.05805 0.0
C6 C 0.93998 0.97789 0.08816 0.0
C7 C 0.87382 0.98575 0.09724 0.0
C8 C 0.82359 1.00505 0.07521 0.0
C9 C 0.83916 1.01687 0.04516 0.0
C10 C 1.07845 1.02848 0.92661 0.0
C11 C 0.16192 0.96584 -0.00492 0.0
C12 C 0.27078 0.04289 -0.00514 0.0
C13 C 0.32656 1.02287 0.01655 0.0
C14 C 0.35404 0.9892 0.00965 0.0
C15 C 0.39721 0.96942 0.0338 0.0
C16 C 0.41363 0.98287 0.06536 0.0
C17 C 0.3884 1.01663 0.07164 0.0
C18 C 0.34567 0.03643 0.04742 0.0
C19 C 0.10315 0.04354 0.05931 0.0
O20 O 0.99507 0.08545 -0.00258 0.0
O21 O 1.08761 0.0949 0.98142 0.0
O22 O 0.94156 0.04978 0.01653 0.0
O23 O 0.95894 1.00583 0.98422 0.0
O24 O 1.05187 1.00811 0.93731 0.0
O25 O 1.07832 0.04943 0.95051 0.0
O26 O 0.19067 0.98721 0.98683 0.0
O27 O 0.09937 0.9774 0.00358 0.0
O28 O 0.22516 0.0649 0.01185 0.0
O29 O 0.2455 1.02745 0.97108 0.0
O30 O 0.1243 0.0657 0.04836 0.0
O31 O 0.10701 1.02227 0.0354 0.0
H32 H 1.00684 0.98427 0.05192 0.0
H33 H 0.9796 0.96312 0.1046 0.0
H34 H 0.77199 1.01089 0.0811 0.0
H35 H 0.79982 1.03226 0.029 0.0
H36 H 0.34051 0.97791 0.98613 0.0
H37 H 0.41645 0.94348 0.02818 0.0
H38 H 0.40174 1.02775 0.09534 0.0
H39 H 0.32557 0.06227 0.05346 0.0
Ho40 Ho 0.12005 0.99582 0.50005 0.0
Ho41 Ho 1.06704 0.07213 0.48394 0.0
C42 C 0.95559 1.03225 0.49104 0.0
C43 C 0.15955 0.94235 0.53234 0.0
C44 C 0.14359 0.91213 0.52804 0.0
C45 C 0.14507 0.89375 0.55686 0.0
C46 C 0.11949 0.86793 0.55394 0.0
C47 C 1.09219 0.8603 0.52213 0.0
C48 C 0.09441 0.87769 0.49291 0.0
C49 C 0.11963 0.9035 0.49589 0.0
C50 C 0.09755 1.00541 0.43037 0.0
C51 C 0.23157 0.03547 0.49229 0.0
C52 C 1.02766 0.12658 0.4535 0.0
C53 C 1.04103 0.15737 0.46018 0.0
C54 C 1.05847 0.1723 0.43275 0.0
C55 C 1.08532 0.19738 0.43939 0.0
C56 C 0.09492 0.20787 0.47363 0.0
C57 C 1.07214 0.19468 0.50082 0.0
C58 C 1.04585 0.16944 0.49419 0.0
C59 C 1.0898 0.06181 0.55346 0.0
O60 O 1.00571 1.00582 0.50067 0.0
O61 O 0.96886 0.05881 0.48149 0.0
O62 O 0.19202 0.94857 0.50725 0.0
O63 O 0.11053 0.96765 0.54247 0.0
O64 O 0.1182 0.97695 0.44383 0.0
O65 O 1.0896 1.02591 0.45532 0.0
O66 O 0.1814 0.06182 0.48258 0.0
O67 O 0.2183 1.00901 0.5021 0.0
O68 O 0.99283 0.11874 0.47636 0.0
O69 O 1.07903 0.1022 0.44395 0.0
O70 O 1.07073 0.0905 0.54058 0.0
O71 O 0.09649 0.04196 0.52816 0.0
H72 H 0.16319 0.9003 0.58188 0.0
H73 H 0.11855 0.8548 0.5768 0.0
H74 H 1.07266 0.87279 0.46822 0.0
H75 H 0.11738 0.9177 0.47344 0.0
H76 H 1.05533 0.16315 0.40637 0.0
H77 H 0.10293 0.20684 0.4179 0.0
H78 H 1.07797 0.20267 0.5274 0.0
H79 H 1.03279 0.15825 0.51583 0.0
Ho80 Ho 0.53562 0.52875 0.99003 0.0
Ho81 Ho 0.65069 0.54319 -0.00626 0.0
C82 C 0.52344 0.60626 0.98996 0.0
C83 C 0.41535 0.52854 0.98905 0.0
C84 C 0.36047 0.54718 0.96596 0.0
C85 C 0.33423 0.58124 0.96974 0.0
C86 C 0.29195 0.59924 0.94408 0.0
C87 C 0.27529 0.58357 0.91408 0.0
C88 C 0.29941 0.54949 0.91091 0.0
C89 C 0.34121 0.53148 0.93667 0.0
C90 C 0.58331 0.52851 0.92569 0.0
C91 C 0.6611 0.46566 -0.00407 0.0
C92 C 0.76401 0.54717 0.97892 0.0
C93 C 0.78165 0.56143 0.94901 0.0
C94 C 0.73188 0.58007 0.92646 0.0
C95 C 0.74824 0.59011 0.89544 0.0
C96 C 0.81462 0.58133 0.88648 0.0
C97 C 0.86425 0.56319 0.90959 0.0
C98 C 0.84783 0.55323 0.94053 0.0
C99 C 0.6057 0.54387 0.05865 0.0
O100 O 0.49485 0.58488 -0.00163 0.0
O101 O 0.58593 0.5947 0.98137 0.0
O102 O 0.46229 0.50607 0.97342 0.0
O103 O 0.43883 0.54522 0.01231 0.0
O104 O 0.56208 0.50639 0.93663 0.0
O105 O 0.57934 0.54978 0.94959 0.0
O106 O 0.69034 0.48684 0.9875 0.0
O107 O 0.59826 0.47741 0.00407 0.0
O108 O 0.74567 0.5218 0.97101 0.0
O109 O 0.72503 0.56732 0.00076 0.0
O110 O 0.63229 0.56428 0.04808 0.0
O111 O 0.60661 0.5228 0.03477 0.0
H112 H 0.34804 0.59416 0.99193 0.0
H113 H 0.27358 0.62547 0.94729 0.0
H114 H 0.28589 0.53674 0.88846 0.0
H115 H 0.36053 0.50529 0.93304 0.0
H116 H 0.68034 0.58616 0.93247 0.0
H117 H 0.70908 0.60404 0.87819 0.0
H118 H 0.916 0.55671 0.90378 0.0
H119 H 0.88669 0.53856 0.95747 0.0
Ho120 Ho 0.6173 0.50006 0.50114 0.0
Ho121 Ho 0.5643 0.57639 0.48501 0.0
C122 C 0.45276 0.53677 0.49279 0.0
C123 C 0.65648 0.44559 0.53152 0.0
C124 C 0.64273 0.4149 0.52477 0.0
C125 C 0.62508 0.4 0.55217 0.0
C126 C 0.59773 0.3751 0.54545 0.0
C127 C 0.58783 0.36478 0.51119 0.0
C128 C 0.61083 0.3779 0.48403 0.0
C129 C 0.63762 0.40296 0.49073 0.0
C130 C 0.59444 0.5104 0.43164 0.0
C131 C 0.72878 0.53992 0.49402 0.0
C132 C 0.52501 0.62986 0.45273 0.0
C133 C 0.54146 0.65996 0.45698 0.0
C134 C 0.54052 0.67819 0.42812 0.0
C135 C 0.56677 0.70378 0.43099 0.0
C136 C 0.59421 0.71132 0.4628 0.0
C137 C 0.59141 0.69411 0.49206 0.0
C138 C 0.56552 0.66854 0.48913 0.0
C139 C 0.58702 0.56678 0.55467 0.0
O140 O 0.50293 0.51041 0.50249 0.0
O141 O 0.46602 0.56323 0.483 0.0
O142 O 0.69135 0.45338 0.50864 0.0
O143 O 0.60531 0.47003 0.54116 0.0
O144 O 0.6135 0.48171 0.4445 0.0
O145 O 0.58785 0.53025 0.45694 0.0
O146 O 0.67866 0.56636 0.4844 0.0
O147 O 0.71551 0.51336 0.50358 0.0
O148 O 0.4926 0.62373 0.47789 0.0
O149 O 0.57374 0.60447 0.44249 0.0
O150 O 0.56636 0.59525 0.54123 0.0
O151 O 0.59479 0.54629 0.52973 0.0
H152 H 0.62842 0.40905 0.57857 0.0
H153 H 0.57997 0.36569 0.56692 0.0
H154 H 0.60478 0.37003 0.45743 0.0
H155 H 0.65082 0.41413 0.46911 0.0
H156 H 0.52234 0.67168 0.4031 0.0
H157 H 0.56814 0.71678 0.4081 0.0
H158 H 0.61324 0.69894 0.51676 0.0
H159 H 0.56737 0.65444 0.51162 0.0
C160 C 0.51612 0.66594 0.9811 0.0
C161 C 0.48572 0.64313 0.99016 0.0
C162 C 0.48192 0.70003 0.98162 0.0
C163 C 0.30815 0.76382 0.98735 0.0
H164 H 0.40631 0.82443 0.00247 0.0
C165 C 0.16913 0.90615 0.00378 0.0
C166 C 0.19963 0.92897 -0.00512 0.0
C167 C 0.20335 0.87206 0.00327 0.0
C168 C 0.37724 0.80827 -0.00227 0.0
H169 H 0.39296 0.64029 0.00709 0.0
H170 H 0.33414 0.69875 0.00824 0.0
H171 H 0.46434 0.76621 0.00144 0.0
H172 H 0.29261 0.93184 0.97832 0.0
H173 H 0.35143 0.87339 0.97715 0.0
H174 H 0.22106 0.80588 0.98362 0.0
C175 C 0.38471 0.69048 0.00016 0.0
C176 C 0.41126 0.77414 -0.00288 0.0
C177 C 0.41903 0.65637 -0.00032 0.0
C178 C 0.26644 0.91575 0.98556 0.0
C179 C 0.30077 0.88164 0.98508 0.0
C180 C 0.27413 0.79796 0.98795 0.0
C181 C 0.41507 0.71348 0.99122 0.0
C182 C 0.37787 0.75075 0.99191 0.0
C183 C 0.2703 0.85862 -0.00615 0.0
C184 C 0.30752 0.82134 -0.00683 0.0
H185 H 0.56703 0.65745 0.97345 0.0
H186 H 0.50834 0.71583 0.97391 0.0
H187 H 0.2791 0.74766 0.98262 0.0
H188 H 0.11814 0.91463 0.01129 0.0
H189 H 0.17684 0.85626 0.01087 0.0
C190 C 0.6682 0.40587 0.00415 0.0
C191 C 0.69878 0.42883 -0.00415 0.0
C192 C 0.70265 0.3718 0.00348 0.0
C193 C 0.86179 0.30677 0.97206 0.0
H194 H 0.80808 0.25068 0.03003 0.0
C195 C 1.01762 0.16641 0.98118 0.0
C196 C 0.98694 0.14345 0.98935 0.0
C197 C 0.98318 0.20048 0.98184 0.0
C198 C 0.82399 0.26551 0.01313 0.0
H199 H 0.79218 0.43204 0.9803 0.0
H200 H 0.85173 0.3737 0.97953 0.0
H201 H 0.74949 0.30884 0.03152 0.0
H202 H 0.89339 0.14024 0.00466 0.0
H203 H 0.83388 0.19859 0.00543 0.0
H204 H 0.93631 0.26343 0.95367 0.0
C205 C 0.80033 0.38173 0.98619 0.0
C206 C 0.78965 0.29959 0.014 0.0
C207 C 0.76583 0.4158 0.98689 0.0
C208 C 0.91982 0.15648 -0.00183 0.0
C209 C 0.88534 0.19055 -0.00113 0.0
C210 C 0.89613 0.27268 0.97119 0.0
C211 C 0.76986 0.35858 -0.00559 0.0
C212 C 0.80739 0.32137 -0.00651 0.0
C213 C 0.9159 0.2137 0.99077 0.0
C214 C 0.87838 0.25091 0.99169 0.0
H215 H 0.61687 0.41421 0.01106 0.0
H216 H 0.67555 0.35578 0.0096 0.0
H217 H 0.87769 0.32159 0.95514 0.0
H218 H 1.06902 0.15807 0.97437 0.0
H219 H 1.01033 0.21651 0.97581 0.0
C220 C 0.18696 0.22019 0.50733 0.0
C221 C 0.13721 0.22861 0.48109 0.0
C222 C 0.23387 0.23618 0.51126 0.0
C223 C 0.31527 0.27911 0.46026 0.0
H224 H 0.38407 0.30086 0.54952 0.0
C225 C 0.49528 0.35291 0.4775 0.0
C226 C 0.54509 0.34427 0.5037 0.0
C227 C 0.448 0.33714 0.47354 0.0
C228 C 0.36596 0.29444 0.52445 0.0
H229 H 0.09531 0.26157 0.43966 0.0
H230 H 0.1777 0.28971 0.44662 0.0
H231 H 0.29069 0.28008 0.54669 0.0
H232 H 0.58669 0.31113 0.545 0.0
H233 H 0.50366 0.28338 0.53801 0.0
H234 H 0.39056 0.29348 0.43802 0.0
C235 C 0.18069 0.27037 0.46377 0.0
C236 C 0.31231 0.28277 0.52283 0.0
C237 C 0.13354 0.25437 0.45986 0.0
C238 C 0.54842 0.3185 0.52485 0.0
C239 C 0.50091 0.30273 0.52092 0.0
C240 C 0.36891 0.29079 0.46188 0.0
C241 C 0.23215 0.26086 0.48899 0.0
C242 C 0.28651 0.27498 0.49072 0.0
C243 C 0.44941 0.31246 0.49575 0.0
C244 C 0.39477 0.29853 0.49399 0.0
H245 H 0.19202 0.20001 0.52366 0.0
H246 H 0.27343 0.22807 0.53063 0.0
H247 H 0.29719 0.27268 0.43519 0.0
H248 H 0.49048 0.3731 0.46122 0.0
H249 H 0.40843 0.34541 0.45421 0.0
C250 C 1.00535 0.8409 0.54489 0.0
C251 C 1.05279 0.8379 0.52009 0.0
C252 C 0.95786 0.82535 0.53929 0.0
C253 C 0.87046 0.7985 0.46688 0.0
H254 H 0.79913 0.76111 0.53779 0.0
C255 C 0.68192 0.7301 0.44002 0.0
C256 C 0.6343 0.73341 0.46481 0.0
C257 C 0.72989 0.74536 0.44559 0.0
C258 C 0.81795 0.77196 0.51788 0.0
H259 H 1.09167 0.81405 0.47159 0.0
H260 H 1.00866 0.7866 0.46188 0.0
H261 H 0.89613 0.77797 0.55147 0.0
H262 H 0.5957 0.75749 0.51326 0.0
H263 H 0.67958 0.78442 0.52292 0.0
H264 H 0.79227 0.79249 0.43329 0.0
C265 C 1.00744 0.80155 0.48525 0.0
C266 C 0.87368 0.78136 0.52565 0.0
C267 C 1.055 0.8171 0.49087 0.0
C268 C 0.63248 0.75421 0.49399 0.0
C269 C 0.68053 0.76945 0.49958 0.0
C270 C 0.81474 0.78909 0.4591 0.0
C271 C 0.95702 0.80654 0.50879 0.0
C272 C 0.90045 0.79471 0.50022 0.0
C273 C 0.73105 0.76417 0.47604 0.0
C274 C 0.78792 0.77579 0.48455 0.0
H275 H 1.00188 0.8571 0.56744 0.0
H276 H 0.91934 0.82978 0.55778 0.0
H277 H 0.88923 0.80938 0.44697 0.0
H278 H 0.68509 0.71389 0.4175 0.0
H279 H 0.76847 0.74072 0.4271 0.0
C280 C 0.51955 0.93989 0.08027 0.0
C281 C 0.45983 0.96219 0.091 0.0
C282 C 0.56865 0.92472 0.10456 0.0
C283 C 0.6762 0.89857 0.15621 0.0
H284 H 0.68635 0.9695 0.21814 0.0
C285 C 0.88239 0.93993 0.13596 0.0
C286 C 0.85566 0.97298 0.12861 0.0
C287 C 0.85135 0.9263 0.15901 0.0
C288 C 0.68478 0.94934 0.2009 0.0
H289 H 0.40099 0.9831 0.1354 0.0
H290 H 0.48625 0.956 0.1781 0.0
H291 H 0.5797 0.96562 0.19986 0.0
H292 H 0.78457 1.01881 0.14448 0.0
H293 H 0.72876 0.99561 0.18262 0.0
H294 H 0.78014 0.8853 0.1527 0.0
C295 C 0.49642 0.951 0.15094 0.0
C296 C 0.62298 0.94671 0.19077 0.0
C297 C 0.4475 0.96658 0.1265 0.0
C298 C 0.80432 0.99295 0.14856 0.0
C299 C 0.77284 0.97938 0.1711 0.0
C300 C 0.73767 0.90216 0.16498 0.0
C301 C 0.55915 0.93126 0.14034 0.0
C302 C 0.61804 0.92362 0.16479 0.0
C303 C 0.792 0.94536 0.17417 0.0
C304 C 0.74138 0.93036 0.18349 0.0
H305 H 0.53042 0.93603 0.05308 0.0
H306 H 0.61599 0.91017 0.09482 0.0
H307 H 0.6744 0.87873 0.13851 0.0
H308 H 0.92336 0.92405 0.12164 0.0
H309 H 0.8703 0.90031 0.16213 0.0
C310 C 0.32424 0.06219 0.48205 0.0
C311 C 0.30586 0.03538 0.49225 0.0
C312 C 0.39202 0.06189 0.48188 0.0
C313 C 0.57811 1.00534 0.49411 0.0
H314 H 0.61722 0.08548 0.48726 0.0
C315 C 0.86288 1.00549 0.50103 0.0
C316 C 0.88129 1.03233 0.49093 0.0
C317 C 0.7951 1.0058 0.50114 0.0
C318 C 0.60901 0.06237 0.48891 0.0
H319 H 0.35163 0.98675 0.51051 0.0
H320 H 0.46628 0.98617 0.51057 0.0
H321 H 0.50317 0.08615 0.4875 0.0
H322 H 0.83557 0.08101 0.4728 0.0
H323 H 0.7209 0.08158 0.47263 0.0
H324 H 0.68394 0.98156 0.49551 0.0
C325 C 0.42853 1.00792 0.50211 0.0
C326 C 0.5412 0.06277 0.48906 0.0
C327 C 0.3608 1.00826 0.50228 0.0
C328 C 0.82637 0.05947 0.48094 0.0
C329 C 0.75863 0.05981 0.48104 0.0
C330 C 0.64592 1.00494 0.49396 0.0
C331 C 0.44738 1.03471 0.49188 0.0
C332 C 0.52251 1.03428 0.49168 0.0
C333 C 0.73975 1.033 0.49118 0.0
C334 C 0.66461 1.03343 0.49135 0.0
H335 H 0.28576 0.08389 0.4739 0.0
H336 H 0.40046 0.08342 0.47332 0.0
H337 H 0.5699 0.98223 0.49576 0.0
H338 H 0.90134 0.98378 0.50915 0.0
H339 H 0.78664 0.98425 0.50963 0.0
C340 C 0.88487 0.57027 0.83507 0.0
C341 C 0.83363 0.59178 0.85393 0.0
C342 C 0.91697 0.58192 0.81103 0.0
C343 C 0.95392 0.65852 0.81006 0.0
H344 H 0.11145 0.59198 0.77918 0.0
C345 C 0.24283 0.5951 0.85168 0.0
C346 C 0.22997 0.60238 0.8869 0.0
C347 C 0.19463 0.6091 0.82624 0.0
C348 C 1.06835 0.61168 0.78705 0.0
H349 H 0.76679 0.6412 0.85757 0.0
H350 H 0.82093 0.66153 0.81449 0.0
H351 H 1.00457 0.58769 0.76225 0.0
H352 H 0.1593 0.63196 0.92306 0.0
H353 H 1.07488 0.65509 0.87971 0.0
H354 H 1.01761 0.68316 0.83377 0.0
C355 C 0.83934 0.63589 0.81958 0.0
C356 C 1.00638 0.60886 0.77774 0.0
C357 C 0.80768 0.6242 0.84413 0.0
C358 C 0.17054 0.62587 0.89611 0.0
C359 C 0.12212 0.63945 0.87086 0.0
C360 C 1.0156 0.66224 0.81787 0.0
C361 C 0.89856 0.61553 0.80531 0.0
C362 C 0.94979 0.62931 0.79408 0.0
C363 C 0.13206 0.63009 0.83559 0.0
C364 C 1.07351 0.63636 0.81098 0.0
H365 H 0.904 0.5448 0.84107 0.0
H366 H 0.96087 0.56472 0.80035 0.0
H367 H 0.9115 0.67644 0.82125 0.0
H368 H 0.28916 0.5776 0.84389 0.0
H369 H 0.20519 0.60193 0.79944 0.0
C370 C 0.3601 0.51003 0.50301 0.0
C371 C 0.37847 0.53686 0.49284 0.0
C372 C 0.29233 0.51033 0.50318 0.0
C373 C 0.10622 0.56687 0.49099 0.0
H374 H 1.06714 0.48671 0.49778 0.0
C375 C 0.82148 0.56669 0.48405 0.0
C376 C 0.80307 0.53985 0.49413 0.0
C377 C 0.88925 0.56639 0.48394 0.0
C378 C 1.07535 0.50983 0.49615 0.0
H379 H 0.33268 0.5855 0.47462 0.0
H380 H 0.21804 0.58607 0.47456 0.0
H381 H 0.18119 0.48606 0.49753 0.0
H382 H 0.84881 0.49117 0.51226 0.0
H383 H 0.96347 0.4906 0.51243 0.0
H384 H 1.00039 0.59064 0.48961 0.0
C385 C 0.25579 0.56431 0.483 0.0
C386 C 0.14316 0.50943 0.496 0.0
C387 C 0.32352 0.56398 0.48283 0.0
C388 C 0.858 0.5127 0.50412 0.0
C389 C 0.92573 0.51237 0.50402 0.0
C390 C 1.03842 0.56726 0.49114 0.0
C391 C 0.23695 0.53751 0.4932 0.0
C392 C 0.16183 0.53793 0.4934 0.0
C393 C 0.94461 0.53919 0.49389 0.0
C394 C 1.01974 0.53876 0.49372 0.0
H395 H 0.39859 0.48833 0.51114 0.0
H396 H 0.2839 0.48879 0.51172 0.0
H397 H 0.11443 0.58999 0.48936 0.0
H398 H 0.78301 0.58841 0.47593 0.0
H399 H 0.8977 0.58795 0.47546 0.0
C400 C 0.10077 0.98437 0.36868 0.0
C401 C 1.08974 1.01108 0.39238 0.0
C402 C 0.09696 0.98857 0.33285 0.0
C403 C 0.1103 0.04524 0.26751 0.0
H404 H 1.03096 0.99493 0.20448 0.0
C405 C 1.08753 0.06652 0.1202 0.0
C406 C 0.0941 0.03999 0.09673 0.0
C407 C 1.08278 0.06347 0.15577 0.0
C408 C 1.05424 1.00891 0.22151 0.0
H409 H 1.0642 0.06335 0.3965 0.0
H410 H 1.05865 0.07087 0.33399 0.0
H411 H 1.0302 0.98914 0.26676 0.0
H412 H 0.10017 0.98932 0.09249 0.0
H413 H 0.09323 0.98361 0.15458 0.0
H414 H 0.13616 0.06439 0.22261 0.0
C415 C 1.07071 0.04649 0.34321 0.0
C416 C 1.05352 1.00566 0.25744 0.0
C417 C 1.07377 0.04226 0.37915 0.0
C418 C 0.09467 1.01033 0.10978 0.0
C419 C 1.09049 1.00715 0.14555 0.0
C420 C 0.11166 0.04826 0.23163 0.0
C421 C 1.08256 1.01966 0.31946 0.0
C422 C 1.08153 1.02378 0.28104 0.0
C423 C 1.08523 1.03362 0.1693 0.0
C424 C 1.08355 1.03021 0.20787 0.0
H425 H 0.11319 0.95994 0.37784 0.0
H426 H 0.10704 0.96725 0.31562 0.0
H427 H 0.13342 0.05922 0.28468 0.0
H428 H 1.08632 0.08982 0.11105 0.0
H429 H 1.077 0.08477 0.17263 0.0
C430 C 0.10811 1.00413 0.86715 0.0
C431 C 1.08686 1.03192 0.88913 0.0
C432 C 0.11303 1.00669 0.83146 0.0
C433 C 0.10082 0.0682 0.76255 0.0
H434 H 0.09621 0.99543 0.70176 0.0
C435 C 0.12332 0.07438 0.61418 0.0
C436 C 0.09778 0.05509 0.59106 0.0
C437 C 0.12597 0.07037 0.65004 0.0
C438 C 0.09644 1.01644 0.71789 0.0
H439 H 1.05327 0.08443 0.89068 0.0
H440 H 1.05712 0.08931 0.82855 0.0
H441 H 1.08907 0.99207 0.76306 0.0
H442 H 1.05298 1.01703 0.58759 0.0
H443 H 1.05354 1.01108 0.64973 0.0
H444 H 0.10224 0.09365 0.71722 0.0
C445 C 1.07333 0.06516 0.83854 0.0
C446 C 0.0939 1.01419 0.75386 0.0
C447 C 1.07056 0.0625 0.8745 0.0
C448 C 1.07459 1.03169 0.60468 0.0
C449 C 1.07515 1.02834 0.64069 0.0
C450 C 0.10131 0.07082 0.72653 0.0
C451 C 0.0945 0.03727 0.81609 0.0
C452 C 0.09657 0.03991 0.77716 0.0
C453 C 0.10061 0.04774 0.6643 0.0
C454 C 0.09967 0.04492 0.70327 0.0
H455 H 0.1215 0.98017 0.87768 0.0
H456 H 0.13176 0.98437 0.81617 0.0
H457 H 0.10423 0.08863 0.77877 0.0
H458 H 0.14155 0.09268 0.60445 0.0
H459 H 0.14807 0.08528 0.66637 0.0
C460 C 0.5607 0.49789 0.37095 0.0
C461 C 0.58638 0.51714 0.39405 0.0
C462 C 0.558 0.50192 0.33509 0.0
C463 C 0.58732 0.55587 0.26726 0.0
H464 H 0.58003 0.48359 0.20638 0.0
C465 C 0.57537 0.56818 0.11803 0.0
C466 C 0.59713 0.54039 0.09609 0.0
C467 C 0.57042 0.5656 0.15372 0.0
C468 C 0.58329 0.50405 0.22261 0.0
H469 H 0.63136 0.55513 0.3975 0.0
H470 H 0.63066 0.56112 0.33537 0.0
H471 H 0.58204 0.47857 0.26796 0.0
H472 H 0.63156 0.48788 0.09458 0.0
H473 H 0.6276 0.48299 0.1567 0.0
H474 H 0.59449 0.58029 0.22209 0.0
C475 C 0.609 0.54389 0.34443 0.0
C476 C 0.58281 0.50142 0.25863 0.0
C477 C 0.60963 0.54052 0.38043 0.0
C478 C 0.61387 0.5098 0.11074 0.0
C479 C 0.61105 0.50713 0.14668 0.0
C480 C 0.58982 0.55813 0.2313 0.0
C481 C 0.58341 0.52452 0.32083 0.0
C482 C 0.5843 0.52736 0.28188 0.0
C483 C 0.5894 0.53502 0.1691 0.0
C484 C 0.58733 0.53238 0.20802 0.0
H485 H 0.54242 0.47962 0.38069 0.0
H486 H 0.53581 0.48704 0.31876 0.0
H487 H 0.58741 0.57689 0.28341 0.0
H488 H 0.56164 0.59214 0.10749 0.0
H489 H 0.55132 0.5879 0.169 0.0
C490 C 0.61136 0.5299 0.60586 0.0
C491 C 0.59511 0.56109 0.59264 0.0
C492 C 0.6147 0.52563 0.6418 0.0
C493 C 0.63214 0.56647 0.72752 0.0
H494 H 0.55012 0.50755 0.76251 0.0
C495 C 0.59134 0.56177 0.87519 0.0
C496 C 0.59232 0.53206 0.88828 0.0
C497 C 0.59546 0.56495 0.83943 0.0
C498 C 0.57444 0.52374 0.75344 0.0
H499 H 0.57145 0.61224 0.6072 0.0
H500 H 0.57806 0.60488 0.66942 0.0
H501 H 0.55249 0.51277 0.70042 0.0
H502 H 0.60072 0.48215 0.87402 0.0
H503 H 0.60987 0.4872 0.81242 0.0
H504 H 0.65487 0.57722 0.78045 0.0
C505 C 0.58816 0.58357 0.65218 0.0
C506 C 0.57559 0.52677 0.71755 0.0
C507 C 0.58407 0.5878 0.61636 0.0
C508 C 0.59921 0.50548 0.86484 0.0
C509 C 0.60386 0.50853 0.82927 0.0
C510 C 0.63162 0.5632 0.76345 0.0
C511 C 0.60284 0.55246 0.66555 0.0
C512 C 0.60413 0.5483 0.70397 0.0
C513 C 0.60102 0.53843 0.81571 0.0
C514 C 0.60253 0.54184 0.77714 0.0
H515 H 0.62096 0.50881 0.5885 0.0
H516 H 0.62698 0.50124 0.65101 0.0
H517 H 0.65529 0.58305 0.71816 0.0
H518 H 0.58555 0.58283 0.89246 0.0
H519 H 0.5924 0.58852 0.83036 0.0
loop_
_geom_bond_atom_site_label_1
_geom_bond_atom_site_label_2
_geom_bond_distance
_geom_bond_site_symmetry_2
_ccdc_geom_bond_type
Ho0 C3 2.811 . S
Ho0 O20 2.322 1_565 S
Ho0 O22 2.378 . S
Ho0 O23 2.524 1_566 S
Ho0 O24 2.381 . S
Ho0 O25 2.674 1_655 S
Ho0 O27 2.346 1_655 S
Ho0 O31 2.296 1_566 S
Ho1 C12 2.811 . S
Ho1 O21 2.346 1_455 S
Ho1 O25 2.300 1_544 S
Ho1 O26 2.322 1_545 S
Ho1 O28 2.378 . S
Ho1 O29 2.524 1_544 S
Ho1 O30 2.381 . S
Ho1 O31 2.679 1_455 S
C2 O20 1.259 . S
C2 O21 1.268 1_556 S
C3 Ho0 2.811 . S
C3 C4 1.488 1_565 S
C3 O22 1.215 . S
C3 O23 1.289 1_566 S
C4 C3 1.488 1_545 S
C4 C5 1.348 1_556 S
C4 C9 1.413 . S
C5 C4 1.348 1_554 S
C5 C6 1.442 . S
C5 H32 0.930 . S
C6 C5 1.442 . S
C6 C7 1.381 1_554 S
C6 H33 0.931 . S
C7 C6 1.381 1_556 S
C7 C8 1.321 . S
C8 C7 1.321 . S
C8 C9 1.403 . S
C8 H34 0.934 . S
C9 C4 1.413 . S
C9 C8 1.403 . S
C9 H35 0.930 1_545 S
C10 O24 1.275 . S
C10 O25 1.258 1_655 S
C11 O26 1.259 . S
C11 O27 1.268 1_554 S
C12 Ho1 2.811 . S
C12 C13 1.488 1_545 S
C12 O28 1.215 . S
C12 O29 1.289 1_544 S
C13 C12 1.488 1_565 S
C13 C14 1.348 1_554 S
C13 C18 1.413 . S
C14 C13 1.348 1_556 S
C14 C15 1.442 . S
C14 H36 0.930 . S
C15 C14 1.442 . S
C15 C16 1.381 1_556 S
C15 H37 0.931 . S
C16 C15 1.381 1_554 S
C16 C17 1.321 . S
C17 C16 1.321 . S
C17 C18 1.403 . S
C17 H38 0.934 . S
C18 C13 1.413 . S
C18 C17 1.403 . S
C18 H39 0.930 1_565 S
C19 O30 1.275 . S
C19 O31 1.261 1_455 S
O20 Ho0 2.322 1_545 S
O20 C2 1.259 . S
O21 Ho1 2.346 1_655 S
O21 C2 1.268 1_554 S
O22 Ho0 2.378 . S
O22 C3 1.215 . S
O23 Ho0 2.524 1_544 S
O23 C3 1.289 1_544 S
O24 Ho0 2.381 . S
O24 C10 1.275 . S
O25 Ho0 2.674 1_455 S
O25 Ho1 2.300 1_566 S
O25 C10 1.258 1_455 S
O26 Ho1 2.322 1_565 S
O26 C11 1.259 . S
O27 Ho0 2.346 1_455 S
O27 C11 1.268 1_556 S
O28 Ho1 2.378 . S
O28 C12 1.215 . S
O29 Ho1 2.524 1_566 S
O29 C12 1.289 1_566 S
O30 Ho1 2.381 . S
O30 C19 1.275 . S
O31 Ho0 2.296 1_544 S
O31 Ho1 2.679 1_655 S
O31 C19 1.261 1_655 S
H32 C5 0.930 . S
H33 C6 0.931 . S
H34 C8 0.934 . S
H35 C9 0.930 1_565 S
H36 C14 0.930 . S
H37 C15 0.931 . S
H38 C17 0.934 . S
H39 C18 0.930 1_545 S
Ho40 C43 2.811 1_455 S
Ho40 O60 2.322 1_455 S
Ho40 O62 2.378 1_455 S
Ho40 O63 2.524 1_455 S
Ho40 O64 2.381 . S
Ho40 O65 2.669 1_565 S
Ho40 O67 2.346 . S
Ho40 O71 2.305 1_455 S
Ho41 C52 2.811 1_655 S
Ho41 O61 2.346 . S
Ho41 O65 2.305 1_655 S
Ho41 O66 2.322 1_655 S
Ho41 O68 2.378 1_655 S
Ho41 O69 2.524 1_655 S
Ho41 O70 2.381 . S
Ho41 O71 2.669 1_545 S
C42 O60 1.259 1_545 S
C42 O61 1.268 . S
C43 Ho40 2.811 1_655 S
C43 C44 1.488 . S
C43 O62 1.215 . S
C43 O63 1.289 . S
C44 C43 1.488 . S
C44 C45 1.348 . S
C44 C49 1.413 . S
C45 C44 1.348 . S
C45 C46 1.442 . S
C45 H72 0.930 . S
C46 C45 1.442 . S
C46 C47 1.381 . S
C46 H73 0.931 . S
C47 C46 1.381 . S
C47 C48 1.321 . S
C48 C47 1.321 . S
C48 C49 1.403 . S
C48 H74 0.934 . S
C49 C44 1.413 . S
C49 C48 1.403 . S
C49 H75 0.930 . S
C50 O64 1.272 . S
C50 O65 1.257 1_565 S
C51 O66 1.259 1_565 S
C51 O67 1.268 . S
C52 Ho41 2.811 1_455 S
C52 C53 1.488 . S
C52 O68 1.215 . S
C52 O69 1.289 . S
C53 C52 1.488 . S
C53 C54 1.348 . S
C53 C58 1.413 . S
C54 C53 1.348 . S
C54 C55 1.442 . S
C54 H76 0.930 . S
C55 C54 1.442 . S
C55 C56 1.381 . S
C55 H77 0.931 . S
C56 C55 1.381 . S
C56 C57 1.321 . S
C57 C56 1.321 . S
C57 C58 1.403 . S
C57 H78 0.934 . S
C58 C53 1.413 . S
C58 C57 1.403 . S
C58 H79 0.930 . S
C59 O70 1.273 . S
C59 O71 1.257 1_545 S
O60 Ho40 2.322 1_655 S
O60 C42 1.259 1_565 S
O61 Ho41 2.346 . S
O61 C42 1.268 . S
O62 Ho40 2.378 1_655 S
O62 C43 1.215 . S
O63 Ho40 2.524 1_655 S
O63 C43 1.289 . S
O64 Ho40 2.381 . S
O64 C50 1.272 . S
O65 Ho40 2.669 1_545 S
O65 Ho41 2.305 1_455 S
O65 C50 1.257 1_545 S
O66 Ho41 2.322 1_455 S
O66 C51 1.259 1_545 S
O67 Ho40 2.346 . S
O67 C51 1.268 . S
O68 Ho41 2.378 1_455 S
O68 C52 1.215 . S
O69 Ho41 2.524 1_455 S
O69 C52 1.289 . S
O70 Ho41 2.381 . S
O70 C59 1.273 . S
O71 Ho40 2.305 1_655 S
O71 Ho41 2.669 1_565 S
O71 C59 1.257 1_565 S
H72 C45 0.930 . S
H73 C46 0.931 . S
H74 C48 0.934 . S
H75 C49 0.930 . S
H76 C54 0.930 . S
H77 C55 0.931 . S
H78 C57 0.934 . S
H79 C58 0.930 . S
Ho80 C83 2.811 . S
Ho80 O100 2.322 . S
Ho80 O102 2.378 . S
Ho80 O103 2.524 1_556 S
Ho80 O104 2.381 . S
Ho80 O105 2.669 . S
Ho80 O107 2.346 . S
Ho80 O111 2.305 1_556 S
Ho81 C92 2.811 . S
Ho81 O101 2.346 . S
Ho81 O105 2.305 1_554 S
Ho81 O106 2.322 . S
Ho81 O108 2.378 . S
Ho81 O109 2.524 1_554 S
Ho81 O110 2.381 . S
Ho81 O111 2.669 . S
C82 O100 1.259 . S
C82 O101 1.268 1_556 S
C83 Ho80 2.811 . S
C83 C84 1.488 . S
C83 O102 1.215 . S
C83 O103 1.289 1_556 S
C84 C83 1.488 . S
C84 C85 1.348 1_556 S
C84 C89 1.413 . S
C85 C84 1.348 1_554 S
C85 C86 1.442 . S
C85 H112 0.930 . S
C86 C85 1.442 . S
C86 C87 1.381 1_554 S
C86 H113 0.931 . S
C87 C86 1.381 1_556 S
C87 C88 1.321 . S
C88 C87 1.321 . S
C88 C89 1.403 . S
C88 H114 0.934 . S
C89 C84 1.413 . S
C89 C88 1.403 . S
C89 H115 0.930 . S
C90 O104 1.275 . S
C90 O105 1.256 . S
C91 O106 1.259 . S
C91 O107 1.268 1_554 S
C92 Ho81 2.811 . S
C92 C93 1.488 . S
C92 O108 1.215 . S
C92 O109 1.289 1_554 S
C93 C92 1.488 . S
C93 C94 1.348 1_554 S
C93 C98 1.413 . S
C94 C93 1.348 1_556 S
C94 C95 1.442 . S
C94 H116 0.930 . S
C95 C94 1.442 . S
C95 C96 1.381 1_556 S
C95 H117 0.931 . S
C96 C95 1.381 1_554 S
C96 C97 1.321 . S
C97 C96 1.321 . S
C97 C98 1.403 . S
C97 H118 0.934 . S
C98 C93 1.413 . S
C98 C97 1.403 . S
C98 H119 0.930 . S
C99 O110 1.275 . S
C99 O111 1.256 . S
O100 Ho80 2.322 . S
O100 C82 1.259 . S
O101 Ho81 2.346 . S
O101 C82 1.268 1_554 S
O102 Ho80 2.378 . S
O102 C83 1.215 . S
O103 Ho80 2.524 1_554 S
O103 C83 1.289 1_554 S
O104 Ho80 2.381 . S
O104 C90 1.275 . S
O105 Ho80 2.669 . S
O105 Ho81 2.305 1_556 S
O105 C90 1.256 . S
O106 Ho81 2.322 . S
O106 C91 1.259 . S
O107 Ho80 2.346 . S
O107 C91 1.268 1_556 S
O108 Ho81 2.378 . S
O108 C92 1.215 . S
O109 Ho81 2.524 1_556 S
O109 C92 1.289 1_556 S
O110 Ho81 2.381 . S
O110 C99 1.275 . S
O111 Ho80 2.305 1_554 S
O111 Ho81 2.669 . S
O111 C99 1.256 . S
H112 C85 0.930 . S
H113 C86 0.931 . S
H114 C88 0.934 . S
H115 C89 0.930 . S
H116 C94 0.930 . S
H117 C95 0.931 . S
H118 C97 0.934 . S
H119 C98 0.930 . S
Ho120 C123 2.811 . S
Ho120 O140 2.322 . S
Ho120 O142 2.378 . S
Ho120 O143 2.524 . S
Ho120 O144 2.381 . S
Ho120 O145 2.669 . S
Ho120 O147 2.346 . S
Ho120 O151 2.305 . S
Ho121 C132 2.811 . S
Ho121 O141 2.346 . S
Ho121 O145 2.305 . S
Ho121 O146 2.322 . S
Ho121 O148 2.378 . S
Ho121 O149 2.524 . S
Ho121 O150 2.381 . S
Ho121 O151 2.669 . S
C122 O140 1.259 . S
C122 O141 1.268 . S
C123 Ho120 2.811 . S
C123 C124 1.488 . S
C123 O142 1.215 . S
C123 O143 1.289 . S
C124 C123 1.488 . S
C124 C125 1.348 . S
C124 C129 1.413 . S
C125 C124 1.348 . S
C125 C126 1.442 . S
C125 H152 0.930 . S
C126 C125 1.442 . S
C126 C127 1.381 . S
C126 H153 0.931 . S
C127 C126 1.381 . S
C127 C128 1.321 . S
C128 C127 1.321 . S
C128 C129 1.403 . S
C128 H154 0.934 . S
C129 C124 1.413 . S
C129 C128 1.403 . S
C129 H155 0.930 . S
C130 O144 1.275 . S
C130 O145 1.256 . S
C131 O146 1.259 . S
C131 O147 1.268 . S
C132 Ho121 2.811 . S
C132 C133 1.488 . S
C132 O148 1.215 . S
C132 O149 1.289 . S
C133 C132 1.488 . S
C133 C134 1.348 . S
C133 C138 1.413 . S
C134 C133 1.348 . S
C134 C135 1.442 . S
C134 H156 0.930 . S
C135 C134 1.442 . S
C135 C136 1.381 . S
C135 H157 0.931 . S
C136 C135 1.381 . S
C136 C137 1.321 . S
C137 C136 1.321 . S
C137 C138 1.403 . S
C137 H158 0.934 . S
C138 C133 1.413 . S
C138 C137 1.403 . S
C138 H159 0.930 . S
C139 O150 1.275 . S
C139 O151 1.256 . S
O140 Ho120 2.322 . S
O140 C122 1.259 . S
O141 Ho121 2.346 . S
O141 C122 1.268 . S
O142 Ho120 2.378 . S
O142 C123 1.215 . S
O143 Ho120 2.524 . S
O143 C123 1.289 . S
O144 Ho120 2.381 . S
O144 C130 1.275 . S
O145 Ho120 2.669 . S
O145 Ho121 2.305 . S
O145 C130 1.256 . S
O146 Ho121 2.322 . S
O146 C131 1.259 . S
O147 Ho120 2.346 . S
O147 C131 1.268 . S
O148 Ho121 2.378 . S
O148 C132 1.215 . S
O149 Ho121 2.524 . S
O149 C132 1.289 . S
O150 Ho121 2.381 . S
O150 C139 1.275 . S
O151 Ho120 2.305 . S
O151 Ho121 2.669 . S
O151 C139 1.256 . S
H152 C125 0.930 . S
H153 C126 0.931 . S
H154 C128 0.934 . S
H155 C129 0.930 . S
H156 C134 0.930 . S
H157 C135 0.931 . S
H158 C137 0.934 . S
H159 C138 0.930 . S
C160 C161 1.349 . S
C160 C162 1.327 . S
C160 H185 0.950 . S
C161 C160 1.349 . S
C161 C177 1.349 1_554 S
C162 C160 1.327 . S
C162 C181 1.445 . S
C162 H186 0.950 . S
C163 C180 1.574 . S
C163 C182 1.360 1_556 S
C163 H187 0.949 . S
H164 C168 0.949 . S
C165 C166 1.349 . S
C165 C167 1.327 . S
C165 H188 0.950 . S
C166 C165 1.349 . S
C166 C178 1.349 1_556 S
C167 C165 1.327 . S
C167 C183 1.439 . S
C167 H189 0.950 . S
C168 H164 0.949 . S
C168 C176 1.574 . S
C168 C184 1.366 1_554 S
H169 C177 0.950 . S
H170 C175 0.950 . S
H171 C176 0.949 . S
H172 C178 0.950 . S
H173 C179 0.950 . S
H174 C180 0.949 . S
C175 H170 0.950 . S
C175 C177 1.327 . S
C175 C181 1.413 1_556 S
C176 C168 1.574 . S
C176 H171 0.949 . S
C176 C182 1.377 . S
C177 C161 1.349 1_556 S
C177 H169 0.950 . S
C177 C175 1.327 . S
C178 C166 1.349 1_554 S
C178 H172 0.950 . S
C178 C179 1.327 . S
C179 H173 0.950 . S
C179 C178 1.327 . S
C179 C183 1.418 1_554 S
C180 C163 1.574 . S
C180 H174 0.949 . S
C180 C184 1.371 . S
C181 C162 1.445 . S
C181 C175 1.413 1_554 S
C181 C182 1.523 . S
C182 C163 1.360 1_554 S
C182 C176 1.377 . S
C182 C181 1.523 . S
C183 C167 1.439 . S
C183 C179 1.418 1_556 S
C183 C184 1.523 . S
C184 C168 1.366 1_556 S
C184 C180 1.371 . S
C184 C183 1.523 . S
H185 C160 0.950 . S
H186 C162 0.950 . S
H187 C163 0.949 . S
H188 C165 0.950 . S
H189 C167 0.950 . S
C190 C191 1.349 1_554 S
C190 C192 1.327 . S
C190 H215 0.950 . S
C191 C190 1.349 1_556 S
C191 C207 1.349 . S
C192 C190 1.327 . S
C192 C211 1.417 1_554 S
C192 H216 0.950 . S
C193 C210 1.574 . S
C193 C212 1.371 . S
C193 H217 0.949 . S
H194 C198 0.949 . S
C195 C196 1.349 1_556 S
C195 C197 1.327 . S
C195 H218 0.950 . S
C196 C195 1.349 1_554 S
C196 C208 1.349 . S
C197 C195 1.327 . S
C197 C213 1.412 1_556 S
C197 H219 0.950 . S
C198 H194 0.949 . S
C198 C206 1.574 . S
C198 C214 1.377 . S
H199 C207 0.950 . S
H200 C205 0.950 . S
H201 C206 0.949 . S
H202 C208 0.950 . S
H203 C209 0.950 . S
H204 C210 0.949 . S
C205 H200 0.950 . S
C205 C207 1.327 . S
C205 C211 1.440 . S
C206 C198 1.574 . S
C206 H201 0.949 . S
C206 C212 1.366 1_554 S
C207 C191 1.349 . S
C207 H199 0.950 . S
C207 C205 1.327 . S
C208 C196 1.349 . S
C208 H202 0.950 . S
C208 C209 1.327 . S
C209 H203 0.950 . S
C209 C208 1.327 . S
C209 C213 1.445 . S
C210 C193 1.574 . S
C210 H204 0.949 . S
C210 C214 1.360 1_556 S
C211 C192 1.417 1_556 S
C211 C205 1.440 . S
C211 C212 1.523 . S
C212 C193 1.371 . S
C212 C206 1.366 1_556 S
C212 C211 1.523 . S
C213 C197 1.412 1_554 S
C213 C209 1.445 . S
C213 C214 1.523 . S
C214 C198 1.377 . S
C214 C210 1.360 1_554 S
C214 C213 1.523 . S
H215 C190 0.950 . S
H216 C192 0.950 . S
H217 C193 0.949 . S
H218 C195 0.950 . S
H219 C197 0.950 . S
C220 C221 1.349 . S
C220 C222 1.327 . S
C220 H245 0.950 . S
C221 C220 1.349 . S
C221 C237 1.349 . S
C222 C220 1.327 . S
C222 C241 1.429 . S
C222 H246 0.950 . S
C223 C240 1.574 . S
C223 C242 1.368 . S
C223 H247 0.949 . S
H224 C228 0.949 . S
C225 C226 1.349 . S
C225 C227 1.327 . S
C225 H248 0.950 . S
C226 C225 1.349 . S
C226 C238 1.349 . S
C227 C225 1.327 . S
C227 C243 1.429 . S
C227 H249 0.950 . S
C228 H224 0.949 . S
C228 C236 1.574 . S
C228 C244 1.368 . S
H229 C237 0.950 . S
H230 C235 0.950 . S
H231 C236 0.949 . S
H232 C238 0.950 . S
H233 C239 0.950 . S
H234 C240 0.949 . S
C235 H230 0.950 . S
C235 C237 1.327 . S
C235 C241 1.429 . S
C236 C228 1.574 . S
C236 H231 0.949 . S
C236 C242 1.368 . S
C237 C221 1.349 . S
C237 H229 0.950 . S
C237 C235 1.327 . S
C238 C226 1.349 . S
C238 H232 0.950 . S
C238 C239 1.327 . S
C239 H233 0.950 . S
C239 C238 1.327 . S
C239 C243 1.429 . S
C240 C223 1.574 . S
C240 H234 0.949 . S
C240 C244 1.368 . S
C241 C222 1.429 . S
C241 C235 1.429 . S
C241 C242 1.523 . S
C242 C223 1.368 . S
C242 C236 1.368 . S
C242 C241 1.523 . S
C243 C227 1.429 . S
C243 C239 1.429 . S
C243 C244 1.523 . S
C244 C228 1.368 . S
C244 C240 1.368 . S
C244 C243 1.523 . S
H245 C220 0.950 . S
H246 C222 0.950 . S
H247 C223 0.949 . S
H248 C225 0.950 . S
H249 C227 0.950 . S
C250 C251 1.349 . S
C250 C252 1.327 . S
C250 H275 0.950 . S
C251 C250 1.349 . S
C251 C267 1.349 . S
C252 C250 1.327 . S
C252 C271 1.429 . S
C252 H276 0.950 . S
C253 C270 1.574 . S
C253 C272 1.368 . S
C253 H277 0.949 . S
H254 C258 0.949 . S
C255 C256 1.349 . S
C255 C257 1.327 . S
C255 H278 0.950 . S
C256 C255 1.349 . S
C256 C268 1.349 . S
C257 C255 1.327 . S
C257 C273 1.429 . S
C257 H279 0.950 . S
C258 H254 0.949 . S
C258 C266 1.574 . S
C258 C274 1.368 . S
H259 C267 0.950 . S
H260 C265 0.950 . S
H261 C266 0.949 . S
H262 C268 0.950 . S
H263 C269 0.950 . S
H264 C270 0.949 . S
C265 H260 0.950 . S
C265 C267 1.327 . S
C265 C271 1.429 . S
C266 C258 1.574 . S
C266 H261 0.949 . S
C266 C272 1.368 . S
C267 C251 1.349 . S
C267 H259 0.950 . S
C267 C265 1.327 . S
C268 C256 1.349 . S
C268 H262 0.950 . S
C268 C269 1.327 . S
C269 H263 0.950 . S
C269 C268 1.327 . S
C269 C273 1.429 . S
C270 C253 1.574 . S
C270 H264 0.949 . S
C270 C274 1.368 . S
C271 C252 1.429 . S
C271 C265 1.429 . S
C271 C272 1.523 . S
C272 C253 1.368 . S
C272 C266 1.368 . S
C272 C271 1.523 . S
C273 C257 1.429 . S
C273 C269 1.429 . S
C273 C274 1.523 . S
C274 C258 1.368 . S
C274 C270 1.368 . S
C274 C273 1.523 . S
H275 C250 0.950 . S
H276 C252 0.950 . S
H277 C253 0.949 . S
H278 C255 0.950 . S
H279 C257 0.950 . S
C280 C281 1.349 1_556 S
C280 C282 1.327 . S
C280 H305 0.950 . S
C281 C280 1.349 1_554 S
C281 C297 1.349 . S
C282 C280 1.327 . S
C282 C301 1.429 1_556 S
C282 H306 0.950 . S
C283 C300 1.574 . S
C283 C302 1.382 . S
C283 H307 0.949 . S
H284 C288 0.949 . S
C285 C286 1.349 1_554 S
C285 C287 1.327 . S
C285 H308 0.950 . S
C286 C285 1.349 1_556 S
C286 C298 1.349 . S
C287 C285 1.327 . S
C287 C303 1.408 1_554 S
C287 H309 0.950 . S
C288 H284 0.949 . S
C288 C296 1.574 . S
C288 C304 1.376 . S
H289 C297 0.950 . S
H290 C295 0.950 . S
H291 C296 0.949 . S
H292 C298 0.950 . S
H293 C299 0.950 . S
H294 C300 0.949 . S
C295 H290 0.950 . S
C295 C297 1.327 . S
C295 C301 1.429 . S
C296 C288 1.574 . S
C296 H291 0.949 . S
C296 C302 1.353 1_546 S
C297 C281 1.349 . S
C297 H289 0.950 . S
C297 C295 1.327 . S
C298 C286 1.349 . S
C298 H292 0.950 . S
C298 C299 1.327 . S
C299 H293 0.950 . S
C299 C298 1.327 . S
C299 C303 1.454 . S
C300 C283 1.574 . S
C300 H294 0.949 . S
C300 C304 1.360 1_564 S
C301 C282 1.429 1_554 S
C301 C295 1.429 . S
C301 C302 1.525 . S
C302 C283 1.382 . S
C302 C296 1.353 1_564 S
C302 C301 1.525 . S
C303 C287 1.408 1_556 S
C303 C299 1.454 . S
C303 C304 1.521 . S
C304 C288 1.376 . S
C304 C300 1.360 1_546 S
C304 C303 1.521 . S
H305 C280 0.950 . S
H306 C282 0.950 . S
H307 C283 0.949 . S
H308 C285 0.950 . S
H309 C287 0.950 . S
C310 C311 1.349 1_545 S
C310 C312 1.327 . S
C310 H335 0.950 . S
C311 C310 1.349 1_565 S
C311 C327 1.349 . S
C312 C310 1.327 . S
C312 C331 1.426 1_545 S
C312 H336 0.950 . S
C313 C330 1.574 . S
C313 C332 1.369 . S
C313 H337 0.949 . S
H314 C318 0.949 . S
C315 C316 1.349 1_565 S
C315 C317 1.327 . S
C315 H338 0.950 . S
C316 C315 1.349 1_545 S
C316 C328 1.349 . S
C317 C315 1.327 . S
C317 C333 1.425 1_565 S
C317 H339 0.950 . S
C318 H314 0.949 . S
C318 C326 1.574 . S
C318 C334 1.371 . S
H319 C327 0.950 . S
H320 C325 0.950 . S
H321 C326 0.949 . S
H322 C328 0.950 . S
H323 C329 0.950 . S
H324 C330 0.949 . S
C325 H320 0.950 . S
C325 C327 1.327 . S
C325 C331 1.435 . S
C326 C318 1.574 . S
C326 H321 0.949 . S
C326 C332 1.367 1_545 S
C327 C311 1.349 . S
C327 H319 0.950 . S
C327 C325 1.327 . S
C328 C316 1.349 . S
C328 H322 0.950 . S
C328 C329 1.327 . S
C329 H323 0.950 . S
C329 C328 1.327 . S
C329 C333 1.439 . S
C330 C313 1.574 . S
C330 H324 0.949 . S
C330 C334 1.364 1_565 S
C331 C312 1.426 1_565 S
C331 C325 1.435 . S
C331 C332 1.520 . S
C332 C313 1.369 . S
C332 C326 1.367 1_565 S
C332 C331 1.520 . S
C333 C317 1.425 1_545 S
C333 C329 1.439 . S
C333 C334 1.520 . S
C334 C318 1.371 . S
C334 C330 1.364 1_545 S
C334 C333 1.520 . S
H335 C310 0.950 . S
H336 C312 0.950 . S
H337 C313 0.949 . S
H338 C315 0.950 . S
H339 C317 0.950 . S
C340 C341 1.349 . S
C340 C342 1.327 . S
C340 H365 0.950 . S
C341 C340 1.349 . S
C341 C357 1.349 1_554 S
C342 C340 1.327 . S
C342 C361 1.429 . S
C342 H366 0.950 . S
C343 C360 1.574 1_655 S
C343 C362 1.354 1_556 S
C343 H367 0.949 . S
H344 C348 0.949 . S
C345 C346 1.349 . S
C345 C347 1.327 . S
C345 H368 0.950 . S
C346 C345 1.349 . S
C346 C358 1.349 1_556 S
C347 C345 1.327 . S
C347 C363 1.452 . S
C347 H369 0.950 . S
C348 H344 0.949 . S
C348 C356 1.574 1_455 S
C348 C364 1.360 1_554 S
H349 C357 0.950 . S
H350 C355 0.950 . S
H351 C356 0.949 . S
H352 C358 0.950 . S
H353 C359 0.950 . S
H354 C360 0.949 . S
C355 H350 0.950 . S
C355 C357 1.327 . S
C355 C361 1.429 1_556 S
C356 C348 1.574 1_655 S
C356 H351 0.949 . S
C356 C362 1.381 . S
C357 C341 1.349 1_556 S
C357 H349 0.950 . S
C357 C355 1.327 . S
C358 C346 1.349 1_554 S
C358 H352 0.950 . S
C358 C359 1.327 . S
C359 H353 0.950 . S
C359 C358 1.327 . S
C359 C363 1.409 1_554 S
C360 C343 1.574 1_455 S
C360 H354 0.949 . S
C360 C364 1.375 . S
C361 C342 1.429 . S
C361 C355 1.429 1_554 S
C361 C362 1.525 . S
C362 C343 1.354 1_554 S
C362 C356 1.381 . S
C362 C361 1.525 . S
C363 C347 1.452 . S
C363 C359 1.409 1_556 S
C363 C364 1.521 . S
C364 C348 1.360 1_556 S
C364 C360 1.375 . S
C364 C363 1.521 . S
H365 C340 0.950 . S
H366 C342 0.950 . S
H367 C343 0.949 . S
H368 C345 0.950 . S
H369 C347 0.950 . S
C370 C371 1.349 . S
C370 C372 1.327 . S
C370 H395 0.950 . S
C371 C370 1.349 . S
C371 C387 1.349 . S
C372 C370 1.327 . S
C372 C391 1.429 . S
C372 H396 0.950 . S
C373 C390 1.574 1_455 S
C373 C392 1.368 . S
C373 H397 0.949 . S
H374 C378 0.949 . S
C375 C376 1.349 . S
C375 C377 1.327 . S
C375 H398 0.950 . S
C376 C375 1.349 . S
C376 C388 1.349 . S
C377 C375 1.327 . S
C377 C393 1.429 . S
C377 H399 0.950 . S
C378 H374 0.949 . S
C378 C386 1.574 1_655 S
C378 C394 1.368 . S
H379 C387 0.950 . S
H380 C385 0.950 . S
H381 C386 0.949 . S
H382 C388 0.950 . S
H383 C389 0.950 . S
H384 C390 0.949 . S
C385 H380 0.950 . S
C385 C387 1.327 . S
C385 C391 1.429 . S
C386 C378 1.574 1_455 S
C386 H381 0.949 . S
C386 C392 1.368 . S
C387 C371 1.349 . S
C387 H379 0.950 . S
C387 C385 1.327 . S
C388 C376 1.349 . S
C388 H382 0.950 . S
C388 C389 1.327 . S
C389 H383 0.950 . S
C389 C388 1.327 . S
C389 C393 1.429 . S
C390 C373 1.574 1_655 S
C390 H384 0.949 . S
C390 C394 1.368 . S
C391 C372 1.429 . S
C391 C385 1.429 . S
C391 C392 1.523 . S
C392 C373 1.368 . S
C392 C386 1.368 . S
C392 C391 1.523 . S
C393 C377 1.429 . S
C393 C389 1.429 . S
C393 C394 1.523 . S
C394 C378 1.368 . S
C394 C390 1.368 . S
C394 C393 1.523 . S
H395 C370 0.950 . S
H396 C372 0.950 . S
H397 C373 0.949 . S
H398 C375 0.950 . S
H399 C377 0.950 . S
C400 C401 1.349 1_565 S
C400 C402 1.327 . S
C400 H425 0.950 . S
C401 C400 1.349 1_545 S
C401 C417 1.349 1_655 S
C402 C400 1.327 . S
C402 C421 1.429 1_565 S
C402 H426 0.950 . S
C403 C420 1.574 . S
C403 C422 1.368 1_455 S
C403 H427 0.949 . S
H404 C408 0.949 . S
C405 C406 1.341 1_455 S
C405 C407 1.327 . S
C405 H428 0.950 . S
C406 C405 1.341 1_655 S
C406 C418 1.358 1_545 S
C407 C405 1.327 . S
C407 C423 1.417 1_455 S
C407 H429 0.950 . S
C408 H404 0.949 . S
C408 C416 1.574 . S
C408 C424 1.383 1_565 S
H409 C417 0.950 . S
H410 C415 0.950 . S
H411 C416 0.949 . S
H412 C418 0.950 . S
H413 C419 0.950 . S
H414 C420 0.949 . S
C415 H410 0.950 . S
C415 C417 1.327 . S
C415 C421 1.429 1_455 S
C416 C408 1.574 . S
C416 H411 0.949 . S
C416 C422 1.368 1_565 S
C417 C401 1.349 1_455 S
C417 H409 0.950 . S
C417 C415 1.327 . S
C418 C406 1.358 1_565 S
C418 H412 0.950 . S
C418 C419 1.327 . S
C419 H413 0.950 . S
C419 C418 1.327 . S
C419 C423 1.438 1_565 S
C420 C403 1.574 . S
C420 H414 0.949 . S
C420 C424 1.356 1_455 S
C421 C402 1.429 1_545 S
C421 C415 1.429 1_655 S
C421 C422 1.523 . S
C422 C403 1.368 1_655 S
C422 C416 1.368 1_545 S
C422 C421 1.523 . S
C423 C407 1.417 1_655 S
C423 C419 1.438 1_545 S
C423 C424 1.523 . S
C424 C408 1.383 1_545 S
C424 C420 1.356 1_655 S
C424 C423 1.523 . S
H425 C400 0.950 . S
H426 C402 0.950 . S
H427 C403 0.949 . S
H428 C405 0.950 . S
H429 C407 0.950 . S
C430 C431 1.338 1_655 S
C430 C432 1.327 . S
C430 H455 0.950 . S
C431 C430 1.338 1_455 S
C431 C447 1.362 1_565 S
C432 C430 1.327 . S
C432 C451 1.429 1_655 S
C432 H456 0.950 . S
C433 C450 1.574 . S
C433 C452 1.368 1_545 S
C433 H457 0.949 . S
H434 C438 0.949 . S
C435 C436 1.320 1_545 S
C435 C437 1.327 . S
C435 H458 0.950 . S
C436 C435 1.320 1_565 S
C436 C448 1.379 1_455 S
C437 C435 1.327 . S
C437 C453 1.429 1_545 S
C437 H459 0.950 . S
C438 H434 0.949 . S
C438 C446 1.574 . S
C438 C454 1.368 1_655 S
H439 C447 0.950 . S
H440 C445 0.950 . S
H441 C446 0.949 . S
H442 C448 0.950 . S
H443 C449 0.950 . S
H444 C450 0.949 . S
C445 H440 0.950 . S
C445 C447 1.327 . S
C445 C451 1.429 1_545 S
C446 C438 1.574 . S
C446 H441 0.949 . S
C446 C452 1.368 1_655 S
C447 C431 1.362 1_545 S
C447 H439 0.950 . S
C447 C445 1.327 . S
C448 C436 1.379 1_655 S
C448 H442 0.950 . S
C448 C449 1.327 . S
C449 H443 0.950 . S
C449 C448 1.327 . S
C449 C453 1.429 1_655 S
C450 C433 1.574 . S
C450 H444 0.949 . S
C450 C454 1.368 1_545 S
C451 C432 1.429 1_455 S
C451 C445 1.429 1_565 S
C451 C452 1.523 . S
C452 C433 1.368 1_565 S
C452 C446 1.368 1_455 S
C452 C451 1.523 . S
C453 C437 1.429 1_565 S
C453 C449 1.429 1_455 S
C453 C454 1.523 . S
C454 C438 1.368 1_455 S
C454 C450 1.368 1_565 S
C454 C453 1.523 . S
H455 C430 0.950 . S
H456 C432 0.950 . S
H457 C433 0.949 . S
H458 C435 0.950 . S
H459 C437 0.950 . S
C460 C461 1.349 . S
C460 C462 1.327 . S
C460 H485 0.950 . S
C461 C460 1.349 . S
C461 C477 1.349 . S
C462 C460 1.327 . S
C462 C481 1.429 . S
C462 H486 0.950 . S
C463 C480 1.574 . S
C463 C482 1.368 . S
C463 H487 0.949 . S
H464 C468 0.949 . S
C465 C466 1.349 . S
C465 C467 1.327 . S
C465 H488 0.950 . S
C466 C465 1.349 . S
C466 C478 1.349 . S
C467 C465 1.327 . S
C467 C483 1.429 . S
C467 H489 0.950 . S
C468 H464 0.949 . S
C468 C476 1.574 . S
C468 C484 1.368 . S
H469 C477 0.950 . S
H470 C475 0.950 . S
H471 C476 0.949 . S
H472 C478 0.950 . S
H473 C479 0.950 . S
H474 C480 0.949 . S
C475 H470 0.950 . S
C475 C477 1.327 . S
C475 C481 1.429 . S
C476 C468 1.574 . S
C476 H471 0.949 . S
C476 C482 1.368 . S
C477 C461 1.349 . S
C477 H469 0.950 . S
C477 C475 1.327 . S
C478 C466 1.349 . S
C478 H472 0.950 . S
C478 C479 1.327 . S
C479 H473 0.950 . S
C479 C478 1.327 . S
C479 C483 1.429 . S
C480 C463 1.574 . S
C480 H474 0.949 . S
C480 C484 1.368 . S
C481 C462 1.429 . S
C481 C475 1.429 . S
C481 C482 1.523 . S
C482 C463 1.368 . S
C482 C476 1.368 . S
C482 C481 1.523 . S
C483 C467 1.429 . S
C483 C479 1.429 . S
C483 C484 1.523 . S
C484 C468 1.368 . S
C484 C480 1.368 . S
C484 C483 1.523 . S
H485 C460 0.950 . S
H486 C462 0.950 . S
H487 C463 0.949 . S
H488 C465 0.950 . S
H489 C467 0.950 . S
C490 C491 1.349 . S
C490 C492 1.327 . S
C490 H515 0.950 . S
C491 C490 1.349 . S
C491 C507 1.349 . S
C492 C490 1.327 . S
C492 C511 1.429 . S
C492 H516 0.950 . S
C493 C510 1.574 . S
C493 C512 1.368 . S
C493 H517 0.949 . S
H494 C498 0.949 . S
C495 C496 1.349 . S
C495 C497 1.327 . S
C495 H518 0.950 . S
C496 C495 1.349 . S
C496 C508 1.349 . S
C497 C495 1.327 . S
C497 C513 1.429 . S
C497 H519 0.950 . S
C498 H494 0.949 . S
C498 C506 1.574 . S
C498 C514 1.368 . S
H499 C507 0.950 . S
H500 C505 0.950 . S
H501 C506 0.949 . S
H502 C508 0.950 . S
H503 C509 0.950 . S
H504 C510 0.949 . S
C505 H500 0.950 . S
C505 C507 1.327 . S
C505 C511 1.429 . S
C506 C498 1.574 . S
C506 H501 0.949 . S
C506 C512 1.368 . S
C507 C491 1.349 . S
C507 H499 0.950 . S
C507 C505 1.327 . S
C508 C496 1.349 . S
C508 H502 0.950 . S
C508 C509 1.327 . S
C509 H503 0.950 . S
C509 C508 1.327 . S
C509 C513 1.429 . S
C510 C493 1.574 . S
C510 H504 0.949 . S
C510 C514 1.368 . S
C511 C492 1.429 . S
C511 C505 1.429 . S
C511 C512 1.523 . S
C512 C493 1.368 . S
C512 C506 1.368 . S
C512 C511 1.523 . S
C513 C497 1.429 . S
C513 C509 1.429 . S
C513 C514 1.523 . S
C514 C498 1.368 . S
C514 C510 1.368 . S
C514 C513 1.523 . S
H515 C490 0.950 . S
H516 C492 0.950 . S
H517 C493 0.949 . S
H518 C495 0.950 . S
H519 C497 0.950 . S
C161 C82 3.510 1_554 S
C166 C11 3.512 1_556 S
C191 C91 3.510 1_556 S
C196 C2 3.507 1_554 S
C221 C56 0.093 . S
C226 C127 0.089 . S
C251 C47 0.093 . S
C256 C136 0.097 . S
C281 C16 0.897 . S
C286 C7 0.897 . S
C311 C51 4.904 . S
C316 C42 4.904 . S
C341 C96 0.897 . S
C346 C87 0.897 . S
C371 C122 4.904 . S
C376 C131 4.904 . S
C401 C50 1.461 1_645 S
C406 C19 1.455 1_655 S
C431 C10 1.457 1_455 S
C436 C59 1.453 1_465 S
C461 C130 1.459 . S
C466 C99 1.460 . S
C491 C139 1.459 . S
C496 C90 1.466 . S
