# Generated by pormake.
# Topology sml, (6)-cn, num edge types: 1
# Building blocks:
#     Node 0, Type 0, BuildingBlock: BETFEN_clean_sbu_0, # of connection points: 6
#     Node 1, Type 0, BuildingBlock: BETFEN_clean_sbu_0, # of connection points: 6
#     Node 2, Type 0, BuildingBlock: BETFEN_clean_sbu_0, # of connection points: 6
#     Node 3, Type 0, BuildingBlock: BETFEN_clean_sbu_0, # of connection points: 6
#     Node 4, Type 0, BuildingBlock: BETFEN_clean_sbu_0, # of connection points: 6
#     Node 5, Type 0, BuildingBlock: BETFEN_clean_sbu_0, # of connection points: 6
#     Edge 6, Type (0, 0), BuildingBlock: CIFDUS_clean_linker_0, # of connection points: 2
#     Edge 7, Type (0, 0), BuildingBlock: CIFDUS_clean_linker_0, # of connection points: 2
#     Edge 8, Type (0, 0), BuildingBlock: CIFDUS_clean_linker_0, # of connection points: 2
#     Edge 9, Type (0, 0), BuildingBlock: CIFDUS_clean_linker_0, # of connection points: 2
#     Edge 10, Type (0, 0), BuildingBlock: CIFDUS_clean_linker_0, # of connection points: 2
#     Edge 11, Type (0, 0), BuildingBlock: CIFDUS_clean_linker_0, # of connection points: 2
#     Edge 12, Type (0, 0), BuildingBlock: CIFDUS_clean_linker_0, # of connection points: 2
#     Edge 13, Type (0, 0), BuildingBlock: CIFDUS_clean_linker_0, # of connection points: 2
#     Edge 14, Type (0, 0), BuildingBlock: CIFDUS_clean_linker_0, # of connection points: 2
#     Edge 15, Type (0, 0), BuildingBlock: CIFDUS_clean_linker_0, # of connection points: 2
#     Edge 16, Type (0, 0), BuildingBlock: CIFDUS_clean_linker_0, # of connection points: 2
#     Edge 17, Type (0, 0), BuildingBlock: CIFDUS_clean_linker_0, # of connection points: 2
#     Edge 18, Type (0, 0), BuildingBlock: CIFDUS_clean_linker_0, # of connection points: 2
#     Edge 19, Type (0, 0), BuildingBlock: CIFDUS_clean_linker_0, # of connection points: 2
#     Edge 20, Type (0, 0), BuildingBlock: CIFDUS_clean_linker_0, # of connection points: 2
#     Edge 21, Type (0, 0), BuildingBlock: CIFDUS_clean_linker_0, # of connection points: 2
#     Edge 22, Type (0, 0), BuildingBlock: CIFDUS_clean_linker_0, # of connection points: 2
#     Edge 23, Type (0, 0), BuildingBlock: CIFDUS_clean_linker_0, # of connection points: 2
# Relax obj value: 0.218
# Max RMSD: 0.239
# Mean RMSD: 0.239
data_MOF--net-sml--node1-BETFEN_clean_sbu_0--edge1-CIFDUS_clean_linker_0
_symmetry_space_group_name_H-M    P1
_symmetry_Int_Tables_number       1
_symmetry_cell_setting            triclinic
loop_
_symmetry_equiv_pos_as_xyz
'x, y, z'
_cell_length_a     27.322381
_cell_length_b     27.370447
_cell_length_c     23.381594
_cell_angle_alpha  90.055631
_cell_angle_beta   89.799174
_cell_angle_gamma 120.09142
loop_
_atom_site_label
_atom_site_type_symbol
_atom_site_fract_x
_atom_site_fract_y
_atom_site_fract_z
_atom_type_partial_charge
Pr0 Pr 0.28326 0.42993 0.23277 0.0
Pr1 Pr 0.20316 0.40084 0.12639 0.0
C2 C 0.33404 0.44948 0.33558 0.0
C3 C 0.32109 0.44462 0.39719 0.0
C4 C 0.3538 0.43309 0.43488 0.0
C5 C 0.34316 0.42913 0.49369 0.0
C6 C 0.29949 0.43667 0.51602 0.0
C7 C 0.2663 0.44762 0.4779 0.0
C8 C 0.27697 0.45151 0.41897 0.0
C9 C 0.30517 0.37638 0.14314 0.0
C10 C 0.14687 0.32646 0.23992 0.0
C11 C 0.15493 0.37579 0.02213 0.0
C12 C 0.16995 0.38332 0.96087 0.0
C13 C 0.13642 0.39304 0.92259 0.0
C14 C 0.14817 0.39807 0.86398 0.0
C15 C 0.19361 0.39309 0.84228 0.0
C16 C 0.22785 0.38431 0.88103 0.0
C17 C 0.21626 0.37972 0.9398 0.0
C18 C 0.18591 0.46016 0.21396 0.0
C19 C 0.33204 0.51505 0.12334 0.0
O20 O 0.3291 0.48786 0.3069 0.0
O21 O 0.31621 0.4022 0.30744 0.0
O22 O 0.25641 0.36404 0.16032 0.0
O23 O 0.34405 0.41439 0.17558 0.0
O24 O 0.14461 0.32432 0.1836 0.0
O25 O 0.19187 0.36559 0.26737 0.0
O26 O 0.16617 0.34171 0.05124 0.0
O27 O 0.16445 0.42085 0.05072 0.0
O28 O 0.2331 0.4686 0.1963 0.0
O29 O 0.14484 0.42286 0.18265 0.0
O30 O 0.33663 0.51262 0.1794 0.0
O31 O 0.29025 0.47449 0.0939 0.0
H32 H 0.38777 0.42727 0.41877 0.0
H33 H 0.36888 0.4197 0.52165 0.0
H34 H 0.23269 0.45413 0.49368 0.0
H35 H 0.25102 0.4602 0.39053 0.0
H36 H 0.10075 0.39636 0.93803 0.0
H37 H 0.12162 0.40599 0.83567 0.0
H38 H 0.2629 0.37978 0.86594 0.0
H39 H 0.24306 0.37278 0.96865 0.0
Pr40 Pr 0.7472 0.16912 0.457 0.0
Pr41 Pr 0.82045 0.22876 0.56291 0.0
C42 C 0.70117 0.13675 0.35233 0.0
C43 C 0.71956 0.15156 0.29279 0.0
C44 C 0.68146 0.12301 0.24847 0.0
C45 C 0.69907 0.13519 0.19152 0.0
C46 C 0.75517 0.17622 0.17805 0.0
C47 C 0.79304 0.20525 0.22285 0.0
C48 C 0.77537 0.19294 0.27979 0.0
C49 C 0.73947 0.09536 0.54221 0.0
C50 C 0.88685 0.21726 0.45399 0.0
C51 C 0.86682 0.26206 0.66732 0.0
C52 C 0.84775 0.24999 0.72694 0.0
C53 C 0.88581 0.27941 0.771 0.0
C54 C 0.86791 0.26904 0.82797 0.0
C55 C 0.81157 0.22892 0.84175 0.0
C56 C 0.77358 0.19937 0.7972 0.0
C57 C 0.79153 0.20991 0.74023 0.0
C58 C 0.82712 0.3015 0.47606 0.0
C59 C 0.68139 0.18025 0.56843 0.0
O60 O 0.69769 0.17511 0.38261 0.0
O61 O 0.72378 0.11162 0.38026 0.0
O62 O 0.78493 0.13911 0.52795 0.0
O63 O 0.69772 0.08609 0.50911 0.0
O64 O 0.8878 0.22056 0.5102 0.0
O65 O 0.84109 0.20578 0.42443 0.0
O66 O 0.86699 0.22093 0.63895 0.0
O67 O 0.84748 0.28916 0.63757 0.0
O68 O 0.78233 0.25817 0.4922 0.0
O69 O 0.86964 0.31157 0.50844 0.0
O70 O 0.67833 0.17418 0.51229 0.0
O71 O 0.72806 0.19337 0.59677 0.0
H72 H 0.63828 0.09075 0.25793 0.0
H73 H 0.66909 0.11156 0.15808 0.0
H74 H 0.83631 0.23755 0.21392 0.0
H75 H 0.80535 0.21538 0.31362 0.0
H76 H 0.92929 0.31071 0.76133 0.0
H77 H 0.89801 0.29309 0.86118 0.0
H78 H 0.73013 0.16771 0.80636 0.0
H79 H 0.76157 0.18679 0.7066 0.0
Pr80 Pr 0.57153 0.83829 0.89262 0.0
Pr81 Pr 0.58981 0.77808 0.78399 0.0
C82 C 0.53702 0.85971 0.99296 0.0
C83 C 0.54302 0.84721 0.05302 0.0
C84 C 0.53404 0.87608 0.09765 0.0
C85 C 0.54171 0.86562 0.15465 0.0
C86 C 0.55874 0.82619 0.16804 0.0
C87 C 0.56706 0.7969 0.12296 0.0
C88 C 0.55931 0.80733 0.06609 0.0
C89 C 0.65785 0.90918 0.81722 0.0
C90 C 0.66963 0.80196 0.89435 0.0
C91 C 0.60157 0.74494 0.67885 0.0
C92 C 0.59329 0.75692 0.61931 0.0
C93 C 0.60327 0.72937 0.57409 0.0
C94 C 0.59414 0.73934 0.51744 0.0
C95 C 0.57484 0.77717 0.50486 0.0
C96 C 0.56516 0.8049 0.55059 0.0
C97 C 0.5742 0.79476 0.6072 0.0
C98 C 0.532 0.70739 0.87592 0.0
C99 C 0.50248 0.83153 0.77467 0.0
O100 O 0.50477 0.81607 0.96092 0.0
O101 O 0.58364 0.89646 0.96709 0.0
O102 O 0.6108 0.86758 0.80449 0.0
O103 O 0.6604 0.91925 0.87189 0.0
O104 O 0.67095 0.80365 0.83777 0.0
O105 O 0.62968 0.8044 0.9241 0.0
O106 O 0.64366 0.78615 0.70676 0.0
O107 O 0.55548 0.71728 0.70974 0.0
O108 O 0.52596 0.74754 0.8582 0.0
O109 O 0.56595 0.69979 0.84296 0.0
O110 O 0.5111 0.8486 0.82858 0.0
O111 O 0.52656 0.80518 0.75057 0.0
H112 H 0.5217 0.90718 0.08838 0.0
H113 H 0.53557 0.8894 0.18815 0.0
H114 H 0.57942 0.76572 0.13162 0.0
H115 H 0.56642 0.7845 0.03223 0.0
H116 H 0.61766 0.69972 0.58261 0.0
H117 H 0.60122 0.71655 0.48357 0.0
H118 H 0.55113 0.83491 0.54268 0.0
H119 H 0.56637 0.81658 0.64151 0.0
Pr120 Pr 0.79918 0.54708 0.11391 0.0
Pr121 Pr 0.74377 0.56991 0.22068 0.0
C122 C 0.82809 0.52683 1.00965 0.0
C123 C 0.82016 0.5333 0.94847 0.0
C124 C 0.84984 0.52041 0.90793 0.0
C125 C 0.84452 0.52779 0.84958 0.0
C126 C 0.80914 0.54804 0.8306 0.0
C127 C 0.77895 0.56046 0.87149 0.0
C128 C 0.7847 0.55347 0.93 0.0
C129 C 0.87558 0.61199 0.19845 0.0
C130 C 0.7681 0.65068 0.11113 0.0
C131 C 0.70875 0.58397 0.32435 0.0
C132 C 0.71996 0.58181 0.38554 0.0
C133 C 0.68908 0.59308 0.42607 0.0
C134 C 0.69603 0.58763 0.48447 0.0
C135 C 0.73401 0.57061 0.50359 0.0
C136 C 0.76594 0.56055 0.46266 0.0
C137 C 0.75888 0.56601 0.40408 0.0
C138 C 0.66885 0.50843 0.13324 0.0
C139 C 0.78539 0.47506 0.22848 0.0
O140 O 0.78393 0.48928 0.0383 0.0
O141 O 0.85898 0.5734 0.03831 0.0
O142 O 0.83337 0.61596 0.18357 0.0
O143 O 0.8821 0.57686 0.16641 0.0
O144 O 0.76435 0.64932 0.16744 0.0
O145 O 0.77306 0.61202 0.08181 0.0
O146 O 0.7478 0.62586 0.29442 0.0
O147 O 0.68535 0.53578 0.29708 0.0
O148 O 0.7091 0.50189 0.14976 0.0
O149 O 0.66275 0.5434 0.16574 0.0
O150 O 0.78455 0.47143 0.17214 0.0
O151 O 0.78017 0.5146 0.25534 0.0
H152 H 0.87749 0.50489 0.92144 0.0
H153 H 0.86783 0.51723 0.81925 0.0
H154 H 0.7518 0.57665 0.85831 0.0
H155 H 0.76187 0.56421 0.96076 0.0
H156 H 0.6589 0.60539 0.4125 0.0
H157 H 0.67151 0.59669 0.5147 0.0
H158 H 0.79522 0.54696 0.47579 0.0
H159 H 0.78299 0.55693 0.3733 0.0
Pr160 Pr 0.15717 0.72839 0.54844 0.0
Pr161 Pr 0.23348 0.80668 0.43781 0.0
C162 C 0.12363 0.67063 0.64757 0.0
C163 C 0.13515 0.68082 0.70978 0.0
C164 C 0.09556 0.68358 0.74617 0.0
C165 C 0.1062 0.69343 0.80483 0.0
C166 C 0.15672 0.70071 0.82859 0.0
C167 C 0.1959 0.69712 0.79216 0.0
C168 C 0.1851 0.68694 0.73364 0.0
C169 C 0.09866 0.72626 0.45025 0.0
C170 C 0.19673 0.86453 0.54108 0.0
C171 C 0.25481 0.85112 0.33216 0.0
C172 C 0.23785 0.83209 0.27232 0.0
C173 C 0.2765 0.82971 0.23422 0.0
C174 C 0.26154 0.8134 0.17724 0.0
C175 C 0.20769 0.7995 0.15693 0.0
C176 C 0.16887 0.80143 0.19519 0.0
C177 C 0.18377 0.81763 0.25213 0.0
C178 C 0.2984 0.82716 0.53711 0.0
C179 C 0.20753 0.67436 0.4496 0.0
O180 O 0.16395 0.67261 0.61524 0.0
O181 O 0.09609 0.69284 0.62316 0.0
O182 O 0.1459 0.72912 0.45235 0.0
O183 O 0.07657 0.71919 0.50125 0.0
O184 O 0.20457 0.86337 0.48526 0.0
O185 O 0.18569 0.82144 0.57518 0.0
O186 O 0.21627 0.85091 0.36612 0.0
O187 O 0.28748 0.83533 0.35761 0.0
O188 O 0.24673 0.79449 0.52963 0.0
O189 O 0.32118 0.85279 0.48896 0.0
O190 O 0.1787 0.66627 0.49798 0.0
O191 O 0.23003 0.72162 0.41954 0.0
H192 H 0.05621 0.67802 0.7293 0.0
H193 H 0.07448 0.69475 0.83163 0.0
H194 H 0.23553 0.70308 0.80862 0.0
H195 H 0.21625 0.68431 0.7071 0.0
H196 H 0.31862 0.84108 0.24833 0.0
H197 H 0.29268 0.81302 0.14873 0.0
H198 H 0.1268 0.79031 0.18113 0.0
H199 H 0.15286 0.81905 0.28014 0.0
Pr200 Pr 0.41419 0.26606 0.75565 0.0
Pr201 Pr 0.37992 0.18675 0.86177 0.0
C202 C 0.44464 0.31729 0.65254 0.0
C203 C 0.43618 0.30472 0.59081 0.0
C204 C 0.43582 0.34467 0.55358 0.0
C205 C 0.42923 0.33453 0.49467 0.0
C206 C 0.42287 0.28411 0.4717 0.0
C207 C 0.42244 0.24374 0.5094 0.0
C208 C 0.42896 0.25391 0.5684 0.0
C209 C 0.34392 0.27838 0.83382 0.0
C210 C 0.31261 0.12904 0.74584 0.0
C211 C 0.35189 0.13817 0.96612 0.0
C212 C 0.35781 0.1536 0.02715 0.0
C213 C 0.35767 0.11583 0.06757 0.0
C214 C 0.36183 0.12842 0.12588 0.0
C215 C 0.3661 0.17914 0.14519 0.0
C216 C 0.36724 0.21757 0.10435 0.0
C217 C 0.36313 0.2049 0.04578 0.0
C218 C 0.45682 0.18196 0.78589 0.0
C219 C 0.48142 0.32056 0.87429 0.0
O220 O 0.47455 0.29992 0.68051 0.0
O221 O 0.40112 0.31171 0.68156 0.0
O222 O 0.33888 0.23186 0.81824 0.0
O223 O 0.38388 0.32009 0.8052 0.0
O224 O 0.30804 0.12635 0.80195 0.0
O225 O 0.35285 0.17434 0.71936 0.0
O226 O 0.31837 0.14894 0.93553 0.0
O227 O 0.39795 0.14822 0.93896 0.0
O228 O 0.45808 0.22604 0.80312 0.0
O229 O 0.41575 0.13711 0.80967 0.0
O230 O 0.48793 0.324 0.81806 0.0
O231 O 0.43833 0.27684 0.89911 0.0
H232 H 0.44089 0.38395 0.57008 0.0
H233 H 0.4288 0.36611 0.46716 0.0
H234 H 0.41817 0.2047 0.49324 0.0
H235 H 0.42883 0.22232 0.59641 0.0
H236 H 0.35407 0.07628 0.054 0.0
H237 H 0.36199 0.09838 0.1559 0.0
H238 H 0.37016 0.25686 0.11765 0.0
H239 H 0.36363 0.23485 0.01516 0.0
H240 H 0.39956 0.36914 0.90056 0.0
H241 H 0.24688 0.20707 0.89322 0.0
H242 H 0.21916 0.22329 0.98857 0.0
H243 H 0.24024 0.28458 0.07485 0.0
H244 H 0.40082 0.43941 0.08361 0.0
H245 H 0.42373 0.42525 0.98692 0.0
C246 C 0.35994 0.33744 0.91955 0.0
C247 C 0.32483 0.2874 0.88984 0.0
C248 C 0.34598 0.34586 0.97479 0.0
C249 C 0.27429 0.24616 0.91542 0.0
C250 C 0.25865 0.25537 0.96986 0.0
C251 C 0.28017 0.31489 0.05536 0.0
C252 C 0.31831 0.36364 0.08575 0.0
C253 C 0.29442 0.30508 1.00018 0.0
C254 C 0.37038 0.40218 0.0607 0.0
C255 C 0.38361 0.39407 1.00541 0.0
H256 H 0.13367 0.31849 0.35562 0.0
H257 H 0.04064 0.25661 0.19795 0.0
H258 H 0.95166 0.21418 0.25084 0.0
H259 H 0.90004 0.20288 0.34069 0.0
H260 H 0.99337 0.26489 0.49817 0.0
H261 H 0.08214 0.29868 0.44641 0.0
C262 C 0.09403 0.29487 0.33282 0.0
C263 C 0.09407 0.29133 0.27278 0.0
C264 C 0.04284 0.27106 0.3634 0.0
C265 C 0.04213 0.2602 0.24412 0.0
C266 C 0.99104 0.23615 0.27431 0.0
C267 C 0.93975 0.22326 0.36381 0.0
C268 C 0.93993 0.23184 0.42316 0.0
C269 C 0.99086 0.2427 0.33377 0.0
C270 C 0.99182 0.25782 0.45247 0.0
C271 C 0.04275 0.27732 0.42289 0.0
H272 H 0.7797 0.11622 0.65099 0.0
H273 H 0.68593 0.98288 0.52973 0.0
H274 H 0.66133 0.9123 0.60446 0.0
H275 H 0.65409 0.88953 0.70526 0.0
H276 H 0.73909 0.02128 0.83032 0.0
H277 H 0.78049 0.0917 0.75335 0.0
C278 C 0.75522 0.07163 0.64106 0.0
C279 C 0.73463 0.05438 0.58534 0.0
C280 C 0.73907 0.03126 0.68497 0.0
C281 C 0.702 0.99675 0.57256 0.0
C282 C 0.68776 0.95647 0.61523 0.0
C283 C 0.68273 0.93348 0.71573 0.0
C284 C 0.6932 0.95039 0.77315 0.0
C285 C 0.70423 0.97337 0.67179 0.0
C286 C 0.73042 0.00739 0.78625 0.0
C287 C 0.75365 0.04761 0.7423 0.0
H288 H 0.6897 0.81085 1.00788 0.0
H289 H 0.73109 0.75638 0.8508 0.0
H290 H 0.77199 0.70952 0.90534 0.0
H291 H 0.78277 0.67272 0.99716 0.0
H292 H 0.73738 0.72438 0.15385 0.0
H293 H 0.71135 0.78389 0.09967 0.0
C294 C 0.70866 0.78966 0.98547 0.0
C295 C 0.70656 0.78627 0.92546 0.0
C296 C 0.73057 0.76162 0.017 0.0
C297 C 0.73205 0.75947 0.89701 0.0
C298 C 0.75497 0.73224 0.92818 0.0
C299 C 0.76793 0.69758 0.01958 0.0
C300 C 0.76104 0.69329 0.07937 0.0
C301 C 0.75234 0.73118 0.98815 0.0
C302 C 0.74263 0.72648 0.10782 0.0
C303 C 0.72762 0.76048 0.07688 0.0
H304 H 0.99338 0.71168 0.43471 0.0
H305 H 0.13242 0.71262 0.34543 0.0
H306 H 0.07621 0.67955 0.25863 0.0
H307 H 0.98515 0.643 0.2102 0.0
H308 H 0.84717 0.64567 0.29644 0.0
H309 H 0.90488 0.68451 0.38233 0.0
C310 C 0.01141 0.70527 0.396 0.0
C311 C 0.06653 0.71381 0.39662 0.0
C312 C 0.97888 0.68642 0.34591 0.0
C313 C 0.08982 0.7059 0.34613 0.0
C314 C 0.0577 0.68681 0.29646 0.0
C315 C 0.96807 0.65273 0.24768 0.0
C316 C 0.91201 0.64124 0.24756 0.0
C317 C 0.00184 0.67575 0.29625 0.0
C318 C 0.8903 0.65444 0.29583 0.0
C319 C 0.92326 0.67642 0.34491 0.0
H320 H 0.31024 0.11416 0.63003 0.0
H321 H 0.2331 0.0263 0.78757 0.0
H322 H 0.18498 0.93704 0.73652 0.0
H323 H 0.17373 0.88241 0.64974 0.0
H324 H 0.25045 0.96942 0.49191 0.0
H325 H 0.28867 0.06018 0.54036 0.0
C326 C 0.28217 0.07566 0.65308 0.0
C327 C 0.27621 0.07706 0.71276 0.0
C328 C 0.25465 0.02403 0.62349 0.0
C329 C 0.23912 0.02668 0.74173 0.0
C330 C 0.21154 0.97538 0.7126 0.0
C331 C 0.19798 0.92121 0.62566 0.0
C332 C 0.2098 0.91893 0.5675 0.0
C333 C 0.2204 0.97333 0.65385 0.0
C334 C 0.24075 0.96974 0.53682 0.0
C335 C 0.26301 0.0218 0.56457 0.0
H336 H 0.29559 0.44432 0.78656 0.0
H337 H 0.11565 0.34836 0.75627 0.0
H338 H 0.13237 0.35441 0.65339 0.0
H339 H 0.1979 0.38566 0.57169 0.0
H340 H 0.37782 0.4805 0.60172 0.0
H341 H 0.36122 0.4748 0.70479 0.0
C342 C 0.26001 0.42422 0.75754 0.0
C343 C 0.20442 0.3962 0.77944 0.0
C344 C 0.26988 0.42733 0.69821 0.0
C345 C 0.15889 0.37109 0.74086 0.0
C346 C 0.16838 0.37417 0.68189 0.0
C347 C 0.23349 0.40554 0.60074 0.0
C348 C 0.28901 0.43345 0.57883 0.0
C349 C 0.22367 0.40226 0.66005 0.0
C350 C 0.33463 0.45815 0.61729 0.0
C351 C 0.32519 0.45519 0.67631 0.0
H352 H 0.69871 0.18545 0.08672 0.0
H353 H 0.85475 0.19232 0.13343 0.0
H354 H 0.88592 0.20944 0.03382 0.0
H355 H 0.86808 0.2204 0.93326 0.0
H356 H 0.71219 0.21373 0.88636 0.0
H357 H 0.68105 0.19688 0.98604 0.0
C358 C 0.73936 0.19028 0.07504 0.0
C359 C 0.77433 0.18765 0.11752 0.0
C360 C 0.75684 0.19962 0.01761 0.0
C361 C 0.8273 0.1949 0.10176 0.0
C362 C 0.84501 0.20429 0.04474 0.0
C363 C 0.82752 0.21581 0.9449 0.0
C364 C 0.79256 0.21832 0.90236 0.0
C365 C 0.81009 0.20664 1.00232 0.0
C366 C 0.73965 0.21126 0.91809 0.0
C367 C 0.72196 0.202 0.97515 0.0
H368 H 0.63745 0.7866 0.40963 0.0
H369 H 0.48798 0.78998 0.46382 0.0
H370 H 0.47027 0.80607 0.36531 0.0
H371 H 0.49623 0.81772 0.26317 0.0
H372 H 0.64518 0.81328 0.20919 0.0
H373 H 0.66303 0.79762 0.30776 0.0
C374 C 0.60067 0.7903 0.39995 0.0
C375 C 0.56426 0.78713 0.44446 0.0
C376 C 0.59033 0.79902 0.34298 0.0
C377 C 0.51732 0.79304 0.43084 0.0
C378 C 0.50688 0.80188 0.37433 0.0
C379 C 0.53285 0.81376 0.27299 0.0
C380 C 0.56916 0.81656 0.22854 0.0
C381 C 0.5431 0.80496 0.33001 0.0
C382 C 0.61598 0.81052 0.2422 0.0
C383 C 0.62648 0.80191 0.29872 0.0
H384 H 0.71356 0.51932 0.76957 0.0
H385 H 0.89455 0.59617 0.75179 0.0
H386 H 0.88749 0.60928 0.64944 0.0
H387 H 0.83 0.59986 0.56484 0.0
H388 H 0.64879 0.52174 0.58262 0.0
H389 H 0.65602 0.5091 0.68487 0.0
C390 C 0.75148 0.53936 0.74336 0.0
C391 C 0.80447 0.55667 0.7684 0.0
C392 C 0.74714 0.54674 0.68441 0.0
C393 C 0.85314 0.58185 0.73358 0.0
C394 C 0.84918 0.58959 0.67503 0.0
C395 C 0.79203 0.57965 0.59097 0.0
C396 C 0.73898 0.56217 0.56589 0.0
C397 C 0.79639 0.57211 0.64991 0.0
C398 C 0.69032 0.53657 0.60075 0.0
C399 C 0.69433 0.52898 0.65929 0.0
H400 H 0.13317 0.76715 0.89741 0.0
H401 H 0.20753 0.66032 0.90046 0.0
H402 H 0.23018 0.68165 1.00152 0.0
H403 H 0.22891 0.73063 0.08946 0.0
H404 H 0.15279 0.83578 0.08656 0.0
H405 H 0.12947 0.8138 0.98565 0.0
C406 C 0.15364 0.74785 0.92023 0.0
C407 C 0.16876 0.71232 0.89092 0.0
C408 C 0.16603 0.75977 0.97865 0.0
C409 C 0.19617 0.68858 0.92138 0.0
C410 C 0.20885 0.70045 0.9794 0.0
C411 C 0.20746 0.74893 0.06665 0.0
C412 C 0.19265 0.78481 0.09566 0.0
C413 C 0.19422 0.73619 1.00844 0.0
C414 C 0.16412 0.80752 0.06558 0.0
C415 C 0.15105 0.79524 1.00772 0.0
H416 H 0.35318 0.18604 0.41527 0.0
H417 H 0.48064 0.35996 0.38604 0.0
H418 H 0.47294 0.34377 0.28292 0.0
H419 H 0.4323 0.27929 0.20075 0.0
H420 H 0.305 0.10537 0.23068 0.0
H421 H 0.31132 0.12231 0.33345 0.0
C422 C 0.37963 0.22034 0.38643 0.0
C423 C 0.41749 0.27411 0.40867 0.0
C424 C 0.37532 0.21068 0.32707 0.0
C425 C 0.45063 0.31826 0.37032 0.0
C426 C 0.44651 0.30898 0.31123 0.0
C427 C 0.40548 0.24525 0.22969 0.0
C428 C 0.36857 0.19099 0.20776 0.0
C429 C 0.40915 0.25528 0.28907 0.0
C430 C 0.33457 0.14731 0.24619 0.0
C431 C 0.33789 0.157 0.30508 0.0
H432 H 0.26803 0.53595 0.28291 0.0
H433 H 0.08753 0.44799 0.25762 0.0
H434 H 0.07685 0.50033 0.33713 0.0
H435 H 0.12064 0.57893 0.4066 0.0
H436 H 0.30149 0.66874 0.428 0.0
H437 H 0.31035 0.6063 0.35901 0.0
C438 C 0.22629 0.52759 0.29539 0.0
C439 C 0.17873 0.48874 0.26416 0.0
C440 C 0.22061 0.55774 0.34097 0.0
C441 C 0.12485 0.47828 0.28069 0.0
C442 C 0.11873 0.50801 0.32625 0.0
C443 C 0.16159 0.58317 0.39759 0.0
C444 C 0.21032 0.62738 0.42276 0.0
C445 C 0.16647 0.54874 0.35592 0.0
C446 C 0.2635 0.63416 0.40965 0.0
C447 C 0.26858 0.59902 0.36973 0.0
H448 H 0.68362 0.22749 0.67022 0.0
H449 H 0.56849 0.11704 0.54156 0.0
H450 H 0.48776 0.10414 0.59963 0.0
H451 H 0.45022 0.12584 0.68736 0.0
H452 H 0.5676 0.24338 0.81011 0.0
H453 H 0.64727 0.25149 0.75451 0.0
C454 C 0.64086 0.20041 0.65485 0.0
C455 C 0.632 0.17301 0.60181 0.0
C456 C 0.59511 0.19427 0.68772 0.0
C457 C 0.57638 0.13875 0.58217 0.0
C458 C 0.53027 0.13121 0.61547 0.0
C459 C 0.49333 0.15263 0.7019 0.0
C460 C 0.50344 0.18332 0.75299 0.0
C461 C 0.53912 0.1588 0.66839 0.0
C462 C 0.55919 0.2191 0.77107 0.0
C463 C 0.60463 0.22386 0.73926 0.0
H464 H 0.43279 0.53588 0.08141 0.0
H465 H 0.31995 0.60255 0.08968 0.0
H466 H 0.37522 0.6724 0.01586 0.0
H467 H 0.44806 0.70556 0.94038 0.0
H468 H 0.55757 0.63475 0.92859 0.0
H469 H 0.51077 0.57459 1.01137 0.0
C470 C 0.4213 0.56659 0.06781 0.0
C471 C 0.37304 0.56481 0.09094 0.0
C472 C 0.45186 0.60484 0.02376 0.0
C473 C 0.35771 0.60413 0.07282 0.0
C474 C 0.38886 0.6435 0.03024 0.0
C475 C 0.46227 0.67771 0.95664 0.0
C476 C 0.50582 0.67423 0.92828 0.0
C477 C 0.43486 0.64294 1.00403 0.0
C478 C 0.52358 0.6376 0.94936 0.0
C479 C 0.49704 0.60338 0.99683 0.0
H480 H 0.77739 0.27666 0.37213 0.0
H481 H 0.88218 0.41548 0.48344 0.0
H482 H 0.88065 0.48213 0.4147 0.0
H483 H 0.84501 0.49989 0.32575 0.0
H484 H 0.74514 0.36236 0.21066 0.0
H485 H 0.74976 0.29567 0.27758 0.0
C486 C 0.79963 0.32143 0.38108 0.0
C487 C 0.82875 0.34129 0.43294 0.0
C488 C 0.79964 0.3594 0.3407 0.0
C489 C 0.85915 0.39949 0.44379 0.0
C490 C 0.85823 0.43746 0.40461 0.0
C491 C 0.82462 0.45532 0.31518 0.0
C492 C 0.79413 0.43567 0.26395 0.0
C493 C 0.82798 0.41776 0.35337 0.0
C494 C 0.7688 0.3782 0.24998 0.0
C495 C 0.77115 0.34017 0.28834 0.0
H496 H 0.41137 0.88549 0.55453 0.0
H497 H 0.25232 0.78144 0.6405 0.0
H498 H 0.30224 0.78157 0.7273 0.0
H499 H 0.39096 0.80017 0.77389 0.0
H500 H 0.54921 0.9009 0.68554 0.0
H501 H 0.50012 0.91364 0.60497 0.0
C502 C 0.38772 0.86336 0.5925 0.0
C503 C 0.32849 0.83255 0.59096 0.0
C504 C 0.41657 0.86276 0.64178 0.0
C505 C 0.29812 0.8045 0.64048 0.0
C506 C 0.32652 0.80455 0.69008 0.0
C507 C 0.41446 0.82637 0.73774 0.0
C508 C 0.47326 0.84991 0.73535 0.0
C509 C 0.38572 0.83201 0.69067 0.0
C510 C 0.50372 0.88284 0.68802 0.0
C511 C 0.4757 0.88973 0.64182 0.0
H512 H 0.68968 0.48927 0.02456 0.0
H513 H 0.55527 0.45201 0.14429 0.0
H514 H 0.48492 0.39277 0.07309 0.0
H515 H 0.46238 0.34846 0.9789 0.0
H516 H 0.5952 0.38967 0.8555 0.0
H517 H 0.66597 0.45128 0.92571 0.0
C518 C 0.64503 0.46773 0.03482 0.0
C519 C 0.62739 0.47352 0.08964 0.0
C520 C 0.60488 0.43517 0.99302 0.0
C521 C 0.56949 0.44736 0.10238 0.0
C522 C 0.5294 0.41371 0.06174 0.0
C523 C 0.50674 0.37163 0.96698 0.0
C524 C 0.52366 0.36449 0.91224 0.0
C525 C 0.54669 0.407 1.00717 0.0
C526 C 0.58121 0.39485 0.89731 0.0
C527 C 0.62163 0.42966 0.93758 0.0
loop_
_geom_bond_atom_site_label_1
_geom_bond_atom_site_label_2
_geom_bond_distance
_geom_bond_site_symmetry_2
_ccdc_geom_bond_type
Pr0 C2 2.880 . S
Pr0 O20 2.562 . S
Pr0 O21 2.490 . S
Pr0 O22 2.695 . S
Pr0 O23 2.512 . S
Pr0 O25 2.437 . S
Pr0 O28 2.436 . S
Pr0 O30 2.438 . S
Pr1 C11 2.880 1_554 S
Pr1 O22 2.436 . S
Pr1 O24 2.438 . S
Pr1 O26 2.562 1_554 S
Pr1 O27 2.490 1_554 S
Pr1 O28 2.695 . S
Pr1 O29 2.512 . S
Pr1 O31 2.437 1_554 S
C2 Pr0 2.880 . S
C2 C3 1.491 . S
C2 O20 1.254 . S
C2 O21 1.225 . S
C3 C2 1.491 . S
C3 C4 1.392 . S
C3 C8 1.356 . S
C4 C3 1.392 . S
C4 C5 1.368 . S
C4 H32 0.929 . S
C5 C4 1.368 . S
C5 C6 1.386 . S
C5 H33 0.929 . S
C6 C5 1.386 . S
C6 C7 1.373 . S
C7 C6 1.373 . S
C7 C8 1.409 . S
C7 H34 0.931 . S
C8 C3 1.356 . S
C8 C7 1.409 . S
C8 H35 0.930 . S
C9 O22 1.270 . S
C9 O23 1.248 . S
C10 O24 1.267 . S
C10 O25 1.278 . S
C11 Pr1 2.880 1_556 S
C11 C12 1.491 . S
C11 O26 1.254 . S
C11 O27 1.225 . S
C12 C11 1.491 . S
C12 C13 1.392 . S
C12 C17 1.356 . S
C13 C12 1.392 . S
C13 C14 1.368 . S
C13 H36 0.929 . S
C14 C13 1.368 . S
C14 C15 1.386 . S
C14 H37 0.929 . S
C15 C14 1.386 . S
C15 C16 1.373 . S
C16 C15 1.373 . S
C16 C17 1.409 . S
C16 H38 0.931 . S
C17 C12 1.356 . S
C17 C16 1.409 . S
C17 H39 0.930 . S
C18 O28 1.270 . S
C18 O29 1.248 . S
C19 O30 1.267 . S
C19 O31 1.278 1_554 S
O20 Pr0 2.562 . S
O20 C2 1.254 . S
O21 Pr0 2.490 . S
O21 C2 1.225 . S
O22 Pr0 2.695 . S
O22 Pr1 2.436 . S
O22 C9 1.270 . S
O23 Pr0 2.512 . S
O23 C9 1.248 . S
O24 Pr1 2.438 . S
O24 C10 1.267 . S
O25 Pr0 2.437 . S
O25 C10 1.278 . S
O26 Pr1 2.562 1_556 S
O26 C11 1.254 . S
O27 Pr1 2.490 1_556 S
O27 C11 1.225 . S
O28 Pr0 2.436 . S
O28 Pr1 2.695 . S
O28 C18 1.270 . S
O29 Pr1 2.512 . S
O29 C18 1.248 . S
O30 Pr0 2.438 . S
O30 C19 1.267 . S
O31 Pr1 2.437 1_556 S
O31 C19 1.278 1_556 S
H32 C4 0.929 . S
H33 C5 0.929 . S
H34 C7 0.931 . S
H35 C8 0.930 . S
H36 C13 0.929 . S
H37 C14 0.929 . S
H38 C16 0.931 . S
H39 C17 0.930 . S
Pr40 C42 2.880 . S
Pr40 O60 2.562 . S
Pr40 O61 2.490 . S
Pr40 O62 2.695 . S
Pr40 O63 2.512 . S
Pr40 O65 2.437 . S
Pr40 O68 2.436 . S
Pr40 O70 2.438 . S
Pr41 C51 2.880 . S
Pr41 O62 2.436 . S
Pr41 O64 2.438 . S
Pr41 O66 2.562 . S
Pr41 O67 2.490 . S
Pr41 O68 2.695 . S
Pr41 O69 2.512 . S
Pr41 O71 2.437 . S
C42 Pr40 2.880 . S
C42 C43 1.491 . S
C42 O60 1.254 . S
C42 O61 1.225 . S
C43 C42 1.491 . S
C43 C44 1.392 . S
C43 C48 1.356 . S
C44 C43 1.392 . S
C44 C45 1.368 . S
C44 H72 0.929 . S
C45 C44 1.368 . S
C45 C46 1.386 . S
C45 H73 0.929 . S
C46 C45 1.386 . S
C46 C47 1.373 . S
C47 C46 1.373 . S
C47 C48 1.409 . S
C47 H74 0.931 . S
C48 C43 1.356 . S
C48 C47 1.409 . S
C48 H75 0.930 . S
C49 O62 1.270 . S
C49 O63 1.248 . S
C50 O64 1.267 . S
C50 O65 1.278 . S
C51 Pr41 2.880 . S
C51 C52 1.491 . S
C51 O66 1.254 . S
C51 O67 1.225 . S
C52 C51 1.491 . S
C52 C53 1.392 . S
C52 C57 1.356 . S
C53 C52 1.392 . S
C53 C54 1.368 . S
C53 H76 0.929 . S
C54 C53 1.368 . S
C54 C55 1.386 . S
C54 H77 0.929 . S
C55 C54 1.386 . S
C55 C56 1.373 . S
C56 C55 1.373 . S
C56 C57 1.409 . S
C56 H78 0.931 . S
C57 C52 1.356 . S
C57 C56 1.409 . S
C57 H79 0.930 . S
C58 O68 1.270 . S
C58 O69 1.248 . S
C59 O70 1.267 . S
C59 O71 1.278 . S
O60 Pr40 2.562 . S
O60 C42 1.254 . S
O61 Pr40 2.490 . S
O61 C42 1.225 . S
O62 Pr40 2.695 . S
O62 Pr41 2.436 . S
O62 C49 1.270 . S
O63 Pr40 2.512 . S
O63 C49 1.248 . S
O64 Pr41 2.438 . S
O64 C50 1.267 . S
O65 Pr40 2.437 . S
O65 C50 1.278 . S
O66 Pr41 2.562 . S
O66 C51 1.254 . S
O67 Pr41 2.490 . S
O67 C51 1.225 . S
O68 Pr40 2.436 . S
O68 Pr41 2.695 . S
O68 C58 1.270 . S
O69 Pr41 2.512 . S
O69 C58 1.248 . S
O70 Pr40 2.438 . S
O70 C59 1.267 . S
O71 Pr41 2.437 . S
O71 C59 1.278 . S
H72 C44 0.929 . S
H73 C45 0.929 . S
H74 C47 0.931 . S
H75 C48 0.930 . S
H76 C53 0.929 . S
H77 C54 0.929 . S
H78 C56 0.931 . S
H79 C57 0.930 . S
Pr80 C82 2.880 . S
Pr80 O100 2.562 . S
Pr80 O101 2.490 . S
Pr80 O102 2.695 . S
Pr80 O103 2.512 . S
Pr80 O105 2.437 . S
Pr80 O108 2.436 . S
Pr80 O110 2.438 . S
Pr81 C91 2.880 . S
Pr81 O102 2.436 . S
Pr81 O104 2.438 . S
Pr81 O106 2.562 . S
Pr81 O107 2.490 . S
Pr81 O108 2.695 . S
Pr81 O109 2.512 . S
Pr81 O111 2.437 . S
C82 Pr80 2.880 . S
C82 C83 1.491 . S
C82 O100 1.254 . S
C82 O101 1.225 . S
C83 C82 1.491 . S
C83 C84 1.392 1_556 S
C83 C88 1.356 1_556 S
C84 C83 1.392 1_554 S
C84 C85 1.368 . S
C84 H112 0.929 1_554 S
C85 C84 1.368 . S
C85 C86 1.386 . S
C85 H113 0.929 . S
C86 C85 1.386 . S
C86 C87 1.373 . S
C87 C86 1.373 . S
C87 C88 1.409 . S
C87 H114 0.931 . S
C88 C83 1.356 1_554 S
C88 C87 1.409 . S
C88 H115 0.930 . S
C89 O102 1.270 . S
C89 O103 1.248 . S
C90 O104 1.267 . S
C90 O105 1.278 . S
C91 Pr81 2.880 . S
C91 C92 1.491 . S
C91 O106 1.254 . S
C91 O107 1.225 . S
C92 C91 1.491 . S
C92 C93 1.392 . S
C92 C97 1.356 . S
C93 C92 1.392 . S
C93 C94 1.368 . S
C93 H116 0.929 . S
C94 C93 1.368 . S
C94 C95 1.386 . S
C94 H117 0.929 . S
C95 C94 1.386 . S
C95 C96 1.373 . S
C96 C95 1.373 . S
C96 C97 1.409 . S
C96 H118 0.931 . S
C97 C92 1.356 . S
C97 C96 1.409 . S
C97 H119 0.930 . S
C98 O108 1.270 . S
C98 O109 1.248 . S
C99 O110 1.267 . S
C99 O111 1.278 . S
O100 Pr80 2.562 . S
O100 C82 1.254 . S
O101 Pr80 2.490 . S
O101 C82 1.225 . S
O102 Pr80 2.695 . S
O102 Pr81 2.436 . S
O102 C89 1.270 . S
O103 Pr80 2.512 . S
O103 C89 1.248 . S
O104 Pr81 2.438 . S
O104 C90 1.267 . S
O105 Pr80 2.437 . S
O105 C90 1.278 . S
O106 Pr81 2.562 . S
O106 C91 1.254 . S
O107 Pr81 2.490 . S
O107 C91 1.225 . S
O108 Pr80 2.436 . S
O108 Pr81 2.695 . S
O108 C98 1.270 . S
O109 Pr81 2.512 . S
O109 C98 1.248 . S
O110 Pr80 2.438 . S
O110 C99 1.267 . S
O111 Pr81 2.437 . S
O111 C99 1.278 . S
H112 C84 0.929 1_556 S
H113 C85 0.929 . S
H114 C87 0.931 . S
H115 C88 0.930 . S
H116 C93 0.929 . S
H117 C94 0.929 . S
H118 C96 0.931 . S
H119 C97 0.930 . S
Pr120 C122 2.880 . S
Pr120 O140 2.562 . S
Pr120 O141 2.490 . S
Pr120 O142 2.695 . S
Pr120 O143 2.512 . S
Pr120 O145 2.437 . S
Pr120 O148 2.436 . S
Pr120 O150 2.438 . S
Pr121 C131 2.880 . S
Pr121 O142 2.436 . S
Pr121 O144 2.438 . S
Pr121 O146 2.562 . S
Pr121 O147 2.490 . S
Pr121 O148 2.695 . S
Pr121 O149 2.512 . S
Pr121 O151 2.437 . S
C122 Pr120 2.880 . S
C122 C123 1.491 1_554 S
C122 O140 1.254 . S
C122 O141 1.225 . S
C123 C122 1.491 1_556 S
C123 C124 1.392 . S
C123 C128 1.356 . S
C124 C123 1.392 . S
C124 C125 1.368 . S
C124 H152 0.929 . S
C125 C124 1.368 . S
C125 C126 1.386 . S
C125 H153 0.929 . S
C126 C125 1.386 . S
C126 C127 1.373 . S
C127 C126 1.373 . S
C127 C128 1.409 . S
C127 H154 0.931 . S
C128 C123 1.356 . S
C128 C127 1.409 . S
C128 H155 0.930 . S
C129 O142 1.270 . S
C129 O143 1.248 . S
C130 O144 1.267 . S
C130 O145 1.278 . S
C131 Pr121 2.880 . S
C131 C132 1.491 . S
C131 O146 1.254 . S
C131 O147 1.225 . S
C132 C131 1.491 . S
C132 C133 1.392 . S
C132 C137 1.356 . S
C133 C132 1.392 . S
C133 C134 1.368 . S
C133 H156 0.929 . S
C134 C133 1.368 . S
C134 C135 1.386 . S
C134 H157 0.929 . S
C135 C134 1.386 . S
C135 C136 1.373 . S
C136 C135 1.373 . S
C136 C137 1.409 . S
C136 H158 0.931 . S
C137 C132 1.356 . S
C137 C136 1.409 . S
C137 H159 0.930 . S
C138 O148 1.270 . S
C138 O149 1.248 . S
C139 O150 1.267 . S
C139 O151 1.278 . S
O140 Pr120 2.562 . S
O140 C122 1.254 . S
O141 Pr120 2.490 . S
O141 C122 1.225 . S
O142 Pr120 2.695 . S
O142 Pr121 2.436 . S
O142 C129 1.270 . S
O143 Pr120 2.512 . S
O143 C129 1.248 . S
O144 Pr121 2.438 . S
O144 C130 1.267 . S
O145 Pr120 2.437 . S
O145 C130 1.278 . S
O146 Pr121 2.562 . S
O146 C131 1.254 . S
O147 Pr121 2.490 . S
O147 C131 1.225 . S
O148 Pr120 2.436 . S
O148 Pr121 2.695 . S
O148 C138 1.270 . S
O149 Pr121 2.512 . S
O149 C138 1.248 . S
O150 Pr120 2.438 . S
O150 C139 1.267 . S
O151 Pr121 2.437 . S
O151 C139 1.278 . S
H152 C124 0.929 . S
H153 C125 0.929 . S
H154 C127 0.931 . S
H155 C128 0.930 . S
H156 C133 0.929 . S
H157 C134 0.929 . S
H158 C136 0.931 . S
H159 C137 0.930 . S
Pr160 C162 2.880 . S
Pr160 O180 2.562 . S
Pr160 O181 2.490 . S
Pr160 O182 2.695 . S
Pr160 O183 2.512 . S
Pr160 O185 2.437 . S
Pr160 O188 2.436 . S
Pr160 O190 2.438 . S
Pr161 C171 2.880 . S
Pr161 O182 2.436 . S
Pr161 O184 2.438 . S
Pr161 O186 2.562 . S
Pr161 O187 2.490 . S
Pr161 O188 2.695 . S
Pr161 O189 2.512 . S
Pr161 O191 2.437 . S
C162 Pr160 2.880 . S
C162 C163 1.491 . S
C162 O180 1.254 . S
C162 O181 1.225 . S
C163 C162 1.491 . S
C163 C164 1.392 . S
C163 C168 1.356 . S
C164 C163 1.392 . S
C164 C165 1.368 . S
C164 H192 0.929 . S
C165 C164 1.368 . S
C165 C166 1.386 . S
C165 H193 0.929 . S
C166 C165 1.386 . S
C166 C167 1.373 . S
C167 C166 1.373 . S
C167 C168 1.409 . S
C167 H194 0.931 . S
C168 C163 1.356 . S
C168 C167 1.409 . S
C168 H195 0.930 . S
C169 O182 1.270 . S
C169 O183 1.248 . S
C170 O184 1.267 . S
C170 O185 1.278 . S
C171 Pr161 2.880 . S
C171 C172 1.491 . S
C171 O186 1.254 . S
C171 O187 1.225 . S
C172 C171 1.491 . S
C172 C173 1.392 . S
C172 C177 1.356 . S
C173 C172 1.392 . S
C173 C174 1.368 . S
C173 H196 0.929 . S
C174 C173 1.368 . S
C174 C175 1.386 . S
C174 H197 0.929 . S
C175 C174 1.386 . S
C175 C176 1.373 . S
C176 C175 1.373 . S
C176 C177 1.409 . S
C176 H198 0.931 . S
C177 C172 1.356 . S
C177 C176 1.409 . S
C177 H199 0.930 . S
C178 O188 1.270 . S
C178 O189 1.248 . S
C179 O190 1.267 . S
C179 O191 1.278 . S
O180 Pr160 2.562 . S
O180 C162 1.254 . S
O181 Pr160 2.490 . S
O181 C162 1.225 . S
O182 Pr160 2.695 . S
O182 Pr161 2.436 . S
O182 C169 1.270 . S
O183 Pr160 2.512 . S
O183 C169 1.248 . S
O184 Pr161 2.438 . S
O184 C170 1.267 . S
O185 Pr160 2.437 . S
O185 C170 1.278 . S
O186 Pr161 2.562 . S
O186 C171 1.254 . S
O187 Pr161 2.490 . S
O187 C171 1.225 . S
O188 Pr160 2.436 . S
O188 Pr161 2.695 . S
O188 C178 1.270 . S
O189 Pr161 2.512 . S
O189 C178 1.248 . S
O190 Pr160 2.438 . S
O190 C179 1.267 . S
O191 Pr161 2.437 . S
O191 C179 1.278 . S
H192 C164 0.929 . S
H193 C165 0.929 . S
H194 C167 0.931 . S
H195 C168 0.930 . S
H196 C173 0.929 . S
H197 C174 0.929 . S
H198 C176 0.931 . S
H199 C177 0.930 . S
Pr200 C202 2.880 . S
Pr200 O220 2.562 . S
Pr200 O221 2.490 . S
Pr200 O222 2.695 . S
Pr200 O223 2.512 . S
Pr200 O225 2.437 . S
Pr200 O228 2.436 . S
Pr200 O230 2.438 . S
Pr201 C211 2.880 1_556 S
Pr201 O222 2.436 . S
Pr201 O224 2.438 . S
Pr201 O226 2.562 1_556 S
Pr201 O227 2.490 1_556 S
Pr201 O228 2.695 . S
Pr201 O229 2.512 . S
Pr201 O231 2.437 . S
C202 Pr200 2.880 . S
C202 C203 1.491 . S
C202 O220 1.254 . S
C202 O221 1.225 . S
C203 C202 1.491 . S
C203 C204 1.392 . S
C203 C208 1.356 . S
C204 C203 1.392 . S
C204 C205 1.368 . S
C204 H232 0.929 . S
C205 C204 1.368 . S
C205 C206 1.386 . S
C205 H233 0.929 . S
C206 C205 1.386 . S
C206 C207 1.373 . S
C207 C206 1.373 . S
C207 C208 1.409 . S
C207 H234 0.931 . S
C208 C203 1.356 . S
C208 C207 1.409 . S
C208 H235 0.930 . S
C209 O222 1.270 . S
C209 O223 1.248 . S
C210 O224 1.267 . S
C210 O225 1.278 . S
C211 Pr201 2.880 1_554 S
C211 C212 1.491 . S
C211 O226 1.254 . S
C211 O227 1.225 . S
C212 C211 1.491 . S
C212 C213 1.392 . S
C212 C217 1.356 . S
C213 C212 1.392 . S
C213 C214 1.368 . S
C213 H236 0.929 . S
C214 C213 1.368 . S
C214 C215 1.386 . S
C214 H237 0.929 . S
C215 C214 1.386 . S
C215 C216 1.373 . S
C216 C215 1.373 . S
C216 C217 1.409 . S
C216 H238 0.931 . S
C217 C212 1.356 . S
C217 C216 1.409 . S
C217 H239 0.930 . S
C218 O228 1.270 . S
C218 O229 1.248 . S
C219 O230 1.267 . S
C219 O231 1.278 . S
O220 Pr200 2.562 . S
O220 C202 1.254 . S
O221 Pr200 2.490 . S
O221 C202 1.225 . S
O222 Pr200 2.695 . S
O222 Pr201 2.436 . S
O222 C209 1.270 . S
O223 Pr200 2.512 . S
O223 C209 1.248 . S
O224 Pr201 2.438 . S
O224 C210 1.267 . S
O225 Pr200 2.437 . S
O225 C210 1.278 . S
O226 Pr201 2.562 1_554 S
O226 C211 1.254 . S
O227 Pr201 2.490 1_554 S
O227 C211 1.225 . S
O228 Pr200 2.436 . S
O228 Pr201 2.695 . S
O228 C218 1.270 . S
O229 Pr201 2.512 . S
O229 C218 1.248 . S
O230 Pr200 2.438 . S
O230 C219 1.267 . S
O231 Pr201 2.437 . S
O231 C219 1.278 . S
H232 C204 0.929 . S
H233 C205 0.929 . S
H234 C207 0.931 . S
H235 C208 0.930 . S
H236 C213 0.929 . S
H237 C214 0.929 . S
H238 C216 0.931 . S
H239 C217 0.930 . S
H240 C246 0.930 . S
H241 C249 0.930 . S
H242 C250 0.930 . S
H243 C251 0.930 . S
H244 C254 0.930 . S
H245 C255 0.930 . S
C246 H240 0.930 . S
C246 C247 1.355 . S
C246 C248 1.415 . S
C247 C246 1.355 . S
C247 C249 1.419 . S
C248 C246 1.415 . S
C248 C253 1.425 1_556 S
C248 C255 1.409 . S
C249 H241 0.930 . S
C249 C247 1.419 . S
C249 C250 1.362 1_556 S
C250 H242 0.930 . S
C250 C249 1.362 1_554 S
C250 C253 1.409 . S
C251 H243 0.930 . S
C251 C252 1.355 . S
C251 C253 1.415 . S
C252 C251 1.355 . S
C252 C254 1.419 1_554 S
C253 C248 1.425 1_554 S
C253 C250 1.409 . S
C253 C251 1.415 . S
C254 H244 0.930 . S
C254 C252 1.419 1_556 S
C254 C255 1.362 . S
C255 H245 0.930 . S
C255 C248 1.409 . S
C255 C254 1.362 . S
H256 C262 0.930 . S
H257 C265 0.927 . S
H258 C266 0.930 . S
H259 C267 0.930 . S
H260 C270 0.927 . S
H261 C271 0.930 . S
C262 H256 0.930 . S
C262 C263 1.355 . S
C262 C264 1.415 . S
C263 C262 1.355 . S
C263 C265 1.419 1_455 S
C264 C262 1.415 . S
C264 C269 1.425 1_455 S
C264 C271 1.409 . S
C265 H257 0.927 . S
C265 C263 1.419 1_655 S
C265 C266 1.365 . S
C266 H258 0.930 . S
C266 C265 1.365 . S
C266 C269 1.409 . S
C267 H259 0.930 . S
C267 C268 1.355 . S
C267 C269 1.415 . S
C268 C267 1.355 . S
C268 C270 1.419 1_655 S
C269 C264 1.425 1_655 S
C269 C266 1.409 . S
C269 C267 1.415 . S
C270 H260 0.927 . S
C270 C268 1.419 1_455 S
C270 C271 1.365 . S
C271 H261 0.930 . S
C271 C264 1.409 . S
C271 C270 1.365 . S
H272 C278 0.930 . S
H273 C281 0.930 . S
H274 C282 0.930 1_565 S
H275 C283 0.930 . S
H276 C286 0.930 . S
H277 C287 0.930 1_545 S
C278 H272 0.930 . S
C278 C279 1.355 . S
C278 C280 1.415 . S
C279 C278 1.355 . S
C279 C281 1.419 . S
C280 C278 1.415 . S
C280 C285 1.425 1_545 S
C280 C287 1.409 1_545 S
C281 H273 0.930 . S
C281 C279 1.419 . S
C281 C282 1.362 . S
C282 H274 0.930 1_545 S
C282 C281 1.362 . S
C282 C285 1.409 1_545 S
C283 H275 0.930 . S
C283 C284 1.355 . S
C283 C285 1.415 . S
C284 C283 1.355 . S
C284 C286 1.419 . S
C285 C280 1.425 1_565 S
C285 C282 1.409 1_565 S
C285 C283 1.415 . S
C286 H276 0.930 . S
C286 C284 1.419 . S
C286 C287 1.362 . S
C287 H277 0.930 1_565 S
C287 C280 1.409 1_565 S
C287 C286 1.362 . S
H288 C294 0.930 . S
H289 C297 0.930 . S
H290 C298 0.930 . S
H291 C299 0.930 . S
H292 C302 0.930 . S
H293 C303 0.930 1_556 S
C294 H288 0.930 . S
C294 C295 1.355 . S
C294 C296 1.415 . S
C295 C294 1.355 . S
C295 C297 1.419 . S
C296 C294 1.415 . S
C296 C301 1.425 1_556 S
C296 C303 1.409 1_556 S
C297 H289 0.930 . S
C297 C295 1.419 . S
C297 C298 1.362 . S
C298 H290 0.930 . S
C298 C297 1.362 . S
C298 C301 1.409 1_556 S
C299 H291 0.930 . S
C299 C300 1.355 . S
C299 C301 1.415 . S
C300 C299 1.355 . S
C300 C302 1.419 . S
C301 C296 1.425 1_554 S
C301 C298 1.409 1_554 S
C301 C299 1.415 . S
C302 H292 0.930 . S
C302 C300 1.419 . S
C302 C303 1.362 . S
C303 H293 0.930 1_554 S
C303 C296 1.409 1_554 S
C303 C302 1.362 . S
H304 C310 0.930 . S
H305 C313 0.930 . S
H306 C314 0.931 1_655 S
H307 C315 0.930 . S
H308 C318 0.930 . S
H309 C319 0.931 1_455 S
C310 H304 0.930 . S
C310 C311 1.355 . S
C310 C312 1.415 . S
C311 C310 1.355 . S
C311 C313 1.419 . S
C312 C310 1.415 . S
C312 C317 1.425 1_455 S
C312 C319 1.409 1_455 S
C313 H305 0.930 . S
C313 C311 1.419 . S
C313 C314 1.362 . S
C314 H306 0.931 1_455 S
C314 C313 1.362 . S
C314 C317 1.409 1_455 S
C315 H307 0.930 . S
C315 C316 1.355 . S
C315 C317 1.415 . S
C316 C315 1.355 . S
C316 C318 1.419 . S
C317 C312 1.425 1_655 S
C317 C314 1.409 1_655 S
C317 C315 1.415 . S
C318 H308 0.930 . S
C318 C316 1.419 . S
C318 C319 1.362 . S
C319 H309 0.931 1_655 S
C319 C312 1.409 1_655 S
C319 C318 1.362 . S
H320 C326 0.930 . S
H321 C329 0.930 . S
H322 C330 0.930 . S
H323 C331 0.930 . S
H324 C334 0.930 . S
H325 C335 0.930 . S
C326 H320 0.930 . S
C326 C327 1.355 . S
C326 C328 1.415 . S
C327 C326 1.355 . S
C327 C329 1.419 1_545 S
C328 C326 1.415 . S
C328 C333 1.425 1_545 S
C328 C335 1.409 . S
C329 H321 0.930 . S
C329 C327 1.419 1_565 S
C329 C330 1.362 . S
C330 H322 0.930 . S
C330 C329 1.362 . S
C330 C333 1.409 . S
C331 H323 0.930 . S
C331 C332 1.355 . S
C331 C333 1.415 . S
C332 C331 1.355 . S
C332 C334 1.419 1_565 S
C333 C328 1.425 1_565 S
C333 C330 1.409 . S
C333 C331 1.415 . S
C334 H324 0.930 . S
C334 C332 1.419 1_545 S
C334 C335 1.362 . S
C335 H325 0.930 . S
C335 C328 1.409 . S
C335 C334 1.362 . S
H336 C342 0.930 . S
H337 C345 0.930 . S
H338 C346 0.930 . S
H339 C347 0.930 . S
H340 C350 0.930 . S
H341 C351 0.930 . S
C342 H336 0.930 . S
C342 C343 1.355 . S
C342 C344 1.415 . S
C343 C342 1.355 . S
C343 C345 1.419 . S
C344 C342 1.415 . S
C344 C349 1.425 . S
C344 C351 1.409 . S
C345 H337 0.930 . S
C345 C343 1.419 . S
C345 C346 1.362 . S
C346 H338 0.930 . S
C346 C345 1.362 . S
C346 C349 1.409 . S
C347 H339 0.930 . S
C347 C348 1.355 . S
C347 C349 1.415 . S
C348 C347 1.355 . S
C348 C350 1.419 . S
C349 C344 1.425 . S
C349 C346 1.409 . S
C349 C347 1.415 . S
C350 H340 0.930 . S
C350 C348 1.419 . S
C350 C351 1.362 . S
C351 H341 0.930 . S
C351 C344 1.409 . S
C351 C350 1.362 . S
H352 C358 0.930 . S
H353 C361 0.930 . S
H354 C362 0.930 . S
H355 C363 0.930 . S
H356 C366 0.930 . S
H357 C367 0.930 1_556 S
C358 H352 0.930 . S
C358 C359 1.355 . S
C358 C360 1.415 . S
C359 C358 1.355 . S
C359 C361 1.419 . S
C360 C358 1.415 . S
C360 C365 1.425 . S
C360 C367 1.409 . S
C361 H353 0.930 . S
C361 C359 1.419 . S
C361 C362 1.362 . S
C362 H354 0.930 . S
C362 C361 1.362 . S
C362 C365 1.409 . S
C363 H355 0.930 . S
C363 C364 1.355 1_554 S
C363 C365 1.415 . S
C364 C363 1.355 1_556 S
C364 C366 1.419 . S
C365 C360 1.425 . S
C365 C362 1.409 . S
C365 C363 1.415 . S
C366 H356 0.930 . S
C366 C364 1.419 . S
C366 C367 1.362 1_556 S
C367 H357 0.930 1_554 S
C367 C360 1.409 . S
C367 C366 1.362 1_554 S
H368 C374 0.930 . S
H369 C377 0.930 . S
H370 C378 0.930 . S
H371 C379 0.930 . S
H372 C382 0.930 . S
H373 C383 0.930 . S
C374 H368 0.930 . S
C374 C375 1.355 . S
C374 C376 1.415 . S
C375 C374 1.355 . S
C375 C377 1.419 . S
C376 C374 1.415 . S
C376 C381 1.425 . S
C376 C383 1.409 . S
C377 H369 0.930 . S
C377 C375 1.419 . S
C377 C378 1.362 . S
C378 H370 0.930 . S
C378 C377 1.362 . S
C378 C381 1.409 . S
C379 H371 0.930 . S
C379 C380 1.355 . S
C379 C381 1.415 . S
C380 C379 1.355 . S
C380 C382 1.419 . S
C381 C376 1.425 . S
C381 C378 1.409 . S
C381 C379 1.415 . S
C382 H372 0.930 . S
C382 C380 1.419 . S
C382 C383 1.362 . S
C383 H373 0.930 . S
C383 C376 1.409 . S
C383 C382 1.362 . S
H384 C390 0.930 . S
H385 C393 0.930 . S
H386 C394 0.930 . S
H387 C395 0.930 . S
H388 C398 0.930 . S
H389 C399 0.930 . S
C390 H384 0.930 . S
C390 C391 1.355 . S
C390 C392 1.415 . S
C391 C390 1.355 . S
C391 C393 1.419 . S
C392 C390 1.415 . S
C392 C397 1.425 . S
C392 C399 1.409 . S
C393 H385 0.930 . S
C393 C391 1.419 . S
C393 C394 1.362 . S
C394 H386 0.930 . S
C394 C393 1.362 . S
C394 C397 1.409 . S
C395 H387 0.930 . S
C395 C396 1.355 . S
C395 C397 1.415 . S
C396 C395 1.355 . S
C396 C398 1.419 . S
C397 C392 1.425 . S
C397 C394 1.409 . S
C397 C395 1.415 . S
C398 H388 0.930 . S
C398 C396 1.419 . S
C398 C399 1.362 . S
C399 H389 0.930 . S
C399 C392 1.409 . S
C399 C398 1.362 . S
H400 C406 0.930 . S
H401 C409 0.930 . S
H402 C410 0.930 . S
H403 C411 0.930 . S
H404 C414 0.930 . S
H405 C415 0.930 . S
C406 H400 0.930 . S
C406 C407 1.355 . S
C406 C408 1.415 . S
C407 C406 1.355 . S
C407 C409 1.419 . S
C408 C406 1.415 . S
C408 C413 1.425 . S
C408 C415 1.409 . S
C409 H401 0.930 . S
C409 C407 1.419 . S
C409 C410 1.362 . S
C410 H402 0.930 . S
C410 C409 1.362 . S
C410 C413 1.409 . S
C411 H403 0.930 . S
C411 C412 1.342 1_556 S
C411 C413 1.415 . S
C412 C411 1.342 1_554 S
C412 C414 1.422 . S
C413 C408 1.425 . S
C413 C410 1.409 . S
C413 C411 1.415 . S
C414 H404 0.930 . S
C414 C412 1.422 . S
C414 C415 1.362 1_554 S
C415 H405 0.930 . S
C415 C408 1.409 . S
C415 C414 1.362 1_556 S
H416 C422 0.930 . S
H417 C425 0.930 . S
H418 C426 0.930 . S
H419 C427 0.930 . S
H420 C430 0.930 . S
H421 C431 0.930 . S
C422 H416 0.930 . S
C422 C423 1.355 . S
C422 C424 1.415 . S
C423 C422 1.355 . S
C423 C425 1.419 . S
C424 C422 1.415 . S
C424 C429 1.425 . S
C424 C431 1.409 . S
C425 H417 0.930 . S
C425 C423 1.419 . S
C425 C426 1.362 . S
C426 H418 0.930 . S
C426 C425 1.362 . S
C426 C429 1.409 . S
C427 H419 0.930 . S
C427 C428 1.355 . S
C427 C429 1.415 . S
C428 C427 1.355 . S
C428 C430 1.419 . S
C429 C424 1.425 . S
C429 C426 1.409 . S
C429 C427 1.415 . S
C430 H420 0.930 . S
C430 C428 1.419 . S
C430 C431 1.362 . S
C431 H421 0.930 . S
C431 C424 1.409 . S
C431 C430 1.362 . S
H432 C438 0.930 . S
H433 C441 0.930 . S
H434 C442 0.930 . S
H435 C443 0.930 . S
H436 C446 0.930 . S
H437 C447 0.930 . S
C438 H432 0.930 . S
C438 C439 1.355 . S
C438 C440 1.415 . S
C439 C438 1.355 . S
C439 C441 1.419 . S
C440 C438 1.415 . S
C440 C445 1.425 . S
C440 C447 1.409 . S
C441 H433 0.930 . S
C441 C439 1.419 . S
C441 C442 1.362 . S
C442 H434 0.930 . S
C442 C441 1.362 . S
C442 C445 1.409 . S
C443 H435 0.930 . S
C443 C444 1.355 . S
C443 C445 1.415 . S
C444 C443 1.355 . S
C444 C446 1.419 . S
C445 C440 1.425 . S
C445 C442 1.409 . S
C445 C443 1.415 . S
C446 H436 0.930 . S
C446 C444 1.419 . S
C446 C447 1.362 . S
C447 H437 0.930 . S
C447 C440 1.409 . S
C447 C446 1.362 . S
H448 C454 0.930 . S
H449 C457 0.930 . S
H450 C458 0.930 . S
H451 C459 0.930 . S
H452 C462 0.930 . S
H453 C463 0.930 . S
C454 H448 0.930 . S
C454 C455 1.355 . S
C454 C456 1.415 . S
C455 C454 1.355 . S
C455 C457 1.419 . S
C456 C454 1.415 . S
C456 C461 1.425 . S
C456 C463 1.409 . S
C457 H449 0.930 . S
C457 C455 1.419 . S
C457 C458 1.362 . S
C458 H450 0.930 . S
C458 C457 1.362 . S
C458 C461 1.409 . S
C459 H451 0.930 . S
C459 C460 1.355 . S
C459 C461 1.415 . S
C460 C459 1.355 . S
C460 C462 1.419 . S
C461 C456 1.425 . S
C461 C458 1.409 . S
C461 C459 1.415 . S
C462 H452 0.930 . S
C462 C460 1.419 . S
C462 C463 1.362 . S
C463 H453 0.930 . S
C463 C456 1.409 . S
C463 C462 1.362 . S
H464 C470 0.930 . S
H465 C473 0.930 . S
H466 C474 0.930 . S
H467 C475 0.930 . S
H468 C478 0.930 . S
H469 C479 0.930 . S
C470 H464 0.930 . S
C470 C471 1.355 . S
C470 C472 1.415 . S
C471 C470 1.355 . S
C471 C473 1.419 . S
C472 C470 1.415 . S
C472 C477 1.425 . S
C472 C479 1.409 . S
C473 H465 0.930 . S
C473 C471 1.419 . S
C473 C474 1.362 . S
C474 H466 0.930 . S
C474 C473 1.362 . S
C474 C477 1.409 . S
C475 H467 0.930 . S
C475 C476 1.355 . S
C475 C477 1.415 . S
C476 C475 1.355 . S
C476 C478 1.419 . S
C477 C472 1.425 . S
C477 C474 1.409 . S
C477 C475 1.415 . S
C478 H468 0.930 . S
C478 C476 1.419 . S
C478 C479 1.362 . S
C479 H469 0.930 . S
C479 C472 1.409 . S
C479 C478 1.362 . S
H480 C486 0.930 . S
H481 C489 0.930 . S
H482 C490 0.930 . S
H483 C491 0.930 . S
H484 C494 0.930 . S
H485 C495 0.930 . S
C486 H480 0.930 . S
C486 C487 1.355 . S
C486 C488 1.415 . S
C487 C486 1.355 . S
C487 C489 1.419 . S
C488 C486 1.415 . S
C488 C493 1.425 . S
C488 C495 1.409 . S
C489 H481 0.930 . S
C489 C487 1.419 . S
C489 C490 1.362 . S
C490 H482 0.930 . S
C490 C489 1.362 . S
C490 C493 1.409 . S
C491 H483 0.930 . S
C491 C492 1.355 . S
C491 C493 1.415 . S
C492 C491 1.355 . S
C492 C494 1.419 . S
C493 C488 1.425 . S
C493 C490 1.409 . S
C493 C491 1.415 . S
C494 H484 0.930 . S
C494 C492 1.419 . S
C494 C495 1.362 . S
C495 H485 0.930 . S
C495 C488 1.409 . S
C495 C494 1.362 . S
H496 C502 0.930 . S
H497 C505 0.930 . S
H498 C506 0.930 . S
H499 C507 0.930 . S
H500 C510 0.930 . S
H501 C511 0.930 . S
C502 H496 0.930 . S
C502 C503 1.355 . S
C502 C504 1.415 . S
C503 C502 1.355 . S
C503 C505 1.419 . S
C504 C502 1.415 . S
C504 C509 1.425 . S
C504 C511 1.409 . S
C505 H497 0.930 . S
C505 C503 1.419 . S
C505 C506 1.362 . S
C506 H498 0.930 . S
C506 C505 1.362 . S
C506 C509 1.409 . S
C507 H499 0.930 . S
C507 C508 1.355 . S
C507 C509 1.415 . S
C508 C507 1.355 . S
C508 C510 1.419 . S
C509 C504 1.425 . S
C509 C506 1.409 . S
C509 C507 1.415 . S
C510 H500 0.930 . S
C510 C508 1.419 . S
C510 C511 1.362 . S
C511 H501 0.930 . S
C511 C504 1.409 . S
C511 C510 1.362 . S
H512 C518 0.930 . S
H513 C521 0.930 . S
H514 C522 0.930 . S
H515 C523 0.930 . S
H516 C526 0.930 . S
H517 C527 0.930 . S
C518 H512 0.930 . S
C518 C519 1.355 . S
C518 C520 1.415 . S
C519 C518 1.355 . S
C519 C521 1.419 . S
C520 C518 1.415 . S
C520 C525 1.425 . S
C520 C527 1.409 . S
C521 H513 0.930 . S
C521 C519 1.419 . S
C521 C522 1.362 . S
C522 H514 0.930 . S
C522 C521 1.362 . S
C522 C525 1.409 . S
C523 H515 0.930 . S
C523 C524 1.355 . S
C523 C525 1.415 . S
C524 C523 1.355 . S
C524 C526 1.419 . S
C525 C520 1.425 . S
C525 C522 1.409 . S
C525 C523 1.415 . S
C526 H516 0.930 . S
C526 C524 1.419 . S
C526 C527 1.362 . S
C527 H517 0.930 . S
C527 C520 1.409 . S
C527 C526 1.362 . S
C247 C209 1.453 . S
C252 C9 1.393 . S
C263 C10 1.848 . S
C268 C50 1.846 . S
C279 C49 1.429 . S
C284 C89 1.356 . S
C295 C90 1.827 . S
C300 C130 1.826 . S
C311 C169 1.357 . S
C316 C129 1.423 . S
C327 C210 1.861 . S
C332 C170 1.860 . S
C343 C15 1.517 . S
C348 C6 1.517 . S
C359 C46 1.452 . S
C364 C55 1.452 . S
C375 C95 1.455 . S
C380 C86 1.455 . S
C391 C126 1.534 . S
C396 C135 1.534 . S
C407 C166 1.437 . S
C412 C175 1.450 . S
C423 C206 1.516 . S
C428 C215 1.516 . S
C439 C18 1.884 . S
C444 C179 1.874 . S
C455 C59 1.885 . S
C460 C218 1.876 . S
C471 C19 1.875 1_556 S
C476 C98 1.883 . S
C487 C58 1.879 . S
C492 C139 1.883 . S
C503 C178 1.876 . S
C508 C99 1.886 . S
C519 C138 1.884 . S
C524 C219 1.874 1_554 S
