# Generated by pormake.
# Topology sml, (6)-cn, num edge types: 1
# Building blocks:
#     Node 0, Type 0, BuildingBlock: BETFEN_clean_sbu_0, # of connection points: 6
#     Node 1, Type 0, BuildingBlock: BETFEN_clean_sbu_0, # of connection points: 6
#     Node 2, Type 0, BuildingBlock: BETFEN_clean_sbu_0, # of connection points: 6
#     Node 3, Type 0, BuildingBlock: BETFEN_clean_sbu_0, # of connection points: 6
#     Node 4, Type 0, BuildingBlock: BETFEN_clean_sbu_0, # of connection points: 6
#     Node 5, Type 0, BuildingBlock: BETFEN_clean_sbu_0, # of connection points: 6
#     Edge 6, Type (0, 0), BuildingBlock: UVAHIK_clean_linker_0, # of connection points: 2
#     Edge 7, Type (0, 0), BuildingBlock: UVAHIK_clean_linker_0, # of connection points: 2
#     Edge 8, Type (0, 0), BuildingBlock: UVAHIK_clean_linker_0, # of connection points: 2
#     Edge 9, Type (0, 0), BuildingBlock: UVAHIK_clean_linker_0, # of connection points: 2
#     Edge 10, Type (0, 0), BuildingBlock: UVAHIK_clean_linker_0, # of connection points: 2
#     Edge 11, Type (0, 0), BuildingBlock: UVAHIK_clean_linker_0, # of connection points: 2
#     Edge 12, Type (0, 0), BuildingBlock: UVAHIK_clean_linker_0, # of connection points: 2
#     Edge 13, Type (0, 0), BuildingBlock: UVAHIK_clean_linker_0, # of connection points: 2
#     Edge 14, Type (0, 0), BuildingBlock: UVAHIK_clean_linker_0, # of connection points: 2
#     Edge 15, Type (0, 0), BuildingBlock: UVAHIK_clean_linker_0, # of connection points: 2
#     Edge 16, Type (0, 0), BuildingBlock: UVAHIK_clean_linker_0, # of connection points: 2
#     Edge 17, Type (0, 0), BuildingBlock: UVAHIK_clean_linker_0, # of connection points: 2
#     Edge 18, Type (0, 0), BuildingBlock: UVAHIK_clean_linker_0, # of connection points: 2
#     Edge 19, Type (0, 0), BuildingBlock: UVAHIK_clean_linker_0, # of connection points: 2
#     Edge 20, Type (0, 0), BuildingBlock: UVAHIK_clean_linker_0, # of connection points: 2
#     Edge 21, Type (0, 0), BuildingBlock: UVAHIK_clean_linker_0, # of connection points: 2
#     Edge 22, Type (0, 0), BuildingBlock: UVAHIK_clean_linker_0, # of connection points: 2
#     Edge 23, Type (0, 0), BuildingBlock: UVAHIK_clean_linker_0, # of connection points: 2
# Relax obj value: 0.157
# Max RMSD: 0.198
# Mean RMSD: 0.198
data_MOF--net-sml--node1-BETFEN_clean_sbu_0--edge1-UVAHIK_clean_linker_0
_symmetry_space_group_name_H-M    P1
_symmetry_Int_Tables_number       1
_symmetry_cell_setting            triclinic
loop_
_symmetry_equiv_pos_as_xyz
'x, y, z'
_cell_length_a     43.598868
_cell_length_b     43.541063
_cell_length_c     29.813537
_cell_angle_alpha  89.926211
_cell_angle_beta   90.020031
_cell_angle_gamma 120.01733
loop_
_atom_site_label
_atom_site_type_symbol
_atom_site_fract_x
_atom_site_fract_y
_atom_site_fract_z
_atom_type_partial_charge
Pr0 Pr 0.21194 0.41265 0.12064 0.0
Pr1 Pr 0.16101 0.3935 0.02957 0.0
C2 C 0.24955 0.43919 0.19655 0.0
C3 C 0.24376 0.43067 0.24465 0.0
C4 C 0.27201 0.44744 0.27482 0.0
C5 C 0.26636 0.44071 0.32087 0.0
C6 C 0.23227 0.4171 0.33758 0.0
C7 C 0.20412 0.39992 0.30693 0.0
C8 C 0.20983 0.40662 0.2609 0.0
C9 C 0.20535 0.35807 0.06588 0.0
C10 C 0.1278 0.35013 0.12598 0.0
C11 C 0.12935 0.3674 0.9502 0.0
C12 C 0.13989 0.36525 0.904 0.0
C13 C 0.11384 0.347 0.87146 0.0
C14 C 0.12328 0.34802 0.82641 0.0
C15 C 0.15903 0.36746 0.8131 0.0
C16 C 0.18517 0.38477 0.84622 0.0
C17 C 0.17567 0.38368 0.89127 0.0
C18 C 0.15511 0.44141 0.08659 0.0
C19 C 0.2459 0.45873 0.02599 0.0
O20 O 0.22997 0.45097 0.17866 0.0
O21 O 0.25269 0.41644 0.171 0.0
O22 O 0.20737 0.38649 0.05251 0.0
O23 O 0.20952 0.35819 0.10917 0.0
O24 O 0.12502 0.34931 0.08158 0.0
O25 O 0.15583 0.37425 0.14812 0.0
O26 O 0.1333 0.3478 0.98059 0.0
O27 O 0.13867 0.39943 0.9642 0.0
O28 O 0.17324 0.4267 0.09125 0.0
O29 O 0.13673 0.4301 0.04986 0.0
O30 O 0.24939 0.45623 0.0698 0.0
O31 O 0.2168 0.43697 1.00336 0.0
H32 H 0.29839 0.46601 0.2628 0.0
H33 H 0.28874 0.45398 0.34337 0.0
H34 H 0.17747 0.38193 0.31855 0.0
H35 H 0.18765 0.39345 0.23804 0.0
H36 H 0.08607 0.33285 0.88068 0.0
H37 H 0.10246 0.33473 0.80179 0.0
H38 H 0.21295 0.39956 0.83724 0.0
H39 H 0.19617 0.39801 0.91599 0.0
Pr40 Pr 0.75475 0.19978 0.43389 0.0
Pr41 Pr 0.80629 0.21834 0.52336 0.0
C42 C 0.72763 0.20885 0.35747 0.0
C43 C 0.73229 0.20514 0.30911 0.0
C44 C 0.70273 0.1891 0.28071 0.0
C45 C 0.70702 0.18581 0.23474 0.0
C46 C 0.74103 0.1986 0.2163 0.0
C47 C 0.77056 0.21456 0.24504 0.0
C48 C 0.76622 0.21769 0.29089 0.0
C49 C 0.76005 0.14118 0.46171 0.0
C50 C 0.83956 0.2196 0.42432 0.0
C51 C 0.83776 0.2232 0.60295 0.0
C52 C 0.82812 0.21477 0.6504 0.0
C53 C 0.85455 0.22987 0.68323 0.0
C54 C 0.84567 0.22423 0.72871 0.0
C55 C 0.81009 0.20349 0.74218 0.0
C56 C 0.78368 0.18795 0.70901 0.0
C57 C 0.79266 0.19348 0.66348 0.0
C58 C 0.80548 0.27391 0.47845 0.0
C59 C 0.71843 0.18744 0.53423 0.0
O60 O 0.75486 0.2347 0.37816 0.0
O61 O 0.71143 0.17947 0.38106 0.0
O62 O 0.77482 0.17179 0.47792 0.0
O63 O 0.74081 0.1397 0.42748 0.0
O64 O 0.84216 0.21522 0.46784 0.0
O65 O 0.812 0.21995 0.40607 0.0
O66 O 0.8281 0.19643 0.5755 0.0
O67 O 0.83353 0.24863 0.58621 0.0
O68 O 0.77901 0.24395 0.48636 0.0
O69 O 0.83435 0.27671 0.49517 0.0
O70 O 0.71494 0.19183 0.4909 0.0
O71 O 0.74847 0.19265 0.55247 0.0
H72 H 0.67631 0.17911 0.2941 0.0
H73 H 0.68367 0.17296 0.21373 0.0
H74 H 0.79717 0.22523 0.23204 0.0
H75 H 0.78952 0.23021 0.31202 0.0
H76 H 0.88204 0.24659 0.67368 0.0
H77 H 0.86658 0.23695 0.75334 0.0
H78 H 0.75609 0.17153 0.71826 0.0
H79 H 0.77197 0.18155 0.63847 0.0
Pr80 Pr 0.57003 0.8095 0.80198 0.0
Pr81 Pr 0.58758 0.7736 0.71375 0.0
C82 C 0.54592 0.82391 0.8778 0.0
C83 C 0.55217 0.82263 0.92615 0.0
C84 C 0.5344 0.83206 0.95751 0.0
C85 C 0.53995 0.83048 1.00354 0.0
C86 C 0.56338 0.81937 0.01906 0.0
C87 C 0.58121 0.81003 0.98729 0.0
C88 C 0.57564 0.81165 0.94131 0.0
C89 C 0.62236 0.85474 0.74252 0.0
C90 C 0.63312 0.78884 0.80876 0.0
C91 C 0.612 0.76539 0.6344 0.0
C92 C 0.61318 0.77606 0.58723 0.0
C93 C 0.63346 0.76967 0.55622 0.0
C94 C 0.63224 0.77646 0.51055 0.0
C95 C 0.6106 0.78973 0.49496 0.0
C96 C 0.59112 0.79713 0.52651 0.0
C97 C 0.59236 0.7903 0.57222 0.0
C98 C 0.54227 0.72207 0.77522 0.0
C99 C 0.52242 0.79356 0.70807 0.0
O100 O 0.52932 0.79324 0.85737 0.0
O101 O 0.57254 0.84819 0.85457 0.0
O102 O 0.59382 0.82739 0.73215 0.0
O103 O 0.62369 0.86149 0.78525 0.0
O104 O 0.6336 0.78587 0.76449 0.0
O105 O 0.60845 0.79208 0.83051 0.0
O106 O 0.63207 0.79025 0.66311 0.0
O107 O 0.58047 0.74297 0.6501 0.0
O108 O 0.55621 0.7551 0.77766 0.0
O109 O 0.55309 0.71387 0.73892 0.0
O110 O 0.52664 0.80361 0.75069 0.0
O111 O 0.54255 0.78318 0.68722 0.0
H112 H 0.51608 0.84047 0.94641 0.0
H113 H 0.52543 0.83742 0.02698 0.0
H114 H 0.59978 0.80183 0.99791 0.0
H115 H 0.58965 0.8043 0.91755 0.0
H116 H 0.6497 0.7587 0.5672 0.0
H117 H 0.64806 0.77103 0.48738 0.0
H118 H 0.57395 0.80704 0.51576 0.0
H119 H 0.57636 0.79526 0.59568 0.0
Pr120 Pr 0.78945 0.57262 0.10406 0.0
Pr121 Pr 0.7671 0.60098 0.19595 0.0
C122 C 0.79334 0.54009 0.0293 0.0
C123 C 0.7924 0.54601 0.98083 0.0
C124 C 0.8026 0.52846 0.95012 0.0
C125 C 0.80248 0.53462 0.90402 0.0
C126 C 0.79217 0.55852 0.88782 0.0
C127 C 0.78187 0.57598 0.91893 0.0
C128 C 0.78202 0.56979 0.96497 0.0
C129 C 0.84307 0.62876 0.15092 0.0
C130 C 0.77472 0.6398 0.09671 0.0
C131 C 0.76814 0.63306 0.27352 0.0
C132 C 0.77807 0.63295 0.32066 0.0
C133 C 0.7714 0.65264 0.35229 0.0
C134 C 0.77625 0.6493 0.39804 0.0
C135 C 0.78772 0.62604 0.41306 0.0
C136 C 0.79563 0.6073 0.38096 0.0
C137 C 0.79078 0.61068 0.33513 0.0
C138 C 0.70846 0.5541 0.14381 0.0
C139 C 0.78036 0.53182 0.20307 0.0
O140 O 0.76374 0.52994 0.05123 0.0
O141 O 0.82137 0.56405 0.05075 0.0
O142 O 0.81697 0.60217 0.16852 0.0
O143 O 0.84356 0.62573 0.1075 0.0
O144 O 0.77715 0.64381 0.14099 0.0
O145 O 0.77326 0.61223 0.07591 0.0
O146 O 0.79379 0.6476 0.24387 0.0
O147 O 0.74079 0.6035 0.25965 0.0
O148 O 0.74072 0.56653 0.13673 0.0
O149 O 0.70463 0.56632 0.18187 0.0
O150 O 0.7838 0.53121 0.15887 0.0
O151 O 0.77616 0.55621 0.22421 0.0
H152 H 0.8107 0.51001 0.96179 0.0
H153 H 0.81015 0.5204 0.88104 0.0
H154 H 0.77425 0.5949 0.90779 0.0
H155 H 0.77424 0.58375 0.98825 0.0
H156 H 0.76146 0.66986 0.34171 0.0
H157 H 0.77049 0.66459 0.42172 0.0
H158 H 0.80423 0.58894 0.39129 0.0
H159 H 0.79581 0.59506 0.31113 0.0
Pr160 Pr 0.19937 0.76218 0.46148 0.0
Pr161 Pr 0.21285 0.81182 0.3783 0.0
C162 C 0.20337 0.73439 0.54062 0.0
C163 C 0.2049 0.7426 0.58875 0.0
C164 C 0.19261 0.71501 0.62018 0.0
C165 C 0.19371 0.72219 0.66604 0.0
C166 C 0.20716 0.75718 0.6814 0.0
C167 C 0.21934 0.7848 0.64962 0.0
C168 C 0.21822 0.77756 0.60371 0.0
C169 C 0.13917 0.75521 0.42072 0.0
C170 C 0.21379 0.84503 0.47591 0.0
C171 C 0.21131 0.84118 0.29919 0.0
C172 C 0.21037 0.83382 0.25085 0.0
C173 C 0.22389 0.86205 0.22025 0.0
C174 C 0.22344 0.85569 0.17421 0.0
C175 C 0.20949 0.8209 0.15786 0.0
C176 C 0.19604 0.79264 0.18879 0.0
C177 C 0.19645 0.79905 0.23486 0.0
C178 C 0.27258 0.81752 0.41965 0.0
C179 C 0.19605 0.72801 0.36383 0.0
O180 O 0.2312 0.75556 0.51656 0.0
O181 O 0.17336 0.72497 0.52025 0.0
O182 O 0.16709 0.78425 0.42797 0.0
O183 O 0.14087 0.72834 0.43693 0.0
O184 O 0.2092 0.84793 0.43269 0.0
O185 O 0.21454 0.81738 0.49303 0.0
O186 O 0.18283 0.82028 0.32235 0.0
O187 O 0.24071 0.84925 0.32027 0.0
O188 O 0.24452 0.78908 0.41111 0.0
O189 O 0.27123 0.84506 0.4054 0.0
O190 O 0.20179 0.72573 0.40684 0.0
O191 O 0.19564 0.75587 0.34662 0.0
H192 H 0.18205 0.68784 0.60922 0.0
H193 H 0.18358 0.70022 0.68944 0.0
H194 H 0.23019 0.81207 0.66022 0.0
H195 H 0.22787 0.79927 0.57995 0.0
H196 H 0.23491 0.88908 0.232 0.0
H197 H 0.23448 0.87811 0.15147 0.0
H198 H 0.18475 0.76551 0.17737 0.0
H199 H 0.1858 0.77687 0.25796 0.0
Pr200 Pr 0.43766 0.22077 0.78004 0.0
Pr201 Pr 0.39842 0.17687 0.86503 0.0
C202 C 0.47294 0.24432 0.70187 0.0
C203 C 0.46613 0.2371 0.65362 0.0
C204 C 0.48485 0.26441 0.62261 0.0
C205 C 0.47845 0.25811 0.57664 0.0
C206 C 0.45308 0.22434 0.56088 0.0
C207 C 0.43435 0.197 0.5922 0.0
C208 C 0.44086 0.20333 0.63815 0.0
C209 C 0.38311 0.23072 0.81 0.0
C210 C 0.36785 0.13858 0.7692 0.0
C211 C 0.3648 0.15139 0.94387 0.0
C212 C 0.37212 0.15769 0.99213 0.0
C213 C 0.35165 0.13064 0.02271 0.0
C214 C 0.35833 0.13603 0.06873 0.0
C215 C 0.38564 0.16868 0.08503 0.0
C216 C 0.4062 0.19572 0.05407 0.0
C217 C 0.39955 0.19022 0.00802 0.0
C218 C 0.45476 0.16936 0.83413 0.0
C219 C 0.46521 0.26049 0.87575 0.0
O220 O 0.47334 0.21944 0.72613 0.0
O221 O 0.45689 0.25924 0.72154 0.0
O222 O 0.38179 0.20114 0.80847 0.0
O223 O 0.41237 0.2561 0.79316 0.0
O224 O 0.35908 0.13936 0.81133 0.0
O225 O 0.39763 0.16411 0.75162 0.0
O226 O 0.36324 0.17629 0.92107 0.0
O227 O 0.38136 0.13771 0.92259 0.0
O228 O 0.45429 0.19786 0.83747 0.0
O229 O 0.42535 0.1427 0.84859 0.0
O230 O 0.47544 0.25904 0.83453 0.0
O231 O 0.43539 0.2346 0.89274 0.0
H232 H 0.50435 0.29069 0.63397 0.0
H233 H 0.49298 0.27986 0.55349 0.0
H234 H 0.41495 0.17059 0.58118 0.0
H235 H 0.42624 0.18186 0.66159 0.0
H236 H 0.33054 0.10526 0.01097 0.0
H237 H 0.34238 0.11443 0.09148 0.0
H238 H 0.42716 0.22131 0.06541 0.0
H239 H 0.41575 0.21136 0.98484 0.0
C240 C 0.3224 0.20743 0.84207 0.0
C241 C 0.35516 0.23624 0.82903 0.0
C242 C 0.29645 0.21329 0.86112 0.0
C243 C 0.25733 0.23473 0.92751 0.0
H244 H 0.25483 0.3195 0.89434 0.0
C245 C 0.21742 0.30874 0.05134 0.0
C246 C 0.20729 0.33262 0.03528 0.0
C247 C 0.22505 0.28885 0.02136 0.0
C248 C 0.25419 0.29516 0.90365 0.0
H249 H 0.38677 0.29354 0.82573 0.0
H250 H 0.3424 0.30387 0.86013 0.0
H251 H 0.28737 0.30005 0.84838 0.0
H252 H 0.19461 0.35265 0.97584 0.0
H253 H 0.20498 0.31602 0.92374 0.0
H254 H 0.22338 0.2294 0.98229 0.0
C255 C 0.33594 0.27672 0.85448 0.0
C256 C 0.27357 0.28437 0.87757 0.0
C257 C 0.36159 0.27086 0.83511 0.0
C258 C 0.20223 0.33431 0.9891 0.0
C259 C 0.20877 0.31365 0.95919 0.0
C260 C 0.23726 0.24513 0.95319 0.0
C261 C 0.30301 0.24807 0.86771 0.0
C262 C 0.27679 0.25506 0.89036 0.0
C263 C 0.22191 0.29189 0.97472 0.0
C264 C 0.23672 0.27639 0.94273 0.0
H265 H 0.31687 0.18044 0.83762 0.0
H266 H 0.27132 0.19064 0.87066 0.0
H267 H 0.25908 0.2119 0.93829 0.0
H268 H 0.22154 0.30698 0.08686 0.0
H269 H 0.23548 0.27284 0.03485 0.0
C270 C 0.10396 0.31623 0.19675 0.0
C271 C 0.09777 0.32414 0.15316 0.0
C272 C 0.07577 0.29621 0.22562 0.0
C273 C 0.01676 0.28392 0.28788 0.0
H274 H 0.92379 0.20777 0.25367 0.0
C275 C 0.89993 0.22739 0.41156 0.0
C276 C 0.86857 0.2244 0.39423 0.0
C277 C 0.9276 0.23305 0.38283 0.0
C278 C 0.94966 0.22903 0.26364 0.0
H279 H 0.05733 0.31549 0.10447 0.0
H280 H 0.00781 0.28117 0.15544 0.0
H281 H 0.97307 0.22826 0.20077 0.0
H282 H 0.84127 0.22376 0.33293 0.0
H283 H 0.88959 0.23417 0.28324 0.0
H284 H -0.00664 0.28546 0.35011 0.0
C285 C 0.03447 0.28999 0.1671 0.0
C286 C 0.97781 0.24076 0.23339 0.0
C287 C 0.06279 0.30974 0.13793 0.0
C288 C 0.86512 0.22621 0.34754 0.0
C289 C 0.89269 0.23178 0.3189 0.0
C290 C 0.98872 0.27217 0.31806 0.0
C291 C 0.04078 0.28407 0.21173 0.0
C292 C 0.01154 0.26874 0.24495 0.0
C293 C 0.92438 0.23569 0.33625 0.0
C294 C 0.95474 0.24506 0.30599 0.0
H295 H 0.13071 0.32648 0.20911 0.0
H296 H 0.08147 0.29134 0.2594 0.0
H297 H 0.04221 0.30602 0.29759 0.0
H298 H 0.90336 0.22587 0.44731 0.0
H299 H 0.95164 0.23565 0.39709 0.0
C300 C 0.77137 0.11177 0.52612 0.0
C301 C 0.76004 0.11037 0.48179 0.0
C302 C 0.76628 0.08104 0.5475 0.0
C303 C 0.70261 0.98693 0.54393 0.0
H304 H 0.76008 0.982 0.63987 0.0
C305 C 0.64246 0.86958 0.66344 0.0
C306 C 0.64782 0.87878 0.70901 0.0
C307 C 0.66391 0.89374 0.63083 0.0
C308 C 0.74378 0.98296 0.61311 0.0
H309 H 0.73697 0.07669 0.42371 0.0
H310 H 0.72834 0.02288 0.46085 0.0
H311 H 0.78523 0.03329 0.58951 0.0
H312 H 0.68072 0.91963 0.75663 0.0
H313 H 0.71728 0.96268 0.69959 0.0
H314 H 0.66058 0.93799 0.56855 0.0
C315 C 0.74069 0.04758 0.47937 0.0
C316 C 0.7582 0.01224 0.58426 0.0
C317 C 0.74564 0.07831 0.45812 0.0
C318 C 0.67604 0.91196 0.72165 0.0
C319 C 0.69719 0.93645 0.68893 0.0
C320 C 0.68821 0.95786 0.57274 0.0
C321 C 0.74976 0.04838 0.52479 0.0
C322 C 0.73738 0.01494 0.55017 0.0
C323 C 0.69063 0.92797 0.64308 0.0
C324 C 0.70825 0.95597 0.60846 0.0
H325 H 0.78211 0.13607 0.54515 0.0
H326 H 0.7731 0.08249 0.58267 0.0
H327 H 0.68562 0.98844 0.51856 0.0
H328 H 0.62079 0.84419 0.65277 0.0
H329 H 0.65856 0.88609 0.59589 0.0
C330 C 0.66724 0.80114 0.87975 0.0
C331 C 0.66034 0.78709 0.83613 0.0
C332 C 0.68937 0.79573 0.9083 0.0
C333 C 0.75272 0.76226 0.91467 0.0
H334 H 0.70905 0.72819 0.03114 0.0
C335 C 0.77257 0.66431 0.02178 0.0
C336 C 0.77232 0.66659 0.06881 0.0
C337 C 0.76736 0.68755 0.99504 0.0
C338 C 0.72215 0.7384 0.99924 0.0
H339 H 0.67283 0.75825 0.78716 0.0
H340 H 0.71085 0.74781 0.83759 0.0
H341 H 0.68473 0.7539 0.98011 0.0
H342 H 0.76834 0.69639 0.1246 0.0
H343 H 0.75919 0.73711 0.07765 0.0
H344 H 0.78923 0.74513 0.93347 0.0
C345 C 0.69959 0.76353 0.84949 0.0
C346 C 0.70818 0.75315 0.96988 0.0
C347 C 0.67767 0.76932 0.82065 0.0
C348 C 0.76838 0.69372 0.08849 0.0
C349 C 0.76308 0.71699 0.06164 0.0
C350 C 0.7667 0.7474 0.94412 0.0
C351 C 0.70476 0.77576 0.89407 0.0
C352 C 0.72279 0.76452 0.92688 0.0
C353 C 0.76177 0.71364 0.01467 0.0
C354 C 0.75097 0.73453 0.98627 0.0
H355 H 0.65478 0.8156 0.89232 0.0
H356 H 0.69349 0.8062 0.94208 0.0
H357 H 0.76486 0.77125 0.88202 0.0
H358 H 0.77585 0.64394 1.00541 0.0
H359 H 0.76606 0.68397 0.95901 0.0
C360 C 0.08708 0.71887 0.37243 0.0
C361 C 0.11026 0.7517 0.39204 0.0
C362 C 0.06058 0.71559 0.34342 0.0
C363 C 0.00052 0.74552 0.31913 0.0
H364 H -0.00454 0.70557 0.20127 0.0
C365 C 0.90286 0.68266 0.15461 0.0
C366 C 0.87279 0.65626 0.17682 0.0
C367 C 0.93327 0.70533 0.17885 0.0
C368 C -0.0032 0.71747 0.23363 0.0
H369 H 0.12395 0.80677 0.39765 0.0
H370 H 0.07629 0.80056 0.34764 0.0
H371 H 0.04773 0.72367 0.24778 0.0
H372 H 0.84973 0.63444 0.24176 0.0
H373 H 0.90284 0.67405 0.28413 0.0
H374 H 0.94848 0.73712 0.30608 0.0
C375 C 0.07917 0.77768 0.35442 0.0
C376 C 0.02657 0.72755 0.26026 0.0
C377 C 0.10624 0.78116 0.38284 0.0
C378 C 0.87262 0.65458 0.22384 0.0
C379 C 0.90294 0.6774 0.2481 0.0
C380 C 0.9704 0.73493 0.29267 0.0
C381 C 0.05649 0.74494 0.33419 0.0
C382 C 0.02815 0.74064 0.30362 0.0
C383 C 0.93395 0.70205 0.22566 0.0
C384 C 0.96792 0.71988 0.2502 0.0
H385 H 0.0898 0.69584 0.37883 0.0
H386 H 0.04308 0.69003 0.32834 0.0
H387 H 0.00132 0.75548 0.35265 0.0
H388 H 0.90349 0.6847 0.11837 0.0
H389 H 0.95679 0.72432 0.16086 0.0
C390 C 0.34674 0.11122 0.69376 0.0
C391 C 0.34366 0.1085 0.74068 0.0
C392 C 0.32513 0.08217 0.66678 0.0
C393 C 0.27998 0.98652 0.66906 0.0
H394 H 0.23612 0.99257 0.55873 0.0
C395 C 0.21184 0.86676 0.55244 0.0
C396 C 0.21907 0.87375 0.50651 0.0
C397 C 0.21991 0.89435 0.58236 0.0
C398 C 0.2484 0.99051 0.58929 0.0
H399 H 0.31482 0.07364 0.79618 0.0
H400 H 0.27736 0.02261 0.74887 0.0
H401 H 0.26391 0.04368 0.60899 0.0
H402 H 0.23916 0.9147 0.45546 0.0
H403 H 0.2546 0.96318 0.50786 0.0
H404 H 0.26643 0.93433 0.64879 0.0
C405 C 0.2965 0.04729 0.73312 0.0
C406 C 0.26413 0.01969 0.61808 0.0
C407 C 0.31786 0.07649 0.7601 0.0
C408 C 0.23323 0.90861 0.49073 0.0
C409 C 0.24187 0.93634 0.52079 0.0
C410 C 0.26469 0.95756 0.64013 0.0
C411 C 0.30028 0.04978 0.68627 0.0
C412 C 0.28045 0.01805 0.6579 0.0
C413 C 0.23599 0.9296 0.56709 0.0
C414 C 0.24913 0.95934 0.59957 0.0
H415 H 0.36605 0.13569 0.67782 0.0
H416 H 0.32876 0.08467 0.63074 0.0
H417 H 0.29287 0.98478 0.69926 0.0
H418 H 0.20033 0.83999 0.56541 0.0
H419 H 0.21419 0.88807 0.61761 0.0
C420 C 0.19423 0.40437 0.74729 0.0
C421 C 0.16873 0.37127 0.76469 0.0
C422 C 0.20194 0.40865 0.70142 0.0
C423 C 0.19457 0.35942 0.59709 0.0
H424 H 0.20445 0.44373 0.53925 0.0
C425 C 0.20238 0.37715 0.40389 0.0
C426 C 0.22594 0.4111 0.38678 0.0
C427 C 0.19589 0.37181 0.45003 0.0
C428 C 0.20224 0.42025 0.55491 0.0
H429 H 0.13203 0.31645 0.74747 0.0
H430 H 0.14522 0.32401 0.66727 0.0
H431 H 0.19274 0.43526 0.61947 0.0
H432 H 0.26099 0.46609 0.4051 0.0
H433 H 0.25038 0.45663 0.48539 0.0
H434 H 0.20413 0.34445 0.53244 0.0
C435 C 0.1594 0.34663 0.68923 0.0
C436 C 0.1955 0.41538 0.60096 0.0
C437 C 0.15159 0.34238 0.73513 0.0
C438 C 0.24301 0.4395 0.41704 0.0
C439 C 0.23655 0.43416 0.46312 0.0
C440 C 0.20141 0.36433 0.55097 0.0
C441 C 0.1844 0.37992 0.67174 0.0
C442 C 0.19164 0.38495 0.62267 0.0
C443 C 0.21278 0.40028 0.48023 0.0
C444 C 0.20539 0.39485 0.5293 0.0
H445 H 0.20766 0.4273 0.76895 0.0
H446 H 0.22165 0.43455 0.68918 0.0
H447 H 0.19214 0.33588 0.61284 0.0
H448 H 0.18904 0.35459 0.38165 0.0
H449 H 0.17717 0.34542 0.46193 0.0
C450 C 0.77192 0.18824 0.15173 0.0
C451 C 0.74593 0.19579 0.1673 0.0
C452 C 0.77763 0.18711 0.10579 0.0
C453 C 0.73617 0.17676 0.99468 0.0
H454 H 0.83313 0.2241 0.95178 0.0
C455 C 0.77167 0.2019 0.80603 0.0
C456 C 0.80067 0.19912 0.79063 0.0
C457 C 0.764 0.19976 0.85187 0.0
C458 C 0.80589 0.21028 0.96318 0.0
H459 H 0.70544 0.20785 0.14638 0.0
H460 H 0.71515 0.20542 0.06619 0.0
H461 H 0.82147 0.22333 0.03177 0.0
H462 H 0.84356 0.19065 0.81123 0.0
H463 H 0.82999 0.18653 0.89107 0.0
H464 H 0.72057 0.16361 0.92609 0.0
C465 C 0.73093 0.20015 0.08966 0.0
C466 C 0.79922 0.20991 0.00908 0.0
C467 C 0.72533 0.20147 0.13566 0.0
C468 C 0.82137 0.19344 0.82206 0.0
C469 C 0.81362 0.19116 0.86785 0.0
C470 C 0.74284 0.17699 0.94874 0.0
C471 C 0.75736 0.19327 0.07421 0.0
C472 C 0.7643 0.1932 0.02538 0.0
C473 C 0.78506 0.19467 0.88342 0.0
C474 C 0.7778 0.19382 0.93238 0.0
H475 H 0.78782 0.18303 0.17507 0.0
H476 H 0.7978 0.18115 0.09497 0.0
H477 H 0.70897 0.1633 0.00625 0.0
H478 H 0.75549 0.20677 0.78275 0.0
H479 H 0.74211 0.20307 0.86263 0.0
C480 C 0.60558 0.7692 0.41501 0.0
C481 C 0.60732 0.79444 0.44591 0.0
C482 C 0.60179 0.77302 0.36909 0.0
C483 C 0.5722 0.8176 0.28829 0.0
H484 H 0.62328 0.79317 0.20236 0.0
C485 C 0.57139 0.84362 0.09764 0.0
C486 C 0.56907 0.81735 0.06811 0.0
C487 C 0.57668 0.84166 0.14365 0.0
C488 C 0.60851 0.79975 0.22585 0.0
H489 H 0.6069 0.84383 0.45228 0.0
H490 H 0.6003 0.85052 0.37209 0.0
H491 H 0.63165 0.78859 0.2824 0.0
H492 H 0.56992 0.76804 0.06429 0.0
H493 H 0.57911 0.76461 0.14434 0.0
H494 H 0.54896 0.82863 0.23169 0.0
C495 C 0.6014 0.82747 0.38355 0.0
C496 C 0.61332 0.79714 0.27183 0.0
C497 C 0.60521 0.82365 0.42956 0.0
C498 C 0.57217 0.78906 0.08585 0.0
C499 C 0.57745 0.7871 0.13184 0.0
C500 C 0.56738 0.82021 0.24229 0.0
C501 C 0.5996 0.80217 0.3527 0.0
C502 C 0.59512 0.80587 0.30369 0.0
C503 C 0.57979 0.81337 0.16138 0.0
C504 C 0.58535 0.81118 0.21043 0.0
H505 H 0.60639 0.74599 0.42638 0.0
H506 H 0.59985 0.75267 0.34649 0.0
H507 H 0.55734 0.82405 0.3118 0.0
H508 H 0.56968 0.86607 0.08512 0.0
H509 H 0.57888 0.86264 0.16525 0.0
C510 C 0.81986 0.56841 0.81111 0.0
C511 C 0.79234 0.5654 0.83877 0.0
C512 C 0.82022 0.57531 0.76518 0.0
C513 C 0.78367 0.61149 0.68164 0.0
H514 H 0.81093 0.56276 0.59559 0.0
C515 C 0.76324 0.61758 0.49129 0.0
C516 C 0.78974 0.62015 0.46202 0.0
C517 C 0.76453 0.61149 0.53711 0.0
C518 C 0.80369 0.57696 0.61918 0.0
H519 H 0.7432 0.56658 0.83933 0.0
H520 H 0.74384 0.57862 0.75938 0.0
H521 H 0.81113 0.5508 0.67553 0.0
H522 H 0.83858 0.61856 0.45835 0.0
H523 H 0.84092 0.60802 0.53847 0.0
H524 H 0.77617 0.63762 0.6254 0.0
C525 C 0.76549 0.57623 0.77334 0.0
C526 C 0.80377 0.57006 0.66506 0.0
C527 C 0.76512 0.56931 0.81924 0.0
C528 C 0.81756 0.61638 0.47983 0.0
C529 C 0.81887 0.61029 0.52578 0.0
C530 C 0.78361 0.6184 0.63581 0.0
C531 C 0.7931 0.57942 0.74571 0.0
C532 C 0.79359 0.58711 0.69687 0.0
C533 C 0.79236 0.60778 0.55502 0.0
C534 C 0.79343 0.60109 0.60393 0.0
H535 H 0.84155 0.56609 0.82509 0.0
H536 H 0.84215 0.57808 0.74506 0.0
H537 H 0.77629 0.6256 0.7052 0.0
H538 H 0.74101 0.61958 0.47866 0.0
H539 H 0.74329 0.60902 0.5584 0.0
C540 C 0.19977 0.7898 0.74649 0.0
C541 C 0.20836 0.76468 0.73034 0.0
C542 C 0.20023 0.79623 0.79255 0.0
C543 C 0.19583 0.75556 0.9032 0.0
H544 H 0.23329 0.85144 0.94747 0.0
C545 C 0.21742 0.78903 0.09239 0.0
C546 C 0.20906 0.81424 0.10877 0.0
C547 C 0.2174 0.7831 0.04626 0.0
C548 C 0.22235 0.82445 0.93566 0.0
H549 H 0.22516 0.7274 0.75015 0.0
H550 H 0.22587 0.73856 0.8303 0.0
H551 H 0.23333 0.84117 0.86707 0.0
H552 H 0.19341 0.85245 0.0893 0.0
H553 H 0.19328 0.84206 0.00898 0.0
H554 H 0.18476 0.7388 0.97171 0.0
C555 C 0.21816 0.75284 0.80741 0.0
C556 C 0.22239 0.81857 0.88952 0.0
C557 C 0.21774 0.74644 0.7614 0.0
C558 C 0.20054 0.83325 0.07785 0.0
C559 C 0.20049 0.82731 0.03174 0.0
C560 C 0.19576 0.76143 0.94931 0.0
C561 C 0.20926 0.7777 0.82361 0.0
C562 C 0.20917 0.78404 0.87271 0.0
C563 C 0.20898 0.80219 0.01532 0.0
C564 C 0.20904 0.79595 0.96616 0.0
H565 H 0.19195 0.80399 0.72361 0.0
H566 H 0.19279 0.81524 0.80387 0.0
H567 H 0.18491 0.72857 0.89138 0.0
H568 H 0.22463 0.77429 0.11519 0.0
H569 H 0.22459 0.76395 0.03481 0.0
C570 C 0.41124 0.19743 0.49588 0.0
C571 C 0.44608 0.21777 0.51199 0.0
C572 C 0.40464 0.19175 0.44986 0.0
C573 C 0.44719 0.19288 0.34224 0.0
H574 H 0.36968 0.2004 0.29024 0.0
C575 C 0.42748 0.19322 0.15055 0.0
C576 C 0.39261 0.1744 0.13409 0.0
C577 C 0.43397 0.19836 0.19664 0.0
C578 C 0.39116 0.19776 0.30426 0.0
H579 H 0.50135 0.24752 0.49234 0.0
H580 H 0.4898 0.238 0.41204 0.0
H581 H 0.38088 0.20913 0.37061 0.0
H582 H 0.33719 0.14667 0.15344 0.0
H583 H 0.34852 0.15485 0.23374 0.0
H584 H 0.45741 0.18137 0.27597 0.0
C585 C 0.46759 0.22626 0.43502 0.0
C586 C 0.39759 0.20279 0.35036 0.0
C587 C 0.47417 0.23205 0.48102 0.0
C588 C 0.3644 0.16093 0.16491 0.0
C589 C 0.37089 0.16601 0.21099 0.0
C590 C 0.44071 0.18775 0.29615 0.0
C591 C 0.43273 0.20615 0.41888 0.0
C592 C 0.42571 0.20046 0.3699 0.0
C593 C 0.40576 0.18479 0.22746 0.0
C594 C 0.41264 0.19018 0.27656 0.0
H595 H 0.38897 0.18631 0.5188 0.0
H596 H 0.37751 0.17583 0.43856 0.0
H597 H 0.46875 0.19039 0.35633 0.0
H598 H 0.44986 0.20365 0.12785 0.0
H599 H 0.46115 0.2133 0.20809 0.0
C600 C 0.1886 0.4924 0.13786 0.0
C601 C 0.15704 0.46963 0.11534 0.0
C602 C 0.19128 0.52039 0.16351 0.0
C603 C 0.13957 0.55052 0.22596 0.0
H604 H 0.22196 0.64407 0.21053 0.0
C605 C 0.1804 0.66504 0.3519 0.0
C606 C 0.18989 0.69849 0.33393 0.0
C607 C 0.17444 0.63702 0.32373 0.0
C608 C 0.19872 0.61815 0.21494 0.0
H609 H 0.10358 0.45803 0.10124 0.0
H610 H 0.10797 0.50689 0.14703 0.0
H611 H 0.21518 0.59488 0.16395 0.0
H612 H 0.20071 0.72884 0.27236 0.0
H613 H 0.19072 0.67985 0.22317 0.0
H614 H 0.12341 0.57372 0.27749 0.0
C615 C 0.13057 0.50295 0.14493 0.0
C616 C 0.19499 0.59001 0.1886 0.0
C617 C 0.12809 0.47518 0.11874 0.0
C618 C 0.1933 0.70335 0.2872 0.0
C619 C 0.18777 0.67541 0.25906 0.0
C620 C 0.14354 0.57858 0.25273 0.0
C621 C 0.16231 0.52594 0.16724 0.0
C622 C 0.16549 0.55592 0.19407 0.0
C623 C 0.17826 0.642 0.27711 0.0
C624 C 0.17323 0.61259 0.24758 0.0
H625 H 0.21159 0.48927 0.13442 0.0
H626 H 0.21601 0.53771 0.18047 0.0
H627 H 0.11668 0.52443 0.23089 0.0
H628 H 0.1774 0.66042 0.38775 0.0
H629 H 0.16746 0.61158 0.33848 0.0
C630 C 0.65658 0.17539 0.54743 0.0
C631 C 0.68787 0.17784 0.56424 0.0
C632 C 0.62886 0.16915 0.57635 0.0
C633 C 0.59004 0.18504 0.6486 0.0
H634 H 0.56036 0.11997 0.74948 0.0
C635 C 0.51276 0.19743 0.79501 0.0
C636 C 0.482 0.16643 0.80843 0.0
C637 C 0.53686 0.19558 0.76609 0.0
C638 C 0.56825 0.13804 0.72125 0.0
H639 H 0.71375 0.17403 0.62453 0.0
H640 H 0.66552 0.16346 0.67485 0.0
H641 H 0.60291 0.12074 0.69509 0.0
H642 H 0.45308 0.10906 0.80428 0.0
H643 H 0.49574 0.10576 0.75368 0.0
H644 H 0.55577 0.20259 0.67474 0.0
C645 C 0.66239 0.16616 0.63927 0.0
C646 C 0.59271 0.13866 0.69036 0.0
C647 C 0.69018 0.17251 0.61038 0.0
C648 C 0.47662 0.13334 0.79431 0.0
C649 C 0.50097 0.13146 0.76545 0.0
C650 C 0.56588 0.1846 0.67955 0.0
C651 C 0.63174 0.16511 0.62267 0.0
C652 C 0.60405 0.1624 0.65392 0.0
C653 C 0.53084 0.16267 0.75023 0.0
C654 C 0.55508 0.16144 0.71648 0.0
H655 H 0.65374 0.1791 0.51207 0.0
H656 H 0.60532 0.168 0.56254 0.0
H657 H 0.59852 0.20389 0.62118 0.0
H658 H 0.51773 0.22328 0.8058 0.0
H659 H 0.56002 0.22001 0.75558 0.0
C660 C 0.27375 0.49241 0.95518 0.0
C661 C 0.27665 0.48639 1.00093 0.0
C662 C 0.30305 0.51821 0.93156 0.0
C663 C 0.40021 0.56779 0.93292 0.0
H664 H 0.39019 0.63345 0.85465 0.0
C665 C 0.50817 0.66129 0.80747 0.0
C666 C 0.51466 0.69623 0.80521 0.0
C667 C 0.48005 0.63592 0.83315 0.0
C668 C 0.39341 0.61542 0.8766 0.0
H669 H 0.31272 0.50284 0.05767 0.0
H670 H 0.36367 0.54769 0.01635 0.0
H671 H 0.33871 0.58843 0.8956 0.0
H672 H 0.49659 0.73191 0.82655 0.0
H673 H 0.4478 0.68791 0.87216 0.0
H674 H 0.45495 0.59486 0.91396 0.0
C675 C 0.33878 0.53231 0.99878 0.0
C676 C 0.3639 0.58946 0.89964 0.0
C677 C 0.30948 0.50675 0.02248 0.0
C678 C 0.49281 0.7055 0.82907 0.0
C679 C 0.46454 0.68014 0.85444 0.0
C680 C 0.42967 0.59357 0.90957 0.0
C681 C 0.33587 0.53829 0.95311 0.0
C682 C 0.36704 0.56547 0.92814 0.0
C683 C 0.45769 0.64502 0.8564 0.0
C684 C 0.42657 0.61771 0.88133 0.0
H685 H 0.24889 0.47719 0.9375 0.0
H686 H 0.30016 0.5221 0.89625 0.0
H687 H 0.40329 0.54943 0.9544 0.0
H688 H 0.52454 0.65349 0.78894 0.0
H689 H 0.47515 0.60896 0.83371 0.0
C690 C 0.77081 0.2972 0.43966 0.0
C691 C 0.80383 0.30117 0.45107 0.0
C692 C 0.76878 0.32231 0.41273 0.0
C693 C 0.81923 0.39303 0.33039 0.0
H694 H 0.75012 0.42125 0.35927 0.0
C695 C 0.78704 0.47799 0.21089 0.0
C696 C 0.78275 0.50486 0.23079 0.0
C697 C 0.78998 0.45312 0.23752 0.0
C698 C 0.76972 0.41384 0.3509 0.0
H699 H 0.86065 0.33461 0.4441 0.0
H700 H 0.85719 0.37904 0.39733 0.0
H701 H 0.75559 0.37903 0.40733 0.0
H702 H 0.77838 0.52668 0.29445 0.0
H703 H 0.78382 0.48369 0.34049 0.0
H704 H 0.83378 0.42845 0.27436 0.0
C705 C 0.83286 0.35617 0.40862 0.0
C706 C 0.7726 0.38936 0.37818 0.0
C707 C 0.83487 0.33095 0.43563 0.0
C708 C 0.78144 0.50626 0.27784 0.0
C709 C 0.7844 0.48149 0.30436 0.0
C710 C 0.81634 0.41755 0.30305 0.0
C711 C 0.79975 0.35206 0.39686 0.0
C712 C 0.79733 0.37862 0.3682 0.0
C713 C 0.78867 0.45462 0.28454 0.0
C714 C 0.79156 0.42824 0.31305 0.0
H715 H 0.74645 0.27448 0.45126 0.0
H716 H 0.74288 0.31814 0.40381 0.0
H717 H 0.8383 0.385 0.3216 0.0
H718 H 0.78814 0.4761 0.17477 0.0
H719 H 0.79286 0.43247 0.22127 0.0
C720 C 0.3051 0.78896 0.45019 0.0
C721 C 0.30115 0.81895 0.44723 0.0
C722 C 0.33093 0.78921 0.47798 0.0
C723 C 0.37725 0.82333 0.58075 0.0
H724 H 0.4471 0.80194 0.53272 0.0
C725 C 0.48492 0.82089 0.69209 0.0
C726 C 0.49555 0.79626 0.68106 0.0
C727 C 0.46195 0.8256 0.66393 0.0
C728 C 0.42746 0.8074 0.54689 0.0
H729 H 0.32052 0.87257 0.47093 0.0
H730 H 0.36538 0.8726 0.52098 0.0
H731 H 0.40603 0.80712 0.4821 0.0
H732 H 0.48931 0.75609 0.63321 0.0
H733 H 0.44802 0.76292 0.5854 0.0
H734 H 0.39722 0.82188 0.64574 0.0
C735 C 0.34877 0.84923 0.50113 0.0
C736 C 0.40425 0.81071 0.51777 0.0
C737 C 0.32339 0.84927 0.47246 0.0
C738 C 0.48185 0.77555 0.6423 0.0
C739 C 0.45843 0.77976 0.61464 0.0
C740 C 0.40005 0.81936 0.61008 0.0
C741 C 0.35268 0.81918 0.50396 0.0
C742 C 0.37886 0.81845 0.53452 0.0
C743 C 0.4487 0.80533 0.62456 0.0
C744 C 0.42522 0.81096 0.59353 0.0
H745 H 0.28812 0.76524 0.43111 0.0
H746 H 0.33341 0.7657 0.47996 0.0
H747 H 0.35754 0.82899 0.59429 0.0
H748 H 0.49535 0.83744 0.7216 0.0
H749 H 0.4554 0.84581 0.67244 0.0
C750 C 0.68627 0.52341 0.07084 0.0
C751 C 0.67983 0.52736 0.1159 0.0
C752 C 0.66007 0.4963 0.04499 0.0
C753 C 0.58132 0.40836 0.05661 0.0
H754 H 0.56792 0.42139 0.93087 0.0
C755 C 0.47662 0.29516 0.94684 0.0
C756 C 0.48774 0.29181 0.90376 0.0
C757 C 0.49783 0.32489 0.97314 0.0
C758 C 0.57155 0.41731 0.96587 0.0
H759 H 0.64071 0.50764 0.16903 0.0
H760 H 0.59452 0.46013 0.1237 0.0
H761 H 0.60841 0.47245 0.97603 0.0
H762 H 0.52985 0.31711 0.85453 0.0
H763 H 0.56693 0.36872 0.9006 0.0
H764 H 0.54493 0.35315 0.04629 0.0
C765 C 0.62004 0.47758 0.10854 0.0
C766 C 0.59467 0.44653 0.99173 0.0
C767 C 0.6463 0.50483 0.13435 0.0
C768 C 0.52044 0.31887 0.88752 0.0
C769 C 0.54161 0.34859 0.9138 0.0
C770 C 0.55819 0.37914 0.03074 0.0
C771 C 0.62686 0.47272 0.06377 0.0
C772 C 0.60016 0.44229 0.03722 0.0
C773 C 0.53054 0.35192 0.95688 0.0
C774 C 0.55343 0.38323 0.98496 0.0
H775 H 0.71161 0.54122 0.05562 0.0
H776 H 0.66622 0.4932 0.01067 0.0
H777 H 0.58537 0.40417 0.09142 0.0
H778 H 0.45144 0.27496 0.96025 0.0
H779 H 0.48842 0.32689 1.00602 0.0
loop_
_geom_bond_atom_site_label_1
_geom_bond_atom_site_label_2
_geom_bond_distance
_geom_bond_site_symmetry_2
_ccdc_geom_bond_type
Pr0 C2 2.880 . S
Pr0 O20 2.562 . S
Pr0 O21 2.490 . S
Pr0 O22 2.695 1_554 S
Pr0 O23 2.512 . S
Pr0 O25 2.437 . S
Pr0 O28 2.436 . S
Pr0 O30 2.438 . S
Pr1 C11 2.880 . S
Pr1 O22 2.436 . S
Pr1 O24 2.438 1_556 S
Pr1 O26 2.562 . S
Pr1 O27 2.490 . S
Pr1 O28 2.695 1_556 S
Pr1 O29 2.512 . S
Pr1 O31 2.437 . S
C2 Pr0 2.880 . S
C2 C3 1.491 . S
C2 O20 1.254 . S
C2 O21 1.225 . S
C3 C2 1.491 . S
C3 C4 1.392 . S
C3 C8 1.356 . S
C4 C3 1.392 . S
C4 C5 1.368 . S
C4 H32 0.929 . S
C5 C4 1.368 . S
C5 C6 1.386 . S
C5 H33 0.929 . S
C6 C5 1.386 . S
C6 C7 1.373 . S
C7 C6 1.373 . S
C7 C8 1.409 . S
C7 H34 0.931 . S
C8 C3 1.356 . S
C8 C7 1.409 . S
C8 H35 0.930 . S
C9 O22 1.270 1_554 S
C9 O23 1.248 . S
C10 O24 1.267 . S
C10 O25 1.278 . S
C11 Pr1 2.880 . S
C11 C12 1.491 . S
C11 O26 1.254 . S
C11 O27 1.225 . S
C12 C11 1.491 . S
C12 C13 1.392 . S
C12 C17 1.356 . S
C13 C12 1.392 . S
C13 C14 1.368 . S
C13 H36 0.929 . S
C14 C13 1.368 . S
C14 C15 1.386 . S
C14 H37 0.929 . S
C15 C14 1.386 . S
C15 C16 1.373 . S
C16 C15 1.373 . S
C16 C17 1.409 . S
C16 H38 0.931 . S
C17 C12 1.356 . S
C17 C16 1.409 . S
C17 H39 0.930 . S
C18 O28 1.270 . S
C18 O29 1.248 1_554 S
C19 O30 1.267 1_556 S
C19 O31 1.278 . S
O20 Pr0 2.562 . S
O20 C2 1.254 . S
O21 Pr0 2.490 . S
O21 C2 1.225 . S
O22 Pr0 2.695 1_556 S
O22 Pr1 2.436 . S
O22 C9 1.270 1_556 S
O23 Pr0 2.512 . S
O23 C9 1.248 . S
O24 Pr1 2.438 1_554 S
O24 C10 1.267 . S
O25 Pr0 2.437 . S
O25 C10 1.278 . S
O26 Pr1 2.562 . S
O26 C11 1.254 . S
O27 Pr1 2.490 . S
O27 C11 1.225 . S
O28 Pr0 2.436 . S
O28 Pr1 2.695 1_554 S
O28 C18 1.270 . S
O29 Pr1 2.512 . S
O29 C18 1.248 1_556 S
O30 Pr0 2.438 . S
O30 C19 1.267 1_554 S
O31 Pr1 2.437 . S
O31 C19 1.278 . S
H32 C4 0.929 . S
H33 C5 0.929 . S
H34 C7 0.931 . S
H35 C8 0.930 . S
H36 C13 0.929 . S
H37 C14 0.929 . S
H38 C16 0.931 . S
H39 C17 0.930 . S
Pr40 C42 2.880 . S
Pr40 O60 2.562 . S
Pr40 O61 2.490 . S
Pr40 O62 2.695 . S
Pr40 O63 2.512 . S
Pr40 O65 2.437 . S
Pr40 O68 2.436 . S
Pr40 O70 2.438 . S
Pr41 C51 2.880 . S
Pr41 O62 2.436 . S
Pr41 O64 2.438 . S
Pr41 O66 2.562 . S
Pr41 O67 2.490 . S
Pr41 O68 2.695 . S
Pr41 O69 2.512 . S
Pr41 O71 2.437 . S
C42 Pr40 2.880 . S
C42 C43 1.491 . S
C42 O60 1.254 . S
C42 O61 1.225 . S
C43 C42 1.491 . S
C43 C44 1.392 . S
C43 C48 1.356 . S
C44 C43 1.392 . S
C44 C45 1.368 . S
C44 H72 0.929 . S
C45 C44 1.368 . S
C45 C46 1.386 . S
C45 H73 0.929 . S
C46 C45 1.386 . S
C46 C47 1.373 . S
C47 C46 1.373 . S
C47 C48 1.409 . S
C47 H74 0.931 . S
C48 C43 1.356 . S
C48 C47 1.409 . S
C48 H75 0.930 . S
C49 O62 1.270 . S
C49 O63 1.248 . S
C50 O64 1.267 . S
C50 O65 1.278 . S
C51 Pr41 2.880 . S
C51 C52 1.491 . S
C51 O66 1.254 . S
C51 O67 1.225 . S
C52 C51 1.491 . S
C52 C53 1.392 . S
C52 C57 1.356 . S
C53 C52 1.392 . S
C53 C54 1.368 . S
C53 H76 0.929 . S
C54 C53 1.368 . S
C54 C55 1.386 . S
C54 H77 0.929 . S
C55 C54 1.386 . S
C55 C56 1.373 . S
C56 C55 1.373 . S
C56 C57 1.409 . S
C56 H78 0.931 . S
C57 C52 1.356 . S
C57 C56 1.409 . S
C57 H79 0.930 . S
C58 O68 1.270 . S
C58 O69 1.248 . S
C59 O70 1.267 . S
C59 O71 1.278 . S
O60 Pr40 2.562 . S
O60 C42 1.254 . S
O61 Pr40 2.490 . S
O61 C42 1.225 . S
O62 Pr40 2.695 . S
O62 Pr41 2.436 . S
O62 C49 1.270 . S
O63 Pr40 2.512 . S
O63 C49 1.248 . S
O64 Pr41 2.438 . S
O64 C50 1.267 . S
O65 Pr40 2.437 . S
O65 C50 1.278 . S
O66 Pr41 2.562 . S
O66 C51 1.254 . S
O67 Pr41 2.490 . S
O67 C51 1.225 . S
O68 Pr40 2.436 . S
O68 Pr41 2.695 . S
O68 C58 1.270 . S
O69 Pr41 2.512 . S
O69 C58 1.248 . S
O70 Pr40 2.438 . S
O70 C59 1.267 . S
O71 Pr41 2.437 . S
O71 C59 1.278 . S
H72 C44 0.929 . S
H73 C45 0.929 . S
H74 C47 0.931 . S
H75 C48 0.930 . S
H76 C53 0.929 . S
H77 C54 0.929 . S
H78 C56 0.931 . S
H79 C57 0.930 . S
Pr80 C82 2.880 . S
Pr80 O100 2.562 . S
Pr80 O101 2.490 . S
Pr80 O102 2.695 . S
Pr80 O103 2.512 . S
Pr80 O105 2.437 . S
Pr80 O108 2.436 . S
Pr80 O110 2.438 . S
Pr81 C91 2.880 . S
Pr81 O102 2.436 . S
Pr81 O104 2.438 . S
Pr81 O106 2.562 . S
Pr81 O107 2.490 . S
Pr81 O108 2.695 . S
Pr81 O109 2.512 . S
Pr81 O111 2.437 . S
C82 Pr80 2.880 . S
C82 C83 1.491 . S
C82 O100 1.254 . S
C82 O101 1.225 . S
C83 C82 1.491 . S
C83 C84 1.392 . S
C83 C88 1.356 . S
C84 C83 1.392 . S
C84 C85 1.368 . S
C84 H112 0.929 . S
C85 C84 1.368 . S
C85 C86 1.386 . S
C85 H113 0.929 . S
C86 C85 1.386 . S
C86 C87 1.373 . S
C87 C86 1.373 . S
C87 C88 1.409 . S
C87 H114 0.931 . S
C88 C83 1.356 . S
C88 C87 1.409 . S
C88 H115 0.930 . S
C89 O102 1.270 . S
C89 O103 1.248 . S
C90 O104 1.267 . S
C90 O105 1.278 . S
C91 Pr81 2.880 . S
C91 C92 1.491 . S
C91 O106 1.254 . S
C91 O107 1.225 . S
C92 C91 1.491 . S
C92 C93 1.392 . S
C92 C97 1.356 . S
C93 C92 1.392 . S
C93 C94 1.368 . S
C93 H116 0.929 . S
C94 C93 1.368 . S
C94 C95 1.386 . S
C94 H117 0.929 . S
C95 C94 1.386 . S
C95 C96 1.373 . S
C96 C95 1.373 . S
C96 C97 1.409 . S
C96 H118 0.931 . S
C97 C92 1.356 . S
C97 C96 1.409 . S
C97 H119 0.930 . S
C98 O108 1.270 . S
C98 O109 1.248 . S
C99 O110 1.267 . S
C99 O111 1.278 . S
O100 Pr80 2.562 . S
O100 C82 1.254 . S
O101 Pr80 2.490 . S
O101 C82 1.225 . S
O102 Pr80 2.695 . S
O102 Pr81 2.436 . S
O102 C89 1.270 . S
O103 Pr80 2.512 . S
O103 C89 1.248 . S
O104 Pr81 2.438 . S
O104 C90 1.267 . S
O105 Pr80 2.437 . S
O105 C90 1.278 . S
O106 Pr81 2.562 . S
O106 C91 1.254 . S
O107 Pr81 2.490 . S
O107 C91 1.225 . S
O108 Pr80 2.436 . S
O108 Pr81 2.695 . S
O108 C98 1.270 . S
O109 Pr81 2.512 . S
O109 C98 1.248 . S
O110 Pr80 2.438 . S
O110 C99 1.267 . S
O111 Pr81 2.437 . S
O111 C99 1.278 . S
H112 C84 0.929 . S
H113 C85 0.929 . S
H114 C87 0.931 . S
H115 C88 0.930 . S
H116 C93 0.929 . S
H117 C94 0.929 . S
H118 C96 0.931 . S
H119 C97 0.930 . S
Pr120 C122 2.880 . S
Pr120 O140 2.562 . S
Pr120 O141 2.490 . S
Pr120 O142 2.695 . S
Pr120 O143 2.512 . S
Pr120 O145 2.437 . S
Pr120 O148 2.436 . S
Pr120 O150 2.438 . S
Pr121 C131 2.880 . S
Pr121 O142 2.436 . S
Pr121 O144 2.438 . S
Pr121 O146 2.562 . S
Pr121 O147 2.490 . S
Pr121 O148 2.695 . S
Pr121 O149 2.512 . S
Pr121 O151 2.437 . S
C122 Pr120 2.880 . S
C122 C123 1.491 . S
C122 O140 1.254 . S
C122 O141 1.225 . S
C123 C122 1.491 . S
C123 C124 1.392 1_554 S
C123 C128 1.356 1_554 S
C124 C123 1.392 1_556 S
C124 C125 1.368 . S
C124 H152 0.929 1_556 S
C125 C124 1.368 . S
C125 C126 1.386 . S
C125 H153 0.929 . S
C126 C125 1.386 . S
C126 C127 1.373 . S
C127 C126 1.373 . S
C127 C128 1.409 . S
C127 H154 0.931 . S
C128 C123 1.356 1_556 S
C128 C127 1.409 . S
C128 H155 0.930 . S
C129 O142 1.270 . S
C129 O143 1.248 . S
C130 O144 1.267 . S
C130 O145 1.278 . S
C131 Pr121 2.880 . S
C131 C132 1.491 . S
C131 O146 1.254 . S
C131 O147 1.225 . S
C132 C131 1.491 . S
C132 C133 1.392 . S
C132 C137 1.356 . S
C133 C132 1.392 . S
C133 C134 1.368 . S
C133 H156 0.929 . S
C134 C133 1.368 . S
C134 C135 1.386 . S
C134 H157 0.929 . S
C135 C134 1.386 . S
C135 C136 1.373 . S
C136 C135 1.373 . S
C136 C137 1.409 . S
C136 H158 0.931 . S
C137 C132 1.356 . S
C137 C136 1.409 . S
C137 H159 0.930 . S
C138 O148 1.270 . S
C138 O149 1.248 . S
C139 O150 1.267 . S
C139 O151 1.278 . S
O140 Pr120 2.562 . S
O140 C122 1.254 . S
O141 Pr120 2.490 . S
O141 C122 1.225 . S
O142 Pr120 2.695 . S
O142 Pr121 2.436 . S
O142 C129 1.270 . S
O143 Pr120 2.512 . S
O143 C129 1.248 . S
O144 Pr121 2.438 . S
O144 C130 1.267 . S
O145 Pr120 2.437 . S
O145 C130 1.278 . S
O146 Pr121 2.562 . S
O146 C131 1.254 . S
O147 Pr121 2.490 . S
O147 C131 1.225 . S
O148 Pr120 2.436 . S
O148 Pr121 2.695 . S
O148 C138 1.270 . S
O149 Pr121 2.512 . S
O149 C138 1.248 . S
O150 Pr120 2.438 . S
O150 C139 1.267 . S
O151 Pr121 2.437 . S
O151 C139 1.278 . S
H152 C124 0.929 1_554 S
H153 C125 0.929 . S
H154 C127 0.931 . S
H155 C128 0.930 . S
H156 C133 0.929 . S
H157 C134 0.929 . S
H158 C136 0.931 . S
H159 C137 0.930 . S
Pr160 C162 2.880 . S
Pr160 O180 2.562 . S
Pr160 O181 2.490 . S
Pr160 O182 2.695 . S
Pr160 O183 2.512 . S
Pr160 O185 2.437 . S
Pr160 O188 2.436 . S
Pr160 O190 2.438 . S
Pr161 C171 2.880 . S
Pr161 O182 2.436 . S
Pr161 O184 2.438 . S
Pr161 O186 2.562 . S
Pr161 O187 2.490 . S
Pr161 O188 2.695 . S
Pr161 O189 2.512 . S
Pr161 O191 2.437 . S
C162 Pr160 2.880 . S
C162 C163 1.491 . S
C162 O180 1.254 . S
C162 O181 1.225 . S
C163 C162 1.491 . S
C163 C164 1.392 . S
C163 C168 1.356 . S
C164 C163 1.392 . S
C164 C165 1.368 . S
C164 H192 0.929 . S
C165 C164 1.368 . S
C165 C166 1.386 . S
C165 H193 0.929 . S
C166 C165 1.386 . S
C166 C167 1.373 . S
C167 C166 1.373 . S
C167 C168 1.409 . S
C167 H194 0.931 . S
C168 C163 1.356 . S
C168 C167 1.409 . S
C168 H195 0.930 . S
C169 O182 1.270 . S
C169 O183 1.248 . S
C170 O184 1.267 . S
C170 O185 1.278 . S
C171 Pr161 2.880 . S
C171 C172 1.491 . S
C171 O186 1.254 . S
C171 O187 1.225 . S
C172 C171 1.491 . S
C172 C173 1.392 . S
C172 C177 1.356 . S
C173 C172 1.392 . S
C173 C174 1.368 . S
C173 H196 0.929 . S
C174 C173 1.368 . S
C174 C175 1.386 . S
C174 H197 0.929 . S
C175 C174 1.386 . S
C175 C176 1.373 . S
C176 C175 1.373 . S
C176 C177 1.409 . S
C176 H198 0.931 . S
C177 C172 1.356 . S
C177 C176 1.409 . S
C177 H199 0.930 . S
C178 O188 1.270 . S
C178 O189 1.248 . S
C179 O190 1.267 . S
C179 O191 1.278 . S
O180 Pr160 2.562 . S
O180 C162 1.254 . S
O181 Pr160 2.490 . S
O181 C162 1.225 . S
O182 Pr160 2.695 . S
O182 Pr161 2.436 . S
O182 C169 1.270 . S
O183 Pr160 2.512 . S
O183 C169 1.248 . S
O184 Pr161 2.438 . S
O184 C170 1.267 . S
O185 Pr160 2.437 . S
O185 C170 1.278 . S
O186 Pr161 2.562 . S
O186 C171 1.254 . S
O187 Pr161 2.490 . S
O187 C171 1.225 . S
O188 Pr160 2.436 . S
O188 Pr161 2.695 . S
O188 C178 1.270 . S
O189 Pr161 2.512 . S
O189 C178 1.248 . S
O190 Pr160 2.438 . S
O190 C179 1.267 . S
O191 Pr161 2.437 . S
O191 C179 1.278 . S
H192 C164 0.929 . S
H193 C165 0.929 . S
H194 C167 0.931 . S
H195 C168 0.930 . S
H196 C173 0.929 . S
H197 C174 0.929 . S
H198 C176 0.931 . S
H199 C177 0.930 . S
Pr200 C202 2.880 . S
Pr200 O220 2.562 . S
Pr200 O221 2.490 . S
Pr200 O222 2.695 . S
Pr200 O223 2.512 . S
Pr200 O225 2.437 . S
Pr200 O228 2.436 . S
Pr200 O230 2.438 . S
Pr201 C211 2.880 1_556 S
Pr201 O222 2.436 . S
Pr201 O224 2.438 . S
Pr201 O226 2.562 . S
Pr201 O227 2.490 . S
Pr201 O228 2.695 . S
Pr201 O229 2.512 . S
Pr201 O231 2.437 . S
C202 Pr200 2.880 . S
C202 C203 1.491 . S
C202 O220 1.254 . S
C202 O221 1.225 . S
C203 C202 1.491 . S
C203 C204 1.392 . S
C203 C208 1.356 . S
C204 C203 1.392 . S
C204 C205 1.368 . S
C204 H232 0.929 . S
C205 C204 1.368 . S
C205 C206 1.386 . S
C205 H233 0.929 . S
C206 C205 1.386 . S
C206 C207 1.373 . S
C207 C206 1.373 . S
C207 C208 1.409 . S
C207 H234 0.931 . S
C208 C203 1.356 . S
C208 C207 1.409 . S
C208 H235 0.930 . S
C209 O222 1.270 . S
C209 O223 1.248 . S
C210 O224 1.267 . S
C210 O225 1.278 . S
C211 Pr201 2.880 1_554 S
C211 C212 1.491 . S
C211 O226 1.254 1_554 S
C211 O227 1.225 1_554 S
C212 C211 1.491 . S
C212 C213 1.392 . S
C212 C217 1.356 . S
C213 C212 1.392 . S
C213 C214 1.368 . S
C213 H236 0.929 . S
C214 C213 1.368 . S
C214 C215 1.386 . S
C214 H237 0.929 . S
C215 C214 1.386 . S
C215 C216 1.373 . S
C216 C215 1.373 . S
C216 C217 1.409 . S
C216 H238 0.931 . S
C217 C212 1.356 . S
C217 C216 1.409 . S
C217 H239 0.930 . S
C218 O228 1.270 . S
C218 O229 1.248 . S
C219 O230 1.267 . S
C219 O231 1.278 . S
O220 Pr200 2.562 . S
O220 C202 1.254 . S
O221 Pr200 2.490 . S
O221 C202 1.225 . S
O222 Pr200 2.695 . S
O222 Pr201 2.436 . S
O222 C209 1.270 . S
O223 Pr200 2.512 . S
O223 C209 1.248 . S
O224 Pr201 2.438 . S
O224 C210 1.267 . S
O225 Pr200 2.437 . S
O225 C210 1.278 . S
O226 Pr201 2.562 . S
O226 C211 1.254 1_556 S
O227 Pr201 2.490 . S
O227 C211 1.225 1_556 S
O228 Pr200 2.436 . S
O228 Pr201 2.695 . S
O228 C218 1.270 . S
O229 Pr201 2.512 . S
O229 C218 1.248 . S
O230 Pr200 2.438 . S
O230 C219 1.267 . S
O231 Pr201 2.437 . S
O231 C219 1.278 . S
H232 C204 0.929 . S
H233 C205 0.929 . S
H234 C207 0.931 . S
H235 C208 0.930 . S
H236 C213 0.929 . S
H237 C214 0.929 . S
H238 C216 0.931 . S
H239 C217 0.930 . S
C240 C241 1.349 . S
C240 C242 1.327 . S
C240 H265 0.950 . S
C241 C240 1.349 . S
C241 C257 1.349 . S
C242 C240 1.327 . S
C242 C261 1.429 . S
C242 H266 0.950 . S
C243 C260 1.574 . S
C243 C262 1.368 . S
C243 H267 0.949 . S
H244 C248 0.949 . S
C245 C246 1.349 1_554 S
C245 C247 1.327 . S
C245 H268 0.950 . S
C246 C245 1.349 1_556 S
C246 C258 1.349 . S
C247 C245 1.327 . S
C247 C263 1.429 1_554 S
C247 H269 0.950 . S
C248 H244 0.949 . S
C248 C256 1.574 . S
C248 C264 1.368 . S
H249 C257 0.950 . S
H250 C255 0.950 . S
H251 C256 0.949 . S
H252 C258 0.950 . S
H253 C259 0.950 . S
H254 C260 0.949 1_554 S
C255 H250 0.950 . S
C255 C257 1.327 . S
C255 C261 1.429 . S
C256 C248 1.574 . S
C256 H251 0.949 . S
C256 C262 1.368 . S
C257 C241 1.349 . S
C257 H249 0.950 . S
C257 C255 1.327 . S
C258 C246 1.349 . S
C258 H252 0.950 . S
C258 C259 1.327 . S
C259 H253 0.950 . S
C259 C258 1.327 . S
C259 C263 1.429 . S
C260 C243 1.574 . S
C260 H254 0.949 1_556 S
C260 C264 1.368 . S
C261 C242 1.429 . S
C261 C255 1.429 . S
C261 C262 1.523 . S
C262 C243 1.368 . S
C262 C256 1.368 . S
C262 C261 1.523 . S
C263 C247 1.429 1_556 S
C263 C259 1.429 . S
C263 C264 1.523 . S
C264 C248 1.368 . S
C264 C260 1.368 . S
C264 C263 1.523 . S
H265 C240 0.950 . S
H266 C242 0.950 . S
H267 C243 0.949 . S
H268 C245 0.950 . S
H269 C247 0.950 . S
C270 C271 1.349 . S
C270 C272 1.327 . S
C270 H295 0.950 . S
C271 C270 1.349 . S
C271 C287 1.349 . S
C272 C270 1.327 . S
C272 C291 1.429 . S
C272 H296 0.950 . S
C273 C290 1.574 1_455 S
C273 C292 1.368 . S
C273 H297 0.949 . S
H274 C278 0.949 . S
C275 C276 1.349 . S
C275 C277 1.327 . S
C275 H298 0.950 . S
C276 C275 1.349 . S
C276 C288 1.349 . S
C277 C275 1.327 . S
C277 C293 1.429 . S
C277 H299 0.950 . S
C278 H274 0.949 . S
C278 C286 1.574 1_655 S
C278 C294 1.368 . S
H279 C287 0.950 . S
H280 C285 0.950 . S
H281 C286 0.949 . S
H282 C288 0.950 . S
H283 C289 0.950 . S
H284 C290 0.949 . S
C285 H280 0.950 . S
C285 C287 1.327 . S
C285 C291 1.429 . S
C286 C278 1.574 1_455 S
C286 H281 0.949 . S
C286 C292 1.368 . S
C287 C271 1.349 . S
C287 H279 0.950 . S
C287 C285 1.327 . S
C288 C276 1.349 . S
C288 H282 0.950 . S
C288 C289 1.327 . S
C289 H283 0.950 . S
C289 C288 1.327 . S
C289 C293 1.429 . S
C290 C273 1.574 1_655 S
C290 H284 0.949 . S
C290 C294 1.368 . S
C291 C272 1.429 . S
C291 C285 1.429 . S
C291 C292 1.523 . S
C292 C273 1.368 . S
C292 C286 1.368 . S
C292 C291 1.523 . S
C293 C277 1.429 . S
C293 C289 1.429 . S
C293 C294 1.523 . S
C294 C278 1.368 . S
C294 C290 1.368 . S
C294 C293 1.523 . S
H295 C270 0.950 . S
H296 C272 0.950 . S
H297 C273 0.949 . S
H298 C275 0.950 . S
H299 C277 0.950 . S
C300 C301 1.349 . S
C300 C302 1.327 . S
C300 H325 0.950 . S
C301 C300 1.349 . S
C301 C317 1.349 . S
C302 C300 1.327 . S
C302 C321 1.429 . S
C302 H326 0.950 . S
C303 C320 1.574 1_545 S
C303 C322 1.368 . S
C303 H327 0.949 . S
H304 C308 0.949 . S
C305 C306 1.349 . S
C305 C307 1.327 . S
C305 H328 0.950 . S
C306 C305 1.349 . S
C306 C318 1.349 . S
C307 C305 1.327 . S
C307 C323 1.429 . S
C307 H329 0.950 . S
C308 H304 0.949 . S
C308 C316 1.574 1_565 S
C308 C324 1.368 . S
H309 C317 0.950 . S
H310 C315 0.950 . S
H311 C316 0.949 . S
H312 C318 0.950 . S
H313 C319 0.950 . S
H314 C320 0.949 . S
C315 H310 0.950 . S
C315 C317 1.327 . S
C315 C321 1.429 . S
C316 C308 1.574 1_545 S
C316 H311 0.949 . S
C316 C322 1.368 . S
C317 C301 1.349 . S
C317 H309 0.950 . S
C317 C315 1.327 . S
C318 C306 1.349 . S
C318 H312 0.950 . S
C318 C319 1.327 . S
C319 H313 0.950 . S
C319 C318 1.327 . S
C319 C323 1.429 . S
C320 C303 1.574 1_565 S
C320 H314 0.949 . S
C320 C324 1.368 . S
C321 C302 1.429 . S
C321 C315 1.429 . S
C321 C322 1.523 . S
C322 C303 1.368 . S
C322 C316 1.368 . S
C322 C321 1.523 . S
C323 C307 1.429 . S
C323 C319 1.429 . S
C323 C324 1.523 . S
C324 C308 1.368 . S
C324 C320 1.368 . S
C324 C323 1.523 . S
H325 C300 0.950 . S
H326 C302 0.950 . S
H327 C303 0.949 . S
H328 C305 0.950 . S
H329 C307 0.950 . S
C330 C331 1.349 . S
C330 C332 1.327 . S
C330 H355 0.950 . S
C331 C330 1.349 . S
C331 C347 1.349 . S
C332 C330 1.327 . S
C332 C351 1.429 . S
C332 H356 0.950 . S
C333 C350 1.574 . S
C333 C352 1.368 . S
C333 H357 0.949 . S
H334 C338 0.949 1_554 S
C335 C336 1.349 . S
C335 C337 1.327 . S
C335 H358 0.950 . S
C336 C335 1.349 . S
C336 C348 1.349 . S
C337 C335 1.327 . S
C337 C353 1.429 . S
C337 H359 0.950 1_554 S
C338 H334 0.949 1_556 S
C338 C346 1.574 . S
C338 C354 1.368 . S
H339 C347 0.950 . S
H340 C345 0.950 . S
H341 C346 0.949 . S
H342 C348 0.950 . S
H343 C349 0.950 . S
H344 C350 0.949 . S
C345 H340 0.950 . S
C345 C347 1.327 . S
C345 C351 1.429 . S
C346 C338 1.574 . S
C346 H341 0.949 . S
C346 C352 1.368 . S
C347 C331 1.349 . S
C347 H339 0.950 . S
C347 C345 1.327 . S
C348 C336 1.349 . S
C348 H342 0.950 . S
C348 C349 1.327 . S
C349 H343 0.950 . S
C349 C348 1.327 . S
C349 C353 1.429 . S
C350 C333 1.574 . S
C350 H344 0.949 . S
C350 C354 1.368 . S
C351 C332 1.429 . S
C351 C345 1.429 . S
C351 C352 1.523 . S
C352 C333 1.368 . S
C352 C346 1.368 . S
C352 C351 1.523 . S
C353 C337 1.429 . S
C353 C349 1.429 . S
C353 C354 1.523 1_554 S
C354 C338 1.368 . S
C354 C350 1.368 . S
C354 C353 1.523 1_556 S
H355 C330 0.950 . S
H356 C332 0.950 . S
H357 C333 0.949 . S
H358 C335 0.950 . S
H359 C337 0.950 1_556 S
C360 C361 1.349 . S
C360 C362 1.327 . S
C360 H385 0.950 . S
C361 C360 1.349 . S
C361 C377 1.349 . S
C362 C360 1.327 . S
C362 C381 1.429 . S
C362 H386 0.950 . S
C363 C380 1.574 1_455 S
C363 C382 1.368 . S
C363 H387 0.949 . S
H364 C368 0.949 . S
C365 C366 1.349 . S
C365 C367 1.327 . S
C365 H388 0.950 . S
C366 C365 1.349 . S
C366 C378 1.349 . S
C367 C365 1.327 . S
C367 C383 1.429 . S
C367 H389 0.950 . S
C368 H364 0.949 . S
C368 C376 1.574 1_655 S
C368 C384 1.368 . S
H369 C377 0.950 . S
H370 C375 0.950 . S
H371 C376 0.949 . S
H372 C378 0.950 . S
H373 C379 0.950 . S
H374 C380 0.949 . S
C375 H370 0.950 . S
C375 C377 1.327 . S
C375 C381 1.429 . S
C376 C368 1.574 1_455 S
C376 H371 0.949 . S
C376 C382 1.368 . S
C377 C361 1.349 . S
C377 H369 0.950 . S
C377 C375 1.327 . S
C378 C366 1.349 . S
C378 H372 0.950 . S
C378 C379 1.327 . S
C379 H373 0.950 . S
C379 C378 1.327 . S
C379 C383 1.429 . S
C380 C363 1.574 1_655 S
C380 H374 0.949 . S
C380 C384 1.368 . S
C381 C362 1.429 . S
C381 C375 1.429 . S
C381 C382 1.523 . S
C382 C363 1.368 . S
C382 C376 1.368 . S
C382 C381 1.523 . S
C383 C367 1.429 . S
C383 C379 1.429 . S
C383 C384 1.523 . S
C384 C368 1.368 . S
C384 C380 1.368 . S
C384 C383 1.523 . S
H385 C360 0.950 . S
H386 C362 0.950 . S
H387 C363 0.949 . S
H388 C365 0.950 . S
H389 C367 0.950 . S
C390 C391 1.349 . S
C390 C392 1.327 . S
C390 H415 0.950 . S
C391 C390 1.349 . S
C391 C407 1.349 . S
C392 C390 1.327 . S
C392 C411 1.429 . S
C392 H416 0.950 . S
C393 C410 1.574 . S
C393 C412 1.368 1_565 S
C393 H417 0.949 . S
H394 C398 0.949 . S
C395 C396 1.349 . S
C395 C397 1.327 . S
C395 H418 0.950 . S
C396 C395 1.349 . S
C396 C408 1.349 . S
C397 C395 1.327 . S
C397 C413 1.429 . S
C397 H419 0.950 . S
C398 H394 0.949 . S
C398 C406 1.574 . S
C398 C414 1.368 1_545 S
H399 C407 0.950 . S
H400 C405 0.950 . S
H401 C406 0.949 . S
H402 C408 0.950 . S
H403 C409 0.950 . S
H404 C410 0.949 . S
C405 H400 0.950 . S
C405 C407 1.327 . S
C405 C411 1.429 . S
C406 C398 1.574 . S
C406 H401 0.949 . S
C406 C412 1.368 . S
C407 C391 1.349 . S
C407 H399 0.950 . S
C407 C405 1.327 . S
C408 C396 1.349 . S
C408 H402 0.950 . S
C408 C409 1.327 . S
C409 H403 0.950 . S
C409 C408 1.327 . S
C409 C413 1.429 . S
C410 C393 1.574 . S
C410 H404 0.949 . S
C410 C414 1.368 . S
C411 C392 1.429 . S
C411 C405 1.429 . S
C411 C412 1.523 . S
C412 C393 1.368 1_545 S
C412 C406 1.368 . S
C412 C411 1.523 . S
C413 C397 1.429 . S
C413 C409 1.429 . S
C413 C414 1.523 . S
C414 C398 1.368 1_565 S
C414 C410 1.368 . S
C414 C413 1.523 . S
H415 C390 0.950 . S
H416 C392 0.950 . S
H417 C393 0.949 . S
H418 C395 0.950 . S
H419 C397 0.950 . S
C420 C421 1.349 . S
C420 C422 1.327 . S
C420 H445 0.950 . S
C421 C420 1.349 . S
C421 C437 1.349 . S
C422 C420 1.327 . S
C422 C441 1.429 . S
C422 H446 0.950 . S
C423 C440 1.574 . S
C423 C442 1.368 . S
C423 H447 0.949 . S
H424 C428 0.949 . S
C425 C426 1.349 . S
C425 C427 1.327 . S
C425 H448 0.950 . S
C426 C425 1.349 . S
C426 C438 1.349 . S
C427 C425 1.327 . S
C427 C443 1.429 . S
C427 H449 0.950 . S
C428 H424 0.949 . S
C428 C436 1.574 . S
C428 C444 1.368 . S
H429 C437 0.950 . S
H430 C435 0.950 . S
H431 C436 0.949 . S
H432 C438 0.950 . S
H433 C439 0.950 . S
H434 C440 0.949 . S
C435 H430 0.950 . S
C435 C437 1.327 . S
C435 C441 1.429 . S
C436 C428 1.574 . S
C436 H431 0.949 . S
C436 C442 1.368 . S
C437 C421 1.349 . S
C437 H429 0.950 . S
C437 C435 1.327 . S
C438 C426 1.349 . S
C438 H432 0.950 . S
C438 C439 1.327 . S
C439 H433 0.950 . S
C439 C438 1.327 . S
C439 C443 1.429 . S
C440 C423 1.574 . S
C440 H434 0.949 . S
C440 C444 1.368 . S
C441 C422 1.429 . S
C441 C435 1.429 . S
C441 C442 1.523 . S
C442 C423 1.368 . S
C442 C436 1.368 . S
C442 C441 1.523 . S
C443 C427 1.429 . S
C443 C439 1.429 . S
C443 C444 1.523 . S
C444 C428 1.368 . S
C444 C440 1.368 . S
C444 C443 1.523 . S
H445 C420 0.950 . S
H446 C422 0.950 . S
H447 C423 0.949 . S
H448 C425 0.950 . S
H449 C427 0.950 . S
C450 C451 1.349 . S
C450 C452 1.327 . S
C450 H475 0.950 . S
C451 C450 1.349 . S
C451 C467 1.349 . S
C452 C450 1.327 . S
C452 C471 1.429 . S
C452 H476 0.950 . S
C453 C470 1.574 1_554 S
C453 C472 1.368 . S
C453 H477 0.949 . S
H454 C458 0.949 . S
C455 C456 1.349 . S
C455 C457 1.327 . S
C455 H478 0.950 . S
C456 C455 1.349 . S
C456 C468 1.349 . S
C457 C455 1.327 . S
C457 C473 1.429 . S
C457 H479 0.950 . S
C458 H454 0.949 . S
C458 C466 1.574 . S
C458 C474 1.368 1_554 S
H459 C467 0.950 . S
H460 C465 0.950 . S
H461 C466 0.949 . S
H462 C468 0.950 . S
H463 C469 0.950 . S
H464 C470 0.949 . S
C465 H460 0.950 . S
C465 C467 1.327 . S
C465 C471 1.429 . S
C466 C458 1.574 . S
C466 H461 0.949 . S
C466 C472 1.368 . S
C467 C451 1.349 . S
C467 H459 0.950 . S
C467 C465 1.327 . S
C468 C456 1.349 . S
C468 H462 0.950 . S
C468 C469 1.327 . S
C469 H463 0.950 . S
C469 C468 1.327 . S
C469 C473 1.429 . S
C470 C453 1.574 1_556 S
C470 H464 0.949 . S
C470 C474 1.368 . S
C471 C452 1.429 . S
C471 C465 1.429 . S
C471 C472 1.523 . S
C472 C453 1.368 . S
C472 C466 1.368 . S
C472 C471 1.523 . S
C473 C457 1.429 . S
C473 C469 1.429 . S
C473 C474 1.523 . S
C474 C458 1.368 1_556 S
C474 C470 1.368 . S
C474 C473 1.523 . S
H475 C450 0.950 . S
H476 C452 0.950 . S
H477 C453 0.949 . S
H478 C455 0.950 . S
H479 C457 0.950 . S
C480 C481 1.349 . S
C480 C482 1.327 . S
C480 H505 0.950 . S
C481 C480 1.349 . S
C481 C497 1.349 . S
C482 C480 1.327 . S
C482 C501 1.429 . S
C482 H506 0.950 . S
C483 C500 1.574 . S
C483 C502 1.368 . S
C483 H507 0.949 . S
H484 C488 0.949 . S
C485 C486 1.349 . S
C485 C487 1.327 . S
C485 H508 0.950 . S
C486 C485 1.349 . S
C486 C498 1.349 . S
C487 C485 1.327 . S
C487 C503 1.429 . S
C487 H509 0.950 . S
C488 H484 0.949 . S
C488 C496 1.574 . S
C488 C504 1.368 . S
H489 C497 0.950 . S
H490 C495 0.950 . S
H491 C496 0.949 . S
H492 C498 0.957 . S
H493 C499 0.950 . S
H494 C500 0.949 . S
C495 H490 0.950 . S
C495 C497 1.327 . S
C495 C501 1.429 . S
C496 C488 1.574 . S
C496 H491 0.949 . S
C496 C502 1.368 . S
C497 C481 1.349 . S
C497 H489 0.950 . S
C497 C495 1.327 . S
C498 C486 1.349 . S
C498 H492 0.957 . S
C498 C499 1.327 . S
C499 H493 0.950 . S
C499 C498 1.327 . S
C499 C503 1.429 . S
C500 C483 1.574 . S
C500 H494 0.949 . S
C500 C504 1.368 . S
C501 C482 1.429 . S
C501 C495 1.429 . S
C501 C502 1.523 . S
C502 C483 1.368 . S
C502 C496 1.368 . S
C502 C501 1.523 . S
C503 C487 1.429 . S
C503 C499 1.429 . S
C503 C504 1.523 . S
C504 C488 1.368 . S
C504 C500 1.368 . S
C504 C503 1.523 . S
H505 C480 0.950 . S
H506 C482 0.950 . S
H507 C483 0.949 . S
H508 C485 0.950 . S
H509 C487 0.950 . S
C510 C511 1.349 . S
C510 C512 1.327 . S
C510 H535 0.950 . S
C511 C510 1.349 . S
C511 C527 1.349 . S
C512 C510 1.327 . S
C512 C531 1.429 . S
C512 H536 0.950 . S
C513 C530 1.574 . S
C513 C532 1.368 . S
C513 H537 0.949 . S
H514 C518 0.949 . S
C515 C516 1.349 . S
C515 C517 1.327 . S
C515 H538 0.950 . S
C516 C515 1.349 . S
C516 C528 1.349 . S
C517 C515 1.327 . S
C517 C533 1.429 . S
C517 H539 0.950 . S
C518 H514 0.949 . S
C518 C526 1.574 . S
C518 C534 1.368 . S
H519 C527 0.950 . S
H520 C525 0.950 . S
H521 C526 0.949 . S
H522 C528 0.950 . S
H523 C529 0.950 . S
H524 C530 0.949 . S
C525 H520 0.950 . S
C525 C527 1.327 . S
C525 C531 1.429 . S
C526 C518 1.574 . S
C526 H521 0.949 . S
C526 C532 1.368 . S
C527 C511 1.349 . S
C527 H519 0.950 . S
C527 C525 1.327 . S
C528 C516 1.349 . S
C528 H522 0.950 . S
C528 C529 1.327 . S
C529 H523 0.950 . S
C529 C528 1.327 . S
C529 C533 1.429 . S
C530 C513 1.574 . S
C530 H524 0.949 . S
C530 C534 1.368 . S
C531 C512 1.429 . S
C531 C525 1.429 . S
C531 C532 1.523 . S
C532 C513 1.368 . S
C532 C526 1.368 . S
C532 C531 1.523 . S
C533 C517 1.429 . S
C533 C529 1.429 . S
C533 C534 1.523 . S
C534 C518 1.368 . S
C534 C530 1.368 . S
C534 C533 1.523 . S
H535 C510 0.950 . S
H536 C512 0.950 . S
H537 C513 0.949 . S
H538 C515 0.950 . S
H539 C517 0.950 . S
C540 C541 1.349 . S
C540 C542 1.327 . S
C540 H565 0.950 . S
C541 C540 1.349 . S
C541 C557 1.349 . S
C542 C540 1.327 . S
C542 C561 1.429 . S
C542 H566 0.950 . S
C543 C560 1.574 . S
C543 C562 1.368 . S
C543 H567 0.949 . S
H544 C548 0.949 . S
C545 C546 1.349 . S
C545 C547 1.327 1_554 S
C545 H568 0.950 . S
C546 C545 1.349 . S
C546 C558 1.349 . S
C547 C545 1.327 1_556 S
C547 C563 1.429 . S
C547 H569 0.950 . S
C548 H544 0.949 . S
C548 C556 1.574 . S
C548 C564 1.368 . S
H549 C557 0.950 . S
H550 C555 0.950 . S
H551 C556 0.949 . S
H552 C558 0.950 . S
H553 C559 0.950 . S
H554 C560 0.949 . S
C555 H550 0.950 . S
C555 C557 1.327 . S
C555 C561 1.429 . S
C556 C548 1.574 . S
C556 H551 0.949 . S
C556 C562 1.368 . S
C557 C541 1.349 . S
C557 H549 0.950 . S
C557 C555 1.327 . S
C558 C546 1.349 . S
C558 H552 0.950 . S
C558 C559 1.327 1_554 S
C559 H553 0.950 . S
C559 C558 1.327 1_556 S
C559 C563 1.429 . S
C560 C543 1.574 . S
C560 H554 0.949 . S
C560 C564 1.368 . S
C561 C542 1.429 . S
C561 C555 1.429 . S
C561 C562 1.523 . S
C562 C543 1.368 . S
C562 C556 1.368 . S
C562 C561 1.523 . S
C563 C547 1.429 . S
C563 C559 1.429 . S
C563 C564 1.523 . S
C564 C548 1.368 . S
C564 C560 1.368 . S
C564 C563 1.523 . S
H565 C540 0.950 . S
H566 C542 0.950 . S
H567 C543 0.949 . S
H568 C545 0.950 . S
H569 C547 0.950 . S
C570 C571 1.349 . S
C570 C572 1.327 . S
C570 H595 0.950 . S
C571 C570 1.349 . S
C571 C587 1.349 . S
C572 C570 1.327 . S
C572 C591 1.429 . S
C572 H596 0.950 . S
C573 C590 1.574 . S
C573 C592 1.368 . S
C573 H597 0.949 . S
H574 C578 0.949 . S
C575 C576 1.349 . S
C575 C577 1.327 . S
C575 H598 0.950 . S
C576 C575 1.349 . S
C576 C588 1.349 . S
C577 C575 1.327 . S
C577 C593 1.429 . S
C577 H599 0.950 . S
C578 H574 0.949 . S
C578 C586 1.574 . S
C578 C594 1.368 . S
H579 C587 0.950 . S
H580 C585 0.950 . S
H581 C586 0.949 . S
H582 C588 0.950 . S
H583 C589 0.950 . S
H584 C590 0.949 . S
C585 H580 0.950 . S
C585 C587 1.327 . S
C585 C591 1.429 . S
C586 C578 1.574 . S
C586 H581 0.949 . S
C586 C592 1.368 . S
C587 C571 1.349 . S
C587 H579 0.950 . S
C587 C585 1.327 . S
C588 C576 1.349 . S
C588 H582 0.950 . S
C588 C589 1.327 . S
C589 H583 0.950 . S
C589 C588 1.327 . S
C589 C593 1.429 . S
C590 C573 1.574 . S
C590 H584 0.949 . S
C590 C594 1.368 . S
C591 C572 1.429 . S
C591 C585 1.429 . S
C591 C592 1.523 . S
C592 C573 1.368 . S
C592 C586 1.368 . S
C592 C591 1.523 . S
C593 C577 1.429 . S
C593 C589 1.429 . S
C593 C594 1.523 . S
C594 C578 1.368 . S
C594 C590 1.368 . S
C594 C593 1.523 . S
H595 C570 0.950 . S
H596 C572 0.950 . S
H597 C573 0.949 . S
H598 C575 0.950 . S
H599 C577 0.950 . S
C600 C601 1.349 . S
C600 C602 1.327 . S
C600 H625 0.950 . S
C601 C600 1.349 . S
C601 C617 1.349 . S
C602 C600 1.327 . S
C602 C621 1.429 . S
C602 H626 0.950 . S
C603 C620 1.574 . S
C603 C622 1.368 . S
C603 H627 0.949 . S
H604 C608 0.949 . S
C605 C606 1.349 . S
C605 C607 1.327 . S
C605 H628 0.950 . S
C606 C605 1.349 . S
C606 C618 1.349 . S
C607 C605 1.327 . S
C607 C623 1.429 . S
C607 H629 0.950 . S
C608 H604 0.949 . S
C608 C616 1.574 . S
C608 C624 1.368 . S
H609 C617 0.950 . S
H610 C615 0.950 . S
H611 C616 0.949 . S
H612 C618 0.950 . S
H613 C619 0.950 . S
H614 C620 0.949 . S
C615 H610 0.950 . S
C615 C617 1.327 . S
C615 C621 1.429 . S
C616 C608 1.574 . S
C616 H611 0.949 . S
C616 C622 1.368 . S
C617 C601 1.349 . S
C617 H609 0.950 . S
C617 C615 1.327 . S
C618 C606 1.349 . S
C618 H612 0.950 . S
C618 C619 1.327 . S
C619 H613 0.950 . S
C619 C618 1.327 . S
C619 C623 1.429 . S
C620 C603 1.574 . S
C620 H614 0.949 . S
C620 C624 1.368 . S
C621 C602 1.429 . S
C621 C615 1.429 . S
C621 C622 1.523 . S
C622 C603 1.368 . S
C622 C616 1.368 . S
C622 C621 1.523 . S
C623 C607 1.429 . S
C623 C619 1.429 . S
C623 C624 1.523 . S
C624 C608 1.368 . S
C624 C620 1.368 . S
C624 C623 1.523 . S
H625 C600 0.950 . S
H626 C602 0.950 . S
H627 C603 0.949 . S
H628 C605 0.950 . S
H629 C607 0.950 . S
C630 C631 1.349 . S
C630 C632 1.327 . S
C630 H655 0.950 . S
C631 C630 1.349 . S
C631 C647 1.349 . S
C632 C630 1.327 . S
C632 C651 1.429 . S
C632 H656 0.950 . S
C633 C650 1.574 . S
C633 C652 1.368 . S
C633 H657 0.949 . S
H634 C638 0.949 . S
C635 C636 1.349 . S
C635 C637 1.327 . S
C635 H658 0.950 . S
C636 C635 1.349 . S
C636 C648 1.349 . S
C637 C635 1.327 . S
C637 C653 1.429 . S
C637 H659 0.950 . S
C638 H634 0.949 . S
C638 C646 1.574 . S
C638 C654 1.368 . S
H639 C647 0.950 . S
H640 C645 0.950 . S
H641 C646 0.949 . S
H642 C648 0.950 . S
H643 C649 0.950 . S
H644 C650 0.949 . S
C645 H640 0.950 . S
C645 C647 1.327 . S
C645 C651 1.429 . S
C646 C638 1.574 . S
C646 H641 0.949 . S
C646 C652 1.368 . S
C647 C631 1.349 . S
C647 H639 0.950 . S
C647 C645 1.327 . S
C648 C636 1.349 . S
C648 H642 0.950 . S
C648 C649 1.327 . S
C649 H643 0.950 . S
C649 C648 1.327 . S
C649 C653 1.429 . S
C650 C633 1.574 . S
C650 H644 0.949 . S
C650 C654 1.368 . S
C651 C632 1.429 . S
C651 C645 1.429 . S
C651 C652 1.523 . S
C652 C633 1.368 . S
C652 C646 1.368 . S
C652 C651 1.523 . S
C653 C637 1.429 . S
C653 C649 1.429 . S
C653 C654 1.523 . S
C654 C638 1.368 . S
C654 C650 1.368 . S
C654 C653 1.523 . S
H655 C630 0.950 . S
H656 C632 0.950 . S
H657 C633 0.949 . S
H658 C635 0.950 . S
H659 C637 0.950 . S
C660 C661 1.349 . S
C660 C662 1.327 . S
C660 H685 0.950 . S
C661 C660 1.349 . S
C661 C677 1.349 . S
C662 C660 1.327 . S
C662 C681 1.429 . S
C662 H686 0.950 . S
C663 C680 1.574 . S
C663 C682 1.368 . S
C663 H687 0.949 . S
H664 C668 0.949 . S
C665 C666 1.349 . S
C665 C667 1.327 . S
C665 H688 0.950 . S
C666 C665 1.349 . S
C666 C678 1.349 . S
C667 C665 1.327 . S
C667 C683 1.429 . S
C667 H689 0.950 . S
C668 H664 0.949 . S
C668 C676 1.574 . S
C668 C684 1.368 . S
H669 C677 0.950 . S
H670 C675 0.950 . S
H671 C676 0.949 . S
H672 C678 0.950 . S
H673 C679 0.950 . S
H674 C680 0.949 . S
C675 H670 0.950 . S
C675 C677 1.327 . S
C675 C681 1.429 . S
C676 C668 1.574 . S
C676 H671 0.949 . S
C676 C682 1.368 . S
C677 C661 1.349 . S
C677 H669 0.950 . S
C677 C675 1.327 . S
C678 C666 1.349 . S
C678 H672 0.950 . S
C678 C679 1.327 . S
C679 H673 0.950 . S
C679 C678 1.327 . S
C679 C683 1.429 . S
C680 C663 1.574 . S
C680 H674 0.949 . S
C680 C684 1.368 . S
C681 C662 1.429 . S
C681 C675 1.429 . S
C681 C682 1.523 . S
C682 C663 1.368 . S
C682 C676 1.368 . S
C682 C681 1.523 . S
C683 C667 1.429 . S
C683 C679 1.429 . S
C683 C684 1.523 . S
C684 C668 1.368 . S
C684 C680 1.368 . S
C684 C683 1.523 . S
H685 C660 0.950 . S
H686 C662 0.950 . S
H687 C663 0.949 . S
H688 C665 0.950 . S
H689 C667 0.950 . S
C690 C691 1.349 . S
C690 C692 1.327 . S
C690 H715 0.950 . S
C691 C690 1.349 . S
C691 C707 1.349 . S
C692 C690 1.327 . S
C692 C711 1.429 . S
C692 H716 0.950 . S
C693 C710 1.574 . S
C693 C712 1.368 . S
C693 H717 0.949 . S
H694 C698 0.949 . S
C695 C696 1.349 . S
C695 C697 1.327 . S
C695 H718 0.950 . S
C696 C695 1.349 . S
C696 C708 1.349 . S
C697 C695 1.327 . S
C697 C713 1.429 . S
C697 H719 0.950 . S
C698 H694 0.949 . S
C698 C706 1.574 . S
C698 C714 1.368 . S
H699 C707 0.950 . S
H700 C705 0.950 . S
H701 C706 0.949 . S
H702 C708 0.950 . S
H703 C709 0.950 . S
H704 C710 0.949 . S
C705 H700 0.950 . S
C705 C707 1.327 . S
C705 C711 1.429 . S
C706 C698 1.574 . S
C706 H701 0.949 . S
C706 C712 1.368 . S
C707 C691 1.349 . S
C707 H699 0.950 . S
C707 C705 1.327 . S
C708 C696 1.349 . S
C708 H702 0.950 . S
C708 C709 1.327 . S
C709 H703 0.950 . S
C709 C708 1.327 . S
C709 C713 1.429 . S
C710 C693 1.574 . S
C710 H704 0.949 . S
C710 C714 1.368 . S
C711 C692 1.429 . S
C711 C705 1.429 . S
C711 C712 1.523 . S
C712 C693 1.368 . S
C712 C706 1.368 . S
C712 C711 1.523 . S
C713 C697 1.429 . S
C713 C709 1.429 . S
C713 C714 1.523 . S
C714 C698 1.368 . S
C714 C710 1.368 . S
C714 C713 1.523 . S
H715 C690 0.950 . S
H716 C692 0.950 . S
H717 C693 0.949 . S
H718 C695 0.950 . S
H719 C697 0.950 . S
C720 C721 1.349 . S
C720 C722 1.327 . S
C720 H745 0.950 . S
C721 C720 1.349 . S
C721 C737 1.349 . S
C722 C720 1.327 . S
C722 C741 1.429 . S
C722 H746 0.950 . S
C723 C740 1.574 . S
C723 C742 1.368 . S
C723 H747 0.949 . S
H724 C728 0.949 . S
C725 C726 1.349 . S
C725 C727 1.327 . S
C725 H748 0.950 . S
C726 C725 1.349 . S
C726 C738 1.349 . S
C727 C725 1.327 . S
C727 C743 1.429 . S
C727 H749 0.950 . S
C728 H724 0.949 . S
C728 C736 1.574 . S
C728 C744 1.368 . S
H729 C737 0.950 . S
H730 C735 0.950 . S
H731 C736 0.949 . S
H732 C738 0.950 . S
H733 C739 0.950 . S
H734 C740 0.949 . S
C735 H730 0.950 . S
C735 C737 1.327 . S
C735 C741 1.429 . S
C736 C728 1.574 . S
C736 H731 0.949 . S
C736 C742 1.368 . S
C737 C721 1.349 . S
C737 H729 0.950 . S
C737 C735 1.327 . S
C738 C726 1.349 . S
C738 H732 0.950 . S
C738 C739 1.327 . S
C739 H733 0.950 . S
C739 C738 1.327 . S
C739 C743 1.429 . S
C740 C723 1.574 . S
C740 H734 0.949 . S
C740 C744 1.368 . S
C741 C722 1.429 . S
C741 C735 1.429 . S
C741 C742 1.523 . S
C742 C723 1.368 . S
C742 C736 1.368 . S
C742 C741 1.523 . S
C743 C727 1.429 . S
C743 C739 1.429 . S
C743 C744 1.523 . S
C744 C728 1.368 . S
C744 C740 1.368 . S
C744 C743 1.523 . S
H745 C720 0.950 . S
H746 C722 0.950 . S
H747 C723 0.949 . S
H748 C725 0.950 . S
H749 C727 0.950 . S
C750 C751 1.349 . S
C750 C752 1.327 . S
C750 H775 0.950 . S
C751 C750 1.349 . S
C751 C767 1.349 . S
C752 C750 1.327 . S
C752 C771 1.429 . S
C752 H776 0.950 . S
C753 C770 1.574 . S
C753 C772 1.368 . S
C753 H777 0.949 . S
H754 C758 0.949 1_556 S
C755 C756 1.334 1_554 S
C755 C757 1.336 . S
C755 H778 0.957 . S
C756 C755 1.334 1_556 S
C756 C768 1.349 . S
C757 C755 1.336 . S
C757 C773 1.429 . S
C757 H779 0.950 . S
C758 H754 0.949 1_554 S
C758 C766 1.574 . S
C758 C774 1.368 . S
H759 C767 0.950 . S
H760 C765 0.950 . S
H761 C766 0.949 . S
H762 C768 0.950 . S
H763 C769 0.950 . S
H764 C770 0.949 . S
C765 H760 0.950 . S
C765 C767 1.327 . S
C765 C771 1.429 . S
C766 C758 1.574 . S
C766 H761 0.949 . S
C766 C772 1.368 . S
C767 C751 1.349 . S
C767 H759 0.950 . S
C767 C765 1.327 . S
C768 C756 1.349 . S
C768 H762 0.950 . S
C768 C769 1.327 . S
C769 H763 0.950 . S
C769 C768 1.327 . S
C769 C773 1.429 1_556 S
C770 C753 1.574 . S
C770 H764 0.949 . S
C770 C774 1.368 . S
C771 C752 1.429 . S
C771 C765 1.429 . S
C771 C772 1.523 . S
C772 C753 1.368 . S
C772 C766 1.368 . S
C772 C771 1.523 . S
C773 C757 1.429 . S
C773 C769 1.429 1_554 S
C773 C774 1.523 . S
C774 C758 1.368 . S
C774 C770 1.368 . S
C774 C773 1.523 . S
H775 C750 0.950 . S
H776 C752 0.950 . S
H777 C753 0.949 . S
H778 C755 0.957 . S
H779 C757 0.950 . S
C241 C209 1.381 . S
C246 C9 1.381 1_556 S
C271 C10 1.668 . S
C276 C50 1.668 . S
C301 C49 1.381 . S
C306 C89 1.381 . S
C331 C90 1.669 . S
C336 C130 1.669 . S
C361 C169 1.381 . S
C366 C129 1.381 . S
C391 C210 1.668 . S
C396 C170 1.668 . S
C421 C15 1.053 . S
C426 C6 1.053 . S
C451 C46 1.053 . S
C456 C55 1.053 . S
C481 C95 1.053 . S
C486 C86 1.053 1_554 S
C511 C126 1.053 . S
C516 C135 1.053 . S
C541 C166 1.053 . S
C546 C175 1.053 . S
C571 C206 1.053 . S
C576 C215 1.053 . S
C601 C18 1.801 . S
C606 C179 1.780 . S
C631 C59 1.780 . S
C636 C218 1.801 . S
C661 C19 1.780 . S
C666 C98 1.801 . S
C691 C58 1.801 . S
C696 C139 1.780 . S
C721 C178 1.801 . S
C726 C99 1.780 . S
C751 C138 1.801 . S
C756 C219 1.780 . S
