# Generated by pormake.
# Topology vbk, (5)-cn, num edge types: 1
# Building blocks:
#     Node 0, Type 0, BuildingBlock: XOMCOT_clean_sbu_1, # of connection points: 5
#     Node 1, Type 0, BuildingBlock: XOMCOT_clean_sbu_1, # of connection points: 5
#     Node 2, Type 0, BuildingBlock: XOMCOT_clean_sbu_1, # of connection points: 5
#     Node 3, Type 0, BuildingBlock: XOMCOT_clean_sbu_1, # of connection points: 5
#     Node 4, Type 0, BuildingBlock: XOMCOT_clean_sbu_1, # of connection points: 5
#     Node 5, Type 0, BuildingBlock: XOMCOT_clean_sbu_1, # of connection points: 5
#     Node 6, Type 0, BuildingBlock: XOMCOT_clean_sbu_1, # of connection points: 5
#     Node 7, Type 0, BuildingBlock: XOMCOT_clean_sbu_1, # of connection points: 5
#     Node 8, Type 0, BuildingBlock: XOMCOT_clean_sbu_1, # of connection points: 5
#     Node 9, Type 0, BuildingBlock: XOMCOT_clean_sbu_1, # of connection points: 5
#     Node 10, Type 0, BuildingBlock: XOMCOT_clean_sbu_1, # of connection points: 5
#     Node 11, Type 0, BuildingBlock: XOMCOT_clean_sbu_1, # of connection points: 5
#     Node 12, Type 0, BuildingBlock: XOMCOT_clean_sbu_1, # of connection points: 5
#     Node 13, Type 0, BuildingBlock: XOMCOT_clean_sbu_1, # of connection points: 5
#     Node 14, Type 0, BuildingBlock: XOMCOT_clean_sbu_1, # of connection points: 5
#     Node 15, Type 0, BuildingBlock: XOMCOT_clean_sbu_1, # of connection points: 5
#     Edge 16, Type (0, 0), BuildingBlock: MIFKUJ_clean_linker_0, # of connection points: 2
#     Edge 17, Type (0, 0), BuildingBlock: MIFKUJ_clean_linker_0, # of connection points: 2
#     Edge 18, Type (0, 0), BuildingBlock: MIFKUJ_clean_linker_0, # of connection points: 2
#     Edge 19, Type (0, 0), BuildingBlock: MIFKUJ_clean_linker_0, # of connection points: 2
#     Edge 20, Type (0, 0), BuildingBlock: MIFKUJ_clean_linker_0, # of connection points: 2
#     Edge 21, Type (0, 0), BuildingBlock: MIFKUJ_clean_linker_0, # of connection points: 2
#     Edge 22, Type (0, 0), BuildingBlock: MIFKUJ_clean_linker_0, # of connection points: 2
#     Edge 23, Type (0, 0), BuildingBlock: MIFKUJ_clean_linker_0, # of connection points: 2
#     Edge 24, Type (0, 0), BuildingBlock: MIFKUJ_clean_linker_0, # of connection points: 2
#     Edge 25, Type (0, 0), BuildingBlock: MIFKUJ_clean_linker_0, # of connection points: 2
#     Edge 26, Type (0, 0), BuildingBlock: MIFKUJ_clean_linker_0, # of connection points: 2
#     Edge 27, Type (0, 0), BuildingBlock: MIFKUJ_clean_linker_0, # of connection points: 2
#     Edge 28, Type (0, 0), BuildingBlock: MIFKUJ_clean_linker_0, # of connection points: 2
#     Edge 29, Type (0, 0), BuildingBlock: MIFKUJ_clean_linker_0, # of connection points: 2
#     Edge 30, Type (0, 0), BuildingBlock: MIFKUJ_clean_linker_0, # of connection points: 2
#     Edge 31, Type (0, 0), BuildingBlock: MIFKUJ_clean_linker_0, # of connection points: 2
#     Edge 32, Type (0, 0), BuildingBlock: MIFKUJ_clean_linker_0, # of connection points: 2
#     Edge 33, Type (0, 0), BuildingBlock: MIFKUJ_clean_linker_0, # of connection points: 2
#     Edge 34, Type (0, 0), BuildingBlock: MIFKUJ_clean_linker_0, # of connection points: 2
#     Edge 35, Type (0, 0), BuildingBlock: MIFKUJ_clean_linker_0, # of connection points: 2
#     Edge 36, Type (0, 0), BuildingBlock: MIFKUJ_clean_linker_0, # of connection points: 2
#     Edge 37, Type (0, 0), BuildingBlock: MIFKUJ_clean_linker_0, # of connection points: 2
#     Edge 38, Type (0, 0), BuildingBlock: MIFKUJ_clean_linker_0, # of connection points: 2
#     Edge 39, Type (0, 0), BuildingBlock: MIFKUJ_clean_linker_0, # of connection points: 2
#     Edge 40, Type (0, 0), BuildingBlock: MIFKUJ_clean_linker_0, # of connection points: 2
#     Edge 41, Type (0, 0), BuildingBlock: MIFKUJ_clean_linker_0, # of connection points: 2
#     Edge 42, Type (0, 0), BuildingBlock: MIFKUJ_clean_linker_0, # of connection points: 2
#     Edge 43, Type (0, 0), BuildingBlock: MIFKUJ_clean_linker_0, # of connection points: 2
#     Edge 44, Type (0, 0), BuildingBlock: MIFKUJ_clean_linker_0, # of connection points: 2
#     Edge 45, Type (0, 0), BuildingBlock: MIFKUJ_clean_linker_0, # of connection points: 2
#     Edge 46, Type (0, 0), BuildingBlock: MIFKUJ_clean_linker_0, # of connection points: 2
#     Edge 47, Type (0, 0), BuildingBlock: MIFKUJ_clean_linker_0, # of connection points: 2
#     Edge 48, Type (0, 0), BuildingBlock: MIFKUJ_clean_linker_0, # of connection points: 2
#     Edge 49, Type (0, 0), BuildingBlock: MIFKUJ_clean_linker_0, # of connection points: 2
#     Edge 50, Type (0, 0), BuildingBlock: MIFKUJ_clean_linker_0, # of connection points: 2
#     Edge 51, Type (0, 0), BuildingBlock: MIFKUJ_clean_linker_0, # of connection points: 2
#     Edge 52, Type (0, 0), BuildingBlock: MIFKUJ_clean_linker_0, # of connection points: 2
#     Edge 53, Type (0, 0), BuildingBlock: MIFKUJ_clean_linker_0, # of connection points: 2
#     Edge 54, Type (0, 0), BuildingBlock: MIFKUJ_clean_linker_0, # of connection points: 2
#     Edge 55, Type (0, 0), BuildingBlock: MIFKUJ_clean_linker_0, # of connection points: 2
# Relax obj value: 0.085
# Max RMSD: 0.147
# Mean RMSD: 0.147
data_MOF--net-vbk--node1-XOMCOT_clean_sbu_1--edge1-MIFKUJ_clean_linker_0
_symmetry_space_group_name_H-M    P1
_symmetry_Int_Tables_number       1
_symmetry_cell_setting            triclinic
loop_
_symmetry_equiv_pos_as_xyz
'x, y, z'
_cell_length_a     84.345386
_cell_length_b     59.78658
_cell_length_c     34.107684
_cell_angle_alpha  90.056742
_cell_angle_beta   90.104068
_cell_angle_gamma 90.203935
loop_
_atom_site_label
_atom_site_type_symbol
_atom_site_fract_x
_atom_site_fract_y
_atom_site_fract_z
_atom_type_partial_charge
C0 C 0.12389 0.19193 0.10952 0.0
C1 C 0.10767 0.19306 0.10752 0.0
N2 N 0.10182 0.17207 0.10623 0.0
N3 N 0.12843 0.17034 0.10922 0.0
C4 C 0.11467 0.15853 0.10765 0.0
H5 H 0.13196 0.20602 0.11066 0.0
Co6 Co 0.14994 0.16202 0.11083 0.0
C7 C 0.14667 0.12334 0.05286 0.0
O8 O 0.15318 0.13463 0.02412 0.0
N9 N 0.17181 0.15388 0.11363 0.0
C10 C 0.19645 0.14394 0.09814 0.0
C11 C 0.18129 0.14679 0.08434 0.0
C12 C 0.18171 0.15534 0.14501 0.0
N13 N 0.1968 0.14927 0.13654 0.0
O14 O 0.14664 0.14998 0.16231 0.0
H15 H 0.1778 0.1449 0.05418 0.0
H16 H 0.17797 0.16113 0.17345 0.0
O17 O 0.1449 0.13238 0.08674 0.0
C18 C 0.1469 0.16704 0.18482 0.0
O19 O 0.14999 0.18675 0.16957 0.0
N20 N 0.15315 0.17712 0.06265 0.0
C21 C 0.15513 0.21032 0.00468 0.0
C22 C 0.1436 0.19331 0.00252 0.0
C23 C 0.14254 0.17726 0.03228 0.0
C24 C 0.16447 0.19344 0.06502 0.0
C25 C 0.16576 0.20996 0.03637 0.0
H26 H 0.13273 0.16558 0.03184 0.0
H27 H 0.17193 0.19466 0.09075 0.0
H28 H 0.1141 0.14045 0.10678 0.0
H29 H 0.1007 0.20822 0.10732 0.0
H30 H 0.20651 0.13914 0.08049 0.0
H31 H 0.13506 0.19276 0.9788 0.0
H32 H 0.17447 0.22311 0.04052 0.0
C33 C 0.41097 0.82932 0.61227 0.0
C34 C 0.4271 0.8263 0.61016 0.0
N35 N 0.43419 0.84654 0.60866 0.0
N36 N 0.40778 0.85137 0.61177 0.0
C37 C 0.42216 0.86149 0.60995 0.0
H38 H 0.40209 0.81629 0.61434 0.0
Co39 Co 0.38734 0.86321 0.61571 0.0
C40 C 0.38813 0.90136 0.56078 0.0
O41 O 0.37537 0.89282 0.54433 0.0
N42 N 0.36645 0.87548 0.62211 0.0
C43 C 0.34861 0.90075 0.6414 0.0
C44 C 0.36374 0.89754 0.62803 0.0
C45 C 0.35262 0.86563 0.63362 0.0
N46 N 0.34161 0.88067 0.64525 0.0
O47 O 0.39258 0.87402 0.66684 0.0
H48 H 0.3726 0.91059 0.62653 0.0
H49 H 0.35112 0.84786 0.63777 0.0
O50 O 0.39448 0.89139 0.59019 0.0
C51 C 0.38736 0.85864 0.68933 0.0
O52 O 0.38011 0.84135 0.67353 0.0
N53 N 0.38224 0.84941 0.56725 0.0
C54 C 0.3798 0.81749 0.5073 0.0
C55 C 0.39033 0.83561 0.50397 0.0
C56 C 0.39161 0.85114 0.53461 0.0
C57 C 0.37178 0.83207 0.57039 0.0
C58 C 0.37017 0.81622 0.54063 0.0
H59 H 0.401 0.86344 0.53335 0.0
H60 H 0.36576 0.82905 0.59759 0.0
H61 H 0.42376 0.87945 0.60947 0.0
H62 H 0.43313 0.81036 0.61058 0.0
H63 H 0.34351 0.91658 0.65011 0.0
H64 H 0.39835 0.83687 0.47929 0.0
H65 H 0.36202 0.80237 0.54471 0.0
C66 C 0.12033 0.82885 0.88941 0.0
C67 C 0.10419 0.83095 0.89208 0.0
N68 N 0.10061 0.85286 0.89181 0.0
N69 N 0.12705 0.84933 0.88788 0.0
C70 C 0.11467 0.86374 0.88889 0.0
H71 H 0.12684 0.8133 0.88931 0.0
Co72 Co 0.14918 0.85323 0.88663 0.0
C73 C 0.15318 0.89247 0.94056 0.0
O74 O 0.16272 0.88066 0.96266 0.0
N75 N 0.17195 0.85664 0.88451 0.0
C76 C 0.19781 0.85672 0.89928 0.0
C77 C 0.18273 0.85429 0.91374 0.0
C78 C 0.18112 0.86016 0.85231 0.0
N79 N 0.19682 0.86033 0.86052 0.0
O80 O 0.14738 0.86506 0.83449 0.0
H81 H 0.18007 0.85012 0.9438 0.0
H82 H 0.17652 0.86246 0.82315 0.0
O83 O 0.147 0.8836 0.90986 0.0
C84 C 0.14613 0.84769 0.81289 0.0
O85 O 0.14698 0.82791 0.8295 0.0
N86 N 0.15031 0.83848 0.93521 0.0
C87 C 0.14714 0.80643 0.99426 0.0
C88 C 0.1399 0.82746 0.9979 0.0
C89 C 0.14136 0.84315 0.96757 0.0
C90 C 0.15746 0.81817 0.93151 0.0
C91 C 0.15627 0.80211 0.96085 0.0
H92 H 0.1345 0.85837 0.96895 0.0
H93 H 0.16356 0.81402 0.90462 0.0
H94 H 0.11594 0.88176 0.88859 0.0
H95 H 0.0957 0.81738 0.89406 0.0
H96 H 0.20871 0.85503 0.91581 0.0
H97 H 0.13241 0.83123 0.0228 0.0
H98 H 0.16205 0.78613 0.95679 0.0
C99 C 0.41333 0.19647 0.3767 0.0
C100 C 0.42959 0.19712 0.37712 0.0
N101 N 0.43501 0.17635 0.38426 0.0
N102 N 0.40837 0.17542 0.38376 0.0
C103 C 0.42188 0.16339 0.38786 0.0
H104 H 0.40554 0.21058 0.37233 0.0
Co105 Co 0.38675 0.16852 0.38792 0.0
C106 C 0.38805 0.12967 0.44361 0.0
O107 O 0.37977 0.1407 0.46966 0.0
N108 N 0.36425 0.16198 0.39121 0.0
C109 C 0.33927 0.15988 0.41289 0.0
C110 C 0.35487 0.16273 0.42338 0.0
C111 C 0.35373 0.15837 0.36148 0.0
N112 N 0.33848 0.15733 0.37378 0.0
O113 O 0.38763 0.15635 0.33624 0.0
H114 H 0.35878 0.16649 0.45278 0.0
H115 H 0.35696 0.15751 0.33095 0.0
O116 O 0.39166 0.13884 0.41087 0.0
C117 C 0.38471 0.17303 0.31413 0.0
O118 O 0.38036 0.19198 0.33038 0.0
N119 N 0.38651 0.18381 0.4361 0.0
C120 C 0.38967 0.21698 0.4933 0.0
C121 C 0.39865 0.19729 0.49549 0.0
C122 C 0.39718 0.18109 0.46594 0.0
C123 C 0.37772 0.20287 0.43379 0.0
C124 C 0.37896 0.21948 0.46225 0.0
H125 H 0.40523 0.16707 0.46586 0.0
H126 H 0.37022 0.20568 0.40854 0.0
H127 H 0.42211 0.14571 0.3946 0.0
H128 H 0.43689 0.21183 0.37269 0.0
H129 H 0.32925 0.16029 0.43263 0.0
H130 H 0.40737 0.19506 0.51848 0.0
H131 H 0.37191 0.23451 0.45932 0.0
C132 C 0.91709 0.82857 0.89521 0.0
C133 C 0.93318 0.83121 0.89822 0.0
N134 N 0.93659 0.85317 0.89569 0.0
N135 N 0.91019 0.84877 0.89117 0.0
C136 C 0.92245 0.86354 0.89107 0.0
H137 H 0.91072 0.81286 0.89644 0.0
Co138 Co 0.888 0.85179 0.88823 0.0
C139 C 0.88305 0.89174 0.93989 0.0
O140 O 0.87342 0.87995 0.96182 0.0
N141 N 0.86516 0.85419 0.88428 0.0
C142 C 0.83927 0.85288 0.89792 0.0
C143 C 0.85428 0.85204 0.91319 0.0
C144 C 0.85609 0.85608 0.85133 0.0
N145 N 0.8403 0.85524 0.85882 0.0
O146 O 0.89008 0.86273 0.83564 0.0
H147 H 0.85682 0.84897 0.94372 0.0
H148 H 0.86088 0.8572 0.8221 0.0
O149 O 0.88959 0.88265 0.90995 0.0
C150 C 0.89221 0.84504 0.81537 0.0
O151 O 0.89178 0.82561 0.83335 0.0
N152 N 0.88663 0.83797 0.93768 0.0
C153 C 0.88913 0.80789 1.00004 0.0
C154 C 0.89661 0.82891 0.0018 0.0
C155 C 0.89537 0.84365 0.97001 0.0
C156 C 0.87955 0.81747 0.93539 0.0
C157 C 0.88037 0.80241 0.9664 0.0
H158 H 0.90219 0.85899 0.97044 0.0
H159 H 0.87378 0.81238 0.90846 0.0
H160 H 0.92103 0.88147 0.88862 0.0
H161 H 0.94177 0.81796 0.90187 0.0
H162 H 0.82843 0.85156 0.91464 0.0
H163 H 0.90373 0.83364 0.02694 0.0
H164 H 0.87491 0.78609 0.96308 0.0
C165 C 0.6249 0.19126 0.3862 0.0
C166 C 0.60869 0.19276 0.38665 0.0
N167 N 0.60259 0.172 0.39017 0.0
N168 N 0.62921 0.16966 0.38961 0.0
C169 C 0.61531 0.15819 0.39148 0.0
H170 H 0.63313 0.20513 0.38418 0.0
Co171 Co 0.65071 0.16108 0.39101 0.0
C172 C 0.64597 0.12384 0.45052 0.0
O173 O 0.65183 0.13603 0.47911 0.0
N174 N 0.67261 0.15277 0.39045 0.0
C175 C 0.69682 0.14052 0.40563 0.0
C176 C 0.68135 0.14217 0.41797 0.0
C177 C 0.68325 0.15739 0.36165 0.0
N178 N 0.69805 0.15011 0.37008 0.0
O179 O 0.64816 0.14844 0.33979 0.0
H180 H 0.67707 0.13634 0.4458 0.0
H181 H 0.68036 0.16653 0.33534 0.0
O182 O 0.64507 0.13184 0.41565 0.0
C183 C 0.64917 0.16512 0.31666 0.0
O184 O 0.65235 0.18496 0.33137 0.0
N185 N 0.6532 0.17659 0.43952 0.0
C186 C 0.6537 0.21037 0.4968 0.0
C187 C 0.64125 0.19474 0.49514 0.0
C188 C 0.64119 0.17811 0.46635 0.0
C189 C 0.66556 0.19139 0.44129 0.0
C190 C 0.66621 0.208 0.47008 0.0
H191 H 0.631 0.16715 0.4644 0.0
H192 H 0.67455 0.19145 0.41881 0.0
H193 H 0.61454 0.14022 0.39475 0.0
H194 H 0.6019 0.20804 0.38446 0.0
H195 H 0.70641 0.13274 0.42165 0.0
H196 H 0.6311 0.19601 0.51438 0.0
H197 H 0.6762 0.21942 0.47025 0.0
C198 C 0.9119 0.19242 0.10496 0.0
C199 C 0.92813 0.19373 0.10354 0.0
N200 N 0.93402 0.17281 0.10349 0.0
N201 N 0.9074 0.17076 0.10548 0.0
C202 C 0.92118 0.15913 0.1051 0.0
H203 H 0.9038 0.2064 0.10506 0.0
Co204 Co 0.88594 0.16172 0.10695 0.0
C205 C 0.89055 0.12255 0.05123 0.0
O206 O 0.88452 0.13358 0.02156 0.0
N207 N 0.86423 0.1528 0.11032 0.0
C208 C 0.84011 0.13902 0.09831 0.0
C209 C 0.85535 0.14105 0.08446 0.0
C210 C 0.85395 0.1577 0.13972 0.0
N211 N 0.8392 0.14951 0.13316 0.0
O212 O 0.88925 0.1513 0.15941 0.0
H213 H 0.85938 0.13467 0.05676 0.0
H214 H 0.85705 0.1676 0.16512 0.0
O215 O 0.8915 0.13173 0.08522 0.0
C216 C 0.88856 0.16913 0.17994 0.0
O217 O 0.88512 0.18807 0.1624 0.0
N218 N 0.88261 0.17532 0.05695 0.0
C219 C 0.88092 0.20745 0.99698 0.0
C220 C 0.89363 0.19237 0.99903 0.0
C221 C 0.89427 0.17655 0.02912 0.0
C222 C 0.86996 0.18948 0.05468 0.0
C223 C 0.8687 0.20519 0.02456 0.0
H224 H 0.90468 0.16613 0.03131 0.0
H225 H 0.86122 0.18988 0.07773 0.0
H226 H 0.92179 0.14105 0.10521 0.0
H227 H 0.93508 0.20898 0.10285 0.0
H228 H 0.83045 0.13035 0.0838 0.0
H229 H 0.90358 0.19358 0.97913 0.0
H230 H 0.85851 0.21613 0.02416 0.0
C231 C 0.62487 0.82597 0.62933 0.0
C232 C 0.60864 0.82465 0.62935 0.0
N233 N 0.60279 0.84469 0.61882 0.0
N234 N 0.6294 0.84673 0.61876 0.0
C235 C 0.61564 0.85794 0.61284 0.0
H236 H 0.63294 0.81243 0.63562 0.0
Co237 Co 0.65094 0.85355 0.61241 0.0
C238 C 0.6504 0.8927 0.55832 0.0
O239 O 0.65955 0.8817 0.53404 0.0
N240 N 0.67347 0.85981 0.60692 0.0
C241 C 0.69846 0.86034 0.58477 0.0
C242 C 0.68283 0.85674 0.57511 0.0
C243 C 0.68404 0.86547 0.63553 0.0
N244 N 0.69926 0.8656 0.623 0.0
O245 O 0.65102 0.86548 0.6644 0.0
H246 H 0.67886 0.85117 0.54661 0.0
H247 H 0.68084 0.86903 0.66549 0.0
O248 O 0.64581 0.88336 0.59019 0.0
C249 C 0.65485 0.84901 0.68615 0.0
O250 O 0.65924 0.83022 0.66948 0.0
N251 N 0.6502 0.83861 0.56413 0.0
C252 C 0.64528 0.80599 0.50674 0.0
C253 C 0.63727 0.82652 0.50489 0.0
C254 C 0.63962 0.84247 0.53449 0.0
C255 C 0.65803 0.81874 0.56617 0.0
C256 C 0.65596 0.80239 0.53755 0.0
H257 H 0.63227 0.85723 0.53482 0.0
H258 H 0.66549 0.81521 0.59122 0.0
H259 H 0.61503 0.87509 0.60287 0.0
H260 H 0.60165 0.80995 0.63627 0.0
H261 H 0.70852 0.85793 0.56559 0.0
H262 H 0.6286 0.82966 0.48211 0.0
H263 H 0.66234 0.78677 0.54018 0.0
C264 C 0.62396 0.69247 0.09164 0.0
C265 C 0.60795 0.69576 0.0961 0.0
N266 N 0.60171 0.67752 0.11334 0.0
N267 N 0.62789 0.67207 0.10547 0.0
C268 C 0.61407 0.6636 0.11943 0.0
H269 H 0.63221 0.70442 0.07939 0.0
Co270 Co 0.64872 0.66081 0.10906 0.0
C271 C 0.63073 0.62169 0.07083 0.0
O272 O 0.61866 0.63368 0.05873 0.0
N273 N 0.66967 0.65014 0.11379 0.0
C274 C 0.69172 0.63005 0.10798 0.0
C275 C 0.67646 0.63295 0.09445 0.0
C276 C 0.68119 0.65771 0.13824 0.0
N277 N 0.69468 0.64567 0.13554 0.0
O278 O 0.64457 0.65221 0.16198 0.0
H279 H 0.67073 0.623 0.07202 0.0
H280 H 0.67967 0.67151 0.15835 0.0
O281 O 0.64218 0.63098 0.08956 0.0
C282 C 0.64734 0.66973 0.18222 0.0
O283 O 0.65178 0.68807 0.16404 0.0
N284 N 0.65341 0.67182 0.05878 0.0
C285 C 0.65619 0.7009 0.99524 0.0
C286 C 0.64786 0.68064 0.99152 0.0
C287 C 0.6467 0.66617 0.02365 0.0
C288 C 0.66263 0.69051 0.06181 0.0
C289 C 0.66423 0.70526 0.03042 0.0
H290 H 0.6397 0.6513 0.0204 0.0
H291 H 0.66771 0.695 0.08989 0.0
H292 H 0.61308 0.6475 0.13376 0.0
H293 H 0.60136 0.71032 0.08677 0.0
H294 H 0.70002 0.61747 0.09816 0.0
H295 H 0.64174 0.67646 0.96454 0.0
H296 H 0.67071 0.72074 0.03474 0.0
C297 C 0.91387 0.32573 0.60651 0.0
C298 C 0.9301 0.32401 0.60563 0.0
N299 N 0.93636 0.34478 0.6059 0.0
N300 N 0.90976 0.3475 0.60692 0.0
C301 C 0.92376 0.35877 0.60711 0.0
H302 H 0.90552 0.31196 0.60624 0.0
Co303 Co 0.88854 0.35747 0.60743 0.0
C304 C 0.89512 0.39648 0.55263 0.0
O305 O 0.88937 0.38582 0.5221 0.0
N306 N 0.8671 0.36747 0.60979 0.0
C307 C 0.84393 0.38391 0.59781 0.0
C308 C 0.85933 0.3815 0.58549 0.0
C309 C 0.85598 0.36156 0.6367 0.0
N310 N 0.84173 0.3713 0.63007 0.0
O311 O 0.89173 0.36771 0.66001 0.0
H312 H 0.86425 0.38941 0.55994 0.0
H313 H 0.85818 0.34987 0.66021 0.0
O314 O 0.89515 0.38713 0.58648 0.0
C315 C 0.89039 0.35008 0.68077 0.0
O316 O 0.88661 0.33117 0.66339 0.0
N317 N 0.88517 0.34409 0.5571 0.0
C318 C 0.88275 0.31201 0.49701 0.0
C319 C 0.89604 0.32617 0.49982 0.0
C320 C 0.89702 0.34201 0.52994 0.0
C321 C 0.87197 0.33088 0.55395 0.0
C322 C 0.87036 0.31525 0.52377 0.0
H323 H 0.90781 0.35169 0.53271 0.0
H324 H 0.86298 0.33109 0.57638 0.0
H325 H 0.92469 0.37682 0.6073 0.0
H326 H 0.93679 0.3086 0.60505 0.0
H327 H 0.83508 0.39434 0.584 0.0
H328 H 0.90611 0.32421 0.48053 0.0
H329 H 0.85973 0.30507 0.52272 0.0
C330 C 0.62387 0.3281 0.89573 0.0
C331 C 0.60768 0.32926 0.89839 0.0
N332 N 0.60339 0.35093 0.89801 0.0
N333 N 0.62998 0.34893 0.89386 0.0
C334 C 0.61716 0.3626 0.89489 0.0
H335 H 0.63083 0.31294 0.89554 0.0
Co336 Co 0.65208 0.35379 0.89129 0.0
C337 C 0.65535 0.39427 0.94291 0.0
O338 O 0.66471 0.3832 0.96656 0.0
N339 N 0.67482 0.35815 0.88787 0.0
C340 C 0.70058 0.35921 0.90323 0.0
C341 C 0.68548 0.35768 0.91758 0.0
C342 C 0.68414 0.35979 0.85535 0.0
N343 N 0.69987 0.36029 0.86391 0.0
O344 O 0.64958 0.36459 0.83887 0.0
H345 H 0.68281 0.35493 0.94809 0.0
H346 H 0.67958 0.35962 0.82575 0.0
O347 O 0.64941 0.38445 0.91282 0.0
C348 C 0.64885 0.34649 0.81907 0.0
O349 O 0.65112 0.32742 0.83734 0.0
N350 N 0.65398 0.33989 0.9404 0.0
C351 C 0.65358 0.30916 0.00207 0.0
C352 C 0.64505 0.32929 0.00465 0.0
C353 C 0.6452 0.34433 0.97312 0.0
C354 C 0.66195 0.32019 0.93721 0.0
C355 C 0.66215 0.30484 0.96778 0.0
H356 H 0.6377 0.35895 0.97419 0.0
H357 H 0.66775 0.31596 0.90994 0.0
H358 H 0.61792 0.38067 0.89415 0.0
H359 H 0.59964 0.31514 0.90014 0.0
H360 H 0.71128 0.35898 0.92073 0.0
H361 H 0.63802 0.33311 0.03031 0.0
H362 H 0.66837 0.2892 0.96367 0.0
C363 C 0.90844 0.69628 0.38416 0.0
C364 C 0.92456 0.6997 0.38554 0.0
N365 N 0.93178 0.67978 0.39034 0.0
N366 N 0.90536 0.67432 0.38835 0.0
C367 C 0.9198 0.66461 0.3917 0.0
H368 H 0.8995 0.70896 0.37975 0.0
Co369 Co 0.88491 0.66217 0.38539 0.0
C370 C 0.88544 0.62546 0.44313 0.0
O371 O 0.87262 0.63431 0.45845 0.0
N372 N 0.864 0.64956 0.37985 0.0
C373 C 0.84605 0.6238 0.36268 0.0
C374 C 0.86129 0.62741 0.37514 0.0
C375 C 0.85009 0.65902 0.3683 0.0
N376 N 0.83889 0.6437 0.35806 0.0
O377 O 0.89025 0.64978 0.33562 0.0
H378 H 0.87022 0.61455 0.37691 0.0
H379 H 0.84855 0.67673 0.36412 0.0
O380 O 0.89199 0.63481 0.41338 0.0
C381 C 0.88465 0.66348 0.31062 0.0
O382 O 0.87667 0.68085 0.32334 0.0
N383 N 0.87983 0.67727 0.43264 0.0
C384 C 0.8768 0.70962 0.49188 0.0
C385 C 0.8877 0.69202 0.49554 0.0
C386 C 0.8892 0.67625 0.4654 0.0
C387 C 0.86925 0.69431 0.42872 0.0
C388 C 0.86725 0.71024 0.45821 0.0
H389 H 0.89869 0.66422 0.46725 0.0
H390 H 0.8633 0.69694 0.40126 0.0
H391 H 0.92147 0.64677 0.39486 0.0
H392 H 0.93048 0.71566 0.38213 0.0
H393 H 0.84118 0.60771 0.35441 0.0
H394 H 0.89577 0.69123 0.52022 0.0
H395 H 0.85879 0.72356 0.45366 0.0
C396 C 0.41657 0.33566 0.86991 0.0
C397 C 0.43281 0.33653 0.87035 0.0
N398 N 0.43731 0.35706 0.8822 0.0
N399 N 0.41069 0.35546 0.88176 0.0
C400 C 0.42367 0.36838 0.88881 0.0
H401 H 0.40941 0.3212 0.86257 0.0
Co402 Co 0.38877 0.35869 0.88837 0.0
C403 C 0.38538 0.39738 0.94257 0.0
O404 O 0.37578 0.38507 0.96378 0.0
N405 N 0.36584 0.36105 0.89415 0.0
C406 C 0.34103 0.35503 0.91508 0.0
C407 C 0.35681 0.35384 0.92454 0.0
C408 C 0.35483 0.36694 0.86674 0.0
N409 N 0.33972 0.36302 0.87844 0.0
O410 O 0.38764 0.37087 0.83656 0.0
H411 H 0.36122 0.34751 0.95209 0.0
H412 H 0.35771 0.37298 0.83779 0.0
O413 O 0.39172 0.38896 0.91177 0.0
C414 C 0.38423 0.35432 0.81436 0.0
O415 O 0.38082 0.33497 0.83058 0.0
N416 N 0.39075 0.34353 0.93617 0.0
C417 C 0.39673 0.31196 0.99453 0.0
C418 C 0.40245 0.33397 0.99822 0.0
C419 C 0.39967 0.34944 0.96806 0.0
C420 C 0.38543 0.3221 0.932 0.0
C421 C 0.38806 0.3062 0.96097 0.0
H422 H 0.40526 0.3657 0.96961 0.0
H423 H 0.37929 0.31725 0.90545 0.0
H424 H 0.42318 0.38528 0.9001 0.0
H425 H 0.44077 0.32298 0.86309 0.0
H426 H 0.33127 0.34988 0.93358 0.0
H427 H 0.40957 0.33886 0.02328 0.0
H428 H 0.38345 0.28942 0.95688 0.0
C429 C 0.12497 0.69364 0.3912 0.0
C430 C 0.10891 0.69701 0.39292 0.0
N431 N 0.10156 0.67695 0.3943 0.0
N432 N 0.12796 0.67154 0.39166 0.0
C433 C 0.11345 0.66171 0.3932 0.0
H434 H 0.13398 0.70651 0.38924 0.0
Co435 Co 0.14862 0.66011 0.38729 0.0
C436 C 0.14732 0.62311 0.44562 0.0
O437 O 0.15926 0.63263 0.46407 0.0
N438 N 0.16972 0.64884 0.38028 0.0
C439 C 0.19047 0.62621 0.37166 0.0
C440 C 0.17521 0.62776 0.38527 0.0
C441 C 0.18183 0.65932 0.36132 0.0
N442 N 0.19465 0.64605 0.35641 0.0
O443 O 0.14319 0.64844 0.33696 0.0
H444 H 0.16837 0.61361 0.39512 0.0
H445 H 0.18109 0.67616 0.34992 0.0
O446 O 0.14196 0.63192 0.41395 0.0
C447 C 0.14575 0.66489 0.31405 0.0
O448 O 0.15134 0.68363 0.32884 0.0
N449 N 0.15394 0.6746 0.43521 0.0
C450 C 0.15733 0.70657 0.49479 0.0
C451 C 0.14572 0.68979 0.49737 0.0
C452 C 0.14404 0.67421 0.467 0.0
C453 C 0.16554 0.69051 0.43293 0.0
C454 C 0.16756 0.70643 0.4625 0.0
H455 H 0.1341 0.66277 0.46785 0.0
H456 H 0.17251 0.69224 0.40676 0.0
H457 H 0.11167 0.64378 0.39339 0.0
H458 H 0.10311 0.71312 0.3921 0.0
H459 H 0.19756 0.61115 0.37057 0.0
H460 H 0.13729 0.6896 0.52129 0.0
H461 H 0.1766 0.71919 0.45915 0.0
C462 C 0.41097 0.69809 0.11435 0.0
C463 C 0.42706 0.69989 0.11841 0.0
N464 N 0.43319 0.6792 0.1219 0.0
N465 N 0.40674 0.67634 0.11489 0.0
C466 C 0.42056 0.66511 0.11952 0.0
H467 H 0.40276 0.71182 0.11099 0.0
Co468 Co 0.38528 0.66797 0.1117 0.0
C469 C 0.38888 0.62735 0.05949 0.0
O470 O 0.38184 0.63754 0.0303 0.0
N471 N 0.36316 0.66016 0.10981 0.0
C472 C 0.33833 0.65363 0.08972 0.0
C473 C 0.35388 0.65582 0.07826 0.0
C474 C 0.35272 0.66041 0.14015 0.0
N475 N 0.33758 0.65658 0.12875 0.0
O476 O 0.38645 0.65799 0.16511 0.0
H477 H 0.35778 0.65578 0.04822 0.0
H478 H 0.3559 0.66442 0.16996 0.0
O479 O 0.39098 0.63747 0.09233 0.0
C480 C 0.38539 0.67575 0.18572 0.0
O481 O 0.38262 0.69483 0.16796 0.0
N482 N 0.38444 0.68105 0.06127 0.0
C483 C 0.3871 0.7123 0.0005 0.0
C484 C 0.39762 0.6942 0.0031 0.0
C485 C 0.39625 0.67897 0.03405 0.0
C486 C 0.37403 0.6984 0.05879 0.0
C487 C 0.37498 0.71395 0.02843 0.0
H488 H 0.40529 0.66635 0.03756 0.0
H489 H 0.36557 0.70117 0.08207 0.0
H490 H 0.42131 0.64709 0.12175 0.0
H491 H 0.43375 0.71537 0.11816 0.0
H492 H 0.32829 0.65068 0.07058 0.0
H493 H 0.40722 0.6923 0.98236 0.0
H494 H 0.36691 0.728 0.02849 0.0
C495 C 0.12623 0.32463 0.61273 0.0
C496 C 0.10999 0.32354 0.61128 0.0
N497 N 0.10427 0.34454 0.61013 0.0
N498 N 0.1309 0.34621 0.61218 0.0
C499 C 0.11721 0.35805 0.61109 0.0
H500 H 0.13423 0.31053 0.61346 0.0
Co501 Co 0.15246 0.35462 0.61231 0.0
C502 C 0.14818 0.39332 0.55501 0.0
O503 O 0.15421 0.38223 0.52541 0.0
N504 N 0.17434 0.36281 0.61393 0.0
C505 C 0.19859 0.37528 0.59962 0.0
C506 C 0.18331 0.37274 0.58615 0.0
C507 C 0.18466 0.35918 0.64385 0.0
N508 N 0.19948 0.36678 0.63608 0.0
O509 O 0.14983 0.36671 0.66397 0.0
H510 H 0.17934 0.37735 0.55733 0.0
H511 H 0.1814 0.35107 0.67094 0.0
O512 O 0.14712 0.38418 0.58895 0.0
C513 C 0.15007 0.35006 0.68727 0.0
O514 O 0.15241 0.32997 0.67279 0.0
N515 N 0.1551 0.33976 0.56352 0.0
C516 C 0.15618 0.30714 0.50459 0.0
C517 C 0.14439 0.32362 0.50434 0.0
C518 C 0.14385 0.33947 0.53453 0.0
C519 C 0.16676 0.32396 0.56369 0.0
C520 C 0.1676 0.30768 0.5344 0.0
H521 H 0.1339 0.3508 0.53566 0.0
H522 H 0.17492 0.32291 0.58808 0.0
H523 H 0.11674 0.37613 0.61002 0.0
H524 H 0.10291 0.3084 0.61117 0.0
H525 H 0.20838 0.38234 0.58326 0.0
H526 H 0.1351 0.32344 0.48238 0.0
H527 H 0.1768 0.29511 0.53591 0.0
H528 H 0.19987 0.16839 0.20932 0.0
H529 H 0.22352 0.16936 0.25058 0.0
H530 H 0.24914 0.13175 0.16357 0.0
H531 H 0.22554 0.12988 0.12295 0.0
H532 H 0.25642 0.11659 0.23263 0.0
H533 H 0.25281 0.18954 0.17548 0.0
H534 H 0.24042 0.22568 0.15949 0.0
H535 H 0.23765 0.24185 0.28194 0.0
H536 H 0.2497 0.20556 0.29876 0.0
H537 H 0.33506 0.13885 0.30115 0.0
H538 H 0.31088 0.13736 0.26127 0.0
H539 H 0.28525 0.17154 0.35256 0.0
H540 H 0.30934 0.17359 0.39198 0.0
H541 H 0.27793 0.1886 0.28205 0.0
H542 H 0.28115 0.11509 0.3386 0.0
H543 H 0.29388 0.07906 0.35392 0.0
H544 H 0.29804 0.06459 0.23103 0.0
H545 H 0.28551 0.10069 0.21497 0.0
C546 C 0.21045 0.16021 0.19882 0.0
C547 C 0.21064 0.14939 0.16207 0.0
C548 C 0.22407 0.16094 0.2225 0.0
C549 C 0.23829 0.15101 0.20999 0.0
C550 C 0.23841 0.13971 0.17391 0.0
C551 C 0.22481 0.13886 0.15037 0.0
C552 C 0.25309 0.1523 0.23417 0.0
C553 C 0.26119 0.1324 0.243 0.0
C554 C 0.25927 0.17284 0.24848 0.0
C555 C 0.25199 0.19468 0.23841 0.0
C556 C 0.24942 0.20069 0.19904 0.0
C557 C 0.24247 0.22122 0.18982 0.0
C558 C 0.23822 0.23603 0.21968 0.0
C559 C 0.24096 0.23036 0.25883 0.0
C560 C 0.24782 0.20979 0.26823 0.0
C561 C 0.32431 0.14615 0.31267 0.0
C562 C 0.32421 0.15617 0.35005 0.0
C563 C 0.31043 0.14514 0.28993 0.0
C564 C 0.29613 0.15414 0.30402 0.0
C565 C 0.29607 0.16441 0.34103 0.0
C566 C 0.30989 0.16535 0.36378 0.0
C567 C 0.28122 0.15293 0.28036 0.0
C568 C 0.27311 0.17282 0.27166 0.0
C569 C 0.27506 0.13242 0.266 0.0
C570 C 0.28254 0.11069 0.27559 0.0
C571 C 0.28489 0.1043 0.31484 0.0
C572 C 0.29204 0.08385 0.32366 0.0
C573 C 0.2968 0.06957 0.29347 0.0
C574 C 0.29437 0.07569 0.25439 0.0
C575 C 0.28723 0.09613 0.24541 0.0
H576 H 0.30234 0.05375 0.30035 0.0
H577 H 0.23283 0.25191 0.21249 0.0
H578 H 0.2251 0.87988 0.87533 0.0
H579 H 0.2481 0.88184 0.83183 0.0
H580 H 0.22177 0.84733 0.74168 0.0
H581 H 0.19847 0.84575 0.78507 0.0
H582 H 0.2552 0.8304 0.76205 0.0
H583 H 0.22647 0.89589 0.72206 0.0
H584 H 0.2118 0.93091 0.73314 0.0
H585 H 0.25256 0.95968 0.78977 0.0
H586 H 0.26741 0.92469 0.77957 0.0
H587 H 0.31957 0.8492 0.62647 0.0
H588 H 0.29337 0.84409 0.65689 0.0
H589 H 0.30408 0.89711 0.73887 0.0
H590 H 0.32978 0.90261 0.70782 0.0
H591 H 0.27599 0.90317 0.71454 0.0
H592 H 0.30396 0.83859 0.76237 0.0
H593 H 0.31925 0.80364 0.75696 0.0
H594 H 0.28119 0.7732 0.69207 0.0
H595 H 0.26575 0.80809 0.69667 0.0
C596 C 0.22419 0.87273 0.84625 0.0
C597 C 0.21 0.86254 0.83374 0.0
C598 C 0.23733 0.87389 0.8214 0.0
C599 C 0.23668 0.86462 0.78362 0.0
C600 C 0.22254 0.85448 0.77082 0.0
C601 C 0.20922 0.85371 0.79549 0.0
C602 C 0.25091 0.86576 0.75794 0.0
C603 C 0.25963 0.84621 0.75089 0.0
C604 C 0.25687 0.88646 0.74436 0.0
C605 C 0.24801 0.90759 0.75033 0.0
C606 C 0.23226 0.90961 0.73718 0.0
C607 C 0.22392 0.92947 0.74324 0.0
C608 C 0.23123 0.94749 0.76222 0.0
C609 C 0.24691 0.9457 0.7751 0.0
C610 C 0.2553 0.92587 0.76914 0.0
C611 C 0.31629 0.8596 0.65114 0.0
C612 C 0.32665 0.87643 0.6645 0.0
C613 C 0.30133 0.85667 0.66862 0.0
C614 C 0.29663 0.87018 0.70043 0.0
C615 C 0.30722 0.88661 0.71419 0.0
C616 C 0.32197 0.88975 0.69641 0.0
C617 C 0.28067 0.86782 0.71919 0.0
C618 C 0.27157 0.88721 0.72508 0.0
C619 C 0.27453 0.84699 0.73226 0.0
C620 C 0.28379 0.82603 0.72943 0.0
C621 C 0.29891 0.8245 0.74666 0.0
C622 C 0.30759 0.8047 0.7438 0.0
C623 C 0.30122 0.78624 0.72407 0.0
C624 C 0.28613 0.78753 0.70727 0.0
C625 C 0.2774 0.80731 0.71 0.0
H626 H 0.30796 0.77091 0.72189 0.0
H627 H 0.22475 0.96286 0.76689 0.0
H628 H 0.70322 0.85422 0.69945 0.0
H629 H 0.7279 0.85452 0.73695 0.0
H630 H 0.75272 0.88137 0.63694 0.0
H631 H 0.728 0.88085 0.59915 0.0
H632 H 0.76938 0.84876 0.66746 0.0
H633 H 0.74417 0.91367 0.7205 0.0
H634 H 0.72246 0.93523 0.75051 0.0
H635 H 0.72335 0.89221 0.85122 0.0
H636 H 0.74493 0.8702 0.82159 0.0
H637 H 0.83978 0.87257 0.78457 0.0
H638 H 0.81673 0.87519 0.74067 0.0
H639 H 0.78778 0.84212 0.82713 0.0
H640 H 0.81059 0.83876 0.87024 0.0
H641 H 0.77422 0.88102 0.80093 0.0
H642 H 0.79649 0.81383 0.74536 0.0
H643 H 0.81624 0.78953 0.71352 0.0
H644 H 0.82054 0.83626 0.61859 0.0
H645 H 0.80067 0.86074 0.64972 0.0
C646 C 0.71384 0.86061 0.68565 0.0
C647 C 0.71357 0.86762 0.64629 0.0
C648 C 0.72801 0.86074 0.70714 0.0
C649 C 0.74225 0.86821 0.69004 0.0
C650 C 0.74195 0.8755 0.65089 0.0
C651 C 0.7278 0.87521 0.62929 0.0
C652 C 0.75749 0.86758 0.71252 0.0
C653 C 0.77051 0.85624 0.69633 0.0
C654 C 0.75897 0.87686 0.7506 0.0
C655 C 0.74609 0.89019 0.76867 0.0
C656 C 0.73967 0.90872 0.74894 0.0
C657 C 0.7274 0.92103 0.7659 0.0
C658 C 0.72151 0.91506 0.80271 0.0
C659 C 0.72792 0.8968 0.82269 0.0
C660 C 0.74018 0.88443 0.80585 0.0
C661 C 0.82857 0.8656 0.79406 0.0
C662 C 0.8271 0.85579 0.83145 0.0
C663 C 0.81538 0.86712 0.76889 0.0
C664 C 0.80046 0.85899 0.7807 0.0
C665 C 0.7991 0.84874 0.81748 0.0
C666 C 0.81222 0.847 0.84233 0.0
C667 C 0.786 0.86201 0.75601 0.0
C668 C 0.77313 0.87384 0.77183 0.0
C669 C 0.78465 0.85317 0.71765 0.0
C670 C 0.79725 0.83921 0.70006 0.0
C671 C 0.80177 0.81903 0.7179 0.0
C672 C 0.81287 0.80513 0.6998 0.0
C673 C 0.81961 0.81133 0.66401 0.0
C674 C 0.81528 0.83146 0.64627 0.0
C675 C 0.80407 0.84531 0.66405 0.0
H676 H 0.82825 0.80058 0.65012 0.0
H677 H 0.712 0.92461 0.81578 0.0
H678 H 0.72855 0.15203 0.39572 0.0
H679 H 0.75258 0.15363 0.3559 0.0
H680 H 0.72411 0.15459 0.25081 0.0
H681 H 0.69998 0.15258 0.29057 0.0
H682 H 0.7482 0.12479 0.24498 0.0
H683 H 0.74289 0.20148 0.28392 0.0
H684 H 0.74002 0.23292 0.33015 0.0
H685 H 0.78424 0.21571 0.38469 0.0
H686 H 0.78727 0.18393 0.33918 0.0
H687 H 0.80852 0.15027 0.10944 0.0
H688 H 0.78492 0.15186 0.15051 0.0
H689 H 0.81435 0.15489 0.25392 0.0
H690 H 0.83813 0.15367 0.21267 0.0
H691 H 0.79003 0.1826 0.26166 0.0
H692 H 0.79535 0.10585 0.22525 0.0
H693 H 0.79869 0.07399 0.1801 0.0
H694 H 0.75493 0.09052 0.12268 0.0
H695 H 0.75144 0.1227 0.16715 0.0
C696 C 0.72736 0.15252 0.36414 0.0
C697 C 0.71226 0.15211 0.34644 0.0
C698 C 0.74115 0.15365 0.34137 0.0
C699 C 0.74023 0.15441 0.30026 0.0
C700 C 0.72517 0.15408 0.28245 0.0
C701 C 0.71135 0.1531 0.30526 0.0
C702 C 0.75495 0.15476 0.27588 0.0
C703 C 0.75722 0.13764 0.24824 0.0
C704 C 0.76703 0.17108 0.28092 0.0
C705 C 0.7652 0.19014 0.30843 0.0
C706 C 0.75193 0.20424 0.30603 0.0
C707 C 0.75029 0.22216 0.33206 0.0
C708 C 0.76191 0.22626 0.36043 0.0
C709 C 0.77523 0.21248 0.36276 0.0
C710 C 0.77691 0.19452 0.33685 0.0
C711 C 0.81001 0.15116 0.14091 0.0
C712 C 0.82527 0.15154 0.15769 0.0
C713 C 0.79646 0.15206 0.16445 0.0
C714 C 0.79776 0.15302 0.2055 0.0
C715 C 0.81298 0.15404 0.22237 0.0
C716 C 0.82659 0.15337 0.19873 0.0
C717 C 0.78321 0.15272 0.23056 0.0
C718 C 0.78099 0.16977 0.25838 0.0
C719 C 0.77121 0.13623 0.22596 0.0
C720 C 0.77321 0.11681 0.19931 0.0
C721 C 0.7865 0.10279 0.20282 0.0
C722 C 0.78841 0.08466 0.17737 0.0
C723 C 0.77705 0.08027 0.14848 0.0
C724 C 0.76373 0.09396 0.14505 0.0
C725 C 0.76177 0.11214 0.17039 0.0
H726 H 0.77856 0.06622 0.1288 0.0
H727 H 0.76062 0.24015 0.38053 0.0
H728 H 0.71384 0.61265 0.16146 0.0
H729 H 0.7378 0.61662 0.20162 0.0
H730 H 0.73212 0.68823 0.20192 0.0
H731 H 0.70789 0.6843 0.16211 0.0
H732 H 0.76522 0.66916 0.18457 0.0
H733 H 0.72256 0.66777 0.27902 0.0
H734 H 0.69788 0.65185 0.30602 0.0
H735 H 0.72156 0.58961 0.32779 0.0
H736 H 0.74631 0.60503 0.30022 0.0
H737 H 0.82738 0.68208 0.32432 0.0
H738 H 0.80213 0.68665 0.29035 0.0
H739 H 0.79021 0.61786 0.31481 0.0
H740 H 0.81477 0.6136 0.35104 0.0
H741 H 0.76494 0.64008 0.32078 0.0
H742 H 0.80604 0.63782 0.22307 0.0
H743 H 0.83079 0.65011 0.19107 0.0
H744 H 0.81077 0.71505 0.17105 0.0
H745 H 0.78598 0.70324 0.20349 0.0
C746 C 0.71775 0.62925 0.16982 0.0
C747 C 0.70898 0.64816 0.1586 0.0
C748 C 0.73141 0.6315 0.19285 0.0
C749 C 0.73675 0.65272 0.20471 0.0
C750 C 0.72822 0.67171 0.193 0.0
C751 C 0.71434 0.66944 0.17052 0.0
C752 C 0.75098 0.65477 0.23036 0.0
C753 C 0.76514 0.66323 0.21462 0.0
C754 C 0.75094 0.64649 0.26917 0.0
C755 C 0.73625 0.6375 0.28723 0.0
C756 C 0.72248 0.65065 0.28938 0.0
C757 C 0.70848 0.64172 0.30479 0.0
C758 C 0.70814 0.6197 0.31846 0.0
C759 C 0.72184 0.60665 0.31711 0.0
C760 C 0.73586 0.61548 0.30163 0.0
C761 C 0.81935 0.66797 0.32315 0.0
C762 C 0.82346 0.64729 0.34011 0.0
C763 C 0.80489 0.67056 0.30316 0.0
C764 C 0.79431 0.65245 0.29897 0.0
C765 C 0.79812 0.63211 0.31717 0.0
C766 C 0.81239 0.62961 0.33761 0.0
C767 C 0.77946 0.65422 0.27499 0.0
C768 C 0.76511 0.64639 0.29097 0.0
C769 C 0.77943 0.6627 0.23609 0.0
C770 C 0.79423 0.66973 0.21611 0.0
C771 C 0.80696 0.65477 0.21205 0.0
C772 C 0.82099 0.66164 0.19383 0.0
C773 C 0.82237 0.68337 0.17915 0.0
C774 C 0.8097 0.69824 0.18252 0.0
C775 C 0.79565 0.69147 0.20082 0.0
H776 H 0.83325 0.68866 0.16508 0.0
H777 H 0.69727 0.61273 0.33009 0.0
H778 H 0.83831 0.35835 0.70633 0.0
H779 H 0.81351 0.35499 0.74326 0.0
H780 H 0.78713 0.37561 0.6413 0.0
H781 H 0.81166 0.37856 0.60406 0.0
H782 H 0.77764 0.39797 0.70721 0.0
H783 H 0.78715 0.32233 0.66837 0.0
H784 H 0.80157 0.28673 0.66209 0.0
H785 H 0.80314 0.28035 0.7874 0.0
H786 H 0.78904 0.31618 0.79449 0.0
H787 H 0.70091 0.37447 0.7877 0.0
H788 H 0.72413 0.37506 0.74445 0.0
H789 H 0.7527 0.34708 0.83707 0.0
H790 H 0.72968 0.34543 0.87933 0.0
H791 H 0.76039 0.32788 0.77222 0.0
H792 H 0.75315 0.40453 0.81185 0.0
H793 H 0.7385 0.43991 0.81935 0.0
H794 H 0.73285 0.44427 0.69444 0.0
H795 H 0.74731 0.40875 0.68625 0.0
C796 C 0.82724 0.36188 0.69155 0.0
C797 C 0.82712 0.36876 0.65205 0.0
C798 C 0.81304 0.36001 0.71278 0.0
C799 C 0.7984 0.36493 0.69504 0.0
C800 C 0.79825 0.3718 0.65573 0.0
C801 C 0.81237 0.37357 0.63447 0.0
C802 C 0.78324 0.36335 0.71749 0.0
C803 C 0.77377 0.38255 0.72102 0.0
C804 C 0.77829 0.34337 0.73615 0.0
C805 C 0.78718 0.32211 0.73196 0.0
C806 C 0.79075 0.3135 0.69461 0.0
C807 C 0.79882 0.29323 0.6909 0.0
C808 C 0.80326 0.28127 0.72432 0.0
C809 C 0.79966 0.28959 0.76153 0.0
C810 C 0.79165 0.30991 0.76541 0.0
C811 C 0.71209 0.36826 0.79873 0.0
C812 C 0.71333 0.36022 0.83742 0.0
C813 C 0.72544 0.36879 0.77405 0.0
C814 C 0.74033 0.36145 0.78758 0.0
C815 C 0.74145 0.35296 0.8258 0.0
C816 C 0.72819 0.3523 0.85026 0.0
C817 C 0.75488 0.36259 0.76253 0.0
C818 C 0.76424 0.3433 0.75841 0.0
C819 C 0.75981 0.38252 0.74361 0.0
C820 C 0.75115 0.40387 0.74847 0.0
C821 C 0.74868 0.41295 0.78601 0.0
C822 C 0.74043 0.43304 0.79038 0.0
C823 C 0.73471 0.44429 0.7574 0.0
C824 C 0.73726 0.43551 0.71997 0.0
C825 C 0.74549 0.41541 0.71544 0.0
H826 H 0.72833 0.45985 0.76085 0.0
H827 H 0.80951 0.26558 0.72139 0.0
H828 H 0.20559 0.33763 0.69544 0.0
H829 H 0.22933 0.33619 0.73675 0.0
H830 H 0.24878 0.39289 0.67506 0.0
H831 H 0.22523 0.39421 0.63355 0.0
H832 H 0.27134 0.36257 0.6866 0.0
H833 H 0.23096 0.3969 0.76772 0.0
H834 H 0.20479 0.39798 0.79986 0.0
H835 H 0.21607 0.33838 0.86408 0.0
H836 H 0.24215 0.33663 0.83163 0.0
H837 H 0.33314 0.39155 0.81852 0.0
H838 H 0.30893 0.39261 0.77869 0.0
H839 H 0.28962 0.33762 0.84525 0.0
H840 H 0.31354 0.33682 0.88541 0.0
H841 H 0.26692 0.36611 0.83151 0.0
H842 H 0.30596 0.33002 0.75249 0.0
H843 H 0.33276 0.32761 0.72398 0.0
H844 H 0.32421 0.38728 0.6574 0.0
H845 H 0.29742 0.39022 0.68594 0.0
C846 C 0.21487 0.34984 0.69079 0.0
C847 C 0.21341 0.36599 0.66102 0.0
C848 C 0.22848 0.34901 0.71445 0.0
C849 C 0.24088 0.36458 0.7094 0.0
C850 C 0.23948 0.38061 0.67955 0.0
C851 C 0.22595 0.38133 0.65573 0.0
C852 C 0.25519 0.36451 0.73541 0.0
C853 C 0.27034 0.3636 0.71825 0.0
C854 C 0.25401 0.3652 0.77687 0.0
C855 C 0.23846 0.36655 0.79703 0.0
C856 C 0.22782 0.38395 0.78853 0.0
C857 C 0.21299 0.38465 0.80675 0.0
C858 C 0.20874 0.3682 0.83387 0.0
C859 C 0.21934 0.35105 0.84294 0.0
C860 C 0.23415 0.3502 0.82465 0.0
C861 C 0.32373 0.37971 0.82463 0.0
C862 C 0.32534 0.36414 0.85524 0.0
C863 C 0.30987 0.38029 0.80182 0.0
C864 C 0.29742 0.36498 0.80851 0.0
C865 C 0.29893 0.34968 0.83946 0.0
C866 C 0.31268 0.34927 0.86251 0.0
C867 C 0.28304 0.3644 0.78268 0.0
C868 C 0.2679 0.3651 0.79985 0.0
C869 C 0.2842 0.36312 0.74129 0.0
C870 C 0.29975 0.36046 0.72162 0.0
C871 C 0.30979 0.34259 0.73168 0.0
C872 C 0.32498 0.34116 0.71561 0.0
C873 C 0.33021 0.35737 0.68912 0.0
C874 C 0.32015 0.37479 0.67804 0.0
C875 C 0.30495 0.37633 0.6941 0.0
H876 H 0.34208 0.35645 0.67737 0.0
H877 H 0.19727 0.36878 0.84798 0.0
H878 H 0.22389 0.63126 0.37489 0.0
H879 H 0.2483 0.63614 0.33699 0.0
H880 H 0.22285 0.67564 0.25214 0.0
H881 H 0.19835 0.67091 0.29036 0.0
H882 H 0.24139 0.64071 0.21901 0.0
H883 H 0.24787 0.70134 0.31003 0.0
H884 H 0.249 0.71894 0.37538 0.0
H885 H 0.28765 0.67617 0.40772 0.0
H886 H 0.2866 0.65807 0.34273 0.0
H887 H 0.30843 0.67084 0.10679 0.0
H888 H 0.28437 0.67159 0.14638 0.0
H889 H 0.31027 0.64443 0.24449 0.0
H890 H 0.33457 0.64433 0.20505 0.0
H891 H 0.29104 0.67435 0.27081 0.0
H892 H 0.28428 0.61207 0.18437 0.0
H893 H 0.28335 0.59225 0.12096 0.0
H894 H 0.24552 0.63483 0.08243 0.0
H895 H 0.24637 0.65511 0.14545 0.0
C896 C 0.22354 0.64116 0.34834 0.0
C897 C 0.20921 0.65074 0.33565 0.0
C898 C 0.23751 0.64401 0.32678 0.0
C899 C 0.23745 0.65632 0.29174 0.0
C900 C 0.22319 0.66613 0.27913 0.0
C901 C 0.20923 0.66357 0.3011 0.0
C902 C 0.25215 0.65801 0.26761 0.0
C903 C 0.25217 0.64843 0.23003 0.0
C904 C 0.26639 0.66733 0.28251 0.0
C905 C 0.26706 0.6782 0.32161 0.0
C906 C 0.25652 0.69554 0.33119 0.0
C907 C 0.25716 0.70564 0.36815 0.0
C908 C 0.26836 0.69864 0.39572 0.0
C909 C 0.27897 0.68156 0.38635 0.0
C910 C 0.27836 0.67139 0.34944 0.0
C911 C 0.309 0.66489 0.13671 0.0
C912 C 0.32341 0.65727 0.15258 0.0
C913 C 0.29519 0.66529 0.1594 0.0
C914 C 0.2953 0.65759 0.19835 0.0
C915 C 0.30977 0.65039 0.21454 0.0
C916 C 0.32368 0.65031 0.19197 0.0
C917 C 0.28035 0.65702 0.22199 0.0
C918 C 0.28026 0.66673 0.25957 0.0
C919 C 0.26608 0.64746 0.20736 0.0
C920 C 0.2655 0.63525 0.16948 0.0
C921 C 0.27584 0.61731 0.16226 0.0
C922 C 0.27531 0.60598 0.12641 0.0
C923 C 0.26441 0.61232 0.09764 0.0
C924 C 0.25397 0.62996 0.10472 0.0
C925 C 0.25446 0.64137 0.14051 0.0
H926 H 0.26402 0.60352 0.0699 0.0
H927 H 0.26884 0.70648 0.42431 0.0
H928 H 0.94874 0.13676 0.13594 0.0
H929 H 0.97737 0.1288 0.13526 0.0
H930 H 0.98537 0.18791 0.06556 0.0
H931 H 0.95703 0.19564 0.0657 0.0
H932 H 1.00273 0.15341 0.03875 0.0
H933 H 0.99144 0.18764 0.16501 0.0
H934 H 0.97825 0.18981 0.22937 0.0
H935 H 0.99769 0.12607 0.26123 0.0
H936 H 1.01085 0.1234 0.19679 0.0
H937 H 0.07909 0.19508 0.06808 0.0
H938 H 0.05074 0.18731 0.0667 0.0
H939 H 0.05813 0.12778 0.13554 0.0
H940 H 0.08682 0.13579 0.13747 0.0
H941 H 0.03313 0.15313 0.1634 0.0
H942 H 0.04824 0.12229 0.04095 0.0
H943 H 0.06175 0.12076 0.97699 0.0
H944 H 0.03528 0.17771 0.93764 0.0
H945 H 0.02177 0.17981 0.00158 0.0
C946 C 0.95662 0.14785 0.12012 0.0
C947 C 0.95062 0.16696 0.10121 0.0
C948 C 0.97298 0.14339 0.11996 0.0
C949 C 0.9836 0.15788 0.10066 0.0
C950 C 0.97749 0.17649 0.08073 0.0
C951 C 0.96126 0.18101 0.08111 0.0
C952 C 1.00111 0.15438 0.10169 0.0
C953 C 1.00937 0.15336 0.06602 0.0
C954 C 1.00982 0.15355 0.13724 0.0
C955 C 1.00195 0.15518 0.17593 0.0
C956 C 0.99279 0.174 0.18562 0.0
C957 C 0.98534 0.17534 0.22212 0.0
C958 C 0.98708 0.15805 0.24932 0.0
C959 C 0.99632 0.13942 0.2401 0.0
C960 C 1.00378 0.13799 0.2036 0.0
C961 C 0.07474 0.18031 0.08294 0.0
C962 C 0.08523 0.16612 0.10307 0.0
C963 C 0.0585 0.17576 0.08185 0.0
C964 C 0.05225 0.15685 0.10073 0.0
C965 C 0.06267 0.14244 0.12063 0.0
C966 C 0.07906 0.14693 0.12149 0.0
C967 C 0.03475 0.15294 0.10038 0.0
C968 C 0.0265 0.15261 0.13613 0.0
C969 C 0.02602 0.15251 0.06487 0.0
C970 C 0.03404 0.15126 0.02619 0.0
C971 C 0.04537 0.13458 0.01876 0.0
C972 C 0.05302 0.1336 0.98248 0.0
C973 C 0.04939 0.14914 0.95329 0.0
C974 C 0.03807 0.16568 0.96028 0.0
C975 C 0.03039 0.16675 0.99653 0.0
H976 H 0.05533 0.14836 0.92522 0.0
H977 H 0.98131 0.15912 0.27757 0.0
H978 H 0.58753 0.88355 0.63573 0.0
H979 H 0.55876 0.89037 0.63104 0.0
H980 H 0.55198 0.82394 0.58441 0.0
H981 H 0.58044 0.81718 0.58906 0.0
H982 H 0.53436 0.85528 0.54455 0.0
H983 H 0.54534 0.83433 0.67952 0.0
H984 H 0.55826 0.83892 0.74397 0.0
H985 H 0.53789 0.90431 0.75555 0.0
H986 H 0.52502 0.90021 0.69086 0.0
H987 H 0.45668 0.81933 0.57824 0.0
H988 H 0.48522 0.82535 0.57737 0.0
H989 H 0.47908 0.8897 0.63238 0.0
H990 H 0.45029 0.88343 0.6344 0.0
H991 H 0.50325 0.86731 0.66601 0.0
H992 H 0.48909 0.88632 0.53571 0.0
H993 H 0.47607 0.88212 0.47135 0.0
H994 H 0.50237 0.82198 0.44993 0.0
H995 H 0.51539 0.82563 0.51443 0.0
C996 C 0.57987 0.87058 0.62406 0.0
C997 C 0.58621 0.84977 0.61309 0.0
C998 C 0.56345 0.87442 0.6216 0.0
C999 C 0.55316 0.85759 0.60765 0.0
C1000 C 0.55962 0.83717 0.59532 0.0
C1001 C 0.5759 0.83327 0.59823 0.0
C1002 C 0.53561 0.86056 0.60688 0.0
C1003 C 0.52756 0.85787 0.57111 0.0
C1004 C 0.5267 0.86466 0.6413 0.0
C1005 C 0.53439 0.86709 0.68017 0.0
C1006 C 0.54373 0.84976 0.69566 0.0
C1007 C 0.55103 0.85226 0.73225 0.0
C1008 C 0.54895 0.87193 0.75378 0.0
C1009 C 0.53953 0.88911 0.7388 0.0
C1010 C 0.53223 0.88671 0.70219 0.0
C1011 C 0.46132 0.83474 0.59037 0.0
C1012 C 0.45109 0.85084 0.60653 0.0
C1013 C 0.47771 0.83828 0.58946 0.0
C1014 C 0.48438 0.85811 0.60435 0.0
C1015 C 0.47424 0.8743 0.62052 0.0
C1016 C 0.45776 0.87077 0.62138 0.0
C1017 C 0.50196 0.86136 0.60377 0.0
C1018 C 0.51002 0.86519 0.63926 0.0
C1019 C 0.5109 0.85844 0.569 0.0
C1020 C 0.50315 0.85618 0.53006 0.0
C1021 C 0.49202 0.87211 0.5174 0.0
C1022 C 0.48465 0.86984 0.48087 0.0
C1023 C 0.48837 0.85178 0.45659 0.0
C1024 C 0.4995 0.83597 0.46877 0.0
C1025 C 0.50689 0.83814 0.5053 0.0
H1026 H 0.48265 0.85005 0.42832 0.0
H1027 H 0.55459 0.87383 0.78211 0.0
H1028 H 0.95961 0.84064 0.94536 0.0
H1029 H 0.98733 0.85229 0.94457 0.0
H1030 H 0.97727 0.89855 0.85084 0.0
H1031 H 0.9492 0.88667 0.85165 0.0
H1032 H 1.00297 0.87198 0.83442 0.0
H1033 H 0.98842 0.91977 0.93853 0.0
H1034 H 0.9755 0.93134 1.00002 0.0
H1035 H 1.00239 0.8826 0.0639 0.0
H1036 H 1.01545 0.87064 0.00279 0.0
H1037 H 0.08783 0.88741 0.85094 0.0
H1038 H 0.05974 0.89886 0.85119 0.0
H1039 H 0.04991 0.8498 0.94064 0.0
H1040 H 0.07769 0.83842 0.94017 0.0
H1041 H 0.03418 0.8898 0.95394 0.0
H1042 H 0.04368 0.83748 0.84622 0.0
H1043 H 0.05651 0.8259 0.78456 0.0
H1044 H 0.03868 0.88456 0.7271 0.0
H1045 H 0.02591 0.89663 0.78865 0.0
C1046 C 0.96325 0.85354 0.92497 0.0
C1047 C 0.95229 0.86269 0.89848 0.0
C1048 C 0.97909 0.86032 0.92469 0.0
C1049 C 0.98443 0.87644 0.89784 0.0
C1050 C 0.97342 0.88616 0.87196 0.0
C1051 C 0.9574 0.8795 0.87257 0.0
C1052 C 1.00175 0.88138 0.89533 0.0
C1053 C 1.00976 0.87656 0.86027 0.0
C1054 C 1.0107 0.88718 0.92905 0.0
C1055 C 1.00288 0.89425 0.96599 0.0
C1056 C 0.99152 0.91141 0.96564 0.0
C1057 C 0.98417 0.91806 1.00044 0.0
C1058 C 0.98808 0.90766 0.03581 0.0
C1059 C 0.99938 0.89064 0.03648 0.0
C1060 C 1.0068 0.88397 0.00178 0.0
C1061 C 0.07967 0.87947 0.8711 0.0
C1062 C 0.08485 0.86193 0.89533 0.0
C1063 C 0.06365 0.8859 0.87111 0.0
C1064 C 0.05267 0.87507 0.89576 0.0
C1065 C 0.05811 0.85842 0.9214 0.0
C1066 C 0.07396 0.85183 0.92097 0.0
C1067 C 0.03533 0.87957 0.89352 0.0
C1068 C 0.02734 0.88603 0.92777 0.0
C1069 C 0.02642 0.8754 0.85903 0.0
C1070 C 0.03404 0.8681 0.8221 0.0
C1071 C 0.04261 0.848 0.82051 0.0
C1072 C 0.04985 0.84133 0.78558 0.0
C1073 C 0.04846 0.85453 0.75197 0.0
C1074 C 0.03978 0.87438 0.75319 0.0
C1075 C 0.03255 0.88115 0.78808 0.0
H1076 H 0.05406 0.84933 0.72495 0.0
H1077 H 0.98236 0.91283 0.06271 0.0
H1078 H 0.57976 0.19754 0.42258 0.0
H1079 H 0.55138 0.1903 0.42391 0.0
H1080 H 0.55869 0.12675 0.36695 0.0
H1081 H 0.58744 0.13425 0.36481 0.0
H1082 H 0.5339 0.15002 0.33374 0.0
H1083 H 0.54829 0.12763 0.46217 0.0
H1084 H 0.56156 0.13024 0.52647 0.0
H1085 H 0.53544 0.18987 0.55295 0.0
H1086 H 0.52218 0.18783 0.48856 0.0
H1087 H 0.44912 0.13732 0.36283 0.0
H1088 H 0.47764 0.12862 0.36654 0.0
H1089 H 0.48646 0.19296 0.41972 0.0
H1090 H 0.45825 0.20154 0.41622 0.0
H1091 H 0.50305 0.15959 0.4563 0.0
H1092 H 0.49262 0.1849 0.32321 0.0
H1093 H 0.47951 0.18263 0.25863 0.0
H1094 H 0.49824 0.11663 0.24159 0.0
H1095 H 0.51128 0.11841 0.30639 0.0
C1096 C 0.5754 0.18202 0.41022 0.0
C1097 C 0.58591 0.16655 0.39333 0.0
C1098 C 0.55912 0.17778 0.41135 0.0
C1099 C 0.55283 0.15788 0.39589 0.0
C1100 C 0.56325 0.1422 0.37921 0.0
C1101 C 0.57968 0.14641 0.37825 0.0
C1102 C 0.5353 0.15421 0.39639 0.0
C1103 C 0.52717 0.15152 0.36068 0.0
C1104 C 0.52643 0.15637 0.43144 0.0
C1105 C 0.53429 0.15762 0.4704 0.0
C1106 C 0.54544 0.14139 0.48159 0.0
C1107 C 0.55296 0.14275 0.51808 0.0
C1108 C 0.54936 0.16022 0.54377 0.0
C1109 C 0.53821 0.17634 0.53303 0.0
C1110 C 0.53067 0.17507 0.49656 0.0
C1111 C 0.45717 0.14943 0.37569 0.0
C1112 C 0.45147 0.1702 0.38888 0.0
C1113 C 0.47345 0.14452 0.3776 0.0
C1114 C 0.48424 0.16022 0.39316 0.0
C1115 C 0.47842 0.18058 0.40756 0.0
C1116 C 0.46228 0.18555 0.40527 0.0
C1117 C 0.50169 0.15617 0.39358 0.0
C1118 C 0.5098 0.15748 0.42951 0.0
C1119 C 0.5105 0.15267 0.35879 0.0
C1120 C 0.50275 0.15167 0.31982 0.0
C1121 C 0.49383 0.16983 0.30583 0.0
C1122 C 0.48643 0.16865 0.26917 0.0
C1123 C 0.488 0.14947 0.24608 0.0
C1124 C 0.49701 0.13146 0.25955 0.0
C1125 C 0.50441 0.13255 0.29623 0.0
H1126 H 0.48226 0.14858 0.2177 0.0
H1127 H 0.55519 0.16126 0.572 0.0
H1128 H 0.44879 0.64126 0.09967 0.0
H1129 H 0.47768 0.63529 0.10112 0.0
H1130 H 0.48411 0.69985 0.15527 0.0
H1131 H 0.45559 0.70558 0.15513 0.0
H1132 H 0.5018 0.693 0.08473 0.0
H1133 H 0.4898 0.65636 0.20839 0.0
H1134 H 0.47676 0.6278 0.2494 0.0
H1135 H 0.49886 0.57573 0.18236 0.0
H1136 H 0.51187 0.60401 0.14057 0.0
H1137 H 0.58029 0.70782 0.13765 0.0
H1138 H 0.55159 0.70283 0.14195 0.0
H1139 H 0.55654 0.63357 0.10867 0.0
H1140 H 0.58548 0.63848 0.1054 0.0
H1141 H 0.53295 0.6379 0.16124 0.0
H1142 H 0.54628 0.67267 0.04047 0.0
H1143 H 0.55927 0.69993 0.99676 0.0
H1144 H 0.53421 0.75355 0.05271 0.0
H1145 H 0.52124 0.72664 0.09719 0.0
C1146 C 0.45635 0.65395 0.11258 0.0
C1147 C 0.44985 0.6741 0.12658 0.0
C1148 C 0.47285 0.65055 0.11327 0.0
C1149 C 0.48305 0.66725 0.12793 0.0
C1150 C 0.4765 0.68685 0.14341 0.0
C1151 C 0.46014 0.69016 0.14305 0.0
C1152 C 0.50059 0.66541 0.12507 0.0
C1153 C 0.50861 0.68103 0.10164 0.0
C1154 C 0.50945 0.64925 0.14591 0.0
C1155 C 0.50164 0.63229 0.17104 0.0
C1156 C 0.49175 0.63882 0.20213 0.0
C1157 C 0.48439 0.62269 0.22558 0.0
C1158 C 0.48693 0.59997 0.21841 0.0
C1159 C 0.49688 0.59334 0.18783 0.0
C1160 C 0.50425 0.60941 0.16427 0.0
C1161 C 0.57527 0.69148 0.13165 0.0
C1162 C 0.58509 0.67362 0.12076 0.0
C1163 C 0.55886 0.68862 0.134 0.0
C1164 C 0.55181 0.66796 0.12461 0.0
C1165 C 0.56166 0.64971 0.11581 0.0
C1166 C 0.57818 0.6525 0.11401 0.0
C1167 C 0.53418 0.66607 0.12194 0.0
C1168 C 0.52615 0.64972 0.144 0.0
C1169 C 0.52522 0.68137 0.09929 0.0
C1170 C 0.53287 0.69763 0.07235 0.0
C1171 C 0.54361 0.69029 0.04361 0.0
C1172 C 0.55096 0.70568 0.01869 0.0
C1173 C 0.54759 0.72846 0.022 0.0
C1174 C 0.53682 0.7359 0.0502 0.0
C1175 C 0.52945 0.72058 0.07525 0.0
H1176 H 0.5533 0.74036 0.00268 0.0
H1177 H 0.48123 0.5875 0.23661 0.0
H1178 H 0.08144 0.32198 0.57108 0.0
H1179 H 0.05314 0.32993 0.56962 0.0
H1180 H 0.06085 0.38864 0.64078 0.0
H1181 H 0.08949 0.38053 0.64252 0.0
H1182 H 0.0356 0.36257 0.66754 0.0
H1183 H 0.05088 0.39613 0.54797 0.0
H1184 H 0.06455 0.39951 0.48444 0.0
H1185 H 0.03838 0.34315 0.44009 0.0
H1186 H 0.02469 0.33924 0.50356 0.0
H1187 H 0.95146 0.38041 0.63925 0.0
H1188 H 0.98017 0.388 0.63913 0.0
H1189 H 0.98768 0.3291 0.56858 0.0
H1190 H 0.95923 0.32165 0.56838 0.0
H1191 H 1.00543 0.36445 0.54258 0.0
H1192 H 0.99362 0.32828 0.66706 0.0
H1193 H 0.98022 0.32533 0.73109 0.0
H1194 H 1.00011 0.3885 0.76609 0.0
H1195 H 1.01345 0.39195 0.70201 0.0
C1196 C 0.07716 0.33662 0.5864 0.0
C1197 C 0.08772 0.35056 0.6071 0.0
C1198 C 0.06095 0.34126 0.5853 0.0
C1199 C 0.05481 0.35997 0.60487 0.0
C1200 C 0.06531 0.37413 0.62536 0.0
C1201 C 0.08166 0.36959 0.62613 0.0
C1202 C 0.03734 0.3639 0.6046 0.0
C1203 C 0.02902 0.36356 0.64024 0.0
C1204 C 0.02868 0.36502 0.56904 0.0
C1205 C 0.03681 0.36732 0.53065 0.0
C1206 C 0.04811 0.38435 0.52477 0.0
C1207 C 0.05585 0.38638 0.48874 0.0
C1208 C 0.05235 0.37153 0.45826 0.0
C1209 C 0.04107 0.35465 0.46373 0.0
C1210 C 0.03329 0.35254 0.49971 0.0
C1211 C 0.95924 0.36926 0.6234 0.0
C1212 C 0.95306 0.35031 0.60413 0.0
C1213 C 0.97565 0.37353 0.62353 0.0
C1214 C 0.98614 0.35902 0.60409 0.0
C1215 C 0.97988 0.34054 0.58384 0.0
C1216 C 0.96359 0.33618 0.58402 0.0
C1217 C 1.00369 0.36236 0.60542 0.0
C1218 C 1.01202 0.36401 0.56991 0.0
C1219 C 1.01233 0.36262 0.6411 0.0
C1220 C 1.00436 0.3605 0.6796 0.0
C1221 C 0.99502 0.34162 0.68829 0.0
C1222 C 0.98746 0.33985 0.72461 0.0
C1223 C 0.98927 0.35676 0.75259 0.0
C1224 C 0.99869 0.37545 0.74435 0.0
C1225 C 1.00625 0.37731 0.70805 0.0
H1226 H 0.98341 0.35535 0.78069 0.0
H1227 H 0.05836 0.37312 0.43039 0.0
H1228 H 0.4595 0.33408 0.92141 0.0
H1229 H 0.48777 0.34283 0.9266 0.0
H1230 H 0.48041 0.40383 0.86183 0.0
H1231 H 0.45178 0.39514 0.85727 0.0
H1232 H 0.50612 0.37576 0.83322 0.0
H1233 H 0.48977 0.41059 0.95116 0.0
H1234 H 0.47527 0.41417 0.01351 0.0
H1235 H 0.5005 0.35788 0.06024 0.0
H1236 H 0.51498 0.35374 0.99793 0.0
H1237 H 0.59054 0.38758 0.8627 0.0
H1238 H 0.56233 0.39821 0.86232 0.0
H1239 H 0.5517 0.34278 0.93885 0.0
H1240 H 0.57961 0.33251 0.93979 0.0
H1241 H 0.53493 0.37855 0.96008 0.0
H1242 H 0.54682 0.33969 0.83803 0.0
H1243 H 0.56084 0.33495 0.77514 0.0
H1244 H 0.54366 0.3987 0.7361 0.0
H1245 H 0.5297 0.40392 0.79901 0.0
C1246 C 0.46388 0.34952 0.90881 0.0
C1247 C 0.45349 0.36397 0.88907 0.0
C1248 C 0.48003 0.35453 0.91179 0.0
C1249 C 0.48626 0.374 0.89464 0.0
C1250 C 0.47587 0.38873 0.87533 0.0
C1251 C 0.45955 0.38388 0.873 0.0
C1252 C 0.50373 0.37799 0.89592 0.0
C1253 C 0.51243 0.377 0.86089 0.0
C1254 C 0.51199 0.3793 0.932 0.0
C1255 C 0.50342 0.38179 0.96974 0.0
C1256 C 0.49216 0.39887 0.97462 0.0
C1257 C 0.48395 0.40102 0.00998 0.0
C1258 C 0.48695 0.38624 0.0408 0.0
C1259 C 0.49819 0.36932 0.03634 0.0
C1260 C 0.50642 0.36708 0.00101 0.0
C1261 C 0.58218 0.37796 0.87992 0.0
C1262 C 0.58728 0.35903 0.90087 0.0
C1263 C 0.56605 0.38392 0.87948 0.0
C1264 C 0.55477 0.37112 0.90017 0.0
C1265 C 0.56006 0.35292 0.92255 0.0
C1266 C 0.57605 0.34694 0.9228 0.0
C1267 C 0.53736 0.37557 0.89746 0.0
C1268 C 0.52865 0.37799 0.93231 0.0
C1269 C 0.5291 0.37554 0.8612 0.0
C1270 C 0.5374 0.37233 0.82336 0.0
C1271 C 0.54613 0.35276 0.81613 0.0
C1272 C 0.55405 0.34998 0.78048 0.0
C1273 C 0.55319 0.36655 0.75171 0.0
C1274 C 0.54435 0.3859 0.75846 0.0
C1275 C 0.53643 0.38878 0.79409 0.0
H1276 H 0.55933 0.36438 0.72414 0.0
H1277 H 0.48058 0.38792 0.06816 0.0
H1278 H 0.9479 0.64139 0.37308 0.0
H1279 H 0.97675 0.63622 0.37301 0.0
H1280 H 0.98308 0.70435 0.4117 0.0
H1281 H 0.9545 0.70952 0.41236 0.0
H1282 H 1.00193 0.69563 0.35092 0.0
H1283 H 0.98851 0.65929 0.47286 0.0
H1284 H 0.97571 0.63157 0.51604 0.0
H1285 H 0.99758 0.5782 0.45176 0.0
H1286 H 1.01031 0.60561 0.40775 0.0
H1287 H 0.07922 0.70559 0.4213 0.0
H1288 H 0.05058 0.70132 0.418 0.0
H1289 H 0.05599 0.63555 0.36812 0.0
H1290 H 0.08498 0.63991 0.37042 0.0
H1291 H 0.03151 0.63849 0.42658 0.0
H1292 H 0.04654 0.67479 0.30804 0.0
H1293 H 0.06049 0.70256 0.26719 0.0
H1294 H 0.03582 0.75575 0.32542 0.0
H1295 H 0.02189 0.72831 0.36707 0.0
C1296 C 0.95541 0.65518 0.38207 0.0
C1297 C 0.94875 0.67597 0.39233 0.0
C1298 C 0.97195 0.6522 0.38196 0.0
C1299 C 0.98218 0.66992 0.39226 0.0
C1300 C 0.97551 0.69047 0.40325 0.0
C1301 C 0.95908 0.69343 0.40344 0.0
C1302 C 0.99981 0.66768 0.39039 0.0
C1303 C 1.00835 0.68319 0.36771 0.0
C1304 C 1.00829 0.65097 0.4111 0.0
C1305 C 1.0002 0.6345 0.4367 0.0
C1306 C 0.99042 0.64164 0.46758 0.0
C1307 C 0.98321 0.62598 0.49228 0.0
C1308 C 0.98583 0.60315 0.48662 0.0
C1309 C 0.99556 0.5959 0.45609 0.0
C1310 C 1.00276 0.61148 0.43124 0.0
C1311 C 0.07444 0.69023 0.40929 0.0
C1312 C 0.08455 0.67327 0.39543 0.0
C1313 C 0.05798 0.68777 0.40765 0.0
C1314 C 0.05109 0.66826 0.39227 0.0
C1315 C 0.06104 0.6508 0.37999 0.0
C1316 C 0.07763 0.65331 0.38141 0.0
C1317 C 0.03349 0.66683 0.38807 0.0
C1318 C 0.02501 0.65068 0.40941 0.0
C1319 C 0.025 0.6829 0.36606 0.0
C1320 C 0.03325 0.69949 0.34088 0.0
C1321 C 0.04417 0.69242 0.31235 0.0
C1322 C 0.05207 0.7081 0.28901 0.0
C1323 C 0.04907 0.73091 0.29376 0.0
C1324 C 0.03814 0.73808 0.3218 0.0
C1325 C 0.03023 0.72246 0.34525 0.0
H1326 H 0.05519 0.74302 0.27567 0.0
H1327 H 0.98039 0.59106 0.50603 0.0
H1328 H 0.14692 0.08812 0.10478 0.0
H1329 H 0.14459 0.04813 0.08847 0.0
H1330 H 0.13508 0.06504 0.96786 0.0
H1331 H 0.13759 0.10474 0.9838 0.0
H1332 H 0.11665 0.02824 0.99502 0.0
H1333 H 0.1712 0.05359 0.9911 0.0
H1334 H 0.19512 0.07131 0.01908 0.0
H1335 H 0.19599 0.02237 0.11112 0.0
H1336 H 0.17189 1.00458 0.08401 0.0
H1337 H 0.13946 0.92653 0.89756 0.0
H1338 H 0.1353 0.96542 0.91855 0.0
H1339 H 0.15391 0.94941 0.03301 0.0
H1340 H 0.1585 0.91114 0.01203 0.0
H1341 H 0.16675 0.98594 0.01055 0.0
H1342 H 0.11327 0.95889 0.01394 0.0
H1343 H 0.08908 0.94107 0.98766 0.0
H1344 H 0.08553 0.99215 0.89971 0.0
H1345 H 0.10986 1.0101 0.92511 0.0
C1346 C 0.14398 0.08328 0.07503 0.0
C1347 C 0.14256 0.09955 0.04553 0.0
C1348 C 0.1427 0.06046 0.06568 0.0
C1349 C 0.13978 0.05358 0.02682 0.0
C1350 C 0.13732 0.06989 0.99798 0.0
C1351 C 0.13884 0.0926 0.00714 0.0
C1352 C 0.14083 0.02959 0.0152 0.0
C1353 C 0.12761 0.01896 0.99821 0.0
C1354 C 0.15506 0.01741 0.01976 0.0
C1355 C 0.16965 0.02792 0.0358 0.0
C1356 C 0.17642 0.04672 0.01748 0.0
C1357 C 0.19002 0.05676 0.03316 0.0
C1358 C 0.19704 0.04802 0.06693 0.0
C1359 C 0.19051 0.02916 0.08502 0.0
C1360 C 0.17689 0.01909 0.06951 0.0
C1361 C 0.14255 0.93133 0.92724 0.0
C1362 C 0.14942 0.91572 0.95295 0.0
C1363 C 0.14011 0.95355 0.93933 0.0
C1364 C 0.14423 0.96047 0.97756 0.0
C1365 C 0.15073 0.94468 0.00334 0.0
C1366 C 0.15333 0.92269 0.99122 0.0
C1367 C 0.14249 0.98423 0.99064 0.0
C1368 C 0.15568 0.99497 0.00765 0.0
C1369 C 0.12817 0.99637 0.98638 0.0
C1370 C 0.11348 0.98571 0.97119 0.0
C1371 C 0.1074 0.96623 0.98881 0.0
C1372 C 0.09365 0.95612 0.9741 0.0
C1373 C 0.0858 0.96543 0.94196 0.0
C1374 C 0.09165 0.98493 0.92456 0.0
C1375 C 0.10541 0.99509 0.93912 0.0
H1376 H 0.07516 0.95757 0.93061 0.0
H1377 H 0.20757 0.05581 0.07902 0.0
H1378 H 0.40327 0.93421 0.60328 0.0
H1379 H 0.40808 0.97305 0.5826 0.0
H1380 H 0.39019 0.95739 0.46726 0.0
H1381 H 0.38518 0.91886 0.48782 0.0
H1382 H 0.41703 0.9873 0.46701 0.0
H1383 H 0.36558 0.9778 0.52869 0.0
H1384 H 0.3481 0.9663 0.583 0.0
H1385 H 0.37191 0.01222 0.66026 0.0
H1386 H 0.38973 0.02368 0.60652 0.0
H1387 H 0.39123 0.09358 0.39423 0.0
H1388 H 0.39549 0.05447 0.41331 0.0
H1389 H 0.40072 0.07492 0.53411 0.0
H1390 H 0.39564 0.11357 0.51535 0.0
H1391 H 0.38227 0.04218 0.53358 0.0
H1392 H 0.43255 0.0545 0.47278 0.0
H1393 H 0.45103 0.06571 0.42037 0.0
H1394 H 0.43138 0.01545 0.34433 0.0
H1395 H 0.41261 1.00415 0.3961 0.0
C1396 C 0.40072 0.93895 0.57329 0.0
C1397 C 0.39374 0.92356 0.54725 0.0
C1398 C 0.40342 0.96114 0.56153 0.0
C1399 C 0.39939 0.96815 0.52341 0.0
C1400 C 0.39342 0.95238 0.49672 0.0
C1401 C 0.39049 0.93039 0.50861 0.0
C1402 C 0.39972 0.99223 0.51241 0.0
C1403 C 0.40943 0.99937 0.48141 0.0
C1404 C 0.38999 1.008 0.53163 0.0
C1405 C 0.3791 1.0014 0.56373 0.0
C1406 C 0.36716 0.98531 0.55734 0.0
C1407 C 0.35719 0.97882 0.58801 0.0
C1408 C 0.35892 0.98848 0.62509 0.0
C1409 C 0.37061 1.00471 0.63154 0.0
C1410 C 0.38065 0.01122 0.60099 0.0
C1411 C 0.39356 0.08968 0.42471 0.0
C1412 C 0.39303 0.10658 0.45332 0.0
C1413 C 0.39605 0.06732 0.43567 0.0
C1414 C 0.39852 0.06155 0.47529 0.0
C1415 C 0.39872 0.07872 0.50345 0.0
C1416 C 0.39587 0.10088 0.49266 0.0
C1417 C 0.39975 0.03767 0.48812 0.0
C1418 C 0.39015 0.03041 0.51937 0.0
C1419 C 0.40976 0.02192 0.46938 0.0
C1420 C 0.42107 0.02861 0.43822 0.0
C1421 C 0.43209 0.04595 0.44479 0.0
C1422 C 0.44263 0.0523 0.41521 0.0
C1423 C 0.44236 0.04134 0.37902 0.0
C1424 C 0.43157 0.02395 0.37237 0.0
C1425 C 0.42098 0.01754 0.40183 0.0
H1426 H 0.45053 0.04628 0.35615 0.0
H1427 H 0.35119 0.98343 0.6488 0.0
H1428 H 0.89775 0.9255 0.8978 0.0
H1429 H 0.90204 0.96443 0.9188 0.0
H1430 H 0.8812 0.94919 0.03113 0.0
H1431 H 0.87652 0.91094 0.01017 0.0
H1432 H 0.86939 0.986 0.00684 0.0
H1433 H 0.92194 0.95709 0.01687 0.0
H1434 H 0.94603 0.93816 0.99351 0.0
H1435 H 0.95289 0.98935 0.90689 0.0
H1436 H 0.92859 1.00835 0.9292 0.0
H1437 H 0.889 0.08752 0.10344 0.0
H1438 H 0.89126 0.04748 0.08771 0.0
H1439 H 0.90345 0.06401 0.96847 0.0
H1440 H 0.90106 0.10376 0.98383 0.0
H1441 H 0.9206 0.0267 0.99786 0.0
H1442 H 0.86658 0.05375 0.98763 0.0
H1443 H 0.84264 0.07218 0.01334 0.0
H1444 H 0.83938 0.02313 0.10489 0.0
H1445 H 0.86348 1.00462 0.08007 0.0
C1446 C 0.89417 0.93049 0.92699 0.0
C1447 C 0.88669 0.9151 0.95211 0.0
C1448 C 0.89668 0.95273 0.93908 0.0
C1449 C 0.89199 0.95985 0.97673 0.0
C1450 C 0.88482 0.9443 0.0019 0.0
C1451 C 0.88218 0.92231 0.98978 0.0
C1452 C 0.89396 0.98356 0.98994 0.0
C1453 C 0.88069 0.99469 0.00535 0.0
C1454 C 0.9086 0.99522 0.98763 0.0
C1455 C 0.92334 0.98402 0.97444 0.0
C1456 C 0.92851 0.96423 0.99264 0.0
C1457 C 0.94222 0.95349 0.9796 0.0
C1458 C 0.95099 0.96253 0.94869 0.0
C1459 C 0.94608 0.98235 0.9308 0.0
C1460 C 0.93233 0.99312 0.94362 0.0
C1461 C 0.89255 0.08259 0.07419 0.0
C1462 C 0.89473 0.09876 0.0448 0.0
C1463 C 0.89378 0.05973 0.06516 0.0
C1464 C 0.89739 0.05274 0.02676 0.0
C1465 C 0.90066 0.06895 0.99823 0.0
C1466 C 0.89921 0.09169 0.00705 0.0
C1467 C 0.8961 0.02879 0.015 0.0
C1468 C 0.90941 0.01777 0.99962 0.0
C1469 C 0.88155 0.01706 0.01773 0.0
C1470 C 0.86692 0.02795 0.03226 0.0
C1471 C 0.86082 0.04699 0.01341 0.0
C1472 C 0.84722 0.05744 0.0278 0.0
C1473 C 0.83952 0.04887 0.0608 0.0
C1474 C 0.84538 0.02978 0.07938 0.0
C1475 C 0.85901 0.0193 0.06516 0.0
H1476 H 0.82899 0.05699 0.07191 0.0
H1477 H 0.96161 0.95418 0.93864 0.0
H1478 H 0.64536 0.08756 0.40049 0.0
H1479 H 0.64233 0.04805 0.41885 0.0
H1480 H 0.63408 0.06754 0.53894 0.0
H1481 H 0.63754 0.10667 0.521 0.0
H1482 H 0.655 0.03648 0.53831 0.0
H1483 H 0.60427 0.04521 0.47732 0.0
H1484 H 0.58553 0.05518 0.42464 0.0
H1485 H 0.6069 1.00663 0.34861 0.0
H1486 H 0.62593 0.99659 0.40066 0.0
H1487 H 0.63852 0.92591 0.60618 0.0
H1488 H 0.63372 0.96519 0.58841 0.0
H1489 H 0.64712 0.95098 0.46904 0.0
H1490 H 0.65186 0.91207 0.48637 0.0
H1491 H 0.62181 0.97931 0.47162 0.0
H1492 H 0.67363 0.97314 0.53146 0.0
H1493 H 0.69232 0.96323 0.58431 0.0
H1494 H 0.66819 1.00752 0.66322 0.0
H1495 H 0.64922 0.01745 0.61093 0.0
C1496 C 0.64261 0.08338 0.43062 0.0
C1497 C 0.64179 0.10023 0.4593 0.0
C1498 C 0.64086 0.06078 0.44115 0.0
C1499 C 0.63796 0.05468 0.48041 0.0
C1500 C 0.63644 0.07167 0.50857 0.0
C1501 C 0.63838 0.0941 0.4982 0.0
C1502 C 0.63758 0.03073 0.49298 0.0
C1503 C 0.64748 0.02413 0.5241 0.0
C1504 C 0.62807 0.01434 0.47413 0.0
C1505 C 0.61662 0.0203 0.44279 0.0
C1506 C 0.60506 0.03678 0.44926 0.0
C1507 C 0.59437 0.04242 0.41953 0.0
C1508 C 0.59505 0.03158 0.38327 0.0
C1509 C 0.6064 0.01503 0.3767 0.0
C1510 C 0.61713 1.00935 0.40632 0.0
C1511 C 0.64022 0.93113 0.57607 0.0
C1512 C 0.64573 0.91589 0.54783 0.0
C1513 C 0.63753 0.95358 0.56596 0.0
C1514 C 0.64021 0.96112 0.5274 0.0
C1515 C 0.64497 0.94563 0.49891 0.0
C1516 C 0.64777 0.92336 0.50901 0.0
C1517 C 0.63914 0.98527 0.5169 0.0
C1518 C 0.6291 0.99184 0.48607 0.0
C1519 C 0.64846 1.0017 0.53608 0.0
C1520 C 0.6599 0.99583 0.56744 0.0
C1521 C 0.67224 0.98063 0.56017 0.0
C1522 C 0.68289 0.97503 0.59001 0.0
C1523 C 0.68141 0.98469 0.62714 0.0
C1524 C 0.6693 1.00002 0.63447 0.0
C1525 C 0.6586 1.00564 0.60475 0.0
H1526 H 0.68968 0.98034 0.6502 0.0
H1527 H 0.58676 0.03597 0.36029 0.0
H1528 H 0.65083 0.5893 0.09842 0.0
H1529 H 0.65373 0.55098 0.07432 0.0
H1530 H 0.61704 0.56263 0.98846 0.0
H1531 H 0.61362 0.60055 0.01354 0.0
H1532 H 0.61361 0.52255 0.01479 0.0
H1533 H 0.65802 0.56391 0.96575 0.0
H1534 H 0.68133 0.58877 0.9706 0.0
H1535 H 0.70466 0.54119 0.04497 0.0
H1536 H 0.68138 0.51617 0.04104 0.0
H1537 H 0.63517 0.42363 0.9049 0.0
H1538 H 0.62996 0.46287 0.92239 0.0
H1539 H 0.6623 0.45748 0.01998 0.0
H1540 H 0.66766 0.41889 0.00271 0.0
H1541 H 0.66739 0.49547 0.98093 0.0
H1542 H 0.62171 0.4553 0.03195 0.0
H1543 H 0.59823 0.43083 0.02573 0.0
H1544 H 0.57737 0.47676 0.94401 0.0
H1545 H 0.60084 0.50137 0.94937 0.0
C1546 C 0.64332 0.58365 0.07457 0.0
C1547 C 0.63207 0.59806 0.05779 0.0
C1548 C 0.64504 0.56175 0.0606 0.0
C1549 C 0.63585 0.55395 0.02887 0.0
C1550 C 0.62433 0.56816 0.01282 0.0
C1551 C 0.62241 0.58992 0.0272 0.0
C1552 C 0.63843 0.53119 0.01196 0.0
C1553 C 0.62536 0.51678 0.00688 0.0
C1554 C 0.65374 0.52346 0.00164 0.0
C1555 C 0.6679 0.53824 0.00333 0.0
C1556 C 0.6681 0.55879 0.98327 0.0
C1557 C 0.6813 0.57291 0.98586 0.0
C1558 C 0.69446 0.56659 0.00815 0.0
C1559 C 0.69446 0.54607 0.02775 0.0
C1560 C 0.68127 0.5319 0.02532 0.0
C1561 C 0.64116 0.43086 0.93002 0.0
C1562 C 0.65182 0.41803 0.95236 0.0
C1563 C 0.63814 0.45326 0.94008 0.0
C1564 C 0.64569 0.46315 0.97267 0.0
C1565 C 0.65637 0.45034 0.99467 0.0
C1566 C 0.65936 0.42813 0.98475 0.0
C1567 C 0.64265 0.48674 0.98457 0.0
C1568 C 0.65564 0.50134 0.98857 0.0
C1569 C 0.62728 0.49467 0.99352 0.0
C1570 C 0.61309 0.48004 0.99074 0.0
C1571 C 0.61216 0.4601 0.01246 0.0
C1572 C 0.59885 0.44622 0.00912 0.0
C1573 C 0.58634 0.4522 0.9844 0.0
C1574 C 0.58708 0.47213 0.96309 0.0
C1575 C 0.60038 0.48606 0.96629 0.0
H1576 H 0.57605 0.44142 0.98181 0.0
H1577 H 0.70466 0.57756 0.01018 0.0
H1578 H 0.89423 0.4303 0.60737 0.0
H1579 H 0.8969 0.47061 0.59465 0.0
H1580 H 0.9081 0.45678 0.47375 0.0
H1581 H 0.90537 0.41673 0.48615 0.0
H1582 H 0.92578 0.49286 0.50435 0.0
H1583 H 0.87129 0.46705 0.49655 0.0
H1584 H 0.8474 0.44857 0.52287 0.0
H1585 H 0.84592 0.49594 0.6175 0.0
H1586 H 0.87 0.51447 0.59207 0.0
H1587 H 0.90177 0.59243 0.40439 0.0
H1588 H 0.90716 0.55446 0.42802 0.0
H1589 H 0.88701 0.57148 0.54037 0.0
H1590 H 0.88108 0.60893 0.51636 0.0
H1591 H 0.87525 0.5342 0.51899 0.0
H1592 H 0.92803 0.56295 0.52361 0.0
H1593 H 0.95178 0.58176 0.49755 0.0
H1594 H 0.95722 0.52981 0.41165 0.0
H1595 H 0.93321 0.51096 0.43653 0.0
C1596 C 0.89764 0.43586 0.57836 0.0
C1597 C 0.89945 0.42037 0.54768 0.0
C1598 C 0.8991 0.45888 0.57107 0.0
C1599 C 0.90255 0.46672 0.5331 0.0
C1600 C 0.90544 0.45116 0.50321 0.0
C1601 C 0.90379 0.42826 0.51034 0.0
C1602 C 0.90149 0.49093 0.52323 0.0
C1603 C 0.91475 0.50195 0.50743 0.0
C1604 C 0.88716 0.50287 0.52777 0.0
C1605 C 0.87254 0.49198 0.54268 0.0
C1606 C 0.86594 0.47342 0.52313 0.0
C1607 C 0.85236 0.46294 0.53787 0.0
C1608 C 0.84517 0.47103 0.5719 0.0
C1609 C 0.85152 0.48966 0.59119 0.0
C1610 C 0.86513 0.50016 0.57663 0.0
C1611 C 0.89876 0.58813 0.43432 0.0
C1612 C 0.89097 0.60363 0.45847 0.0
C1613 C 0.90186 0.56642 0.44789 0.0
C1614 C 0.89757 0.55998 0.48619 0.0
C1615 C 0.89036 0.57585 0.51069 0.0
C1616 C 0.88703 0.59733 0.49695 0.0
C1617 C 0.89961 0.53646 0.50013 0.0
C1618 C 0.88643 0.52541 0.51643 0.0
C1619 C 0.91407 0.52462 0.49628 0.0
C1620 C 0.92872 0.53564 0.48173 0.0
C1621 C 0.93422 0.55559 0.49899 0.0
C1622 C 0.94775 0.56627 0.48443 0.0
C1623 C 0.95602 0.55699 0.45295 0.0
C1624 C 0.9508 0.53699 0.43602 0.0
C1625 C 0.93721 0.5263 0.45032 0.0
H1626 H 0.96648 0.56529 0.44165 0.0
H1627 H 0.83466 0.4629 0.58328 0.0
H1628 H 0.40106 0.43151 0.90352 0.0
H1629 H 0.40496 0.47022 0.92618 0.0
H1630 H 0.38181 0.45401 0.03524 0.0
H1631 H 0.3776 0.41592 0.01271 0.0
H1632 H 0.37026 0.49098 0.00944 0.0
H1633 H 0.42269 0.4627 0.02775 0.0
H1634 H 0.44764 0.44437 0.00852 0.0
H1635 H 0.45615 0.49565 0.92299 0.0
H1636 H 0.43112 0.51413 0.94132 0.0
H1637 H 0.38727 0.59207 0.1111 0.0
H1638 H 0.39027 0.55215 0.09484 0.0
H1639 H 0.4041 0.56975 0.9772 0.0
H1640 H 0.40082 0.60937 0.993 0.0
H1641 H 0.42139 0.53223 0.00909 0.0
H1642 H 0.36767 0.55866 0.98996 0.0
H1643 H 0.34291 0.57674 0.01131 0.0
H1644 H 0.33735 0.52763 0.10209 0.0
H1645 H 0.36224 0.50947 0.08164 0.0
C1646 C 0.39691 0.43621 0.93239 0.0
C1647 C 0.38892 0.42058 0.95609 0.0
C1648 C 0.39919 0.45834 0.94544 0.0
C1649 C 0.39371 0.46516 0.9826 0.0
C1650 C 0.38606 0.44936 0.00641 0.0
C1651 C 0.38369 0.42745 0.99339 0.0
C1652 C 0.39522 0.48883 0.99647 0.0
C1653 C 0.38153 0.49978 0.00986 0.0
C1654 C 0.40983 0.50066 0.9966 0.0
C1655 C 0.42494 0.48968 0.98562 0.0
C1656 C 0.42982 0.46998 0.00462 0.0
C1657 C 0.44399 0.45957 0.99392 0.0
C1658 C 0.45345 0.4688 0.96447 0.0
C1659 C 0.44879 0.4885 0.94575 0.0
C1660 C 0.43462 0.49896 0.9563 0.0
C1661 C 0.39136 0.58739 0.08216 0.0
C1662 C 0.39375 0.6038 0.05328 0.0
C1663 C 0.39301 0.56461 0.07281 0.0
C1664 C 0.39732 0.55794 0.03467 0.0
C1665 C 0.4008 0.57444 0.00677 0.0
C1666 C 0.39887 0.59708 0.01584 0.0
C1667 C 0.39648 0.53403 0.02233 0.0
C1668 C 0.41022 0.52319 0.00897 0.0
C1669 C 0.38195 0.52213 0.02255 0.0
C1670 C 0.36691 0.53287 0.03459 0.0
C1671 C 0.36124 0.55183 0.01469 0.0
C1672 C 0.34717 0.56208 0.02659 0.0
C1673 C 0.33858 0.55338 0.05812 0.0
C1674 C 0.34403 0.53438 0.07773 0.0
C1675 C 0.35811 0.5241 0.066 0.0
H1676 H 0.32769 0.56133 0.06729 0.0
H1677 H 0.46442 0.46071 0.95622 0.0
H1678 H 0.14839 0.60721 0.51986 0.0
H1679 H 0.14421 0.56886 0.54186 0.0
H1680 H 0.13094 0.5495 0.42441 0.0
H1681 H 0.1347 0.58833 0.40235 0.0
H1682 H 0.11382 0.5261 0.47812 0.0
H1683 H 0.16868 0.54216 0.45678 0.0
H1684 H 0.1937 0.56327 0.46356 0.0
H1685 H 0.19356 0.55152 0.58775 0.0
H1686 H 0.16838 0.53062 0.58177 0.0
H1687 H 0.13911 0.41233 0.48635 0.0
H1688 H 0.13462 0.45186 0.47262 0.0
H1689 H 0.14284 0.4677 0.59434 0.0
H1690 H 0.14719 0.42782 0.60847 0.0
H1691 H 0.16131 0.49299 0.54134 0.0
H1692 H 0.10678 0.47333 0.55933 0.0
H1693 H 0.08263 0.45077 0.54875 0.0
H1694 H 0.08311 0.46754 0.42639 0.0
H1695 H 0.10744 0.48992 0.43608 0.0
C1696 C 0.1443 0.59489 0.49879 0.0
C1697 C 0.14204 0.60074 0.45927 0.0
C1698 C 0.14197 0.57291 0.51141 0.0
C1699 C 0.13766 0.55609 0.48465 0.0
C1700 C 0.13437 0.56214 0.4456 0.0
C1701 C 0.1365 0.58433 0.433 0.0
C1702 C 0.13783 0.53214 0.49705 0.0
C1703 C 0.12425 0.51882 0.49162 0.0
C1704 C 0.15136 0.5226 0.51519 0.0
C1705 C 0.16656 0.53503 0.51888 0.0
C1706 C 0.17392 0.54422 0.48557 0.0
C1707 C 0.18814 0.55613 0.48927 0.0
C1708 C 0.19519 0.55878 0.52608 0.0
C1709 C 0.18807 0.54948 0.55926 0.0
C1710 C 0.17382 0.5376 0.55574 0.0
C1711 C 0.13974 0.42416 0.51039 0.0
C1712 C 0.14356 0.41695 0.54851 0.0
C1713 C 0.13709 0.44677 0.50248 0.0
C1714 C 0.13834 0.46277 0.53243 0.0
C1715 C 0.14177 0.45561 0.5708 0.0
C1716 C 0.14418 0.43284 0.57888 0.0
C1717 C 0.13728 0.487 0.52271 0.0
C1718 C 0.1508 0.50035 0.52834 0.0
C1719 C 0.12379 0.49638 0.50426 0.0
C1720 C 0.10903 0.48317 0.49839 0.0
C1721 C 0.10182 0.47208 0.5301 0.0
C1722 C 0.08808 0.45934 0.52427 0.0
C1723 C 0.08136 0.45768 0.48691 0.0
C1724 C 0.08834 0.46883 0.45531 0.0
C1725 C 0.1021 0.48156 0.46097 0.0
H1726 H 0.07073 0.44779 0.48245 0.0
H1727 H 0.20621 0.568 0.52888 0.0
H1728 H 0.17272 0.36395 0.73862 0.0
H1729 H 0.17479 0.34997 0.80598 0.0
H1730 H 0.12719 0.32374 0.79787 0.0
H1731 H 0.12513 0.33781 0.73094 0.0
H1732 H 0.13529 0.3341 0.8746 0.0
H1733 H 0.15849 0.29422 0.76144 0.0
H1734 H 0.17711 0.2918 0.70586 0.0
H1735 H 0.21624 0.30454 0.7836 0.0
H1736 H 0.19779 0.30717 0.83955 0.0
H1737 H 0.12988 0.23003 0.96696 0.0
H1738 H 0.13027 0.26156 0.9221 0.0
H1739 H 0.18103 0.2669 0.93534 0.0
H1740 H 0.18094 0.23405 0.97751 0.0
H1741 H 0.1749 0.27319 0.8646 0.0
H1742 H 0.15333 0.30494 0.97985 0.0
H1743 H 0.13571 0.30833 0.03712 0.0
H1744 H 0.09532 0.31351 0.9609 0.0
H1745 H 0.11267 0.30984 0.90314 0.0
C1746 C 0.16239 0.35645 0.75218 0.0
C1747 C 0.14871 0.35206 0.72993 0.0
C1748 C 0.16363 0.34823 0.79051 0.0
C1749 C 0.15127 0.33534 0.80659 0.0
C1750 C 0.13689 0.33357 0.78609 0.0
C1751 C 0.13566 0.34175 0.74789 0.0
C1752 C 0.15413 0.32006 0.84017 0.0
C1753 C 0.14398 0.32081 0.87266 0.0
C1754 C 0.16576 0.30307 0.83811 0.0
C1755 C 0.17679 0.3011 0.80453 0.0
C1756 C 0.17106 0.29656 0.7666 0.0
C1757 C 0.18157 0.29513 0.73506 0.0
C1758 C 0.19785 0.29795 0.74122 0.0
C1759 C 0.20364 0.3023 0.77889 0.0
C1760 C 0.19317 0.30377 0.8105 0.0
C1761 C 0.14121 0.23753 0.95985 0.0
C1762 C 0.15538 0.2293 0.97615 0.0
C1763 C 0.14136 0.256 0.93474 0.0
C1764 C 0.15563 0.26715 0.92606 0.0
C1765 C 0.16982 0.25883 0.94183 0.0
C1766 C 0.16972 0.24007 0.96632 0.0
C1767 C 0.15579 0.28678 0.89907 0.0
C1768 C 0.16647 0.28675 0.86753 0.0
C1769 C 0.14482 0.30463 0.90251 0.0
C1770 C 0.13431 0.30698 0.93714 0.0
C1771 C 0.14068 0.30667 0.97529 0.0
C1772 C 0.13074 0.30865 0.00784 0.0
C1773 C 0.1144 0.3111 0.00265 0.0
C1774 C 0.10798 0.31161 0.96487 0.0
C1775 C 0.11787 0.30961 0.93221 0.0
H1776 H 0.10673 0.31263 0.02789 0.0
H1777 H 0.20597 0.29676 0.71679 0.0
H1778 H 0.38076 0.82006 0.42699 0.0
H1779 H 0.38144 0.78899 0.38002 0.0
H1780 H 0.38008 0.74176 0.47546 0.0
H1781 H 0.37965 0.77264 0.52245 0.0
H1782 H 0.40188 0.72983 0.42087 0.0
H1783 H 0.34724 0.75034 0.42338 0.0
H1784 H 0.32445 0.776 0.41991 0.0
H1785 H 0.33669 0.7931 0.3015 0.0
H1786 H 0.35969 0.76777 0.30444 0.0
H1787 H 0.36325 0.66451 0.24014 0.0
H1788 H 0.36205 0.68059 0.30623 0.0
H1789 H 0.40927 0.7073 0.29164 0.0
H1790 H 0.41046 0.69108 0.22606 0.0
H1791 H 0.36192 0.72417 0.31441 0.0
H1792 H 0.42609 0.72054 0.37787 0.0
H1793 H 0.44796 0.69346 0.3834 0.0
H1794 H 0.41482 0.63903 0.37426 0.0
H1795 H 0.39271 0.66575 0.36923 0.0
C1796 C 0.38063 0.80306 0.43792 0.0
C1797 C 0.37996 0.79883 0.47841 0.0
C1798 C 0.38094 0.78532 0.41109 0.0
C1799 C 0.38066 0.76304 0.42425 0.0
C1800 C 0.38025 0.75879 0.46465 0.0
C1801 C 0.37984 0.77648 0.49143 0.0
C1802 C 0.38079 0.74418 0.39583 0.0
C1803 C 0.39313 0.7285 0.39763 0.0
C1804 C 0.36912 0.74209 0.36622 0.0
C1805 C 0.35526 0.75728 0.36425 0.0
C1806 C 0.34514 0.7597 0.3967 0.0
C1807 C 0.33217 0.77416 0.39481 0.0
C1808 C 0.32915 0.7862 0.36054 0.0
C1809 C 0.33906 0.78377 0.32804 0.0
C1810 C 0.35205 0.76934 0.32979 0.0
C1811 C 0.37368 0.6727 0.25204 0.0
C1812 C 0.38707 0.67624 0.22849 0.0
C1813 C 0.37292 0.68215 0.28958 0.0
C1814 C 0.38554 0.69525 0.30398 0.0
C1815 C 0.39947 0.697 0.28165 0.0
C1816 C 0.4002 0.6876 0.2442 0.0
C1817 C 0.38331 0.71008 0.33858 0.0
C1818 C 0.37058 0.72518 0.3379 0.0
C1819 C 0.39452 0.71141 0.36946 0.0
C1820 C 0.40774 0.69519 0.37292 0.0
C1821 C 0.42345 0.7028 0.37727 0.0
C1822 C 0.43589 0.6875 0.38026 0.0
C1823 C 0.43278 0.66454 0.37909 0.0
C1824 C 0.41721 0.65682 0.37502 0.0
C1825 C 0.40472 0.67204 0.37203 0.0
H1826 H 0.44244 0.65273 0.38139 0.0
H1827 H 0.3191 0.79739 0.35913 0.0
H1828 H 0.1481 0.80971 0.07445 0.0
H1829 H 0.14547 0.77928 0.12222 0.0
H1830 H 0.13781 0.73222 0.02809 0.0
H1831 H 0.14014 0.76253 0.98038 0.0
H1832 H 0.11819 0.72366 0.08987 0.0
H1833 H 0.1736 0.7359 0.06789 0.0
H1834 H 0.19817 0.75822 0.06333 0.0
H1835 H 0.19403 0.77639 0.18471 0.0
H1836 H 0.1693 0.75443 0.18984 0.0
H1837 H 0.16361 0.6521 0.25228 0.0
H1838 H 0.16137 0.66844 0.18666 0.0
H1839 H 0.11675 0.69825 0.21924 0.0
H1840 H 0.11881 0.68128 0.284 0.0
H1841 H 0.16346 0.71102 0.18008 0.0
H1842 H 0.09629 0.71698 0.14202 0.0
H1843 H 0.07242 0.69309 0.14415 0.0
H1844 H 0.10143 0.63435 0.13758 0.0
H1845 H 0.12548 0.65787 0.13491 0.0
C1846 C 0.14567 0.79293 0.06402 0.0
C1847 C 0.14456 0.78847 0.02366 0.0
C1848 C 0.14424 0.77554 0.09128 0.0
C1849 C 0.14164 0.75343 0.07864 0.0
C1850 C 0.13987 0.74912 0.03848 0.0
C1851 C 0.14137 0.76643 0.01126 0.0
C1852 C 0.14152 0.73466 0.10713 0.0
C1853 C 0.12807 0.72082 0.10962 0.0
C1854 C 0.1546 0.73057 0.13205 0.0
C1855 C 0.16953 0.74368 0.12915 0.0
C1856 C 0.17787 0.74479 0.09354 0.0
C1857 C 0.19183 0.75735 0.09086 0.0
C1858 C 0.19764 0.76875 0.12369 0.0
C1859 C 0.18951 0.76757 0.15929 0.0
C1860 C 0.17552 0.75505 0.16211 0.0
C1861 C 0.15285 0.66089 0.24437 0.0
C1862 C 0.1412 0.66506 0.27265 0.0
C1863 C 0.15168 0.67054 0.20712 0.0
C1864 C 0.13894 0.68474 0.19791 0.0
C1865 C 0.12656 0.6871 0.22512 0.0
C1866 C 0.12767 0.67727 0.26215 0.0
C1867 C 0.13995 0.70012 0.1637 0.0
C1868 C 0.15359 0.71353 0.16015 0.0
C1869 C 0.12712 0.70352 0.13751 0.0
C1870 C 0.11271 0.68922 0.13851 0.0
C1871 C 0.09758 0.69897 0.14079 0.0
C1872 C 0.08402 0.68549 0.14216 0.0
C1873 C 0.08541 0.66222 0.14108 0.0
C1874 C 0.10037 0.65238 0.13854 0.0
C1875 C 0.11398 0.66578 0.13717 0.0
H1876 H 0.07489 0.65181 0.14216 0.0
H1877 H 0.20845 0.77847 0.12156 0.0
H1878 H 0.40985 0.36446 0.76958 0.0
H1879 H 0.41402 0.3506 0.70259 0.0
H1880 H 0.36506 0.32964 0.69713 0.0
H1881 H 0.36097 0.34342 0.76368 0.0
H1882 H 0.4118 0.30712 0.69022 0.0
H1883 H 0.35318 0.32356 0.59948 0.0
H1884 H 0.33545 0.35499 0.58403 0.0
H1885 H 0.37166 0.40172 0.61839 0.0
H1886 H 0.38984 0.37066 0.63275 0.0
H1887 H 0.39026 0.21486 0.57341 0.0
H1888 H 0.39248 0.2461 0.61964 0.0
H1889 H 0.39715 0.29215 0.5229 0.0
H1890 H 0.39443 0.26104 0.47676 0.0
H1891 H 0.37785 0.30893 0.57151 0.0
H1892 H 0.42922 0.27841 0.58434 0.0
H1893 H 0.44947 0.24925 0.59362 0.0
H1894 H 0.43134 0.23547 0.70867 0.0
H1895 H 0.41082 0.26433 0.69989 0.0
C1896 C 0.39981 0.35807 0.75312 0.0
C1897 C 0.38506 0.35517 0.7714 0.0
C1898 C 0.40222 0.34989 0.71507 0.0
C1899 C 0.38987 0.33898 0.69483 0.0
C1900 C 0.37472 0.33824 0.71179 0.0
C1901 C 0.37236 0.34617 0.74983 0.0
C1902 C 0.39322 0.32481 0.65997 0.0
C1903 C 0.40449 0.30771 0.66404 0.0
C1904 C 0.38393 0.3258 0.62542 0.0
C1905 C 0.37288 0.34465 0.61759 0.0
C1906 C 0.35745 0.34052 0.6035 0.0
C1907 C 0.34732 0.3583 0.59475 0.0
C1908 C 0.35242 0.38033 0.60024 0.0
C1909 C 0.36769 0.38464 0.6143 0.0
C1910 C 0.37792 0.36693 0.62274 0.0
C1911 C 0.39192 0.23163 0.56214 0.0
C1912 C 0.39207 0.23556 0.52158 0.0
C1913 C 0.39326 0.24949 0.58852 0.0
C1914 C 0.39516 0.27155 0.57484 0.0
C1915 C 0.39564 0.27536 0.53426 0.0
C1916 C 0.39408 0.25758 0.50792 0.0
C1917 C 0.39582 0.29069 0.6028 0.0
C1918 C 0.3853 0.30861 0.59744 0.0
C1919 C 0.40603 0.29078 0.63576 0.0
C1920 C 0.41842 0.27347 0.64134 0.0
C1921 C 0.42948 0.26907 0.61153 0.0
C1922 C 0.44102 0.2526 0.61672 0.0
C1923 C 0.44168 0.24049 0.65169 0.0
C1924 C 0.43082 0.24486 0.68159 0.0
C1925 C 0.41924 0.2613 0.67655 0.0
H1926 H 0.45062 0.22774 0.65565 0.0
H1927 H 0.34453 0.39407 0.59365 0.0
H1928 H 0.91423 0.66438 0.27929 0.0
H1929 H 0.9204 0.68167 0.21589 0.0
H1930 H 0.87062 0.68179 0.18658 0.0
H1931 H 0.86453 0.66458 0.24956 0.0
H1932 H 0.88938 0.68009 0.1202 0.0
H1933 H 0.88516 0.72292 0.2419 0.0
H1934 H 0.89325 0.73123 0.30993 0.0
H1935 H 0.94085 0.74414 0.2714 0.0
H1936 H 0.93307 0.73552 0.20316 0.0
H1937 H 0.86671 0.78008 0.03117 0.0
H1938 H 0.87071 0.74932 0.0771 0.0
H1939 H 0.92038 0.7661 0.08558 0.0
H1940 H 0.91646 0.79697 0.03928 0.0
H1941 H 0.90771 0.75632 0.15692 0.0
H1942 H 0.90914 0.72173 0.03115 0.0
H1943 H 0.89991 0.71341 0.96407 0.0
H1944 H 0.85691 0.68515 0.00995 0.0
H1945 H 0.86577 0.69362 0.07732 0.0
C1946 C 0.90477 0.6668 0.2582 0.0
C1947 C 0.88893 0.66318 0.26901 0.0
C1948 C 0.90827 0.67692 0.2222 0.0
C1949 C 0.89592 0.6835 0.19697 0.0
C1950 C 0.88033 0.67695 0.20559 0.0
C1951 C 0.87684 0.66701 0.24154 0.0
C1952 C 0.89848 0.70089 0.16661 0.0
C1953 C 0.89349 0.69671 0.12805 0.0
C1954 C 0.90401 0.72255 0.17683 0.0
C1955 C 0.90858 0.72837 0.21757 0.0
C1956 C 0.89736 0.72745 0.24799 0.0
C1957 C 0.90189 0.73219 0.28657 0.0
C1958 C 0.91756 0.73817 0.29499 0.0
C1959 C 0.92872 0.73947 0.26483 0.0
C1960 C 0.92426 0.73465 0.2262 0.0
C1961 C 0.87849 0.77725 0.0428 0.0
C1962 C 0.89129 0.79088 0.03135 0.0
C1963 C 0.88078 0.75961 0.06896 0.0
C1964 C 0.89592 0.75508 0.08407 0.0
C1965 C 0.90862 0.76919 0.07402 0.0
C1966 C 0.90633 0.78692 0.04779 0.0
C1967 C 0.8983 0.73567 0.11054 0.0
C1968 C 0.90409 0.73955 0.14852 0.0
C1969 C 0.89342 0.71379 0.09978 0.0
C1970 C 0.8881 0.70842 0.05931 0.0
C1971 C 0.89768 0.71386 0.02694 0.0
C1972 C 0.89251 0.70911 0.98886 0.0
C1973 C 0.87783 0.69878 0.98275 0.0
C1974 C 0.86829 0.69315 0.01473 0.0
C1975 C 0.87339 0.69789 0.05288 0.0
H1976 H 0.87385 0.69513 0.95324 0.0
H1977 H 0.92104 0.74186 0.32486 0.0
H1978 H 0.66457 0.25336 0.48467 0.0
H1979 H 0.66282 0.28535 0.52901 0.0
H1980 H 0.63858 0.24449 0.61401 0.0
H1981 H 0.64107 0.21199 0.57115 0.0
H1982 H 0.62416 0.28943 0.59334 0.0
H1983 H 0.67381 0.25282 0.63238 0.0
H1984 H 0.70069 0.23874 0.6187 0.0
H1985 H 0.71509 0.30412 0.5804 0.0
H1986 H 0.68819 0.31849 0.59335 0.0
H1987 H 0.62647 0.3211 0.7863 0.0
H1988 H 0.62566 0.3085 0.71887 0.0
H1989 H 0.66249 0.35587 0.68901 0.0
H1990 H 0.66366 0.368 0.75802 0.0
H1991 H 0.67114 0.31718 0.66658 0.0
H1992 H 0.62399 0.35633 0.64342 0.0
H1993 H 0.5974 0.37166 0.65603 0.0
H1994 H 0.57802 0.30521 0.66011 0.0
H1995 H 0.60452 0.28942 0.64813 0.0
C1996 C 0.65915 0.25092 0.51309 0.0
C1997 C 0.65303 0.22986 0.52422 0.0
C1998 C 0.65799 0.26938 0.53815 0.0
C1999 C 0.65046 0.26727 0.57453 0.0
C2000 C 0.64427 0.24646 0.58577 0.0
C2001 C 0.64568 0.2279 0.5611 0.0
C2002 C 0.64934 0.28654 0.60164 0.0
C2003 C 0.63437 0.29561 0.60948 0.0
C2004 C 0.66282 0.2953 0.62095 0.0
C2005 C 0.67895 0.28664 0.61328 0.0
C2006 C 0.68266 0.26412 0.62064 0.0
C2007 C 0.69791 0.2561 0.61312 0.0
C2008 C 0.70957 0.2705 0.59854 0.0
C2009 C 0.70603 0.29297 0.59159 0.0
C2010 C 0.69079 0.30106 0.59902 0.0
C2011 C 0.63393 0.32949 0.765 0.0
C2012 C 0.64506 0.34554 0.7771 0.0
C2013 C 0.63341 0.32236 0.72622 0.0
C2014 C 0.64391 0.33131 0.6984 0.0
C2015 C 0.65422 0.34876 0.70984 0.0
C2016 C 0.65477 0.35589 0.74909 0.0
C2017 C 0.64573 0.3196 0.66011 0.0
C2018 C 0.66087 0.31178 0.64985 0.0
C2019 C 0.6324 0.31232 0.63807 0.0
C2020 C 0.61631 0.32168 0.64486 0.0
C2021 C 0.61409 0.34496 0.64717 0.0
C2022 C 0.59901 0.35373 0.65421 0.0
C2023 C 0.58603 0.33941 0.65886 0.0
C2024 C 0.58809 0.31628 0.65642 0.0
C2025 C 0.60314 0.30741 0.6494 0.0
H2026 H 0.57438 0.34624 0.66432 0.0
H2027 H 0.72137 0.26427 0.59275 0.0
H2028 H 0.89329 0.20855 0.92215 0.0
H2029 H 0.89561 0.2408 0.87857 0.0
H2030 H 0.87075 0.28163 0.96221 0.0
H2031 H 0.86925 0.25007 0.00732 0.0
H2032 H 0.8616 0.27918 0.8679 0.0
H2033 H 0.90144 0.29684 0.96772 0.0
H2034 H 0.92413 0.28674 0.00976 0.0
H2035 H 0.9516 0.27053 0.9078 0.0
H2036 H 0.92896 0.28019 0.86519 0.0
H2037 H 0.87298 0.36796 0.74026 0.0
H2038 H 0.87236 0.35269 0.80709 0.0
H2039 H 0.91337 0.3124 0.78073 0.0
H2040 H 0.91425 0.32819 0.71499 0.0
H2041 H 0.91289 0.31962 0.85597 0.0
H2042 H 0.87536 0.29415 0.75821 0.0
H2043 H 0.85413 0.30004 0.70946 0.0
H2044 H 0.82371 0.32584 0.79948 0.0
H2045 H 0.84485 0.3203 0.84872 0.0
C2046 C 0.88844 0.22438 0.93168 0.0
C2047 C 0.88111 0.2265 0.96858 0.0
C2048 C 0.88969 0.24276 0.90652 0.0
C2049 C 0.8834 0.26353 0.91738 0.0
C2050 C 0.87564 0.26567 0.9534 0.0
C2051 C 0.87467 0.24745 0.97896 0.0
C2052 C 0.8852 0.283 0.89105 0.0
C2053 C 0.87265 0.28846 0.86591 0.0
C2054 C 0.89978 0.29455 0.88782 0.0
C2055 C 0.91346 0.28903 0.91333 0.0
C2056 C 0.91226 0.29092 0.9543 0.0
C2057 C 0.92513 0.28531 0.97822 0.0
C2058 C 0.93928 0.27794 0.96147 0.0
C2059 C 0.94062 0.27622 0.92074 0.0
C2060 C 0.92778 0.28178 0.8967 0.0
C2061 C 0.8824 0.35691 0.74974 0.0
C2062 C 0.89373 0.3493 0.72288 0.0
C2063 C 0.88192 0.34791 0.78767 0.0
C2064 C 0.89254 0.33088 0.79857 0.0
C2065 C 0.905 0.3254 0.77311 0.0
C2066 C 0.90554 0.3345 0.73553 0.0
C2067 C 0.88927 0.31595 0.83253 0.0
C2068 C 0.90161 0.31101 0.85881 0.0
C2069 C 0.87461 0.30441 0.83613 0.0
C2070 C 0.8617 0.30703 0.807 0.0
C2071 C 0.86414 0.3011 0.76756 0.0
C2072 C 0.85214 0.30438 0.73987 0.0
C2073 C 0.83761 0.31333 0.75138 0.0
C2074 C 0.83499 0.31891 0.79063 0.0
C2075 C 0.84697 0.3157 0.81846 0.0
H2076 H 0.82838 0.31591 0.72984 0.0
H2077 H 0.94923 0.2736 0.98003 0.0
H2078 H 0.64338 0.80888 0.42675 0.0
H2079 H 0.63976 0.77816 0.37998 0.0
H2080 H 0.63585 0.73141 0.47584 0.0
H2081 H 0.63972 0.76197 0.52254 0.0
H2082 H 0.65498 0.71531 0.42447 0.0
H2083 H 0.60325 0.74551 0.41872 0.0
H2084 H 0.58278 0.77466 0.41271 0.0
H2085 H 0.59865 0.78964 0.29608 0.0
H2086 H 0.61937 0.7608 0.30158 0.0
H2087 H 0.62109 0.66141 0.22662 0.0
H2088 H 0.61693 0.67536 0.29372 0.0
H2089 H 0.66599 0.69605 0.29902 0.0
H2090 H 0.67006 0.68207 0.2328 0.0
H2091 H 0.6188 0.71798 0.30984 0.0
H2092 H 0.67951 0.70226 0.38872 0.0
H2093 H 0.6983 0.67136 0.39938 0.0
H2094 H 0.66144 0.62352 0.37571 0.0
H2095 H 0.64234 0.65409 0.3654 0.0
C2096 C 0.64155 0.79208 0.43777 0.0
C2097 C 0.64197 0.78779 0.47823 0.0
C2098 C 0.63943 0.77454 0.41108 0.0
C2099 C 0.6374 0.75244 0.42437 0.0
C2100 C 0.63744 0.74826 0.46484 0.0
C2101 C 0.6397 0.76573 0.49147 0.0
C2102 C 0.63624 0.73358 0.39603 0.0
C2103 C 0.64698 0.71579 0.39956 0.0
C2104 C 0.62543 0.73374 0.36426 0.0
C2105 C 0.61293 0.75105 0.36066 0.0
C2106 C 0.60244 0.75511 0.39188 0.0
C2107 C 0.59079 0.77157 0.38855 0.0
C2108 C 0.58943 0.78401 0.35406 0.0
C2109 C 0.59972 0.77998 0.32278 0.0
C2110 C 0.6114 0.76355 0.32597 0.0
C2111 C 0.6311 0.66792 0.24307 0.0
C2112 C 0.64592 0.67053 0.22503 0.0
C2113 C 0.6287 0.67611 0.28115 0.0
C2114 C 0.64114 0.68676 0.30154 0.0
C2115 C 0.65626 0.68758 0.2844 0.0
C2116 C 0.65859 0.6796 0.24649 0.0
C2117 C 0.63806 0.70026 0.33733 0.0
C2118 C 0.62656 0.71717 0.33519 0.0
C2119 C 0.64797 0.69903 0.37078 0.0
C2120 C 0.65948 0.68052 0.37624 0.0
C2121 C 0.67537 0.68515 0.38598 0.0
C2122 C 0.68609 0.66769 0.39194 0.0
C2123 C 0.68104 0.6455 0.3884 0.0
C2124 C 0.66532 0.64072 0.37849 0.0
C2125 C 0.65455 0.65812 0.37249 0.0
H2126 H 0.68933 0.63202 0.39337 0.0
H2127 H 0.58041 0.79675 0.35155 0.0
H2128 H 0.68012 0.72729 0.96646 0.0
H2129 H 0.67775 0.75877 0.92108 0.0
H2130 H 0.62747 0.74643 0.91089 0.0
H2131 H 0.62984 0.71472 0.9557 0.0
H2132 H 0.63888 0.7558 0.84212 0.0
H2133 H 0.64275 0.78988 0.96809 0.0
H2134 H 0.65408 0.7973 0.03352 0.0
H2135 H 0.69703 0.82142 0.98072 0.0
H2136 H 0.68605 0.81383 0.91494 0.0
H2137 H 0.62815 0.85036 0.72986 0.0
H2138 H 0.62581 0.83249 0.79427 0.0
H2139 H 0.67674 0.82778 0.80149 0.0
H2140 H 0.67902 0.84548 0.73729 0.0
H2141 H 0.66161 0.83 0.87665 0.0
H2142 H 0.65877 0.78878 0.75246 0.0
H2143 H 0.64714 0.78281 0.68684 0.0
H2144 H 0.6012 0.77327 0.73841 0.0
H2145 H 0.61256 0.77948 0.80435 0.0
C2146 C 0.66858 0.73123 0.95436 0.0
C2147 C 0.65518 0.7185 0.96461 0.0
C2148 C 0.66721 0.74933 0.92865 0.0
C2149 C 0.65236 0.75533 0.9132 0.0
C2150 C 0.63904 0.74222 0.92252 0.0
C2151 C 0.64043 0.72399 0.94793 0.0
C2152 C 0.65076 0.77507 0.88694 0.0
C2153 C 0.64357 0.7721 0.85015 0.0
C2154 C 0.65698 0.7964 0.89706 0.0
C2155 C 0.66361 0.80112 0.93657 0.0
C2156 C 0.65465 0.79662 0.97042 0.0
C2157 C 0.66101 0.80088 0.00758 0.0
C2158 C 0.67627 0.80978 0.01128 0.0
C2159 C 0.68521 0.8145 0.97781 0.0
C2160 C 0.67892 0.81025 0.94058 0.0
C2161 C 0.63883 0.84685 0.74643 0.0
C2162 C 0.65377 0.84938 0.72898 0.0
C2163 C 0.63749 0.83642 0.78302 0.0
C2164 C 0.6511 0.82843 0.80224 0.0
C2165 C 0.6661 0.83381 0.78719 0.0
C2166 C 0.66741 0.84404 0.75057 0.0
C2167 C 0.64986 0.81053 0.83216 0.0
C2168 C 0.65663 0.81377 0.8693 0.0
C2169 C 0.64318 0.78946 0.82259 0.0
C2170 C 0.63647 0.78476 0.78321 0.0
C2171 C 0.64618 0.78544 0.74976 0.0
C2172 C 0.63964 0.78204 0.71253 0.0
C2173 C 0.62343 0.77772 0.70844 0.0
C2174 C 0.61375 0.77665 0.74162 0.0
C2175 C 0.62023 0.78008 0.77892 0.0
H2176 H 0.61837 0.77518 0.67958 0.0
H2177 H 0.68117 0.81307 0.04008 0.0
H2178 H 0.87136 0.15071 0.23969 0.0
H2179 H 0.87084 0.16576 0.3068 0.0
H2180 H 0.91126 0.20748 0.2797 0.0
H2181 H 0.91213 0.19178 0.21401 0.0
H2182 H 0.91204 0.2 0.35276 0.0
H2183 H 0.87076 0.22239 0.26101 0.0
H2184 H 0.84761 0.21604 0.218 0.0
H2185 H 0.82092 0.19112 0.31584 0.0
H2186 H 0.84403 0.19697 0.35933 0.0
H2187 H 0.89585 0.30966 0.42302 0.0
H2188 H 0.89718 0.27714 0.37976 0.0
H2189 H 0.86977 0.23856 0.46207 0.0
H2190 H 0.86919 0.27036 0.50686 0.0
H2191 H 0.86057 0.2382 0.3733 0.0
H2192 H 0.90277 0.22434 0.46614 0.0
H2193 H 0.92637 0.23522 0.50455 0.0
H2194 H 0.95184 0.24879 0.39828 0.0
H2195 H 0.9283 0.23834 0.35923 0.0
C2196 C 0.88066 0.16208 0.24907 0.0
C2197 C 0.89186 0.17003 0.22208 0.0
C2198 C 0.8802 0.171 0.28712 0.0
C2199 C 0.8907 0.18833 0.298 0.0
C2200 C 0.90296 0.19427 0.27221 0.0
C2201 C 0.90352 0.1852 0.23462 0.0
C2202 C 0.88782 0.20271 0.33297 0.0
C2203 C 0.90073 0.20819 0.35732 0.0
C2204 C 0.87304 0.21341 0.33938 0.0
C2205 C 0.85917 0.20984 0.31329 0.0
C2206 C 0.85998 0.21541 0.27328 0.0
C2207 C 0.84688 0.21191 0.24883 0.0
C2208 C 0.83282 0.20317 0.26419 0.0
C2209 C 0.83184 0.19786 0.304 0.0
C2210 C 0.84494 0.20123 0.32855 0.0
C2211 C 0.89021 0.29427 0.43232 0.0
C2212 C 0.88243 0.29285 0.46875 0.0
C2213 C 0.8909 0.27573 0.40734 0.0
C2214 C 0.8836 0.25551 0.41788 0.0
C2215 C 0.87541 0.2541 0.45343 0.0
C2216 C 0.87498 0.27247 0.47883 0.0
C2217 C 0.88488 0.23576 0.39186 0.0
C2218 C 0.8717 0.22944 0.36932 0.0
C2219 C 0.89949 0.22471 0.3864 0.0
C2220 C 0.91373 0.23072 0.40979 0.0
C2221 C 0.91336 0.22982 0.45097 0.0
C2222 C 0.92673 0.23588 0.47286 0.0
C2223 C 0.94059 0.24274 0.45387 0.0
C2224 C 0.9411 0.24349 0.41295 0.0
C2225 C 0.92775 0.23748 0.39092 0.0
H2226 H 0.95093 0.24743 0.47087 0.0
H2227 H 0.82266 0.20061 0.24526 0.0
H2228 H 0.62258 0.17421 0.27646 0.0
H2229 H 0.62271 0.1914 0.21161 0.0
H2230 H 0.67182 0.17316 0.19751 0.0
H2231 H 0.67164 0.15612 0.26271 0.0
H2232 H 0.6679 0.21738 0.19907 0.0
H2233 H 0.64359 0.15686 0.12999 0.0
H2234 H 0.62377 0.1273 0.11739 0.0
H2235 H 0.58704 0.17669 0.11037 0.0
H2236 H 0.6066 0.20654 0.12349 0.0
H2237 H 0.67773 0.283 0.02918 0.0
H2238 H 0.67612 0.25195 0.07524 0.0
H2239 H 0.62637 0.26512 0.09272 0.0
H2240 H 0.62773 0.29569 0.04502 0.0
H2241 H 0.63134 0.22105 0.08528 0.0
H2242 H 0.65419 0.28049 0.16114 0.0
H2243 H 0.67312 0.31077 0.17654 0.0
H2244 H 0.71155 0.26388 0.17436 0.0
H2245 H 0.69286 0.23335 0.1584 0.0
C2246 C 0.63306 0.17253 0.25835 0.0
C2247 C 0.64704 0.16363 0.27418 0.0
C2248 C 0.63319 0.18255 0.22135 0.0
C2249 C 0.64733 0.18378 0.19978 0.0
C2250 C 0.66078 0.17242 0.21366 0.0
C2251 C 0.66063 0.16241 0.25069 0.0
C2252 C 0.64895 0.20068 0.16812 0.0
C2253 C 0.66017 0.21782 0.17362 0.0
C2254 C 0.63838 0.20186 0.13593 0.0
C2255 C 0.62657 0.18394 0.12802 0.0
C2256 C 0.63127 0.16142 0.12609 0.0
C2257 C 0.62008 0.1446 0.11878 0.0
C2258 C 0.60415 0.15011 0.11316 0.0
C2259 C 0.59939 0.17245 0.11475 0.0
C2260 C 0.61052 0.18932 0.12206 0.0
C2261 C 0.66642 0.27929 0.0427 0.0
C2262 C 0.65286 0.29186 0.03336 0.0
C2263 C 0.66554 0.2616 0.06926 0.0
C2264 C 0.65115 0.25627 0.08767 0.0
C2265 C 0.6376 0.26892 0.07882 0.0
C2266 C 0.63845 0.28659 0.05198 0.0
C2267 C 0.65034 0.23757 0.1163 0.0
C2268 C 0.63922 0.22031 0.11042 0.0
C2269 C 0.66087 0.23634 0.14855 0.0
C2270 C 0.67214 0.25468 0.15815 0.0
C2271 C 0.66669 0.27667 0.16361 0.0
C2272 C 0.67738 0.29387 0.1725 0.0
C2273 C 0.69354 0.28927 0.17631 0.0
C2274 C 0.69904 0.26743 0.17133 0.0
C2275 C 0.6884 0.25017 0.16239 0.0
H2276 H 0.70179 0.30261 0.18321 0.0
H2277 H 0.59551 0.13707 0.1075 0.0
H2278 H 0.87273 0.7545 0.47777 0.0
H2279 H 0.87339 0.78521 0.52475 0.0
H2280 H 0.88186 0.73838 0.61853 0.0
H2281 H 0.88034 0.70735 0.57196 0.0
H2282 H 0.86241 0.76936 0.64317 0.0
H2283 H 0.91219 0.7689 0.57418 0.0
H2284 H 0.9295 0.76996 0.51602 0.0
H2285 H 0.91125 0.8346 0.48539 0.0
H2286 H 0.89366 0.83378 0.54315 0.0
H2287 H 0.91296 0.82071 0.77441 0.0
H2288 H 0.9093 0.8079 0.70722 0.0
H2289 H 0.87103 0.85471 0.69203 0.0
H2290 H 0.87453 0.86747 0.76016 0.0
H2291 H 0.90192 0.82996 0.62246 0.0
H2292 H 0.85006 0.82595 0.69781 0.0
H2293 H 0.83745 0.82262 0.76276 0.0
H2294 H 0.86453 0.7635 0.78644 0.0
H2295 H 0.87744 0.76667 0.72171 0.0
C2296 C 0.87437 0.75058 0.50849 0.0
C2297 C 0.87646 0.7283 0.52097 0.0
C2298 C 0.87495 0.76827 0.5353 0.0
C2299 C 0.8779 0.7642 0.57516 0.0
C2300 C 0.87959 0.74199 0.58791 0.0
C2301 C 0.87889 0.72424 0.56115 0.0
C2302 C 0.87981 0.78303 0.60345 0.0
C2303 C 0.87087 0.78278 0.63815 0.0
C2304 C 0.89088 0.80061 0.5973 0.0
C2305 C 0.90147 0.80115 0.56267 0.0
C2306 C 0.91178 0.78326 0.55486 0.0
C2307 C 0.92165 0.78383 0.52201 0.0
C2308 C 0.92144 0.8023 0.49695 0.0
C2309 C 0.91137 0.82028 0.50478 0.0
C2310 C 0.90145 0.81977 0.53757 0.0
C2311 C 0.90423 0.82901 0.75621 0.0
C2312 C 0.89388 0.84482 0.77248 0.0
C2313 C 0.90217 0.82169 0.71779 0.0
C2314 C 0.8897 0.83003 0.69505 0.0
C2315 C 0.88064 0.84795 0.70941 0.0
C2316 C 0.8827 0.85533 0.74819 0.0
C2317 C 0.88431 0.81641 0.6613 0.0
C2318 C 0.89287 0.81721 0.62618 0.0
C2319 C 0.87306 0.79914 0.66714 0.0
C2320 C 0.86472 0.7966 0.70508 0.0
C2321 C 0.85334 0.81228 0.71694 0.0
C2322 C 0.84619 0.81048 0.75375 0.0
C2323 C 0.85023 0.79293 0.7788 0.0
C2324 C 0.8614 0.77709 0.76701 0.0
C2325 C 0.86863 0.77887 0.73026 0.0
H2326 H 0.84468 0.79158 0.80729 0.0
H2327 H 0.92909 0.80272 0.47153 0.0
H2328 H 0.40724 0.26939 0.98291 0.0
H2329 H 0.40907 0.2393 0.03117 0.0
H2330 H 0.39499 0.28514 0.12236 0.0
H2331 H 0.39333 0.31543 0.0741 0.0
H2332 H 0.4169 0.2565 0.14931 0.0
H2333 H 0.36788 0.25148 0.07651 0.0
H2334 H 0.35161 0.2486 0.01656 0.0
H2335 H 0.37407 0.18645 0.98737 0.0
H2336 H 0.39065 0.18913 0.04692 0.0
H2337 H 0.3627 0.1834 0.26034 0.0
H2338 H 0.36843 0.1991 0.19599 0.0
H2339 H 0.41748 0.18 0.20833 0.0
H2340 H 0.41168 0.16437 0.27335 0.0
H2341 H 0.38129 0.19161 0.1251 0.0
H2342 H 0.43936 0.22637 0.18624 0.0
H2343 H 0.45299 0.23104 0.24991 0.0
H2344 H 0.40805 0.23719 0.30785 0.0
H2345 H 0.3942 0.23287 0.24449 0.0
C2346 C 0.40468 0.27309 0.01334 0.0
C2347 C 0.3999 0.29467 0.02471 0.0
C2348 C 0.40575 0.25589 0.04087 0.0
C2349 C 0.40188 0.25985 0.08025 0.0
C2350 C 0.398 0.28168 0.0921 0.0
C2351 C 0.39705 0.29898 0.06455 0.0
C2352 C 0.40072 0.241 0.1085 0.0
C2353 C 0.40928 0.24219 0.14376 0.0
C2354 C 0.39067 0.22236 0.10151 0.0
C2355 C 0.38063 0.22064 0.06589 0.0
C2356 C 0.36943 0.23728 0.05715 0.0
C2357 C 0.36014 0.23568 0.02327 0.0
C2358 C 0.36184 0.21739 0.99811 0.0
C2359 C 0.3728 0.20063 0.00684 0.0
C2360 C 0.38214 0.20218 0.04065 0.0
C2361 C 0.37451 0.18148 0.24836 0.0
C2362 C 0.38675 0.17268 0.27149 0.0
C2363 C 0.37781 0.19054 0.21162 0.0
C2364 C 0.39345 0.19119 0.19774 0.0
C2365 C 0.40535 0.17988 0.21874 0.0
C2366 C 0.40201 0.17069 0.25561 0.0
C2367 C 0.39745 0.20714 0.16587 0.0
C2368 C 0.38933 0.20555 0.13004 0.0
C2369 C 0.40759 0.2257 0.17271 0.0
C2370 C 0.41578 0.22907 0.21074 0.0
C2371 C 0.43242 0.22884 0.21257 0.0
C2372 C 0.44017 0.2314 0.24859 0.0
C2373 C 0.43139 0.23435 0.28291 0.0
C2374 C 0.41484 0.23486 0.28127 0.0
C2375 C 0.40704 0.23237 0.24532 0.0
H2376 H 0.43741 0.23632 0.31074 0.0
H2377 H 0.35464 0.21618 0.97189 0.0
H2378 H 0.12194 0.83122 0.77084 0.0
H2379 H 0.12445 0.81571 0.70506 0.0
H2380 H 0.1702 0.84743 0.69309 0.0
H2381 H 0.1676 0.86318 0.75907 0.0
H2382 H 0.131 0.82462 0.62806 0.0
H2383 H 0.19567 0.80536 0.66412 0.0
H2384 H 0.21396 0.8054 0.72075 0.0
H2385 H 0.17507 0.79144 0.79817 0.0
H2386 H 0.15664 0.79088 0.74192 0.0
H2387 H 0.16027 0.75123 0.47926 0.0
H2388 H 0.15933 0.78238 0.52573 0.0
H2389 H 0.15381 0.73577 0.62119 0.0
H2390 H 0.15494 0.70445 0.57484 0.0
H2391 H 0.17493 0.76988 0.63882 0.0
H2392 H 0.12221 0.76123 0.58534 0.0
H2393 H 0.10245 0.75897 0.53211 0.0
H2394 H 0.11495 0.82527 0.4947 0.0
H2395 H 0.13497 0.82779 0.54741 0.0
C2396 C 0.13211 0.83595 0.75328 0.0
C2397 C 0.14459 0.84829 0.77002 0.0
C2398 C 0.13359 0.82697 0.71571 0.0
C2399 C 0.14768 0.82994 0.69456 0.0
C2400 C 0.1593 0.84472 0.70917 0.0
C2401 C 0.15775 0.85387 0.74681 0.0
C2402 C 0.15124 0.81425 0.66197 0.0
C2403 C 0.14079 0.81294 0.62997 0.0
C2404 C 0.16378 0.79861 0.66495 0.0
C2405 C 0.17478 0.79835 0.69889 0.0
C2406 C 0.19106 0.8022 0.69322 0.0
C2407 C 0.20144 0.80228 0.72523 0.0
C2408 C 0.19568 0.79843 0.76302 0.0
C2409 C 0.17953 0.79441 0.76888 0.0
C2410 C 0.16911 0.79419 0.73695 0.0
C2411 C 0.15912 0.74757 0.51022 0.0
C2412 C 0.15772 0.72534 0.52342 0.0
C2413 C 0.15847 0.76542 0.53668 0.0
C2414 C 0.15641 0.7614 0.57687 0.0
C2415 C 0.15542 0.73923 0.59028 0.0
C2416 C 0.15596 0.72137 0.56379 0.0
C2417 C 0.15471 0.78027 0.60488 0.0
C2418 C 0.16544 0.78201 0.63617 0.0
C2419 C 0.14229 0.79605 0.60155 0.0
C2420 C 0.13022 0.79459 0.57 0.0
C2421 C 0.12084 0.77525 0.56555 0.0
C2422 C 0.10958 0.77393 0.53551 0.0
C2423 C 0.10748 0.79194 0.50996 0.0
C2424 C 0.11661 0.81132 0.51446 0.0
C2425 C 0.12792 0.81271 0.54442 0.0
H2426 H 0.09875 0.79089 0.48673 0.0
H2427 H 0.20373 0.79861 0.78778 0.0
H2428 H 0.3654 0.85455 0.74545 0.0
H2429 H 0.3697 0.83742 0.8092 0.0
H2430 H 0.42031 0.84119 0.7916 0.0
H2431 H 0.41587 0.85821 0.72696 0.0
H2432 H 0.41164 0.79977 0.80318 0.0
H2433 H 0.40206 0.86669 0.87264 0.0
H2434 H 0.38886 0.90205 0.88999 0.0
H2435 H 0.3463 0.86612 0.9188 0.0
H2436 H 0.35914 0.83056 0.90109 0.0
H2437 H 0.41517 0.73083 0.9757 0.0
H2438 H 0.41892 0.7622 0.93067 0.0
H2439 H 0.3683 0.767 0.9152 0.0
H2440 H 0.36444 0.73539 0.95958 0.0
H2441 H 0.38232 0.80824 0.92817 0.0
H2442 H 0.39083 0.74306 0.84601 0.0
H2443 H 0.40391 0.70775 0.82766 0.0
H2444 H 0.44889 0.74148 0.82289 0.0
H2445 H 0.43609 0.77696 0.84173 0.0
C2446 C 0.37745 0.85285 0.75616 0.0
C2447 C 0.39031 0.85791 0.7317 0.0
C2448 C 0.37993 0.84298 0.79266 0.0
C2449 C 0.39535 0.83796 0.80541 0.0
C2450 C 0.40831 0.84496 0.78246 0.0
C2451 C 0.4058 0.85497 0.7458 0.0
C2452 C 0.39751 0.82202 0.8385 0.0
C2453 C 0.40562 0.80197 0.831 0.0
C2454 C 0.3894 0.82457 0.87454 0.0
C2455 C 0.38158 0.84592 0.88537 0.0
C2456 C 0.38985 0.86633 0.88242 0.0
C2457 C 0.38243 0.88642 0.89237 0.0
C2458 C 0.36675 0.88634 0.90546 0.0
C2459 C 0.35845 0.86616 0.90869 0.0
C2460 C 0.36581 0.84602 0.89877 0.0
C2461 C 0.40483 0.73827 0.96221 0.0
C2462 C 0.38949 0.73046 0.97117 0.0
C2463 C 0.40701 0.75635 0.93673 0.0
C2464 C 0.39389 0.76697 0.91963 0.0
C2465 C 0.37858 0.75918 0.92835 0.0
C2466 C 0.3764 0.74108 0.95369 0.0
C2467 C 0.39601 0.78598 0.89211 0.0
C2468 C 0.38868 0.80645 0.90074 0.0
C2469 C 0.40487 0.78389 0.85714 0.0
C2470 C 0.41255 0.76258 0.84576 0.0
C2471 C 0.40353 0.7429 0.84138 0.0
C2472 C 0.41089 0.72287 0.83083 0.0
C2473 C 0.42723 0.72235 0.82425 0.0
C2474 C 0.43624 0.7419 0.82809 0.0
C2475 C 0.42895 0.76197 0.83869 0.0
H2476 H 0.4329 0.70683 0.81607 0.0
H2477 H 0.36103 0.90191 0.91313 0.0
H2478 H 0.12192 0.18284 0.22424 0.0
H2479 H 0.12345 0.19833 0.2903 0.0
H2480 H 0.16897 0.16702 0.30673 0.0
H2481 H 0.16748 0.1517 0.24009 0.0
H2482 H 0.12871 0.18981 0.36776 0.0
H2483 H 0.19381 0.20662 0.3401 0.0
H2484 H 0.21326 0.20521 0.2863 0.0
H2485 H 0.17692 0.22256 0.20349 0.0
H2486 H 0.15725 0.22412 0.25696 0.0
H2487 H 0.15881 0.26246 0.51955 0.0
H2488 H 0.15724 0.23143 0.47266 0.0
H2489 H 0.15096 0.27845 0.37816 0.0
H2490 H 0.15244 0.30958 0.425 0.0
H2491 H 0.17332 0.24412 0.36202 0.0
H2492 H 0.11988 0.25308 0.41083 0.0
H2493 H 0.09955 0.25519 0.46257 0.0
H2494 H 0.11113 0.18864 0.49989 0.0
H2495 H 0.13171 0.18627 0.44868 0.0
C2496 C 0.1318 0.17817 0.24284 0.0
C2497 C 0.14452 0.16601 0.22732 0.0
C2498 C 0.13273 0.18716 0.28055 0.0
C2499 C 0.1465 0.18431 0.30311 0.0
C2500 C 0.15832 0.16966 0.28959 0.0
C2501 C 0.15738 0.16066 0.2517 0.0
C2502 C 0.14959 0.20001 0.3361 0.0
C2503 C 0.13863 0.20141 0.36692 0.0
C2504 C 0.16234 0.2155 0.33466 0.0
C2505 C 0.17409 0.21538 0.30244 0.0
C2506 C 0.19001 0.21029 0.31044 0.0
C2507 C 0.20107 0.20945 0.28 0.0
C2508 C 0.19636 0.21391 0.24149 0.0
C2509 C 0.18057 0.21918 0.23334 0.0
C2510 C 0.16946 0.22002 0.26369 0.0
C2511 C 0.15726 0.26618 0.48871 0.0
C2512 C 0.1558 0.28845 0.47586 0.0
C2513 C 0.15628 0.24845 0.46204 0.0
C2514 C 0.15396 0.25265 0.42199 0.0
C2515 C 0.15279 0.27487 0.40897 0.0
C2516 C 0.15355 0.29261 0.43571 0.0
C2517 C 0.15244 0.23393 0.39363 0.0
C2518 C 0.16366 0.23212 0.36354 0.0
C2519 C 0.13986 0.21823 0.39563 0.0
C2520 C 0.12745 0.21961 0.42626 0.0
C2521 C 0.11819 0.23898 0.4303 0.0
C2522 C 0.10661 0.24021 0.45948 0.0
C2523 C 0.10409 0.22209 0.48458 0.0
C2524 C 0.11312 0.20268 0.48047 0.0
C2525 C 0.12474 0.20138 0.45137 0.0
H2526 H 0.09511 0.22306 0.50715 0.0
H2527 H 0.20494 0.21318 0.21797 0.0
loop_
_geom_bond_atom_site_label_1
_geom_bond_atom_site_label_2
_geom_bond_distance
_geom_bond_site_symmetry_2
_ccdc_geom_bond_type
C0 C1 1.351 . S
C0 N3 1.368 . S
C0 H5 0.931 . S
C1 C0 1.351 . S
C1 N2 1.373 . S
C1 H29 0.930 . S
N2 C1 1.373 . S
N2 C4 1.340 . S
N3 C0 1.368 . S
N3 C4 1.321 . S
N3 Co6 2.135 . S
C4 N2 1.340 . S
C4 N3 1.321 . S
C4 H28 0.930 . S
H5 C0 0.931 . S
Co6 N3 2.135 . S
Co6 N9 2.121 . S
Co6 O14 2.055 . S
Co6 O17 2.039 . S
Co6 N20 2.140 . S
C7 O8 1.227 . S
C7 O17 1.265 . S
O8 C7 1.227 . S
N9 Co6 2.121 . S
N9 C11 1.375 . S
N9 C12 1.313 . S
C10 C11 1.338 . S
C10 N13 1.377 . S
C10 H30 0.930 . S
C11 N9 1.375 . S
C11 C10 1.338 . S
C11 H15 0.931 . S
C12 N9 1.313 . S
C12 N13 1.344 . S
C12 H16 0.930 . S
N13 C10 1.377 . S
N13 C12 1.344 . S
O14 Co6 2.055 . S
O14 C18 1.253 . S
H15 C11 0.931 . S
H16 C12 0.930 . S
O17 Co6 2.039 . S
O17 C7 1.265 . S
C18 O14 1.253 . S
C18 O19 1.227 . S
O19 C18 1.227 . S
N20 Co6 2.140 . S
N20 C23 1.346 . S
N20 C24 1.345 . S
C21 C22 1.387 . S
C21 C25 1.391 1_556 S
C22 C21 1.387 . S
C22 C23 1.369 1_556 S
C22 H31 0.929 . S
C23 N20 1.346 . S
C23 C22 1.369 1_554 S
C23 H26 0.928 . S
C24 N20 1.345 . S
C24 C25 1.371 . S
C24 H27 0.931 . S
C25 C21 1.391 1_554 S
C25 C24 1.371 . S
C25 H32 0.930 . S
H26 C23 0.928 . S
H27 C24 0.931 . S
H28 C4 0.930 . S
H29 C1 0.930 . S
H30 C10 0.930 . S
H31 C22 0.929 . S
H32 C25 0.930 . S
C33 C34 1.351 . S
C33 N36 1.368 . S
C33 H38 0.931 . S
C34 C33 1.351 . S
C34 N35 1.373 . S
C34 H62 0.930 . S
N35 C34 1.373 . S
N35 C37 1.340 . S
N36 C33 1.368 . S
N36 C37 1.321 . S
N36 Co39 2.135 . S
C37 N35 1.340 . S
C37 N36 1.321 . S
C37 H61 0.930 . S
H38 C33 0.931 . S
Co39 N36 2.135 . S
Co39 N42 2.121 . S
Co39 O47 2.055 . S
Co39 O50 2.039 . S
Co39 N53 2.140 . S
C40 O41 1.227 . S
C40 O50 1.265 . S
O41 C40 1.227 . S
N42 Co39 2.121 . S
N42 C44 1.375 . S
N42 C45 1.313 . S
C43 C44 1.338 . S
C43 N46 1.377 . S
C43 H63 0.930 . S
C44 N42 1.375 . S
C44 C43 1.338 . S
C44 H48 0.931 . S
C45 N42 1.313 . S
C45 N46 1.344 . S
C45 H49 0.930 . S
N46 C43 1.377 . S
N46 C45 1.344 . S
O47 Co39 2.055 . S
O47 C51 1.253 . S
H48 C44 0.931 . S
H49 C45 0.930 . S
O50 Co39 2.039 . S
O50 C40 1.265 . S
C51 O47 1.253 . S
C51 O52 1.227 . S
O52 C51 1.227 . S
N53 Co39 2.140 . S
N53 C56 1.346 . S
N53 C57 1.345 . S
C54 C55 1.387 . S
C54 C58 1.391 . S
C55 C54 1.387 . S
C55 C56 1.369 . S
C55 H64 0.929 . S
C56 N53 1.346 . S
C56 C55 1.369 . S
C56 H59 0.928 . S
C57 N53 1.345 . S
C57 C58 1.371 . S
C57 H60 0.931 . S
C58 C54 1.391 . S
C58 C57 1.371 . S
C58 H65 0.930 . S
H59 C56 0.928 . S
H60 C57 0.931 . S
H61 C37 0.930 . S
H62 C34 0.930 . S
H63 C43 0.930 . S
H64 C55 0.929 . S
H65 C58 0.930 . S
C66 C67 1.351 . S
C66 N69 1.368 . S
C66 H71 0.931 . S
C67 C66 1.351 . S
C67 N68 1.373 . S
C67 H95 0.930 . S
N68 C67 1.373 . S
N68 C70 1.340 . S
N69 C66 1.368 . S
N69 C70 1.321 . S
N69 Co72 2.135 . S
C70 N68 1.340 . S
C70 N69 1.321 . S
C70 H94 0.930 . S
H71 C66 0.931 . S
Co72 N69 2.135 . S
Co72 N75 2.121 . S
Co72 O80 2.055 . S
Co72 O83 2.039 . S
Co72 N86 2.140 . S
C73 O74 1.227 . S
C73 O83 1.265 . S
O74 C73 1.227 . S
N75 Co72 2.121 . S
N75 C77 1.375 . S
N75 C78 1.313 . S
C76 C77 1.338 . S
C76 N79 1.377 . S
C76 H96 0.930 . S
C77 N75 1.375 . S
C77 C76 1.338 . S
C77 H81 0.931 . S
C78 N75 1.313 . S
C78 N79 1.344 . S
C78 H82 0.930 . S
N79 C76 1.377 . S
N79 C78 1.344 . S
O80 Co72 2.055 . S
O80 C84 1.253 . S
H81 C77 0.931 . S
H82 C78 0.930 . S
O83 Co72 2.039 . S
O83 C73 1.265 . S
C84 O80 1.253 . S
C84 O85 1.227 . S
O85 C84 1.227 . S
N86 Co72 2.140 . S
N86 C89 1.346 . S
N86 C90 1.345 . S
C87 C88 1.387 . S
C87 C91 1.391 1_554 S
C88 C87 1.387 . S
C88 C89 1.369 1_554 S
C88 H97 0.929 . S
C89 N86 1.346 . S
C89 C88 1.369 1_556 S
C89 H92 0.928 . S
C90 N86 1.345 . S
C90 C91 1.371 . S
C90 H93 0.931 . S
C91 C87 1.391 1_556 S
C91 C90 1.371 . S
C91 H98 0.930 . S
H92 C89 0.928 . S
H93 C90 0.931 . S
H94 C70 0.930 . S
H95 C67 0.930 . S
H96 C76 0.930 . S
H97 C88 0.929 . S
H98 C91 0.930 . S
C99 C100 1.351 . S
C99 N102 1.368 . S
C99 H104 0.931 . S
C100 C99 1.351 . S
C100 N101 1.373 . S
C100 H128 0.930 . S
N101 C100 1.373 . S
N101 C103 1.340 . S
N102 C99 1.368 . S
N102 C103 1.321 . S
N102 Co105 2.135 . S
C103 N101 1.340 . S
C103 N102 1.321 . S
C103 H127 0.930 . S
H104 C99 0.931 . S
Co105 N102 2.135 . S
Co105 N108 2.121 . S
Co105 O113 2.055 . S
Co105 O116 2.039 . S
Co105 N119 2.140 . S
C106 O107 1.227 . S
C106 O116 1.265 . S
O107 C106 1.227 . S
N108 Co105 2.121 . S
N108 C110 1.375 . S
N108 C111 1.313 . S
C109 C110 1.338 . S
C109 N112 1.377 . S
C109 H129 0.930 . S
C110 N108 1.375 . S
C110 C109 1.338 . S
C110 H114 0.931 . S
C111 N108 1.313 . S
C111 N112 1.344 . S
C111 H115 0.930 . S
N112 C109 1.377 . S
N112 C111 1.344 . S
O113 Co105 2.055 . S
O113 C117 1.253 . S
H114 C110 0.931 . S
H115 C111 0.930 . S
O116 Co105 2.039 . S
O116 C106 1.265 . S
C117 O113 1.253 . S
C117 O118 1.227 . S
O118 C117 1.227 . S
N119 Co105 2.140 . S
N119 C122 1.346 . S
N119 C123 1.345 . S
C120 C121 1.387 . S
C120 C124 1.391 . S
C121 C120 1.387 . S
C121 C122 1.369 . S
C121 H130 0.929 . S
C122 N119 1.346 . S
C122 C121 1.369 . S
C122 H125 0.928 . S
C123 N119 1.345 . S
C123 C124 1.371 . S
C123 H126 0.931 . S
C124 C120 1.391 . S
C124 C123 1.371 . S
C124 H131 0.930 . S
H125 C122 0.928 . S
H126 C123 0.931 . S
H127 C103 0.930 . S
H128 C100 0.930 . S
H129 C109 0.930 . S
H130 C121 0.929 . S
H131 C124 0.930 . S
C132 C133 1.351 . S
C132 N135 1.368 . S
C132 H137 0.931 . S
C133 C132 1.351 . S
C133 N134 1.373 . S
C133 H161 0.930 . S
N134 C133 1.373 . S
N134 C136 1.340 . S
N135 C132 1.368 . S
N135 C136 1.321 . S
N135 Co138 2.135 . S
C136 N134 1.340 . S
C136 N135 1.321 . S
C136 H160 0.930 . S
H137 C132 0.931 . S
Co138 N135 2.135 . S
Co138 N141 2.121 . S
Co138 O146 2.055 . S
Co138 O149 2.039 . S
Co138 N152 2.140 . S
C139 O140 1.227 . S
C139 O149 1.265 . S
O140 C139 1.227 . S
N141 Co138 2.121 . S
N141 C143 1.375 . S
N141 C144 1.313 . S
C142 C143 1.338 . S
C142 N145 1.377 . S
C142 H162 0.930 . S
C143 N141 1.375 . S
C143 C142 1.338 . S
C143 H147 0.931 . S
C144 N141 1.313 . S
C144 N145 1.344 . S
C144 H148 0.930 . S
N145 C142 1.377 . S
N145 C144 1.344 . S
O146 Co138 2.055 . S
O146 C150 1.253 . S
H147 C143 0.931 . S
H148 C144 0.930 . S
O149 Co138 2.039 . S
O149 C139 1.265 . S
C150 O146 1.253 . S
C150 O151 1.227 . S
O151 C150 1.227 . S
N152 Co138 2.140 . S
N152 C155 1.346 . S
N152 C156 1.345 . S
C153 C154 1.387 . S
C153 C157 1.391 1_554 S
C154 C153 1.387 . S
C154 C155 1.369 1_554 S
C154 H163 0.929 . S
C155 N152 1.346 . S
C155 C154 1.369 1_556 S
C155 H158 0.928 . S
C156 N152 1.345 . S
C156 C157 1.371 . S
C156 H159 0.931 . S
C157 C153 1.391 1_556 S
C157 C156 1.371 . S
C157 H164 0.930 . S
H158 C155 0.928 . S
H159 C156 0.931 . S
H160 C136 0.930 . S
H161 C133 0.930 . S
H162 C142 0.930 . S
H163 C154 0.929 . S
H164 C157 0.930 . S
C165 C166 1.351 . S
C165 N168 1.368 . S
C165 H170 0.931 . S
C166 C165 1.351 . S
C166 N167 1.373 . S
C166 H194 0.930 . S
N167 C166 1.373 . S
N167 C169 1.340 . S
N168 C165 1.368 . S
N168 C169 1.321 . S
N168 Co171 2.135 . S
C169 N167 1.340 . S
C169 N168 1.321 . S
C169 H193 0.930 . S
H170 C165 0.931 . S
Co171 N168 2.135 . S
Co171 N174 2.121 . S
Co171 O179 2.055 . S
Co171 O182 2.039 . S
Co171 N185 2.140 . S
C172 O173 1.227 . S
C172 O182 1.265 . S
O173 C172 1.227 . S
N174 Co171 2.121 . S
N174 C176 1.375 . S
N174 C177 1.313 . S
C175 C176 1.338 . S
C175 N178 1.377 . S
C175 H195 0.930 . S
C176 N174 1.375 . S
C176 C175 1.338 . S
C176 H180 0.931 . S
C177 N174 1.313 . S
C177 N178 1.344 . S
C177 H181 0.930 . S
N178 C175 1.377 . S
N178 C177 1.344 . S
O179 Co171 2.055 . S
O179 C183 1.253 . S
H180 C176 0.931 . S
H181 C177 0.930 . S
O182 Co171 2.039 . S
O182 C172 1.265 . S
C183 O179 1.253 . S
C183 O184 1.227 . S
O184 C183 1.227 . S
N185 Co171 2.140 . S
N185 C188 1.346 . S
N185 C189 1.345 . S
C186 C187 1.387 . S
C186 C190 1.391 . S
C187 C186 1.387 . S
C187 C188 1.369 . S
C187 H196 0.929 . S
C188 N185 1.346 . S
C188 C187 1.369 . S
C188 H191 0.928 . S
C189 N185 1.345 . S
C189 C190 1.371 . S
C189 H192 0.931 . S
C190 C186 1.391 . S
C190 C189 1.371 . S
C190 H197 0.930 . S
H191 C188 0.928 . S
H192 C189 0.931 . S
H193 C169 0.930 . S
H194 C166 0.930 . S
H195 C175 0.930 . S
H196 C187 0.929 . S
H197 C190 0.930 . S
C198 C199 1.351 . S
C198 N201 1.368 . S
C198 H203 0.931 . S
C199 C198 1.351 . S
C199 N200 1.373 . S
C199 H227 0.930 . S
N200 C199 1.373 . S
N200 C202 1.340 . S
N201 C198 1.368 . S
N201 C202 1.321 . S
N201 Co204 2.135 . S
C202 N200 1.340 . S
C202 N201 1.321 . S
C202 H226 0.930 . S
H203 C198 0.931 . S
Co204 N201 2.135 . S
Co204 N207 2.121 . S
Co204 O212 2.055 . S
Co204 O215 2.039 . S
Co204 N218 2.140 . S
C205 O206 1.227 . S
C205 O215 1.265 . S
O206 C205 1.227 . S
N207 Co204 2.121 . S
N207 C209 1.375 . S
N207 C210 1.313 . S
C208 C209 1.338 . S
C208 N211 1.377 . S
C208 H228 0.930 . S
C209 N207 1.375 . S
C209 C208 1.338 . S
C209 H213 0.931 . S
C210 N207 1.313 . S
C210 N211 1.344 . S
C210 H214 0.930 . S
N211 C208 1.377 . S
N211 C210 1.344 . S
O212 Co204 2.055 . S
O212 C216 1.253 . S
H213 C209 0.931 . S
H214 C210 0.930 . S
O215 Co204 2.039 . S
O215 C205 1.265 . S
C216 O212 1.253 . S
C216 O217 1.227 . S
O217 C216 1.227 . S
N218 Co204 2.140 . S
N218 C221 1.346 . S
N218 C222 1.345 . S
C219 C220 1.387 . S
C219 C223 1.391 1_556 S
C220 C219 1.387 . S
C220 C221 1.369 1_556 S
C220 H229 0.929 . S
C221 N218 1.346 . S
C221 C220 1.369 1_554 S
C221 H224 0.928 . S
C222 N218 1.345 . S
C222 C223 1.371 . S
C222 H225 0.931 . S
C223 C219 1.391 1_554 S
C223 C222 1.371 . S
C223 H230 0.930 . S
H224 C221 0.928 . S
H225 C222 0.931 . S
H226 C202 0.930 . S
H227 C199 0.930 . S
H228 C208 0.930 . S
H229 C220 0.929 . S
H230 C223 0.930 . S
C231 C232 1.351 . S
C231 N234 1.368 . S
C231 H236 0.931 . S
C232 C231 1.351 . S
C232 N233 1.373 . S
C232 H260 0.930 . S
N233 C232 1.373 . S
N233 C235 1.340 . S
N234 C231 1.368 . S
N234 C235 1.321 . S
N234 Co237 2.135 . S
C235 N233 1.340 . S
C235 N234 1.321 . S
C235 H259 0.930 . S
H236 C231 0.931 . S
Co237 N234 2.135 . S
Co237 N240 2.121 . S
Co237 O245 2.055 . S
Co237 O248 2.039 . S
Co237 N251 2.140 . S
C238 O239 1.227 . S
C238 O248 1.265 . S
O239 C238 1.227 . S
N240 Co237 2.121 . S
N240 C242 1.375 . S
N240 C243 1.313 . S
C241 C242 1.338 . S
C241 N244 1.377 . S
C241 H261 0.930 . S
C242 N240 1.375 . S
C242 C241 1.338 . S
C242 H246 0.931 . S
C243 N240 1.313 . S
C243 N244 1.344 . S
C243 H247 0.930 . S
N244 C241 1.377 . S
N244 C243 1.344 . S
O245 Co237 2.055 . S
O245 C249 1.253 . S
H246 C242 0.931 . S
H247 C243 0.930 . S
O248 Co237 2.039 . S
O248 C238 1.265 . S
C249 O245 1.253 . S
C249 O250 1.227 . S
O250 C249 1.227 . S
N251 Co237 2.140 . S
N251 C254 1.346 . S
N251 C255 1.345 . S
C252 C253 1.387 . S
C252 C256 1.391 . S
C253 C252 1.387 . S
C253 C254 1.369 . S
C253 H262 0.929 . S
C254 N251 1.346 . S
C254 C253 1.369 . S
C254 H257 0.928 . S
C255 N251 1.345 . S
C255 C256 1.371 . S
C255 H258 0.931 . S
C256 C252 1.391 . S
C256 C255 1.371 . S
C256 H263 0.930 . S
H257 C254 0.928 . S
H258 C255 0.931 . S
H259 C235 0.930 . S
H260 C232 0.930 . S
H261 C241 0.930 . S
H262 C253 0.929 . S
H263 C256 0.930 . S
C264 C265 1.351 . S
C264 N267 1.368 . S
C264 H269 0.931 . S
C265 C264 1.351 . S
C265 N266 1.373 . S
C265 H293 0.930 . S
N266 C265 1.373 . S
N266 C268 1.340 . S
N267 C264 1.368 . S
N267 C268 1.321 . S
N267 Co270 2.135 . S
C268 N266 1.340 . S
C268 N267 1.321 . S
C268 H292 0.930 . S
H269 C264 0.931 . S
Co270 N267 2.135 . S
Co270 N273 2.121 . S
Co270 O278 2.055 . S
Co270 O281 2.039 . S
Co270 N284 2.140 . S
C271 O272 1.227 . S
C271 O281 1.265 . S
O272 C271 1.227 . S
N273 Co270 2.121 . S
N273 C275 1.375 . S
N273 C276 1.313 . S
C274 C275 1.338 . S
C274 N277 1.377 . S
C274 H294 0.930 . S
C275 N273 1.375 . S
C275 C274 1.338 . S
C275 H279 0.931 . S
C276 N273 1.313 . S
C276 N277 1.344 . S
C276 H280 0.930 . S
N277 C274 1.377 . S
N277 C276 1.344 . S
O278 Co270 2.055 . S
O278 C282 1.253 . S
H279 C275 0.931 . S
H280 C276 0.930 . S
O281 Co270 2.039 . S
O281 C271 1.265 . S
C282 O278 1.253 . S
C282 O283 1.227 . S
O283 C282 1.227 . S
N284 Co270 2.140 . S
N284 C287 1.346 . S
N284 C288 1.345 . S
C285 C286 1.387 . S
C285 C289 1.391 1_556 S
C286 C285 1.387 . S
C286 C287 1.369 1_556 S
C286 H295 0.929 . S
C287 N284 1.346 . S
C287 C286 1.369 1_554 S
C287 H290 0.928 . S
C288 N284 1.345 . S
C288 C289 1.371 . S
C288 H291 0.931 . S
C289 C285 1.391 1_554 S
C289 C288 1.371 . S
C289 H296 0.930 . S
H290 C287 0.928 . S
H291 C288 0.931 . S
H292 C268 0.930 . S
H293 C265 0.930 . S
H294 C274 0.930 . S
H295 C286 0.929 . S
H296 C289 0.930 . S
C297 C298 1.351 . S
C297 N300 1.368 . S
C297 H302 0.931 . S
C298 C297 1.351 . S
C298 N299 1.373 . S
C298 H326 0.930 . S
N299 C298 1.373 . S
N299 C301 1.340 . S
N300 C297 1.368 . S
N300 C301 1.321 . S
N300 Co303 2.135 . S
C301 N299 1.340 . S
C301 N300 1.321 . S
C301 H325 0.930 . S
H302 C297 0.931 . S
Co303 N300 2.135 . S
Co303 N306 2.121 . S
Co303 O311 2.055 . S
Co303 O314 2.039 . S
Co303 N317 2.140 . S
C304 O305 1.227 . S
C304 O314 1.265 . S
O305 C304 1.227 . S
N306 Co303 2.121 . S
N306 C308 1.375 . S
N306 C309 1.313 . S
C307 C308 1.338 . S
C307 N310 1.377 . S
C307 H327 0.930 . S
C308 N306 1.375 . S
C308 C307 1.338 . S
C308 H312 0.931 . S
C309 N306 1.313 . S
C309 N310 1.344 . S
C309 H313 0.930 . S
N310 C307 1.377 . S
N310 C309 1.344 . S
O311 Co303 2.055 . S
O311 C315 1.253 . S
H312 C308 0.931 . S
H313 C309 0.930 . S
O314 Co303 2.039 . S
O314 C304 1.265 . S
C315 O311 1.253 . S
C315 O316 1.227 . S
O316 C315 1.227 . S
N317 Co303 2.140 . S
N317 C320 1.346 . S
N317 C321 1.345 . S
C318 C319 1.387 . S
C318 C322 1.391 . S
C319 C318 1.387 . S
C319 C320 1.369 . S
C319 H328 0.929 . S
C320 N317 1.346 . S
C320 C319 1.369 . S
C320 H323 0.928 . S
C321 N317 1.345 . S
C321 C322 1.371 . S
C321 H324 0.931 . S
C322 C318 1.391 . S
C322 C321 1.371 . S
C322 H329 0.930 . S
H323 C320 0.928 . S
H324 C321 0.931 . S
H325 C301 0.930 . S
H326 C298 0.930 . S
H327 C307 0.930 . S
H328 C319 0.929 . S
H329 C322 0.930 . S
C330 C331 1.351 . S
C330 N333 1.368 . S
C330 H335 0.931 . S
C331 C330 1.351 . S
C331 N332 1.373 . S
C331 H359 0.930 . S
N332 C331 1.373 . S
N332 C334 1.340 . S
N333 C330 1.368 . S
N333 C334 1.321 . S
N333 Co336 2.135 . S
C334 N332 1.340 . S
C334 N333 1.321 . S
C334 H358 0.930 . S
H335 C330 0.931 . S
Co336 N333 2.135 . S
Co336 N339 2.121 . S
Co336 O344 2.055 . S
Co336 O347 2.039 . S
Co336 N350 2.140 . S
C337 O338 1.227 . S
C337 O347 1.265 . S
O338 C337 1.227 . S
N339 Co336 2.121 . S
N339 C341 1.375 . S
N339 C342 1.313 . S
C340 C341 1.338 . S
C340 N343 1.377 . S
C340 H360 0.930 . S
C341 N339 1.375 . S
C341 C340 1.338 . S
C341 H345 0.931 . S
C342 N339 1.313 . S
C342 N343 1.344 . S
C342 H346 0.930 . S
N343 C340 1.377 . S
N343 C342 1.344 . S
O344 Co336 2.055 . S
O344 C348 1.253 . S
H345 C341 0.931 . S
H346 C342 0.930 . S
O347 Co336 2.039 . S
O347 C337 1.265 . S
C348 O344 1.253 . S
C348 O349 1.227 . S
O349 C348 1.227 . S
N350 Co336 2.140 . S
N350 C353 1.346 . S
N350 C354 1.345 . S
C351 C352 1.387 . S
C351 C355 1.391 1_554 S
C352 C351 1.387 . S
C352 C353 1.369 1_554 S
C352 H361 0.929 . S
C353 N350 1.346 . S
C353 C352 1.369 1_556 S
C353 H356 0.928 . S
C354 N350 1.345 . S
C354 C355 1.371 . S
C354 H357 0.931 . S
C355 C351 1.391 1_556 S
C355 C354 1.371 . S
C355 H362 0.930 . S
H356 C353 0.928 . S
H357 C354 0.931 . S
H358 C334 0.930 . S
H359 C331 0.930 . S
H360 C340 0.930 . S
H361 C352 0.929 . S
H362 C355 0.930 . S
C363 C364 1.351 . S
C363 N366 1.368 . S
C363 H368 0.931 . S
C364 C363 1.351 . S
C364 N365 1.373 . S
C364 H392 0.930 . S
N365 C364 1.373 . S
N365 C367 1.340 . S
N366 C363 1.368 . S
N366 C367 1.321 . S
N366 Co369 2.135 . S
C367 N365 1.340 . S
C367 N366 1.321 . S
C367 H391 0.930 . S
H368 C363 0.931 . S
Co369 N366 2.135 . S
Co369 N372 2.121 . S
Co369 O377 2.055 . S
Co369 O380 2.039 . S
Co369 N383 2.140 . S
C370 O371 1.227 . S
C370 O380 1.265 . S
O371 C370 1.227 . S
N372 Co369 2.121 . S
N372 C374 1.375 . S
N372 C375 1.313 . S
C373 C374 1.338 . S
C373 N376 1.377 . S
C373 H393 0.930 . S
C374 N372 1.375 . S
C374 C373 1.338 . S
C374 H378 0.931 . S
C375 N372 1.313 . S
C375 N376 1.344 . S
C375 H379 0.930 . S
N376 C373 1.377 . S
N376 C375 1.344 . S
O377 Co369 2.055 . S
O377 C381 1.253 . S
H378 C374 0.931 . S
H379 C375 0.930 . S
O380 Co369 2.039 . S
O380 C370 1.265 . S
C381 O377 1.253 . S
C381 O382 1.227 . S
O382 C381 1.227 . S
N383 Co369 2.140 . S
N383 C386 1.346 . S
N383 C387 1.345 . S
C384 C385 1.387 . S
C384 C388 1.391 . S
C385 C384 1.387 . S
C385 C386 1.369 . S
C385 H394 0.929 . S
C386 N383 1.346 . S
C386 C385 1.369 . S
C386 H389 0.928 . S
C387 N383 1.345 . S
C387 C388 1.371 . S
C387 H390 0.931 . S
C388 C384 1.391 . S
C388 C387 1.371 . S
C388 H395 0.930 . S
H389 C386 0.928 . S
H390 C387 0.931 . S
H391 C367 0.930 . S
H392 C364 0.930 . S
H393 C373 0.930 . S
H394 C385 0.929 . S
H395 C388 0.930 . S
C396 C397 1.351 . S
C396 N399 1.368 . S
C396 H401 0.931 . S
C397 C396 1.351 . S
C397 N398 1.373 . S
C397 H425 0.930 . S
N398 C397 1.373 . S
N398 C400 1.340 . S
N399 C396 1.368 . S
N399 C400 1.321 . S
N399 Co402 2.135 . S
C400 N398 1.340 . S
C400 N399 1.321 . S
C400 H424 0.930 . S
H401 C396 0.931 . S
Co402 N399 2.135 . S
Co402 N405 2.121 . S
Co402 O410 2.055 . S
Co402 O413 2.039 . S
Co402 N416 2.140 . S
C403 O404 1.227 . S
C403 O413 1.265 . S
O404 C403 1.227 . S
N405 Co402 2.121 . S
N405 C407 1.375 . S
N405 C408 1.313 . S
C406 C407 1.338 . S
C406 N409 1.377 . S
C406 H426 0.930 . S
C407 N405 1.375 . S
C407 C406 1.338 . S
C407 H411 0.931 . S
C408 N405 1.313 . S
C408 N409 1.344 . S
C408 H412 0.930 . S
N409 C406 1.377 . S
N409 C408 1.344 . S
O410 Co402 2.055 . S
O410 C414 1.253 . S
H411 C407 0.931 . S
H412 C408 0.930 . S
O413 Co402 2.039 . S
O413 C403 1.265 . S
C414 O410 1.253 . S
C414 O415 1.227 . S
O415 C414 1.227 . S
N416 Co402 2.140 . S
N416 C419 1.346 . S
N416 C420 1.345 . S
C417 C418 1.387 . S
C417 C421 1.391 1_554 S
C418 C417 1.387 . S
C418 C419 1.369 1_554 S
C418 H427 0.929 . S
C419 N416 1.346 . S
C419 C418 1.369 1_556 S
C419 H422 0.928 . S
C420 N416 1.345 . S
C420 C421 1.371 . S
C420 H423 0.931 . S
C421 C417 1.391 1_556 S
C421 C420 1.371 . S
C421 H428 0.930 . S
H422 C419 0.928 . S
H423 C420 0.931 . S
H424 C400 0.930 . S
H425 C397 0.930 . S
H426 C406 0.930 . S
H427 C418 0.929 . S
H428 C421 0.930 . S
C429 C430 1.351 . S
C429 N432 1.368 . S
C429 H434 0.931 . S
C430 C429 1.351 . S
C430 N431 1.373 . S
C430 H458 0.930 . S
N431 C430 1.373 . S
N431 C433 1.340 . S
N432 C429 1.368 . S
N432 C433 1.321 . S
N432 Co435 2.135 . S
C433 N431 1.340 . S
C433 N432 1.321 . S
C433 H457 0.930 . S
H434 C429 0.931 . S
Co435 N432 2.135 . S
Co435 N438 2.121 . S
Co435 O443 2.055 . S
Co435 O446 2.039 . S
Co435 N449 2.140 . S
C436 O437 1.227 . S
C436 O446 1.265 . S
O437 C436 1.227 . S
N438 Co435 2.121 . S
N438 C440 1.375 . S
N438 C441 1.313 . S
C439 C440 1.338 . S
C439 N442 1.377 . S
C439 H459 0.930 . S
C440 N438 1.375 . S
C440 C439 1.338 . S
C440 H444 0.931 . S
C441 N438 1.313 . S
C441 N442 1.344 . S
C441 H445 0.930 . S
N442 C439 1.377 . S
N442 C441 1.344 . S
O443 Co435 2.055 . S
O443 C447 1.253 . S
H444 C440 0.931 . S
H445 C441 0.930 . S
O446 Co435 2.039 . S
O446 C436 1.265 . S
C447 O443 1.253 . S
C447 O448 1.227 . S
O448 C447 1.227 . S
N449 Co435 2.140 . S
N449 C452 1.346 . S
N449 C453 1.345 . S
C450 C451 1.387 . S
C450 C454 1.391 . S
C451 C450 1.387 . S
C451 C452 1.369 . S
C451 H460 0.929 . S
C452 N449 1.346 . S
C452 C451 1.369 . S
C452 H455 0.928 . S
C453 N449 1.345 . S
C453 C454 1.371 . S
C453 H456 0.931 . S
C454 C450 1.391 . S
C454 C453 1.371 . S
C454 H461 0.930 . S
H455 C452 0.928 . S
H456 C453 0.931 . S
H457 C433 0.930 . S
H458 C430 0.930 . S
H459 C439 0.930 . S
H460 C451 0.929 . S
H461 C454 0.930 . S
C462 C463 1.351 . S
C462 N465 1.368 . S
C462 H467 0.931 . S
C463 C462 1.351 . S
C463 N464 1.373 . S
C463 H491 0.930 . S
N464 C463 1.373 . S
N464 C466 1.340 . S
N465 C462 1.368 . S
N465 C466 1.321 . S
N465 Co468 2.135 . S
C466 N464 1.340 . S
C466 N465 1.321 . S
C466 H490 0.930 . S
H467 C462 0.931 . S
Co468 N465 2.135 . S
Co468 N471 2.121 . S
Co468 O476 2.055 . S
Co468 O479 2.039 . S
Co468 N482 2.140 . S
C469 O470 1.227 . S
C469 O479 1.265 . S
O470 C469 1.227 . S
N471 Co468 2.121 . S
N471 C473 1.375 . S
N471 C474 1.313 . S
C472 C473 1.338 . S
C472 N475 1.377 . S
C472 H492 0.930 . S
C473 N471 1.375 . S
C473 C472 1.338 . S
C473 H477 0.931 . S
C474 N471 1.313 . S
C474 N475 1.344 . S
C474 H478 0.930 . S
N475 C472 1.377 . S
N475 C474 1.344 . S
O476 Co468 2.055 . S
O476 C480 1.253 . S
H477 C473 0.931 . S
H478 C474 0.930 . S
O479 Co468 2.039 . S
O479 C469 1.265 . S
C480 O476 1.253 . S
C480 O481 1.227 . S
O481 C480 1.227 . S
N482 Co468 2.140 . S
N482 C485 1.346 . S
N482 C486 1.345 . S
C483 C484 1.387 . S
C483 C487 1.391 1_556 S
C484 C483 1.387 . S
C484 C485 1.369 1_556 S
C484 H493 0.929 . S
C485 N482 1.346 . S
C485 C484 1.369 1_554 S
C485 H488 0.928 . S
C486 N482 1.345 . S
C486 C487 1.371 . S
C486 H489 0.931 . S
C487 C483 1.391 1_554 S
C487 C486 1.371 . S
C487 H494 0.930 . S
H488 C485 0.928 . S
H489 C486 0.931 . S
H490 C466 0.930 . S
H491 C463 0.930 . S
H492 C472 0.930 . S
H493 C484 0.929 . S
H494 C487 0.930 . S
C495 C496 1.351 . S
C495 N498 1.368 . S
C495 H500 0.931 . S
C496 C495 1.351 . S
C496 N497 1.373 . S
C496 H524 0.930 . S
N497 C496 1.373 . S
N497 C499 1.340 . S
N498 C495 1.368 . S
N498 C499 1.321 . S
N498 Co501 2.135 . S
C499 N497 1.340 . S
C499 N498 1.321 . S
C499 H523 0.930 . S
H500 C495 0.931 . S
Co501 N498 2.135 . S
Co501 N504 2.121 . S
Co501 O509 2.055 . S
Co501 O512 2.039 . S
Co501 N515 2.140 . S
C502 O503 1.227 . S
C502 O512 1.265 . S
O503 C502 1.227 . S
N504 Co501 2.121 . S
N504 C506 1.375 . S
N504 C507 1.313 . S
C505 C506 1.338 . S
C505 N508 1.377 . S
C505 H525 0.930 . S
C506 N504 1.375 . S
C506 C505 1.338 . S
C506 H510 0.931 . S
C507 N504 1.313 . S
C507 N508 1.344 . S
C507 H511 0.930 . S
N508 C505 1.377 . S
N508 C507 1.344 . S
O509 Co501 2.055 . S
O509 C513 1.253 . S
H510 C506 0.931 . S
H511 C507 0.930 . S
O512 Co501 2.039 . S
O512 C502 1.265 . S
C513 O509 1.253 . S
C513 O514 1.227 . S
O514 C513 1.227 . S
N515 Co501 2.140 . S
N515 C518 1.346 . S
N515 C519 1.345 . S
C516 C517 1.387 . S
C516 C520 1.391 . S
C517 C516 1.387 . S
C517 C518 1.369 . S
C517 H526 0.929 . S
C518 N515 1.346 . S
C518 C517 1.369 . S
C518 H521 0.928 . S
C519 N515 1.345 . S
C519 C520 1.371 . S
C519 H522 0.931 . S
C520 C516 1.391 . S
C520 C519 1.371 . S
C520 H527 0.930 . S
H521 C518 0.928 . S
H522 C519 0.931 . S
H523 C499 0.930 . S
H524 C496 0.930 . S
H525 C505 0.930 . S
H526 C517 0.929 . S
H527 C520 0.930 . S
H528 C546 0.951 . S
H529 C548 0.951 . S
H530 C550 0.950 . S
H531 C551 0.950 . S
H532 C553 0.950 . S
H533 C556 0.950 . S
H534 C557 0.950 . S
H535 C559 0.950 . S
H536 C560 0.950 . S
H537 C561 0.951 . S
H538 C563 0.951 . S
H539 C565 0.950 . S
H540 C566 0.950 . S
H541 C568 0.950 . S
H542 C571 0.950 . S
H543 C572 0.950 . S
H544 C574 0.950 . S
H545 C575 0.950 . S
C546 H528 0.951 . S
C546 C547 1.366 . S
C546 C548 1.388 . S
C547 C546 1.366 . S
C547 C551 1.385 . S
C548 H529 0.951 . S
C548 C546 1.388 . S
C548 C549 1.366 . S
C549 C548 1.366 . S
C549 C550 1.414 . S
C549 C552 1.499 . S
C550 H530 0.950 . S
C550 C549 1.414 . S
C550 C551 1.374 . S
C551 H531 0.950 . S
C551 C547 1.385 . S
C551 C550 1.374 . S
C552 C549 1.499 . S
C552 C553 1.373 . S
C552 C554 1.389 . S
C553 H532 0.950 . S
C553 C552 1.373 . S
C553 C569 1.377 . S
C554 C552 1.389 . S
C554 C555 1.524 . S
C554 C568 1.377 . S
C555 C554 1.524 . S
C555 C556 1.397 . S
C555 C560 1.363 . S
C556 H533 0.950 . S
C556 C555 1.397 . S
C556 C557 1.334 . S
C557 H534 0.950 . S
C557 C556 1.334 . S
C557 C558 1.287 . S
C558 C557 1.287 . S
C558 C559 1.524 . S
C558 H577 0.913 . S
C559 H535 0.950 . S
C559 C558 1.524 . S
C559 C560 1.415 . S
C560 H536 0.950 . S
C560 C555 1.363 . S
C560 C559 1.415 . S
C561 H537 0.951 . S
C561 C562 1.366 . S
C561 C563 1.388 . S
C562 C561 1.366 . S
C562 C566 1.385 . S
C563 H538 0.951 . S
C563 C561 1.388 . S
C563 C564 1.366 . S
C564 C563 1.366 . S
C564 C565 1.414 . S
C564 C567 1.499 . S
C565 H539 0.950 . S
C565 C564 1.414 . S
C565 C566 1.374 . S
C566 H540 0.950 . S
C566 C562 1.385 . S
C566 C565 1.374 . S
C567 C564 1.499 . S
C567 C568 1.373 . S
C567 C569 1.389 . S
C568 H541 0.950 . S
C568 C554 1.377 . S
C568 C567 1.373 . S
C569 C553 1.377 . S
C569 C567 1.389 . S
C569 C570 1.524 . S
C570 C569 1.524 . S
C570 C571 1.397 . S
C570 C575 1.363 . S
C571 H542 0.950 . S
C571 C570 1.397 . S
C571 C572 1.334 . S
C572 H543 0.950 . S
C572 C571 1.334 . S
C572 C573 1.287 . S
C573 C572 1.287 . S
C573 C574 1.524 . S
C573 H576 0.999 . S
C574 H544 0.950 . S
C574 C573 1.524 . S
C574 C575 1.415 . S
C575 H545 0.950 . S
C575 C570 1.363 . S
C575 C574 1.415 . S
H576 C573 0.999 . S
H577 C558 0.913 . S
H578 C596 0.951 . S
H579 C598 0.951 . S
H580 C600 0.950 . S
H581 C601 0.950 . S
H582 C603 0.950 . S
H583 C606 0.950 . S
H584 C607 0.950 . S
H585 C609 0.950 . S
H586 C610 0.950 . S
H587 C611 0.951 . S
H588 C613 0.951 . S
H589 C615 0.950 . S
H590 C616 0.950 . S
H591 C618 0.950 . S
H592 C621 0.950 . S
H593 C622 0.950 . S
H594 C624 0.950 . S
H595 C625 0.950 . S
C596 H578 0.951 . S
C596 C597 1.366 . S
C596 C598 1.388 . S
C597 C596 1.366 . S
C597 C601 1.385 . S
C598 H579 0.951 . S
C598 C596 1.388 . S
C598 C599 1.366 . S
C599 C598 1.366 . S
C599 C600 1.414 . S
C599 C602 1.499 . S
C600 H580 0.950 . S
C600 C599 1.414 . S
C600 C601 1.374 . S
C601 H581 0.950 . S
C601 C597 1.385 . S
C601 C600 1.374 . S
C602 C599 1.499 . S
C602 C603 1.373 . S
C602 C604 1.389 . S
C603 H582 0.950 . S
C603 C602 1.373 . S
C603 C619 1.377 . S
C604 C602 1.389 . S
C604 C605 1.524 . S
C604 C618 1.377 . S
C605 C604 1.524 . S
C605 C606 1.397 . S
C605 C610 1.363 . S
C606 H583 0.950 . S
C606 C605 1.397 . S
C606 C607 1.334 . S
C607 H584 0.950 . S
C607 C606 1.334 . S
C607 C608 1.287 . S
C608 C607 1.287 . S
C608 C609 1.524 . S
C608 H627 0.913 . S
C609 H585 0.950 . S
C609 C608 1.524 . S
C609 C610 1.415 . S
C610 H586 0.950 . S
C610 C605 1.363 . S
C610 C609 1.415 . S
C611 H587 0.951 . S
C611 C612 1.366 . S
C611 C613 1.388 . S
C612 C611 1.366 . S
C612 C616 1.385 . S
C613 H588 0.951 . S
C613 C611 1.388 . S
C613 C614 1.366 . S
C614 C613 1.366 . S
C614 C615 1.414 . S
C614 C617 1.499 . S
C615 H589 0.950 . S
C615 C614 1.414 . S
C615 C616 1.374 . S
C616 H590 0.950 . S
C616 C612 1.385 . S
C616 C615 1.374 . S
C617 C614 1.499 . S
C617 C618 1.373 . S
C617 C619 1.389 . S
C618 H591 0.950 . S
C618 C604 1.377 . S
C618 C617 1.373 . S
C619 C603 1.377 . S
C619 C617 1.389 . S
C619 C620 1.524 . S
C620 C619 1.524 . S
C620 C621 1.397 . S
C620 C625 1.363 . S
C621 H592 0.950 . S
C621 C620 1.397 . S
C621 C622 1.334 . S
C622 H593 0.950 . S
C622 C621 1.334 . S
C622 C623 1.287 . S
C623 C622 1.287 . S
C623 C624 1.524 . S
C623 H626 0.999 . S
C624 H594 0.950 . S
C624 C623 1.524 . S
C624 C625 1.415 . S
C625 H595 0.950 . S
C625 C620 1.363 . S
C625 C624 1.415 . S
H626 C623 0.999 . S
H627 C608 0.913 . S
H628 C646 0.951 . S
H629 C648 0.951 . S
H630 C650 0.950 . S
H631 C651 0.950 . S
H632 C653 0.950 . S
H633 C656 0.950 . S
H634 C657 0.950 . S
H635 C659 0.950 . S
H636 C660 0.950 . S
H637 C661 0.951 . S
H638 C663 0.951 . S
H639 C665 0.950 . S
H640 C666 0.950 . S
H641 C668 0.950 . S
H642 C671 0.950 . S
H643 C672 0.950 . S
H644 C674 0.950 . S
H645 C675 0.950 . S
C646 H628 0.951 . S
C646 C647 1.366 . S
C646 C648 1.388 . S
C647 C646 1.366 . S
C647 C651 1.385 . S
C648 H629 0.951 . S
C648 C646 1.388 . S
C648 C649 1.366 . S
C649 C648 1.366 . S
C649 C650 1.414 . S
C649 C652 1.499 . S
C650 H630 0.950 . S
C650 C649 1.414 . S
C650 C651 1.374 . S
C651 H631 0.950 . S
C651 C647 1.385 . S
C651 C650 1.374 . S
C652 C649 1.499 . S
C652 C653 1.373 . S
C652 C654 1.389 . S
C653 H632 0.950 . S
C653 C652 1.373 . S
C653 C669 1.377 . S
C654 C652 1.389 . S
C654 C655 1.524 . S
C654 C668 1.377 . S
C655 C654 1.524 . S
C655 C656 1.397 . S
C655 C660 1.363 . S
C656 H633 0.950 . S
C656 C655 1.397 . S
C656 C657 1.334 . S
C657 H634 0.950 . S
C657 C656 1.334 . S
C657 C658 1.287 . S
C658 C657 1.287 . S
C658 C659 1.524 . S
C658 H677 0.913 . S
C659 H635 0.950 . S
C659 C658 1.524 . S
C659 C660 1.415 . S
C660 H636 0.950 . S
C660 C655 1.363 . S
C660 C659 1.415 . S
C661 H637 0.951 . S
C661 C662 1.366 . S
C661 C663 1.388 . S
C662 C661 1.366 . S
C662 C666 1.385 . S
C663 H638 0.951 . S
C663 C661 1.388 . S
C663 C664 1.366 . S
C664 C663 1.366 . S
C664 C665 1.414 . S
C664 C667 1.499 . S
C665 H639 0.950 . S
C665 C664 1.414 . S
C665 C666 1.374 . S
C666 H640 0.950 . S
C666 C662 1.385 . S
C666 C665 1.374 . S
C667 C664 1.499 . S
C667 C668 1.373 . S
C667 C669 1.389 . S
C668 H641 0.950 . S
C668 C654 1.377 . S
C668 C667 1.373 . S
C669 C653 1.377 . S
C669 C667 1.389 . S
C669 C670 1.524 . S
C670 C669 1.524 . S
C670 C671 1.397 . S
C670 C675 1.363 . S
C671 H642 0.950 . S
C671 C670 1.397 . S
C671 C672 1.334 . S
C672 H643 0.950 . S
C672 C671 1.334 . S
C672 C673 1.287 . S
C673 C672 1.287 . S
C673 C674 1.524 . S
C673 H676 0.999 . S
C674 H644 0.950 . S
C674 C673 1.524 . S
C674 C675 1.415 . S
C675 H645 0.950 . S
C675 C670 1.363 . S
C675 C674 1.415 . S
H676 C673 0.999 . S
H677 C658 0.913 . S
H678 C696 0.951 . S
H679 C698 0.951 . S
H680 C700 0.950 . S
H681 C701 0.950 . S
H682 C703 0.950 . S
H683 C706 0.950 . S
H684 C707 0.950 . S
H685 C709 0.950 . S
H686 C710 0.950 . S
H687 C711 0.951 . S
H688 C713 0.951 . S
H689 C715 0.950 . S
H690 C716 0.950 . S
H691 C718 0.950 . S
H692 C721 0.950 . S
H693 C722 0.950 . S
H694 C724 0.950 . S
H695 C725 0.950 . S
C696 H678 0.951 . S
C696 C697 1.366 . S
C696 C698 1.388 . S
C697 C696 1.366 . S
C697 C701 1.385 . S
C698 H679 0.951 . S
C698 C696 1.388 . S
C698 C699 1.366 . S
C699 C698 1.366 . S
C699 C700 1.414 . S
C699 C702 1.499 . S
C700 H680 0.950 . S
C700 C699 1.414 . S
C700 C701 1.374 . S
C701 H681 0.950 . S
C701 C697 1.385 . S
C701 C700 1.374 . S
C702 C699 1.499 . S
C702 C703 1.373 . S
C702 C704 1.389 . S
C703 H682 0.950 . S
C703 C702 1.373 . S
C703 C719 1.377 . S
C704 C702 1.389 . S
C704 C705 1.524 . S
C704 C718 1.377 . S
C705 C704 1.524 . S
C705 C706 1.397 . S
C705 C710 1.363 . S
C706 H683 0.950 . S
C706 C705 1.397 . S
C706 C707 1.334 . S
C707 H684 0.950 . S
C707 C706 1.334 . S
C707 C708 1.287 . S
C708 C707 1.287 . S
C708 C709 1.524 . S
C708 H727 0.913 . S
C709 H685 0.950 . S
C709 C708 1.524 . S
C709 C710 1.415 . S
C710 H686 0.950 . S
C710 C705 1.363 . S
C710 C709 1.415 . S
C711 H687 0.951 . S
C711 C712 1.366 . S
C711 C713 1.388 . S
C712 C711 1.366 . S
C712 C716 1.385 . S
C713 H688 0.951 . S
C713 C711 1.388 . S
C713 C714 1.366 . S
C714 C713 1.366 . S
C714 C715 1.414 . S
C714 C717 1.499 . S
C715 H689 0.950 . S
C715 C714 1.414 . S
C715 C716 1.374 . S
C716 H690 0.950 . S
C716 C712 1.385 . S
C716 C715 1.374 . S
C717 C714 1.499 . S
C717 C718 1.373 . S
C717 C719 1.389 . S
C718 H691 0.950 . S
C718 C704 1.377 . S
C718 C717 1.373 . S
C719 C703 1.377 . S
C719 C717 1.389 . S
C719 C720 1.524 . S
C720 C719 1.524 . S
C720 C721 1.397 . S
C720 C725 1.363 . S
C721 H692 0.950 . S
C721 C720 1.397 . S
C721 C722 1.334 . S
C722 H693 0.950 . S
C722 C721 1.334 . S
C722 C723 1.287 . S
C723 C722 1.287 . S
C723 C724 1.524 . S
C723 H726 0.999 . S
C724 H694 0.950 . S
C724 C723 1.524 . S
C724 C725 1.415 . S
C725 H695 0.950 . S
C725 C720 1.363 . S
C725 C724 1.415 . S
H726 C723 0.999 . S
H727 C708 0.913 . S
H728 C746 0.951 . S
H729 C748 0.951 . S
H730 C750 0.950 . S
H731 C751 0.950 . S
H732 C753 0.950 . S
H733 C756 0.950 . S
H734 C757 0.950 . S
H735 C759 0.950 . S
H736 C760 0.950 . S
H737 C761 0.951 . S
H738 C763 0.951 . S
H739 C765 0.950 . S
H740 C766 0.950 . S
H741 C768 0.950 . S
H742 C771 0.950 . S
H743 C772 0.950 . S
H744 C774 0.950 . S
H745 C775 0.950 . S
C746 H728 0.951 . S
C746 C747 1.366 . S
C746 C748 1.388 . S
C747 C746 1.366 . S
C747 C751 1.385 . S
C748 H729 0.951 . S
C748 C746 1.388 . S
C748 C749 1.366 . S
C749 C748 1.366 . S
C749 C750 1.414 . S
C749 C752 1.499 . S
C750 H730 0.950 . S
C750 C749 1.414 . S
C750 C751 1.374 . S
C751 H731 0.950 . S
C751 C747 1.385 . S
C751 C750 1.374 . S
C752 C749 1.499 . S
C752 C753 1.373 . S
C752 C754 1.389 . S
C753 H732 0.950 . S
C753 C752 1.373 . S
C753 C769 1.377 . S
C754 C752 1.389 . S
C754 C755 1.524 . S
C754 C768 1.377 . S
C755 C754 1.524 . S
C755 C756 1.397 . S
C755 C760 1.363 . S
C756 H733 0.950 . S
C756 C755 1.397 . S
C756 C757 1.334 . S
C757 H734 0.950 . S
C757 C756 1.334 . S
C757 C758 1.287 . S
C758 C757 1.287 . S
C758 C759 1.524 . S
C758 H777 0.913 . S
C759 H735 0.950 . S
C759 C758 1.524 . S
C759 C760 1.415 . S
C760 H736 0.950 . S
C760 C755 1.363 . S
C760 C759 1.415 . S
C761 H737 0.951 . S
C761 C762 1.366 . S
C761 C763 1.388 . S
C762 C761 1.366 . S
C762 C766 1.385 . S
C763 H738 0.951 . S
C763 C761 1.388 . S
C763 C764 1.366 . S
C764 C763 1.366 . S
C764 C765 1.414 . S
C764 C767 1.499 . S
C765 H739 0.950 . S
C765 C764 1.414 . S
C765 C766 1.374 . S
C766 H740 0.950 . S
C766 C762 1.385 . S
C766 C765 1.374 . S
C767 C764 1.499 . S
C767 C768 1.373 . S
C767 C769 1.389 . S
C768 H741 0.950 . S
C768 C754 1.377 . S
C768 C767 1.373 . S
C769 C753 1.377 . S
C769 C767 1.389 . S
C769 C770 1.524 . S
C770 C769 1.524 . S
C770 C771 1.397 . S
C770 C775 1.363 . S
C771 H742 0.950 . S
C771 C770 1.397 . S
C771 C772 1.334 . S
C772 H743 0.950 . S
C772 C771 1.334 . S
C772 C773 1.287 . S
C773 C772 1.287 . S
C773 C774 1.524 . S
C773 H776 0.999 . S
C774 H744 0.950 . S
C774 C773 1.524 . S
C774 C775 1.415 . S
C775 H745 0.950 . S
C775 C770 1.363 . S
C775 C774 1.415 . S
H776 C773 0.999 . S
H777 C758 0.913 . S
H778 C796 0.951 . S
H779 C798 0.951 . S
H780 C800 0.950 . S
H781 C801 0.950 . S
H782 C803 0.950 . S
H783 C806 0.950 . S
H784 C807 0.950 . S
H785 C809 0.950 . S
H786 C810 0.950 . S
H787 C811 0.951 . S
H788 C813 0.951 . S
H789 C815 0.950 . S
H790 C816 0.950 . S
H791 C818 0.950 . S
H792 C821 0.950 . S
H793 C822 0.950 . S
H794 C824 0.950 . S
H795 C825 0.950 . S
C796 H778 0.951 . S
C796 C797 1.366 . S
C796 C798 1.388 . S
C797 C796 1.366 . S
C797 C801 1.385 . S
C798 H779 0.951 . S
C798 C796 1.388 . S
C798 C799 1.366 . S
C799 C798 1.366 . S
C799 C800 1.414 . S
C799 C802 1.499 . S
C800 H780 0.950 . S
C800 C799 1.414 . S
C800 C801 1.374 . S
C801 H781 0.950 . S
C801 C797 1.385 . S
C801 C800 1.374 . S
C802 C799 1.499 . S
C802 C803 1.373 . S
C802 C804 1.389 . S
C803 H782 0.950 . S
C803 C802 1.373 . S
C803 C819 1.377 . S
C804 C802 1.389 . S
C804 C805 1.524 . S
C804 C818 1.377 . S
C805 C804 1.524 . S
C805 C806 1.397 . S
C805 C810 1.363 . S
C806 H783 0.950 . S
C806 C805 1.397 . S
C806 C807 1.334 . S
C807 H784 0.950 . S
C807 C806 1.334 . S
C807 C808 1.287 . S
C808 C807 1.287 . S
C808 C809 1.524 . S
C808 H827 0.913 . S
C809 H785 0.950 . S
C809 C808 1.524 . S
C809 C810 1.415 . S
C810 H786 0.950 . S
C810 C805 1.363 . S
C810 C809 1.415 . S
C811 H787 0.951 . S
C811 C812 1.366 . S
C811 C813 1.388 . S
C812 C811 1.366 . S
C812 C816 1.385 . S
C813 H788 0.951 . S
C813 C811 1.388 . S
C813 C814 1.366 . S
C814 C813 1.366 . S
C814 C815 1.414 . S
C814 C817 1.499 . S
C815 H789 0.950 . S
C815 C814 1.414 . S
C815 C816 1.374 . S
C816 H790 0.950 . S
C816 C812 1.385 . S
C816 C815 1.374 . S
C817 C814 1.499 . S
C817 C818 1.373 . S
C817 C819 1.389 . S
C818 H791 0.950 . S
C818 C804 1.377 . S
C818 C817 1.373 . S
C819 C803 1.377 . S
C819 C817 1.389 . S
C819 C820 1.524 . S
C820 C819 1.524 . S
C820 C821 1.397 . S
C820 C825 1.363 . S
C821 H792 0.950 . S
C821 C820 1.397 . S
C821 C822 1.334 . S
C822 H793 0.950 . S
C822 C821 1.334 . S
C822 C823 1.287 . S
C823 C822 1.287 . S
C823 C824 1.524 . S
C823 H826 0.999 . S
C824 H794 0.950 . S
C824 C823 1.524 . S
C824 C825 1.415 . S
C825 H795 0.950 . S
C825 C820 1.363 . S
C825 C824 1.415 . S
H826 C823 0.999 . S
H827 C808 0.913 . S
H828 C846 0.951 . S
H829 C848 0.951 . S
H830 C850 0.950 . S
H831 C851 0.950 . S
H832 C853 0.950 . S
H833 C856 0.950 . S
H834 C857 0.950 . S
H835 C859 0.950 . S
H836 C860 0.950 . S
H837 C861 0.951 . S
H838 C863 0.951 . S
H839 C865 0.950 . S
H840 C866 0.950 . S
H841 C868 0.950 . S
H842 C871 0.950 . S
H843 C872 0.950 . S
H844 C874 0.950 . S
H845 C875 0.950 . S
C846 H828 0.951 . S
C846 C847 1.366 . S
C846 C848 1.388 . S
C847 C846 1.366 . S
C847 C851 1.385 . S
C848 H829 0.951 . S
C848 C846 1.388 . S
C848 C849 1.366 . S
C849 C848 1.366 . S
C849 C850 1.414 . S
C849 C852 1.499 . S
C850 H830 0.950 . S
C850 C849 1.414 . S
C850 C851 1.374 . S
C851 H831 0.950 . S
C851 C847 1.385 . S
C851 C850 1.374 . S
C852 C849 1.499 . S
C852 C853 1.373 . S
C852 C854 1.389 . S
C853 H832 0.950 . S
C853 C852 1.373 . S
C853 C869 1.377 . S
C854 C852 1.389 . S
C854 C855 1.524 . S
C854 C868 1.377 . S
C855 C854 1.524 . S
C855 C856 1.397 . S
C855 C860 1.363 . S
C856 H833 0.950 . S
C856 C855 1.397 . S
C856 C857 1.334 . S
C857 H834 0.950 . S
C857 C856 1.334 . S
C857 C858 1.287 . S
C858 C857 1.287 . S
C858 C859 1.524 . S
C858 H877 0.913 . S
C859 H835 0.950 . S
C859 C858 1.524 . S
C859 C860 1.415 . S
C860 H836 0.950 . S
C860 C855 1.363 . S
C860 C859 1.415 . S
C861 H837 0.951 . S
C861 C862 1.366 . S
C861 C863 1.388 . S
C862 C861 1.366 . S
C862 C866 1.385 . S
C863 H838 0.951 . S
C863 C861 1.388 . S
C863 C864 1.366 . S
C864 C863 1.366 . S
C864 C865 1.414 . S
C864 C867 1.499 . S
C865 H839 0.950 . S
C865 C864 1.414 . S
C865 C866 1.374 . S
C866 H840 0.950 . S
C866 C862 1.385 . S
C866 C865 1.374 . S
C867 C864 1.499 . S
C867 C868 1.373 . S
C867 C869 1.389 . S
C868 H841 0.950 . S
C868 C854 1.377 . S
C868 C867 1.373 . S
C869 C853 1.377 . S
C869 C867 1.389 . S
C869 C870 1.524 . S
C870 C869 1.524 . S
C870 C871 1.397 . S
C870 C875 1.363 . S
C871 H842 0.950 . S
C871 C870 1.397 . S
C871 C872 1.334 . S
C872 H843 0.950 . S
C872 C871 1.334 . S
C872 C873 1.287 . S
C873 C872 1.287 . S
C873 C874 1.524 . S
C873 H876 0.999 . S
C874 H844 0.950 . S
C874 C873 1.524 . S
C874 C875 1.415 . S
C875 H845 0.950 . S
C875 C870 1.363 . S
C875 C874 1.415 . S
H876 C873 0.999 . S
H877 C858 0.913 . S
H878 C896 0.951 . S
H879 C898 0.951 . S
H880 C900 0.950 . S
H881 C901 0.950 . S
H882 C903 0.950 . S
H883 C906 0.950 . S
H884 C907 0.950 . S
H885 C909 0.950 . S
H886 C910 0.950 . S
H887 C911 0.951 . S
H888 C913 0.951 . S
H889 C915 0.950 . S
H890 C916 0.950 . S
H891 C918 0.950 . S
H892 C921 0.950 . S
H893 C922 0.950 . S
H894 C924 0.950 . S
H895 C925 0.950 . S
C896 H878 0.951 . S
C896 C897 1.366 . S
C896 C898 1.388 . S
C897 C896 1.366 . S
C897 C901 1.385 . S
C898 H879 0.951 . S
C898 C896 1.388 . S
C898 C899 1.366 . S
C899 C898 1.366 . S
C899 C900 1.414 . S
C899 C902 1.499 . S
C900 H880 0.950 . S
C900 C899 1.414 . S
C900 C901 1.374 . S
C901 H881 0.950 . S
C901 C897 1.385 . S
C901 C900 1.374 . S
C902 C899 1.499 . S
C902 C903 1.373 . S
C902 C904 1.389 . S
C903 H882 0.950 . S
C903 C902 1.373 . S
C903 C919 1.377 . S
C904 C902 1.389 . S
C904 C905 1.524 . S
C904 C918 1.377 . S
C905 C904 1.524 . S
C905 C906 1.397 . S
C905 C910 1.363 . S
C906 H883 0.950 . S
C906 C905 1.397 . S
C906 C907 1.334 . S
C907 H884 0.950 . S
C907 C906 1.334 . S
C907 C908 1.287 . S
C908 C907 1.287 . S
C908 C909 1.524 . S
C908 H927 0.913 . S
C909 H885 0.950 . S
C909 C908 1.524 . S
C909 C910 1.415 . S
C910 H886 0.950 . S
C910 C905 1.363 . S
C910 C909 1.415 . S
C911 H887 0.951 . S
C911 C912 1.366 . S
C911 C913 1.388 . S
C912 C911 1.366 . S
C912 C916 1.385 . S
C913 H888 0.951 . S
C913 C911 1.388 . S
C913 C914 1.366 . S
C914 C913 1.366 . S
C914 C915 1.414 . S
C914 C917 1.499 . S
C915 H889 0.950 . S
C915 C914 1.414 . S
C915 C916 1.374 . S
C916 H890 0.950 . S
C916 C912 1.385 . S
C916 C915 1.374 . S
C917 C914 1.499 . S
C917 C918 1.373 . S
C917 C919 1.389 . S
C918 H891 0.950 . S
C918 C904 1.377 . S
C918 C917 1.373 . S
C919 C903 1.377 . S
C919 C917 1.389 . S
C919 C920 1.524 . S
C920 C919 1.524 . S
C920 C921 1.397 . S
C920 C925 1.363 . S
C921 H892 0.950 . S
C921 C920 1.397 . S
C921 C922 1.334 . S
C922 H893 0.950 . S
C922 C921 1.334 . S
C922 C923 1.287 . S
C923 C922 1.287 . S
C923 C924 1.524 . S
C923 H926 0.999 . S
C924 H894 0.950 . S
C924 C923 1.524 . S
C924 C925 1.415 . S
C925 H895 0.950 . S
C925 C920 1.363 . S
C925 C924 1.415 . S
H926 C923 0.999 . S
H927 C908 0.913 . S
H928 C946 0.951 . S
H929 C948 0.951 . S
H930 C950 0.950 . S
H931 C951 0.950 . S
H932 C953 0.950 . S
H933 C956 0.950 . S
H934 C957 0.950 . S
H935 C959 0.950 . S
H936 C960 0.950 . S
H937 C961 0.951 . S
H938 C963 0.951 . S
H939 C965 0.950 . S
H940 C966 0.950 . S
H941 C968 0.950 . S
H942 C971 0.950 . S
H943 C972 0.950 . S
H944 C974 0.950 . S
H945 C975 0.950 . S
C946 H928 0.951 . S
C946 C947 1.366 . S
C946 C948 1.388 . S
C947 C946 1.366 . S
C947 C951 1.385 . S
C948 H929 0.951 . S
C948 C946 1.388 . S
C948 C949 1.366 . S
C949 C948 1.366 . S
C949 C950 1.414 . S
C949 C952 1.499 . S
C950 H930 0.950 . S
C950 C949 1.414 . S
C950 C951 1.374 . S
C951 H931 0.950 . S
C951 C947 1.385 . S
C951 C950 1.374 . S
C952 C949 1.499 . S
C952 C953 1.373 . S
C952 C954 1.389 . S
C953 H932 0.950 . S
C953 C952 1.373 . S
C953 C969 1.377 1_655 S
C954 C952 1.389 . S
C954 C955 1.524 . S
C954 C968 1.377 1_655 S
C955 C954 1.524 . S
C955 C956 1.397 . S
C955 C960 1.363 . S
C956 H933 0.950 . S
C956 C955 1.397 . S
C956 C957 1.334 . S
C957 H934 0.950 . S
C957 C956 1.334 . S
C957 C958 1.287 . S
C958 C957 1.287 . S
C958 C959 1.524 . S
C958 H977 0.913 . S
C959 H935 0.950 . S
C959 C958 1.524 . S
C959 C960 1.415 . S
C960 H936 0.950 . S
C960 C955 1.363 . S
C960 C959 1.415 . S
C961 H937 0.951 . S
C961 C962 1.366 . S
C961 C963 1.388 . S
C962 C961 1.366 . S
C962 C966 1.385 . S
C963 H938 0.951 . S
C963 C961 1.388 . S
C963 C964 1.366 . S
C964 C963 1.366 . S
C964 C965 1.414 . S
C964 C967 1.499 . S
C965 H939 0.950 . S
C965 C964 1.414 . S
C965 C966 1.374 . S
C966 H940 0.950 . S
C966 C962 1.385 . S
C966 C965 1.374 . S
C967 C964 1.499 . S
C967 C968 1.373 . S
C967 C969 1.389 . S
C968 H941 0.950 . S
C968 C954 1.377 1_455 S
C968 C967 1.373 . S
C969 C953 1.377 1_455 S
C969 C967 1.389 . S
C969 C970 1.524 . S
C970 C969 1.524 . S
C970 C971 1.397 . S
C970 C975 1.363 1_554 S
C971 H942 0.950 . S
C971 C970 1.397 . S
C971 C972 1.334 1_554 S
C972 H943 0.950 . S
C972 C971 1.334 1_556 S
C972 C973 1.287 . S
C973 C972 1.287 . S
C973 C974 1.524 . S
C973 H976 0.999 . S
C974 H944 0.950 . S
C974 C973 1.524 . S
C974 C975 1.415 . S
C975 H945 0.950 . S
C975 C970 1.363 1_556 S
C975 C974 1.415 . S
H976 C973 0.999 . S
H977 C958 0.913 . S
H978 C996 0.951 . S
H979 C998 0.951 . S
H980 C1000 0.950 . S
H981 C1001 0.950 . S
H982 C1003 0.950 . S
H983 C1006 0.950 . S
H984 C1007 0.950 . S
H985 C1009 0.950 . S
H986 C1010 0.950 . S
H987 C1011 0.951 . S
H988 C1013 0.951 . S
H989 C1015 0.950 . S
H990 C1016 0.950 . S
H991 C1018 0.950 . S
H992 C1021 0.950 . S
H993 C1022 0.950 . S
H994 C1024 0.950 . S
H995 C1025 0.950 . S
C996 H978 0.951 . S
C996 C997 1.366 . S
C996 C998 1.388 . S
C997 C996 1.366 . S
C997 C1001 1.385 . S
C998 H979 0.951 . S
C998 C996 1.388 . S
C998 C999 1.366 . S
C999 C998 1.366 . S
C999 C1000 1.414 . S
C999 C1002 1.499 . S
C1000 H980 0.950 . S
C1000 C999 1.414 . S
C1000 C1001 1.374 . S
C1001 H981 0.950 . S
C1001 C997 1.385 . S
C1001 C1000 1.374 . S
C1002 C999 1.499 . S
C1002 C1003 1.373 . S
C1002 C1004 1.389 . S
C1003 H982 0.950 . S
C1003 C1002 1.373 . S
C1003 C1019 1.377 . S
C1004 C1002 1.389 . S
C1004 C1005 1.524 . S
C1004 C1018 1.377 . S
C1005 C1004 1.524 . S
C1005 C1006 1.397 . S
C1005 C1010 1.363 . S
C1006 H983 0.950 . S
C1006 C1005 1.397 . S
C1006 C1007 1.334 . S
C1007 H984 0.950 . S
C1007 C1006 1.334 . S
C1007 C1008 1.287 . S
C1008 C1007 1.287 . S
C1008 C1009 1.524 . S
C1008 H1027 0.913 . S
C1009 H985 0.950 . S
C1009 C1008 1.524 . S
C1009 C1010 1.415 . S
C1010 H986 0.950 . S
C1010 C1005 1.363 . S
C1010 C1009 1.415 . S
C1011 H987 0.951 . S
C1011 C1012 1.366 . S
C1011 C1013 1.388 . S
C1012 C1011 1.366 . S
C1012 C1016 1.385 . S
C1013 H988 0.951 . S
C1013 C1011 1.388 . S
C1013 C1014 1.366 . S
C1014 C1013 1.366 . S
C1014 C1015 1.414 . S
C1014 C1017 1.499 . S
C1015 H989 0.950 . S
C1015 C1014 1.414 . S
C1015 C1016 1.374 . S
C1016 H990 0.950 . S
C1016 C1012 1.385 . S
C1016 C1015 1.374 . S
C1017 C1014 1.499 . S
C1017 C1018 1.373 . S
C1017 C1019 1.389 . S
C1018 H991 0.950 . S
C1018 C1004 1.377 . S
C1018 C1017 1.373 . S
C1019 C1003 1.377 . S
C1019 C1017 1.389 . S
C1019 C1020 1.524 . S
C1020 C1019 1.524 . S
C1020 C1021 1.397 . S
C1020 C1025 1.363 . S
C1021 H992 0.950 . S
C1021 C1020 1.397 . S
C1021 C1022 1.334 . S
C1022 H993 0.950 . S
C1022 C1021 1.334 . S
C1022 C1023 1.287 . S
C1023 C1022 1.287 . S
C1023 C1024 1.524 . S
C1023 H1026 0.999 . S
C1024 H994 0.950 . S
C1024 C1023 1.524 . S
C1024 C1025 1.415 . S
C1025 H995 0.950 . S
C1025 C1020 1.363 . S
C1025 C1024 1.415 . S
H1026 C1023 0.999 . S
H1027 C1008 0.913 . S
H1028 C1046 0.951 . S
H1029 C1048 0.951 . S
H1030 C1050 0.950 . S
H1031 C1051 0.950 . S
H1032 C1053 0.950 . S
H1033 C1056 0.950 . S
H1034 C1057 0.950 . S
H1035 C1059 0.950 . S
H1036 C1060 0.950 . S
H1037 C1061 0.951 . S
H1038 C1063 0.951 . S
H1039 C1065 0.950 . S
H1040 C1066 0.950 . S
H1041 C1068 0.950 . S
H1042 C1071 0.950 . S
H1043 C1072 0.950 . S
H1044 C1074 0.950 . S
H1045 C1075 0.950 . S
C1046 H1028 0.951 . S
C1046 C1047 1.366 . S
C1046 C1048 1.388 . S
C1047 C1046 1.366 . S
C1047 C1051 1.385 . S
C1048 H1029 0.951 . S
C1048 C1046 1.388 . S
C1048 C1049 1.366 . S
C1049 C1048 1.366 . S
C1049 C1050 1.414 . S
C1049 C1052 1.499 . S
C1050 H1030 0.950 . S
C1050 C1049 1.414 . S
C1050 C1051 1.374 . S
C1051 H1031 0.950 . S
C1051 C1047 1.385 . S
C1051 C1050 1.374 . S
C1052 C1049 1.499 . S
C1052 C1053 1.373 . S
C1052 C1054 1.389 . S
C1053 H1032 0.950 . S
C1053 C1052 1.373 . S
C1053 C1069 1.377 1_655 S
C1054 C1052 1.389 . S
C1054 C1055 1.524 . S
C1054 C1068 1.377 1_655 S
C1055 C1054 1.524 . S
C1055 C1056 1.397 . S
C1055 C1060 1.363 1_556 S
C1056 H1033 0.950 . S
C1056 C1055 1.397 . S
C1056 C1057 1.334 1_556 S
C1057 H1034 0.950 . S
C1057 C1056 1.334 1_554 S
C1057 C1058 1.287 . S
C1058 C1057 1.287 . S
C1058 C1059 1.524 . S
C1058 H1077 0.913 . S
C1059 H1035 0.950 . S
C1059 C1058 1.524 . S
C1059 C1060 1.415 . S
C1060 H1036 0.950 . S
C1060 C1055 1.363 1_554 S
C1060 C1059 1.415 . S
C1061 H1037 0.951 . S
C1061 C1062 1.366 . S
C1061 C1063 1.388 . S
C1062 C1061 1.366 . S
C1062 C1066 1.385 . S
C1063 H1038 0.951 . S
C1063 C1061 1.388 . S
C1063 C1064 1.366 . S
C1064 C1063 1.366 . S
C1064 C1065 1.414 . S
C1064 C1067 1.499 . S
C1065 H1039 0.950 . S
C1065 C1064 1.414 . S
C1065 C1066 1.374 . S
C1066 H1040 0.950 . S
C1066 C1062 1.385 . S
C1066 C1065 1.374 . S
C1067 C1064 1.499 . S
C1067 C1068 1.373 . S
C1067 C1069 1.389 . S
C1068 H1041 0.950 . S
C1068 C1054 1.377 1_455 S
C1068 C1067 1.373 . S
C1069 C1053 1.377 1_455 S
C1069 C1067 1.389 . S
C1069 C1070 1.524 . S
C1070 C1069 1.524 . S
C1070 C1071 1.397 . S
C1070 C1075 1.363 . S
C1071 H1042 0.950 . S
C1071 C1070 1.397 . S
C1071 C1072 1.334 . S
C1072 H1043 0.950 . S
C1072 C1071 1.334 . S
C1072 C1073 1.287 . S
C1073 C1072 1.287 . S
C1073 C1074 1.524 . S
C1073 H1076 0.999 . S
C1074 H1044 0.950 . S
C1074 C1073 1.524 . S
C1074 C1075 1.415 . S
C1075 H1045 0.950 . S
C1075 C1070 1.363 . S
C1075 C1074 1.415 . S
H1076 C1073 0.999 . S
H1077 C1058 0.913 . S
H1078 C1096 0.951 . S
H1079 C1098 0.951 . S
H1080 C1100 0.950 . S
H1081 C1101 0.950 . S
H1082 C1103 0.950 . S
H1083 C1106 0.950 . S
H1084 C1107 0.950 . S
H1085 C1109 0.950 . S
H1086 C1110 0.950 . S
H1087 C1111 0.951 . S
H1088 C1113 0.951 . S
H1089 C1115 0.950 . S
H1090 C1116 0.950 . S
H1091 C1118 0.950 . S
H1092 C1121 0.950 . S
H1093 C1122 0.950 . S
H1094 C1124 0.950 . S
H1095 C1125 0.950 . S
C1096 H1078 0.951 . S
C1096 C1097 1.366 . S
C1096 C1098 1.388 . S
C1097 C1096 1.366 . S
C1097 C1101 1.385 . S
C1098 H1079 0.951 . S
C1098 C1096 1.388 . S
C1098 C1099 1.366 . S
C1099 C1098 1.366 . S
C1099 C1100 1.414 . S
C1099 C1102 1.499 . S
C1100 H1080 0.950 . S
C1100 C1099 1.414 . S
C1100 C1101 1.374 . S
C1101 H1081 0.950 . S
C1101 C1097 1.385 . S
C1101 C1100 1.374 . S
C1102 C1099 1.499 . S
C1102 C1103 1.373 . S
C1102 C1104 1.389 . S
C1103 H1082 0.950 . S
C1103 C1102 1.373 . S
C1103 C1119 1.377 . S
C1104 C1102 1.389 . S
C1104 C1105 1.524 . S
C1104 C1118 1.377 . S
C1105 C1104 1.524 . S
C1105 C1106 1.397 . S
C1105 C1110 1.363 . S
C1106 H1083 0.950 . S
C1106 C1105 1.397 . S
C1106 C1107 1.334 . S
C1107 H1084 0.950 . S
C1107 C1106 1.334 . S
C1107 C1108 1.287 . S
C1108 C1107 1.287 . S
C1108 C1109 1.524 . S
C1108 H1127 0.913 . S
C1109 H1085 0.950 . S
C1109 C1108 1.524 . S
C1109 C1110 1.415 . S
C1110 H1086 0.950 . S
C1110 C1105 1.363 . S
C1110 C1109 1.415 . S
C1111 H1087 0.951 . S
C1111 C1112 1.366 . S
C1111 C1113 1.388 . S
C1112 C1111 1.366 . S
C1112 C1116 1.385 . S
C1113 H1088 0.951 . S
C1113 C1111 1.388 . S
C1113 C1114 1.366 . S
C1114 C1113 1.366 . S
C1114 C1115 1.414 . S
C1114 C1117 1.499 . S
C1115 H1089 0.950 . S
C1115 C1114 1.414 . S
C1115 C1116 1.374 . S
C1116 H1090 0.950 . S
C1116 C1112 1.385 . S
C1116 C1115 1.374 . S
C1117 C1114 1.499 . S
C1117 C1118 1.373 . S
C1117 C1119 1.389 . S
C1118 H1091 0.950 . S
C1118 C1104 1.377 . S
C1118 C1117 1.373 . S
C1119 C1103 1.377 . S
C1119 C1117 1.389 . S
C1119 C1120 1.524 . S
C1120 C1119 1.524 . S
C1120 C1121 1.397 . S
C1120 C1125 1.363 . S
C1121 H1092 0.950 . S
C1121 C1120 1.397 . S
C1121 C1122 1.334 . S
C1122 H1093 0.950 . S
C1122 C1121 1.334 . S
C1122 C1123 1.287 . S
C1123 C1122 1.287 . S
C1123 C1124 1.524 . S
C1123 H1126 0.999 . S
C1124 H1094 0.950 . S
C1124 C1123 1.524 . S
C1124 C1125 1.415 . S
C1125 H1095 0.950 . S
C1125 C1120 1.363 . S
C1125 C1124 1.415 . S
H1126 C1123 0.999 . S
H1127 C1108 0.913 . S
H1128 C1146 0.951 . S
H1129 C1148 0.951 . S
H1130 C1150 0.950 . S
H1131 C1151 0.950 . S
H1132 C1153 0.950 . S
H1133 C1156 0.950 . S
H1134 C1157 0.950 . S
H1135 C1159 0.950 . S
H1136 C1160 0.950 . S
H1137 C1161 0.951 . S
H1138 C1163 0.951 . S
H1139 C1165 0.950 . S
H1140 C1166 0.950 . S
H1141 C1168 0.950 . S
H1142 C1171 0.950 . S
H1143 C1172 0.949 1_556 S
H1144 C1174 0.950 . S
H1145 C1175 0.950 . S
C1146 H1128 0.951 . S
C1146 C1147 1.366 . S
C1146 C1148 1.388 . S
C1147 C1146 1.366 . S
C1147 C1151 1.385 . S
C1148 H1129 0.951 . S
C1148 C1146 1.388 . S
C1148 C1149 1.366 . S
C1149 C1148 1.366 . S
C1149 C1150 1.414 . S
C1149 C1152 1.499 . S
C1150 H1130 0.950 . S
C1150 C1149 1.414 . S
C1150 C1151 1.374 . S
C1151 H1131 0.950 . S
C1151 C1147 1.385 . S
C1151 C1150 1.374 . S
C1152 C1149 1.499 . S
C1152 C1153 1.373 . S
C1152 C1154 1.389 . S
C1153 H1132 0.950 . S
C1153 C1152 1.373 . S
C1153 C1169 1.377 . S
C1154 C1152 1.389 . S
C1154 C1155 1.524 . S
C1154 C1168 1.377 . S
C1155 C1154 1.524 . S
C1155 C1156 1.397 . S
C1155 C1160 1.363 . S
C1156 H1133 0.950 . S
C1156 C1155 1.397 . S
C1156 C1157 1.334 . S
C1157 H1134 0.950 . S
C1157 C1156 1.334 . S
C1157 C1158 1.287 . S
C1158 C1157 1.287 . S
C1158 C1159 1.524 . S
C1158 H1177 0.913 . S
C1159 H1135 0.950 . S
C1159 C1158 1.524 . S
C1159 C1160 1.415 . S
C1160 H1136 0.950 . S
C1160 C1155 1.363 . S
C1160 C1159 1.415 . S
C1161 H1137 0.951 . S
C1161 C1162 1.366 . S
C1161 C1163 1.388 . S
C1162 C1161 1.366 . S
C1162 C1166 1.385 . S
C1163 H1138 0.951 . S
C1163 C1161 1.388 . S
C1163 C1164 1.366 . S
C1164 C1163 1.366 . S
C1164 C1165 1.414 . S
C1164 C1167 1.499 . S
C1165 H1139 0.950 . S
C1165 C1164 1.414 . S
C1165 C1166 1.374 . S
C1166 H1140 0.950 . S
C1166 C1162 1.385 . S
C1166 C1165 1.374 . S
C1167 C1164 1.499 . S
C1167 C1168 1.373 . S
C1167 C1169 1.389 . S
C1168 H1141 0.950 . S
C1168 C1154 1.377 . S
C1168 C1167 1.373 . S
C1169 C1153 1.377 . S
C1169 C1167 1.389 . S
C1169 C1170 1.524 . S
C1170 C1169 1.524 . S
C1170 C1171 1.397 . S
C1170 C1175 1.363 . S
C1171 H1142 0.950 . S
C1171 C1170 1.397 . S
C1171 C1172 1.334 . S
C1172 H1143 0.949 1_554 S
C1172 C1171 1.334 . S
C1172 C1173 1.287 . S
C1173 C1172 1.287 . S
C1173 C1174 1.524 . S
C1173 H1176 0.999 . S
C1174 H1144 0.950 . S
C1174 C1173 1.524 . S
C1174 C1175 1.415 . S
C1175 H1145 0.950 . S
C1175 C1170 1.363 . S
C1175 C1174 1.415 . S
H1176 C1173 0.999 . S
H1177 C1158 0.913 . S
H1178 C1196 0.951 . S
H1179 C1198 0.951 . S
H1180 C1200 0.950 . S
H1181 C1201 0.950 . S
H1182 C1203 0.950 . S
H1183 C1206 0.950 . S
H1184 C1207 0.950 . S
H1185 C1209 0.950 . S
H1186 C1210 0.950 . S
H1187 C1211 0.951 . S
H1188 C1213 0.951 . S
H1189 C1215 0.950 . S
H1190 C1216 0.950 . S
H1191 C1218 0.950 . S
H1192 C1221 0.950 . S
H1193 C1222 0.950 . S
H1194 C1224 0.950 . S
H1195 C1225 0.950 . S
C1196 H1178 0.951 . S
C1196 C1197 1.366 . S
C1196 C1198 1.388 . S
C1197 C1196 1.366 . S
C1197 C1201 1.385 . S
C1198 H1179 0.951 . S
C1198 C1196 1.388 . S
C1198 C1199 1.366 . S
C1199 C1198 1.366 . S
C1199 C1200 1.414 . S
C1199 C1202 1.499 . S
C1200 H1180 0.950 . S
C1200 C1199 1.414 . S
C1200 C1201 1.374 . S
C1201 H1181 0.950 . S
C1201 C1197 1.385 . S
C1201 C1200 1.374 . S
C1202 C1199 1.499 . S
C1202 C1203 1.373 . S
C1202 C1204 1.389 . S
C1203 H1182 0.950 . S
C1203 C1202 1.373 . S
C1203 C1219 1.377 1_455 S
C1204 C1202 1.389 . S
C1204 C1205 1.524 . S
C1204 C1218 1.377 1_455 S
C1205 C1204 1.524 . S
C1205 C1206 1.397 . S
C1205 C1210 1.363 . S
C1206 H1183 0.950 . S
C1206 C1205 1.397 . S
C1206 C1207 1.334 . S
C1207 H1184 0.950 . S
C1207 C1206 1.334 . S
C1207 C1208 1.287 . S
C1208 C1207 1.287 . S
C1208 C1209 1.524 . S
C1208 H1227 0.913 . S
C1209 H1185 0.950 . S
C1209 C1208 1.524 . S
C1209 C1210 1.415 . S
C1210 H1186 0.950 . S
C1210 C1205 1.363 . S
C1210 C1209 1.415 . S
C1211 H1187 0.951 . S
C1211 C1212 1.366 . S
C1211 C1213 1.388 . S
C1212 C1211 1.366 . S
C1212 C1216 1.385 . S
C1213 H1188 0.951 . S
C1213 C1211 1.388 . S
C1213 C1214 1.366 . S
C1214 C1213 1.366 . S
C1214 C1215 1.414 . S
C1214 C1217 1.499 . S
C1215 H1189 0.950 . S
C1215 C1214 1.414 . S
C1215 C1216 1.374 . S
C1216 H1190 0.950 . S
C1216 C1212 1.385 . S
C1216 C1215 1.374 . S
C1217 C1214 1.499 . S
C1217 C1218 1.373 . S
C1217 C1219 1.389 . S
C1218 H1191 0.950 . S
C1218 C1204 1.377 1_655 S
C1218 C1217 1.373 . S
C1219 C1203 1.377 1_655 S
C1219 C1217 1.389 . S
C1219 C1220 1.524 . S
C1220 C1219 1.524 . S
C1220 C1221 1.397 . S
C1220 C1225 1.363 . S
C1221 H1192 0.950 . S
C1221 C1220 1.397 . S
C1221 C1222 1.334 . S
C1222 H1193 0.950 . S
C1222 C1221 1.334 . S
C1222 C1223 1.287 . S
C1223 C1222 1.287 . S
C1223 C1224 1.524 . S
C1223 H1226 0.999 . S
C1224 H1194 0.950 . S
C1224 C1223 1.524 . S
C1224 C1225 1.415 . S
C1225 H1195 0.950 . S
C1225 C1220 1.363 . S
C1225 C1224 1.415 . S
H1226 C1223 0.999 . S
H1227 C1208 0.913 . S
H1228 C1246 0.951 . S
H1229 C1248 0.951 . S
H1230 C1250 0.950 . S
H1231 C1251 0.950 . S
H1232 C1253 0.950 . S
H1233 C1256 0.950 1_556 S
H1234 C1257 0.950 . S
H1235 C1259 0.950 . S
H1236 C1260 0.950 . S
H1237 C1261 0.951 . S
H1238 C1263 0.951 . S
H1239 C1265 0.950 . S
H1240 C1266 0.950 . S
H1241 C1268 0.950 . S
H1242 C1271 0.950 . S
H1243 C1272 0.950 . S
H1244 C1274 0.950 . S
H1245 C1275 0.950 . S
C1246 H1228 0.951 . S
C1246 C1247 1.366 . S
C1246 C1248 1.388 . S
C1247 C1246 1.366 . S
C1247 C1251 1.385 . S
C1248 H1229 0.951 . S
C1248 C1246 1.388 . S
C1248 C1249 1.366 . S
C1249 C1248 1.366 . S
C1249 C1250 1.414 . S
C1249 C1252 1.499 . S
C1250 H1230 0.950 . S
C1250 C1249 1.414 . S
C1250 C1251 1.374 . S
C1251 H1231 0.950 . S
C1251 C1247 1.385 . S
C1251 C1250 1.374 . S
C1252 C1249 1.499 . S
C1252 C1253 1.373 . S
C1252 C1254 1.389 . S
C1253 H1232 0.950 . S
C1253 C1252 1.373 . S
C1253 C1269 1.377 . S
C1254 C1252 1.389 . S
C1254 C1255 1.524 . S
C1254 C1268 1.377 . S
C1255 C1254 1.524 . S
C1255 C1256 1.397 1_556 S
C1255 C1260 1.363 1_556 S
C1256 H1233 0.950 1_554 S
C1256 C1255 1.397 1_554 S
C1256 C1257 1.334 . S
C1257 H1234 0.950 . S
C1257 C1256 1.334 . S
C1257 C1258 1.287 . S
C1258 C1257 1.287 . S
C1258 C1259 1.524 . S
C1258 H1277 0.913 . S
C1259 H1235 0.950 . S
C1259 C1258 1.524 . S
C1259 C1260 1.415 . S
C1260 H1236 0.950 . S
C1260 C1255 1.363 1_554 S
C1260 C1259 1.415 . S
C1261 H1237 0.951 . S
C1261 C1262 1.366 . S
C1261 C1263 1.388 . S
C1262 C1261 1.366 . S
C1262 C1266 1.385 . S
C1263 H1238 0.951 . S
C1263 C1261 1.388 . S
C1263 C1264 1.366 . S
C1264 C1263 1.366 . S
C1264 C1265 1.414 . S
C1264 C1267 1.499 . S
C1265 H1239 0.950 . S
C1265 C1264 1.414 . S
C1265 C1266 1.374 . S
C1266 H1240 0.950 . S
C1266 C1262 1.385 . S
C1266 C1265 1.374 . S
C1267 C1264 1.499 . S
C1267 C1268 1.373 . S
C1267 C1269 1.389 . S
C1268 H1241 0.950 . S
C1268 C1254 1.377 . S
C1268 C1267 1.373 . S
C1269 C1253 1.377 . S
C1269 C1267 1.389 . S
C1269 C1270 1.524 . S
C1270 C1269 1.524 . S
C1270 C1271 1.397 . S
C1270 C1275 1.363 . S
C1271 H1242 0.950 . S
C1271 C1270 1.397 . S
C1271 C1272 1.334 . S
C1272 H1243 0.950 . S
C1272 C1271 1.334 . S
C1272 C1273 1.287 . S
C1273 C1272 1.287 . S
C1273 C1274 1.524 . S
C1273 H1276 0.999 . S
C1274 H1244 0.950 . S
C1274 C1273 1.524 . S
C1274 C1275 1.415 . S
C1275 H1245 0.950 . S
C1275 C1270 1.363 . S
C1275 C1274 1.415 . S
H1276 C1273 0.999 . S
H1277 C1258 0.913 . S
H1278 C1296 0.951 . S
H1279 C1298 0.951 . S
H1280 C1300 0.950 . S
H1281 C1301 0.950 . S
H1282 C1303 0.950 . S
H1283 C1306 0.950 . S
H1284 C1307 0.950 . S
H1285 C1309 0.950 . S
H1286 C1310 0.950 . S
H1287 C1311 0.951 . S
H1288 C1313 0.951 . S
H1289 C1315 0.950 . S
H1290 C1316 0.950 . S
H1291 C1318 0.950 . S
H1292 C1321 0.950 . S
H1293 C1322 0.950 . S
H1294 C1324 0.950 . S
H1295 C1325 0.950 . S
C1296 H1278 0.951 . S
C1296 C1297 1.366 . S
C1296 C1298 1.388 . S
C1297 C1296 1.366 . S
C1297 C1301 1.385 . S
C1298 H1279 0.951 . S
C1298 C1296 1.388 . S
C1298 C1299 1.366 . S
C1299 C1298 1.366 . S
C1299 C1300 1.414 . S
C1299 C1302 1.499 . S
C1300 H1280 0.950 . S
C1300 C1299 1.414 . S
C1300 C1301 1.374 . S
C1301 H1281 0.950 . S
C1301 C1297 1.385 . S
C1301 C1300 1.374 . S
C1302 C1299 1.499 . S
C1302 C1303 1.373 . S
C1302 C1304 1.389 . S
C1303 H1282 0.950 . S
C1303 C1302 1.373 . S
C1303 C1319 1.377 1_655 S
C1304 C1302 1.389 . S
C1304 C1305 1.524 . S
C1304 C1318 1.377 1_655 S
C1305 C1304 1.524 . S
C1305 C1306 1.397 . S
C1305 C1310 1.363 . S
C1306 H1283 0.950 . S
C1306 C1305 1.397 . S
C1306 C1307 1.334 . S
C1307 H1284 0.950 . S
C1307 C1306 1.334 . S
C1307 C1308 1.287 . S
C1308 C1307 1.287 . S
C1308 C1309 1.524 . S
C1308 H1327 0.913 . S
C1309 H1285 0.950 . S
C1309 C1308 1.524 . S
C1309 C1310 1.415 . S
C1310 H1286 0.950 . S
C1310 C1305 1.363 . S
C1310 C1309 1.415 . S
C1311 H1287 0.951 . S
C1311 C1312 1.366 . S
C1311 C1313 1.388 . S
C1312 C1311 1.366 . S
C1312 C1316 1.385 . S
C1313 H1288 0.951 . S
C1313 C1311 1.388 . S
C1313 C1314 1.366 . S
C1314 C1313 1.366 . S
C1314 C1315 1.414 . S
C1314 C1317 1.499 . S
C1315 H1289 0.950 . S
C1315 C1314 1.414 . S
C1315 C1316 1.374 . S
C1316 H1290 0.950 . S
C1316 C1312 1.385 . S
C1316 C1315 1.374 . S
C1317 C1314 1.499 . S
C1317 C1318 1.373 . S
C1317 C1319 1.389 . S
C1318 H1291 0.950 . S
C1318 C1304 1.377 1_455 S
C1318 C1317 1.373 . S
C1319 C1303 1.377 1_455 S
C1319 C1317 1.389 . S
C1319 C1320 1.524 . S
C1320 C1319 1.524 . S
C1320 C1321 1.397 . S
C1320 C1325 1.363 . S
C1321 H1292 0.950 . S
C1321 C1320 1.397 . S
C1321 C1322 1.334 . S
C1322 H1293 0.950 . S
C1322 C1321 1.334 . S
C1322 C1323 1.287 . S
C1323 C1322 1.287 . S
C1323 C1324 1.524 . S
C1323 H1326 0.999 . S
C1324 H1294 0.950 . S
C1324 C1323 1.524 . S
C1324 C1325 1.415 . S
C1325 H1295 0.950 . S
C1325 C1320 1.363 . S
C1325 C1324 1.415 . S
H1326 C1323 0.999 . S
H1327 C1308 0.913 . S
H1328 C1346 0.951 . S
H1329 C1348 0.951 . S
H1330 C1350 0.950 . S
H1331 C1351 0.950 . S
H1332 C1353 0.950 . S
H1333 C1356 0.950 . S
H1334 C1357 0.950 . S
H1335 C1359 0.950 . S
H1336 C1360 0.948 1_565 S
H1337 C1361 0.951 . S
H1338 C1363 0.951 . S
H1339 C1365 0.950 . S
H1340 C1366 0.950 . S
H1341 C1368 0.950 . S
H1342 C1371 0.950 . S
H1343 C1372 0.950 . S
H1344 C1374 0.950 . S
H1345 C1375 0.948 1_545 S
C1346 H1328 0.951 . S
C1346 C1347 1.366 . S
C1346 C1348 1.388 . S
C1347 C1346 1.366 . S
C1347 C1351 1.385 . S
C1348 H1329 0.951 . S
C1348 C1346 1.388 . S
C1348 C1349 1.366 . S
C1349 C1348 1.366 . S
C1349 C1350 1.414 . S
C1349 C1352 1.499 . S
C1350 H1330 0.950 . S
C1350 C1349 1.414 . S
C1350 C1351 1.374 . S
C1351 H1331 0.950 . S
C1351 C1347 1.385 . S
C1351 C1350 1.374 . S
C1352 C1349 1.499 . S
C1352 C1353 1.373 . S
C1352 C1354 1.389 . S
C1353 H1332 0.950 . S
C1353 C1352 1.373 . S
C1353 C1369 1.377 1_544 S
C1354 C1352 1.389 . S
C1354 C1355 1.524 1_554 S
C1354 C1368 1.377 1_544 S
C1355 C1354 1.524 1_556 S
C1355 C1356 1.397 . S
C1355 C1360 1.363 1_556 S
C1356 H1333 0.950 . S
C1356 C1355 1.397 . S
C1356 C1357 1.334 . S
C1357 H1334 0.950 . S
C1357 C1356 1.334 . S
C1357 C1358 1.287 . S
C1358 C1357 1.287 . S
C1358 C1359 1.524 1_556 S
C1358 H1377 0.913 . S
C1359 H1335 0.950 . S
C1359 C1358 1.524 1_554 S
C1359 C1360 1.415 . S
C1360 H1336 0.948 1_545 S
C1360 C1355 1.363 1_554 S
C1360 C1359 1.415 . S
C1361 H1337 0.951 . S
C1361 C1362 1.366 . S
C1361 C1363 1.388 . S
C1362 C1361 1.366 . S
C1362 C1366 1.385 . S
C1363 H1338 0.951 . S
C1363 C1361 1.388 . S
C1363 C1364 1.366 . S
C1364 C1363 1.366 . S
C1364 C1365 1.414 . S
C1364 C1367 1.499 . S
C1365 H1339 0.950 . S
C1365 C1364 1.414 . S
C1365 C1366 1.374 . S
C1366 H1340 0.950 . S
C1366 C1362 1.385 . S
C1366 C1365 1.374 . S
C1367 C1364 1.499 . S
C1367 C1368 1.373 . S
C1367 C1369 1.389 . S
C1368 H1341 0.950 . S
C1368 C1354 1.377 1_566 S
C1368 C1367 1.373 . S
C1369 C1353 1.377 1_566 S
C1369 C1367 1.389 . S
C1369 C1370 1.524 1_556 S
C1370 C1369 1.524 1_554 S
C1370 C1371 1.397 . S
C1370 C1375 1.363 1_554 S
C1371 H1342 0.950 . S
C1371 C1370 1.397 . S
C1371 C1372 1.334 . S
C1372 H1343 0.950 . S
C1372 C1371 1.334 . S
C1372 C1373 1.287 . S
C1373 C1372 1.287 . S
C1373 C1374 1.524 1_554 S
C1373 H1376 0.999 . S
C1374 H1344 0.950 . S
C1374 C1373 1.524 1_556 S
C1374 C1375 1.415 . S
C1375 H1345 0.948 1_565 S
C1375 C1370 1.363 1_556 S
C1375 C1374 1.415 . S
H1376 C1373 0.999 . S
H1377 C1358 0.913 . S
H1378 C1396 0.951 . S
H1379 C1398 0.951 . S
H1380 C1400 0.950 . S
H1381 C1401 0.950 . S
H1382 C1403 0.950 . S
H1383 C1406 0.950 . S
H1384 C1407 0.950 . S
H1385 C1409 0.950 . S
H1386 C1410 0.950 . S
H1387 C1411 0.951 . S
H1388 C1413 0.951 . S
H1389 C1415 0.950 . S
H1390 C1416 0.950 . S
H1391 C1418 0.950 . S
H1392 C1421 0.950 . S
H1393 C1422 0.950 . S
H1394 C1424 0.950 . S
H1395 C1425 0.950 . S
C1396 H1378 0.951 . S
C1396 C1397 1.366 . S
C1396 C1398 1.388 . S
C1397 C1396 1.366 . S
C1397 C1401 1.385 . S
C1398 H1379 0.951 . S
C1398 C1396 1.388 . S
C1398 C1399 1.366 . S
C1399 C1398 1.366 . S
C1399 C1400 1.414 . S
C1399 C1402 1.499 . S
C1400 H1380 0.950 . S
C1400 C1399 1.414 . S
C1400 C1401 1.374 . S
C1401 H1381 0.950 . S
C1401 C1397 1.385 . S
C1401 C1400 1.374 . S
C1402 C1399 1.499 . S
C1402 C1403 1.373 . S
C1402 C1404 1.389 . S
C1403 H1382 0.950 . S
C1403 C1402 1.373 . S
C1403 C1419 1.377 1_565 S
C1404 C1402 1.389 . S
C1404 C1405 1.524 . S
C1404 C1418 1.377 1_565 S
C1405 C1404 1.524 . S
C1405 C1406 1.397 . S
C1405 C1410 1.363 1_565 S
C1406 H1383 0.950 . S
C1406 C1405 1.397 . S
C1406 C1407 1.334 . S
C1407 H1384 0.950 . S
C1407 C1406 1.334 . S
C1407 C1408 1.287 . S
C1408 C1407 1.287 . S
C1408 C1409 1.524 1_565 S
C1408 H1427 0.913 . S
C1409 H1385 0.950 . S
C1409 C1408 1.524 1_545 S
C1409 C1410 1.415 . S
C1410 H1386 0.950 . S
C1410 C1405 1.363 1_545 S
C1410 C1409 1.415 . S
C1411 H1387 0.951 . S
C1411 C1412 1.366 . S
C1411 C1413 1.388 . S
C1412 C1411 1.366 . S
C1412 C1416 1.385 . S
C1413 H1388 0.951 . S
C1413 C1411 1.388 . S
C1413 C1414 1.366 . S
C1414 C1413 1.366 . S
C1414 C1415 1.414 . S
C1414 C1417 1.499 . S
C1415 H1389 0.950 . S
C1415 C1414 1.414 . S
C1415 C1416 1.374 . S
C1416 H1390 0.950 . S
C1416 C1412 1.385 . S
C1416 C1415 1.374 . S
C1417 C1414 1.499 . S
C1417 C1418 1.373 . S
C1417 C1419 1.389 . S
C1418 H1391 0.950 . S
C1418 C1404 1.377 1_545 S
C1418 C1417 1.373 . S
C1419 C1403 1.377 1_545 S
C1419 C1417 1.389 . S
C1419 C1420 1.524 . S
C1420 C1419 1.524 . S
C1420 C1421 1.397 . S
C1420 C1425 1.363 1_545 S
C1421 H1392 0.950 . S
C1421 C1420 1.397 . S
C1421 C1422 1.334 . S
C1422 H1393 0.950 . S
C1422 C1421 1.334 . S
C1422 C1423 1.287 . S
C1423 C1422 1.287 . S
C1423 C1424 1.524 1_545 S
C1423 H1426 0.999 . S
C1424 H1394 0.950 . S
C1424 C1423 1.524 1_565 S
C1424 C1425 1.415 . S
C1425 H1395 0.950 . S
C1425 C1420 1.363 1_565 S
C1425 C1424 1.415 . S
H1426 C1423 0.999 . S
H1427 C1408 0.913 . S
H1428 C1446 0.951 . S
H1429 C1448 0.951 . S
H1430 C1450 0.950 1_554 S
H1431 C1451 0.950 . S
H1432 C1453 0.950 . S
H1433 C1456 0.950 . S
H1434 C1457 0.950 . S
H1435 C1459 0.950 1_545 S
H1436 C1460 0.950 . S
H1437 C1461 0.951 . S
H1438 C1463 0.951 . S
H1439 C1465 0.950 1_556 S
H1440 C1466 0.950 . S
H1441 C1468 0.950 . S
H1442 C1471 0.950 . S
H1443 C1472 0.950 . S
H1444 C1474 0.950 1_565 S
H1445 C1475 0.950 . S
C1446 H1428 0.951 . S
C1446 C1447 1.366 . S
C1446 C1448 1.388 . S
C1447 C1446 1.366 . S
C1447 C1451 1.385 . S
C1448 H1429 0.951 . S
C1448 C1446 1.388 . S
C1448 C1449 1.366 . S
C1449 C1448 1.366 . S
C1449 C1450 1.414 . S
C1449 C1452 1.499 . S
C1450 H1430 0.950 1_556 S
C1450 C1449 1.414 . S
C1450 C1451 1.374 . S
C1451 H1431 0.950 . S
C1451 C1447 1.385 . S
C1451 C1450 1.374 . S
C1452 C1449 1.499 . S
C1452 C1453 1.373 1_556 S
C1452 C1454 1.389 . S
C1453 H1432 0.950 . S
C1453 C1452 1.373 1_554 S
C1453 C1469 1.377 1_565 S
C1454 C1452 1.389 . S
C1454 C1455 1.524 . S
C1454 C1468 1.377 1_565 S
C1455 C1454 1.524 . S
C1455 C1456 1.397 . S
C1455 C1460 1.363 1_565 S
C1456 H1433 0.950 . S
C1456 C1455 1.397 . S
C1456 C1457 1.334 . S
C1457 H1434 0.950 . S
C1457 C1456 1.334 . S
C1457 C1458 1.287 . S
C1458 C1457 1.287 . S
C1458 C1459 1.524 . S
C1458 H1477 0.913 . S
C1459 H1435 0.950 1_565 S
C1459 C1458 1.524 . S
C1459 C1460 1.415 1_565 S
C1460 H1436 0.950 . S
C1460 C1455 1.363 1_545 S
C1460 C1459 1.415 1_545 S
C1461 H1437 0.951 . S
C1461 C1462 1.366 . S
C1461 C1463 1.388 . S
C1462 C1461 1.366 . S
C1462 C1466 1.385 . S
C1463 H1438 0.951 . S
C1463 C1461 1.388 . S
C1463 C1464 1.366 . S
C1464 C1463 1.366 . S
C1464 C1465 1.414 . S
C1464 C1467 1.499 . S
C1465 H1439 0.950 1_554 S
C1465 C1464 1.414 . S
C1465 C1466 1.374 . S
C1466 H1440 0.950 . S
C1466 C1462 1.385 . S
C1466 C1465 1.374 . S
C1467 C1464 1.499 . S
C1467 C1468 1.373 1_554 S
C1467 C1469 1.389 . S
C1468 H1441 0.950 . S
C1468 C1454 1.377 1_545 S
C1468 C1467 1.373 1_556 S
C1469 C1453 1.377 1_545 S
C1469 C1467 1.389 . S
C1469 C1470 1.524 . S
C1470 C1469 1.524 . S
C1470 C1471 1.397 . S
C1470 C1475 1.363 1_545 S
C1471 H1442 0.950 . S
C1471 C1470 1.397 . S
C1471 C1472 1.334 . S
C1472 H1443 0.950 . S
C1472 C1471 1.334 . S
C1472 C1473 1.287 . S
C1473 C1472 1.287 . S
C1473 C1474 1.524 . S
C1473 H1476 0.999 . S
C1474 H1444 0.950 1_545 S
C1474 C1473 1.524 . S
C1474 C1475 1.415 1_545 S
C1475 H1445 0.950 . S
C1475 C1470 1.363 1_565 S
C1475 C1474 1.415 1_565 S
H1476 C1473 0.999 . S
H1477 C1458 0.913 . S
H1478 C1496 0.951 . S
H1479 C1498 0.951 . S
H1480 C1500 0.950 . S
H1481 C1501 0.950 . S
H1482 C1503 0.950 . S
H1483 C1506 0.950 . S
H1484 C1507 0.950 . S
H1485 C1509 0.929 1_565 S
H1486 C1510 0.950 1_565 S
H1487 C1511 0.951 . S
H1488 C1513 0.951 . S
H1489 C1515 0.950 . S
H1490 C1516 0.950 . S
H1491 C1518 0.950 . S
H1492 C1521 0.950 . S
H1493 C1522 0.950 . S
H1494 C1524 0.929 1_545 S
H1495 C1525 0.950 1_545 S
C1496 H1478 0.951 . S
C1496 C1497 1.366 . S
C1496 C1498 1.388 . S
C1497 C1496 1.366 . S
C1497 C1501 1.385 . S
C1498 H1479 0.951 . S
C1498 C1496 1.388 . S
C1498 C1499 1.366 . S
C1499 C1498 1.366 . S
C1499 C1500 1.414 . S
C1499 C1502 1.499 . S
C1500 H1480 0.950 . S
C1500 C1499 1.414 . S
C1500 C1501 1.374 . S
C1501 H1481 0.950 . S
C1501 C1497 1.385 . S
C1501 C1500 1.374 . S
C1502 C1499 1.499 . S
C1502 C1503 1.373 . S
C1502 C1504 1.389 . S
C1503 H1482 0.950 . S
C1503 C1502 1.373 . S
C1503 C1519 1.377 1_545 S
C1504 C1502 1.389 . S
C1504 C1505 1.524 . S
C1504 C1518 1.377 1_545 S
C1505 C1504 1.524 . S
C1505 C1506 1.397 . S
C1505 C1510 1.363 . S
C1506 H1483 0.950 . S
C1506 C1505 1.397 . S
C1506 C1507 1.334 . S
C1507 H1484 0.950 . S
C1507 C1506 1.334 . S
C1507 C1508 1.287 . S
C1508 C1507 1.287 . S
C1508 C1509 1.524 . S
C1508 H1527 0.913 . S
C1509 H1485 0.929 1_545 S
C1509 C1508 1.524 . S
C1509 C1510 1.415 . S
C1510 H1486 0.950 1_545 S
C1510 C1505 1.363 . S
C1510 C1509 1.415 . S
C1511 H1487 0.951 . S
C1511 C1512 1.366 . S
C1511 C1513 1.388 . S
C1512 C1511 1.366 . S
C1512 C1516 1.385 . S
C1513 H1488 0.951 . S
C1513 C1511 1.388 . S
C1513 C1514 1.366 . S
C1514 C1513 1.366 . S
C1514 C1515 1.414 . S
C1514 C1517 1.499 . S
C1515 H1489 0.950 . S
C1515 C1514 1.414 . S
C1515 C1516 1.374 . S
C1516 H1490 0.950 . S
C1516 C1512 1.385 . S
C1516 C1515 1.374 . S
C1517 C1514 1.499 . S
C1517 C1518 1.373 . S
C1517 C1519 1.389 . S
C1518 H1491 0.950 . S
C1518 C1504 1.377 1_565 S
C1518 C1517 1.373 . S
C1519 C1503 1.377 1_565 S
C1519 C1517 1.389 . S
C1519 C1520 1.524 . S
C1520 C1519 1.524 . S
C1520 C1521 1.397 . S
C1520 C1525 1.363 . S
C1521 H1492 0.950 . S
C1521 C1520 1.397 . S
C1521 C1522 1.334 . S
C1522 H1493 0.950 . S
C1522 C1521 1.334 . S
C1522 C1523 1.287 . S
C1523 C1522 1.287 . S
C1523 C1524 1.524 . S
C1523 H1526 0.999 . S
C1524 H1494 0.929 1_565 S
C1524 C1523 1.524 . S
C1524 C1525 1.415 . S
C1525 H1495 0.950 1_565 S
C1525 C1520 1.363 . S
C1525 C1524 1.415 . S
H1526 C1523 0.999 . S
H1527 C1508 0.913 . S
H1528 C1546 0.951 . S
H1529 C1548 0.951 . S
H1530 C1550 0.950 1_556 S
H1531 C1551 0.950 . S
H1532 C1553 0.950 . S
H1533 C1556 0.950 . S
H1534 C1557 0.950 . S
H1535 C1559 0.950 . S
H1536 C1560 0.950 . S
H1537 C1561 0.951 . S
H1538 C1563 0.951 . S
H1539 C1565 0.950 1_554 S
H1540 C1566 0.950 . S
H1541 C1568 0.950 . S
H1542 C1571 0.950 . S
H1543 C1572 0.950 . S
H1544 C1574 0.950 . S
H1545 C1575 0.950 . S
C1546 H1528 0.951 . S
C1546 C1547 1.366 . S
C1546 C1548 1.388 . S
C1547 C1546 1.366 . S
C1547 C1551 1.385 . S
C1548 H1529 0.951 . S
C1548 C1546 1.388 . S
C1548 C1549 1.366 . S
C1549 C1548 1.366 . S
C1549 C1550 1.414 . S
C1549 C1552 1.499 . S
C1550 H1530 0.950 1_554 S
C1550 C1549 1.414 . S
C1550 C1551 1.374 . S
C1551 H1531 0.950 . S
C1551 C1547 1.385 . S
C1551 C1550 1.374 . S
C1552 C1549 1.499 . S
C1552 C1553 1.373 1_554 S
C1552 C1554 1.389 . S
C1553 H1532 0.950 . S
C1553 C1552 1.373 1_556 S
C1553 C1569 1.377 . S
C1554 C1552 1.389 . S
C1554 C1555 1.524 . S
C1554 C1568 1.377 . S
C1555 C1554 1.524 . S
C1555 C1556 1.397 . S
C1555 C1560 1.363 . S
C1556 H1533 0.950 . S
C1556 C1555 1.397 . S
C1556 C1557 1.334 . S
C1557 H1534 0.950 . S
C1557 C1556 1.334 . S
C1557 C1558 1.287 . S
C1558 C1557 1.287 . S
C1558 C1559 1.524 . S
C1558 H1577 0.913 . S
C1559 H1535 0.950 . S
C1559 C1558 1.524 . S
C1559 C1560 1.415 . S
C1560 H1536 0.950 . S
C1560 C1555 1.363 . S
C1560 C1559 1.415 . S
C1561 H1537 0.951 . S
C1561 C1562 1.366 . S
C1561 C1563 1.388 . S
C1562 C1561 1.366 . S
C1562 C1566 1.385 . S
C1563 H1538 0.951 . S
C1563 C1561 1.388 . S
C1563 C1564 1.366 . S
C1564 C1563 1.366 . S
C1564 C1565 1.414 . S
C1564 C1567 1.499 . S
C1565 H1539 0.950 1_556 S
C1565 C1564 1.414 . S
C1565 C1566 1.374 . S
C1566 H1540 0.950 . S
C1566 C1562 1.385 . S
C1566 C1565 1.374 . S
C1567 C1564 1.499 . S
C1567 C1568 1.373 1_556 S
C1567 C1569 1.389 . S
C1568 H1541 0.950 . S
C1568 C1554 1.377 . S
C1568 C1567 1.373 1_554 S
C1569 C1553 1.377 . S
C1569 C1567 1.389 . S
C1569 C1570 1.524 . S
C1570 C1569 1.524 . S
C1570 C1571 1.397 . S
C1570 C1575 1.363 . S
C1571 H1542 0.950 . S
C1571 C1570 1.397 . S
C1571 C1572 1.334 . S
C1572 H1543 0.950 . S
C1572 C1571 1.334 . S
C1572 C1573 1.287 . S
C1573 C1572 1.287 . S
C1573 C1574 1.524 . S
C1573 H1576 0.999 . S
C1574 H1544 0.950 . S
C1574 C1573 1.524 . S
C1574 C1575 1.415 . S
C1575 H1545 0.950 . S
C1575 C1570 1.363 . S
C1575 C1574 1.415 . S
H1576 C1573 0.999 . S
H1577 C1558 0.913 . S
H1578 C1596 0.951 . S
H1579 C1598 0.951 . S
H1580 C1600 0.950 . S
H1581 C1601 0.950 . S
H1582 C1603 0.950 . S
H1583 C1606 0.950 . S
H1584 C1607 0.950 . S
H1585 C1609 0.950 . S
H1586 C1610 0.950 . S
H1587 C1611 0.951 . S
H1588 C1613 0.951 . S
H1589 C1615 0.950 . S
H1590 C1616 0.950 . S
H1591 C1618 0.950 . S
H1592 C1621 0.950 . S
H1593 C1622 0.950 . S
H1594 C1624 0.950 . S
H1595 C1625 0.950 . S
C1596 H1578 0.951 . S
C1596 C1597 1.366 . S
C1596 C1598 1.388 . S
C1597 C1596 1.366 . S
C1597 C1601 1.385 . S
C1598 H1579 0.951 . S
C1598 C1596 1.388 . S
C1598 C1599 1.366 . S
C1599 C1598 1.366 . S
C1599 C1600 1.414 . S
C1599 C1602 1.499 . S
C1600 H1580 0.950 . S
C1600 C1599 1.414 . S
C1600 C1601 1.374 . S
C1601 H1581 0.950 . S
C1601 C1597 1.385 . S
C1601 C1600 1.374 . S
C1602 C1599 1.499 . S
C1602 C1603 1.373 . S
C1602 C1604 1.389 . S
C1603 H1582 0.950 . S
C1603 C1602 1.373 . S
C1603 C1619 1.377 . S
C1604 C1602 1.389 . S
C1604 C1605 1.524 . S
C1604 C1618 1.377 . S
C1605 C1604 1.524 . S
C1605 C1606 1.397 . S
C1605 C1610 1.363 . S
C1606 H1583 0.950 . S
C1606 C1605 1.397 . S
C1606 C1607 1.334 . S
C1607 H1584 0.950 . S
C1607 C1606 1.334 . S
C1607 C1608 1.287 . S
C1608 C1607 1.287 . S
C1608 C1609 1.524 . S
C1608 H1627 0.913 . S
C1609 H1585 0.950 . S
C1609 C1608 1.524 . S
C1609 C1610 1.415 . S
C1610 H1586 0.950 . S
C1610 C1605 1.363 . S
C1610 C1609 1.415 . S
C1611 H1587 0.951 . S
C1611 C1612 1.366 . S
C1611 C1613 1.388 . S
C1612 C1611 1.366 . S
C1612 C1616 1.385 . S
C1613 H1588 0.951 . S
C1613 C1611 1.388 . S
C1613 C1614 1.366 . S
C1614 C1613 1.366 . S
C1614 C1615 1.414 . S
C1614 C1617 1.499 . S
C1615 H1589 0.950 . S
C1615 C1614 1.414 . S
C1615 C1616 1.374 . S
C1616 H1590 0.950 . S
C1616 C1612 1.385 . S
C1616 C1615 1.374 . S
C1617 C1614 1.499 . S
C1617 C1618 1.373 . S
C1617 C1619 1.389 . S
C1618 H1591 0.950 . S
C1618 C1604 1.377 . S
C1618 C1617 1.373 . S
C1619 C1603 1.377 . S
C1619 C1617 1.389 . S
C1619 C1620 1.524 . S
C1620 C1619 1.524 . S
C1620 C1621 1.397 . S
C1620 C1625 1.363 . S
C1621 H1592 0.950 . S
C1621 C1620 1.397 . S
C1621 C1622 1.334 . S
C1622 H1593 0.950 . S
C1622 C1621 1.334 . S
C1622 C1623 1.287 . S
C1623 C1622 1.287 . S
C1623 C1624 1.524 . S
C1623 H1626 0.999 . S
C1624 H1594 0.950 . S
C1624 C1623 1.524 . S
C1624 C1625 1.415 . S
C1625 H1595 0.950 . S
C1625 C1620 1.363 . S
C1625 C1624 1.415 . S
H1626 C1623 0.999 . S
H1627 C1608 0.913 . S
H1628 C1646 0.951 . S
H1629 C1648 0.951 . S
H1630 C1650 0.950 . S
H1631 C1651 0.950 . S
H1632 C1653 0.950 . S
H1633 C1656 0.950 . S
H1634 C1657 0.950 . S
H1635 C1659 0.950 . S
H1636 C1660 0.950 1_556 S
H1637 C1661 0.951 . S
H1638 C1663 0.951 . S
H1639 C1665 0.950 . S
H1640 C1666 0.950 . S
H1641 C1668 0.950 . S
H1642 C1671 0.950 . S
H1643 C1672 0.950 . S
H1644 C1674 0.950 . S
H1645 C1675 0.950 1_554 S
C1646 H1628 0.951 . S
C1646 C1647 1.366 . S
C1646 C1648 1.388 . S
C1647 C1646 1.366 . S
C1647 C1651 1.385 . S
C1648 H1629 0.951 . S
C1648 C1646 1.388 . S
C1648 C1649 1.366 . S
C1649 C1648 1.366 . S
C1649 C1650 1.414 . S
C1649 C1652 1.499 . S
C1650 H1630 0.950 . S
C1650 C1649 1.414 . S
C1650 C1651 1.374 . S
C1651 H1631 0.950 . S
C1651 C1647 1.385 . S
C1651 C1650 1.374 . S
C1652 C1649 1.499 . S
C1652 C1653 1.373 . S
C1652 C1654 1.389 1_556 S
C1653 H1632 0.950 . S
C1653 C1652 1.373 . S
C1653 C1669 1.377 . S
C1654 C1652 1.389 1_554 S
C1654 C1655 1.524 . S
C1654 C1668 1.377 . S
C1655 C1654 1.524 . S
C1655 C1656 1.397 . S
C1655 C1660 1.363 . S
C1656 H1633 0.950 . S
C1656 C1655 1.397 . S
C1656 C1657 1.334 . S
C1657 H1634 0.950 . S
C1657 C1656 1.334 . S
C1657 C1658 1.287 . S
C1658 C1657 1.287 . S
C1658 C1659 1.524 . S
C1658 H1677 0.913 . S
C1659 H1635 0.950 . S
C1659 C1658 1.524 . S
C1659 C1660 1.415 . S
C1660 H1636 0.950 1_554 S
C1660 C1655 1.363 . S
C1660 C1659 1.415 . S
C1661 H1637 0.951 . S
C1661 C1662 1.366 . S
C1661 C1663 1.388 . S
C1662 C1661 1.366 . S
C1662 C1666 1.385 . S
C1663 H1638 0.951 . S
C1663 C1661 1.388 . S
C1663 C1664 1.366 . S
C1664 C1663 1.366 . S
C1664 C1665 1.414 . S
C1664 C1667 1.499 . S
C1665 H1639 0.950 . S
C1665 C1664 1.414 . S
C1665 C1666 1.374 . S
C1666 H1640 0.950 . S
C1666 C1662 1.385 . S
C1666 C1665 1.374 . S
C1667 C1664 1.499 . S
C1667 C1668 1.373 . S
C1667 C1669 1.389 1_554 S
C1668 H1641 0.950 . S
C1668 C1654 1.377 . S
C1668 C1667 1.373 . S
C1669 C1653 1.377 . S
C1669 C1667 1.389 1_556 S
C1669 C1670 1.524 . S
C1670 C1669 1.524 . S
C1670 C1671 1.397 . S
C1670 C1675 1.363 . S
C1671 H1642 0.950 . S
C1671 C1670 1.397 . S
C1671 C1672 1.334 . S
C1672 H1643 0.950 . S
C1672 C1671 1.334 . S
C1672 C1673 1.287 . S
C1673 C1672 1.287 . S
C1673 C1674 1.524 . S
C1673 H1676 0.999 . S
C1674 H1644 0.950 . S
C1674 C1673 1.524 . S
C1674 C1675 1.415 . S
C1675 H1645 0.950 1_556 S
C1675 C1670 1.363 . S
C1675 C1674 1.415 . S
H1676 C1673 0.999 . S
H1677 C1658 0.913 . S
H1678 C1696 0.951 . S
H1679 C1698 0.951 . S
H1680 C1700 0.950 . S
H1681 C1701 0.950 . S
H1682 C1703 0.950 . S
H1683 C1706 0.950 . S
H1684 C1707 0.950 . S
H1685 C1709 0.950 . S
H1686 C1710 0.950 . S
H1687 C1711 0.951 . S
H1688 C1713 0.951 . S
H1689 C1715 0.950 . S
H1690 C1716 0.950 . S
H1691 C1718 0.950 . S
H1692 C1721 0.950 . S
H1693 C1722 0.950 . S
H1694 C1724 0.950 . S
H1695 C1725 0.950 . S
C1696 H1678 0.951 . S
C1696 C1697 1.366 . S
C1696 C1698 1.388 . S
C1697 C1696 1.366 . S
C1697 C1701 1.385 . S
C1698 H1679 0.951 . S
C1698 C1696 1.388 . S
C1698 C1699 1.366 . S
C1699 C1698 1.366 . S
C1699 C1700 1.414 . S
C1699 C1702 1.499 . S
C1700 H1680 0.950 . S
C1700 C1699 1.414 . S
C1700 C1701 1.374 . S
C1701 H1681 0.950 . S
C1701 C1697 1.385 . S
C1701 C1700 1.374 . S
C1702 C1699 1.499 . S
C1702 C1703 1.373 . S
C1702 C1704 1.389 . S
C1703 H1682 0.950 . S
C1703 C1702 1.373 . S
C1703 C1719 1.377 . S
C1704 C1702 1.389 . S
C1704 C1705 1.524 . S
C1704 C1718 1.377 . S
C1705 C1704 1.524 . S
C1705 C1706 1.397 . S
C1705 C1710 1.363 . S
C1706 H1683 0.950 . S
C1706 C1705 1.397 . S
C1706 C1707 1.334 . S
C1707 H1684 0.950 . S
C1707 C1706 1.334 . S
C1707 C1708 1.287 . S
C1708 C1707 1.287 . S
C1708 C1709 1.524 . S
C1708 H1727 0.913 . S
C1709 H1685 0.950 . S
C1709 C1708 1.524 . S
C1709 C1710 1.415 . S
C1710 H1686 0.950 . S
C1710 C1705 1.363 . S
C1710 C1709 1.415 . S
C1711 H1687 0.951 . S
C1711 C1712 1.366 . S
C1711 C1713 1.388 . S
C1712 C1711 1.366 . S
C1712 C1716 1.385 . S
C1713 H1688 0.951 . S
C1713 C1711 1.388 . S
C1713 C1714 1.366 . S
C1714 C1713 1.366 . S
C1714 C1715 1.414 . S
C1714 C1717 1.499 . S
C1715 H1689 0.950 . S
C1715 C1714 1.414 . S
C1715 C1716 1.374 . S
C1716 H1690 0.950 . S
C1716 C1712 1.385 . S
C1716 C1715 1.374 . S
C1717 C1714 1.499 . S
C1717 C1718 1.373 . S
C1717 C1719 1.389 . S
C1718 H1691 0.950 . S
C1718 C1704 1.377 . S
C1718 C1717 1.373 . S
C1719 C1703 1.377 . S
C1719 C1717 1.389 . S
C1719 C1720 1.524 . S
C1720 C1719 1.524 . S
C1720 C1721 1.397 . S
C1720 C1725 1.363 . S
C1721 H1692 0.950 . S
C1721 C1720 1.397 . S
C1721 C1722 1.334 . S
C1722 H1693 0.950 . S
C1722 C1721 1.334 . S
C1722 C1723 1.287 . S
C1723 C1722 1.287 . S
C1723 C1724 1.524 . S
C1723 H1726 0.999 . S
C1724 H1694 0.950 . S
C1724 C1723 1.524 . S
C1724 C1725 1.415 . S
C1725 H1695 0.950 . S
C1725 C1720 1.363 . S
C1725 C1724 1.415 . S
H1726 C1723 0.999 . S
H1727 C1708 0.913 . S
H1728 C1746 0.951 . S
H1729 C1748 0.951 . S
H1730 C1750 0.950 . S
H1731 C1751 0.950 . S
H1732 C1753 0.950 . S
H1733 C1756 0.950 . S
H1734 C1757 0.950 . S
H1735 C1759 0.950 . S
H1736 C1760 0.950 . S
H1737 C1761 0.951 . S
H1738 C1763 0.951 . S
H1739 C1765 0.950 . S
H1740 C1766 0.950 . S
H1741 C1768 0.950 . S
H1742 C1771 0.950 . S
H1743 C1772 0.950 . S
H1744 C1774 0.950 . S
H1745 C1775 0.950 . S
C1746 H1728 0.951 . S
C1746 C1747 1.366 . S
C1746 C1748 1.388 . S
C1747 C1746 1.366 . S
C1747 C1751 1.385 . S
C1748 H1729 0.951 . S
C1748 C1746 1.388 . S
C1748 C1749 1.366 . S
C1749 C1748 1.366 . S
C1749 C1750 1.414 . S
C1749 C1752 1.499 . S
C1750 H1730 0.950 . S
C1750 C1749 1.414 . S
C1750 C1751 1.374 . S
C1751 H1731 0.950 . S
C1751 C1747 1.385 . S
C1751 C1750 1.374 . S
C1752 C1749 1.499 . S
C1752 C1753 1.373 . S
C1752 C1754 1.389 . S
C1753 H1732 0.950 . S
C1753 C1752 1.373 . S
C1753 C1769 1.377 . S
C1754 C1752 1.389 . S
C1754 C1755 1.524 . S
C1754 C1768 1.377 . S
C1755 C1754 1.524 . S
C1755 C1756 1.397 . S
C1755 C1760 1.363 . S
C1756 H1733 0.950 . S
C1756 C1755 1.397 . S
C1756 C1757 1.334 . S
C1757 H1734 0.950 . S
C1757 C1756 1.334 . S
C1757 C1758 1.287 . S
C1758 C1757 1.287 . S
C1758 C1759 1.524 . S
C1758 H1777 0.913 . S
C1759 H1735 0.950 . S
C1759 C1758 1.524 . S
C1759 C1760 1.415 . S
C1760 H1736 0.950 . S
C1760 C1755 1.363 . S
C1760 C1759 1.415 . S
C1761 H1737 0.951 . S
C1761 C1762 1.366 . S
C1761 C1763 1.388 . S
C1762 C1761 1.366 . S
C1762 C1766 1.385 . S
C1763 H1738 0.951 . S
C1763 C1761 1.388 . S
C1763 C1764 1.366 . S
C1764 C1763 1.366 . S
C1764 C1765 1.414 . S
C1764 C1767 1.499 . S
C1765 H1739 0.950 . S
C1765 C1764 1.414 . S
C1765 C1766 1.374 . S
C1766 H1740 0.950 . S
C1766 C1762 1.385 . S
C1766 C1765 1.374 . S
C1767 C1764 1.499 . S
C1767 C1768 1.373 . S
C1767 C1769 1.389 . S
C1768 H1741 0.950 . S
C1768 C1754 1.377 . S
C1768 C1767 1.373 . S
C1769 C1753 1.377 . S
C1769 C1767 1.389 . S
C1769 C1770 1.524 . S
C1770 C1769 1.524 . S
C1770 C1771 1.397 . S
C1770 C1775 1.363 . S
C1771 H1742 0.950 . S
C1771 C1770 1.397 . S
C1771 C1772 1.334 . S
C1772 H1743 0.950 . S
C1772 C1771 1.334 . S
C1772 C1773 1.287 . S
C1773 C1772 1.287 . S
C1773 C1774 1.524 . S
C1773 H1776 0.999 1_556 S
C1774 H1744 0.950 . S
C1774 C1773 1.524 . S
C1774 C1775 1.415 . S
C1775 H1745 0.950 . S
C1775 C1770 1.363 . S
C1775 C1774 1.415 . S
H1776 C1773 0.999 1_554 S
H1777 C1758 0.913 . S
H1778 C1796 0.951 . S
H1779 C1798 0.951 . S
H1780 C1800 0.950 . S
H1781 C1801 0.950 . S
H1782 C1803 0.950 . S
H1783 C1806 0.950 . S
H1784 C1807 0.950 . S
H1785 C1809 0.950 . S
H1786 C1810 0.950 . S
H1787 C1811 0.951 . S
H1788 C1813 0.951 . S
H1789 C1815 0.950 . S
H1790 C1816 0.950 . S
H1791 C1818 0.950 . S
H1792 C1821 0.950 . S
H1793 C1822 0.950 . S
H1794 C1824 0.950 . S
H1795 C1825 0.950 . S
C1796 H1778 0.951 . S
C1796 C1797 1.366 . S
C1796 C1798 1.388 . S
C1797 C1796 1.366 . S
C1797 C1801 1.385 . S
C1798 H1779 0.951 . S
C1798 C1796 1.388 . S
C1798 C1799 1.366 . S
C1799 C1798 1.366 . S
C1799 C1800 1.414 . S
C1799 C1802 1.499 . S
C1800 H1780 0.950 . S
C1800 C1799 1.414 . S
C1800 C1801 1.374 . S
C1801 H1781 0.950 . S
C1801 C1797 1.385 . S
C1801 C1800 1.374 . S
C1802 C1799 1.499 . S
C1802 C1803 1.373 . S
C1802 C1804 1.389 . S
C1803 H1782 0.950 . S
C1803 C1802 1.373 . S
C1803 C1819 1.377 . S
C1804 C1802 1.389 . S
C1804 C1805 1.524 . S
C1804 C1818 1.377 . S
C1805 C1804 1.524 . S
C1805 C1806 1.397 . S
C1805 C1810 1.363 . S
C1806 H1783 0.950 . S
C1806 C1805 1.397 . S
C1806 C1807 1.334 . S
C1807 H1784 0.950 . S
C1807 C1806 1.334 . S
C1807 C1808 1.287 . S
C1808 C1807 1.287 . S
C1808 C1809 1.524 . S
C1808 H1827 0.913 . S
C1809 H1785 0.950 . S
C1809 C1808 1.524 . S
C1809 C1810 1.415 . S
C1810 H1786 0.950 . S
C1810 C1805 1.363 . S
C1810 C1809 1.415 . S
C1811 H1787 0.951 . S
C1811 C1812 1.366 . S
C1811 C1813 1.388 . S
C1812 C1811 1.366 . S
C1812 C1816 1.385 . S
C1813 H1788 0.951 . S
C1813 C1811 1.388 . S
C1813 C1814 1.366 . S
C1814 C1813 1.366 . S
C1814 C1815 1.414 . S
C1814 C1817 1.499 . S
C1815 H1789 0.950 . S
C1815 C1814 1.414 . S
C1815 C1816 1.374 . S
C1816 H1790 0.950 . S
C1816 C1812 1.385 . S
C1816 C1815 1.374 . S
C1817 C1814 1.499 . S
C1817 C1818 1.373 . S
C1817 C1819 1.389 . S
C1818 H1791 0.950 . S
C1818 C1804 1.377 . S
C1818 C1817 1.373 . S
C1819 C1803 1.377 . S
C1819 C1817 1.389 . S
C1819 C1820 1.524 . S
C1820 C1819 1.524 . S
C1820 C1821 1.397 . S
C1820 C1825 1.363 . S
C1821 H1792 0.950 . S
C1821 C1820 1.397 . S
C1821 C1822 1.334 . S
C1822 H1793 0.950 . S
C1822 C1821 1.334 . S
C1822 C1823 1.287 . S
C1823 C1822 1.287 . S
C1823 C1824 1.524 . S
C1823 H1826 0.999 . S
C1824 H1794 0.950 . S
C1824 C1823 1.524 . S
C1824 C1825 1.415 . S
C1825 H1795 0.950 . S
C1825 C1820 1.363 . S
C1825 C1824 1.415 . S
H1826 C1823 0.999 . S
H1827 C1808 0.913 . S
H1828 C1846 0.951 . S
H1829 C1848 0.951 . S
H1830 C1850 0.950 . S
H1831 C1851 0.950 . S
H1832 C1853 0.950 . S
H1833 C1856 0.950 . S
H1834 C1857 0.950 . S
H1835 C1859 0.950 . S
H1836 C1860 0.950 . S
H1837 C1861 0.951 . S
H1838 C1863 0.951 . S
H1839 C1865 0.950 . S
H1840 C1866 0.950 . S
H1841 C1868 0.950 . S
H1842 C1871 0.950 . S
H1843 C1872 0.950 . S
H1844 C1874 0.950 . S
H1845 C1875 0.950 . S
C1846 H1828 0.951 . S
C1846 C1847 1.366 . S
C1846 C1848 1.388 . S
C1847 C1846 1.366 . S
C1847 C1851 1.385 . S
C1848 H1829 0.951 . S
C1848 C1846 1.388 . S
C1848 C1849 1.366 . S
C1849 C1848 1.366 . S
C1849 C1850 1.414 . S
C1849 C1852 1.499 . S
C1850 H1830 0.950 . S
C1850 C1849 1.414 . S
C1850 C1851 1.374 . S
C1851 H1831 0.950 . S
C1851 C1847 1.385 . S
C1851 C1850 1.374 . S
C1852 C1849 1.499 . S
C1852 C1853 1.373 . S
C1852 C1854 1.389 . S
C1853 H1832 0.950 . S
C1853 C1852 1.373 . S
C1853 C1869 1.377 . S
C1854 C1852 1.389 . S
C1854 C1855 1.524 . S
C1854 C1868 1.377 . S
C1855 C1854 1.524 . S
C1855 C1856 1.397 . S
C1855 C1860 1.363 . S
C1856 H1833 0.950 . S
C1856 C1855 1.397 . S
C1856 C1857 1.334 . S
C1857 H1834 0.950 . S
C1857 C1856 1.334 . S
C1857 C1858 1.287 . S
C1858 C1857 1.287 . S
C1858 C1859 1.524 . S
C1858 H1877 0.913 . S
C1859 H1835 0.950 . S
C1859 C1858 1.524 . S
C1859 C1860 1.415 . S
C1860 H1836 0.950 . S
C1860 C1855 1.363 . S
C1860 C1859 1.415 . S
C1861 H1837 0.951 . S
C1861 C1862 1.366 . S
C1861 C1863 1.388 . S
C1862 C1861 1.366 . S
C1862 C1866 1.385 . S
C1863 H1838 0.951 . S
C1863 C1861 1.388 . S
C1863 C1864 1.366 . S
C1864 C1863 1.366 . S
C1864 C1865 1.414 . S
C1864 C1867 1.499 . S
C1865 H1839 0.950 . S
C1865 C1864 1.414 . S
C1865 C1866 1.374 . S
C1866 H1840 0.950 . S
C1866 C1862 1.385 . S
C1866 C1865 1.374 . S
C1867 C1864 1.499 . S
C1867 C1868 1.373 . S
C1867 C1869 1.389 . S
C1868 H1841 0.950 . S
C1868 C1854 1.377 . S
C1868 C1867 1.373 . S
C1869 C1853 1.377 . S
C1869 C1867 1.389 . S
C1869 C1870 1.524 . S
C1870 C1869 1.524 . S
C1870 C1871 1.397 . S
C1870 C1875 1.363 . S
C1871 H1842 0.950 . S
C1871 C1870 1.397 . S
C1871 C1872 1.334 . S
C1872 H1843 0.950 . S
C1872 C1871 1.334 . S
C1872 C1873 1.287 . S
C1873 C1872 1.287 . S
C1873 C1874 1.524 . S
C1873 H1876 0.999 . S
C1874 H1844 0.950 . S
C1874 C1873 1.524 . S
C1874 C1875 1.415 . S
C1875 H1845 0.950 . S
C1875 C1870 1.363 . S
C1875 C1874 1.415 . S
H1876 C1873 0.999 . S
H1877 C1858 0.913 . S
H1878 C1896 0.951 . S
H1879 C1898 0.951 . S
H1880 C1900 0.950 . S
H1881 C1901 0.950 . S
H1882 C1903 0.950 . S
H1883 C1906 0.950 . S
H1884 C1907 0.950 . S
H1885 C1909 0.950 . S
H1886 C1910 0.950 . S
H1887 C1911 0.951 . S
H1888 C1913 0.951 . S
H1889 C1915 0.950 . S
H1890 C1916 0.950 . S
H1891 C1918 0.950 . S
H1892 C1921 0.950 . S
H1893 C1922 0.950 . S
H1894 C1924 0.950 . S
H1895 C1925 0.950 . S
C1896 H1878 0.951 . S
C1896 C1897 1.366 . S
C1896 C1898 1.388 . S
C1897 C1896 1.366 . S
C1897 C1901 1.385 . S
C1898 H1879 0.951 . S
C1898 C1896 1.388 . S
C1898 C1899 1.366 . S
C1899 C1898 1.366 . S
C1899 C1900 1.414 . S
C1899 C1902 1.499 . S
C1900 H1880 0.950 . S
C1900 C1899 1.414 . S
C1900 C1901 1.374 . S
C1901 H1881 0.950 . S
C1901 C1897 1.385 . S
C1901 C1900 1.374 . S
C1902 C1899 1.499 . S
C1902 C1903 1.373 . S
C1902 C1904 1.389 . S
C1903 H1882 0.950 . S
C1903 C1902 1.373 . S
C1903 C1919 1.377 . S
C1904 C1902 1.389 . S
C1904 C1905 1.524 . S
C1904 C1918 1.377 . S
C1905 C1904 1.524 . S
C1905 C1906 1.397 . S
C1905 C1910 1.363 . S
C1906 H1883 0.950 . S
C1906 C1905 1.397 . S
C1906 C1907 1.334 . S
C1907 H1884 0.950 . S
C1907 C1906 1.334 . S
C1907 C1908 1.287 . S
C1908 C1907 1.287 . S
C1908 C1909 1.524 . S
C1908 H1927 0.913 . S
C1909 H1885 0.950 . S
C1909 C1908 1.524 . S
C1909 C1910 1.415 . S
C1910 H1886 0.950 . S
C1910 C1905 1.363 . S
C1910 C1909 1.415 . S
C1911 H1887 0.951 . S
C1911 C1912 1.366 . S
C1911 C1913 1.388 . S
C1912 C1911 1.366 . S
C1912 C1916 1.385 . S
C1913 H1888 0.951 . S
C1913 C1911 1.388 . S
C1913 C1914 1.366 . S
C1914 C1913 1.366 . S
C1914 C1915 1.414 . S
C1914 C1917 1.499 . S
C1915 H1889 0.950 . S
C1915 C1914 1.414 . S
C1915 C1916 1.374 . S
C1916 H1890 0.950 . S
C1916 C1912 1.385 . S
C1916 C1915 1.374 . S
C1917 C1914 1.499 . S
C1917 C1918 1.373 . S
C1917 C1919 1.389 . S
C1918 H1891 0.950 . S
C1918 C1904 1.377 . S
C1918 C1917 1.373 . S
C1919 C1903 1.377 . S
C1919 C1917 1.389 . S
C1919 C1920 1.524 . S
C1920 C1919 1.524 . S
C1920 C1921 1.397 . S
C1920 C1925 1.363 . S
C1921 H1892 0.950 . S
C1921 C1920 1.397 . S
C1921 C1922 1.334 . S
C1922 H1893 0.950 . S
C1922 C1921 1.334 . S
C1922 C1923 1.287 . S
C1923 C1922 1.287 . S
C1923 C1924 1.524 . S
C1923 H1926 0.999 . S
C1924 H1894 0.950 . S
C1924 C1923 1.524 . S
C1924 C1925 1.415 . S
C1925 H1895 0.950 . S
C1925 C1920 1.363 . S
C1925 C1924 1.415 . S
H1926 C1923 0.999 . S
H1927 C1908 0.913 . S
H1928 C1946 0.951 . S
H1929 C1948 0.951 . S
H1930 C1950 0.950 . S
H1931 C1951 0.950 . S
H1932 C1953 0.950 . S
H1933 C1956 0.950 . S
H1934 C1957 0.950 . S
H1935 C1959 0.950 . S
H1936 C1960 0.950 . S
H1937 C1961 0.951 . S
H1938 C1963 0.951 . S
H1939 C1965 0.950 . S
H1940 C1966 0.950 . S
H1941 C1968 0.950 . S
H1942 C1971 0.950 . S
H1943 C1972 0.950 . S
H1944 C1974 0.950 . S
H1945 C1975 0.950 . S
C1946 H1928 0.951 . S
C1946 C1947 1.366 . S
C1946 C1948 1.388 . S
C1947 C1946 1.366 . S
C1947 C1951 1.385 . S
C1948 H1929 0.951 . S
C1948 C1946 1.388 . S
C1948 C1949 1.366 . S
C1949 C1948 1.366 . S
C1949 C1950 1.414 . S
C1949 C1952 1.499 . S
C1950 H1930 0.950 . S
C1950 C1949 1.414 . S
C1950 C1951 1.374 . S
C1951 H1931 0.950 . S
C1951 C1947 1.385 . S
C1951 C1950 1.374 . S
C1952 C1949 1.499 . S
C1952 C1953 1.373 . S
C1952 C1954 1.389 . S
C1953 H1932 0.950 . S
C1953 C1952 1.373 . S
C1953 C1969 1.377 . S
C1954 C1952 1.389 . S
C1954 C1955 1.524 . S
C1954 C1968 1.377 . S
C1955 C1954 1.524 . S
C1955 C1956 1.397 . S
C1955 C1960 1.363 . S
C1956 H1933 0.950 . S
C1956 C1955 1.397 . S
C1956 C1957 1.334 . S
C1957 H1934 0.950 . S
C1957 C1956 1.334 . S
C1957 C1958 1.287 . S
C1958 C1957 1.287 . S
C1958 C1959 1.524 . S
C1958 H1977 0.913 . S
C1959 H1935 0.950 . S
C1959 C1958 1.524 . S
C1959 C1960 1.415 . S
C1960 H1936 0.950 . S
C1960 C1955 1.363 . S
C1960 C1959 1.415 . S
C1961 H1937 0.951 . S
C1961 C1962 1.366 . S
C1961 C1963 1.388 . S
C1962 C1961 1.366 . S
C1962 C1966 1.385 . S
C1963 H1938 0.951 . S
C1963 C1961 1.388 . S
C1963 C1964 1.366 . S
C1964 C1963 1.366 . S
C1964 C1965 1.414 . S
C1964 C1967 1.499 . S
C1965 H1939 0.950 . S
C1965 C1964 1.414 . S
C1965 C1966 1.374 . S
C1966 H1940 0.950 . S
C1966 C1962 1.385 . S
C1966 C1965 1.374 . S
C1967 C1964 1.499 . S
C1967 C1968 1.373 . S
C1967 C1969 1.389 . S
C1968 H1941 0.950 . S
C1968 C1954 1.377 . S
C1968 C1967 1.373 . S
C1969 C1953 1.377 . S
C1969 C1967 1.389 . S
C1969 C1970 1.524 . S
C1970 C1969 1.524 . S
C1970 C1971 1.397 . S
C1970 C1975 1.363 . S
C1971 H1942 0.950 . S
C1971 C1970 1.397 . S
C1971 C1972 1.334 . S
C1972 H1943 0.950 . S
C1972 C1971 1.334 . S
C1972 C1973 1.287 . S
C1973 C1972 1.287 . S
C1973 C1974 1.524 . S
C1973 H1976 0.999 . S
C1974 H1944 0.950 . S
C1974 C1973 1.524 . S
C1974 C1975 1.415 . S
C1975 H1945 0.950 . S
C1975 C1970 1.363 . S
C1975 C1974 1.415 . S
H1976 C1973 0.999 . S
H1977 C1958 0.913 . S
H1978 C1996 0.951 . S
H1979 C1998 0.951 . S
H1980 C2000 0.950 . S
H1981 C2001 0.950 . S
H1982 C2003 0.950 . S
H1983 C2006 0.950 . S
H1984 C2007 0.950 . S
H1985 C2009 0.950 . S
H1986 C2010 0.950 . S
H1987 C2011 0.951 . S
H1988 C2013 0.951 . S
H1989 C2015 0.950 . S
H1990 C2016 0.950 . S
H1991 C2018 0.950 . S
H1992 C2021 0.950 . S
H1993 C2022 0.950 . S
H1994 C2024 0.950 . S
H1995 C2025 0.950 . S
C1996 H1978 0.951 . S
C1996 C1997 1.366 . S
C1996 C1998 1.388 . S
C1997 C1996 1.366 . S
C1997 C2001 1.385 . S
C1998 H1979 0.951 . S
C1998 C1996 1.388 . S
C1998 C1999 1.366 . S
C1999 C1998 1.366 . S
C1999 C2000 1.414 . S
C1999 C2002 1.499 . S
C2000 H1980 0.950 . S
C2000 C1999 1.414 . S
C2000 C2001 1.374 . S
C2001 H1981 0.950 . S
C2001 C1997 1.385 . S
C2001 C2000 1.374 . S
C2002 C1999 1.499 . S
C2002 C2003 1.373 . S
C2002 C2004 1.389 . S
C2003 H1982 0.950 . S
C2003 C2002 1.373 . S
C2003 C2019 1.377 . S
C2004 C2002 1.389 . S
C2004 C2005 1.524 . S
C2004 C2018 1.377 . S
C2005 C2004 1.524 . S
C2005 C2006 1.397 . S
C2005 C2010 1.363 . S
C2006 H1983 0.950 . S
C2006 C2005 1.397 . S
C2006 C2007 1.334 . S
C2007 H1984 0.950 . S
C2007 C2006 1.334 . S
C2007 C2008 1.287 . S
C2008 C2007 1.287 . S
C2008 C2009 1.524 . S
C2008 H2027 0.913 . S
C2009 H1985 0.950 . S
C2009 C2008 1.524 . S
C2009 C2010 1.415 . S
C2010 H1986 0.950 . S
C2010 C2005 1.363 . S
C2010 C2009 1.415 . S
C2011 H1987 0.951 . S
C2011 C2012 1.366 . S
C2011 C2013 1.388 . S
C2012 C2011 1.366 . S
C2012 C2016 1.385 . S
C2013 H1988 0.951 . S
C2013 C2011 1.388 . S
C2013 C2014 1.366 . S
C2014 C2013 1.366 . S
C2014 C2015 1.414 . S
C2014 C2017 1.499 . S
C2015 H1989 0.950 . S
C2015 C2014 1.414 . S
C2015 C2016 1.374 . S
C2016 H1990 0.950 . S
C2016 C2012 1.385 . S
C2016 C2015 1.374 . S
C2017 C2014 1.499 . S
C2017 C2018 1.373 . S
C2017 C2019 1.389 . S
C2018 H1991 0.950 . S
C2018 C2004 1.377 . S
C2018 C2017 1.373 . S
C2019 C2003 1.377 . S
C2019 C2017 1.389 . S
C2019 C2020 1.524 . S
C2020 C2019 1.524 . S
C2020 C2021 1.397 . S
C2020 C2025 1.363 . S
C2021 H1992 0.950 . S
C2021 C2020 1.397 . S
C2021 C2022 1.334 . S
C2022 H1993 0.950 . S
C2022 C2021 1.334 . S
C2022 C2023 1.287 . S
C2023 C2022 1.287 . S
C2023 C2024 1.524 . S
C2023 H2026 0.999 . S
C2024 H1994 0.950 . S
C2024 C2023 1.524 . S
C2024 C2025 1.415 . S
C2025 H1995 0.950 . S
C2025 C2020 1.363 . S
C2025 C2024 1.415 . S
H2026 C2023 0.999 . S
H2027 C2008 0.913 . S
H2028 C2046 0.951 . S
H2029 C2048 0.951 . S
H2030 C2050 0.950 . S
H2031 C2051 0.950 . S
H2032 C2053 0.950 . S
H2033 C2056 0.950 . S
H2034 C2057 0.950 . S
H2035 C2059 0.950 . S
H2036 C2060 0.950 . S
H2037 C2061 0.951 . S
H2038 C2063 0.951 . S
H2039 C2065 0.950 . S
H2040 C2066 0.950 . S
H2041 C2068 0.950 . S
H2042 C2071 0.950 . S
H2043 C2072 0.950 . S
H2044 C2074 0.950 . S
H2045 C2075 0.950 . S
C2046 H2028 0.951 . S
C2046 C2047 1.366 . S
C2046 C2048 1.388 . S
C2047 C2046 1.366 . S
C2047 C2051 1.385 . S
C2048 H2029 0.951 . S
C2048 C2046 1.388 . S
C2048 C2049 1.366 . S
C2049 C2048 1.366 . S
C2049 C2050 1.414 . S
C2049 C2052 1.499 . S
C2050 H2030 0.950 . S
C2050 C2049 1.414 . S
C2050 C2051 1.374 . S
C2051 H2031 0.950 . S
C2051 C2047 1.385 . S
C2051 C2050 1.374 . S
C2052 C2049 1.499 . S
C2052 C2053 1.373 . S
C2052 C2054 1.389 . S
C2053 H2032 0.950 . S
C2053 C2052 1.373 . S
C2053 C2069 1.377 . S
C2054 C2052 1.389 . S
C2054 C2055 1.524 . S
C2054 C2068 1.377 . S
C2055 C2054 1.524 . S
C2055 C2056 1.397 . S
C2055 C2060 1.363 . S
C2056 H2033 0.950 . S
C2056 C2055 1.397 . S
C2056 C2057 1.334 . S
C2057 H2034 0.950 . S
C2057 C2056 1.334 . S
C2057 C2058 1.287 . S
C2058 C2057 1.287 . S
C2058 C2059 1.524 . S
C2058 H2077 0.913 . S
C2059 H2035 0.950 . S
C2059 C2058 1.524 . S
C2059 C2060 1.415 . S
C2060 H2036 0.950 . S
C2060 C2055 1.363 . S
C2060 C2059 1.415 . S
C2061 H2037 0.951 . S
C2061 C2062 1.366 . S
C2061 C2063 1.388 . S
C2062 C2061 1.366 . S
C2062 C2066 1.385 . S
C2063 H2038 0.951 . S
C2063 C2061 1.388 . S
C2063 C2064 1.366 . S
C2064 C2063 1.366 . S
C2064 C2065 1.414 . S
C2064 C2067 1.499 . S
C2065 H2039 0.950 . S
C2065 C2064 1.414 . S
C2065 C2066 1.374 . S
C2066 H2040 0.950 . S
C2066 C2062 1.385 . S
C2066 C2065 1.374 . S
C2067 C2064 1.499 . S
C2067 C2068 1.373 . S
C2067 C2069 1.389 . S
C2068 H2041 0.950 . S
C2068 C2054 1.377 . S
C2068 C2067 1.373 . S
C2069 C2053 1.377 . S
C2069 C2067 1.389 . S
C2069 C2070 1.524 . S
C2070 C2069 1.524 . S
C2070 C2071 1.397 . S
C2070 C2075 1.363 . S
C2071 H2042 0.950 . S
C2071 C2070 1.397 . S
C2071 C2072 1.334 . S
C2072 H2043 0.950 . S
C2072 C2071 1.334 . S
C2072 C2073 1.287 . S
C2073 C2072 1.287 . S
C2073 C2074 1.524 . S
C2073 H2076 0.999 . S
C2074 H2044 0.950 . S
C2074 C2073 1.524 . S
C2074 C2075 1.415 . S
C2075 H2045 0.950 . S
C2075 C2070 1.363 . S
C2075 C2074 1.415 . S
H2076 C2073 0.999 . S
H2077 C2058 0.913 . S
H2078 C2096 0.951 . S
H2079 C2098 0.951 . S
H2080 C2100 0.950 . S
H2081 C2101 0.950 . S
H2082 C2103 0.950 . S
H2083 C2106 0.950 . S
H2084 C2107 0.950 . S
H2085 C2109 0.950 . S
H2086 C2110 0.950 . S
H2087 C2111 0.951 . S
H2088 C2113 0.951 . S
H2089 C2115 0.950 . S
H2090 C2116 0.950 . S
H2091 C2118 0.950 . S
H2092 C2121 0.950 . S
H2093 C2122 0.950 . S
H2094 C2124 0.950 . S
H2095 C2125 0.950 . S
C2096 H2078 0.951 . S
C2096 C2097 1.366 . S
C2096 C2098 1.388 . S
C2097 C2096 1.366 . S
C2097 C2101 1.385 . S
C2098 H2079 0.951 . S
C2098 C2096 1.388 . S
C2098 C2099 1.366 . S
C2099 C2098 1.366 . S
C2099 C2100 1.414 . S
C2099 C2102 1.499 . S
C2100 H2080 0.950 . S
C2100 C2099 1.414 . S
C2100 C2101 1.374 . S
C2101 H2081 0.950 . S
C2101 C2097 1.385 . S
C2101 C2100 1.374 . S
C2102 C2099 1.499 . S
C2102 C2103 1.373 . S
C2102 C2104 1.389 . S
C2103 H2082 0.950 . S
C2103 C2102 1.373 . S
C2103 C2119 1.377 . S
C2104 C2102 1.389 . S
C2104 C2105 1.524 . S
C2104 C2118 1.377 . S
C2105 C2104 1.524 . S
C2105 C2106 1.397 . S
C2105 C2110 1.363 . S
C2106 H2083 0.950 . S
C2106 C2105 1.397 . S
C2106 C2107 1.334 . S
C2107 H2084 0.950 . S
C2107 C2106 1.334 . S
C2107 C2108 1.287 . S
C2108 C2107 1.287 . S
C2108 C2109 1.524 . S
C2108 H2127 0.913 . S
C2109 H2085 0.950 . S
C2109 C2108 1.524 . S
C2109 C2110 1.415 . S
C2110 H2086 0.950 . S
C2110 C2105 1.363 . S
C2110 C2109 1.415 . S
C2111 H2087 0.951 . S
C2111 C2112 1.366 . S
C2111 C2113 1.388 . S
C2112 C2111 1.366 . S
C2112 C2116 1.385 . S
C2113 H2088 0.951 . S
C2113 C2111 1.388 . S
C2113 C2114 1.366 . S
C2114 C2113 1.366 . S
C2114 C2115 1.414 . S
C2114 C2117 1.499 . S
C2115 H2089 0.950 . S
C2115 C2114 1.414 . S
C2115 C2116 1.374 . S
C2116 H2090 0.950 . S
C2116 C2112 1.385 . S
C2116 C2115 1.374 . S
C2117 C2114 1.499 . S
C2117 C2118 1.373 . S
C2117 C2119 1.389 . S
C2118 H2091 0.950 . S
C2118 C2104 1.377 . S
C2118 C2117 1.373 . S
C2119 C2103 1.377 . S
C2119 C2117 1.389 . S
C2119 C2120 1.524 . S
C2120 C2119 1.524 . S
C2120 C2121 1.397 . S
C2120 C2125 1.363 . S
C2121 H2092 0.950 . S
C2121 C2120 1.397 . S
C2121 C2122 1.334 . S
C2122 H2093 0.950 . S
C2122 C2121 1.334 . S
C2122 C2123 1.287 . S
C2123 C2122 1.287 . S
C2123 C2124 1.524 . S
C2123 H2126 0.999 . S
C2124 H2094 0.950 . S
C2124 C2123 1.524 . S
C2124 C2125 1.415 . S
C2125 H2095 0.950 . S
C2125 C2120 1.363 . S
C2125 C2124 1.415 . S
H2126 C2123 0.999 . S
H2127 C2108 0.913 . S
H2128 C2146 0.951 . S
H2129 C2148 0.951 . S
H2130 C2150 0.950 . S
H2131 C2151 0.950 . S
H2132 C2153 0.950 . S
H2133 C2156 0.950 . S
H2134 C2157 0.950 . S
H2135 C2159 0.950 . S
H2136 C2160 0.950 . S
H2137 C2161 0.951 . S
H2138 C2163 0.951 . S
H2139 C2165 0.950 . S
H2140 C2166 0.950 . S
H2141 C2168 0.950 . S
H2142 C2171 0.950 . S
H2143 C2172 0.950 . S
H2144 C2174 0.950 . S
H2145 C2175 0.950 . S
C2146 H2128 0.951 . S
C2146 C2147 1.366 . S
C2146 C2148 1.388 . S
C2147 C2146 1.366 . S
C2147 C2151 1.385 . S
C2148 H2129 0.951 . S
C2148 C2146 1.388 . S
C2148 C2149 1.366 . S
C2149 C2148 1.366 . S
C2149 C2150 1.414 . S
C2149 C2152 1.499 . S
C2150 H2130 0.950 . S
C2150 C2149 1.414 . S
C2150 C2151 1.374 . S
C2151 H2131 0.950 . S
C2151 C2147 1.385 . S
C2151 C2150 1.374 . S
C2152 C2149 1.499 . S
C2152 C2153 1.373 . S
C2152 C2154 1.389 . S
C2153 H2132 0.950 . S
C2153 C2152 1.373 . S
C2153 C2169 1.377 . S
C2154 C2152 1.389 . S
C2154 C2155 1.524 . S
C2154 C2168 1.377 . S
C2155 C2154 1.524 . S
C2155 C2156 1.397 . S
C2155 C2160 1.363 . S
C2156 H2133 0.950 . S
C2156 C2155 1.397 . S
C2156 C2157 1.334 . S
C2157 H2134 0.950 . S
C2157 C2156 1.334 . S
C2157 C2158 1.287 . S
C2158 C2157 1.287 . S
C2158 C2159 1.524 . S
C2158 H2177 0.913 . S
C2159 H2135 0.950 . S
C2159 C2158 1.524 . S
C2159 C2160 1.415 . S
C2160 H2136 0.950 . S
C2160 C2155 1.363 . S
C2160 C2159 1.415 . S
C2161 H2137 0.951 . S
C2161 C2162 1.366 . S
C2161 C2163 1.388 . S
C2162 C2161 1.366 . S
C2162 C2166 1.385 . S
C2163 H2138 0.951 . S
C2163 C2161 1.388 . S
C2163 C2164 1.366 . S
C2164 C2163 1.366 . S
C2164 C2165 1.414 . S
C2164 C2167 1.499 . S
C2165 H2139 0.950 . S
C2165 C2164 1.414 . S
C2165 C2166 1.374 . S
C2166 H2140 0.950 . S
C2166 C2162 1.385 . S
C2166 C2165 1.374 . S
C2167 C2164 1.499 . S
C2167 C2168 1.373 . S
C2167 C2169 1.389 . S
C2168 H2141 0.950 . S
C2168 C2154 1.377 . S
C2168 C2167 1.373 . S
C2169 C2153 1.377 . S
C2169 C2167 1.389 . S
C2169 C2170 1.524 . S
C2170 C2169 1.524 . S
C2170 C2171 1.397 . S
C2170 C2175 1.363 . S
C2171 H2142 0.950 . S
C2171 C2170 1.397 . S
C2171 C2172 1.334 . S
C2172 H2143 0.950 . S
C2172 C2171 1.334 . S
C2172 C2173 1.287 . S
C2173 C2172 1.287 . S
C2173 C2174 1.524 . S
C2173 H2176 0.999 . S
C2174 H2144 0.950 . S
C2174 C2173 1.524 . S
C2174 C2175 1.415 . S
C2175 H2145 0.950 . S
C2175 C2170 1.363 . S
C2175 C2174 1.415 . S
H2176 C2173 0.999 . S
H2177 C2158 0.913 . S
H2178 C2196 0.951 . S
H2179 C2198 0.951 . S
H2180 C2200 0.950 . S
H2181 C2201 0.950 . S
H2182 C2203 0.950 . S
H2183 C2206 0.950 . S
H2184 C2207 0.950 . S
H2185 C2209 0.950 . S
H2186 C2210 0.950 . S
H2187 C2211 0.951 . S
H2188 C2213 0.951 . S
H2189 C2215 0.950 . S
H2190 C2216 0.950 . S
H2191 C2218 0.950 . S
H2192 C2221 0.950 . S
H2193 C2222 0.950 . S
H2194 C2224 0.950 . S
H2195 C2225 0.950 . S
C2196 H2178 0.951 . S
C2196 C2197 1.366 . S
C2196 C2198 1.388 . S
C2197 C2196 1.366 . S
C2197 C2201 1.385 . S
C2198 H2179 0.951 . S
C2198 C2196 1.388 . S
C2198 C2199 1.366 . S
C2199 C2198 1.366 . S
C2199 C2200 1.414 . S
C2199 C2202 1.499 . S
C2200 H2180 0.950 . S
C2200 C2199 1.414 . S
C2200 C2201 1.374 . S
C2201 H2181 0.950 . S
C2201 C2197 1.385 . S
C2201 C2200 1.374 . S
C2202 C2199 1.499 . S
C2202 C2203 1.373 . S
C2202 C2204 1.389 . S
C2203 H2182 0.950 . S
C2203 C2202 1.373 . S
C2203 C2219 1.377 . S
C2204 C2202 1.389 . S
C2204 C2205 1.524 . S
C2204 C2218 1.377 . S
C2205 C2204 1.524 . S
C2205 C2206 1.397 . S
C2205 C2210 1.363 . S
C2206 H2183 0.950 . S
C2206 C2205 1.397 . S
C2206 C2207 1.334 . S
C2207 H2184 0.950 . S
C2207 C2206 1.334 . S
C2207 C2208 1.287 . S
C2208 C2207 1.287 . S
C2208 C2209 1.524 . S
C2208 H2227 0.913 . S
C2209 H2185 0.950 . S
C2209 C2208 1.524 . S
C2209 C2210 1.415 . S
C2210 H2186 0.950 . S
C2210 C2205 1.363 . S
C2210 C2209 1.415 . S
C2211 H2187 0.951 . S
C2211 C2212 1.366 . S
C2211 C2213 1.388 . S
C2212 C2211 1.366 . S
C2212 C2216 1.385 . S
C2213 H2188 0.951 . S
C2213 C2211 1.388 . S
C2213 C2214 1.366 . S
C2214 C2213 1.366 . S
C2214 C2215 1.414 . S
C2214 C2217 1.499 . S
C2215 H2189 0.950 . S
C2215 C2214 1.414 . S
C2215 C2216 1.374 . S
C2216 H2190 0.950 . S
C2216 C2212 1.385 . S
C2216 C2215 1.374 . S
C2217 C2214 1.499 . S
C2217 C2218 1.373 . S
C2217 C2219 1.389 . S
C2218 H2191 0.950 . S
C2218 C2204 1.377 . S
C2218 C2217 1.373 . S
C2219 C2203 1.377 . S
C2219 C2217 1.389 . S
C2219 C2220 1.524 . S
C2220 C2219 1.524 . S
C2220 C2221 1.397 . S
C2220 C2225 1.363 . S
C2221 H2192 0.950 . S
C2221 C2220 1.397 . S
C2221 C2222 1.334 . S
C2222 H2193 0.950 . S
C2222 C2221 1.334 . S
C2222 C2223 1.287 . S
C2223 C2222 1.287 . S
C2223 C2224 1.524 . S
C2223 H2226 0.999 . S
C2224 H2194 0.950 . S
C2224 C2223 1.524 . S
C2224 C2225 1.415 . S
C2225 H2195 0.950 . S
C2225 C2220 1.363 . S
C2225 C2224 1.415 . S
H2226 C2223 0.999 . S
H2227 C2208 0.913 . S
H2228 C2246 0.951 . S
H2229 C2248 0.951 . S
H2230 C2250 0.950 . S
H2231 C2251 0.950 . S
H2232 C2253 0.950 . S
H2233 C2256 0.950 . S
H2234 C2257 0.950 . S
H2235 C2259 0.950 . S
H2236 C2260 0.950 . S
H2237 C2261 0.951 . S
H2238 C2263 0.951 . S
H2239 C2265 0.950 . S
H2240 C2266 0.950 . S
H2241 C2268 0.950 . S
H2242 C2271 0.950 . S
H2243 C2272 0.950 . S
H2244 C2274 0.950 . S
H2245 C2275 0.950 . S
C2246 H2228 0.951 . S
C2246 C2247 1.366 . S
C2246 C2248 1.388 . S
C2247 C2246 1.366 . S
C2247 C2251 1.385 . S
C2248 H2229 0.951 . S
C2248 C2246 1.388 . S
C2248 C2249 1.366 . S
C2249 C2248 1.366 . S
C2249 C2250 1.414 . S
C2249 C2252 1.499 . S
C2250 H2230 0.950 . S
C2250 C2249 1.414 . S
C2250 C2251 1.374 . S
C2251 H2231 0.950 . S
C2251 C2247 1.385 . S
C2251 C2250 1.374 . S
C2252 C2249 1.499 . S
C2252 C2253 1.373 . S
C2252 C2254 1.389 . S
C2253 H2232 0.950 . S
C2253 C2252 1.373 . S
C2253 C2269 1.377 . S
C2254 C2252 1.389 . S
C2254 C2255 1.524 . S
C2254 C2268 1.377 . S
C2255 C2254 1.524 . S
C2255 C2256 1.397 . S
C2255 C2260 1.363 . S
C2256 H2233 0.950 . S
C2256 C2255 1.397 . S
C2256 C2257 1.334 . S
C2257 H2234 0.950 . S
C2257 C2256 1.334 . S
C2257 C2258 1.287 . S
C2258 C2257 1.287 . S
C2258 C2259 1.524 . S
C2258 H2277 0.913 . S
C2259 H2235 0.950 . S
C2259 C2258 1.524 . S
C2259 C2260 1.415 . S
C2260 H2236 0.950 . S
C2260 C2255 1.363 . S
C2260 C2259 1.415 . S
C2261 H2237 0.951 . S
C2261 C2262 1.366 . S
C2261 C2263 1.388 . S
C2262 C2261 1.366 . S
C2262 C2266 1.385 . S
C2263 H2238 0.951 . S
C2263 C2261 1.388 . S
C2263 C2264 1.366 . S
C2264 C2263 1.366 . S
C2264 C2265 1.414 . S
C2264 C2267 1.499 . S
C2265 H2239 0.950 . S
C2265 C2264 1.414 . S
C2265 C2266 1.374 . S
C2266 H2240 0.950 . S
C2266 C2262 1.385 . S
C2266 C2265 1.374 . S
C2267 C2264 1.499 . S
C2267 C2268 1.373 . S
C2267 C2269 1.389 . S
C2268 H2241 0.950 . S
C2268 C2254 1.377 . S
C2268 C2267 1.373 . S
C2269 C2253 1.377 . S
C2269 C2267 1.389 . S
C2269 C2270 1.524 . S
C2270 C2269 1.524 . S
C2270 C2271 1.397 . S
C2270 C2275 1.363 . S
C2271 H2242 0.950 . S
C2271 C2270 1.397 . S
C2271 C2272 1.334 . S
C2272 H2243 0.950 . S
C2272 C2271 1.334 . S
C2272 C2273 1.287 . S
C2273 C2272 1.287 . S
C2273 C2274 1.524 . S
C2273 H2276 0.999 . S
C2274 H2244 0.950 . S
C2274 C2273 1.524 . S
C2274 C2275 1.415 . S
C2275 H2245 0.950 . S
C2275 C2270 1.363 . S
C2275 C2274 1.415 . S
H2276 C2273 0.999 . S
H2277 C2258 0.913 . S
H2278 C2296 0.951 . S
H2279 C2298 0.951 . S
H2280 C2300 0.950 . S
H2281 C2301 0.950 . S
H2282 C2303 0.950 . S
H2283 C2306 0.950 . S
H2284 C2307 0.950 . S
H2285 C2309 0.950 . S
H2286 C2310 0.950 . S
H2287 C2311 0.951 . S
H2288 C2313 0.951 . S
H2289 C2315 0.950 . S
H2290 C2316 0.950 . S
H2291 C2318 0.950 . S
H2292 C2321 0.950 . S
H2293 C2322 0.950 . S
H2294 C2324 0.950 . S
H2295 C2325 0.950 . S
C2296 H2278 0.951 . S
C2296 C2297 1.366 . S
C2296 C2298 1.388 . S
C2297 C2296 1.366 . S
C2297 C2301 1.385 . S
C2298 H2279 0.951 . S
C2298 C2296 1.388 . S
C2298 C2299 1.366 . S
C2299 C2298 1.366 . S
C2299 C2300 1.414 . S
C2299 C2302 1.499 . S
C2300 H2280 0.950 . S
C2300 C2299 1.414 . S
C2300 C2301 1.374 . S
C2301 H2281 0.950 . S
C2301 C2297 1.385 . S
C2301 C2300 1.374 . S
C2302 C2299 1.499 . S
C2302 C2303 1.373 . S
C2302 C2304 1.389 . S
C2303 H2282 0.950 . S
C2303 C2302 1.373 . S
C2303 C2319 1.377 . S
C2304 C2302 1.389 . S
C2304 C2305 1.524 . S
C2304 C2318 1.377 . S
C2305 C2304 1.524 . S
C2305 C2306 1.397 . S
C2305 C2310 1.363 . S
C2306 H2283 0.950 . S
C2306 C2305 1.397 . S
C2306 C2307 1.334 . S
C2307 H2284 0.950 . S
C2307 C2306 1.334 . S
C2307 C2308 1.287 . S
C2308 C2307 1.287 . S
C2308 C2309 1.524 . S
C2308 H2327 0.913 . S
C2309 H2285 0.950 . S
C2309 C2308 1.524 . S
C2309 C2310 1.415 . S
C2310 H2286 0.950 . S
C2310 C2305 1.363 . S
C2310 C2309 1.415 . S
C2311 H2287 0.951 . S
C2311 C2312 1.366 . S
C2311 C2313 1.388 . S
C2312 C2311 1.366 . S
C2312 C2316 1.385 . S
C2313 H2288 0.951 . S
C2313 C2311 1.388 . S
C2313 C2314 1.366 . S
C2314 C2313 1.366 . S
C2314 C2315 1.414 . S
C2314 C2317 1.499 . S
C2315 H2289 0.950 . S
C2315 C2314 1.414 . S
C2315 C2316 1.374 . S
C2316 H2290 0.950 . S
C2316 C2312 1.385 . S
C2316 C2315 1.374 . S
C2317 C2314 1.499 . S
C2317 C2318 1.373 . S
C2317 C2319 1.389 . S
C2318 H2291 0.950 . S
C2318 C2304 1.377 . S
C2318 C2317 1.373 . S
C2319 C2303 1.377 . S
C2319 C2317 1.389 . S
C2319 C2320 1.524 . S
C2320 C2319 1.524 . S
C2320 C2321 1.397 . S
C2320 C2325 1.363 . S
C2321 H2292 0.950 . S
C2321 C2320 1.397 . S
C2321 C2322 1.334 . S
C2322 H2293 0.950 . S
C2322 C2321 1.334 . S
C2322 C2323 1.287 . S
C2323 C2322 1.287 . S
C2323 C2324 1.524 . S
C2323 H2326 0.999 . S
C2324 H2294 0.950 . S
C2324 C2323 1.524 . S
C2324 C2325 1.415 . S
C2325 H2295 0.950 . S
C2325 C2320 1.363 . S
C2325 C2324 1.415 . S
H2326 C2323 0.999 . S
H2327 C2308 0.913 . S
H2328 C2346 0.951 . S
H2329 C2348 0.951 . S
H2330 C2350 0.950 . S
H2331 C2351 0.950 . S
H2332 C2353 0.950 . S
H2333 C2356 0.950 . S
H2334 C2357 0.950 . S
H2335 C2359 0.950 . S
H2336 C2360 0.950 . S
H2337 C2361 0.951 . S
H2338 C2363 0.951 . S
H2339 C2365 0.950 . S
H2340 C2366 0.950 . S
H2341 C2368 0.950 . S
H2342 C2371 0.950 . S
H2343 C2372 0.950 . S
H2344 C2374 0.950 . S
H2345 C2375 0.950 . S
C2346 H2328 0.951 . S
C2346 C2347 1.366 . S
C2346 C2348 1.388 . S
C2347 C2346 1.366 . S
C2347 C2351 1.385 . S
C2348 H2329 0.951 . S
C2348 C2346 1.388 . S
C2348 C2349 1.366 . S
C2349 C2348 1.366 . S
C2349 C2350 1.414 . S
C2349 C2352 1.499 . S
C2350 H2330 0.950 . S
C2350 C2349 1.414 . S
C2350 C2351 1.374 . S
C2351 H2331 0.950 . S
C2351 C2347 1.385 . S
C2351 C2350 1.374 . S
C2352 C2349 1.499 . S
C2352 C2353 1.373 . S
C2352 C2354 1.389 . S
C2353 H2332 0.950 . S
C2353 C2352 1.373 . S
C2353 C2369 1.377 . S
C2354 C2352 1.389 . S
C2354 C2355 1.524 . S
C2354 C2368 1.377 . S
C2355 C2354 1.524 . S
C2355 C2356 1.397 . S
C2355 C2360 1.363 . S
C2356 H2333 0.950 . S
C2356 C2355 1.397 . S
C2356 C2357 1.334 . S
C2357 H2334 0.950 . S
C2357 C2356 1.334 . S
C2357 C2358 1.287 . S
C2358 C2357 1.287 . S
C2358 C2359 1.524 . S
C2358 H2377 0.913 . S
C2359 H2335 0.950 . S
C2359 C2358 1.524 . S
C2359 C2360 1.415 . S
C2360 H2336 0.950 . S
C2360 C2355 1.363 . S
C2360 C2359 1.415 . S
C2361 H2337 0.951 . S
C2361 C2362 1.366 . S
C2361 C2363 1.388 . S
C2362 C2361 1.366 . S
C2362 C2366 1.385 . S
C2363 H2338 0.951 . S
C2363 C2361 1.388 . S
C2363 C2364 1.366 . S
C2364 C2363 1.366 . S
C2364 C2365 1.414 . S
C2364 C2367 1.499 . S
C2365 H2339 0.950 . S
C2365 C2364 1.414 . S
C2365 C2366 1.374 . S
C2366 H2340 0.950 . S
C2366 C2362 1.385 . S
C2366 C2365 1.374 . S
C2367 C2364 1.499 . S
C2367 C2368 1.373 . S
C2367 C2369 1.389 . S
C2368 H2341 0.950 . S
C2368 C2354 1.377 . S
C2368 C2367 1.373 . S
C2369 C2353 1.377 . S
C2369 C2367 1.389 . S
C2369 C2370 1.524 . S
C2370 C2369 1.524 . S
C2370 C2371 1.397 . S
C2370 C2375 1.363 . S
C2371 H2342 0.950 . S
C2371 C2370 1.397 . S
C2371 C2372 1.334 . S
C2372 H2343 0.950 . S
C2372 C2371 1.334 . S
C2372 C2373 1.287 . S
C2373 C2372 1.287 . S
C2373 C2374 1.524 . S
C2373 H2376 0.999 . S
C2374 H2344 0.950 . S
C2374 C2373 1.524 . S
C2374 C2375 1.415 . S
C2375 H2345 0.950 . S
C2375 C2370 1.363 . S
C2375 C2374 1.415 . S
H2376 C2373 0.999 . S
H2377 C2358 0.913 . S
H2378 C2396 0.951 . S
H2379 C2398 0.951 . S
H2380 C2400 0.950 . S
H2381 C2401 0.950 . S
H2382 C2403 0.950 . S
H2383 C2406 0.950 . S
H2384 C2407 0.950 . S
H2385 C2409 0.950 . S
H2386 C2410 0.950 . S
H2387 C2411 0.951 . S
H2388 C2413 0.951 . S
H2389 C2415 0.950 . S
H2390 C2416 0.950 . S
H2391 C2418 0.950 . S
H2392 C2421 0.950 . S
H2393 C2422 0.950 . S
H2394 C2424 0.950 . S
H2395 C2425 0.950 . S
C2396 H2378 0.951 . S
C2396 C2397 1.366 . S
C2396 C2398 1.388 . S
C2397 C2396 1.366 . S
C2397 C2401 1.385 . S
C2398 H2379 0.951 . S
C2398 C2396 1.388 . S
C2398 C2399 1.366 . S
C2399 C2398 1.366 . S
C2399 C2400 1.414 . S
C2399 C2402 1.499 . S
C2400 H2380 0.950 . S
C2400 C2399 1.414 . S
C2400 C2401 1.374 . S
C2401 H2381 0.950 . S
C2401 C2397 1.385 . S
C2401 C2400 1.374 . S
C2402 C2399 1.499 . S
C2402 C2403 1.373 . S
C2402 C2404 1.389 . S
C2403 H2382 0.950 . S
C2403 C2402 1.373 . S
C2403 C2419 1.377 . S
C2404 C2402 1.389 . S
C2404 C2405 1.524 . S
C2404 C2418 1.377 . S
C2405 C2404 1.524 . S
C2405 C2406 1.397 . S
C2405 C2410 1.363 . S
C2406 H2383 0.950 . S
C2406 C2405 1.397 . S
C2406 C2407 1.334 . S
C2407 H2384 0.950 . S
C2407 C2406 1.334 . S
C2407 C2408 1.287 . S
C2408 C2407 1.287 . S
C2408 C2409 1.524 . S
C2408 H2427 0.913 . S
C2409 H2385 0.950 . S
C2409 C2408 1.524 . S
C2409 C2410 1.415 . S
C2410 H2386 0.950 . S
C2410 C2405 1.363 . S
C2410 C2409 1.415 . S
C2411 H2387 0.951 . S
C2411 C2412 1.366 . S
C2411 C2413 1.388 . S
C2412 C2411 1.366 . S
C2412 C2416 1.385 . S
C2413 H2388 0.951 . S
C2413 C2411 1.388 . S
C2413 C2414 1.366 . S
C2414 C2413 1.366 . S
C2414 C2415 1.414 . S
C2414 C2417 1.499 . S
C2415 H2389 0.950 . S
C2415 C2414 1.414 . S
C2415 C2416 1.374 . S
C2416 H2390 0.950 . S
C2416 C2412 1.385 . S
C2416 C2415 1.374 . S
C2417 C2414 1.499 . S
C2417 C2418 1.373 . S
C2417 C2419 1.389 . S
C2418 H2391 0.950 . S
C2418 C2404 1.377 . S
C2418 C2417 1.373 . S
C2419 C2403 1.377 . S
C2419 C2417 1.389 . S
C2419 C2420 1.524 . S
C2420 C2419 1.524 . S
C2420 C2421 1.397 . S
C2420 C2425 1.363 . S
C2421 H2392 0.950 . S
C2421 C2420 1.397 . S
C2421 C2422 1.334 . S
C2422 H2393 0.950 . S
C2422 C2421 1.334 . S
C2422 C2423 1.287 . S
C2423 C2422 1.287 . S
C2423 C2424 1.524 . S
C2423 H2426 0.999 . S
C2424 H2394 0.950 . S
C2424 C2423 1.524 . S
C2424 C2425 1.415 . S
C2425 H2395 0.950 . S
C2425 C2420 1.363 . S
C2425 C2424 1.415 . S
H2426 C2423 0.999 . S
H2427 C2408 0.913 . S
H2428 C2446 0.951 . S
H2429 C2448 0.951 . S
H2430 C2450 0.950 . S
H2431 C2451 0.950 . S
H2432 C2453 0.950 . S
H2433 C2456 0.950 . S
H2434 C2457 0.950 . S
H2435 C2459 0.950 . S
H2436 C2460 0.950 . S
H2437 C2461 0.951 . S
H2438 C2463 0.951 . S
H2439 C2465 0.950 . S
H2440 C2466 0.950 . S
H2441 C2468 0.950 . S
H2442 C2471 0.950 . S
H2443 C2472 0.950 . S
H2444 C2474 0.950 . S
H2445 C2475 0.950 . S
C2446 H2428 0.951 . S
C2446 C2447 1.366 . S
C2446 C2448 1.388 . S
C2447 C2446 1.366 . S
C2447 C2451 1.385 . S
C2448 H2429 0.951 . S
C2448 C2446 1.388 . S
C2448 C2449 1.366 . S
C2449 C2448 1.366 . S
C2449 C2450 1.414 . S
C2449 C2452 1.499 . S
C2450 H2430 0.950 . S
C2450 C2449 1.414 . S
C2450 C2451 1.374 . S
C2451 H2431 0.950 . S
C2451 C2447 1.385 . S
C2451 C2450 1.374 . S
C2452 C2449 1.499 . S
C2452 C2453 1.373 . S
C2452 C2454 1.389 . S
C2453 H2432 0.950 . S
C2453 C2452 1.373 . S
C2453 C2469 1.377 . S
C2454 C2452 1.389 . S
C2454 C2455 1.524 . S
C2454 C2468 1.377 . S
C2455 C2454 1.524 . S
C2455 C2456 1.397 . S
C2455 C2460 1.363 . S
C2456 H2433 0.950 . S
C2456 C2455 1.397 . S
C2456 C2457 1.334 . S
C2457 H2434 0.950 . S
C2457 C2456 1.334 . S
C2457 C2458 1.287 . S
C2458 C2457 1.287 . S
C2458 C2459 1.524 . S
C2458 H2477 0.913 . S
C2459 H2435 0.950 . S
C2459 C2458 1.524 . S
C2459 C2460 1.415 . S
C2460 H2436 0.950 . S
C2460 C2455 1.363 . S
C2460 C2459 1.415 . S
C2461 H2437 0.951 . S
C2461 C2462 1.366 . S
C2461 C2463 1.388 . S
C2462 C2461 1.366 . S
C2462 C2466 1.385 . S
C2463 H2438 0.951 . S
C2463 C2461 1.388 . S
C2463 C2464 1.366 . S
C2464 C2463 1.366 . S
C2464 C2465 1.414 . S
C2464 C2467 1.499 . S
C2465 H2439 0.950 . S
C2465 C2464 1.414 . S
C2465 C2466 1.374 . S
C2466 H2440 0.950 . S
C2466 C2462 1.385 . S
C2466 C2465 1.374 . S
C2467 C2464 1.499 . S
C2467 C2468 1.373 . S
C2467 C2469 1.389 . S
C2468 H2441 0.950 . S
C2468 C2454 1.377 . S
C2468 C2467 1.373 . S
C2469 C2453 1.377 . S
C2469 C2467 1.389 . S
C2469 C2470 1.524 . S
C2470 C2469 1.524 . S
C2470 C2471 1.397 . S
C2470 C2475 1.363 . S
C2471 H2442 0.950 . S
C2471 C2470 1.397 . S
C2471 C2472 1.334 . S
C2472 H2443 0.950 . S
C2472 C2471 1.334 . S
C2472 C2473 1.287 . S
C2473 C2472 1.287 . S
C2473 C2474 1.524 . S
C2473 H2476 0.999 . S
C2474 H2444 0.950 . S
C2474 C2473 1.524 . S
C2474 C2475 1.415 . S
C2475 H2445 0.950 . S
C2475 C2470 1.363 . S
C2475 C2474 1.415 . S
H2476 C2473 0.999 . S
H2477 C2458 0.913 . S
H2478 C2496 0.951 . S
H2479 C2498 0.951 . S
H2480 C2500 0.950 . S
H2481 C2501 0.950 . S
H2482 C2503 0.950 . S
H2483 C2506 0.950 . S
H2484 C2507 0.950 . S
H2485 C2509 0.950 . S
H2486 C2510 0.950 . S
H2487 C2511 0.951 . S
H2488 C2513 0.951 . S
H2489 C2515 0.950 . S
H2490 C2516 0.950 . S
H2491 C2518 0.950 . S
H2492 C2521 0.950 . S
H2493 C2522 0.950 . S
H2494 C2524 0.950 . S
H2495 C2525 0.950 . S
C2496 H2478 0.951 . S
C2496 C2497 1.366 . S
C2496 C2498 1.388 . S
C2497 C2496 1.366 . S
C2497 C2501 1.385 . S
C2498 H2479 0.951 . S
C2498 C2496 1.388 . S
C2498 C2499 1.366 . S
C2499 C2498 1.366 . S
C2499 C2500 1.414 . S
C2499 C2502 1.499 . S
C2500 H2480 0.950 . S
C2500 C2499 1.414 . S
C2500 C2501 1.374 . S
C2501 H2481 0.950 . S
C2501 C2497 1.385 . S
C2501 C2500 1.374 . S
C2502 C2499 1.499 . S
C2502 C2503 1.373 . S
C2502 C2504 1.389 . S
C2503 H2482 0.950 . S
C2503 C2502 1.373 . S
C2503 C2519 1.377 . S
C2504 C2502 1.389 . S
C2504 C2505 1.524 . S
C2504 C2518 1.377 . S
C2505 C2504 1.524 . S
C2505 C2506 1.397 . S
C2505 C2510 1.363 . S
C2506 H2483 0.950 . S
C2506 C2505 1.397 . S
C2506 C2507 1.334 . S
C2507 H2484 0.950 . S
C2507 C2506 1.334 . S
C2507 C2508 1.287 . S
C2508 C2507 1.287 . S
C2508 C2509 1.524 . S
C2508 H2527 0.913 . S
C2509 H2485 0.950 . S
C2509 C2508 1.524 . S
C2509 C2510 1.415 . S
C2510 H2486 0.950 . S
C2510 C2505 1.363 . S
C2510 C2509 1.415 . S
C2511 H2487 0.951 . S
C2511 C2512 1.366 . S
C2511 C2513 1.388 . S
C2512 C2511 1.366 . S
C2512 C2516 1.385 . S
C2513 H2488 0.951 . S
C2513 C2511 1.388 . S
C2513 C2514 1.366 . S
C2514 C2513 1.366 . S
C2514 C2515 1.414 . S
C2514 C2517 1.499 . S
C2515 H2489 0.950 . S
C2515 C2514 1.414 . S
C2515 C2516 1.374 . S
C2516 H2490 0.950 . S
C2516 C2512 1.385 . S
C2516 C2515 1.374 . S
C2517 C2514 1.499 . S
C2517 C2518 1.373 . S
C2517 C2519 1.389 . S
C2518 H2491 0.950 . S
C2518 C2504 1.377 . S
C2518 C2517 1.373 . S
C2519 C2503 1.377 . S
C2519 C2517 1.389 . S
C2519 C2520 1.524 . S
C2520 C2519 1.524 . S
C2520 C2521 1.397 . S
C2520 C2525 1.363 . S
C2521 H2492 0.950 . S
C2521 C2520 1.397 . S
C2521 C2522 1.334 . S
C2522 H2493 0.950 . S
C2522 C2521 1.334 . S
C2522 C2523 1.287 . S
C2523 C2522 1.287 . S
C2523 C2524 1.524 . S
C2523 H2526 0.999 . S
C2524 H2494 0.950 . S
C2524 C2523 1.524 . S
C2524 C2525 1.415 . S
C2525 H2495 0.950 . S
C2525 C2520 1.363 . S
C2525 C2524 1.415 . S
H2526 C2523 0.999 . S
H2527 C2508 0.913 . S
C547 N13 1.760 . S
C562 N112 1.760 . S
C597 N79 1.761 . S
C612 N46 1.760 . S
C647 N244 1.761 . S
C662 N145 1.760 . S
C697 N178 1.760 . S
C712 N211 1.761 . S
C747 N277 1.760 . S
C762 N376 1.760 . S
C797 N310 1.760 . S
C812 N343 1.760 . S
C847 N508 1.761 . S
C862 N409 1.760 . S
C897 N442 1.760 . S
C912 N475 1.760 . S
C947 N200 1.603 . S
C962 N2 1.601 . S
C997 N233 1.602 . S
C1012 N35 1.601 . S
C1047 N134 1.601 . S
C1062 N68 1.602 . S
C1097 N167 1.601 . S
C1112 N101 1.602 . S
C1147 N464 1.602 . S
C1162 N266 1.602 . S
C1197 N497 1.601 . S
C1212 N299 1.602 . S
C1247 N398 1.601 . S
C1262 N332 1.602 . S
C1297 N365 1.601 . S
C1312 N431 1.602 . S
C1347 C7 1.532 . S
C1362 C73 1.533 . S
C1397 C40 1.532 . S
C1412 C106 1.532 . S
C1447 C139 1.532 . S
C1462 C205 1.532 . S
C1497 C172 1.532 . S
C1512 C238 1.532 . S
C1547 C271 1.532 . S
C1562 C337 1.532 . S
C1597 C304 1.532 . S
C1612 C370 1.532 . S
C1647 C403 1.533 . S
C1662 C469 1.532 . S
C1697 C436 1.532 . S
C1712 C502 1.532 . S
C1747 C513 0.999 . S
C1762 C21 1.002 . S
C1797 C54 1.002 . S
C1812 C480 0.998 . S
C1847 C87 1.002 . S
C1862 C447 0.998 . S
C1897 C414 0.998 . S
C1912 C120 1.002 . S
C1947 C381 0.999 . S
C1962 C153 1.002 . S
C1997 C186 1.002 . S
C2012 C348 0.998 . S
C2047 C219 1.002 . S
C2062 C315 0.999 . S
C2097 C252 1.002 . S
C2112 C282 0.998 . S
C2147 C285 1.002 . S
C2162 C249 0.999 . S
C2197 C216 0.999 . S
C2212 C318 1.002 . S
C2247 C183 0.998 . S
C2262 C351 1.002 . S
C2297 C384 1.002 . S
C2312 C150 0.999 . S
C2347 C417 1.002 . S
C2362 C117 0.999 . S
C2397 C84 0.999 . S
C2412 C450 1.002 . S
C2447 C51 0.998 . S
C2462 C483 1.002 . S
C2497 C18 0.999 . S
C2512 C516 1.002 . S
