# Generated by pormake.
# Topology ume, (4)-cn, num edge types: 1
# Building blocks:
#     Node 0, Type 0, BuildingBlock: MUDLON_clean_sbu_0, # of connection points: 4
#     Node 1, Type 0, BuildingBlock: MUDLON_clean_sbu_0, # of connection points: 4
#     Node 2, Type 0, BuildingBlock: MUDLON_clean_sbu_0, # of connection points: 4
#     Node 3, Type 0, BuildingBlock: MUDLON_clean_sbu_0, # of connection points: 4
#     Node 4, Type 0, BuildingBlock: MUDLON_clean_sbu_0, # of connection points: 4
#     Node 5, Type 0, BuildingBlock: MUDLON_clean_sbu_0, # of connection points: 4
#     Node 6, Type 0, BuildingBlock: MUDLON_clean_sbu_0, # of connection points: 4
#     Node 7, Type 0, BuildingBlock: MUDLON_clean_sbu_0, # of connection points: 4
#     Node 8, Type 0, BuildingBlock: MUDLON_clean_sbu_0, # of connection points: 4
#     Node 9, Type 0, BuildingBlock: MUDLON_clean_sbu_0, # of connection points: 4
#     Node 10, Type 0, BuildingBlock: MUDLON_clean_sbu_0, # of connection points: 4
#     Node 11, Type 0, BuildingBlock: MUDLON_clean_sbu_0, # of connection points: 4
#     Node 12, Type 0, BuildingBlock: MUDLON_clean_sbu_0, # of connection points: 4
#     Node 13, Type 0, BuildingBlock: MUDLON_clean_sbu_0, # of connection points: 4
#     Node 14, Type 0, BuildingBlock: MUDLON_clean_sbu_0, # of connection points: 4
#     Node 15, Type 0, BuildingBlock: MUDLON_clean_sbu_0, # of connection points: 4
#     Edge 16, Type (0, 0), BuildingBlock: XUDNAN_clean_linker_2, # of connection points: 2
#     Edge 17, Type (0, 0), BuildingBlock: XUDNAN_clean_linker_2, # of connection points: 2
#     Edge 18, Type (0, 0), BuildingBlock: XUDNAN_clean_linker_2, # of connection points: 2
#     Edge 19, Type (0, 0), BuildingBlock: XUDNAN_clean_linker_2, # of connection points: 2
#     Edge 20, Type (0, 0), BuildingBlock: XUDNAN_clean_linker_2, # of connection points: 2
#     Edge 21, Type (0, 0), BuildingBlock: XUDNAN_clean_linker_2, # of connection points: 2
#     Edge 22, Type (0, 0), BuildingBlock: XUDNAN_clean_linker_2, # of connection points: 2
#     Edge 23, Type (0, 0), BuildingBlock: XUDNAN_clean_linker_2, # of connection points: 2
#     Edge 24, Type (0, 0), BuildingBlock: XUDNAN_clean_linker_2, # of connection points: 2
#     Edge 25, Type (0, 0), BuildingBlock: XUDNAN_clean_linker_2, # of connection points: 2
#     Edge 26, Type (0, 0), BuildingBlock: XUDNAN_clean_linker_2, # of connection points: 2
#     Edge 27, Type (0, 0), BuildingBlock: XUDNAN_clean_linker_2, # of connection points: 2
#     Edge 28, Type (0, 0), BuildingBlock: XUDNAN_clean_linker_2, # of connection points: 2
#     Edge 29, Type (0, 0), BuildingBlock: XUDNAN_clean_linker_2, # of connection points: 2
#     Edge 30, Type (0, 0), BuildingBlock: XUDNAN_clean_linker_2, # of connection points: 2
#     Edge 31, Type (0, 0), BuildingBlock: XUDNAN_clean_linker_2, # of connection points: 2
#     Edge 32, Type (0, 0), BuildingBlock: XUDNAN_clean_linker_2, # of connection points: 2
#     Edge 33, Type (0, 0), BuildingBlock: XUDNAN_clean_linker_2, # of connection points: 2
#     Edge 34, Type (0, 0), BuildingBlock: XUDNAN_clean_linker_2, # of connection points: 2
#     Edge 35, Type (0, 0), BuildingBlock: XUDNAN_clean_linker_2, # of connection points: 2
#     Edge 36, Type (0, 0), BuildingBlock: XUDNAN_clean_linker_2, # of connection points: 2
#     Edge 37, Type (0, 0), BuildingBlock: XUDNAN_clean_linker_2, # of connection points: 2
#     Edge 38, Type (0, 0), BuildingBlock: XUDNAN_clean_linker_2, # of connection points: 2
#     Edge 39, Type (0, 0), BuildingBlock: XUDNAN_clean_linker_2, # of connection points: 2
#     Edge 40, Type (0, 0), BuildingBlock: XUDNAN_clean_linker_2, # of connection points: 2
#     Edge 41, Type (0, 0), BuildingBlock: XUDNAN_clean_linker_2, # of connection points: 2
#     Edge 42, Type (0, 0), BuildingBlock: XUDNAN_clean_linker_2, # of connection points: 2
#     Edge 43, Type (0, 0), BuildingBlock: XUDNAN_clean_linker_2, # of connection points: 2
#     Edge 44, Type (0, 0), BuildingBlock: XUDNAN_clean_linker_2, # of connection points: 2
#     Edge 45, Type (0, 0), BuildingBlock: XUDNAN_clean_linker_2, # of connection points: 2
#     Edge 46, Type (0, 0), BuildingBlock: XUDNAN_clean_linker_2, # of connection points: 2
#     Edge 47, Type (0, 0), BuildingBlock: XUDNAN_clean_linker_2, # of connection points: 2
# Relax obj value: 0.086
# Max RMSD: 0.263
# Mean RMSD: 0.263
data_MOF--net-ume--node1-MUDLON_clean_sbu_0--edge1-XUDNAN_clean_linker_2
_symmetry_space_group_name_H-M    P1
_symmetry_Int_Tables_number       1
_symmetry_cell_setting            triclinic
loop_
_symmetry_equiv_pos_as_xyz
'x, y, z'
_cell_length_a     29.030634
_cell_length_b     28.958315
_cell_length_c     117.49816
_cell_angle_alpha  90.03663
_cell_angle_beta   89.947977
_cell_angle_gamma 89.939366
loop_
_atom_site_label
_atom_site_type_symbol
_atom_site_fract_x
_atom_site_fract_y
_atom_site_fract_z
_atom_type_partial_charge
Mg0 Mg 0.26489 0.1222 0.32909 0.0
C1 C 0.35173 0.06153 0.3326 0.0
O2 O 0.33308 0.05174 0.34249 0.0
C3 C 0.16638 0.09324 0.33109 0.0
O4 O 0.16689 0.13109 0.33726 0.0
C5 C 0.23174 0.18197 0.3094 0.0
O6 O 0.19434 0.15704 0.31067 0.0
O7 O 0.26454 0.17723 0.31648 0.0
O8 O 0.3299 0.087 0.32563 0.0
O9 O 0.26572 0.14582 0.34672 0.0
C10 C 0.25341 0.11622 0.35412 0.0
O11 O 0.24058 0.07506 0.35064 0.0
O12 O 0.20371 0.07966 0.32647 0.0
Mg13 Mg 0.91047 0.76629 0.57701 0.0
C14 C 0.90755 0.77583 0.60186 0.0
O15 O 0.948 0.79268 0.59905 0.0
C16 C 0.87538 0.7571 0.55356 0.0
O17 O 0.92028 0.75609 0.55214 0.0
C18 C 0.94549 0.66956 0.57667 0.0
O19 O 0.90217 0.66356 0.57957 0.0
O20 O 0.95998 0.71044 0.57497 0.0
O21 O 0.88137 0.76106 0.59399 0.0
O22 O 0.94084 0.83492 0.57556 0.0
C23 C 0.91233 0.86815 0.57473 0.0
O24 O 0.86808 0.85863 0.57458 0.0
O25 O 0.85946 0.76026 0.56362 0.0
Mg26 Mg 0.26632 0.39495 0.82752 0.0
C27 C 0.17344 0.43426 0.82147 0.0
O28 O 0.17195 0.39461 0.81606 0.0
C29 C 0.35146 0.46133 0.82845 0.0
O30 O 0.32288 0.49274 0.83237 0.0
C31 C 0.26522 0.36745 0.80378 0.0
O32 O 0.2772 0.41121 0.80378 0.0
O33 O 0.25796 0.34778 0.81329 0.0
O34 O 0.21028 0.44548 0.82668 0.0
O35 O 0.26142 0.36523 0.84449 0.0
C36 C 0.26188 0.39676 0.85204 0.0
O37 O 0.26484 0.43991 0.84867 0.0
O38 O 0.33629 0.42155 0.82583 0.0
Mg39 Mg 0.61182 0.75949 0.0797 0.0
C40 C 0.6076 0.76292 0.10436 0.0
O41 O 0.56454 0.76424 0.10093 0.0
C42 C 0.64711 0.75984 0.0563 0.0
O43 O 0.60238 0.76479 0.05509 0.0
C44 C 0.59928 0.85765 0.07536 0.0
O45 O 0.64389 0.85051 0.07461 0.0
O46 O 0.57324 0.82335 0.07743 0.0
O47 O 0.63922 0.76113 0.09688 0.0
O48 O 0.57412 0.69474 0.07843 0.0
C49 C 0.60153 0.66044 0.07884 0.0
O50 O 0.64587 0.6687 0.07978 0.0
O51 O 0.66349 0.757 0.06632 0.0
Mg52 Mg 0.24391 0.40832 0.96029 0.0
C53 C 0.33772 0.44569 0.9557 0.0
O54 O 0.33894 0.40564 0.95046 0.0
C55 C 0.15864 0.47334 0.95949 0.0
O56 O 0.18465 0.49974 0.95306 0.0
C57 C 0.28353 0.37687 0.98212 0.0
O58 O 0.29977 0.41893 0.98106 0.0
O59 O 0.25806 0.36065 0.97427 0.0
O60 O 0.30025 0.45849 0.9604 0.0
O61 O 0.24353 0.37739 0.94336 0.0
C62 C 0.24635 0.40719 0.93544 0.0
O63 O 0.24874 0.45103 0.93826 0.0
O64 O 0.1753 0.43624 0.96356 0.0
Mg65 Mg 0.60593 0.75001 0.21274 0.0
C66 C 0.60236 0.75178 0.18786 0.0
O67 O 0.55892 0.75106 0.19102 0.0
C68 C 0.6422 0.7573 0.23599 0.0
O69 O 0.59738 0.75498 0.23747 0.0
C70 C 0.59883 0.64973 0.21693 0.0
O71 O 0.64325 0.65782 0.21772 0.0
O72 O 0.57193 0.68352 0.21496 0.0
O73 O 0.63324 0.7513 0.19552 0.0
O74 O 0.56111 0.81004 0.21473 0.0
C75 C 0.57305 0.8467 0.20953 0.0
O76 O 0.61001 0.84571 0.20307 0.0
O77 O 0.65804 0.7558 0.2259 0.0
Mg78 Mg 0.26509 0.11016 0.46271 0.0
C79 C 0.16837 0.07945 0.45986 0.0
O80 O 0.16869 0.11929 0.45452 0.0
C81 C 0.35136 0.04915 0.45969 0.0
O82 O 0.33047 0.0359 0.45033 0.0
C83 C 0.28434 0.17157 0.48304 0.0
O84 O 0.326 0.1549 0.48154 0.0
O85 O 0.2531 0.16164 0.47586 0.0
O86 O 0.20569 0.06459 0.46422 0.0
O87 O 0.26659 0.13703 0.44536 0.0
C88 C 0.25549 0.10839 0.43761 0.0
O89 O 0.24373 0.06631 0.44061 0.0
O90 O 0.33123 0.07742 0.46632 0.0
Mg91 Mg 0.89168 0.75439 0.70982 0.0
C92 C 0.89476 0.76749 0.68519 0.0
O93 O 0.93597 0.77928 0.68875 0.0
C94 C 0.85663 0.74548 0.73298 0.0
O95 O 0.90033 0.75613 0.73424 0.0
C96 C 0.95975 0.83761 0.71173 0.0
O97 O 0.99188 0.80839 0.70851 0.0
O98 O 0.91868 0.8234 0.71305 0.0
O99 O 0.86514 0.75465 0.6925 0.0
O100 O 0.94013 0.69697 0.71113 0.0
C101 C 0.92919 0.66082 0.70558 0.0
O102 O 0.8921 0.66187 0.69918 0.0
O103 O 0.84054 0.74222 0.72295 0.0
Mg104 Mg 0.76715 0.60742 0.82939 0.0
C105 C 0.85674 0.5552 0.82244 0.0
O106 O 0.83653 0.54933 0.81254 0.0
C107 C 0.67007 0.57722 0.83134 0.0
O108 O 0.66909 0.61972 0.83526 0.0
C109 C 0.73654 0.64977 0.80704 0.0
O110 O 0.70054 0.62359 0.80903 0.0
O111 O 0.76843 0.6519 0.81445 0.0
O112 O 0.83497 0.57513 0.83045 0.0
O113 O 0.76 0.64181 0.84578 0.0
C114 C 0.76784 0.6134 0.8538 0.0
O115 O 0.77812 0.57055 0.85111 0.0
O116 O 0.70856 0.56045 0.82814 0.0
Mg117 Mg 0.41404 0.25912 0.08077 0.0
C118 C 0.41194 0.26623 0.10546 0.0
O119 O 0.4548 0.27479 0.10254 0.0
C120 C 0.38875 0.27833 0.05737 0.0
O121 O 0.43302 0.28733 0.05803 0.0
C122 C 0.44082 0.15748 0.08008 0.0
O123 O 0.39804 0.15225 0.0835 0.0
O124 O 0.45629 0.19799 0.07841 0.0
O125 O 0.38302 0.25731 0.09763 0.0
O126 O 0.45875 0.31939 0.08028 0.0
C127 C 0.44243 0.36018 0.08008 0.0
O128 O 0.39754 0.366 0.08022 0.0
O129 O 0.36797 0.26429 0.06625 0.0
Mg130 Mg 0.76481 0.90862 0.32785 0.0
C131 C 0.66761 0.93874 0.33044 0.0
O132 O 0.66792 0.89874 0.33571 0.0
C133 C 0.85112 0.96913 0.33099 0.0
O134 O 0.83035 0.98177 0.34042 0.0
C135 C 0.78566 0.84555 0.3079 0.0
O136 O 0.82723 0.8622 0.30948 0.0
O137 O 0.75386 0.85632 0.31487 0.0
O138 O 0.70508 0.95386 0.32621 0.0
O139 O 0.76616 0.88213 0.34522 0.0
C140 C 0.75445 0.91066 0.35294 0.0
O141 O 0.74214 0.95258 0.34992 0.0
O142 O 0.83086 0.94144 0.32425 0.0
Mg143 Mg 0.10364 0.26627 0.57876 0.0
C144 C 0.12856 0.29103 0.60303 0.0
O145 O 0.10683 0.32902 0.60012 0.0
C146 C 0.138 0.25521 0.55517 0.0
O147 O 0.0932 0.25779 0.5537 0.0
C148 C 0.10122 0.36746 0.57423 0.0
O149 O 0.14482 0.35744 0.57251 0.0
O150 O 0.07376 0.33504 0.57695 0.0
O151 O 0.13385 0.25928 0.59565 0.0
O152 O 0.05344 0.21094 0.5769 0.0
C153 C 0.0687 0.16972 0.57721 0.0
O154 O 0.11314 0.16313 0.57858 0.0
O155 O 0.15396 0.2576 0.56524 0.0
Mg156 Mg 0.76587 0.8972 0.46141 0.0
C157 C 0.85285 0.95693 0.45752 0.0
O158 O 0.83547 0.96384 0.44734 0.0
C159 C 0.66675 0.9247 0.45969 0.0
O160 O 0.66757 0.88699 0.45347 0.0
C161 C 0.73575 0.83683 0.48125 0.0
O162 O 0.69763 0.8609 0.48021 0.0
O163 O 0.76771 0.84215 0.47396 0.0
O164 O 0.83016 0.93356 0.46476 0.0
O165 O 0.76651 0.87363 0.44379 0.0
C166 C 0.75359 0.9031 0.43642 0.0
O167 O 0.74039 0.94414 0.43993 0.0
O168 O 0.70402 0.93862 0.46424 0.0
Mg169 Mg 0.10552 0.25377 0.70916 0.0
C170 C 0.14117 0.28495 0.686 0.0
O171 O 0.13128 0.32586 0.69017 0.0
C172 C 0.17439 0.28372 0.72662 0.0
O173 O 0.1682 0.32274 0.72112 0.0
C174 C 0.07827 0.15575 0.70933 0.0
O175 O 0.12214 0.15437 0.70658 0.0
O176 O 0.05948 0.19495 0.71097 0.0
O177 O 0.13609 0.2495 0.69226 0.0
O178 O 0.07344 0.32119 0.71178 0.0
C179 C 0.04458 0.34108 0.70528 0.0
O180 O 0.02907 0.3191 0.69628 0.0
O181 O 0.15492 0.24744 0.7229 0.0
Mg182 Mg 0.74272 0.62179 0.9619 0.0
C183 C 0.65473 0.56495 0.95678 0.0
O184 O 0.67402 0.55801 0.94682 0.0
C185 C 0.84139 0.59378 0.96022 0.0
O186 O 0.84142 0.63464 0.95536 0.0
C187 C 0.77551 0.67554 0.98265 0.0
O188 O 0.81232 0.64984 0.98117 0.0
O189 O 0.74314 0.67354 0.97537 0.0
O190 O 0.67662 0.58721 0.96439 0.0
O191 O 0.74404 0.64916 0.9446 0.0
C192 C 0.75754 0.62031 0.93714 0.0
O193 O 0.76961 0.57873 0.94048 0.0
O194 O 0.80345 0.57777 0.96398 0.0
Mg195 Mg 0.40029 0.25514 0.21372 0.0
C196 C 0.40384 0.27186 0.18889 0.0
O197 O 0.44513 0.28418 0.1923 0.0
C198 C 0.36338 0.26808 0.2367 0.0
O199 O 0.40826 0.27029 0.23806 0.0
C200 C 0.43568 0.35193 0.21501 0.0
O201 O 0.39219 0.35895 0.21244 0.0
O202 O 0.44994 0.31062 0.21617 0.0
O203 O 0.3749 0.25821 0.19629 0.0
O204 O 0.42921 0.18664 0.21664 0.0
C205 C 0.45398 0.16498 0.20947 0.0
O206 O 0.46551 0.18538 0.1999 0.0
O207 O 0.34755 0.26311 0.22669 0.0
H208 H 0.90212 0.03362 0.34258 0.0
H209 H 0.90919 0.93724 0.31431 0.0
H210 H 0.99081 0.95789 0.31128 0.0
H211 H 0.97486 0.12139 0.32991 0.0
H212 H 1.00138 0.13667 0.34326 0.0
H213 H 0.9434 0.11461 0.34304 0.0
H214 H 0.96709 0.05 0.35713 0.0
H215 H 0.02521 0.07166 0.35733 0.0
H216 H 0.01442 0.01229 0.35358 0.0
H217 H 0.07311 0.98681 0.3119 0.0
H218 H 0.1477 0.02578 0.3153 0.0
H219 H 0.08564 0.10447 0.34278 0.0
C220 C 0.92069 0.01703 0.3357 0.0
C221 C 0.89918 0.98375 0.32869 0.0
C222 C 0.92481 0.96294 0.31977 0.0
C223 C 0.97127 0.97433 0.31801 0.0
C224 C 0.99156 1.00684 0.32517 0.0
C225 C 0.96695 0.02822 0.33376 0.0
C226 C 0.9967 0.06218 0.34023 0.0
C227 C 0.97797 0.11164 0.33903 0.0
C228 C 1.00111 0.04817 0.35281 0.0
C229 C 0.04197 0.05637 0.33398 0.0
C230 C 0.03846 0.02411 0.32536 0.0
C231 C 0.07617 0.01234 0.31858 0.0
C232 C 0.11843 0.03451 0.3206 0.0
C233 C 0.12248 0.06828 0.32927 0.0
C234 C 0.08364 0.07905 0.33604 0.0
H235 H 0.92476 0.57834 0.58034 0.0
H236 H 0.03637 0.66917 0.57017 0.0
H237 H 0.08774 0.60156 0.56811 0.0
H238 H 0.99341 0.50012 0.5968 0.0
H239 H 0.96152 0.44962 0.59254 0.0
H240 H 0.93341 0.50505 0.59303 0.0
H241 H 0.90903 0.49583 0.57194 0.0
H242 H 0.93713 0.44039 0.57138 0.0
H243 H 0.95236 0.48468 0.56128 0.0
H244 H 0.12706 0.52416 0.56732 0.0
H245 H 0.15199 0.44282 0.56806 0.0
H246 H 0.01465 0.40229 0.57877 0.0
C247 C 0.95998 0.58412 0.57765 0.0
C248 C 0.97651 0.62916 0.57541 0.0
C249 C 0.02289 0.63506 0.57194 0.0
C250 C 0.05232 0.59686 0.57074 0.0
C251 C 0.03487 0.55298 0.57302 0.0
C252 C 0.9898 0.54642 0.57642 0.0
C253 C 0.97972 0.49573 0.57847 0.0
C254 C 0.96623 0.48714 0.59095 0.0
C255 C 0.94235 0.47813 0.57028 0.0
C256 C 0.02624 0.47475 0.57572 0.0
C257 C 0.05752 0.50839 0.57258 0.0
C258 C 0.10284 0.49754 0.56975 0.0
C259 C 0.11665 0.45116 0.57021 0.0
C260 C 0.0853 0.41605 0.57347 0.0
C261 C 0.03942 0.42821 0.57621 0.0
H262 H 0.5829 0.60684 0.83646 0.0
H263 H 0.6583 0.48864 0.82335 0.0
H264 H 0.58484 0.44648 0.82092 0.0
H265 H 0.4979 0.54319 0.85214 0.0
H266 H 0.45186 0.58276 0.84882 0.0
H267 H 0.51034 0.60324 0.84952 0.0
H268 H 0.50316 0.63558 0.82904 0.0
H269 H 0.44471 0.61504 0.82826 0.0
H270 H 0.48608 0.59759 0.81764 0.0
H271 H 0.50277 0.41754 0.8199 0.0
H272 H 0.41909 0.40324 0.82066 0.0
H273 H 0.3976 0.54087 0.83439 0.0
C274 C 0.58413 0.57202 0.8331 0.0
C275 C 0.62648 0.55101 0.8301 0.0
C276 C 0.62635 0.50544 0.82572 0.0
C277 C 0.58478 0.48127 0.8243 0.0
C278 C 0.54367 0.50318 0.82728 0.0
C279 C 0.54308 0.54752 0.83161 0.0
C280 C 0.49437 0.56336 0.83416 0.0
C281 C 0.48828 0.57373 0.84692 0.0
C282 C 0.48133 0.60538 0.82684 0.0
C283 C 0.46752 0.5209 0.83065 0.0
C284 C 0.49657 0.48662 0.82668 0.0
C285 C 0.47974 0.44416 0.82299 0.0
C286 C 0.43207 0.43641 0.82345 0.0
C287 C 0.4016 0.47092 0.82759 0.0
C288 C 0.41981 0.51379 0.83117 0.0
H289 H 0.4204 0.06575 0.08374 0.0
H290 H 0.52904 0.15701 0.07192 0.0
H291 H 0.57938 0.08973 0.06865 0.0
H292 H 0.49354 0.98723 0.09867 0.0
H293 H 0.46108 0.93649 0.09487 0.0
H294 H 0.43263 0.99163 0.09589 0.0
H295 H 0.40285 0.98253 0.07523 0.0
H296 H 0.43133 0.92738 0.07414 0.0
H297 H 0.44338 0.97203 0.06388 0.0
H298 H 0.61874 0.01376 0.06717 0.0
H299 H 0.64575 0.93327 0.06788 0.0
H300 H 0.5121 0.88997 0.08061 0.0
C301 C 0.45469 0.07158 0.08041 0.0
C302 C 0.47071 0.11675 0.07807 0.0
C303 C 0.51593 0.12283 0.07378 0.0
C304 C 0.54479 0.08481 0.07186 0.0
C305 C 0.52798 0.04086 0.07427 0.0
C306 C 0.48406 0.03394 0.07845 0.0
C307 C 0.47509 0.98305 0.0806 0.0
C308 C 0.465 0.97409 0.09326 0.0
C309 C 0.43583 0.96521 0.07301 0.0
C310 C 0.52105 0.96257 0.07707 0.0
C311 C 0.55087 0.99663 0.0734 0.0
C312 C 0.59568 0.98672 0.06998 0.0
C313 C 0.61069 0.94083 0.07043 0.0
C314 C 0.58106 0.90523 0.07429 0.0
C315 C 0.53543 0.91632 0.07753 0.0
H316 H 0.11031 0.54805 0.95132 0.0
H317 H 0.09523 0.42453 0.97192 0.0
H318 H 0.01253 0.44163 0.9744 0.0
H319 H 0.03137 0.61953 0.96744 0.0
H320 H 1.00915 0.64833 0.955 0.0
H321 H 0.06734 0.6267 0.95505 0.0
H322 H 0.05009 0.57904 0.93687 0.0
H323 H 0.9918 0.60035 0.9368 0.0
H324 H 1.00254 0.53904 0.93686 0.0
H325 H 0.93043 0.47126 0.9742 0.0
H326 H 0.85643 0.51267 0.97182 0.0
H327 H 0.92578 0.61673 0.95151 0.0
C328 C 0.08975 0.52471 0.95642 0.0
C329 C 0.10942 0.48494 0.96142 0.0
C330 C 0.08109 0.45526 0.968 0.0
C331 C 0.034 0.46464 0.96945 0.0
C332 C 0.01564 0.50387 0.96431 0.0
C333 C 0.0427 0.53355 0.95797 0.0
C334 C 0.0145 0.5732 0.95327 0.0
C335 C 0.03161 0.61969 0.95798 0.0
C336 C 0.01475 0.57286 0.94017 0.0
C337 C 0.96736 0.56115 0.95793 0.0
C338 C 0.96864 0.521 0.96426 0.0
C339 C 0.92907 0.50284 0.96929 0.0
C340 C 0.88717 0.52652 0.96788 0.0
C341 C 0.88524 0.56799 0.9615 0.0
C342 C 0.92601 0.58523 0.95647 0.0
H343 H 0.41606 0.44397 0.21213 0.0
H344 H 0.52717 0.34991 0.22083 0.0
H345 H 0.58009 0.41618 0.2228 0.0
H346 H 0.48374 0.52158 0.19544 0.0
H347 H 0.45374 0.57262 0.20017 0.0
H348 H 0.42427 0.51796 0.19977 0.0
H349 H 0.4034 0.52653 0.22112 0.0
H350 H 0.43285 0.58122 0.22159 0.0
H351 H 0.44858 0.53597 0.23137 0.0
H352 H 0.6212 0.49229 0.22344 0.0
H353 H 0.64821 0.57281 0.22253 0.0
H354 H 0.51035 0.6178 0.21341 0.0
C355 C 0.45146 0.43723 0.2145 0.0
C356 C 0.46743 0.39164 0.21635 0.0
C357 C 0.5141 0.38445 0.21938 0.0
C358 C 0.54441 0.42189 0.22054 0.0
C359 C 0.52754 0.46631 0.21863 0.0
C360 C 0.48218 0.47417 0.21568 0.0
C361 C 0.47301 0.52524 0.2139 0.0
C362 C 0.4578 0.5349 0.20159 0.0
C363 C 0.43735 0.54329 0.22251 0.0
C364 C 0.52041 0.5449 0.21625 0.0
C365 C 0.55128 0.51028 0.219 0.0
C366 C 0.59731 0.51969 0.22134 0.0
C367 C 0.61231 0.56563 0.22079 0.0
C368 C 0.58143 0.60176 0.21791 0.0
C369 C 0.53477 0.59108 0.21569 0.0
H370 H 0.40249 0.98441 0.44815 0.0
H371 H 0.4092 0.08097 0.47639 0.0
H372 H 0.49071 0.06001 0.47948 0.0
H373 H 0.47496 0.89642 0.46087 0.0
H374 H 0.50172 0.88107 0.44754 0.0
H375 H 0.44375 0.90327 0.44772 0.0
H376 H 0.4677 0.96783 0.43364 0.0
H377 H 0.5258 0.94602 0.43348 0.0
H378 H 0.51499 1.00542 0.43723 0.0
H379 H 0.57296 0.03084 0.47893 0.0
H380 H 0.64767 0.9919 0.47553 0.0
H381 H 0.58605 0.91321 0.44804 0.0
C382 C 0.42095 1.00097 0.45504 0.0
C383 C 0.39937 0.03439 0.46202 0.0
C384 C 0.42487 0.05517 0.47094 0.0
C385 C 0.47127 0.0436 0.47275 0.0
C386 C 0.49163 0.01095 0.46562 0.0
C387 C 0.46715 0.98961 0.45702 0.0
C388 C 0.497 0.95557 0.45056 0.0
C389 C 0.47824 0.90616 0.45175 0.0
C390 C 0.50164 0.96957 0.43799 0.0
C391 C 0.54217 0.96127 0.45684 0.0
C392 C 0.53851 0.99354 0.46546 0.0
C393 C 0.57613 1.00529 0.47225 0.0
C394 C 0.61845 0.98313 0.47023 0.0
C395 C 0.62267 0.94939 0.46156 0.0
C396 C 0.58391 0.93859 0.45479 0.0
H397 H 0.10897 0.06773 0.7054 0.0
H398 H 0.98845 0.14491 0.7163 0.0
H399 H 0.94578 0.07164 0.71871 0.0
H400 H 0.04848 0.982 0.68936 0.0
H401 H 0.08683 0.93577 0.69334 0.0
H402 H 0.10783 0.99419 0.69271 0.0
H403 H 0.13557 0.98794 0.71361 0.0
H404 H 0.11447 0.92954 0.71432 0.0
H405 H 0.09515 0.97173 0.72456 0.0
H406 H 0.91625 0.98973 0.71976 0.0
H407 H 0.90115 0.90601 0.71884 0.0
H408 H 0.04126 0.8826 0.70719 0.0
C409 C 0.07362 0.06936 0.70832 0.0
C410 C 0.05206 0.11216 0.71068 0.0
C411 C 1.00568 0.1126 0.71443 0.0
C412 C 0.98122 0.07115 0.71585 0.0
C413 C 1.00362 0.02959 0.71347 0.0
C414 C 0.04874 0.02843 0.70975 0.0
C415 C 0.06469 0.97935 0.70758 0.0
C416 C 0.07771 0.97244 0.695 0.0
C417 C 0.10485 0.96639 0.7155 0.0
C418 C 0.02141 0.95295 0.71063 0.0
C419 C 0.98664 0.98255 0.71404 0.0
C420 C 0.94326 0.96626 0.71711 0.0
C421 C 0.93505 0.91857 0.71656 0.0
C422 C 0.97002 0.88757 0.71295 0.0
C423 C 0.01386 0.90522 0.71005 0.0
H424 H 0.58887 0.92788 0.3429 0.0
H425 H 0.64708 1.00699 0.31504 0.0
H426 H 0.57188 0.04574 0.31222 0.0
H427 H 0.47728 0.91032 0.33103 0.0
H428 H 0.44731 0.91708 0.34437 0.0
H429 H 0.50561 0.89578 0.3442 0.0
H430 H 0.53047 0.96119 0.35793 0.0
H431 H 0.47217 0.98246 0.35823 0.0
H432 H 0.5186 0.02042 0.35423 0.0
H433 H 0.48909 0.07319 0.31198 0.0
H434 H 0.40752 0.09291 0.31545 0.0
H435 H 0.40469 0.99798 0.34403 0.0
C436 C 0.58587 0.95344 0.33621 0.0
C437 C 0.62375 0.9643 0.32914 0.0
C438 C 0.61854 0.99825 0.32057 0.0
C439 C 0.57592 0.02025 0.31888 0.0
C440 C 0.5391 1.00826 0.32592 0.0
C441 C 0.54386 0.9761 0.33452 0.0
C442 C 0.49935 0.97015 0.34109 0.0
C443 C 0.48133 0.92038 0.3401 0.0
C444 C 0.50553 0.98442 0.35361 0.0
C445 C 0.46856 1.00372 0.33479 0.0
C446 C 0.49201 0.02507 0.32601 0.0
C447 C 0.4705 0.05688 0.31888 0.0
C448 C 0.42406 0.06769 0.32089 0.0
C449 C 0.39966 0.04708 0.33003 0.0
C450 C 0.42235 0.01446 0.337 0.0
H451 H 1.00092 0.90193 0.5766 0.0
H452 H 0.85883 0.94495 0.57196 0.0
H453 H 0.88335 0.02638 0.57177 0.0
H454 H 0.03298 0.99373 0.59536 0.0
H455 H 0.09011 1.0001 0.58956 0.0
H456 H 0.06169 0.94491 0.58899 0.0
H457 H 0.07298 0.94246 0.56711 0.0
H458 H 0.10151 0.99763 0.56762 0.0
H459 H 0.05214 0.98967 0.55854 0.0
H460 H 0.92288 0.10352 0.57249 0.0
H461 H 0.97502 0.17067 0.57398 0.0
H462 H 0.09127 0.07772 0.57816 0.0
C463 C 0.975 0.92844 0.57547 0.0
C464 C 0.92792 0.91691 0.57428 0.0
C465 C 0.8951 0.95277 0.57289 0.0
C466 C 0.90867 0.99923 0.57276 0.0
C467 C 0.95523 1.00943 0.57403 0.0
C468 C 0.98794 0.97511 0.57534 0.0
C469 C 0.03566 0.99555 0.57671 0.0
C470 C 0.05631 0.98282 0.58835 0.0
C471 C 0.06744 0.98043 0.56691 0.0
C472 C 0.02458 0.04665 0.57602 0.0
C473 C 0.978 0.05393 0.57445 0.0
C474 C 0.95947 0.09827 0.57368 0.0
C475 C 0.98935 0.13621 0.57455 0.0
C476 C 0.03725 0.12958 0.57618 0.0
C477 C 0.05487 0.08407 0.57689 0.0
H478 H 0.0952 0.42834 0.80855 0.0
H479 H 0.15478 0.50221 0.83711 0.0
H480 H 0.08034 0.54178 0.84033 0.0
H481 H 0.02331 0.52402 0.79835 0.0
H482 H 0.97692 0.48626 0.79422 0.0
H483 H 0.03549 0.46568 0.79389 0.0
H484 H 0.01264 0.39749 0.80698 0.0
H485 H 0.95415 0.41811 0.80746 0.0
H486 H 0.98561 0.40923 0.8205 0.0
H487 H 0.99755 0.56795 0.84143 0.0
H488 H 0.91488 0.58539 0.83914 0.0
H489 H 0.91 0.49705 0.8093 0.0
C490 C 0.09281 0.4533 0.8154 0.0
C491 C 0.13083 0.46217 0.8226 0.0
C492 C 0.12625 0.49508 0.83145 0.0
C493 C 0.08402 0.51754 0.83337 0.0
C494 C 0.04694 0.50716 0.82628 0.0
C495 C 0.05114 0.4764 0.81735 0.0
C496 C 1.00597 0.47114 0.811 0.0
C497 C 0.01072 0.48778 0.79863 0.0
C498 C 0.98858 0.42102 0.81152 0.0
C499 C 0.97541 0.50316 0.81787 0.0
C500 C 0.99966 0.52337 0.82669 0.0
C501 C 0.97839 0.55276 0.83448 0.0
C502 C 0.93129 0.56223 0.83314 0.0
C503 C 0.90592 0.54276 0.82401 0.0
C504 C 0.92847 0.51278 0.81631 0.0
H505 H 0.51164 0.62827 0.07869 0.0
H506 H 0.65431 0.5828 0.07836 0.0
H507 H 0.6289 0.50189 0.07839 0.0
H508 H 0.46991 0.5399 0.09742 0.0
H509 H 0.41575 0.53266 0.09016 0.0
H510 H 0.44472 0.58761 0.08978 0.0
H511 H 0.44352 0.58606 0.06773 0.0
H512 H 0.41444 0.53113 0.06804 0.0
H513 H 0.46773 0.53722 0.06031 0.0
H514 H 0.5891 0.42604 0.07885 0.0
H515 H 0.53659 0.3593 0.07956 0.0
H516 H 0.41919 0.45247 0.0796 0.0
C517 C 0.53747 0.60127 0.07856 0.0
C518 C 0.585 0.61203 0.07852 0.0
C519 C 0.61771 0.57562 0.0784 0.0
C520 C 0.60366 0.52942 0.07841 0.0
C521 C 0.55672 0.51996 0.07853 0.0
C522 C 0.52402 0.5547 0.07858 0.0
C523 C 0.47575 0.53466 0.07885 0.0
C524 C 0.45003 0.5496 0.0897 0.0
C525 C 0.44878 0.54807 0.06809 0.0
C526 C 0.48662 0.48338 0.07902 0.0
C527 C 0.53357 0.47579 0.07881 0.0
C528 C 0.55222 0.43147 0.07899 0.0
C529 C 0.52207 0.39376 0.0794 0.0
C530 C 0.47374 0.40053 0.07963 0.0
C531 C 0.45594 0.44607 0.07943 0.0
H532 H 0.41658 0.43854 0.94309 0.0
H533 H 0.35674 0.51206 0.97171 0.0
H534 H 0.43172 0.55005 0.97526 0.0
H535 H 0.52606 0.41733 0.95522 0.0
H536 H 0.55774 0.42642 0.94221 0.0
H537 H 0.49912 0.40628 0.94167 0.0
H538 H 0.47684 0.47512 0.92871 0.0
H539 H 0.53553 0.49518 0.92909 0.0
H540 H 0.48933 0.53319 0.9333 0.0
H541 H 0.51492 0.57577 0.97643 0.0
H542 H 0.59741 0.59388 0.97391 0.0
H543 H 0.60179 0.50574 0.94403 0.0
C544 C 0.41909 0.46299 0.95005 0.0
C545 C 0.38084 0.47234 0.95714 0.0
C546 C 0.3855 0.50464 0.96612 0.0
C547 C 0.42802 0.52615 0.96824 0.0
C548 C 0.4653 0.51541 0.96122 0.0
C549 C 0.46102 0.48514 0.95218 0.0
C550 C 0.50619 0.47973 0.94585 0.0
C551 C 0.52327 0.42945 0.94627 0.0
C552 C 0.50169 0.49684 0.93351 0.0
C553 C 0.53681 0.51124 0.9528 0.0
C554 C 0.51268 0.53123 0.96168 0.0
C555 C 0.53401 0.56064 0.96944 0.0
C556 C 0.58098 0.5705 0.96797 0.0
C557 C 0.60611 0.55136 0.95875 0.0
C558 C 0.58356 0.52113 0.95113 0.0
H559 H 0.58123 0.92563 0.19692 0.0
H560 H 0.50814 0.86758 0.22579 0.0
H561 H 0.47002 0.94295 0.22905 0.0
H562 H 0.60172 0.03684 0.2087 0.0
H563 H 0.59273 0.06725 0.1955 0.0
H564 H 0.61342 1.00861 0.19532 0.0
H565 H 0.54537 0.98466 0.18234 0.0
H566 H 0.52465 0.0433 0.18241 0.0
H567 H 0.48718 0.99699 0.18678 0.0
H568 H 0.44262 0.02602 0.22959 0.0
H569 H 0.42375 0.10831 0.22661 0.0
H570 H 0.51344 0.11094 0.19703 0.0
C571 C 0.55705 0.92862 0.20391 0.0
C572 C 0.54775 0.89071 0.21113 0.0
C573 C 0.51569 0.89608 0.22013 0.0
C574 C 0.49401 0.9388 0.22206 0.0
C575 C 0.50447 0.97563 0.21486 0.0
C576 C 0.53487 0.97078 0.20589 0.0
C577 C 0.53997 0.01551 0.19933 0.0
C578 C 0.58993 0.03308 0.19974 0.0
C579 C 0.52329 1.00976 0.18698 0.0
C580 C 0.50802 0.04653 0.20607 0.0
C581 C 0.48802 0.02297 0.21503 0.0
C582 C 0.45787 0.04469 0.22256 0.0
C583 C 0.44751 0.09153 0.22082 0.0
C584 C 0.46701 0.11616 0.21157 0.0
C585 C 0.4978 0.09315 0.20415 0.0
H586 H 0.90673 0.01821 0.44564 0.0
H587 H 0.90712 0.92861 0.47525 0.0
H588 H 0.98846 0.94859 0.47884 0.0
H589 H 0.02104 0.99362 0.43619 0.0
H590 H 0.03325 0.05205 0.43187 0.0
H591 H 0.97491 0.03099 0.43163 0.0
H592 H 0.94912 0.09855 0.44465 0.0
H593 H 1.0073 0.12006 0.44484 0.0
H594 H 0.97805 0.10774 0.45803 0.0
H595 H 0.07133 0.97545 0.47864 0.0
H596 H 0.14677 0.01359 0.47577 0.0
H597 H 0.09084 0.08814 0.44689 0.0
C598 C 0.92382 1.00298 0.45292 0.0
C599 C 0.90053 0.97175 0.46014 0.0
C600 C 0.92414 0.95275 0.46961 0.0
C601 C 0.97045 0.9637 0.47169 0.0
C602 C 0.99259 0.99408 0.46431 0.0
C603 C 0.96987 0.01396 0.45521 0.0
C604 C 1.00124 0.04631 0.4487 0.0
C605 C 1.008 0.02973 0.43637 0.0
C606 C 0.98283 0.09611 0.44908 0.0
C607 C 0.04518 0.04137 0.45553 0.0
C608 C 0.03969 1.0107 0.46443 0.0
C609 C 0.07593 0.99979 0.47174 0.0
C610 C 0.11868 0.0214 0.47002 0.0
C611 C 0.12456 0.05394 0.46115 0.0
C612 C 0.08729 0.06367 0.4538 0.0
H613 H 0.98386 0.39524 0.69321 0.0
H614 H 0.07809 0.39848 0.72188 0.0
H615 H 0.06106 0.48118 0.72471 0.0
H616 H 0.0111 0.50782 0.68229 0.0
H617 H 0.95263 0.52092 0.67826 0.0
H618 H 0.97221 0.46188 0.67846 0.0
H619 H 0.90571 0.44009 0.69217 0.0
H620 H 0.88573 0.49897 0.69194 0.0
H621 H 0.89883 0.4715 0.70532 0.0
H622 H 0.03454 0.56447 0.72423 0.0
H623 H 0.99666 0.64008 0.7212 0.0
H624 H 0.91925 0.58176 0.69306 0.0
C625 C 1.0008 0.41323 0.70011 0.0
C626 C 0.03233 0.39021 0.70731 0.0
C627 C 0.05372 0.4152 0.71625 0.0
C628 C 0.04441 0.4623 0.71791 0.0
C629 C 0.01353 0.48403 0.71059 0.0
C630 C 0.9918 0.46023 0.70192 0.0
C631 C 0.95954 0.4915 0.69535 0.0
C632 C 0.9748 0.49578 0.68285 0.0
C633 C 0.90949 0.4745 0.69625 0.0
C634 C 0.96635 0.53651 0.7017 0.0
C635 C 0.9979 0.53166 0.71041 0.0
C636 C 0.00973 0.56864 0.71744 0.0
C637 C 0.98817 0.61151 0.71563 0.0
C638 C 0.95494 0.6169 0.70691 0.0
C639 C 0.94442 0.57884 0.69982 0.0
H640 H 0.22832 0.05917 0.37148 0.0
H641 H 0.28172 0.19637 0.36471 0.0
H642 H 0.28598 0.21119 0.38547 0.0
H643 H 0.15873 0.08955 0.39591 0.0
H644 H 0.17122 0.03628 0.40321 0.0
H645 H 0.17085 0.03785 0.38788 0.0
H646 H 0.25407 1.00524 0.38751 0.0
H647 H 0.25473 1.00364 0.40282 0.0
H648 H 0.29885 0.0348 0.39524 0.0
H649 H 0.28646 0.20921 0.4073 0.0
H650 H 0.28328 0.19051 0.42787 0.0
H651 H 0.22977 0.05461 0.41968 0.0
C652 C 0.24066 0.09253 0.37431 0.0
C653 C 0.25466 0.12664 0.36646 0.0
C654 C 0.27071 0.16973 0.37057 0.0
C655 C 0.27324 0.17845 0.38234 0.0
C656 C 0.25946 0.14377 0.38985 0.0
C657 C 0.24339 0.10173 0.38596 0.0
C658 C 0.23167 0.06961 0.39566 0.0
C659 C 0.18005 0.05764 0.39566 0.0
C660 C 0.26163 0.02575 0.39528 0.0
C661 C 0.24408 0.09984 0.40568 0.0
C662 C 0.25985 0.1426 0.40222 0.0
C663 C 0.27397 0.17587 0.41008 0.0
C664 C 0.27205 0.16497 0.42174 0.0
C665 C 0.2563 0.12111 0.4254 0.0
C666 C 0.24198 0.08847 0.41721 0.0
H667 H 0.95675 0.80602 0.62014 0.0
H668 H 0.82818 0.73917 0.61106 0.0
H669 H 0.80827 0.73265 0.63152 0.0
H670 H 0.98179 0.73716 0.64405 0.0
H671 H 1.00613 0.78384 0.65221 0.0
H672 H 1.0084 0.78537 0.63692 0.0
H673 H 0.96739 0.86498 0.63699 0.0
H674 H 0.96501 0.8637 0.6523 0.0
H675 H 0.91288 0.8712 0.64419 0.0
H676 H 0.80453 0.7311 0.65332 0.0
H677 H 0.81793 0.73379 0.67415 0.0
H678 H 0.94916 0.80138 0.66828 0.0
C679 C 0.92419 0.79028 0.6224 0.0
C680 C 0.894 0.77314 0.61399 0.0
C681 C 0.85182 0.75266 0.61737 0.0
C682 C 0.84021 0.74885 0.62896 0.0
C683 C 0.87109 0.76584 0.63703 0.0
C684 C 0.91216 0.78624 0.63386 0.0
C685 C 0.94025 0.80053 0.64408 0.0
C686 C 0.98688 0.7752 0.64433 0.0
C687 C 0.94674 0.85323 0.64441 0.0
C688 C 0.909 0.78438 0.65356 0.0
C689 C 0.86907 0.76475 0.64939 0.0
C690 C 0.8356 0.74662 0.65666 0.0
C691 C 0.84346 0.74832 0.66847 0.0
C692 C 0.88458 0.76775 0.67284 0.0
C693 C 0.91736 0.78626 0.66524 0.0
H694 H 0.26662 0.45851 0.8694 0.0
H695 H 0.25113 0.31204 0.86262 0.0
H696 H 0.24594 0.2973 0.8834 0.0
H697 H 0.33677 0.44743 0.89432 0.0
H698 H 0.31047 0.49623 0.9013 0.0
H699 H 0.31333 0.49416 0.886 0.0
H700 H 0.22473 0.50489 0.88489 0.0
H701 H 0.22158 0.50695 0.90018 0.0
H702 H 0.18766 0.46542 0.89242 0.0
H703 H 0.24176 0.30008 0.90539 0.0
H704 H 0.23913 0.32005 0.92593 0.0
H705 H 0.25739 0.46461 0.91736 0.0
C706 C 0.26218 0.4232 0.87222 0.0
C707 C 0.25922 0.38641 0.86437 0.0
C708 C 0.2535 0.34078 0.86849 0.0
C709 C 0.25052 0.33212 0.88027 0.0
C710 C 0.25344 0.36946 0.88777 0.0
C711 C 0.25923 0.41406 0.88384 0.0
C712 C 0.26125 0.44851 0.89347 0.0
C713 C 0.30825 0.473 0.89379 0.0
C714 C 0.22143 0.48348 0.89269 0.0
C715 C 0.25536 0.41656 0.90351 0.0
C716 C 0.25102 0.37104 0.90014 0.0
C717 C 0.24517 0.33566 0.90808 0.0
C718 C 0.2437 0.34728 0.91973 0.0
C719 C 0.24796 0.39388 0.92327 0.0
C720 C 0.25391 0.42865 0.91498 0.0
H721 H 0.54595 0.76566 0.12183 0.0
H722 H 0.6926 0.75865 0.11482 0.0
H723 H 0.70826 0.75605 0.13555 0.0
H724 H 0.55317 0.83803 0.14665 0.0
H725 H 0.50673 0.80882 0.15384 0.0
H726 H 0.50788 0.81112 0.13853 0.0
H727 H 0.50316 0.72177 0.13765 0.0
H728 H 0.50209 0.71917 0.15295 0.0
H729 H 0.54535 0.68764 0.14514 0.0
H730 H 0.70686 0.75311 0.15737 0.0
H731 H 0.68855 0.74997 0.17796 0.0
H732 H 0.54282 0.75842 0.17001 0.0
C733 C 0.58146 0.76376 0.12461 0.0
C734 C 0.61807 0.76239 0.11669 0.0
C735 C 0.66399 0.75979 0.12073 0.0
C736 C 0.67319 0.7583 0.13248 0.0
C737 C 0.6361 0.75947 0.14005 0.0
C738 C 0.59118 0.7622 0.13623 0.0
C739 C 0.5572 0.7624 0.14598 0.0
C740 C 0.52964 0.8078 0.14627 0.0
C741 C 0.52508 0.72023 0.14539 0.0
C742 C 0.58989 0.75907 0.15593 0.0
C743 C 0.6353 0.75756 0.15241 0.0
C744 C 0.6714 0.75432 0.1602 0.0
C745 C 0.66069 0.75254 0.17188 0.0
C746 C 0.61427 0.75386 0.17561 0.0
C747 C 0.57867 0.75723 0.16747 0.0
H748 H 0.79397 0.56162 0.87193 0.0
H749 H 0.73596 0.69509 0.86319 0.0
H750 H 0.72954 0.71402 0.88375 0.0
H751 H 0.72309 0.53896 0.89553 0.0
H752 H 0.76789 0.51114 0.90363 0.0
H753 H 0.76979 0.50999 0.88833 0.0
H754 H 0.85145 0.54624 0.8887 0.0
H755 H 0.84983 0.54744 0.90402 0.0
H756 H 0.86057 0.59982 0.89618 0.0
H757 H 0.72667 0.71571 0.90573 0.0
H758 H 0.72799 0.70017 0.9265 0.0
H759 H 0.7885 0.56567 0.91993 0.0
C760 C 0.78011 0.59503 0.87428 0.0
C761 C 0.76538 0.62687 0.86595 0.0
C762 C 0.74757 0.67021 0.86944 0.0
C763 C 0.74381 0.68121 0.88109 0.0
C764 C 0.75833 0.64861 0.88908 0.0
C765 C 0.77634 0.6065 0.88576 0.0
C766 C 0.78862 0.5767 0.89585 0.0
C767 C 0.76066 0.53155 0.89583 0.0
C768 C 0.84071 0.567 0.89621 0.0
C769 C 0.77405 0.60815 0.90545 0.0
C770 C 0.75686 0.64963 0.90146 0.0
C771 C 0.74035 0.68343 0.90891 0.0
C772 C 0.74123 0.67433 0.92068 0.0
C773 C 0.75834 0.63172 0.92485 0.0
C774 C 0.77522 0.59864 0.91707 0.0
H775 H 0.46062 0.29662 0.17146 0.0
H776 H 0.32306 0.24524 0.1784 0.0
H777 H 0.30798 0.24094 0.15766 0.0
H778 H 0.43144 0.36604 0.14681 0.0
H779 H 0.48445 0.35216 0.13957 0.0
H780 H 0.4827 0.35351 0.15489 0.0
H781 H 0.51387 0.26959 0.15555 0.0
H782 H 0.51558 0.26792 0.14025 0.0
H783 H 0.48368 0.22472 0.14798 0.0
H784 H 0.30996 0.23961 0.13579 0.0
H785 H 0.32909 0.24092 0.11521 0.0
H786 H 0.46552 0.29238 0.12332 0.0
C787 C 0.42707 0.28486 0.16867 0.0
C788 C 0.39298 0.27136 0.17657 0.0
C789 C 0.34969 0.25591 0.1725 0.0
C790 C 0.34082 0.25337 0.16074 0.0
C791 C 0.37556 0.26649 0.15319 0.0
C792 C 0.41777 0.28204 0.15704 0.0
C793 C 0.4501 0.29261 0.14731 0.0
C794 C 0.46291 0.34414 0.14714 0.0
C795 C 0.49334 0.26187 0.1478 0.0
C796 C 0.41983 0.28007 0.13733 0.0
C797 C 0.37682 0.26535 0.14082 0.0
C798 C 0.3435 0.25129 0.13299 0.0
C799 C 0.35463 0.25214 0.12132 0.0
C800 C 0.3988 0.26667 0.11764 0.0
C801 C 0.43145 0.28101 0.12581 0.0
H802 H 0.72845 0.96442 0.37087 0.0
H803 H 0.78286 0.82876 0.36267 0.0
H804 H 0.78639 0.81017 0.38324 0.0
H805 H 0.79774 0.98464 0.39509 0.0
H806 H 0.75307 0.01419 0.40289 0.0
H807 H 0.75314 0.01543 0.38758 0.0
H808 H 0.67012 0.98247 0.38734 0.0
H809 H 0.66977 0.98117 0.40267 0.0
H810 H 0.65797 0.92927 0.39471 0.0
H811 H 0.78622 0.80822 0.40504 0.0
H812 H 0.78225 0.82309 0.4258 0.0
H813 H 0.72778 0.96002 0.41909 0.0
C814 C 0.74089 0.93063 0.37335 0.0
C815 C 0.75539 0.89803 0.36515 0.0
C816 C 0.77149 0.85427 0.3688 0.0
C817 C 0.7736 0.84342 0.38046 0.0
C818 C 0.75932 0.87664 0.38833 0.0
C819 C 0.74316 0.9193 0.38488 0.0
C820 C 0.73078 0.94953 0.39492 0.0
C821 C 0.76047 0.99353 0.39513 0.0
C822 C 0.67909 0.96128 0.39491 0.0
C823 C 0.74293 0.9175 0.4046 0.0
C824 C 0.75918 0.87552 0.40069 0.0
C825 C 0.77333 0.84092 0.40818 0.0
C826 C 0.77096 0.84966 0.41995 0.0
C827 C 0.75468 0.89269 0.42408 0.0
C828 C 0.7403 0.92671 0.41624 0.0
H829 H 0.12993 0.34901 0.66912 0.0
H830 H 0.17468 0.20809 0.67511 0.0
H831 H 0.18413 0.1967 0.65438 0.0
H832 H 0.0618 0.32436 0.64568 0.0
H833 H 0.07475 0.3767 0.63803 0.0
H834 H 0.07792 0.37589 0.65331 0.0
H835 H 0.16246 0.40433 0.65243 0.0
H836 H 0.1595 0.40545 0.63711 0.0
H837 H 0.20402 0.37262 0.64411 0.0
H838 H 0.1818 0.19859 0.63291 0.0
H839 H 0.16613 0.21296 0.61255 0.0
H840 H 0.1212 0.35211 0.62075 0.0
C841 C 0.14288 0.31611 0.66611 0.0
C842 C 0.15199 0.27956 0.67375 0.0
C843 C 0.16774 0.23667 0.66942 0.0
C844 C 0.17332 0.22992 0.65766 0.0
C845 C 0.16298 0.26637 0.65035 0.0
C846 C 0.14819 0.30868 0.65442 0.0
C847 C 0.13547 0.34093 0.64478 0.0
C848 C 0.08447 0.35528 0.6455 0.0
C849 C 0.16727 0.38334 0.6446 0.0
C850 C 0.14435 0.30983 0.63465 0.0
C851 C 0.16081 0.26719 0.63801 0.0
C852 C 0.16941 0.23204 0.63017 0.0
C853 C 0.16038 0.24053 0.61862 0.0
C854 C 0.14251 0.28369 0.61503 0.0
C855 C 0.13514 0.31885 0.62318 0.0
H856 H 0.31238 0.21984 0.30171 0.0
H857 H 0.16899 0.19992 0.29254 0.0
H858 H 0.18522 0.22983 0.27328 0.0
H859 H 0.33339 0.32504 0.28383 0.0
H860 H 0.39068 0.30579 0.28026 0.0
H861 H 0.36591 0.29098 0.29384 0.0
H862 H 0.38081 0.20434 0.28968 0.0
H863 H 0.40513 0.21875 0.27608 0.0
H864 H 0.35759 0.17891 0.27691 0.0
H865 H 0.21955 0.25059 0.25422 0.0
H866 H 0.26876 0.26214 0.23726 0.0
H867 H 0.3893 0.26824 0.25903 0.0
C868 C 0.284 0.22322 0.29579 0.0
C869 C 0.23934 0.20776 0.29867 0.0
C870 C 0.20345 0.21179 0.29056 0.0
C871 C 0.21232 0.2288 0.27959 0.0
C872 C 0.25718 0.24199 0.27688 0.0
C873 C 0.29232 0.23987 0.28481 0.0
C874 C 0.33836 0.25152 0.27949 0.0
C875 C 0.35824 0.29599 0.28466 0.0
C876 C 0.37244 0.21096 0.2806 0.0
C877 C 0.32394 0.25884 0.26725 0.0
C878 C 0.27693 0.25382 0.26592 0.0
C879 C 0.25629 0.25549 0.2552 0.0
C880 C 0.28451 0.26193 0.24561 0.0
C881 C 0.33286 0.26633 0.2468 0.0
C882 C 0.35243 0.2656 0.25781 0.0
H883 H 0.81868 0.80344 0.48869 0.0
H884 H 0.67494 0.81615 0.49837 0.0
H885 H 0.69382 0.78764 0.51762 0.0
H886 H 0.84651 0.70014 0.50659 0.0
H887 H 0.90282 0.72252 0.50994 0.0
H888 H 0.87654 0.73573 0.49643 0.0
H889 H 0.88682 0.8231 0.50047 0.0
H890 H 0.91258 0.81027 0.514 0.0
H891 H 0.86285 0.84747 0.5133 0.0
H892 H 0.73018 0.76875 0.53653 0.0
H893 H 0.78069 0.75923 0.5533 0.0
H894 H 0.90042 0.75965 0.53115 0.0
C895 C 0.79085 0.79874 0.49471 0.0
C896 C 0.74525 0.81174 0.49198 0.0
C897 C 0.71008 0.80614 0.50024 0.0
C898 C 0.72047 0.78993 0.5112 0.0
C899 C 0.76614 0.77921 0.51375 0.0
C900 C 0.80068 0.78295 0.50569 0.0
C901 C 0.84758 0.77389 0.51085 0.0
C902 C 0.86965 0.73047 0.50564 0.0
C903 C 0.87929 0.8162 0.50958 0.0
C904 C 0.83424 0.76602 0.52315 0.0
C905 C 0.78709 0.76863 0.52465 0.0
C906 C 0.76708 0.76579 0.53542 0.0
C907 C 0.79605 0.76054 0.5449 0.0
C908 C 0.8445 0.75847 0.54354 0.0
C909 C 0.86352 0.76055 0.53248 0.0
H910 H 0.21361 0.35706 0.73759 0.0
H911 H 0.18347 0.21117 0.74152 0.0
H912 H 0.20954 0.21483 0.76152 0.0
H913 H 0.31585 0.36012 0.75644 0.0
H914 H 0.30076 0.41638 0.76187 0.0
H915 H 0.2853 0.40051 0.74754 0.0
H916 H 0.19988 0.41967 0.75195 0.0
H917 H 0.21494 0.43512 0.7663 0.0
H918 H 0.17177 0.39163 0.76376 0.0
H919 H 0.22995 0.23707 0.7818 0.0
H920 H 0.24696 0.27521 0.80021 0.0
H921 H 0.26436 0.40576 0.78261 0.0
C922 C 0.21353 0.32556 0.74255 0.0
C923 C 0.19659 0.28382 0.73796 0.0
C924 C 0.19654 0.24353 0.74482 0.0
C925 C 0.21123 0.24527 0.7562 0.0
C926 C 0.22629 0.28742 0.76056 0.0
C927 C 0.22808 0.32668 0.75388 0.0
C928 C 0.24274 0.36837 0.76073 0.0
C929 C 0.28892 0.38745 0.75638 0.0
C930 C 0.20509 0.40588 0.76068 0.0
C931 C 0.24782 0.34675 0.77237 0.0
C932 C 0.23843 0.3 0.77213 0.0
C933 C 0.23813 0.27351 0.78205 0.0
C934 C 0.24766 0.29546 0.79247 0.0
C935 C 0.25731 0.34336 0.79284 0.0
C936 C 0.25774 0.36897 0.78262 0.0
H937 H 0.69509 0.71237 0.99087 0.0
H938 H 0.83854 0.68976 0.99963 0.0
H939 H 0.82297 0.71675 1.0192 0.0
H940 H 0.67574 0.81509 1.00951 0.0
H941 H 0.61831 0.79639 1.01307 0.0
H942 H 0.64249 0.78248 0.99935 0.0
H943 H 0.62657 0.69571 1.00303 0.0
H944 H 0.60287 0.70922 1.01678 0.0
H945 H 0.64984 0.66874 1.01561 0.0
H946 H 0.78952 0.73644 0.03844 0.0
H947 H 0.74129 0.74945 0.05552 0.0
H948 H 0.62003 0.75855 0.03405 0.0
C949 C 0.72359 0.71447 0.99679 0.0
C950 C 0.76811 0.6992 0.99368 0.0
C951 C 0.80419 0.7015 1.00178 0.0
C952 C 0.79569 0.71682 1.01293 0.0
C953 C 0.751 0.72997 1.01582 0.0
C954 C 0.71565 0.7294 1.00794 0.0
C955 C 0.66993 0.74126 1.01342 0.0
C956 C 0.65049 0.7865 1.00855 0.0
C957 C 0.6353 0.70135 1.01213 0.0
C958 C 0.68481 0.7472 0.02567 0.0
C959 C 0.73175 0.74106 0.02689 0.0
C960 C 0.75283 0.74207 0.03756 0.0
C961 C 0.72516 0.74932 0.04722 0.0
C962 C 0.67692 0.75521 0.04613 0.0
C963 C 0.65684 0.75464 0.03518 0.0
H964 H 0.41589 0.33347 0.04 0.0
H965 H 0.3071 0.23953 0.05012 0.0
H966 H 0.26963 0.25034 0.03131 0.0
H967 H 0.34315 0.41302 0.02543 0.0
H968 H 0.38547 0.42575 1.01464 0.0
H969 H 0.4037 0.40851 0.02865 0.0
H970 H 0.45149 0.34176 1.01981 0.0
H971 H 0.43305 0.35855 1.00578 0.0
H972 H 0.42351 0.30036 1.01068 0.0
H973 H 0.24536 0.27152 1.01087 0.0
H974 H 0.23233 0.30727 0.99193 0.0
H975 H 0.35615 0.38901 0.99625 0.0
C976 C 0.38429 0.31491 0.03827 0.0
C977 C 0.36454 0.28535 0.04646 0.0
C978 C 0.32274 0.26236 0.04393 0.0
C979 C 0.30144 0.2681 0.03326 0.0
C980 C 0.32222 0.2973 0.02532 0.0
C981 C 0.36244 0.32073 0.0278 0.0
C982 C 0.37697 0.3519 1.01816 0.0
C983 C 0.37731 0.4028 0.02195 0.0
C984 C 0.42404 0.33724 1.01333 0.0
C985 C 0.3387 0.3425 1.00979 0.0
C986 C 0.30764 0.31051 1.01394 0.0
C987 C 0.26946 0.29667 1.00757 0.0
C988 C 0.26246 0.31689 0.99681 0.0
C989 C 0.29316 0.35095 0.99267 0.0
C990 C 0.33196 0.36321 0.99922 0.0
H991 H 0.70017 0.82027 0.30021 0.0
H992 H 0.84495 0.81876 0.29095 0.0
H993 H 0.82455 0.78998 0.27182 0.0
H994 H 0.66571 0.71712 0.28353 0.0
H995 H 0.61121 0.74259 0.2797 0.0
H996 H 0.63788 0.7572 0.29307 0.0
H997 H 0.63393 0.84394 0.28774 0.0
H998 H 0.60776 0.82964 0.27433 0.0
H999 H 0.65992 0.86332 0.27465 0.0
H1000 H 0.78751 0.7699 0.25299 0.0
H1001 H 0.73694 0.75696 0.23635 0.0
H1002 H 0.61689 0.77168 0.25811 0.0
C1003 C 0.72775 0.81275 0.29428 0.0
C1004 C 0.77421 0.82163 0.29711 0.0
C1005 C 0.80912 0.81206 0.289 0.0
C1006 C 0.79788 0.7957 0.27811 0.0
C1007 C 0.7516 0.78881 0.27547 0.0
C1008 C 0.71714 0.79657 0.28338 0.0
C1009 C 0.66992 0.78959 0.27821 0.0
C1010 C 0.6447 0.74921 0.28397 0.0
C1011 C 0.64122 0.83428 0.27876 0.0
C1012 C 0.68312 0.7778 0.26609 0.0
C1013 C 0.73036 0.7772 0.26467 0.0
C1014 C 0.75047 0.76962 0.25404 0.0
C1015 C 0.7215 0.76248 0.24463 0.0
C1016 C 0.67298 0.76309 0.24593 0.0
C1017 C 0.65382 0.77051 0.25684 0.0
H1018 H 0.19808 0.19444 0.49079 0.0
H1019 H 0.34264 0.19821 0.50016 0.0
H1020 H 0.32129 0.22519 0.51939 0.0
H1021 H 0.16122 0.29574 0.50779 0.0
H1022 H 0.10717 0.26913 0.51152 0.0
H1023 H 0.13434 0.25563 0.49812 0.0
H1024 H 0.13203 0.16859 0.50321 0.0
H1025 H 0.10538 0.1818 0.51665 0.0
H1026 H 0.1582 0.14907 0.51626 0.0
H1027 H 0.28362 0.24382 0.53822 0.0
H1028 H 0.23266 0.25601 0.55484 0.0
H1029 H 0.11309 0.23988 0.53304 0.0
C1030 C 0.22538 0.20207 0.49677 0.0
C1031 C 0.27208 0.19438 0.49393 0.0
C1032 C 0.30663 0.20401 0.50211 0.0
C1033 C 0.29485 0.21934 0.51307 0.0
C1034 C 0.24838 0.22511 0.5157 0.0
C1035 C 0.21422 0.21722 0.50775 0.0
C1036 C 0.16678 0.22312 0.51292 0.0
C1037 C 0.14086 0.26331 0.50725 0.0
C1038 C 0.13899 0.17796 0.51222 0.0
C1039 C 0.17955 0.23457 0.52508 0.0
C1040 C 0.22676 0.23582 0.52652 0.0
C1041 C 0.24659 0.24353 0.53716 0.0
C1042 C 0.21739 0.25023 0.54656 0.0
C1043 C 0.16889 0.24909 0.54525 0.0
C1044 C 0.14999 0.24139 0.53433 0.0
H1045 H 0.88416 0.74472 0.7552 0.0
H1046 H 0.76453 0.72326 0.73371 0.0
H1047 H 0.71841 0.70329 0.75073 0.0
H1048 H 0.86479 0.65088 0.77337 0.0
H1049 H 0.88493 0.67972 0.78602 0.0
H1050 H 0.90696 0.69634 0.77231 0.0
H1051 H 0.8821 0.781 0.77608 0.0
H1052 H 0.85986 0.76458 0.78982 0.0
H1053 H 0.82303 0.79341 0.77973 0.0
H1054 H 0.68712 0.68037 0.76999 0.0
H1055 H 0.67366 0.65436 0.78972 0.0
H1056 H 0.81417 0.69116 0.79846 0.0
C1057 C 0.84809 0.73646 0.75405 0.0
C1058 C 0.82789 0.73572 0.74311 0.0
C1059 C 0.7807 0.72419 0.74201 0.0
C1060 C 0.75422 0.71294 0.75163 0.0
C1061 C 0.77543 0.71359 0.76228 0.0
C1062 C 0.8213 0.72512 0.76353 0.0
C1063 C 0.83673 0.72062 0.77579 0.0
C1064 C 0.87563 0.68475 0.77693 0.0
C1065 C 0.85128 0.76771 0.78064 0.0
C1066 C 0.7926 0.70381 0.78123 0.0
C1067 C 0.7575 0.70039 0.77333 0.0
C1068 C 0.71422 0.68337 0.77626 0.0
C1069 C 0.70692 0.66867 0.7875 0.0
C1070 C 0.74278 0.6709 0.79566 0.0
C1071 C 0.78585 0.68956 0.79248 0.0
loop_
_geom_bond_atom_site_label_1
_geom_bond_atom_site_label_2
_geom_bond_distance
_geom_bond_site_symmetry_2
_ccdc_geom_bond_type
Mg0 O7 2.141 . S
Mg0 O8 2.048 . S
Mg0 O9 2.048 . S
Mg0 O12 2.141 . S
C1 O2 1.313 . S
C1 O8 1.195 . S
O2 C1 1.313 . S
C3 O4 1.245 . S
C3 O12 1.289 . S
O4 C3 1.245 . S
C5 O6 1.245 . S
C5 O7 1.289 . S
O6 C5 1.245 . S
O7 Mg0 2.141 . S
O7 C5 1.289 . S
O8 Mg0 2.048 . S
O8 C1 1.195 . S
O9 Mg0 2.048 . S
O9 C10 1.195 . S
C10 O9 1.195 . S
C10 O11 1.313 . S
O11 C10 1.313 . S
O12 Mg0 2.141 . S
O12 C3 1.289 . S
Mg13 O20 2.141 . S
Mg13 O21 2.048 . S
Mg13 O22 2.048 . S
Mg13 O25 2.141 . S
C14 O15 1.313 . S
C14 O21 1.195 . S
O15 C14 1.313 . S
C16 O17 1.245 . S
C16 O25 1.289 . S
O17 C16 1.245 . S
C18 O19 1.245 . S
C18 O20 1.289 . S
O19 C18 1.245 . S
O20 Mg13 2.141 . S
O20 C18 1.289 . S
O21 Mg13 2.048 . S
O21 C14 1.195 . S
O22 Mg13 2.048 . S
O22 C23 1.195 . S
C23 O22 1.195 . S
C23 O24 1.313 . S
O24 C23 1.313 . S
O25 Mg13 2.141 . S
O25 C16 1.289 . S
Mg26 O33 2.141 . S
Mg26 O34 2.048 . S
Mg26 O35 2.048 . S
Mg26 O38 2.141 . S
C27 O28 1.313 . S
C27 O34 1.195 . S
O28 C27 1.313 . S
C29 O30 1.245 . S
C29 O38 1.289 . S
O30 C29 1.245 . S
C31 O32 1.245 . S
C31 O33 1.289 . S
O32 C31 1.245 . S
O33 Mg26 2.141 . S
O33 C31 1.289 . S
O34 Mg26 2.048 . S
O34 C27 1.195 . S
O35 Mg26 2.048 . S
O35 C36 1.195 . S
C36 O35 1.195 . S
C36 O37 1.313 . S
O37 C36 1.313 . S
O38 Mg26 2.141 . S
O38 C29 1.289 . S
Mg39 O46 2.141 . S
Mg39 O47 2.048 . S
Mg39 O48 2.048 . S
Mg39 O51 2.141 . S
C40 O41 1.313 . S
C40 O47 1.195 . S
O41 C40 1.313 . S
C42 O43 1.245 . S
C42 O51 1.289 . S
O43 C42 1.245 . S
C44 O45 1.245 . S
C44 O46 1.289 . S
O45 C44 1.245 . S
O46 Mg39 2.141 . S
O46 C44 1.289 . S
O47 Mg39 2.048 . S
O47 C40 1.195 . S
O48 Mg39 2.048 . S
O48 C49 1.195 . S
C49 O48 1.195 . S
C49 O50 1.313 . S
O50 C49 1.313 . S
O51 Mg39 2.141 . S
O51 C42 1.289 . S
Mg52 O59 2.141 . S
Mg52 O60 2.048 . S
Mg52 O61 2.048 . S
Mg52 O64 2.141 . S
C53 O54 1.313 . S
C53 O60 1.195 . S
O54 C53 1.313 . S
C55 O56 1.245 . S
C55 O64 1.289 . S
O56 C55 1.245 . S
C57 O58 1.245 . S
C57 O59 1.289 . S
O58 C57 1.245 . S
O59 Mg52 2.141 . S
O59 C57 1.289 . S
O60 Mg52 2.048 . S
O60 C53 1.195 . S
O61 Mg52 2.048 . S
O61 C62 1.195 . S
C62 O61 1.195 . S
C62 O63 1.313 . S
O63 C62 1.313 . S
O64 Mg52 2.141 . S
O64 C55 1.289 . S
Mg65 O72 2.141 . S
Mg65 O73 2.048 . S
Mg65 O74 2.048 . S
Mg65 O77 2.141 . S
C66 O67 1.313 . S
C66 O73 1.195 . S
O67 C66 1.313 . S
C68 O69 1.245 . S
C68 O77 1.289 . S
O69 C68 1.245 . S
C70 O71 1.245 . S
C70 O72 1.289 . S
O71 C70 1.245 . S
O72 Mg65 2.141 . S
O72 C70 1.289 . S
O73 Mg65 2.048 . S
O73 C66 1.195 . S
O74 Mg65 2.048 . S
O74 C75 1.195 . S
C75 O74 1.195 . S
C75 O76 1.313 . S
O76 C75 1.313 . S
O77 Mg65 2.141 . S
O77 C68 1.289 . S
Mg78 O85 2.141 . S
Mg78 O86 2.048 . S
Mg78 O87 2.048 . S
Mg78 O90 2.141 . S
C79 O80 1.313 . S
C79 O86 1.195 . S
O80 C79 1.313 . S
C81 O82 1.245 . S
C81 O90 1.289 . S
O82 C81 1.245 . S
C83 O84 1.245 . S
C83 O85 1.289 . S
O84 C83 1.245 . S
O85 Mg78 2.141 . S
O85 C83 1.289 . S
O86 Mg78 2.048 . S
O86 C79 1.195 . S
O87 Mg78 2.048 . S
O87 C88 1.195 . S
C88 O87 1.195 . S
C88 O89 1.313 . S
O89 C88 1.313 . S
O90 Mg78 2.141 . S
O90 C81 1.289 . S
Mg91 O98 2.141 . S
Mg91 O99 2.048 . S
Mg91 O100 2.048 . S
Mg91 O103 2.141 . S
C92 O93 1.313 . S
C92 O99 1.195 . S
O93 C92 1.313 . S
C94 O95 1.245 . S
C94 O103 1.289 . S
O95 C94 1.245 . S
C96 O97 1.245 . S
C96 O98 1.289 . S
O97 C96 1.245 . S
O98 Mg91 2.141 . S
O98 C96 1.289 . S
O99 Mg91 2.048 . S
O99 C92 1.195 . S
O100 Mg91 2.048 . S
O100 C101 1.195 . S
C101 O100 1.195 . S
C101 O102 1.313 . S
O102 C101 1.313 . S
O103 Mg91 2.141 . S
O103 C94 1.289 . S
Mg104 O111 2.141 . S
Mg104 O112 2.048 . S
Mg104 O113 2.048 . S
Mg104 O116 2.141 . S
C105 O106 1.313 . S
C105 O112 1.195 . S
O106 C105 1.313 . S
C107 O108 1.245 . S
C107 O116 1.289 . S
O108 C107 1.245 . S
C109 O110 1.245 . S
C109 O111 1.289 . S
O110 C109 1.245 . S
O111 Mg104 2.141 . S
O111 C109 1.289 . S
O112 Mg104 2.048 . S
O112 C105 1.195 . S
O113 Mg104 2.048 . S
O113 C114 1.195 . S
C114 O113 1.195 . S
C114 O115 1.313 . S
O115 C114 1.313 . S
O116 Mg104 2.141 . S
O116 C107 1.289 . S
Mg117 O124 2.141 . S
Mg117 O125 2.048 . S
Mg117 O126 2.048 . S
Mg117 O129 2.141 . S
C118 O119 1.313 . S
C118 O125 1.195 . S
O119 C118 1.313 . S
C120 O121 1.245 . S
C120 O129 1.289 . S
O121 C120 1.245 . S
C122 O123 1.245 . S
C122 O124 1.289 . S
O123 C122 1.245 . S
O124 Mg117 2.141 . S
O124 C122 1.289 . S
O125 Mg117 2.048 . S
O125 C118 1.195 . S
O126 Mg117 2.048 . S
O126 C127 1.195 . S
C127 O126 1.195 . S
C127 O128 1.313 . S
O128 C127 1.313 . S
O129 Mg117 2.141 . S
O129 C120 1.289 . S
Mg130 O137 2.141 . S
Mg130 O138 2.048 . S
Mg130 O139 2.048 . S
Mg130 O142 2.141 . S
C131 O132 1.313 . S
C131 O138 1.195 . S
O132 C131 1.313 . S
C133 O134 1.245 . S
C133 O142 1.289 . S
O134 C133 1.245 . S
C135 O136 1.245 . S
C135 O137 1.289 . S
O136 C135 1.245 . S
O137 Mg130 2.141 . S
O137 C135 1.289 . S
O138 Mg130 2.048 . S
O138 C131 1.195 . S
O139 Mg130 2.048 . S
O139 C140 1.195 . S
C140 O139 1.195 . S
C140 O141 1.313 . S
O141 C140 1.313 . S
O142 Mg130 2.141 . S
O142 C133 1.289 . S
Mg143 O150 2.141 . S
Mg143 O151 2.048 . S
Mg143 O152 2.048 . S
Mg143 O155 2.141 . S
C144 O145 1.313 . S
C144 O151 1.195 . S
O145 C144 1.313 . S
C146 O147 1.245 . S
C146 O155 1.289 . S
O147 C146 1.245 . S
C148 O149 1.245 . S
C148 O150 1.289 . S
O149 C148 1.245 . S
O150 Mg143 2.141 . S
O150 C148 1.289 . S
O151 Mg143 2.048 . S
O151 C144 1.195 . S
O152 Mg143 2.048 . S
O152 C153 1.195 . S
C153 O152 1.195 . S
C153 O154 1.313 . S
O154 C153 1.313 . S
O155 Mg143 2.141 . S
O155 C146 1.289 . S
Mg156 O163 2.141 . S
Mg156 O164 2.048 . S
Mg156 O165 2.048 . S
Mg156 O168 2.141 . S
C157 O158 1.313 . S
C157 O164 1.195 . S
O158 C157 1.313 . S
C159 O160 1.245 . S
C159 O168 1.289 . S
O160 C159 1.245 . S
C161 O162 1.245 . S
C161 O163 1.289 . S
O162 C161 1.245 . S
O163 Mg156 2.141 . S
O163 C161 1.289 . S
O164 Mg156 2.048 . S
O164 C157 1.195 . S
O165 Mg156 2.048 . S
O165 C166 1.195 . S
C166 O165 1.195 . S
C166 O167 1.313 . S
O167 C166 1.313 . S
O168 Mg156 2.141 . S
O168 C159 1.289 . S
Mg169 O176 2.141 . S
Mg169 O177 2.048 . S
Mg169 O178 2.048 . S
Mg169 O181 2.141 . S
C170 O171 1.313 . S
C170 O177 1.195 . S
O171 C170 1.313 . S
C172 O173 1.245 . S
C172 O181 1.289 . S
O173 C172 1.245 . S
C174 O175 1.245 . S
C174 O176 1.289 . S
O175 C174 1.245 . S
O176 Mg169 2.141 . S
O176 C174 1.289 . S
O177 Mg169 2.048 . S
O177 C170 1.195 . S
O178 Mg169 2.048 . S
O178 C179 1.195 . S
C179 O178 1.195 . S
C179 O180 1.313 . S
O180 C179 1.313 . S
O181 Mg169 2.141 . S
O181 C172 1.289 . S
Mg182 O189 2.141 . S
Mg182 O190 2.048 . S
Mg182 O191 2.048 . S
Mg182 O194 2.141 . S
C183 O184 1.313 . S
C183 O190 1.195 . S
O184 C183 1.313 . S
C185 O186 1.245 . S
C185 O194 1.289 . S
O186 C185 1.245 . S
C187 O188 1.245 . S
C187 O189 1.289 . S
O188 C187 1.245 . S
O189 Mg182 2.141 . S
O189 C187 1.289 . S
O190 Mg182 2.048 . S
O190 C183 1.195 . S
O191 Mg182 2.048 . S
O191 C192 1.195 . S
C192 O191 1.195 . S
C192 O193 1.313 . S
O193 C192 1.313 . S
O194 Mg182 2.141 . S
O194 C185 1.289 . S
Mg195 O202 2.141 . S
Mg195 O203 2.048 . S
Mg195 O204 2.048 . S
Mg195 O207 2.141 . S
C196 O197 1.313 . S
C196 O203 1.195 . S
O197 C196 1.313 . S
C198 O199 1.245 . S
C198 O207 1.289 . S
O199 C198 1.245 . S
C200 O201 1.245 . S
C200 O202 1.289 . S
O201 C200 1.245 . S
O202 Mg195 2.141 . S
O202 C200 1.289 . S
O203 Mg195 2.048 . S
O203 C196 1.195 . S
O204 Mg195 2.048 . S
O204 C205 1.195 . S
C205 O204 1.195 . S
C205 O206 1.313 . S
O206 C205 1.313 . S
O207 Mg195 2.141 . S
O207 C198 1.289 . S
H208 C220 0.930 . S
H209 C222 0.930 . S
H210 C223 0.930 . S
H211 C227 0.959 . S
H212 C227 0.959 . S
H213 C227 0.961 . S
H214 C228 0.960 1_565 S
H215 C228 0.961 1_455 S
H216 C228 0.959 1_465 S
H217 C231 0.929 1_565 S
H218 C232 0.931 . S
H219 C234 0.930 . S
C220 H208 0.930 . S
C220 C221 1.399 . S
C220 C225 1.399 . S
C221 C220 1.399 . S
C221 C222 1.376 . S
C222 H209 0.930 . S
C222 C221 1.376 . S
C222 C223 1.388 . S
C223 H210 0.930 . S
C223 C222 1.388 . S
C223 C224 1.390 . S
C224 C223 1.390 . S
C224 C225 1.394 . S
C224 C230 1.453 1_665 S
C225 C220 1.399 . S
C225 C224 1.394 . S
C225 C226 1.516 1_565 S
C226 C225 1.516 1_545 S
C226 C227 1.502 . S
C226 C228 1.561 . S
C226 C229 1.526 1_655 S
C227 H211 0.959 . S
C227 H212 0.959 . S
C227 H213 0.961 . S
C227 C226 1.502 . S
C228 H214 0.960 1_545 S
C228 H215 0.961 1_655 S
C228 H216 0.959 1_645 S
C228 C226 1.561 . S
C229 C226 1.526 1_455 S
C229 C230 1.409 . S
C229 C234 1.390 . S
C230 C224 1.453 1_445 S
C230 C229 1.409 . S
C230 C231 1.399 . S
C231 H217 0.929 1_545 S
C231 C230 1.399 . S
C231 C232 1.385 . S
C232 H218 0.931 . S
C232 C231 1.385 . S
C232 C233 1.389 . S
C233 C232 1.389 . S
C233 C234 1.387 . S
C234 H219 0.930 . S
C234 C229 1.390 . S
C234 C233 1.387 . S
H235 C247 0.930 . S
H236 C249 0.930 . S
H237 C250 0.930 . S
H238 C254 0.959 . S
H239 C254 0.959 . S
H240 C254 0.961 . S
H241 C255 0.960 . S
H242 C255 0.961 . S
H243 C255 0.959 . S
H244 C258 0.929 . S
H245 C259 0.931 . S
H246 C261 0.930 . S
C247 H235 0.930 . S
C247 C248 1.399 . S
C247 C252 1.399 . S
C248 C247 1.399 . S
C248 C249 1.376 . S
C249 H236 0.930 . S
C249 C248 1.376 . S
C249 C250 1.388 . S
C250 H237 0.930 . S
C250 C249 1.388 . S
C250 C251 1.390 . S
C251 C250 1.390 . S
C251 C252 1.394 . S
C251 C257 1.465 1_655 S
C252 C247 1.399 . S
C252 C251 1.394 . S
C252 C253 1.516 1_655 S
C253 C252 1.516 1_455 S
C253 C254 1.502 1_455 S
C253 C255 1.561 . S
C253 C256 1.526 . S
C254 H238 0.959 . S
C254 H239 0.959 . S
C254 H240 0.961 . S
C254 C253 1.502 1_655 S
C255 H241 0.960 . S
C255 H242 0.961 . S
C255 H243 0.959 . S
C255 C253 1.561 . S
C256 C253 1.526 . S
C256 C257 1.396 . S
C256 C261 1.390 . S
C257 C251 1.465 1_455 S
C257 C256 1.396 . S
C257 C258 1.399 . S
C258 H244 0.929 . S
C258 C257 1.399 . S
C258 C259 1.385 . S
C259 H245 0.931 . S
C259 C258 1.385 . S
C259 C260 1.389 . S
C260 C259 1.389 . S
C260 C261 1.387 . S
C261 H246 0.930 . S
C261 C256 1.390 . S
C261 C260 1.387 . S
H262 C274 0.930 . S
H263 C276 0.930 . S
H264 C277 0.930 . S
H265 C281 0.959 . S
H266 C281 0.959 . S
H267 C281 0.961 . S
H268 C282 0.960 . S
H269 C282 0.961 . S
H270 C282 0.959 . S
H271 C285 0.929 . S
H272 C286 0.931 . S
H273 C288 0.930 . S
C274 H262 0.930 . S
C274 C275 1.399 . S
C274 C279 1.399 . S
C275 C274 1.399 . S
C275 C276 1.376 . S
C276 H263 0.930 . S
C276 C275 1.376 . S
C276 C277 1.388 . S
C277 H264 0.930 . S
C277 C276 1.388 . S
C277 C278 1.390 . S
C278 C277 1.390 . S
C278 C279 1.394 . S
C278 C284 1.465 . S
C279 C274 1.399 . S
C279 C278 1.394 . S
C279 C280 1.516 . S
C280 C279 1.516 . S
C280 C281 1.502 . S
C280 C282 1.561 . S
C280 C283 1.526 . S
C281 H265 0.959 . S
C281 H266 0.959 . S
C281 H267 0.961 . S
C281 C280 1.502 . S
C282 H268 0.960 . S
C282 H269 0.961 . S
C282 H270 0.959 . S
C282 C280 1.561 . S
C283 C280 1.526 . S
C283 C284 1.396 . S
C283 C288 1.390 . S
C284 C278 1.465 . S
C284 C283 1.396 . S
C284 C285 1.399 . S
C285 H271 0.929 . S
C285 C284 1.399 . S
C285 C286 1.385 . S
C286 H272 0.931 . S
C286 C285 1.385 . S
C286 C287 1.389 . S
C287 C286 1.389 . S
C287 C288 1.387 . S
C288 H273 0.930 . S
C288 C283 1.390 . S
C288 C287 1.387 . S
H289 C301 0.930 . S
H290 C303 0.930 . S
H291 C304 0.930 . S
H292 C308 0.959 . S
H293 C308 0.959 . S
H294 C308 0.961 . S
H295 C309 0.960 . S
H296 C309 0.961 1_565 S
H297 C309 0.959 . S
H298 C312 0.929 . S
H299 C313 0.931 . S
H300 C315 0.930 . S
C301 H289 0.930 . S
C301 C302 1.399 . S
C301 C306 1.399 . S
C302 C301 1.399 . S
C302 C303 1.376 . S
C303 H290 0.930 . S
C303 C302 1.376 . S
C303 C304 1.388 . S
C304 H291 0.930 . S
C304 C303 1.388 . S
C304 C305 1.390 . S
C305 C304 1.390 . S
C305 C306 1.394 . S
C305 C311 1.465 1_545 S
C306 C301 1.399 . S
C306 C305 1.394 . S
C306 C307 1.516 1_545 S
C307 C306 1.516 1_565 S
C307 C308 1.502 . S
C307 C309 1.561 1_565 S
C307 C310 1.526 . S
C308 H292 0.959 . S
C308 H293 0.959 . S
C308 H294 0.961 . S
C308 C307 1.502 . S
C309 H295 0.960 . S
C309 H296 0.961 1_545 S
C309 H297 0.959 . S
C309 C307 1.561 1_545 S
C310 C307 1.526 . S
C310 C311 1.396 . S
C310 C315 1.390 . S
C311 C305 1.465 1_565 S
C311 C310 1.396 . S
C311 C312 1.399 . S
C312 H298 0.929 . S
C312 C311 1.399 . S
C312 C313 1.385 . S
C313 H299 0.931 . S
C313 C312 1.385 . S
C313 C314 1.389 . S
C314 C313 1.389 . S
C314 C315 1.387 . S
C315 H300 0.930 . S
C315 C310 1.390 . S
C315 C314 1.387 . S
H316 C328 0.930 . S
H317 C330 0.930 . S
H318 C331 0.930 . S
H319 C335 0.959 . S
H320 C335 0.959 . S
H321 C335 0.961 . S
H322 C336 0.960 1_455 S
H323 C336 0.961 . S
H324 C336 0.959 . S
H325 C339 0.929 . S
H326 C340 0.931 . S
H327 C342 0.930 . S
C328 H316 0.930 . S
C328 C329 1.399 . S
C328 C333 1.399 . S
C329 C328 1.399 . S
C329 C330 1.376 . S
C330 H317 0.930 . S
C330 C329 1.376 . S
C330 C331 1.388 . S
C331 H318 0.930 . S
C331 C330 1.388 . S
C331 C332 1.390 . S
C332 C331 1.390 . S
C332 C333 1.394 . S
C332 C338 1.465 1_455 S
C333 C328 1.399 . S
C333 C332 1.394 . S
C333 C334 1.516 . S
C334 C333 1.516 . S
C334 C335 1.502 . S
C334 C336 1.561 1_455 S
C334 C337 1.526 1_455 S
C335 H319 0.959 . S
C335 H320 0.959 . S
C335 H321 0.961 . S
C335 C334 1.502 . S
C336 H322 0.960 1_655 S
C336 H323 0.961 . S
C336 H324 0.959 . S
C336 C334 1.561 1_655 S
C337 C334 1.526 1_655 S
C337 C338 1.396 . S
C337 C342 1.390 . S
C338 C332 1.465 1_655 S
C338 C337 1.396 . S
C338 C339 1.399 . S
C339 H325 0.929 . S
C339 C338 1.399 . S
C339 C340 1.385 . S
C340 H326 0.931 . S
C340 C339 1.385 . S
C340 C341 1.389 . S
C341 C340 1.389 . S
C341 C342 1.387 . S
C342 H327 0.930 . S
C342 C337 1.390 . S
C342 C341 1.387 . S
H343 C355 0.930 . S
H344 C357 0.930 . S
H345 C358 0.930 . S
H346 C362 0.959 . S
H347 C362 0.959 . S
H348 C362 0.961 . S
H349 C363 0.960 . S
H350 C363 0.961 . S
H351 C363 0.959 . S
H352 C366 0.929 . S
H353 C367 0.931 . S
H354 C369 0.930 . S
C355 H343 0.930 . S
C355 C356 1.399 . S
C355 C360 1.399 . S
C356 C355 1.399 . S
C356 C357 1.376 . S
C357 H344 0.930 . S
C357 C356 1.376 . S
C357 C358 1.388 . S
C358 H345 0.930 . S
C358 C357 1.388 . S
C358 C359 1.390 . S
C359 C358 1.390 . S
C359 C360 1.394 . S
C359 C365 1.465 . S
C360 C355 1.399 . S
C360 C359 1.394 . S
C360 C361 1.516 . S
C361 C360 1.516 . S
C361 C362 1.502 . S
C361 C363 1.561 . S
C361 C364 1.526 . S
C362 H346 0.959 . S
C362 H347 0.959 . S
C362 H348 0.961 . S
C362 C361 1.502 . S
C363 H349 0.960 . S
C363 H350 0.961 . S
C363 H351 0.959 . S
C363 C361 1.561 . S
C364 C361 1.526 . S
C364 C365 1.396 . S
C364 C369 1.390 . S
C365 C359 1.465 . S
C365 C364 1.396 . S
C365 C366 1.399 . S
C366 H352 0.929 . S
C366 C365 1.399 . S
C366 C367 1.385 . S
C367 H353 0.931 . S
C367 C366 1.385 . S
C367 C368 1.389 . S
C368 C367 1.389 . S
C368 C369 1.387 . S
C369 H354 0.930 . S
C369 C364 1.390 . S
C369 C368 1.387 . S
H370 C382 0.930 . S
H371 C384 0.930 . S
H372 C385 0.930 . S
H373 C389 0.959 . S
H374 C389 0.959 . S
H375 C389 0.961 . S
H376 C390 0.960 . S
H377 C390 0.961 1_565 S
H378 C390 0.959 . S
H379 C393 0.929 1_545 S
H380 C394 0.931 . S
H381 C396 0.930 . S
C382 H370 0.930 . S
C382 C383 1.399 . S
C382 C387 1.399 . S
C383 C382 1.399 . S
C383 C384 1.376 . S
C384 H371 0.930 . S
C384 C383 1.376 . S
C384 C385 1.388 . S
C385 H372 0.930 . S
C385 C384 1.388 . S
C385 C386 1.390 . S
C386 C385 1.390 . S
C386 C387 1.394 . S
C386 C392 1.465 1_545 S
C387 C382 1.399 . S
C387 C386 1.394 . S
C387 C388 1.516 1_545 S
C388 C387 1.516 1_565 S
C388 C389 1.502 . S
C388 C390 1.561 1_565 S
C388 C391 1.526 . S
C389 H373 0.959 . S
C389 H374 0.959 . S
C389 H375 0.961 . S
C389 C388 1.502 . S
C390 H376 0.960 . S
C390 H377 0.961 1_545 S
C390 H378 0.959 . S
C390 C388 1.561 1_545 S
C391 C388 1.526 . S
C391 C392 1.396 . S
C391 C396 1.390 . S
C392 C386 1.465 1_565 S
C392 C391 1.396 . S
C392 C393 1.399 . S
C393 H379 0.929 1_565 S
C393 C392 1.399 . S
C393 C394 1.385 . S
C394 H380 0.931 . S
C394 C393 1.385 . S
C394 C395 1.389 . S
C395 C394 1.389 . S
C395 C396 1.387 . S
C396 H381 0.930 . S
C396 C391 1.390 . S
C396 C395 1.387 . S
H397 C409 0.930 . S
H398 C411 0.930 . S
H399 C412 0.930 . S
H400 C416 0.959 . S
H401 C416 0.959 . S
H402 C416 0.961 . S
H403 C417 0.960 1_545 S
H404 C417 0.961 . S
H405 C417 0.959 . S
H406 C420 0.929 . S
H407 C421 0.931 . S
H408 C423 0.930 . S
C409 H397 0.930 . S
C409 C410 1.399 . S
C409 C414 1.399 . S
C410 C409 1.399 . S
C410 C411 1.376 . S
C411 H398 0.930 . S
C411 C410 1.376 . S
C411 C412 1.388 . S
C412 H399 0.930 . S
C412 C411 1.388 . S
C412 C413 1.390 . S
C413 C412 1.390 . S
C413 C414 1.394 . S
C413 C419 1.465 1_445 S
C414 C409 1.399 . S
C414 C413 1.394 . S
C414 C415 1.516 1_455 S
C415 C414 1.516 1_655 S
C415 C416 1.502 . S
C415 C417 1.561 1_645 S
C415 C418 1.526 1_545 S
C416 H400 0.959 . S
C416 H401 0.959 . S
C416 H402 0.961 . S
C416 C415 1.502 . S
C417 H403 0.960 1_565 S
C417 H404 0.961 . S
C417 H405 0.959 . S
C417 C415 1.561 1_465 S
C418 C415 1.526 1_565 S
C418 C419 1.396 . S
C418 C423 1.390 . S
C419 C413 1.465 1_665 S
C419 C418 1.396 . S
C419 C420 1.399 . S
C420 H406 0.929 . S
C420 C419 1.399 . S
C420 C421 1.385 . S
C421 H407 0.931 . S
C421 C420 1.385 . S
C421 C422 1.389 . S
C422 C421 1.389 . S
C422 C423 1.387 . S
C423 H408 0.930 . S
C423 C418 1.390 . S
C423 C422 1.387 . S
H424 C436 0.930 . S
H425 C438 0.930 . S
H426 C439 0.931 . S
H427 C443 0.959 . S
H428 C443 0.959 . S
H429 C443 0.961 . S
H430 C444 0.960 . S
H431 C444 0.961 . S
H432 C444 0.959 1_545 S
H433 C447 0.929 . S
H434 C448 0.931 . S
H435 C450 0.930 . S
C436 H424 0.930 . S
C436 C437 1.399 . S
C436 C441 1.399 . S
C437 C436 1.399 . S
C437 C438 1.376 . S
C438 H425 0.930 . S
C438 C437 1.376 . S
C438 C439 1.387 1_565 S
C439 H426 0.931 . S
C439 C438 1.387 1_545 S
C439 C440 1.390 . S
C440 C439 1.390 . S
C440 C441 1.395 1_545 S
C440 C446 1.464 . S
C441 C436 1.399 . S
C441 C440 1.395 1_565 S
C441 C442 1.516 . S
C442 C441 1.516 . S
C442 C443 1.502 . S
C442 C444 1.561 . S
C442 C445 1.526 1_565 S
C443 H427 0.959 . S
C443 H428 0.959 . S
C443 H429 0.961 . S
C443 C442 1.502 . S
C444 H430 0.960 . S
C444 H431 0.961 . S
C444 H432 0.959 1_565 S
C444 C442 1.561 . S
C445 C442 1.526 1_545 S
C445 C446 1.396 . S
C445 C450 1.390 . S
C446 C440 1.464 . S
C446 C445 1.396 . S
C446 C447 1.399 . S
C447 H433 0.929 . S
C447 C446 1.399 . S
C447 C448 1.385 . S
C448 H434 0.931 . S
C448 C447 1.385 . S
C448 C449 1.389 . S
C449 C448 1.389 . S
C449 C450 1.387 . S
C450 H435 0.930 . S
C450 C445 1.390 . S
C450 C449 1.387 . S
H451 C463 0.930 . S
H452 C465 0.930 . S
H453 C466 0.930 . S
H454 C470 0.959 . S
H455 C470 0.959 . S
H456 C470 0.961 . S
H457 C471 0.960 1_565 S
H458 C471 0.966 . S
H459 C471 0.959 . S
H460 C474 0.929 . S
H461 C475 0.931 . S
H462 C477 0.930 . S
C463 H451 0.930 . S
C463 C464 1.399 . S
C463 C468 1.399 . S
C464 C463 1.399 . S
C464 C465 1.376 . S
C465 H452 0.930 . S
C465 C464 1.376 . S
C465 C466 1.388 . S
C466 H453 0.930 . S
C466 C465 1.388 . S
C466 C467 1.390 . S
C467 C466 1.390 . S
C467 C468 1.394 . S
C467 C473 1.465 1_665 S
C468 C463 1.399 . S
C468 C467 1.394 . S
C468 C469 1.516 1_655 S
C469 C468 1.516 1_455 S
C469 C470 1.502 . S
C469 C471 1.561 1_465 S
C469 C472 1.526 1_565 S
C470 H454 0.959 . S
C470 H455 0.959 . S
C470 H456 0.961 . S
C470 C469 1.502 . S
C471 H457 0.960 1_545 S
C471 H458 0.966 . S
C471 H459 0.959 . S
C471 C469 1.561 1_645 S
C472 C469 1.526 1_545 S
C472 C473 1.396 . S
C472 C477 1.390 . S
C473 C467 1.465 1_445 S
C473 C472 1.396 . S
C473 C474 1.399 . S
C474 H460 0.929 . S
C474 C473 1.399 . S
C474 C475 1.385 . S
C475 H461 0.931 . S
C475 C474 1.385 . S
C475 C476 1.389 . S
C476 C475 1.389 . S
C476 C477 1.387 . S
C477 H462 0.930 . S
C477 C472 1.390 . S
C477 C476 1.387 . S
H478 C490 0.930 . S
H479 C492 0.930 . S
H480 C493 0.930 . S
H481 C497 0.959 1_455 S
H482 C497 0.959 . S
H483 C497 0.961 1_455 S
H484 C498 0.960 . S
H485 C498 0.961 . S
H486 C498 0.959 . S
H487 C501 0.929 . S
H488 C502 0.931 . S
H489 C504 0.930 . S
C490 H478 0.930 . S
C490 C491 1.399 . S
C490 C495 1.399 . S
C491 C490 1.399 . S
C491 C492 1.376 . S
C492 H479 0.930 . S
C492 C491 1.376 . S
C492 C493 1.388 . S
C493 H480 0.930 . S
C493 C492 1.388 . S
C493 C494 1.390 . S
C494 C493 1.390 . S
C494 C495 1.394 . S
C494 C500 1.465 1_455 S
C495 C490 1.399 . S
C495 C494 1.394 . S
C495 C496 1.516 1_455 S
C496 C495 1.516 1_655 S
C496 C497 1.502 . S
C496 C498 1.561 . S
C496 C499 1.526 . S
C497 H481 0.959 1_655 S
C497 H482 0.959 . S
C497 H483 0.961 1_655 S
C497 C496 1.502 . S
C498 H484 0.960 . S
C498 H485 0.961 . S
C498 H486 0.959 . S
C498 C496 1.561 . S
C499 C496 1.526 . S
C499 C500 1.396 . S
C499 C504 1.390 . S
C500 C494 1.465 1_655 S
C500 C499 1.396 . S
C500 C501 1.399 . S
C501 H487 0.929 . S
C501 C500 1.399 . S
C501 C502 1.385 . S
C502 H488 0.931 . S
C502 C501 1.385 . S
C502 C503 1.389 . S
C503 C502 1.389 . S
C503 C504 1.387 . S
C504 H489 0.930 . S
C504 C499 1.390 . S
C504 C503 1.387 . S
H505 C517 0.930 . S
H506 C519 0.930 . S
H507 C520 0.930 . S
H508 C524 0.959 . S
H509 C524 0.959 . S
H510 C524 0.961 . S
H511 C525 0.960 . S
H512 C525 0.961 . S
H513 C525 0.959 . S
H514 C528 0.929 . S
H515 C529 0.931 . S
H516 C531 0.930 . S
C517 H505 0.930 . S
C517 C518 1.399 . S
C517 C522 1.399 . S
C518 C517 1.399 . S
C518 C519 1.376 . S
C519 H506 0.930 . S
C519 C518 1.376 . S
C519 C520 1.388 . S
C520 H507 0.930 . S
C520 C519 1.388 . S
C520 C521 1.390 . S
C521 C520 1.390 . S
C521 C522 1.394 . S
C521 C527 1.465 . S
C522 C517 1.399 . S
C522 C521 1.394 . S
C522 C523 1.516 . S
C523 C522 1.516 . S
C523 C524 1.502 . S
C523 C525 1.561 . S
C523 C526 1.526 . S
C524 H508 0.959 . S
C524 H509 0.959 . S
C524 H510 0.961 . S
C524 C523 1.502 . S
C525 H511 0.960 . S
C525 H512 0.961 . S
C525 H513 0.959 . S
C525 C523 1.561 . S
C526 C523 1.526 . S
C526 C527 1.396 . S
C526 C531 1.390 . S
C527 C521 1.465 . S
C527 C526 1.396 . S
C527 C528 1.399 . S
C528 H514 0.929 . S
C528 C527 1.399 . S
C528 C529 1.385 . S
C529 H515 0.931 . S
C529 C528 1.385 . S
C529 C530 1.389 . S
C530 C529 1.389 . S
C530 C531 1.387 . S
C531 H516 0.930 . S
C531 C526 1.390 . S
C531 C530 1.387 . S
H532 C544 0.930 . S
H533 C546 0.930 . S
H534 C547 0.930 . S
H535 C551 0.959 . S
H536 C551 0.959 . S
H537 C551 0.961 . S
H538 C552 0.960 . S
H539 C552 0.961 . S
H540 C552 0.959 . S
H541 C555 0.929 . S
H542 C556 0.931 . S
H543 C558 0.930 . S
C544 H532 0.930 . S
C544 C545 1.399 . S
C544 C549 1.399 . S
C545 C544 1.399 . S
C545 C546 1.376 . S
C546 H533 0.930 . S
C546 C545 1.376 . S
C546 C547 1.388 . S
C547 H534 0.930 . S
C547 C546 1.388 . S
C547 C548 1.390 . S
C548 C547 1.390 . S
C548 C549 1.394 . S
C548 C554 1.465 . S
C549 C544 1.399 . S
C549 C548 1.394 . S
C549 C550 1.516 . S
C550 C549 1.516 . S
C550 C551 1.502 . S
C550 C552 1.561 . S
C550 C553 1.526 . S
C551 H535 0.959 . S
C551 H536 0.959 . S
C551 H537 0.961 . S
C551 C550 1.502 . S
C552 H538 0.960 . S
C552 H539 0.961 . S
C552 H540 0.959 . S
C552 C550 1.561 . S
C553 C550 1.526 . S
C553 C554 1.396 . S
C553 C558 1.390 . S
C554 C548 1.465 . S
C554 C553 1.396 . S
C554 C555 1.399 . S
C555 H541 0.929 . S
C555 C554 1.399 . S
C555 C556 1.385 . S
C556 H542 0.931 . S
C556 C555 1.385 . S
C556 C557 1.389 . S
C557 C556 1.389 . S
C557 C558 1.387 . S
C558 H543 0.930 . S
C558 C553 1.390 . S
C558 C557 1.387 . S
H559 C571 0.930 . S
H560 C573 0.930 . S
H561 C574 0.930 . S
H562 C578 0.959 . S
H563 C578 0.959 . S
H564 C578 0.961 . S
H565 C579 0.960 . S
H566 C579 0.961 1_545 S
H567 C579 0.959 . S
H568 C582 0.929 . S
H569 C583 0.931 . S
H570 C585 0.930 . S
C571 H559 0.930 . S
C571 C572 1.399 . S
C571 C576 1.399 . S
C572 C571 1.399 . S
C572 C573 1.376 . S
C573 H560 0.930 . S
C573 C572 1.376 . S
C573 C574 1.388 . S
C574 H561 0.930 . S
C574 C573 1.388 . S
C574 C575 1.390 . S
C575 C574 1.390 . S
C575 C576 1.394 . S
C575 C581 1.465 1_565 S
C576 C571 1.399 . S
C576 C575 1.394 . S
C576 C577 1.516 1_565 S
C577 C576 1.516 1_545 S
C577 C578 1.502 . S
C577 C579 1.561 1_545 S
C577 C580 1.526 . S
C578 H562 0.959 . S
C578 H563 0.959 . S
C578 H564 0.961 . S
C578 C577 1.502 . S
C579 H565 0.960 . S
C579 H566 0.961 1_565 S
C579 H567 0.959 . S
C579 C577 1.561 1_565 S
C580 C577 1.526 . S
C580 C581 1.396 . S
C580 C585 1.390 . S
C581 C575 1.465 1_545 S
C581 C580 1.396 . S
C581 C582 1.399 . S
C582 H568 0.929 . S
C582 C581 1.399 . S
C582 C583 1.385 . S
C583 H569 0.931 . S
C583 C582 1.385 . S
C583 C584 1.389 . S
C584 C583 1.389 . S
C584 C585 1.387 . S
C585 H570 0.930 . S
C585 C580 1.390 . S
C585 C584 1.387 . S
H586 C598 0.930 . S
H587 C600 0.930 . S
H588 C601 0.937 . S
H589 C605 0.959 . S
H590 C605 0.959 . S
H591 C605 0.961 . S
H592 C606 0.960 . S
H593 C606 0.961 1_455 S
H594 C606 0.959 . S
H595 C609 0.929 . S
H596 C610 0.931 . S
H597 C612 0.930 . S
C598 H586 0.930 . S
C598 C599 1.399 . S
C598 C603 1.399 . S
C599 C598 1.399 . S
C599 C600 1.376 . S
C600 H587 0.930 . S
C600 C599 1.376 . S
C600 C601 1.388 . S
C601 H588 0.937 . S
C601 C600 1.388 . S
C601 C602 1.390 . S
C602 C601 1.390 . S
C602 C603 1.394 . S
C602 C608 1.465 1_665 S
C603 C598 1.399 . S
C603 C602 1.394 . S
C603 C604 1.516 1_655 S
C604 C603 1.516 1_455 S
C604 C605 1.502 . S
C604 C606 1.561 1_465 S
C604 C607 1.526 1_565 S
C605 H589 0.959 . S
C605 H590 0.959 . S
C605 H591 0.961 . S
C605 C604 1.502 . S
C606 H592 0.960 . S
C606 H593 0.961 1_655 S
C606 H594 0.959 . S
C606 C604 1.561 1_645 S
C607 C604 1.526 1_545 S
C607 C608 1.396 . S
C607 C612 1.390 . S
C608 C602 1.465 1_445 S
C608 C607 1.396 . S
C608 C609 1.399 . S
C609 H595 0.929 . S
C609 C608 1.399 . S
C609 C610 1.385 . S
C610 H596 0.931 . S
C610 C609 1.385 . S
C610 C611 1.389 . S
C611 C610 1.389 . S
C611 C612 1.387 . S
C612 H597 0.930 . S
C612 C607 1.390 . S
C612 C611 1.387 . S
H613 C625 0.930 . S
H614 C627 0.930 . S
H615 C628 0.930 . S
H616 C632 0.959 . S
H617 C632 0.959 . S
H618 C632 0.961 . S
H619 C633 0.960 . S
H620 C633 0.961 . S
H621 C633 0.959 . S
H622 C636 0.929 . S
H623 C637 0.931 . S
H624 C639 0.930 . S
C625 H613 0.930 . S
C625 C626 1.399 . S
C625 C630 1.399 . S
C626 C625 1.399 . S
C626 C627 1.376 . S
C627 H614 0.930 . S
C627 C626 1.376 . S
C627 C628 1.388 . S
C628 H615 0.930 . S
C628 C627 1.388 . S
C628 C629 1.390 . S
C629 C628 1.390 . S
C629 C630 1.394 . S
C629 C635 1.465 1_455 S
C630 C625 1.399 . S
C630 C629 1.394 . S
C630 C631 1.516 . S
C631 C630 1.516 . S
C631 C632 1.502 . S
C631 C633 1.561 1_455 S
C631 C634 1.526 1_455 S
C632 H616 0.959 . S
C632 H617 0.959 . S
C632 H618 0.961 . S
C632 C631 1.502 . S
C633 H619 0.960 . S
C633 H620 0.961 . S
C633 H621 0.959 . S
C633 C631 1.561 1_655 S
C634 C631 1.526 1_655 S
C634 C635 1.396 . S
C634 C639 1.390 . S
C635 C629 1.465 1_655 S
C635 C634 1.396 . S
C635 C636 1.399 . S
C636 H622 0.929 . S
C636 C635 1.399 . S
C636 C637 1.385 . S
C637 H623 0.931 . S
C637 C636 1.385 . S
C637 C638 1.389 . S
C638 C637 1.389 . S
C638 C639 1.387 . S
C639 H624 0.930 . S
C639 C634 1.390 . S
C639 C638 1.387 . S
H640 C652 0.930 . S
H641 C654 0.930 . S
H642 C655 0.930 1_565 S
H643 C659 0.959 . S
H644 C659 0.959 . S
H645 C659 0.961 . S
H646 C660 0.960 . S
H647 C660 0.961 . S
H648 C660 0.959 . S
H649 C663 0.929 1_565 S
H650 C664 0.931 . S
H651 C666 0.930 . S
C652 H640 0.930 . S
C652 C653 1.399 . S
C652 C657 1.399 . S
C653 C652 1.399 . S
C653 C654 1.376 . S
C654 H641 0.930 . S
C654 C653 1.376 . S
C654 C655 1.388 . S
C655 H642 0.930 1_545 S
C655 C654 1.388 . S
C655 C656 1.390 . S
C656 C655 1.390 . S
C656 C657 1.394 . S
C656 C662 1.465 . S
C657 C652 1.399 . S
C657 C656 1.394 . S
C657 C658 1.516 . S
C658 C657 1.516 . S
C658 C659 1.502 . S
C658 C660 1.561 . S
C658 C661 1.526 . S
C659 H643 0.959 . S
C659 H644 0.959 . S
C659 H645 0.961 . S
C659 C658 1.502 . S
C660 H646 0.960 . S
C660 H647 0.961 . S
C660 H648 0.959 . S
C660 C658 1.561 . S
C661 C658 1.526 . S
C661 C662 1.396 . S
C661 C666 1.390 . S
C662 C656 1.465 . S
C662 C661 1.396 . S
C662 C663 1.399 . S
C663 H649 0.929 1_545 S
C663 C662 1.399 . S
C663 C664 1.385 . S
C664 H650 0.931 . S
C664 C663 1.385 . S
C664 C665 1.389 . S
C665 C664 1.389 . S
C665 C666 1.387 . S
C666 H651 0.930 . S
C666 C661 1.390 . S
C666 C665 1.387 . S
H667 C679 0.930 . S
H668 C681 0.930 . S
H669 C682 0.930 . S
H670 C686 0.959 1_455 S
H671 C686 0.959 . S
H672 C686 0.961 . S
H673 C687 0.960 . S
H674 C687 0.961 . S
H675 C687 0.959 . S
H676 C690 0.929 . S
H677 C691 0.931 . S
H678 C693 0.930 . S
C679 H667 0.930 . S
C679 C680 1.399 . S
C679 C684 1.399 . S
C680 C679 1.399 . S
C680 C681 1.376 . S
C681 H668 0.930 . S
C681 C680 1.376 . S
C681 C682 1.388 . S
C682 H669 0.930 . S
C682 C681 1.388 . S
C682 C683 1.390 . S
C683 C682 1.390 . S
C683 C684 1.394 . S
C683 C689 1.465 . S
C684 C679 1.399 . S
C684 C683 1.394 . S
C684 C685 1.516 . S
C685 C684 1.516 . S
C685 C686 1.502 . S
C685 C687 1.561 . S
C685 C688 1.526 . S
C686 H670 0.959 1_655 S
C686 H671 0.959 . S
C686 H672 0.961 . S
C686 C685 1.502 . S
C687 H673 0.960 . S
C687 H674 0.961 . S
C687 H675 0.959 . S
C687 C685 1.561 . S
C688 C685 1.526 . S
C688 C689 1.396 . S
C688 C693 1.390 . S
C689 C683 1.465 . S
C689 C688 1.396 . S
C689 C690 1.399 . S
C690 H676 0.929 . S
C690 C689 1.399 . S
C690 C691 1.385 . S
C691 H677 0.931 . S
C691 C690 1.385 . S
C691 C692 1.389 . S
C692 C691 1.389 . S
C692 C693 1.387 . S
C693 H678 0.930 . S
C693 C688 1.390 . S
C693 C692 1.387 . S
H694 C706 0.930 . S
H695 C708 0.930 . S
H696 C709 0.930 . S
H697 C713 0.959 . S
H698 C713 0.959 . S
H699 C713 0.961 . S
H700 C714 0.960 . S
H701 C714 0.961 . S
H702 C714 0.959 . S
H703 C717 0.929 . S
H704 C718 0.931 . S
H705 C720 0.930 . S
C706 H694 0.930 . S
C706 C707 1.399 . S
C706 C711 1.399 . S
C707 C706 1.399 . S
C707 C708 1.376 . S
C708 H695 0.930 . S
C708 C707 1.376 . S
C708 C709 1.388 . S
C709 H696 0.930 . S
C709 C708 1.388 . S
C709 C710 1.390 . S
C710 C709 1.390 . S
C710 C711 1.394 . S
C710 C716 1.465 . S
C711 C706 1.399 . S
C711 C710 1.394 . S
C711 C712 1.516 . S
C712 C711 1.516 . S
C712 C713 1.502 . S
C712 C714 1.561 . S
C712 C715 1.526 . S
C713 H697 0.959 . S
C713 H698 0.959 . S
C713 H699 0.961 . S
C713 C712 1.502 . S
C714 H700 0.960 . S
C714 H701 0.961 . S
C714 H702 0.959 . S
C714 C712 1.561 . S
C715 C712 1.526 . S
C715 C716 1.396 . S
C715 C720 1.390 . S
C716 C710 1.465 . S
C716 C715 1.396 . S
C716 C717 1.399 . S
C717 H703 0.929 . S
C717 C716 1.399 . S
C717 C718 1.385 . S
C718 H704 0.931 . S
C718 C717 1.385 . S
C718 C719 1.389 . S
C719 C718 1.389 . S
C719 C720 1.387 . S
C720 H705 0.930 . S
C720 C715 1.390 . S
C720 C719 1.387 . S
H721 C733 0.930 . S
H722 C735 0.930 . S
H723 C736 0.930 . S
H724 C740 0.959 . S
H725 C740 0.959 . S
H726 C740 0.961 . S
H727 C741 0.960 . S
H728 C741 0.961 . S
H729 C741 0.959 . S
H730 C744 0.929 . S
H731 C745 0.931 . S
H732 C747 0.930 . S
C733 H721 0.930 . S
C733 C734 1.399 . S
C733 C738 1.399 . S
C734 C733 1.399 . S
C734 C735 1.376 . S
C735 H722 0.930 . S
C735 C734 1.376 . S
C735 C736 1.388 . S
C736 H723 0.930 . S
C736 C735 1.388 . S
C736 C737 1.390 . S
C737 C736 1.390 . S
C737 C738 1.394 . S
C737 C743 1.465 . S
C738 C733 1.399 . S
C738 C737 1.394 . S
C738 C739 1.516 . S
C739 C738 1.516 . S
C739 C740 1.502 . S
C739 C741 1.561 . S
C739 C742 1.526 . S
C740 H724 0.959 . S
C740 H725 0.959 . S
C740 H726 0.961 . S
C740 C739 1.502 . S
C741 H727 0.960 . S
C741 H728 0.961 . S
C741 H729 0.959 . S
C741 C739 1.561 . S
C742 C739 1.526 . S
C742 C743 1.396 . S
C742 C747 1.390 . S
C743 C737 1.465 . S
C743 C742 1.396 . S
C743 C744 1.399 . S
C744 H730 0.929 . S
C744 C743 1.399 . S
C744 C745 1.385 . S
C745 H731 0.931 . S
C745 C744 1.385 . S
C745 C746 1.389 . S
C746 C745 1.389 . S
C746 C747 1.387 . S
C747 H732 0.930 . S
C747 C742 1.390 . S
C747 C746 1.387 . S
H748 C760 0.930 . S
H749 C762 0.930 . S
H750 C763 0.930 . S
H751 C767 0.959 . S
H752 C767 0.959 . S
H753 C767 0.961 . S
H754 C768 0.960 . S
H755 C768 0.961 . S
H756 C768 0.959 . S
H757 C771 0.929 . S
H758 C772 0.931 . S
H759 C774 0.930 . S
C760 H748 0.930 . S
C760 C761 1.399 . S
C760 C765 1.399 . S
C761 C760 1.399 . S
C761 C762 1.376 . S
C762 H749 0.930 . S
C762 C761 1.376 . S
C762 C763 1.388 . S
C763 H750 0.930 . S
C763 C762 1.388 . S
C763 C764 1.390 . S
C764 C763 1.390 . S
C764 C765 1.394 . S
C764 C770 1.465 . S
C765 C760 1.399 . S
C765 C764 1.394 . S
C765 C766 1.516 . S
C766 C765 1.516 . S
C766 C767 1.502 . S
C766 C768 1.561 . S
C766 C769 1.526 . S
C767 H751 0.959 . S
C767 H752 0.959 . S
C767 H753 0.961 . S
C767 C766 1.502 . S
C768 H754 0.960 . S
C768 H755 0.961 . S
C768 H756 0.959 . S
C768 C766 1.561 . S
C769 C766 1.526 . S
C769 C770 1.396 . S
C769 C774 1.390 . S
C770 C764 1.465 . S
C770 C769 1.396 . S
C770 C771 1.399 . S
C771 H757 0.929 . S
C771 C770 1.399 . S
C771 C772 1.385 . S
C772 H758 0.931 . S
C772 C771 1.385 . S
C772 C773 1.389 . S
C773 C772 1.389 . S
C773 C774 1.387 . S
C774 H759 0.930 . S
C774 C769 1.390 . S
C774 C773 1.387 . S
H775 C787 0.930 . S
H776 C789 0.930 . S
H777 C790 0.930 . S
H778 C794 0.959 . S
H779 C794 0.959 . S
H780 C794 0.961 . S
H781 C795 0.960 . S
H782 C795 0.961 . S
H783 C795 0.959 . S
H784 C798 0.929 . S
H785 C799 0.931 . S
H786 C801 0.930 . S
C787 H775 0.930 . S
C787 C788 1.399 . S
C787 C792 1.399 . S
C788 C787 1.399 . S
C788 C789 1.376 . S
C789 H776 0.930 . S
C789 C788 1.376 . S
C789 C790 1.388 . S
C790 H777 0.930 . S
C790 C789 1.388 . S
C790 C791 1.390 . S
C791 C790 1.390 . S
C791 C792 1.394 . S
C791 C797 1.465 . S
C792 C787 1.399 . S
C792 C791 1.394 . S
C792 C793 1.516 . S
C793 C792 1.516 . S
C793 C794 1.502 . S
C793 C795 1.561 . S
C793 C796 1.526 . S
C794 H778 0.959 . S
C794 H779 0.959 . S
C794 H780 0.961 . S
C794 C793 1.502 . S
C795 H781 0.960 . S
C795 H782 0.961 . S
C795 H783 0.959 . S
C795 C793 1.561 . S
C796 C793 1.526 . S
C796 C797 1.396 . S
C796 C801 1.390 . S
C797 C791 1.465 . S
C797 C796 1.396 . S
C797 C798 1.399 . S
C798 H784 0.929 . S
C798 C797 1.399 . S
C798 C799 1.385 . S
C799 H785 0.931 . S
C799 C798 1.385 . S
C799 C800 1.389 . S
C800 C799 1.389 . S
C800 C801 1.387 . S
C801 H786 0.930 . S
C801 C796 1.390 . S
C801 C800 1.387 . S
H802 C814 0.930 . S
H803 C816 0.930 . S
H804 C817 0.930 1_545 S
H805 C821 0.959 . S
H806 C821 0.959 . S
H807 C821 0.961 . S
H808 C822 0.960 . S
H809 C822 0.961 . S
H810 C822 0.959 . S
H811 C825 0.929 1_545 S
H812 C826 0.931 . S
H813 C828 0.930 . S
C814 H802 0.930 . S
C814 C815 1.399 . S
C814 C819 1.399 . S
C815 C814 1.399 . S
C815 C816 1.376 . S
C816 H803 0.930 . S
C816 C815 1.376 . S
C816 C817 1.388 . S
C817 H804 0.930 1_565 S
C817 C816 1.388 . S
C817 C818 1.390 . S
C818 C817 1.390 . S
C818 C819 1.394 . S
C818 C824 1.465 . S
C819 C814 1.399 . S
C819 C818 1.394 . S
C819 C820 1.516 . S
C820 C819 1.516 . S
C820 C821 1.502 . S
C820 C822 1.561 . S
C820 C823 1.526 . S
C821 H805 0.959 . S
C821 H806 0.959 . S
C821 H807 0.961 . S
C821 C820 1.502 . S
C822 H808 0.960 . S
C822 H809 0.961 . S
C822 H810 0.959 . S
C822 C820 1.561 . S
C823 C820 1.526 . S
C823 C824 1.396 . S
C823 C828 1.390 . S
C824 C818 1.465 . S
C824 C823 1.396 . S
C824 C825 1.399 . S
C825 H811 0.929 1_565 S
C825 C824 1.399 . S
C825 C826 1.385 . S
C826 H812 0.931 . S
C826 C825 1.385 . S
C826 C827 1.389 . S
C827 C826 1.389 . S
C827 C828 1.387 . S
C828 H813 0.930 . S
C828 C823 1.390 . S
C828 C827 1.387 . S
H829 C841 0.930 . S
H830 C843 0.930 . S
H831 C844 0.930 1_655 S
H832 C848 0.959 . S
H833 C848 0.959 . S
H834 C848 0.961 . S
H835 C849 0.960 . S
H836 C849 0.961 . S
H837 C849 0.959 . S
H838 C852 0.929 1_655 S
H839 C853 0.931 . S
H840 C855 0.930 . S
C841 H829 0.930 . S
C841 C842 1.399 . S
C841 C846 1.399 . S
C842 C841 1.399 . S
C842 C843 1.376 . S
C843 H830 0.930 . S
C843 C842 1.376 . S
C843 C844 1.388 . S
C844 H831 0.930 1_455 S
C844 C843 1.388 . S
C844 C845 1.390 . S
C845 C844 1.390 . S
C845 C846 1.394 . S
C845 C851 1.465 . S
C846 C841 1.399 . S
C846 C845 1.394 . S
C846 C847 1.516 . S
C847 C846 1.516 . S
C847 C848 1.502 . S
C847 C849 1.561 . S
C847 C850 1.526 . S
C848 H832 0.959 . S
C848 H833 0.959 . S
C848 H834 0.961 . S
C848 C847 1.502 . S
C849 H835 0.960 . S
C849 H836 0.961 . S
C849 H837 0.959 . S
C849 C847 1.561 . S
C850 C847 1.526 . S
C850 C851 1.396 . S
C850 C855 1.390 . S
C851 C845 1.465 . S
C851 C850 1.396 . S
C851 C852 1.399 . S
C852 H838 0.929 1_455 S
C852 C851 1.399 . S
C852 C853 1.385 . S
C853 H839 0.931 . S
C853 C852 1.385 . S
C853 C854 1.389 . S
C854 C853 1.389 . S
C854 C855 1.387 . S
C855 H840 0.930 . S
C855 C850 1.390 . S
C855 C854 1.387 . S
H856 C868 0.930 . S
H857 C870 0.930 . S
H858 C871 0.930 . S
H859 C875 0.959 . S
H860 C875 0.959 . S
H861 C875 0.961 . S
H862 C876 0.960 . S
H863 C876 0.961 . S
H864 C876 0.959 . S
H865 C879 0.929 . S
H866 C880 0.931 . S
H867 C882 0.930 . S
C868 H856 0.930 . S
C868 C869 1.399 . S
C868 C873 1.399 . S
C869 C868 1.399 . S
C869 C870 1.376 . S
C870 H857 0.930 . S
C870 C869 1.376 . S
C870 C871 1.388 . S
C871 H858 0.930 . S
C871 C870 1.388 . S
C871 C872 1.390 . S
C872 C871 1.390 . S
C872 C873 1.394 . S
C872 C878 1.465 . S
C873 C868 1.399 . S
C873 C872 1.394 . S
C873 C874 1.516 . S
C874 C873 1.516 . S
C874 C875 1.502 . S
C874 C876 1.561 . S
C874 C877 1.526 . S
C875 H859 0.959 . S
C875 H860 0.959 . S
C875 H861 0.961 . S
C875 C874 1.502 . S
C876 H862 0.960 . S
C876 H863 0.961 . S
C876 H864 0.959 . S
C876 C874 1.561 . S
C877 C874 1.526 . S
C877 C878 1.396 . S
C877 C882 1.390 . S
C878 C872 1.465 . S
C878 C877 1.396 . S
C878 C879 1.399 . S
C879 H865 0.929 . S
C879 C878 1.399 . S
C879 C880 1.385 . S
C880 H866 0.931 . S
C880 C879 1.385 . S
C880 C881 1.389 . S
C881 C880 1.389 . S
C881 C882 1.387 . S
C882 H867 0.930 . S
C882 C877 1.390 . S
C882 C881 1.387 . S
H883 C895 0.930 . S
H884 C897 0.930 . S
H885 C898 0.930 . S
H886 C902 0.959 . S
H887 C902 0.959 . S
H888 C902 0.961 . S
H889 C903 0.960 . S
H890 C903 0.961 . S
H891 C903 0.959 . S
H892 C906 0.929 . S
H893 C907 0.931 . S
H894 C909 0.930 . S
C895 H883 0.930 . S
C895 C896 1.399 . S
C895 C900 1.399 . S
C896 C895 1.399 . S
C896 C897 1.376 . S
C897 H884 0.930 . S
C897 C896 1.376 . S
C897 C898 1.388 . S
C898 H885 0.930 . S
C898 C897 1.388 . S
C898 C899 1.390 . S
C899 C898 1.390 . S
C899 C900 1.394 . S
C899 C905 1.465 . S
C900 C895 1.399 . S
C900 C899 1.394 . S
C900 C901 1.516 . S
C901 C900 1.516 . S
C901 C902 1.502 . S
C901 C903 1.561 . S
C901 C904 1.526 . S
C902 H886 0.959 . S
C902 H887 0.959 . S
C902 H888 0.961 . S
C902 C901 1.502 . S
C903 H889 0.960 . S
C903 H890 0.961 . S
C903 H891 0.959 . S
C903 C901 1.561 . S
C904 C901 1.526 . S
C904 C905 1.396 . S
C904 C909 1.390 . S
C905 C899 1.465 . S
C905 C904 1.396 . S
C905 C906 1.399 . S
C906 H892 0.929 . S
C906 C905 1.399 . S
C906 C907 1.385 . S
C907 H893 0.931 . S
C907 C906 1.385 . S
C907 C908 1.389 . S
C908 C907 1.389 . S
C908 C909 1.387 . S
C909 H894 0.930 . S
C909 C904 1.390 . S
C909 C908 1.387 . S
H910 C922 0.930 . S
H911 C924 0.930 . S
H912 C925 0.930 . S
H913 C929 0.959 . S
H914 C929 0.959 . S
H915 C929 0.961 . S
H916 C930 0.960 . S
H917 C930 0.961 . S
H918 C930 0.959 . S
H919 C933 0.929 . S
H920 C934 0.931 . S
H921 C936 0.930 . S
C922 H910 0.930 . S
C922 C923 1.399 . S
C922 C927 1.399 . S
C923 C922 1.399 . S
C923 C924 1.376 . S
C924 H911 0.930 . S
C924 C923 1.376 . S
C924 C925 1.388 . S
C925 H912 0.930 . S
C925 C924 1.388 . S
C925 C926 1.390 . S
C926 C925 1.390 . S
C926 C927 1.394 . S
C926 C932 1.465 . S
C927 C922 1.399 . S
C927 C926 1.394 . S
C927 C928 1.516 . S
C928 C927 1.516 . S
C928 C929 1.502 . S
C928 C930 1.561 . S
C928 C931 1.526 . S
C929 H913 0.959 . S
C929 H914 0.959 . S
C929 H915 0.961 . S
C929 C928 1.502 . S
C930 H916 0.960 . S
C930 H917 0.961 . S
C930 H918 0.959 . S
C930 C928 1.561 . S
C931 C928 1.526 . S
C931 C932 1.396 . S
C931 C936 1.390 . S
C932 C926 1.465 . S
C932 C931 1.396 . S
C932 C933 1.399 . S
C933 H919 0.929 . S
C933 C932 1.399 . S
C933 C934 1.385 . S
C934 H920 0.931 . S
C934 C933 1.385 . S
C934 C935 1.389 . S
C935 C934 1.389 . S
C935 C936 1.387 . S
C936 H921 0.930 . S
C936 C931 1.390 . S
C936 C935 1.387 . S
H937 C949 0.930 . S
H938 C951 0.930 . S
H939 C952 0.930 . S
H940 C956 0.959 . S
H941 C956 0.959 . S
H942 C956 0.961 1_556 S
H943 C957 0.960 . S
H944 C957 0.961 . S
H945 C957 0.959 . S
H946 C960 0.929 . S
H947 C961 0.931 . S
H948 C963 0.930 . S
C949 H937 0.930 . S
C949 C950 1.399 . S
C949 C954 1.399 . S
C950 C949 1.399 . S
C950 C951 1.376 . S
C951 H938 0.930 . S
C951 C950 1.376 . S
C951 C952 1.388 . S
C952 H939 0.930 . S
C952 C951 1.388 . S
C952 C953 1.390 . S
C953 C952 1.390 . S
C953 C954 1.394 . S
C953 C959 1.465 1_556 S
C954 C949 1.399 . S
C954 C953 1.394 . S
C954 C955 1.516 . S
C955 C954 1.516 . S
C955 C956 1.502 1_556 S
C955 C957 1.561 . S
C955 C958 1.526 1_556 S
C956 H940 0.959 . S
C956 H941 0.959 . S
C956 H942 0.961 1_554 S
C956 C955 1.502 1_554 S
C957 H943 0.960 . S
C957 H944 0.961 . S
C957 H945 0.959 . S
C957 C955 1.561 . S
C958 C955 1.526 1_554 S
C958 C959 1.396 . S
C958 C963 1.390 . S
C959 C953 1.465 1_554 S
C959 C958 1.396 . S
C959 C960 1.399 . S
C960 H946 0.929 . S
C960 C959 1.399 . S
C960 C961 1.385 . S
C961 H947 0.931 . S
C961 C960 1.385 . S
C961 C962 1.389 . S
C962 C961 1.389 . S
C962 C963 1.387 . S
C963 H948 0.930 . S
C963 C958 1.390 . S
C963 C962 1.387 . S
H964 C976 0.930 . S
H965 C978 0.930 . S
H966 C979 0.930 . S
H967 C983 0.959 . S
H968 C983 0.903 1_556 S
H969 C983 0.961 . S
H970 C984 1.030 . S
H971 C984 0.961 . S
H972 C984 0.959 . S
H973 C987 0.929 . S
H974 C988 0.931 . S
H975 C990 0.930 . S
C976 H964 0.930 . S
C976 C977 1.399 . S
C976 C981 1.399 . S
C977 C976 1.399 . S
C977 C978 1.376 . S
C978 H965 0.930 . S
C978 C977 1.376 . S
C978 C979 1.388 . S
C979 H966 0.930 . S
C979 C978 1.388 . S
C979 C980 1.390 . S
C980 C979 1.390 . S
C980 C981 1.394 . S
C980 C986 1.465 1_554 S
C981 C976 1.399 . S
C981 C980 1.394 . S
C981 C982 1.501 1_554 S
C982 C981 1.501 1_556 S
C982 C983 1.492 1_556 S
C982 C984 1.572 . S
C982 C985 1.541 . S
C983 H967 0.959 . S
C983 H968 0.903 1_554 S
C983 H969 0.961 . S
C983 C982 1.492 1_554 S
C984 H970 1.030 . S
C984 H971 0.961 . S
C984 H972 0.959 . S
C984 C982 1.572 . S
C985 C982 1.541 . S
C985 C986 1.396 . S
C985 C990 1.390 . S
C986 C980 1.465 1_556 S
C986 C985 1.396 . S
C986 C987 1.399 . S
C987 H973 0.929 . S
C987 C986 1.399 . S
C987 C988 1.385 . S
C988 H974 0.931 . S
C988 C987 1.385 . S
C988 C989 1.389 . S
C989 C988 1.389 . S
C989 C990 1.387 . S
C990 H975 0.930 . S
C990 C985 1.390 . S
C990 C989 1.387 . S
H991 C1003 0.930 . S
H992 C1005 0.930 . S
H993 C1006 0.930 . S
H994 C1010 0.959 . S
H995 C1010 0.959 . S
H996 C1010 0.961 . S
H997 C1011 0.960 . S
H998 C1011 0.961 . S
H999 C1011 0.959 . S
H1000 C1014 0.929 . S
H1001 C1015 0.931 . S
H1002 C1017 0.930 . S
C1003 H991 0.930 . S
C1003 C1004 1.399 . S
C1003 C1008 1.399 . S
C1004 C1003 1.399 . S
C1004 C1005 1.376 . S
C1005 H992 0.930 . S
C1005 C1004 1.376 . S
C1005 C1006 1.388 . S
C1006 H993 0.930 . S
C1006 C1005 1.388 . S
C1006 C1007 1.390 . S
C1007 C1006 1.390 . S
C1007 C1008 1.394 . S
C1007 C1013 1.465 . S
C1008 C1003 1.399 . S
C1008 C1007 1.394 . S
C1008 C1009 1.516 . S
C1009 C1008 1.516 . S
C1009 C1010 1.502 . S
C1009 C1011 1.561 . S
C1009 C1012 1.526 . S
C1010 H994 0.959 . S
C1010 H995 0.959 . S
C1010 H996 0.961 . S
C1010 C1009 1.502 . S
C1011 H997 0.960 . S
C1011 H998 0.961 . S
C1011 H999 0.959 . S
C1011 C1009 1.561 . S
C1012 C1009 1.526 . S
C1012 C1013 1.396 . S
C1012 C1017 1.390 . S
C1013 C1007 1.465 . S
C1013 C1012 1.396 . S
C1013 C1014 1.399 . S
C1014 H1000 0.929 . S
C1014 C1013 1.399 . S
C1014 C1015 1.385 . S
C1015 H1001 0.931 . S
C1015 C1014 1.385 . S
C1015 C1016 1.389 . S
C1016 C1015 1.389 . S
C1016 C1017 1.387 . S
C1017 H1002 0.930 . S
C1017 C1012 1.390 . S
C1017 C1016 1.387 . S
H1018 C1030 0.930 . S
H1019 C1032 0.930 . S
H1020 C1033 0.930 . S
H1021 C1037 0.959 . S
H1022 C1037 0.959 . S
H1023 C1037 0.961 . S
H1024 C1038 0.960 . S
H1025 C1038 0.961 . S
H1026 C1038 0.959 . S
H1027 C1041 0.929 . S
H1028 C1042 0.931 . S
H1029 C1044 0.930 . S
C1030 H1018 0.930 . S
C1030 C1031 1.399 . S
C1030 C1035 1.399 . S
C1031 C1030 1.399 . S
C1031 C1032 1.376 . S
C1032 H1019 0.930 . S
C1032 C1031 1.376 . S
C1032 C1033 1.388 . S
C1033 H1020 0.930 . S
C1033 C1032 1.388 . S
C1033 C1034 1.390 . S
C1034 C1033 1.390 . S
C1034 C1035 1.394 . S
C1034 C1040 1.465 . S
C1035 C1030 1.399 . S
C1035 C1034 1.394 . S
C1035 C1036 1.516 . S
C1036 C1035 1.516 . S
C1036 C1037 1.502 . S
C1036 C1038 1.561 . S
C1036 C1039 1.526 . S
C1037 H1021 0.959 . S
C1037 H1022 0.959 . S
C1037 H1023 0.961 . S
C1037 C1036 1.502 . S
C1038 H1024 0.960 . S
C1038 H1025 0.961 . S
C1038 H1026 0.959 . S
C1038 C1036 1.561 . S
C1039 C1036 1.526 . S
C1039 C1040 1.396 . S
C1039 C1044 1.390 . S
C1040 C1034 1.465 . S
C1040 C1039 1.396 . S
C1040 C1041 1.399 . S
C1041 H1027 0.929 . S
C1041 C1040 1.399 . S
C1041 C1042 1.385 . S
C1042 H1028 0.931 . S
C1042 C1041 1.385 . S
C1042 C1043 1.389 . S
C1043 C1042 1.389 . S
C1043 C1044 1.387 . S
C1044 H1029 0.930 . S
C1044 C1039 1.390 . S
C1044 C1043 1.387 . S
H1045 C1057 0.930 . S
H1046 C1059 0.930 . S
H1047 C1060 0.930 . S
H1048 C1064 0.959 . S
H1049 C1064 0.959 . S
H1050 C1064 0.961 . S
H1051 C1065 0.960 . S
H1052 C1065 0.961 . S
H1053 C1065 0.959 . S
H1054 C1068 0.929 . S
H1055 C1069 0.931 . S
H1056 C1071 0.930 . S
C1057 H1045 0.930 . S
C1057 C1058 1.399 . S
C1057 C1062 1.399 . S
C1058 C1057 1.399 . S
C1058 C1059 1.376 . S
C1059 H1046 0.930 . S
C1059 C1058 1.376 . S
C1059 C1060 1.388 . S
C1060 H1047 0.930 . S
C1060 C1059 1.388 . S
C1060 C1061 1.390 . S
C1061 C1060 1.390 . S
C1061 C1062 1.394 . S
C1061 C1067 1.465 . S
C1062 C1057 1.399 . S
C1062 C1061 1.394 . S
C1062 C1063 1.516 . S
C1063 C1062 1.516 . S
C1063 C1064 1.502 . S
C1063 C1065 1.561 . S
C1063 C1066 1.526 . S
C1064 H1048 0.959 . S
C1064 H1049 0.959 . S
C1064 H1050 0.961 . S
C1064 C1063 1.502 . S
C1065 H1051 0.960 . S
C1065 H1052 0.961 . S
C1065 H1053 0.959 . S
C1065 C1063 1.561 . S
C1066 C1063 1.526 . S
C1066 C1067 1.396 . S
C1066 C1071 1.390 . S
C1067 C1061 1.465 . S
C1067 C1066 1.396 . S
C1067 C1068 1.399 . S
C1068 H1054 0.929 . S
C1068 C1067 1.399 . S
C1068 C1069 1.385 . S
C1069 H1055 0.931 . S
C1069 C1068 1.385 . S
C1069 C1070 1.389 . S
C1070 C1069 1.389 . S
C1070 C1071 1.387 . S
C1071 H1056 0.930 . S
C1071 C1066 1.390 . S
C1071 C1070 1.387 . S
C221 C133 2.037 . S
C233 C3 1.969 . S
C248 C18 2.136 . S
C260 C148 2.148 . S
C275 C107 1.957 . S
C287 C29 2.035 . S
C302 C122 2.131 . S
C314 C44 2.153 . S
C329 C55 2.028 . S
C341 C185 1.979 . S
C356 C200 2.131 . S
C368 C70 2.155 . S
C383 C81 2.033 . S
C395 C159 1.974 . S
C410 C174 2.164 . S
C422 C96 2.142 . S
C437 C131 1.623 . S
C449 C1 1.703 . S
C464 C23 1.784 . S
C476 C153 1.753 . S
C491 C27 1.666 . S
C503 C105 1.688 . S
C518 C49 1.779 . S
C530 C127 1.755 . S
C545 C53 1.637 . S
C557 C183 1.682 . S
C572 C75 1.747 . S
C584 C205 1.777 . S
C599 C157 1.634 . S
C611 C79 1.688 . S
C626 C179 1.747 . S
C638 C101 1.778 . S
C653 C10 1.614 . S
C665 C88 1.607 . S
C680 C14 1.582 . S
C692 C92 1.573 . S
C707 C36 1.605 . S
C719 C62 1.620 . S
C734 C40 1.601 . S
C746 C66 1.611 . S
C761 C114 1.616 . S
C773 C192 1.606 . S
C788 C196 1.605 . S
C800 C118 1.614 . S
C815 C140 1.615 . S
C827 C166 1.607 . S
C842 C170 1.615 . S
C854 C144 1.607 . S
C869 C5 1.722 . S
C881 C198 1.690 . S
C896 C161 1.734 . S
C908 C16 1.659 . S
C923 C172 1.713 . S
C935 C31 1.728 . S
C950 C187 1.721 . S
C962 C42 1.693 . S
C977 C120 1.688 . S
C989 C57 1.743 . S
C1004 C135 1.723 . S
C1016 C68 1.684 . S
C1031 C83 1.730 . S
C1043 C146 1.668 . S
C1058 C94 1.645 . S
C1070 C109 1.746 . S
