# Generated by pormake.
# Topology zfo, (5)-cn, num edge types: 1
# Building blocks:
#     Node 0, Type 0, BuildingBlock: XOMCOT_clean_sbu_0, # of connection points: 5
#     Node 1, Type 0, BuildingBlock: XOMCOT_clean_sbu_0, # of connection points: 5
#     Node 2, Type 0, BuildingBlock: XOMCOT_clean_sbu_0, # of connection points: 5
#     Node 3, Type 0, BuildingBlock: XOMCOT_clean_sbu_0, # of connection points: 5
#     Node 4, Type 0, BuildingBlock: XOMCOT_clean_sbu_0, # of connection points: 5
#     Node 5, Type 0, BuildingBlock: XOMCOT_clean_sbu_0, # of connection points: 5
#     Node 6, Type 0, BuildingBlock: XOMCOT_clean_sbu_0, # of connection points: 5
#     Node 7, Type 0, BuildingBlock: XOMCOT_clean_sbu_0, # of connection points: 5
#     Node 8, Type 0, BuildingBlock: XOMCOT_clean_sbu_0, # of connection points: 5
#     Node 9, Type 0, BuildingBlock: XOMCOT_clean_sbu_0, # of connection points: 5
#     Node 10, Type 0, BuildingBlock: XOMCOT_clean_sbu_0, # of connection points: 5
#     Node 11, Type 0, BuildingBlock: XOMCOT_clean_sbu_0, # of connection points: 5
#     Node 12, Type 0, BuildingBlock: XOMCOT_clean_sbu_0, # of connection points: 5
#     Node 13, Type 0, BuildingBlock: XOMCOT_clean_sbu_0, # of connection points: 5
#     Node 14, Type 0, BuildingBlock: XOMCOT_clean_sbu_0, # of connection points: 5
#     Node 15, Type 0, BuildingBlock: XOMCOT_clean_sbu_0, # of connection points: 5
#     Edge 16, Type (0, 0), BuildingBlock: OJICUG_clean_linker_0, # of connection points: 2
#     Edge 17, Type (0, 0), BuildingBlock: OJICUG_clean_linker_0, # of connection points: 2
#     Edge 18, Type (0, 0), BuildingBlock: OJICUG_clean_linker_0, # of connection points: 2
#     Edge 19, Type (0, 0), BuildingBlock: OJICUG_clean_linker_0, # of connection points: 2
#     Edge 20, Type (0, 0), BuildingBlock: OJICUG_clean_linker_0, # of connection points: 2
#     Edge 21, Type (0, 0), BuildingBlock: OJICUG_clean_linker_0, # of connection points: 2
#     Edge 22, Type (0, 0), BuildingBlock: OJICUG_clean_linker_0, # of connection points: 2
#     Edge 23, Type (0, 0), BuildingBlock: OJICUG_clean_linker_0, # of connection points: 2
#     Edge 24, Type (0, 0), BuildingBlock: OJICUG_clean_linker_0, # of connection points: 2
#     Edge 25, Type (0, 0), BuildingBlock: OJICUG_clean_linker_0, # of connection points: 2
#     Edge 26, Type (0, 0), BuildingBlock: OJICUG_clean_linker_0, # of connection points: 2
#     Edge 27, Type (0, 0), BuildingBlock: OJICUG_clean_linker_0, # of connection points: 2
#     Edge 28, Type (0, 0), BuildingBlock: OJICUG_clean_linker_0, # of connection points: 2
#     Edge 29, Type (0, 0), BuildingBlock: OJICUG_clean_linker_0, # of connection points: 2
#     Edge 30, Type (0, 0), BuildingBlock: OJICUG_clean_linker_0, # of connection points: 2
#     Edge 31, Type (0, 0), BuildingBlock: OJICUG_clean_linker_0, # of connection points: 2
#     Edge 32, Type (0, 0), BuildingBlock: OJICUG_clean_linker_0, # of connection points: 2
#     Edge 33, Type (0, 0), BuildingBlock: OJICUG_clean_linker_0, # of connection points: 2
#     Edge 34, Type (0, 0), BuildingBlock: OJICUG_clean_linker_0, # of connection points: 2
#     Edge 35, Type (0, 0), BuildingBlock: OJICUG_clean_linker_0, # of connection points: 2
#     Edge 36, Type (0, 0), BuildingBlock: OJICUG_clean_linker_0, # of connection points: 2
#     Edge 37, Type (0, 0), BuildingBlock: OJICUG_clean_linker_0, # of connection points: 2
#     Edge 38, Type (0, 0), BuildingBlock: OJICUG_clean_linker_0, # of connection points: 2
#     Edge 39, Type (0, 0), BuildingBlock: OJICUG_clean_linker_0, # of connection points: 2
#     Edge 40, Type (0, 0), BuildingBlock: OJICUG_clean_linker_0, # of connection points: 2
#     Edge 41, Type (0, 0), BuildingBlock: OJICUG_clean_linker_0, # of connection points: 2
#     Edge 42, Type (0, 0), BuildingBlock: OJICUG_clean_linker_0, # of connection points: 2
#     Edge 43, Type (0, 0), BuildingBlock: OJICUG_clean_linker_0, # of connection points: 2
#     Edge 44, Type (0, 0), BuildingBlock: OJICUG_clean_linker_0, # of connection points: 2
#     Edge 45, Type (0, 0), BuildingBlock: OJICUG_clean_linker_0, # of connection points: 2
#     Edge 46, Type (0, 0), BuildingBlock: OJICUG_clean_linker_0, # of connection points: 2
#     Edge 47, Type (0, 0), BuildingBlock: OJICUG_clean_linker_0, # of connection points: 2
#     Edge 48, Type (0, 0), BuildingBlock: OJICUG_clean_linker_0, # of connection points: 2
#     Edge 49, Type (0, 0), BuildingBlock: OJICUG_clean_linker_0, # of connection points: 2
#     Edge 50, Type (0, 0), BuildingBlock: OJICUG_clean_linker_0, # of connection points: 2
#     Edge 51, Type (0, 0), BuildingBlock: OJICUG_clean_linker_0, # of connection points: 2
#     Edge 52, Type (0, 0), BuildingBlock: OJICUG_clean_linker_0, # of connection points: 2
#     Edge 53, Type (0, 0), BuildingBlock: OJICUG_clean_linker_0, # of connection points: 2
#     Edge 54, Type (0, 0), BuildingBlock: OJICUG_clean_linker_0, # of connection points: 2
#     Edge 55, Type (0, 0), BuildingBlock: OJICUG_clean_linker_0, # of connection points: 2
# Relax obj value: 0.197
# Max RMSD: 0.189
# Mean RMSD: 0.189
data_MOF--net-zfo--node1-XOMCOT_clean_sbu_0--edge1-OJICUG_clean_linker_0
_symmetry_space_group_name_H-M    P1
_symmetry_Int_Tables_number       1
_symmetry_cell_setting            triclinic
loop_
_symmetry_equiv_pos_as_xyz
'x, y, z'
_cell_length_a     25.732367
_cell_length_b     25.809639
_cell_length_c     43.4821
_cell_angle_alpha  89.995484
_cell_angle_beta   90.009372
_cell_angle_gamma 90.004447
loop_
_atom_site_label
_atom_site_type_symbol
_atom_site_fract_x
_atom_site_fract_y
_atom_site_fract_z
_atom_type_partial_charge
Co0 Co 0.12442 0.19057 0.18407 0.0
C1 C 0.23624 0.2077 0.17622 0.0
C2 C 0.221 0.14631 0.20826 0.0
C3 C 0.27332 0.15783 0.20919 0.0
N4 N 0.19798 0.17764 0.18758 0.0
N5 N 0.2827 0.19663 0.18912 0.0
H6 H 0.22943 0.23949 0.16049 0.0
H7 H 0.20068 0.11936 0.22303 0.0
C8 C 0.08141 0.09021 0.20535 0.0
O9 O 0.06034 0.11647 0.22803 0.0
N10 N 0.05028 0.20328 0.18087 0.0
C11 C 0.01643 0.17272 0.16563 0.0
C12 C 0.96703 0.19152 0.16991 0.0
C13 C 0.02098 0.2411 0.19368 0.0
N14 N 0.9701 0.23439 0.18744 0.0
C15 C 0.11071 0.2276 0.12299 0.0
C16 C 0.15174 0.14225 0.09309 0.0
C17 C 0.13178 0.18332 0.07548 0.0
C18 C 0.11158 0.22661 0.09093 0.0
C19 C 0.15003 0.14477 0.12524 0.0
N20 N 0.12893 0.18676 0.13967 0.0
H21 H 0.09475 0.26105 0.1346 0.0
H22 H 0.1656 0.11297 0.13853 0.0
H23 H 0.02692 0.13865 0.15255 0.0
H24 H 0.0359 0.27221 0.2078 0.0
O25 O 0.13819 0.26355 0.18896 0.0
O26 O 0.1239 0.20898 0.2274 0.0
O27 O 0.11035 0.11367 0.18599 0.0
C28 C 0.13655 0.25561 0.21843 0.0
H29 H 0.3019 0.13999 0.22408 0.0
H30 H 0.93149 0.17517 0.16075 0.0
H31 H 0.16769 0.10806 0.08217 0.0
H32 H 0.09677 0.25969 0.07836 0.0
Co33 Co 0.80555 0.11657 0.6825 0.0
C34 C 0.82654 0.22599 0.67905 0.0
C35 C 0.86534 0.19395 0.71822 0.0
C36 C 0.86647 0.24753 0.72041 0.0
N37 N 0.84012 0.18082 0.69216 0.0
N38 N 0.84173 0.26725 0.69569 0.0
H39 H 0.80077 0.22856 0.65947 0.0
H40 H 0.87781 0.16679 0.73567 0.0
C41 C 0.89164 0.03973 0.67138 0.0
O42 O 0.86315 0.02077 0.64897 0.0
N43 N 0.76765 0.05309 0.67311 0.0
C44 C 0.72652 0.04998 0.65392 0.0
C45 C 0.70551 1.00155 0.65543 0.0
C46 C 0.76944 1.00617 0.68721 0.0
N47 N 0.73235 0.97379 0.67619 0.0
C48 C 0.77812 0.14735 0.62069 0.0
C49 C 0.8748 0.13573 0.59422 0.0
C50 C 0.83239 0.14739 0.57516 0.0
C51 C 0.78386 0.15481 0.58908 0.0
C52 C 0.86724 0.12911 0.62594 0.0
N53 N 0.81843 0.13033 0.63851 0.0
H54 H 0.74098 0.15618 0.63082 0.0
H55 H 0.90106 0.12385 0.64019 0.0
H56 H 0.70992 0.08108 0.64086 0.0
H57 H 0.797 0.99604 0.70503 0.0
O58 O 0.73978 0.15236 0.68711 0.0
O59 O 0.78135 0.11246 0.72476 0.0
O60 O 0.87424 0.07764 0.68741 0.0
C61 C 0.74201 0.14076 0.71615 0.0
H62 H 0.88196 0.27003 0.73929 0.0
H63 H 0.67166 0.98818 0.64293 0.0
H64 H 0.91364 0.13256 0.58481 0.0
H65 H 0.75009 0.16555 0.57565 0.0
Co66 Co 0.92586 0.79898 0.18354 0.0
C67 C 0.81501 0.82004 0.1856 0.0
C68 C 0.85661 0.87619 0.21238 0.0
C69 C 0.80399 0.88266 0.21749 0.0
N70 N 0.86317 0.83693 0.19229 0.0
N71 N 0.77829 0.84663 0.20097 0.0
H72 H 0.80711 0.78704 0.17097 0.0
H73 H 0.88773 0.89628 0.22408 0.0
C74 C 1.00929 0.88176 0.17702 0.0
O75 O 0.03066 0.85539 0.15448 0.0
N76 N 0.98797 0.75869 0.17531 0.0
C77 C 0.99064 0.71603 0.1574 0.0
C78 C 0.03785 0.69254 0.16155 0.0
C79 C 0.0336 0.75968 0.19075 0.0
N80 N 0.06478 0.7199 0.18248 0.0
C81 C 0.89567 0.77289 0.12173 0.0
C82 C 0.91684 0.86715 0.09452 0.0
C83 C 0.90159 0.82565 0.07569 0.0
C84 C 0.8897 0.77842 0.08996 0.0
C85 C 0.92197 0.85994 0.12639 0.0
N86 N 0.91501 0.81215 0.13944 0.0
H87 H 0.88465 0.73651 0.13197 0.0
H88 H 0.93076 0.89328 0.14033 0.0
H89 H 0.95981 0.7007 0.14341 0.0
H90 H 0.0431 0.78778 0.20835 0.0
O91 O 0.88709 0.73481 0.18776 0.0
O92 O 0.92692 0.77524 0.22585 0.0
O93 O 0.96779 0.86497 0.18986 0.0
C94 C 0.89758 0.73698 0.21697 0.0
H95 H 0.78625 0.90949 0.23349 0.0
H96 H 0.0513 0.65774 0.15014 0.0
H97 H 0.92402 0.90511 0.08479 0.0
H98 H 0.87673 0.74536 0.07668 0.0
Co99 Co 0.20156 0.9178 0.68183 0.0
C100 C 0.18756 0.80649 0.67975 0.0
C101 C 0.14664 0.83831 0.71824 0.0
C102 C 0.14862 0.78496 0.72147 0.0
N103 N 0.17123 0.85155 0.692 0.0
N104 N 0.17459 0.76528 0.69718 0.0
H105 H 0.21322 0.80433 0.6601 0.0
H106 H 0.1324 0.86562 0.73512 0.0
C107 C 0.11231 0.99079 0.67165 0.0
O108 O 0.14024 1.01163 0.6496 0.0
N109 N 0.23515 0.98365 0.67229 0.0
C110 C 0.27296 0.99128 0.65117 0.0
C111 C 0.29629 0.03813 0.65625 0.0
C112 C 0.23657 0.02668 0.6902 0.0
N113 N 0.27378 0.06021 0.6808 0.0
C114 C 0.22929 0.88716 0.62025 0.0
C115 C 0.13176 0.89406 0.59425 0.0
C116 C 0.17434 0.88357 0.57511 0.0
C117 C 0.22337 0.87855 0.58878 0.0
C118 C 0.13953 0.90192 0.62583 0.0
N119 N 0.18854 0.90291 0.6381 0.0
H120 H 0.26727 0.8814 0.63015 0.0
H121 H 0.10574 0.90634 0.64019 0.0
H122 H 0.28614 0.96404 0.63429 0.0
H123 H 0.21315 0.03192 0.71064 0.0
O124 O 0.26944 0.88641 0.68575 0.0
O125 O 0.22643 0.92344 0.72389 0.0
O126 O 0.13089 0.95281 0.68717 0.0
C127 C 0.26732 0.89791 0.71478 0.0
H128 H 0.13424 0.76274 0.7408 0.0
H129 H 0.32852 0.05423 0.6434 0.0
H130 H 0.0927 0.89551 0.585 0.0
H131 H 0.25738 0.86916 0.57521 0.0
Co132 Co 0.63064 0.33476 0.83765 0.0
C133 C 0.74005 0.32225 0.81998 0.0
C134 C 0.71932 0.4024 0.81782 0.0
C135 C 0.7717 0.39745 0.81092 0.0
N136 N 0.6996 0.35489 0.82357 0.0
N137 N 0.78422 0.34674 0.81214 0.0
H138 H 0.7384 0.28127 0.82483 0.0
H139 H 0.69795 0.43835 0.81941 0.0
C140 C 0.57737 0.4308 0.81517 0.0
O141 O 0.55906 0.40414 0.79184 0.0
N142 N 0.56274 0.31291 0.8523 0.0
C143 C 0.55389 0.29066 0.87991 0.0
C144 C 0.50329 0.27463 0.88138 0.0
C145 C 0.51727 0.30828 0.83685 0.0
N146 N 0.4802 0.28546 0.85437 0.0
C147 C 0.69055 0.31643 0.89213 0.0
C148 C 0.64025 0.38824 0.92878 0.0
C149 C 0.67781 0.35593 0.94209 0.0
C150 C 0.70377 0.32026 0.92322 0.0
C151 C 0.62812 0.38314 0.89768 0.0
N152 N 0.65264 0.34705 0.87982 0.0
H153 H 0.70951 0.28745 0.87821 0.0
H154 H 0.59657 0.4061 0.88867 0.0
H155 H 0.58277 0.28371 0.89745 0.0
H156 H 0.51186 0.31954 0.81311 0.0
O157 O 0.64906 0.26247 0.83362 0.0
O158 O 0.61518 0.31005 0.79642 0.0
O159 O 0.60692 0.40895 0.8348 0.0
C160 C 0.63513 0.26592 0.80497 0.0
H161 H 0.79856 0.42868 0.8061 0.0
H162 H 0.48566 0.25363 0.90025 0.0
H163 H 0.61827 0.41542 0.94259 0.0
H164 H 0.73321 0.2947 0.93253 0.0
Co165 Co 0.70228 0.61413 0.33735 0.0
C166 C 0.68686 0.725 0.33486 0.0
C167 C 0.65184 0.68943 0.29553 0.0
C168 C 0.6535 0.74256 0.29086 0.0
N169 N 0.67287 0.67875 0.32325 0.0
N170 N 0.67564 0.76451 0.31578 0.0
H171 H 0.70978 0.72937 0.35549 0.0
H172 H 0.64025 0.66057 0.27885 0.0
C173 C 0.61288 0.54136 0.34823 0.0
O174 O 0.63983 0.52241 0.37128 0.0
N175 N 0.735 0.54995 0.3512 0.0
C176 C 0.7633 0.54332 0.37706 0.0
C177 C 0.78559 0.49543 0.37681 0.0
C178 C 0.74164 0.50526 0.3352 0.0
N179 N 0.7721 0.47113 0.35065 0.0
C180 C 0.72573 0.65516 0.39754 0.0
C181 C 0.62793 0.64562 0.42285 0.0
C182 C 0.66939 0.65965 0.44208 0.0
C183 C 0.71842 0.66638 0.42865 0.0
C184 C 0.63704 0.63525 0.39165 0.0
N185 N 0.68644 0.63527 0.37995 0.0
H186 H 0.76416 0.66 0.38804 0.0
H187 H 0.60396 0.62762 0.3772 0.0
H188 H 0.77008 0.57112 0.39487 0.0
H189 H 0.72504 0.49817 0.31273 0.0
O190 O 0.77053 0.64485 0.33326 0.0
O191 O 0.72966 0.60253 0.29628 0.0
O192 O 0.63188 0.57842 0.3321 0.0
C193 C 0.76993 0.62951 0.30481 0.0
H194 H 0.64146 0.76306 0.27034 0.0
H195 H 0.81159 0.48046 0.39425 0.0
H196 H 0.58875 0.64277 0.43179 0.0
H197 H 0.75164 0.67813 0.44225 0.0
Co198 Co 0.42529 0.72425 0.83329 0.0
C199 C 0.31444 0.70276 0.83234 0.0
C200 C 0.35561 0.64649 0.80543 0.0
C201 C 0.30291 0.63974 0.80075 0.0
N202 N 0.36249 0.68599 0.82531 0.0
N203 N 0.2775 0.67584 0.81736 0.0
H204 H 0.30673 0.73594 0.84685 0.0
H205 H 0.38651 0.62644 0.7935 0.0
C206 C 0.5082 0.64141 0.83982 0.0
O207 O 0.52978 0.66814 0.86215 0.0
N208 N 0.48764 0.76483 0.84069 0.0
C209 C 0.49032 0.80845 0.85778 0.0
C210 C 0.53758 0.83163 0.8533 0.0
C211 C 0.53338 0.76299 0.82536 0.0
N212 N 0.5646 0.80316 0.83296 0.0
C213 C 0.39822 0.75141 0.89525 0.0
C214 C 0.42044 0.65772 0.92288 0.0
C215 C 0.40859 0.70042 0.94161 0.0
C216 C 0.39526 0.74707 0.92716 0.0
C217 C 0.42281 0.66386 0.89078 0.0
N218 N 0.41596 0.71151 0.87751 0.0
H219 H 0.38636 0.78746 0.88496 0.0
H220 H 0.4301 0.63007 0.8769 0.0
H221 H 0.45942 0.82466 0.87136 0.0
H222 H 0.54295 0.73399 0.80829 0.0
O223 O 0.38627 0.78814 0.82958 0.0
O224 O 0.42477 0.74791 0.79093 0.0
O225 O 0.46695 0.65829 0.8268 0.0
C226 C 0.39575 0.78612 0.80028 0.0
H227 H 0.28487 0.61278 0.78494 0.0
H228 H 0.55101 0.867 0.86409 0.0
H229 H 0.42894 0.62024 0.93287 0.0
H230 H 0.38271 0.78031 0.94043 0.0
Co231 Co 0.30639 0.41339 0.33561 0.0
C232 C 0.31921 0.30222 0.33105 0.0
C233 C 0.37472 0.34024 0.30201 0.0
C234 C 0.37554 0.28761 0.29568 0.0
N235 N 0.33934 0.34902 0.32429 0.0
N236 N 0.33976 0.26435 0.31366 0.0
H237 H 0.28755 0.29637 0.34706 0.0
H238 H 0.39554 0.37015 0.28969 0.0
C239 C 0.39282 0.48973 0.34644 0.0
O240 O 0.36423 0.5086 0.36882 0.0
N241 N 0.27019 0.47713 0.34671 0.0
C242 C 0.23423 0.48184 0.36915 0.0
C243 C 0.21379 0.53063 0.36857 0.0
C244 C 0.2694 0.52345 0.33189 0.0
N245 N 0.23582 0.55703 0.34533 0.0
C246 C 0.28136 0.37713 0.39622 0.0
C247 C 0.37686 0.39353 0.42335 0.0
C248 C 0.33415 0.38157 0.44206 0.0
C249 C 0.28672 0.3704 0.4278 0.0
C250 C 0.36964 0.39942 0.39155 0.0
N251 N 0.32095 0.39683 0.37888 0.0
H252 H 0.24421 0.36825 0.38608 0.0
H253 H 0.40338 0.40626 0.3775 0.0
H254 H 0.22107 0.4518 0.38431 0.0
H255 H 0.29295 0.53239 0.31196 0.0
O256 O 0.23986 0.37953 0.332 0.0
O257 O 0.27994 0.41906 0.29373 0.0
O258 O 0.37551 0.45173 0.3304 0.0
C259 C 0.2409 0.39082 0.303 0.0
H260 H 0.39803 0.26853 0.27795 0.0
H261 H 0.1836 0.5452 0.38361 0.0
H262 H 0.41501 0.39982 0.43319 0.0
H263 H 0.25343 0.35771 0.44107 0.0
Co264 Co 0.92564 0.79948 0.83396 0.0
C265 C 0.81475 0.82039 0.83182 0.0
C266 C 0.85634 0.87657 0.80506 0.0
C267 C 0.80372 0.88295 0.79987 0.0
N268 N 0.86291 0.83736 0.82518 0.0
N269 N 0.77804 0.84689 0.81638 0.0
H270 H 0.80686 0.78738 0.84645 0.0
H271 H 0.88745 0.8967 0.79338 0.0
C272 C 1.00903 0.88231 0.84045 0.0
O273 O 0.03051 0.85591 0.86295 0.0
N274 N 0.9878 0.75927 0.84222 0.0
C275 C 0.99056 0.71671 0.86021 0.0
C276 C 0.03774 0.69319 0.85604 0.0
C277 C 0.03335 0.76017 0.82671 0.0
N278 N 0.06456 0.72043 0.835 0.0
C279 C 0.89533 0.77332 0.89573 0.0
C280 C 0.91672 0.86744 0.92304 0.0
C281 C 0.9014 0.82591 0.94183 0.0
C282 C 0.8894 0.77875 0.9275 0.0
C283 C 0.92182 0.86033 0.89116 0.0
N284 N 0.91474 0.8126 0.87807 0.0
H285 H 0.88427 0.73698 0.88546 0.0
H286 H 0.93068 0.89369 0.87726 0.0
H287 H 0.95979 0.70146 0.87428 0.0
H288 H 0.04277 0.78818 0.80903 0.0
O289 O 0.88697 0.73527 0.82971 0.0
O290 O 0.92676 0.77579 0.79165 0.0
O291 O 0.96748 0.86553 0.82767 0.0
C292 C 0.89747 0.73749 0.80051 0.0
H293 H 0.78599 0.90971 0.78383 0.0
H294 H 0.05125 0.65845 0.86748 0.0
H295 H 0.92399 0.90536 0.93281 0.0
H296 H 0.87639 0.74567 0.94075 0.0
Co297 Co 0.20175 0.91757 0.33523 0.0
C298 C 0.18747 0.80631 0.33734 0.0
C299 C 0.14675 0.83819 0.29878 0.0
C300 C 0.14862 0.78483 0.29557 0.0
N301 N 0.17129 0.85139 0.32505 0.0
N302 N 0.17446 0.76512 0.31991 0.0
H303 H 0.21306 0.8041 0.35702 0.0
H304 H 0.13264 0.86551 0.28187 0.0
C305 C 0.1126 0.99068 0.34541 0.0
O306 O 0.14054 1.01144 0.36749 0.0
N307 N 0.23547 0.98334 0.34478 0.0
C308 C 0.27356 0.99077 0.36576 0.0
C309 C 0.29686 0.03764 0.36071 0.0
C310 C 0.23672 0.02651 0.32698 0.0
N311 N 0.27406 0.05994 0.33632 0.0
C312 C 0.22941 0.88696 0.39684 0.0
C313 C 0.13185 0.89396 0.42278 0.0
C314 C 0.17441 0.88347 0.44195 0.0
C315 C 0.22345 0.8784 0.42831 0.0
C316 C 0.13965 0.90176 0.39121 0.0
N317 N 0.18868 0.90272 0.37896 0.0
H318 H 0.26737 0.88109 0.38695 0.0
H319 H 0.10588 0.90619 0.37682 0.0
H320 H 0.28696 0.96335 0.38249 0.0
H321 H 0.21305 0.03192 0.30665 0.0
O322 O 0.26956 0.88604 0.33134 0.0
O323 O 0.22665 0.92319 0.29318 0.0
O324 O 0.13115 0.95272 0.32987 0.0
C325 C 0.26748 0.89759 0.30231 0.0
H326 H 0.13426 0.76263 0.27623 0.0
H327 H 0.32928 0.0536 0.37347 0.0
H328 H 0.09278 0.89544 0.43201 0.0
H329 H 0.25744 0.869 0.4419 0.0
Co330 Co 0.12428 0.19108 0.8333 0.0
C331 C 0.23614 0.20799 0.84104 0.0
C332 C 0.22069 0.14666 0.809 0.0
C333 C 0.27302 0.15812 0.808 0.0
N334 N 0.1978 0.178 0.82972 0.0
N335 N 0.28253 0.19688 0.82807 0.0
H336 H 0.22945 0.23978 0.85678 0.0
H337 H 0.20026 0.11976 0.79424 0.0
C338 C 0.08103 0.09078 0.81206 0.0
O339 O 0.05989 0.11706 0.7894 0.0
N340 N 0.05018 0.20393 0.83655 0.0
C341 C 0.01629 0.17344 0.85181 0.0
C342 C 0.96691 0.19232 0.84754 0.0
C343 C 0.02092 0.24179 0.82373 0.0
N344 N 0.97004 0.23516 0.82998 0.0
C345 C 0.11076 0.22803 0.89441 0.0
C346 C 0.15172 0.14254 0.92423 0.0
C347 C 0.13181 0.18358 0.94188 0.0
C348 C 0.11165 0.22694 0.92647 0.0
C349 C 0.14998 0.14516 0.89208 0.0
N350 N 0.1289 0.1872 0.87769 0.0
H351 H 0.09482 0.26152 0.88283 0.0
H352 H 0.16549 0.11337 0.87877 0.0
H353 H 0.02674 0.13935 0.86489 0.0
H354 H 0.03587 0.27283 0.80958 0.0
O355 O 0.13818 0.26403 0.82841 0.0
O356 O 0.12368 0.20952 0.78997 0.0
O357 O 0.11006 0.11421 0.83138 0.0
C358 C 0.13646 0.25611 0.79894 0.0
H359 H 0.30151 0.14026 0.79307 0.0
H360 H 0.93135 0.17602 0.85669 0.0
H361 H 0.16763 0.1083 0.93512 0.0
H362 H 0.09688 0.26 0.93907 0.0
Co363 Co 0.80585 0.11652 0.33431 0.0
C364 C 0.82693 0.22591 0.3379 0.0
C365 C 0.86566 0.19403 0.29867 0.0
C366 C 0.86687 0.24762 0.29658 0.0
N367 N 0.84044 0.18079 0.32471 0.0
N368 N 0.84218 0.26724 0.32134 0.0
H369 H 0.80117 0.2284 0.35747 0.0
H370 H 0.87809 0.16695 0.28117 0.0
C371 C 0.89195 0.03972 0.34551 0.0
O372 O 0.86345 0.02079 0.36792 0.0
N373 N 0.76793 0.05303 0.34364 0.0
C374 C 0.72666 0.04994 0.36272 0.0
C375 C 0.70574 1.00147 0.36124 0.0
C376 C 0.76989 1.00605 0.32963 0.0
N377 N 0.73277 0.97367 0.3406 0.0
C378 C 0.77828 0.14715 0.39611 0.0
C379 C 0.87495 0.1357 0.42265 0.0
C380 C 0.83249 0.14729 0.44168 0.0
C381 C 0.78397 0.15461 0.42773 0.0
C382 C 0.86744 0.12907 0.39092 0.0
N383 N 0.81864 0.13022 0.37832 0.0
H384 H 0.74114 0.15596 0.38596 0.0
H385 H 0.90129 0.12387 0.37669 0.0
H386 H 0.70991 0.08108 0.37569 0.0
H387 H 0.79761 0.99587 0.3119 0.0
O388 O 0.7401 0.15231 0.32966 0.0
O389 O 0.78172 0.11247 0.29203 0.0
O390 O 0.87456 0.0776 0.32945 0.0
C391 C 0.74236 0.14073 0.30063 0.0
H392 H 0.88238 0.2702 0.27773 0.0
H393 H 0.67185 0.98808 0.37368 0.0
H394 H 0.91378 0.13259 0.43208 0.0
H395 H 0.75017 0.16531 0.44113 0.0
Co396 Co 0.42557 0.72413 0.18379 0.0
C397 C 0.31474 0.70254 0.18479 0.0
C398 C 0.35603 0.64628 0.21166 0.0
C399 C 0.30335 0.63949 0.21637 0.0
N400 N 0.36283 0.6858 0.19177 0.0
N401 N 0.27787 0.67557 0.19979 0.0
H402 H 0.30696 0.73574 0.17029 0.0
H403 H 0.38698 0.62625 0.22355 0.0
C404 C 0.50853 0.64135 0.17721 0.0
O405 O 0.53007 0.66812 0.15488 0.0
N406 N 0.4879 0.76476 0.1764 0.0
C407 C 0.49057 0.80839 0.15933 0.0
C408 C 0.53783 0.83158 0.16382 0.0
C409 C 0.53362 0.76291 0.19175 0.0
N410 N 0.56484 0.80309 0.18417 0.0
C411 C 0.39846 0.75135 0.12184 0.0
C412 C 0.42062 0.65767 0.09419 0.0
C413 C 0.40874 0.70039 0.07547 0.0
C414 C 0.39545 0.74703 0.08994 0.0
C415 C 0.42304 0.66379 0.12629 0.0
N416 N 0.41621 0.71143 0.13957 0.0
H417 H 0.38661 0.78739 0.13214 0.0
H418 H 0.43035 0.62999 0.14016 0.0
H419 H 0.45968 0.8246 0.14573 0.0
H420 H 0.54319 0.7339 0.20881 0.0
O421 O 0.38652 0.78798 0.18752 0.0
O422 O 0.42508 0.74774 0.22616 0.0
O423 O 0.4673 0.65819 0.19025 0.0
C424 C 0.39601 0.78593 0.21682 0.0
H425 H 0.28539 0.6125 0.2322 0.0
H426 H 0.55126 0.86696 0.15305 0.0
H427 H 0.4291 0.6202 0.08419 0.0
H428 H 0.38287 0.78027 0.07667 0.0
Co429 Co 0.30655 0.41351 0.68173 0.0
C430 C 0.31917 0.30231 0.68636 0.0
C431 C 0.37488 0.34026 0.7153 0.0
C432 C 0.37567 0.28762 0.72163 0.0
N433 N 0.33939 0.34908 0.69309 0.0
N434 N 0.33978 0.26442 0.70371 0.0
H435 H 0.28744 0.29649 0.67038 0.0
H436 H 0.39583 0.37014 0.72757 0.0
C437 C 0.39311 0.48971 0.67088 0.0
O438 O 0.36455 0.50861 0.64849 0.0
N439 N 0.27047 0.47729 0.67057 0.0
C440 C 0.23458 0.48203 0.64809 0.0
C441 C 0.2142 0.53085 0.64863 0.0
C442 C 0.26969 0.52362 0.68538 0.0
N443 N 0.23619 0.55723 0.6719 0.0
C444 C 0.28147 0.37715 0.62113 0.0
C445 C 0.37696 0.39349 0.59399 0.0
C446 C 0.33422 0.38155 0.57529 0.0
C447 C 0.2868 0.3704 0.58956 0.0
C448 C 0.36976 0.39941 0.62579 0.0
N449 N 0.32108 0.39686 0.63846 0.0
H450 H 0.24432 0.36832 0.63128 0.0
H451 H 0.40353 0.40624 0.63983 0.0
H452 H 0.22143 0.45201 0.63291 0.0
H453 H 0.29317 0.53253 0.70534 0.0
O454 O 0.23996 0.37977 0.68534 0.0
O455 O 0.28011 0.41927 0.7236 0.0
O456 O 0.37574 0.45174 0.68693 0.0
C457 C 0.24102 0.39109 0.71434 0.0
H458 H 0.39826 0.2685 0.7393 0.0
H459 H 0.18407 0.54545 0.63355 0.0
H460 H 0.41509 0.39977 0.58414 0.0
H461 H 0.25349 0.35772 0.5763 0.0
Co462 Co 0.63072 0.33458 0.17916 0.0
C463 C 0.74017 0.32183 0.19669 0.0
C464 C 0.71944 0.40194 0.19935 0.0
C465 C 0.77178 0.39684 0.20634 0.0
N466 N 0.69975 0.35455 0.19323 0.0
N467 N 0.78428 0.34616 0.20483 0.0
H468 H 0.73851 0.28092 0.19165 0.0
H469 H 0.69806 0.43791 0.19801 0.0
C470 C 0.57761 0.43064 0.20169 0.0
O471 O 0.55924 0.40393 0.22498 0.0
N472 N 0.56273 0.3129 0.16454 0.0
C473 C 0.55371 0.29086 0.13689 0.0
C474 C 0.50311 0.27483 0.13548 0.0
C475 C 0.51735 0.30815 0.18006 0.0
N476 N 0.48017 0.28546 0.16256 0.0
C477 C 0.69046 0.31616 0.12463 0.0
C478 C 0.64036 0.38822 0.08805 0.0
C479 C 0.67781 0.35582 0.07471 0.0
C480 C 0.70366 0.32002 0.09355 0.0
C481 C 0.62826 0.3831 0.11915 0.0
N482 N 0.65268 0.34688 0.13699 0.0
H483 H 0.70933 0.28707 0.13852 0.0
H484 H 0.59681 0.40615 0.12818 0.0
H485 H 0.58249 0.28402 0.11928 0.0
H486 H 0.51209 0.31923 0.20385 0.0
O487 O 0.64901 0.26226 0.18316 0.0
O488 O 0.6153 0.30986 0.22039 0.0
O489 O 0.60716 0.40882 0.18205 0.0
C490 C 0.63518 0.26571 0.21183 0.0
H491 H 0.7986 0.42796 0.21149 0.0
H492 H 0.48537 0.25396 0.11659 0.0
H493 H 0.61845 0.4155 0.07426 0.0
H494 H 0.73301 0.29439 0.08422 0.0
Co495 Co 0.70233 0.61443 0.68003 0.0
C496 C 0.68636 0.72522 0.68235 0.0
C497 C 0.65174 0.68968 0.7218 0.0
C498 C 0.65324 0.74282 0.72639 0.0
N499 N 0.67263 0.67896 0.69405 0.0
N500 N 0.67514 0.76476 0.70139 0.0
H501 H 0.70916 0.7296 0.66167 0.0
H502 H 0.64038 0.66083 0.73855 0.0
C503 C 0.61316 0.54139 0.66908 0.0
O504 O 0.64019 0.52259 0.64602 0.0
N505 N 0.73536 0.55038 0.66628 0.0
C506 C 0.76486 0.54425 0.64085 0.0
C507 C 0.78697 0.49627 0.64108 0.0
C508 C 0.74123 0.50537 0.68207 0.0
N509 N 0.77224 0.47149 0.66685 0.0
C510 C 0.72574 0.65528 0.61979 0.0
C511 C 0.62797 0.64552 0.59446 0.0
C512 C 0.66942 0.65958 0.57523 0.0
C513 C 0.71843 0.6664 0.58867 0.0
C514 C 0.63709 0.63523 0.62567 0.0
N515 N 0.68649 0.63537 0.63739 0.0
H516 H 0.7641 0.66046 0.62933 0.0
H517 H 0.60402 0.62761 0.64012 0.0
H518 H 0.77273 0.57253 0.62347 0.0
H519 H 0.72368 0.4979 0.70425 0.0
O520 O 0.77044 0.64544 0.68416 0.0
O521 O 0.72967 0.60298 0.72113 0.0
O522 O 0.63206 0.57844 0.68525 0.0
C523 C 0.76986 0.63009 0.71261 0.0
H524 H 0.6413 0.76336 0.74692 0.0
H525 H 0.81374 0.48155 0.62399 0.0
H526 H 0.5888 0.6426 0.5855 0.0
H527 H 0.75163 0.67824 0.57508 0.0
C528 C 0.02744 1.01137 0.21776 0.0
C529 C 0.0661 0.03525 0.19976 0.0
H530 H 0.97924 0.94465 0.2248 0.0
C531 C 0.08763 1.00707 0.17515 0.0
H532 H 1.0099 0.03177 0.23689 0.0
C533 C 0.07009 0.95694 0.16824 0.0
C534 C 0.03028 0.93369 0.18562 0.0
H535 H 0.11748 0.02408 0.16078 0.0
H536 H 0.08704 0.93688 0.1488 0.0
C537 C 1.00967 0.96135 0.21073 0.0
C538 C 0.02807 1.00684 0.645 0.0
C539 C 0.05574 1.00258 0.67274 0.0
H540 H 0.95492 0.02056 0.62305 0.0
C541 C 0.02881 1.00974 0.7006 0.0
H542 H 0.0476 1.00116 0.62318 0.0
C543 C 0.97544 0.02239 0.70051 0.0
C544 C 0.94783 0.02597 0.6726 0.0
H545 H 0.0492 1.0067 0.72232 0.0
H546 H 0.95568 0.02875 0.72218 0.0
C547 C 0.97482 0.01759 0.64495 0.0
C548 C 0.56745 0.56576 0.84991 0.0
C549 C 0.52813 0.58877 0.83207 0.0
H550 H 0.6137 0.49843 0.85861 0.0
C551 C 0.50684 0.5601 0.80753 0.0
H552 H 0.58488 0.58655 0.86893 0.0
C553 C 0.5236 0.50935 0.80148 0.0
C554 C 0.56184 0.48586 0.81995 0.0
H555 H 0.47671 0.57661 0.79317 0.0
H556 H 0.5058 0.48822 0.78271 0.0
C557 C 0.58395 0.51502 0.84399 0.0
C558 C 0.52801 0.52477 0.37391 0.0
C559 C 0.55652 0.52876 0.34648 0.0
H560 H 0.45449 0.51049 0.39516 0.0
C561 C 0.53062 0.52037 0.31837 0.0
H562 H 0.54667 0.53136 0.39591 0.0
C563 C 0.47743 0.5069 0.31796 0.0
C564 C 0.44899 0.50364 0.34559 0.0
H565 H 0.55167 0.52314 0.29686 0.0
H566 H 0.45844 0.49975 0.29614 0.0
C567 C 0.475 0.51313 0.37345 0.0
C568 C 0.02702 1.01193 0.7997 0.0
C569 C 0.06572 0.03582 0.81766 0.0
H570 H 0.97883 0.9452 0.7927 0.0
C571 C 0.08732 1.00764 0.84227 0.0
H572 H 1.00944 0.03232 0.78057 0.0
C573 C 0.06982 0.95751 0.84919 0.0
C574 C 0.02997 0.93425 0.83184 0.0
H575 H 0.11721 0.02466 0.85661 0.0
H576 H 0.08682 0.93746 0.86862 0.0
C577 C 1.00929 0.96191 0.80674 0.0
C578 C 0.02911 1.00954 0.31639 0.0
C579 C 0.05605 1.00256 0.34428 0.0
H580 H 0.95599 0.0284 0.29475 0.0
C581 C 0.02838 1.00704 0.372 0.0
H582 H 0.0495 1.00632 0.29468 0.0
C583 C 0.97513 0.01781 0.37201 0.0
C584 C 0.94814 0.02599 0.34434 0.0
H585 H 0.0479 1.00151 0.39384 0.0
H586 H 0.95524 0.02093 0.3939 0.0
C587 C 0.97575 0.0222 0.31644 0.0
C588 C 0.58423 0.51494 0.17293 0.0
C589 C 0.56212 0.48573 0.19696 0.0
H590 H 0.58517 0.58652 0.14805 0.0
C591 C 0.52392 0.5092 0.21544 0.0
H592 H 0.61396 0.49837 0.15829 0.0
C593 C 0.50719 0.55998 0.20944 0.0
C594 C 0.52847 0.58868 0.18492 0.0
H595 H 0.50614 0.48804 0.23421 0.0
H596 H 0.47708 0.57647 0.22382 0.0
C597 C 0.56775 0.5657 0.16706 0.0
C598 C 0.47766 0.50718 0.69936 0.0
C599 C 0.44931 0.50349 0.67172 0.0
H600 H 0.55182 0.52381 0.72047 0.0
C601 C 0.4754 0.51251 0.64384 0.0
H602 H 0.45859 0.50041 0.7212 0.0
C603 C 0.52842 0.52414 0.64338 0.0
C604 C 0.55684 0.52861 0.67082 0.0
H605 H 0.45495 0.50953 0.62212 0.0
H606 H 0.54713 0.5304 0.62136 0.0
C607 C 0.53085 0.52065 0.69895 0.0
C608 C 0.17419 0.16167 0.02478 0.0
C609 C 0.13144 0.18127 0.04125 0.0
H610 H 0.20823 0.14758 0.98056 0.0
C611 C 0.08833 0.19989 0.02474 0.0
H612 H 0.20821 0.14747 0.03678 0.0
C613 C 0.08834 0.19996 0.99262 0.0
C614 C 0.13146 0.18141 0.9761 0.0
H615 H 0.05428 0.21422 0.03665 0.0
H616 H 0.0543 0.21434 0.98071 0.0
C617 C 0.1742 0.16174 0.99256 0.0
C618 C 0.81036 0.18926 0.49231 0.0
C619 C 0.83805 0.1514 0.47578 0.0
H620 H 0.78786 0.21854 0.53638 0.0
C621 C 0.868 0.11526 0.49231 0.0
H622 H 0.7879 0.21849 0.48037 0.0
C623 C 0.86797 0.11528 0.52457 0.0
C624 C 0.83799 0.15145 0.54106 0.0
H625 H 0.88956 0.08538 0.48035 0.0
H626 H 0.88951 0.08542 0.53657 0.0
C627 C 0.81034 0.18929 0.52448 0.0
C628 C 0.93691 0.85779 0.99262 0.0
C629 C 0.89833 0.83097 0.97607 0.0
H630 H 0.96846 0.87691 0.03687 0.0
C631 C 0.85851 0.80619 0.99267 0.0
H632 H 0.96838 0.87702 0.98066 0.0
C633 C 0.85856 0.80612 0.02486 0.0
C634 C 0.89843 0.83084 0.04146 0.0
H635 H 0.82744 0.7862 0.98077 0.0
H636 H 0.82753 0.78608 0.03676 0.0
C637 C 0.93695 0.85773 0.02491 0.0
C638 C 0.13738 0.91401 0.4924 0.0
C639 C 0.16852 0.87881 0.47595 0.0
H640 H 0.11498 0.9433 0.53659 0.0
C641 C 0.19729 0.84178 0.49248 0.0
H642 H 0.11501 0.94326 0.4804 0.0
C643 C 0.19727 0.8418 0.52462 0.0
C644 C 0.16849 0.87886 0.54112 0.0
H645 H 0.22075 0.81333 0.48055 0.0
H646 H 0.22073 0.81337 0.53658 0.0
C647 C 0.13736 0.91403 0.52463 0.0
C648 C 0.68561 0.4033 0.02448 0.0
C649 C 0.68592 0.35636 0.04088 0.0
H650 H 0.68401 0.44007 0.98035 0.0
C651 C 0.68914 0.30957 0.02445 0.0
H652 H 0.68402 0.44003 0.03649 0.0
C653 C 0.68915 0.30959 0.99232 0.0
C654 C 0.68594 0.35642 0.97591 0.0
H655 H 0.68875 0.2727 0.03634 0.0
H656 H 0.68878 0.27275 0.9804 0.0
C657 C 0.68562 0.40333 0.99234 0.0
C658 C 0.63302 0.62843 0.52476 0.0
C659 C 0.66276 0.66476 0.54127 0.0
H660 H 0.61196 0.59818 0.48059 0.0
C661 C 0.68992 0.70301 0.52475 0.0
H662 H 0.61197 0.59815 0.53669 0.0
C663 C 0.68991 0.70303 0.49257 0.0
C664 C 0.66274 0.6648 0.47603 0.0
H665 H 0.7123 0.7323 0.53669 0.0
H666 H 0.7123 0.73232 0.48063 0.0
C667 C 0.633 0.62845 0.49253 0.0
C668 C 0.43174 0.73955 0.02457 0.0
C669 C 0.41089 0.69771 0.04119 0.0
H670 H 0.44817 0.77263 0.98065 0.0
C671 C 0.39162 0.65482 0.02472 0.0
H672 H 0.44824 0.77262 0.03642 0.0
C673 C 0.39158 0.65483 0.99237 0.0
C674 C 0.41081 0.69773 0.97589 0.0
H675 H 0.37521 0.62197 0.03679 0.0
H676 H 0.37514 0.62198 0.9803 0.0
C677 C 0.4317 0.73956 0.9925 0.0
C678 C 0.29652 0.40639 0.52467 0.0
C679 C 0.33718 0.38308 0.54118 0.0
H680 H 0.2644 0.42481 0.48083 0.0
C681 C 0.37909 0.36144 0.52483 0.0
H682 H 0.26442 0.4248 0.53653 0.0
C683 C 0.37908 0.36145 0.49251 0.0
C684 C 0.33714 0.38309 0.47617 0.0
H685 H 0.41105 0.34334 0.53696 0.0
H686 H 0.41102 0.34335 0.48037 0.0
C687 C 0.2965 0.4064 0.49269 0.0
C688 C 0.18332 0.33866 0.22917 0.0
C689 C 0.15488 0.29581 0.24013 0.0
H690 H 0.23296 0.40272 0.24047 0.0
C691 C 0.14943 0.28908 0.27195 0.0
H692 H 0.18837 0.34484 0.20471 0.0
C693 C 0.17422 0.32282 0.29238 0.0
C694 C 0.20582 0.36344 0.28143 0.0
H695 H 0.12777 0.25654 0.28108 0.0
H696 H 0.17109 0.31503 0.31679 0.0
C697 C 0.20887 0.37194 0.24962 0.0
C698 C 0.71139 0.15521 0.77025 0.0
C699 C 0.70634 0.1653 0.73866 0.0
H700 H 0.69167 0.17833 0.81603 0.0
C701 C 0.67118 0.20385 0.72907 0.0
H702 H 0.73804 0.12578 0.77841 0.0
C703 C 0.64467 0.23425 0.75067 0.0
C704 C 0.65252 0.22653 0.78231 0.0
H705 H 0.66632 0.21261 0.70488 0.0
H706 H 0.62036 0.26566 0.74254 0.0
C707 C 0.6846 0.18534 0.79183 0.0
C708 C 0.80212 0.64079 0.25075 0.0
C709 C 0.80872 0.6491 0.28245 0.0
H710 H 0.82542 0.66178 0.20512 0.0
C711 C 0.84909 0.68185 0.29235 0.0
H712 H 0.77131 0.61593 0.24236 0.0
C713 C 0.88007 0.7082 0.27102 0.0
C714 C 0.87139 0.70235 0.23932 0.0
H715 H 0.85527 0.68909 0.31661 0.0
H716 H 0.90925 0.73494 0.27943 0.0
C717 C 0.83315 0.66714 0.2294 0.0
C718 C 0.33084 0.85593 0.78922 0.0
C719 C 0.36896 0.82123 0.77853 0.0
H720 H 0.26892 0.9078 0.77743 0.0
C721 C 0.37711 0.81668 0.74673 0.0
H722 H 0.32353 0.86027 0.81361 0.0
C723 C 0.34591 0.84409 0.72601 0.0
C724 C 0.30577 0.87647 0.73667 0.0
H725 H 0.40618 0.79034 0.73777 0.0
H726 H 0.3518 0.83806 0.70161 0.0
C727 C 0.2995 0.88322 0.76849 0.0
C728 C 0.87993 0.70884 0.74644 0.0
C729 C 0.8713 0.70288 0.77814 0.0
H730 H 0.85509 0.68983 0.70083 0.0
C731 C 0.8331 0.66762 0.78804 0.0
H732 H 0.90907 0.73562 0.73805 0.0
C733 C 0.80207 0.6413 0.76667 0.0
C734 C 0.80863 0.6497 0.73498 0.0
H735 H 0.82541 0.66218 0.81231 0.0
H736 H 0.7713 0.61638 0.77505 0.0
C737 C 0.84895 0.68252 0.72509 0.0
C738 C 0.34605 0.84373 0.2911 0.0
C739 C 0.30595 0.87614 0.28043 0.0
H740 H 0.40634 0.78999 0.27934 0.0
C741 C 0.29973 0.88297 0.24861 0.0
H742 H 0.35191 0.83764 0.3155 0.0
C743 C 0.3311 0.85573 0.22789 0.0
C744 C 0.3692 0.821 0.23858 0.0
H745 H 0.26917 0.90759 0.23966 0.0
H746 H 0.32383 0.86014 0.20349 0.0
C747 C 0.37729 0.81636 0.27039 0.0
C748 C 0.14935 0.28956 0.74542 0.0
C749 C 0.15485 0.29628 0.77723 0.0
H750 H 0.17103 0.31545 0.70057 0.0
C751 C 0.18338 0.33907 0.78818 0.0
H752 H 0.12762 0.25706 0.7363 0.0
C753 C 0.20899 0.37229 0.76772 0.0
C754 C 0.20589 0.36379 0.73592 0.0
H755 H 0.18847 0.34525 0.81264 0.0
H756 H 0.23315 0.40302 0.77686 0.0
C757 C 0.1742 0.32324 0.72498 0.0
C758 C 0.6714 0.20368 0.28771 0.0
C759 C 0.70664 0.16522 0.27811 0.0
H760 H 0.62042 0.26538 0.27425 0.0
C761 C 0.71169 0.15515 0.24652 0.0
H762 H 0.66653 0.21242 0.3119 0.0
C763 C 0.68481 0.18522 0.22495 0.0
C764 C 0.65264 0.22634 0.23448 0.0
H765 H 0.7384 0.12579 0.23836 0.0
H766 H 0.69188 0.17825 0.20074 0.0
C767 C 0.6448 0.23403 0.26612 0.0
C768 C 0.41807 0.24891 0.20034 0.0
C769 C 0.42859 0.26913 0.171 0.0
H770 H 0.36308 0.2096 0.22918 0.0
C771 C 0.38926 0.26805 0.14859 0.0
H772 H 0.44776 0.249 0.21798 0.0
C773 C 0.34126 0.2453 0.1548 0.0
C774 C 0.33134 0.2228 0.1836 0.0
H775 H 0.3962 0.28378 0.12587 0.0
H776 H 0.31255 0.2437 0.13664 0.0
C777 C 0.36991 0.22569 0.20655 0.0
C778 C 0.81995 0.33551 0.65877 0.0
C779 C 0.82672 0.31997 0.68939 0.0
H780 H 0.79527 0.39421 0.62782 0.0
C781 C 0.81438 0.35507 0.71311 0.0
H782 H 0.82925 0.30952 0.64001 0.0
C783 C 0.7952 0.40473 0.70603 0.0
C784 C 0.78844 0.41985 0.67517 0.0
H785 H 0.81849 0.34381 0.73697 0.0
H786 H 0.78639 0.43137 0.72453 0.0
C787 C 0.80074 0.38436 0.65179 0.0
C788 C 0.6344 0.86467 0.19754 0.0
C789 C 0.61722 0.81329 0.19389 0.0
H790 H 0.69972 0.91551 0.20302 0.0
C791 C 0.65327 0.77276 0.19621 0.0
H792 H 0.60712 0.89653 0.19623 0.0
C793 C 0.70614 0.78369 0.1997 0.0
C794 C 0.72364 0.83528 0.20136 0.0
H795 H 0.64093 0.73291 0.1935 0.0
H796 H 0.73356 0.75188 0.20028 0.0
C797 C 0.68714 0.87555 0.20151 0.0
C798 C 0.21426 0.64527 0.65521 0.0
C799 C 0.22475 0.61046 0.67923 0.0
H800 H 0.18898 0.72075 0.64209 0.0
C801 C 0.21924 0.62749 0.70978 0.0
H802 H 0.21856 0.63337 0.63147 0.0
C803 C 0.20201 0.67819 0.71597 0.0
C804 C 0.19073 0.71256 0.69165 0.0
H805 H 0.22674 0.60126 0.7287 0.0
H806 H 0.19792 0.69056 0.73964 0.0
C807 C 0.19748 0.69544 0.6613 0.0
C808 C 0.92571 0.31966 0.82528 0.0
C809 C 0.92695 0.26603 0.81987 0.0
H810 H 0.87829 0.3881 0.8272 0.0
C811 C 0.88323 0.24166 0.80731 0.0
H812 H 0.95925 0.33902 0.83499 0.0
C813 C 0.83774 0.26957 0.80221 0.0
C814 C 0.83448 0.32223 0.81036 0.0
H815 H 0.88386 0.20051 0.80244 0.0
H816 H 0.8042 0.24924 0.79322 0.0
C817 C 0.87958 0.34764 0.82071 0.0
C818 C 0.69108 0.83666 0.35125 0.0
C819 C 0.68995 0.81777 0.32101 0.0
H820 H 0.7072 0.90022 0.38102 0.0
C821 C 0.70573 0.85063 0.29686 0.0
H822 H 0.67893 0.81253 0.3703 0.0
C823 C 0.72218 0.90159 0.30312 0.0
C824 C 0.72242 0.9202 0.33352 0.0
H825 H 0.70591 0.83681 0.27336 0.0
H826 H 0.73321 0.92677 0.28432 0.0
C827 C 0.70718 0.88694 0.35739 0.0
C828 C 0.13378 0.65804 0.82243 0.0
C829 C 0.11674 0.70961 0.82521 0.0
H830 H 0.19896 0.6069 0.81733 0.0
C831 C 0.15274 0.74998 0.8218 0.0
H832 H 0.10651 0.6263 0.82459 0.0
C833 C 0.20549 0.73883 0.81807 0.0
C834 C 0.22288 0.68717 0.81722 0.0
H835 H 0.14049 0.78997 0.82384 0.0
H836 H 0.23295 0.77055 0.81668 0.0
C837 C 0.18641 0.64692 0.81818 0.0
C838 C 0.26924 0.1996 0.31507 0.0
C839 C 0.32258 0.21135 0.31303 0.0
H840 H 0.21168 0.14081 0.3233 0.0
C841 C 0.3588 0.17088 0.31367 0.0
H842 H 0.24057 0.23026 0.31419 0.0
C843 C 0.34228 0.1201 0.31919 0.0
C844 C 0.28923 0.10889 0.32342 0.0
H845 H 0.39998 0.17907 0.31208 0.0
H846 H 0.37108 0.08982 0.32175 0.0
C847 C 0.25264 0.14861 0.31994 0.0
C848 C 0.63411 0.86476 0.81957 0.0
C849 C 0.61698 0.81337 0.82327 0.0
H850 H 0.69938 0.91566 0.81413 0.0
C851 C 0.65308 0.77287 0.82104 0.0
H852 H 0.60678 0.89658 0.8208 0.0
C853 C 0.70596 0.78386 0.81762 0.0
C854 C 0.7234 0.83547 0.81593 0.0
H855 H 0.64078 0.73302 0.82379 0.0
H856 H 0.73342 0.75208 0.81712 0.0
C857 C 0.68685 0.87569 0.81566 0.0
C858 C 0.21375 0.64506 0.36197 0.0
C859 C 0.22438 0.61025 0.33797 0.0
H860 H 0.18843 0.72055 0.37503 0.0
C861 C 0.21905 0.62729 0.30741 0.0
H862 H 0.2179 0.63315 0.38572 0.0
C863 C 0.20188 0.678 0.30118 0.0
C864 C 0.19048 0.71237 0.32547 0.0
H865 H 0.22666 0.60107 0.2885 0.0
H866 H 0.19795 0.69039 0.2775 0.0
C867 C 0.19703 0.69523 0.35584 0.0
C868 C 0.41787 0.24909 0.81666 0.0
C869 C 0.42856 0.26922 0.846 0.0
H870 H 0.36269 0.20989 0.78789 0.0
C871 C 0.38936 0.26812 0.86848 0.0
H872 H 0.44746 0.24921 0.79897 0.0
C873 C 0.34131 0.24541 0.86233 0.0
C874 C 0.33122 0.223 0.83353 0.0
H875 H 0.39644 0.28376 0.8912 0.0
H876 H 0.3127 0.24378 0.88054 0.0
C877 C 0.36966 0.22592 0.81052 0.0
C878 C 0.81509 0.35528 0.30413 0.0
C879 C 0.82725 0.31995 0.32776 0.0
H880 H 0.7871 0.43165 0.29287 0.0
C881 C 0.82029 0.33522 0.35841 0.0
H882 H 0.81936 0.34424 0.28024 0.0
C883 C 0.80094 0.38395 0.3655 0.0
C884 C 0.78875 0.41967 0.3422 0.0
H885 H 0.82948 0.30907 0.37711 0.0
H886 H 0.7952 0.39347 0.38949 0.0
C887 C 0.79582 0.40487 0.31132 0.0
C888 C 0.13414 0.65762 0.195 0.0
C889 C 0.11703 0.70917 0.19219 0.0
H890 H 0.19939 0.60657 0.20005 0.0
C891 C 0.153 0.74958 0.19547 0.0
H892 H 0.10688 0.62585 0.19295 0.0
C893 C 0.20579 0.7385 0.19911 0.0
C894 C 0.22323 0.68686 0.2 0.0
H895 H 0.14071 0.78955 0.1934 0.0
H896 H 0.23322 0.77025 0.20041 0.0
C897 C 0.18679 0.64657 0.19917 0.0
C898 C 0.26921 0.19971 0.70242 0.0
C899 C 0.32258 0.21142 0.70432 0.0
H900 H 0.21156 0.14101 0.69424 0.0
C901 C 0.35877 0.17094 0.70347 0.0
H902 H 0.24058 0.23038 0.70346 0.0
C903 C 0.34218 0.12021 0.69787 0.0
C904 C 0.28909 0.10905 0.69378 0.0
H905 H 0.39997 0.17911 0.70494 0.0
H906 H 0.37095 0.08994 0.69514 0.0
C907 C 0.25255 0.14876 0.69748 0.0
C908 C 0.87973 0.34697 0.19667 0.0
C909 C 0.83447 0.32154 0.20675 0.0
H910 H 0.95955 0.33833 0.1827 0.0
C911 C 0.83754 0.26881 0.21477 0.0
H912 H 0.87858 0.38748 0.19029 0.0
C913 C 0.88305 0.24087 0.20979 0.0
C914 C 0.92696 0.26526 0.19749 0.0
H915 H 0.80387 0.24848 0.22356 0.0
H916 H 0.88355 0.19968 0.21456 0.0
C917 C 0.92587 0.31894 0.19221 0.0
C918 C 0.72182 0.90185 0.71379 0.0
C919 C 0.72182 0.92038 0.68337 0.0
H920 H 0.70577 0.83715 0.74367 0.0
C921 C 0.70629 0.88709 0.65958 0.0
H922 H 0.7331 0.92705 0.73254 0.0
C923 C 0.69016 0.83685 0.66583 0.0
C924 C 0.68933 0.81803 0.69608 0.0
H925 H 0.70614 0.90027 0.63594 0.0
H926 H 0.67782 0.81266 0.64684 0.0
C927 C 0.70537 0.85093 0.72015 0.0
loop_
_geom_bond_atom_site_label_1
_geom_bond_atom_site_label_2
_geom_bond_distance
_geom_bond_site_symmetry_2
_ccdc_geom_bond_type
Co0 N4 2.148 . S
Co0 N10 2.128 1_455 S
Co0 N20 2.194 . S
Co0 O25 2.351 . S
Co0 O26 2.155 . S
Co0 O27 2.096 . S
C1 N4 1.301 . S
C1 N5 1.328 . S
C1 H6 0.930 . S
C2 C3 1.333 . S
C2 N4 1.317 . S
C2 H7 0.930 . S
C3 C2 1.333 . S
C3 N5 1.350 . S
C3 H29 0.931 . S
N4 Co0 2.148 . S
N4 C1 1.301 . S
N4 C2 1.317 . S
N5 C1 1.328 . S
N5 C3 1.350 . S
H6 C1 0.930 . S
H7 C2 0.930 . S
C8 O9 1.224 . S
C8 O27 1.247 . S
O9 C8 1.224 . S
N10 Co0 2.128 1_655 S
N10 C11 1.355 . S
N10 C13 1.311 . S
C11 N10 1.355 . S
C11 C12 1.363 . S
C11 H23 0.929 . S
C12 C11 1.363 . S
C12 N14 1.375 . S
C12 H30 0.931 . S
C13 N10 1.311 . S
C13 N14 1.347 . S
C13 H24 0.929 . S
N14 C12 1.375 . S
N14 C13 1.347 . S
C15 C18 1.365 . S
C15 N20 1.328 . S
C15 H21 0.929 . S
C16 C17 1.362 . S
C16 C19 1.378 . S
C16 H31 0.929 . S
C17 C16 1.362 . S
C17 C18 1.366 . S
C18 C15 1.365 . S
C18 C17 1.366 . S
C18 H32 0.930 . S
C19 C16 1.378 . S
C19 N20 1.315 . S
C19 H22 0.930 . S
N20 Co0 2.194 . S
N20 C15 1.328 . S
N20 C19 1.315 . S
H21 C15 0.929 . S
H22 C19 0.930 . S
H23 C11 0.929 . S
H24 C13 0.929 . S
O25 Co0 2.351 . S
O25 C28 1.244 . S
O26 Co0 2.155 . S
O26 C28 1.240 . S
O27 Co0 2.096 . S
O27 C8 1.247 . S
C28 O25 1.244 . S
C28 O26 1.240 . S
H29 C3 0.931 . S
H30 C12 0.931 . S
H31 C16 0.929 . S
H32 C18 0.930 . S
Co33 N37 2.148 . S
Co33 N43 2.128 1_545 S
Co33 N53 2.194 . S
Co33 O58 2.351 . S
Co33 O59 2.155 . S
Co33 O60 2.096 . S
C34 N37 1.301 . S
C34 N38 1.328 . S
C34 H39 0.930 . S
C35 C36 1.333 . S
C35 N37 1.317 . S
C35 H40 0.930 . S
C36 C35 1.333 . S
C36 N38 1.350 . S
C36 H62 0.931 . S
N37 Co33 2.148 . S
N37 C34 1.301 . S
N37 C35 1.317 . S
N38 C34 1.328 . S
N38 C36 1.350 . S
H39 C34 0.930 . S
H40 C35 0.930 . S
C41 O42 1.224 . S
C41 O60 1.247 . S
O42 C41 1.224 . S
N43 Co33 2.128 1_565 S
N43 C44 1.355 . S
N43 C46 1.311 . S
C44 N43 1.355 . S
C44 C45 1.363 . S
C44 H56 0.929 . S
C45 C44 1.363 . S
C45 N47 1.375 . S
C45 H63 0.931 . S
C46 N43 1.311 . S
C46 N47 1.347 . S
C46 H57 0.929 . S
N47 C45 1.375 . S
N47 C46 1.347 . S
C48 C51 1.365 . S
C48 N53 1.328 . S
C48 H54 0.929 . S
C49 C50 1.362 . S
C49 C52 1.378 . S
C49 H64 0.929 . S
C50 C49 1.362 . S
C50 C51 1.366 . S
C51 C48 1.365 . S
C51 C50 1.366 . S
C51 H65 0.930 . S
C52 C49 1.378 . S
C52 N53 1.315 . S
C52 H55 0.930 . S
N53 Co33 2.194 . S
N53 C48 1.328 . S
N53 C52 1.315 . S
H54 C48 0.929 . S
H55 C52 0.930 . S
H56 C44 0.929 . S
H57 C46 0.929 . S
O58 Co33 2.351 . S
O58 C61 1.244 . S
O59 Co33 2.155 . S
O59 C61 1.240 . S
O60 Co33 2.096 . S
O60 C41 1.247 . S
C61 O58 1.244 . S
C61 O59 1.240 . S
H62 C36 0.931 . S
H63 C45 0.931 . S
H64 C49 0.929 . S
H65 C51 0.930 . S
Co66 N70 2.148 . S
Co66 N76 2.128 1_655 S
Co66 N86 2.194 . S
Co66 O91 2.351 . S
Co66 O92 2.155 . S
Co66 O93 2.096 . S
C67 N70 1.301 . S
C67 N71 1.328 . S
C67 H72 0.930 . S
C68 C69 1.333 . S
C68 N70 1.317 . S
C68 H73 0.930 . S
C69 C68 1.333 . S
C69 N71 1.350 . S
C69 H95 0.931 . S
N70 Co66 2.148 . S
N70 C67 1.301 . S
N70 C68 1.317 . S
N71 C67 1.328 . S
N71 C69 1.350 . S
H72 C67 0.930 . S
H73 C68 0.930 . S
C74 O75 1.224 . S
C74 O93 1.247 . S
O75 C74 1.224 . S
N76 Co66 2.128 1_455 S
N76 C77 1.355 . S
N76 C79 1.311 . S
C77 N76 1.355 . S
C77 C78 1.363 . S
C77 H89 0.929 . S
C78 C77 1.363 . S
C78 N80 1.375 . S
C78 H96 0.931 . S
C79 N76 1.311 . S
C79 N80 1.347 . S
C79 H90 0.929 . S
N80 C78 1.375 . S
N80 C79 1.347 . S
C81 C84 1.365 . S
C81 N86 1.328 . S
C81 H87 0.929 . S
C82 C83 1.362 . S
C82 C85 1.378 . S
C82 H97 0.929 . S
C83 C82 1.362 . S
C83 C84 1.366 . S
C84 C81 1.365 . S
C84 C83 1.366 . S
C84 H98 0.930 . S
C85 C82 1.378 . S
C85 N86 1.315 . S
C85 H88 0.930 . S
N86 Co66 2.194 . S
N86 C81 1.328 . S
N86 C85 1.315 . S
H87 C81 0.929 . S
H88 C85 0.930 . S
H89 C77 0.929 . S
H90 C79 0.929 . S
O91 Co66 2.351 . S
O91 C94 1.244 . S
O92 Co66 2.155 . S
O92 C94 1.240 . S
O93 Co66 2.096 . S
O93 C74 1.247 . S
C94 O91 1.244 . S
C94 O92 1.240 . S
H95 C69 0.931 . S
H96 C78 0.931 . S
H97 C82 0.929 . S
H98 C84 0.930 . S
Co99 N103 2.148 . S
Co99 N109 2.128 1_565 S
Co99 N119 2.194 . S
Co99 O124 2.351 . S
Co99 O125 2.155 . S
Co99 O126 2.096 . S
C100 N103 1.301 . S
C100 N104 1.328 . S
C100 H105 0.930 . S
C101 C102 1.333 . S
C101 N103 1.317 . S
C101 H106 0.930 . S
C102 C101 1.333 . S
C102 N104 1.350 . S
C102 H128 0.931 . S
N103 Co99 2.148 . S
N103 C100 1.301 . S
N103 C101 1.317 . S
N104 C100 1.328 . S
N104 C102 1.350 . S
H105 C100 0.930 . S
H106 C101 0.930 . S
C107 O108 1.224 . S
C107 O126 1.247 . S
O108 C107 1.224 . S
N109 Co99 2.128 1_545 S
N109 C110 1.355 . S
N109 C112 1.311 . S
C110 N109 1.355 . S
C110 C111 1.363 . S
C110 H122 0.929 . S
C111 C110 1.363 . S
C111 N113 1.375 . S
C111 H129 0.931 . S
C112 N109 1.311 . S
C112 N113 1.347 . S
C112 H123 0.929 . S
N113 C111 1.375 . S
N113 C112 1.347 . S
C114 C117 1.365 . S
C114 N119 1.328 . S
C114 H120 0.929 . S
C115 C116 1.362 . S
C115 C118 1.378 . S
C115 H130 0.929 . S
C116 C115 1.362 . S
C116 C117 1.366 . S
C117 C114 1.365 . S
C117 C116 1.366 . S
C117 H131 0.930 . S
C118 C115 1.378 . S
C118 N119 1.315 . S
C118 H121 0.930 . S
N119 Co99 2.194 . S
N119 C114 1.328 . S
N119 C118 1.315 . S
H120 C114 0.929 . S
H121 C118 0.930 . S
H122 C110 0.929 . S
H123 C112 0.929 . S
O124 Co99 2.351 . S
O124 C127 1.244 . S
O125 Co99 2.155 . S
O125 C127 1.240 . S
O126 Co99 2.096 . S
O126 C107 1.247 . S
C127 O124 1.244 . S
C127 O125 1.240 . S
H128 C102 0.931 . S
H129 C111 0.931 . S
H130 C115 0.929 . S
H131 C117 0.930 . S
Co132 N136 2.148 . S
Co132 N142 2.128 . S
Co132 N152 2.194 . S
Co132 O157 2.351 . S
Co132 O158 2.155 . S
Co132 O159 2.096 . S
C133 N136 1.301 . S
C133 N137 1.328 . S
C133 H138 0.930 . S
C134 C135 1.333 . S
C134 N136 1.317 . S
C134 H139 0.930 . S
C135 C134 1.333 . S
C135 N137 1.350 . S
C135 H161 0.931 . S
N136 Co132 2.148 . S
N136 C133 1.301 . S
N136 C134 1.317 . S
N137 C133 1.328 . S
N137 C135 1.350 . S
H138 C133 0.930 . S
H139 C134 0.930 . S
C140 O141 1.224 . S
C140 O159 1.247 . S
O141 C140 1.224 . S
N142 Co132 2.128 . S
N142 C143 1.355 . S
N142 C145 1.311 . S
C143 N142 1.355 . S
C143 C144 1.363 . S
C143 H155 0.929 . S
C144 C143 1.363 . S
C144 N146 1.375 . S
C144 H162 0.931 . S
C145 N142 1.311 . S
C145 N146 1.347 . S
C145 H156 0.929 . S
N146 C144 1.375 . S
N146 C145 1.347 . S
C147 C150 1.365 . S
C147 N152 1.328 . S
C147 H153 0.929 . S
C148 C149 1.362 . S
C148 C151 1.378 . S
C148 H163 0.929 . S
C149 C148 1.362 . S
C149 C150 1.366 . S
C150 C147 1.365 . S
C150 C149 1.366 . S
C150 H164 0.930 . S
C151 C148 1.378 . S
C151 N152 1.315 . S
C151 H154 0.930 . S
N152 Co132 2.194 . S
N152 C147 1.328 . S
N152 C151 1.315 . S
H153 C147 0.929 . S
H154 C151 0.930 . S
H155 C143 0.929 . S
H156 C145 0.929 . S
O157 Co132 2.351 . S
O157 C160 1.244 . S
O158 Co132 2.155 . S
O158 C160 1.240 . S
O159 Co132 2.096 . S
O159 C140 1.247 . S
C160 O157 1.244 . S
C160 O158 1.240 . S
H161 C135 0.931 . S
H162 C144 0.931 . S
H163 C148 0.929 . S
H164 C150 0.930 . S
Co165 N169 2.148 . S
Co165 N175 2.128 . S
Co165 N185 2.194 . S
Co165 O190 2.351 . S
Co165 O191 2.155 . S
Co165 O192 2.096 . S
C166 N169 1.301 . S
C166 N170 1.328 . S
C166 H171 0.930 . S
C167 C168 1.333 . S
C167 N169 1.317 . S
C167 H172 0.930 . S
C168 C167 1.333 . S
C168 N170 1.350 . S
C168 H194 0.931 . S
N169 Co165 2.148 . S
N169 C166 1.301 . S
N169 C167 1.317 . S
N170 C166 1.328 . S
N170 C168 1.350 . S
H171 C166 0.930 . S
H172 C167 0.930 . S
C173 O174 1.224 . S
C173 O192 1.247 . S
O174 C173 1.224 . S
N175 Co165 2.128 . S
N175 C176 1.355 . S
N175 C178 1.311 . S
C176 N175 1.355 . S
C176 C177 1.363 . S
C176 H188 0.929 . S
C177 C176 1.363 . S
C177 N179 1.375 . S
C177 H195 0.931 . S
C178 N175 1.311 . S
C178 N179 1.347 . S
C178 H189 0.929 . S
N179 C177 1.375 . S
N179 C178 1.347 . S
C180 C183 1.365 . S
C180 N185 1.328 . S
C180 H186 0.929 . S
C181 C182 1.362 . S
C181 C184 1.378 . S
C181 H196 0.929 . S
C182 C181 1.362 . S
C182 C183 1.366 . S
C183 C180 1.365 . S
C183 C182 1.366 . S
C183 H197 0.930 . S
C184 C181 1.378 . S
C184 N185 1.315 . S
C184 H187 0.930 . S
N185 Co165 2.194 . S
N185 C180 1.328 . S
N185 C184 1.315 . S
H186 C180 0.929 . S
H187 C184 0.930 . S
H188 C176 0.929 . S
H189 C178 0.929 . S
O190 Co165 2.351 . S
O190 C193 1.244 . S
O191 Co165 2.155 . S
O191 C193 1.240 . S
O192 Co165 2.096 . S
O192 C173 1.247 . S
C193 O190 1.244 . S
C193 O191 1.240 . S
H194 C168 0.931 . S
H195 C177 0.931 . S
H196 C181 0.929 . S
H197 C183 0.930 . S
Co198 N202 2.148 . S
Co198 N208 2.128 . S
Co198 N218 2.194 . S
Co198 O223 2.351 . S
Co198 O224 2.155 . S
Co198 O225 2.096 . S
C199 N202 1.301 . S
C199 N203 1.328 . S
C199 H204 0.930 . S
C200 C201 1.333 . S
C200 N202 1.317 . S
C200 H205 0.930 . S
C201 C200 1.333 . S
C201 N203 1.350 . S
C201 H227 0.931 . S
N202 Co198 2.148 . S
N202 C199 1.301 . S
N202 C200 1.317 . S
N203 C199 1.328 . S
N203 C201 1.350 . S
H204 C199 0.930 . S
H205 C200 0.930 . S
C206 O207 1.224 . S
C206 O225 1.247 . S
O207 C206 1.224 . S
N208 Co198 2.128 . S
N208 C209 1.355 . S
N208 C211 1.311 . S
C209 N208 1.355 . S
C209 C210 1.363 . S
C209 H221 0.929 . S
C210 C209 1.363 . S
C210 N212 1.375 . S
C210 H228 0.931 . S
C211 N208 1.311 . S
C211 N212 1.347 . S
C211 H222 0.929 . S
N212 C210 1.375 . S
N212 C211 1.347 . S
C213 C216 1.365 . S
C213 N218 1.328 . S
C213 H219 0.929 . S
C214 C215 1.362 . S
C214 C217 1.378 . S
C214 H229 0.929 . S
C215 C214 1.362 . S
C215 C216 1.366 . S
C216 C213 1.365 . S
C216 C215 1.366 . S
C216 H230 0.930 . S
C217 C214 1.378 . S
C217 N218 1.315 . S
C217 H220 0.930 . S
N218 Co198 2.194 . S
N218 C213 1.328 . S
N218 C217 1.315 . S
H219 C213 0.929 . S
H220 C217 0.930 . S
H221 C209 0.929 . S
H222 C211 0.929 . S
O223 Co198 2.351 . S
O223 C226 1.244 . S
O224 Co198 2.155 . S
O224 C226 1.240 . S
O225 Co198 2.096 . S
O225 C206 1.247 . S
C226 O223 1.244 . S
C226 O224 1.240 . S
H227 C201 0.931 . S
H228 C210 0.931 . S
H229 C214 0.929 . S
H230 C216 0.930 . S
Co231 N235 2.148 . S
Co231 N241 2.128 . S
Co231 N251 2.194 . S
Co231 O256 2.351 . S
Co231 O257 2.155 . S
Co231 O258 2.096 . S
C232 N235 1.301 . S
C232 N236 1.328 . S
C232 H237 0.930 . S
C233 C234 1.333 . S
C233 N235 1.317 . S
C233 H238 0.930 . S
C234 C233 1.333 . S
C234 N236 1.350 . S
C234 H260 0.931 . S
N235 Co231 2.148 . S
N235 C232 1.301 . S
N235 C233 1.317 . S
N236 C232 1.328 . S
N236 C234 1.350 . S
H237 C232 0.930 . S
H238 C233 0.930 . S
C239 O240 1.224 . S
C239 O258 1.247 . S
O240 C239 1.224 . S
N241 Co231 2.128 . S
N241 C242 1.355 . S
N241 C244 1.311 . S
C242 N241 1.355 . S
C242 C243 1.363 . S
C242 H254 0.929 . S
C243 C242 1.363 . S
C243 N245 1.375 . S
C243 H261 0.931 . S
C244 N241 1.311 . S
C244 N245 1.347 . S
C244 H255 0.929 . S
N245 C243 1.375 . S
N245 C244 1.347 . S
C246 C249 1.365 . S
C246 N251 1.328 . S
C246 H252 0.929 . S
C247 C248 1.362 . S
C247 C250 1.378 . S
C247 H262 0.929 . S
C248 C247 1.362 . S
C248 C249 1.366 . S
C249 C246 1.365 . S
C249 C248 1.366 . S
C249 H263 0.930 . S
C250 C247 1.378 . S
C250 N251 1.315 . S
C250 H253 0.930 . S
N251 Co231 2.194 . S
N251 C246 1.328 . S
N251 C250 1.315 . S
H252 C246 0.929 . S
H253 C250 0.930 . S
H254 C242 0.929 . S
H255 C244 0.929 . S
O256 Co231 2.351 . S
O256 C259 1.244 . S
O257 Co231 2.155 . S
O257 C259 1.240 . S
O258 Co231 2.096 . S
O258 C239 1.247 . S
C259 O256 1.244 . S
C259 O257 1.240 . S
H260 C234 0.931 . S
H261 C243 0.931 . S
H262 C247 0.929 . S
H263 C249 0.930 . S
Co264 N268 2.148 . S
Co264 N274 2.128 1_655 S
Co264 N284 2.194 . S
Co264 O289 2.351 . S
Co264 O290 2.155 . S
Co264 O291 2.096 . S
C265 N268 1.301 . S
C265 N269 1.328 . S
C265 H270 0.930 . S
C266 C267 1.333 . S
C266 N268 1.317 . S
C266 H271 0.930 . S
C267 C266 1.333 . S
C267 N269 1.350 . S
C267 H293 0.931 . S
N268 Co264 2.148 . S
N268 C265 1.301 . S
N268 C266 1.317 . S
N269 C265 1.328 . S
N269 C267 1.350 . S
H270 C265 0.930 . S
H271 C266 0.930 . S
C272 O273 1.224 . S
C272 O291 1.247 . S
O273 C272 1.224 . S
N274 Co264 2.128 1_455 S
N274 C275 1.355 . S
N274 C277 1.311 . S
C275 N274 1.355 . S
C275 C276 1.363 . S
C275 H287 0.929 . S
C276 C275 1.363 . S
C276 N278 1.375 . S
C276 H294 0.931 . S
C277 N274 1.311 . S
C277 N278 1.347 . S
C277 H288 0.929 . S
N278 C276 1.375 . S
N278 C277 1.347 . S
C279 C282 1.365 . S
C279 N284 1.328 . S
C279 H285 0.929 . S
C280 C281 1.362 . S
C280 C283 1.378 . S
C280 H295 0.929 . S
C281 C280 1.362 . S
C281 C282 1.366 . S
C282 C279 1.365 . S
C282 C281 1.366 . S
C282 H296 0.930 . S
C283 C280 1.378 . S
C283 N284 1.315 . S
C283 H286 0.930 . S
N284 Co264 2.194 . S
N284 C279 1.328 . S
N284 C283 1.315 . S
H285 C279 0.929 . S
H286 C283 0.930 . S
H287 C275 0.929 . S
H288 C277 0.929 . S
O289 Co264 2.351 . S
O289 C292 1.244 . S
O290 Co264 2.155 . S
O290 C292 1.240 . S
O291 Co264 2.096 . S
O291 C272 1.247 . S
C292 O289 1.244 . S
C292 O290 1.240 . S
H293 C267 0.931 . S
H294 C276 0.931 . S
H295 C280 0.929 . S
H296 C282 0.930 . S
Co297 N301 2.148 . S
Co297 N307 2.128 1_565 S
Co297 N317 2.194 . S
Co297 O322 2.351 . S
Co297 O323 2.155 . S
Co297 O324 2.096 . S
C298 N301 1.301 . S
C298 N302 1.328 . S
C298 H303 0.930 . S
C299 C300 1.333 . S
C299 N301 1.317 . S
C299 H304 0.930 . S
C300 C299 1.333 . S
C300 N302 1.350 . S
C300 H326 0.931 . S
N301 Co297 2.148 . S
N301 C298 1.301 . S
N301 C299 1.317 . S
N302 C298 1.328 . S
N302 C300 1.350 . S
H303 C298 0.930 . S
H304 C299 0.930 . S
C305 O306 1.224 . S
C305 O324 1.247 . S
O306 C305 1.224 . S
N307 Co297 2.128 1_545 S
N307 C308 1.355 . S
N307 C310 1.311 . S
C308 N307 1.355 . S
C308 C309 1.363 . S
C308 H320 0.929 . S
C309 C308 1.363 . S
C309 N311 1.375 . S
C309 H327 0.931 . S
C310 N307 1.311 . S
C310 N311 1.347 . S
C310 H321 0.929 . S
N311 C309 1.375 . S
N311 C310 1.347 . S
C312 C315 1.365 . S
C312 N317 1.328 . S
C312 H318 0.929 . S
C313 C314 1.362 . S
C313 C316 1.378 . S
C313 H328 0.929 . S
C314 C313 1.362 . S
C314 C315 1.366 . S
C315 C312 1.365 . S
C315 C314 1.366 . S
C315 H329 0.930 . S
C316 C313 1.378 . S
C316 N317 1.315 . S
C316 H319 0.930 . S
N317 Co297 2.194 . S
N317 C312 1.328 . S
N317 C316 1.315 . S
H318 C312 0.929 . S
H319 C316 0.930 . S
H320 C308 0.929 . S
H321 C310 0.929 . S
O322 Co297 2.351 . S
O322 C325 1.244 . S
O323 Co297 2.155 . S
O323 C325 1.240 . S
O324 Co297 2.096 . S
O324 C305 1.247 . S
C325 O322 1.244 . S
C325 O323 1.240 . S
H326 C300 0.931 . S
H327 C309 0.931 . S
H328 C313 0.929 . S
H329 C315 0.930 . S
Co330 N334 2.148 . S
Co330 N340 2.128 1_455 S
Co330 N350 2.194 . S
Co330 O355 2.351 . S
Co330 O356 2.155 . S
Co330 O357 2.096 . S
C331 N334 1.301 . S
C331 N335 1.328 . S
C331 H336 0.930 . S
C332 C333 1.333 . S
C332 N334 1.317 . S
C332 H337 0.930 . S
C333 C332 1.333 . S
C333 N335 1.350 . S
C333 H359 0.931 . S
N334 Co330 2.148 . S
N334 C331 1.301 . S
N334 C332 1.317 . S
N335 C331 1.328 . S
N335 C333 1.350 . S
H336 C331 0.930 . S
H337 C332 0.930 . S
C338 O339 1.224 . S
C338 O357 1.247 . S
O339 C338 1.224 . S
N340 Co330 2.128 1_655 S
N340 C341 1.355 . S
N340 C343 1.311 . S
C341 N340 1.355 . S
C341 C342 1.363 . S
C341 H353 0.929 . S
C342 C341 1.363 . S
C342 N344 1.375 . S
C342 H360 0.931 . S
C343 N340 1.311 . S
C343 N344 1.347 . S
C343 H354 0.929 . S
N344 C342 1.375 . S
N344 C343 1.347 . S
C345 C348 1.365 . S
C345 N350 1.328 . S
C345 H351 0.929 . S
C346 C347 1.362 . S
C346 C349 1.378 . S
C346 H361 0.929 . S
C347 C346 1.362 . S
C347 C348 1.366 . S
C348 C345 1.365 . S
C348 C347 1.366 . S
C348 H362 0.930 . S
C349 C346 1.378 . S
C349 N350 1.315 . S
C349 H352 0.930 . S
N350 Co330 2.194 . S
N350 C345 1.328 . S
N350 C349 1.315 . S
H351 C345 0.929 . S
H352 C349 0.930 . S
H353 C341 0.929 . S
H354 C343 0.929 . S
O355 Co330 2.351 . S
O355 C358 1.244 . S
O356 Co330 2.155 . S
O356 C358 1.240 . S
O357 Co330 2.096 . S
O357 C338 1.247 . S
C358 O355 1.244 . S
C358 O356 1.240 . S
H359 C333 0.931 . S
H360 C342 0.931 . S
H361 C346 0.929 . S
H362 C348 0.930 . S
Co363 N367 2.148 . S
Co363 N373 2.128 1_545 S
Co363 N383 2.194 . S
Co363 O388 2.351 . S
Co363 O389 2.155 . S
Co363 O390 2.096 . S
C364 N367 1.301 . S
C364 N368 1.328 . S
C364 H369 0.930 . S
C365 C366 1.333 . S
C365 N367 1.317 . S
C365 H370 0.930 . S
C366 C365 1.333 . S
C366 N368 1.350 . S
C366 H392 0.931 . S
N367 Co363 2.148 . S
N367 C364 1.301 . S
N367 C365 1.317 . S
N368 C364 1.328 . S
N368 C366 1.350 . S
H369 C364 0.930 . S
H370 C365 0.930 . S
C371 O372 1.224 . S
C371 O390 1.247 . S
O372 C371 1.224 . S
N373 Co363 2.128 1_565 S
N373 C374 1.355 . S
N373 C376 1.311 . S
C374 N373 1.355 . S
C374 C375 1.363 . S
C374 H386 0.929 . S
C375 C374 1.363 . S
C375 N377 1.375 . S
C375 H393 0.931 . S
C376 N373 1.311 . S
C376 N377 1.347 . S
C376 H387 0.929 . S
N377 C375 1.375 . S
N377 C376 1.347 . S
C378 C381 1.365 . S
C378 N383 1.328 . S
C378 H384 0.929 . S
C379 C380 1.362 . S
C379 C382 1.378 . S
C379 H394 0.929 . S
C380 C379 1.362 . S
C380 C381 1.366 . S
C381 C378 1.365 . S
C381 C380 1.366 . S
C381 H395 0.930 . S
C382 C379 1.378 . S
C382 N383 1.315 . S
C382 H385 0.930 . S
N383 Co363 2.194 . S
N383 C378 1.328 . S
N383 C382 1.315 . S
H384 C378 0.929 . S
H385 C382 0.930 . S
H386 C374 0.929 . S
H387 C376 0.929 . S
O388 Co363 2.351 . S
O388 C391 1.244 . S
O389 Co363 2.155 . S
O389 C391 1.240 . S
O390 Co363 2.096 . S
O390 C371 1.247 . S
C391 O388 1.244 . S
C391 O389 1.240 . S
H392 C366 0.931 . S
H393 C375 0.931 . S
H394 C379 0.929 . S
H395 C381 0.930 . S
Co396 N400 2.148 . S
Co396 N406 2.128 . S
Co396 N416 2.194 . S
Co396 O421 2.351 . S
Co396 O422 2.155 . S
Co396 O423 2.096 . S
C397 N400 1.301 . S
C397 N401 1.328 . S
C397 H402 0.930 . S
C398 C399 1.333 . S
C398 N400 1.317 . S
C398 H403 0.930 . S
C399 C398 1.333 . S
C399 N401 1.350 . S
C399 H425 0.931 . S
N400 Co396 2.148 . S
N400 C397 1.301 . S
N400 C398 1.317 . S
N401 C397 1.328 . S
N401 C399 1.350 . S
H402 C397 0.930 . S
H403 C398 0.930 . S
C404 O405 1.224 . S
C404 O423 1.247 . S
O405 C404 1.224 . S
N406 Co396 2.128 . S
N406 C407 1.355 . S
N406 C409 1.311 . S
C407 N406 1.355 . S
C407 C408 1.363 . S
C407 H419 0.929 . S
C408 C407 1.363 . S
C408 N410 1.375 . S
C408 H426 0.931 . S
C409 N406 1.311 . S
C409 N410 1.347 . S
C409 H420 0.929 . S
N410 C408 1.375 . S
N410 C409 1.347 . S
C411 C414 1.365 . S
C411 N416 1.328 . S
C411 H417 0.929 . S
C412 C413 1.362 . S
C412 C415 1.378 . S
C412 H427 0.929 . S
C413 C412 1.362 . S
C413 C414 1.366 . S
C414 C411 1.365 . S
C414 C413 1.366 . S
C414 H428 0.930 . S
C415 C412 1.378 . S
C415 N416 1.315 . S
C415 H418 0.930 . S
N416 Co396 2.194 . S
N416 C411 1.328 . S
N416 C415 1.315 . S
H417 C411 0.929 . S
H418 C415 0.930 . S
H419 C407 0.929 . S
H420 C409 0.929 . S
O421 Co396 2.351 . S
O421 C424 1.244 . S
O422 Co396 2.155 . S
O422 C424 1.240 . S
O423 Co396 2.096 . S
O423 C404 1.247 . S
C424 O421 1.244 . S
C424 O422 1.240 . S
H425 C399 0.931 . S
H426 C408 0.931 . S
H427 C412 0.929 . S
H428 C414 0.930 . S
Co429 N433 2.148 . S
Co429 N439 2.128 . S
Co429 N449 2.194 . S
Co429 O454 2.351 . S
Co429 O455 2.155 . S
Co429 O456 2.096 . S
C430 N433 1.301 . S
C430 N434 1.328 . S
C430 H435 0.930 . S
C431 C432 1.333 . S
C431 N433 1.317 . S
C431 H436 0.930 . S
C432 C431 1.333 . S
C432 N434 1.350 . S
C432 H458 0.931 . S
N433 Co429 2.148 . S
N433 C430 1.301 . S
N433 C431 1.317 . S
N434 C430 1.328 . S
N434 C432 1.350 . S
H435 C430 0.930 . S
H436 C431 0.930 . S
C437 O438 1.224 . S
C437 O456 1.247 . S
O438 C437 1.224 . S
N439 Co429 2.128 . S
N439 C440 1.355 . S
N439 C442 1.311 . S
C440 N439 1.355 . S
C440 C441 1.363 . S
C440 H452 0.929 . S
C441 C440 1.363 . S
C441 N443 1.375 . S
C441 H459 0.931 . S
C442 N439 1.311 . S
C442 N443 1.347 . S
C442 H453 0.929 . S
N443 C441 1.375 . S
N443 C442 1.347 . S
C444 C447 1.365 . S
C444 N449 1.328 . S
C444 H450 0.929 . S
C445 C446 1.362 . S
C445 C448 1.378 . S
C445 H460 0.929 . S
C446 C445 1.362 . S
C446 C447 1.366 . S
C447 C444 1.365 . S
C447 C446 1.366 . S
C447 H461 0.930 . S
C448 C445 1.378 . S
C448 N449 1.315 . S
C448 H451 0.930 . S
N449 Co429 2.194 . S
N449 C444 1.328 . S
N449 C448 1.315 . S
H450 C444 0.929 . S
H451 C448 0.930 . S
H452 C440 0.929 . S
H453 C442 0.929 . S
O454 Co429 2.351 . S
O454 C457 1.244 . S
O455 Co429 2.155 . S
O455 C457 1.240 . S
O456 Co429 2.096 . S
O456 C437 1.247 . S
C457 O454 1.244 . S
C457 O455 1.240 . S
H458 C432 0.931 . S
H459 C441 0.931 . S
H460 C445 0.929 . S
H461 C447 0.930 . S
Co462 N466 2.148 . S
Co462 N472 2.128 . S
Co462 N482 2.194 . S
Co462 O487 2.351 . S
Co462 O488 2.155 . S
Co462 O489 2.096 . S
C463 N466 1.301 . S
C463 N467 1.328 . S
C463 H468 0.930 . S
C464 C465 1.333 . S
C464 N466 1.317 . S
C464 H469 0.930 . S
C465 C464 1.333 . S
C465 N467 1.350 . S
C465 H491 0.931 . S
N466 Co462 2.148 . S
N466 C463 1.301 . S
N466 C464 1.317 . S
N467 C463 1.328 . S
N467 C465 1.350 . S
H468 C463 0.930 . S
H469 C464 0.930 . S
C470 O471 1.224 . S
C470 O489 1.247 . S
O471 C470 1.224 . S
N472 Co462 2.128 . S
N472 C473 1.355 . S
N472 C475 1.311 . S
C473 N472 1.355 . S
C473 C474 1.363 . S
C473 H485 0.929 . S
C474 C473 1.363 . S
C474 N476 1.375 . S
C474 H492 0.931 . S
C475 N472 1.311 . S
C475 N476 1.347 . S
C475 H486 0.929 . S
N476 C474 1.375 . S
N476 C475 1.347 . S
C477 C480 1.365 . S
C477 N482 1.328 . S
C477 H483 0.929 . S
C478 C479 1.362 . S
C478 C481 1.378 . S
C478 H493 0.929 . S
C479 C478 1.362 . S
C479 C480 1.366 . S
C480 C477 1.365 . S
C480 C479 1.366 . S
C480 H494 0.930 . S
C481 C478 1.378 . S
C481 N482 1.315 . S
C481 H484 0.930 . S
N482 Co462 2.194 . S
N482 C477 1.328 . S
N482 C481 1.315 . S
H483 C477 0.929 . S
H484 C481 0.930 . S
H485 C473 0.929 . S
H486 C475 0.929 . S
O487 Co462 2.351 . S
O487 C490 1.244 . S
O488 Co462 2.155 . S
O488 C490 1.240 . S
O489 Co462 2.096 . S
O489 C470 1.247 . S
C490 O487 1.244 . S
C490 O488 1.240 . S
H491 C465 0.931 . S
H492 C474 0.931 . S
H493 C478 0.929 . S
H494 C480 0.930 . S
Co495 N499 2.148 . S
Co495 N505 2.128 . S
Co495 N515 2.194 . S
Co495 O520 2.351 . S
Co495 O521 2.155 . S
Co495 O522 2.096 . S
C496 N499 1.301 . S
C496 N500 1.328 . S
C496 H501 0.930 . S
C497 C498 1.333 . S
C497 N499 1.317 . S
C497 H502 0.930 . S
C498 C497 1.333 . S
C498 N500 1.350 . S
C498 H524 0.931 . S
N499 Co495 2.148 . S
N499 C496 1.301 . S
N499 C497 1.317 . S
N500 C496 1.328 . S
N500 C498 1.350 . S
H501 C496 0.930 . S
H502 C497 0.930 . S
C503 O504 1.224 . S
C503 O522 1.247 . S
O504 C503 1.224 . S
N505 Co495 2.128 . S
N505 C506 1.355 . S
N505 C508 1.311 . S
C506 N505 1.355 . S
C506 C507 1.363 . S
C506 H518 0.929 . S
C507 C506 1.363 . S
C507 N509 1.375 . S
C507 H525 0.931 . S
C508 N505 1.311 . S
C508 N509 1.347 . S
C508 H519 0.929 . S
N509 C507 1.375 . S
N509 C508 1.347 . S
C510 C513 1.365 . S
C510 N515 1.328 . S
C510 H516 0.929 . S
C511 C512 1.362 . S
C511 C514 1.378 . S
C511 H526 0.929 . S
C512 C511 1.362 . S
C512 C513 1.366 . S
C513 C510 1.365 . S
C513 C512 1.366 . S
C513 H527 0.930 . S
C514 C511 1.378 . S
C514 N515 1.315 . S
C514 H517 0.930 . S
N515 Co495 2.194 . S
N515 C510 1.328 . S
N515 C514 1.315 . S
H516 C510 0.929 . S
H517 C514 0.930 . S
H518 C506 0.929 . S
H519 C508 0.929 . S
O520 Co495 2.351 . S
O520 C523 1.244 . S
O521 Co495 2.155 . S
O521 C523 1.240 . S
O522 Co495 2.096 . S
O522 C503 1.247 . S
C523 O520 1.244 . S
C523 O521 1.240 . S
H524 C498 0.931 . S
H525 C507 0.931 . S
H526 C511 0.929 . S
H527 C513 0.930 . S
C528 C529 1.387 . S
C528 H532 0.950 . S
C528 C537 1.390 1_445 S
C529 C528 1.387 . S
C529 C531 1.387 . S
H530 C537 0.950 . S
C531 C529 1.387 . S
C531 C533 1.390 1_445 S
C531 H535 0.950 . S
H532 C528 0.950 . S
C533 C531 1.390 1_665 S
C533 C534 1.387 . S
C533 H536 0.950 . S
C534 C533 1.387 . S
C534 C537 1.387 . S
H535 C531 0.950 . S
H536 C533 0.950 . S
C537 C528 1.390 1_665 S
C537 H530 0.950 . S
C537 C534 1.387 . S
C538 C539 1.387 . S
C538 H542 0.950 . S
C538 C547 1.390 1_465 S
C539 C538 1.387 . S
C539 C541 1.387 . S
H540 C547 0.950 . S
C541 C539 1.387 . S
C541 C543 1.390 1_465 S
C541 H545 0.950 . S
H542 C538 0.950 . S
C543 C541 1.390 1_645 S
C543 C544 1.387 . S
C543 H546 0.950 . S
C544 C543 1.387 . S
C544 C547 1.387 . S
H545 C541 0.950 . S
H546 C543 0.950 . S
C547 C538 1.390 1_645 S
C547 H540 0.950 . S
C547 C544 1.387 . S
C548 C549 1.387 . S
C548 H552 0.950 . S
C548 C557 1.390 . S
C549 C548 1.387 . S
C549 C551 1.387 . S
H550 C557 0.950 . S
C551 C549 1.387 . S
C551 C553 1.390 . S
C551 H555 0.950 . S
H552 C548 0.950 . S
C553 C551 1.390 . S
C553 C554 1.387 . S
C553 H556 0.950 . S
C554 C553 1.387 . S
C554 C557 1.387 . S
H555 C551 0.950 . S
H556 C553 0.950 . S
C557 C548 1.390 . S
C557 H550 0.950 . S
C557 C554 1.387 . S
C558 C559 1.387 . S
C558 H562 0.950 . S
C558 C567 1.390 . S
C559 C558 1.387 . S
C559 C561 1.387 . S
H560 C567 0.950 . S
C561 C559 1.387 . S
C561 C563 1.390 . S
C561 H565 0.950 . S
H562 C558 0.950 . S
C563 C561 1.390 . S
C563 C564 1.387 . S
C563 H566 0.950 . S
C564 C563 1.387 . S
C564 C567 1.387 . S
H565 C561 0.950 . S
H566 C563 0.950 . S
C567 C558 1.390 . S
C567 H560 0.950 . S
C567 C564 1.387 . S
C568 C569 1.387 . S
C568 H572 0.950 . S
C568 C577 1.390 1_445 S
C569 C568 1.387 . S
C569 C571 1.387 . S
H570 C577 0.950 . S
C571 C569 1.387 . S
C571 C573 1.390 1_445 S
C571 H575 0.950 . S
H572 C568 0.950 . S
C573 C571 1.390 1_665 S
C573 C574 1.387 . S
C573 H576 0.950 . S
C574 C573 1.387 . S
C574 C577 1.387 . S
H575 C571 0.950 . S
H576 C573 0.950 . S
C577 C568 1.390 1_665 S
C577 H570 0.950 . S
C577 C574 1.387 . S
C578 C579 1.387 . S
C578 H582 0.950 . S
C578 C587 1.390 1_465 S
C579 C578 1.387 . S
C579 C581 1.387 . S
H580 C587 0.950 . S
C581 C579 1.387 . S
C581 C583 1.390 1_465 S
C581 H585 0.950 . S
H582 C578 0.950 . S
C583 C581 1.390 1_645 S
C583 C584 1.387 . S
C583 H586 0.950 . S
C584 C583 1.387 . S
C584 C587 1.387 . S
H585 C581 0.950 . S
H586 C583 0.950 . S
C587 C578 1.390 1_645 S
C587 H580 0.950 . S
C587 C584 1.387 . S
C588 C589 1.387 . S
C588 H592 0.950 . S
C588 C597 1.390 . S
C589 C588 1.387 . S
C589 C591 1.387 . S
H590 C597 0.950 . S
C591 C589 1.387 . S
C591 C593 1.390 . S
C591 H595 0.950 . S
H592 C588 0.950 . S
C593 C591 1.390 . S
C593 C594 1.387 . S
C593 H596 0.950 . S
C594 C593 1.387 . S
C594 C597 1.387 . S
H595 C591 0.950 . S
H596 C593 0.950 . S
C597 C588 1.390 . S
C597 H590 0.950 . S
C597 C594 1.387 . S
C598 C599 1.387 . S
C598 H602 0.950 . S
C598 C607 1.390 . S
C599 C598 1.387 . S
C599 C601 1.387 . S
H600 C607 0.950 . S
C601 C599 1.387 . S
C601 C603 1.390 . S
C601 H605 0.950 . S
H602 C598 0.950 . S
C603 C601 1.390 . S
C603 C604 1.387 . S
C603 H606 0.950 . S
C604 C603 1.387 . S
C604 C607 1.387 . S
H605 C601 0.950 . S
H606 C603 0.950 . S
C607 C598 1.390 . S
C607 H600 0.950 . S
C607 C604 1.387 . S
C608 C609 1.387 . S
C608 H612 0.950 . S
C608 C617 1.390 1_554 S
C609 C608 1.387 . S
C609 C611 1.387 . S
H610 C617 0.950 . S
C611 C609 1.387 . S
C611 C613 1.390 1_554 S
C611 H615 0.950 . S
H612 C608 0.950 . S
C613 C611 1.390 1_556 S
C613 C614 1.387 . S
C613 H616 0.950 . S
C614 C613 1.387 . S
C614 C617 1.387 . S
H615 C611 0.950 . S
H616 C613 0.950 . S
C617 C608 1.390 1_556 S
C617 H610 0.950 . S
C617 C614 1.387 . S
C618 C619 1.387 . S
C618 H622 0.950 . S
C618 C627 1.390 . S
C619 C618 1.387 . S
C619 C621 1.387 . S
H620 C627 0.950 . S
C621 C619 1.387 . S
C621 C623 1.390 . S
C621 H625 0.950 1_545 S
H622 C618 0.950 . S
C623 C621 1.390 . S
C623 C624 1.387 . S
C623 H626 0.950 1_545 S
C624 C623 1.387 . S
C624 C627 1.387 . S
H625 C621 0.950 1_565 S
H626 C623 0.950 1_565 S
C627 C618 1.390 . S
C627 H620 0.950 . S
C627 C624 1.387 . S
C628 C629 1.387 . S
C628 H632 0.950 . S
C628 C637 1.390 1_556 S
C629 C628 1.387 . S
C629 C631 1.387 . S
H630 C637 0.950 . S
C631 C629 1.387 . S
C631 C633 1.390 1_556 S
C631 H635 0.950 . S
H632 C628 0.950 . S
C633 C631 1.390 1_554 S
C633 C634 1.387 . S
C633 H636 0.950 . S
C634 C633 1.387 . S
C634 C637 1.387 . S
H635 C631 0.950 . S
H636 C633 0.950 . S
C637 C628 1.390 1_554 S
C637 H630 0.950 . S
C637 C634 1.387 . S
C638 C639 1.387 . S
C638 H642 0.950 1_565 S
C638 C647 1.390 . S
C639 C638 1.387 . S
C639 C641 1.387 . S
H640 C647 0.950 1_545 S
C641 C639 1.387 . S
C641 C643 1.390 . S
C641 H645 0.950 . S
H642 C638 0.950 1_545 S
C643 C641 1.390 . S
C643 C644 1.387 . S
C643 H646 0.950 . S
C644 C643 1.387 . S
C644 C647 1.387 . S
H645 C641 0.950 . S
H646 C643 0.950 . S
C647 C638 1.390 . S
C647 H640 0.950 1_565 S
C647 C644 1.387 . S
C648 C649 1.387 . S
C648 H652 0.950 . S
C648 C657 1.390 1_554 S
C649 C648 1.387 . S
C649 C651 1.387 . S
H650 C657 0.950 . S
C651 C649 1.387 . S
C651 C653 1.390 1_554 S
C651 H655 0.950 . S
H652 C648 0.950 . S
C653 C651 1.390 1_556 S
C653 C654 1.387 . S
C653 H656 0.950 . S
C654 C653 1.387 . S
C654 C657 1.387 . S
H655 C651 0.950 . S
H656 C653 0.950 . S
C657 C648 1.390 1_556 S
C657 H650 0.950 . S
C657 C654 1.387 . S
C658 C659 1.387 . S
C658 H662 0.950 . S
C658 C667 1.390 . S
C659 C658 1.387 . S
C659 C661 1.387 . S
H660 C667 0.950 . S
C661 C659 1.387 . S
C661 C663 1.390 . S
C661 H665 0.950 . S
H662 C658 0.950 . S
C663 C661 1.390 . S
C663 C664 1.387 . S
C663 H666 0.950 . S
C664 C663 1.387 . S
C664 C667 1.387 . S
H665 C661 0.950 . S
H666 C663 0.950 . S
C667 C658 1.390 . S
C667 H660 0.950 . S
C667 C664 1.387 . S
C668 C669 1.387 . S
C668 H672 0.950 . S
C668 C677 1.390 1_554 S
C669 C668 1.387 . S
C669 C671 1.387 . S
H670 C677 0.950 . S
C671 C669 1.387 . S
C671 C673 1.390 1_554 S
C671 H675 0.950 . S
H672 C668 0.950 . S
C673 C671 1.390 1_556 S
C673 C674 1.387 . S
C673 H676 0.950 . S
C674 C673 1.387 . S
C674 C677 1.387 . S
H675 C671 0.950 . S
H676 C673 0.950 . S
C677 C668 1.390 1_556 S
C677 H670 0.950 . S
C677 C674 1.387 . S
C678 C679 1.387 . S
C678 H682 0.950 . S
C678 C687 1.390 . S
C679 C678 1.387 . S
C679 C681 1.387 . S
H680 C687 0.950 . S
C681 C679 1.387 . S
C681 C683 1.390 . S
C681 H685 0.950 . S
H682 C678 0.950 . S
C683 C681 1.390 . S
C683 C684 1.387 . S
C683 H686 0.950 . S
C684 C683 1.387 . S
C684 C687 1.387 . S
H685 C681 0.950 . S
H686 C683 0.950 . S
C687 C678 1.390 . S
C687 H680 0.950 . S
C687 C684 1.387 . S
C688 C689 1.387 . S
C688 H692 0.950 . S
C688 C697 1.390 . S
C689 C688 1.387 . S
C689 C691 1.387 . S
H690 C697 0.950 . S
C691 C689 1.387 . S
C691 C693 1.390 . S
C691 H695 0.950 . S
H692 C688 0.950 . S
C693 C691 1.390 . S
C693 C694 1.387 . S
C693 H696 0.950 . S
C694 C693 1.387 . S
C694 C697 1.387 . S
H695 C691 0.950 . S
H696 C693 0.950 . S
C697 C688 1.390 . S
C697 H690 0.950 . S
C697 C694 1.387 . S
C698 C699 1.387 . S
C698 H702 0.950 . S
C698 C707 1.390 . S
C699 C698 1.387 . S
C699 C701 1.387 . S
H700 C707 0.950 . S
C701 C699 1.387 . S
C701 C703 1.390 . S
C701 H705 0.950 . S
H702 C698 0.950 . S
C703 C701 1.390 . S
C703 C704 1.387 . S
C703 H706 0.950 . S
C704 C703 1.387 . S
C704 C707 1.387 . S
H705 C701 0.950 . S
H706 C703 0.950 . S
C707 C698 1.390 . S
C707 H700 0.950 . S
C707 C704 1.387 . S
C708 C709 1.387 . S
C708 H712 0.950 . S
C708 C717 1.390 . S
C709 C708 1.387 . S
C709 C711 1.387 . S
H710 C717 0.950 . S
C711 C709 1.387 . S
C711 C713 1.390 . S
C711 H715 0.950 . S
H712 C708 0.950 . S
C713 C711 1.390 . S
C713 C714 1.387 . S
C713 H716 0.950 . S
C714 C713 1.387 . S
C714 C717 1.387 . S
H715 C711 0.950 . S
H716 C713 0.950 . S
C717 C708 1.390 . S
C717 H710 0.950 . S
C717 C714 1.387 . S
C718 C719 1.387 . S
C718 H722 0.950 . S
C718 C727 1.390 . S
C719 C718 1.387 . S
C719 C721 1.387 . S
H720 C727 0.950 . S
C721 C719 1.387 . S
C721 C723 1.390 . S
C721 H725 0.950 . S
H722 C718 0.950 . S
C723 C721 1.390 . S
C723 C724 1.387 . S
C723 H726 0.950 . S
C724 C723 1.387 . S
C724 C727 1.387 . S
H725 C721 0.950 . S
H726 C723 0.950 . S
C727 C718 1.390 . S
C727 H720 0.950 . S
C727 C724 1.387 . S
C728 C729 1.387 . S
C728 H732 0.950 . S
C728 C737 1.390 . S
C729 C728 1.387 . S
C729 C731 1.387 . S
H730 C737 0.950 . S
C731 C729 1.387 . S
C731 C733 1.390 . S
C731 H735 0.950 . S
H732 C728 0.950 . S
C733 C731 1.390 . S
C733 C734 1.387 . S
C733 H736 0.950 . S
C734 C733 1.387 . S
C734 C737 1.387 . S
H735 C731 0.950 . S
H736 C733 0.950 . S
C737 C728 1.390 . S
C737 H730 0.950 . S
C737 C734 1.387 . S
C738 C739 1.387 . S
C738 H742 0.950 . S
C738 C747 1.390 . S
C739 C738 1.387 . S
C739 C741 1.387 . S
H740 C747 0.950 . S
C741 C739 1.387 . S
C741 C743 1.390 . S
C741 H745 0.950 . S
H742 C738 0.950 . S
C743 C741 1.390 . S
C743 C744 1.387 . S
C743 H746 0.950 . S
C744 C743 1.387 . S
C744 C747 1.387 . S
H745 C741 0.950 . S
H746 C743 0.950 . S
C747 C738 1.390 . S
C747 H740 0.950 . S
C747 C744 1.387 . S
C748 C749 1.387 . S
C748 H752 0.950 . S
C748 C757 1.390 . S
C749 C748 1.387 . S
C749 C751 1.387 . S
H750 C757 0.950 . S
C751 C749 1.387 . S
C751 C753 1.390 . S
C751 H755 0.950 . S
H752 C748 0.950 . S
C753 C751 1.390 . S
C753 C754 1.387 . S
C753 H756 0.950 . S
C754 C753 1.387 . S
C754 C757 1.387 . S
H755 C751 0.950 . S
H756 C753 0.950 . S
C757 C748 1.390 . S
C757 H750 0.950 . S
C757 C754 1.387 . S
C758 C759 1.387 . S
C758 H762 0.950 . S
C758 C767 1.390 . S
C759 C758 1.387 . S
C759 C761 1.387 . S
H760 C767 0.950 . S
C761 C759 1.387 . S
C761 C763 1.390 . S
C761 H765 0.950 . S
H762 C758 0.950 . S
C763 C761 1.390 . S
C763 C764 1.387 . S
C763 H766 0.950 . S
C764 C763 1.387 . S
C764 C767 1.387 . S
H765 C761 0.950 . S
H766 C763 0.950 . S
C767 C758 1.390 . S
C767 H760 0.950 . S
C767 C764 1.387 . S
C768 C769 1.387 . S
C768 H772 0.950 . S
C768 C777 1.390 . S
C769 C768 1.387 . S
C769 C771 1.387 . S
H770 C777 0.950 . S
C771 C769 1.387 . S
C771 C773 1.390 . S
C771 H775 0.950 . S
H772 C768 0.950 . S
C773 C771 1.390 . S
C773 C774 1.387 . S
C773 H776 0.950 . S
C774 C773 1.387 . S
C774 C777 1.387 . S
H775 C771 0.950 . S
H776 C773 0.950 . S
C777 C768 1.390 . S
C777 H770 0.950 . S
C777 C774 1.387 . S
C778 C779 1.387 . S
C778 H782 0.950 . S
C778 C787 1.390 . S
C779 C778 1.387 . S
C779 C781 1.387 . S
H780 C787 0.950 . S
C781 C779 1.387 . S
C781 C783 1.390 . S
C781 H785 0.950 . S
H782 C778 0.950 . S
C783 C781 1.390 . S
C783 C784 1.387 . S
C783 H786 0.950 . S
C784 C783 1.387 . S
C784 C787 1.387 . S
H785 C781 0.950 . S
H786 C783 0.950 . S
C787 C778 1.390 . S
C787 H780 0.950 . S
C787 C784 1.387 . S
C788 C789 1.387 . S
C788 H792 0.950 . S
C788 C797 1.390 . S
C789 C788 1.387 . S
C789 C791 1.387 . S
H790 C797 0.950 . S
C791 C789 1.387 . S
C791 C793 1.390 . S
C791 H795 0.950 . S
H792 C788 0.950 . S
C793 C791 1.390 . S
C793 C794 1.387 . S
C793 H796 0.950 . S
C794 C793 1.387 . S
C794 C797 1.387 . S
H795 C791 0.950 . S
H796 C793 0.950 . S
C797 C788 1.390 . S
C797 H790 0.950 . S
C797 C794 1.387 . S
C798 C799 1.387 . S
C798 H802 0.950 . S
C798 C807 1.390 . S
C799 C798 1.387 . S
C799 C801 1.387 . S
H800 C807 0.950 . S
C801 C799 1.387 . S
C801 C803 1.390 . S
C801 H805 0.950 . S
H802 C798 0.950 . S
C803 C801 1.390 . S
C803 C804 1.387 . S
C803 H806 0.950 . S
C804 C803 1.387 . S
C804 C807 1.387 . S
H805 C801 0.950 . S
H806 C803 0.950 . S
C807 C798 1.390 . S
C807 H800 0.950 . S
C807 C804 1.387 . S
C808 C809 1.387 . S
C808 H812 0.950 . S
C808 C817 1.390 . S
C809 C808 1.387 . S
C809 C811 1.387 . S
H810 C817 0.950 . S
C811 C809 1.387 . S
C811 C813 1.390 . S
C811 H815 0.950 . S
H812 C808 0.950 . S
C813 C811 1.390 . S
C813 C814 1.387 . S
C813 H816 0.950 . S
C814 C813 1.387 . S
C814 C817 1.387 . S
H815 C811 0.950 . S
H816 C813 0.950 . S
C817 C808 1.390 . S
C817 H810 0.950 . S
C817 C814 1.387 . S
C818 C819 1.387 . S
C818 H822 0.950 . S
C818 C827 1.390 . S
C819 C818 1.387 . S
C819 C821 1.387 . S
H820 C827 0.950 . S
C821 C819 1.387 . S
C821 C823 1.390 . S
C821 H825 0.950 . S
H822 C818 0.950 . S
C823 C821 1.390 . S
C823 C824 1.387 . S
C823 H826 0.950 . S
C824 C823 1.387 . S
C824 C827 1.387 . S
H825 C821 0.950 . S
H826 C823 0.950 . S
C827 C818 1.390 . S
C827 H820 0.950 . S
C827 C824 1.387 . S
C828 C829 1.387 . S
C828 H832 0.950 . S
C828 C837 1.390 . S
C829 C828 1.387 . S
C829 C831 1.387 . S
H830 C837 0.950 . S
C831 C829 1.387 . S
C831 C833 1.390 . S
C831 H835 0.950 . S
H832 C828 0.950 . S
C833 C831 1.390 . S
C833 C834 1.387 . S
C833 H836 0.950 . S
C834 C833 1.387 . S
C834 C837 1.387 . S
H835 C831 0.950 . S
H836 C833 0.950 . S
C837 C828 1.390 . S
C837 H830 0.950 . S
C837 C834 1.387 . S
C838 C839 1.387 . S
C838 H842 0.950 . S
C838 C847 1.390 . S
C839 C838 1.387 . S
C839 C841 1.387 . S
H840 C847 0.950 . S
C841 C839 1.387 . S
C841 C843 1.390 . S
C841 H845 0.950 . S
H842 C838 0.950 . S
C843 C841 1.390 . S
C843 C844 1.387 . S
C843 H846 0.950 . S
C844 C843 1.387 . S
C844 C847 1.387 . S
H845 C841 0.950 . S
H846 C843 0.950 . S
C847 C838 1.390 . S
C847 H840 0.950 . S
C847 C844 1.387 . S
C848 C849 1.387 . S
C848 H852 0.950 . S
C848 C857 1.390 . S
C849 C848 1.387 . S
C849 C851 1.387 . S
H850 C857 0.950 . S
C851 C849 1.387 . S
C851 C853 1.390 . S
C851 H855 0.950 . S
H852 C848 0.950 . S
C853 C851 1.390 . S
C853 C854 1.387 . S
C853 H856 0.950 . S
C854 C853 1.387 . S
C854 C857 1.387 . S
H855 C851 0.950 . S
H856 C853 0.950 . S
C857 C848 1.390 . S
C857 H850 0.950 . S
C857 C854 1.387 . S
C858 C859 1.387 . S
C858 H862 0.950 . S
C858 C867 1.390 . S
C859 C858 1.387 . S
C859 C861 1.387 . S
H860 C867 0.950 . S
C861 C859 1.387 . S
C861 C863 1.390 . S
C861 H865 0.950 . S
H862 C858 0.950 . S
C863 C861 1.390 . S
C863 C864 1.387 . S
C863 H866 0.950 . S
C864 C863 1.387 . S
C864 C867 1.387 . S
H865 C861 0.950 . S
H866 C863 0.950 . S
C867 C858 1.390 . S
C867 H860 0.950 . S
C867 C864 1.387 . S
C868 C869 1.387 . S
C868 H872 0.950 . S
C868 C877 1.390 . S
C869 C868 1.387 . S
C869 C871 1.387 . S
H870 C877 0.950 . S
C871 C869 1.387 . S
C871 C873 1.390 . S
C871 H875 0.950 . S
H872 C868 0.950 . S
C873 C871 1.390 . S
C873 C874 1.387 . S
C873 H876 0.950 . S
C874 C873 1.387 . S
C874 C877 1.387 . S
H875 C871 0.950 . S
H876 C873 0.950 . S
C877 C868 1.390 . S
C877 H870 0.950 . S
C877 C874 1.387 . S
C878 C879 1.387 . S
C878 H882 0.950 . S
C878 C887 1.390 . S
C879 C878 1.387 . S
C879 C881 1.387 . S
H880 C887 0.950 . S
C881 C879 1.387 . S
C881 C883 1.390 . S
C881 H885 0.950 . S
H882 C878 0.950 . S
C883 C881 1.390 . S
C883 C884 1.387 . S
C883 H886 0.950 . S
C884 C883 1.387 . S
C884 C887 1.387 . S
H885 C881 0.950 . S
H886 C883 0.950 . S
C887 C878 1.390 . S
C887 H880 0.950 . S
C887 C884 1.387 . S
C888 C889 1.387 . S
C888 H892 0.950 . S
C888 C897 1.390 . S
C889 C888 1.387 . S
C889 C891 1.387 . S
H890 C897 0.950 . S
C891 C889 1.387 . S
C891 C893 1.390 . S
C891 H895 0.950 . S
H892 C888 0.950 . S
C893 C891 1.390 . S
C893 C894 1.387 . S
C893 H896 0.950 . S
C894 C893 1.387 . S
C894 C897 1.387 . S
H895 C891 0.950 . S
H896 C893 0.950 . S
C897 C888 1.390 . S
C897 H890 0.950 . S
C897 C894 1.387 . S
C898 C899 1.387 . S
C898 H902 0.950 . S
C898 C907 1.390 . S
C899 C898 1.387 . S
C899 C901 1.387 . S
H900 C907 0.950 . S
C901 C899 1.387 . S
C901 C903 1.390 . S
C901 H905 0.950 . S
H902 C898 0.950 . S
C903 C901 1.390 . S
C903 C904 1.387 . S
C903 H906 0.950 . S
C904 C903 1.387 . S
C904 C907 1.387 . S
H905 C901 0.950 . S
H906 C903 0.950 . S
C907 C898 1.390 . S
C907 H900 0.950 . S
C907 C904 1.387 . S
C908 C909 1.387 . S
C908 H912 0.950 . S
C908 C917 1.390 . S
C909 C908 1.387 . S
C909 C911 1.387 . S
H910 C917 0.950 . S
C911 C909 1.387 . S
C911 C913 1.390 . S
C911 H915 0.950 . S
H912 C908 0.950 . S
C913 C911 1.390 . S
C913 C914 1.387 . S
C913 H916 0.950 . S
C914 C913 1.387 . S
C914 C917 1.387 . S
H915 C911 0.950 . S
H916 C913 0.950 . S
C917 C908 1.390 . S
C917 H910 0.950 . S
C917 C914 1.387 . S
C918 C919 1.387 . S
C918 H922 0.950 . S
C918 C927 1.390 . S
C919 C918 1.387 . S
C919 C921 1.387 . S
H920 C927 0.950 . S
C921 C919 1.387 . S
C921 C923 1.390 . S
C921 H925 0.950 . S
H922 C918 0.950 . S
C923 C921 1.390 . S
C923 C924 1.387 . S
C923 H926 0.950 . S
C924 C923 1.387 . S
C924 C927 1.387 . S
H925 C921 0.950 . S
H926 C923 0.950 . S
C927 C918 1.390 . S
C927 H920 0.950 . S
C927 C924 1.387 . S
C529 C8 2.248 . S
C534 C74 2.248 . S
C539 C107 2.248 . S
C544 C41 2.248 . S
C549 C206 2.248 . S
C554 C140 2.248 . S
C559 C173 2.248 . S
C564 C239 2.248 . S
C569 C338 2.248 . S
C574 C272 2.248 . S
C579 C305 2.248 . S
C584 C371 2.248 . S
C589 C470 2.248 . S
C594 C404 2.248 . S
C599 C437 2.248 . S
C604 C503 2.248 . S
C609 C17 1.577 . S
C614 C347 1.578 . S
C619 C380 1.577 . S
C624 C50 1.578 . S
C629 C281 1.578 . S
C634 C83 1.577 . S
C639 C314 1.578 . S
C644 C116 1.577 . S
C649 C479 1.578 . S
C654 C149 1.577 . S
C659 C512 1.579 . S
C664 C182 1.577 . S
C669 C413 1.577 . S
C674 C215 1.578 . S
C679 C446 1.578 . S
C684 C248 1.577 . S
C689 C28 1.239 . S
C694 C259 1.239 . S
C699 C61 1.239 . S
C704 C160 1.238 . S
C709 C193 1.239 . S
C714 C94 1.238 . S
C719 C226 1.238 . S
C724 C127 1.239 . S
C729 C292 1.238 . S
C734 C523 1.240 . S
C739 C325 1.240 . S
C744 C424 1.238 . S
C749 C358 1.238 . S
C754 C457 1.240 . S
C759 C391 1.239 . S
C764 C490 1.238 . S
C769 N476 1.091 . S
C774 N5 1.153 . S
C779 N38 1.153 . S
C784 N509 1.096 . S
C789 N410 1.091 . S
C794 N71 1.153 . S
C799 N443 1.096 . S
C804 N104 1.153 . S
C809 N344 1.091 . S
C814 N137 1.153 . S
C819 N170 1.153 . S
C824 N377 1.095 . S
C829 N278 1.091 . S
C834 N203 1.153 . S
C839 N236 1.154 . S
C844 N311 1.096 . S
C849 N212 1.096 . S
C854 N269 1.154 . S
C859 N245 1.091 . S
C864 N302 1.153 . S
C869 N146 1.096 . S
C874 N335 1.154 . S
C879 N368 1.153 . S
C884 N179 1.096 . S
C889 N80 1.096 . S
C894 N401 1.154 . S
C899 N434 1.153 . S
C904 N113 1.091 . S
C909 N467 1.154 . S
C914 N14 1.096 . S
C919 N47 1.096 . S
C924 N500 1.153 . S
