# Generated by pormake.
# Topology zfl, (5)-cn, num edge types: 1
# Building blocks:
#     Node 0, Type 0, BuildingBlock: BEQFEK_clean_sbu_0, # of connection points: 5
#     Node 1, Type 0, BuildingBlock: BEQFEK_clean_sbu_0, # of connection points: 5
#     Node 2, Type 0, BuildingBlock: BEQFEK_clean_sbu_0, # of connection points: 5
#     Node 3, Type 0, BuildingBlock: BEQFEK_clean_sbu_0, # of connection points: 5
#     Node 4, Type 0, BuildingBlock: BEQFEK_clean_sbu_0, # of connection points: 5
#     Node 5, Type 0, BuildingBlock: BEQFEK_clean_sbu_0, # of connection points: 5
#     Node 6, Type 0, BuildingBlock: BEQFEK_clean_sbu_0, # of connection points: 5
#     Node 7, Type 0, BuildingBlock: BEQFEK_clean_sbu_0, # of connection points: 5
#     Node 8, Type 0, BuildingBlock: BEQFEK_clean_sbu_0, # of connection points: 5
#     Node 9, Type 0, BuildingBlock: BEQFEK_clean_sbu_0, # of connection points: 5
#     Node 10, Type 0, BuildingBlock: BEQFEK_clean_sbu_0, # of connection points: 5
#     Node 11, Type 0, BuildingBlock: BEQFEK_clean_sbu_0, # of connection points: 5
#     Node 12, Type 0, BuildingBlock: BEQFEK_clean_sbu_0, # of connection points: 5
#     Node 13, Type 0, BuildingBlock: BEQFEK_clean_sbu_0, # of connection points: 5
#     Node 14, Type 0, BuildingBlock: BEQFEK_clean_sbu_0, # of connection points: 5
#     Node 15, Type 0, BuildingBlock: BEQFEK_clean_sbu_0, # of connection points: 5
#     Edge 16, Type (0, 0), BuildingBlock: XIVTED_clean_linker_0, # of connection points: 2
#     Edge 17, Type (0, 0), BuildingBlock: XIVTED_clean_linker_0, # of connection points: 2
#     Edge 18, Type (0, 0), BuildingBlock: XIVTED_clean_linker_0, # of connection points: 2
#     Edge 19, Type (0, 0), BuildingBlock: XIVTED_clean_linker_0, # of connection points: 2
#     Edge 20, Type (0, 0), BuildingBlock: XIVTED_clean_linker_0, # of connection points: 2
#     Edge 21, Type (0, 0), BuildingBlock: XIVTED_clean_linker_0, # of connection points: 2
#     Edge 22, Type (0, 0), BuildingBlock: XIVTED_clean_linker_0, # of connection points: 2
#     Edge 23, Type (0, 0), BuildingBlock: XIVTED_clean_linker_0, # of connection points: 2
#     Edge 24, Type (0, 0), BuildingBlock: XIVTED_clean_linker_0, # of connection points: 2
#     Edge 25, Type (0, 0), BuildingBlock: XIVTED_clean_linker_0, # of connection points: 2
#     Edge 26, Type (0, 0), BuildingBlock: XIVTED_clean_linker_0, # of connection points: 2
#     Edge 27, Type (0, 0), BuildingBlock: XIVTED_clean_linker_0, # of connection points: 2
#     Edge 28, Type (0, 0), BuildingBlock: XIVTED_clean_linker_0, # of connection points: 2
#     Edge 29, Type (0, 0), BuildingBlock: XIVTED_clean_linker_0, # of connection points: 2
#     Edge 30, Type (0, 0), BuildingBlock: XIVTED_clean_linker_0, # of connection points: 2
#     Edge 31, Type (0, 0), BuildingBlock: XIVTED_clean_linker_0, # of connection points: 2
#     Edge 32, Type (0, 0), BuildingBlock: XIVTED_clean_linker_0, # of connection points: 2
#     Edge 33, Type (0, 0), BuildingBlock: XIVTED_clean_linker_0, # of connection points: 2
#     Edge 34, Type (0, 0), BuildingBlock: XIVTED_clean_linker_0, # of connection points: 2
#     Edge 35, Type (0, 0), BuildingBlock: XIVTED_clean_linker_0, # of connection points: 2
#     Edge 36, Type (0, 0), BuildingBlock: XIVTED_clean_linker_0, # of connection points: 2
#     Edge 37, Type (0, 0), BuildingBlock: XIVTED_clean_linker_0, # of connection points: 2
#     Edge 38, Type (0, 0), BuildingBlock: XIVTED_clean_linker_0, # of connection points: 2
#     Edge 39, Type (0, 0), BuildingBlock: XIVTED_clean_linker_0, # of connection points: 2
#     Edge 40, Type (0, 0), BuildingBlock: XIVTED_clean_linker_0, # of connection points: 2
#     Edge 41, Type (0, 0), BuildingBlock: XIVTED_clean_linker_0, # of connection points: 2
#     Edge 42, Type (0, 0), BuildingBlock: XIVTED_clean_linker_0, # of connection points: 2
#     Edge 43, Type (0, 0), BuildingBlock: XIVTED_clean_linker_0, # of connection points: 2
#     Edge 44, Type (0, 0), BuildingBlock: XIVTED_clean_linker_0, # of connection points: 2
#     Edge 45, Type (0, 0), BuildingBlock: XIVTED_clean_linker_0, # of connection points: 2
#     Edge 46, Type (0, 0), BuildingBlock: XIVTED_clean_linker_0, # of connection points: 2
#     Edge 47, Type (0, 0), BuildingBlock: XIVTED_clean_linker_0, # of connection points: 2
#     Edge 48, Type (0, 0), BuildingBlock: XIVTED_clean_linker_0, # of connection points: 2
#     Edge 49, Type (0, 0), BuildingBlock: XIVTED_clean_linker_0, # of connection points: 2
#     Edge 50, Type (0, 0), BuildingBlock: XIVTED_clean_linker_0, # of connection points: 2
#     Edge 51, Type (0, 0), BuildingBlock: XIVTED_clean_linker_0, # of connection points: 2
#     Edge 52, Type (0, 0), BuildingBlock: XIVTED_clean_linker_0, # of connection points: 2
#     Edge 53, Type (0, 0), BuildingBlock: XIVTED_clean_linker_0, # of connection points: 2
#     Edge 54, Type (0, 0), BuildingBlock: XIVTED_clean_linker_0, # of connection points: 2
#     Edge 55, Type (0, 0), BuildingBlock: XIVTED_clean_linker_0, # of connection points: 2
# Relax obj value: 0.190
# Max RMSD: 0.233
# Mean RMSD: 0.219
data_MOF--net-zfl--node1-BEQFEK_clean_sbu_0--edge1-XIVTED_clean_linker_0
_symmetry_space_group_name_H-M    P1
_symmetry_Int_Tables_number       1
_symmetry_cell_setting            triclinic
loop_
_symmetry_equiv_pos_as_xyz
'x, y, z'
_cell_length_a     27.441499
_cell_length_b     27.444771
_cell_length_c     76.275701
_cell_angle_alpha  90.01651
_cell_angle_beta   89.910466
_cell_angle_gamma 89.943721
loop_
_atom_site_label
_atom_site_type_symbol
_atom_site_fract_x
_atom_site_fract_y
_atom_site_fract_z
_atom_type_partial_charge
Co0 Co 0.57319 0.02409 0.16094 0.0
Co1 Co 0.58622 0.02718 0.11958 0.0
C2 C 0.49584 0.06438 0.13736 0.0
O3 O 0.5117 0.05343 0.15254 0.0
O4 O 0.52075 0.05543 0.12363 0.0
C5 C 0.54121 0.04002 0.19625 0.0
O6 O 0.52262 0.07928 0.189 0.0
C7 C 0.56095 0.00826 0.08273 0.0
C8 C 0.63127 0.0196 0.06924 0.0
C9 C 0.58288 0.00772 0.0663 0.0
N10 N 0.59476 0.02008 0.09476 0.0
N11 N 0.63666 0.02712 0.08658 0.0
C12 C 0.50961 0.99481 0.08719 0.0
H13 H 0.48645 0.02792 0.08654 0.0
H14 H 0.50769 0.98005 0.10073 0.0
H15 H 0.49525 0.96753 0.07778 0.0
C16 C 0.58846 0.91862 0.15377 0.0
N17 N 0.58634 0.96543 0.14849 0.0
N18 N 0.59463 0.96736 0.13151 0.0
C19 C 0.60474 0.92231 0.12559 0.0
C20 C 0.60052 0.88951 0.13942 0.0
C21 C 0.57361 0.90212 0.17171 0.0
H22 H 0.54411 0.9258 0.17683 0.0
H23 H 0.56043 0.86396 0.17162 0.0
H24 H 0.60534 0.90496 0.18065 0.0
O25 O 0.62588 0.07391 0.15715 0.0
O26 O 0.63369 0.0749 0.12811 0.0
H27 H 0.64615 0.93968 0.10262 0.0
H28 H 0.6382 0.87539 0.10613 0.0
C29 C 0.62019 0.91149 0.10715 0.0
H30 H 0.58782 0.91227 0.09846 0.0
H31 H 0.66901 0.03673 0.09286 0.0
O32 O 0.56598 0.01095 0.18675 0.0
C33 C 0.64557 0.09068 0.14321 0.0
Co34 Co 0.4651 0.56322 0.66247 0.0
Co35 Co 0.47114 0.57427 0.62103 0.0
C36 C 0.43056 0.48462 0.63735 0.0
O37 O 0.43724 0.5014 0.65276 0.0
O38 O 0.4436 0.50864 0.62387 0.0
C39 C 0.44937 0.52442 0.6972 0.0
O40 O 0.41337 0.50151 0.68943 0.0
C41 C 0.47816 0.55801 0.58272 0.0
C42 C 0.50565 0.62896 0.57335 0.0
C43 C 0.49243 0.58286 0.5677 0.0
N44 N 0.48365 0.58768 0.59663 0.0
N45 N 0.49978 0.63017 0.59089 0.0
C46 C 0.45453 0.50906 0.58373 0.0
H47 H 0.41982 0.51269 0.59107 0.0
H48 H 0.47864 0.48365 0.59099 0.0
H49 H 0.44621 0.49387 0.57061 0.0
C50 C 0.5694 0.58887 0.65865 0.0
N51 N 0.52525 0.57989 0.65168 0.0
N52 N 0.52863 0.58102 0.63449 0.0
C53 C 0.57549 0.58838 0.62993 0.0
C54 C 0.60299 0.59444 0.6451 0.0
C55 C 0.57839 0.59375 0.67792 0.0
H56 H 0.54756 0.61335 0.68416 0.0
H57 H 0.58074 0.5569 0.68385 0.0
H58 H 0.61263 0.61389 0.68058 0.0
O59 O 0.41607 0.61485 0.65816 0.0
O60 O 0.42037 0.621 0.62909 0.0
H61 H 0.59387 0.61971 0.60513 0.0
H62 H 0.63225 0.56945 0.61144 0.0
C63 C 0.59433 0.58348 0.61157 0.0
H64 H 0.57119 0.55807 0.60397 0.0
H65 H 0.50691 0.66 0.59898 0.0
O66 O 0.47545 0.55367 0.68828 0.0
C67 C 0.40161 0.63346 0.64375 0.0
Co68 Co 0.91935 0.45854 0.16282 0.0
Co69 Co 0.90784 0.46312 0.12141 0.0
C70 C -0.00185 0.42423 0.13766 0.0
O71 O 0.98139 0.43067 0.15311 0.0
O72 O 0.97385 0.43689 0.12421 0.0
C73 C 0.96434 0.49055 0.19484 0.0
O74 O 0.99555 0.51056 0.18393 0.0
C75 C 0.92261 0.46726 0.08279 0.0
C76 C 0.85257 0.49801 0.07387 0.0
C77 C 0.89766 0.48238 0.06788 0.0
N78 N 0.89401 0.47472 0.09693 0.0
N79 N 0.85201 0.49267 0.09142 0.0
C80 C 0.97064 0.44162 0.08353 0.0
H81 H -0.00163 0.46663 0.08907 0.0
H82 H 0.98264 0.42884 0.07043 0.0
H83 H 0.96745 0.40949 0.09226 0.0
C84 C 0.89249 0.56311 0.1586 0.0
N85 N 0.90181 0.51857 0.15193 0.0
N86 N 0.90103 0.52117 0.1347 0.0
C87 C 0.89425 0.56789 0.12987 0.0
C88 C 0.88775 0.59613 0.14485 0.0
C89 C 0.88574 0.57321 0.17773 0.0
H90 H 0.86996 0.54091 0.18437 0.0
H91 H 0.92159 0.58135 0.18374 0.0
H92 H 0.86138 0.60503 0.17977 0.0
O93 O 0.86816 0.40938 0.15882 0.0
O94 O 0.8617 0.41182 0.12977 0.0
H95 H 0.86476 0.58687 0.10485 0.0
H96 H 0.91624 0.62322 0.11132 0.0
C97 C 0.90069 0.58593 0.11147 0.0
H98 H 0.9255 0.56156 0.10407 0.0
H99 H 0.823 0.50156 0.09969 0.0
O100 O 0.92843 0.46678 0.18868 0.0
C101 C 0.84956 0.39387 0.14459 0.0
Co102 Co 0.03284 0.90505 0.66244 0.0
Co103 Co 0.0303 0.90013 0.62092 0.0
C104 C 0.06899 0.98715 0.63905 0.0
O105 O 0.06108 0.96757 0.65394 0.0
O106 O 0.05733 0.96561 0.6249 0.0
C107 C 0.00045 0.94934 0.69419 0.0
O108 O 0.98415 0.98214 0.68311 0.0
C109 C 0.02564 0.92075 0.58278 0.0
C110 C -0.0016 0.85085 0.57234 0.0
C111 C 0.01217 0.89739 0.56736 0.0
N112 N 0.01926 0.88969 0.59627 0.0
N113 N 0.00321 0.84791 0.58988 0.0
C114 C 0.04877 0.96979 0.58461 0.0
H115 H 0.08273 0.96603 0.59234 0.0
H116 H 0.0237 0.99442 0.59183 0.0
H117 H 0.05818 0.98607 0.57175 0.0
C118 C 0.92898 0.88019 0.65741 0.0
N119 N 0.97368 0.88967 0.651 0.0
N120 N 0.97152 0.89177 0.63379 0.0
C121 C 0.92475 0.88653 0.62876 0.0
C122 C 0.89613 0.87844 0.64357 0.0
C123 C 0.91851 0.8708 0.67638 0.0
H124 H 0.9502 0.85277 0.68265 0.0
H125 H 0.91171 0.9059 0.68316 0.0
H126 H 0.88582 0.84739 0.67792 0.0
O127 O 0.0817 0.85422 0.65781 0.0
O128 O 0.08114 0.8523 0.62864 0.0
H129 H 0.90664 0.86046 0.60318 0.0
H130 H 0.86997 0.9111 0.61042 0.0
C131 C 0.90726 0.89547 0.61044 0.0
H132 H 0.93193 0.92113 0.60358 0.0
H133 H 0.99542 0.81736 0.59753 0.0
O134 O 0.02268 0.9121 0.68825 0.0
C135 C 0.09806 0.83776 0.64334 0.0
Co136 Co 0.56315 0.46263 0.85823 0.0
Co137 Co 0.56969 0.46576 0.89977 0.0
C138 C 0.48193 0.42691 0.88186 0.0
O139 O 0.50023 0.43541 0.8668 0.0
O140 O 0.50467 0.43802 0.89581 0.0
C141 C 0.52934 0.44686 0.82298 0.0
O142 O 0.50794 0.40914 0.83027 0.0
C143 C 0.54273 0.48589 0.93648 0.0
C144 C 0.61258 0.47488 0.95029 0.0
C145 C 0.56384 0.48572 0.95302 0.0
N146 N 0.5775 0.47589 0.92453 0.0
N147 N 0.61922 0.46964 0.93288 0.0
C148 C 0.48975 0.49053 0.93214 0.0
H149 H 0.47327 0.45365 0.93203 0.0
H150 H 0.48518 0.50679 0.91893 0.0
H151 H 0.46995 0.51279 0.94194 0.0
C152 C 0.58917 0.56595 0.86302 0.0
N153 N 0.57926 0.52167 0.86965 0.0
N154 N 0.57917 0.52413 0.88687 0.0
C155 C 0.58724 0.57062 0.89177 0.0
C156 C 0.59417 0.59886 0.87677 0.0
C157 C 0.59532 0.57573 0.84383 0.0
H158 H 0.61599 0.54548 0.83766 0.0
H159 H 0.55891 0.57754 0.83755 0.0
H160 H 0.61504 0.6104 0.84148 0.0
O161 O 0.61337 0.41267 0.863 0.0
O162 O 0.61721 0.41476 0.89216 0.0
H163 H 0.61689 0.57761 0.91754 0.0
H164 H 0.57789 0.62782 0.91123 0.0
C165 C 0.58332 0.58791 0.91034 0.0
H166 H 0.55198 0.57 0.9168 0.0
H167 H 0.65199 0.4606 0.92672 0.0
O168 O 0.55614 0.47413 0.83239 0.0
C169 C 0.63054 0.39685 0.87746 0.0
Co170 Co 0.0321 0.57428 0.35766 0.0
Co171 Co 0.03479 0.59585 0.39848 0.0
C172 C 0.07219 0.5018 0.38279 0.0
O173 O 0.06187 0.51356 0.36707 0.0
O174 O 0.06277 0.53028 0.39552 0.0
C175 C 0.01001 0.52453 0.32513 0.0
O176 O 0.00641 0.48614 0.33534 0.0
C177 C 0.01439 0.5731 0.43536 0.0
C178 C 0.02828 0.64315 0.44866 0.0
C179 C 0.01475 0.59524 0.45175 0.0
N180 N 0.0274 0.60624 0.42323 0.0
N181 N 0.03585 0.64802 0.43128 0.0
C182 C -0.00129 0.52233 0.43103 0.0
H183 H 0.985 0.5205 0.41736 0.0
H184 H 0.96992 0.50987 0.44023 0.0
H185 H 0.03044 0.4975 0.43223 0.0
C186 C 0.92592 0.59096 0.36467 0.0
N187 N 0.97298 0.59008 0.36978 0.0
N188 N 0.97523 0.60201 0.38647 0.0
C189 C 0.9303 0.61279 0.39233 0.0
C190 C 0.89714 0.60542 0.37885 0.0
C191 C 0.9091 0.57251 0.34723 0.0
H192 H 0.92454 0.53572 0.34499 0.0
H193 H 0.86895 0.56997 0.34632 0.0
H194 H 0.92301 0.59686 0.33675 0.0
O195 O 0.082 0.62745 0.36039 0.0
O196 O 0.08238 0.64216 0.38908 0.0
H197 H 0.88335 0.64865 0.41119 0.0
H198 H 0.92048 0.59974 0.41975 0.0
C199 C 0.91961 0.63081 0.41047 0.0
H200 H 0.94776 0.65748 0.41448 0.0
H201 H 0.04668 0.67988 0.42491 0.0
O202 O 0.02005 0.56569 0.33192 0.0
C203 C 0.09845 0.65045 0.37369 0.0
Co204 Co 0.89619 0.02584 0.85506 0.0
Co205 Co 0.89049 0.01976 0.89647 0.0
C206 C 0.9769 0.06193 0.87887 0.0
O207 O 0.95826 0.0542 0.86383 0.0
O208 O 0.95487 0.04939 0.89283 0.0
C209 C 0.942 0.99735 0.82325 0.0
O210 O 0.97469 0.98118 0.83441 0.0
C211 C 0.9156 0.00219 0.93362 0.0
C212 C 0.84302 0.99181 0.94558 0.0
C213 C 0.89234 0.99288 0.94946 0.0
N214 N 0.88157 0.00684 0.92102 0.0
N215 N 0.83827 0.0007 0.92829 0.0
C216 C 0.9693 0.0023 0.93016 0.0
H217 H 0.97701 0.98798 0.91684 0.0
H218 H 0.98898 0.97981 0.93995 0.0
H219 H 0.98295 0.04026 0.93094 0.0
C220 C 0.87349 0.92091 0.85899 0.0
N221 N 0.88186 0.96532 0.86583 0.0
N222 N 0.88314 0.96193 0.88303 0.0
C223 C 0.87799 0.91481 0.88764 0.0
C224 C 0.87129 0.88708 0.87253 0.0
C225 C 0.86572 0.91148 0.83986 0.0
H226 H 0.84727 0.94308 0.8337 0.0
H227 H 0.90148 0.90608 0.83335 0.0
H228 H 0.84335 0.87828 0.83784 0.0
O229 O 0.84466 0.07382 0.86029 0.0
O230 O 0.84164 0.0702 0.88943 0.0
H231 H 0.85047 0.90069 0.91337 0.0
H232 H 0.8963 0.85775 0.9062 0.0
C233 C 0.88505 0.89652 0.90597 0.0
H234 H 0.91359 0.91816 0.91261 0.0
H235 H 0.80545 0.00222 0.92142 0.0
O236 O 0.90385 0.01809 0.82917 0.0
C237 C 0.82747 0.08851 0.87491 0.0
Co238 Co 0.47047 0.92611 0.35734 0.0
Co239 Co 0.46562 0.90651 0.39833 0.0
C240 C 0.43051 0.00025 0.38225 0.0
O241 O 0.44085 0.98728 0.36663 0.0
O242 O 0.43945 0.97258 0.39523 0.0
C243 C 0.46122 0.96489 0.32239 0.0
O244 O 0.42451 0.98831 0.32958 0.0
C245 C 0.48395 0.9268 0.43566 0.0
C246 C 0.4616 0.8579 0.44821 0.0
C247 C 0.47866 0.90436 0.45195 0.0
N248 N 0.4703 0.89519 0.42309 0.0
N249 N 0.45696 0.85409 0.4307 0.0
C250 C 0.50385 0.97637 0.4318 0.0
H251 H 0.51861 0.9777 0.41824 0.0
H252 H 0.53291 0.98604 0.44128 0.0
H253 H 0.47406 0.00356 0.43285 0.0
C254 C 0.57564 0.90681 0.36496 0.0
N255 N 0.52857 0.90985 0.36997 0.0
N256 N 0.52547 0.89871 0.38671 0.0
C257 C 0.5697 0.88599 0.3927 0.0
C258 C 0.60343 0.89133 0.37922 0.0
C259 C 0.59376 0.92321 0.3474 0.0
H260 H 0.59032 0.89272 0.33793 0.0
H261 H 0.57146 0.95415 0.34261 0.0
H262 H 0.6324 0.93483 0.34799 0.0
O263 O 0.41966 0.87338 0.35971 0.0
O264 O 0.41795 0.86126 0.38855 0.0
H265 H 0.54843 0.84243 0.41473 0.0
H266 H 0.61335 0.84605 0.41146 0.0
C267 C 0.57869 0.8668 0.41079 0.0
H268 H 0.58016 0.89767 0.42016 0.0
H269 H 0.44428 0.82357 0.42394 0.0
O270 O 0.48581 0.93541 0.33176 0.0
C271 C 0.40247 0.85172 0.3732 0.0
Co272 Co 0.4119 0.96395 0.91201 0.0
Co273 Co 0.38692 0.96 0.87152 0.0
C274 C 0.4824 0.92345 0.88628 0.0
O275 O 0.47213 0.93527 0.90199 0.0
O276 O 0.45259 0.93145 0.87387 0.0
C277 C 0.4503 0.94491 0.9457 0.0
O278 O 0.46446 0.90535 0.93742 0.0
C279 C 0.40476 0.9897 0.83505 0.0
C280 C 0.33967 0.96175 0.82139 0.0
C281 C 0.38303 0.98657 0.81858 0.0
N282 N 0.37533 0.96826 0.8469 0.0
N283 N 0.33649 0.95163 0.83863 0.0
C284 C 0.45356 0.01071 0.8395 0.0
H285 H 0.45077 0.05098 0.84013 0.0
H286 H 0.4808 0.00083 0.82933 0.0
H287 H 0.46611 -0.00204 0.85248 0.0
C288 C 0.39273 0.06983 0.90498 0.0
N289 N 0.39464 0.02265 0.90001 0.0
N290 N 0.38047 0.01944 0.88359 0.0
C291 C 0.36629 0.06356 0.87792 0.0
C292 C 0.37465 0.09748 0.89107 0.0
C293 C 0.41195 0.08818 0.9221 0.0
H294 H 0.44102 0.06372 0.92703 0.0
H295 H 0.42682 0.12556 0.92074 0.0
H296 H 0.38186 0.08888 0.93183 0.0
O297 O 0.35914 0.91306 0.90988 0.0
O298 O 0.34173 0.91234 0.88137 0.0
H299 H 0.31834 0.10552 0.86129 0.0
H300 H 0.36901 0.0771 0.85027 0.0
C301 C 0.34138 0.0723 0.86073 0.0
H302 H 0.31813 0.04068 0.85733 0.0
H303 H 0.308 0.93301 0.84474 0.0
O304 O 0.42502 0.97629 0.93744 0.0
C305 C 0.33516 0.89622 0.89686 0.0
Co306 Co 0.53248 0.40967 0.41328 0.0
Co307 Co 0.52627 0.39796 0.37213 0.0
C308 C 0.56947 0.48615 0.38754 0.0
O309 O 0.56184 0.46909 0.40283 0.0
O310 O 0.55625 0.46293 0.37393 0.0
C311 C 0.50744 0.46527 0.44299 0.0
O312 O 0.49342 0.49502 0.43047 0.0
C313 C 0.50596 0.41421 0.3346 0.0
C314 C 0.49322 0.33905 0.32529 0.0
C315 C 0.49354 0.38723 0.31986 0.0
N316 N 0.51276 0.38331 0.34808 0.0
N317 N 0.50557 0.33843 0.34236 0.0
C318 C 0.50611 0.46853 0.3364 0.0
H319 H 0.49352 0.47923 0.34968 0.0
H320 H 0.48225 0.48589 0.32647 0.0
H321 H 0.54386 0.48208 0.33459 0.0
C322 C 0.42745 0.38682 0.40998 0.0
N323 N 0.47181 0.39436 0.40294 0.0
N324 N 0.46844 0.39313 0.38575 0.0
C325 C 0.42138 0.38687 0.38127 0.0
C326 C 0.39368 0.38205 0.39649 0.0
C327 C 0.41821 0.38269 0.42926 0.0
H328 H 0.44987 0.36536 0.4358 0.0
H329 H 0.41326 0.41966 0.43487 0.0
H330 H 0.38495 0.3609 0.43192 0.0
O331 O 0.5798 0.35659 0.40944 0.0
O332 O 0.57635 0.35049 0.38037 0.0
H333 H 0.40715 0.35572 0.3561 0.0
H334 H 0.36418 0.40244 0.36245 0.0
C335 C 0.40298 0.39127 0.36286 0.0
H336 H 0.4244 0.41896 0.35569 0.0
H337 H 0.50784 0.30745 0.35025 0.0
O338 O 0.52508 0.42397 0.43878 0.0
C339 C 0.59444 0.33775 0.39508 0.0
Co340 Co 0.06279 0.52347 0.91163 0.0
Co341 Co 0.09049 0.52505 0.87126 0.0
C342 C 0.99534 0.56475 0.88469 0.0
O343 O 0.00523 0.55459 0.90058 0.0
O344 O 0.02491 0.55436 0.87238 0.0
C345 C 0.00269 0.50454 0.94165 0.0
O346 O 0.96873 0.50245 0.92955 0.0
C347 C 0.07572 0.50077 0.83428 0.0
C348 C 0.14862 0.51255 0.82275 0.0
C349 C 0.10165 0.49786 0.81865 0.0
N350 N 0.10592 0.51641 0.84695 0.0
N351 N 0.14935 0.52386 0.83994 0.0
C352 C 0.02433 0.48504 0.83758 0.0
H353 H 0.01968 0.47393 0.85147 0.0
H354 H 0.01421 0.45437 0.82883 0.0
H355 H -0.00051 0.5161 0.83494 0.0
C356 C 0.07923 0.41689 0.90529 0.0
N357 N 0.07936 0.46385 0.90002 0.0
N358 N 0.09374 0.46568 0.88357 0.0
C359 C 0.10531 0.42059 0.8781 0.0
C360 C 0.09564 0.38779 0.89149 0.0
C361 C 0.05875 0.40051 0.9225 0.0
H362 H 0.08154 0.41517 0.93329 0.0
H363 H 0.02153 0.41561 0.92408 0.0
H364 H 0.05673 0.36034 0.92357 0.0
O365 O 0.11762 0.57217 0.91011 0.0
O366 O 0.13578 0.57172 0.88165 0.0
H367 H 0.15447 0.4373 0.85709 0.0
H368 H 0.1451 0.3731 0.86049 0.0
C369 C 0.12705 0.4093 0.86053 0.0
H370 H 0.09799 0.40951 0.85045 0.0
H371 H 0.17969 0.5358 0.84696 0.0
O372 O 0.04663 0.51215 0.93699 0.0
C373 C 0.14261 0.5878 0.89712 0.0
Co374 Co 0.96858 0.07366 0.4136 0.0
Co375 Co 0.97286 0.08417 0.37231 0.0
C376 C 0.93262 0.99543 0.38833 0.0
O377 O 0.94004 0.01339 0.4035 0.0
O378 O 0.94533 0.01822 0.37455 0.0
C379 C 0.99666 0.01938 0.44322 0.0
O380 O 0.01128 0.99012 0.43063 0.0
C381 C 0.992 0.06827 0.33454 0.0
C382 C -0.00078 0.14384 0.32492 0.0
C383 C 0.00167 0.09563 0.31961 0.0
N384 N 0.98501 0.09897 0.34809 0.0
N385 N 0.98911 0.14407 0.3422 0.0
C386 C 0.98648 0.01414 0.33591 0.0
H387 H 0.94962 0.00577 0.34101 0.0
H388 H 0.01341 -0.00039 0.3454 0.0
H389 H 0.99075 0.99567 0.32308 0.0
C390 C 0.07256 0.09993 0.40951 0.0
N391 N 0.02828 0.0904 0.40278 0.0
N392 N 0.03095 0.0912 0.38557 0.0
C393 C 0.07755 0.09907 0.38076 0.0
C394 C 0.10561 0.10553 0.39579 0.0
C395 C 0.08222 0.10545 0.42871 0.0
H396 H 0.05 0.12161 0.43532 0.0
H397 H 0.08906 0.06902 0.43451 0.0
H398 H 0.1145 0.12889 0.43105 0.0
O399 O 0.91987 0.12544 0.40993 0.0
O400 O 0.9215 0.13015 0.3808 0.0
H401 H 0.08961 0.12995 0.35539 0.0
H402 H 0.13447 0.08497 0.36165 0.0
C403 C 0.09532 0.09476 0.36225 0.0
H404 H 0.07454 0.06612 0.35532 0.0
H405 H 0.98545 0.17504 0.35004 0.0
O406 O 0.97745 0.06002 0.43911 0.0
C407 C 0.90387 0.1431 0.39559 0.0
Co408 Co 0.40529 0.52299 0.10884 0.0
Co409 Co 0.38658 0.52903 0.1496 0.0
C410 C 0.47933 0.56484 0.13333 0.0
O411 O 0.46511 0.55305 0.11804 0.0
O412 O 0.45292 0.55668 0.14676 0.0
C413 C 0.4207 0.54318 0.07247 0.0
O414 O 0.41178 0.588 0.07763 0.0
C415 C 0.40478 0.50686 0.18651 0.0
C416 C 0.33369 0.52287 0.19886 0.0
C417 C 0.38031 0.50614 0.20245 0.0
N418 N 0.37405 0.5232 0.17413 0.0
N419 N 0.33176 0.53323 0.18162 0.0
C420 C 0.45498 0.48837 0.18265 0.0
H421 H 0.45791 0.4771 0.16871 0.0
H422 H 0.46416 0.45716 0.1913 0.0
H423 H 0.48163 0.518 0.18504 0.0
C424 C 0.38897 0.41778 0.11657 0.0
N425 N 0.3904 0.46501 0.1214 0.0
N426 N 0.37938 0.46834 0.13815 0.0
C427 C 0.36798 0.42383 0.14428 0.0
C428 C 0.37448 0.38992 0.13094 0.0
C429 C 0.40641 0.39974 0.09912 0.0
H430 H 0.43632 0.42319 0.09422 0.0
H431 H 0.41988 0.36171 0.09993 0.0
H432 H 0.37589 0.40137 0.08962 0.0
O433 O 0.35202 0.57296 0.11095 0.0
O434 O 0.3408 0.57632 0.13981 0.0
H435 H 0.32917 0.37908 0.16302 0.0
H436 H 0.37944 0.41373 0.17178 0.0
C437 C 0.34875 0.41439 0.16235 0.0
H438 H 0.32323 0.44379 0.1662 0.0
H439 H 0.30128 0.54611 0.17489 0.0
O440 O 0.41824 0.5088 0.08362 0.0
C441 C 0.33078 0.59092 0.12439 0.0
Co442 Co 0.96765 0.42164 0.60573 0.0
Co443 Co 0.97195 0.39959 0.64657 0.0
C444 C 0.93078 0.49245 0.63332 0.0
O445 O 0.9388 0.48032 0.61744 0.0
O446 O 0.94312 0.4648 0.64592 0.0
C447 C 0.94759 0.46774 0.57295 0.0
O448 O 0.91027 0.48446 0.58193 0.0
C449 C 0.99146 0.41147 0.68441 0.0
C450 C -0.00134 0.33517 0.69321 0.0
C451 C 0.00103 0.38294 0.69904 0.0
N452 N 0.98365 0.38191 0.67059 0.0
N453 N 0.98758 0.33633 0.67601 0.0
C454 C 0.99497 0.46577 0.6831 0.0
H455 H 0.00742 0.47662 0.66983 0.0
H456 H 0.0206 0.48053 0.693 0.0
H457 H 0.95843 0.48181 0.68546 0.0
C458 C 0.07246 0.39536 0.60923 0.0
N459 N 0.02782 0.40273 0.61614 0.0
N460 N 0.02998 0.3963 0.63321 0.0
C461 C 0.07627 0.3863 0.6378 0.0
C462 C 0.10485 0.38456 0.62273 0.0
C463 C 0.08309 0.39712 0.58999 0.0
H464 H 0.0526 0.38039 0.5826 0.0
H465 H 0.08625 0.43572 0.58582 0.0
H466 H 0.11742 0.37764 0.58679 0.0
O467 O 0.91884 0.36864 0.60804 0.0
O468 O 0.92196 0.35479 0.63679 0.0
H469 H 0.08472 0.34749 0.66193 0.0
H470 H 0.13304 0.39057 0.65759 0.0
C471 C 0.09337 0.38389 0.65643 0.0
H472 H 0.07439 0.41192 0.6643 0.0
H473 H 0.98379 0.30602 0.66787 0.0
O474 O 0.9772 0.43865 0.5804 0.0
C475 C 0.90387 0.34625 0.62168 0.0
Co476 Co 0.06198 0.96218 0.10408 0.0
Co477 Co 0.0801 0.96749 0.14499 0.0
C478 C 0.98892 0.92527 0.13098 0.0
O479 O 0.00293 0.9328 0.11527 0.0
O480 O 0.01477 0.93865 0.14394 0.0
C481 C 0.02255 0.93771 0.07089 0.0
O482 O 0.01099 0.89796 0.07954 0.0
C483 C 0.06747 0.98866 0.18265 0.0
C484 C 0.14365 0.99172 0.19192 0.0
C485 C 0.09581 0.99692 0.19743 0.0
N486 N 0.09726 0.97975 0.16899 0.0
N487 N 0.14274 0.98141 0.17465 0.0
C488 C 0.0131 0.98587 0.18156 0.0
H489 H -7e-05 0.00872 0.17054 0.0
H490 H 0.99492 0.99684 0.19391 0.0
H491 H 0.00276 0.94768 0.17873 0.0
C492 C 0.08783 0.06694 0.10749 0.0
N493 N 0.07965 0.02259 0.11445 0.0
N494 N 0.08411 0.02528 0.13159 0.0
C495 C 0.09334 0.07173 0.13617 0.0
C496 C 0.09684 0.09983 0.12103 0.0
C497 C 0.08873 0.07673 0.08819 0.0
H498 H 0.10554 0.04547 0.08121 0.0
H499 H 0.05079 0.08083 0.0834 0.0
H500 H 0.10951 0.11035 0.08514 0.0
O501 O 0.11513 0.91402 0.10678 0.0
O502 O 0.12574 0.91743 0.13568 0.0
H503 H 0.12906 0.0814 0.16084 0.0
H504 H 0.08563 0.12891 0.1557 0.0
C505 C 0.09321 0.08934 0.15477 0.0
H506 H 0.0646 0.0701 0.16226 0.0
H507 H 0.17319 0.9758 0.16668 0.0
O508 O 0.04626 0.97097 0.07875 0.0
C509 C 0.13609 0.89929 0.12072 0.0
Co510 Co 0.53188 0.07149 0.60761 0.0
Co511 Co 0.53381 0.09629 0.64832 0.0
C512 C 0.57439 0.00266 0.63373 0.0
O513 O 0.56364 0.01346 0.618 0.0
O514 O 0.5643 0.03141 0.64629 0.0
C515 C 0.5159 0.01209 0.57743 0.0
O516 O 0.51634 0.97821 0.58959 0.0
C517 C 0.50367 0.07896 0.68485 0.0
C518 C 0.52789 0.14618 0.69811 0.0
C519 C 0.50483 0.10197 0.70113 0.0
N520 N 0.52441 0.10852 0.67288 0.0
N521 N 0.53889 0.14859 0.68092 0.0
C522 C 0.48501 0.02899 0.6807 0.0
H523 H 0.44474 0.03008 0.67959 0.0
H524 H 0.49497 0.00306 0.69128 0.0
H525 H 0.49948 0.01581 0.66802 0.0
C526 C 0.42508 0.08676 0.61451 0.0
N527 N 0.47224 0.08655 0.61955 0.0
N528 N 0.4746 0.10072 0.63601 0.0
C529 C 0.42988 0.11322 0.64161 0.0
C530 C 0.39655 0.10362 0.62841 0.0
C531 C 0.40794 0.06689 0.59732 0.0
H532 H 0.41687 0.09327 0.58678 0.0
H533 H 0.42737 0.03241 0.59443 0.0
H534 H 0.36822 0.05972 0.59731 0.0
O535 O 0.58056 0.1265 0.60988 0.0
O536 O 0.58018 0.14279 0.63851 0.0
H537 H 0.44999 0.1622 0.66233 0.0
H538 H 0.38532 0.15887 0.65825 0.0
C539 C 0.41962 0.13746 0.65883 0.0
H540 H 0.41584 0.10955 0.66922 0.0
H541 H 0.55644 0.17752 0.67468 0.0
O542 O 0.52046 0.0565 0.58204 0.0
C543 C 0.59625 0.15059 0.62309 0.0
H544 H 0.48341 0.09119 0.2189 0.0
H545 H 0.53178 0.91999 0.30223 0.0
H546 H 0.57571 0.96393 0.21641 0.0
H547 H 0.42074 0.03132 0.30004 0.0
H548 H 0.55268 0.93764 0.27156 0.0
H549 H 0.46489 0.07236 0.24939 0.0
C550 C 0.49999 0.0593 0.22477 0.0
C551 C 0.53121 0.02912 0.215 0.0
C552 C 0.52369 0.95808 0.27782 0.0
C553 C 0.50996 0.0072 0.25016 0.0
C554 C 0.51175 0.94805 0.29533 0.0
C555 C 0.47435 0.97414 0.30377 0.0
C556 C 0.49835 0.99473 0.26872 0.0
C557 C 0.44975 0.01015 0.29413 0.0
C558 C 0.48923 0.04847 0.24222 0.0
C559 C 0.55145 0.98825 0.22341 0.0
N560 N 0.46226 0.0194 0.27721 0.0
N561 N 0.54053 0.9785 0.24051 0.0
H562 H 0.56843 0.52099 0.80309 0.0
H563 H 0.40483 0.45907 0.71901 0.0
H564 H 0.46813 0.40018 0.80026 0.0
H565 H 0.51998 0.5661 0.71801 0.0
H566 H 0.42513 0.44049 0.74938 0.0
H567 H 0.54941 0.54095 0.77251 0.0
C568 C 0.54257 0.49856 0.79604 0.0
C569 C 0.5199 0.45878 0.80429 0.0
C570 C 0.44602 0.46807 0.74255 0.0
C571 C 0.4977 0.4817 0.76933 0.0
C572 C 0.43433 0.47885 0.72518 0.0
C573 C 0.46071 0.51424 0.71588 0.0
C574 C 0.48432 0.49294 0.75085 0.0
C575 C 0.49862 0.53854 0.72465 0.0
C576 C 0.53172 0.51001 0.77858 0.0
C577 C 0.48661 0.43112 0.79449 0.0
N578 N 0.50926 0.52747 0.74164 0.0
N579 N 0.47646 0.44319 0.77761 0.0
H580 H 0.02323 0.55512 0.2121 0.0
H581 H 0.969 0.44807 0.30744 0.0
H582 H 0.91916 0.44015 0.22135 0.0
H583 H 0.03215 0.59018 0.29916 0.0
H584 H 0.95667 0.44037 0.27579 0.0
H585 H 0.03327 0.56437 0.24381 0.0
C586 C 0.00253 0.53176 0.22079 0.0
C587 C 0.97034 0.49674 0.21404 0.0
C588 C 0.97309 0.47329 0.28091 0.0
C589 C 0.98194 0.50698 0.25038 0.0
C590 C 0.98032 0.47767 0.29897 0.0
C591 C 0.00171 0.51984 0.30598 0.0
C592 C 0.98798 0.51104 0.2697 0.0
C593 C 0.01543 0.55707 0.29435 0.0
C594 C 0.00815 0.53721 0.2389 0.0
C595 C 0.9443 0.46768 0.22596 0.0
N596 N 0.00863 0.55167 0.27678 0.0
N597 N 0.9509 0.47323 0.24354 0.0
H598 H 0.03861 0.89567 0.72126 0.0
H599 H 0.88896 0.03612 0.7961 0.0
H600 H 0.94175 0.01603 0.7106 0.0
H601 H 0.01117 0.94168 0.80686 0.0
H602 H 0.90238 0.0238 0.76465 0.0
H603 H 0.02361 0.90659 0.75267 0.0
C604 C 0.01414 0.92434 0.72551 0.0
C605 C 0.99155 0.95509 0.71326 0.0
C606 C 0.92626 0.00582 0.77391 0.0
C607 C 0.974 0.96761 0.7492 0.0
C608 C 0.91855 0.01274 0.79187 0.0
C609 C 0.94908 0.99004 0.80416 0.0
C610 C 0.96447 0.97557 0.76818 0.0
C611 C 0.98686 0.96012 0.79788 0.0
C612 C 0.00568 0.93063 0.74345 0.0
C613 C 0.96017 0.99162 0.71956 0.0
N614 N 0.99339 0.95368 0.78036 0.0
N615 N 0.95224 0.99679 0.73707 0.0
H616 H 0.36398 0.94717 0.78651 0.0
H617 H 0.54082 0.12497 0.73338 0.0
H618 H 0.44129 0.06629 0.81074 0.0
H619 H 0.42657 0.04158 0.70875 0.0
H620 H 0.5116 0.09738 0.76201 0.0
H621 H 0.39321 0.97475 0.75788 0.0
C622 C 0.38737 0.97889 0.78588 0.0
C623 C 0.40124 0.00348 0.80123 0.0
C624 C 0.49321 0.08486 0.75029 0.0
C625 C 0.43491 0.03521 0.76843 0.0
C626 C 0.50986 0.10057 0.73393 0.0
C627 C 0.48714 0.08454 0.71848 0.0
C628 C 0.4535 0.05278 0.75128 0.0
C629 C 0.44686 0.05326 0.72009 0.0
C630 C 0.40403 0.99458 0.76951 0.0
C631 C 0.43131 0.04464 0.79951 0.0
N632 N 0.43153 0.03823 0.73616 0.0
N633 N 0.44733 0.059 0.78344 0.0
H634 H 0.53568 0.45927 0.30004 0.0
H635 H 0.32983 0.45244 0.22624 0.0
H636 H 0.41854 0.35467 0.2998 0.0
H637 H 0.46952 0.52054 0.21794 0.0
H638 H 0.35814 0.423 0.25475 0.0
H639 H 0.50878 0.4886 0.27123 0.0
C640 C 0.50409 0.44277 0.29396 0.0
C641 C 0.47881 0.40501 0.30236 0.0
C642 C 0.38273 0.44413 0.24664 0.0
C643 C 0.44812 0.43799 0.2695 0.0
C644 C 0.36652 0.46109 0.23043 0.0
C645 C 0.39766 0.48828 0.21963 0.0
C646 C 0.43014 0.45522 0.25226 0.0
C647 C 0.44477 0.49869 0.22569 0.0
C648 C 0.48901 0.45923 0.2775 0.0
C649 C 0.43891 0.38399 0.29376 0.0
N650 N 0.45956 0.48231 0.24166 0.0
N651 N 0.42452 0.40103 0.27787 0.0
H652 H 0.01485 0.51709 0.8021 0.0
H653 H 0.07117 0.34433 0.72009 0.0
H654 H 0.15099 0.44063 0.79548 0.0
H655 H 0.96136 0.45673 0.71879 0.0
H656 H 0.09501 0.37163 0.74944 0.0
H657 H 0.98891 0.48814 0.77317 0.0
C658 C 0.03901 0.49372 0.79465 0.0
C659 C 0.08486 0.48062 0.80128 0.0
C660 C 0.06581 0.39044 0.74271 0.0
C661 C 0.05567 0.44782 0.76816 0.0
C662 C 0.05207 0.37475 0.72602 0.0
C663 C 0.01482 0.39885 0.71692 0.0
C664 C 0.04147 0.42994 0.75051 0.0
C665 C 0.99104 0.43789 0.72521 0.0
C666 C 0.02439 0.4776 0.77808 0.0
C667 C 0.1153 0.45144 0.79085 0.0
N668 N 0.00469 0.45218 0.74156 0.0
N669 N 0.10005 0.43573 0.77487 0.0
H670 H 0.02998 0.06703 0.207 0.0
H671 H 0.06527 0.02315 0.31012 0.0
H672 H 0.12829 0.96007 0.22845 0.0
H673 H 0.96929 0.13206 0.28854 0.0
H674 H 0.08704 -0.00227 0.28037 0.0
H675 H 0.00552 0.08977 0.23675 0.0
C676 C 0.04573 0.04772 0.218 0.0
C677 C 0.0801 0.01064 0.21531 0.0
C678 C 0.06092 0.02693 0.28211 0.0
C679 C 0.05354 0.03746 0.24941 0.0
C680 C 0.04807 0.04106 0.2991 0.0
C681 C 0.01439 0.07882 0.30175 0.0
C682 C 0.04027 0.05106 0.26767 0.0
C683 C 0.99498 0.10238 0.28702 0.0
C684 C 0.03217 0.06106 0.23499 0.0
C685 C 0.10117 0.98843 0.23001 0.0
N686 N 0.00804 0.088 0.27061 0.0
N687 N 0.0874 0.002 0.24644 0.0
H688 H 0.6959 0.13245 0.11625 0.0
H689 H 0.81309 0.34619 0.17348 0.0
H690 H 0.67222 0.14517 0.17207 0.0
H691 H 0.81168 0.3432 0.11686 0.0
H692 H 0.76519 0.27098 0.17379 0.0
H693 H 0.74417 0.20652 0.11695 0.0
C694 C 0.70112 0.15057 0.12873 0.0
C695 C 0.67962 0.13251 0.14413 0.0
C696 C 0.7752 0.287 0.16133 0.0
C697 C 0.73493 0.21815 0.14496 0.0
C698 C 0.80243 0.33003 0.16111 0.0
C699 C 0.81658 0.35114 0.14511 0.0
C700 C 0.76235 0.26472 0.14542 0.0
C701 C 0.80168 0.32842 0.12952 0.0
C702 C 0.72858 0.19316 0.12908 0.0
C703 C 0.68805 0.15771 0.15988 0.0
N704 N 0.77568 0.2864 0.13009 0.0
N705 N 0.71494 0.19941 0.15988 0.0
H706 H 0.14351 0.79785 0.67194 0.0
H707 H 0.35837 0.67756 0.61555 0.0
H708 H 0.15051 0.80262 0.61538 0.0
H709 H 0.34712 0.66471 0.67185 0.0
H710 H 0.28375 0.7258 0.61541 0.0
H711 H 0.21828 0.74968 0.67223 0.0
C712 C 0.16049 0.78847 0.65956 0.0
C713 C 0.14059 0.80446 0.6436 0.0
C714 C 0.29766 0.71258 0.62781 0.0
C715 C 0.22672 0.74965 0.64389 0.0
C716 C 0.34049 0.68518 0.62792 0.0
C717 C 0.35914 0.66686 0.64375 0.0
C718 C 0.27314 0.72187 0.64362 0.0
C719 C 0.33419 0.67801 0.65934 0.0
C720 C 0.20334 0.76108 0.65975 0.0
C721 C 0.16438 0.79112 0.628 0.0
N722 N 0.29241 0.70465 0.65887 0.0
N723 N 0.20627 0.76471 0.62855 0.0
H724 H 0.78955 0.13791 0.84681 0.0
H725 H 0.66982 0.34833 0.90555 0.0
H726 H 0.79098 0.13759 0.90344 0.0
H727 H 0.66403 0.34563 0.84897 0.0
H728 H 0.71576 0.27213 0.90503 0.0
H729 H 0.74304 0.21368 0.84739 0.0
C730 C 0.77971 0.15345 0.85938 0.0
C731 C 0.79439 0.13125 0.8751 0.0
C732 C 0.70459 0.2883 0.89273 0.0
C733 C 0.74151 0.21859 0.87583 0.0
C734 C 0.67856 0.33203 0.893 0.0
C735 C 0.66287 0.35354 0.87728 0.0
C736 C 0.7151 0.26579 0.87662 0.0
C737 C 0.67527 0.3305 0.86143 0.0
C738 C 0.7533 0.19692 0.85969 0.0
C739 C 0.78051 0.15328 0.89098 0.0
N740 N 0.70047 0.28785 0.86152 0.0
N741 N 0.7551 0.19583 0.89093 0.0
H742 H 0.14916 0.67579 0.34363 0.0
H743 H 0.36256 0.79635 0.39905 0.0
H744 H 0.14466 0.70081 0.39954 0.0
H745 H 0.3464 0.82995 0.34402 0.0
H746 H 0.2882 0.74904 0.39794 0.0
H747 H 0.22494 0.72363 0.34212 0.0
C748 C 0.16367 0.69167 0.35553 0.0
C749 C 0.14055 0.6839 0.37176 0.0
C750 C 0.30083 0.76666 0.38606 0.0
C751 C 0.22725 0.73748 0.37012 0.0
C752 C 0.3436 0.79357 0.38664 0.0
C753 C 0.36067 0.81779 0.37164 0.0
C754 C 0.27459 0.76338 0.37035 0.0
C755 C 0.33448 0.81207 0.35592 0.0
C756 C 0.2069 0.71879 0.35464 0.0
C757 C 0.16109 0.70537 0.38673 0.0
N758 N 0.29247 0.78551 0.35569 0.0
N759 N 0.20332 0.73064 0.38555 0.0
H760 H 0.2053 0.62412 0.87277 0.0
H761 H 0.31206 0.8457 0.92721 0.0
H762 H 0.15755 0.64646 0.92619 0.0
H763 H 0.28576 0.84767 0.87137 0.0
H764 H 0.26722 0.76804 0.92906 0.0
H765 H 0.25125 0.69941 0.87428 0.0
C766 C 0.20479 0.64456 0.88493 0.0
C767 C 0.17678 0.62915 0.8993 0.0
C768 C 0.27115 0.786 0.9165 0.0
C769 C 0.22955 0.71607 0.90101 0.0
C770 C 0.29651 0.83026 0.91542 0.0
C771 C 0.30306 0.85321 0.89909 0.0
C772 C 0.25324 0.76444 0.90111 0.0
C773 C 0.2821 0.83146 0.88424 0.0
C774 C 0.23091 0.68779 0.88572 0.0
C775 C 0.17838 0.65713 0.91476 0.0
N776 N 0.25875 0.7882 0.8856 0.0
N777 N 0.20415 0.6996 0.91519 0.0
H778 H 0.85439 0.17793 0.42431 0.0
H779 H 0.64018 0.29521 0.36702 0.0
H780 H 0.85341 0.18049 0.36768 0.0
H781 H 0.64688 0.30565 0.42347 0.0
H782 H 0.71618 0.24919 0.36724 0.0
H783 H 0.77764 0.22311 0.42442 0.0
C784 C 0.83836 0.18836 0.4119 0.0
C785 C 0.86048 0.17525 0.39596 0.0
C786 C 0.70094 0.26136 0.37959 0.0
C787 C 0.77216 0.22642 0.39602 0.0
C788 C 0.6573 0.28742 0.37949 0.0
C789 C 0.63706 0.30458 0.39525 0.0
C790 C 0.72466 0.25223 0.39556 0.0
C791 C 0.66109 0.29328 0.41099 0.0
C792 C 0.79437 0.21398 0.41198 0.0
C793 C 0.83782 0.18975 0.3803 0.0
N794 N 0.70371 0.268 0.41073 0.0
N795 N 0.79484 0.21429 0.38074 0.0
H796 H 0.16686 0.84781 0.09167 0.0
H797 H 0.27664 0.63371 0.15008 0.0
H798 H 0.17936 0.85222 0.1481 0.0
H799 H 0.30972 0.64525 0.09484 0.0
H800 H 0.23119 0.70937 0.1484 0.0
H801 H 0.21274 0.77097 0.09154 0.0
C802 C 0.17964 0.83302 0.10399 0.0
C803 C 0.16897 0.8565 0.11994 0.0
C804 C 0.24825 0.69541 0.13661 0.0
C805 C 0.22046 0.76842 0.11984 0.0
C806 C 0.27404 0.6519 0.13752 0.0
C807 C 0.29751 0.63315 0.1226 0.0
C808 C 0.24546 0.72062 0.12065 0.0
C809 C 0.2923 0.6584 0.10668 0.0
C810 C 0.20565 0.78912 0.10389 0.0
C811 C 0.18646 0.83554 0.13549 0.0
N812 N 0.26692 0.70109 0.10612 0.0
N813 N 0.21088 0.79261 0.13504 0.0
H814 H 0.63361 0.21076 0.64806 0.0
H815 H 0.85504 0.31534 0.59207 0.0
H816 H 0.65458 0.16766 0.59408 0.0
H817 H 0.85356 0.30409 0.64856 0.0
H818 H 0.77808 0.26966 0.59112 0.0
H819 H 0.70879 0.25699 0.64676 0.0
C820 C 0.65374 0.21132 0.63583 0.0
C821 C 0.63783 0.18468 0.6212 0.0
C822 C 0.79499 0.27701 0.60366 0.0
C823 C 0.72476 0.23772 0.61973 0.0
C824 C 0.83892 0.30292 0.60424 0.0
C825 C 0.86085 0.31378 0.62043 0.0
C826 C 0.77263 0.26266 0.61939 0.0
C827 C 0.8382 0.29677 0.63576 0.0
C828 C 0.69697 0.23758 0.63516 0.0
C829 C 0.66551 0.18749 0.6057 0.0
N830 N 0.79525 0.27255 0.63486 0.0
N831 N 0.7079 0.21338 0.60537 0.0
H832 H 0.53758 0.59979 0.10708 0.0
H833 H 0.63807 0.82288 0.16284 0.0
H834 H 0.51724 0.60634 0.16321 0.0
H835 H 0.56099 0.83328 0.1137 0.0
H836 H 0.62774 0.73367 0.16192 0.0
H837 H 0.58587 0.67415 0.10858 0.0
C838 C 0.54451 0.61583 0.11981 0.0
C839 C 0.52172 0.59781 0.13497 0.0
C840 C 0.61437 0.75578 0.15119 0.0
C841 C 0.57712 0.6826 0.13666 0.0
C842 C 0.61973 0.80646 0.15176 0.0
C843 C 0.60023 0.83559 0.13834 0.0
C844 C 0.59074 0.73442 0.13684 0.0
C845 C 0.57759 0.81246 0.12414 0.0
C846 C 0.57201 0.65834 0.12061 0.0
C847 C 0.53301 0.61975 0.15113 0.0
N848 N 0.57347 0.76331 0.12377 0.0
N849 N 0.55907 0.66186 0.15152 0.0
H850 H 0.8992 0.5241 0.66542 0.0
H851 H 0.66399 0.65065 0.62499 0.0
H852 H 0.88361 0.55293 0.61004 0.0
H853 H 0.66438 0.54795 0.66781 0.0
H854 H 0.75339 0.64598 0.62396 0.0
H855 H 0.82354 0.56814 0.67084 0.0
C856 C 0.88084 0.54096 0.65443 0.0
C857 C 0.89688 0.53313 0.63715 0.0
C858 C 0.7337 0.62558 0.63384 0.0
C859 C 0.81041 0.58361 0.64338 0.0
C860 C 0.68286 0.62782 0.63436 0.0
C861 C 0.65668 0.59902 0.64633 0.0
C862 C 0.75833 0.59526 0.64567 0.0
C863 C 0.6829 0.57111 0.65847 0.0
C864 C 0.83753 0.56596 0.65757 0.0
C865 C 0.87194 0.5569 0.62353 0.0
N866 N 0.73227 0.56965 0.65774 0.0
N867 N 0.82916 0.58019 0.62689 0.0
H868 H 0.93318 0.65751 0.16785 0.0
H869 H 0.93304 0.87595 0.10686 0.0
H870 H 0.83465 0.65768 0.12382 0.0
H871 H 0.95321 0.89406 0.1626 0.0
H872 H 0.88952 0.79992 0.11255 0.0
H873 H 0.93581 0.74589 0.16677 0.0
C874 C 0.91099 0.67609 0.15824 0.0
C875 C 0.88395 0.64999 0.14582 0.0
C876 C 0.90222 0.82139 0.12355 0.0
C877 C 0.8885 0.75151 0.14403 0.0
C878 C 0.92705 0.86492 0.12032 0.0
C879 C 0.94848 0.89066 0.13425 0.0
C880 C 0.8996 0.80341 0.14075 0.0
C881 C 0.93876 0.8748 0.15141 0.0
C882 C 0.91271 0.72674 0.15756 0.0
C883 C 0.85701 0.67637 0.13336 0.0
N884 N 0.91636 0.83143 0.15416 0.0
N885 N 0.8609 0.72572 0.13248 0.0
H886 H 0.60729 0.97006 0.66547 0.0
H887 H 0.83158 0.83109 0.62193 0.0
H888 H 0.61706 0.9405 0.60994 0.0
H889 H 0.83782 0.92447 0.66739 0.0
H890 H 0.74263 0.84194 0.62129 0.0
H891 H 0.67971 0.92022 0.67014 0.0
C892 C 0.62381 0.95208 0.65429 0.0
C893 C 0.60717 0.96098 0.6372 0.0
C894 C 0.76363 0.85886 0.63164 0.0
C895 C 0.68998 0.90412 0.64252 0.0
C896 C 0.81424 0.85309 0.63194 0.0
C897 C 0.84223 0.8774 0.64461 0.0
C898 C 0.74109 0.88831 0.64432 0.0
C899 C 0.81791 0.90449 0.65752 0.0
C900 C 0.6652 0.92371 0.65699 0.0
C901 C 0.62942 0.93567 0.6233 0.0
N902 N 0.76882 0.9095 0.65696 0.0
N903 N 0.67052 0.90922 0.62621 0.0
H904 H 0.64934 0.66201 0.89657 0.0
H905 H 0.51558 0.89119 0.85452 0.0
H906 H 0.54498 0.65825 0.85434 0.0
H907 H 0.54406 0.88004 0.91006 0.0
H908 H 0.56278 0.817 0.8498 0.0
H909 H 0.64242 0.75151 0.8971 0.0
C910 C 0.62568 0.67999 0.88723 0.0
C911 C 0.59709 0.65266 0.87557 0.0
C912 C 0.55982 0.8317 0.86295 0.0
C913 C 0.59099 0.75419 0.87557 0.0
C914 C 0.53298 0.87409 0.86568 0.0
C915 C 0.52423 0.89079 0.88281 0.0
C916 C 0.57818 0.80609 0.8774 0.0
C917 C 0.54878 0.86772 0.89668 0.0
C918 C 0.62218 0.73084 0.88745 0.0
C919 C 0.56804 0.67769 0.86344 0.0
N920 N 0.57373 0.82566 0.89373 0.0
N921 N 0.56554 0.72698 0.86383 0.0
H922 H 0.6076 0.52516 0.35724 0.0
H923 H 0.8458 0.56332 0.40519 0.0
H924 H 0.6105 0.54089 0.41358 0.0
H925 H 0.82639 0.6411 0.35655 0.0
H926 H 0.75807 0.55562 0.40793 0.0
H927 H 0.68352 0.57158 0.35542 0.0
C928 C 0.6232 0.53967 0.36918 0.0
C929 C 0.60358 0.52755 0.38565 0.0
C930 C 0.77282 0.57517 0.39679 0.0
C931 C 0.69043 0.57976 0.3836 0.0
C932 C 0.823 0.57966 0.39523 0.0
C933 C 0.84345 0.60301 0.38064 0.0
C934 C 0.74262 0.59258 0.38337 0.0
C935 C 0.81199 0.62207 0.36785 0.0
C936 C 0.66657 0.56615 0.36811 0.0
C937 C 0.62505 0.54804 0.40063 0.0
N938 N 0.76293 0.61555 0.36931 0.0
N939 N 0.66815 0.57187 0.39929 0.0
H940 H 0.9216 0.83158 0.84902 0.0
H941 H 0.93043 0.60645 0.90777 0.0
H942 H 0.82233 0.81996 0.89273 0.0
H943 H 0.96645 0.59918 0.85268 0.0
H944 H 0.88171 0.67926 0.90204 0.0
H945 H 0.93093 0.74375 0.84896 0.0
C946 C 0.90063 0.81048 0.85833 0.0
C947 C 0.87141 0.83326 0.87099 0.0
C948 C 0.89913 0.66086 0.89114 0.0
C949 C 0.88368 0.7323 0.8715 0.0
C950 C 0.92699 0.61922 0.89439 0.0
C951 C 0.95402 0.59765 0.88078 0.0
C952 C 0.89902 0.6812 0.87425 0.0
C953 C 0.94744 0.6154 0.86368 0.0
C954 C 0.90621 0.76012 0.85836 0.0
C955 C 0.84617 0.80383 0.88301 0.0
N956 N 0.9217 0.65694 0.86098 0.0
N957 N 0.85381 0.75484 0.88327 0.0
H958 H 0.67002 0.85412 0.35561 0.0
H959 H 0.89205 0.9417 0.41481 0.0
H960 H 0.65943 0.92413 0.40615 0.0
H961 H 0.89432 0.95464 0.35838 0.0
H962 H 0.81553 0.89708 0.41273 0.0
H963 H 0.75953 0.85878 0.35771 0.0
C964 C 0.68642 0.8698 0.36722 0.0
C965 C 0.65722 0.88891 0.38071 0.0
C966 C 0.83362 0.90855 0.40079 0.0
C967 C 0.75864 0.89213 0.38349 0.0
C968 C 0.87743 0.93388 0.40193 0.0
C969 C 0.89866 0.95377 0.38678 0.0
C970 C 0.81117 0.90285 0.38441 0.0
C971 C 0.8785 0.94128 0.37045 0.0
C972 C 0.73726 0.87191 0.36846 0.0
C973 C 0.68027 0.90801 0.39559 0.0
N974 N 0.83504 0.91763 0.36969 0.0
N975 N 0.72951 0.90919 0.39656 0.0
H976 H 0.43781 0.39177 0.91166 0.0
H977 H 0.40331 0.15036 0.86278 0.0
H978 H 0.43114 0.38346 0.85518 0.0
H979 H 0.34485 0.16714 0.91498 0.0
H980 H 0.4057 0.23796 0.85964 0.0
H981 H 0.39317 0.31515 0.9135 0.0
C982 C 0.42562 0.37479 0.89963 0.0
C983 C 0.44006 0.39313 0.88321 0.0
C984 C 0.39136 0.22276 0.87169 0.0
C985 C 0.38971 0.30514 0.88529 0.0
C986 C 0.38976 0.17246 0.87348 0.0
C987 C 0.37346 0.15121 0.88913 0.0
C988 C 0.37827 0.25248 0.88589 0.0
C989 C 0.35835 0.18207 0.90278 0.0
C990 C 0.40017 0.33087 0.90072 0.0
C991 C 0.42225 0.36997 0.86813 0.0
N992 N 0.36195 0.23132 0.90098 0.0
N993 N 0.39925 0.3264 0.86952 0.0
H994 H 0.11809 0.44194 0.35893 0.0
H995 H 0.33571 0.43296 0.41912 0.0
H996 H 0.10107 0.46605 0.41456 0.0
H997 H 0.32889 0.32871 0.37685 0.0
H998 H 0.24759 0.44018 0.41839 0.0
H999 H 0.19077 0.39305 0.36495 0.0
C1000 C 0.12858 0.43571 0.37243 0.0
C1001 C 0.10441 0.4596 0.38622 0.0
C1002 C 0.26516 0.41483 0.40952 0.0
C1003 C 0.18767 0.40458 0.39309 0.0
C1004 C 0.31564 0.41047 0.40999 0.0
C1005 C 0.33983 0.38056 0.3979 0.0
C1006 C 0.23872 0.39039 0.39647 0.0
C1007 C 0.31166 0.35323 0.38609 0.0
C1008 C 0.17012 0.40778 0.37585 0.0
C1009 C 0.11936 0.44959 0.40346 0.0
N1010 N 0.26257 0.35981 0.38531 0.0
N1011 N 0.16088 0.42407 0.40638 0.0
H1012 H 0.02666 0.10666 0.85223 0.0
H1013 H 0.12894 0.31684 0.9142 0.0
H1014 H 0.0222 0.09524 0.90869 0.0
H1015 H 0.05666 0.33692 0.86452 0.0
H1016 H 0.11925 0.2279 0.91079 0.0
H1017 H 0.07322 0.18184 0.85506 0.0
C1018 C 0.03668 0.11902 0.86522 0.0
C1019 C 0.0188 0.0956 0.88026 0.0
C1020 C 0.10651 0.25208 0.90055 0.0
C1021 C 0.07172 0.18166 0.88351 0.0
C1022 C 0.11145 0.30256 0.90256 0.0
C1023 C 0.09328 0.33417 0.88967 0.0
C1024 C 0.0844 0.23357 0.88535 0.0
C1025 C 0.07186 0.31396 0.87467 0.0
C1026 C 0.06307 0.16209 0.86681 0.0
C1027 C 0.03399 0.1129 0.89674 0.0
N1028 N 0.06802 0.26505 0.87293 0.0
N1029 N 0.05861 0.15571 0.89796 0.0
H1030 H 0.38264 0.05645 0.35783 0.0
H1031 H 0.16684 0.05917 0.41851 0.0
H1032 H 0.40269 0.03955 0.41364 0.0
H1033 H 0.167 0.16082 0.37536 0.0
H1034 H 0.25521 0.05714 0.41757 0.0
H1035 H 0.30819 0.10283 0.36357 0.0
C1036 C 0.37246 0.0639 0.37129 0.0
C1037 C 0.39795 0.04246 0.38526 0.0
C1038 C 0.23607 0.08082 0.40855 0.0
C1039 C 0.31263 0.09453 0.39183 0.0
C1040 C 0.18543 0.08218 0.40913 0.0
C1041 C 0.15937 0.10985 0.39688 0.0
C1042 C 0.26089 0.10596 0.39524 0.0
C1043 C 0.18574 0.13793 0.38474 0.0
C1044 C 0.32986 0.09036 0.37455 0.0
C1045 C 0.38332 0.054 0.40243 0.0
N1046 N 0.23514 0.13424 0.38387 0.0
N1047 N 0.34074 0.0779 0.40523 0.0
H1048 H 0.45463 0.10296 0.10759 0.0
H1049 H 0.41083 0.33701 0.15809 0.0
H1050 H 0.44091 0.10269 0.16401 0.0
H1051 H 0.34109 0.32037 0.10778 0.0
H1052 H 0.41767 0.24926 0.16041 0.0
H1053 H 0.40627 0.17772 0.10654 0.0
C1054 C 0.44021 0.11765 0.11972 0.0
C1055 C 0.45345 0.09752 0.13598 0.0
C1056 C 0.39988 0.26458 0.149 0.0
C1057 C 0.39893 0.18316 0.1348 0.0
C1058 C 0.39576 0.31487 0.14769 0.0
C1059 C 0.37509 0.33617 0.13275 0.0
C1060 C 0.38495 0.23513 0.13498 0.0
C1061 C 0.35798 0.30539 0.1194 0.0
C1062 C 0.41258 0.16037 0.11908 0.0
C1063 C 0.43291 0.11768 0.15121 0.0
N1064 N 0.36424 0.25627 0.12064 0.0
N1065 N 0.4079 0.16025 0.1503 0.0
H1066 H 0.37945 0.43331 0.66234 0.0
H1067 H 0.16213 0.31867 0.64023 0.0
H1068 H 0.40422 0.44051 0.60651 0.0
H1069 H 0.16975 0.43768 0.6034 0.0
H1070 H 0.25129 0.32182 0.64333 0.0
H1071 H 0.30445 0.3879 0.65685 0.0
C1072 C 0.37015 0.42406 0.64895 0.0
C1073 C 0.3972 0.44272 0.63481 0.0
C1074 C 0.23326 0.34636 0.6343 0.0
C1075 C 0.31133 0.39144 0.62852 0.0
C1076 C 0.18262 0.34482 0.63257 0.0
C1077 C 0.1585 0.37881 0.62187 0.0
C1078 C 0.25974 0.38121 0.62485 0.0
C1079 C 0.18672 0.41085 0.6118 0.0
C1080 C 0.32728 0.39803 0.64584 0.0
C1081 C 0.38349 0.42885 0.61778 0.0
N1082 N 0.2359 0.4115 0.61363 0.0
N1083 N 0.34046 0.40577 0.61506 0.0
H1084 H 0.04717 0.36929 0.16214 0.0
H1085 H 0.04735 0.16372 0.10009 0.0
H1086 H 0.04554 0.4032 0.1069 0.0
H1087 H 0.15891 0.15822 0.13984 0.0
H1088 H 0.04725 0.25231 0.10216 0.0
H1089 H 0.09252 0.29471 0.15555 0.0
C1090 C 0.05765 0.36205 0.1487 0.0
C1091 C 0.04047 0.39146 0.13495 0.0
C1092 C 0.0726 0.23173 0.11014 0.0
C1093 C 0.09119 0.306 0.12741 0.0
C1094 C 0.07282 0.18111 0.10891 0.0
C1095 C 0.10267 0.15347 0.11999 0.0
C1096 C 0.10116 0.25472 0.12294 0.0
C1097 C 0.13424 0.17822 0.13144 0.0
C1098 C 0.08351 0.31939 0.14496 0.0
C1099 C 0.05597 0.38047 0.11783 0.0
N1100 N 0.13158 0.2275 0.13306 0.0
N1101 N 0.07881 0.33762 0.11444 0.0
H1102 H 0.34688 0.0675 0.6562 0.0
H1103 H 0.10018 0.03709 0.60977 0.0
H1104 H 0.32428 0.13421 0.60565 0.0
H1105 H 0.1153 0.03356 0.66608 0.0
H1106 H 0.17658 0.08225 0.60776 0.0
H1107 H 0.25964 0.06161 0.66014 0.0
C1108 C 0.32346 0.08186 0.64602 0.0
C1109 C 0.34295 0.10163 0.6306 0.0
C1110 C 0.16242 0.07278 0.62058 0.0
C1111 C 0.2422 0.09316 0.63475 0.0
C1112 C 0.11875 0.04687 0.62176 0.0
C1113 C 0.10247 0.02936 0.63807 0.0
C1114 C 0.1898 0.08081 0.63581 0.0
C1115 C 0.12721 0.04478 0.65316 0.0
C1116 C 0.27343 0.07837 0.64828 0.0
C1117 C 0.31065 0.11803 0.61763 0.0
N1118 N 0.17039 0.0684 0.65163 0.0
N1119 N 0.26165 0.11265 0.61985 0.0
H1120 H 0.41899 0.01537 0.9689 0.0
H1121 H 0.62343 0.95507 0.03987 0.0
H1122 H 0.51896 0.89453 0.96412 0.0
H1123 H 0.49405 0.0365 0.0531 0.0
H1124 H 0.58937 0.93885 0.01083 0.0
H1125 H 0.44918 0.02973 0.99878 0.0
C1126 C 0.44712 0.99181 0.97413 0.0
C1127 C 0.46644 0.95366 0.96398 0.0
C1128 C 0.56821 0.95994 0.02013 0.0
C1129 C 0.50142 0.97026 0.99798 0.0
C1130 C 0.58769 0.9693 0.03667 0.0
C1131 C 0.56119 0.99649 0.04899 0.0
C1132 C 0.52225 0.97879 0.01568 0.0
C1133 C 0.51519 0.0144 0.04413 0.0
C1134 C 0.46422 -5e-05 0.99118 0.0
C1135 C 0.50285 0.92428 0.97144 0.0
N1136 N 0.49725 0.0055 0.0278 0.0
N1137 N 0.51935 0.93341 0.9879 0.0
H1138 H 0.46638 0.63247 0.53823 0.0
H1139 H 0.53363 0.41404 0.4725 0.0
H1140 H 0.52381 0.49425 0.55539 0.0
H1141 H 0.47328 0.55176 0.45587 0.0
H1142 H 0.52965 0.44203 0.50296 0.0
H1143 H 0.46895 0.60337 0.5079 0.0
C1144 C 0.47931 0.59588 0.53559 0.0
C1145 C 0.49375 0.56529 0.54935 0.0
C1146 C 0.5172 0.46607 0.49264 0.0
C1147 C 0.49725 0.53175 0.51469 0.0
C1148 C 0.51943 0.45008 0.47524 0.0
C1149 C 0.50388 0.48061 0.46158 0.0
C1150 C 0.49936 0.51297 0.49641 0.0
C1151 C 0.48576 0.52695 0.46594 0.0
C1152 C 0.48069 0.57921 0.51829 0.0
C1153 C 0.5108 0.51843 0.54521 0.0
N1154 N 0.48411 0.5417 0.48294 0.0
N1155 N 0.51199 0.50304 0.52826 0.0
H1156 H 0.84345 0.46402 0.03874 0.0
H1157 H 0.06161 0.51259 0.97071 0.0
H1158 H 0.98846 0.5048 0.05469 0.0
H1159 H 0.91309 0.48349 0.9554 0.0
H1160 H 0.03716 0.50554 1.00153 0.0
H1161 H 0.86962 0.4674 1.0081 0.0
C1162 C 0.88094 0.47331 0.03579 0.0
C1163 C 0.91409 0.48295 0.04932 0.0
C1164 C 0.00997 0.50062 0.99141 0.0
C1165 C 0.94438 0.48736 0.01422 0.0
C1166 C 0.02393 0.50456 0.9738 0.0
C1167 C 0.98936 0.49879 0.96041 0.0
C1168 C 0.9611 0.4907 0.99567 0.0
C1169 C 0.94104 0.48841 0.96524 0.0
C1170 C 0.8959 0.47522 0.01829 0.0
C1171 C 0.9621 0.49538 0.04473 0.0
N1172 N 0.92841 0.48476 0.98242 0.0
N1173 N 0.97581 0.49716 0.02758 0.0
H1174 H 0.96961 0.06955 0.47295 0.0
H1175 H 0.03946 0.84983 0.53761 0.0
H1176 H 0.03356 0.93383 0.45584 0.0
H1177 H 0.98206 0.98725 0.55568 0.0
H1178 H 0.03745 0.88047 0.50751 0.0
H1179 H 0.97458 0.04107 0.50335 0.0
C1180 C 0.98484 0.03387 0.47557 0.0
C1181 C 0.00106 0.00401 0.46179 0.0
C1182 C 0.02565 0.90416 0.51805 0.0
C1183 C 0.00669 0.97111 0.49654 0.0
C1184 C 0.02673 0.88661 0.53522 0.0
C1185 C 0.01199 0.91644 0.54918 0.0
C1186 C 0.00905 0.95175 0.51474 0.0
C1187 C 0.99525 0.96361 0.54536 0.0
C1188 C 0.98764 0.01762 0.49293 0.0
C1189 C 0.02051 0.95813 0.466 0.0
N1190 N 0.99424 0.97983 0.5285 0.0
N1191 N 0.02263 0.94309 0.48295 0.0
H1192 H 0.5697 0.4264 0.9815 0.0
H1193 H 0.42155 0.60621 0.04465 0.0
H1194 H 0.50634 0.5615 0.96393 0.0
H1195 H 0.45833 0.45847 0.05887 0.0
H1196 H 0.4541 0.59144 0.01528 0.0
H1197 H 0.53189 0.43867 0.01033 0.0
C1198 C 0.5475 0.45849 0.98372 0.0
C1199 C 0.54019 0.49248 0.97028 0.0
C1200 C 0.45481 0.56216 0.02478 0.0
C1201 C 0.49738 0.50719 1.0032 0.0
C1202 C 0.43624 0.57057 0.04158 0.0
C1203 C 0.43729 0.53357 0.05428 0.0
C1204 C 0.47511 0.51656 0.02066 0.0
C1205 C 0.45671 0.48808 0.04951 0.0
C1206 C 0.52582 0.46542 1.00013 0.0
C1207 C 0.51163 0.53373 0.97382 0.0
N1208 N 0.47515 0.48097 0.03313 0.0
N1209 N 0.49137 0.54002 0.98996 0.0
H1210 H 0.04029 0.50504 0.46457 0.0
H1211 H 0.90119 0.54172 0.55579 0.0
H1212 H 0.96545 0.63757 0.47876 0.0
H1213 H 0.01308 0.43286 0.54856 0.0
H1214 H 0.91646 0.57132 0.52612 0.0
H1215 H 0.02284 0.47216 0.4938 0.0
C1216 C 0.01951 0.52692 0.47373 0.0
C1217 C 0.00355 0.57382 0.46913 0.0
C1218 C 0.93766 0.54093 0.53101 0.0
C1219 C 0.98411 0.53671 0.50265 0.0
C1220 C 0.92886 0.52383 0.54794 0.0
C1221 C 0.95595 0.48473 0.55472 0.0
C1222 C 0.97348 0.51852 0.52061 0.0
C1223 C 0.99142 0.46317 0.5439 0.0
C1224 C 0.01005 0.50833 0.49047 0.0
C1225 C 0.97823 0.60117 0.48174 0.0
N1226 N -0.00093 0.48026 0.52735 0.0
N1227 N 0.96903 0.58213 0.49787 0.0
H1228 H 0.96159 0.87892 0.0521 0.0
H1229 H 0.96959 0.04032 0.96476 0.0
H1230 H 0.04472 0.01191 0.04798 0.0
H1231 H 0.86314 0.92789 0.97428 0.0
H1232 H 0.00359 0.02597 0.99399 0.0
H1233 H 0.9314 0.89172 0.02239 0.0
C1234 C 0.97371 0.91075 0.04493 0.0
C1235 C 0.0057 0.94445 0.05259 0.0
C1236 C 0.97294 0.0043 0.98965 0.0
C1237 C 0.97113 0.95931 0.01846 0.0
C1238 C 0.95383 0.01213 0.9729 0.0
C1239 C 0.91404 0.9846 0.96698 0.0
C1240 C 0.95218 0.96858 1.00052 0.0
C1241 C 0.89398 0.94974 0.97832 0.0
C1242 C 0.95628 0.9181 0.02796 0.0
C1243 C 0.02003 0.98504 0.04262 0.0
N1244 N 0.91341 0.94254 0.99449 0.0
N1245 N 0.00267 0.99131 0.02606 0.0
H1246 H 0.46963 -0.00086 0.46446 0.0
H1247 H 0.51533 0.92016 0.56397 0.0
H1248 H 0.50508 0.85285 0.48083 0.0
H1249 H 0.5055 0.0709 0.54822 0.0
H1250 H 0.50833 0.8957 0.53346 0.0
H1251 H 0.48071 0.02697 0.49465 0.0
C1252 C 0.48084 0.97297 0.47423 0.0
C1253 C 0.48747 0.92359 0.46991 0.0
C1254 C 0.50776 0.93418 0.53659 0.0
C1255 C 0.49837 0.95511 0.50474 0.0
C1256 C 0.51161 0.94826 0.55409 0.0
C1257 C 0.511 -0.00224 0.55873 0.0
C1258 C 0.50294 0.96971 0.52347 0.0
C1259 C 0.50619 0.03234 0.54525 0.0
C1260 C 0.48657 0.98889 0.49157 0.0
C1261 C 0.49973 0.89125 0.48347 0.0
N1262 N 0.50221 0.01766 0.52822 0.0
N1263 N 0.50468 0.90752 0.50019 0.0
loop_
_geom_bond_atom_site_label_1
_geom_bond_atom_site_label_2
_geom_bond_distance
_geom_bond_site_symmetry_2
_ccdc_geom_bond_type
Co0 O3 1.970 . S
Co0 N17 1.989 . S
Co0 O25 1.967 . S
Co0 O32 1.920 . S
Co1 O4 1.966 . S
Co1 N10 2.022 . S
Co1 N18 1.993 . S
Co1 O26 1.941 . S
C2 O3 1.258 . S
C2 O4 1.263 . S
O3 Co0 1.970 . S
O3 C2 1.258 . S
O4 Co1 1.966 . S
O4 C2 1.263 . S
C5 O6 1.235 . S
C5 O32 1.289 . S
O6 C5 1.235 . S
C7 C9 1.400 . S
C7 N10 1.351 . S
C7 C12 1.501 . S
C8 C9 1.387 . S
C8 N11 1.341 . S
C9 C7 1.400 . S
C9 C8 1.387 . S
N10 Co1 2.022 . S
N10 C7 1.351 . S
N10 N11 1.365 . S
N11 C8 1.341 . S
N11 N10 1.365 . S
N11 H31 0.862 . S
C12 C7 1.501 . S
C12 H13 0.961 . S
C12 H14 0.961 . S
C12 H15 0.960 . S
H13 C12 0.961 . S
H14 C12 0.961 . S
H15 C12 0.960 . S
C16 N17 1.342 1_565 S
C16 C20 1.401 . S
C16 C21 1.499 . S
N17 Co0 1.989 . S
N17 C16 1.342 1_545 S
N17 N18 1.388 . S
N18 Co1 1.993 . S
N18 N17 1.388 . S
N18 C19 1.346 1_545 S
C19 N18 1.346 1_565 S
C19 C20 1.396 . S
C19 C29 1.510 . S
C20 C16 1.401 . S
C20 C19 1.396 . S
C21 C16 1.499 . S
C21 H22 0.959 . S
C21 H23 0.960 . S
C21 H24 0.961 . S
H22 C21 0.959 . S
H23 C21 0.960 . S
H24 C21 0.961 . S
O25 Co0 1.967 . S
O25 C33 1.258 . S
O26 Co1 1.941 . S
O26 C33 1.266 . S
H27 C29 0.959 . S
H28 C29 0.961 . S
C29 C19 1.510 . S
C29 H27 0.959 . S
C29 H28 0.961 . S
C29 H30 0.960 . S
H30 C29 0.960 . S
H31 N11 0.862 . S
O32 Co0 1.920 . S
O32 C5 1.289 . S
C33 O25 1.258 . S
C33 O26 1.266 . S
Co34 O37 1.970 . S
Co34 N51 1.989 . S
Co34 O59 1.967 . S
Co34 O66 1.920 . S
Co35 O38 1.966 . S
Co35 N44 2.022 . S
Co35 N52 1.993 . S
Co35 O60 1.941 . S
C36 O37 1.258 . S
C36 O38 1.263 . S
O37 Co34 1.970 . S
O37 C36 1.258 . S
O38 Co35 1.966 . S
O38 C36 1.263 . S
C39 O40 1.235 . S
C39 O66 1.289 . S
O40 C39 1.235 . S
C41 C43 1.400 . S
C41 N44 1.351 . S
C41 C46 1.501 . S
C42 C43 1.387 . S
C42 N45 1.341 . S
C43 C41 1.400 . S
C43 C42 1.387 . S
N44 Co35 2.022 . S
N44 C41 1.351 . S
N44 N45 1.365 . S
N45 C42 1.341 . S
N45 N44 1.365 . S
N45 H65 0.862 . S
C46 C41 1.501 . S
C46 H47 0.961 . S
C46 H48 0.961 . S
C46 H49 0.960 . S
H47 C46 0.961 . S
H48 C46 0.961 . S
H49 C46 0.960 . S
C50 N51 1.342 . S
C50 C54 1.401 . S
C50 C55 1.499 . S
N51 Co34 1.989 . S
N51 C50 1.342 . S
N51 N52 1.388 . S
N52 Co35 1.993 . S
N52 N51 1.388 . S
N52 C53 1.346 . S
C53 N52 1.346 . S
C53 C54 1.396 . S
C53 C63 1.510 . S
C54 C50 1.401 . S
C54 C53 1.396 . S
C55 C50 1.499 . S
C55 H56 0.959 . S
C55 H57 0.960 . S
C55 H58 0.961 . S
H56 C55 0.959 . S
H57 C55 0.960 . S
H58 C55 0.961 . S
O59 Co34 1.967 . S
O59 C67 1.258 . S
O60 Co35 1.941 . S
O60 C67 1.266 . S
H61 C63 0.959 . S
H62 C63 0.961 . S
C63 C53 1.510 . S
C63 H61 0.959 . S
C63 H62 0.961 . S
C63 H64 0.960 . S
H64 C63 0.960 . S
H65 N45 0.862 . S
O66 Co34 1.920 . S
O66 C39 1.289 . S
C67 O59 1.258 . S
C67 O60 1.266 . S
Co68 O71 1.970 1_655 S
Co68 N85 1.989 . S
Co68 O93 1.967 . S
Co68 O100 1.920 . S
Co69 O72 1.966 . S
Co69 N78 2.022 . S
Co69 N86 1.993 . S
Co69 O94 1.941 . S
C70 O71 1.258 . S
C70 O72 1.263 1_455 S
O71 Co68 1.970 1_455 S
O71 C70 1.258 . S
O72 Co69 1.966 . S
O72 C70 1.263 1_655 S
C73 O74 1.235 1_655 S
C73 O100 1.289 . S
O74 C73 1.235 1_455 S
C75 C77 1.400 . S
C75 N78 1.351 . S
C75 C80 1.501 1_655 S
C76 C77 1.387 . S
C76 N79 1.341 . S
C77 C75 1.400 . S
C77 C76 1.387 . S
N78 Co69 2.022 . S
N78 C75 1.351 . S
N78 N79 1.365 . S
N79 C76 1.341 . S
N79 N78 1.365 . S
N79 H99 0.862 . S
C80 C75 1.501 1_455 S
C80 H81 0.961 . S
C80 H82 0.961 . S
C80 H83 0.960 . S
H81 C80 0.961 . S
H82 C80 0.961 . S
H83 C80 0.960 . S
C84 N85 1.342 . S
C84 C88 1.401 . S
C84 C89 1.499 . S
N85 Co68 1.989 . S
N85 C84 1.342 . S
N85 N86 1.388 . S
N86 Co69 1.993 . S
N86 N85 1.388 . S
N86 C87 1.346 . S
C87 N86 1.346 . S
C87 C88 1.396 . S
C87 C97 1.510 . S
C88 C84 1.401 . S
C88 C87 1.396 . S
C89 C84 1.499 . S
C89 H90 0.959 . S
C89 H91 0.960 1_655 S
C89 H92 0.961 . S
H90 C89 0.959 . S
H91 C89 0.960 1_455 S
H92 C89 0.961 . S
O93 Co68 1.967 . S
O93 C101 1.258 . S
O94 Co69 1.941 . S
O94 C101 1.266 . S
H95 C97 0.959 . S
H96 C97 0.961 1_455 S
C97 C87 1.510 . S
C97 H95 0.959 . S
C97 H96 0.961 1_655 S
C97 H98 0.960 . S
H98 C97 0.960 . S
H99 N79 0.862 . S
O100 Co68 1.920 . S
O100 C73 1.289 . S
C101 O93 1.258 . S
C101 O94 1.266 . S
Co102 O105 1.970 1_565 S
Co102 N119 1.989 . S
Co102 O127 1.967 . S
Co102 O134 1.920 . S
Co103 O106 1.966 . S
Co103 N112 2.022 . S
Co103 N120 1.993 . S
Co103 O128 1.941 . S
C104 O105 1.258 . S
C104 O106 1.263 1_545 S
O105 Co102 1.970 1_545 S
O105 C104 1.258 . S
O106 Co103 1.966 . S
O106 C104 1.263 1_565 S
C107 O108 1.235 1_565 S
C107 O134 1.289 . S
O108 C107 1.235 1_545 S
C109 C111 1.400 . S
C109 N112 1.351 . S
C109 C114 1.501 1_565 S
C110 C111 1.387 . S
C110 N113 1.341 . S
C111 C109 1.400 . S
C111 C110 1.387 . S
N112 Co103 2.022 . S
N112 C109 1.351 . S
N112 N113 1.365 . S
N113 C110 1.341 . S
N113 N112 1.365 . S
N113 H133 0.862 . S
C114 C109 1.501 1_545 S
C114 H115 0.961 . S
C114 H116 0.961 . S
C114 H117 0.960 . S
H115 C114 0.961 . S
H116 C114 0.961 . S
H117 C114 0.960 . S
C118 N119 1.342 1_655 S
C118 C122 1.401 . S
C118 C123 1.499 . S
N119 Co102 1.989 . S
N119 C118 1.342 1_455 S
N119 N120 1.388 . S
N120 Co103 1.993 . S
N120 N119 1.388 . S
N120 C121 1.346 1_455 S
C121 N120 1.346 1_655 S
C121 C122 1.396 . S
C121 C131 1.510 . S
C122 C118 1.401 . S
C122 C121 1.396 . S
C123 C118 1.499 . S
C123 H124 0.959 . S
C123 H125 0.960 1_565 S
C123 H126 0.961 . S
H124 C123 0.959 . S
H125 C123 0.960 1_545 S
H126 C123 0.961 . S
O127 Co102 1.967 . S
O127 C135 1.258 . S
O128 Co103 1.941 . S
O128 C135 1.266 . S
H129 C131 0.959 . S
H130 C131 0.961 1_545 S
C131 C121 1.510 . S
C131 H129 0.959 . S
C131 H130 0.961 1_565 S
C131 H132 0.960 . S
H132 C131 0.960 . S
H133 N113 0.862 . S
O134 Co102 1.920 . S
O134 C107 1.289 . S
C135 O127 1.258 . S
C135 O128 1.266 . S
Co136 O139 1.970 . S
Co136 N153 1.989 . S
Co136 O161 1.967 . S
Co136 O168 1.920 . S
Co137 O140 1.966 . S
Co137 N146 2.022 . S
Co137 N154 1.993 . S
Co137 O162 1.941 . S
C138 O139 1.258 . S
C138 O140 1.263 . S
O139 Co136 1.970 . S
O139 C138 1.258 . S
O140 Co137 1.966 . S
O140 C138 1.263 . S
C141 O142 1.235 . S
C141 O168 1.289 . S
O142 C141 1.235 . S
C143 C145 1.400 . S
C143 N146 1.351 . S
C143 C148 1.501 . S
C144 C145 1.387 . S
C144 N147 1.341 . S
C145 C143 1.400 . S
C145 C144 1.387 . S
N146 Co137 2.022 . S
N146 C143 1.351 . S
N146 N147 1.365 . S
N147 C144 1.341 . S
N147 N146 1.365 . S
N147 H167 0.862 . S
C148 C143 1.501 . S
C148 H149 0.961 . S
C148 H150 0.961 . S
C148 H151 0.960 . S
H149 C148 0.961 . S
H150 C148 0.961 . S
H151 C148 0.960 . S
C152 N153 1.342 . S
C152 C156 1.401 . S
C152 C157 1.499 . S
N153 Co136 1.989 . S
N153 C152 1.342 . S
N153 N154 1.388 . S
N154 Co137 1.993 . S
N154 N153 1.388 . S
N154 C155 1.346 . S
C155 N154 1.346 . S
C155 C156 1.396 . S
C155 C165 1.510 . S
C156 C152 1.401 . S
C156 C155 1.396 . S
C157 C152 1.499 . S
C157 H158 0.959 . S
C157 H159 0.960 . S
C157 H160 0.961 . S
H158 C157 0.959 . S
H159 C157 0.960 . S
H160 C157 0.961 . S
O161 Co136 1.967 . S
O161 C169 1.258 . S
O162 Co137 1.941 . S
O162 C169 1.266 . S
H163 C165 0.959 . S
H164 C165 0.961 . S
C165 C155 1.510 . S
C165 H163 0.959 . S
C165 H164 0.961 . S
C165 H166 0.960 . S
H166 C165 0.960 . S
H167 N147 0.862 . S
O168 Co136 1.920 . S
O168 C141 1.289 . S
C169 O161 1.258 . S
C169 O162 1.266 . S
Co170 O173 1.970 . S
Co170 N187 1.989 . S
Co170 O195 1.967 . S
Co170 O202 1.920 . S
Co171 O174 1.966 . S
Co171 N180 2.022 . S
Co171 N188 1.993 . S
Co171 O196 1.941 . S
C172 O173 1.258 . S
C172 O174 1.263 . S
O173 Co170 1.970 . S
O173 C172 1.258 . S
O174 Co171 1.966 . S
O174 C172 1.263 . S
C175 O176 1.235 . S
C175 O202 1.289 . S
O176 C175 1.235 . S
C177 C179 1.400 . S
C177 N180 1.351 . S
C177 C182 1.501 . S
C178 C179 1.387 . S
C178 N181 1.341 . S
C179 C177 1.400 . S
C179 C178 1.387 . S
N180 Co171 2.022 . S
N180 C177 1.351 . S
N180 N181 1.365 . S
N181 C178 1.341 . S
N181 N180 1.365 . S
N181 H201 0.862 . S
C182 C177 1.501 . S
C182 H183 0.961 . S
C182 H184 0.961 . S
C182 H185 0.960 . S
H183 C182 0.961 . S
H184 C182 0.961 . S
H185 C182 0.960 . S
C186 N187 1.342 1_655 S
C186 C190 1.401 . S
C186 C191 1.499 . S
N187 Co170 1.989 . S
N187 C186 1.342 1_455 S
N187 N188 1.388 . S
N188 Co171 1.993 . S
N188 N187 1.388 . S
N188 C189 1.346 1_455 S
C189 N188 1.346 1_655 S
C189 C190 1.396 . S
C189 C199 1.510 . S
C190 C186 1.401 . S
C190 C189 1.396 . S
C191 C186 1.499 . S
C191 H192 0.959 . S
C191 H193 0.960 . S
C191 H194 0.961 . S
H192 C191 0.959 . S
H193 C191 0.960 . S
H194 C191 0.961 . S
O195 Co170 1.967 . S
O195 C203 1.258 . S
O196 Co171 1.941 . S
O196 C203 1.266 . S
H197 C199 0.959 . S
H198 C199 0.961 . S
C199 C189 1.510 . S
C199 H197 0.959 . S
C199 H198 0.961 . S
C199 H200 0.960 . S
H200 C199 0.960 . S
H201 N181 0.862 . S
O202 Co170 1.920 . S
O202 C175 1.289 . S
C203 O195 1.258 . S
C203 O196 1.266 . S
Co204 O207 1.970 1_655 S
Co204 N221 1.989 . S
Co204 O229 1.967 . S
Co204 O236 1.920 . S
Co205 O208 1.966 . S
Co205 N214 2.022 . S
Co205 N222 1.993 . S
Co205 O230 1.941 . S
C206 O207 1.258 . S
C206 O208 1.263 1_455 S
O207 Co204 1.970 1_455 S
O207 C206 1.258 . S
O208 Co205 1.966 . S
O208 C206 1.263 1_655 S
C209 O210 1.235 1_655 S
C209 O236 1.289 . S
O210 C209 1.235 1_455 S
C211 C213 1.400 . S
C211 N214 1.351 . S
C211 C216 1.501 1_655 S
C212 C213 1.387 . S
C212 N215 1.341 . S
C213 C211 1.400 . S
C213 C212 1.387 . S
N214 Co205 2.022 . S
N214 C211 1.351 . S
N214 N215 1.365 . S
N215 C212 1.341 . S
N215 N214 1.365 . S
N215 H235 0.862 . S
C216 C211 1.501 1_455 S
C216 H217 0.961 . S
C216 H218 0.961 . S
C216 H219 0.960 . S
H217 C216 0.961 . S
H218 C216 0.961 . S
H219 C216 0.960 . S
C220 N221 1.342 1_565 S
C220 C224 1.401 . S
C220 C225 1.499 . S
N221 Co204 1.989 . S
N221 C220 1.342 1_545 S
N221 N222 1.388 . S
N222 Co205 1.993 . S
N222 N221 1.388 . S
N222 C223 1.346 1_545 S
C223 N222 1.346 1_565 S
C223 C224 1.396 . S
C223 C233 1.510 . S
C224 C220 1.401 . S
C224 C223 1.396 . S
C225 C220 1.499 . S
C225 H226 0.959 . S
C225 H227 0.960 1_655 S
C225 H228 0.961 . S
H226 C225 0.959 . S
H227 C225 0.960 1_455 S
H228 C225 0.961 . S
O229 Co204 1.967 . S
O229 C237 1.258 . S
O230 Co205 1.941 . S
O230 C237 1.266 . S
H231 C233 0.959 . S
H232 C233 0.961 1_455 S
C233 C223 1.510 . S
C233 H231 0.959 . S
C233 H232 0.961 1_655 S
C233 H234 0.960 . S
H234 C233 0.960 . S
H235 N215 0.862 . S
O236 Co204 1.920 . S
O236 C209 1.289 . S
C237 O229 1.258 . S
C237 O230 1.266 . S
Co238 O241 1.970 1_565 S
Co238 N255 1.989 . S
Co238 O263 1.967 . S
Co238 O270 1.920 . S
Co239 O242 1.966 . S
Co239 N248 2.022 . S
Co239 N256 1.993 . S
Co239 O264 1.941 . S
C240 O241 1.258 . S
C240 O242 1.263 1_545 S
O241 Co238 1.970 1_545 S
O241 C240 1.258 . S
O242 Co239 1.966 . S
O242 C240 1.263 1_565 S
C243 O244 1.235 1_565 S
C243 O270 1.289 . S
O244 C243 1.235 1_545 S
C245 C247 1.400 . S
C245 N248 1.351 . S
C245 C250 1.501 1_565 S
C246 C247 1.387 . S
C246 N249 1.341 . S
C247 C245 1.400 . S
C247 C246 1.387 . S
N248 Co239 2.022 . S
N248 C245 1.351 . S
N248 N249 1.365 . S
N249 C246 1.341 . S
N249 N248 1.365 . S
N249 H269 0.862 . S
C250 C245 1.501 1_545 S
C250 H251 0.961 . S
C250 H252 0.961 . S
C250 H253 0.960 . S
H251 C250 0.961 . S
H252 C250 0.961 . S
H253 C250 0.960 . S
C254 N255 1.342 . S
C254 C258 1.401 . S
C254 C259 1.499 . S
N255 Co238 1.989 . S
N255 C254 1.342 . S
N255 N256 1.388 . S
N256 Co239 1.993 . S
N256 N255 1.388 . S
N256 C257 1.346 . S
C257 N256 1.346 . S
C257 C258 1.396 . S
C257 C267 1.510 . S
C258 C254 1.401 . S
C258 C257 1.396 . S
C259 C254 1.499 . S
C259 H260 0.959 . S
C259 H261 0.960 1_565 S
C259 H262 0.961 . S
H260 C259 0.959 . S
H261 C259 0.960 1_545 S
H262 C259 0.961 . S
O263 Co238 1.967 . S
O263 C271 1.258 . S
O264 Co239 1.941 . S
O264 C271 1.266 . S
H265 C267 0.959 . S
H266 C267 0.961 1_545 S
C267 C257 1.510 . S
C267 H265 0.959 . S
C267 H266 0.961 1_565 S
C267 H268 0.960 . S
H268 C267 0.960 . S
H269 N249 0.862 . S
O270 Co238 1.920 . S
O270 C243 1.289 . S
C271 O263 1.258 . S
C271 O264 1.266 . S
Co272 O275 1.970 . S
Co272 N289 1.989 . S
Co272 O297 1.967 . S
Co272 O304 1.920 . S
Co273 O276 1.966 . S
Co273 N282 2.022 . S
Co273 N290 1.993 . S
Co273 O298 1.941 . S
C274 O275 1.258 . S
C274 O276 1.263 . S
O275 Co272 1.970 . S
O275 C274 1.258 . S
O276 Co273 1.966 . S
O276 C274 1.263 . S
C277 O278 1.235 . S
C277 O304 1.289 . S
O278 C277 1.235 . S
C279 C281 1.400 . S
C279 N282 1.351 . S
C279 C284 1.501 . S
C280 C281 1.387 . S
C280 N283 1.341 . S
C281 C279 1.400 . S
C281 C280 1.387 . S
N282 Co273 2.022 . S
N282 C279 1.351 . S
N282 N283 1.365 . S
N283 C280 1.341 . S
N283 N282 1.365 . S
N283 H303 0.862 . S
C284 C279 1.501 . S
C284 H285 0.961 . S
C284 H286 0.961 . S
C284 H287 0.960 . S
H285 C284 0.961 . S
H286 C284 0.961 . S
H287 C284 0.960 . S
C288 N289 1.342 1_545 S
C288 C292 1.401 . S
C288 C293 1.499 . S
N289 Co272 1.989 . S
N289 C288 1.342 1_565 S
N289 N290 1.388 . S
N290 Co273 1.993 . S
N290 N289 1.388 . S
N290 C291 1.346 1_565 S
C291 N290 1.346 1_545 S
C291 C292 1.396 . S
C291 C301 1.510 . S
C292 C288 1.401 . S
C292 C291 1.396 . S
C293 C288 1.499 . S
C293 H294 0.959 . S
C293 H295 0.960 . S
C293 H296 0.961 . S
H294 C293 0.959 . S
H295 C293 0.960 . S
H296 C293 0.961 . S
O297 Co272 1.967 . S
O297 C305 1.258 . S
O298 Co273 1.941 . S
O298 C305 1.266 . S
H299 C301 0.959 . S
H300 C301 0.961 . S
C301 C291 1.510 . S
C301 H299 0.959 . S
C301 H300 0.961 . S
C301 H302 0.960 . S
H302 C301 0.960 . S
H303 N283 0.862 . S
O304 Co272 1.920 . S
O304 C277 1.289 . S
C305 O297 1.258 . S
C305 O298 1.266 . S
Co306 O309 1.970 . S
Co306 N323 1.989 . S
Co306 O331 1.967 . S
Co306 O338 1.920 . S
Co307 O310 1.966 . S
Co307 N316 2.022 . S
Co307 N324 1.993 . S
Co307 O332 1.941 . S
C308 O309 1.258 . S
C308 O310 1.263 . S
O309 Co306 1.970 . S
O309 C308 1.258 . S
O310 Co307 1.966 . S
O310 C308 1.263 . S
C311 O312 1.235 . S
C311 O338 1.289 . S
O312 C311 1.235 . S
C313 C315 1.400 . S
C313 N316 1.351 . S
C313 C318 1.501 . S
C314 C315 1.387 . S
C314 N317 1.341 . S
C315 C313 1.400 . S
C315 C314 1.387 . S
N316 Co307 2.022 . S
N316 C313 1.351 . S
N316 N317 1.365 . S
N317 C314 1.341 . S
N317 N316 1.365 . S
N317 H337 0.862 . S
C318 C313 1.501 . S
C318 H319 0.961 . S
C318 H320 0.961 . S
C318 H321 0.960 . S
H319 C318 0.961 . S
H320 C318 0.961 . S
H321 C318 0.960 . S
C322 N323 1.342 . S
C322 C326 1.401 . S
C322 C327 1.499 . S
N323 Co306 1.989 . S
N323 C322 1.342 . S
N323 N324 1.388 . S
N324 Co307 1.993 . S
N324 N323 1.388 . S
N324 C325 1.346 . S
C325 N324 1.346 . S
C325 C326 1.396 . S
C325 C335 1.510 . S
C326 C322 1.401 . S
C326 C325 1.396 . S
C327 C322 1.499 . S
C327 H328 0.959 . S
C327 H329 0.960 . S
C327 H330 0.961 . S
H328 C327 0.959 . S
H329 C327 0.960 . S
H330 C327 0.961 . S
O331 Co306 1.967 . S
O331 C339 1.258 . S
O332 Co307 1.941 . S
O332 C339 1.266 . S
H333 C335 0.959 . S
H334 C335 0.961 . S
C335 C325 1.510 . S
C335 H333 0.959 . S
C335 H334 0.961 . S
C335 H336 0.960 . S
H336 C335 0.960 . S
H337 N317 0.862 . S
O338 Co306 1.920 . S
O338 C311 1.289 . S
C339 O331 1.258 . S
C339 O332 1.266 . S
Co340 O343 1.970 . S
Co340 N357 1.989 . S
Co340 O365 1.967 . S
Co340 O372 1.920 . S
Co341 O344 1.966 . S
Co341 N350 2.022 . S
Co341 N358 1.993 . S
Co341 O366 1.941 . S
C342 O343 1.258 . S
C342 O344 1.263 . S
O343 Co340 1.970 . S
O343 C342 1.258 . S
O344 Co341 1.966 . S
O344 C342 1.263 . S
C345 O346 1.235 1_455 S
C345 O372 1.289 . S
O346 C345 1.235 1_655 S
C347 C349 1.400 . S
C347 N350 1.351 . S
C347 C352 1.501 1_455 S
C348 C349 1.387 . S
C348 N351 1.341 . S
C349 C347 1.400 . S
C349 C348 1.387 . S
N350 Co341 2.022 . S
N350 C347 1.351 . S
N350 N351 1.365 . S
N351 C348 1.341 . S
N351 N350 1.365 . S
N351 H371 0.862 . S
C352 C347 1.501 1_655 S
C352 H353 0.961 . S
C352 H354 0.961 . S
C352 H355 0.960 . S
H353 C352 0.961 . S
H354 C352 0.961 . S
H355 C352 0.960 . S
C356 N357 1.342 . S
C356 C360 1.401 . S
C356 C361 1.499 . S
N357 Co340 1.989 . S
N357 C356 1.342 . S
N357 N358 1.388 . S
N358 Co341 1.993 . S
N358 N357 1.388 . S
N358 C359 1.346 . S
C359 N358 1.346 . S
C359 C360 1.396 . S
C359 C369 1.510 . S
C360 C356 1.401 . S
C360 C359 1.396 . S
C361 C356 1.499 . S
C361 H362 0.959 . S
C361 H363 0.960 . S
C361 H364 0.961 . S
H362 C361 0.959 . S
H363 C361 0.960 . S
H364 C361 0.961 . S
O365 Co340 1.967 . S
O365 C373 1.258 . S
O366 Co341 1.941 . S
O366 C373 1.266 . S
H367 C369 0.959 . S
H368 C369 0.961 . S
C369 C359 1.510 . S
C369 H367 0.959 . S
C369 H368 0.961 . S
C369 H370 0.960 . S
H370 C369 0.960 . S
H371 N351 0.862 . S
O372 Co340 1.920 . S
O372 C345 1.289 . S
C373 O365 1.258 . S
C373 O366 1.266 . S
Co374 O377 1.970 . S
Co374 N391 1.989 . S
Co374 O399 1.967 . S
Co374 O406 1.920 . S
Co375 O378 1.966 . S
Co375 N384 2.022 . S
Co375 N392 1.993 . S
Co375 O400 1.941 . S
C376 O377 1.258 . S
C376 O378 1.263 . S
O377 Co374 1.970 . S
O377 C376 1.258 . S
O378 Co375 1.966 . S
O378 C376 1.263 . S
C379 O380 1.235 1_545 S
C379 O406 1.289 . S
O380 C379 1.235 1_565 S
C381 C383 1.400 . S
C381 N384 1.351 . S
C381 C386 1.501 1_545 S
C382 C383 1.387 . S
C382 N385 1.341 . S
C383 C381 1.400 . S
C383 C382 1.387 . S
N384 Co375 2.022 . S
N384 C381 1.351 . S
N384 N385 1.365 . S
N385 C382 1.341 . S
N385 N384 1.365 . S
N385 H405 0.862 . S
C386 C381 1.501 1_565 S
C386 H387 0.961 . S
C386 H388 0.961 . S
C386 H389 0.960 . S
H387 C386 0.961 . S
H388 C386 0.961 . S
H389 C386 0.960 . S
C390 N391 1.342 1_455 S
C390 C394 1.401 . S
C390 C395 1.499 . S
N391 Co374 1.989 . S
N391 C390 1.342 1_655 S
N391 N392 1.388 . S
N392 Co375 1.993 . S
N392 N391 1.388 . S
N392 C393 1.346 1_655 S
C393 N392 1.346 1_455 S
C393 C394 1.396 . S
C393 C403 1.510 . S
C394 C390 1.401 . S
C394 C393 1.396 . S
C395 C390 1.499 . S
C395 H396 0.959 . S
C395 H397 0.960 . S
C395 H398 0.961 . S
H396 C395 0.959 . S
H397 C395 0.960 . S
H398 C395 0.961 . S
O399 Co374 1.967 . S
O399 C407 1.258 . S
O400 Co375 1.941 . S
O400 C407 1.266 . S
H401 C403 0.959 . S
H402 C403 0.961 . S
C403 C393 1.510 . S
C403 H401 0.959 . S
C403 H402 0.961 . S
C403 H404 0.960 . S
H404 C403 0.960 . S
H405 N385 0.862 . S
O406 Co374 1.920 . S
O406 C379 1.289 . S
C407 O399 1.258 . S
C407 O400 1.266 . S
Co408 O411 1.970 . S
Co408 N425 1.989 . S
Co408 O433 1.967 . S
Co408 O440 1.920 . S
Co409 O412 1.966 . S
Co409 N418 2.022 . S
Co409 N426 1.993 . S
Co409 O434 1.941 . S
C410 O411 1.258 . S
C410 O412 1.263 . S
O411 Co408 1.970 . S
O411 C410 1.258 . S
O412 Co409 1.966 . S
O412 C410 1.263 . S
C413 O414 1.235 . S
C413 O440 1.289 . S
O414 C413 1.235 . S
C415 C417 1.400 . S
C415 N418 1.351 . S
C415 C420 1.501 . S
C416 C417 1.387 . S
C416 N419 1.341 . S
C417 C415 1.400 . S
C417 C416 1.387 . S
N418 Co409 2.022 . S
N418 C415 1.351 . S
N418 N419 1.365 . S
N419 C416 1.341 . S
N419 N418 1.365 . S
N419 H439 0.862 . S
C420 C415 1.501 . S
C420 H421 0.961 . S
C420 H422 0.961 . S
C420 H423 0.960 . S
H421 C420 0.961 . S
H422 C420 0.961 . S
H423 C420 0.960 . S
C424 N425 1.342 . S
C424 C428 1.401 . S
C424 C429 1.499 . S
N425 Co408 1.989 . S
N425 C424 1.342 . S
N425 N426 1.388 . S
N426 Co409 1.993 . S
N426 N425 1.388 . S
N426 C427 1.346 . S
C427 N426 1.346 . S
C427 C428 1.396 . S
C427 C437 1.510 . S
C428 C424 1.401 . S
C428 C427 1.396 . S
C429 C424 1.499 . S
C429 H430 0.959 . S
C429 H431 0.960 . S
C429 H432 0.961 . S
H430 C429 0.959 . S
H431 C429 0.960 . S
H432 C429 0.961 . S
O433 Co408 1.967 . S
O433 C441 1.258 . S
O434 Co409 1.941 . S
O434 C441 1.266 . S
H435 C437 0.959 . S
H436 C437 0.961 . S
C437 C427 1.510 . S
C437 H435 0.959 . S
C437 H436 0.961 . S
C437 H438 0.960 . S
H438 C437 0.960 . S
H439 N419 0.862 . S
O440 Co408 1.920 . S
O440 C413 1.289 . S
C441 O433 1.258 . S
C441 O434 1.266 . S
Co442 O445 1.970 . S
Co442 N459 1.989 . S
Co442 O467 1.967 . S
Co442 O474 1.920 . S
Co443 O446 1.966 . S
Co443 N452 2.022 . S
Co443 N460 1.993 . S
Co443 O468 1.941 . S
C444 O445 1.258 . S
C444 O446 1.263 . S
O445 Co442 1.970 . S
O445 C444 1.258 . S
O446 Co443 1.966 . S
O446 C444 1.263 . S
C447 O448 1.235 . S
C447 O474 1.289 . S
O448 C447 1.235 . S
C449 C451 1.400 . S
C449 N452 1.351 . S
C449 C454 1.501 . S
C450 C451 1.387 . S
C450 N453 1.341 . S
C451 C449 1.400 . S
C451 C450 1.387 . S
N452 Co443 2.022 . S
N452 C449 1.351 . S
N452 N453 1.365 . S
N453 C450 1.341 . S
N453 N452 1.365 . S
N453 H473 0.862 . S
C454 C449 1.501 . S
C454 H455 0.961 . S
C454 H456 0.961 . S
C454 H457 0.960 . S
H455 C454 0.961 . S
H456 C454 0.961 . S
H457 C454 0.960 . S
C458 N459 1.342 1_455 S
C458 C462 1.401 . S
C458 C463 1.499 . S
N459 Co442 1.989 . S
N459 C458 1.342 1_655 S
N459 N460 1.388 . S
N460 Co443 1.993 . S
N460 N459 1.388 . S
N460 C461 1.346 1_655 S
C461 N460 1.346 1_455 S
C461 C462 1.396 . S
C461 C471 1.510 . S
C462 C458 1.401 . S
C462 C461 1.396 . S
C463 C458 1.499 . S
C463 H464 0.959 . S
C463 H465 0.960 . S
C463 H466 0.961 . S
H464 C463 0.959 . S
H465 C463 0.960 . S
H466 C463 0.961 . S
O467 Co442 1.967 . S
O467 C475 1.258 . S
O468 Co443 1.941 . S
O468 C475 1.266 . S
H469 C471 0.959 . S
H470 C471 0.961 . S
C471 C461 1.510 . S
C471 H469 0.959 . S
C471 H470 0.961 . S
C471 H472 0.960 . S
H472 C471 0.960 . S
H473 N453 0.862 . S
O474 Co442 1.920 . S
O474 C447 1.289 . S
C475 O467 1.258 . S
C475 O468 1.266 . S
Co476 O479 1.970 . S
Co476 N493 1.989 . S
Co476 O501 1.967 . S
Co476 O508 1.920 . S
Co477 O480 1.966 . S
Co477 N486 2.022 . S
Co477 N494 1.993 . S
Co477 O502 1.941 . S
C478 O479 1.258 . S
C478 O480 1.263 . S
O479 Co476 1.970 . S
O479 C478 1.258 . S
O480 Co477 1.966 . S
O480 C478 1.263 . S
C481 O482 1.235 1_455 S
C481 O508 1.289 . S
O482 C481 1.235 1_655 S
C483 C485 1.400 . S
C483 N486 1.351 . S
C483 C488 1.501 1_455 S
C484 C485 1.387 . S
C484 N487 1.341 . S
C485 C483 1.400 . S
C485 C484 1.387 . S
N486 Co477 2.022 . S
N486 C483 1.351 . S
N486 N487 1.365 . S
N487 C484 1.341 . S
N487 N486 1.365 . S
N487 H507 0.862 . S
C488 C483 1.501 1_655 S
C488 H489 0.961 . S
C488 H490 0.961 . S
C488 H491 0.960 . S
H489 C488 0.961 . S
H490 C488 0.961 . S
H491 C488 0.960 . S
C492 N493 1.342 1_545 S
C492 C496 1.401 . S
C492 C497 1.499 . S
N493 Co476 1.989 . S
N493 C492 1.342 1_565 S
N493 N494 1.388 . S
N494 Co477 1.993 . S
N494 N493 1.388 . S
N494 C495 1.346 1_565 S
C495 N494 1.346 1_545 S
C495 C496 1.396 . S
C495 C505 1.510 . S
C496 C492 1.401 . S
C496 C495 1.396 . S
C497 C492 1.499 . S
C497 H498 0.959 . S
C497 H499 0.960 . S
C497 H500 0.961 . S
H498 C497 0.959 . S
H499 C497 0.960 . S
H500 C497 0.961 . S
O501 Co476 1.967 . S
O501 C509 1.258 . S
O502 Co477 1.941 . S
O502 C509 1.266 . S
H503 C505 0.959 . S
H504 C505 0.961 . S
C505 C495 1.510 . S
C505 H503 0.959 . S
C505 H504 0.961 . S
C505 H506 0.960 . S
H506 C505 0.960 . S
H507 N487 0.862 . S
O508 Co476 1.920 . S
O508 C481 1.289 . S
C509 O501 1.258 . S
C509 O502 1.266 . S
Co510 O513 1.970 . S
Co510 N527 1.989 . S
Co510 O535 1.967 . S
Co510 O542 1.920 . S
Co511 O514 1.966 . S
Co511 N520 2.022 . S
Co511 N528 1.993 . S
Co511 O536 1.941 . S
C512 O513 1.258 . S
C512 O514 1.263 . S
O513 Co510 1.970 . S
O513 C512 1.258 . S
O514 Co511 1.966 . S
O514 C512 1.263 . S
C515 O516 1.235 1_545 S
C515 O542 1.289 . S
O516 C515 1.235 1_565 S
C517 C519 1.400 . S
C517 N520 1.351 . S
C517 C522 1.501 1_545 S
C518 C519 1.387 . S
C518 N521 1.341 . S
C519 C517 1.400 . S
C519 C518 1.387 . S
N520 Co511 2.022 . S
N520 C517 1.351 . S
N520 N521 1.365 . S
N521 C518 1.341 . S
N521 N520 1.365 . S
N521 H541 0.862 . S
C522 C517 1.501 1_565 S
C522 H523 0.961 . S
C522 H524 0.961 . S
C522 H525 0.960 . S
H523 C522 0.961 . S
H524 C522 0.961 . S
H525 C522 0.960 . S
C526 N527 1.342 . S
C526 C530 1.401 . S
C526 C531 1.499 . S
N527 Co510 1.989 . S
N527 C526 1.342 . S
N527 N528 1.388 . S
N528 Co511 1.993 . S
N528 N527 1.388 . S
N528 C529 1.346 . S
C529 N528 1.346 . S
C529 C530 1.396 . S
C529 C539 1.510 . S
C530 C526 1.401 . S
C530 C529 1.396 . S
C531 C526 1.499 . S
C531 H532 0.959 . S
C531 H533 0.960 . S
C531 H534 0.961 . S
H532 C531 0.959 . S
H533 C531 0.960 . S
H534 C531 0.961 . S
O535 Co510 1.967 . S
O535 C543 1.258 . S
O536 Co511 1.941 . S
O536 C543 1.266 . S
H537 C539 0.959 . S
H538 C539 0.961 . S
C539 C529 1.510 . S
C539 H537 0.959 . S
C539 H538 0.961 . S
C539 H540 0.960 . S
H540 C539 0.960 . S
H541 N521 0.862 . S
O542 Co510 1.920 . S
O542 C515 1.289 . S
C543 O535 1.258 . S
C543 O536 1.266 . S
H544 C550 0.930 . S
H545 C554 0.930 . S
H546 C559 0.929 . S
H547 C557 0.929 . S
H548 C552 0.929 . S
H549 C558 0.929 . S
C550 H544 0.930 . S
C550 C551 1.367 . S
C550 C558 1.378 . S
C551 C550 1.367 . S
C551 C559 1.433 . S
C552 H548 0.929 . S
C552 C554 1.378 . S
C552 C556 1.350 1_565 S
C553 C556 1.463 . S
C553 C558 1.350 . S
C553 N561 1.427 . S
C554 H545 0.930 . S
C554 C552 1.378 . S
C554 C555 1.367 . S
C555 C554 1.367 . S
C555 C557 1.433 1_565 S
C556 C552 1.350 1_545 S
C556 C553 1.463 . S
C556 N560 1.427 . S
C557 H547 0.929 . S
C557 C555 1.433 1_545 S
C557 N560 1.384 . S
C558 H549 0.929 . S
C558 C550 1.378 . S
C558 C553 1.350 . S
C559 H546 0.929 . S
C559 C551 1.433 . S
C559 N561 1.384 . S
N560 C556 1.427 . S
N560 C557 1.384 . S
N561 C553 1.427 . S
N561 C559 1.384 . S
H562 C568 0.930 . S
H563 C572 0.930 . S
H564 C577 0.929 . S
H565 C575 0.929 . S
H566 C570 0.929 . S
H567 C576 0.929 . S
C568 H562 0.930 . S
C568 C569 1.367 . S
C568 C576 1.378 . S
C569 C568 1.367 . S
C569 C577 1.433 . S
C570 H566 0.929 . S
C570 C572 1.378 . S
C570 C574 1.350 . S
C571 C574 1.463 . S
C571 C576 1.350 . S
C571 N579 1.427 . S
C572 H563 0.930 . S
C572 C570 1.378 . S
C572 C573 1.367 . S
C573 C572 1.367 . S
C573 C575 1.433 . S
C574 C570 1.350 . S
C574 C571 1.463 . S
C574 N578 1.427 . S
C575 H565 0.929 . S
C575 C573 1.433 . S
C575 N578 1.384 . S
C576 H567 0.929 . S
C576 C568 1.378 . S
C576 C571 1.350 . S
C577 H564 0.929 . S
C577 C569 1.433 . S
C577 N579 1.384 . S
N578 C574 1.427 . S
N578 C575 1.384 . S
N579 C571 1.427 . S
N579 C577 1.384 . S
H580 C586 0.930 . S
H581 C590 0.930 1_655 S
H582 C595 0.929 . S
H583 C593 0.929 . S
H584 C588 0.929 . S
H585 C594 0.929 . S
C586 H580 0.930 . S
C586 C587 1.367 1_455 S
C586 C594 1.378 . S
C587 C586 1.367 1_655 S
C587 C595 1.433 . S
C588 H584 0.929 . S
C588 C590 1.378 1_655 S
C588 C592 1.350 1_655 S
C589 C592 1.463 . S
C589 C594 1.350 . S
C589 N597 1.427 1_455 S
C590 H581 0.930 1_455 S
C590 C588 1.378 1_455 S
C590 C591 1.367 . S
C591 C590 1.367 . S
C591 C593 1.433 . S
C592 C588 1.350 1_455 S
C592 C589 1.463 . S
C592 N596 1.427 . S
C593 H583 0.929 . S
C593 C591 1.433 . S
C593 N596 1.384 . S
C594 H585 0.929 . S
C594 C586 1.378 . S
C594 C589 1.350 . S
C595 H582 0.929 . S
C595 C587 1.433 . S
C595 N597 1.384 . S
N596 C592 1.427 . S
N596 C593 1.384 . S
N597 C589 1.427 1_655 S
N597 C595 1.384 . S
H598 C604 0.930 . S
H599 C608 0.930 . S
H600 C613 0.923 1_655 S
H601 C611 0.929 1_565 S
H602 C606 0.929 . S
H603 C612 0.929 . S
C604 H598 0.930 . S
C604 C605 1.367 . S
C604 C612 1.378 . S
C605 C604 1.367 . S
C605 C613 1.433 1_565 S
C606 H602 0.929 . S
C606 C608 1.378 . S
C606 C610 1.350 1_655 S
C607 C610 1.463 . S
C607 C612 1.350 1_545 S
C607 N615 1.427 . S
C608 H599 0.930 . S
C608 C606 1.378 . S
C608 C609 1.367 . S
C609 C608 1.367 . S
C609 C611 1.433 1_655 S
C610 C606 1.350 1_455 S
C610 C607 1.463 . S
C610 N614 1.427 1_545 S
C611 H601 0.929 1_545 S
C611 C609 1.433 1_455 S
C611 N614 1.384 1_545 S
C612 H603 0.929 . S
C612 C604 1.378 . S
C612 C607 1.350 1_565 S
C613 H600 0.923 1_455 S
C613 C605 1.433 1_545 S
C613 N615 1.384 . S
N614 C610 1.427 1_565 S
N614 C611 1.384 1_565 S
N615 C607 1.427 . S
N615 C613 1.384 . S
H616 C622 0.930 . S
H617 C626 0.930 . S
H618 C631 0.929 . S
H619 C629 0.929 . S
H620 C624 0.929 . S
H621 C630 0.929 . S
C622 H616 0.930 . S
C622 C623 1.367 . S
C622 C630 1.378 . S
C623 C622 1.367 . S
C623 C631 1.433 1_565 S
C624 H620 0.929 . S
C624 C626 1.378 . S
C624 C628 1.350 1_545 S
C625 C628 1.463 . S
C625 C630 1.350 . S
C625 N633 1.427 1_565 S
C626 H617 0.930 . S
C626 C624 1.378 . S
C626 C627 1.367 . S
C627 C626 1.367 . S
C627 C629 1.433 1_545 S
C628 C624 1.350 1_565 S
C628 C625 1.463 . S
C628 N632 1.427 . S
C629 H619 0.929 . S
C629 C627 1.433 1_565 S
C629 N632 1.384 . S
C630 H621 0.929 . S
C630 C622 1.378 . S
C630 C625 1.350 . S
C631 H618 0.929 . S
C631 C623 1.433 1_545 S
C631 N633 1.384 . S
N632 C628 1.427 . S
N632 C629 1.384 . S
N633 C625 1.427 1_545 S
N633 C631 1.384 . S
H634 C640 0.930 . S
H635 C644 0.930 . S
H636 C649 0.929 . S
H637 C647 0.929 . S
H638 C642 0.929 . S
H639 C648 0.929 . S
C640 H634 0.930 . S
C640 C641 1.367 . S
C640 C648 1.378 . S
C641 C640 1.367 . S
C641 C649 1.433 . S
C642 H638 0.929 . S
C642 C644 1.378 . S
C642 C646 1.350 . S
C643 C646 1.463 . S
C643 C648 1.350 . S
C643 N651 1.427 . S
C644 H635 0.930 . S
C644 C642 1.378 . S
C644 C645 1.367 . S
C645 C644 1.367 . S
C645 C647 1.433 . S
C646 C642 1.350 . S
C646 C643 1.463 . S
C646 N650 1.427 . S
C647 H637 0.929 . S
C647 C645 1.433 . S
C647 N650 1.384 . S
C648 H639 0.929 . S
C648 C640 1.378 . S
C648 C643 1.350 . S
C649 H636 0.929 . S
C649 C641 1.433 . S
C649 N651 1.384 . S
N650 C646 1.427 . S
N650 C647 1.384 . S
N651 C643 1.427 . S
N651 C649 1.384 . S
H652 C658 0.930 . S
H653 C662 0.930 1_455 S
H654 C667 0.929 . S
H655 C665 0.929 . S
H656 C660 0.929 . S
H657 C666 0.929 . S
C658 H652 0.930 . S
C658 C659 1.367 1_655 S
C658 C666 1.378 . S
C659 C658 1.367 1_455 S
C659 C667 1.433 . S
C660 H656 0.929 . S
C660 C662 1.378 1_455 S
C660 C664 1.350 1_455 S
C661 C664 1.463 . S
C661 C666 1.350 . S
C661 N669 1.427 1_655 S
C662 H653 0.930 1_655 S
C662 C660 1.378 1_655 S
C662 C663 1.367 . S
C663 C662 1.367 . S
C663 C665 1.433 . S
C664 C660 1.350 1_655 S
C664 C661 1.463 . S
C664 N668 1.427 . S
C665 H655 0.929 . S
C665 C663 1.433 . S
C665 N668 1.384 . S
C666 H657 0.929 . S
C666 C658 1.378 . S
C666 C661 1.350 . S
C667 H654 0.929 . S
C667 C659 1.433 . S
C667 N669 1.384 . S
N668 C664 1.427 . S
N668 C665 1.384 . S
N669 C661 1.427 1_455 S
N669 C667 1.384 . S
H670 C676 0.930 1_545 S
H671 C680 0.930 . S
H672 C685 0.929 . S
H673 C683 0.929 . S
H674 C678 0.929 1_455 S
H675 C684 0.929 . S
C676 H670 0.930 1_565 S
C676 C677 1.367 1_655 S
C676 C684 1.378 1_565 S
C677 C676 1.367 1_455 S
C677 C685 1.433 . S
C678 H674 0.929 1_655 S
C678 C680 1.378 . S
C678 C682 1.350 . S
C679 C682 1.463 . S
C679 C684 1.350 1_565 S
C679 N687 1.427 1_655 S
C680 H671 0.930 . S
C680 C678 1.378 . S
C680 C681 1.367 1_565 S
C681 C680 1.367 1_545 S
C681 C683 1.433 . S
C682 C678 1.350 . S
C682 C679 1.463 . S
C682 N686 1.427 1_565 S
C683 H673 0.929 . S
C683 C681 1.433 . S
C683 N686 1.384 . S
C684 H675 0.929 . S
C684 C676 1.378 1_545 S
C684 C679 1.350 1_545 S
C685 H672 0.929 . S
C685 C677 1.433 . S
C685 N687 1.384 . S
N686 C682 1.427 1_545 S
N686 C683 1.384 . S
N687 C679 1.427 1_455 S
N687 C685 1.384 . S
H688 C694 0.930 . S
H689 C698 0.930 . S
H690 C703 0.929 . S
H691 C701 0.929 . S
H692 C696 0.929 . S
H693 C702 0.929 . S
C694 H688 0.930 . S
C694 C695 1.367 . S
C694 C702 1.378 . S
C695 C694 1.367 . S
C695 C703 1.433 . S
C696 H692 0.929 . S
C696 C698 1.378 . S
C696 C700 1.350 . S
C697 C700 1.463 . S
C697 C702 1.350 . S
C697 N705 1.427 . S
C698 H689 0.930 . S
C698 C696 1.378 . S
C698 C699 1.367 . S
C699 C698 1.367 . S
C699 C701 1.433 . S
C700 C696 1.350 . S
C700 C697 1.463 . S
C700 N704 1.427 . S
C701 H691 0.929 . S
C701 C699 1.433 . S
C701 N704 1.384 . S
C702 H693 0.929 . S
C702 C694 1.378 . S
C702 C697 1.350 . S
C703 H690 0.929 . S
C703 C695 1.433 . S
C703 N705 1.384 . S
N704 C700 1.427 . S
N704 C701 1.384 . S
N705 C697 1.427 . S
N705 C703 1.384 . S
H706 C712 0.930 . S
H707 C716 0.930 . S
H708 C721 0.929 . S
H709 C719 0.929 . S
H710 C714 0.929 . S
H711 C720 0.929 . S
C712 H706 0.930 . S
C712 C713 1.367 . S
C712 C720 1.378 . S
C713 C712 1.367 . S
C713 C721 1.433 . S
C714 H710 0.929 . S
C714 C716 1.378 . S
C714 C718 1.350 . S
C715 C718 1.463 . S
C715 C720 1.350 . S
C715 N723 1.427 . S
C716 H707 0.930 . S
C716 C714 1.378 . S
C716 C717 1.367 . S
C717 C716 1.367 . S
C717 C719 1.433 . S
C718 C714 1.350 . S
C718 C715 1.463 . S
C718 N722 1.427 . S
C719 H709 0.929 . S
C719 C717 1.433 . S
C719 N722 1.384 . S
C720 H711 0.929 . S
C720 C712 1.378 . S
C720 C715 1.350 . S
C721 H708 0.929 . S
C721 C713 1.433 . S
C721 N723 1.384 . S
N722 C718 1.427 . S
N722 C719 1.384 . S
N723 C715 1.427 . S
N723 C721 1.384 . S
H724 C730 0.930 . S
H725 C734 0.930 . S
H726 C739 0.929 . S
H727 C737 0.929 . S
H728 C732 0.929 . S
H729 C738 0.929 . S
C730 H724 0.930 . S
C730 C731 1.367 . S
C730 C738 1.378 . S
C731 C730 1.367 . S
C731 C739 1.433 . S
C732 H728 0.929 . S
C732 C734 1.378 . S
C732 C736 1.350 . S
C733 C736 1.463 . S
C733 C738 1.350 . S
C733 N741 1.427 . S
C734 H725 0.930 . S
C734 C732 1.378 . S
C734 C735 1.367 . S
C735 C734 1.367 . S
C735 C737 1.433 . S
C736 C732 1.350 . S
C736 C733 1.463 . S
C736 N740 1.427 . S
C737 H727 0.929 . S
C737 C735 1.433 . S
C737 N740 1.384 . S
C738 H729 0.929 . S
C738 C730 1.378 . S
C738 C733 1.350 . S
C739 H726 0.929 . S
C739 C731 1.433 . S
C739 N741 1.384 . S
N740 C736 1.427 . S
N740 C737 1.384 . S
N741 C733 1.427 . S
N741 C739 1.384 . S
H742 C748 0.930 . S
H743 C752 0.930 . S
H744 C757 0.929 . S
H745 C755 0.929 . S
H746 C750 0.929 . S
H747 C756 0.929 . S
C748 H742 0.930 . S
C748 C749 1.367 . S
C748 C756 1.378 . S
C749 C748 1.367 . S
C749 C757 1.433 . S
C750 H746 0.929 . S
C750 C752 1.378 . S
C750 C754 1.350 . S
C751 C754 1.463 . S
C751 C756 1.350 . S
C751 N759 1.427 . S
C752 H743 0.930 . S
C752 C750 1.378 . S
C752 C753 1.367 . S
C753 C752 1.367 . S
C753 C755 1.433 . S
C754 C750 1.350 . S
C754 C751 1.463 . S
C754 N758 1.427 . S
C755 H745 0.929 . S
C755 C753 1.433 . S
C755 N758 1.384 . S
C756 H747 0.929 . S
C756 C748 1.378 . S
C756 C751 1.350 . S
C757 H744 0.929 . S
C757 C749 1.433 . S
C757 N759 1.384 . S
N758 C754 1.427 . S
N758 C755 1.384 . S
N759 C751 1.427 . S
N759 C757 1.384 . S
H760 C766 0.930 . S
H761 C770 0.930 . S
H762 C775 0.929 . S
H763 C773 0.929 . S
H764 C768 0.929 . S
H765 C774 0.929 . S
C766 H760 0.930 . S
C766 C767 1.367 . S
C766 C774 1.378 . S
C767 C766 1.367 . S
C767 C775 1.433 . S
C768 H764 0.929 . S
C768 C770 1.378 . S
C768 C772 1.350 . S
C769 C772 1.463 . S
C769 C774 1.350 . S
C769 N777 1.427 . S
C770 H761 0.930 . S
C770 C768 1.378 . S
C770 C771 1.367 . S
C771 C770 1.367 . S
C771 C773 1.433 . S
C772 C768 1.350 . S
C772 C769 1.463 . S
C772 N776 1.427 . S
C773 H763 0.929 . S
C773 C771 1.433 . S
C773 N776 1.384 . S
C774 H765 0.929 . S
C774 C766 1.378 . S
C774 C769 1.350 . S
C775 H762 0.929 . S
C775 C767 1.433 . S
C775 N777 1.384 . S
N776 C772 1.427 . S
N776 C773 1.384 . S
N777 C769 1.427 . S
N777 C775 1.384 . S
H778 C784 0.930 . S
H779 C788 0.930 . S
H780 C793 0.929 . S
H781 C791 0.929 . S
H782 C786 0.929 . S
H783 C792 0.929 . S
C784 H778 0.930 . S
C784 C785 1.367 . S
C784 C792 1.378 . S
C785 C784 1.367 . S
C785 C793 1.433 . S
C786 H782 0.929 . S
C786 C788 1.378 . S
C786 C790 1.350 . S
C787 C790 1.463 . S
C787 C792 1.350 . S
C787 N795 1.427 . S
C788 H779 0.930 . S
C788 C786 1.378 . S
C788 C789 1.367 . S
C789 C788 1.367 . S
C789 C791 1.433 . S
C790 C786 1.350 . S
C790 C787 1.463 . S
C790 N794 1.427 . S
C791 H781 0.929 . S
C791 C789 1.433 . S
C791 N794 1.384 . S
C792 H783 0.929 . S
C792 C784 1.378 . S
C792 C787 1.350 . S
C793 H780 0.929 . S
C793 C785 1.433 . S
C793 N795 1.384 . S
N794 C790 1.427 . S
N794 C791 1.384 . S
N795 C787 1.427 . S
N795 C793 1.384 . S
H796 C802 0.930 . S
H797 C806 0.930 . S
H798 C811 0.929 . S
H799 C809 0.929 . S
H800 C804 0.929 . S
H801 C810 0.929 . S
C802 H796 0.930 . S
C802 C803 1.367 . S
C802 C810 1.378 . S
C803 C802 1.367 . S
C803 C811 1.433 . S
C804 H800 0.929 . S
C804 C806 1.378 . S
C804 C808 1.350 . S
C805 C808 1.463 . S
C805 C810 1.350 . S
C805 N813 1.427 . S
C806 H797 0.930 . S
C806 C804 1.378 . S
C806 C807 1.367 . S
C807 C806 1.367 . S
C807 C809 1.433 . S
C808 C804 1.350 . S
C808 C805 1.463 . S
C808 N812 1.427 . S
C809 H799 0.929 . S
C809 C807 1.433 . S
C809 N812 1.384 . S
C810 H801 0.929 . S
C810 C802 1.378 . S
C810 C805 1.350 . S
C811 H798 0.929 . S
C811 C803 1.433 . S
C811 N813 1.384 . S
N812 C808 1.427 . S
N812 C809 1.384 . S
N813 C805 1.427 . S
N813 C811 1.384 . S
H814 C820 0.930 . S
H815 C824 0.930 . S
H816 C829 0.929 . S
H817 C827 0.929 . S
H818 C822 0.929 . S
H819 C828 0.929 . S
C820 H814 0.930 . S
C820 C821 1.367 . S
C820 C828 1.378 . S
C821 C820 1.367 . S
C821 C829 1.433 . S
C822 H818 0.929 . S
C822 C824 1.378 . S
C822 C826 1.350 . S
C823 C826 1.463 . S
C823 C828 1.350 . S
C823 N831 1.427 . S
C824 H815 0.930 . S
C824 C822 1.378 . S
C824 C825 1.367 . S
C825 C824 1.367 . S
C825 C827 1.433 . S
C826 C822 1.350 . S
C826 C823 1.463 . S
C826 N830 1.427 . S
C827 H817 0.929 . S
C827 C825 1.433 . S
C827 N830 1.384 . S
C828 H819 0.929 . S
C828 C820 1.378 . S
C828 C823 1.350 . S
C829 H816 0.929 . S
C829 C821 1.433 . S
C829 N831 1.384 . S
N830 C826 1.427 . S
N830 C827 1.384 . S
N831 C823 1.427 . S
N831 C829 1.384 . S
H832 C838 0.930 . S
H833 C842 0.930 . S
H834 C847 0.929 . S
H835 C845 0.929 . S
H836 C840 0.929 . S
H837 C846 0.929 . S
C838 H832 0.930 . S
C838 C839 1.367 . S
C838 C846 1.378 . S
C839 C838 1.367 . S
C839 C847 1.433 . S
C840 H836 0.929 . S
C840 C842 1.378 . S
C840 C844 1.350 . S
C841 C844 1.463 . S
C841 C846 1.350 . S
C841 N849 1.427 . S
C842 H833 0.930 . S
C842 C840 1.378 . S
C842 C843 1.367 . S
C843 C842 1.367 . S
C843 C845 1.433 . S
C844 C840 1.350 . S
C844 C841 1.463 . S
C844 N848 1.427 . S
C845 H835 0.929 . S
C845 C843 1.433 . S
C845 N848 1.384 . S
C846 H837 0.929 . S
C846 C838 1.378 . S
C846 C841 1.350 . S
C847 H834 0.929 . S
C847 C839 1.433 . S
C847 N849 1.384 . S
N848 C844 1.427 . S
N848 C845 1.384 . S
N849 C841 1.427 . S
N849 C847 1.384 . S
H850 C856 0.930 . S
H851 C860 0.930 . S
H852 C865 0.929 . S
H853 C863 0.929 . S
H854 C858 0.929 . S
H855 C864 0.929 . S
C856 H850 0.930 . S
C856 C857 1.367 . S
C856 C864 1.378 . S
C857 C856 1.367 . S
C857 C865 1.433 . S
C858 H854 0.929 . S
C858 C860 1.378 . S
C858 C862 1.350 . S
C859 C862 1.463 . S
C859 C864 1.350 . S
C859 N867 1.427 . S
C860 H851 0.930 . S
C860 C858 1.378 . S
C860 C861 1.367 . S
C861 C860 1.367 . S
C861 C863 1.433 . S
C862 C858 1.350 . S
C862 C859 1.463 . S
C862 N866 1.427 . S
C863 H853 0.929 . S
C863 C861 1.433 . S
C863 N866 1.384 . S
C864 H855 0.929 . S
C864 C856 1.378 . S
C864 C859 1.350 . S
C865 H852 0.929 . S
C865 C857 1.433 . S
C865 N867 1.384 . S
N866 C862 1.427 . S
N866 C863 1.384 . S
N867 C859 1.427 . S
N867 C865 1.384 . S
H868 C874 0.930 . S
H869 C878 0.930 . S
H870 C883 0.929 . S
H871 C881 0.929 . S
H872 C876 0.929 . S
H873 C882 0.929 . S
C874 H868 0.930 . S
C874 C875 1.367 1_455 S
C874 C882 1.378 . S
C875 C874 1.367 1_655 S
C875 C883 1.433 . S
C876 H872 0.929 . S
C876 C878 1.378 . S
C876 C880 1.350 . S
C877 C880 1.463 . S
C877 C882 1.350 1_655 S
C877 N885 1.427 . S
C878 H869 0.930 . S
C878 C876 1.378 . S
C878 C879 1.364 1_655 S
C879 C878 1.364 1_455 S
C879 C881 1.435 . S
C880 C876 1.350 . S
C880 C877 1.463 . S
C880 N884 1.427 1_655 S
C881 H871 0.929 . S
C881 C879 1.435 . S
C881 N884 1.384 . S
C882 H873 0.929 . S
C882 C874 1.378 . S
C882 C877 1.350 1_455 S
C883 H870 0.929 . S
C883 C875 1.433 . S
C883 N885 1.384 . S
N884 C880 1.427 1_455 S
N884 C881 1.384 . S
N885 C877 1.427 . S
N885 C883 1.384 . S
H886 C892 0.930 . S
H887 C896 0.930 . S
H888 C901 0.929 . S
H889 C899 0.929 . S
H890 C894 0.929 . S
H891 C900 0.929 . S
C892 H886 0.930 . S
C892 C893 1.367 . S
C892 C900 1.378 . S
C893 C892 1.367 . S
C893 C901 1.433 1_545 S
C894 H890 0.929 . S
C894 C896 1.378 . S
C894 C898 1.350 . S
C895 C898 1.463 . S
C895 C900 1.350 1_565 S
C895 N903 1.427 . S
C896 H887 0.930 . S
C896 C894 1.378 . S
C896 C897 1.367 . S
C897 C896 1.367 . S
C897 C899 1.433 1_565 S
C898 C894 1.350 . S
C898 C895 1.463 . S
C898 N902 1.427 1_565 S
C899 H889 0.929 . S
C899 C897 1.433 1_545 S
C899 N902 1.384 . S
C900 H891 0.929 . S
C900 C892 1.378 . S
C900 C895 1.350 1_545 S
C901 H888 0.929 . S
C901 C893 1.433 1_565 S
C901 N903 1.384 . S
N902 C898 1.427 1_545 S
N902 C899 1.384 . S
N903 C895 1.427 . S
N903 C901 1.384 . S
H904 C910 0.930 . S
H905 C914 0.930 . S
H906 C919 0.929 . S
H907 C917 0.929 . S
H908 C912 0.929 . S
H909 C918 0.929 . S
C910 H904 0.930 . S
C910 C911 1.367 . S
C910 C918 1.378 . S
C911 C910 1.367 . S
C911 C919 1.433 . S
C912 H908 0.929 . S
C912 C914 1.378 . S
C912 C916 1.350 . S
C913 C916 1.463 . S
C913 C918 1.350 . S
C913 N921 1.427 . S
C914 H905 0.930 . S
C914 C912 1.378 . S
C914 C915 1.367 . S
C915 C914 1.367 . S
C915 C917 1.433 . S
C916 C912 1.350 . S
C916 C913 1.463 . S
C916 N920 1.427 . S
C917 H907 0.929 . S
C917 C915 1.433 . S
C917 N920 1.384 . S
C918 H909 0.929 . S
C918 C910 1.378 . S
C918 C913 1.350 . S
C919 H906 0.929 . S
C919 C911 1.433 . S
C919 N921 1.384 . S
N920 C916 1.427 . S
N920 C917 1.384 . S
N921 C913 1.427 . S
N921 C919 1.384 . S
H922 C928 0.930 . S
H923 C932 0.930 . S
H924 C937 0.929 . S
H925 C935 0.929 . S
H926 C930 0.929 . S
H927 C936 0.929 . S
C928 H922 0.930 . S
C928 C929 1.367 . S
C928 C936 1.378 . S
C929 C928 1.367 . S
C929 C937 1.433 . S
C930 H926 0.929 . S
C930 C932 1.378 . S
C930 C934 1.350 . S
C931 C934 1.463 . S
C931 C936 1.350 . S
C931 N939 1.427 . S
C932 H923 0.930 . S
C932 C930 1.378 . S
C932 C933 1.367 . S
C933 C932 1.367 . S
C933 C935 1.433 . S
C934 C930 1.350 . S
C934 C931 1.463 . S
C934 N938 1.427 . S
C935 H925 0.929 . S
C935 C933 1.433 . S
C935 N938 1.384 . S
C936 H927 0.929 . S
C936 C928 1.378 . S
C936 C931 1.350 . S
C937 H924 0.929 . S
C937 C929 1.433 . S
C937 N939 1.384 . S
N938 C934 1.427 . S
N938 C935 1.384 . S
N939 C931 1.427 . S
N939 C937 1.384 . S
H940 C946 0.930 . S
H941 C950 0.930 . S
H942 C955 0.929 . S
H943 C953 0.929 . S
H944 C948 0.929 . S
H945 C954 0.929 . S
C946 H940 0.930 . S
C946 C947 1.367 1_455 S
C946 C954 1.378 . S
C947 C946 1.367 1_655 S
C947 C955 1.433 . S
C948 H944 0.929 . S
C948 C950 1.378 . S
C948 C952 1.350 . S
C949 C952 1.463 . S
C949 C954 1.350 1_655 S
C949 N957 1.427 . S
C950 H941 0.930 . S
C950 C948 1.378 . S
C950 C951 1.368 1_655 S
C951 C950 1.368 1_455 S
C951 C953 1.432 . S
C952 C948 1.350 . S
C952 C949 1.463 . S
C952 N956 1.427 1_655 S
C953 H943 0.929 . S
C953 C951 1.432 . S
C953 N956 1.384 . S
C954 H945 0.929 . S
C954 C946 1.378 . S
C954 C949 1.350 1_455 S
C955 H942 0.929 . S
C955 C947 1.433 . S
C955 N957 1.384 . S
N956 C952 1.427 1_455 S
N956 C953 1.384 . S
N957 C949 1.427 . S
N957 C955 1.384 . S
H958 C964 0.930 . S
H959 C968 0.930 . S
H960 C973 0.929 . S
H961 C971 0.929 . S
H962 C966 0.929 . S
H963 C972 0.929 . S
C964 H958 0.930 . S
C964 C965 1.367 . S
C964 C972 1.378 . S
C965 C964 1.367 . S
C965 C973 1.433 1_565 S
C966 H962 0.929 . S
C966 C968 1.378 . S
C966 C970 1.350 1_545 S
C967 C970 1.463 . S
C967 C972 1.350 . S
C967 N975 1.427 1_565 S
C968 H959 0.930 . S
C968 C966 1.378 . S
C968 C969 1.367 . S
C969 C968 1.367 . S
C969 C971 1.433 1_545 S
C970 C966 1.350 1_565 S
C970 C967 1.463 . S
C970 N974 1.427 . S
C971 H961 0.929 . S
C971 C969 1.433 1_565 S
C971 N974 1.384 . S
C972 H963 0.929 . S
C972 C964 1.378 . S
C972 C967 1.350 . S
C973 H960 0.929 . S
C973 C965 1.433 1_545 S
C973 N975 1.384 . S
N974 C970 1.427 . S
N974 C971 1.384 . S
N975 C967 1.427 1_545 S
N975 C973 1.384 . S
H976 C982 0.930 . S
H977 C986 0.930 . S
H978 C991 0.929 . S
H979 C989 0.929 . S
H980 C984 0.929 . S
H981 C990 0.929 . S
C982 H976 0.930 . S
C982 C983 1.367 . S
C982 C990 1.378 . S
C983 C982 1.367 . S
C983 C991 1.433 . S
C984 H980 0.929 . S
C984 C986 1.378 . S
C984 C988 1.350 . S
C985 C988 1.463 . S
C985 C990 1.350 . S
C985 N993 1.427 . S
C986 H977 0.930 . S
C986 C984 1.378 . S
C986 C987 1.367 . S
C987 C986 1.367 . S
C987 C989 1.433 . S
C988 C984 1.350 . S
C988 C985 1.463 . S
C988 N992 1.427 . S
C989 H979 0.929 . S
C989 C987 1.433 . S
C989 N992 1.384 . S
C990 H981 0.929 . S
C990 C982 1.378 . S
C990 C985 1.350 . S
C991 H978 0.929 . S
C991 C983 1.433 . S
C991 N993 1.384 . S
N992 C988 1.427 . S
N992 C989 1.384 . S
N993 C985 1.427 . S
N993 C991 1.384 . S
H994 C1000 0.930 . S
H995 C1004 0.930 . S
H996 C1009 0.929 . S
H997 C1007 0.929 . S
H998 C1002 0.929 . S
H999 C1008 0.929 . S
C1000 H994 0.930 . S
C1000 C1001 1.367 . S
C1000 C1008 1.378 . S
C1001 C1000 1.367 . S
C1001 C1009 1.433 . S
C1002 H998 0.929 . S
C1002 C1004 1.378 . S
C1002 C1006 1.350 . S
C1003 C1006 1.463 . S
C1003 C1008 1.350 . S
C1003 N1011 1.427 . S
C1004 H995 0.930 . S
C1004 C1002 1.378 . S
C1004 C1005 1.367 . S
C1005 C1004 1.367 . S
C1005 C1007 1.433 . S
C1006 C1002 1.350 . S
C1006 C1003 1.463 . S
C1006 N1010 1.427 . S
C1007 H997 0.929 . S
C1007 C1005 1.433 . S
C1007 N1010 1.384 . S
C1008 H999 0.929 . S
C1008 C1000 1.378 . S
C1008 C1003 1.350 . S
C1009 H996 0.929 . S
C1009 C1001 1.433 . S
C1009 N1011 1.384 . S
N1010 C1006 1.427 . S
N1010 C1007 1.384 . S
N1011 C1003 1.427 . S
N1011 C1009 1.384 . S
H1012 C1018 0.930 . S
H1013 C1022 0.930 . S
H1014 C1027 0.929 . S
H1015 C1025 0.914 1_655 S
H1016 C1020 0.929 . S
H1017 C1026 0.929 . S
C1018 H1012 0.930 . S
C1018 C1019 1.367 1_655 S
C1018 C1026 1.378 . S
C1019 C1018 1.367 1_455 S
C1019 C1027 1.433 . S
C1020 H1016 0.929 . S
C1020 C1022 1.378 . S
C1020 C1024 1.350 . S
C1021 C1024 1.463 . S
C1021 C1026 1.350 1_455 S
C1021 N1029 1.427 . S
C1022 H1013 0.930 . S
C1022 C1020 1.378 . S
C1022 C1023 1.367 . S
C1023 C1022 1.367 . S
C1023 C1025 1.451 . S
C1024 C1020 1.350 . S
C1024 C1021 1.463 . S
C1024 N1028 1.427 1_455 S
C1025 H1015 0.914 1_455 S
C1025 C1023 1.451 . S
C1025 N1028 1.382 1_455 S
C1026 H1017 0.929 . S
C1026 C1018 1.378 . S
C1026 C1021 1.350 1_655 S
C1027 H1014 0.929 . S
C1027 C1019 1.433 . S
C1027 N1029 1.384 . S
N1028 C1024 1.427 1_655 S
N1028 C1025 1.382 1_655 S
N1029 C1021 1.427 . S
N1029 C1027 1.384 . S
H1030 C1036 0.930 . S
H1031 C1040 0.930 1_565 S
H1032 C1045 0.929 . S
H1033 C1043 0.929 . S
H1034 C1038 0.929 . S
H1035 C1044 0.929 . S
C1036 H1030 0.930 . S
C1036 C1037 1.367 . S
C1036 C1044 1.378 . S
C1037 C1036 1.367 . S
C1037 C1045 1.433 1_545 S
C1038 H1034 0.929 . S
C1038 C1040 1.378 1_565 S
C1038 C1042 1.350 1_565 S
C1039 C1042 1.463 . S
C1039 C1044 1.350 . S
C1039 N1047 1.427 1_545 S
C1040 H1031 0.930 1_545 S
C1040 C1038 1.378 1_545 S
C1040 C1041 1.367 . S
C1041 C1040 1.367 . S
C1041 C1043 1.433 . S
C1042 C1038 1.350 1_545 S
C1042 C1039 1.463 . S
C1042 N1046 1.427 . S
C1043 H1033 0.929 . S
C1043 C1041 1.433 . S
C1043 N1046 1.384 . S
C1044 H1035 0.929 . S
C1044 C1036 1.378 . S
C1044 C1039 1.350 . S
C1045 H1032 0.929 . S
C1045 C1037 1.433 1_565 S
C1045 N1047 1.384 . S
N1046 C1042 1.427 . S
N1046 C1043 1.384 . S
N1047 C1039 1.427 1_565 S
N1047 C1045 1.384 . S
H1048 C1054 0.930 . S
H1049 C1058 0.930 . S
H1050 C1063 0.929 . S
H1051 C1061 0.929 . S
H1052 C1056 0.929 . S
H1053 C1062 0.929 . S
C1054 H1048 0.930 . S
C1054 C1055 1.367 . S
C1054 C1062 1.378 . S
C1055 C1054 1.367 . S
C1055 C1063 1.433 . S
C1056 H1052 0.929 . S
C1056 C1058 1.378 . S
C1056 C1060 1.350 . S
C1057 C1060 1.463 . S
C1057 C1062 1.350 . S
C1057 N1065 1.427 . S
C1058 H1049 0.930 . S
C1058 C1056 1.378 . S
C1058 C1059 1.367 . S
C1059 C1058 1.367 . S
C1059 C1061 1.433 . S
C1060 C1056 1.350 . S
C1060 C1057 1.463 . S
C1060 N1064 1.427 . S
C1061 H1051 0.929 . S
C1061 C1059 1.433 . S
C1061 N1064 1.384 . S
C1062 H1053 0.929 . S
C1062 C1054 1.378 . S
C1062 C1057 1.350 . S
C1063 H1050 0.929 . S
C1063 C1055 1.433 . S
C1063 N1065 1.384 . S
N1064 C1060 1.427 . S
N1064 C1061 1.384 . S
N1065 C1057 1.427 . S
N1065 C1063 1.384 . S
H1066 C1072 0.930 . S
H1067 C1076 0.930 . S
H1068 C1081 0.929 . S
H1069 C1079 0.929 . S
H1070 C1074 0.929 . S
H1071 C1080 0.929 . S
C1072 H1066 0.930 . S
C1072 C1073 1.367 . S
C1072 C1080 1.378 . S
C1073 C1072 1.367 . S
C1073 C1081 1.433 . S
C1074 H1070 0.929 . S
C1074 C1076 1.378 . S
C1074 C1078 1.350 . S
C1075 C1078 1.463 . S
C1075 C1080 1.350 . S
C1075 N1083 1.427 . S
C1076 H1067 0.930 . S
C1076 C1074 1.378 . S
C1076 C1077 1.367 . S
C1077 C1076 1.367 . S
C1077 C1079 1.433 . S
C1078 C1074 1.350 . S
C1078 C1075 1.463 . S
C1078 N1082 1.427 . S
C1079 H1069 0.929 . S
C1079 C1077 1.433 . S
C1079 N1082 1.384 . S
C1080 H1071 0.929 . S
C1080 C1072 1.378 . S
C1080 C1075 1.350 . S
C1081 H1068 0.929 . S
C1081 C1073 1.433 . S
C1081 N1083 1.384 . S
N1082 C1078 1.427 . S
N1082 C1079 1.384 . S
N1083 C1075 1.427 . S
N1083 C1081 1.384 . S
H1084 C1090 0.930 . S
H1085 C1094 0.930 . S
H1086 C1099 0.929 . S
H1087 C1097 0.929 . S
H1088 C1092 0.929 . S
H1089 C1098 0.929 . S
C1090 H1084 0.930 . S
C1090 C1091 1.367 . S
C1090 C1098 1.378 . S
C1091 C1090 1.367 . S
C1091 C1099 1.433 . S
C1092 H1088 0.929 . S
C1092 C1094 1.378 . S
C1092 C1096 1.350 . S
C1093 C1096 1.463 . S
C1093 C1098 1.350 . S
C1093 N1101 1.427 . S
C1094 H1085 0.930 . S
C1094 C1092 1.378 . S
C1094 C1095 1.367 . S
C1095 C1094 1.367 . S
C1095 C1097 1.433 . S
C1096 C1092 1.350 . S
C1096 C1093 1.463 . S
C1096 N1100 1.427 . S
C1097 H1087 0.929 . S
C1097 C1095 1.433 . S
C1097 N1100 1.384 . S
C1098 H1089 0.929 . S
C1098 C1090 1.378 . S
C1098 C1093 1.350 . S
C1099 H1086 0.929 . S
C1099 C1091 1.433 . S
C1099 N1101 1.384 . S
N1100 C1096 1.427 . S
N1100 C1097 1.384 . S
N1101 C1093 1.427 . S
N1101 C1099 1.384 . S
H1102 C1108 0.930 . S
H1103 C1112 0.930 . S
H1104 C1117 0.929 . S
H1105 C1115 0.929 . S
H1106 C1110 0.929 . S
H1107 C1116 0.929 . S
C1108 H1102 0.930 . S
C1108 C1109 1.367 1_565 S
C1108 C1116 1.378 . S
C1109 C1108 1.367 1_545 S
C1109 C1117 1.433 . S
C1110 H1106 0.929 . S
C1110 C1112 1.378 . S
C1110 C1114 1.350 . S
C1111 C1114 1.463 . S
C1111 C1116 1.350 1_545 S
C1111 N1119 1.427 . S
C1112 H1103 0.930 . S
C1112 C1110 1.378 . S
C1112 C1113 1.367 . S
C1113 C1112 1.367 . S
C1113 C1115 1.433 1_545 S
C1114 C1110 1.350 . S
C1114 C1111 1.463 . S
C1114 N1118 1.427 1_545 S
C1115 H1105 0.929 . S
C1115 C1113 1.433 1_565 S
C1115 N1118 1.384 . S
C1116 H1107 0.929 . S
C1116 C1108 1.378 . S
C1116 C1111 1.350 1_565 S
C1117 H1104 0.929 . S
C1117 C1109 1.433 . S
C1117 N1119 1.384 . S
N1118 C1114 1.427 1_565 S
N1118 C1115 1.384 . S
N1119 C1111 1.427 . S
N1119 C1117 1.384 . S
H1120 C1126 0.930 1_545 S
H1121 C1130 0.930 . S
H1122 C1135 0.929 . S
H1123 C1133 0.929 . S
H1124 C1128 0.929 . S
H1125 C1134 0.929 . S
C1126 H1120 0.930 1_565 S
C1126 C1127 1.367 . S
C1126 C1134 1.378 1_565 S
C1127 C1126 1.367 . S
C1127 C1135 1.433 . S
C1128 H1124 0.929 . S
C1128 C1130 1.378 . S
C1128 C1132 1.350 . S
C1129 C1132 1.463 1_556 S
C1129 C1134 1.350 1_565 S
C1129 N1137 1.427 . S
C1130 H1121 0.930 . S
C1130 C1128 1.378 . S
C1130 C1131 1.367 1_565 S
C1131 C1130 1.367 1_545 S
C1131 C1133 1.433 . S
C1132 C1128 1.350 . S
C1132 C1129 1.463 1_554 S
C1132 N1136 1.427 1_565 S
C1133 H1123 0.929 . S
C1133 C1131 1.433 . S
C1133 N1136 1.384 . S
C1134 H1125 0.929 . S
C1134 C1126 1.378 1_545 S
C1134 C1129 1.350 1_545 S
C1135 H1122 0.929 . S
C1135 C1127 1.433 . S
C1135 N1137 1.384 . S
N1136 C1132 1.427 1_545 S
N1136 C1133 1.384 . S
N1137 C1129 1.427 . S
N1137 C1135 1.384 . S
H1138 C1144 0.930 . S
H1139 C1148 0.930 . S
H1140 C1153 0.929 . S
H1141 C1151 0.929 . S
H1142 C1146 0.929 . S
H1143 C1152 0.929 . S
C1144 H1138 0.930 . S
C1144 C1145 1.367 . S
C1144 C1152 1.378 . S
C1145 C1144 1.367 . S
C1145 C1153 1.433 . S
C1146 H1142 0.929 . S
C1146 C1148 1.378 . S
C1146 C1150 1.350 . S
C1147 C1150 1.463 . S
C1147 C1152 1.350 . S
C1147 N1155 1.427 . S
C1148 H1139 0.930 . S
C1148 C1146 1.378 . S
C1148 C1149 1.367 . S
C1149 C1148 1.367 . S
C1149 C1151 1.433 . S
C1150 C1146 1.350 . S
C1150 C1147 1.463 . S
C1150 N1154 1.427 . S
C1151 H1141 0.929 . S
C1151 C1149 1.433 . S
C1151 N1154 1.384 . S
C1152 H1143 0.929 . S
C1152 C1144 1.378 . S
C1152 C1147 1.350 . S
C1153 H1140 0.929 . S
C1153 C1145 1.433 . S
C1153 N1155 1.384 . S
N1154 C1150 1.427 . S
N1154 C1151 1.384 . S
N1155 C1147 1.427 . S
N1155 C1153 1.384 . S
H1156 C1162 0.930 . S
H1157 C1166 0.930 . S
H1158 C1171 0.929 . S
H1159 C1169 0.929 . S
H1160 C1164 0.929 . S
H1161 C1170 0.929 . S
C1162 H1156 0.930 . S
C1162 C1163 1.367 1_655 S
C1162 C1170 1.378 . S
C1163 C1162 1.367 1_455 S
C1163 C1171 1.433 . S
C1164 H1160 0.929 . S
C1164 C1166 1.378 . S
C1164 C1168 1.350 . S
C1165 C1168 1.463 1_554 S
C1165 C1170 1.350 1_455 S
C1165 N1173 1.427 . S
C1166 H1157 0.930 . S
C1166 C1164 1.378 . S
C1166 C1167 1.367 . S
C1167 C1166 1.367 . S
C1167 C1169 1.433 1_455 S
C1168 C1164 1.350 . S
C1168 C1165 1.463 1_556 S
C1168 N1172 1.427 1_455 S
C1169 H1159 0.929 . S
C1169 C1167 1.433 1_655 S
C1169 N1172 1.384 . S
C1170 H1161 0.929 . S
C1170 C1162 1.378 . S
C1170 C1165 1.350 1_655 S
C1171 H1158 0.929 . S
C1171 C1163 1.433 . S
C1171 N1173 1.384 . S
N1172 C1168 1.427 1_655 S
N1172 C1169 1.384 . S
N1173 C1165 1.427 . S
N1173 C1171 1.384 . S
H1174 C1180 0.930 . S
H1175 C1184 0.930 . S
H1176 C1189 0.929 . S
H1177 C1187 0.929 . S
H1178 C1182 0.929 . S
H1179 C1188 0.929 . S
C1180 H1174 0.930 . S
C1180 C1181 1.367 . S
C1180 C1188 1.378 . S
C1181 C1180 1.367 . S
C1181 C1189 1.433 1_545 S
C1182 H1178 0.929 . S
C1182 C1184 1.378 . S
C1182 C1186 1.350 1_465 S
C1183 C1186 1.463 . S
C1183 C1188 1.350 . S
C1183 N1191 1.427 1_545 S
C1184 H1175 0.930 . S
C1184 C1182 1.378 . S
C1184 C1185 1.367 1_565 S
C1185 C1184 1.367 1_545 S
C1185 C1187 1.433 1_455 S
C1186 C1182 1.350 1_645 S
C1186 C1183 1.463 . S
C1186 N1190 1.427 . S
C1187 H1177 0.929 . S
C1187 C1185 1.433 1_655 S
C1187 N1190 1.384 . S
C1188 H1179 0.929 . S
C1188 C1180 1.378 . S
C1188 C1183 1.350 . S
C1189 H1176 0.929 . S
C1189 C1181 1.433 1_565 S
C1189 N1191 1.384 . S
N1190 C1186 1.427 . S
N1190 C1187 1.384 . S
N1191 C1183 1.427 1_565 S
N1191 C1189 1.384 . S
H1192 C1198 0.930 . S
H1193 C1202 0.930 . S
H1194 C1207 0.929 . S
H1195 C1205 0.929 . S
H1196 C1200 0.929 . S
H1197 C1206 0.907 1_554 S
C1198 H1192 0.930 . S
C1198 C1199 1.367 . S
C1198 C1206 1.378 . S
C1199 C1198 1.367 . S
C1199 C1207 1.433 . S
C1200 H1196 0.929 . S
C1200 C1202 1.378 . S
C1200 C1204 1.350 . S
C1201 C1204 1.463 1_556 S
C1201 C1206 1.350 . S
C1201 N1209 1.427 . S
C1202 H1193 0.930 . S
C1202 C1200 1.378 . S
C1202 C1203 1.367 . S
C1203 C1202 1.367 . S
C1203 C1205 1.433 . S
C1204 C1200 1.350 . S
C1204 C1201 1.463 1_554 S
C1204 N1208 1.427 . S
C1205 H1195 0.929 . S
C1205 C1203 1.433 . S
C1205 N1208 1.384 . S
C1206 H1197 0.907 1_556 S
C1206 C1198 1.378 . S
C1206 C1201 1.350 . S
C1207 H1194 0.929 . S
C1207 C1199 1.433 . S
C1207 N1209 1.384 . S
N1208 C1204 1.427 . S
N1208 C1205 1.384 . S
N1209 C1201 1.427 . S
N1209 C1207 1.384 . S
H1210 C1216 0.930 . S
H1211 C1220 0.930 . S
H1212 C1225 0.929 . S
H1213 C1223 0.929 . S
H1214 C1218 0.929 . S
H1215 C1224 0.929 . S
C1216 H1210 0.930 . S
C1216 C1217 1.367 . S
C1216 C1224 1.378 . S
C1217 C1216 1.367 . S
C1217 C1225 1.433 1_455 S
C1218 H1214 0.929 . S
C1218 C1220 1.378 . S
C1218 C1222 1.350 . S
C1219 C1222 1.463 . S
C1219 C1224 1.350 1_655 S
C1219 N1227 1.427 . S
C1220 H1211 0.930 . S
C1220 C1218 1.378 . S
C1220 C1221 1.367 . S
C1221 C1220 1.367 . S
C1221 C1223 1.433 . S
C1222 C1218 1.350 . S
C1222 C1219 1.463 . S
C1222 N1226 1.427 . S
C1223 H1213 0.929 . S
C1223 C1221 1.433 . S
C1223 N1226 1.384 . S
C1224 H1215 0.929 . S
C1224 C1216 1.378 . S
C1224 C1219 1.350 1_455 S
C1225 H1212 0.929 . S
C1225 C1217 1.433 1_655 S
C1225 N1227 1.384 . S
N1226 C1222 1.427 . S
N1226 C1223 1.384 . S
N1227 C1219 1.427 . S
N1227 C1225 1.384 . S
H1228 C1234 0.930 1_655 S
H1229 C1238 0.930 . S
H1230 C1243 0.929 1_545 S
H1231 C1241 0.929 . S
H1232 C1236 0.929 . S
H1233 C1242 0.929 1_655 S
C1234 H1228 0.930 1_455 S
C1234 C1235 1.367 . S
C1234 C1242 1.378 . S
C1235 C1234 1.367 . S
C1235 C1243 1.433 . S
C1236 H1232 0.929 . S
C1236 C1238 1.378 . S
C1236 C1240 1.350 1_545 S
C1237 C1240 1.463 1_554 S
C1237 C1242 1.350 . S
C1237 N1245 1.427 1_565 S
C1238 H1229 0.930 . S
C1238 C1236 1.378 . S
C1238 C1239 1.367 . S
C1239 C1238 1.367 . S
C1239 C1241 1.433 1_445 S
C1240 C1236 1.350 1_565 S
C1240 C1237 1.463 1_556 S
C1240 N1244 1.427 1_455 S
C1241 H1231 0.929 . S
C1241 C1239 1.433 1_665 S
C1241 N1244 1.384 . S
C1242 H1233 0.929 1_455 S
C1242 C1234 1.378 . S
C1242 C1237 1.350 . S
C1243 H1230 0.929 1_565 S
C1243 C1235 1.433 . S
C1243 N1245 1.384 1_565 S
N1244 C1240 1.427 1_655 S
N1244 C1241 1.384 . S
N1245 C1237 1.427 1_545 S
N1245 C1243 1.384 1_545 S
H1246 C1252 0.930 . S
H1247 C1256 0.930 . S
H1248 C1261 0.929 . S
H1249 C1259 0.929 . S
H1250 C1254 0.929 . S
H1251 C1260 0.929 . S
C1252 H1246 0.930 . S
C1252 C1253 1.367 . S
C1252 C1260 1.378 . S
C1253 C1252 1.367 . S
C1253 C1261 1.433 1_545 S
C1254 H1250 0.929 . S
C1254 C1256 1.378 . S
C1254 C1258 1.350 1_565 S
C1255 C1258 1.463 . S
C1255 C1260 1.350 . S
C1255 N1263 1.427 1_545 S
C1256 H1247 0.930 . S
C1256 C1254 1.378 . S
C1256 C1257 1.367 1_565 S
C1257 C1256 1.367 1_545 S
C1257 C1259 1.433 . S
C1258 C1254 1.350 1_545 S
C1258 C1255 1.463 . S
C1258 N1262 1.427 . S
C1259 H1249 0.929 . S
C1259 C1257 1.433 . S
C1259 N1262 1.384 . S
C1260 H1251 0.929 . S
C1260 C1252 1.378 . S
C1260 C1255 1.350 . S
C1261 H1248 0.929 . S
C1261 C1253 1.433 1_565 S
C1261 N1263 1.384 . S
N1262 C1258 1.427 . S
N1262 C1259 1.384 . S
N1263 C1255 1.427 1_565 S
N1263 C1261 1.384 . S
C551 C5 1.877 . S
C555 C243 1.880 . S
C569 C141 1.881 . S
C573 C39 1.878 . S
C587 C73 1.875 . S
C591 C175 1.875 . S
C605 C107 1.884 . S
C609 C209 1.884 . S
C623 C281 1.343 . S
C627 C519 1.335 . S
C641 C315 1.349 . S
C645 C417 1.334 . S
C659 C349 1.349 . S
C663 C451 1.334 . S
C677 C485 1.342 . S
C681 C383 1.346 . S
C695 C33 1.907 . S
C699 C101 1.910 . S
C713 C135 1.911 . S
C717 C67 1.910 . S
C731 C237 1.910 . S
C735 C169 1.908 . S
C749 C203 1.912 . S
C753 C271 1.911 . S
C767 C373 1.344 . S
C771 C305 1.347 . S
C785 C407 1.353 . S
C789 C339 1.350 . S
C803 C509 1.353 . S
C807 C441 1.350 . S
C821 C543 1.337 . S
C825 C475 1.340 . S
C839 C410 0.560 . S
C843 C20 0.545 . S
C857 C444 0.569 . S
C861 C54 0.541 . S
C875 C88 0.545 . S
C879 C478 0.583 . S
C893 C512 0.565 . S
C897 C122 0.541 . S
C911 C156 0.541 . S
C915 C274 0.561 . S
C929 C308 0.577 . S
C933 C190 0.540 . S
C947 C224 0.544 . S
C951 C342 0.581 . S
C965 C258 0.545 . S
C969 C376 0.556 . S
C983 C138 0.601 . S
C987 C292 0.574 . S
C1001 C172 0.603 . S
C1005 C326 0.576 . S
C1019 C206 0.582 . S
C1023 C360 0.578 . S
C1037 C240 0.606 . S
C1041 C394 0.574 . S
C1055 C2 0.604 . S
C1059 C428 0.573 . S
C1073 C36 0.581 . S
C1077 C462 0.577 . S
C1091 C70 0.594 . S
C1095 C496 0.577 . S
C1109 C530 0.573 . S
C1113 C104 0.609 . S
C1127 C277 1.646 . S
C1131 C9 1.600 . S
C1145 C43 1.598 . S
C1149 C311 1.656 . S
C1163 C77 1.599 1_455 S
C1167 C345 1.656 . S
C1181 C379 1.656 . S
C1185 C111 1.598 1_545 S
C1199 C145 1.600 . S
C1203 C413 1.656 . S
C1217 C179 1.611 . S
C1221 C447 1.649 . S
C1235 C481 1.652 . S
C1239 C213 1.610 1_455 S
C1253 C247 1.611 1_545 S
C1257 C515 1.647 . S
