# Generated by pormake.
# Topology fni, (5)-cn, num edge types: 1
# Building blocks:
#     Node 0, Type 0, BuildingBlock: BEQFEK_clean_sbu_0, # of connection points: 5
#     Node 1, Type 0, BuildingBlock: BEQFEK_clean_sbu_0, # of connection points: 5
#     Node 2, Type 0, BuildingBlock: BEQFEK_clean_sbu_0, # of connection points: 5
#     Node 3, Type 0, BuildingBlock: BEQFEK_clean_sbu_0, # of connection points: 5
#     Node 4, Type 0, BuildingBlock: BEQFEK_clean_sbu_0, # of connection points: 5
#     Node 5, Type 0, BuildingBlock: BEQFEK_clean_sbu_0, # of connection points: 5
#     Node 6, Type 0, BuildingBlock: BEQFEK_clean_sbu_0, # of connection points: 5
#     Node 7, Type 0, BuildingBlock: BEQFEK_clean_sbu_0, # of connection points: 5
#     Edge 8, Type (0, 0), BuildingBlock: XUDNAN_clean_linker_2, # of connection points: 2
#     Edge 9, Type (0, 0), BuildingBlock: XUDNAN_clean_linker_2, # of connection points: 2
#     Edge 10, Type (0, 0), BuildingBlock: XUDNAN_clean_linker_2, # of connection points: 2
#     Edge 11, Type (0, 0), BuildingBlock: XUDNAN_clean_linker_2, # of connection points: 2
#     Edge 12, Type (0, 0), BuildingBlock: XUDNAN_clean_linker_2, # of connection points: 2
#     Edge 13, Type (0, 0), BuildingBlock: XUDNAN_clean_linker_2, # of connection points: 2
#     Edge 14, Type (0, 0), BuildingBlock: XUDNAN_clean_linker_2, # of connection points: 2
#     Edge 15, Type (0, 0), BuildingBlock: XUDNAN_clean_linker_2, # of connection points: 2
#     Edge 16, Type (0, 0), BuildingBlock: XUDNAN_clean_linker_2, # of connection points: 2
#     Edge 17, Type (0, 0), BuildingBlock: XUDNAN_clean_linker_2, # of connection points: 2
#     Edge 18, Type (0, 0), BuildingBlock: XUDNAN_clean_linker_2, # of connection points: 2
#     Edge 19, Type (0, 0), BuildingBlock: XUDNAN_clean_linker_2, # of connection points: 2
#     Edge 20, Type (0, 0), BuildingBlock: XUDNAN_clean_linker_2, # of connection points: 2
#     Edge 21, Type (0, 0), BuildingBlock: XUDNAN_clean_linker_2, # of connection points: 2
#     Edge 22, Type (0, 0), BuildingBlock: XUDNAN_clean_linker_2, # of connection points: 2
#     Edge 23, Type (0, 0), BuildingBlock: XUDNAN_clean_linker_2, # of connection points: 2
#     Edge 24, Type (0, 0), BuildingBlock: XUDNAN_clean_linker_2, # of connection points: 2
#     Edge 25, Type (0, 0), BuildingBlock: XUDNAN_clean_linker_2, # of connection points: 2
#     Edge 26, Type (0, 0), BuildingBlock: XUDNAN_clean_linker_2, # of connection points: 2
#     Edge 27, Type (0, 0), BuildingBlock: XUDNAN_clean_linker_2, # of connection points: 2
# Relax obj value: 0.157
# Max RMSD: 0.214
# Mean RMSD: 0.183
data_MOF--net-fni--node1-BEQFEK_clean_sbu_0--edge1-XUDNAN_clean_linker_2
_symmetry_space_group_name_H-M    P1
_symmetry_Int_Tables_number       1
_symmetry_cell_setting            triclinic
loop_
_symmetry_equiv_pos_as_xyz
'x, y, z'
_cell_length_a     50.966122
_cell_length_b     53.956457
_cell_length_c     18.992455
_cell_angle_alpha  91.210476
_cell_angle_beta   90.458863
_cell_angle_gamma 89.972378
loop_
_atom_site_label
_atom_site_type_symbol
_atom_site_fract_x
_atom_site_fract_y
_atom_site_fract_z
_atom_type_partial_charge
Co0 Co 0.3749 0.39402 0.09265 0.0
Co1 Co 0.39483 0.38941 0.93767 0.0
C2 C 0.33851 0.402 0.97187 0.0
O3 O 0.34187 0.40131 0.03845 0.0
O4 O 0.35724 0.39767 0.92947 0.0
C5 C 0.36083 0.41217 0.2398 0.0
O6 O 0.35432 0.43457 0.22032 0.0
C7 C 0.39994 0.39926 0.78728 0.0
C8 C 0.43137 0.37307 0.75721 0.0
C9 C 0.41306 0.38928 0.72969 0.0
N10 N 0.40987 0.38926 0.846 0.0
N11 N 0.42915 0.37412 0.82775 0.0
C12 C 0.3759 0.41511 0.78603 0.0
H13 H 0.37531 0.42704 0.83428 0.0
H14 H 0.37539 0.42696 0.73912 0.0
H15 H 0.35832 0.40298 0.78444 0.0
C16 C 0.41971 0.43049 0.09975 0.0
N17 N 0.40389 0.41424 0.06489 0.0
N18 N 0.41151 0.41259 -0.00119 0.0
C19 C 0.43168 0.42822 0.98904 0.0
C20 C 0.43754 0.44006 0.05259 0.0
C21 C 0.41814 0.43649 0.17681 0.0
H22 H 0.40122 0.449 0.18622 0.0
H23 H 0.43614 0.446 0.19648 0.0
H24 H 0.41513 0.41927 0.20652 0.0
O25 O 0.38405 0.35857 0.08071 0.0
O26 O 0.3991 0.35512 0.97212 0.0
H27 H 0.46143 0.44507 0.92448 0.0
H28 H 0.43163 0.4356 0.87889 0.0
C29 C 0.44586 0.43073 0.92088 0.0
H30 H 0.45489 0.41267 0.90604 0.0
H31 H 0.43948 0.36313 0.86305 0.0
O32 O 0.36882 0.39619 0.19487 0.0
C33 C 0.39372 0.34553 0.03089 0.0
Co34 Co 0.6137 0.8834 0.3537 0.0
Co35 Co 0.63471 0.89743 0.20475 0.0
C36 C 0.61336 0.84607 0.23783 0.0
O37 O 0.60845 0.85113 0.30232 0.0
O38 O 0.62331 0.86209 0.19742 0.0
C39 C 0.61251 0.87207 0.4993 0.0
O40 O 0.63149 0.85672 0.4817 0.0
C41 C 0.63198 0.89983 0.05107 0.0
C42 C 0.65701 0.93204 0.02841 0.0
C43 C 0.64108 0.91415 0.997 0.0
N44 N 0.64213 0.90864 0.11211 0.0
N45 N 0.65732 0.92777 0.09815 0.0
C46 C 0.61205 0.87958 0.04554 0.0
H47 H 0.59835 0.88103 0.09056 0.0
H48 H 0.60074 0.88037 0.99546 0.0
H49 H 0.62233 0.86148 0.04751 0.0
C50 C 0.57642 0.92359 0.32161 0.0
N51 N 0.5975 0.90966 0.30516 0.0
N52 N 0.6067 0.91648 0.244 0.0
C53 C 0.59169 0.93516 0.21971 0.0
C54 C 0.57201 0.94025 0.26819 0.0
C55 C 0.56115 0.92108 0.38804 0.0
H56 H 0.57409 0.92595 0.43341 0.0
H57 H 0.55488 0.90153 0.39352 0.0
H58 H 0.54378 0.93344 0.38965 0.0
O59 O 0.65132 0.89034 0.36656 0.0
O60 O 0.66754 0.90042 0.26311 0.0
H61 H 0.61472 0.95436 0.1448 0.0
H62 H 0.58004 0.96118 0.13968 0.0
C63 C 0.59475 0.94643 0.14894 0.0
H64 H 0.59244 0.93182 0.10746 0.0
H65 H 0.66732 0.93831 0.13642 0.0
O66 O 0.60033 0.88349 0.45117 0.0
C67 C 0.67047 0.89687 0.32881 0.0
Co68 Co 0.11895 0.11464 0.44371 0.0
Co69 Co 0.13971 0.10962 0.5984 0.0
C70 C 0.11793 0.15784 0.5424 0.0
O71 O 0.11274 0.14834 0.48201 0.0
O72 O 0.12848 0.145 0.59046 0.0
C73 C 0.09592 0.12925 0.3114 0.0
O74 O 0.08923 0.14959 0.34602 0.0
C75 C 0.12736 0.11347 0.74575 0.0
C76 C 0.16086 0.09589 0.79957 0.0
C77 C 0.13729 0.1081 0.81193 0.0
N78 N 0.14431 0.10516 0.69694 0.0
N79 N 0.16433 0.09461 0.72923 0.0
C80 C 0.10136 0.12478 0.72795 0.0
H81 H 0.09476 0.11849 0.67472 0.0
H82 H 0.08638 0.11981 0.76731 0.0
H83 H 0.10337 0.14524 0.72766 0.0
C84 C 0.08544 0.07303 0.48492 0.0
N85 N 0.1034 0.09065 0.49996 0.0
N86 N 0.11306 0.08732 0.56353 0.0
C87 C 0.10184 0.06697 0.5904 0.0
C88 C 0.08381 0.05743 0.54173 0.0
C89 C 0.07215 0.06991 0.41479 0.0
H90 H 0.06395 0.08796 0.39838 0.0
H91 H 0.05627 0.05586 0.4161 0.0
H92 H 0.08687 0.06403 0.37507 0.0
O93 O 0.15679 0.10793 0.43872 0.0
O94 O 0.17354 0.10428 0.54638 0.0
H95 H 0.1014 0.03712 0.66484 0.0
H96 H 0.10062 0.06799 0.70268 0.0
C97 C 0.10906 0.05625 0.65993 0.0
H98 H 0.13071 0.05621 0.66651 0.0
H99 H 0.18037 0.08669 0.7034 0.0
O100 O 0.10705 0.11184 0.3443 0.0
C101 C 0.17619 0.10414 0.47961 0.0
Co102 Co 0.87914 0.60687 0.70118 0.0
Co103 Co 0.89709 0.62798 0.84985 0.0
C104 C 0.84126 0.60995 0.81714 0.0
O105 O 0.8453 0.60368 0.75301 0.0
O106 O 0.85937 0.61931 0.85584 0.0
C107 C 0.87315 0.58296 0.54412 0.0
O108 O 0.86676 0.55941 0.54585 0.0
C109 C 0.90285 0.62253 0.00305 0.0
C110 C 0.92351 0.65698 0.03433 0.0
C111 C 0.9118 0.63609 0.0618 0.0
N112 N 0.90877 0.63501 0.94457 0.0
N113 N 0.92146 0.65543 0.96368 0.0
C114 C 0.88764 0.59881 0.00171 0.0
H115 H 0.88112 0.59389 0.94751 0.0
H116 H 0.90039 0.58351 0.01963 0.0
H117 H 0.87057 0.60034 0.03747 0.0
C118 C 0.92293 0.57188 0.73058 0.0
N119 N 0.90733 0.59107 0.7491 0.0
N120 N 0.91568 0.60066 0.8096 0.0
C121 C 0.93706 0.58808 0.83099 0.0
C122 C 0.94228 0.56931 0.78186 0.0
C123 C 0.92044 0.5577 0.66235 0.0
H124 H 0.90042 0.54972 0.65792 0.0
H125 H 0.93519 0.54266 0.65762 0.0
H126 H 0.92304 0.57059 0.61822 0.0
O127 O 0.88808 0.64208 0.68987 0.0
O128 O 0.90163 0.65824 0.7921 0.0
H129 H 0.95546 0.61408 0.90252 0.0
H130 H 0.97079 0.58376 0.90042 0.0
C131 C 0.95188 0.59383 0.89773 0.0
H132 H 0.93988 0.58827 0.94308 0.0
H133 H 0.92779 0.66878 0.92867 0.0
O134 O 0.87637 0.59529 0.60135 0.0
C135 C 0.89683 0.6603 0.72654 0.0
Co136 Co 0.40297 0.13691 0.29528 0.0
Co137 Co 0.38691 0.11873 0.14404 0.0
C138 C 0.40124 0.17231 0.17886 0.0
O139 O 0.40593 0.16885 0.24395 0.0
O140 O 0.39379 0.15461 0.13822 0.0
C141 C 0.39948 0.14971 0.43919 0.0
O142 O 0.37681 0.15861 0.41803 0.0
C143 C 0.39828 0.11235 0.99537 0.0
C144 C 0.3619 0.09525 0.95327 0.0
C145 C 0.38584 0.10495 0.93336 0.0
N146 N 0.38249 0.10724 0.04944 0.0
N147 N 0.36092 0.09667 0.0241 0.0
C148 C 0.42343 0.12654 0.00276 0.0
H149 H 0.42709 0.13234 0.0583 0.0
H150 H 0.43999 0.11469 0.98517 0.0
H151 H 0.42283 0.14299 0.96865 0.0
C152 C 0.44138 0.09555 0.27611 0.0
N153 N 0.4226 0.11076 0.2512 0.0
N154 N 0.41516 0.10262 0.18838 0.0
C155 C 0.42857 0.08184 0.17173 0.0
C156 C 0.44577 0.07671 0.22654 0.0
C157 C 0.45242 0.09734 0.34925 0.0
H158 H 0.45981 0.11641 0.35973 0.0
H159 H 0.46854 0.08383 0.35723 0.0
H160 H 0.43658 0.09374 0.38748 0.0
O161 O 0.36544 0.12663 0.30292 0.0
O162 O 0.35428 0.11261 0.19628 0.0
H163 H 0.40228 0.06327 0.09952 0.0
H164 H 0.43394 0.04824 0.10838 0.0
C165 C 0.42367 0.06634 0.10663 0.0
H166 H 0.43087 0.07639 0.06036 0.0
H167 H 0.34496 0.09165 0.0548 0.0
O168 O 0.4153 0.14101 0.39364 0.0
C169 C 0.34866 0.11699 0.26057 0.0
Co170 Co 0.89567 0.88142 0.60461 0.0
Co171 Co 0.90407 0.87024 0.44561 0.0
C172 C 0.85186 0.88749 0.50267 0.0
O173 O 0.86057 0.88924 0.56554 0.0
O174 O 0.8666 0.88022 0.45264 0.0
C175 C 0.87984 0.90438 0.73597 0.0
O176 O 0.8606 0.9142 0.69956 0.0
C177 C 0.90157 0.88468 0.30118 0.0
C178 C 0.9226 0.85472 0.24417 0.0
C179 C 0.90837 0.87634 0.23429 0.0
N180 N 0.91098 0.86862 0.34804 0.0
N181 N 0.92365 0.85077 0.31394 0.0
C182 C 0.8876 0.90814 0.32163 0.0
H183 H 0.8935 0.91426 0.37561 0.0
H184 H 0.89194 0.92302 0.28399 0.0
H185 H 0.86614 0.90473 0.32149 0.0
C186 C 0.94016 0.91566 0.58124 0.0
N187 N 0.92244 0.8988 0.55808 0.0
N188 N 0.92668 0.89359 0.49121 0.0
C189 C 0.94765 0.90663 0.46991 0.0
C190 C 0.95675 0.92117 0.52618 0.0
C191 C 0.942 0.92513 0.65574 0.0
H192 H 0.94472 0.90927 0.69134 0.0
H193 H 0.92333 0.93445 0.67013 0.0
H194 H 0.95852 0.9383 0.66356 0.0
O195 O 0.90178 0.84497 0.59911 0.0
O196 O 0.90861 0.83689 0.4857 0.0
H197 H 0.96114 0.88554 0.38054 0.0
H198 H 0.97768 0.91503 0.3937 0.0
C199 C 0.95862 0.90522 0.39708 0.0
H200 H 0.94459 0.91387 0.36008 0.0
H201 H 0.93255 0.83571 0.33811 0.0
O202 O 0.89644 0.89045 0.70516 0.0
C203 C 0.90676 0.82968 0.54893 0.0
Co204 Co 0.1086 0.36991 0.81291 0.0
Co205 Co 0.12067 0.38551 0.65922 0.0
C206 C 0.10746 0.33231 0.69874 0.0
O207 O 0.10409 0.33675 0.76424 0.0
O208 O 0.11373 0.34953 0.65743 0.0
C209 C 0.08871 0.35157 0.94731 0.0
O210 O 0.08059 0.33148 0.91346 0.0
C211 C 0.10345 0.3868 0.51408 0.0
C212 C 0.13762 0.40222 0.45945 0.0
C213 C 0.11325 0.39137 0.44765 0.0
N214 N 0.12137 0.39405 0.5625 0.0
N215 N 0.14164 0.40358 0.52967 0.0
C216 C 0.07704 0.37665 0.53201 0.0
H217 H 0.07163 0.38203 0.58664 0.0
H218 H 0.06197 0.38337 0.49446 0.0
H219 H 0.07736 0.35621 0.52846 0.0
C220 C 0.07023 0.41141 0.79899 0.0
N221 N 0.088 0.39548 0.77138 0.0
N222 N 0.09409 0.40272 0.70786 0.0
C223 C 0.08092 0.42366 0.69349 0.0
C224 C 0.06518 0.42979 0.75052 0.0
C225 C 0.06087 0.41076 0.87337 0.0
H226 H 0.07753 0.415 0.90961 0.0
H227 H 0.05374 0.39186 0.88487 0.0
H228 H 0.04493 0.4244 0.88312 0.0
O229 O 0.14632 0.37969 0.81277 0.0
O230 O 0.15492 0.39259 0.70509 0.0
H231 H 0.10625 0.44014 0.61803 0.0
H232 H 0.07602 0.45713 0.63312 0.0
C233 C 0.08495 0.43844 0.62856 0.0
H234 H 0.07578 0.42857 0.58293 0.0
H235 H 0.15872 0.40986 0.55491 0.0
O236 O 0.10005 0.36856 0.91384 0.0
C237 C 0.16209 0.38875 0.76839 0.0
Co238 Co 0.60887 0.62904 0.97716 0.0
Co239 Co 0.6261 0.62293 0.13239 0.0
C240 C 0.60824 0.67204 0.07986 0.0
O241 O 0.60359 0.66292 0.01854 0.0
O242 O 0.61729 0.65863 0.12875 0.0
C243 C 0.60016 0.64366 0.83632 0.0
O244 O 0.61465 0.66282 0.85546 0.0
C245 C 0.62299 0.62467 0.28512 0.0
C246 C 0.64637 0.59183 0.31423 0.0
C247 C 0.63073 0.61061 0.34154 0.0
N248 N 0.63349 0.6146 0.22663 0.0
N249 N 0.64786 0.59528 0.24439 0.0
C250 C 0.60321 0.6452 0.28528 0.0
H251 H 0.59078 0.64389 0.23713 0.0
H252 H 0.59056 0.64468 0.33251 0.0
H253 H 0.61369 0.66321 0.2854 0.0
C254 C 0.57444 0.58667 0.01274 0.0
N255 N 0.59202 0.60445 0.03042 0.0
N256 N 0.59821 0.6027 0.09739 0.0
C257 C 0.58418 0.58415 0.12517 0.0
C258 C 0.56882 0.57315 0.07234 0.0
C259 C 0.56545 0.58133 0.93872 0.0
H260 H 0.58254 0.58172 0.90296 0.0
H261 H 0.55155 0.596 0.92238 0.0
H262 H 0.55578 0.56299 0.93316 0.0
O263 O 0.6469 0.62171 0.9673 0.0
O264 O 0.65853 0.61616 0.07853 0.0
H265 H 0.60333 0.5676 0.21304 0.0
H266 H 0.56796 0.56571 0.21531 0.0
C267 C 0.58482 0.57756 0.20134 0.0
H268 H 0.58405 0.59466 0.23443 0.0
H269 H 0.65762 0.58375 0.20838 0.0
O270 O 0.59431 0.62772 0.88169 0.0
C271 C 0.6642 0.61654 0.01339 0.0
H272 H 0.51885 0.56571 0.02089 0.0
H273 H 0.58194 0.52961 0.13397 0.0
H274 H 0.55439 0.49231 0.14604 0.0
H275 H 0.46488 0.54025 0.11609 0.0
H276 H 0.44421 0.536 0.03934 0.0
H277 H 0.46844 0.56031 0.04204 0.0
H278 H 0.48881 0.54294 0.92652 0.0
H279 H 0.46453 0.51869 0.92321 0.0
H280 H 0.49892 0.51093 0.9214 0.0
H281 H 0.51987 0.45914 0.147 0.0
H282 H 0.48177 0.4311 0.12847 0.0
H283 H 0.4423 0.48752 0.00806 0.0
C284 C 0.52686 0.54988 0.04783 0.0
C285 C 0.55236 0.55062 0.07744 0.0
C286 C 0.56222 0.52959 0.11234 0.0
C287 C 0.54678 0.5083 0.11915 0.0
C288 C 0.52164 0.50821 0.08986 0.0
C289 C 0.51184 0.52832 0.05414 0.0
C290 C 0.48458 0.52303 0.02518 0.0
C291 C 0.46434 0.54097 0.05762 0.0
C292 C 0.4842 0.52395 0.94428 0.0
C293 C 0.48058 0.49686 0.05037 0.0
C294 C 0.5021 0.48875 0.08819 0.0
C295 C 0.50293 0.46525 0.11736 0.0
C296 C 0.48128 0.44953 0.10689 0.0
C297 C 0.45935 0.45736 0.06724 0.0
C298 C 0.45895 0.48128 0.03879 0.0
H299 H 0.49908 0.07105 0.23532 0.0
H300 H 0.42575 0.03055 0.23908 0.0
H301 H 0.45018 0.99113 0.24978 0.0
H302 H 0.53462 0.02619 0.13144 0.0
H303 H 0.56523 0.03055 0.17824 0.0
H304 H 0.54208 0.0557 0.17317 0.0
H305 H 0.54168 0.05979 0.30934 0.0
H306 H 0.56498 0.03477 0.31483 0.0
H307 H 0.53424 0.03301 0.36073 0.0
H308 H 0.4823 0.95632 0.25785 0.0
H309 H 0.52041 0.92802 0.2653 0.0
H310 H 0.57324 0.99073 0.25538 0.0
C311 C 0.48832 0.05382 0.23895 0.0
C312 C 0.46066 0.05357 0.2363 0.0
C313 C 0.447 0.03088 0.24084 0.0
C314 C 0.46068 0.00849 0.24689 0.0
C315 C 0.48801 0.00921 0.24834 0.0
C316 C 0.50173 0.03125 0.24471 0.0
C317 C 0.5311 0.02672 0.24649 0.0
C318 C 0.54401 0.0353 0.17827 0.0
C319 C 0.54374 0.03932 0.31174 0.0
C320 C 0.53171 0.99873 0.25159 0.0
C321 C 0.50661 0.98904 0.25265 0.0
C322 C 0.50204 0.96367 0.25725 0.0
C323 C 0.52372 0.94778 0.26149 0.0
C324 C 0.54954 0.95732 0.26108 0.0
C325 C 0.5536 0.98307 0.25555 0.0
H326 H 0.95672 0.97124 0.54805 0.0
H327 H 0.00801 0.90851 0.50908 0.0
H328 H 0.04665 0.93644 0.51408 0.0
H329 H 0.99173 0.01397 0.44136 0.0
H330 H 0.98611 0.04027 0.4994 0.0
H331 H 0.96286 0.01515 0.49558 0.0
H332 H 0.96762 0.00997 0.63047 0.0
H333 H 0.99099 0.03502 0.63464 0.0
H334 H 0.99971 0.00512 0.66836 0.0
H335 H 0.07952 0.97131 0.52384 0.0
H336 H 0.10405 0.01102 0.5295 0.0
H337 H 0.03115 0.05116 0.55717 0.0
C338 C 0.97615 0.9635 0.54081 0.0
C339 C 0.97965 0.93788 0.52828 0.0
C340 C 0.00516 0.92819 0.51855 0.0
C341 C 0.02712 0.94387 0.52159 0.0
C342 C 0.02309 0.96915 0.53406 0.0
C343 C 0.99822 0.97894 0.54296 0.0
C344 C 0.99917 0.00685 0.55306 0.0
C345 C 0.98408 0.01982 0.49381 0.0
C346 C 0.98876 0.0147 0.62597 0.0
C347 C 0.02842 0.01128 0.54802 0.0
C348 C 0.04192 0.98926 0.53791 0.0
C349 C 0.06916 0.98865 0.53177 0.0
C350 C 0.08292 0.01117 0.53524 0.0
C351 C 0.06935 0.03384 0.5441 0.0
C352 C 0.04184 0.03391 0.55078 0.0
H353 H 0.01222 0.43665 0.7617 0.0
H354 H 0.08652 0.4756 0.76512 0.0
H355 H 0.06313 0.51569 0.77739 0.0
H356 H 0.97746 0.48021 0.65868 0.0
H357 H 0.94692 0.47735 0.70499 0.0
H358 H 0.96944 0.45164 0.70112 0.0
H359 H 0.97024 0.45008 0.8374 0.0
H360 H 0.94756 0.47568 0.8417 0.0
H361 H 0.97849 0.47763 0.88814 0.0
H362 H 0.03178 0.55138 0.78297 0.0
H363 H 0.99428 0.58058 0.78407 0.0
H364 H 0.94013 0.51867 0.77751 0.0
C365 C 0.02342 0.45368 0.76597 0.0
C366 C 0.05104 0.45332 0.76258 0.0
C367 C 0.06529 0.47576 0.76764 0.0
C368 C 0.0522 0.4985 0.77462 0.0
C369 C 0.02488 0.49838 0.77662 0.0
C370 C 0.01061 0.47658 0.77274 0.0
C371 C 0.98138 0.48174 0.7738 0.0
C372 C 0.96802 0.47216 0.70558 0.0
C373 C 0.96867 0.47062 0.83916 0.0
C374 C 0.98145 0.50981 0.7781 0.0
C375 C 0.00676 0.51902 0.77993 0.0
C376 C 0.01188 0.5444 0.78227 0.0
C377 C 0.99055 0.56081 0.78302 0.0
C378 C 0.96452 0.55175 0.78156 0.0
C379 C 0.95994 0.52596 0.77892 0.0
H380 H 0.37166 0.44254 0.35481 0.0
H381 H 0.35432 0.36644 0.29222 0.0
H382 H 0.36399 0.35296 0.41262 0.0
H383 H 0.42569 0.42919 0.46007 0.0
H384 H 0.41948 0.45221 0.52807 0.0
H385 H 0.40773 0.45697 0.43976 0.0
H386 H 0.36029 0.46244 0.4855 0.0
H387 H 0.37195 0.45808 0.57425 0.0
H388 H 0.34604 0.43872 0.53866 0.0
H389 H 0.3803 0.34671 0.53322 0.0
H390 H 0.3988 0.3486 0.65371 0.0
H391 H 0.40598 0.42846 0.64104 0.0
C392 C 0.36907 0.42321 0.36731 0.0
C393 C 0.36208 0.40553 0.31457 0.0
C394 C 0.3596 0.38026 0.33207 0.0
C395 C 0.36504 0.37241 0.40024 0.0
C396 C 0.3729 0.39007 0.45042 0.0
C397 C 0.3746 0.41499 0.43543 0.0
C398 C 0.38519 0.42974 0.49837 0.0
C399 C 0.41106 0.44279 0.48046 0.0
C400 C 0.36463 0.44834 0.52582 0.0
C401 C 0.38969 0.4091 0.5501 0.0
C402 C 0.38237 0.38641 0.52115 0.0
C403 C 0.38576 0.36439 0.55699 0.0
C404 C 0.39648 0.3656 0.62496 0.0
C405 C 0.40355 0.38866 0.65631 0.0
C406 C 0.4003 0.41067 0.61831 0.0
H407 H 0.6482 0.87431 0.90888 0.0
H408 H 0.61757 0.94921 0.91757 0.0
H409 H 0.60286 0.94487 0.79312 0.0
H410 H 0.67404 0.87831 0.7346 0.0
H411 H 0.66669 0.84653 0.71088 0.0
H412 H 0.67297 0.85513 0.80152 0.0
H413 H 0.62816 0.83638 0.83603 0.0
H414 H 0.62161 0.828 0.74522 0.0
H415 H 0.5986 0.84703 0.79355 0.0
H416 H 0.59108 0.93203 0.66921 0.0
H417 H 0.5891 0.91454 0.54858 0.0
H418 H 0.63032 0.84886 0.61782 0.0
C419 C 0.63832 0.8897 0.88428 0.0
C420 C 0.63373 0.91203 0.92211 0.0
C421 C 0.62117 0.93201 0.88879 0.0
C422 C 0.6126 0.92961 0.81861 0.0
C423 C 0.61715 0.90722 0.78269 0.0
C424 C 0.63015 0.88778 0.81392 0.0
C425 C 0.63432 0.86643 0.76214 0.0
C426 C 0.66375 0.86131 0.75166 0.0
C427 C 0.6198 0.84308 0.78565 0.0
C428 C 0.62182 0.87697 0.69665 0.0
C429 C 0.61153 0.90029 0.71015 0.0
C430 C 0.59911 0.91382 0.65795 0.0
C431 C 0.59795 0.90363 0.58955 0.0
C432 C 0.6096 0.88033 0.57361 0.0
C433 C 0.6212 0.86668 0.62837 0.0
H434 H 0.14061 0.08116 0.93203 0.0
H435 H 0.11037 0.15026 0.85131 0.0
H436 H 0.092 0.16074 0.96751 0.0
H437 H 0.08704 0.06873 0.05399 0.0
H438 H 0.10875 0.05711 0.12104 0.0
H439 H 0.11733 0.05374 0.02946 0.0
H440 H 0.16153 0.07616 0.05439 0.0
H441 H 0.15314 0.07945 0.14596 0.0
H442 H 0.1614 0.10644 0.09641 0.0
H443 H 0.07916 0.16503 0.09406 0.0
H444 H 0.07534 0.164 0.22344 0.0
H445 H 0.11479 0.09263 0.22314 0.0
C446 C 0.12983 0.09835 0.93868 0.0
C447 C 0.12607 0.11442 0.88175 0.0
C448 C 0.11242 0.13703 0.89294 0.0
C449 C 0.10209 0.14329 0.95911 0.0
C450 C 0.10577 0.12685 0.01383 0.0
C451 C 0.11946 0.10492 0.00453 0.0
C452 C 0.12222 0.09135 0.07321 0.0
C453 C 0.10798 0.06625 0.06915 0.0
C454 C 0.15129 0.08818 0.09368 0.0
C455 C 0.10842 0.10935 0.12275 0.0
C456 C 0.09881 0.12957 0.08731 0.0
C457 C 0.0864 0.1492 0.12237 0.0
C458 C 0.08429 0.14843 0.19588 0.0
C459 C 0.0947 0.12823 0.23351 0.0
C460 C 0.10639 0.10823 0.19598 0.0
H461 H 0.90551 0.59179 0.13411 0.0
H462 H 0.90781 0.6718 0.16443 0.0
H463 H 0.89827 0.66685 0.2902 0.0
H464 H 0.8507 0.58157 0.24895 0.0
H465 H 0.8635 0.55277 0.28126 0.0
H466 H 0.87149 0.56249 0.19383 0.0
H467 H 0.92103 0.55906 0.22371 0.0
H468 H 0.91322 0.54937 0.31125 0.0
H469 H 0.93413 0.57585 0.29915 0.0
H470 H 0.88802 0.6535 0.41214 0.0
H471 H 0.87802 0.63256 0.52272 0.0
H472 H 0.88006 0.56124 0.41251 0.0
C473 C 0.90341 0.60839 0.16609 0.0
C474 C 0.90686 0.63227 0.13807 0.0
C475 C 0.90523 0.65327 0.18408 0.0
C476 C 0.89969 0.65068 0.25572 0.0
C477 C 0.8958 0.62695 0.28097 0.0
C478 C 0.8976 0.60615 0.23769 0.0
C479 C 0.8924 0.58275 0.27826 0.0
C480 C 0.86807 0.56909 0.24882 0.0
C481 C 0.91664 0.56576 0.27808 0.0
C482 C 0.88736 0.59369 0.35113 0.0
C483 C 0.88955 0.61922 0.35142 0.0
C484 C 0.88619 0.63352 0.41254 0.0
C485 C 0.88054 0.62142 0.47516 0.0
C486 C 0.87819 0.59524 0.47641 0.0
C487 C 0.88151 0.58126 0.41325 0.0
H488 H 0.35549 0.12539 0.83175 0.0
H489 H 0.43366 0.09702 0.87185 0.0
H490 H 0.44696 0.10847 0.7518 0.0
H491 H 0.35019 0.10461 0.65231 0.0
H492 H 0.33255 0.13177 0.6249 0.0
H493 H 0.32997 0.12158 0.71413 0.0
H494 H 0.34486 0.16526 0.75851 0.0
H495 H 0.34798 0.1752 0.669 0.0
H496 H 0.37557 0.17768 0.72871 0.0
H497 H 0.45092 0.12147 0.62553 0.0
H498 H 0.445 0.13396 0.50195 0.0
H499 H 0.36442 0.15478 0.54661 0.0
C500 C 0.37537 0.12153 0.81504 0.0
C501 C 0.39369 0.11061 0.86095 0.0
C502 C 0.41955 0.10589 0.83776 0.0
C503 C 0.42722 0.11223 0.76968 0.0
C504 C 0.40878 0.12338 0.72594 0.0
C505 C 0.38338 0.12796 0.7477 0.0
C506 C 0.36722 0.13983 0.6904 0.0
C507 C 0.3436 0.12346 0.66918 0.0
C508 C 0.3584 0.16605 0.71303 0.0
C509 C 0.3873 0.14068 0.63233 0.0
C510 C 0.4112 0.13126 0.65391 0.0
C511 C 0.43238 0.12911 0.60822 0.0
C512 C 0.42884 0.13629 0.53821 0.0
C513 C 0.40432 0.14552 0.51479 0.0
C514 C 0.38353 0.14816 0.56307 0.0
H515 H 0.93675 0.87464 0.11362 0.0
H516 H 0.86207 0.89928 0.19795 0.0
H517 H 0.84918 0.91449 0.08166 0.0
H518 H 0.94502 0.9241 0.98364 0.0
H519 H 0.95838 0.90292 0.91859 0.0
H520 H 0.96346 0.89741 0.01098 0.0
H521 H 0.94318 0.85355 0.99513 0.0
H522 H 0.9381 0.85891 0.90292 0.0
H523 H 0.91081 0.85032 0.95704 0.0
H524 H 0.84268 0.92365 0.95405 0.0
H525 H 0.84218 0.92358 0.82387 0.0
H526 H 0.92031 0.89146 0.82237 0.0
C527 C 0.91792 0.88371 0.10787 0.0
C528 C 0.9009 0.88668 0.16559 0.0
C529 C 0.87607 0.89795 0.15563 0.0
C530 C 0.86842 0.90646 0.08941 0.0
C531 C 0.88573 0.90336 0.03363 0.0
C532 C 0.90993 0.89215 0.04209 0.0
C533 C 0.9238 0.88885 0.97249 0.0
C534 C 0.94917 0.90424 0.97139 0.0
C535 C 0.92927 0.86127 0.95594 0.0
C536 C 0.90327 0.89922 0.92337 0.0
C537 C 0.88164 0.90791 0.95965 0.0
C538 C 0.85962 0.91717 0.92502 0.0
C539 C 0.85952 0.91707 0.85117 0.0
C540 C 0.88116 0.90747 0.81317 0.0
C541 C 0.90347 0.89896 0.85 0.0
H542 H 0.11768 0.41464 0.32215 0.0
H543 H 0.08795 0.34757 0.41482 0.0
H544 H 0.07427 0.33196 0.29789 0.0
H545 H 0.06803 0.41909 0.17964 0.0
H546 H 0.0918 0.42945 0.11699 0.0
H547 H 0.09608 0.43689 0.20933 0.0
H548 H 0.14229 0.41678 0.20672 0.0
H549 H 0.13812 0.40922 0.11463 0.0
H550 H 0.14575 0.38513 0.17585 0.0
H551 H 0.06751 0.32174 0.16935 0.0
H552 H 0.06861 0.31793 0.03937 0.0
H553 H 0.10362 0.39116 0.03038 0.0
C554 C 0.10772 0.39694 0.31789 0.0
C555 C 0.10291 0.38285 0.37819 0.0
C556 C 0.09057 0.3594 0.37031 0.0
C557 C 0.08302 0.35017 0.30369 0.0
C558 C 0.08807 0.36451 0.24529 0.0
C559 C 0.1001 0.38743 0.25172 0.0
C560 C 0.10504 0.39833 0.18028 0.0
C561 C 0.08929 0.42236 0.17103 0.0
C562 C 0.13455 0.4026 0.16872 0.0
C563 C 0.09457 0.37767 0.1328 0.0
C564 C 0.08462 0.35842 0.17118 0.0
C565 C 0.07497 0.33683 0.13864 0.0
C566 C 0.07569 0.33481 0.06484 0.0
C567 C 0.08616 0.35422 0.02465 0.0
C568 C 0.09537 0.376 0.05942 0.0
H569 H 0.61468 0.67073 0.72244 0.0
H570 H 0.57552 0.60274 0.78051 0.0
H571 H 0.57569 0.58851 0.65672 0.0
H572 H 0.58153 0.67573 0.54407 0.0
H573 H 0.61103 0.68767 0.50558 0.0
H574 H 0.60382 0.69442 0.59678 0.0
H575 H 0.64907 0.67649 0.6324 0.0
H576 H 0.65624 0.66922 0.54176 0.0
H577 H 0.65736 0.64516 0.60613 0.0
H578 H 0.5877 0.57813 0.53345 0.0
H579 H 0.60527 0.57497 0.41241 0.0
H580 H 0.63433 0.65028 0.43167 0.0
C581 C 0.60536 0.65323 0.70878 0.0
C582 C 0.59528 0.63779 0.76118 0.0
C583 C 0.58346 0.61488 0.74133 0.0
C584 C 0.58343 0.60662 0.67108 0.0
C585 C 0.59477 0.62169 0.62124 0.0
C586 C 0.60491 0.6448 0.63869 0.0
C587 C 0.61757 0.65656 0.57574 0.0
C588 C 0.60259 0.67998 0.55428 0.0
C589 C 0.64679 0.66217 0.5899 0.0
C590 C 0.61413 0.63591 0.52139 0.0
C591 C 0.60083 0.616 0.54867 0.0
C592 C 0.5975 0.59381 0.51075 0.0
C593 C 0.60774 0.59207 0.44267 0.0
C594 C 0.62083 0.61246 0.41356 0.0
C595 C 0.62396 0.63465 0.45304 0.0
H596 H 0.18736 0.37587 0.89087 0.0
H597 H 0.1979 0.4167 0.69845 0.0
H598 H 0.24268 0.42809 0.73713 0.0
H599 H 0.2252 0.41759 0.00758 0.0
H600 H 0.23921 0.39263 0.05705 0.0
H601 H 0.20717 0.38915 0.01721 0.0
H602 H 0.22261 0.34935 0.95098 0.0
H603 H 0.25458 0.35261 0.99097 0.0
H604 H 0.25136 0.35055 0.89644 0.0
H605 H 0.28658 0.43353 0.79302 0.0
H606 H 0.32827 0.43017 0.85862 0.0
H607 H 0.29023 0.38525 0.01445 0.0
C608 C 0.19898 0.38741 0.85713 0.0
C609 C 0.18904 0.39547 0.79163 0.0
C610 C 0.20505 0.41027 0.74872 0.0
C611 C 0.23046 0.41698 0.77047 0.0
C612 C 0.23961 0.40874 0.83523 0.0
C613 C 0.22448 0.39416 0.87782 0.0
C614 C 0.23971 0.38645 0.9428 0.0
C615 C 0.22706 0.3971 0.01015 0.0
C616 C 0.24222 0.35806 0.9454 0.0
C617 C 0.26598 0.39859 0.92932 0.0
C618 C 0.26528 0.41162 0.86736 0.0
C619 C 0.28735 0.42347 0.84169 0.0
C620 C 0.31097 0.42134 0.87908 0.0
C621 C 0.31246 0.40736 0.94121 0.0
C622 C 0.2895 0.39638 0.96769 0.0
H623 H 0.62131 0.80039 0.29629 0.0
H624 H 0.59094 0.83621 0.11049 0.0
H625 H 0.58378 0.79545 0.05259 0.0
H626 H 0.65661 0.75375 0.20573 0.0
H627 H 0.64983 0.72953 0.26693 0.0
H628 H 0.65023 0.7614 0.29688 0.0
H629 H 0.60308 0.75674 0.34488 0.0
H630 H 0.60258 0.72479 0.31518 0.0
H631 H 0.57727 0.74576 0.28676 0.0
H632 H 0.58269 0.75128 0.0116 0.0
H633 H 0.58783 0.70632 0.98995 0.0
H634 H 0.61919 0.69865 0.20177 0.0
C635 C 0.61267 0.79953 0.244 0.0
C636 C 0.60686 0.82141 0.20742 0.0
C637 C 0.59599 0.81967 0.1387 0.0
C638 C 0.59162 0.79659 0.10569 0.0
C639 C 0.59817 0.77535 0.1422 0.0
C640 C 0.60837 0.77653 0.20992 0.0
C641 C 0.61523 0.75086 0.23544 0.0
C642 C 0.64472 0.74877 0.25221 0.0
C643 C 0.59854 0.74414 0.29936 0.0
C644 C 0.60772 0.73524 0.17106 0.0
C645 C 0.59768 0.74973 0.11819 0.0
C646 C 0.59028 0.73967 0.05283 0.0
C647 C 0.59333 0.7141 0.04099 0.0
C648 C 0.60382 0.69885 0.09414 0.0
C649 C 0.61088 0.70968 0.16018 0.0
H650 H 0.32654 0.12906 0.38915 0.0
H651 H 0.31104 0.08972 0.19115 0.0
H652 H 0.26711 0.0786 0.23295 0.0
H653 H 0.29006 0.08657 0.5027 0.0
H654 H 0.27795 0.11148 0.55825 0.0
H655 H 0.30914 0.11445 0.51508 0.0
H656 H 0.29311 0.15523 0.45917 0.0
H657 H 0.26187 0.15212 0.50155 0.0
H658 H 0.26332 0.15505 0.40729 0.0
H659 H 0.22443 0.07401 0.29071 0.0
H660 H 0.1839 0.07784 0.35945 0.0
H661 H 0.22574 0.11986 0.52207 0.0
C662 C 0.31401 0.11788 0.35487 0.0
C663 C 0.32234 0.11022 0.28677 0.0
C664 C 0.30519 0.09586 0.24336 0.0
C665 C 0.28022 0.0893 0.26682 0.0
C666 C 0.27262 0.09719 0.3339 0.0
C667 C 0.28888 0.11122 0.37738 0.0
C668 C 0.27507 0.11855 0.44536 0.0
C669 C 0.28887 0.10707 0.50914 0.0
C670 C 0.27323 0.14692 0.45379 0.0
C671 C 0.24826 0.10696 0.43229 0.0
C672 C 0.24756 0.09448 0.36791 0.0
C673 C 0.22477 0.08347 0.34153 0.0
C674 C 0.20185 0.08578 0.38096 0.0
C675 C 0.20176 0.09898 0.44622 0.0
C676 C 0.22543 0.10922 0.47308 0.0
H677 H 0.89819 0.70805 0.78255 0.0
H678 H 0.90688 0.66552 0.58748 0.0
H679 H 0.91328 0.70405 0.52292 0.0
H680 H 0.86097 0.75664 0.70843 0.0
H681 H 0.87559 0.78106 0.76174 0.0
H682 H 0.87402 0.75005 0.79455 0.0
H683 H 0.92437 0.75024 0.81458 0.0
H684 H 0.92608 0.78131 0.78186 0.0
H685 H 0.94573 0.75706 0.74231 0.0
H686 H 0.9167 0.7468 0.47789 0.0
H687 H 0.91538 0.79153 0.45449 0.0
H688 H 0.90346 0.80707 0.67741 0.0
C689 C 0.90185 0.7069 0.72649 0.0
C690 C 0.90207 0.68376 0.69012 0.0
C691 C 0.90648 0.68302 0.61647 0.0
C692 C 0.91029 0.70481 0.57928 0.0
C693 C 0.90957 0.72731 0.61629 0.0
C694 C 0.90542 0.7286 0.68815 0.0
C695 C 0.90396 0.75536 0.71401 0.0
C696 C 0.87703 0.76111 0.74659 0.0
C697 C 0.92638 0.76134 0.76628 0.0
C698 C 0.90758 0.76878 0.64532 0.0
C699 C 0.91107 0.7522 0.58983 0.0
C700 C 0.91413 0.76002 0.52094 0.0
C701 C 0.91333 0.7855 0.50819 0.0
C702 C 0.90932 0.80291 0.56399 0.0
C703 C 0.90667 0.79431 0.63355 0.0
H704 H 0.82584 0.88463 0.375 0.0
H705 H 0.81443 0.9029 0.59659 0.0
H706 H 0.76746 0.91019 0.57333 0.0
H707 H 0.77881 0.93003 0.30614 0.0
H708 H 0.76772 0.90946 0.23606 0.0
H709 H 0.80091 0.90728 0.26891 0.0
H710 H 0.79378 0.8608 0.29407 0.0
H711 H 0.7606 0.86281 0.2615 0.0
H712 H 0.76687 0.85174 0.34892 0.0
H713 H 0.72157 0.91206 0.52912 0.0
H714 H 0.67927 0.90943 0.46599 0.0
H715 H 0.71987 0.89134 0.27149 0.0
C716 C 0.81358 0.89052 0.41854 0.0
C717 C 0.82393 0.89324 0.48771 0.0
C718 C 0.80706 0.90072 0.54317 0.0
C719 C 0.78033 0.90496 0.53048 0.0
C720 C 0.77076 0.90185 0.46196 0.0
C721 C 0.78683 0.89495 0.40675 0.0
C722 C 0.77127 0.89194 0.33861 0.0
C723 C 0.78021 0.91081 0.28422 0.0
C724 C 0.77325 0.86524 0.30908 0.0
C725 C 0.74382 0.8977 0.36456 0.0
C726 C 0.74409 0.90344 0.4359 0.0
C727 C 0.72112 0.90794 0.47311 0.0
C728 C 0.69719 0.90631 0.43676 0.0
C729 C 0.6963 0.90036 0.36373 0.0
C730 C 0.72 0.89637 0.327 0.0
H731 H 0.1214 0.18433 0.66857 0.0
H732 H 0.1018 0.19179 0.44684 0.0
H733 H 0.09412 0.23635 0.46647 0.0
H734 H 0.0728 0.22989 0.73421 0.0
H735 H 0.09422 0.24165 0.8031 0.0
H736 H 0.09686 0.20979 0.77337 0.0
H737 H 0.1461 0.21632 0.74723 0.0
H738 H 0.14365 0.24816 0.77674 0.0
H739 H 0.15578 0.24084 0.68985 0.0
H740 H 0.09272 0.27987 0.50538 0.0
H741 H 0.09557 0.32073 0.56296 0.0
H742 H 0.11325 0.28665 0.76275 0.0
C743 C 0.11521 0.19529 0.62432 0.0
C744 C 0.11219 0.18445 0.55604 0.0
C745 C 0.10417 0.19952 0.49959 0.0
C746 C 0.09972 0.22489 0.5102 0.0
C747 C 0.10306 0.23497 0.57773 0.0
C748 C 0.11038 0.22074 0.63411 0.0
C749 C 0.11321 0.23665 0.70082 0.0
C750 C 0.09307 0.22904 0.75615 0.0
C751 C 0.14136 0.23542 0.73037 0.0
C752 C 0.10704 0.26214 0.6724 0.0
C753 C 0.1012 0.26051 0.60122 0.0
C754 C 0.09668 0.28137 0.56138 0.0
C755 C 0.09831 0.3046 0.59479 0.0
C756 C 0.10404 0.30703 0.66774 0.0
C757 C 0.10818 0.2854 0.70732 0.0
H758 H 0.68718 0.62416 0.88425 0.0
H759 H 0.70305 0.59647 0.09355 0.0
H760 H 0.74888 0.58841 0.06058 0.0
H761 H 0.73087 0.5809 0.78814 0.0
H762 H 0.74153 0.60404 0.72754 0.0
H763 H 0.70915 0.60586 0.76483 0.0
H764 H 0.71889 0.65038 0.8114 0.0
H765 H 0.75124 0.64873 0.77423 0.0
H766 H 0.74731 0.65589 0.86667 0.0
H767 H 0.79307 0.58615 0.01021 0.0
H768 H 0.83418 0.59039 0.94487 0.0
H769 H 0.79119 0.61911 0.76631 0.0
C770 C 0.70021 0.61607 0.92278 0.0
C771 C 0.69145 0.6109 0.99155 0.0
C772 C 0.70924 0.60065 0.04068 0.0
C773 C 0.73531 0.59587 0.02235 0.0
C774 C 0.74337 0.60139 0.95462 0.0
C775 C 0.72647 0.61125 0.90542 0.0
C776 C 0.74081 0.61679 0.83766 0.0
C777 C 0.72994 0.60095 0.77589 0.0
C778 C 0.73948 0.6446 0.82158 0.0
C779 C 0.76851 0.60895 0.85723 0.0
C780 C 0.76932 0.59996 0.92487 0.0
C781 C 0.79268 0.5929 0.95696 0.0
C782 C 0.81596 0.59549 0.91954 0.0
C783 C 0.81583 0.60498 0.85066 0.0
C784 C 0.79173 0.61136 0.81845 0.0
H785 H 0.3891 0.31961 0.15354 0.0
H786 H 0.40912 0.31074 0.93248 0.0
H787 H 0.41573 0.26596 0.94914 0.0
H788 H 0.43609 0.27419 0.21946 0.0
H789 H 0.41415 0.26322 0.28594 0.0
H790 H 0.41207 0.29486 0.25778 0.0
H791 H 0.36289 0.28868 0.22707 0.0
H792 H 0.36478 0.25707 0.25516 0.0
H793 H 0.35323 0.26377 0.16764 0.0
H794 H 0.41716 0.22214 0.98693 0.0
H795 H 0.41444 0.18173 0.0441 0.0
H796 H 0.39513 0.21853 0.24239 0.0
C797 C 0.39505 0.30831 0.10865 0.0
C798 C 0.39855 0.31875 0.04154 0.0
C799 C 0.40634 0.30324 0.98434 0.0
C800 C 0.41018 0.27777 0.99331 0.0
C801 C 0.4064 0.2681 0.05992 0.0
C802 C 0.39916 0.28285 0.11677 0.0
C803 C 0.39578 0.2676 0.18236 0.0
C804 C 0.41572 0.27544 0.23977 0.0
C805 C 0.36749 0.26939 0.20963 0.0
C806 C 0.40176 0.24186 0.15309 0.0
C807 C 0.40787 0.24268 0.08233 0.0
C808 C 0.41272 0.22128 0.04245 0.0
C809 C 0.41105 0.19841 0.07541 0.0
C810 C 0.40475 0.19699 0.14777 0.0
C811 C 0.40042 0.21908 0.18733 0.0
loop_
_geom_bond_atom_site_label_1
_geom_bond_atom_site_label_2
_geom_bond_distance
_geom_bond_site_symmetry_2
_ccdc_geom_bond_type
Co0 O3 1.970 . S
Co0 N17 1.989 . S
Co0 O25 1.967 . S
Co0 O32 1.920 . S
Co1 O4 1.966 . S
Co1 N10 2.022 . S
Co1 N18 1.993 . S
Co1 O26 1.941 . S
C2 O3 1.258 . S
C2 O4 1.263 1_554 S
O3 Co0 1.970 . S
O3 C2 1.258 . S
O4 Co1 1.966 . S
O4 C2 1.263 1_556 S
C5 O6 1.235 . S
C5 O32 1.289 . S
O6 C5 1.235 . S
C7 C9 1.400 . S
C7 N10 1.351 . S
C7 C12 1.501 . S
C8 C9 1.387 . S
C8 N11 1.341 . S
C9 C7 1.400 . S
C9 C8 1.387 . S
N10 Co1 2.022 . S
N10 C7 1.351 . S
N10 N11 1.365 . S
N11 C8 1.341 . S
N11 N10 1.365 . S
N11 H31 0.862 . S
C12 C7 1.501 . S
C12 H13 0.961 . S
C12 H14 0.961 . S
C12 H15 0.960 . S
H13 C12 0.961 . S
H14 C12 0.961 . S
H15 C12 0.960 . S
C16 N17 1.342 . S
C16 C20 1.401 . S
C16 C21 1.499 . S
N17 Co0 1.989 . S
N17 C16 1.342 . S
N17 N18 1.388 1_554 S
N18 Co1 1.993 . S
N18 N17 1.388 1_556 S
N18 C19 1.346 . S
C19 N18 1.346 . S
C19 C20 1.396 1_556 S
C19 C29 1.510 . S
C20 C16 1.401 . S
C20 C19 1.396 1_554 S
C21 C16 1.499 . S
C21 H22 0.959 . S
C21 H23 0.960 . S
C21 H24 0.961 . S
H22 C21 0.959 . S
H23 C21 0.960 . S
H24 C21 0.961 . S
O25 Co0 1.967 . S
O25 C33 1.258 . S
O26 Co1 1.941 . S
O26 C33 1.266 1_556 S
H27 C29 0.959 . S
H28 C29 0.961 . S
C29 C19 1.510 . S
C29 H27 0.959 . S
C29 H28 0.961 . S
C29 H30 0.960 . S
H30 C29 0.960 . S
H31 N11 0.862 . S
O32 Co0 1.920 . S
O32 C5 1.289 . S
C33 O25 1.258 . S
C33 O26 1.266 1_554 S
Co34 O37 1.970 . S
Co34 N51 1.989 . S
Co34 O59 1.967 . S
Co34 O66 1.920 . S
Co35 O38 1.966 . S
Co35 N44 2.022 . S
Co35 N52 1.993 . S
Co35 O60 1.941 . S
C36 O37 1.258 . S
C36 O38 1.263 . S
O37 Co34 1.970 . S
O37 C36 1.258 . S
O38 Co35 1.966 . S
O38 C36 1.263 . S
C39 O40 1.235 . S
C39 O66 1.289 . S
O40 C39 1.235 . S
C41 C43 1.400 1_554 S
C41 N44 1.351 . S
C41 C46 1.501 . S
C42 C43 1.387 . S
C42 N45 1.341 1_556 S
C43 C41 1.400 1_556 S
C43 C42 1.387 . S
N44 Co35 2.022 . S
N44 C41 1.351 . S
N44 N45 1.365 . S
N45 C42 1.341 1_554 S
N45 N44 1.365 . S
N45 H65 0.862 . S
C46 C41 1.501 . S
C46 H47 0.961 . S
C46 H48 0.961 . S
C46 H49 0.960 1_554 S
H47 C46 0.961 . S
H48 C46 0.961 . S
H49 C46 0.960 1_556 S
C50 N51 1.342 . S
C50 C54 1.401 . S
C50 C55 1.499 . S
N51 Co34 1.989 . S
N51 C50 1.342 . S
N51 N52 1.388 . S
N52 Co35 1.993 . S
N52 N51 1.388 . S
N52 C53 1.346 . S
C53 N52 1.346 . S
C53 C54 1.396 . S
C53 C63 1.510 . S
C54 C50 1.401 . S
C54 C53 1.396 . S
C55 C50 1.499 . S
C55 H56 0.959 . S
C55 H57 0.960 . S
C55 H58 0.961 . S
H56 C55 0.959 . S
H57 C55 0.960 . S
H58 C55 0.961 . S
O59 Co34 1.967 . S
O59 C67 1.258 . S
O60 Co35 1.941 . S
O60 C67 1.266 . S
H61 C63 0.959 . S
H62 C63 0.961 . S
C63 C53 1.510 . S
C63 H61 0.959 . S
C63 H62 0.961 . S
C63 H64 0.960 . S
H64 C63 0.960 . S
H65 N45 0.862 . S
O66 Co34 1.920 . S
O66 C39 1.289 . S
C67 O59 1.258 . S
C67 O60 1.266 . S
Co68 O71 1.970 . S
Co68 N85 1.989 . S
Co68 O93 1.967 . S
Co68 O100 1.920 . S
Co69 O72 1.966 . S
Co69 N78 2.022 . S
Co69 N86 1.993 . S
Co69 O94 1.941 . S
C70 O71 1.258 . S
C70 O72 1.263 . S
O71 Co68 1.970 . S
O71 C70 1.258 . S
O72 Co69 1.966 . S
O72 C70 1.263 . S
C73 O74 1.235 . S
C73 O100 1.289 . S
O74 C73 1.235 . S
C75 C77 1.400 . S
C75 N78 1.351 . S
C75 C80 1.501 . S
C76 C77 1.387 . S
C76 N79 1.341 . S
C77 C75 1.400 . S
C77 C76 1.387 . S
N78 Co69 2.022 . S
N78 C75 1.351 . S
N78 N79 1.365 . S
N79 C76 1.341 . S
N79 N78 1.365 . S
N79 H99 0.862 . S
C80 C75 1.501 . S
C80 H81 0.961 . S
C80 H82 0.961 . S
C80 H83 0.960 . S
H81 C80 0.961 . S
H82 C80 0.961 . S
H83 C80 0.960 . S
C84 N85 1.342 . S
C84 C88 1.401 . S
C84 C89 1.499 . S
N85 Co68 1.989 . S
N85 C84 1.342 . S
N85 N86 1.388 . S
N86 Co69 1.993 . S
N86 N85 1.388 . S
N86 C87 1.346 . S
C87 N86 1.346 . S
C87 C88 1.396 . S
C87 C97 1.510 . S
C88 C84 1.401 . S
C88 C87 1.396 . S
C89 C84 1.499 . S
C89 H90 0.959 . S
C89 H91 0.960 . S
C89 H92 0.961 . S
H90 C89 0.959 . S
H91 C89 0.960 . S
H92 C89 0.961 . S
O93 Co68 1.967 . S
O93 C101 1.258 . S
O94 Co69 1.941 . S
O94 C101 1.266 . S
H95 C97 0.959 . S
H96 C97 0.961 . S
C97 C87 1.510 . S
C97 H95 0.959 . S
C97 H96 0.961 . S
C97 H98 0.960 . S
H98 C97 0.960 . S
H99 N79 0.862 . S
O100 Co68 1.920 . S
O100 C73 1.289 . S
C101 O93 1.258 . S
C101 O94 1.266 . S
Co102 O105 1.970 . S
Co102 N119 1.989 . S
Co102 O127 1.967 . S
Co102 O134 1.920 . S
Co103 O106 1.966 . S
Co103 N112 2.022 . S
Co103 N120 1.993 . S
Co103 O128 1.941 . S
C104 O105 1.258 . S
C104 O106 1.263 . S
O105 Co102 1.970 . S
O105 C104 1.258 . S
O106 Co103 1.966 . S
O106 C104 1.263 . S
C107 O108 1.235 . S
C107 O134 1.289 . S
O108 C107 1.235 . S
C109 C111 1.400 . S
C109 N112 1.351 1_554 S
C109 C114 1.501 . S
C110 C111 1.387 . S
C110 N113 1.328 1_554 S
C111 C109 1.400 . S
C111 C110 1.387 . S
N112 Co103 2.022 . S
N112 C109 1.351 1_556 S
N112 N113 1.370 . S
N113 C110 1.328 1_556 S
N113 N112 1.370 . S
N113 H133 0.869 . S
C114 C109 1.501 . S
C114 H115 0.961 1_554 S
C114 H116 0.961 . S
C114 H117 0.960 . S
H115 C114 0.961 1_556 S
H116 C114 0.961 . S
H117 C114 0.960 . S
C118 N119 1.342 . S
C118 C122 1.401 . S
C118 C123 1.499 . S
N119 Co102 1.989 . S
N119 C118 1.342 . S
N119 N120 1.388 . S
N120 Co103 1.993 . S
N120 N119 1.388 . S
N120 C121 1.346 . S
C121 N120 1.346 . S
C121 C122 1.396 . S
C121 C131 1.510 . S
C122 C118 1.401 . S
C122 C121 1.396 . S
C123 C118 1.499 . S
C123 H124 0.959 . S
C123 H125 0.960 . S
C123 H126 0.961 . S
H124 C123 0.959 . S
H125 C123 0.960 . S
H126 C123 0.961 . S
O127 Co102 1.967 . S
O127 C135 1.258 . S
O128 Co103 1.941 . S
O128 C135 1.266 . S
H129 C131 0.959 . S
H130 C131 0.961 . S
C131 C121 1.510 . S
C131 H129 0.959 . S
C131 H130 0.961 . S
C131 H132 0.960 . S
H132 C131 0.960 . S
H133 N113 0.869 . S
O134 Co102 1.920 . S
O134 C107 1.289 . S
C135 O127 1.258 . S
C135 O128 1.266 . S
Co136 O139 1.970 . S
Co136 N153 1.989 . S
Co136 O161 1.967 . S
Co136 O168 1.920 . S
Co137 O140 1.966 . S
Co137 N146 2.022 . S
Co137 N154 1.993 . S
Co137 O162 1.941 . S
C138 O139 1.258 . S
C138 O140 1.263 . S
O139 Co136 1.970 . S
O139 C138 1.258 . S
O140 Co137 1.966 . S
O140 C138 1.263 . S
C141 O142 1.235 . S
C141 O168 1.289 . S
O142 C141 1.235 . S
C143 C145 1.400 1_554 S
C143 N146 1.351 . S
C143 C148 1.501 . S
C144 C145 1.387 . S
C144 N147 1.341 1_556 S
C145 C143 1.400 1_556 S
C145 C144 1.387 . S
N146 Co137 2.022 . S
N146 C143 1.351 . S
N146 N147 1.365 . S
N147 C144 1.341 1_554 S
N147 N146 1.365 . S
N147 H167 0.862 . S
C148 C143 1.501 . S
C148 H149 0.961 . S
C148 H150 0.961 . S
C148 H151 0.960 1_554 S
H149 C148 0.961 . S
H150 C148 0.961 . S
H151 C148 0.960 1_556 S
C152 N153 1.342 . S
C152 C156 1.401 . S
C152 C157 1.499 . S
N153 Co136 1.989 . S
N153 C152 1.342 . S
N153 N154 1.388 . S
N154 Co137 1.993 . S
N154 N153 1.388 . S
N154 C155 1.346 . S
C155 N154 1.346 . S
C155 C156 1.396 . S
C155 C165 1.510 . S
C156 C152 1.401 . S
C156 C155 1.396 . S
C157 C152 1.499 . S
C157 H158 0.959 . S
C157 H159 0.960 . S
C157 H160 0.961 . S
H158 C157 0.959 . S
H159 C157 0.960 . S
H160 C157 0.961 . S
O161 Co136 1.967 . S
O161 C169 1.258 . S
O162 Co137 1.941 . S
O162 C169 1.266 . S
H163 C165 0.959 . S
H164 C165 0.961 . S
C165 C155 1.510 . S
C165 H163 0.959 . S
C165 H164 0.961 . S
C165 H166 0.960 . S
H166 C165 0.960 . S
H167 N147 0.862 . S
O168 Co136 1.920 . S
O168 C141 1.289 . S
C169 O161 1.258 . S
C169 O162 1.266 . S
Co170 O173 1.970 . S
Co170 N187 1.989 . S
Co170 O195 1.967 . S
Co170 O202 1.920 . S
Co171 O174 1.966 . S
Co171 N180 2.022 . S
Co171 N188 1.993 . S
Co171 O196 1.941 . S
C172 O173 1.258 . S
C172 O174 1.263 . S
O173 Co170 1.970 . S
O173 C172 1.258 . S
O174 Co171 1.966 . S
O174 C172 1.263 . S
C175 O176 1.235 . S
C175 O202 1.289 . S
O176 C175 1.235 . S
C177 C179 1.400 . S
C177 N180 1.351 . S
C177 C182 1.501 . S
C178 C179 1.387 . S
C178 N181 1.341 . S
C179 C177 1.400 . S
C179 C178 1.387 . S
N180 Co171 2.022 . S
N180 C177 1.351 . S
N180 N181 1.365 . S
N181 C178 1.341 . S
N181 N180 1.365 . S
N181 H201 0.862 . S
C182 C177 1.501 . S
C182 H183 0.961 . S
C182 H184 0.961 . S
C182 H185 0.960 . S
H183 C182 0.961 . S
H184 C182 0.961 . S
H185 C182 0.960 . S
C186 N187 1.342 . S
C186 C190 1.401 . S
C186 C191 1.499 . S
N187 Co170 1.989 . S
N187 C186 1.342 . S
N187 N188 1.388 . S
N188 Co171 1.993 . S
N188 N187 1.388 . S
N188 C189 1.346 . S
C189 N188 1.346 . S
C189 C190 1.396 . S
C189 C199 1.510 . S
C190 C186 1.401 . S
C190 C189 1.396 . S
C191 C186 1.499 . S
C191 H192 0.959 . S
C191 H193 0.960 . S
C191 H194 0.961 . S
H192 C191 0.959 . S
H193 C191 0.960 . S
H194 C191 0.961 . S
O195 Co170 1.967 . S
O195 C203 1.258 . S
O196 Co171 1.941 . S
O196 C203 1.266 . S
H197 C199 0.959 . S
H198 C199 0.961 . S
C199 C189 1.510 . S
C199 H197 0.959 . S
C199 H198 0.961 . S
C199 H200 0.960 . S
H200 C199 0.960 . S
H201 N181 0.862 . S
O202 Co170 1.920 . S
O202 C175 1.289 . S
C203 O195 1.258 . S
C203 O196 1.266 . S
Co204 O207 1.970 . S
Co204 N221 1.989 . S
Co204 O229 1.967 . S
Co204 O236 1.920 . S
Co205 O208 1.966 . S
Co205 N214 2.022 . S
Co205 N222 1.993 . S
Co205 O230 1.941 . S
C206 O207 1.258 . S
C206 O208 1.263 . S
O207 Co204 1.970 . S
O207 C206 1.258 . S
O208 Co205 1.966 . S
O208 C206 1.263 . S
C209 O210 1.235 . S
C209 O236 1.289 . S
O210 C209 1.235 . S
C211 C213 1.400 . S
C211 N214 1.351 . S
C211 C216 1.501 . S
C212 C213 1.387 . S
C212 N215 1.341 . S
C213 C211 1.400 . S
C213 C212 1.387 . S
N214 Co205 2.022 . S
N214 C211 1.351 . S
N214 N215 1.365 . S
N215 C212 1.341 . S
N215 N214 1.365 . S
N215 H235 0.862 . S
C216 C211 1.501 . S
C216 H217 0.961 . S
C216 H218 0.961 . S
C216 H219 0.960 . S
H217 C216 0.961 . S
H218 C216 0.961 . S
H219 C216 0.960 . S
C220 N221 1.342 . S
C220 C224 1.401 . S
C220 C225 1.499 . S
N221 Co204 1.989 . S
N221 C220 1.342 . S
N221 N222 1.388 . S
N222 Co205 1.993 . S
N222 N221 1.388 . S
N222 C223 1.346 . S
C223 N222 1.346 . S
C223 C224 1.396 . S
C223 C233 1.510 . S
C224 C220 1.401 . S
C224 C223 1.396 . S
C225 C220 1.499 . S
C225 H226 0.959 . S
C225 H227 0.960 . S
C225 H228 0.961 . S
H226 C225 0.959 . S
H227 C225 0.960 . S
H228 C225 0.961 . S
O229 Co204 1.967 . S
O229 C237 1.258 . S
O230 Co205 1.941 . S
O230 C237 1.266 . S
H231 C233 0.959 . S
H232 C233 0.961 . S
C233 C223 1.510 . S
C233 H231 0.959 . S
C233 H232 0.961 . S
C233 H234 0.960 . S
H234 C233 0.960 . S
H235 N215 0.862 . S
O236 Co204 1.920 . S
O236 C209 1.289 . S
C237 O229 1.258 . S
C237 O230 1.266 . S
Co238 O241 1.970 . S
Co238 N255 1.989 . S
Co238 O263 1.967 . S
Co238 O270 1.920 . S
Co239 O242 1.966 . S
Co239 N248 2.022 . S
Co239 N256 1.993 . S
Co239 O264 1.941 . S
C240 O241 1.258 1_554 S
C240 O242 1.263 . S
O241 Co238 1.970 . S
O241 C240 1.258 1_556 S
O242 Co239 1.966 . S
O242 C240 1.263 . S
C243 O244 1.235 . S
C243 O270 1.289 . S
O244 C243 1.235 . S
C245 C247 1.400 . S
C245 N248 1.351 . S
C245 C250 1.501 . S
C246 C247 1.387 . S
C246 N249 1.341 . S
C247 C245 1.400 . S
C247 C246 1.387 . S
N248 Co239 2.022 . S
N248 C245 1.351 . S
N248 N249 1.365 . S
N249 C246 1.341 . S
N249 N248 1.365 . S
N249 H269 0.862 . S
C250 C245 1.501 . S
C250 H251 0.961 . S
C250 H252 0.961 . S
C250 H253 0.960 . S
H251 C250 0.961 . S
H252 C250 0.961 . S
H253 C250 0.960 . S
C254 N255 1.342 . S
C254 C258 1.401 1_556 S
C254 C259 1.499 . S
N255 Co238 1.989 . S
N255 C254 1.342 . S
N255 N256 1.388 1_556 S
N256 Co239 1.993 . S
N256 N255 1.388 1_554 S
N256 C257 1.346 . S
C257 N256 1.346 . S
C257 C258 1.396 . S
C257 C267 1.510 . S
C258 C254 1.401 1_554 S
C258 C257 1.396 . S
C259 C254 1.499 . S
C259 H260 0.959 . S
C259 H261 0.960 . S
C259 H262 0.961 . S
H260 C259 0.959 . S
H261 C259 0.960 . S
H262 C259 0.961 . S
O263 Co238 1.967 . S
O263 C271 1.258 1_556 S
O264 Co239 1.941 . S
O264 C271 1.266 . S
H265 C267 0.959 . S
H266 C267 0.961 . S
C267 C257 1.510 . S
C267 H265 0.959 . S
C267 H266 0.961 . S
C267 H268 0.960 . S
H268 C267 0.960 . S
H269 N249 0.862 . S
O270 Co238 1.920 . S
O270 C243 1.289 . S
C271 O263 1.258 1_554 S
C271 O264 1.266 . S
H272 C284 0.930 . S
H273 C286 0.930 . S
H274 C287 0.930 . S
H275 C291 0.959 . S
H276 C291 0.959 . S
H277 C291 0.961 . S
H278 C292 0.960 . S
H279 C292 0.961 . S
H280 C292 0.959 . S
H281 C295 0.929 . S
H282 C296 0.931 . S
H283 C298 0.930 . S
C284 H272 0.930 . S
C284 C285 1.399 1_556 S
C284 C289 1.399 . S
C285 C284 1.399 1_554 S
C285 C286 1.376 . S
C286 H273 0.930 . S
C286 C285 1.376 . S
C286 C287 1.388 . S
C287 H274 0.930 . S
C287 C286 1.388 . S
C287 C288 1.390 . S
C288 C287 1.390 . S
C288 C289 1.394 1_554 S
C288 C294 1.465 . S
C289 C284 1.399 . S
C289 C288 1.394 1_556 S
C289 C290 1.516 . S
C290 C289 1.516 . S
C290 C291 1.502 . S
C290 C292 1.561 . S
C290 C293 1.526 . S
C291 H275 0.959 . S
C291 H276 0.959 . S
C291 H277 0.961 . S
C291 C290 1.502 . S
C292 H278 0.960 . S
C292 H279 0.961 . S
C292 H280 0.959 . S
C292 C290 1.561 . S
C293 C290 1.526 . S
C293 C294 1.396 1_556 S
C293 C298 1.390 . S
C294 C288 1.465 . S
C294 C293 1.396 1_554 S
C294 C295 1.399 . S
C295 H281 0.929 . S
C295 C294 1.399 . S
C295 C296 1.385 . S
C296 H282 0.931 . S
C296 C295 1.385 . S
C296 C297 1.389 . S
C297 C296 1.389 . S
C297 C298 1.387 1_554 S
C298 H283 0.930 . S
C298 C293 1.390 . S
C298 C297 1.387 1_556 S
H299 C311 0.930 . S
H300 C313 0.930 . S
H301 C314 0.930 1_565 S
H302 C318 0.959 . S
H303 C318 0.959 . S
H304 C318 0.961 . S
H305 C319 0.960 . S
H306 C319 0.961 . S
H307 C319 0.959 . S
H308 C322 0.929 . S
H309 C323 0.931 . S
H310 C325 0.930 . S
C311 H299 0.930 . S
C311 C312 1.399 . S
C311 C316 1.399 . S
C312 C311 1.399 . S
C312 C313 1.376 . S
C313 H300 0.930 . S
C313 C312 1.376 . S
C313 C314 1.388 . S
C314 H301 0.930 1_545 S
C314 C313 1.388 . S
C314 C315 1.390 . S
C315 C314 1.390 . S
C315 C316 1.394 . S
C315 C321 1.465 1_545 S
C316 C311 1.399 . S
C316 C315 1.394 . S
C316 C317 1.516 . S
C317 C316 1.516 . S
C317 C318 1.502 . S
C317 C319 1.561 . S
C317 C320 1.526 1_545 S
C318 H302 0.959 . S
C318 H303 0.959 . S
C318 H304 0.961 . S
C318 C317 1.502 . S
C319 H305 0.960 . S
C319 H306 0.961 . S
C319 H307 0.959 . S
C319 C317 1.561 . S
C320 C317 1.526 1_565 S
C320 C321 1.396 . S
C320 C325 1.390 . S
C321 C315 1.465 1_565 S
C321 C320 1.396 . S
C321 C322 1.399 . S
C322 H308 0.929 . S
C322 C321 1.399 . S
C322 C323 1.385 . S
C323 H309 0.931 . S
C323 C322 1.385 . S
C323 C324 1.389 . S
C324 C323 1.389 . S
C324 C325 1.387 . S
C325 H310 0.930 . S
C325 C320 1.390 . S
C325 C324 1.387 . S
H326 C338 0.930 . S
H327 C340 0.930 . S
H328 C341 0.930 . S
H329 C345 0.959 1_645 S
H330 C345 0.959 1_545 S
H331 C345 0.961 1_655 S
H332 C346 0.960 . S
H333 C346 0.961 . S
H334 C346 0.959 . S
H335 C349 0.929 . S
H336 C350 0.931 . S
H337 C352 0.930 . S
C338 H326 0.930 . S
C338 C339 1.399 . S
C338 C343 1.399 1_655 S
C339 C338 1.399 . S
C339 C340 1.376 . S
C340 H327 0.930 . S
C340 C339 1.376 . S
C340 C341 1.388 1_655 S
C341 H328 0.930 . S
C341 C340 1.388 1_455 S
C341 C342 1.390 . S
C342 C341 1.390 . S
C342 C343 1.394 . S
C342 C348 1.465 . S
C343 C338 1.399 1_455 S
C343 C342 1.394 . S
C343 C344 1.516 . S
C344 C343 1.516 . S
C344 C345 1.502 . S
C344 C346 1.561 . S
C344 C347 1.526 . S
C345 H329 0.959 1_465 S
C345 H330 0.959 1_565 S
C345 H331 0.961 1_455 S
C345 C344 1.502 . S
C346 H332 0.960 . S
C346 H333 0.961 . S
C346 H334 0.959 . S
C346 C344 1.561 . S
C347 C344 1.526 . S
C347 C348 1.396 . S
C347 C352 1.390 1_565 S
C348 C342 1.465 . S
C348 C347 1.396 . S
C348 C349 1.398 . S
C349 H335 0.929 . S
C349 C348 1.398 . S
C349 C350 1.386 1_565 S
C350 H336 0.931 . S
C350 C349 1.386 1_545 S
C350 C351 1.389 . S
C351 C350 1.389 . S
C351 C352 1.387 . S
C352 H337 0.930 . S
C352 C347 1.390 1_545 S
C352 C351 1.387 . S
H353 C365 0.930 . S
H354 C367 0.930 . S
H355 C368 0.930 . S
H356 C372 0.959 . S
H357 C372 0.959 . S
H358 C372 0.961 . S
H359 C373 0.960 . S
H360 C373 0.961 1_655 S
H361 C373 0.959 . S
H362 C376 0.929 1_455 S
H363 C377 0.931 . S
H364 C379 0.930 . S
C365 H353 0.930 . S
C365 C366 1.399 . S
C365 C370 1.399 . S
C366 C365 1.399 . S
C366 C367 1.376 . S
C367 H354 0.930 . S
C367 C366 1.376 . S
C367 C368 1.388 . S
C368 H355 0.930 . S
C368 C367 1.388 . S
C368 C369 1.390 . S
C369 C368 1.390 . S
C369 C370 1.394 . S
C369 C375 1.465 1_455 S
C370 C365 1.399 . S
C370 C369 1.394 . S
C370 C371 1.516 1_455 S
C371 C370 1.516 1_655 S
C371 C372 1.502 . S
C371 C373 1.561 1_655 S
C371 C374 1.526 . S
C372 H356 0.959 . S
C372 H357 0.959 . S
C372 H358 0.961 . S
C372 C371 1.502 . S
C373 H359 0.960 . S
C373 H360 0.961 1_455 S
C373 H361 0.959 . S
C373 C371 1.561 1_455 S
C374 C371 1.526 . S
C374 C375 1.396 . S
C374 C379 1.390 . S
C375 C369 1.465 1_655 S
C375 C374 1.396 . S
C375 C376 1.399 . S
C376 H362 0.929 1_655 S
C376 C375 1.399 . S
C376 C377 1.385 . S
C377 H363 0.931 . S
C377 C376 1.385 . S
C377 C378 1.389 . S
C378 C377 1.389 . S
C378 C379 1.387 . S
C379 H364 0.930 . S
C379 C374 1.390 . S
C379 C378 1.387 . S
H380 C392 0.930 . S
H381 C394 0.930 . S
H382 C395 0.930 . S
H383 C399 0.959 . S
H384 C399 0.959 . S
H385 C399 0.961 . S
H386 C400 0.960 . S
H387 C400 0.961 . S
H388 C400 0.959 . S
H389 C403 0.929 . S
H390 C404 0.931 . S
H391 C406 0.930 . S
C392 H380 0.930 . S
C392 C393 1.399 . S
C392 C397 1.399 . S
C393 C392 1.399 . S
C393 C394 1.376 . S
C394 H381 0.930 . S
C394 C393 1.376 . S
C394 C395 1.388 . S
C395 H382 0.930 . S
C395 C394 1.388 . S
C395 C396 1.390 . S
C396 C395 1.390 . S
C396 C397 1.394 . S
C396 C402 1.465 . S
C397 C392 1.399 . S
C397 C396 1.394 . S
C397 C398 1.516 . S
C398 C397 1.516 . S
C398 C399 1.502 . S
C398 C400 1.561 . S
C398 C401 1.526 . S
C399 H383 0.959 . S
C399 H384 0.959 . S
C399 H385 0.961 . S
C399 C398 1.502 . S
C400 H386 0.960 . S
C400 H387 0.961 . S
C400 H388 0.959 . S
C400 C398 1.561 . S
C401 C398 1.526 . S
C401 C402 1.396 . S
C401 C406 1.390 . S
C402 C396 1.465 . S
C402 C401 1.396 . S
C402 C403 1.399 . S
C403 H389 0.929 . S
C403 C402 1.399 . S
C403 C404 1.385 . S
C404 H390 0.931 . S
C404 C403 1.385 . S
C404 C405 1.389 . S
C405 C404 1.389 . S
C405 C406 1.387 . S
C406 H391 0.930 . S
C406 C401 1.390 . S
C406 C405 1.387 . S
H407 C419 0.930 . S
H408 C421 0.930 . S
H409 C422 0.930 . S
H410 C426 0.959 . S
H411 C426 0.959 . S
H412 C426 0.961 . S
H413 C427 0.960 . S
H414 C427 0.961 . S
H415 C427 0.959 . S
H416 C430 0.929 . S
H417 C431 0.931 . S
H418 C433 0.930 . S
C419 H407 0.930 . S
C419 C420 1.399 . S
C419 C424 1.399 . S
C420 C419 1.399 . S
C420 C421 1.376 . S
C421 H408 0.930 . S
C421 C420 1.376 . S
C421 C422 1.388 . S
C422 H409 0.930 . S
C422 C421 1.388 . S
C422 C423 1.390 . S
C423 C422 1.390 . S
C423 C424 1.394 . S
C423 C429 1.465 . S
C424 C419 1.399 . S
C424 C423 1.394 . S
C424 C425 1.516 . S
C425 C424 1.516 . S
C425 C426 1.502 . S
C425 C427 1.561 . S
C425 C428 1.526 . S
C426 H410 0.959 . S
C426 H411 0.959 . S
C426 H412 0.961 . S
C426 C425 1.502 . S
C427 H413 0.960 . S
C427 H414 0.961 . S
C427 H415 0.959 . S
C427 C425 1.561 . S
C428 C425 1.526 . S
C428 C429 1.396 . S
C428 C433 1.390 . S
C429 C423 1.465 . S
C429 C428 1.396 . S
C429 C430 1.399 . S
C430 H416 0.929 . S
C430 C429 1.399 . S
C430 C431 1.385 . S
C431 H417 0.931 . S
C431 C430 1.385 . S
C431 C432 1.389 . S
C432 C431 1.389 . S
C432 C433 1.387 . S
C433 H418 0.930 . S
C433 C428 1.390 . S
C433 C432 1.387 . S
H434 C446 0.930 . S
H435 C448 0.930 . S
H436 C449 0.930 1_554 S
H437 C453 0.959 . S
H438 C453 0.959 . S
H439 C453 0.961 . S
H440 C454 0.960 . S
H441 C454 0.961 . S
H442 C454 0.959 . S
H443 C457 0.929 . S
H444 C458 0.931 . S
H445 C460 0.930 . S
C446 H434 0.930 . S
C446 C447 1.399 . S
C446 C451 1.399 1_556 S
C447 C446 1.399 . S
C447 C448 1.376 . S
C448 H435 0.930 . S
C448 C447 1.376 . S
C448 C449 1.388 . S
C449 H436 0.930 1_556 S
C449 C448 1.388 . S
C449 C450 1.390 1_556 S
C450 C449 1.390 1_554 S
C450 C451 1.394 . S
C450 C456 1.465 . S
C451 C446 1.399 1_554 S
C451 C450 1.394 . S
C451 C452 1.516 . S
C452 C451 1.516 . S
C452 C453 1.502 . S
C452 C454 1.561 . S
C452 C455 1.526 . S
C453 H437 0.959 . S
C453 H438 0.959 . S
C453 H439 0.961 . S
C453 C452 1.502 . S
C454 H440 0.960 . S
C454 H441 0.961 . S
C454 H442 0.959 . S
C454 C452 1.561 . S
C455 C452 1.526 . S
C455 C456 1.396 . S
C455 C460 1.390 . S
C456 C450 1.465 . S
C456 C455 1.396 . S
C456 C457 1.399 . S
C457 H443 0.929 . S
C457 C456 1.399 . S
C457 C458 1.385 . S
C458 H444 0.931 . S
C458 C457 1.385 . S
C458 C459 1.389 . S
C459 C458 1.389 . S
C459 C460 1.387 . S
C460 H445 0.930 . S
C460 C455 1.390 . S
C460 C459 1.387 . S
H461 C473 0.930 . S
H462 C475 0.930 . S
H463 C476 0.930 . S
H464 C480 0.959 . S
H465 C480 0.959 . S
H466 C480 0.961 . S
H467 C481 0.960 . S
H468 C481 0.961 . S
H469 C481 0.959 . S
H470 C484 0.929 . S
H471 C485 0.931 . S
H472 C487 0.930 . S
C473 H461 0.930 . S
C473 C474 1.399 . S
C473 C478 1.399 . S
C474 C473 1.399 . S
C474 C475 1.376 . S
C475 H462 0.930 . S
C475 C474 1.376 . S
C475 C476 1.388 . S
C476 H463 0.930 . S
C476 C475 1.388 . S
C476 C477 1.390 . S
C477 C476 1.390 . S
C477 C478 1.394 . S
C477 C483 1.465 . S
C478 C473 1.399 . S
C478 C477 1.394 . S
C478 C479 1.516 . S
C479 C478 1.516 . S
C479 C480 1.502 . S
C479 C481 1.561 . S
C479 C482 1.526 . S
C480 H464 0.959 . S
C480 H465 0.959 . S
C480 H466 0.961 . S
C480 C479 1.502 . S
C481 H467 0.960 . S
C481 H468 0.961 . S
C481 H469 0.959 . S
C481 C479 1.561 . S
C482 C479 1.526 . S
C482 C483 1.396 . S
C482 C487 1.390 . S
C483 C477 1.465 . S
C483 C482 1.396 . S
C483 C484 1.399 . S
C484 H470 0.929 . S
C484 C483 1.399 . S
C484 C485 1.385 . S
C485 H471 0.931 . S
C485 C484 1.385 . S
C485 C486 1.389 . S
C486 C485 1.389 . S
C486 C487 1.387 . S
C487 H472 0.930 . S
C487 C482 1.390 . S
C487 C486 1.387 . S
H488 C500 0.930 . S
H489 C502 0.930 . S
H490 C503 0.930 . S
H491 C507 0.959 . S
H492 C507 0.959 . S
H493 C507 0.961 . S
H494 C508 0.960 . S
H495 C508 0.961 . S
H496 C508 0.959 . S
H497 C511 0.929 . S
H498 C512 0.931 . S
H499 C514 0.930 . S
C500 H488 0.930 . S
C500 C501 1.399 . S
C500 C505 1.399 . S
C501 C500 1.399 . S
C501 C502 1.376 . S
C502 H489 0.930 . S
C502 C501 1.376 . S
C502 C503 1.388 . S
C503 H490 0.930 . S
C503 C502 1.388 . S
C503 C504 1.390 . S
C504 C503 1.390 . S
C504 C505 1.394 . S
C504 C510 1.465 . S
C505 C500 1.399 . S
C505 C504 1.394 . S
C505 C506 1.516 . S
C506 C505 1.516 . S
C506 C507 1.502 . S
C506 C508 1.561 . S
C506 C509 1.526 . S
C507 H491 0.959 . S
C507 H492 0.959 . S
C507 H493 0.961 . S
C507 C506 1.502 . S
C508 H494 0.960 . S
C508 H495 0.961 . S
C508 H496 0.959 . S
C508 C506 1.561 . S
C509 C506 1.526 . S
C509 C510 1.396 . S
C509 C514 1.390 . S
C510 C504 1.465 . S
C510 C509 1.396 . S
C510 C511 1.399 . S
C511 H497 0.929 . S
C511 C510 1.399 . S
C511 C512 1.385 . S
C512 H498 0.931 . S
C512 C511 1.385 . S
C512 C513 1.389 . S
C513 C512 1.389 . S
C513 C514 1.387 . S
C514 H499 0.930 . S
C514 C509 1.390 . S
C514 C513 1.387 . S
H515 C527 0.930 . S
H516 C529 0.930 . S
H517 C530 0.930 . S
H518 C534 0.959 . S
H519 C534 0.959 . S
H520 C534 0.957 1_554 S
H521 C535 0.960 . S
H522 C535 0.961 . S
H523 C535 0.959 . S
H524 C538 0.929 . S
H525 C539 0.931 . S
H526 C541 0.930 . S
C527 H515 0.930 . S
C527 C528 1.399 . S
C527 C532 1.399 . S
C528 C527 1.399 . S
C528 C529 1.376 . S
C529 H516 0.930 . S
C529 C528 1.376 . S
C529 C530 1.388 . S
C530 H517 0.930 . S
C530 C529 1.388 . S
C530 C531 1.390 . S
C531 C530 1.390 . S
C531 C532 1.394 . S
C531 C537 1.465 1_554 S
C532 C527 1.399 . S
C532 C531 1.394 . S
C532 C533 1.516 1_554 S
C533 C532 1.516 1_556 S
C533 C534 1.502 . S
C533 C535 1.561 . S
C533 C536 1.526 . S
C534 H518 0.959 . S
C534 H519 0.959 . S
C534 H520 0.957 1_556 S
C534 C533 1.502 . S
C535 H521 0.960 . S
C535 H522 0.961 . S
C535 H523 0.959 . S
C535 C533 1.561 . S
C536 C533 1.526 . S
C536 C537 1.396 . S
C536 C541 1.390 . S
C537 C531 1.465 1_556 S
C537 C536 1.396 . S
C537 C538 1.399 . S
C538 H524 0.929 . S
C538 C537 1.399 . S
C538 C539 1.385 . S
C539 H525 0.931 . S
C539 C538 1.385 . S
C539 C540 1.389 . S
C540 C539 1.389 . S
C540 C541 1.387 . S
C541 H526 0.930 . S
C541 C536 1.390 . S
C541 C540 1.387 . S
H542 C554 0.930 . S
H543 C556 0.930 . S
H544 C557 0.930 . S
H545 C561 0.959 . S
H546 C561 0.959 . S
H547 C561 0.961 . S
H548 C562 0.960 . S
H549 C562 0.961 . S
H550 C562 0.959 . S
H551 C565 0.929 . S
H552 C566 0.931 . S
H553 C568 0.930 . S
C554 H542 0.930 . S
C554 C555 1.399 . S
C554 C559 1.399 . S
C555 C554 1.399 . S
C555 C556 1.376 . S
C556 H543 0.930 . S
C556 C555 1.376 . S
C556 C557 1.388 . S
C557 H544 0.930 . S
C557 C556 1.388 . S
C557 C558 1.390 . S
C558 C557 1.390 . S
C558 C559 1.394 . S
C558 C564 1.465 . S
C559 C554 1.399 . S
C559 C558 1.394 . S
C559 C560 1.516 . S
C560 C559 1.516 . S
C560 C561 1.502 . S
C560 C562 1.561 . S
C560 C563 1.526 . S
C561 H545 0.959 . S
C561 H546 0.959 . S
C561 H547 0.961 . S
C561 C560 1.502 . S
C562 H548 0.960 . S
C562 H549 0.961 . S
C562 H550 0.959 . S
C562 C560 1.561 . S
C563 C560 1.526 . S
C563 C564 1.396 . S
C563 C568 1.390 . S
C564 C558 1.465 . S
C564 C563 1.396 . S
C564 C565 1.399 . S
C565 H551 0.929 . S
C565 C564 1.399 . S
C565 C566 1.385 . S
C566 H552 0.931 . S
C566 C565 1.385 . S
C566 C567 1.389 . S
C567 C566 1.389 . S
C567 C568 1.387 . S
C568 H553 0.930 . S
C568 C563 1.390 . S
C568 C567 1.387 . S
H569 C581 0.930 . S
H570 C583 0.930 . S
H571 C584 0.930 . S
H572 C588 0.959 . S
H573 C588 0.959 . S
H574 C588 0.961 . S
H575 C589 0.960 . S
H576 C589 0.961 . S
H577 C589 0.959 . S
H578 C592 0.929 . S
H579 C593 0.931 . S
H580 C595 0.930 . S
C581 H569 0.930 . S
C581 C582 1.399 . S
C581 C586 1.399 . S
C582 C581 1.399 . S
C582 C583 1.376 . S
C583 H570 0.930 . S
C583 C582 1.376 . S
C583 C584 1.388 . S
C584 H571 0.930 . S
C584 C583 1.388 . S
C584 C585 1.390 . S
C585 C584 1.390 . S
C585 C586 1.394 . S
C585 C591 1.465 . S
C586 C581 1.399 . S
C586 C585 1.394 . S
C586 C587 1.516 . S
C587 C586 1.516 . S
C587 C588 1.502 . S
C587 C589 1.561 . S
C587 C590 1.526 . S
C588 H572 0.959 . S
C588 H573 0.959 . S
C588 H574 0.961 . S
C588 C587 1.502 . S
C589 H575 0.960 . S
C589 H576 0.961 . S
C589 H577 0.959 . S
C589 C587 1.561 . S
C590 C587 1.526 . S
C590 C591 1.396 . S
C590 C595 1.390 . S
C591 C585 1.465 . S
C591 C590 1.396 . S
C591 C592 1.399 . S
C592 H578 0.929 . S
C592 C591 1.399 . S
C592 C593 1.385 . S
C593 H579 0.931 . S
C593 C592 1.385 . S
C593 C594 1.389 . S
C594 C593 1.389 . S
C594 C595 1.387 . S
C595 H580 0.930 . S
C595 C590 1.390 . S
C595 C594 1.387 . S
H596 C608 0.930 . S
H597 C610 0.930 . S
H598 C611 0.930 . S
H599 C615 0.959 . S
H600 C615 0.959 . S
H601 C615 0.961 . S
H602 C616 0.960 . S
H603 C616 0.961 . S
H604 C616 0.959 . S
H605 C619 0.929 . S
H606 C620 0.931 . S
H607 C622 0.930 . S
C608 H596 0.930 . S
C608 C609 1.399 . S
C608 C613 1.399 . S
C609 C608 1.399 . S
C609 C610 1.376 . S
C610 H597 0.930 . S
C610 C609 1.376 . S
C610 C611 1.388 . S
C611 H598 0.930 . S
C611 C610 1.388 . S
C611 C612 1.390 . S
C612 C611 1.390 . S
C612 C613 1.394 . S
C612 C618 1.465 . S
C613 C608 1.399 . S
C613 C612 1.394 . S
C613 C614 1.516 . S
C614 C613 1.516 . S
C614 C615 1.502 . S
C614 C616 1.561 . S
C614 C617 1.526 . S
C615 H599 0.959 . S
C615 H600 0.959 . S
C615 H601 0.961 . S
C615 C614 1.502 . S
C616 H602 0.960 . S
C616 H603 0.961 . S
C616 H604 0.959 . S
C616 C614 1.561 . S
C617 C614 1.526 . S
C617 C618 1.396 . S
C617 C622 1.390 . S
C618 C612 1.465 . S
C618 C617 1.396 . S
C618 C619 1.399 . S
C619 H605 0.929 . S
C619 C618 1.399 . S
C619 C620 1.385 . S
C620 H606 0.931 . S
C620 C619 1.385 . S
C620 C621 1.389 . S
C621 C620 1.389 . S
C621 C622 1.387 . S
C622 H607 0.930 . S
C622 C617 1.390 . S
C622 C621 1.387 . S
H623 C635 0.930 . S
H624 C637 0.930 . S
H625 C638 0.930 . S
H626 C642 0.959 . S
H627 C642 0.959 . S
H628 C642 0.961 . S
H629 C643 0.960 . S
H630 C643 0.961 . S
H631 C643 0.959 . S
H632 C646 0.929 . S
H633 C647 0.931 . S
H634 C649 0.930 . S
C635 H623 0.930 . S
C635 C636 1.399 . S
C635 C640 1.399 . S
C636 C635 1.399 . S
C636 C637 1.376 . S
C637 H624 0.930 . S
C637 C636 1.376 . S
C637 C638 1.388 . S
C638 H625 0.930 . S
C638 C637 1.388 . S
C638 C639 1.390 . S
C639 C638 1.390 . S
C639 C640 1.394 . S
C639 C645 1.465 . S
C640 C635 1.399 . S
C640 C639 1.394 . S
C640 C641 1.516 . S
C641 C640 1.516 . S
C641 C642 1.502 . S
C641 C643 1.561 . S
C641 C644 1.526 . S
C642 H626 0.959 . S
C642 H627 0.959 . S
C642 H628 0.961 . S
C642 C641 1.502 . S
C643 H629 0.960 . S
C643 H630 0.961 . S
C643 H631 0.959 . S
C643 C641 1.561 . S
C644 C641 1.526 . S
C644 C645 1.396 . S
C644 C649 1.390 . S
C645 C639 1.465 . S
C645 C644 1.396 . S
C645 C646 1.399 . S
C646 H632 0.929 . S
C646 C645 1.399 . S
C646 C647 1.385 . S
C647 H633 0.931 . S
C647 C646 1.385 . S
C647 C648 1.389 . S
C648 C647 1.389 . S
C648 C649 1.387 . S
C649 H634 0.930 . S
C649 C644 1.390 . S
C649 C648 1.387 . S
H650 C662 0.930 . S
H651 C664 0.930 . S
H652 C665 0.930 . S
H653 C669 0.959 . S
H654 C669 0.959 . S
H655 C669 0.961 . S
H656 C670 0.960 . S
H657 C670 0.961 . S
H658 C670 0.959 . S
H659 C673 0.929 . S
H660 C674 0.931 . S
H661 C676 0.930 . S
C662 H650 0.930 . S
C662 C663 1.399 . S
C662 C667 1.399 . S
C663 C662 1.399 . S
C663 C664 1.376 . S
C664 H651 0.930 . S
C664 C663 1.376 . S
C664 C665 1.388 . S
C665 H652 0.930 . S
C665 C664 1.388 . S
C665 C666 1.390 . S
C666 C665 1.390 . S
C666 C667 1.394 . S
C666 C672 1.465 . S
C667 C662 1.399 . S
C667 C666 1.394 . S
C667 C668 1.516 . S
C668 C667 1.516 . S
C668 C669 1.502 . S
C668 C670 1.561 . S
C668 C671 1.526 . S
C669 H653 0.959 . S
C669 H654 0.959 . S
C669 H655 0.961 . S
C669 C668 1.502 . S
C670 H656 0.960 . S
C670 H657 0.961 . S
C670 H658 0.959 . S
C670 C668 1.561 . S
C671 C668 1.526 . S
C671 C672 1.396 . S
C671 C676 1.390 . S
C672 C666 1.465 . S
C672 C671 1.396 . S
C672 C673 1.399 . S
C673 H659 0.929 . S
C673 C672 1.399 . S
C673 C674 1.385 . S
C674 H660 0.931 . S
C674 C673 1.385 . S
C674 C675 1.389 . S
C675 C674 1.389 . S
C675 C676 1.387 . S
C676 H661 0.930 . S
C676 C671 1.390 . S
C676 C675 1.387 . S
H677 C689 0.930 . S
H678 C691 0.930 . S
H679 C692 0.930 . S
H680 C696 0.959 . S
H681 C696 0.959 . S
H682 C696 0.961 . S
H683 C697 0.960 . S
H684 C697 0.961 . S
H685 C697 0.959 . S
H686 C700 0.929 . S
H687 C701 0.931 . S
H688 C703 0.930 . S
C689 H677 0.930 . S
C689 C690 1.399 . S
C689 C694 1.399 . S
C690 C689 1.399 . S
C690 C691 1.376 . S
C691 H678 0.930 . S
C691 C690 1.376 . S
C691 C692 1.388 . S
C692 H679 0.930 . S
C692 C691 1.388 . S
C692 C693 1.390 . S
C693 C692 1.390 . S
C693 C694 1.394 . S
C693 C699 1.465 . S
C694 C689 1.399 . S
C694 C693 1.394 . S
C694 C695 1.516 . S
C695 C694 1.516 . S
C695 C696 1.502 . S
C695 C697 1.561 . S
C695 C698 1.526 . S
C696 H680 0.959 . S
C696 H681 0.959 . S
C696 H682 0.961 . S
C696 C695 1.502 . S
C697 H683 0.960 . S
C697 H684 0.961 . S
C697 H685 0.959 . S
C697 C695 1.561 . S
C698 C695 1.526 . S
C698 C699 1.396 . S
C698 C703 1.390 . S
C699 C693 1.465 . S
C699 C698 1.396 . S
C699 C700 1.399 . S
C700 H686 0.929 . S
C700 C699 1.399 . S
C700 C701 1.385 . S
C701 H687 0.931 . S
C701 C700 1.385 . S
C701 C702 1.389 . S
C702 C701 1.389 . S
C702 C703 1.387 . S
C703 H688 0.930 . S
C703 C698 1.390 . S
C703 C702 1.387 . S
H704 C716 0.930 . S
H705 C718 0.930 . S
H706 C719 0.930 . S
H707 C723 0.959 . S
H708 C723 0.959 . S
H709 C723 0.961 . S
H710 C724 0.960 . S
H711 C724 0.961 . S
H712 C724 0.959 . S
H713 C727 0.929 . S
H714 C728 0.931 . S
H715 C730 0.930 . S
C716 H704 0.930 . S
C716 C717 1.399 . S
C716 C721 1.399 . S
C717 C716 1.399 . S
C717 C718 1.376 . S
C718 H705 0.930 . S
C718 C717 1.376 . S
C718 C719 1.388 . S
C719 H706 0.930 . S
C719 C718 1.388 . S
C719 C720 1.390 . S
C720 C719 1.390 . S
C720 C721 1.394 . S
C720 C726 1.465 . S
C721 C716 1.399 . S
C721 C720 1.394 . S
C721 C722 1.516 . S
C722 C721 1.516 . S
C722 C723 1.502 . S
C722 C724 1.561 . S
C722 C725 1.526 . S
C723 H707 0.959 . S
C723 H708 0.959 . S
C723 H709 0.961 . S
C723 C722 1.502 . S
C724 H710 0.960 . S
C724 H711 0.961 . S
C724 H712 0.959 . S
C724 C722 1.561 . S
C725 C722 1.526 . S
C725 C726 1.396 . S
C725 C730 1.390 . S
C726 C720 1.465 . S
C726 C725 1.396 . S
C726 C727 1.399 . S
C727 H713 0.929 . S
C727 C726 1.399 . S
C727 C728 1.385 . S
C728 H714 0.931 . S
C728 C727 1.385 . S
C728 C729 1.389 . S
C729 C728 1.389 . S
C729 C730 1.387 . S
C730 H715 0.930 . S
C730 C725 1.390 . S
C730 C729 1.387 . S
H731 C743 0.930 . S
H732 C745 0.930 . S
H733 C746 0.930 . S
H734 C750 0.959 . S
H735 C750 0.959 . S
H736 C750 0.961 . S
H737 C751 0.960 . S
H738 C751 0.961 . S
H739 C751 0.959 . S
H740 C754 0.929 . S
H741 C755 0.931 . S
H742 C757 0.930 . S
C743 H731 0.930 . S
C743 C744 1.399 . S
C743 C748 1.399 . S
C744 C743 1.399 . S
C744 C745 1.376 . S
C745 H732 0.930 . S
C745 C744 1.376 . S
C745 C746 1.388 . S
C746 H733 0.930 . S
C746 C745 1.388 . S
C746 C747 1.390 . S
C747 C746 1.390 . S
C747 C748 1.394 . S
C747 C753 1.465 . S
C748 C743 1.399 . S
C748 C747 1.394 . S
C748 C749 1.516 . S
C749 C748 1.516 . S
C749 C750 1.502 . S
C749 C751 1.561 . S
C749 C752 1.526 . S
C750 H734 0.959 . S
C750 H735 0.959 . S
C750 H736 0.961 . S
C750 C749 1.502 . S
C751 H737 0.960 . S
C751 H738 0.961 . S
C751 H739 0.959 . S
C751 C749 1.561 . S
C752 C749 1.526 . S
C752 C753 1.396 . S
C752 C757 1.390 . S
C753 C747 1.465 . S
C753 C752 1.396 . S
C753 C754 1.399 . S
C754 H740 0.929 . S
C754 C753 1.399 . S
C754 C755 1.385 . S
C755 H741 0.931 . S
C755 C754 1.385 . S
C755 C756 1.389 . S
C756 C755 1.389 . S
C756 C757 1.387 . S
C757 H742 0.930 . S
C757 C752 1.390 . S
C757 C756 1.387 . S
H758 C770 0.930 . S
H759 C772 0.930 1_554 S
H760 C773 0.930 . S
H761 C777 0.959 . S
H762 C777 0.959 . S
H763 C777 0.961 . S
H764 C778 0.960 . S
H765 C778 0.961 . S
H766 C778 0.962 . S
H767 C781 0.929 . S
H768 C782 0.931 . S
H769 C784 0.930 . S
C770 H758 0.930 . S
C770 C771 1.399 . S
C770 C775 1.399 . S
C771 C770 1.399 . S
C771 C772 1.376 . S
C772 H759 0.930 1_556 S
C772 C771 1.376 . S
C772 C773 1.388 . S
C773 H760 0.930 . S
C773 C772 1.388 . S
C773 C774 1.390 . S
C774 C773 1.390 . S
C774 C775 1.394 . S
C774 C780 1.465 . S
C775 C770 1.399 . S
C775 C774 1.394 . S
C775 C776 1.516 . S
C776 C775 1.516 . S
C776 C777 1.502 . S
C776 C778 1.561 . S
C776 C779 1.526 . S
C777 H761 0.959 . S
C777 H762 0.959 . S
C777 H763 0.961 . S
C777 C776 1.502 . S
C778 H764 0.960 . S
C778 H765 0.961 . S
C778 H766 0.962 . S
C778 C776 1.561 . S
C779 C776 1.526 . S
C779 C780 1.396 . S
C779 C784 1.390 . S
C780 C774 1.465 . S
C780 C779 1.396 . S
C780 C781 1.399 . S
C781 H767 0.929 . S
C781 C780 1.399 . S
C781 C782 1.385 . S
C782 H768 0.931 . S
C782 C781 1.385 . S
C782 C783 1.389 . S
C783 C782 1.389 . S
C783 C784 1.387 . S
C784 H769 0.930 . S
C784 C779 1.390 . S
C784 C783 1.387 . S
H785 C797 0.930 . S
H786 C799 0.930 1_556 S
H787 C800 0.930 . S
H788 C804 0.959 . S
H789 C804 0.959 . S
H790 C804 0.961 . S
H791 C805 0.960 . S
H792 C805 0.961 . S
H793 C805 0.959 . S
H794 C808 0.929 . S
H795 C809 0.931 . S
H796 C811 0.930 . S
C797 H785 0.930 . S
C797 C798 1.399 . S
C797 C802 1.399 . S
C798 C797 1.399 . S
C798 C799 1.376 . S
C799 H786 0.930 1_554 S
C799 C798 1.376 . S
C799 C800 1.388 . S
C800 H787 0.930 . S
C800 C799 1.388 . S
C800 C801 1.390 . S
C801 C800 1.390 . S
C801 C802 1.394 . S
C801 C807 1.465 . S
C802 C797 1.399 . S
C802 C801 1.394 . S
C802 C803 1.516 . S
C803 C802 1.516 . S
C803 C804 1.502 . S
C803 C805 1.561 . S
C803 C806 1.526 . S
C804 H788 0.959 . S
C804 H789 0.959 . S
C804 H790 0.961 . S
C804 C803 1.502 . S
C805 H791 0.960 . S
C805 H792 0.961 . S
C805 H793 0.959 . S
C805 C803 1.561 . S
C806 C803 1.526 . S
C806 C807 1.396 . S
C806 C811 1.390 . S
C807 C801 1.465 . S
C807 C806 1.396 . S
C807 C808 1.399 . S
C808 H794 0.929 . S
C808 C807 1.399 . S
C808 C809 1.385 . S
C809 H795 0.931 . S
C809 C808 1.385 . S
C809 C810 1.389 . S
C810 C809 1.389 . S
C810 C811 1.387 . S
C811 H796 0.930 . S
C811 C806 1.390 . S
C811 C810 1.387 . S
C285 C258 1.433 . S
C297 C20 1.431 . S
C312 C156 1.516 . S
C324 C54 1.490 . S
C339 C190 1.643 . S
C351 C88 1.629 . S
C366 C224 1.543 . S
C378 C122 1.534 . S
C393 C5 1.275 . S
C405 C9 1.215 . S
C420 C43 1.209 . S
C432 C39 1.213 . S
C447 C77 1.219 . S
C459 C73 1.268 . S
C474 C111 1.260 . S
C486 C107 1.286 . S
C501 C145 1.282 . S
C513 C141 1.273 . S
C528 C179 1.262 . S
C540 C175 1.311 . S
C555 C213 1.188 . S
C567 C209 1.238 1_554 S
C582 C243 1.218 . S
C594 C247 1.167 . S
C609 C237 1.444 . S
C621 C2 1.415 1_556 S
C636 C36 1.378 . S
C648 C240 1.381 . S
C663 C169 1.673 . S
C675 C101 1.652 . S
C690 C135 1.659 . S
C702 C203 1.685 . S
C717 C172 1.702 . S
C729 C67 1.699 . S
C744 C70 1.666 . S
C756 C206 1.649 . S
C771 C271 1.582 1_556 S
C783 C104 1.552 . S
C798 C33 1.613 . S
C810 C138 1.590 . S
