# Generated by pormake.
# Topology wju, (5)-cn, num edge types: 1
# Building blocks:
#     Node 0, Type 0, BuildingBlock: XOMCOT_clean_sbu_0, # of connection points: 5
#     Node 1, Type 0, BuildingBlock: XOMCOT_clean_sbu_0, # of connection points: 5
#     Node 2, Type 0, BuildingBlock: XOMCOT_clean_sbu_0, # of connection points: 5
#     Node 3, Type 0, BuildingBlock: XOMCOT_clean_sbu_0, # of connection points: 5
#     Node 4, Type 0, BuildingBlock: XOMCOT_clean_sbu_0, # of connection points: 5
#     Node 5, Type 0, BuildingBlock: XOMCOT_clean_sbu_0, # of connection points: 5
#     Node 6, Type 0, BuildingBlock: XOMCOT_clean_sbu_0, # of connection points: 5
#     Node 7, Type 0, BuildingBlock: XOMCOT_clean_sbu_0, # of connection points: 5
#     Node 8, Type 0, BuildingBlock: XOMCOT_clean_sbu_0, # of connection points: 5
#     Node 9, Type 0, BuildingBlock: XOMCOT_clean_sbu_0, # of connection points: 5
#     Node 10, Type 0, BuildingBlock: XOMCOT_clean_sbu_0, # of connection points: 5
#     Node 11, Type 0, BuildingBlock: XOMCOT_clean_sbu_0, # of connection points: 5
#     Edge 12, Type (0, 0), BuildingBlock: OJICUG_clean_linker_0, # of connection points: 2
#     Edge 13, Type (0, 0), BuildingBlock: OJICUG_clean_linker_0, # of connection points: 2
#     Edge 14, Type (0, 0), BuildingBlock: OJICUG_clean_linker_0, # of connection points: 2
#     Edge 15, Type (0, 0), BuildingBlock: OJICUG_clean_linker_0, # of connection points: 2
#     Edge 16, Type (0, 0), BuildingBlock: OJICUG_clean_linker_0, # of connection points: 2
#     Edge 17, Type (0, 0), BuildingBlock: OJICUG_clean_linker_0, # of connection points: 2
#     Edge 18, Type (0, 0), BuildingBlock: OJICUG_clean_linker_0, # of connection points: 2
#     Edge 19, Type (0, 0), BuildingBlock: OJICUG_clean_linker_0, # of connection points: 2
#     Edge 20, Type (0, 0), BuildingBlock: OJICUG_clean_linker_0, # of connection points: 2
#     Edge 21, Type (0, 0), BuildingBlock: OJICUG_clean_linker_0, # of connection points: 2
#     Edge 22, Type (0, 0), BuildingBlock: OJICUG_clean_linker_0, # of connection points: 2
#     Edge 23, Type (0, 0), BuildingBlock: OJICUG_clean_linker_0, # of connection points: 2
#     Edge 24, Type (0, 0), BuildingBlock: OJICUG_clean_linker_0, # of connection points: 2
#     Edge 25, Type (0, 0), BuildingBlock: OJICUG_clean_linker_0, # of connection points: 2
#     Edge 26, Type (0, 0), BuildingBlock: OJICUG_clean_linker_0, # of connection points: 2
#     Edge 27, Type (0, 0), BuildingBlock: OJICUG_clean_linker_0, # of connection points: 2
#     Edge 28, Type (0, 0), BuildingBlock: OJICUG_clean_linker_0, # of connection points: 2
#     Edge 29, Type (0, 0), BuildingBlock: OJICUG_clean_linker_0, # of connection points: 2
#     Edge 30, Type (0, 0), BuildingBlock: OJICUG_clean_linker_0, # of connection points: 2
#     Edge 31, Type (0, 0), BuildingBlock: OJICUG_clean_linker_0, # of connection points: 2
#     Edge 32, Type (0, 0), BuildingBlock: OJICUG_clean_linker_0, # of connection points: 2
#     Edge 33, Type (0, 0), BuildingBlock: OJICUG_clean_linker_0, # of connection points: 2
#     Edge 34, Type (0, 0), BuildingBlock: OJICUG_clean_linker_0, # of connection points: 2
#     Edge 35, Type (0, 0), BuildingBlock: OJICUG_clean_linker_0, # of connection points: 2
#     Edge 36, Type (0, 0), BuildingBlock: OJICUG_clean_linker_0, # of connection points: 2
#     Edge 37, Type (0, 0), BuildingBlock: OJICUG_clean_linker_0, # of connection points: 2
#     Edge 38, Type (0, 0), BuildingBlock: OJICUG_clean_linker_0, # of connection points: 2
#     Edge 39, Type (0, 0), BuildingBlock: OJICUG_clean_linker_0, # of connection points: 2
#     Edge 40, Type (0, 0), BuildingBlock: OJICUG_clean_linker_0, # of connection points: 2
#     Edge 41, Type (0, 0), BuildingBlock: OJICUG_clean_linker_0, # of connection points: 2
# Relax obj value: 0.110
# Max RMSD: 0.149
# Mean RMSD: 0.149
data_MOF--net-wju--node1-XOMCOT_clean_sbu_0--edge1-OJICUG_clean_linker_0
_symmetry_space_group_name_H-M    P1
_symmetry_Int_Tables_number       1
_symmetry_cell_setting            triclinic
loop_
_symmetry_equiv_pos_as_xyz
'x, y, z'
_cell_length_a     21.068519
_cell_length_b     21.077366
_cell_length_c     80.13748
_cell_angle_alpha  89.994807
_cell_angle_beta   89.974538
_cell_angle_gamma 120.02677
loop_
_atom_site_label
_atom_site_type_symbol
_atom_site_fract_x
_atom_site_fract_y
_atom_site_fract_z
_atom_type_partial_charge
Co0 Co 0.32206 0.09725 0.10131 0.0
C1 C 0.29372 0.11202 0.13783 0.0
C2 C 0.31298 0.02291 0.1335 0.0
C3 C 0.30334 0.02729 0.15032 0.0
N4 N 0.30854 0.07691 0.12549 0.0
N5 N 0.29222 0.08403 0.15323 0.0
H6 H 0.28609 0.15835 0.13563 0.0
H7 H 0.32317 0.98259 0.12773 0.0
C8 C 0.17116 0.06341 0.08801 0.0
O9 O 0.20284 0.09624 0.07402 0.0
N10 N 0.33551 0.11358 0.07722 0.0
C11 C 0.38444 0.17476 0.06912 0.0
C12 C 0.38242 0.15925 0.05232 0.0
C13 C 0.30701 0.06105 0.06524 0.0
N14 N 0.33334 0.08759 0.04979 0.0
C15 C 0.40553 0.23614 0.11569 0.0
C16 C 0.35611 0.31273 0.09709 0.0
C17 C 0.41852 0.35138 0.10715 0.0
C18 C 0.44145 0.31183 0.11691 0.0
C19 C 0.32023 0.23583 0.09652 0.0
N20 N 0.34665 0.19848 0.10536 0.0
H21 H 0.42755 0.20769 0.12267 0.0
H22 H 0.27488 0.20799 0.08816 0.0
H23 H 0.42122 0.2265 0.07503 0.0
H24 H 0.26702 1.00456 0.06791 0.0
O25 O 0.42226 0.11907 0.10249 0.0
O26 O 0.32997 0.0083 0.09782 0.0
O27 O 0.20997 0.05867 0.09988 0.0
C28 C 0.401 0.05146 0.09944 0.0
H29 H 0.30492 0.99101 0.15963 0.0
H30 H 0.41662 0.19774 0.04284 0.0
H31 H 0.33654 0.3417 0.08942 0.0
H32 H 0.48968 0.33935 0.12474 0.0
Co33 Co 0.23352 0.31865 0.43463 0.0
C34 C 0.19038 0.29005 0.47114 0.0
C35 C 0.29914 0.31021 0.46682 0.0
C36 C 0.28505 0.30042 0.48363 0.0
N37 N 0.24048 0.3053 0.45881 0.0
N38 N 0.21694 0.28872 0.48654 0.0
H39 H 0.13623 0.28198 0.46894 0.0
H40 H 0.34984 0.32083 0.46105 0.0
C41 C 0.11669 0.16755 0.42139 0.0
O42 O 0.11522 0.19896 0.40739 0.0
N43 N 0.2305 0.33192 0.41054 0.0
C44 C 0.21824 0.38079 0.40244 0.0
C45 C 0.23172 0.37872 0.38564 0.0
C46 C 0.25452 0.3034 0.39857 0.0
N47 N 0.25431 0.32967 0.38312 0.0
C48 C 0.17774 0.4017 0.44905 0.0
C49 C 0.05183 0.35228 0.4304 0.0
C50 C 0.07545 0.41459 0.44048 0.0
C51 C 0.13787 0.43751 0.45026 0.0
C52 C 0.09293 0.3165 0.42983 0.0
N53 N 0.15667 0.34294 0.43869 0.0
H54 H 0.22822 0.42378 0.45603 0.0
H55 H 0.07557 0.27125 0.42145 0.0
H56 H 0.2033 0.41758 0.40836 0.0
H57 H 0.27107 0.26348 0.40124 0.0
O58 O 0.31179 0.41892 0.43578 0.0
O59 O 0.33051 0.32681 0.43112 0.0
O60 O 0.16025 0.20657 0.43323 0.0
C61 C 0.35827 0.39781 0.43273 0.0
H62 H 0.32304 0.30229 0.49295 0.0
H63 H 0.22743 0.41288 0.37616 0.0
H64 H 1.00335 0.33273 0.4227 0.0
H65 H 0.1585 0.48569 0.45811 0.0
Co66 Co 0.92249 0.22855 0.76792 0.0
C67 C 0.90801 0.18166 0.80395 0.0
C68 C 0.99106 0.29389 0.8007 0.0
C69 C 0.98538 0.27734 0.81744 0.0
N70 N 0.94168 0.23435 0.7921 0.0
N71 N 0.93265 0.20696 0.81957 0.0
H72 H 0.8652 0.12624 0.80126 0.0
H73 H 0.02816 0.34695 0.79543 0.0
C74 C 0.95644 0.11163 0.75459 0.0
O75 O 0.92407 0.11086 0.74057 0.0
N76 N 0.90692 0.22641 0.74381 0.0
C77 C 0.84602 0.21483 0.73571 0.0
C78 C 0.86177 0.22855 0.71893 0.0
C79 C 0.95962 0.25036 0.73186 0.0
N80 N 0.93335 0.25063 0.71642 0.0
C81 C 0.78364 0.17202 0.78243 0.0
C82 C 0.70667 0.0476 0.76333 0.0
C83 C 0.66819 0.07052 0.77369 0.0
C84 C 0.70793 0.13216 0.78369 0.0
C85 C 0.7836 0.08864 0.76272 0.0
N86 N 0.82113 0.15167 0.77181 0.0
H87 H 0.81222 0.22207 0.78955 0.0
H88 H 0.81131 0.07191 0.75412 0.0
H89 H 0.7943 0.20019 0.74161 0.0
H90 H 0.016 0.26646 0.73455 0.0
O91 O 0.90049 0.30674 0.76914 0.0
O92 O 1.01158 0.32559 0.76467 0.0
O93 O 0.96111 0.15514 0.76646 0.0
C94 C 0.96822 0.35327 0.76618 0.0
H95 H 0.01567 0.3155 0.82734 0.0
H96 H 0.82353 0.22476 0.70944 0.0
H97 H 0.67756 0.99975 0.75546 0.0
H98 H 0.68055 0.15227 0.79175 0.0
Co99 Co 0.70346 0.91998 0.10127 0.0
C100 C 0.73552 0.90505 0.1373 0.0
C101 C 0.70671 0.98832 0.13408 0.0
C102 C 0.71737 0.98242 0.15082 0.0
N103 N 0.71676 0.93894 0.12546 0.0
N104 N 0.73479 0.92956 0.15293 0.0
H105 H 0.74801 0.86218 0.13459 0.0
H106 H 0.69092 0.02555 0.12882 0.0
C107 C 0.85437 0.95395 0.08791 0.0
O108 O 0.82275 0.92171 0.07389 0.0
N109 N 0.69009 0.90461 0.07715 0.0
C110 C 0.64081 0.84375 0.06903 0.0
C111 C 0.64286 0.85958 0.05226 0.0
C112 C 0.71882 0.95737 0.06522 0.0
N113 N 0.69232 0.93117 0.04976 0.0
C114 C 0.62087 0.78104 0.11569 0.0
C115 C 0.66873 0.7043 0.09664 0.0
C116 C 0.60722 0.66574 0.10698 0.0
C117 C 0.58511 0.70536 0.11696 0.0
C118 C 0.70454 0.78119 0.09603 0.0
N119 N 0.67886 0.81861 0.10511 0.0
H120 H 0.59928 0.80952 0.12282 0.0
H121 H 0.7491 0.80897 0.08746 0.0
H122 H 0.60376 0.79199 0.07492 0.0
H123 H 0.75909 0.01374 0.06791 0.0
O124 O 0.60325 0.89806 0.10249 0.0
O125 O 0.69569 0.00911 0.09806 0.0
O126 O 0.81553 0.95853 0.09981 0.0
C127 C 0.62458 0.96581 0.09955 0.0
H128 H 0.70951 0.01268 0.16074 0.0
H129 H 0.60844 0.82137 0.04276 0.0
H130 H 0.68764 0.67528 0.08878 0.0
H131 H 0.53753 0.67791 0.125 0.0
Co132 Co 0.79245 0.70014 0.43459 0.0
C133 C 0.83948 0.73195 0.47064 0.0
C134 C 0.72756 0.70389 0.46741 0.0
C135 C 0.74408 0.7144 0.48415 0.0
N136 N 0.78691 0.71356 0.45879 0.0
N137 N 0.81426 0.73133 0.48627 0.0
H138 H 0.89476 0.74409 0.46794 0.0
H139 H 0.67462 0.68845 0.46215 0.0
C140 C 0.9097 0.85081 0.4212 0.0
O141 O 0.91014 0.81905 0.40719 0.0
N142 N 0.79432 0.68666 0.41047 0.0
C143 C 0.80573 0.63728 0.40235 0.0
C144 C 0.79186 0.63925 0.38558 0.0
C145 C 0.77032 0.71539 0.39854 0.0
N146 N 0.76986 0.68878 0.38309 0.0
C147 C 0.84853 0.61736 0.44899 0.0
C148 C 0.97317 0.66494 0.42993 0.0
C149 C 0.95006 0.60343 0.44027 0.0
C150 C 0.88829 0.58145 0.45024 0.0
C151 C 0.93223 0.70088 0.42933 0.0
N152 N 0.86911 0.67535 0.43841 0.0
H153 H 0.79845 0.59588 0.45612 0.0
H154 H 0.94915 0.74544 0.42076 0.0
H155 H 0.82036 0.60021 0.40824 0.0
H156 H 0.75433 0.75572 0.40124 0.0
O157 O 0.714 0.60005 0.43583 0.0
O158 O 0.69554 0.69252 0.43141 0.0
O159 O 0.86619 0.81213 0.43311 0.0
C160 C 0.66763 0.62143 0.4329 0.0
H161 H 0.706 0.70676 0.49407 0.0
H162 H 0.7955 0.60473 0.3761 0.0
H163 H 0.02113 0.68375 0.42208 0.0
H164 H 0.86803 0.53388 0.45829 0.0
Co165 Co 0.09947 0.78722 0.76802 0.0
C166 C 0.11451 0.83047 0.80453 0.0
C167 C 0.02537 0.722 0.80024 0.0
C168 C 0.02993 0.73607 0.81706 0.0
N169 N 0.07927 0.78048 0.79221 0.0
N170 N 0.0867 0.80399 0.81994 0.0
H171 H 0.16081 0.88447 0.8023 0.0
H172 H 0.985 0.67142 0.7945 0.0
C173 C 0.06569 0.90427 0.7547 0.0
O174 O 0.09845 0.90536 0.74071 0.0
N175 N 0.11569 0.79004 0.74392 0.0
C176 C 0.17685 0.80224 0.73582 0.0
C177 C 0.16132 0.78868 0.71903 0.0
C178 C 0.06312 0.76596 0.73194 0.0
N179 N 0.08964 0.7661 0.71649 0.0
C180 C 0.23845 0.84274 0.78236 0.0
C181 C 0.31511 0.96876 0.76374 0.0
C182 C 0.35376 0.94506 0.77381 0.0
C183 C 0.31417 0.88256 0.78358 0.0
C184 C 0.23818 0.9277 0.76318 0.0
N185 N 0.20078 0.86392 0.77203 0.0
H186 H 0.20998 0.79226 0.78935 0.0
H187 H 0.21033 0.94517 0.75481 0.0
H188 H 0.2286 0.8172 0.74174 0.0
H189 H 1.00662 0.74944 0.73461 0.0
O190 O 0.12128 0.70888 0.7692 0.0
O191 O 1.01045 0.69026 0.76455 0.0
O192 O 0.06092 0.86071 0.76658 0.0
C193 C 0.05363 0.66245 0.76617 0.0
H194 H 0.99377 0.69817 0.8264 0.0
H195 H 0.19982 0.79293 0.70955 0.0
H196 H 0.34411 0.0173 0.75606 0.0
H197 H 0.34167 0.86186 0.79142 0.0
Co198 Co 0.92388 0.69886 0.60219 0.0
C199 C 0.90921 0.72732 0.56568 0.0
C200 C 0.99802 0.70753 0.56999 0.0
C201 C 0.99367 0.71722 0.55317 0.0
N202 N 0.94419 0.71228 0.57801 0.0
N203 N 0.93711 0.72867 0.55027 0.0
H204 H 0.86302 0.7352 0.56789 0.0
H205 H 0.03821 0.6971 0.57575 0.0
C206 C 0.95775 0.84978 0.61547 0.0
O207 O 0.92491 0.81817 0.62946 0.0
N208 N 0.90758 0.68551 0.62629 0.0
C209 C 0.84641 0.63655 0.63439 0.0
C210 C 0.86191 0.63862 0.65119 0.0
C211 C 0.96012 0.71409 0.63827 0.0
N212 N 0.93358 0.68777 0.65372 0.0
C213 C 0.78497 0.61552 0.5878 0.0
C214 C 0.70827 0.66474 0.60644 0.0
C215 C 0.66964 0.60243 0.59635 0.0
C216 C 0.70925 0.5796 0.58657 0.0
C217 C 0.7852 0.70063 0.60701 0.0
N218 N 0.82261 0.67431 0.59815 0.0
H219 H 0.81346 0.59354 0.58081 0.0
H220 H 0.81302 0.74588 0.61539 0.0
H221 H 0.79467 0.59971 0.62847 0.0
H222 H 0.01662 0.7541 0.6356 0.0
O223 O 0.90196 0.59865 0.60103 0.0
O224 O 0.01281 0.69085 0.60568 0.0
O225 O 0.96252 0.81093 0.60361 0.0
C226 C 0.96959 0.61984 0.60407 0.0
H227 H 0.02984 0.71545 0.54385 0.0
H228 H 0.8234 0.60441 0.66067 0.0
H229 H 0.67926 0.68422 0.61413 0.0
H230 H 0.68176 0.53144 0.57872 0.0
Co231 Co 0.23307 0.91973 0.93556 0.0
C232 C 0.18586 0.90473 0.89954 0.0
C233 C 0.2982 0.98769 0.9027 0.0
C234 C 0.28153 0.98171 0.88597 0.0
N235 N 0.23867 0.93856 0.91136 0.0
N236 N 0.21107 0.92903 0.88389 0.0
H237 H 0.13041 0.86204 0.90228 0.0
H238 H 0.35134 0.02479 0.90793 0.0
C239 C 0.11616 0.9537 0.9489 0.0
O240 O 0.1154 0.92139 0.96293 0.0
N241 N 0.23112 0.9045 0.95969 0.0
C242 C 0.21963 0.84371 0.96783 0.0
C243 C 0.23343 0.8596 0.9846 0.0
C244 C 0.25511 0.95728 0.97161 0.0
N245 N 0.25548 0.93115 0.98708 0.0
C246 C 0.17659 0.78084 0.92116 0.0
C247 C 0.05207 0.70393 0.94026 0.0
C248 C 0.07495 0.66545 0.9299 0.0
C249 C 0.13667 0.70517 0.9199 0.0
C250 C 0.09316 0.78083 0.94087 0.0
N251 N 0.15621 0.81833 0.93176 0.0
H252 H 0.22666 0.80938 0.91402 0.0
H253 H 0.07644 0.80854 0.94946 0.0
H254 H 0.20498 0.79197 0.96196 0.0
H255 H 0.27118 0.01361 0.9689 0.0
O256 O 0.31135 0.89783 0.93435 0.0
O257 O 0.33009 0.00889 0.93873 0.0
O258 O 0.1596 0.95828 0.93701 0.0
C259 C 0.35784 0.96559 0.93726 0.0
H260 H 0.31966 0.01177 0.87602 0.0
H261 H 0.22971 0.82144 0.9941 0.0
H262 H 1.00417 0.67484 0.94814 0.0
H263 H 0.15676 0.67779 0.91183 0.0
Co264 Co 0.32187 0.22924 0.26891 0.0
C265 C 0.2899 0.18219 0.23287 0.0
C266 C 0.31861 0.29425 0.23608 0.0
C267 C 0.30799 0.27769 0.21934 0.0
N268 N 0.3086 0.23484 0.24471 0.0
N269 N 0.29063 0.20741 0.21723 0.0
H270 H 0.27746 0.12685 0.23558 0.0
H271 H 0.33433 0.34726 0.24133 0.0
C272 C 0.17098 0.11224 0.28226 0.0
O273 O 0.2026 0.11164 0.29629 0.0
N274 N 0.33521 0.2273 0.29303 0.0
C275 C 0.38451 0.2158 0.30116 0.0
C276 C 0.38244 0.22963 0.31793 0.0
C277 C 0.30644 0.25131 0.30495 0.0
N278 N 0.33294 0.2517 0.32041 0.0
C279 C 0.40451 0.17295 0.2545 0.0
C280 C 0.35668 0.04835 0.27356 0.0
C281 C 0.41817 0.07131 0.26322 0.0
C282 C 0.44028 0.13306 0.25324 0.0
C283 C 0.32087 0.08941 0.27417 0.0
N284 N 0.34652 0.1525 0.26509 0.0
H285 H 0.42609 0.22303 0.24738 0.0
H286 H 0.27631 0.07261 0.28275 0.0
H287 H 0.42159 0.20113 0.29529 0.0
H288 H 0.26616 0.26737 0.30225 0.0
O289 O 0.42207 0.30759 0.26769 0.0
O290 O 0.3296 0.32613 0.27209 0.0
O291 O 0.20981 0.15567 0.27037 0.0
C292 C 0.40071 0.35398 0.27061 0.0
H293 H 0.31581 0.31579 0.20942 0.0
H294 H 0.41688 0.22591 0.32743 0.0
H295 H 0.33778 1.00041 0.28142 0.0
H296 H 0.48785 0.1532 0.24519 0.0
Co297 Co 0.10085 0.31723 0.6022 0.0
C298 C 0.11578 0.28523 0.56617 0.0
C299 C 0.03225 0.31371 0.56941 0.0
C300 C 0.03819 0.30313 0.55266 0.0
N301 N 0.08178 0.30383 0.57802 0.0
N302 N 0.09123 0.28593 0.55054 0.0
H303 H 0.15877 0.2729 0.56886 0.0
H304 H 0.99492 0.32936 0.57468 0.0
C305 C 0.06695 0.16642 0.61557 0.0
O306 O 0.09919 0.19808 0.62959 0.0
N307 N 0.11634 0.33072 0.62631 0.0
C308 C 0.17726 0.38004 0.63441 0.0
C309 C 0.16149 0.37808 0.65119 0.0
C310 C 0.06362 0.30206 0.63826 0.0
N311 N 0.08988 0.32864 0.6537 0.0
C312 C 0.23981 0.3998 0.58776 0.0
C313 C 0.31663 0.35204 0.60681 0.0
C314 C 0.35519 0.41355 0.59648 0.0
C315 C 0.31552 0.43561 0.5865 0.0
C316 C 0.23971 0.31619 0.60741 0.0
N317 N 0.20225 0.34183 0.59834 0.0
H318 H 0.21129 0.42135 0.58064 0.0
H319 H 0.21193 0.27163 0.61598 0.0
H320 H 0.22901 0.41706 0.62851 0.0
H321 H 1.00722 0.26179 0.63557 0.0
O322 O 0.12276 0.4174 0.60097 0.0
O323 O 1.01169 0.32505 0.60543 0.0
O324 O 0.06231 0.2052 0.60367 0.0
C325 C 0.05501 0.39612 0.60392 0.0
H326 H 1.00788 0.31092 0.54275 0.0
H327 H 0.19974 0.41256 0.66067 0.0
H328 H 0.34568 0.33317 0.61466 0.0
H329 H 0.34296 0.48318 0.57846 0.0
Co330 Co 0.79197 0.09702 0.93553 0.0
C331 C 0.83493 0.11165 0.899 0.0
C332 C 0.72666 0.02224 0.9034 0.0
C333 C 0.7406 0.02651 0.88658 0.0
N334 N 0.78508 0.0765 0.91136 0.0
N335 N 0.80839 0.08343 0.88362 0.0
H336 H 0.88887 0.15814 0.90116 0.0
H337 H 0.67621 0.98181 0.9092 0.0
C338 C 0.9091 0.06334 0.94885 0.0
O339 O 0.91028 0.09622 0.96282 0.0
N340 N 0.79491 0.11349 0.95961 0.0
C341 C 0.80704 0.17464 0.96767 0.0
C342 C 0.79349 0.15917 0.98448 0.0
C343 C 0.77089 0.06101 0.9716 0.0
N344 N 0.77097 0.08754 0.98703 0.0
C345 C 0.84746 0.23584 0.9211 0.0
C346 C 0.97341 0.3126 0.93972 0.0
C347 C 0.9496 0.35117 0.92966 0.0
C348 C 0.88716 0.31154 0.91989 0.0
C349 C 0.93247 0.23569 0.94029 0.0
N350 N 0.86869 0.19824 0.93144 0.0
H351 H 0.79698 0.20732 0.91412 0.0
H352 H 0.94999 0.2079 0.94865 0.0
H353 H 0.82194 0.22633 0.96174 0.0
H354 H 0.75444 1.00455 0.96894 0.0
O355 O 0.7136 0.1188 0.93433 0.0
O356 O 0.69501 1.00807 0.93906 0.0
O357 O 0.86548 0.05849 0.93699 0.0
C358 C 0.66717 0.05121 0.93741 0.0
H359 H 0.70274 0.99004 0.87728 0.0
H360 H 0.79768 0.19765 0.99394 0.0
H361 H 0.02193 0.34162 0.94741 0.0
H362 H 0.8664 0.33899 0.91205 0.0
Co363 Co 0.70324 0.78802 0.26885 0.0
C364 C 0.73165 0.83112 0.23233 0.0
C365 C 0.71238 0.72274 0.23668 0.0
C366 C 0.72208 0.73676 0.21986 0.0
N367 N 0.71679 0.78118 0.24467 0.0
N368 N 0.7332 0.80463 0.21694 0.0
H369 H 0.73928 0.88508 0.23452 0.0
H370 H 0.70218 0.67222 0.24245 0.0
C371 C 0.85415 0.90506 0.28216 0.0
O372 O 0.82249 0.90625 0.29614 0.0
N373 N 0.68975 0.79092 0.29294 0.0
C374 C 0.64081 0.80315 0.30102 0.0
C375 C 0.6428 0.78967 0.31783 0.0
C376 C 0.71823 0.76691 0.30492 0.0
N377 N 0.69188 0.7671 0.32037 0.0
C378 C 0.61985 0.84348 0.25445 0.0
C379 C 0.66927 0.96947 0.27306 0.0
C380 C 0.60686 0.94571 0.26301 0.0
C381 C 0.58393 0.88324 0.25324 0.0
C382 C 0.70515 0.92847 0.27363 0.0
N383 N 0.67872 0.86469 0.26479 0.0
H384 H 0.59782 0.793 0.24748 0.0
H385 H 0.7505 0.94597 0.28199 0.0
H386 H 0.60403 0.81809 0.2951 0.0
H387 H 0.75823 0.75042 0.30225 0.0
O388 O 0.60302 0.70964 0.26767 0.0
O389 O 0.69529 0.69116 0.27236 0.0
O390 O 0.81532 0.8615 0.27029 0.0
C391 C 0.62426 0.66328 0.27072 0.0
H392 H 0.72053 0.69891 0.21055 0.0
H393 H 0.60859 0.79395 0.32731 0.0
H394 H 0.68885 0.018 0.28074 0.0
H395 H 0.53569 0.86252 0.24541 0.0
C396 C 0.3326 0.08587 0.01861 0.0
C397 C 0.314 0.04809 0.03398 0.0
H398 H 0.33005 0.07964 0.99196 0.0
C399 C 0.27569 0.97091 0.03349 0.0
H400 H 0.36121 0.14507 1.01826 0.0
C401 C 0.25667 0.93301 1.01824 0.0
C402 C 0.27549 0.97077 1.00287 0.0
H403 H 0.26051 0.93918 0.04488 0.0
H404 H 0.22646 0.87381 0.01861 0.0
C405 C 0.31384 0.04795 1.00336 0.0
C406 C 0.25542 0.32896 0.35194 0.0
C407 C 0.27449 0.3103 0.36731 0.0
H408 H 0.25922 0.32644 0.32529 0.0
C409 C 0.31327 0.27192 0.36682 0.0
H410 H 0.22491 0.35763 0.35158 0.0
C411 C 0.33217 0.25287 0.35157 0.0
C412 C 0.31334 0.27175 0.33621 0.0
H413 H 0.32973 0.25668 0.37821 0.0
H414 H 0.36108 0.22259 0.35194 0.0
C415 C 0.2746 0.31018 0.33669 0.0
C416 C 0.05014 0.30919 0.70012 0.0
C417 C 0.97293 0.27065 0.70061 0.0
H418 H 0.1473 0.3567 0.68521 0.0
C419 C 0.93515 0.25164 0.68525 0.0
H420 H 0.08184 0.32555 0.71151 0.0
C421 C 0.97308 0.27068 0.67 0.0
C422 C 0.05029 0.3092 0.6695 0.0
H423 H 0.87592 0.22128 0.6849 0.0
H424 H 0.94139 0.25537 0.65861 0.0
C425 C 0.08807 0.32795 0.68486 0.0
C426 C 0.76947 0.08585 1.01821 0.0
C427 C 0.75076 0.04805 1.00285 0.0
H428 H 0.76537 0.07962 0.04486 0.0
C429 C 0.71232 0.97087 1.00335 0.0
H430 H 0.7997 0.14505 0.01856 0.0
C431 C 0.69343 0.93298 0.01861 0.0
C432 C 0.71191 0.97076 0.03396 0.0
H433 H 0.69615 0.93911 0.99197 0.0
H434 H 0.66481 0.87379 1.01826 0.0
C435 C 0.75029 0.04794 0.03347 0.0
C436 C 0.69259 0.76615 0.35154 0.0
C437 C 0.71123 0.74698 0.33618 0.0
H438 H 0.69514 0.7625 0.37819 0.0
C439 C 0.74959 0.70818 0.33668 0.0
H440 H 0.66393 0.79668 0.35189 0.0
C441 C 0.76864 0.68936 0.35193 0.0
C442 C 0.74979 0.70829 0.36729 0.0
H443 H 0.7648 0.69165 0.32529 0.0
H444 H 0.79891 0.66043 0.35157 0.0
C445 C 0.71138 0.74704 0.3668 0.0
C446 C 0.97296 0.70723 0.70016 0.0
C447 C 0.05018 0.74595 0.70067 0.0
H448 H 0.87591 0.65951 0.68524 0.0
C449 C 0.08807 0.76499 0.68532 0.0
H450 H 0.94115 0.6908 0.71154 0.0
C451 C 0.05025 0.74587 0.67006 0.0
C452 C 0.97303 0.70722 0.66954 0.0
H453 H 0.14729 0.79545 0.68498 0.0
H454 H 0.08207 0.76126 0.65868 0.0
C455 C 0.93514 0.68838 0.68489 0.0
C456 C 0.49302 0.9351 0.09817 0.0
C457 C 0.56836 0.98897 0.09841 0.0
H458 H 0.38113 0.91173 0.09818 0.0
C459 C 0.5874 0.0628 0.09817 0.0
H460 H 0.47604 0.87737 0.09825 0.0
C461 C 0.53258 0.08216 0.09817 0.0
C462 C 0.45723 0.02829 0.09833 0.0
H463 H 0.64446 0.10554 0.09832 0.0
H464 H 0.54955 0.13989 0.09825 0.0
C465 C 0.43819 0.95447 0.09808 0.0
C466 C 0.49252 0.43513 0.43137 0.0
C467 C 0.43768 0.4541 0.43163 0.0
H468 H 0.60752 0.47301 0.43154 0.0
C469 C 0.45913 0.5294 0.43151 0.0
H470 H 0.47821 0.3781 0.43144 0.0
C471 C 0.53337 0.58424 0.43152 0.0
C472 C 0.5882 0.56525 0.43175 0.0
H473 H 0.41833 0.54632 0.4316 0.0
H474 H 0.54768 0.64127 0.4317 0.0
C475 C 0.56674 0.48996 0.43148 0.0
C476 C 0.08445 0.56173 0.76486 0.0
C477 C 0.03051 0.58307 0.76503 0.0
H478 H 0.10796 0.47336 0.76496 0.0
C479 C 0.95668 0.52816 0.76478 0.0
H480 H 0.1422 0.60258 0.76495 0.0
C481 C 0.93738 0.45399 0.76484 0.0
C482 C 0.99132 0.43265 0.76506 0.0
H483 H 0.91388 0.54236 0.76489 0.0
H484 H 0.87964 0.41313 0.76491 0.0
C485 C 0.06516 0.48757 0.76482 0.0
C486 C 0.95805 0.43341 0.60534 0.0
C487 C 0.03188 0.45237 0.60507 0.0
H488 H 0.881 0.47136 0.60527 0.0
C489 C 0.08582 0.52767 0.6053 0.0
H490 H 0.91525 0.37639 0.60519 0.0
C491 C 0.06652 0.58252 0.6054 0.0
C492 C 0.99269 0.56358 0.60517 0.0
H493 H 0.14357 0.54459 0.60521 0.0
H494 H 0.10932 0.63955 0.6053 0.0
C495 C 0.93874 0.48827 0.60534 0.0
C496 C 0.53286 0.95423 0.93878 0.0
C497 C 0.58775 0.02805 0.93851 0.0
H498 H 0.41782 0.87714 0.93861 0.0
C499 C 0.56634 0.08192 0.93864 0.0
H500 H 0.54713 0.91148 0.9387 0.0
C501 C 0.49214 0.06257 0.93864 0.0
C502 C 0.43725 0.98874 0.93841 0.0
H503 H 0.60718 0.13965 0.93855 0.0
H504 H 0.47788 0.10531 0.93847 0.0
C505 C 0.45865 0.93487 0.93867 0.0
C506 C 0.43786 0.48815 0.27198 0.0
C507 C 0.45691 0.43338 0.27175 0.0
H508 H 0.4757 0.60311 0.27188 0.0
C509 C 0.53225 0.45489 0.27201 0.0
H510 H 0.3808 0.47381 0.27181 0.0
C511 C 0.58707 0.5291 0.2721 0.0
C512 C 0.56803 0.58387 0.27184 0.0
H513 H 0.54923 0.41414 0.27195 0.0
H514 H 0.64413 0.54345 0.27201 0.0
C515 C 0.49268 0.56236 0.27197 0.0
C516 C 0.3047 0.11765 0.19987 0.0
C517 C 0.28449 0.17156 0.20136 0.0
H518 H 0.32458 0.04909 0.1838 0.0
C519 C 0.26344 0.19376 0.18678 0.0
H520 H 0.32237 0.09993 0.2107 0.0
C521 C 0.26438 0.16426 0.17112 0.0
C522 C 0.28669 0.11174 0.16951 0.0
H523 H 0.24664 0.23453 0.18745 0.0
H524 H 0.24803 0.18323 0.1603 0.0
C525 C 0.30604 0.08845 0.18423 0.0
C526 C 0.10855 0.26022 0.50441 0.0
C527 C 0.18351 0.28285 0.50282 0.0
H528 H 0.02028 0.242 0.52074 0.0
C529 C 0.22608 0.30219 0.51755 0.0
H530 H 0.07327 0.24387 0.49358 0.0
C531 C 0.19536 0.30055 0.53318 0.0
C532 C 0.12112 0.28005 0.53466 0.0
H533 H 0.28406 0.32094 0.51712 0.0
H534 H 0.2307 0.31823 0.54402 0.0
C535 C 0.07793 0.259 0.52008 0.0
C536 C 0.94657 0.1934 0.85 0.0
C537 C 0.90315 0.17105 0.83545 0.0
H538 H 0.95173 0.18295 0.87649 0.0
C539 C 0.82905 0.11693 0.83699 0.0
H540 H 1.00413 0.23434 0.84931 0.0
C541 C 0.79868 0.08768 0.85263 0.0
C542 C 0.84148 0.11114 0.86732 0.0
H543 H 0.79355 0.09909 0.82617 0.0
H544 H 0.74078 0.04817 0.8531 0.0
C545 C 0.9163 0.16385 0.86568 0.0
C546 C 0.762 0.94313 0.18338 0.0
C547 C 0.74096 0.89987 0.16881 0.0
H548 H 0.77739 0.94803 0.20987 0.0
C549 C 0.72078 0.82575 0.1703 0.0
H550 H 0.77877 1.0007 0.18271 0.0
C551 C 0.71944 0.79522 0.18594 0.0
C552 C 0.73877 0.83786 0.20065 0.0
H553 H 0.70313 0.79036 0.15947 0.0
H554 H 0.70092 0.73732 0.18638 0.0
C555 C 0.76106 0.9127 0.19905 0.0
C556 C 0.82795 0.75837 0.51673 0.0
C557 C 0.84997 0.73716 0.50215 0.0
H558 H 0.83851 0.77367 0.54323 0.0
C559 C 0.90355 0.71646 0.50364 0.0
H560 H 0.78744 0.77552 0.51607 0.0
C561 C 0.9326 0.71485 0.51927 0.0
C562 C 0.90951 0.7344 0.53399 0.0
H563 H 0.9211 0.69864 0.4928 0.0
H564 H 0.97168 0.69595 0.5197 0.0
C565 C 0.85731 0.75716 0.5324 0.0
C566 C 0.1974 0.94249 0.85343 0.0
C567 C 0.17499 0.89935 0.86803 0.0
H568 H 0.18683 0.94727 0.82694 0.0
C569 C 0.12059 0.82535 0.86658 0.0
H570 H 0.23854 0.99997 0.85406 0.0
C571 C 0.09114 0.79479 0.85096 0.0
C572 C 0.11464 0.83729 0.83622 0.0
H573 H 0.10268 0.79005 0.87743 0.0
H574 H 0.05138 0.73698 0.85056 0.0
C575 C 0.16765 0.91203 0.83778 0.0
C576 C 0.53779 0.54627 0.12195 0.0
C577 C 0.56218 0.58477 0.10683 0.0
H578 H 0.47166 0.4427 0.13387 0.0
C579 C 0.53688 0.54631 0.09172 0.0
H580 H 0.55622 0.57461 0.13378 0.0
C581 C 0.48764 0.47069 0.09178 0.0
C582 C 0.46355 0.43235 0.10693 0.0
H583 H 0.55389 0.57496 0.0799 0.0
H584 H 0.46968 0.44195 0.07999 0.0
C585 C 0.48914 0.47095 0.122 0.0
C586 C 0.02542 0.48375 0.42508 0.0
C587 C 0.03949 0.45958 0.44025 0.0
H588 H 0.98763 0.55011 0.4132 0.0
C589 C 0.02635 0.48512 0.45531 0.0
H590 H 0.03631 0.46584 0.4133 0.0
C591 C 0.99977 0.53381 0.45525 0.0
C592 C 0.98586 0.55829 0.44013 0.0
H593 H 0.03698 0.46758 0.46718 0.0
H594 H 0.9898 0.55222 0.46708 0.0
C595 C 0.99912 0.53303 0.42502 0.0
C596 C 0.47315 0.9953 0.75845 0.0
C597 C 0.43476 0.98105 0.77361 0.0
H598 H 0.57748 0.03326 0.7466 0.0
C599 C 0.47332 0.99404 0.78868 0.0
H600 H 0.44445 0.98454 0.74666 0.0
C601 C 0.54864 0.02065 0.78864 0.0
C602 C 0.5872 0.03472 0.77353 0.0
H603 H 0.44503 0.98328 0.80054 0.0
H604 H 0.57693 0.0305 0.80047 0.0
C605 C 0.54879 0.02163 0.75841 0.0
C606 C 0.55025 0.53318 0.61171 0.0
C607 C 0.58864 0.55738 0.59656 0.0
H608 H 0.44591 0.4668 0.62357 0.0
C609 C 0.55007 0.53186 0.58148 0.0
H610 H 0.57896 0.55108 0.6235 0.0
C611 C 0.47473 0.48316 0.58152 0.0
C612 C 0.43618 0.45866 0.59663 0.0
H613 H 0.57836 0.54943 0.56962 0.0
H614 H 0.44643 0.46478 0.56969 0.0
C615 C 0.4746 0.4839 0.61175 0.0
C616 C 0.02489 0.54609 0.9149 0.0
C617 C 0.03903 0.58449 0.93003 0.0
H618 H 0.98757 0.44266 0.90297 0.0
C619 C 0.02597 0.54596 0.94513 0.0
H620 H 0.03472 0.57449 0.90308 0.0
C621 C 0.99968 0.47036 0.94506 0.0
C622 C 0.98542 0.43213 0.9299 0.0
H623 H 0.03764 0.57453 0.95696 0.0
H624 H 0.98898 0.44156 0.95685 0.0
C625 C 0.99832 0.47081 0.91484 0.0
C626 C 0.53618 0.99463 0.24817 0.0
C627 C 0.56182 0.98162 0.26323 0.0
H628 H 0.46908 0.03119 0.23641 0.0
C629 C 0.53778 0.99586 0.2784 0.0
H630 H 0.55364 0.98387 0.2363 0.0
C631 C 0.48854 0.02223 0.27846 0.0
C632 C 0.4632 0.03539 0.26336 0.0
H633 H 0.55576 0.98508 0.29018 0.0
H634 H 0.47156 0.03386 0.29028 0.0
C635 C 0.48754 0.02129 0.24823 0.0
C636 C 0.05014 0.01967 0.07421 0.0
C637 C 0.08965 0.03281 0.08917 0.0
H638 H 0.94834 0.98678 0.06219 0.0
C639 C 0.05082 0.02087 0.10432 0.0
H640 H 0.07717 0.02781 0.06225 0.0
C641 C 0.97463 0.99711 0.10429 0.0
C642 C 0.93581 0.98403 0.08911 0.0
H643 H 0.07938 0.031 0.11611 0.0
H644 H 0.94609 0.98805 0.11606 0.0
C645 C 0.97531 0.99584 0.07418 0.0
C646 C 0.03764 0.04754 0.43767 0.0
C647 C 0.06641 0.086 0.42256 0.0
H648 H 0.96416 0.94315 0.44934 0.0
C649 C 0.04225 0.04614 0.40759 0.0
H650 H 0.05435 0.07643 0.44945 0.0
C651 C 0.99134 0.9713 0.40751 0.0
C652 C 0.96152 0.93217 0.42241 0.0
H653 H 0.06273 0.07296 0.39567 0.0
H654 H 0.9751 0.9441 0.39552 0.0
C655 C 0.98529 0.97134 0.43759 0.0
C656 C 0.99857 0.03285 0.74086 0.0
C657 C 0.98658 0.06037 0.7558 0.0
H658 H 0.0306 0.96309 0.72893 0.0
C659 C 0.99943 0.03445 0.77097 0.0
H660 H 0.98968 0.0509 0.72887 0.0
C661 C 0.02313 0.982 0.771 0.0
C662 C 0.03522 0.95526 0.75586 0.0
H663 H 0.99021 0.05376 0.78274 0.0
H664 H 0.03306 0.96342 0.7828 0.0
C665 C 0.02234 0.98184 0.74089 0.0
C666 C 0.99987 0.96998 0.59916 0.0
C667 C 0.98841 0.93126 0.6143 0.0
H668 H 0.0322 0.07455 0.58742 0.0
C669 C 1.00198 0.97085 0.62926 0.0
H670 H 0.98938 0.94135 0.58737 0.0
C671 C 0.02573 0.04563 0.6293 0.0
C672 C 0.03702 0.08502 0.61437 0.0
H673 H 0.99423 0.9439 0.64122 0.0
H674 H 0.03513 0.07264 0.64129 0.0
C675 C 0.02355 0.04613 0.5992 0.0
C676 C 0.98634 0.02022 0.93253 0.0
C677 C 0.96011 0.03289 0.94768 0.0
H678 H 0.05761 0.98672 0.92076 0.0
C679 C 0.98714 0.0205 0.96264 0.0
H680 H 0.96739 0.02975 0.92074 0.0
C681 C 0.03807 0.99662 0.96265 0.0
C682 C 0.06504 0.98402 0.9477 0.0
H683 H 0.9688 0.02923 0.97461 0.0
H684 H 0.05648 0.9881 0.97463 0.0
C685 C 0.03871 0.99642 0.93254 0.0
C686 C 0.05006 0.03299 0.296 0.0
C687 C 0.08954 0.06087 0.28106 0.0
H688 H 0.94819 0.96301 0.30792 0.0
C689 C 0.05069 0.03532 0.26589 0.0
H690 H 0.07705 0.05074 0.30798 0.0
C691 C 0.97448 0.98292 0.26585 0.0
C692 C 0.93568 0.95588 0.28099 0.0
H693 H 0.0792 0.05493 0.25412 0.0
H694 H 0.94589 0.96466 0.25406 0.0
C695 C 0.97521 0.98203 0.29596 0.0
loop_
_geom_bond_atom_site_label_1
_geom_bond_atom_site_label_2
_geom_bond_distance
_geom_bond_site_symmetry_2
_ccdc_geom_bond_type
Co0 N4 2.148 . S
Co0 N10 2.128 . S
Co0 N20 2.194 . S
Co0 O25 2.351 . S
Co0 O26 2.155 . S
Co0 O27 2.096 . S
C1 N4 1.301 . S
C1 N5 1.328 . S
C1 H6 0.930 . S
C2 C3 1.333 . S
C2 N4 1.317 . S
C2 H7 0.930 . S
C3 C2 1.333 . S
C3 N5 1.350 . S
C3 H29 0.931 . S
N4 Co0 2.148 . S
N4 C1 1.301 . S
N4 C2 1.317 . S
N5 C1 1.328 . S
N5 C3 1.350 . S
H6 C1 0.930 . S
H7 C2 0.930 . S
C8 O9 1.224 . S
C8 O27 1.247 . S
O9 C8 1.224 . S
N10 Co0 2.128 . S
N10 C11 1.355 . S
N10 C13 1.311 . S
C11 N10 1.355 . S
C11 C12 1.363 . S
C11 H23 0.929 . S
C12 C11 1.363 . S
C12 N14 1.375 . S
C12 H30 0.931 . S
C13 N10 1.311 . S
C13 N14 1.347 . S
C13 H24 0.929 . S
N14 C12 1.375 . S
N14 C13 1.347 . S
C15 C18 1.365 . S
C15 N20 1.328 . S
C15 H21 0.929 . S
C16 C17 1.362 . S
C16 C19 1.378 . S
C16 H31 0.929 . S
C17 C16 1.362 . S
C17 C18 1.366 . S
C18 C15 1.365 . S
C18 C17 1.366 . S
C18 H32 0.930 . S
C19 C16 1.378 . S
C19 N20 1.315 . S
C19 H22 0.930 . S
N20 Co0 2.194 . S
N20 C15 1.328 . S
N20 C19 1.315 . S
H21 C15 0.929 . S
H22 C19 0.930 . S
H23 C11 0.929 . S
H24 C13 0.929 . S
O25 Co0 2.351 . S
O25 C28 1.244 . S
O26 Co0 2.155 . S
O26 C28 1.240 . S
O27 Co0 2.096 . S
O27 C8 1.247 . S
C28 O25 1.244 . S
C28 O26 1.240 . S
H29 C3 0.931 . S
H30 C12 0.931 . S
H31 C16 0.929 . S
H32 C18 0.930 . S
Co33 N37 2.148 . S
Co33 N43 2.128 . S
Co33 N53 2.194 . S
Co33 O58 2.351 . S
Co33 O59 2.155 . S
Co33 O60 2.096 . S
C34 N37 1.301 . S
C34 N38 1.328 . S
C34 H39 0.930 . S
C35 C36 1.333 . S
C35 N37 1.317 . S
C35 H40 0.930 . S
C36 C35 1.333 . S
C36 N38 1.350 . S
C36 H62 0.931 . S
N37 Co33 2.148 . S
N37 C34 1.301 . S
N37 C35 1.317 . S
N38 C34 1.328 . S
N38 C36 1.350 . S
H39 C34 0.930 . S
H40 C35 0.930 . S
C41 O42 1.224 . S
C41 O60 1.247 . S
O42 C41 1.224 . S
N43 Co33 2.128 . S
N43 C44 1.355 . S
N43 C46 1.311 . S
C44 N43 1.355 . S
C44 C45 1.363 . S
C44 H56 0.929 . S
C45 C44 1.363 . S
C45 N47 1.375 . S
C45 H63 0.931 . S
C46 N43 1.311 . S
C46 N47 1.347 . S
C46 H57 0.929 . S
N47 C45 1.375 . S
N47 C46 1.347 . S
C48 C51 1.365 . S
C48 N53 1.328 . S
C48 H54 0.929 . S
C49 C50 1.362 . S
C49 C52 1.378 . S
C49 H64 0.929 1_455 S
C50 C49 1.362 . S
C50 C51 1.366 . S
C51 C48 1.365 . S
C51 C50 1.366 . S
C51 H65 0.930 . S
C52 C49 1.378 . S
C52 N53 1.315 . S
C52 H55 0.930 . S
N53 Co33 2.194 . S
N53 C48 1.328 . S
N53 C52 1.315 . S
H54 C48 0.929 . S
H55 C52 0.930 . S
H56 C44 0.929 . S
H57 C46 0.929 . S
O58 Co33 2.351 . S
O58 C61 1.244 . S
O59 Co33 2.155 . S
O59 C61 1.240 . S
O60 Co33 2.096 . S
O60 C41 1.247 . S
C61 O58 1.244 . S
C61 O59 1.240 . S
H62 C36 0.931 . S
H63 C45 0.931 . S
H64 C49 0.929 1_655 S
H65 C51 0.930 . S
Co66 N70 2.148 . S
Co66 N76 2.128 . S
Co66 N86 2.194 . S
Co66 O91 2.351 . S
Co66 O92 2.155 . S
Co66 O93 2.096 . S
C67 N70 1.301 . S
C67 N71 1.328 . S
C67 H72 0.930 . S
C68 C69 1.333 . S
C68 N70 1.317 . S
C68 H73 0.930 . S
C69 C68 1.333 . S
C69 N71 1.350 . S
C69 H95 0.931 . S
N70 Co66 2.148 . S
N70 C67 1.301 . S
N70 C68 1.317 . S
N71 C67 1.328 . S
N71 C69 1.350 . S
H72 C67 0.930 . S
H73 C68 0.930 . S
C74 O75 1.224 . S
C74 O93 1.247 . S
O75 C74 1.224 . S
N76 Co66 2.128 . S
N76 C77 1.355 . S
N76 C79 1.311 . S
C77 N76 1.355 . S
C77 C78 1.363 . S
C77 H89 0.929 . S
C78 C77 1.363 . S
C78 N80 1.375 . S
C78 H96 0.931 . S
C79 N76 1.311 . S
C79 N80 1.347 . S
C79 H90 0.929 . S
N80 C78 1.375 . S
N80 C79 1.347 . S
C81 C84 1.365 . S
C81 N86 1.328 . S
C81 H87 0.929 . S
C82 C83 1.362 . S
C82 C85 1.378 . S
C82 H97 0.929 1_545 S
C83 C82 1.362 . S
C83 C84 1.366 . S
C84 C81 1.365 . S
C84 C83 1.366 . S
C84 H98 0.930 . S
C85 C82 1.378 . S
C85 N86 1.315 . S
C85 H88 0.930 . S
N86 Co66 2.194 . S
N86 C81 1.328 . S
N86 C85 1.315 . S
H87 C81 0.929 . S
H88 C85 0.930 . S
H89 C77 0.929 . S
H90 C79 0.929 . S
O91 Co66 2.351 . S
O91 C94 1.244 . S
O92 Co66 2.155 . S
O92 C94 1.240 . S
O93 Co66 2.096 . S
O93 C74 1.247 . S
C94 O91 1.244 . S
C94 O92 1.240 . S
H95 C69 0.931 . S
H96 C78 0.931 . S
H97 C82 0.929 1_565 S
H98 C84 0.930 . S
Co99 N103 2.148 . S
Co99 N109 2.128 . S
Co99 N119 2.194 . S
Co99 O124 2.351 . S
Co99 O125 2.155 . S
Co99 O126 2.096 . S
C100 N103 1.301 . S
C100 N104 1.328 . S
C100 H105 0.930 . S
C101 C102 1.333 . S
C101 N103 1.317 . S
C101 H106 0.930 . S
C102 C101 1.333 . S
C102 N104 1.350 . S
C102 H128 0.931 . S
N103 Co99 2.148 . S
N103 C100 1.301 . S
N103 C101 1.317 . S
N104 C100 1.328 . S
N104 C102 1.350 . S
H105 C100 0.930 . S
H106 C101 0.930 . S
C107 O108 1.224 . S
C107 O126 1.247 . S
O108 C107 1.224 . S
N109 Co99 2.128 . S
N109 C110 1.355 . S
N109 C112 1.311 . S
C110 N109 1.355 . S
C110 C111 1.363 . S
C110 H122 0.929 . S
C111 C110 1.363 . S
C111 N113 1.375 . S
C111 H129 0.931 . S
C112 N109 1.311 . S
C112 N113 1.347 . S
C112 H123 0.929 . S
N113 C111 1.375 . S
N113 C112 1.347 . S
C114 C117 1.365 . S
C114 N119 1.328 . S
C114 H120 0.929 . S
C115 C116 1.362 . S
C115 C118 1.378 . S
C115 H130 0.929 . S
C116 C115 1.362 . S
C116 C117 1.366 . S
C117 C114 1.365 . S
C117 C116 1.366 . S
C117 H131 0.930 . S
C118 C115 1.378 . S
C118 N119 1.315 . S
C118 H121 0.930 . S
N119 Co99 2.194 . S
N119 C114 1.328 . S
N119 C118 1.315 . S
H120 C114 0.929 . S
H121 C118 0.930 . S
H122 C110 0.929 . S
H123 C112 0.929 . S
O124 Co99 2.351 . S
O124 C127 1.244 . S
O125 Co99 2.155 . S
O125 C127 1.240 . S
O126 Co99 2.096 . S
O126 C107 1.247 . S
C127 O124 1.244 . S
C127 O125 1.240 . S
H128 C102 0.931 . S
H129 C111 0.931 . S
H130 C115 0.929 . S
H131 C117 0.930 . S
Co132 N136 2.148 . S
Co132 N142 2.128 . S
Co132 N152 2.194 . S
Co132 O157 2.351 . S
Co132 O158 2.155 . S
Co132 O159 2.096 . S
C133 N136 1.301 . S
C133 N137 1.328 . S
C133 H138 0.930 . S
C134 C135 1.333 . S
C134 N136 1.317 . S
C134 H139 0.930 . S
C135 C134 1.333 . S
C135 N137 1.350 . S
C135 H161 0.931 . S
N136 Co132 2.148 . S
N136 C133 1.301 . S
N136 C134 1.317 . S
N137 C133 1.328 . S
N137 C135 1.350 . S
H138 C133 0.930 . S
H139 C134 0.930 . S
C140 O141 1.224 . S
C140 O159 1.247 . S
O141 C140 1.224 . S
N142 Co132 2.128 . S
N142 C143 1.355 . S
N142 C145 1.311 . S
C143 N142 1.355 . S
C143 C144 1.363 . S
C143 H155 0.929 . S
C144 C143 1.363 . S
C144 N146 1.375 . S
C144 H162 0.931 . S
C145 N142 1.311 . S
C145 N146 1.347 . S
C145 H156 0.929 . S
N146 C144 1.375 . S
N146 C145 1.347 . S
C147 C150 1.365 . S
C147 N152 1.328 . S
C147 H153 0.929 . S
C148 C149 1.362 . S
C148 C151 1.378 . S
C148 H163 0.929 1_655 S
C149 C148 1.362 . S
C149 C150 1.366 . S
C150 C147 1.365 . S
C150 C149 1.366 . S
C150 H164 0.930 . S
C151 C148 1.378 . S
C151 N152 1.315 . S
C151 H154 0.930 . S
N152 Co132 2.194 . S
N152 C147 1.328 . S
N152 C151 1.315 . S
H153 C147 0.929 . S
H154 C151 0.930 . S
H155 C143 0.929 . S
H156 C145 0.929 . S
O157 Co132 2.351 . S
O157 C160 1.244 . S
O158 Co132 2.155 . S
O158 C160 1.240 . S
O159 Co132 2.096 . S
O159 C140 1.247 . S
C160 O157 1.244 . S
C160 O158 1.240 . S
H161 C135 0.931 . S
H162 C144 0.931 . S
H163 C148 0.929 1_455 S
H164 C150 0.930 . S
Co165 N169 2.148 . S
Co165 N175 2.128 . S
Co165 N185 2.194 . S
Co165 O190 2.351 . S
Co165 O191 2.155 . S
Co165 O192 2.096 . S
C166 N169 1.301 . S
C166 N170 1.328 . S
C166 H171 0.930 . S
C167 C168 1.333 . S
C167 N169 1.317 . S
C167 H172 0.930 . S
C168 C167 1.333 . S
C168 N170 1.350 . S
C168 H194 0.931 . S
N169 Co165 2.148 . S
N169 C166 1.301 . S
N169 C167 1.317 . S
N170 C166 1.328 . S
N170 C168 1.350 . S
H171 C166 0.930 . S
H172 C167 0.930 . S
C173 O174 1.224 . S
C173 O192 1.247 . S
O174 C173 1.224 . S
N175 Co165 2.128 . S
N175 C176 1.355 . S
N175 C178 1.311 . S
C176 N175 1.355 . S
C176 C177 1.363 . S
C176 H188 0.929 . S
C177 C176 1.363 . S
C177 N179 1.375 . S
C177 H195 0.931 . S
C178 N175 1.311 . S
C178 N179 1.347 . S
C178 H189 0.929 . S
N179 C177 1.375 . S
N179 C178 1.347 . S
C180 C183 1.365 . S
C180 N185 1.328 . S
C180 H186 0.929 . S
C181 C182 1.362 . S
C181 C184 1.378 . S
C181 H196 0.929 1_565 S
C182 C181 1.362 . S
C182 C183 1.366 . S
C183 C180 1.365 . S
C183 C182 1.366 . S
C183 H197 0.930 . S
C184 C181 1.378 . S
C184 N185 1.315 . S
C184 H187 0.930 . S
N185 Co165 2.194 . S
N185 C180 1.328 . S
N185 C184 1.315 . S
H186 C180 0.929 . S
H187 C184 0.930 . S
H188 C176 0.929 . S
H189 C178 0.929 . S
O190 Co165 2.351 . S
O190 C193 1.244 . S
O191 Co165 2.155 . S
O191 C193 1.240 . S
O192 Co165 2.096 . S
O192 C173 1.247 . S
C193 O190 1.244 . S
C193 O191 1.240 . S
H194 C168 0.931 . S
H195 C177 0.931 . S
H196 C181 0.929 1_545 S
H197 C183 0.930 . S
Co198 N202 2.148 . S
Co198 N208 2.128 . S
Co198 N218 2.194 . S
Co198 O223 2.351 . S
Co198 O224 2.155 . S
Co198 O225 2.096 . S
C199 N202 1.301 . S
C199 N203 1.328 . S
C199 H204 0.930 . S
C200 C201 1.333 . S
C200 N202 1.317 . S
C200 H205 0.930 . S
C201 C200 1.333 . S
C201 N203 1.350 . S
C201 H227 0.931 . S
N202 Co198 2.148 . S
N202 C199 1.301 . S
N202 C200 1.317 . S
N203 C199 1.328 . S
N203 C201 1.350 . S
H204 C199 0.930 . S
H205 C200 0.930 . S
C206 O207 1.224 . S
C206 O225 1.247 . S
O207 C206 1.224 . S
N208 Co198 2.128 . S
N208 C209 1.355 . S
N208 C211 1.311 . S
C209 N208 1.355 . S
C209 C210 1.363 . S
C209 H221 0.929 . S
C210 C209 1.363 . S
C210 N212 1.375 . S
C210 H228 0.931 . S
C211 N208 1.311 . S
C211 N212 1.347 . S
C211 H222 0.929 . S
N212 C210 1.375 . S
N212 C211 1.347 . S
C213 C216 1.365 . S
C213 N218 1.328 . S
C213 H219 0.929 . S
C214 C215 1.362 . S
C214 C217 1.378 . S
C214 H229 0.929 . S
C215 C214 1.362 . S
C215 C216 1.366 . S
C216 C213 1.365 . S
C216 C215 1.366 . S
C216 H230 0.930 . S
C217 C214 1.378 . S
C217 N218 1.315 . S
C217 H220 0.930 . S
N218 Co198 2.194 . S
N218 C213 1.328 . S
N218 C217 1.315 . S
H219 C213 0.929 . S
H220 C217 0.930 . S
H221 C209 0.929 . S
H222 C211 0.929 . S
O223 Co198 2.351 . S
O223 C226 1.244 . S
O224 Co198 2.155 . S
O224 C226 1.240 . S
O225 Co198 2.096 . S
O225 C206 1.247 . S
C226 O223 1.244 . S
C226 O224 1.240 . S
H227 C201 0.931 . S
H228 C210 0.931 . S
H229 C214 0.929 . S
H230 C216 0.930 . S
Co231 N235 2.148 . S
Co231 N241 2.128 . S
Co231 N251 2.194 . S
Co231 O256 2.351 . S
Co231 O257 2.155 . S
Co231 O258 2.096 . S
C232 N235 1.301 . S
C232 N236 1.328 . S
C232 H237 0.930 . S
C233 C234 1.333 . S
C233 N235 1.317 . S
C233 H238 0.930 . S
C234 C233 1.333 . S
C234 N236 1.350 . S
C234 H260 0.931 . S
N235 Co231 2.148 . S
N235 C232 1.301 . S
N235 C233 1.317 . S
N236 C232 1.328 . S
N236 C234 1.350 . S
H237 C232 0.930 . S
H238 C233 0.930 . S
C239 O240 1.224 . S
C239 O258 1.247 . S
O240 C239 1.224 . S
N241 Co231 2.128 . S
N241 C242 1.355 . S
N241 C244 1.311 . S
C242 N241 1.355 . S
C242 C243 1.363 . S
C242 H254 0.929 . S
C243 C242 1.363 . S
C243 N245 1.375 . S
C243 H261 0.931 . S
C244 N241 1.311 . S
C244 N245 1.347 . S
C244 H255 0.929 . S
N245 C243 1.375 . S
N245 C244 1.347 . S
C246 C249 1.365 . S
C246 N251 1.328 . S
C246 H252 0.929 . S
C247 C248 1.362 . S
C247 C250 1.378 . S
C247 H262 0.929 1_455 S
C248 C247 1.362 . S
C248 C249 1.366 . S
C249 C246 1.365 . S
C249 C248 1.366 . S
C249 H263 0.930 . S
C250 C247 1.378 . S
C250 N251 1.315 . S
C250 H253 0.930 . S
N251 Co231 2.194 . S
N251 C246 1.328 . S
N251 C250 1.315 . S
H252 C246 0.929 . S
H253 C250 0.930 . S
H254 C242 0.929 . S
H255 C244 0.929 . S
O256 Co231 2.351 . S
O256 C259 1.244 . S
O257 Co231 2.155 . S
O257 C259 1.240 . S
O258 Co231 2.096 . S
O258 C239 1.247 . S
C259 O256 1.244 . S
C259 O257 1.240 . S
H260 C234 0.931 . S
H261 C243 0.931 . S
H262 C247 0.929 1_655 S
H263 C249 0.930 . S
Co264 N268 2.148 . S
Co264 N274 2.128 . S
Co264 N284 2.194 . S
Co264 O289 2.351 . S
Co264 O290 2.155 . S
Co264 O291 2.096 . S
C265 N268 1.301 . S
C265 N269 1.328 . S
C265 H270 0.930 . S
C266 C267 1.333 . S
C266 N268 1.317 . S
C266 H271 0.930 . S
C267 C266 1.333 . S
C267 N269 1.350 . S
C267 H293 0.931 . S
N268 Co264 2.148 . S
N268 C265 1.301 . S
N268 C266 1.317 . S
N269 C265 1.328 . S
N269 C267 1.350 . S
H270 C265 0.930 . S
H271 C266 0.930 . S
C272 O273 1.224 . S
C272 O291 1.247 . S
O273 C272 1.224 . S
N274 Co264 2.128 . S
N274 C275 1.355 . S
N274 C277 1.311 . S
C275 N274 1.355 . S
C275 C276 1.363 . S
C275 H287 0.929 . S
C276 C275 1.363 . S
C276 N278 1.375 . S
C276 H294 0.931 . S
C277 N274 1.311 . S
C277 N278 1.347 . S
C277 H288 0.929 . S
N278 C276 1.375 . S
N278 C277 1.347 . S
C279 C282 1.365 . S
C279 N284 1.328 . S
C279 H285 0.929 . S
C280 C281 1.362 . S
C280 C283 1.378 . S
C280 H295 0.929 1_545 S
C281 C280 1.362 . S
C281 C282 1.366 . S
C282 C279 1.365 . S
C282 C281 1.366 . S
C282 H296 0.930 . S
C283 C280 1.378 . S
C283 N284 1.315 . S
C283 H286 0.930 . S
N284 Co264 2.194 . S
N284 C279 1.328 . S
N284 C283 1.315 . S
H285 C279 0.929 . S
H286 C283 0.930 . S
H287 C275 0.929 . S
H288 C277 0.929 . S
O289 Co264 2.351 . S
O289 C292 1.244 . S
O290 Co264 2.155 . S
O290 C292 1.240 . S
O291 Co264 2.096 . S
O291 C272 1.247 . S
C292 O289 1.244 . S
C292 O290 1.240 . S
H293 C267 0.931 . S
H294 C276 0.931 . S
H295 C280 0.929 1_565 S
H296 C282 0.930 . S
Co297 N301 2.148 . S
Co297 N307 2.128 . S
Co297 N317 2.194 . S
Co297 O322 2.351 . S
Co297 O323 2.155 . S
Co297 O324 2.096 . S
C298 N301 1.301 . S
C298 N302 1.328 . S
C298 H303 0.930 . S
C299 C300 1.333 . S
C299 N301 1.317 . S
C299 H304 0.930 . S
C300 C299 1.333 . S
C300 N302 1.350 . S
C300 H326 0.931 . S
N301 Co297 2.148 . S
N301 C298 1.301 . S
N301 C299 1.317 . S
N302 C298 1.328 . S
N302 C300 1.350 . S
H303 C298 0.930 . S
H304 C299 0.930 . S
C305 O306 1.224 . S
C305 O324 1.247 . S
O306 C305 1.224 . S
N307 Co297 2.128 . S
N307 C308 1.355 . S
N307 C310 1.311 . S
C308 N307 1.355 . S
C308 C309 1.363 . S
C308 H320 0.929 . S
C309 C308 1.363 . S
C309 N311 1.375 . S
C309 H327 0.931 . S
C310 N307 1.311 . S
C310 N311 1.347 . S
C310 H321 0.929 . S
N311 C309 1.375 . S
N311 C310 1.347 . S
C312 C315 1.365 . S
C312 N317 1.328 . S
C312 H318 0.929 . S
C313 C314 1.362 . S
C313 C316 1.378 . S
C313 H328 0.929 . S
C314 C313 1.362 . S
C314 C315 1.366 . S
C315 C312 1.365 . S
C315 C314 1.366 . S
C315 H329 0.930 . S
C316 C313 1.378 . S
C316 N317 1.315 . S
C316 H319 0.930 . S
N317 Co297 2.194 . S
N317 C312 1.328 . S
N317 C316 1.315 . S
H318 C312 0.929 . S
H319 C316 0.930 . S
H320 C308 0.929 . S
H321 C310 0.929 . S
O322 Co297 2.351 . S
O322 C325 1.244 . S
O323 Co297 2.155 . S
O323 C325 1.240 . S
O324 Co297 2.096 . S
O324 C305 1.247 . S
C325 O322 1.244 . S
C325 O323 1.240 . S
H326 C300 0.931 . S
H327 C309 0.931 . S
H328 C313 0.929 . S
H329 C315 0.930 . S
Co330 N334 2.148 . S
Co330 N340 2.128 . S
Co330 N350 2.194 . S
Co330 O355 2.351 . S
Co330 O356 2.155 . S
Co330 O357 2.096 . S
C331 N334 1.301 . S
C331 N335 1.328 . S
C331 H336 0.930 . S
C332 C333 1.333 . S
C332 N334 1.317 . S
C332 H337 0.930 . S
C333 C332 1.333 . S
C333 N335 1.350 . S
C333 H359 0.931 . S
N334 Co330 2.148 . S
N334 C331 1.301 . S
N334 C332 1.317 . S
N335 C331 1.328 . S
N335 C333 1.350 . S
H336 C331 0.930 . S
H337 C332 0.930 . S
C338 O339 1.224 . S
C338 O357 1.247 . S
O339 C338 1.224 . S
N340 Co330 2.128 . S
N340 C341 1.355 . S
N340 C343 1.311 . S
C341 N340 1.355 . S
C341 C342 1.363 . S
C341 H353 0.929 . S
C342 C341 1.363 . S
C342 N344 1.375 . S
C342 H360 0.931 . S
C343 N340 1.311 . S
C343 N344 1.347 . S
C343 H354 0.929 . S
N344 C342 1.375 . S
N344 C343 1.347 . S
C345 C348 1.365 . S
C345 N350 1.328 . S
C345 H351 0.929 . S
C346 C347 1.362 . S
C346 C349 1.378 . S
C346 H361 0.929 1_655 S
C347 C346 1.362 . S
C347 C348 1.366 . S
C348 C345 1.365 . S
C348 C347 1.366 . S
C348 H362 0.930 . S
C349 C346 1.378 . S
C349 N350 1.315 . S
C349 H352 0.930 . S
N350 Co330 2.194 . S
N350 C345 1.328 . S
N350 C349 1.315 . S
H351 C345 0.929 . S
H352 C349 0.930 . S
H353 C341 0.929 . S
H354 C343 0.929 . S
O355 Co330 2.351 . S
O355 C358 1.244 . S
O356 Co330 2.155 . S
O356 C358 1.240 . S
O357 Co330 2.096 . S
O357 C338 1.247 . S
C358 O355 1.244 . S
C358 O356 1.240 . S
H359 C333 0.931 . S
H360 C342 0.931 . S
H361 C346 0.929 1_455 S
H362 C348 0.930 . S
Co363 N367 2.148 . S
Co363 N373 2.128 . S
Co363 N383 2.194 . S
Co363 O388 2.351 . S
Co363 O389 2.155 . S
Co363 O390 2.096 . S
C364 N367 1.301 . S
C364 N368 1.328 . S
C364 H369 0.930 . S
C365 C366 1.333 . S
C365 N367 1.317 . S
C365 H370 0.930 . S
C366 C365 1.333 . S
C366 N368 1.350 . S
C366 H392 0.931 . S
N367 Co363 2.148 . S
N367 C364 1.301 . S
N367 C365 1.317 . S
N368 C364 1.328 . S
N368 C366 1.350 . S
H369 C364 0.930 . S
H370 C365 0.930 . S
C371 O372 1.224 . S
C371 O390 1.247 . S
O372 C371 1.224 . S
N373 Co363 2.128 . S
N373 C374 1.355 . S
N373 C376 1.311 . S
C374 N373 1.355 . S
C374 C375 1.363 . S
C374 H386 0.929 . S
C375 C374 1.363 . S
C375 N377 1.375 . S
C375 H393 0.931 . S
C376 N373 1.311 . S
C376 N377 1.347 . S
C376 H387 0.929 . S
N377 C375 1.375 . S
N377 C376 1.347 . S
C378 C381 1.365 . S
C378 N383 1.328 . S
C378 H384 0.929 . S
C379 C380 1.362 . S
C379 C382 1.378 . S
C379 H394 0.929 1_565 S
C380 C379 1.362 . S
C380 C381 1.366 . S
C381 C378 1.365 . S
C381 C380 1.366 . S
C381 H395 0.930 . S
C382 C379 1.378 . S
C382 N383 1.315 . S
C382 H385 0.930 . S
N383 Co363 2.194 . S
N383 C378 1.328 . S
N383 C382 1.315 . S
H384 C378 0.929 . S
H385 C382 0.930 . S
H386 C374 0.929 . S
H387 C376 0.929 . S
O388 Co363 2.351 . S
O388 C391 1.244 . S
O389 Co363 2.155 . S
O389 C391 1.240 . S
O390 Co363 2.096 . S
O390 C371 1.247 . S
C391 O388 1.244 . S
C391 O389 1.240 . S
H392 C366 0.931 . S
H393 C375 0.931 . S
H394 C379 0.929 1_545 S
H395 C381 0.930 . S
C396 C397 1.387 . S
C396 H400 0.950 . S
C396 C405 1.390 1_544 S
C397 C396 1.387 . S
C397 C399 1.387 . S
H398 C405 0.950 . S
C399 C397 1.387 . S
C399 C401 1.390 1_544 S
C399 H403 0.950 . S
H400 C396 0.950 . S
C401 C399 1.390 1_566 S
C401 C402 1.387 . S
C401 H404 0.950 . S
C402 C401 1.387 . S
C402 C405 1.387 . S
H403 C399 0.950 . S
H404 C401 0.950 . S
C405 C396 1.390 1_566 S
C405 H398 0.950 . S
C405 C402 1.387 . S
C406 C407 1.387 . S
C406 H410 0.950 . S
C406 C415 1.390 . S
C407 C406 1.387 . S
C407 C409 1.387 . S
H408 C415 0.950 . S
C409 C407 1.387 . S
C409 C411 1.390 . S
C409 H413 0.950 . S
H410 C406 0.950 . S
C411 C409 1.390 . S
C411 C412 1.387 . S
C411 H414 0.950 . S
C412 C411 1.387 . S
C412 C415 1.387 . S
H413 C409 0.950 . S
H414 C411 0.950 . S
C415 C406 1.390 . S
C415 H408 0.950 . S
C415 C412 1.387 . S
C416 C417 1.387 1_455 S
C416 H420 0.950 . S
C416 C425 1.390 . S
C417 C416 1.387 1_655 S
C417 C419 1.387 . S
H418 C425 0.950 . S
C419 C417 1.387 . S
C419 C421 1.390 . S
C419 H423 0.950 . S
H420 C416 0.950 . S
C421 C419 1.390 . S
C421 C422 1.387 1_655 S
C421 H424 0.950 . S
C422 C421 1.387 1_455 S
C422 C425 1.387 . S
H423 C419 0.950 . S
H424 C421 0.950 . S
C425 C416 1.390 . S
C425 H418 0.950 . S
C425 C422 1.387 . S
C426 C427 1.387 . S
C426 H430 0.950 . S
C426 C435 1.390 1_546 S
C427 C426 1.387 . S
C427 C429 1.387 . S
H428 C435 0.950 . S
C429 C427 1.387 . S
C429 C431 1.390 1_546 S
C429 H433 0.950 . S
H430 C426 0.950 . S
C431 C429 1.390 1_564 S
C431 C432 1.387 . S
C431 H434 0.950 . S
C432 C431 1.387 . S
C432 C435 1.387 . S
H433 C429 0.950 . S
H434 C431 0.950 . S
C435 C426 1.390 1_564 S
C435 H428 0.950 . S
C435 C432 1.387 . S
C436 C437 1.387 . S
C436 H440 0.950 . S
C436 C445 1.390 . S
C437 C436 1.387 . S
C437 C439 1.387 . S
H438 C445 0.950 . S
C439 C437 1.387 . S
C439 C441 1.390 . S
C439 H443 0.950 . S
H440 C436 0.950 . S
C441 C439 1.390 . S
C441 C442 1.387 . S
C441 H444 0.950 . S
C442 C441 1.387 . S
C442 C445 1.387 . S
H443 C439 0.950 . S
H444 C441 0.950 . S
C445 C436 1.390 . S
C445 H438 0.950 . S
C445 C442 1.387 . S
C446 C447 1.387 1_655 S
C446 H450 0.950 . S
C446 C455 1.390 . S
C447 C446 1.387 1_455 S
C447 C449 1.387 . S
H448 C455 0.950 . S
C449 C447 1.387 . S
C449 C451 1.390 . S
C449 H453 0.950 . S
H450 C446 0.950 . S
C451 C449 1.390 . S
C451 C452 1.387 1_455 S
C451 H454 0.950 . S
C452 C451 1.387 1_655 S
C452 C455 1.387 . S
H453 C449 0.950 . S
H454 C451 0.950 . S
C455 C446 1.390 . S
C455 H448 0.950 . S
C455 C452 1.387 . S
C456 C457 1.387 . S
C456 H460 0.950 . S
C456 C465 1.390 1_565 S
C457 C456 1.387 . S
C457 C459 1.387 . S
H458 C465 0.950 . S
C459 C457 1.387 . S
C459 C461 1.390 1_565 S
C459 H463 0.950 . S
H460 C456 0.950 . S
C461 C459 1.390 1_545 S
C461 C462 1.387 . S
C461 H464 0.950 . S
C462 C461 1.387 . S
C462 C465 1.387 . S
H463 C459 0.950 . S
H464 C461 0.950 . S
C465 C456 1.390 1_545 S
C465 H458 0.950 . S
C465 C462 1.387 . S
C466 C467 1.387 . S
C466 H470 0.950 . S
C466 C475 1.390 . S
C467 C466 1.387 . S
C467 C469 1.387 . S
H468 C475 0.950 . S
C469 C467 1.387 . S
C469 C471 1.390 . S
C469 H473 0.950 . S
H470 C466 0.950 . S
C471 C469 1.390 . S
C471 C472 1.387 . S
C471 H474 0.950 . S
C472 C471 1.387 . S
C472 C475 1.387 . S
H473 C469 0.950 . S
H474 C471 0.950 . S
C475 C466 1.390 . S
C475 H468 0.950 . S
C475 C472 1.387 . S
C476 C477 1.387 . S
C476 H480 0.950 . S
C476 C485 1.390 1_455 S
C477 C476 1.387 . S
C477 C479 1.387 . S
H478 C485 0.950 . S
C479 C477 1.387 . S
C479 C481 1.390 1_455 S
C479 H483 0.950 . S
H480 C476 0.950 . S
C481 C479 1.390 1_655 S
C481 C482 1.387 . S
C481 H484 0.950 . S
C482 C481 1.387 . S
C482 C485 1.387 . S
H483 C479 0.950 . S
H484 C481 0.950 . S
C485 C476 1.390 1_655 S
C485 H478 0.950 . S
C485 C482 1.387 . S
C486 C487 1.387 . S
C486 H490 0.950 . S
C486 C495 1.390 1_455 S
C487 C486 1.387 . S
C487 C489 1.387 . S
H488 C495 0.950 . S
C489 C487 1.387 . S
C489 C491 1.390 1_455 S
C489 H493 0.950 . S
H490 C486 0.950 . S
C491 C489 1.390 1_655 S
C491 C492 1.387 . S
C491 H494 0.950 . S
C492 C491 1.387 . S
C492 C495 1.387 . S
H493 C489 0.950 . S
H494 C491 0.950 . S
C495 C486 1.390 1_655 S
C495 H488 0.950 . S
C495 C492 1.387 . S
C496 C497 1.387 . S
C496 H500 0.950 . S
C496 C505 1.390 1_545 S
C497 C496 1.387 . S
C497 C499 1.387 . S
H498 C505 0.950 . S
C499 C497 1.387 . S
C499 C501 1.390 1_545 S
C499 H503 0.950 . S
H500 C496 0.950 . S
C501 C499 1.390 1_565 S
C501 C502 1.387 . S
C501 H504 0.950 . S
C502 C501 1.387 . S
C502 C505 1.387 . S
H503 C499 0.950 . S
H504 C501 0.950 . S
C505 C496 1.390 1_565 S
C505 H498 0.950 . S
C505 C502 1.387 . S
C506 C507 1.387 . S
C506 H510 0.950 . S
C506 C515 1.390 . S
C507 C506 1.387 . S
C507 C509 1.387 . S
H508 C515 0.950 . S
C509 C507 1.387 . S
C509 C511 1.390 . S
C509 H513 0.950 . S
H510 C506 0.950 . S
C511 C509 1.390 . S
C511 C512 1.387 . S
C511 H514 0.950 . S
C512 C511 1.387 . S
C512 C515 1.387 . S
H513 C509 0.950 . S
H514 C511 0.950 . S
C515 C506 1.390 . S
C515 H508 0.950 . S
C515 C512 1.387 . S
C516 C517 1.387 . S
C516 H520 0.950 . S
C516 C525 1.390 . S
C517 C516 1.387 . S
C517 C519 1.387 . S
H518 C525 0.950 . S
C519 C517 1.387 . S
C519 C521 1.390 . S
C519 H523 0.950 . S
H520 C516 0.950 . S
C521 C519 1.390 . S
C521 C522 1.387 . S
C521 H524 0.950 . S
C522 C521 1.387 . S
C522 C525 1.387 . S
H523 C519 0.950 . S
H524 C521 0.950 . S
C525 C516 1.390 . S
C525 H518 0.950 . S
C525 C522 1.387 . S
C526 C527 1.387 . S
C526 H530 0.950 . S
C526 C535 1.390 . S
C527 C526 1.387 . S
C527 C529 1.387 . S
H528 C535 0.950 . S
C529 C527 1.387 . S
C529 C531 1.390 . S
C529 H533 0.950 . S
H530 C526 0.950 . S
C531 C529 1.390 . S
C531 C532 1.387 . S
C531 H534 0.950 . S
C532 C531 1.387 . S
C532 C535 1.387 . S
H533 C529 0.950 . S
H534 C531 0.950 . S
C535 C526 1.390 . S
C535 H528 0.950 . S
C535 C532 1.387 . S
C536 C537 1.387 . S
C536 H540 0.950 . S
C536 C545 1.390 . S
C537 C536 1.387 . S
C537 C539 1.387 . S
H538 C545 0.950 . S
C539 C537 1.387 . S
C539 C541 1.390 . S
C539 H543 0.950 . S
H540 C536 0.950 . S
C541 C539 1.390 . S
C541 C542 1.387 . S
C541 H544 0.950 . S
C542 C541 1.387 . S
C542 C545 1.387 . S
H543 C539 0.950 . S
H544 C541 0.950 . S
C545 C536 1.390 . S
C545 H538 0.950 . S
C545 C542 1.387 . S
C546 C547 1.387 . S
C546 H550 0.950 . S
C546 C555 1.390 . S
C547 C546 1.387 . S
C547 C549 1.387 . S
H548 C555 0.950 . S
C549 C547 1.387 . S
C549 C551 1.390 . S
C549 H553 0.950 . S
H550 C546 0.950 . S
C551 C549 1.390 . S
C551 C552 1.387 . S
C551 H554 0.950 . S
C552 C551 1.387 . S
C552 C555 1.387 . S
H553 C549 0.950 . S
H554 C551 0.950 . S
C555 C546 1.390 . S
C555 H548 0.950 . S
C555 C552 1.387 . S
C556 C557 1.387 . S
C556 H560 0.950 . S
C556 C565 1.390 . S
C557 C556 1.387 . S
C557 C559 1.387 . S
H558 C565 0.950 . S
C559 C557 1.387 . S
C559 C561 1.390 . S
C559 H563 0.950 . S
H560 C556 0.950 . S
C561 C559 1.390 . S
C561 C562 1.387 . S
C561 H564 0.950 . S
C562 C561 1.387 . S
C562 C565 1.387 . S
H563 C559 0.950 . S
H564 C561 0.950 . S
C565 C556 1.390 . S
C565 H558 0.950 . S
C565 C562 1.387 . S
C566 C567 1.387 . S
C566 H570 0.950 . S
C566 C575 1.390 . S
C567 C566 1.387 . S
C567 C569 1.387 . S
H568 C575 0.950 . S
C569 C567 1.387 . S
C569 C571 1.390 . S
C569 H573 0.950 . S
H570 C566 0.950 . S
C571 C569 1.390 . S
C571 C572 1.387 . S
C571 H574 0.950 . S
C572 C571 1.387 . S
C572 C575 1.387 . S
H573 C569 0.950 . S
H574 C571 0.950 . S
C575 C566 1.390 . S
C575 H568 0.950 . S
C575 C572 1.387 . S
C576 C577 1.387 . S
C576 H580 0.950 . S
C576 C585 1.390 . S
C577 C576 1.387 . S
C577 C579 1.387 . S
H578 C585 0.950 . S
C579 C577 1.387 . S
C579 C581 1.390 . S
C579 H583 0.950 . S
H580 C576 0.950 . S
C581 C579 1.390 . S
C581 C582 1.387 . S
C581 H584 0.950 . S
C582 C581 1.387 . S
C582 C585 1.387 . S
H583 C579 0.950 . S
H584 C581 0.950 . S
C585 C576 1.390 . S
C585 H578 0.950 . S
C585 C582 1.387 . S
C586 C587 1.387 . S
C586 H590 0.950 . S
C586 C595 1.390 1_455 S
C587 C586 1.387 . S
C587 C589 1.387 . S
H588 C595 0.950 . S
C589 C587 1.387 . S
C589 C591 1.390 1_455 S
C589 H593 0.950 . S
H590 C586 0.950 . S
C591 C589 1.390 1_655 S
C591 C592 1.387 . S
C591 H594 0.950 . S
C592 C591 1.387 . S
C592 C595 1.387 . S
H593 C589 0.950 . S
H594 C591 0.950 . S
C595 C586 1.390 1_655 S
C595 H588 0.950 . S
C595 C592 1.387 . S
C596 C597 1.387 . S
C596 H600 0.950 . S
C596 C605 1.390 1_565 S
C597 C596 1.387 . S
C597 C599 1.387 . S
H598 C605 0.950 . S
C599 C597 1.387 . S
C599 C601 1.390 1_565 S
C599 H603 0.950 . S
H600 C596 0.950 . S
C601 C599 1.390 1_545 S
C601 C602 1.387 . S
C601 H604 0.950 . S
C602 C601 1.387 . S
C602 C605 1.387 . S
H603 C599 0.950 . S
H604 C601 0.950 . S
C605 C596 1.390 1_545 S
C605 H598 0.950 . S
C605 C602 1.387 . S
C606 C607 1.387 . S
C606 H610 0.950 . S
C606 C615 1.390 . S
C607 C606 1.387 . S
C607 C609 1.387 . S
H608 C615 0.950 . S
C609 C607 1.387 . S
C609 C611 1.390 . S
C609 H613 0.950 . S
H610 C606 0.950 . S
C611 C609 1.390 . S
C611 C612 1.387 . S
C611 H614 0.950 . S
C612 C611 1.387 . S
C612 C615 1.387 . S
H613 C609 0.950 . S
H614 C611 0.950 . S
C615 C606 1.390 . S
C615 H608 0.950 . S
C615 C612 1.387 . S
C616 C617 1.387 . S
C616 H620 0.950 . S
C616 C625 1.390 1_455 S
C617 C616 1.387 . S
C617 C619 1.387 . S
H618 C625 0.950 . S
C619 C617 1.387 . S
C619 C621 1.390 1_455 S
C619 H623 0.950 . S
H620 C616 0.950 . S
C621 C619 1.390 1_655 S
C621 C622 1.387 . S
C621 H624 0.950 . S
C622 C621 1.387 . S
C622 C625 1.387 . S
H623 C619 0.950 . S
H624 C621 0.950 . S
C625 C616 1.390 1_655 S
C625 H618 0.950 . S
C625 C622 1.387 . S
C626 C627 1.387 . S
C626 H630 0.950 . S
C626 C635 1.390 1_565 S
C627 C626 1.387 . S
C627 C629 1.387 . S
H628 C635 0.950 . S
C629 C627 1.387 . S
C629 C631 1.390 1_565 S
C629 H633 0.950 . S
H630 C626 0.950 . S
C631 C629 1.390 1_545 S
C631 C632 1.387 . S
C631 H634 0.950 . S
C632 C631 1.387 . S
C632 C635 1.387 . S
H633 C629 0.950 . S
H634 C631 0.950 . S
C635 C626 1.390 1_545 S
C635 H628 0.950 . S
C635 C632 1.387 . S
C636 C637 1.387 . S
C636 H640 0.950 . S
C636 C645 1.390 1_445 S
C637 C636 1.387 . S
C637 C639 1.387 . S
H638 C645 0.950 . S
C639 C637 1.387 . S
C639 C641 1.390 1_445 S
C639 H643 0.950 . S
H640 C636 0.950 . S
C641 C639 1.390 1_665 S
C641 C642 1.387 . S
C641 H644 0.950 . S
C642 C641 1.387 . S
C642 C645 1.387 . S
H643 C639 0.950 . S
H644 C641 0.950 . S
C645 C636 1.390 1_665 S
C645 H638 0.950 . S
C645 C642 1.387 . S
C646 C647 1.387 . S
C646 H650 0.950 . S
C646 C655 1.390 1_445 S
C647 C646 1.387 . S
C647 C649 1.387 . S
H648 C655 0.950 . S
C649 C647 1.387 . S
C649 C651 1.390 1_445 S
C649 H653 0.950 . S
H650 C646 0.950 . S
C651 C649 1.390 1_665 S
C651 C652 1.387 . S
C651 H654 0.950 . S
C652 C651 1.387 . S
C652 C655 1.387 . S
H653 C649 0.950 . S
H654 C651 0.950 . S
C655 C646 1.390 1_665 S
C655 H648 0.950 . S
C655 C652 1.387 . S
C656 C657 1.387 . S
C656 H660 0.950 . S
C656 C665 1.390 1_645 S
C657 C656 1.387 . S
C657 C659 1.387 . S
H658 C665 0.950 . S
C659 C657 1.387 . S
C659 C661 1.390 1_645 S
C659 H663 0.950 . S
H660 C656 0.950 . S
C661 C659 1.390 1_465 S
C661 C662 1.387 . S
C661 H664 0.950 . S
C662 C661 1.387 . S
C662 C665 1.387 . S
H663 C659 0.950 . S
H664 C661 0.950 . S
C665 C656 1.390 1_465 S
C665 H658 0.950 . S
C665 C662 1.387 . S
C666 C667 1.387 . S
C666 H670 0.950 . S
C666 C675 1.390 1_665 S
C667 C666 1.387 . S
C667 C669 1.387 . S
H668 C675 0.950 . S
C669 C667 1.387 . S
C669 C671 1.390 1_665 S
C669 H673 0.950 . S
H670 C666 0.950 . S
C671 C669 1.390 1_445 S
C671 C672 1.387 . S
C671 H674 0.950 . S
C672 C671 1.387 . S
C672 C675 1.387 . S
H673 C669 0.950 . S
H674 C671 0.950 . S
C675 C666 1.390 1_445 S
C675 H668 0.950 . S
C675 C672 1.387 . S
C676 C677 1.387 . S
C676 H680 0.950 . S
C676 C685 1.390 1_645 S
C677 C676 1.387 . S
C677 C679 1.387 . S
H678 C685 0.950 . S
C679 C677 1.387 . S
C679 C681 1.390 1_645 S
C679 H683 0.950 . S
H680 C676 0.950 . S
C681 C679 1.390 1_465 S
C681 C682 1.387 . S
C681 H684 0.950 . S
C682 C681 1.387 . S
C682 C685 1.387 . S
H683 C679 0.950 . S
H684 C681 0.950 . S
C685 C676 1.390 1_465 S
C685 H678 0.950 . S
C685 C682 1.387 . S
C686 C687 1.387 . S
C686 H690 0.950 . S
C686 C695 1.390 1_445 S
C687 C686 1.387 . S
C687 C689 1.387 . S
H688 C695 0.950 . S
C689 C687 1.387 . S
C689 C691 1.390 1_445 S
C689 H693 0.950 . S
H690 C686 0.950 . S
C691 C689 1.390 1_665 S
C691 C692 1.387 . S
C691 H694 0.950 . S
C692 C691 1.387 . S
C692 C695 1.387 . S
H693 C689 0.950 . S
H694 C691 0.950 . S
C695 C686 1.390 1_665 S
C695 H688 0.950 . S
C695 C692 1.387 . S
C397 N14 1.609 . S
C402 N245 1.609 . S
C407 N47 1.610 . S
C412 N278 1.610 . S
C417 N80 1.608 . S
C422 N311 1.611 . S
C427 N344 1.610 . S
C432 N113 1.610 . S
C437 N377 1.610 . S
C442 N146 1.608 . S
C447 N179 1.609 . S
C452 N212 1.611 . S
C457 C127 1.772 . S
C462 C28 1.772 . S
C467 C61 1.772 . S
C472 C160 1.772 . S
C477 C193 1.773 . S
C482 C94 1.773 . S
C487 C325 1.773 . S
C492 C226 1.773 . S
C497 C358 1.772 . S
C502 C259 1.772 . S
C507 C292 1.773 . S
C512 C391 1.773 . S
C517 N269 1.542 . S
C522 N5 1.542 . S
C527 N38 1.541 . S
C532 N302 1.541 . S
C537 N71 1.540 . S
C542 N335 1.543 . S
C547 N104 1.540 . S
C552 N368 1.543 . S
C557 N137 1.541 . S
C562 N203 1.541 . S
C567 N236 1.540 . S
C572 N170 1.543 . S
C577 C116 1.095 . S
C582 C17 1.095 . S
C587 C50 1.094 . S
C592 C149 1.094 . S
C597 C182 1.094 . S
C602 C83 1.094 . S
C607 C215 1.094 . S
C612 C314 1.094 . S
C617 C248 1.096 . S
C622 C347 1.096 . S
C627 C380 1.095 . S
C632 C281 1.095 . S
C637 C8 1.479 . S
C642 C107 1.479 . S
C647 C41 1.481 . S
C652 C140 1.481 . S
C657 C74 1.479 . S
C662 C173 1.479 . S
C667 C206 1.481 . S
C672 C305 1.481 . S
C677 C338 1.481 . S
C682 C239 1.481 . S
C687 C272 1.479 . S
C692 C371 1.479 . S
