# Generated by pormake.
# Topology sgn, (3)-cn, num edge types: 1
# Building blocks:
#     Node 0, Type 0, BuildingBlock: OLANEW_clean_sbu_2, # of connection points: 3
#     Node 1, Type 0, BuildingBlock: OLANEW_clean_sbu_2, # of connection points: 3
#     Node 2, Type 0, BuildingBlock: OLANEW_clean_sbu_2, # of connection points: 3
#     Node 3, Type 0, BuildingBlock: OLANEW_clean_sbu_2, # of connection points: 3
#     Node 4, Type 0, BuildingBlock: OLANEW_clean_sbu_2, # of connection points: 3
#     Node 5, Type 0, BuildingBlock: OLANEW_clean_sbu_2, # of connection points: 3
#     Node 6, Type 0, BuildingBlock: OLANEW_clean_sbu_2, # of connection points: 3
#     Node 7, Type 0, BuildingBlock: OLANEW_clean_sbu_2, # of connection points: 3
#     Node 8, Type 0, BuildingBlock: OLANEW_clean_sbu_2, # of connection points: 3
#     Node 9, Type 0, BuildingBlock: OLANEW_clean_sbu_2, # of connection points: 3
#     Node 10, Type 0, BuildingBlock: OLANEW_clean_sbu_2, # of connection points: 3
#     Node 11, Type 0, BuildingBlock: OLANEW_clean_sbu_2, # of connection points: 3
#     Node 12, Type 0, BuildingBlock: OLANEW_clean_sbu_2, # of connection points: 3
#     Node 13, Type 0, BuildingBlock: OLANEW_clean_sbu_2, # of connection points: 3
#     Node 14, Type 0, BuildingBlock: OLANEW_clean_sbu_2, # of connection points: 3
#     Node 15, Type 0, BuildingBlock: OLANEW_clean_sbu_2, # of connection points: 3
#     Node 16, Type 0, BuildingBlock: OLANEW_clean_sbu_2, # of connection points: 3
#     Node 17, Type 0, BuildingBlock: OLANEW_clean_sbu_2, # of connection points: 3
#     Node 18, Type 0, BuildingBlock: OLANEW_clean_sbu_2, # of connection points: 3
#     Node 19, Type 0, BuildingBlock: OLANEW_clean_sbu_2, # of connection points: 3
#     Node 20, Type 0, BuildingBlock: OLANEW_clean_sbu_2, # of connection points: 3
#     Node 21, Type 0, BuildingBlock: OLANEW_clean_sbu_2, # of connection points: 3
#     Node 22, Type 0, BuildingBlock: OLANEW_clean_sbu_2, # of connection points: 3
#     Node 23, Type 0, BuildingBlock: OLANEW_clean_sbu_2, # of connection points: 3
#     Edge 24, Type (0, 0), BuildingBlock: UVAHIK_clean_linker_0, # of connection points: 2
#     Edge 25, Type (0, 0), BuildingBlock: UVAHIK_clean_linker_0, # of connection points: 2
#     Edge 26, Type (0, 0), BuildingBlock: UVAHIK_clean_linker_0, # of connection points: 2
#     Edge 27, Type (0, 0), BuildingBlock: UVAHIK_clean_linker_0, # of connection points: 2
#     Edge 28, Type (0, 0), BuildingBlock: UVAHIK_clean_linker_0, # of connection points: 2
#     Edge 29, Type (0, 0), BuildingBlock: UVAHIK_clean_linker_0, # of connection points: 2
#     Edge 30, Type (0, 0), BuildingBlock: UVAHIK_clean_linker_0, # of connection points: 2
#     Edge 31, Type (0, 0), BuildingBlock: UVAHIK_clean_linker_0, # of connection points: 2
#     Edge 32, Type (0, 0), BuildingBlock: UVAHIK_clean_linker_0, # of connection points: 2
#     Edge 33, Type (0, 0), BuildingBlock: UVAHIK_clean_linker_0, # of connection points: 2
#     Edge 34, Type (0, 0), BuildingBlock: UVAHIK_clean_linker_0, # of connection points: 2
#     Edge 35, Type (0, 0), BuildingBlock: UVAHIK_clean_linker_0, # of connection points: 2
#     Edge 36, Type (0, 0), BuildingBlock: UVAHIK_clean_linker_0, # of connection points: 2
#     Edge 37, Type (0, 0), BuildingBlock: UVAHIK_clean_linker_0, # of connection points: 2
#     Edge 38, Type (0, 0), BuildingBlock: UVAHIK_clean_linker_0, # of connection points: 2
#     Edge 39, Type (0, 0), BuildingBlock: UVAHIK_clean_linker_0, # of connection points: 2
#     Edge 40, Type (0, 0), BuildingBlock: UVAHIK_clean_linker_0, # of connection points: 2
#     Edge 41, Type (0, 0), BuildingBlock: UVAHIK_clean_linker_0, # of connection points: 2
#     Edge 42, Type (0, 0), BuildingBlock: UVAHIK_clean_linker_0, # of connection points: 2
#     Edge 43, Type (0, 0), BuildingBlock: UVAHIK_clean_linker_0, # of connection points: 2
#     Edge 44, Type (0, 0), BuildingBlock: UVAHIK_clean_linker_0, # of connection points: 2
#     Edge 45, Type (0, 0), BuildingBlock: UVAHIK_clean_linker_0, # of connection points: 2
#     Edge 46, Type (0, 0), BuildingBlock: UVAHIK_clean_linker_0, # of connection points: 2
#     Edge 47, Type (0, 0), BuildingBlock: UVAHIK_clean_linker_0, # of connection points: 2
#     Edge 48, Type (0, 0), BuildingBlock: UVAHIK_clean_linker_0, # of connection points: 2
#     Edge 49, Type (0, 0), BuildingBlock: UVAHIK_clean_linker_0, # of connection points: 2
#     Edge 50, Type (0, 0), BuildingBlock: UVAHIK_clean_linker_0, # of connection points: 2
#     Edge 51, Type (0, 0), BuildingBlock: UVAHIK_clean_linker_0, # of connection points: 2
#     Edge 52, Type (0, 0), BuildingBlock: UVAHIK_clean_linker_0, # of connection points: 2
#     Edge 53, Type (0, 0), BuildingBlock: UVAHIK_clean_linker_0, # of connection points: 2
#     Edge 54, Type (0, 0), BuildingBlock: UVAHIK_clean_linker_0, # of connection points: 2
#     Edge 55, Type (0, 0), BuildingBlock: UVAHIK_clean_linker_0, # of connection points: 2
#     Edge 56, Type (0, 0), BuildingBlock: UVAHIK_clean_linker_0, # of connection points: 2
#     Edge 57, Type (0, 0), BuildingBlock: UVAHIK_clean_linker_0, # of connection points: 2
#     Edge 58, Type (0, 0), BuildingBlock: UVAHIK_clean_linker_0, # of connection points: 2
#     Edge 59, Type (0, 0), BuildingBlock: UVAHIK_clean_linker_0, # of connection points: 2
# Relax obj value: 0.094
# Max RMSD: 0.259
# Mean RMSD: 0.072
data_MOF--net-sgn--node1-OLANEW_clean_sbu_2--edge1-UVAHIK_clean_linker_0
_symmetry_space_group_name_H-M    P1
_symmetry_Int_Tables_number       1
_symmetry_cell_setting            triclinic
loop_
_symmetry_equiv_pos_as_xyz
'x, y, z'
_cell_length_a     95.439261
_cell_length_b     44.467604
_cell_length_c     54.32554
_cell_angle_alpha  89.39993
_cell_angle_beta   90.975773
_cell_angle_gamma 87.822643
loop_
_atom_site_label
_atom_site_type_symbol
_atom_site_fract_x
_atom_site_fract_y
_atom_site_fract_z
_atom_type_partial_charge
O0 O 0.0117 0.4617 0.00513 0.0
Cd1 Cd 0.00753 0.51141 0.98606 0.0
O2 O -0.00363 0.44123 0.98038 0.0
Cd3 Cd 0.98689 0.48486 0.96938 0.0
O4 O 0.97148 0.52146 0.97558 0.0
C5 C 0.95864 0.51644 0.97138 0.0
O6 O 0.95538 0.49047 0.96195 0.0
C7 C 0.00589 0.43842 0.99701 0.0
C8 C 0.02472 0.51656 0.94528 0.0
O9 O 0.02869 0.52538 0.96659 0.0
O10 O 0.0125 0.50579 0.94315 0.0
O11 O 0.00023 0.93056 0.4181 0.0
Cd12 Cd 0.00418 0.97814 0.39686 0.0
O13 O 0.97797 0.9432 0.42158 0.0
Cd14 Cd 0.9559 0.93807 0.43051 0.0
O15 O 0.93339 0.94259 0.43695 0.0
C16 C 0.92759 0.92864 0.45435 0.0
O17 O 0.93532 0.91051 0.46874 0.0
C18 C -0.01187 0.92435 0.42564 0.0
C19 C 0.02639 0.97283 0.36424 0.0
O20 O 0.02853 0.97933 0.38689 0.0
O21 O 0.01374 0.96889 0.35701 0.0
O22 O 0.48502 0.45255 0.52427 0.0
Cd23 Cd 0.48832 0.40563 0.54779 0.0
O24 O 0.46316 0.45614 0.53588 0.0
Cd25 Cd 0.44155 0.47464 0.53671 0.0
O26 O 0.41933 0.48718 0.54079 0.0
C27 C 0.41024 0.46782 0.53593 0.0
O28 O 0.41451 0.44115 0.52823 0.0
C29 C 0.47324 0.46688 0.52401 0.0
C30 C 0.51478 0.40149 0.57043 0.0
O31 O 0.51277 0.39136 0.54871 0.0
O32 O 0.50424 0.41347 0.5815 0.0
O33 O 0.49547 0.23275 0.01205 0.0
Cd34 Cd 0.49734 0.17786 0.01511 0.0
O35 O 0.51747 0.2372 0.00156 0.0
Cd36 Cd 0.52379 0.19095 0.01173 0.0
O37 O 0.53621 0.15846 0.03429 0.0
C38 C 0.53306 0.15569 0.05682 0.0
O39 O 0.52202 0.17083 0.06496 0.0
C40 C 0.50533 0.24906 0.00497 0.0
C41 C 0.47212 0.15462 0.99872 0.0
O42 O 0.47459 0.15828 0.02174 0.0
O43 O 0.48167 0.16134 0.98354 0.0
O44 O 0.9762 0.65225 0.59114 0.0
Cd45 Cd 0.97562 0.60825 0.6184 0.0
O46 O -0.00465 0.63606 0.57271 0.0
Cd47 Cd 0.0006 0.60067 0.59992 0.0
O48 O 0.01516 0.58001 0.62724 0.0
C49 C 0.01417 0.58664 0.64986 0.0
O50 O 0.00366 0.60434 0.65679 0.0
C51 C 0.98517 0.65518 0.57432 0.0
C52 C 0.95398 0.57223 0.60249 0.0
O53 O 0.95177 0.59316 0.61816 0.0
O54 O 0.9665 0.56789 0.59476 0.0
O55 O 0.46817 0.77519 0.40537 0.0
Cd56 Cd 0.4652 0.82593 0.38772 0.0
O57 O 0.44765 0.76222 0.39078 0.0
Cd58 Cd 0.43958 0.80803 0.38333 0.0
O59 O 0.42144 0.83564 0.39463 0.0
C60 C 0.41188 0.82009 0.40384 0.0
O61 O 0.4138 0.79067 0.40482 0.0
C62 C 0.45925 0.75514 0.40157 0.0
C63 C 0.49029 0.84505 0.3682 0.0
O64 O 0.48653 0.85287 0.38983 0.0
O65 O 0.48217 0.82839 0.35578 0.0
O66 O 0.50325 0.58547 0.99043 0.0
Cd67 Cd 0.50395 0.64018 0.98727 0.0
O68 O 0.48076 0.58714 0.98148 0.0
Cd69 Cd 0.46058 0.56805 0.97231 0.0
O70 O 0.43969 0.5504 0.96787 0.0
C71 C 0.43797 0.52221 0.96747 0.0
O72 O 0.449 0.50367 0.96924 0.0
C73 C 0.49197 0.57182 0.98671 0.0
C74 C 0.52903 0.65547 0.96579 0.0
O75 O 0.52806 0.65302 0.98922 0.0
O76 O 0.51805 0.65126 0.95256 0.0
O77 O -0.00115 0.15339 0.14104 0.0
Cd78 Cd -0.00944 0.11056 0.16452 0.0
O79 O -0.01194 0.1406 0.10681 0.0
Cd80 Cd 0.97575 0.10513 0.12273 0.0
O81 O 0.95491 0.08642 0.12351 0.0
C82 C 0.94477 0.10573 0.12451 0.0
O83 O 0.94761 0.13431 0.12642 0.0
C84 C -0.0038 0.15785 0.11825 0.0
C85 C 0.01063 0.09178 0.19998 0.0
O86 O 0.01087 0.08123 0.17812 0.0
O87 O 0.0008 0.11098 0.20517 0.0
O88 O 0.17733 0.96848 0.45273 0.0
Cd89 Cd 0.17307 0.96438 0.49673 0.0
O90 O 0.15492 0.97767 0.44506 0.0
Cd91 Cd 0.1369 0.98892 0.42071 0.0
O92 O 0.11957 0.00375 0.39607 0.0
C93 C 0.12056 -0.00019 0.37302 0.0
O94 O 0.13199 0.98654 0.36451 0.0
C95 C 0.16732 0.97316 0.4373 0.0
C96 C 0.18017 0.90556 0.51178 0.0
O97 O 0.16778 0.91287 0.50381 0.0
O98 O 0.18912 0.92627 0.51319 0.0
O99 O 0.18804 0.57544 0.90243 0.0
Cd100 Cd 0.18251 0.60622 0.9382 0.0
O101 O 0.1669 0.58595 0.88773 0.0
Cd102 Cd 0.15017 0.5881 0.85961 0.0
O103 O 0.13236 0.58711 0.83389 0.0
C104 C 0.13403 0.57912 0.81171 0.0
O105 O 0.1467 0.57173 0.80422 0.0
C106 C 0.1789 0.57294 0.88537 0.0
C107 C 0.19457 0.66215 0.93349 0.0
O108 O 0.20117 0.64002 0.94438 0.0
O109 O 0.18218 0.65792 0.92509 0.0
O110 O 0.2702 0.96583 0.59526 0.0
Cd111 Cd 0.2658 0.95879 0.55128 0.0
O112 O 0.2542 0.00245 0.59372 0.0
Cd113 Cd 0.24263 0.04177 0.60798 0.0
O114 O 0.23344 0.08601 0.6168 0.0
C115 C 0.23864 0.10896 0.60687 0.0
O116 O 0.24922 0.10503 0.59191 0.0
C117 C 0.26316 0.98639 0.60612 0.0
C118 C 0.28972 0.93907 0.52643 0.0
O119 O 0.28676 0.96723 0.52887 0.0
O120 O 0.28141 0.92031 0.53586 0.0
O121 O 0.23489 0.39555 0.06182 0.0
Cd122 Cd 0.24099 0.37593 0.10285 0.0
O123 O 0.25697 0.39113 0.05174 0.0
Cd124 Cd 0.27528 0.39647 0.02866 0.0
O125 O 0.2954 0.4044 0.01176 0.0
C126 C 0.29785 0.43045 0.00345 0.0
O127 O 0.28798 0.4518 0.00454 0.0
C128 C 0.24431 0.39812 0.04577 0.0
C129 C 0.23928 0.31352 0.10362 0.0
O130 O 0.22853 0.3307 0.10792 0.0
O131 O 0.25091 0.32587 0.09922 0.0
O132 O 0.21495 0.9323 0.17601 0.0
Cd133 Cd 0.21975 0.93406 0.13207 0.0
O134 O 0.19245 0.93391 0.16695 0.0
Cd135 Cd 0.17038 0.93892 0.17703 0.0
O136 O 0.15088 0.9384 0.1974 0.0
C137 C 0.14431 0.96275 0.20283 0.0
O138 O 0.14917 0.98848 0.19536 0.0
C139 C 0.20232 0.93318 0.18304 0.0
C140 C 0.224 0.99368 0.11885 0.0
O141 O 0.23436 0.97581 0.12497 0.0
O142 O 0.21169 0.98311 0.1184 0.0
O143 O 0.22875 0.51606 0.63589 0.0
Cd144 Cd 0.23491 0.53035 0.59388 0.0
O145 O 0.20646 0.51124 0.62642 0.0
Cd146 Cd 0.20851 0.53391 0.59094 0.0
O147 O 0.20689 0.57634 0.57027 0.0
C148 C 0.21513 0.59696 0.57621 0.0
O149 O 0.22482 0.59121 0.59327 0.0
C150 C 0.21651 0.50887 0.64207 0.0
C151 C 0.26342 0.52149 0.58445 0.0
O152 O 0.25859 0.54652 0.59295 0.0
O153 O 0.25477 0.50062 0.58057 0.0
O154 O 0.29955 0.07024 0.86383 0.0
Cd155 Cd 0.30372 0.09225 0.90423 0.0
O156 O 0.28391 0.04095 0.87941 0.0
Cd157 Cd 0.26923 0.0043 0.87822 0.0
O158 O 0.25742 0.96343 0.88251 0.0
C159 C 0.26315 0.94177 0.89493 0.0
O160 O 0.27577 0.94495 0.90437 0.0
C161 C 0.29049 0.05033 0.86084 0.0
C162 C 0.33206 0.09508 0.91707 0.0
O163 O 0.3248 0.07326 0.92462 0.0
O164 O 0.32597 0.11533 0.90326 0.0
O165 O 0.17708 0.45436 0.79794 0.0
Cd166 Cd 0.16275 0.46132 0.76065 0.0
O167 O 0.19667 0.43546 0.7826 0.0
Cd168 Cd 0.18806 0.42963 0.74561 0.0
O169 O 0.18732 0.39753 0.71558 0.0
C170 C 0.19692 0.39686 0.69966 0.0
O171 O 0.20639 0.41756 0.70028 0.0
C172 C 0.18974 0.44498 0.80089 0.0
C173 C 0.13633 0.47857 0.77758 0.0
O174 O 0.13881 0.45164 0.77023 0.0
O175 O 0.14605 0.49751 0.77582 0.0
O176 O 0.76107 0.02908 0.07902 0.0
Cd177 Cd 0.77462 0.03786 0.04206 0.0
O178 O 0.74207 0.01415 0.05998 0.0
Cd179 Cd 0.74973 0.02627 0.02366 0.0
O180 O 0.7502 0.05078 0.9886 0.0
C181 C 0.73836 0.05872 0.97903 0.0
O182 O 0.72692 0.051 0.99023 0.0
C183 C 0.74878 0.01905 0.07986 0.0
C184 C 0.80258 0.04604 0.05551 0.0
O185 O 0.79371 0.06838 0.05388 0.0
O186 O 0.79828 0.01984 0.05039 0.0
O187 O 0.82253 0.43973 0.40236 0.0
Cd188 Cd 0.82198 0.41023 0.44054 0.0
O189 O 0.8042 0.41916 0.38523 0.0
Cd190 Cd 0.79969 0.38796 0.41512 0.0
O191 O 0.78751 0.35058 0.42828 0.0
C192 C 0.77426 0.35471 0.42853 0.0
O193 O 0.76883 0.38148 0.42267 0.0
C194 C 0.814 0.4377 0.38428 0.0
C195 C 0.84238 0.43006 0.47341 0.0
O196 O 0.84526 0.40932 0.45788 0.0
O197 O 0.82977 0.44108 0.47367 0.0
O198 O 0.66437 0.95734 0.31163 0.0
Cd199 Cd 0.65234 0.94789 0.2726 0.0
O200 O 0.68586 0.95492 0.29753 0.0
Cd201 Cd 0.68015 0.9422 0.26009 0.0
O202 O 0.68582 0.92187 0.22505 0.0
C203 C 0.69731 0.92992 0.21604 0.0
O204 O 0.70438 0.95042 0.22757 0.0
C205 C 0.6775 0.95918 0.31522 0.0
C206 C 0.62489 0.9323 0.28216 0.0
O207 O 0.62818 0.95993 0.28076 0.0
O208 O 0.63451 0.91201 0.27855 0.0
O209 O 0.8264 0.64822 0.16649 0.0
Cd210 Cd 0.82629 0.68383 0.13185 0.0
O211 O 0.80834 0.6242 0.15209 0.0
Cd212 Cd 0.80309 0.65919 0.1246 0.0
O213 O 0.79124 0.70061 0.11455 0.0
C214 C 0.77795 0.69955 0.11382 0.0
O215 O 0.77221 0.67345 0.1172 0.0
C216 C 0.81812 0.62655 0.16806 0.0
C217 C 0.8474 0.66689 0.09929 0.0
O218 O 0.84972 0.68529 0.11677 0.0
O219 O 0.83503 0.65689 0.09698 0.0
O220 O 0.71928 0.34716 0.73601 0.0
Cd221 Cd 0.72095 0.29371 0.72583 0.0
O222 O 0.69674 0.34744 0.72773 0.0
Cd223 Cd 0.67586 0.36785 0.72032 0.0
O224 O 0.65489 0.37885 0.70524 0.0
C225 C 0.65236 0.37093 0.68324 0.0
O226 O 0.66241 0.35723 0.67089 0.0
C227 C 0.70751 0.36146 0.7344 0.0
C228 C 0.7243 0.25633 0.76725 0.0
O229 O 0.73496 0.2664 0.75623 0.0
O230 O 0.71207 0.26412 0.75875 0.0
O231 O 0.68747 0.03958 0.33086 0.0
Cd232 Cd 0.67906 0.04788 0.3725 0.0
O233 O 0.66634 0.03952 0.31437 0.0
Cd234 Cd 0.65077 0.04055 0.28425 0.0
O235 O 0.63418 0.04754 0.25636 0.0
C236 C 0.63646 0.04419 0.23355 0.0
O237 O 0.64911 0.03574 0.22654 0.0
C238 C 0.67958 0.03741 0.31193 0.0
C239 C 0.6921 0.09723 0.39267 0.0
O240 O 0.6979 0.0708 0.39413 0.0
O241 O 0.68006 0.10024 0.38193 0.0
O242 O 0.72102 0.06717 0.56567 0.0
Cd243 Cd 0.72899 0.08212 0.6065 0.0
O244 O 0.74215 0.04851 0.55915 0.0
Cd245 Cd 0.75897 0.02343 0.54042 0.0
O246 O 0.77866 0.0025 0.528 0.0
C247 C 0.78454 0.01219 0.50882 0.0
O248 O 0.77837 0.0344 0.4961 0.0
C249 C 0.72958 0.05352 0.55159 0.0
C250 C 0.73049 0.03242 0.63827 0.0
O251 O 0.71923 0.04897 0.63612 0.0
O252 O 0.74108 0.03958 0.62556 0.0
O253 O 0.73339 0.6738 0.81058 0.0
Cd254 Cd 0.73989 0.72116 0.82926 0.0
O255 O 0.71179 0.68354 0.82157 0.0
Cd256 Cd 0.68925 0.67836 0.8258 0.0
O257 O 0.66766 0.67696 0.83823 0.0
C258 C 0.66558 0.67975 0.86115 0.0
O259 O 0.6764 0.68309 0.87601 0.0
C260 C 0.72076 0.66588 0.81152 0.0
C261 C 0.73771 0.76991 0.79655 0.0
O262 O 0.74913 0.75395 0.79885 0.0
O263 O 0.72727 0.76264 0.8096 0.0
C264 C -0.00165 0.18952 0.08026 0.0
C265 C 0.00182 0.18412 0.10521 0.0
C266 C 0.00245 0.21567 0.0684 0.0
C267 C 0.01142 0.29336 0.08205 0.0
H268 H 0.01961 0.29561 0.01238 0.0
C269 C 0.01772 0.40546 0.02957 0.0
C270 C 0.00951 0.40837 0.00787 0.0
C271 C 0.01989 0.37738 0.04115 0.0
C272 C 0.01736 0.29532 0.03186 0.0
H273 H 0.01289 0.2014 0.13695 0.0
H274 H 0.02018 0.247 0.1161 0.0
H275 H 0.01812 0.24719 0.03357 0.0
H276 H -0.00229 0.38382 0.9807 0.0
H277 H 0.00152 0.33498 0.00084 0.0
H278 H 0.01034 0.3415 0.08019 0.0
C279 C 0.01409 0.23116 0.10585 0.0
C280 C 0.01648 0.26761 0.04399 0.0
C281 C 0.00997 0.20495 0.11776 0.0
C282 C 0.00404 0.38241 0.99744 0.0
C283 C 0.00631 0.35435 0.00889 0.0
C284 C 0.01237 0.32107 0.06993 0.0
C285 C 0.01016 0.23708 0.08114 0.0
C286 C 0.01311 0.26629 0.06908 0.0
C287 C 0.01402 0.35161 0.03112 0.0
C288 C 0.01498 0.32234 0.04457 0.0
H289 H -0.0079 0.17398 0.07 0.0
H290 H -0.00095 0.21964 0.04949 0.0
H291 H 0.00864 0.29323 0.10129 0.0
H292 H 0.02211 0.42501 0.03806 0.0
H293 H 0.02599 0.3759 0.05815 0.0
C294 C 0.97386 0.70452 0.5603 0.0
C295 C 0.98409 0.68133 0.55715 0.0
C296 C 0.97342 0.72997 0.5449 0.0
C297 C -0.0039 0.77294 0.50413 0.0
H298 H 0.96112 0.81181 0.48134 0.0
C299 C -0.00478 0.87064 0.43411 0.0
C300 C 0.98621 0.89555 0.4388 0.0
C301 C -0.0058 0.84387 0.44749 0.0
C302 C 0.97097 0.80132 0.48774 0.0
H303 H 0.00157 0.6663 0.53476 0.0
H304 H 0.00066 0.71036 0.50777 0.0
H305 H 0.96069 0.76596 0.50652 0.0
H306 H 0.9693 0.91211 0.46177 0.0
H307 H 0.96735 0.86516 0.4849 0.0
H308 H 0.00639 0.80821 0.4855 0.0
C309 C -0.00684 0.7092 0.52245 0.0
C310 C 0.97072 0.77508 0.50216 0.0
C311 C -0.00637 0.68383 0.53786 0.0
C312 C 0.97605 0.89302 0.45705 0.0
C313 C 0.97501 0.86617 0.47046 0.0
C314 C -0.00366 0.79905 0.48971 0.0
C315 C 0.98318 0.73278 0.52599 0.0
C316 C 0.9833 0.76055 0.51049 0.0
C317 C 0.9842 0.84141 0.46602 0.0
C318 C 0.98379 0.81353 0.48128 0.0
H319 H 0.96636 0.70333 0.57499 0.0
H320 H 0.96568 0.74783 0.54828 0.0
H321 H 0.00598 0.76273 0.51067 0.0
H322 H 0.00315 0.8719 0.42014 0.0
H323 H 0.00131 0.82509 0.44337 0.0
C324 C 0.4734 0.71662 0.42654 0.0
C325 C 0.46183 0.724 0.41099 0.0
C326 C 0.47502 0.6879 0.43721 0.0
C327 C 0.45418 0.62286 0.45423 0.0
H328 H 0.49054 0.58218 0.46377 0.0
C329 C 0.46242 0.51873 0.51785 0.0
C330 C 0.47151 0.4954 0.50989 0.0
C331 C 0.46128 0.54606 0.50489 0.0
C332 C 0.48029 0.59311 0.46106 0.0
H333 H 0.44323 0.70651 0.39358 0.0
H334 H 0.4462 0.65644 0.4118 0.0
H335 H 0.48878 0.63031 0.44176 0.0
H336 H 0.48667 0.48245 0.48232 0.0
H337 H 0.48457 0.53001 0.45949 0.0
H338 H 0.44564 0.58551 0.47316 0.0
C339 C 0.45385 0.67301 0.41623 0.0
C340 C 0.4793 0.62087 0.44868 0.0
C341 C 0.45221 0.7017 0.40565 0.0
C342 C 0.47954 0.50002 0.48883 0.0
C343 C 0.47839 0.52732 0.47584 0.0
C344 C 0.45516 0.59514 0.46658 0.0
C345 C 0.46513 0.66592 0.43249 0.0
C346 C 0.46624 0.63609 0.44516 0.0
C347 C 0.46927 0.5507 0.48375 0.0
C348 C 0.46822 0.57996 0.47022 0.0
H349 H 0.48099 0.73329 0.43108 0.0
H350 H 0.48377 0.68325 0.4498 0.0
H351 H 0.44396 0.63415 0.45214 0.0
H352 H 0.45654 0.51632 0.53455 0.0
H353 H 0.45439 0.56384 0.5118 0.0
C354 C 0.50433 0.52217 0.98057 0.0
C355 C 0.49222 0.53858 0.98759 0.0
C356 C 0.5048 0.49076 0.98135 0.0
C357 C 0.48833 0.42597 0.01043 0.0
H358 H 0.50665 0.3815 0.95821 0.0
C359 C 0.48978 0.29582 0.00677 0.0
C360 C 0.50281 0.2819 0.00123 0.0
C361 C 0.48763 0.32698 0.00404 0.0
C362 C 0.50158 0.3936 0.97301 0.0
H363 H 0.47139 0.53498 0.00232 0.0
H364 H 0.47201 0.48003 0.00302 0.0
H365 H 0.50442 0.43623 0.95556 0.0
H366 H 0.52373 0.28983 0.98813 0.0
H367 H 0.51998 0.34404 0.98348 0.0
H368 H 0.48559 0.38327 0.02795 0.0
C369 C 0.48113 0.49147 0.99673 0.0
C370 C 0.50031 0.42496 0.97152 0.0
C371 C 0.48066 0.52295 0.9959 0.0
C372 C 0.51356 0.29978 0.99255 0.0
C373 C 0.51139 0.33087 0.98974 0.0
C374 C 0.48957 0.39456 0.0119 0.0
C375 C 0.49318 0.475 0.98934 0.0
C376 C 0.49382 0.44155 0.99035 0.0
C377 C 0.49843 0.34485 0.99558 0.0
C378 C 0.49636 0.37806 0.99335 0.0
H379 H 0.51345 0.53364 0.9743 0.0
H380 H 0.51435 0.47882 0.97602 0.0
H381 H 0.48342 0.43806 0.0254 0.0
H382 H 0.48127 0.28272 0.01345 0.0
H383 H 0.47748 0.33706 0.00844 0.0
C384 C 0.18286 0.98233 0.40172 0.0
C385 C 0.17016 0.97211 0.41072 0.0
C386 C 0.18613 0.979 0.37689 0.0
C387 C 0.17877 0.93148 0.32396 0.0
H388 H 0.19452 0.99569 0.28575 0.0
C389 C 0.18747 0.92201 0.21938 0.0
C390 C 0.19922 0.93551 0.20951 0.0
C391 C 0.18401 0.92629 0.24401 0.0
C392 C 0.19032 0.97736 0.29625 0.0
H393 H 0.15114 0.94956 0.40107 0.0
H394 H 0.15677 0.944 0.35764 0.0
H395 H 0.18805 0.00454 0.32839 0.0
H396 H 0.2171 0.9624 0.21798 0.0
H397 H 0.21136 0.96907 0.26124 0.0
H398 H 0.18124 0.90409 0.29211 0.0
C399 C 0.16412 0.95488 0.36971 0.0
C400 C 0.18656 0.98251 0.32064 0.0
C401 C 0.16079 0.95851 0.39448 0.0
C402 C 0.20787 0.95203 0.22506 0.0
C403 C 0.20448 0.95613 0.24975 0.0
C404 C 0.18263 0.92625 0.29965 0.0
C405 C 0.17687 0.96489 0.3607 0.0
C406 C 0.18072 0.95964 0.33472 0.0
C407 C 0.19238 0.94371 0.25945 0.0
C408 C 0.18843 0.94913 0.28546 0.0
H409 H 0.19033 0.99261 0.41395 0.0
H410 H 0.1961 0.98663 0.37052 0.0
H411 H 0.1745 0.91327 0.33451 0.0
H412 H 0.18098 0.90802 0.20812 0.0
H413 H 0.17461 0.91638 0.25079 0.0
C414 C 0.20029 0.49186 0.67482 0.0
C415 C 0.21355 0.50164 0.6681 0.0
C416 C 0.19659 0.49046 0.69959 0.0
C417 C 0.21059 0.49766 0.76399 0.0
H418 H 0.17383 0.53474 0.77493 0.0
C419 C 0.19656 0.55732 0.85426 0.0
C420 C 0.1827 0.55714 0.86248 0.0
C421 C 0.20013 0.54445 0.83179 0.0
C422 C 0.18404 0.52388 0.77234 0.0
H423 H 0.23367 0.51544 0.68222 0.0
H424 H 0.22715 0.5138 0.72518 0.0
H425 H 0.18051 0.52108 0.73356 0.0
H426 H 0.16202 0.54065 0.85481 0.0
H427 H 0.16817 0.51846 0.81537 0.0
H428 H 0.21423 0.50134 0.80279 0.0
C429 C 0.21962 0.50678 0.71148 0.0
C430 C 0.18788 0.5159 0.74853 0.0
C431 C 0.22336 0.50788 0.68674 0.0
C432 C 0.17262 0.54242 0.8484 0.0
C433 C 0.17619 0.52953 0.82587 0.0
C434 C 0.20678 0.50579 0.78781 0.0
C435 C 0.20603 0.49909 0.71817 0.0
C436 C 0.20132 0.50331 0.74394 0.0
C437 C 0.18995 0.53084 0.81709 0.0
C438 C 0.19355 0.51954 0.79221 0.0
H439 H 0.19255 0.48646 0.66091 0.0
H440 H 0.18617 0.48364 0.70412 0.0
H441 H 0.22091 0.48738 0.76124 0.0
H442 H 0.20457 0.56837 0.86481 0.0
H443 H 0.21079 0.54621 0.82556 0.0
C444 C 0.27921 0.98784 0.64281 0.0
C445 C 0.26566 0.9918 0.63256 0.0
C446 C 0.28163 0.9926 0.66789 0.0
C447 C 0.26533 0.02819 0.72285 0.0
H448 H 0.29421 0.98032 0.7579 0.0
C449 C 0.27374 0.03342 0.82838 0.0
C450 C 0.28754 0.039 0.83592 0.0
C451 C 0.27079 0.02556 0.80403 0.0
C452 C 0.28614 0.99386 0.7483 0.0
H453 H 0.2439 0.00236 0.64062 0.0
H454 H 0.24798 0.00994 0.68447 0.0
H455 H 0.2894 0.97062 0.71452 0.0
H456 H 0.30909 0.04034 0.82419 0.0
H457 H 0.30397 0.02587 0.7817 0.0
H458 H 0.26193 0.05091 0.75695 0.0
C459 C 0.25689 0.00435 0.67309 0.0
C460 C 0.28342 0.98849 0.72339 0.0
C461 C 0.25452 4e-05 0.64792 0.0
C462 C 0.29837 0.03596 0.81885 0.0
C463 C 0.29546 0.0276 0.79462 0.0
C464 C 0.26791 0.0332 0.74785 0.0
C465 C 0.27049 0.00082 0.68343 0.0
C466 C 0.27307 0.0058 0.71023 0.0
C467 C 0.28161 0.02279 0.78689 0.0
C468 C 0.27842 0.01628 0.76074 0.0
H469 H 0.28799 0.98149 0.63133 0.0
H470 H 0.29229 0.99019 0.67498 0.0
H471 H 0.25747 0.04238 0.71334 0.0
H472 H 0.26515 0.03635 0.84099 0.0
H473 H 0.26003 0.02196 0.79851 0.0
C474 C 0.18898 0.45746 0.84569 0.0
C475 C 0.19637 0.44531 0.82572 0.0
C476 C 0.19497 0.45682 0.86931 0.0
C477 C 0.22857 0.44355 0.90424 0.0
H478 H 0.20376 0.4221 0.95686 0.0
C479 C 0.24774 0.39867 6e-05 0.0
C480 C 0.24032 0.40884 0.02068 0.0
C481 C 0.24312 0.40688 0.97628 0.0
C482 C 0.21079 0.42853 0.94245 0.0
H483 H 0.216 0.4236 0.81484 0.0
H484 H 0.22626 0.42147 0.85623 0.0
H485 H 0.19433 0.42957 0.91534 0.0
H486 H 0.22235 0.43583 0.03259 0.0
H487 H 0.21426 0.4501 0.99109 0.0
H488 H 0.24511 0.44155 0.93149 0.0
C489 C 0.21594 0.4321 0.85355 0.0
C490 C 0.20539 0.43289 0.91862 0.0
C491 C 0.21001 0.43307 0.82984 0.0
C492 C 0.22829 0.42767 0.01705 0.0
C493 C 0.22364 0.43577 0.9933 0.0
C494 C 0.23401 0.43899 0.92812 0.0
C495 C 0.20841 0.44358 0.87364 0.0
C496 C 0.2142 0.44033 0.89917 0.0
C497 C 0.23089 0.42511 0.97265 0.0
C498 C 0.22517 0.43133 0.94746 0.0
H499 H 0.17848 0.46721 0.84317 0.0
H500 H 0.18898 0.46647 0.88423 0.0
H501 H 0.23563 0.44964 0.88976 0.0
H502 H 0.25669 0.38317 0.00216 0.0
H503 H 0.24877 0.39785 0.96071 0.0
C504 C 0.74838 0.02536 0.12557 0.0
C505 C 0.74201 0.01491 0.10395 0.0
C506 C 0.74152 0.02396 0.14801 0.0
C507 C 0.70601 0.01968 0.17345 0.0
H508 H 0.72673 0.00716 0.23492 0.0
C509 C 0.6793 0.0177 0.26867 0.0
C510 C 0.68603 0.03329 0.28758 0.0
C511 C 0.68584 0.0132 0.24606 0.0
C512 C 0.72082 0.011 0.21791 0.0
H513 H 0.72367 0.99355 0.08917 0.0
H514 H 0.71182 0.99043 0.12853 0.0
H515 H 0.73883 0.0015 0.19608 0.0
H516 H 0.70494 0.05601 0.29777 0.0
H517 H 0.71627 0.0484 0.25842 0.0
H518 H 0.68798 0.02914 0.19544 0.0
C519 C 0.72199 0.0004 0.12799 0.0
C520 C 0.72775 0.00774 0.19563 0.0
C521 C 0.72882 0.00202 0.10546 0.0
C522 C 0.69946 0.04398 0.28353 0.0
C523 C 0.70599 0.03947 0.26102 0.0
C524 C 0.69905 0.02279 0.19578 0.0
C525 C 0.72816 0.01184 0.14948 0.0
C526 C 0.7205 0.01256 0.17311 0.0
C527 C 0.69929 0.02397 0.24204 0.0
C528 C 0.70643 0.01901 0.21826 0.0
H529 H 0.75852 0.03551 0.12508 0.0
H530 H 0.74653 0.03338 0.16407 0.0
H531 H 0.70011 0.02394 0.15649 0.0
H532 H 0.66924 0.00797 0.27156 0.0
H533 H 0.68053 0.00062 0.23197 0.0
C534 C 0.80619 0.45387 0.34176 0.0
C535 C 0.81548 0.45663 0.36191 0.0
C536 C 0.80758 0.47139 0.32053 0.0
C537 C 0.82238 0.54159 0.29793 0.0
H538 H 0.81687 0.5057 0.23389 0.0
C539 C 0.82977 0.60821 0.20749 0.0
C540 C 0.81941 0.60503 0.18908 0.0
C541 C 0.83039 0.5891 0.22812 0.0
C542 C 0.81834 0.51612 0.25163 0.0
H543 H 0.83352 0.48008 0.37549 0.0
H544 H 0.83597 0.51062 0.3383 0.0
H545 H 0.81583 0.47454 0.27096 0.0
H546 H 0.80176 0.57879 0.1777 0.0
H547 H 0.80278 0.54569 0.2137 0.0
H548 H 0.82471 0.58325 0.27862 0.0
C549 C 0.82754 0.49502 0.33907 0.0
C550 C 0.81774 0.49826 0.27288 0.0
C551 C 0.82617 0.47742 0.36033 0.0
C552 C 0.8099 0.58186 0.1915 0.0
C553 C 0.81052 0.56275 0.2121 0.0
C554 C 0.82297 0.55946 0.27667 0.0
C555 C 0.81828 0.49214 0.3189 0.0
C556 C 0.81961 0.51085 0.29629 0.0
C557 C 0.82068 0.56634 0.23078 0.0
C558 C 0.82082 0.54699 0.25328 0.0
H559 H 0.7978 0.43817 0.34234 0.0
H560 H 0.80012 0.46896 0.30549 0.0
H561 H 0.8237 0.55206 0.31569 0.0
H562 H 0.8373 0.62575 0.20618 0.0
H563 H 0.83846 0.59219 0.24201 0.0
C564 C 0.69739 0.97224 0.34339 0.0
C565 C 0.68306 0.96702 0.33986 0.0
C566 C 0.70255 0.98084 0.36639 0.0
C567 C 0.69095 0.01424 0.42514 0.0
H568 H 0.72752 0.98479 0.449 0.0
C569 C 0.71053 0.03593 0.52394 0.0
C570 C 0.72465 0.04299 0.52733 0.0
C571 C 0.70562 0.02628 0.50112 0.0
C572 C 0.71736 0.99351 0.44245 0.0
H573 H 0.66297 0.96615 0.3579 0.0
H574 H 0.67203 0.98032 0.39813 0.0
H575 H 0.71858 0.9679 0.40938 0.0
H576 H 0.74452 0.04695 0.50907 0.0
H577 H 0.73599 0.02978 0.46921 0.0
H578 H 0.68976 0.03995 0.45813 0.0
C579 C 0.67924 0.97844 0.383 0.0
C580 C 0.71222 0.98382 0.41974 0.0
C581 C 0.67406 0.97011 0.35995 0.0
C582 C 0.73373 0.04058 0.50731 0.0
C583 C 0.7288 0.03095 0.48442 0.0
C584 C 0.6961 0.02398 0.44779 0.0
C585 C 0.69353 0.98416 0.38647 0.0
C586 C 0.69895 0.99409 0.41079 0.0
C587 C 0.71468 0.0237 0.48106 0.0
C588 C 0.70935 0.01367 0.45675 0.0
H589 H 0.70461 0.9703 0.32826 0.0
H590 H 0.71357 0.98553 0.36826 0.0
H591 H 0.68081 0.02307 0.41865 0.0
H592 H 0.70329 0.03757 0.53905 0.0
H593 H 0.69473 0.02052 0.49927 0.0
C594 C 0.70548 0.62095 0.81004 0.0
C595 C 0.71691 0.63656 0.80116 0.0
C596 C 0.70248 0.59255 0.80092 0.0
C597 C 0.7111 0.53963 0.74985 0.0
H598 H 0.69967 0.47907 0.7965 0.0
C599 C 0.71795 0.412 0.73402 0.0
C600 C 0.70663 0.39399 0.73961 0.0
C601 C 0.71751 0.44256 0.73975 0.0
C602 C 0.70267 0.49585 0.78319 0.0
H603 H 0.73428 0.63436 0.77595 0.0
H604 H 0.72939 0.58462 0.7607 0.0
H605 H 0.70206 0.53078 0.80992 0.0
H606 H 0.68614 0.39358 0.75613 0.0
H607 H 0.68542 0.44714 0.7664 0.0
H608 H 0.71231 0.50416 0.72347 0.0
C609 C 0.7224 0.5946 0.7741 0.0
C610 C 0.70401 0.52555 0.79083 0.0
C611 C 0.72531 0.62306 0.78304 0.0
C612 C 0.69486 0.40709 0.75111 0.0
C613 C 0.69452 0.43762 0.75722 0.0
C614 C 0.70994 0.50986 0.74232 0.0
C615 C 0.71098 0.57886 0.78298 0.0
C616 C 0.70844 0.54777 0.77435 0.0
C617 C 0.70585 0.45562 0.75161 0.0
C618 C 0.7059 0.48761 0.759 0.0
H619 H 0.69914 0.63 0.82469 0.0
H620 H 0.69356 0.58122 0.80814 0.0
H621 H 0.71422 0.5562 0.73647 0.0
H622 H 0.72717 0.40243 0.72522 0.0
H623 H 0.72646 0.45582 0.73549 0.0
C624 C 0.04734 0.53071 0.92642 0.0
C625 C 0.03421 0.51771 0.92402 0.0
C626 C 0.0567 0.53007 0.90692 0.0
C627 C 0.06576 0.48601 0.85249 0.0
H628 H 0.08973 0.55239 0.83877 0.0
C629 C 0.11032 0.47556 0.78195 0.0
C630 C 0.12314 0.48688 0.78989 0.0
C631 C 0.09802 0.48246 0.79476 0.0
C632 C 0.08313 0.53363 0.84237 0.0
H633 H 0.02043 0.49455 0.899 0.0
H634 H 0.03681 0.49342 0.86492 0.0
H635 H 0.07071 0.55903 0.86787 0.0
H636 H 0.13334 0.51338 0.81761 0.0
H637 H 0.11205 0.525 0.84024 0.0
H638 H 0.07844 0.46027 0.82767 0.0
C639 C 0.03989 0.50392 0.88198 0.0
C640 C 0.07224 0.53744 0.85906 0.0
C641 C 0.03049 0.5047 0.90147 0.0
C642 C 0.1235 0.50503 0.8108 0.0
C643 C 0.11129 0.51169 0.82372 0.0
C644 C 0.07667 0.48217 0.83584 0.0
C645 C 0.05316 0.51631 0.88459 0.0
C646 C 0.06364 0.51346 0.86474 0.0
C647 C 0.0984 0.50039 0.81596 0.0
C648 C 0.0857 0.50572 0.83103 0.0
H649 H 0.05053 0.54091 0.94354 0.0
H650 H 0.06691 0.53947 0.90964 0.0
H651 H 0.05941 0.46699 0.85664 0.0
H652 H 0.10983 0.46138 0.76588 0.0
H653 H 0.08825 0.47356 0.78821 0.0
C654 C 0.05211 0.97132 0.35553 0.0
C655 C 0.03818 0.96991 0.34695 0.0
C656 C 0.06323 0.96842 0.33922 0.0
C657 C 0.07152 0.97706 0.27354 0.0
H658 H 0.10588 0.93296 0.29275 0.0
C659 C 0.12363 0.98869 0.22246 0.0
C660 C 0.1316 0.96211 0.21804 0.0
C661 C 0.1118 0.98815 0.23727 0.0
C662 C 0.09631 0.94512 0.28704 0.0
H663 H 0.02499 0.96445 0.31451 0.0
H664 H 0.0444 0.95951 0.28604 0.0
H665 H 0.08601 0.93401 0.32042 0.0
H666 H 0.13336 0.91409 0.22568 0.0
H667 H 0.11273 0.91323 0.25156 0.0
H668 H 0.08193 0.98854 0.24031 0.0
C669 C 0.04673 0.96293 0.30537 0.0
C670 C 0.08497 0.94599 0.30298 0.0
C671 C 0.03561 0.96563 0.32171 0.0
C672 C 0.12745 0.93497 0.22868 0.0
C673 C 0.11568 0.93447 0.24361 0.0
C674 C 0.08291 0.97649 0.25773 0.0
C675 C 0.06067 0.96428 0.31393 0.0
C676 C 0.07249 0.96218 0.29651 0.0
C677 C 0.10775 0.96105 0.24808 0.0
C678 C 0.09545 0.96065 0.26437 0.0
H679 H 0.05445 0.9747 0.37486 0.0
H680 H 0.07384 0.97014 0.34635 0.0
H681 H 0.06211 0.98993 0.26807 0.0
H682 H 0.12656 0.00998 0.21459 0.0
H683 H 0.10599 0.00905 0.24066 0.0
C684 C 0.28363 0.48948 0.56943 0.0
C685 C 0.27851 0.51688 0.57909 0.0
C686 C 0.29784 0.48518 0.56415 0.0
C687 C 0.33278 0.51365 0.57912 0.0
H688 H 0.34366 0.47214 0.51959 0.0
C689 C 0.39048 0.50295 0.54853 0.0
C690 C 0.39512 0.47478 0.53961 0.0
C691 C 0.37624 0.50909 0.55263 0.0
C692 C 0.3408 0.48353 0.5364 0.0
H693 H 0.28433 0.56128 0.59077 0.0
H694 H 0.30912 0.55382 0.58142 0.0
H695 H 0.31886 0.48085 0.52827 0.0
H696 H 0.38838 0.43108 0.52781 0.0
H697 H 0.3636 0.4417 0.53517 0.0
H698 H 0.35472 0.51616 0.58733 0.0
C699 C 0.30216 0.53554 0.57816 0.0
C700 C 0.32659 0.48851 0.54139 0.0
C701 C 0.28793 0.53986 0.58341 0.0
C702 C 0.38517 0.45304 0.53465 0.0
C703 C 0.37094 0.45918 0.53873 0.0
C704 C 0.347 0.50865 0.57414 0.0
C705 C 0.30728 0.50816 0.56844 0.0
C706 C 0.32241 0.50348 0.56287 0.0
C707 C 0.3663 0.48723 0.54787 0.0
C708 C 0.35118 0.49339 0.55279 0.0
H709 H 0.27666 0.47128 0.56593 0.0
H710 H 0.30147 0.46367 0.557 0.0
H711 H 0.32992 0.5249 0.596 0.0
H712 H 0.39786 0.52025 0.55247 0.0
H713 H 0.37299 0.53106 0.55939 0.0
C714 C 0.3524 0.08126 0.94521 0.0
C715 C 0.34695 0.0973 0.92454 0.0
C716 C 0.36628 0.08463 0.95304 0.0
C717 C 0.40083 0.10542 0.9326 0.0
H718 H 0.40734 0.12931 0.00013 0.0
C719 C 0.45406 0.14917 0.96532 0.0
C720 C 0.45843 0.14407 0.98987 0.0
C721 C 0.44076 0.14101 0.95728 0.0
C722 C 0.40582 0.12203 0.98135 0.0
H723 H 0.35187 0.12875 0.89544 0.0
H724 H 0.37624 0.13403 0.90881 0.0
H725 H 0.38367 0.11872 0.98612 0.0
H726 H 0.45253 0.12538 0.02503 0.0
H727 H 0.42959 0.10988 0.0108 0.0
H728 H 0.42293 0.10797 0.92779 0.0
C729 C 0.36971 0.11909 0.91904 0.0
C730 C 0.39221 0.11614 0.97333 0.0
C731 C 0.35576 0.11617 0.91148 0.0
C732 C 0.4494 0.12984 0.00604 0.0
C733 C 0.43618 0.12117 0.99789 0.0
C734 C 0.41448 0.11077 0.94071 0.0
C735 C 0.37504 0.10363 0.94005 0.0
C736 C 0.38958 0.10814 0.94882 0.0
C737 C 0.43158 0.12704 0.97348 0.0
C738 C 0.41715 0.11956 0.96514 0.0
H739 H 0.34585 0.06661 0.95568 0.0
H740 H 0.37019 0.07238 0.96925 0.0
H741 H 0.39906 0.09898 0.91365 0.0
H742 H 0.46075 0.16031 0.95246 0.0
H743 H 0.43757 0.14646 0.93849 0.0
C744 C 0.03793 0.56283 0.65934 0.0
C745 C 0.02566 0.57783 0.66751 0.0
C746 C 0.04945 0.55782 0.6753 0.0
C747 C 0.06085 0.5572 0.7409 0.0
H748 H 0.09627 0.58131 0.71452 0.0
C749 C 0.10819 0.58477 0.80292 0.0
C750 C 0.12172 0.57646 0.79499 0.0
C751 C 0.0965 0.58108 0.78757 0.0
C752 C 0.08654 0.57395 0.72212 0.0
H753 H 0.01563 0.59789 0.69924 0.0
H754 H 0.03573 0.58919 0.72703 0.0
H755 H 0.07566 0.58043 0.68762 0.0
H756 H 0.13356 0.55756 0.76474 0.0
H757 H 0.11317 0.55091 0.73804 0.0
H758 H 0.07174 0.55102 0.7755 0.0
C759 C 0.03643 0.58123 0.7083 0.0
C760 C 0.07471 0.57346 0.70667 0.0
C761 C 0.02493 0.58636 0.69232 0.0
C762 C 0.1233 0.56445 0.77133 0.0
C763 C 0.1116 0.56065 0.75602 0.0
C764 C 0.07272 0.55754 0.75636 0.0
C765 C 0.04893 0.56755 0.69981 0.0
C766 C 0.06168 0.56548 0.71594 0.0
C767 C 0.09806 0.56902 0.76391 0.0
C768 C 0.08566 0.56638 0.74722 0.0
H769 H 0.03883 0.55579 0.64039 0.0
H770 H 0.05886 0.54682 0.66831 0.0
H771 H 0.051 0.55059 0.74851 0.0
H772 H 0.1066 0.59405 0.82105 0.0
H773 H 0.08626 0.58817 0.79413 0.0
C774 C 0.39713 0.8659 0.415 0.0
C775 C 0.39904 0.83442 0.41415 0.0
C776 C 0.38512 0.879 0.42559 0.0
C777 C 0.34896 0.86197 0.4435 0.0
H778 H 0.3527 0.92859 0.48832 0.0
C779 C 0.30515 0.89756 0.50976 0.0
C780 C 0.30228 0.92849 0.51289 0.0
C781 C 0.31686 0.8875 0.49665 0.0
C782 C 0.35145 0.91025 0.47561 0.0
H783 H 0.38979 0.79206 0.42361 0.0
H784 H 0.36904 0.8148 0.44213 0.0
H785 H 0.37325 0.90881 0.46672 0.0
H786 H 0.30951 0.97315 0.50481 0.0
H787 H 0.32993 0.95553 0.48181 0.0
H788 H 0.32722 0.86311 0.45257 0.0
C789 C 0.37668 0.82943 0.43437 0.0
C790 C 0.36322 0.89895 0.46321 0.0
C791 C 0.38865 0.81639 0.42387 0.0
C792 C 0.31143 0.94915 0.50275 0.0
C793 C 0.32317 0.93907 0.48967 0.0
C794 C 0.33722 0.87323 0.45589 0.0
C795 C 0.37478 0.86087 0.43543 0.0
C796 C 0.36214 0.87441 0.44726 0.0
C797 C 0.32598 0.90812 0.48638 0.0
C798 C 0.33836 0.89724 0.47233 0.0
H799 H 0.40494 0.88041 0.40766 0.0
H800 H 0.3839 0.90331 0.42595 0.0
H801 H 0.34771 0.84343 0.43098 0.0
H802 H 0.29834 0.88103 0.5174 0.0
H803 H 0.31884 0.86349 0.49479 0.0
C804 C 0.3151 0.46677 0.98768 0.0
C805 C 0.31196 0.43724 0.99449 0.0
C806 C 0.3287 0.47367 0.98107 0.0
C807 C 0.3653 0.44636 0.99042 0.0
H808 H 0.37274 0.50606 0.94024 0.0
C809 C 0.42161 0.47942 0.96817 0.0
C810 C 0.42366 0.51049 0.96634 0.0
C811 C 0.40806 0.46855 0.96857 0.0
C812 C 0.37082 0.48943 0.95438 0.0
H813 H 0.32052 0.39152 0.9987 0.0
H814 H 0.34421 0.40352 0.98685 0.0
H815 H 0.34879 0.49027 0.94608 0.0
H816 H 0.4131 0.55445 0.9628 0.0
H817 H 0.38951 0.5355 0.96365 0.0
H818 H 0.38726 0.44586 0.99899 0.0
C819 C 0.33621 0.42145 0.98707 0.0
C820 C 0.3571 0.4804 0.95774 0.0
C821 C 0.32261 0.41456 0.99373 0.0
C822 C 0.41189 0.53038 0.96426 0.0
C823 C 0.39835 0.5195 0.96458 0.0
C824 C 0.379 0.45534 0.98702 0.0
C825 C 0.33947 0.45118 0.98104 0.0
C826 C 0.35416 0.45907 0.97603 0.0
C827 C 0.39628 0.4885 0.96704 0.0
C828 C 0.38189 0.47728 0.96921 0.0
H829 H 0.30715 0.48477 0.98806 0.0
H830 H 0.33088 0.49686 0.9768 0.0
H831 H 0.36338 0.43023 0.00493 0.0
H832 H 0.43045 0.46348 0.96971 0.0
H833 H 0.4068 0.44451 0.97019 0.0
C834 C 0.02071 0.0926 0.24291 0.0
C835 C 0.02156 0.08252 0.21852 0.0
C836 C 0.03124 0.08451 0.26021 0.0
C837 C 0.06838 0.05998 0.26489 0.0
H838 H 0.05905 0.03319 0.33049 0.0
C839 C 0.11025 0.00588 0.33049 0.0
C840 C 0.10913 0.01048 0.35593 0.0
C841 C 0.09961 0.01631 0.31427 0.0
C842 C 0.0619 0.04103 0.3124 0.0
H843 H 0.03406 0.05576 0.19324 0.0
H844 H 0.05243 0.04169 0.22345 0.0
H845 H 0.04036 0.04742 0.30116 0.0
H846 H 0.09591 0.02972 0.38427 0.0
H847 H 0.07739 0.04808 0.35598 0.0
H848 H 0.08988 0.05374 0.27595 0.0
C849 C 0.04367 0.05605 0.22911 0.0
C850 C 0.05114 0.04914 0.29557 0.0
C851 C 0.0331 0.06397 0.21186 0.0
C852 C 0.09709 0.02568 0.36477 0.0
C853 C 0.08642 0.03609 0.34852 0.0
C854 C 0.07914 0.052 0.28173 0.0
C855 C 0.04289 0.06636 0.25343 0.0
C856 C 0.05427 0.05844 0.27156 0.0
C857 C 0.08752 0.03149 0.32302 0.0
C858 C 0.07605 0.04195 0.30562 0.0
H859 H 0.01195 0.10692 0.24864 0.0
H860 H 0.0304 0.09296 0.27878 0.0
H861 H 0.07112 0.06757 0.24664 0.0
H862 H 0.11936 0.99416 0.32303 0.0
H863 H 0.10083 0.01202 0.29485 0.0
C864 C 0.25031 0.26155 0.10151 0.0
C865 C 0.23823 0.28041 0.1035 0.0
C866 C 0.24928 0.23027 0.10136 0.0
C867 C 0.22454 0.17058 0.0889 0.0
H868 H 0.24958 0.12123 0.13086 0.0
C869 C 0.21452 0.04614 0.11064 0.0
C870 C 0.2261 0.02589 0.11357 0.0
C871 C 0.21647 0.0769 0.10741 0.0
C872 C 0.24266 0.13458 0.1187 0.0
H873 H 0.21559 0.28124 0.10669 0.0
H874 H 0.21381 0.22668 0.10635 0.0
H875 H 0.25218 0.17552 0.12906 0.0
H876 H 0.24882 0.02188 0.11457 0.0
H877 H 0.25223 0.07547 0.10837 0.0
H878 H 0.21502 0.12974 0.07845 0.0
C879 C 0.22406 0.2361 0.10481 0.0
C880 C 0.24413 0.16571 0.11774 0.0
C881 C 0.2251 0.26734 0.10517 0.0
C882 C 0.23968 0.03694 0.11252 0.0
C883 C 0.24163 0.06769 0.10912 0.0
C884 C 0.22313 0.13943 0.08971 0.0
C885 C 0.23613 0.21724 0.10295 0.0
C886 C 0.23499 0.18406 0.10305 0.0
C887 C 0.23005 0.08812 0.10686 0.0
C888 C 0.23206 0.12106 0.10484 0.0
H889 H 0.26058 0.27093 0.10016 0.0
H890 H 0.25875 0.21628 0.09973 0.0
H891 H 0.21748 0.18413 0.07712 0.0
H892 H 0.20392 0.03837 0.11147 0.0
H893 H 0.2073 0.09197 0.10608 0.0
C894 C 0.71429 0.22503 0.80078 0.0
C895 C 0.72606 0.23611 0.789 0.0
C896 C 0.71592 0.20573 0.82118 0.0
C897 C 0.74149 0.1533 0.85266 0.0
H898 H 0.71663 0.16386 0.90788 0.0
C899 C 0.74948 0.08775 0.94506 0.0
C900 C 0.73737 0.07761 0.9564 0.0
C901 C 0.74838 0.10672 0.92434 0.0
C902 C 0.72356 0.16038 0.8925 0.0
H903 H 0.7488 0.23564 0.78947 0.0
H904 H 0.75165 0.20217 0.82523 0.0
H905 H 0.71419 0.1979 0.87253 0.0
H906 H 0.71462 0.07889 0.95447 0.0
H907 H 0.71274 0.1116 0.9183 0.0
H908 H 0.75085 0.11573 0.87271 0.0
C909 C 0.74115 0.20813 0.8185 0.0
C910 C 0.72216 0.17991 0.87223 0.0
C911 C 0.73951 0.22747 0.7981 0.0
C912 C 0.72417 0.08641 0.94631 0.0
C913 C 0.72308 0.10534 0.92564 0.0
C914 C 0.74289 0.13374 0.87297 0.0
C915 C 0.72937 0.19705 0.83029 0.0
C916 C 0.73106 0.17653 0.85202 0.0
C917 C 0.73516 0.11596 0.91454 0.0
C918 C 0.73389 0.13696 0.89307 0.0
H919 H 0.70378 0.23114 0.7942 0.0
H920 H 0.70663 0.19728 0.82962 0.0
H921 H 0.7484 0.14984 0.83726 0.0
H922 H 0.75981 0.08141 0.95239 0.0
H923 H 0.75789 0.1147 0.91633 0.0
C924 C 0.77071 0.29964 0.4356 0.0
C925 C 0.76502 0.32904 0.43209 0.0
C926 C 0.76198 0.27507 0.43586 0.0
C927 C 0.72801 0.25339 0.41089 0.0
H928 H 0.73381 0.18287 0.45294 0.0
C929 C 0.69263 0.15233 0.40151 0.0
C930 C 0.69936 0.12368 0.40213 0.0
C931 C 0.69982 0.17767 0.40869 0.0
C932 C 0.73212 0.20232 0.44094 0.0
H933 H 0.74564 0.3558 0.42757 0.0
H934 H 0.73046 0.31299 0.42815 0.0
H935 H 0.74798 0.22682 0.4596 0.0
H936 H 0.71878 0.099 0.41158 0.0
H937 H 0.73143 0.14326 0.42355 0.0
H938 H 0.71251 0.22886 0.39173 0.0
C939 C 0.74168 0.3089 0.43029 0.0
C940 C 0.74021 0.22749 0.44481 0.0
C941 C 0.75038 0.33344 0.43009 0.0
C942 C 0.7133 0.12078 0.41085 0.0
C943 C 0.72053 0.14616 0.41788 0.0
C944 C 0.71999 0.22824 0.40696 0.0
C945 C 0.7474 0.27939 0.43258 0.0
C946 C 0.7383 0.25323 0.42971 0.0
C947 C 0.71395 0.175 0.4165 0.0
C948 C 0.722 0.20229 0.4218 0.0
H949 H 0.78194 0.29547 0.43726 0.0
H950 H 0.76672 0.2526 0.43751 0.0
H951 H 0.72646 0.27263 0.39863 0.0
H952 H 0.68185 0.1553 0.39511 0.0
H953 H 0.69433 0.19944 0.40786 0.0
C954 C 0.71628 0.9231 0.18516 0.0
C955 C 0.70373 0.91346 0.19528 0.0
C956 C 0.72363 0.90511 0.16845 0.0
C957 C 0.7219 0.8361 0.13018 0.0
H958 H 0.76101 0.82541 0.14998 0.0
C959 C 0.7545 0.72648 0.11598 0.0
C960 C 0.76908 0.72763 0.11308 0.0
C961 C 0.74634 0.75285 0.11918 0.0
C962 C 0.75021 0.8285 0.1437 0.0
H963 H 0.68853 0.87844 0.19439 0.0
H964 H 0.70148 0.84678 0.16563 0.0
H965 H 0.74677 0.86571 0.16763 0.0
H966 H 0.78635 0.75759 0.10933 0.0
H967 H 0.77206 0.80366 0.11456 0.0
H968 H 0.72531 0.798 0.10691 0.0
C969 C 0.7056 0.86837 0.17039 0.0
C970 C 0.74201 0.85169 0.15388 0.0
C971 C 0.6982 0.88645 0.18702 0.0
C972 C 0.77517 0.75588 0.1118 0.0
C973 C 0.76699 0.78229 0.11491 0.0
C974 C 0.73013 0.81287 0.11995 0.0
C975 C 0.71864 0.877 0.16158 0.0
C976 C 0.72767 0.85531 0.14774 0.0
C977 C 0.75255 0.78102 0.11945 0.0
C978 C 0.7443 0.80831 0.1271 0.0
H979 H 0.72073 0.94399 0.19089 0.0
H980 H 0.7335 0.91271 0.1616 0.0
H981 H 0.71094 0.83857 0.1248 0.0
H982 H 0.74945 0.7051 0.11696 0.0
H983 H 0.73529 0.75094 0.12284 0.0
C984 C 0.24219 0.90989 0.88919 0.0
C985 C 0.25579 0.91341 0.89881 0.0
C986 C 0.23532 0.88302 0.89295 0.0
C987 C 0.24216 0.80262 0.90833 0.0
H988 H 0.2028 0.80429 0.92507 0.0
C989 C 0.21477 0.69583 0.93964 0.0
C990 C 0.20119 0.6915 0.93027 0.0
C991 C 0.2212 0.72319 0.93597 0.0
C992 C 0.21376 0.80343 0.92014 0.0
H993 H 0.2728 0.89147 0.92004 0.0
H994 H 0.2608 0.84483 0.92671 0.0
H995 H 0.21444 0.85148 0.91803 0.0
H996 H 0.18365 0.71263 0.90987 0.0
H997 H 0.19494 0.76028 0.90326 0.0
H998 H 0.2415 0.75464 0.91038 0.0
C999 C 0.2555 0.86267 0.916 0.0
C1000 C 0.22042 0.83047 0.9161 0.0
C1001 C 0.26235 0.8895 0.91229 0.0
C1002 C 0.19412 0.71526 0.91738 0.0
C1003 C 0.20056 0.74264 0.9137 0.0
C1004 C 0.23549 0.77562 0.91234 0.0
C1005 C 0.24192 0.85907 0.90635 0.0
C1006 C 0.23472 0.83038 0.91024 0.0
C1007 C 0.21421 0.74687 0.92282 0.0
C1008 C 0.22123 0.77568 0.91839 0.0
H1009 H 0.23685 0.92786 0.8787 0.0
H1010 H 0.22491 0.88086 0.88506 0.0
H1011 H 0.25312 0.80174 0.90342 0.0
H1012 H 0.22049 0.67804 0.94974 0.0
H1013 H 0.23164 0.72585 0.94357 0.0
C1014 C 0.51046 0.87951 0.36781 0.0
C1015 C 0.50369 0.85469 0.35798 0.0
C1016 C 0.52317 0.88846 0.3582 0.0
C1017 C 0.55438 0.86001 0.32802 0.0
H1018 H 0.55915 0.94236 0.30657 0.0
C1019 C 0.60582 0.89519 0.28365 0.0
C1020 C 0.61053 0.92407 0.28861 0.0
C1021 C 0.59243 0.88707 0.29064 0.0
C1022 C 0.55812 0.91937 0.31283 0.0
H1023 H 0.50496 0.81965 0.33055 0.0
H1024 H 0.52742 0.83482 0.31428 0.0
H1025 H 0.5366 0.92769 0.32236 0.0
H1026 H 0.60494 0.9671 0.30482 0.0
H1027 H 0.58191 0.95265 0.31803 0.0
H1028 H 0.57594 0.8517 0.31968 0.0
C1029 C 0.52277 0.84749 0.3292 0.0
C1030 C 0.54515 0.91099 0.32173 0.0
C1031 C 0.50991 0.83892 0.33845 0.0
C1032 C 0.60156 0.94474 0.30056 0.0
C1033 C 0.58828 0.93645 0.308 0.0
C1034 C 0.56743 0.86849 0.3196 0.0
C1035 C 0.52949 0.87237 0.33896 0.0
C1036 C 0.54317 0.88124 0.32935 0.0
C1037 C 0.58352 0.90744 0.30323 0.0
C1038 C 0.5695 0.8983 0.31184 0.0
H1039 H 0.5059 0.89214 0.38282 0.0
H1040 H 0.52821 0.90763 0.36611 0.0
H1041 H 0.55313 0.83698 0.33405 0.0
H1042 H 0.61247 0.87886 0.27427 0.0
H1043 H 0.58909 0.86479 0.28609 0.0
C1044 C 0.6491 0.68157 0.89649 0.0
C1045 C 0.65123 0.67933 0.87104 0.0
C1046 C 0.63559 0.68104 0.90595 0.0
C1047 C 0.59992 0.65691 0.89098 0.0
H1048 H 0.58941 0.70881 0.94511 0.0
C1049 C 0.54372 0.66262 0.92855 0.0
C1050 C 0.54257 0.66186 0.95431 0.0
C1051 C 0.55669 0.66687 0.91771 0.0
C1052 C 0.59223 0.69404 0.93011 0.0
H1053 H 0.64081 0.67503 0.8355 0.0
H1054 H 0.61721 0.67442 0.85201 0.0
H1055 H 0.61261 0.71212 0.92732 0.0
H1056 H 0.55405 0.66561 0.98888 0.0
H1057 H 0.57666 0.67287 0.96996 0.0
H1058 H 0.57958 0.6387 0.89389 0.0
C1059 C 0.62602 0.67619 0.86469 0.0
C1060 C 0.60552 0.6959 0.91993 0.0
C1061 C 0.63954 0.67668 0.85522 0.0
C1062 C 0.55458 0.66611 0.96898 0.0
C1063 C 0.56753 0.67044 0.95814 0.0
C1064 C 0.58663 0.65509 0.90114 0.0
C1065 C 0.62389 0.67831 0.89018 0.0
C1066 C 0.60956 0.67719 0.90037 0.0
C1067 C 0.56876 0.67053 0.93238 0.0
C1068 C 0.58267 0.67347 0.92093 0.0
H1069 H 0.65787 0.68355 0.90921 0.0
H1070 H 0.63435 0.68227 0.9257 0.0
H1071 H 0.60277 0.64187 0.87618 0.0
H1072 H 0.53466 0.65951 0.91672 0.0
H1073 H 0.55726 0.66724 0.89781 0.0
C1074 C 0.92689 0.06681 0.11634 0.0
C1075 C 0.93006 0.09679 0.12128 0.0
C1076 C 0.91305 0.05911 0.11132 0.0
C1077 C 0.87605 0.08692 0.11669 0.0
H1078 H 0.86948 0.03466 0.06131 0.0
C1079 C 0.82161 0.07896 0.0704 0.0
C1080 C 0.81727 0.05034 0.06357 0.0
C1081 C 0.83536 0.08296 0.07863 0.0
C1082 C 0.87114 0.04898 0.07702 0.0
H1083 H 0.92113 0.14202 0.1255 0.0
H1084 H 0.89714 0.12869 0.11657 0.0
H1085 H 0.89346 0.04411 0.07446 0.0
H1086 H 0.82399 0.00347 0.05988 0.0
H1087 H 0.84801 0.01049 0.07429 0.0
H1088 H 0.85373 0.09218 0.11899 0.0
C1089 C 0.90527 0.11102 0.1168 0.0
C1090 C 0.88489 0.05434 0.0846 0.0
C1091 C 0.91907 0.1187 0.12179 0.0
C1092 C 0.82701 0.02583 0.06496 0.0
C1093 C 0.84079 0.02986 0.07313 0.0
C1094 C 0.86231 0.0816 0.10909 0.0
C1095 C 0.9021 0.08122 0.11121 0.0
C1096 C 0.8875 0.07368 0.10434 0.0
C1097 C 0.8451 0.05845 0.08017 0.0
C1098 C 0.8597 0.06287 0.08897 0.0
H1099 H 0.93511 0.04937 0.11587 0.0
H1100 H 0.91093 0.03588 0.10739 0.0
H1101 H 0.87769 0.1015 0.13224 0.0
H1102 H 0.81438 0.09833 0.06951 0.0
H1103 H 0.8384 0.10536 0.08356 0.0
C1104 C 0.86746 0.4318 0.4876 0.0
C1105 C 0.85338 0.44166 0.48994 0.0
C1106 C 0.87797 0.44402 0.5022 0.0
C1107 C 0.88528 0.5117 0.53842 0.0
H1108 H 0.91747 0.46334 0.56222 0.0
C1109 C 0.92842 0.56146 0.59957 0.0
C1110 C 0.94231 0.55447 0.59284 0.0
C1111 C 0.9173 0.54611 0.58916 0.0
C1112 C 0.90858 0.47716 0.55558 0.0
H1113 H 0.83925 0.47144 0.51 0.0
H1114 H 0.85754 0.49237 0.53578 0.0
H1115 H 0.89842 0.4393 0.54036 0.0
H1116 H 0.95545 0.52527 0.5704 0.0
H1117 H 0.93604 0.49852 0.55222 0.0
H1118 H 0.89547 0.54956 0.55351 0.0
C1119 C 0.86051 0.47561 0.52231 0.0
C1120 C 0.89767 0.4634 0.54302 0.0
C1121 C 0.85 0.46348 0.50763 0.0
C1122 C 0.94487 0.53121 0.57598 0.0
C1123 C 0.93375 0.51576 0.56565 0.0
C1124 C 0.89615 0.52541 0.55105 0.0
C1125 C 0.87465 0.46631 0.51957 0.0
C1126 C 0.88594 0.48056 0.53408 0.0
C1127 C 0.91983 0.52332 0.57187 0.0
C1128 C 0.90798 0.50835 0.55959 0.0
H1129 H 0.87042 0.41507 0.47411 0.0
H1130 H 0.88875 0.43659 0.49935 0.0
H1131 H 0.87654 0.52572 0.53143 0.0
H1132 H 0.92608 0.57919 0.61256 0.0
H1133 H 0.9067 0.55218 0.59455 0.0
C1134 C 0.6278 0.04969 0.18976 0.0
C1135 C 0.62516 0.05126 0.21511 0.0
C1136 C 0.6173 0.05795 0.17244 0.0
C1137 C 0.58458 0.10443 0.16643 0.0
H1138 H 0.57942 0.06124 0.1055 0.0
C1139 C 0.53922 0.13663 0.0993 0.0
C1140 C 0.54252 0.13854 0.07424 0.0
C1141 C 0.54874 0.12318 0.11627 0.0
C1142 C 0.5808 0.07365 0.12236 0.0
H1143 H 0.60926 0.06183 0.2421 0.0
H1144 H 0.59096 0.07591 0.21194 0.0
H1145 H 0.59718 0.04302 0.13559 0.0
H1146 H 0.55822 0.12672 0.0472 0.0
H1147 H 0.57489 0.10348 0.07688 0.0
H1148 H 0.56837 0.13523 0.15322 0.0
C1149 C 0.60121 0.0688 0.20543 0.0
C1150 C 0.59098 0.06323 0.13958 0.0
C1151 C 0.61169 0.06056 0.22272 0.0
C1152 C 0.55535 0.12564 0.06638 0.0
C1153 C 0.56489 0.11219 0.08338 0.0
C1154 C 0.57443 0.11482 0.14926 0.0
C1155 C 0.60393 0.06796 0.18009 0.0
C1156 C 0.59299 0.07852 0.16182 0.0
C1157 C 0.56181 0.11135 0.1086 0.0
C1158 C 0.57241 0.09959 0.12701 0.0
H1159 H 0.63806 0.04261 0.18326 0.0
H1160 H 0.61977 0.05729 0.15306 0.0
H1161 H 0.58604 0.11711 0.18314 0.0
H1162 H 0.5294 0.14612 0.10597 0.0
H1163 H 0.54593 0.12239 0.13549 0.0
C1164 C 0.9508 0.56354 0.99309 0.0
C1165 C 0.94746 0.53781 0.97969 0.0
C1166 C 0.94019 0.58181 0.00328 0.0
C1167 C 0.90184 0.59924 0.00137 0.0
H1168 H 0.90764 0.6201 0.06982 0.0
C1169 C 0.85641 0.63475 0.06494 0.0
C1170 C 0.85879 0.65668 0.08281 0.0
C1171 C 0.86736 0.62375 0.0504 0.0
C1172 C 0.90591 0.61496 0.05059 0.0
H1173 H 0.93032 0.51191 0.96556 0.0
H1174 H 0.91189 0.54363 0.98341 0.0
H1175 H 0.92658 0.59524 0.04744 0.0
H1176 H 0.87447 0.68497 0.0989 0.0
H1177 H 0.89354 0.66606 0.07332 0.0
H1178 H 0.88106 0.61853 0.00469 0.0
C1179 C 0.92268 0.54982 0.98594 0.0
C1180 C 0.91679 0.60069 0.03774 0.0
C1181 C 0.93327 0.53152 0.97582 0.0
C1182 C 0.87229 0.66794 0.08539 0.0
C1183 C 0.88325 0.65699 0.07082 0.0
C1184 C 0.89095 0.61357 0.01422 0.0
C1185 C 0.92603 0.57482 0.00021 0.0
C1186 C 0.91482 0.5923 0.01308 0.0
C1187 C 0.88096 0.63448 0.05336 0.0
C1188 C 0.8928 0.62124 0.03909 0.0
H1189 H 0.96162 0.56911 0.99633 0.0
H1190 H 0.9431 0.60116 0.01389 0.0
H1191 H 0.90005 0.59343 0.98229 0.0
H1192 H 0.84613 0.62555 0.06251 0.0
H1193 H 0.86526 0.60616 0.03736 0.0
C1194 C 0.90429 0.95379 0.44379 0.0
C1195 C 0.91242 0.93372 0.45883 0.0
C1196 C 0.89009 0.95947 0.44849 0.0
C1197 C 0.86445 0.9563 0.49832 0.0
H1198 H 0.83722 0.96689 0.44483 0.0
C1199 C 0.80545 0.97715 0.51611 0.0
C1200 C 0.79852 -0.00015 0.50178 0.0
C1201 C 0.81897 0.96668 0.51023 0.0
C1202 C 0.84472 0.96421 0.45996 0.0
H1203 H 0.91192 0.90344 0.49035 0.0
H1204 H 0.88709 0.91318 0.49841 0.0
H1205 H 0.86153 0.95277 0.43577 0.0
H1206 H 0.80027 0.02887 0.46971 0.0
H1207 H 0.82388 0.01078 0.4596 0.0
H1208 H 0.8477 0.96806 0.52248 0.0
C1209 C 0.89176 0.92482 0.48317 0.0
C1210 C 0.85865 0.95613 0.45477 0.0
C1211 C 0.90597 0.91912 0.47846 0.0
C1212 C 0.8053 0.01136 0.48114 0.0
C1213 C 0.81881 0.00086 0.47525 0.0
C1214 C 0.85053 0.96436 0.5035 0.0
C1215 C 0.88367 0.94522 0.46833 0.0
C1216 C 0.86871 0.95233 0.47388 0.0
C1217 C 0.82586 0.97862 0.48988 0.0
C1218 C 0.84052 0.96866 0.48437 0.0
H1219 H 0.90892 0.96546 0.42853 0.0
H1220 H 0.88423 0.97561 0.43689 0.0
H1221 H 0.87197 0.95401 0.51344 0.0
H1222 H 0.80052 0.96768 0.53207 0.0
H1223 H 0.82404 0.94923 0.52168 0.0
C1224 C 0.63559 0.36699 0.6476 0.0
C1225 C 0.63826 0.37622 0.67184 0.0
C1226 C 0.62225 0.37125 0.6369 0.0
C1227 C 0.58501 0.38284 0.65257 0.0
H1228 H 0.58095 0.40735 0.58402 0.0
C1229 C 0.53095 0.41044 0.60625 0.0
C1230 C 0.52886 0.39951 0.58233 0.0
C1231 C 0.54427 0.40865 0.61742 0.0
C1232 C 0.58191 0.40022 0.60311 0.0
H1233 H 0.62901 0.39747 0.70378 0.0
H1234 H 0.60571 0.40513 0.68499 0.0
H1235 H 0.60425 0.40282 0.60307 0.0
H1236 H 0.53911 0.37807 0.55141 0.0
H1237 H 0.56229 0.37474 0.57097 0.0
H1238 H 0.56267 0.3801 0.65255 0.0
C1239 C 0.61392 0.39427 0.67437 0.0
C1240 C 0.59527 0.39763 0.61404 0.0
C1241 C 0.6273 0.39003 0.68509 0.0
C1242 C 0.54037 0.38677 0.56983 0.0
C1243 C 0.55368 0.38503 0.58098 0.0
C1244 C 0.57165 0.38545 0.64164 0.0
C1245 C 0.61124 0.38484 0.65017 0.0
C1246 C 0.59699 0.38871 0.63884 0.0
C1247 C 0.55579 0.39596 0.6049 0.0
C1248 C 0.56995 0.39397 0.61674 0.0
H1249 H 0.64379 0.35621 0.63689 0.0
H1250 H 0.6205 0.36334 0.61835 0.0
H1251 H 0.58599 0.37551 0.67161 0.0
H1252 H 0.52231 0.42046 0.61636 0.0
H1253 H 0.54557 0.41757 0.63576 0.0
C1254 C 0.71945 -0.00226 0.66831 0.0
C1255 C 0.73118 0.00562 0.6547 0.0
C1256 C 0.72002 0.97216 0.68351 0.0
C1257 C 0.73962 0.89971 0.69351 0.0
H1258 H 0.7228 0.9026 0.75796 0.0
C1259 C 0.74826 0.80423 0.76567 0.0
C1260 C 0.73668 0.79625 0.77963 0.0
C1261 C 0.74741 0.8295 0.75012 0.0
C1262 C 0.7274 0.90131 0.73989 0.0
H1263 H 0.75275 0.99288 0.6465 0.0
H1264 H 0.7538 0.94843 0.67321 0.0
H1265 H 0.72174 0.94739 0.73161 0.0
H1266 H 0.71506 0.80837 0.788 0.0
H1267 H 0.71354 0.8523 0.76069 0.0
H1268 H 0.74532 0.85366 0.70181 0.0
C1269 C 0.74409 0.96182 0.67188 0.0
C1270 C 0.7268 0.92699 0.7248 0.0
C1271 C 0.74352 0.98741 0.65669 0.0
C1272 C 0.72419 0.81395 0.77755 0.0
C1273 C 0.72334 0.83924 0.76201 0.0
C1274 C 0.74023 0.87404 0.7086 0.0
C1275 C 0.73234 0.95385 0.68543 0.0
C1276 C 0.73292 0.92651 0.70144 0.0
C1277 C 0.73496 0.84737 0.74818 0.0
C1278 C 0.73415 0.87455 0.73199 0.0
H1279 H 0.70976 0.01124 0.66712 0.0
H1280 H 0.71074 0.96646 0.69347 0.0
H1281 H 0.74425 0.89844 0.67546 0.0
H1282 H 0.75805 0.79112 0.76689 0.0
H1283 H 0.7566 0.83534 0.73995 0.0
C1284 C 0.17482 0.8509 0.51372 0.0
C1285 C 0.18415 0.87397 0.51838 0.0
C1286 C 0.17878 0.8209 0.51896 0.0
C1287 C 0.20312 0.77334 0.55688 0.0
H1288 H 0.19494 0.71196 0.50909 0.0
C1289 C 0.22244 0.6502 0.5719 0.0
C1290 C 0.2129 0.6279 0.56621 0.0
C1291 C 0.2197 0.68007 0.56452 0.0
C1292 C 0.19718 0.72876 0.52274 0.0
H1293 H 0.20487 0.88369 0.53248 0.0
H1294 H 0.21173 0.83129 0.54178 0.0
H1295 H 0.18837 0.7645 0.49994 0.0
H1296 H 0.19316 0.61932 0.54766 0.0
H1297 H 0.18825 0.67146 0.53518 0.0
H1298 H 0.21167 0.73771 0.57991 0.0
C1299 C 0.20136 0.83645 0.53411 0.0
C1300 C 0.19343 0.75886 0.51748 0.0
C1301 C 0.19744 0.86645 0.5287 0.0
C1302 C 0.20076 0.63594 0.55229 0.0
C1303 C 0.19797 0.66586 0.54503 0.0
C1304 C 0.2068 0.74324 0.56221 0.0
C1305 C 0.1921 0.81335 0.52913 0.0
C1306 C 0.19631 0.78146 0.53453 0.0
C1307 C 0.2073 0.68838 0.55139 0.0
C1308 C 0.20383 0.72054 0.54524 0.0
H1309 H 0.16451 0.85593 0.50577 0.0
H1310 H 0.17136 0.80362 0.51522 0.0
H1311 H 0.20533 0.79021 0.57051 0.0
H1312 H 0.23195 0.64471 0.58244 0.0
H1313 H 0.22726 0.6967 0.56929 0.0
C1314 C 0.19067 0.34503 0.68687 0.0
C1315 C 0.1988 0.37041 0.68354 0.0
C1316 C 0.19385 0.31836 0.67442 0.0
C1317 C 0.22404 0.27889 0.64615 0.0
H1318 H 0.19628 0.22193 0.62655 0.0
C1319 C 0.23961 0.16498 0.60272 0.0
C1320 C 0.23311 0.13968 0.61237 0.0
C1321 C 0.23472 0.19403 0.60848 0.0
C1322 C 0.20414 0.23758 0.63205 0.0
H1323 H 0.21602 0.38834 0.66318 0.0
H1324 H 0.22136 0.34203 0.64102 0.0
H1325 H 0.18867 0.27185 0.64057 0.0
H1326 H 0.21618 0.12509 0.63523 0.0
H1327 H 0.20768 0.17585 0.64537 0.0
H1328 H 0.2395 0.24457 0.63787 0.0
C1329 C 0.21277 0.34246 0.65379 0.0
C1330 C 0.19979 0.26618 0.64008 0.0
C1331 C 0.20964 0.3691 0.66636 0.0
C1332 C 0.22144 0.14409 0.62753 0.0
C1333 C 0.21651 0.17318 0.6332 0.0
C1334 C 0.22838 0.25041 0.63801 0.0
C1335 C 0.20517 0.31649 0.65821 0.0
C1336 C 0.20969 0.28706 0.64753 0.0
C1337 C 0.22318 0.19846 0.62393 0.0
C1338 C 0.21849 0.2293 0.63115 0.0
H1339 H 0.18223 0.34525 0.69997 0.0
H1340 H 0.18784 0.29879 0.67847 0.0
H1341 H 0.23196 0.2941 0.6522 0.0
H1342 H 0.24859 0.1624 0.59089 0.0
H1343 H 0.23999 0.21306 0.60084 0.0
loop_
_geom_bond_atom_site_label_1
_geom_bond_atom_site_label_2
_geom_bond_distance
_geom_bond_site_symmetry_2
_ccdc_geom_bond_type
O0 Cd1 2.300 1_554 S
O0 C7 1.275 . S
Cd1 O0 2.300 1_556 S
Cd1 O9 2.381 . S
Cd1 O10 2.378 . S
O2 Cd3 2.385 1_454 S
O2 C7 1.255 . S
Cd3 O2 2.385 1_656 S
Cd3 O4 2.317 . S
O4 Cd3 2.317 . S
O4 C5 1.232 1_556 S
C5 O4 1.232 1_554 S
C5 O6 1.218 . S
O6 C5 1.218 . S
C7 O0 1.275 . S
C7 O2 1.255 . S
C8 O9 1.258 . S
C8 O10 1.256 . S
O9 Cd1 2.381 . S
O9 C8 1.258 . S
O10 Cd1 2.378 . S
O10 C8 1.256 . S
O11 Cd12 2.300 . S
O11 C18 1.275 . S
Cd12 O11 2.300 . S
Cd12 O20 2.381 . S
Cd12 O21 2.378 . S
O13 Cd14 2.385 . S
O13 C18 1.255 1_655 S
Cd14 O13 2.385 . S
Cd14 O15 2.317 . S
O15 Cd14 2.317 . S
O15 C16 1.232 . S
C16 O15 1.232 . S
C16 O17 1.218 . S
O17 C16 1.218 . S
C18 O11 1.275 . S
C18 O13 1.255 1_455 S
C19 O20 1.258 . S
C19 O21 1.256 . S
O20 Cd12 2.381 . S
O20 C19 1.258 . S
O21 Cd12 2.378 . S
O21 C19 1.256 . S
O22 Cd23 2.300 . S
O22 C29 1.275 . S
Cd23 O22 2.300 . S
Cd23 O31 2.381 . S
Cd23 O32 2.378 . S
O24 Cd25 2.385 . S
O24 C29 1.255 . S
Cd25 O24 2.385 . S
Cd25 O26 2.317 . S
O26 Cd25 2.317 . S
O26 C27 1.232 . S
C27 O26 1.232 . S
C27 O28 1.218 . S
O28 C27 1.218 . S
C29 O22 1.275 . S
C29 O24 1.255 . S
C30 O31 1.258 . S
C30 O32 1.256 . S
O31 Cd23 2.381 . S
O31 C30 1.258 . S
O32 Cd23 2.378 . S
O32 C30 1.256 . S
O33 Cd34 2.300 . S
O33 C40 1.275 . S
Cd34 O33 2.300 . S
Cd34 O42 2.381 . S
Cd34 O43 2.378 . S
O35 Cd36 2.385 . S
O35 C40 1.255 . S
Cd36 O35 2.385 . S
Cd36 O37 2.317 1_556 S
O37 Cd36 2.317 1_554 S
O37 C38 1.232 . S
C38 O37 1.232 . S
C38 O39 1.218 . S
O39 C38 1.218 . S
C40 O33 1.275 . S
C40 O35 1.255 . S
C41 O42 1.258 . S
C41 O43 1.256 . S
O42 Cd34 2.381 . S
O42 C41 1.258 . S
O43 Cd34 2.378 . S
O43 C41 1.256 . S
O44 Cd45 2.300 . S
O44 C51 1.275 1_655 S
Cd45 O44 2.300 . S
Cd45 O53 2.381 . S
Cd45 O54 2.378 . S
O46 Cd47 2.385 . S
O46 C51 1.255 . S
Cd47 O46 2.385 . S
Cd47 O48 2.317 . S
O48 Cd47 2.317 . S
O48 C49 1.232 . S
C49 O48 1.232 . S
C49 O50 1.218 . S
O50 C49 1.218 . S
C51 O44 1.275 1_455 S
C51 O46 1.255 . S
C52 O53 1.258 . S
C52 O54 1.256 . S
O53 Cd45 2.381 . S
O53 C52 1.258 . S
O54 Cd45 2.378 . S
O54 C52 1.256 . S
O55 Cd56 2.300 . S
O55 C62 1.275 . S
Cd56 O55 2.300 . S
Cd56 O64 2.381 . S
Cd56 O65 2.378 . S
O57 Cd58 2.385 . S
O57 C62 1.255 . S
Cd58 O57 2.385 . S
Cd58 O59 2.317 . S
O59 Cd58 2.317 . S
O59 C60 1.232 . S
C60 O59 1.232 . S
C60 O61 1.218 . S
O61 C60 1.218 . S
C62 O55 1.275 . S
C62 O57 1.255 . S
C63 O64 1.258 . S
C63 O65 1.256 . S
O64 Cd56 2.381 . S
O64 C63 1.258 . S
O65 Cd56 2.378 . S
O65 C63 1.256 . S
O66 Cd67 2.300 . S
O66 C73 1.275 . S
Cd67 O66 2.300 . S
Cd67 O75 2.381 . S
Cd67 O76 2.378 . S
O68 Cd69 2.385 . S
O68 C73 1.255 . S
Cd69 O68 2.385 . S
Cd69 O70 2.317 . S
O70 Cd69 2.317 . S
O70 C71 1.232 . S
C71 O70 1.232 . S
C71 O72 1.218 . S
O72 C71 1.218 . S
C73 O66 1.275 . S
C73 O68 1.255 . S
C74 O75 1.258 . S
C74 O76 1.256 . S
O75 Cd67 2.381 . S
O75 C74 1.258 . S
O76 Cd67 2.378 . S
O76 C74 1.256 . S
O77 Cd78 2.300 . S
O77 C84 1.275 . S
Cd78 O77 2.300 . S
Cd78 O86 2.381 . S
Cd78 O87 2.378 . S
O79 Cd80 2.385 . S
O79 C84 1.255 1_655 S
Cd80 O79 2.385 . S
Cd80 O81 2.317 . S
O81 Cd80 2.317 . S
O81 C82 1.232 . S
C82 O81 1.232 . S
C82 O83 1.218 . S
O83 C82 1.218 . S
C84 O77 1.275 . S
C84 O79 1.255 1_455 S
C85 O86 1.258 . S
C85 O87 1.256 . S
O86 Cd78 2.381 . S
O86 C85 1.258 . S
O87 Cd78 2.378 . S
O87 C85 1.256 . S
O88 Cd89 2.300 . S
O88 C95 1.275 1_565 S
Cd89 O88 2.300 . S
Cd89 O97 2.381 . S
Cd89 O98 2.378 . S
O90 Cd91 2.385 . S
O90 C95 1.255 . S
Cd91 O90 2.385 . S
Cd91 O92 2.317 . S
O92 Cd91 2.317 . S
O92 C93 1.232 . S
C93 O92 1.232 . S
C93 O94 1.218 . S
O94 C93 1.218 . S
C95 O88 1.275 1_545 S
C95 O90 1.255 . S
C96 O97 1.258 . S
C96 O98 1.256 . S
O97 Cd89 2.381 . S
O97 C96 1.258 . S
O98 Cd89 2.378 . S
O98 C96 1.256 . S
O99 Cd100 2.300 . S
O99 C106 1.275 . S
Cd100 O99 2.300 . S
Cd100 O108 2.381 . S
Cd100 O109 2.378 . S
O101 Cd102 2.385 . S
O101 C106 1.255 . S
Cd102 O101 2.385 . S
Cd102 O103 2.317 . S
O103 Cd102 2.317 . S
O103 C104 1.232 . S
C104 O103 1.232 . S
C104 O105 1.218 . S
O105 C104 1.218 . S
C106 O99 1.275 . S
C106 O101 1.255 . S
C107 O108 1.258 . S
C107 O109 1.256 . S
O108 Cd100 2.381 . S
O108 C107 1.258 . S
O109 Cd100 2.378 . S
O109 C107 1.256 . S
O110 Cd111 2.300 . S
O110 C117 1.275 . S
Cd111 O110 2.300 . S
Cd111 O119 2.381 . S
Cd111 O120 2.378 . S
O112 Cd113 2.385 . S
O112 C117 1.255 . S
Cd113 O112 2.385 . S
Cd113 O114 2.317 1_565 S
O114 Cd113 2.317 1_545 S
O114 C115 1.232 . S
C115 O114 1.232 . S
C115 O116 1.218 . S
O116 C115 1.218 . S
C117 O110 1.275 . S
C117 O112 1.255 . S
C118 O119 1.258 . S
C118 O120 1.256 . S
O119 Cd111 2.381 . S
O119 C118 1.258 . S
O120 Cd111 2.378 . S
O120 C118 1.256 . S
O121 Cd122 2.300 1_556 S
O121 C128 1.275 . S
Cd122 O121 2.300 1_554 S
Cd122 O130 2.381 . S
Cd122 O131 2.378 . S
O123 Cd124 2.385 . S
O123 C128 1.255 . S
Cd124 O123 2.385 . S
Cd124 O125 2.317 . S
O125 Cd124 2.317 . S
O125 C126 1.232 . S
C126 O125 1.232 . S
C126 O127 1.218 . S
O127 C126 1.218 . S
C128 O121 1.275 . S
C128 O123 1.255 . S
C129 O130 1.258 . S
C129 O131 1.256 . S
O130 Cd122 2.381 . S
O130 C129 1.258 . S
O131 Cd122 2.378 . S
O131 C129 1.256 . S
O132 Cd133 2.300 1_545 S
O132 C139 1.275 1_545 S
Cd133 O132 2.300 1_565 S
Cd133 O141 2.381 1_565 S
Cd133 O142 2.378 1_565 S
O134 Cd135 2.385 . S
O134 C139 1.255 . S
Cd135 O134 2.385 . S
Cd135 O136 2.317 . S
O136 Cd135 2.317 . S
O136 C137 1.232 . S
C137 O136 1.232 . S
C137 O138 1.218 . S
O138 C137 1.218 . S
C139 O132 1.275 1_565 S
C139 O134 1.255 . S
C140 O141 1.258 . S
C140 O142 1.256 . S
O141 Cd133 2.381 1_545 S
O141 C140 1.258 . S
O142 Cd133 2.378 1_545 S
O142 C140 1.256 . S
O143 Cd144 2.300 . S
O143 C150 1.275 . S
Cd144 O143 2.300 . S
Cd144 O152 2.381 . S
Cd144 O153 2.378 . S
O145 Cd146 2.385 . S
O145 C150 1.255 . S
Cd146 O145 2.385 . S
Cd146 O147 2.317 . S
O147 Cd146 2.317 . S
O147 C148 1.232 . S
C148 O147 1.232 . S
C148 O149 1.218 . S
O149 C148 1.218 . S
C150 O143 1.275 . S
C150 O145 1.255 . S
C151 O152 1.258 . S
C151 O153 1.256 . S
O152 Cd144 2.381 . S
O152 C151 1.258 . S
O153 Cd144 2.378 . S
O153 C151 1.256 . S
O154 Cd155 2.300 . S
O154 C161 1.275 . S
Cd155 O154 2.300 . S
Cd155 O163 2.381 . S
Cd155 O164 2.378 . S
O156 Cd157 2.385 . S
O156 C161 1.255 . S
Cd157 O156 2.385 . S
Cd157 O158 2.317 1_545 S
O158 Cd157 2.317 1_565 S
O158 C159 1.232 . S
C159 O158 1.232 . S
C159 O160 1.218 . S
O160 C159 1.218 . S
C161 O154 1.275 . S
C161 O156 1.255 . S
C162 O163 1.258 . S
C162 O164 1.256 . S
O163 Cd155 2.381 . S
O163 C162 1.258 . S
O164 Cd155 2.378 . S
O164 C162 1.256 . S
O165 Cd166 2.300 . S
O165 C172 1.275 . S
Cd166 O165 2.300 . S
Cd166 O174 2.381 . S
Cd166 O175 2.378 . S
O167 Cd168 2.385 . S
O167 C172 1.255 . S
Cd168 O167 2.385 . S
Cd168 O169 2.317 . S
O169 Cd168 2.317 . S
O169 C170 1.232 . S
C170 O169 1.232 . S
C170 O171 1.218 . S
O171 C170 1.218 . S
C172 O165 1.275 . S
C172 O167 1.255 . S
C173 O174 1.258 . S
C173 O175 1.256 . S
O174 Cd166 2.381 . S
O174 C173 1.258 . S
O175 Cd166 2.378 . S
O175 C173 1.256 . S
O176 Cd177 2.300 . S
O176 C183 1.275 . S
Cd177 O176 2.300 . S
Cd177 O185 2.381 . S
Cd177 O186 2.378 . S
O178 Cd179 2.385 1_544 S
O178 C183 1.255 . S
Cd179 O178 2.385 1_566 S
Cd179 O180 2.317 1_565 S
O180 Cd179 2.317 1_545 S
O180 C181 1.232 . S
C181 O180 1.232 . S
C181 O182 1.218 . S
O182 C181 1.218 . S
C183 O176 1.275 . S
C183 O178 1.255 . S
C184 O185 1.258 . S
C184 O186 1.256 . S
O185 Cd177 2.381 . S
O185 C184 1.258 . S
O186 Cd177 2.378 . S
O186 C184 1.256 . S
O187 Cd188 2.300 . S
O187 C194 1.275 . S
Cd188 O187 2.300 . S
Cd188 O196 2.381 . S
Cd188 O197 2.378 . S
O189 Cd190 2.385 . S
O189 C194 1.255 . S
Cd190 O189 2.385 . S
Cd190 O191 2.317 . S
O191 Cd190 2.317 . S
O191 C192 1.232 . S
C192 O191 1.232 . S
C192 O193 1.218 . S
O193 C192 1.218 . S
C194 O187 1.275 . S
C194 O189 1.255 . S
C195 O196 1.258 . S
C195 O197 1.256 . S
O196 Cd188 2.381 . S
O196 C195 1.258 . S
O197 Cd188 2.378 . S
O197 C195 1.256 . S
O198 Cd199 2.300 . S
O198 C205 1.275 . S
Cd199 O198 2.300 . S
Cd199 O207 2.381 . S
Cd199 O208 2.378 . S
O200 Cd201 2.385 . S
O200 C205 1.255 . S
Cd201 O200 2.385 . S
Cd201 O202 2.317 . S
O202 Cd201 2.317 . S
O202 C203 1.232 . S
C203 O202 1.232 . S
C203 O204 1.218 . S
O204 C203 1.218 . S
C205 O198 1.275 . S
C205 O200 1.255 . S
C206 O207 1.258 . S
C206 O208 1.256 . S
O207 Cd199 2.381 . S
O207 C206 1.258 . S
O208 Cd199 2.378 . S
O208 C206 1.256 . S
O209 Cd210 2.300 . S
O209 C216 1.275 . S
Cd210 O209 2.300 . S
Cd210 O218 2.381 . S
Cd210 O219 2.378 . S
O211 Cd212 2.385 . S
O211 C216 1.255 . S
Cd212 O211 2.385 . S
Cd212 O213 2.317 . S
O213 Cd212 2.317 . S
O213 C214 1.232 . S
C214 O213 1.232 . S
C214 O215 1.218 . S
O215 C214 1.218 . S
C216 O209 1.275 . S
C216 O211 1.255 . S
C217 O218 1.258 . S
C217 O219 1.256 . S
O218 Cd210 2.381 . S
O218 C217 1.258 . S
O219 Cd210 2.378 . S
O219 C217 1.256 . S
O220 Cd221 2.300 . S
O220 C227 1.275 . S
Cd221 O220 2.300 . S
Cd221 O229 2.381 . S
Cd221 O230 2.378 . S
O222 Cd223 2.385 . S
O222 C227 1.255 . S
Cd223 O222 2.385 . S
Cd223 O224 2.317 . S
O224 Cd223 2.317 . S
O224 C225 1.232 . S
C225 O224 1.232 . S
C225 O226 1.218 . S
O226 C225 1.218 . S
C227 O220 1.275 . S
C227 O222 1.255 . S
C228 O229 1.258 . S
C228 O230 1.256 . S
O229 Cd221 2.381 . S
O229 C228 1.258 . S
O230 Cd221 2.378 . S
O230 C228 1.256 . S
O231 Cd232 2.300 . S
O231 C238 1.275 . S
Cd232 O231 2.300 . S
Cd232 O240 2.381 . S
Cd232 O241 2.378 . S
O233 Cd234 2.385 . S
O233 C238 1.255 . S
Cd234 O233 2.385 . S
Cd234 O235 2.317 . S
O235 Cd234 2.317 . S
O235 C236 1.232 . S
C236 O235 1.232 . S
C236 O237 1.218 . S
O237 C236 1.218 . S
C238 O231 1.275 . S
C238 O233 1.255 . S
C239 O240 1.258 . S
C239 O241 1.256 . S
O240 Cd232 2.381 . S
O240 C239 1.258 . S
O241 Cd232 2.378 . S
O241 C239 1.256 . S
O242 Cd243 2.300 1_545 S
O242 C249 1.275 . S
Cd243 O242 2.300 1_565 S
Cd243 O251 2.381 . S
Cd243 O252 2.378 . S
O244 Cd245 2.385 . S
O244 C249 1.255 1_565 S
Cd245 O244 2.385 . S
Cd245 O246 2.317 . S
O246 Cd245 2.317 . S
O246 C247 1.232 1_565 S
C247 O246 1.232 1_545 S
C247 O248 1.218 1_545 S
O248 C247 1.218 1_565 S
C249 O242 1.275 . S
C249 O244 1.255 1_545 S
C250 O251 1.258 . S
C250 O252 1.256 . S
O251 Cd243 2.381 . S
O251 C250 1.258 . S
O252 Cd243 2.378 . S
O252 C250 1.256 . S
O253 Cd254 2.300 . S
O253 C260 1.275 . S
Cd254 O253 2.300 . S
Cd254 O262 2.381 . S
Cd254 O263 2.378 . S
O255 Cd256 2.385 . S
O255 C260 1.255 . S
Cd256 O255 2.385 . S
Cd256 O257 2.317 . S
O257 Cd256 2.317 . S
O257 C258 1.232 . S
C258 O257 1.232 . S
C258 O259 1.218 . S
O259 C258 1.218 . S
C260 O253 1.275 . S
C260 O255 1.255 . S
C261 O262 1.258 . S
C261 O263 1.256 . S
O262 Cd254 2.381 . S
O262 C261 1.258 . S
O263 Cd254 2.378 . S
O263 C261 1.256 . S
C264 C265 1.349 1_655 S
C264 C266 1.327 . S
C264 H289 0.950 . S
C265 C264 1.349 1_455 S
C265 C281 1.349 . S
C266 C264 1.327 . S
C266 C285 1.429 1_655 S
C266 H290 0.950 . S
C267 C284 1.574 . S
C267 C286 1.368 . S
C267 H291 0.949 . S
H268 C272 0.973 . S
C269 C270 1.349 . S
C269 C271 1.327 . S
C269 H292 0.950 . S
C270 C269 1.349 . S
C270 C282 1.349 . S
C271 C269 1.327 . S
C271 C287 1.429 . S
C271 H293 0.950 . S
C272 H268 0.973 . S
C272 C280 1.579 . S
C272 C288 1.338 1_655 S
H273 C281 0.950 . S
H274 C279 0.950 . S
H275 C280 0.949 . S
H276 C282 0.950 1_655 S
H277 C283 0.950 1_655 S
H278 C284 0.949 . S
C279 H274 0.950 . S
C279 C281 1.327 . S
C279 C285 1.429 . S
C280 C272 1.579 . S
C280 H275 0.949 . S
C280 C286 1.368 1_655 S
C281 C265 1.349 . S
C281 H273 0.950 . S
C281 C279 1.327 . S
C282 C270 1.349 . S
C282 H276 0.950 1_455 S
C282 C283 1.327 . S
C283 H277 0.950 1_455 S
C283 C282 1.327 . S
C283 C287 1.429 . S
C284 C267 1.574 . S
C284 H278 0.949 . S
C284 C288 1.368 . S
C285 C266 1.429 1_455 S
C285 C279 1.429 . S
C285 C286 1.523 . S
C286 C267 1.368 . S
C286 C280 1.368 1_455 S
C286 C285 1.523 . S
C287 C271 1.429 . S
C287 C283 1.429 . S
C287 C288 1.523 . S
C288 C272 1.338 1_455 S
C288 C284 1.368 . S
C288 C287 1.523 . S
H289 C264 0.950 . S
H290 C266 0.950 . S
H291 C267 0.949 . S
H292 C269 0.950 . S
H293 C271 0.950 . S
C294 C295 1.349 1_655 S
C294 C296 1.327 . S
C294 H319 0.950 . S
C295 C294 1.349 1_455 S
C295 C311 1.349 . S
C296 C294 1.327 . S
C296 C315 1.429 1_655 S
C296 H320 0.950 . S
C297 C314 1.574 . S
C297 C316 1.368 . S
C297 H321 0.949 . S
H298 C302 0.949 . S
C299 C300 1.349 . S
C299 C301 1.327 . S
C299 H322 0.950 . S
C300 C299 1.349 . S
C300 C312 1.349 1_455 S
C301 C299 1.327 . S
C301 C317 1.429 . S
C301 H323 0.950 . S
C302 H298 0.949 . S
C302 C310 1.574 . S
C302 C318 1.368 1_655 S
H303 C311 0.950 . S
H304 C309 0.950 . S
H305 C310 0.949 . S
H306 C312 0.950 . S
H307 C313 0.950 . S
H308 C314 0.949 . S
C309 H304 0.950 . S
C309 C311 1.327 . S
C309 C315 1.429 . S
C310 C302 1.574 . S
C310 H305 0.949 . S
C310 C316 1.368 1_655 S
C311 C295 1.349 . S
C311 H303 0.950 . S
C311 C309 1.327 . S
C312 C300 1.349 1_655 S
C312 H306 0.950 . S
C312 C313 1.327 . S
C313 H307 0.950 . S
C313 C312 1.327 . S
C313 C317 1.429 1_655 S
C314 C297 1.574 . S
C314 H308 0.949 . S
C314 C318 1.368 . S
C315 C296 1.429 1_455 S
C315 C309 1.429 . S
C315 C316 1.523 . S
C316 C297 1.368 . S
C316 C310 1.368 1_455 S
C316 C315 1.523 . S
C317 C301 1.429 . S
C317 C313 1.429 1_455 S
C317 C318 1.523 . S
C318 C302 1.368 1_455 S
C318 C314 1.368 . S
C318 C317 1.523 . S
H319 C294 0.950 . S
H320 C296 0.950 . S
H321 C297 0.949 . S
H322 C299 0.950 . S
H323 C301 0.950 . S
C324 C325 1.349 . S
C324 C326 1.327 . S
C324 H349 0.950 . S
C325 C324 1.349 . S
C325 C341 1.349 . S
C326 C324 1.327 . S
C326 C345 1.429 . S
C326 H350 0.950 . S
C327 C344 1.574 . S
C327 C346 1.368 . S
C327 H351 0.949 . S
H328 C332 0.949 . S
C329 C330 1.349 . S
C329 C331 1.327 . S
C329 H352 0.950 . S
C330 C329 1.349 . S
C330 C342 1.349 . S
C331 C329 1.327 . S
C331 C347 1.429 . S
C331 H353 0.950 . S
C332 H328 0.949 . S
C332 C340 1.574 . S
C332 C348 1.368 . S
H333 C341 0.950 . S
H334 C339 0.950 . S
H335 C340 0.949 . S
H336 C342 0.950 . S
H337 C343 0.950 . S
H338 C344 0.949 . S
C339 H334 0.950 . S
C339 C341 1.327 . S
C339 C345 1.429 . S
C340 C332 1.574 . S
C340 H335 0.949 . S
C340 C346 1.368 . S
C341 C325 1.349 . S
C341 H333 0.950 . S
C341 C339 1.327 . S
C342 C330 1.349 . S
C342 H336 0.950 . S
C342 C343 1.327 . S
C343 H337 0.950 . S
C343 C342 1.327 . S
C343 C347 1.429 . S
C344 C327 1.574 . S
C344 H338 0.949 . S
C344 C348 1.368 . S
C345 C326 1.429 . S
C345 C339 1.429 . S
C345 C346 1.523 . S
C346 C327 1.368 . S
C346 C340 1.368 . S
C346 C345 1.523 . S
C347 C331 1.429 . S
C347 C343 1.429 . S
C347 C348 1.523 . S
C348 C332 1.368 . S
C348 C344 1.368 . S
C348 C347 1.523 . S
H349 C324 0.950 . S
H350 C326 0.950 . S
H351 C327 0.949 . S
H352 C329 0.950 . S
H353 C331 0.950 . S
C354 C355 1.349 . S
C354 C356 1.327 . S
C354 H379 0.950 . S
C355 C354 1.349 . S
C355 C371 1.349 1_556 S
C356 C354 1.327 . S
C356 C375 1.429 . S
C356 H380 0.950 . S
C357 C374 1.574 . S
C357 C376 1.368 1_554 S
C357 H381 0.949 . S
H358 C362 0.949 . S
C359 C360 1.349 1_554 S
C359 C361 1.327 . S
C359 H382 0.950 . S
C360 C359 1.349 1_556 S
C360 C372 1.349 . S
C361 C359 1.327 . S
C361 C377 1.429 1_554 S
C361 H383 0.950 . S
C362 H358 0.949 . S
C362 C370 1.574 . S
C362 C378 1.368 . S
H363 C371 0.950 . S
H364 C369 0.950 . S
H365 C370 0.949 . S
H366 C372 0.950 . S
H367 C373 0.950 . S
H368 C374 0.949 . S
C369 H364 0.950 . S
C369 C371 1.327 . S
C369 C375 1.429 1_554 S
C370 C362 1.574 . S
C370 H365 0.949 . S
C370 C376 1.368 . S
C371 C355 1.349 1_554 S
C371 H363 0.950 . S
C371 C369 1.327 . S
C372 C360 1.349 . S
C372 H366 0.950 . S
C372 C373 1.327 . S
C373 H367 0.950 . S
C373 C372 1.327 . S
C373 C377 1.429 . S
C374 C357 1.574 . S
C374 H368 0.949 . S
C374 C378 1.368 1_554 S
C375 C356 1.429 . S
C375 C369 1.429 1_556 S
C375 C376 1.523 . S
C376 C357 1.368 1_556 S
C376 C370 1.368 . S
C376 C375 1.523 . S
C377 C361 1.429 1_556 S
C377 C373 1.429 . S
C377 C378 1.523 . S
C378 C362 1.368 . S
C378 C374 1.368 1_556 S
C378 C377 1.523 . S
H379 C354 0.950 . S
H380 C356 0.950 . S
H381 C357 0.949 . S
H382 C359 0.950 . S
H383 C361 0.950 . S
C384 C385 1.349 . S
C384 C386 1.327 . S
C384 H409 0.950 . S
C385 C384 1.349 . S
C385 C401 1.349 . S
C386 C384 1.327 . S
C386 C405 1.429 . S
C386 H410 0.950 . S
C387 C404 1.574 . S
C387 C406 1.368 1_565 S
C387 H411 0.949 . S
H388 C392 0.949 . S
C389 C390 1.349 . S
C389 C391 1.327 . S
C389 H412 0.950 . S
C390 C389 1.349 . S
C390 C402 1.349 . S
C391 C389 1.327 . S
C391 C407 1.429 . S
C391 H413 0.950 . S
C392 H388 0.949 . S
C392 C400 1.574 . S
C392 C408 1.368 1_545 S
H393 C401 0.950 1_565 S
H394 C399 0.950 1_565 S
H395 C400 0.949 . S
H396 C402 0.950 1_545 S
H397 C403 0.950 . S
H398 C404 0.949 . S
C399 H394 0.950 1_545 S
C399 C401 1.327 . S
C399 C405 1.429 . S
C400 C392 1.574 . S
C400 H395 0.949 . S
C400 C406 1.368 . S
C401 C385 1.349 . S
C401 H393 0.950 1_545 S
C401 C399 1.327 . S
C402 C390 1.349 . S
C402 H396 0.950 1_565 S
C402 C403 1.327 1_565 S
C403 H397 0.950 . S
C403 C402 1.327 1_545 S
C403 C407 1.429 1_545 S
C404 C387 1.574 . S
C404 H398 0.949 . S
C404 C408 1.368 . S
C405 C386 1.429 . S
C405 C399 1.429 . S
C405 C406 1.523 . S
C406 C387 1.368 1_545 S
C406 C400 1.368 . S
C406 C405 1.523 . S
C407 C391 1.429 . S
C407 C403 1.429 1_565 S
C407 C408 1.523 . S
C408 C392 1.368 1_565 S
C408 C404 1.368 . S
C408 C407 1.523 . S
H409 C384 0.950 . S
H410 C386 0.950 . S
H411 C387 0.949 . S
H412 C389 0.950 . S
H413 C391 0.950 . S
C414 C415 1.349 . S
C414 C416 1.327 . S
C414 H439 0.950 . S
C415 C414 1.349 . S
C415 C431 1.349 . S
C416 C414 1.327 . S
C416 C435 1.429 . S
C416 H440 0.950 . S
C417 C434 1.574 . S
C417 C436 1.368 . S
C417 H441 0.949 . S
H418 C422 0.949 . S
C419 C420 1.349 . S
C419 C421 1.327 . S
C419 H442 0.950 . S
C420 C419 1.349 . S
C420 C432 1.349 . S
C421 C419 1.327 . S
C421 C437 1.429 . S
C421 H443 0.950 . S
C422 H418 0.949 . S
C422 C430 1.574 . S
C422 C438 1.368 . S
H423 C431 0.950 . S
H424 C429 0.950 . S
H425 C430 0.949 . S
H426 C432 0.950 . S
H427 C433 0.950 . S
H428 C434 0.949 . S
C429 H424 0.950 . S
C429 C431 1.327 . S
C429 C435 1.429 . S
C430 C422 1.574 . S
C430 H425 0.949 . S
C430 C436 1.368 . S
C431 C415 1.349 . S
C431 H423 0.950 . S
C431 C429 1.327 . S
C432 C420 1.349 . S
C432 H426 0.950 . S
C432 C433 1.327 . S
C433 H427 0.950 . S
C433 C432 1.327 . S
C433 C437 1.429 . S
C434 C417 1.574 . S
C434 H428 0.949 . S
C434 C438 1.368 . S
C435 C416 1.429 . S
C435 C429 1.429 . S
C435 C436 1.523 . S
C436 C417 1.368 . S
C436 C430 1.368 . S
C436 C435 1.523 . S
C437 C421 1.429 . S
C437 C433 1.429 . S
C437 C438 1.523 . S
C438 C422 1.368 . S
C438 C434 1.368 . S
C438 C437 1.523 . S
H439 C414 0.950 . S
H440 C416 0.950 . S
H441 C417 0.949 . S
H442 C419 0.950 . S
H443 C421 0.950 . S
C444 C445 1.349 . S
C444 C446 1.327 . S
C444 H469 0.950 . S
C445 C444 1.349 . S
C445 C461 1.349 1_565 S
C446 C444 1.327 . S
C446 C465 1.429 . S
C446 H470 0.950 . S
C447 C464 1.574 . S
C447 C466 1.368 1_545 S
C447 H471 0.949 . S
H448 C452 0.949 . S
C449 C450 1.349 . S
C449 C451 1.327 . S
C449 H472 0.950 . S
C450 C449 1.349 . S
C450 C462 1.349 1_545 S
C451 C449 1.327 . S
C451 C467 1.429 . S
C451 H473 0.950 . S
C452 H448 0.949 . S
C452 C460 1.574 . S
C452 C468 1.368 1_565 S
H453 C461 0.950 . S
H454 C459 0.950 . S
H455 C460 0.949 . S
H456 C462 0.950 . S
H457 C463 0.950 . S
H458 C464 0.949 . S
C459 H454 0.950 . S
C459 C461 1.327 . S
C459 C465 1.429 1_545 S
C460 C452 1.574 . S
C460 H455 0.949 . S
C460 C466 1.368 . S
C461 C445 1.349 1_545 S
C461 H453 0.950 . S
C461 C459 1.327 . S
C462 C450 1.349 1_565 S
C462 H456 0.950 . S
C462 C463 1.327 . S
C463 H457 0.950 . S
C463 C462 1.327 . S
C463 C467 1.429 1_565 S
C464 C447 1.574 . S
C464 H458 0.949 . S
C464 C468 1.368 . S
C465 C446 1.429 . S
C465 C459 1.429 1_565 S
C465 C466 1.523 . S
C466 C447 1.368 1_565 S
C466 C460 1.368 . S
C466 C465 1.523 . S
C467 C451 1.429 . S
C467 C463 1.429 1_545 S
C467 C468 1.523 . S
C468 C452 1.368 1_545 S
C468 C464 1.368 . S
C468 C467 1.523 . S
H469 C444 0.950 . S
H470 C446 0.950 . S
H471 C447 0.949 . S
H472 C449 0.950 . S
H473 C451 0.950 . S
C474 C475 1.349 . S
C474 C476 1.327 . S
C474 H499 0.950 . S
C475 C474 1.349 . S
C475 C491 1.349 . S
C476 C474 1.327 . S
C476 C495 1.429 . S
C476 H500 0.950 . S
C477 C494 1.574 . S
C477 C496 1.368 . S
C477 H501 0.949 . S
H478 C482 0.949 . S
C479 C480 1.349 . S
C479 C481 1.327 . S
C479 H502 0.950 . S
C480 C479 1.349 . S
C480 C492 1.349 . S
C481 C479 1.327 . S
C481 C497 1.429 . S
C481 H503 0.950 . S
C482 H478 0.949 . S
C482 C490 1.574 . S
C482 C498 1.368 . S
H483 C491 0.950 . S
H484 C489 0.950 . S
H485 C490 0.949 . S
H486 C492 0.950 . S
H487 C493 0.950 . S
H488 C494 0.949 . S
C489 H484 0.950 . S
C489 C491 1.327 . S
C489 C495 1.429 . S
C490 C482 1.574 . S
C490 H485 0.949 . S
C490 C496 1.368 . S
C491 C475 1.349 . S
C491 H483 0.950 . S
C491 C489 1.327 . S
C492 C480 1.349 . S
C492 H486 0.950 . S
C492 C493 1.327 . S
C493 H487 0.950 . S
C493 C492 1.327 . S
C493 C497 1.429 . S
C494 C477 1.574 . S
C494 H488 0.949 . S
C494 C498 1.368 . S
C495 C476 1.429 . S
C495 C489 1.429 . S
C495 C496 1.523 . S
C496 C477 1.368 . S
C496 C490 1.368 . S
C496 C495 1.523 . S
C497 C481 1.429 . S
C497 C493 1.429 . S
C497 C498 1.523 . S
C498 C482 1.368 . S
C498 C494 1.368 . S
C498 C497 1.523 . S
H499 C474 0.950 . S
H500 C476 0.950 . S
H501 C477 0.949 . S
H502 C479 0.950 . S
H503 C481 0.950 . S
C504 C505 1.349 . S
C504 C506 1.327 . S
C504 H529 0.950 . S
C505 C504 1.349 . S
C505 C521 1.349 . S
C506 C504 1.327 . S
C506 C525 1.429 . S
C506 H530 0.950 . S
C507 C524 1.574 . S
C507 C526 1.368 . S
C507 H531 0.949 . S
H508 C512 0.949 . S
C509 C510 1.349 . S
C509 C511 1.327 . S
C509 H532 0.950 . S
C510 C509 1.349 . S
C510 C522 1.349 . S
C511 C509 1.327 . S
C511 C527 1.429 . S
C511 H533 0.950 . S
C512 H508 0.949 . S
C512 C520 1.574 . S
C512 C528 1.368 . S
H513 C521 0.950 . S
H514 C519 0.950 . S
H515 C520 0.949 . S
H516 C522 0.950 . S
H517 C523 0.950 . S
H518 C524 0.949 . S
C519 H514 0.950 . S
C519 C521 1.327 . S
C519 C525 1.429 . S
C520 C512 1.574 . S
C520 H515 0.949 . S
C520 C526 1.368 . S
C521 C505 1.349 . S
C521 H513 0.950 . S
C521 C519 1.327 . S
C522 C510 1.349 . S
C522 H516 0.950 . S
C522 C523 1.327 . S
C523 H517 0.950 . S
C523 C522 1.327 . S
C523 C527 1.429 . S
C524 C507 1.574 . S
C524 H518 0.949 . S
C524 C528 1.368 . S
C525 C506 1.429 . S
C525 C519 1.429 . S
C525 C526 1.523 . S
C526 C507 1.368 . S
C526 C520 1.368 . S
C526 C525 1.523 . S
C527 C511 1.429 . S
C527 C523 1.429 . S
C527 C528 1.523 . S
C528 C512 1.368 . S
C528 C524 1.368 . S
C528 C527 1.523 . S
H529 C504 0.950 . S
H530 C506 0.950 . S
H531 C507 0.949 . S
H532 C509 0.950 . S
H533 C511 0.950 . S
C534 C535 1.349 . S
C534 C536 1.327 . S
C534 H559 0.950 . S
C535 C534 1.349 . S
C535 C551 1.349 . S
C536 C534 1.327 . S
C536 C555 1.429 . S
C536 H560 0.950 . S
C537 C554 1.574 . S
C537 C556 1.368 . S
C537 H561 0.949 . S
H538 C542 0.949 . S
C539 C540 1.349 . S
C539 C541 1.327 . S
C539 H562 0.950 . S
C540 C539 1.349 . S
C540 C552 1.349 . S
C541 C539 1.327 . S
C541 C557 1.429 . S
C541 H563 0.950 . S
C542 H538 0.949 . S
C542 C550 1.574 . S
C542 C558 1.368 . S
H543 C551 0.950 . S
H544 C549 0.950 . S
H545 C550 0.949 . S
H546 C552 0.950 . S
H547 C553 0.950 . S
H548 C554 0.949 . S
C549 H544 0.950 . S
C549 C551 1.327 . S
C549 C555 1.429 . S
C550 C542 1.574 . S
C550 H545 0.949 . S
C550 C556 1.368 . S
C551 C535 1.349 . S
C551 H543 0.950 . S
C551 C549 1.327 . S
C552 C540 1.349 . S
C552 H546 0.950 . S
C552 C553 1.327 . S
C553 H547 0.950 . S
C553 C552 1.327 . S
C553 C557 1.429 . S
C554 C537 1.574 . S
C554 H548 0.949 . S
C554 C558 1.368 . S
C555 C536 1.429 . S
C555 C549 1.429 . S
C555 C556 1.523 . S
C556 C537 1.368 . S
C556 C550 1.368 . S
C556 C555 1.523 . S
C557 C541 1.429 . S
C557 C553 1.429 . S
C557 C558 1.523 . S
C558 C542 1.368 . S
C558 C554 1.368 . S
C558 C557 1.523 . S
H559 C534 0.950 . S
H560 C536 0.950 . S
H561 C537 0.949 . S
H562 C539 0.950 . S
H563 C541 0.950 . S
C564 C565 1.349 . S
C564 C566 1.327 . S
C564 H589 0.950 . S
C565 C564 1.349 . S
C565 C581 1.349 1_565 S
C566 C564 1.327 . S
C566 C585 1.429 . S
C566 H590 0.950 . S
C567 C584 1.574 . S
C567 C586 1.368 1_545 S
C567 H591 0.949 . S
H568 C572 0.949 . S
C569 C570 1.349 . S
C569 C571 1.327 . S
C569 H592 0.950 . S
C570 C569 1.349 . S
C570 C582 1.349 1_545 S
C571 C569 1.327 . S
C571 C587 1.429 . S
C571 H593 0.950 . S
C572 H568 0.949 . S
C572 C580 1.574 . S
C572 C588 1.368 1_565 S
H573 C581 0.950 . S
H574 C579 0.950 . S
H575 C580 0.949 . S
H576 C582 0.950 . S
H577 C583 0.950 . S
H578 C584 0.949 . S
C579 H574 0.950 . S
C579 C581 1.327 . S
C579 C585 1.429 1_545 S
C580 C572 1.574 . S
C580 H575 0.949 . S
C580 C586 1.368 . S
C581 C565 1.349 1_545 S
C581 H573 0.950 . S
C581 C579 1.327 . S
C582 C570 1.349 1_565 S
C582 H576 0.950 . S
C582 C583 1.327 . S
C583 H577 0.950 . S
C583 C582 1.327 . S
C583 C587 1.429 1_565 S
C584 C567 1.574 . S
C584 H578 0.949 . S
C584 C588 1.368 . S
C585 C566 1.429 . S
C585 C579 1.429 1_565 S
C585 C586 1.523 . S
C586 C567 1.368 1_565 S
C586 C580 1.368 . S
C586 C585 1.523 . S
C587 C571 1.429 . S
C587 C583 1.429 1_545 S
C587 C588 1.523 . S
C588 C572 1.368 1_545 S
C588 C584 1.368 . S
C588 C587 1.523 . S
H589 C564 0.950 . S
H590 C566 0.950 . S
H591 C567 0.949 . S
H592 C569 0.950 . S
H593 C571 0.950 . S
C594 C595 1.349 . S
C594 C596 1.327 . S
C594 H619 0.950 . S
C595 C594 1.349 . S
C595 C611 1.349 . S
C596 C594 1.327 . S
C596 C615 1.429 . S
C596 H620 0.950 . S
C597 C614 1.574 . S
C597 C616 1.368 . S
C597 H621 0.949 . S
H598 C602 0.949 . S
C599 C600 1.349 . S
C599 C601 1.327 . S
C599 H622 0.950 . S
C600 C599 1.349 . S
C600 C612 1.349 . S
C601 C599 1.327 . S
C601 C617 1.429 . S
C601 H623 0.950 . S
C602 H598 0.949 . S
C602 C610 1.574 . S
C602 C618 1.368 . S
H603 C611 0.950 . S
H604 C609 0.950 . S
H605 C610 0.949 . S
H606 C612 0.950 . S
H607 C613 0.950 . S
H608 C614 0.949 . S
C609 H604 0.950 . S
C609 C611 1.327 . S
C609 C615 1.429 . S
C610 C602 1.574 . S
C610 H605 0.949 . S
C610 C616 1.368 . S
C611 C595 1.349 . S
C611 H603 0.950 . S
C611 C609 1.327 . S
C612 C600 1.349 . S
C612 H606 0.950 . S
C612 C613 1.327 . S
C613 H607 0.950 . S
C613 C612 1.327 . S
C613 C617 1.429 . S
C614 C597 1.574 . S
C614 H608 0.949 . S
C614 C618 1.368 . S
C615 C596 1.429 . S
C615 C609 1.429 . S
C615 C616 1.523 . S
C616 C597 1.368 . S
C616 C610 1.368 . S
C616 C615 1.523 . S
C617 C601 1.429 . S
C617 C613 1.429 . S
C617 C618 1.523 . S
C618 C602 1.368 . S
C618 C614 1.368 . S
C618 C617 1.523 . S
H619 C594 0.950 . S
H620 C596 0.950 . S
H621 C597 0.949 . S
H622 C599 0.950 . S
H623 C601 0.950 . S
C624 C625 1.349 . S
C624 C626 1.327 . S
C624 H649 0.950 . S
C625 C624 1.349 . S
C625 C641 1.349 . S
C626 C624 1.327 . S
C626 C645 1.429 . S
C626 H650 0.950 . S
C627 C644 1.574 . S
C627 C646 1.368 . S
C627 H651 0.949 . S
H628 C632 0.949 . S
C629 C630 1.349 . S
C629 C631 1.327 . S
C629 H652 0.950 . S
C630 C629 1.349 . S
C630 C642 1.349 . S
C631 C629 1.327 . S
C631 C647 1.429 . S
C631 H653 0.950 . S
C632 H628 0.949 . S
C632 C640 1.574 . S
C632 C648 1.368 . S
H633 C641 0.950 . S
H634 C639 0.950 . S
H635 C640 0.949 . S
H636 C642 0.950 . S
H637 C643 0.950 . S
H638 C644 0.949 . S
C639 H634 0.950 . S
C639 C641 1.327 . S
C639 C645 1.429 . S
C640 C632 1.574 . S
C640 H635 0.949 . S
C640 C646 1.368 . S
C641 C625 1.349 . S
C641 H633 0.950 . S
C641 C639 1.327 . S
C642 C630 1.349 . S
C642 H636 0.950 . S
C642 C643 1.327 . S
C643 H637 0.950 . S
C643 C642 1.327 . S
C643 C647 1.429 . S
C644 C627 1.574 . S
C644 H638 0.949 . S
C644 C648 1.368 . S
C645 C626 1.429 . S
C645 C639 1.429 . S
C645 C646 1.523 . S
C646 C627 1.368 . S
C646 C640 1.368 . S
C646 C645 1.523 . S
C647 C631 1.429 . S
C647 C643 1.429 . S
C647 C648 1.523 . S
C648 C632 1.368 . S
C648 C644 1.368 . S
C648 C647 1.523 . S
H649 C624 0.950 . S
H650 C626 0.950 . S
H651 C627 0.949 . S
H652 C629 0.950 . S
H653 C631 0.950 . S
C654 C655 1.349 . S
C654 C656 1.327 . S
C654 H679 0.950 . S
C655 C654 1.349 . S
C655 C671 1.349 . S
C656 C654 1.327 . S
C656 C675 1.429 . S
C656 H680 0.950 . S
C657 C674 1.574 . S
C657 C676 1.368 . S
C657 H681 0.949 1_565 S
H658 C662 0.949 . S
C659 C660 1.349 . S
C659 C661 1.327 . S
C659 H682 0.950 1_565 S
C660 C659 1.349 . S
C660 C672 1.349 . S
C661 C659 1.327 . S
C661 C677 1.429 . S
C661 H683 0.950 1_565 S
C662 H658 0.949 . S
C662 C670 1.574 . S
C662 C678 1.368 . S
H663 C671 0.950 . S
H664 C669 0.950 1_545 S
H665 C670 0.949 . S
H666 C672 0.950 . S
H667 C673 0.950 . S
H668 C674 0.949 1_545 S
C669 H664 0.950 1_565 S
C669 C671 1.327 . S
C669 C675 1.429 . S
C670 C662 1.574 . S
C670 H665 0.949 . S
C670 C676 1.368 . S
C671 C655 1.349 . S
C671 H663 0.950 . S
C671 C669 1.327 . S
C672 C660 1.349 . S
C672 H666 0.950 . S
C672 C673 1.327 . S
C673 H667 0.950 . S
C673 C672 1.327 . S
C673 C677 1.429 . S
C674 C657 1.574 . S
C674 H668 0.949 1_565 S
C674 C678 1.368 . S
C675 C656 1.429 . S
C675 C669 1.429 . S
C675 C676 1.523 . S
C676 C657 1.368 . S
C676 C670 1.368 . S
C676 C675 1.523 . S
C677 C661 1.429 . S
C677 C673 1.429 . S
C677 C678 1.523 . S
C678 C662 1.368 . S
C678 C674 1.368 . S
C678 C677 1.523 . S
H679 C654 0.950 . S
H680 C656 0.950 . S
H681 C657 0.949 1_545 S
H682 C659 0.950 1_545 S
H683 C661 0.950 1_545 S
C684 C685 1.349 . S
C684 C686 1.327 . S
C684 H709 0.950 . S
C685 C684 1.349 . S
C685 C701 1.349 . S
C686 C684 1.327 . S
C686 C705 1.429 . S
C686 H710 0.950 . S
C687 C704 1.574 . S
C687 C706 1.368 . S
C687 H711 0.949 . S
H688 C692 0.949 . S
C689 C690 1.349 . S
C689 C691 1.327 . S
C689 H712 0.950 . S
C690 C689 1.349 . S
C690 C702 1.349 . S
C691 C689 1.327 . S
C691 C707 1.429 . S
C691 H713 0.950 . S
C692 H688 0.949 . S
C692 C700 1.574 . S
C692 C708 1.368 . S
H693 C701 0.950 . S
H694 C699 0.950 . S
H695 C700 0.949 . S
H696 C702 0.950 . S
H697 C703 0.950 . S
H698 C704 0.949 . S
C699 H694 0.950 . S
C699 C701 1.327 . S
C699 C705 1.429 . S
C700 C692 1.574 . S
C700 H695 0.949 . S
C700 C706 1.368 . S
C701 C685 1.349 . S
C701 H693 0.950 . S
C701 C699 1.327 . S
C702 C690 1.349 . S
C702 H696 0.950 . S
C702 C703 1.327 . S
C703 H697 0.950 . S
C703 C702 1.327 . S
C703 C707 1.429 . S
C704 C687 1.574 . S
C704 H698 0.949 . S
C704 C708 1.368 . S
C705 C686 1.429 . S
C705 C699 1.429 . S
C705 C706 1.523 . S
C706 C687 1.368 . S
C706 C700 1.368 . S
C706 C705 1.523 . S
C707 C691 1.429 . S
C707 C703 1.429 . S
C707 C708 1.523 . S
C708 C692 1.368 . S
C708 C704 1.368 . S
C708 C707 1.523 . S
H709 C684 0.950 . S
H710 C686 0.950 . S
H711 C687 0.949 . S
H712 C689 0.950 . S
H713 C691 0.950 . S
C714 C715 1.349 . S
C714 C716 1.327 . S
C714 H739 0.950 . S
C715 C714 1.349 . S
C715 C731 1.349 . S
C716 C714 1.327 . S
C716 C735 1.429 . S
C716 H740 0.950 . S
C717 C734 1.574 . S
C717 C736 1.368 . S
C717 H741 0.949 . S
H718 C722 0.949 1_554 S
C719 C720 1.349 . S
C719 C721 1.327 . S
C719 H742 0.950 . S
C720 C719 1.349 . S
C720 C732 1.349 . S
C721 C719 1.327 . S
C721 C737 1.429 . S
C721 H743 0.950 . S
C722 H718 0.949 1_556 S
C722 C730 1.574 . S
C722 C738 1.368 . S
H723 C731 0.950 . S
H724 C729 0.950 . S
H725 C730 0.948 . S
H726 C732 0.950 1_554 S
H727 C733 0.950 1_554 S
H728 C734 0.949 . S
C729 H724 0.950 . S
C729 C731 1.327 . S
C729 C735 1.429 . S
C730 C722 1.574 . S
C730 H725 0.948 . S
C730 C736 1.368 . S
C731 C715 1.349 . S
C731 H723 0.950 . S
C731 C729 1.327 . S
C732 C720 1.349 . S
C732 H726 0.950 1_556 S
C732 C733 1.327 . S
C733 H727 0.950 1_556 S
C733 C732 1.327 . S
C733 C737 1.429 . S
C734 C717 1.574 . S
C734 H728 0.949 . S
C734 C738 1.368 . S
C735 C716 1.429 . S
C735 C729 1.429 . S
C735 C736 1.523 . S
C736 C717 1.368 . S
C736 C730 1.368 . S
C736 C735 1.523 . S
C737 C721 1.429 . S
C737 C733 1.429 . S
C737 C738 1.523 . S
C738 C722 1.368 . S
C738 C734 1.368 . S
C738 C737 1.523 . S
H739 C714 0.950 . S
H740 C716 0.950 . S
H741 C717 0.949 . S
H742 C719 0.950 . S
H743 C721 0.950 . S
C744 C745 1.349 . S
C744 C746 1.327 . S
C744 H769 0.950 . S
C745 C744 1.349 . S
C745 C761 1.349 . S
C746 C744 1.327 . S
C746 C765 1.429 . S
C746 H770 0.950 . S
C747 C764 1.574 . S
C747 C766 1.368 . S
C747 H771 0.949 . S
H748 C752 0.949 . S
C749 C750 1.349 . S
C749 C751 1.327 . S
C749 H772 0.950 . S
C750 C749 1.349 . S
C750 C762 1.349 . S
C751 C749 1.327 . S
C751 C767 1.429 . S
C751 H773 0.950 . S
C752 H748 0.949 . S
C752 C760 1.574 . S
C752 C768 1.368 . S
H753 C761 0.950 . S
H754 C759 0.950 . S
H755 C760 0.949 . S
H756 C762 0.950 . S
H757 C763 0.950 . S
H758 C764 0.949 . S
C759 H754 0.950 . S
C759 C761 1.327 . S
C759 C765 1.429 . S
C760 C752 1.574 . S
C760 H755 0.949 . S
C760 C766 1.368 . S
C761 C745 1.349 . S
C761 H753 0.950 . S
C761 C759 1.327 . S
C762 C750 1.349 . S
C762 H756 0.950 . S
C762 C763 1.327 . S
C763 H757 0.950 . S
C763 C762 1.327 . S
C763 C767 1.429 . S
C764 C747 1.574 . S
C764 H758 0.949 . S
C764 C768 1.368 . S
C765 C746 1.429 . S
C765 C759 1.429 . S
C765 C766 1.523 . S
C766 C747 1.368 . S
C766 C760 1.368 . S
C766 C765 1.523 . S
C767 C751 1.429 . S
C767 C763 1.429 . S
C767 C768 1.523 . S
C768 C752 1.368 . S
C768 C764 1.368 . S
C768 C767 1.523 . S
H769 C744 0.950 . S
H770 C746 0.950 . S
H771 C747 0.949 . S
H772 C749 0.950 . S
H773 C751 0.950 . S
C774 C775 1.349 . S
C774 C776 1.327 . S
C774 H799 0.950 . S
C775 C774 1.349 . S
C775 C791 1.349 . S
C776 C774 1.327 . S
C776 C795 1.429 . S
C776 H800 0.950 . S
C777 C794 1.574 . S
C777 C796 1.368 . S
C777 H801 0.949 . S
H778 C782 0.949 . S
C779 C780 1.349 . S
C779 C781 1.327 . S
C779 H802 0.950 . S
C780 C779 1.349 . S
C780 C792 1.349 . S
C781 C779 1.327 . S
C781 C797 1.429 . S
C781 H803 0.950 . S
C782 H778 0.949 . S
C782 C790 1.574 . S
C782 C798 1.368 . S
H783 C791 0.950 . S
H784 C789 0.950 . S
H785 C790 0.949 . S
H786 C792 0.950 . S
H787 C793 0.950 . S
H788 C794 0.949 . S
C789 H784 0.950 . S
C789 C791 1.327 . S
C789 C795 1.429 . S
C790 C782 1.574 . S
C790 H785 0.949 . S
C790 C796 1.368 . S
C791 C775 1.349 . S
C791 H783 0.950 . S
C791 C789 1.327 . S
C792 C780 1.349 . S
C792 H786 0.950 . S
C792 C793 1.327 . S
C793 H787 0.950 . S
C793 C792 1.327 . S
C793 C797 1.429 . S
C794 C777 1.574 . S
C794 H788 0.949 . S
C794 C798 1.368 . S
C795 C776 1.429 . S
C795 C789 1.429 . S
C795 C796 1.523 . S
C796 C777 1.368 . S
C796 C790 1.368 . S
C796 C795 1.523 . S
C797 C781 1.429 . S
C797 C793 1.429 . S
C797 C798 1.523 . S
C798 C782 1.368 . S
C798 C794 1.368 . S
C798 C797 1.523 . S
H799 C774 0.950 . S
H800 C776 0.950 . S
H801 C777 0.949 . S
H802 C779 0.950 . S
H803 C781 0.950 . S
C804 C805 1.349 . S
C804 C806 1.327 . S
C804 H829 0.950 . S
C805 C804 1.349 . S
C805 C821 1.349 1_556 S
C806 C804 1.327 . S
C806 C825 1.429 . S
C806 H830 0.950 . S
C807 C824 1.574 . S
C807 C826 1.368 1_554 S
C807 H831 0.949 . S
H808 C812 0.949 . S
C809 C810 1.349 1_554 S
C809 C811 1.327 . S
C809 H832 0.950 . S
C810 C809 1.349 1_556 S
C810 C822 1.349 . S
C811 C809 1.327 . S
C811 C827 1.429 1_554 S
C811 H833 0.950 . S
C812 H808 0.949 . S
C812 C820 1.574 . S
C812 C828 1.368 . S
H813 C821 0.950 . S
H814 C819 0.950 . S
H815 C820 0.949 . S
H816 C822 0.950 . S
H817 C823 0.950 . S
H818 C824 0.949 . S
C819 H814 0.950 . S
C819 C821 1.327 . S
C819 C825 1.429 1_554 S
C820 C812 1.574 . S
C820 H815 0.949 . S
C820 C826 1.368 . S
C821 C805 1.349 1_554 S
C821 H813 0.950 . S
C821 C819 1.327 . S
C822 C810 1.349 . S
C822 H816 0.950 . S
C822 C823 1.327 . S
C823 H817 0.950 . S
C823 C822 1.327 . S
C823 C827 1.429 . S
C824 C807 1.574 . S
C824 H818 0.949 . S
C824 C828 1.368 1_554 S
C825 C806 1.429 . S
C825 C819 1.429 1_556 S
C825 C826 1.523 . S
C826 C807 1.368 1_556 S
C826 C820 1.368 . S
C826 C825 1.523 . S
C827 C811 1.429 1_556 S
C827 C823 1.429 . S
C827 C828 1.523 . S
C828 C812 1.368 . S
C828 C824 1.368 1_556 S
C828 C827 1.523 . S
H829 C804 0.950 . S
H830 C806 0.950 . S
H831 C807 0.949 . S
H832 C809 0.950 . S
H833 C811 0.950 . S
C834 C835 1.349 . S
C834 C836 1.327 . S
C834 H859 0.950 . S
C835 C834 1.349 . S
C835 C851 1.349 . S
C836 C834 1.327 . S
C836 C855 1.429 . S
C836 H860 0.950 . S
C837 C854 1.574 . S
C837 C856 1.368 . S
C837 H861 0.949 . S
H838 C842 0.949 . S
C839 C840 1.349 . S
C839 C841 1.327 . S
C839 H862 0.950 . S
C840 C839 1.349 . S
C840 C852 1.349 . S
C841 C839 1.327 . S
C841 C857 1.429 . S
C841 H863 0.950 . S
C842 H838 0.949 . S
C842 C850 1.574 . S
C842 C858 1.368 . S
H843 C851 0.950 . S
H844 C849 0.950 . S
H845 C850 0.949 . S
H846 C852 0.950 . S
H847 C853 0.950 . S
H848 C854 0.949 . S
C849 H844 0.950 . S
C849 C851 1.327 . S
C849 C855 1.429 . S
C850 C842 1.574 . S
C850 H845 0.949 . S
C850 C856 1.368 . S
C851 C835 1.349 . S
C851 H843 0.950 . S
C851 C849 1.327 . S
C852 C840 1.349 . S
C852 H846 0.950 . S
C852 C853 1.327 . S
C853 H847 0.950 . S
C853 C852 1.327 . S
C853 C857 1.429 . S
C854 C837 1.574 . S
C854 H848 0.949 . S
C854 C858 1.368 . S
C855 C836 1.429 . S
C855 C849 1.429 . S
C855 C856 1.523 . S
C856 C837 1.368 . S
C856 C850 1.368 . S
C856 C855 1.523 . S
C857 C841 1.429 . S
C857 C853 1.429 . S
C857 C858 1.523 . S
C858 C842 1.368 . S
C858 C854 1.368 . S
C858 C857 1.523 . S
H859 C834 0.950 . S
H860 C836 0.950 . S
H861 C837 0.949 . S
H862 C839 0.950 . S
H863 C841 0.950 . S
C864 C865 1.349 . S
C864 C866 1.327 . S
C864 H889 0.950 . S
C865 C864 1.349 . S
C865 C881 1.349 . S
C866 C864 1.327 . S
C866 C885 1.429 . S
C866 H890 0.950 . S
C867 C884 1.574 . S
C867 C886 1.368 . S
C867 H891 0.949 . S
H868 C872 0.949 . S
C869 C870 1.349 . S
C869 C871 1.327 . S
C869 H892 0.950 . S
C870 C869 1.349 . S
C870 C882 1.349 . S
C871 C869 1.327 . S
C871 C887 1.429 . S
C871 H893 0.950 . S
C872 H868 0.949 . S
C872 C880 1.574 . S
C872 C888 1.368 . S
H873 C881 0.950 . S
H874 C879 0.950 . S
H875 C880 0.949 . S
H876 C882 0.950 . S
H877 C883 0.950 . S
H878 C884 0.949 . S
C879 H874 0.950 . S
C879 C881 1.327 . S
C879 C885 1.429 . S
C880 C872 1.574 . S
C880 H875 0.949 . S
C880 C886 1.368 . S
C881 C865 1.349 . S
C881 H873 0.950 . S
C881 C879 1.327 . S
C882 C870 1.349 . S
C882 H876 0.950 . S
C882 C883 1.327 . S
C883 H877 0.950 . S
C883 C882 1.327 . S
C883 C887 1.429 . S
C884 C867 1.574 . S
C884 H878 0.949 . S
C884 C888 1.368 . S
C885 C866 1.429 . S
C885 C879 1.429 . S
C885 C886 1.523 . S
C886 C867 1.368 . S
C886 C880 1.368 . S
C886 C885 1.523 . S
C887 C871 1.429 . S
C887 C883 1.429 . S
C887 C888 1.523 . S
C888 C872 1.368 . S
C888 C884 1.368 . S
C888 C887 1.523 . S
H889 C864 0.950 . S
H890 C866 0.950 . S
H891 C867 0.949 . S
H892 C869 0.950 . S
H893 C871 0.950 . S
C894 C895 1.349 . S
C894 C896 1.327 . S
C894 H919 0.950 . S
C895 C894 1.349 . S
C895 C911 1.349 . S
C896 C894 1.327 . S
C896 C915 1.429 . S
C896 H920 0.950 . S
C897 C914 1.574 . S
C897 C916 1.368 . S
C897 H921 0.949 . S
H898 C902 0.949 . S
C899 C900 1.349 . S
C899 C901 1.327 . S
C899 H922 0.950 . S
C900 C899 1.349 . S
C900 C912 1.349 . S
C901 C899 1.327 . S
C901 C917 1.429 . S
C901 H923 0.950 . S
C902 H898 0.949 . S
C902 C910 1.574 . S
C902 C918 1.368 . S
H903 C911 0.950 . S
H904 C909 0.950 . S
H905 C910 0.949 . S
H906 C912 0.950 . S
H907 C913 0.950 . S
H908 C914 0.949 . S
C909 H904 0.950 . S
C909 C911 1.327 . S
C909 C915 1.429 . S
C910 C902 1.574 . S
C910 H905 0.949 . S
C910 C916 1.368 . S
C911 C895 1.349 . S
C911 H903 0.950 . S
C911 C909 1.327 . S
C912 C900 1.349 . S
C912 H906 0.950 . S
C912 C913 1.327 . S
C913 H907 0.950 . S
C913 C912 1.327 . S
C913 C917 1.429 . S
C914 C897 1.574 . S
C914 H908 0.949 . S
C914 C918 1.368 . S
C915 C896 1.429 . S
C915 C909 1.429 . S
C915 C916 1.523 . S
C916 C897 1.368 . S
C916 C910 1.368 . S
C916 C915 1.523 . S
C917 C901 1.429 . S
C917 C913 1.429 . S
C917 C918 1.523 . S
C918 C902 1.368 . S
C918 C914 1.368 . S
C918 C917 1.523 . S
H919 C894 0.950 . S
H920 C896 0.950 . S
H921 C897 0.949 . S
H922 C899 0.950 . S
H923 C901 0.950 . S
C924 C925 1.349 . S
C924 C926 1.327 . S
C924 H949 0.950 . S
C925 C924 1.349 . S
C925 C941 1.349 . S
C926 C924 1.327 . S
C926 C945 1.429 . S
C926 H950 0.950 . S
C927 C944 1.574 . S
C927 C946 1.368 . S
C927 H951 0.949 . S
H928 C932 0.949 . S
C929 C930 1.349 . S
C929 C931 1.327 . S
C929 H952 0.950 . S
C930 C929 1.349 . S
C930 C942 1.349 . S
C931 C929 1.327 . S
C931 C947 1.429 . S
C931 H953 0.950 . S
C932 H928 0.949 . S
C932 C940 1.574 . S
C932 C948 1.368 . S
H933 C941 0.950 . S
H934 C939 0.950 . S
H935 C940 0.949 . S
H936 C942 0.950 . S
H937 C943 0.950 . S
H938 C944 0.949 . S
C939 H934 0.950 . S
C939 C941 1.327 . S
C939 C945 1.429 . S
C940 C932 1.574 . S
C940 H935 0.949 . S
C940 C946 1.368 . S
C941 C925 1.349 . S
C941 H933 0.950 . S
C941 C939 1.327 . S
C942 C930 1.349 . S
C942 H936 0.950 . S
C942 C943 1.327 . S
C943 H937 0.950 . S
C943 C942 1.327 . S
C943 C947 1.429 . S
C944 C927 1.574 . S
C944 H938 0.949 . S
C944 C948 1.368 . S
C945 C926 1.429 . S
C945 C939 1.429 . S
C945 C946 1.523 . S
C946 C927 1.368 . S
C946 C940 1.368 . S
C946 C945 1.523 . S
C947 C931 1.429 . S
C947 C943 1.429 . S
C947 C948 1.523 . S
C948 C932 1.368 . S
C948 C944 1.368 . S
C948 C947 1.523 . S
H949 C924 0.950 . S
H950 C926 0.950 . S
H951 C927 0.949 . S
H952 C929 0.950 . S
H953 C931 0.950 . S
C954 C955 1.349 . S
C954 C956 1.327 . S
C954 H979 0.950 . S
C955 C954 1.349 . S
C955 C971 1.349 . S
C956 C954 1.327 . S
C956 C975 1.429 . S
C956 H980 0.950 . S
C957 C974 1.574 . S
C957 C976 1.368 . S
C957 H981 0.949 . S
H958 C962 0.949 . S
C959 C960 1.349 . S
C959 C961 1.327 . S
C959 H982 0.950 . S
C960 C959 1.349 . S
C960 C972 1.349 . S
C961 C959 1.327 . S
C961 C977 1.429 . S
C961 H983 0.950 . S
C962 H958 0.949 . S
C962 C970 1.574 . S
C962 C978 1.368 . S
H963 C971 0.950 . S
H964 C969 0.950 . S
H965 C970 0.949 . S
H966 C972 0.950 . S
H967 C973 0.950 . S
H968 C974 0.949 . S
C969 H964 0.950 . S
C969 C971 1.327 . S
C969 C975 1.429 . S
C970 C962 1.574 . S
C970 H965 0.949 . S
C970 C976 1.368 . S
C971 C955 1.349 . S
C971 H963 0.950 . S
C971 C969 1.327 . S
C972 C960 1.349 . S
C972 H966 0.950 . S
C972 C973 1.327 . S
C973 H967 0.950 . S
C973 C972 1.327 . S
C973 C977 1.429 . S
C974 C957 1.574 . S
C974 H968 0.949 . S
C974 C978 1.368 . S
C975 C956 1.429 . S
C975 C969 1.429 . S
C975 C976 1.523 . S
C976 C957 1.368 . S
C976 C970 1.368 . S
C976 C975 1.523 . S
C977 C961 1.429 . S
C977 C973 1.429 . S
C977 C978 1.523 . S
C978 C962 1.368 . S
C978 C974 1.368 . S
C978 C977 1.523 . S
H979 C954 0.950 . S
H980 C956 0.950 . S
H981 C957 0.949 . S
H982 C959 0.950 . S
H983 C961 0.950 . S
C984 C985 1.349 . S
C984 C986 1.327 . S
C984 H1009 0.950 . S
C985 C984 1.349 . S
C985 C1001 1.349 . S
C986 C984 1.327 . S
C986 C1005 1.429 . S
C986 H1010 0.950 . S
C987 C1004 1.574 . S
C987 C1006 1.368 . S
C987 H1011 0.949 . S
H988 C992 0.949 . S
C989 C990 1.349 . S
C989 C991 1.327 . S
C989 H1012 0.950 . S
C990 C989 1.349 . S
C990 C1002 1.349 . S
C991 C989 1.327 . S
C991 C1007 1.429 . S
C991 H1013 0.950 . S
C992 H988 0.949 . S
C992 C1000 1.574 . S
C992 C1008 1.368 . S
H993 C1001 0.950 . S
H994 C999 0.950 . S
H995 C1000 0.949 . S
H996 C1002 0.950 . S
H997 C1003 0.950 . S
H998 C1004 0.949 . S
C999 H994 0.950 . S
C999 C1001 1.327 . S
C999 C1005 1.429 . S
C1000 C992 1.574 . S
C1000 H995 0.949 . S
C1000 C1006 1.368 . S
C1001 C985 1.349 . S
C1001 H993 0.950 . S
C1001 C999 1.327 . S
C1002 C990 1.349 . S
C1002 H996 0.950 . S
C1002 C1003 1.327 . S
C1003 H997 0.950 . S
C1003 C1002 1.327 . S
C1003 C1007 1.429 . S
C1004 C987 1.574 . S
C1004 H998 0.949 . S
C1004 C1008 1.368 . S
C1005 C986 1.429 . S
C1005 C999 1.429 . S
C1005 C1006 1.523 . S
C1006 C987 1.368 . S
C1006 C1000 1.368 . S
C1006 C1005 1.523 . S
C1007 C991 1.429 . S
C1007 C1003 1.429 . S
C1007 C1008 1.523 . S
C1008 C992 1.368 . S
C1008 C1004 1.368 . S
C1008 C1007 1.523 . S
H1009 C984 0.950 . S
H1010 C986 0.950 . S
H1011 C987 0.949 . S
H1012 C989 0.950 . S
H1013 C991 0.950 . S
C1014 C1015 1.349 . S
C1014 C1016 1.327 . S
C1014 H1039 0.950 . S
C1015 C1014 1.349 . S
C1015 C1031 1.349 . S
C1016 C1014 1.327 . S
C1016 C1035 1.429 . S
C1016 H1040 0.950 . S
C1017 C1034 1.574 . S
C1017 C1036 1.368 . S
C1017 H1041 0.949 . S
H1018 C1022 0.949 . S
C1019 C1020 1.349 . S
C1019 C1021 1.327 . S
C1019 H1042 0.950 . S
C1020 C1019 1.349 . S
C1020 C1032 1.349 . S
C1021 C1019 1.327 . S
C1021 C1037 1.429 . S
C1021 H1043 0.950 . S
C1022 H1018 0.949 . S
C1022 C1030 1.574 . S
C1022 C1038 1.368 . S
H1023 C1031 0.950 . S
H1024 C1029 0.950 . S
H1025 C1030 0.949 . S
H1026 C1032 0.950 . S
H1027 C1033 0.950 . S
H1028 C1034 0.949 . S
C1029 H1024 0.950 . S
C1029 C1031 1.327 . S
C1029 C1035 1.429 . S
C1030 C1022 1.574 . S
C1030 H1025 0.949 . S
C1030 C1036 1.368 . S
C1031 C1015 1.349 . S
C1031 H1023 0.950 . S
C1031 C1029 1.327 . S
C1032 C1020 1.349 . S
C1032 H1026 0.950 . S
C1032 C1033 1.327 . S
C1033 H1027 0.950 . S
C1033 C1032 1.327 . S
C1033 C1037 1.429 . S
C1034 C1017 1.574 . S
C1034 H1028 0.949 . S
C1034 C1038 1.368 . S
C1035 C1016 1.429 . S
C1035 C1029 1.429 . S
C1035 C1036 1.523 . S
C1036 C1017 1.368 . S
C1036 C1030 1.368 . S
C1036 C1035 1.523 . S
C1037 C1021 1.429 . S
C1037 C1033 1.429 . S
C1037 C1038 1.523 . S
C1038 C1022 1.368 . S
C1038 C1034 1.368 . S
C1038 C1037 1.523 . S
H1039 C1014 0.950 . S
H1040 C1016 0.950 . S
H1041 C1017 0.949 . S
H1042 C1019 0.950 . S
H1043 C1021 0.950 . S
C1044 C1045 1.349 . S
C1044 C1046 1.327 . S
C1044 H1069 0.950 . S
C1045 C1044 1.349 . S
C1045 C1061 1.349 . S
C1046 C1044 1.327 . S
C1046 C1065 1.429 . S
C1046 H1070 0.950 . S
C1047 C1064 1.574 . S
C1047 C1066 1.368 . S
C1047 H1071 0.949 . S
H1048 C1052 0.949 . S
C1049 C1050 1.349 . S
C1049 C1051 1.327 . S
C1049 H1072 0.950 . S
C1050 C1049 1.349 . S
C1050 C1062 1.349 . S
C1051 C1049 1.327 . S
C1051 C1067 1.429 . S
C1051 H1073 0.950 . S
C1052 H1048 0.949 . S
C1052 C1060 1.574 . S
C1052 C1068 1.368 . S
H1053 C1061 0.950 . S
H1054 C1059 0.950 . S
H1055 C1060 0.949 . S
H1056 C1062 0.950 . S
H1057 C1063 0.950 . S
H1058 C1064 0.949 . S
C1059 H1054 0.950 . S
C1059 C1061 1.327 . S
C1059 C1065 1.429 . S
C1060 C1052 1.574 . S
C1060 H1055 0.949 . S
C1060 C1066 1.368 . S
C1061 C1045 1.349 . S
C1061 H1053 0.950 . S
C1061 C1059 1.327 . S
C1062 C1050 1.349 . S
C1062 H1056 0.950 . S
C1062 C1063 1.327 . S
C1063 H1057 0.950 . S
C1063 C1062 1.327 . S
C1063 C1067 1.429 . S
C1064 C1047 1.574 . S
C1064 H1058 0.949 . S
C1064 C1068 1.368 . S
C1065 C1046 1.429 . S
C1065 C1059 1.429 . S
C1065 C1066 1.523 . S
C1066 C1047 1.368 . S
C1066 C1060 1.368 . S
C1066 C1065 1.523 . S
C1067 C1051 1.429 . S
C1067 C1063 1.429 . S
C1067 C1068 1.523 . S
C1068 C1052 1.368 . S
C1068 C1064 1.368 . S
C1068 C1067 1.523 . S
H1069 C1044 0.950 . S
H1070 C1046 0.950 . S
H1071 C1047 0.949 . S
H1072 C1049 0.950 . S
H1073 C1051 0.950 . S
C1074 C1075 1.349 . S
C1074 C1076 1.327 . S
C1074 H1099 0.950 . S
C1075 C1074 1.349 . S
C1075 C1091 1.349 . S
C1076 C1074 1.327 . S
C1076 C1095 1.429 . S
C1076 H1100 0.950 . S
C1077 C1094 1.574 . S
C1077 C1096 1.368 . S
C1077 H1101 0.949 . S
H1078 C1082 0.949 . S
C1079 C1080 1.349 . S
C1079 C1081 1.327 . S
C1079 H1102 0.950 . S
C1080 C1079 1.349 . S
C1080 C1092 1.349 . S
C1081 C1079 1.327 . S
C1081 C1097 1.429 . S
C1081 H1103 0.950 . S
C1082 H1078 0.949 . S
C1082 C1090 1.574 . S
C1082 C1098 1.368 . S
H1083 C1091 0.950 . S
H1084 C1089 0.950 . S
H1085 C1090 0.949 . S
H1086 C1092 0.950 . S
H1087 C1093 0.950 . S
H1088 C1094 0.949 . S
C1089 H1084 0.950 . S
C1089 C1091 1.327 . S
C1089 C1095 1.429 . S
C1090 C1082 1.574 . S
C1090 H1085 0.949 . S
C1090 C1096 1.368 . S
C1091 C1075 1.349 . S
C1091 H1083 0.950 . S
C1091 C1089 1.327 . S
C1092 C1080 1.349 . S
C1092 H1086 0.950 . S
C1092 C1093 1.327 . S
C1093 H1087 0.950 . S
C1093 C1092 1.327 . S
C1093 C1097 1.429 . S
C1094 C1077 1.574 . S
C1094 H1088 0.949 . S
C1094 C1098 1.368 . S
C1095 C1076 1.429 . S
C1095 C1089 1.429 . S
C1095 C1096 1.523 . S
C1096 C1077 1.368 . S
C1096 C1090 1.368 . S
C1096 C1095 1.523 . S
C1097 C1081 1.429 . S
C1097 C1093 1.429 . S
C1097 C1098 1.523 . S
C1098 C1082 1.368 . S
C1098 C1094 1.368 . S
C1098 C1097 1.523 . S
H1099 C1074 0.950 . S
H1100 C1076 0.950 . S
H1101 C1077 0.949 . S
H1102 C1079 0.950 . S
H1103 C1081 0.950 . S
C1104 C1105 1.349 . S
C1104 C1106 1.327 . S
C1104 H1129 0.950 . S
C1105 C1104 1.349 . S
C1105 C1121 1.349 . S
C1106 C1104 1.327 . S
C1106 C1125 1.429 . S
C1106 H1130 0.950 . S
C1107 C1124 1.574 . S
C1107 C1126 1.368 . S
C1107 H1131 0.949 . S
H1108 C1112 0.949 . S
C1109 C1110 1.349 . S
C1109 C1111 1.327 . S
C1109 H1132 0.950 . S
C1110 C1109 1.349 . S
C1110 C1122 1.349 . S
C1111 C1109 1.327 . S
C1111 C1127 1.429 . S
C1111 H1133 0.950 . S
C1112 H1108 0.949 . S
C1112 C1120 1.574 . S
C1112 C1128 1.368 . S
H1113 C1121 0.950 . S
H1114 C1119 0.950 . S
H1115 C1120 0.949 . S
H1116 C1122 0.950 . S
H1117 C1123 0.950 . S
H1118 C1124 0.949 . S
C1119 H1114 0.950 . S
C1119 C1121 1.327 . S
C1119 C1125 1.429 . S
C1120 C1112 1.574 . S
C1120 H1115 0.949 . S
C1120 C1126 1.368 . S
C1121 C1105 1.349 . S
C1121 H1113 0.950 . S
C1121 C1119 1.327 . S
C1122 C1110 1.349 . S
C1122 H1116 0.950 . S
C1122 C1123 1.327 . S
C1123 H1117 0.950 . S
C1123 C1122 1.327 . S
C1123 C1127 1.429 . S
C1124 C1107 1.574 . S
C1124 H1118 0.949 . S
C1124 C1128 1.368 . S
C1125 C1106 1.429 . S
C1125 C1119 1.429 . S
C1125 C1126 1.523 . S
C1126 C1107 1.368 . S
C1126 C1120 1.368 . S
C1126 C1125 1.523 . S
C1127 C1111 1.429 . S
C1127 C1123 1.429 . S
C1127 C1128 1.523 . S
C1128 C1112 1.368 . S
C1128 C1124 1.368 . S
C1128 C1127 1.523 . S
H1129 C1104 0.950 . S
H1130 C1106 0.950 . S
H1131 C1107 0.949 . S
H1132 C1109 0.950 . S
H1133 C1111 0.950 . S
C1134 C1135 1.349 . S
C1134 C1136 1.327 . S
C1134 H1159 0.950 . S
C1135 C1134 1.349 . S
C1135 C1151 1.349 . S
C1136 C1134 1.327 . S
C1136 C1155 1.429 . S
C1136 H1160 0.950 . S
C1137 C1154 1.574 . S
C1137 C1156 1.368 . S
C1137 H1161 0.949 . S
H1138 C1142 0.949 . S
C1139 C1140 1.349 . S
C1139 C1141 1.327 . S
C1139 H1162 0.950 . S
C1140 C1139 1.349 . S
C1140 C1152 1.349 . S
C1141 C1139 1.327 . S
C1141 C1157 1.429 . S
C1141 H1163 0.950 . S
C1142 H1138 0.949 . S
C1142 C1150 1.574 . S
C1142 C1158 1.368 . S
H1143 C1151 0.950 . S
H1144 C1149 0.950 . S
H1145 C1150 0.949 . S
H1146 C1152 0.950 . S
H1147 C1153 0.950 . S
H1148 C1154 0.949 . S
C1149 H1144 0.950 . S
C1149 C1151 1.327 . S
C1149 C1155 1.429 . S
C1150 C1142 1.574 . S
C1150 H1145 0.949 . S
C1150 C1156 1.368 . S
C1151 C1135 1.349 . S
C1151 H1143 0.950 . S
C1151 C1149 1.327 . S
C1152 C1140 1.349 . S
C1152 H1146 0.950 . S
C1152 C1153 1.327 . S
C1153 H1147 0.950 . S
C1153 C1152 1.327 . S
C1153 C1157 1.429 . S
C1154 C1137 1.574 . S
C1154 H1148 0.949 . S
C1154 C1158 1.368 . S
C1155 C1136 1.429 . S
C1155 C1149 1.429 . S
C1155 C1156 1.523 . S
C1156 C1137 1.368 . S
C1156 C1150 1.368 . S
C1156 C1155 1.523 . S
C1157 C1141 1.429 . S
C1157 C1153 1.429 . S
C1157 C1158 1.523 . S
C1158 C1142 1.368 . S
C1158 C1154 1.368 . S
C1158 C1157 1.523 . S
H1159 C1134 0.950 . S
H1160 C1136 0.950 . S
H1161 C1137 0.949 . S
H1162 C1139 0.950 . S
H1163 C1141 0.950 . S
C1164 C1165 1.349 . S
C1164 C1166 1.327 . S
C1164 H1189 0.950 . S
C1165 C1164 1.349 . S
C1165 C1181 1.349 . S
C1166 C1164 1.327 . S
C1166 C1185 1.429 . S
C1166 H1190 0.950 . S
C1167 C1184 1.574 . S
C1167 C1186 1.368 . S
C1167 H1191 0.949 . S
H1168 C1172 0.949 . S
C1169 C1170 1.349 . S
C1169 C1171 1.327 . S
C1169 H1192 0.950 . S
C1170 C1169 1.349 . S
C1170 C1182 1.349 . S
C1171 C1169 1.327 . S
C1171 C1187 1.429 . S
C1171 H1193 0.950 . S
C1172 H1168 0.949 . S
C1172 C1180 1.574 . S
C1172 C1188 1.368 . S
H1173 C1181 0.950 . S
H1174 C1179 0.950 . S
H1175 C1180 0.949 . S
H1176 C1182 0.950 . S
H1177 C1183 0.950 . S
H1178 C1184 0.949 . S
C1179 H1174 0.950 . S
C1179 C1181 1.327 . S
C1179 C1185 1.429 . S
C1180 C1172 1.574 . S
C1180 H1175 0.949 . S
C1180 C1186 1.368 . S
C1181 C1165 1.349 . S
C1181 H1173 0.950 . S
C1181 C1179 1.327 . S
C1182 C1170 1.349 . S
C1182 H1176 0.950 . S
C1182 C1183 1.327 . S
C1183 H1177 0.950 . S
C1183 C1182 1.327 . S
C1183 C1187 1.429 . S
C1184 C1167 1.574 . S
C1184 H1178 0.949 . S
C1184 C1188 1.368 . S
C1185 C1166 1.429 . S
C1185 C1179 1.429 . S
C1185 C1186 1.523 . S
C1186 C1167 1.368 . S
C1186 C1180 1.368 . S
C1186 C1185 1.523 . S
C1187 C1171 1.429 . S
C1187 C1183 1.429 . S
C1187 C1188 1.523 . S
C1188 C1172 1.368 . S
C1188 C1184 1.368 . S
C1188 C1187 1.523 . S
H1189 C1164 0.950 . S
H1190 C1166 0.950 . S
H1191 C1167 0.949 . S
H1192 C1169 0.950 . S
H1193 C1171 0.950 . S
C1194 C1195 1.349 . S
C1194 C1196 1.327 . S
C1194 H1219 0.950 . S
C1195 C1194 1.349 . S
C1195 C1211 1.349 . S
C1196 C1194 1.327 . S
C1196 C1215 1.429 . S
C1196 H1220 0.950 . S
C1197 C1214 1.574 . S
C1197 C1216 1.368 . S
C1197 H1221 0.949 . S
H1198 C1202 0.949 1_545 S
C1199 C1200 1.349 1_565 S
C1199 C1201 1.327 . S
C1199 H1222 0.950 . S
C1200 C1199 1.349 1_545 S
C1200 C1212 1.349 . S
C1201 C1199 1.327 . S
C1201 C1217 1.429 . S
C1201 H1223 0.950 . S
C1202 H1198 0.949 1_565 S
C1202 C1210 1.574 . S
C1202 C1218 1.368 . S
H1203 C1211 0.950 . S
H1204 C1209 0.950 . S
H1205 C1210 0.949 . S
H1206 C1212 0.950 . S
H1207 C1213 0.950 . S
H1208 C1214 0.949 . S
C1209 H1204 0.950 . S
C1209 C1211 1.327 . S
C1209 C1215 1.429 . S
C1210 C1202 1.574 . S
C1210 H1205 0.949 . S
C1210 C1216 1.368 . S
C1211 C1195 1.349 . S
C1211 H1203 0.950 . S
C1211 C1209 1.327 . S
C1212 C1200 1.349 . S
C1212 H1206 0.950 . S
C1212 C1213 1.327 . S
C1213 H1207 0.950 . S
C1213 C1212 1.327 . S
C1213 C1217 1.429 1_545 S
C1214 C1197 1.574 . S
C1214 H1208 0.949 . S
C1214 C1218 1.368 . S
C1215 C1196 1.429 . S
C1215 C1209 1.429 . S
C1215 C1216 1.523 . S
C1216 C1197 1.368 . S
C1216 C1210 1.368 . S
C1216 C1215 1.523 . S
C1217 C1201 1.429 . S
C1217 C1213 1.429 1_565 S
C1217 C1218 1.523 . S
C1218 C1202 1.368 . S
C1218 C1214 1.368 . S
C1218 C1217 1.523 . S
H1219 C1194 0.950 . S
H1220 C1196 0.950 . S
H1221 C1197 0.949 . S
H1222 C1199 0.950 . S
H1223 C1201 0.950 . S
C1224 C1225 1.349 . S
C1224 C1226 1.327 . S
C1224 H1249 0.950 . S
C1225 C1224 1.349 . S
C1225 C1241 1.349 . S
C1226 C1224 1.327 . S
C1226 C1245 1.429 . S
C1226 H1250 0.950 . S
C1227 C1244 1.574 . S
C1227 C1246 1.368 . S
C1227 H1251 0.949 . S
H1228 C1232 0.949 . S
C1229 C1230 1.349 . S
C1229 C1231 1.327 . S
C1229 H1252 0.950 . S
C1230 C1229 1.349 . S
C1230 C1242 1.349 . S
C1231 C1229 1.327 . S
C1231 C1247 1.429 . S
C1231 H1253 0.950 . S
C1232 H1228 0.949 . S
C1232 C1240 1.574 . S
C1232 C1248 1.368 . S
H1233 C1241 0.950 . S
H1234 C1239 0.950 . S
H1235 C1240 0.949 . S
H1236 C1242 0.950 . S
H1237 C1243 0.950 . S
H1238 C1244 0.949 . S
C1239 H1234 0.950 . S
C1239 C1241 1.327 . S
C1239 C1245 1.429 . S
C1240 C1232 1.574 . S
C1240 H1235 0.949 . S
C1240 C1246 1.368 . S
C1241 C1225 1.349 . S
C1241 H1233 0.950 . S
C1241 C1239 1.327 . S
C1242 C1230 1.349 . S
C1242 H1236 0.950 . S
C1242 C1243 1.327 . S
C1243 H1237 0.950 . S
C1243 C1242 1.327 . S
C1243 C1247 1.429 . S
C1244 C1227 1.574 . S
C1244 H1238 0.949 . S
C1244 C1248 1.368 . S
C1245 C1226 1.429 . S
C1245 C1239 1.429 . S
C1245 C1246 1.523 . S
C1246 C1227 1.368 . S
C1246 C1240 1.368 . S
C1246 C1245 1.523 . S
C1247 C1231 1.429 . S
C1247 C1243 1.429 . S
C1247 C1248 1.523 . S
C1248 C1232 1.368 . S
C1248 C1244 1.368 . S
C1248 C1247 1.523 . S
H1249 C1224 0.950 . S
H1250 C1226 0.950 . S
H1251 C1227 0.949 . S
H1252 C1229 0.950 . S
H1253 C1231 0.950 . S
C1254 C1255 1.349 . S
C1254 C1256 1.327 . S
C1254 H1279 0.950 . S
C1255 C1254 1.349 . S
C1255 C1271 1.349 . S
C1256 C1254 1.327 . S
C1256 C1275 1.429 . S
C1256 H1280 0.950 . S
C1257 C1274 1.574 . S
C1257 C1276 1.368 . S
C1257 H1281 0.949 . S
H1258 C1262 0.949 . S
C1259 C1260 1.349 . S
C1259 C1261 1.327 . S
C1259 H1282 0.950 . S
C1260 C1259 1.349 . S
C1260 C1272 1.349 . S
C1261 C1259 1.327 . S
C1261 C1277 1.429 . S
C1261 H1283 0.950 . S
C1262 H1258 0.949 . S
C1262 C1270 1.574 . S
C1262 C1278 1.368 . S
H1263 C1271 0.950 . S
H1264 C1269 0.950 . S
H1265 C1270 0.949 . S
H1266 C1272 0.950 . S
H1267 C1273 0.950 . S
H1268 C1274 0.949 . S
C1269 H1264 0.950 . S
C1269 C1271 1.327 . S
C1269 C1275 1.429 . S
C1270 C1262 1.574 . S
C1270 H1265 0.949 . S
C1270 C1276 1.368 . S
C1271 C1255 1.349 . S
C1271 H1263 0.950 . S
C1271 C1269 1.327 . S
C1272 C1260 1.349 . S
C1272 H1266 0.950 . S
C1272 C1273 1.327 . S
C1273 H1267 0.950 . S
C1273 C1272 1.327 . S
C1273 C1277 1.429 . S
C1274 C1257 1.574 . S
C1274 H1268 0.949 . S
C1274 C1278 1.368 . S
C1275 C1256 1.429 . S
C1275 C1269 1.429 . S
C1275 C1276 1.523 . S
C1276 C1257 1.368 . S
C1276 C1270 1.368 . S
C1276 C1275 1.523 . S
C1277 C1261 1.429 . S
C1277 C1273 1.429 . S
C1277 C1278 1.523 . S
C1278 C1262 1.368 . S
C1278 C1274 1.368 . S
C1278 C1277 1.523 . S
H1279 C1254 0.950 . S
H1280 C1256 0.950 . S
H1281 C1257 0.949 . S
H1282 C1259 0.950 . S
H1283 C1261 0.950 . S
C1284 C1285 1.349 . S
C1284 C1286 1.327 . S
C1284 H1309 0.950 . S
C1285 C1284 1.349 . S
C1285 C1301 1.349 . S
C1286 C1284 1.327 . S
C1286 C1305 1.429 . S
C1286 H1310 0.950 . S
C1287 C1304 1.574 . S
C1287 C1306 1.368 . S
C1287 H1311 0.949 . S
H1288 C1292 0.949 . S
C1289 C1290 1.349 . S
C1289 C1291 1.327 . S
C1289 H1312 0.950 . S
C1290 C1289 1.349 . S
C1290 C1302 1.349 . S
C1291 C1289 1.327 . S
C1291 C1307 1.429 . S
C1291 H1313 0.950 . S
C1292 H1288 0.949 . S
C1292 C1300 1.574 . S
C1292 C1308 1.368 . S
H1293 C1301 0.950 . S
H1294 C1299 0.950 . S
H1295 C1300 0.949 . S
H1296 C1302 0.950 . S
H1297 C1303 0.950 . S
H1298 C1304 0.949 . S
C1299 H1294 0.950 . S
C1299 C1301 1.327 . S
C1299 C1305 1.429 . S
C1300 C1292 1.574 . S
C1300 H1295 0.949 . S
C1300 C1306 1.368 . S
C1301 C1285 1.349 . S
C1301 H1293 0.950 . S
C1301 C1299 1.327 . S
C1302 C1290 1.349 . S
C1302 H1296 0.950 . S
C1302 C1303 1.327 . S
C1303 H1297 0.950 . S
C1303 C1302 1.327 . S
C1303 C1307 1.429 . S
C1304 C1287 1.574 . S
C1304 H1298 0.949 . S
C1304 C1308 1.368 . S
C1305 C1286 1.429 . S
C1305 C1299 1.429 . S
C1305 C1306 1.523 . S
C1306 C1287 1.368 . S
C1306 C1300 1.368 . S
C1306 C1305 1.523 . S
C1307 C1291 1.429 . S
C1307 C1303 1.429 . S
C1307 C1308 1.523 . S
C1308 C1292 1.368 . S
C1308 C1304 1.368 . S
C1308 C1307 1.523 . S
H1309 C1284 0.950 . S
H1310 C1286 0.950 . S
H1311 C1287 0.949 . S
H1312 C1289 0.950 . S
H1313 C1291 0.950 . S
C1314 C1315 1.349 . S
C1314 C1316 1.327 . S
C1314 H1339 0.950 . S
C1315 C1314 1.349 . S
C1315 C1331 1.349 . S
C1316 C1314 1.327 . S
C1316 C1335 1.429 . S
C1316 H1340 0.950 . S
C1317 C1334 1.574 . S
C1317 C1336 1.368 . S
C1317 H1341 0.949 . S
H1318 C1322 0.949 . S
C1319 C1320 1.349 . S
C1319 C1321 1.327 . S
C1319 H1342 0.950 . S
C1320 C1319 1.349 . S
C1320 C1332 1.349 . S
C1321 C1319 1.327 . S
C1321 C1337 1.429 . S
C1321 H1343 0.950 . S
C1322 H1318 0.949 . S
C1322 C1330 1.574 . S
C1322 C1338 1.368 . S
H1323 C1331 0.950 . S
H1324 C1329 0.950 . S
H1325 C1330 0.949 . S
H1326 C1332 0.950 . S
H1327 C1333 0.950 . S
H1328 C1334 0.949 . S
C1329 H1324 0.950 . S
C1329 C1331 1.327 . S
C1329 C1335 1.429 . S
C1330 C1322 1.574 . S
C1330 H1325 0.949 . S
C1330 C1336 1.368 . S
C1331 C1315 1.349 . S
C1331 H1323 0.950 . S
C1331 C1329 1.327 . S
C1332 C1320 1.349 . S
C1332 H1326 0.950 . S
C1332 C1333 1.327 . S
C1333 H1327 0.950 . S
C1333 C1332 1.327 . S
C1333 C1337 1.429 . S
C1334 C1317 1.574 . S
C1334 H1328 0.949 . S
C1334 C1338 1.368 . S
C1335 C1316 1.429 . S
C1335 C1329 1.429 . S
C1335 C1336 1.523 . S
C1336 C1317 1.368 . S
C1336 C1330 1.368 . S
C1336 C1335 1.523 . S
C1337 C1321 1.429 . S
C1337 C1333 1.429 . S
C1337 C1338 1.523 . S
C1338 C1322 1.368 . S
C1338 C1334 1.368 . S
C1338 C1337 1.523 . S
H1339 C1314 0.950 . S
H1340 C1316 0.950 . S
H1341 C1317 0.949 . S
H1342 C1319 0.950 . S
H1343 C1321 0.950 . S
C265 C84 1.501 . S
C270 C7 1.477 . S
C295 C51 1.584 . S
C300 C18 1.618 . S
C325 C62 1.793 . S
C330 C29 1.747 . S
C355 C73 1.100 . S
C360 C40 1.143 . S
C385 C95 0.710 . S
C390 C139 0.585 . S
C415 C150 0.995 . S
C420 C106 0.928 . S
C445 C117 1.256 . S
C450 C161 1.253 . S
C475 C172 1.196 . S
C480 C128 1.186 . S
C505 C183 1.449 . S
C510 C238 1.379 . S
C535 C194 1.725 . S
C540 C216 1.730 . S
C565 C205 1.770 . S
C570 C249 1.665 . S
C595 C260 1.350 . S
C600 C227 1.358 . S
C625 C8 1.857 . S
C630 C173 1.849 . S
C655 C19 1.716 . S
C660 C137 1.584 . S
C685 C151 1.570 . S
C690 C27 1.239 . S
C715 C162 1.563 . S
C720 C41 1.582 . S
C745 C49 1.507 . S
C750 C104 1.195 . S
C775 C60 1.708 . S
C780 C118 1.894 . S
C805 C126 1.392 . S
C810 C71 1.133 . S
C835 C85 1.734 . S
C840 C93 1.632 . S
C865 C129 1.758 . S
C870 C140 1.790 . S
C895 C228 1.874 . S
C900 C181 1.812 . S
C925 C192 1.486 . S
C930 C239 1.593 . S
C955 C203 1.498 . S
C960 C214 1.412 . S
C985 C159 1.447 . S
C990 C107 1.513 . S
C1015 C63 1.854 . S
C1020 C206 1.845 . S
C1045 C258 1.169 . S
C1050 C74 1.474 . S
C1075 C82 1.620 . S
C1080 C184 1.784 . S
C1105 C195 1.464 . S
C1110 C52 1.475 . S
C1135 C236 1.241 . S
C1140 C38 1.574 . S
C1165 C5 1.026 . S
C1170 C217 1.258 . S
C1195 C16 1.550 . S
C1200 C247 1.404 . S
C1225 C225 1.461 . S
C1230 C30 1.746 . S
C1255 C250 1.802 . S
C1260 C261 1.801 . S
C1285 C96 2.193 . S
C1290 C148 2.124 . S
C1315 C170 2.097 . S
C1320 C115 2.042 . S
