# Generated by pormake.
# Topology bcs, (6)-cn, num edge types: 1
# Building blocks:
#     Node 0, Type 0, BuildingBlock: JUFBIX_clean_sbu_0, # of connection points: 6
#     Node 1, Type 0, BuildingBlock: JUFBIX_clean_sbu_0, # of connection points: 6
#     Node 2, Type 0, BuildingBlock: JUFBIX_clean_sbu_0, # of connection points: 6
#     Node 3, Type 0, BuildingBlock: JUFBIX_clean_sbu_0, # of connection points: 6
#     Node 4, Type 0, BuildingBlock: JUFBIX_clean_sbu_0, # of connection points: 6
#     Node 5, Type 0, BuildingBlock: JUFBIX_clean_sbu_0, # of connection points: 6
#     Node 6, Type 0, BuildingBlock: JUFBIX_clean_sbu_0, # of connection points: 6
#     Node 7, Type 0, BuildingBlock: JUFBIX_clean_sbu_0, # of connection points: 6
#     Node 8, Type 0, BuildingBlock: JUFBIX_clean_sbu_0, # of connection points: 6
#     Node 9, Type 0, BuildingBlock: JUFBIX_clean_sbu_0, # of connection points: 6
#     Node 10, Type 0, BuildingBlock: JUFBIX_clean_sbu_0, # of connection points: 6
#     Node 11, Type 0, BuildingBlock: JUFBIX_clean_sbu_0, # of connection points: 6
#     Node 12, Type 0, BuildingBlock: JUFBIX_clean_sbu_0, # of connection points: 6
#     Node 13, Type 0, BuildingBlock: JUFBIX_clean_sbu_0, # of connection points: 6
#     Node 14, Type 0, BuildingBlock: JUFBIX_clean_sbu_0, # of connection points: 6
#     Node 15, Type 0, BuildingBlock: JUFBIX_clean_sbu_0, # of connection points: 6
#     Edge 16, Type (0, 0), BuildingBlock: CIFDUS_clean_linker_0, # of connection points: 2
#     Edge 17, Type (0, 0), BuildingBlock: CIFDUS_clean_linker_0, # of connection points: 2
#     Edge 18, Type (0, 0), BuildingBlock: CIFDUS_clean_linker_0, # of connection points: 2
#     Edge 19, Type (0, 0), BuildingBlock: CIFDUS_clean_linker_0, # of connection points: 2
#     Edge 20, Type (0, 0), BuildingBlock: CIFDUS_clean_linker_0, # of connection points: 2
#     Edge 21, Type (0, 0), BuildingBlock: CIFDUS_clean_linker_0, # of connection points: 2
#     Edge 22, Type (0, 0), BuildingBlock: CIFDUS_clean_linker_0, # of connection points: 2
#     Edge 23, Type (0, 0), BuildingBlock: CIFDUS_clean_linker_0, # of connection points: 2
#     Edge 24, Type (0, 0), BuildingBlock: CIFDUS_clean_linker_0, # of connection points: 2
#     Edge 25, Type (0, 0), BuildingBlock: CIFDUS_clean_linker_0, # of connection points: 2
#     Edge 26, Type (0, 0), BuildingBlock: CIFDUS_clean_linker_0, # of connection points: 2
#     Edge 27, Type (0, 0), BuildingBlock: CIFDUS_clean_linker_0, # of connection points: 2
#     Edge 28, Type (0, 0), BuildingBlock: CIFDUS_clean_linker_0, # of connection points: 2
#     Edge 29, Type (0, 0), BuildingBlock: CIFDUS_clean_linker_0, # of connection points: 2
#     Edge 30, Type (0, 0), BuildingBlock: CIFDUS_clean_linker_0, # of connection points: 2
#     Edge 31, Type (0, 0), BuildingBlock: CIFDUS_clean_linker_0, # of connection points: 2
#     Edge 32, Type (0, 0), BuildingBlock: CIFDUS_clean_linker_0, # of connection points: 2
#     Edge 33, Type (0, 0), BuildingBlock: CIFDUS_clean_linker_0, # of connection points: 2
#     Edge 34, Type (0, 0), BuildingBlock: CIFDUS_clean_linker_0, # of connection points: 2
#     Edge 35, Type (0, 0), BuildingBlock: CIFDUS_clean_linker_0, # of connection points: 2
#     Edge 36, Type (0, 0), BuildingBlock: CIFDUS_clean_linker_0, # of connection points: 2
#     Edge 37, Type (0, 0), BuildingBlock: CIFDUS_clean_linker_0, # of connection points: 2
#     Edge 38, Type (0, 0), BuildingBlock: CIFDUS_clean_linker_0, # of connection points: 2
#     Edge 39, Type (0, 0), BuildingBlock: CIFDUS_clean_linker_0, # of connection points: 2
#     Edge 40, Type (0, 0), BuildingBlock: CIFDUS_clean_linker_0, # of connection points: 2
#     Edge 41, Type (0, 0), BuildingBlock: CIFDUS_clean_linker_0, # of connection points: 2
#     Edge 42, Type (0, 0), BuildingBlock: CIFDUS_clean_linker_0, # of connection points: 2
#     Edge 43, Type (0, 0), BuildingBlock: CIFDUS_clean_linker_0, # of connection points: 2
#     Edge 44, Type (0, 0), BuildingBlock: CIFDUS_clean_linker_0, # of connection points: 2
#     Edge 45, Type (0, 0), BuildingBlock: CIFDUS_clean_linker_0, # of connection points: 2
#     Edge 46, Type (0, 0), BuildingBlock: CIFDUS_clean_linker_0, # of connection points: 2
#     Edge 47, Type (0, 0), BuildingBlock: CIFDUS_clean_linker_0, # of connection points: 2
#     Edge 48, Type (0, 0), BuildingBlock: CIFDUS_clean_linker_0, # of connection points: 2
#     Edge 49, Type (0, 0), BuildingBlock: CIFDUS_clean_linker_0, # of connection points: 2
#     Edge 50, Type (0, 0), BuildingBlock: CIFDUS_clean_linker_0, # of connection points: 2
#     Edge 51, Type (0, 0), BuildingBlock: CIFDUS_clean_linker_0, # of connection points: 2
#     Edge 52, Type (0, 0), BuildingBlock: CIFDUS_clean_linker_0, # of connection points: 2
#     Edge 53, Type (0, 0), BuildingBlock: CIFDUS_clean_linker_0, # of connection points: 2
#     Edge 54, Type (0, 0), BuildingBlock: CIFDUS_clean_linker_0, # of connection points: 2
#     Edge 55, Type (0, 0), BuildingBlock: CIFDUS_clean_linker_0, # of connection points: 2
#     Edge 56, Type (0, 0), BuildingBlock: CIFDUS_clean_linker_0, # of connection points: 2
#     Edge 57, Type (0, 0), BuildingBlock: CIFDUS_clean_linker_0, # of connection points: 2
#     Edge 58, Type (0, 0), BuildingBlock: CIFDUS_clean_linker_0, # of connection points: 2
#     Edge 59, Type (0, 0), BuildingBlock: CIFDUS_clean_linker_0, # of connection points: 2
#     Edge 60, Type (0, 0), BuildingBlock: CIFDUS_clean_linker_0, # of connection points: 2
#     Edge 61, Type (0, 0), BuildingBlock: CIFDUS_clean_linker_0, # of connection points: 2
#     Edge 62, Type (0, 0), BuildingBlock: CIFDUS_clean_linker_0, # of connection points: 2
#     Edge 63, Type (0, 0), BuildingBlock: CIFDUS_clean_linker_0, # of connection points: 2
# Relax obj value: 0.415
# Max RMSD: 0.300
# Mean RMSD: 0.241
data_MOF--net-bcs--node1-JUFBIX_clean_sbu_0--edge1-CIFDUS_clean_linker_0
_symmetry_space_group_name_H-M    P1
_symmetry_Int_Tables_number       1
_symmetry_cell_setting            triclinic
loop_
_symmetry_equiv_pos_as_xyz
'x, y, z'
_cell_length_a     31.392235
_cell_length_b     32.695362
_cell_length_c     32.057764
_cell_angle_alpha  98.57231
_cell_angle_beta   97.620531
_cell_angle_gamma 88.09632
loop_
_atom_site_label
_atom_site_type_symbol
_atom_site_fract_x
_atom_site_fract_y
_atom_site_fract_z
_atom_type_partial_charge
Co0 Co 1.00343 1.00426 0.0211 0.0
C1 C 0.99287 0.07987 0.07705 0.0
Co2 Co 0.05282 0.04991 0.01611 0.0
C3 C 0.9455 0.96224 0.06346 0.0
C4 C 0.94538 0.93248 0.99943 0.0
N5 N 0.96157 0.96543 0.0267 0.0
N6 N 0.9201 0.92899 0.06036 0.0
C7 C 0.92008 0.91004 0.02001 0.0
H8 H 0.9538 0.98294 0.09286 0.0
H9 H 0.95244 0.92451 0.96707 0.0
C10 C 0.06364 0.97333 0.9608 0.0
N11 N 0.0954 0.08879 1.01283 0.0
C12 C 0.10324 0.10574 0.97834 0.0
C13 C 0.12614 0.10453 0.04404 0.0
N14 N 0.13779 0.1309 0.98677 0.0
C15 C 0.15217 0.13012 0.02813 0.0
C16 C 0.08168 0.99093 0.07629 0.0
O17 O 0.02992 0.96463 0.97663 0.0
O18 O 0.07781 1.01023 0.97165 0.0
O19 O 0.09253 0.0227 0.0607 0.0
O20 O 0.04292 0.97898 0.06498 0.0
O21 O 0.02623 0.08961 0.06127 0.0
H22 H 0.12964 0.09772 0.07633 0.0
H23 H 0.08458 0.09904 0.94728 0.0
O24 O 0.979 0.0433 0.06499 0.0
O25 O 0.96332 0.03148 0.97598 0.0
O26 O 1.01324 0.07529 0.97206 0.0
C27 C 0.97447 0.0633 0.96031 0.0
H28 H 0.90308 0.88194 1.00632 0.0
H29 H 0.17916 0.14742 0.04576 0.0
Co30 Co 0.3065 0.78271 0.24653 0.0
C31 C 0.3042 0.83698 0.32162 0.0
Co32 Co 0.25306 0.77244 0.28203 0.0
C33 C 0.35815 0.83017 0.20199 0.0
C34 C 0.38179 0.76809 0.20223 0.0
N35 N 0.3512 0.79434 0.21653 0.0
N36 N 0.39172 0.82734 0.17902 0.0
C37 C 0.40664 0.78815 0.17937 0.0
H38 H 0.33873 0.85785 0.20802 0.0
H39 H 0.38516 0.73607 0.20716 0.0
C40 C 0.25322 0.71992 0.20512 0.0
N41 N 0.2087 0.76021 0.31107 0.0
C42 C 0.2027 0.72281 0.32237 0.0
C43 C 0.17697 0.78448 0.32619 0.0
N44 N 0.16895 0.72267 0.34429 0.0
C45 C 0.15235 0.7614 0.34655 0.0
C46 C 0.22783 0.83038 0.22218 0.0
O47 O 0.28658 0.73955 0.2016 0.0
O48 O 0.23545 0.7283 0.23876 0.0
O49 O 0.21464 0.81085 0.24989 0.0
O50 O 0.26724 0.82362 0.21588 0.0
O51 O 0.2707 0.81759 0.32513 0.0
H52 H 0.1724 0.81688 0.32314 0.0
H53 H 0.22266 0.6959 0.31441 0.0
O54 O 0.325 0.82596 0.29035 0.0
O55 O 0.34523 0.74058 0.27937 0.0
O56 O 0.29129 0.73412 0.31379 0.0
C57 C 0.33005 0.72375 0.30835 0.0
H58 H 0.43283 0.77433 0.16309 0.0
H59 H 0.12515 0.77254 0.36274 0.0
Co60 Co 0.53621 0.03007 0.50807 0.0
C61 C 0.56968 0.10624 0.53695 0.0
Co62 Co 0.48765 0.0783 0.4986 0.0
C63 C 0.56746 0.95081 0.51932 0.0
C64 C 0.6094 0.98063 0.48625 0.0
N65 N 0.57502 0.98731 0.50759 0.0
N66 N 0.5947 0.92093 0.5051 0.0
C67 C 0.62166 0.93972 0.4847 0.0
H68 H 0.54125 0.94618 0.53678 0.0
H69 H 0.6229 1.00327 0.47052 0.0
C70 C 0.45508 1.00049 0.47161 0.0
N71 N 0.44674 0.11962 0.49793 0.0
C72 C 0.41284 0.12068 0.46779 0.0
C73 C 0.44034 0.15158 0.52843 0.0
N74 N 0.38499 0.15142 0.47834 0.0
C75 C 0.40233 0.17153 0.51622 0.0
C76 C 0.52765 0.0602 0.42951 0.0
O77 O 0.49279 0.99126 0.48674 0.0
O78 O 0.44488 0.03838 0.47182 0.0
O79 O 0.50073 0.08652 0.44394 0.0
O80 O 0.54505 0.03433 0.45238 0.0
O81 O 0.53097 0.11747 0.52605 0.0
H82 H 0.46122 0.15907 0.5581 0.0
H83 H 0.4086 0.09905 0.43855 0.0
O84 O 0.57994 0.06824 0.52969 0.0
O85 O 0.52687 0.02577 0.56448 0.0
O86 O 0.47419 0.06998 0.55219 0.0
C87 C 0.49477 0.04668 0.57632 0.0
H88 H 0.64756 0.92493 0.46866 0.0
H89 H 0.38816 0.19805 0.53409 0.0
Co90 Co 0.28335 0.30259 0.79062 0.0
C91 C 0.35419 0.32672 0.84941 0.0
Co92 Co 0.33607 0.25685 0.78949 0.0
C93 C 0.20167 0.34483 0.79638 0.0
C94 C 0.24982 0.38243 0.78047 0.0
N95 N 0.24255 0.34394 0.7879 0.0
N96 N 0.18332 0.38277 0.79559 0.0
C97 C 0.21368 0.40619 0.78501 0.0
H98 H 0.18673 0.31867 0.8053 0.0
H99 H 0.28037 0.39346 0.7749 0.0
C100 C 0.26339 0.23363 0.73203 0.0
N101 N 0.37882 0.2168 0.79345 0.0
C102 C 0.39143 0.18837 0.76251 0.0
C103 C 0.40495 0.2104 0.82905 0.0
N104 N 0.42451 0.1649 0.77736 0.0
C105 C 0.43355 0.17878 0.81908 0.0
C106 C 0.27434 0.24741 0.84581 0.0
O107 O 0.25008 0.26887 0.74768 0.0
O108 O 0.30102 0.22123 0.7454 0.0
O109 O 0.30939 0.2341 0.83223 0.0
O110 O 0.25628 0.2792 0.83225 0.0
O111 O 0.36997 0.29281 0.83311 0.0
H112 H 0.40359 0.22782 0.8603 0.0
H113 H 0.37746 0.18563 0.72948 0.0
O114 O 0.31651 0.33721 0.83498 0.0
O115 O 0.30954 0.32447 0.74813 0.0
O116 O 0.36242 0.27949 0.74592 0.0
C117 C 0.34271 0.31038 0.7319 0.0
H118 H 0.21178 0.43921 0.78454 0.0
H119 H 0.45893 0.16694 0.84057 0.0
Co120 Co 0.04053 0.04778 0.52387 0.0
C121 C 0.07021 0.10988 0.58931 0.0
Co122 Co 1.01271 0.04738 0.58335 0.0
C123 C 0.0449 0.04074 0.4341 0.0
C124 C 0.10652 0.05062 0.47147 0.0
N125 N 0.06424 0.04841 0.47456 0.0
N126 N 0.07361 0.03724 0.40599 0.0
C127 C 0.11237 0.04372 0.42933 0.0
H128 H 1.01061 0.0367 0.42545 0.0
H129 H 0.13158 0.05583 0.49823 0.0
C130 C 0.98269 0.985 0.51794 0.0
N131 N 0.98975 0.04442 0.63287 0.0
C132 C 0.98786 1.00943 0.64995 0.0
C133 C 0.96501 0.07212 0.65468 0.0
N134 N 0.96226 1.01364 0.68081 0.0
C135 C 0.94746 0.05297 0.68386 0.0
C136 C 0.96436 0.09123 0.52761 0.0
O137 O 1.00763 1.00133 0.49729 0.0
O138 O 0.98116 0.9994 0.55675 0.0
O139 O 0.9655 0.08012 0.56402 0.0
O140 O 0.99545 0.0822 0.50612 0.0
O141 O 0.04336 0.09509 0.60922 0.0
H142 H 0.9575 0.10306 0.64755 0.0
H143 H 1.00139 0.98011 0.63697 0.0
O144 O 0.07396 0.09419 0.5512 0.0
O145 O 0.08459 1.01357 0.54086 0.0
O146 O 0.06089 1.0145 0.60212 0.0
C147 C 0.08919 1.00357 0.57761 0.0
H148 H 0.14266 0.04417 0.41673 0.0
H149 H 0.92339 0.06591 0.70351 0.0
Co150 Co 0.27919 0.74529 0.80482 0.0
C151 C 0.34141 0.80495 0.81965 0.0
Co152 Co 0.27747 0.78218 0.75378 0.0
C153 C 0.28593 0.67401 0.84819 0.0
C154 C 0.27581 0.7305 0.88901 0.0
N155 N 0.27999 0.71497 0.84844 0.0
N156 N 0.2866 0.66327 0.88741 0.0
C157 C 0.27971 0.69898 0.91291 0.0
H158 H 0.29174 0.65296 0.82009 0.0
H159 H 0.2725 0.76299 0.90105 0.0
C160 C 0.21705 0.72003 0.73835 0.0
N161 N 0.27661 0.81314 0.71143 0.0
C162 C 0.27424 0.85455 0.71618 0.0
C163 C 0.2742 0.80054 0.66935 0.0
N164 N 0.2679 0.86881 0.67856 0.0
C165 C 0.26873 0.83471 0.64898 0.0
C166 C 0.33367 0.71177 0.74024 0.0
O167 O 0.23362 0.7137 0.77504 0.0
O168 O 0.23034 0.74994 0.72254 0.0
O169 O 0.31849 0.74399 0.72535 0.0
O170 O 0.32102 0.7053 0.77529 0.0
O171 O 0.32401 0.81332 0.78393 0.0
H172 H 0.27334 0.76859 0.65444 0.0
H173 H 0.27408 0.87351 0.74681 0.0
O174 O 0.32622 0.77618 0.83546 0.0
O175 O 0.23728 0.7852 0.83318 0.0
O176 O 0.23629 0.82218 0.78235 0.0
C177 C 0.22321 0.81749 0.81747 0.0
H178 H 0.28151 0.70303 0.94721 0.0
H179 H 0.26114 0.83378 0.61494 0.0
Co180 Co 0.51397 0.03597 1.0006 0.0
C181 C 0.57585 0.06336 0.06693 0.0
Co182 Co 0.57207 0.99654 1.00309 0.0
C183 C 0.43402 0.07298 0.0228 0.0
C184 C 0.44816 0.08585 0.96261 0.0
N185 N 0.46452 0.06774 0.99659 0.0
N186 N 0.39927 0.09339 1.00637 0.0
C187 C 0.40816 0.1019 0.96868 0.0
H188 H 0.43695 0.06158 0.05307 0.0
H189 H 0.46346 0.08586 0.9343 0.0
C190 C 0.50952 0.96972 0.93656 0.0
N191 N 0.62061 0.96325 1.00357 0.0
C192 C 0.63706 0.94796 0.96771 0.0
C193 C 0.63948 0.94085 0.0332 0.0
N194 N 0.66402 0.91578 0.97285 0.0
C195 C 0.66597 0.91119 0.01418 0.0
C196 C 0.51111 0.97065 0.04884 0.0
O197 O 0.4901 1.00193 0.95146 0.0
O198 O 0.54626 0.96072 0.95457 0.0
O199 O 0.54861 0.96402 0.03835 0.0
O200 O 0.48917 1.00088 0.03572 0.0
O201 O 0.59675 0.03189 0.05165 0.0
H202 H 0.63129 0.94314 0.06521 0.0
H203 H 0.62513 0.9568 0.937 0.0
O204 O 0.53807 0.07094 0.04984 0.0
O205 O 0.5392 0.0699 0.96645 0.0
O206 O 0.59606 0.02963 0.96761 0.0
C207 C 0.57629 0.06123 0.9556 0.0
H208 H 0.3867 0.11737 0.94651 0.0
H209 H 0.68236 0.88616 0.02865 0.0
Co210 Co 0.17427 0.19061 0.20934 0.0
C211 C 0.17732 0.26508 0.26593 0.0
Co212 Co 0.23505 0.22494 0.21757 0.0
C213 C 0.11116 0.12925 0.21099 0.0
C214 C 0.08281 0.18251 0.18659 0.0
N215 N 0.12097 0.16584 0.20056 0.0
N216 N 0.06832 0.1227 0.20541 0.0
C217 C 0.05048 0.15625 0.18978 0.0
H218 H 0.13485 0.10962 0.22628 0.0
H219 H 0.07845 0.21307 0.17746 0.0
C220 C 0.23394 0.15103 0.16274 0.0
N221 N 0.28773 0.25045 0.22547 0.0
C222 C 0.29537 0.29021 0.22266 0.0
C223 C 0.32678 0.23354 0.2356 0.0
N224 N 0.33769 0.29893 0.23054 0.0
C225 C 0.35755 0.26324 0.23873 0.0
C226 C 0.22961 0.17174 0.27655 0.0
O227 O 0.19606 0.14682 0.17119 0.0
O228 O 0.25563 0.18246 0.18015 0.0
O229 O 0.25287 0.19682 0.26343 0.0
O230 O 0.19277 0.16239 0.25657 0.0
O231 O 0.21453 0.26721 0.25534 0.0
H232 H 0.3325 0.20165 0.24034 0.0
H233 H 0.27026 0.31206 0.21412 0.0
O234 O 0.15306 0.23517 0.24828 0.0
O235 O 0.15674 0.21885 0.16299 0.0
O236 O 0.21642 0.25361 0.17156 0.0
C237 C 0.1797 0.24492 0.15108 0.0
H238 H 1.01646 0.16312 0.18459 0.0
H239 H 0.39182 0.2588 0.2466 0.0
Co240 Co 0.54413 0.54675 0.03354 0.0
C241 C 0.54929 0.61213 0.10015 0.0
Co242 Co 0.51591 0.53354 0.08938 0.0
C243 C 0.55201 0.54904 0.9457 0.0
C244 C 0.6078 0.57217 0.98749 0.0
N245 N 0.56784 0.55802 0.98718 0.0
N246 N 0.581 0.55608 0.92033 0.0
C247 C 0.61604 0.57082 0.94633 0.0
H248 H 0.52043 0.53641 0.93431 0.0
H249 H 0.62992 0.58187 0.01585 0.0
C250 C 0.51056 0.46859 0.02166 0.0
N251 N 0.49266 0.52135 0.13606 0.0
C252 C 0.49036 0.48375 0.148 0.0
C253 C 0.4702 0.54682 0.16251 0.0
N254 N 0.46666 0.48442 0.18026 0.0
C255 C 0.45407 0.52417 0.18967 0.0
C256 C 0.45741 0.56354 0.03021 0.0
O257 O 0.5317 0.49282 1.00511 0.0
O258 O 0.50063 0.47985 0.05887 0.0
O259 O 0.46177 0.5532 0.06714 0.0
O260 O 0.48997 0.5643 1.0107 0.0
O261 O 0.53066 0.58721 0.11844 0.0
H262 H 0.46424 0.57935 0.16087 0.0
H263 H 0.50355 0.45588 0.1315 0.0
O264 O 0.55698 0.601 0.06212 0.0
O265 O 0.59742 0.52888 0.05612 0.0
O266 O 0.57084 0.51379 0.11168 0.0
C267 C 0.60289 0.51609 0.09168 0.0
H268 H 0.64524 0.58037 0.93616 0.0
H269 H 0.43341 0.53582 0.21338 0.0
Co270 Co 0.77109 0.24869 0.29189 0.0
C271 C 0.83883 0.30011 0.31868 0.0
Co272 Co 0.77802 0.29106 0.24717 0.0
C273 C 0.79325 0.18406 0.34096 0.0
C274 C 0.72869 0.2053 0.34591 0.0
N275 N 0.76356 0.21092 0.32689 0.0
N276 N 0.7786 0.16218 0.36823 0.0
C277 C 0.73821 0.17559 0.37213 0.0
H278 H 0.82591 0.18219 0.3333 0.0
H279 H 0.69879 0.22254 0.34201 0.0
C280 C 0.71111 0.23812 0.21964 0.0
N281 N 0.78534 0.3289 0.21256 0.0
C282 C 0.78572 0.37009 0.22417 0.0
C283 C 0.78671 0.32286 0.17039 0.0
N284 N 0.7843 0.39068 0.19059 0.0
C285 C 0.78605 0.36075 0.15676 0.0
C286 C 0.82761 0.21746 0.22755 0.0
O287 O 0.72405 0.22611 0.25495 0.0
O288 O 0.72979 0.26814 0.20898 0.0
O289 O 0.81736 0.25256 0.2161 0.0
O290 O 0.81076 0.20878 0.25958 0.0
O291 O 0.82529 0.31312 0.28401 0.0
H292 H 0.78479 0.29303 0.15048 0.0
H293 H 0.7835 0.38455 0.25641 0.0
O294 O 0.8192 0.271 0.32976 0.0
O295 O 0.73199 0.28855 0.32361 0.0
O296 O 0.73877 0.33102 0.27904 0.0
C297 C 0.72265 0.32379 0.31189 0.0
H298 H 0.7178 0.1655 0.39322 0.0
H299 H 0.78176 0.36537 0.12373 0.0
Co300 Co 1.00409 0.53378 0.50521 0.0
C301 C 0.06734 0.57 0.56681 0.0
Co302 Co 0.06453 0.49827 0.50984 0.0
C303 C 0.91494 0.54381 0.50547 0.0
C304 C 0.94316 0.60124 0.50009 0.0
N305 N 0.95257 0.56123 0.503 0.0
N306 N 0.88232 0.5714 0.5056 0.0
C307 C 0.89987 0.60765 0.50186 0.0
H308 H 0.9119 0.51173 0.5092 0.0
H309 H 0.96652 0.62446 0.49881 0.0
C310 C 1.00126 0.46294 0.44795 0.0
N311 N 0.1154 0.46835 0.50875 0.0
C312 C 0.12904 0.45227 0.47162 0.0
C313 C 0.139 0.44866 0.53824 0.0
N314 N 0.15858 0.42209 0.47602 0.0
C315 C 0.16575 0.41994 0.51801 0.0
C316 C 1.00857 0.47429 0.56111 0.0
O317 O 0.9792 0.4938 0.46155 0.0
O318 O 0.03971 0.45887 0.46425 0.0
O319 O 0.04541 0.46528 0.54937 0.0
O320 O 0.98717 0.50378 0.54653 0.0
O321 O 0.08884 0.5374 0.55564 0.0
H322 H 0.13402 0.4519 0.57133 0.0
H323 H 0.11418 0.45944 0.44105 0.0
O324 O 0.02924 0.5747 0.54885 0.0
O325 O 0.02035 0.56352 0.46478 0.0
O326 O 0.08297 0.53216 0.47014 0.0
C327 C 0.05789 0.55903 0.45439 0.0
H328 H 0.88342 0.63737 0.50399 0.0
H329 H 0.18544 0.39663 0.53234 0.0
Co330 Co 0.75017 0.83491 0.29359 0.0
C331 C 0.82758 0.83911 0.34806 0.0
Co332 Co 0.78886 0.77757 0.28913 0.0
C333 C 0.68036 0.89594 0.29806 0.0
C334 C 0.7403 0.92103 0.29014 0.0
N335 N 0.72189 0.88562 0.29492 0.0
N336 N 0.6721 0.93648 0.29525 0.0
C337 C 0.70995 0.95211 0.29009 0.0
H338 H 0.65703 0.87422 0.30323 0.0
H339 H 0.77383 0.92415 0.28683 0.0
C340 C 0.71224 0.77303 0.23426 0.0
N341 N 0.81739 0.72763 0.28801 0.0
C342 C 0.8565 0.71872 0.2763 0.0
C343 C 0.8011 0.69085 0.29166 0.0
N344 N 0.86443 0.67766 0.2699 0.0
C345 C 0.83005 0.66004 0.28057 0.0
C346 C 0.72886 0.78315 0.34862 0.0
O347 O 0.70696 0.81052 0.25024 0.0
O348 O 0.74553 0.75309 0.24716 0.0
O349 O 0.75918 0.76277 0.33238 0.0
O350 O 0.7183 0.81826 0.33699 0.0
O351 O 0.83266 0.80218 0.33052 0.0
H352 H 0.76864 0.6863 0.29767 0.0
H353 H 0.8767 0.74148 0.26765 0.0
O354 O 0.7934 0.85898 0.33723 0.0
O355 O 0.7822 0.85036 0.24986 0.0
O356 O 0.81853 0.79218 0.24487 0.0
C357 C 0.81023 0.82708 0.23252 0.0
H358 H 0.71571 0.98383 0.28684 0.0
H359 H 0.82371 0.62719 0.27505 0.0
Co360 Co 0.81189 0.27954 0.74368 0.0
C361 C 0.81442 0.33512 0.81818 0.0
Co362 Co 0.75829 0.2732 0.78057 0.0
C363 C 0.87499 0.31821 0.70213 0.0
C364 C 0.88154 0.25235 0.69633 0.0
N365 N 0.85795 0.28431 0.71302 0.0
N366 N 0.90841 0.30859 0.67934 0.0
C367 C 0.91229 0.267 0.67573 0.0
H368 H 0.86315 0.34932 0.71104 0.0
H369 H 0.87643 0.22025 0.69865 0.0
C370 C 0.75269 0.21997 0.70466 0.0
N371 N 0.7126 0.26712 0.81092 0.0
C372 C 0.69881 0.23178 0.82176 0.0
C373 C 0.68593 0.29689 0.82664 0.0
N374 N 0.66449 0.23824 0.84357 0.0
C375 C 0.65642 0.27931 0.84662 0.0
C376 C 0.73915 0.33204 0.71849 0.0
O377 O 0.78856 0.23521 0.70096 0.0
O378 O 0.73521 0.23144 0.73798 0.0
O379 O 0.72366 0.31615 0.74775 0.0
O380 O 0.77728 0.32002 0.71164 0.0
O381 O 0.78119 0.31611 0.82309 0.0
H382 H 0.68794 0.32933 0.82393 0.0
H383 H 0.71341 0.20177 0.81324 0.0
O384 O 0.83331 0.32401 0.7855 0.0
O385 O 0.84681 0.239 0.77722 0.0
O386 O 0.79388 0.23066 0.81253 0.0
C387 C 0.83287 0.22145 0.80606 0.0
H388 H 0.93509 0.2481 0.65858 0.0
H389 H 0.63143 0.29578 0.8628 0.0
Co390 Co 0.67711 0.70805 0.70093 0.0
C391 C 0.68628 0.78516 0.74982 0.0
Co392 Co 0.73793 0.7387 0.69753 0.0
C393 C 0.61796 0.64919 0.71778 0.0
C394 C 0.58515 0.69801 0.68874 0.0
N395 N 0.62479 0.68389 0.70192 0.0
N396 N 0.57568 0.6413 0.71593 0.0
C397 C 0.55496 0.67204 0.69746 0.0
H398 H 0.64364 0.63166 0.73314 0.0
H399 H 0.57842 0.72639 0.67542 0.0
C400 C 0.72855 0.66212 0.64887 0.0
N401 N 0.78921 0.76396 0.69569 0.0
C402 C 0.79399 0.80454 0.69442 0.0
C403 C 0.82929 0.74771 0.69713 0.0
N404 N 0.83543 0.81461 0.69521 0.0
C405 C 0.85781 0.77879 0.6968 0.0
C406 C 0.74238 0.69439 0.7642 0.0
O407 O 0.69262 0.66202 0.66277 0.0
O408 O 0.75419 0.69192 0.66186 0.0
O409 O 0.76195 0.71712 0.74463 0.0
O410 O 0.70396 0.68341 0.74984 0.0
O411 O 0.72071 0.78549 0.73331 0.0
H412 H 0.83725 0.71548 0.69871 0.0
H413 H 0.76736 0.82639 0.69385 0.0
O414 O 0.6615 0.75435 0.73943 0.0
O415 O 0.65241 0.7331 0.6525 0.0
O416 O 0.71472 0.76032 0.6502 0.0
C417 C 0.67641 0.75309 0.63397 0.0
H418 H 0.52054 0.67692 0.69291 0.0
H419 H 0.89224 0.77506 0.69736 0.0
Co420 Co 0.50444 0.50769 0.5193 0.0
C421 C 0.49337 0.57857 0.58087 0.0
Co422 Co 0.5576 0.55144 0.52284 0.0
C423 C 0.4592 0.45284 0.55886 0.0
C424 C 0.43439 0.44551 0.49292 0.0
N425 N 0.46319 0.46741 0.52202 0.0
N426 N 0.43012 0.42249 0.55415 0.0
C427 C 0.41387 0.41802 0.51262 0.0
H428 H 0.47745 0.46433 0.58915 0.0
H429 H 0.42924 0.44862 0.45949 0.0
C430 C 0.56838 0.47857 0.46232 0.0
N431 N 0.59807 0.59318 0.52309 0.0
C432 C 0.61447 0.603 0.48875 0.0
C433 C 0.60655 0.62652 0.55315 0.0
N434 N 0.63187 0.64122 0.49598 0.0
C435 C 0.62666 0.65611 0.53645 0.0
C436 C 0.58161 0.49058 0.57884 0.0
O437 O 0.53223 0.47054 0.47414 0.0
O438 O 0.58496 0.51377 0.47816 0.0
O439 O 0.59613 0.52328 0.56782 0.0
O440 O 0.54322 0.48078 0.56256 0.0
O441 O 0.52826 0.58842 0.56803 0.0
H442 H 0.59637 0.63043 0.58445 0.0
H443 H 0.61087 0.58382 0.45795 0.0
O444 O 0.47786 0.5435 0.56441 0.0
O445 O 0.46574 0.5374 0.47413 0.0
O446 O 0.52025 0.57809 0.47832 0.0
C447 C 0.48153 0.5692 0.462 0.0
H448 H 0.38999 0.3956 0.49731 0.0
H449 H 0.63599 0.68653 0.55259 0.0
Co450 Co 1.01095 0.52914 0.01992 0.0
C451 C 0.07383 0.58921 0.04772 0.0
Co452 Co 1.00202 0.58392 0.98794 0.0
C453 C 0.06021 0.461 0.04617 0.0
C454 C 0.99465 0.45871 0.05771 0.0
N455 N 0.02268 0.48209 0.04354 0.0
N456 N 0.05649 0.42503 0.0607 0.0
C457 C 1.01544 0.42336 0.06821 0.0
H458 H 0.08927 0.47114 0.03623 0.0
H459 H 0.96105 0.46643 0.05923 0.0
C460 C 0.94011 0.52179 0.96064 0.0
N461 N 0.987 0.63044 0.96331 0.0
C462 C 0.94567 0.64233 0.95514 0.0
C463 C 1.00936 0.65534 0.94447 0.0
N464 N 0.94074 0.67253 0.93081 0.0
C465 C 0.98074 0.68145 0.92428 0.0
C466 C 0.04698 0.5261 0.94387 0.0
O467 O 0.96053 0.50487 0.99029 0.0
O468 O 0.95265 0.55647 0.95402 0.0
O469 O 0.03446 0.56339 0.94421 0.0
O470 O 0.0404 0.50697 0.97404 0.0
O471 O 0.05216 0.61013 0.02146 0.0
H472 H 0.04361 0.65282 0.94312 0.0
H473 H 0.9191 0.62729 0.96474 0.0
O474 O 0.06171 0.55311 0.05027 0.0
O475 O 0.9816 0.55098 0.06514 0.0
O476 O 0.96921 0.60472 0.03186 0.0
C477 C 0.96508 0.58656 0.06333 0.0
H478 H 1.00162 0.39843 0.0805 0.0
H479 H 0.98838 0.70287 0.90374 0.0
H480 H 0.18916 0.24519 0.85868 0.0
H481 H 0.3149 0.19689 0.89935 0.0
H482 H 0.28391 0.15666 0.9458 0.0
H483 H 0.22145 0.13581 0.97699 0.0
H484 H 0.09485 0.17825 0.9321 0.0
H485 H 0.12555 0.22039 0.88634 0.0
C486 C 0.20987 0.22632 0.8782 0.0
C487 C 0.25461 0.22478 0.87579 0.0
C488 C 0.19164 0.20234 0.90465 0.0
C489 C 0.28058 0.1992 0.90066 0.0
C490 C 0.26288 0.17621 0.92754 0.0
C491 C 0.20067 0.15431 0.95714 0.0
C492 C 0.15588 0.15406 0.95818 0.0
C493 C 0.21855 0.1776 0.93005 0.0
C494 C 0.12931 0.17775 0.93178 0.0
C495 C 0.14696 0.20201 0.90576 0.0
H496 H 0.06836 0.92768 0.12492 0.0
H497 H 0.17097 0.99568 0.09163 0.0
H498 H 0.2239 0.95377 0.13074 0.0
H499 H 0.24304 0.89547 0.17464 0.0
H500 H 0.1394 0.83122 0.21131 0.0
H501 H 0.08709 0.87282 0.17181 0.0
C502 C 0.10225 0.93383 0.12624 0.0
C503 C 0.11446 0.96592 0.1043 0.0
C504 C 0.1334 0.90941 0.14989 0.0
C505 C 0.1593 0.97212 0.10754 0.0
C506 C 0.1901 0.94765 0.13013 0.0
C507 C 0.20906 0.89034 0.1742 0.0
C508 C 0.19638 0.85885 0.19679 0.0
C509 C 0.17792 0.91578 0.15146 0.0
C510 C 0.15143 0.85432 0.19506 0.0
C511 C 0.12094 0.87848 0.17207 0.0
H512 H 0.3788 1.00495 0.4196 0.0
H513 H 0.46459 0.91969 0.48126 0.0
H514 H 0.42193 0.86164 0.44389 0.0
H515 H 0.36515 0.83411 0.3878 0.0
H516 H 0.28007 0.91758 0.32394 0.0
H517 H 0.31691 0.97722 0.36813 0.0
C518 C 0.38766 0.97373 0.4253 0.0
C519 C 0.42516 0.96671 0.45271 0.0
C520 C 0.36315 0.94008 0.40316 0.0
C521 C 0.43622 0.92602 0.45987 0.0
C522 C 0.41183 0.89267 0.43854 0.0
C523 C 0.35413 0.86543 0.38453 0.0
C524 C 0.31995 0.87188 0.35341 0.0
C525 C 0.37597 0.89922 0.40931 0.0
C526 C 0.30609 0.9123 0.34842 0.0
C527 C 0.32735 0.94625 0.37338 0.0
H528 H 0.38951 0.10328 0.72136 0.0
H529 H 0.51025 0.15804 0.77752 0.0
H530 H 0.54716 0.11558 0.72309 0.0
H531 H 0.54099 0.07466 0.65128 0.0
H532 H 0.41861 0.02385 0.59382 0.0
H533 H 0.38635 0.05135 0.65764 0.0
C534 C 0.42407 0.10486 0.72208 0.0
C535 C 0.44725 0.13391 0.75233 0.0
C536 C 0.44457 0.08096 0.69053 0.0
C537 C 0.49203 0.13581 0.75401 0.0
C538 C 0.51297 0.11174 0.72288 0.0
C539 C 0.50788 0.06796 0.65386 0.0
C540 C 0.48198 0.04739 0.61848 0.0
C541 C 0.48914 0.08571 0.6898 0.0
C542 C 0.4389 0.03945 0.62118 0.0
C543 C 0.42039 0.05563 0.65733 0.0
H544 H 0.12142 0.99536 0.65851 0.0
H545 H 0.14735 0.96696 0.52822 0.0
H546 H 0.21403 0.93197 0.55083 0.0
H547 H 0.25927 0.90163 0.60595 0.0
H548 H 0.22939 0.92466 0.73521 0.0
H549 H 0.17246 0.9721 0.71515 0.0
C550 C 0.14167 0.98139 0.63517 0.0
C551 C 0.12902 0.98253 0.59185 0.0
C552 C 0.17986 0.96112 0.64823 0.0
C553 C 0.15608 0.96561 0.56184 0.0
C554 C 0.19438 0.94593 0.57468 0.0
C555 C 0.24058 0.91729 0.62982 0.0
C556 C 0.24709 0.90738 0.67122 0.0
C557 C 0.20583 0.94241 0.61762 0.0
C558 C 0.22452 0.93016 0.70252 0.0
C559 C 0.1913 0.95712 0.69106 0.0
H560 H 0.36926 0.87766 0.80369 0.0
H561 H 0.39775 0.78439 0.88592 0.0
H562 H 0.45853 0.82465 0.9248 0.0
H563 H 0.4989 0.88941 0.93962 0.0
H564 H 0.46485 0.98567 0.86248 0.0
H565 H 0.41163 0.94073 0.81634 0.0
C566 C 0.38901 0.86597 0.82988 0.0
C567 C 0.37892 0.82836 0.84221 0.0
C568 C 0.42312 0.88965 0.85261 0.0
C569 C 0.40465 0.81357 0.87622 0.0
C570 C 0.4395 0.83643 0.89829 0.0
C571 C 0.48067 0.89985 0.91186 0.0
C572 C 0.48587 0.94019 0.90369 0.0
C573 C 0.44852 0.87484 0.88724 0.0
C574 C 0.46142 0.95433 0.86868 0.0
C575 C 0.43083 0.92887 0.8427 0.0
H576 H 0.36213 0.04995 0.05664 0.0
H577 H 0.35025 0.16126 0.99847 0.0
H578 H 0.28845 0.18357 0.03509 0.0
H579 H 0.24653 0.17711 0.092 0.0
H580 H 0.26207 0.07035 0.15681 0.0
H581 H 0.31324 0.03964 0.10867 0.0
C582 C 0.34576 0.07893 0.05194 0.0
C583 C 0.36079 0.10421 0.02526 0.0
C584 C 0.31097 0.09207 0.07408 0.0
C585 C 0.33898 0.14128 0.01863 0.0
C586 C 0.30385 0.15411 0.0397 0.0
C587 C 0.25997 0.14635 0.09435 0.0
C588 C 0.25078 0.12561 0.12719 0.0
C589 C 0.29058 0.13041 0.06841 0.0
C590 C 0.26847 0.08627 0.13102 0.0
C591 C 0.29812 0.0692 0.10403 0.0
H592 H 1.00797 0.07129 0.36024 0.0
H593 H 0.12063 0.99349 0.35001 0.0
H594 H 0.11905 1.0028 0.27559 0.0
H595 H 0.09766 0.04802 0.22211 0.0
H596 H 0.99174 0.13392 0.23759 0.0
H597 H 0.97638 0.10446 0.2991 0.0
C598 C 0.0311 0.05519 0.34114 0.0
C599 C 0.06512 0.03281 0.36052 0.0
C600 C 0.03122 0.06247 0.29917 0.0
C601 C 0.09489 1.01179 0.3357 0.0
C602 C 0.09395 1.01709 0.29326 0.0
C603 C 0.07058 0.05956 0.2384 0.0
C604 C 0.04778 0.09477 0.22699 0.0
C605 C 0.06417 0.04479 0.27581 0.0
C606 C 1.01104 0.10783 0.24652 0.0
C607 C 1.0025 0.09131 0.28221 0.0
H608 H 0.88502 0.23157 0.17054 0.0
H609 H 0.84072 0.13353 0.22946 0.0
H610 H 0.88666 0.08389 0.19031 0.0
H611 H 0.9388 0.06647 0.13692 0.0
H612 H 0.98691 0.16509 0.0816 0.0
H613 H 0.94116 0.21491 0.12097 0.0
C614 C 0.88526 0.19937 0.17505 0.0
C615 C 0.85815 0.18709 0.20347 0.0
C616 C 0.913 0.1704 0.15259 0.0
C617 C 0.86034 0.14479 0.20835 0.0
C618 C 0.88691 0.11602 0.18564 0.0
C619 C 0.93978 0.09892 0.13361 0.0
C620 C 0.96729 0.11123 0.10561 0.0
C621 C 0.91337 0.12816 0.15735 0.0
C622 C 0.96707 0.15389 0.10256 0.0
C623 C 0.9404 0.1827 0.12518 0.0
H624 H 0.1397 0.57119 0.43724 0.0
H625 H 1.00806 0.61261 0.41149 0.0
H626 H 0.03064 0.66652 0.3749 0.0
H627 H 0.08793 0.70475 0.35316 0.0
H628 H 0.2195 0.66383 0.37768 0.0
H629 H 0.19695 0.6072 0.41136 0.0
C630 C 0.11595 0.59164 0.4231 0.0
C631 C 0.07228 0.58783 0.42747 0.0
C632 C 0.12917 0.62309 0.4021 0.0
C633 C 0.04195 0.61479 0.40894 0.0
C634 C 0.0548 0.64585 0.38803 0.0
C635 C 0.11159 0.68345 0.36596 0.0
C636 C 0.15528 0.68866 0.3631 0.0
C637 C 0.09835 0.65082 0.38509 0.0
C638 C 0.1856 0.66036 0.3792 0.0
C639 C 0.17273 0.62803 0.39863 0.0
H640 H 0.66127 0.86736 0.4992 0.0
H641 H 0.53088 0.87828 0.52908 0.0
H642 H 0.54213 0.81839 0.56613 0.0
H643 H 0.59484 0.77515 0.6048 0.0
H644 H 0.72474 0.76524 0.57371 0.0
H645 H 0.70716 0.81131 0.5209 0.0
C646 C 0.63482 0.8562 0.51267 0.0
C647 C 0.59642 0.87907 0.51397 0.0
C648 C 0.64153 0.82204 0.53419 0.0
C649 C 0.56192 0.86287 0.53009 0.0
C650 C 0.56811 0.82832 0.55101 0.0
C651 C 0.61873 0.78214 0.58543 0.0
C652 C 0.66134 0.76892 0.59431 0.0
C653 C 0.60878 0.80959 0.55584 0.0
C654 C 0.69201 0.77682 0.5684 0.0
C655 C 0.6821 0.80313 0.53828 0.0
H656 H 0.42663 0.452 1.01027 0.0
H657 H 0.54714 0.40862 0.96849 0.0
H658 H 0.50928 0.3581 0.91263 0.0
H659 H 0.44109 0.33063 0.87203 0.0
H660 H 0.32077 0.38116 0.90938 0.0
H661 H 0.35909 0.42475 0.97026 0.0
C662 C 0.44457 0.4306 0.98964 0.0
C663 C 0.48952 0.43302 0.99398 0.0
C664 C 0.42246 0.40362 0.95622 0.0
C665 C 0.5125 0.4065 0.9661 0.0
C666 C 0.49084 0.37801 0.93398 0.0
C667 C 0.42337 0.35106 0.89368 0.0
C668 C 0.37819 0.35279 0.88613 0.0
C669 C 0.44571 0.37698 0.92809 0.0
C670 C 0.35557 0.37957 0.91424 0.0
C671 C 0.37744 0.40435 0.94922 0.0
H672 H 0.82012 0.88766 0.42305 0.0
H673 H 0.91254 0.83616 0.34089 0.0
H674 H 0.97003 0.8751 0.38772 0.0
H675 H 0.99279 0.92766 0.44945 0.0
H676 H 0.90157 0.9747 0.53486 0.0
H677 H 0.84494 0.93315 0.48995 0.0
C678 C 0.85297 0.88482 0.41578 0.0
C679 C 0.86227 0.85967 0.37855 0.0
C680 C 0.88598 0.90634 0.44346 0.0
C681 C 0.90487 0.85549 0.36951 0.0
C682 C 0.93764 0.87778 0.39616 0.0
C683 C 0.96067 0.92816 0.45854 0.0
C684 C 0.95123 0.95426 0.49518 0.0
C685 C 0.92845 0.90378 0.43289 0.0
C686 C 0.90963 0.95457 0.50689 0.0
C687 C 0.87716 0.93112 0.48104 0.0
H688 H 0.4425 0.56286 0.64297 0.0
H689 H 0.48653 0.66351 0.58776 0.0
H690 H 0.4421 0.71215 0.62989 0.0
H691 H 0.38811 0.72718 0.68164 0.0
H692 H 0.34946 0.62797 0.74239 0.0
H693 H 0.39383 0.57912 0.70018 0.0
C694 C 0.44284 0.5955 0.64031 0.0
C695 C 0.46855 0.60875 0.61125 0.0
C696 C 0.41762 0.62417 0.6661 0.0
C697 C 0.46787 0.65163 0.6093 0.0
C698 C 0.44199 0.67975 0.63354 0.0
C699 C 0.38938 0.69491 0.68601 0.0
C700 C 0.36429 0.68198 0.71575 0.0
C701 C 0.41634 0.66658 0.66196 0.0
C702 C 0.36768 0.63966 0.72038 0.0
C703 C 0.39327 0.61137 0.69585 0.0
H704 H 0.54344 0.13132 0.92519 0.0
H705 H 0.6569 0.05305 0.9316 0.0
H706 H 0.6937 0.1 0.89628 0.0
H707 H 0.69516 0.16512 0.86651 0.0
H708 H 0.58154 0.24302 0.85947 0.0
H709 H 0.54368 0.19462 0.89198 0.0
C710 C 0.57613 0.12435 0.91865 0.0
C711 C 0.5973 0.08865 0.93136 0.0
C712 C 0.59734 0.15168 0.89838 0.0
C713 C 0.63969 0.08024 0.92238 0.0
C714 C 0.66088 0.10717 0.90218 0.0
C715 C 0.66199 0.17135 0.87159 0.0
C716 C 0.64157 0.20812 0.86079 0.0
C717 C 0.64023 0.14325 0.89043 0.0
C718 C 0.59853 0.21556 0.8681 0.0
C719 C 0.57668 0.1877 0.88656 0.0
H720 H 0.04794 0.34333 0.04375 0.0
H721 H 0.13906 0.43978 0.09293 0.0
H722 H 0.19164 0.38876 0.11754 0.0
H723 H 0.20497 0.31941 0.13716 0.0
H724 H 0.11148 0.22382 0.09112 0.0
H725 H 0.06688 0.27146 0.0519 0.0
C726 C 0.07961 0.35283 0.0593 0.0
C727 C 0.08957 0.39489 0.06776 0.0
C728 C 0.109 0.32358 0.0739 0.0
C729 C 0.13089 0.40733 0.08666 0.0
C730 C 0.16075 0.37828 0.1008 0.0
C731 C 0.1755 0.30871 0.11747 0.0
C732 C 0.1607 0.26881 0.11794 0.0
C733 C 0.1493 0.33663 0.09638 0.0
C734 C 0.12285 0.25491 0.09193 0.0
C735 C 0.09727 0.2821 0.06969 0.0
H736 H 0.51547 0.58677 0.87206 0.0
H737 H 0.63472 0.51845 0.86794 0.0
H738 H 0.63569 0.52865 0.79399 0.0
H739 H 0.61187 0.57094 0.73863 0.0
H740 H 0.49909 0.64908 0.74831 0.0
H741 H 0.48441 0.61926 0.80994 0.0
C742 C 0.54069 0.573 0.85421 0.0
C743 C 0.57532 0.55254 0.87497 0.0
C744 C 0.54222 0.58117 0.81273 0.0
C745 C 0.60816 0.53478 0.85222 0.0
C746 C 0.6087 0.54071 0.81017 0.0
C747 C 0.58375 0.58104 0.75389 0.0
C748 C 0.5582 0.61388 0.74039 0.0
C749 C 0.5774 0.56613 0.79122 0.0
C750 C 0.52029 0.62479 0.75871 0.0
C751 C 0.51205 0.60803 0.79439 0.0
H752 H 0.7837 0.4361 0.12698 0.0
H753 H 0.74088 0.43838 0.24989 0.0
H754 H 0.68208 0.48424 0.23096 0.0
H755 H 0.63195 0.50699 0.17318 0.0
H756 H 0.67175 0.50048 0.04846 0.0
H757 H 0.74139 0.47219 0.07395 0.0
C758 C 0.76199 0.44727 0.14992 0.0
C759 C 0.76485 0.43096 0.18826 0.0
C760 C 0.72639 0.47162 0.13788 0.0
C761 C 0.73855 0.44831 0.21901 0.0
C762 C 0.70428 0.47441 0.20812 0.0
C763 C 0.65608 0.49973 0.15179 0.0
C764 C 0.6463 0.50407 0.10879 0.0
C765 C 0.69591 0.48316 0.16645 0.0
C766 C 0.67825 0.49622 0.0816 0.0
C767 C 0.71817 0.48029 0.09613 0.0
H768 H 0.97366 0.3905 0.46229 0.0
H769 H 0.98185 0.46547 0.36405 0.0
H770 H 0.93587 0.41724 0.31304 0.0
H771 H 0.88709 0.3594 0.29955 0.0
H772 H 0.87304 0.2871 0.39909 0.0
H773 H 0.92826 0.32841 0.44677 0.0
C774 C 0.96603 0.3954 0.42936 0.0
C775 C 0.98087 0.43074 0.41623 0.0
C776 C 0.93832 0.36852 0.40098 0.0
C777 C 0.97066 0.43796 0.37414 0.0
C778 C 0.94434 0.41064 0.34527 0.0
C779 C 0.89631 0.35229 0.33154 0.0
C780 C 0.87558 0.32073 0.34609 0.0
C781 C 0.92693 0.37666 0.3588 0.0
C782 C 0.88833 0.31155 0.38737 0.0
C783 C 0.91977 0.33516 0.41459 0.0
H784 H 0.62157 0.72173 0.48338 0.0
H785 H 0.68627 0.60745 0.44212 0.0
H786 H 0.7227 0.64183 0.39431 0.0
H787 H 0.73671 0.70388 0.36471 0.0
H788 H 0.66813 0.8177 0.39976 0.0
H789 H 0.63131 0.78357 0.44798 0.0
C790 C 0.64357 0.70445 0.46376 0.0
C791 C 0.65142 0.66196 0.46649 0.0
C792 C 0.66356 0.72432 0.43519 0.0
C793 C 0.67953 0.63991 0.44044 0.0
C794 C 0.7005 0.65967 0.41327 0.0
C795 C 0.71404 0.72167 0.38309 0.0
C796 C 0.70588 0.76376 0.37878 0.0
C797 C 0.69291 0.70184 0.41049 0.0
C798 C 0.67561 0.78557 0.40257 0.0
C799 C 0.65474 0.76607 0.43046 0.0
H800 H 0.84758 0.40637 0.80402 0.0
H801 H 0.81699 0.34173 0.90381 0.0
H802 H 0.84878 0.3972 0.95763 0.0
H803 H 0.89119 0.4606 0.97588 0.0
H804 H 0.91888 0.52718 0.87636 0.0
H805 H 0.88103 0.47511 0.82272 0.0
C806 C 0.84776 0.4047 0.83759 0.0
C807 C 0.83091 0.36986 0.8502 0.0
C808 C 0.86512 0.43712 0.86823 0.0
C809 C 0.83021 0.36822 0.89359 0.0
C810 C 0.8483 0.39988 0.92428 0.0
C811 C 0.88802 0.46418 0.94249 0.0
C812 C 0.90808 0.49735 0.92998 0.0
C813 C 0.86657 0.43405 0.91194 0.0
C814 C 0.90353 0.50195 0.88674 0.0
C815 C 0.88236 0.47193 0.85604 0.0
H816 H 0.82004 0.90548 0.21391 0.0
H817 H 0.85063 0.77746 0.17289 0.0
H818 H 0.88584 0.79712 0.11537 0.0
H819 H 0.90857 0.85097 0.07616 0.0
H820 H 0.88247 0.97918 0.12023 0.0
H821 H 0.84535 0.95942 0.17658 0.0
C822 C 0.83436 0.88186 0.19236 0.0
C823 C 0.83231 0.83991 0.19786 0.0
C824 C 0.85556 0.89353 0.15963 0.0
C825 C 0.85161 0.80993 0.16971 0.0
C826 C 0.87176 0.82118 0.1366 0.0
C827 C 0.89455 0.87452 0.09798 0.0
C828 C 0.89818 0.9166 0.09364 0.0
C829 C 0.87396 0.86289 0.13113 0.0
C830 C 0.88038 0.94668 0.1228 0.0
C831 C 0.859 0.93534 0.15504 0.0
H832 H 0.81565 0.15971 0.85766 0.0
H833 H 0.92135 0.21708 0.8165 0.0
H834 H 0.97227 0.17607 0.85815 0.0
H835 H 0.98943 0.1235 0.90822 0.0
H836 H 0.88473 0.06184 0.94588 0.0
H837 H 0.83312 0.10348 0.90488 0.0
C838 C 0.84978 0.16345 0.8575 0.0
C839 C 0.86336 0.19294 0.83285 0.0
C840 C 0.88018 0.13821 0.88159 0.0
C841 C 0.9085 0.1956 0.83413 0.0
C842 C 0.93825 0.17176 0.85844 0.0
C843 C 0.95535 0.11863 0.90748 0.0
C844 C 0.94225 0.08828 0.93126 0.0
C845 C 0.9249 0.14282 0.88256 0.0
C846 C 0.89716 0.08387 0.9286 0.0
C847 C 0.8671 0.10823 0.90487 0.0
H848 H 0.67114 0.23556 0.67595 0.0
H849 H 0.77651 0.15162 0.65103 0.0
H850 H 0.72941 0.11017 0.59371 0.0
H851 H 0.65654 0.09567 0.5548 0.0
H852 H 0.55284 0.18254 0.5789 0.0
H853 H 0.60136 0.22563 0.63204 0.0
C854 C 0.68378 0.20818 0.65783 0.0
C855 C 0.72677 0.19591 0.66806 0.0
C856 C 0.6569 0.18533 0.62479 0.0
C857 C 0.74332 0.16122 0.64383 0.0
C858 C 0.7164 0.13765 0.61119 0.0
C859 C 0.64473 0.12436 0.57123 0.0
C860 C 0.60094 0.13566 0.56313 0.0
C861 C 0.6729 0.14907 0.60191 0.0
C862 C 0.58628 0.1731 0.5844 0.0
C863 C 0.61394 0.19762 0.61505 0.0
H864 H 0.50514 1.00005 0.36593 0.0
H865 H 0.58032 0.11042 0.40048 0.0
H866 H 0.63116 0.08223 0.35167 0.0
H867 H 0.66357 1.01935 0.31756 0.0
H868 H 0.59151 0.90607 0.28868 0.0
H869 H 0.5301 0.942 0.31724 0.0
C870 C 0.53132 1.01878 0.36067 0.0
C871 C 0.53943 0.05696 0.38661 0.0
C872 C 0.56203 1.00091 0.33534 0.0
C873 C 0.57343 0.08109 0.38037 0.0
C874 C 0.60302 0.06447 0.35326 0.0
C875 C 0.63421 1.00252 0.31616 0.0
C876 C 0.63303 0.95946 0.30254 0.0
C877 C 0.5993 0.02321 0.33338 0.0
C878 C 0.59411 0.93874 0.30064 0.0
C879 C 0.55877 0.95937 0.31664 0.0
H880 H 0.79233 0.17249 0.45303 0.0
H881 H 0.82559 0.09746 0.33953 0.0
H882 H 0.88615 0.06674 0.38081 0.0
H883 H 0.9342 0.06858 0.44664 0.0
H884 H 0.90375 0.14412 0.56127 0.0
H885 H 0.83701 0.16804 0.52215 0.0
C886 C 0.81211 0.14833 0.43797 0.0
C887 C 0.80508 0.13681 0.39371 0.0
C888 C 0.8477 0.13222 0.46171 0.0
C889 C 0.83086 0.1062 0.37375 0.0
C890 C 0.86553 0.08916 0.39717 0.0
C891 C 0.91306 0.09052 0.46302 0.0
C892 C 0.92415 0.10597 0.5061 0.0
C893 C 0.87519 0.10334 0.4407 0.0
C894 C 0.89591 0.13281 0.52768 0.0
C895 C 0.85787 0.14618 0.50545 0.0
H896 H 0.68972 0.15999 0.22266 0.0
H897 H 0.66064 0.26023 0.14934 0.0
H898 H 0.61145 0.21543 0.09753 0.0
H899 H 0.58134 0.14596 0.07073 0.0
H900 H 0.6185 0.04486 0.14072 0.0
H901 H 0.65985 0.09201 0.19687 0.0
C902 C 0.6722 0.17238 0.19569 0.0
C903 C 0.67854 0.21342 0.18987 0.0
C904 C 0.64562 0.14618 0.16555 0.0
C905 C 0.65616 0.22872 0.15442 0.0
C906 C 0.62817 0.20312 0.12486 0.0
C907 C 0.598 0.13465 0.09873 0.0
C908 C 0.59681 0.09239 0.10225 0.0
C909 C 0.62326 0.16159 0.12977 0.0
C910 C 0.61907 0.07744 0.13783 0.0
C911 C 0.64268 0.1043 0.16972 0.0
H912 H 0.6675 0.76921 0.82478 0.0
H913 H 0.69688 0.86826 0.75881 0.0
H914 H 0.69708 0.91762 0.82446 0.0
H915 H 0.68806 0.93214 0.9003 0.0
H916 H 0.66143 0.83246 0.96667 0.0
H917 H 0.66298 0.78311 0.90159 0.0
C918 C 0.67305 0.8018 0.82475 0.0
C919 C 0.68068 0.81568 0.78708 0.0
C920 C 0.67496 0.82938 0.86282 0.0
C921 C 0.68982 0.85743 0.78745 0.0
C922 C 0.69043 0.88539 0.82496 0.0
C923 C 0.68328 0.89948 0.90049 0.0
C924 C 0.67463 0.8859 0.93805 0.0
C925 C 0.68323 0.87162 0.86282 0.0
C926 C 0.66876 0.84354 0.93828 0.0
C927 C 0.6689 0.81547 0.90093 0.0
H928 H 0.87928 0.99503 0.67198 0.0
H929 H 1.00593 0.9546 0.71906 0.0
H930 H 0.97708 0.88896 0.73075 0.0
H931 H 0.91659 0.84132 0.72151 0.0
H932 H 0.79109 0.88018 0.66726 0.0
H933 H 0.81842 0.94824 0.66487 0.0
C934 C 0.90014 0.97221 0.68596 0.0
C935 C 0.94436 0.97949 0.69542 0.0
C936 C 0.88359 0.93409 0.69063 0.0
C937 C 0.97165 0.94946 0.71222 0.0
C938 C 0.95521 0.91197 0.71847 0.0
C939 C 0.8952 0.86451 0.70897 0.0
C940 C 0.85177 0.85524 0.69457 0.0
C941 C 0.91138 0.90351 0.70663 0.0
C942 C 0.82449 0.88622 0.67913 0.0
C943 C 0.84013 0.92529 0.67751 0.0
H944 H 0.16313 0.81057 0.87509 0.0
H945 H 0.21703 0.90096 0.81288 0.0
H946 H 0.175 0.95571 0.8501 0.0
H947 H 0.12277 0.97999 0.90228 0.0
H948 H 0.06336 0.8887 0.95889 0.0
H949 H 0.10639 0.83412 0.92269 0.0
C950 C 0.16577 0.84218 0.86942 0.0
C951 C 0.19443 0.85065 0.84062 0.0
C952 C 0.13985 0.87426 0.8904 0.0
C953 C 0.19598 0.89244 0.83425 0.0
C954 C 0.17166 0.92424 0.85588 0.0
C955 C 0.11875 0.94817 0.90659 0.0
C956 C 0.08884 0.93954 0.93413 0.0
C957 C 0.14339 0.91587 0.88429 0.0
C958 C 0.08514 0.89736 0.93827 0.0
C959 C 0.11025 0.86569 0.91745 0.0
H960 H 0.03521 0.39985 0.58736 0.0
H961 H 0.93531 0.49344 0.5969 0.0
H962 H 0.89621 0.45148 0.63519 0.0
H963 H 0.88765 0.38642 0.66255 0.0
H964 H 0.98801 0.29312 0.65499 0.0
H965 H 0.02892 0.33637 0.61961 0.0
C966 C 1.00519 0.41128 0.59831 0.0
C967 C 0.9883 0.44978 0.5888 0.0
C968 C 0.9824 0.38673 0.62045 0.0
C969 C 0.94916 0.46388 0.60329 0.0
C970 C 0.92659 0.43983 0.62529 0.0
C971 C 0.91868 0.37562 0.65378 0.0
C972 C 0.93402 0.33598 0.66116 0.0
C973 C 0.9425 0.4009 0.63353 0.0
C974 C 0.97448 0.32288 0.64906 0.0
C975 C 0.99826 0.34782 0.62894 0.0
H976 H 0.33235 0.09737 0.42666 0.0
H977 H 0.35075 0.22734 0.47196 0.0
H978 H 0.29522 0.2447 0.41617 0.0
H979 H 0.25323 0.22307 0.3471 0.0
H980 H 0.2386 0.09362 0.29795 0.0
H981 H 0.28085 0.07535 0.36301 0.0
C982 C 0.32374 0.12945 0.42452 0.0
C983 C 0.34631 0.16117 0.45239 0.0
C984 C 0.29299 0.13905 0.39156 0.0
C985 C 0.33398 0.20255 0.45057 0.0
C986 C 0.30255 0.21242 0.41853 0.0
C987 C 0.25849 0.19085 0.35129 0.0
C988 C 0.2439 0.15955 0.31812 0.0
C989 C 0.2836 0.18098 0.38774 0.0
C990 C 0.24993 0.11795 0.32341 0.0
C991 C 0.27427 0.10768 0.3603 0.0
H992 H 0.61588 0.65445 0.08323 0.0
H993 H 0.52553 0.65499 0.17365 0.0
H994 H 0.56508 0.71067 0.22112 0.0
H995 H 0.63102 0.75234 0.24099 0.0
H996 H 0.7249 0.74511 0.15355 0.0
H997 H 0.67834 0.69932 0.10058 0.0
C998 C 0.60422 0.66743 0.11285 0.0
C999 C 0.56789 0.65062 0.12497 0.0
C1000 C 0.62814 0.69802 0.14069 0.0
C1001 C 0.55352 0.66738 0.16371 0.0
C1002 C 0.57621 0.69908 0.19092 0.0
C1003 C 0.64049 0.74147 0.20985 0.0
C1004 C 0.68079 0.75213 0.20062 0.0
C1005 C 0.61438 0.71367 0.18038 0.0
C1006 C 0.69366 0.73734 0.16083 0.0
C1007 C 0.6672 0.71108 0.13074 0.0
H1008 H 0.17753 0.2428 0.71752 0.0
H1009 H 0.28243 0.16578 0.67534 0.0
H1010 H 0.23143 0.12327 0.62323 0.0
H1011 H 0.1564 0.10642 0.59239 0.0
H1012 H 0.05229 0.18023 0.64043 0.0
H1013 H 0.1038 0.22647 0.68722 0.0
C1014 C 0.18944 0.21691 0.69673 0.0
C1015 C 0.23373 0.20749 0.70012 0.0
C1016 C 0.16005 0.19239 0.66778 0.0
C1017 C 0.24847 0.17352 0.67337 0.0
C1018 C 0.21936 0.14938 0.64354 0.0
C1019 C 0.14525 0.13322 0.61252 0.0
C1020 C 0.10088 0.14068 0.61266 0.0
C1021 C 0.17504 0.1584 0.6407 0.0
C1022 C 0.08639 0.17448 0.63964 0.0
C1023 C 0.11577 0.20063 0.66648 0.0
H1024 H 0.65765 0.31596 0.36396 0.0
H1025 H 0.72594 0.40862 0.31793 0.0
H1026 H 0.68696 0.46326 0.35891 0.0
H1027 H 0.6332 0.48661 0.40988 0.0
H1028 H 0.55997 0.39388 0.4502 0.0
H1029 H 0.60002 0.33934 0.41041 0.0
C1030 C 0.66413 0.34806 0.36265 0.0
C1031 C 0.6958 0.35714 0.3372 0.0
C1032 C 0.64012 0.38024 0.38586 0.0
C1033 C 0.70235 0.39963 0.33649 0.0
C1034 C 0.67982 0.43134 0.36033 0.0
C1035 C 0.62559 0.45453 0.4099 0.0
C1036 C 0.59268 0.44543 0.43397 0.0
C1037 C 0.64853 0.42237 0.38542 0.0
C1038 C 0.58427 0.40295 0.43248 0.0
C1039 C 0.60761 0.37126 0.40954 0.0
H1040 H 0.43051 0.97001 0.0757 0.0
H1041 H 0.55381 0.90689 0.08207 0.0
H1042 H 0.52833 0.85836 0.1232 0.0
H1043 H 0.47138 0.83233 0.15678 0.0
H1044 H 0.34727 0.89331 0.15083 0.0
H1045 H 0.37285 0.94396 0.11119 0.0
C1046 C 0.45182 0.94573 0.08621 0.0
C1047 C 0.49414 0.94239 0.07537 0.0
C1048 C 0.43686 0.91729 0.11022 0.0
C1049 C 0.52111 0.91054 0.08952 0.0
C1050 C 0.50657 0.88253 0.11321 0.0
C1051 C 0.44968 0.85644 0.14666 0.0
C1052 C 0.40725 0.85849 0.15687 0.0
C1053 C 0.4645 0.88536 0.12353 0.0
C1054 C 0.38016 0.89083 0.14397 0.0
C1055 C 0.39475 0.9198 0.12095 0.0
H1056 H 0.87506 0.62266 0.89637 0.0
H1057 H 0.91728 0.74896 0.91456 0.0
H1058 H 0.85148 0.76846 0.87136 0.0
H1059 H 0.78783 0.74766 0.8218 0.0
H1060 H 0.74978 0.62 0.79557 0.0
H1061 H 0.80703 0.60282 0.85078 0.0
C1062 C 0.86932 0.65461 0.89158 0.0
C1063 C 0.90077 0.68457 0.90842 0.0
C1064 C 0.83218 0.66509 0.86577 0.0
C1065 C 0.89355 0.72562 0.90147 0.0
C1066 C 0.85599 0.73665 0.87707 0.0
C1067 C 0.7915 0.71618 0.82892 0.0
C1068 C 0.76525 0.68491 0.80465 0.0
C1069 C 0.82585 0.7064 0.85817 0.0
C1070 C 0.76961 0.64443 0.81416 0.0
C1071 C 0.8027 0.63465 0.84514 0.0
H1072 H 0.39073 0.47673 0.20874 0.0
H1073 H 0.50877 0.41149 0.18497 0.0
H1074 H 0.47976 0.34795 0.2008 0.0
H1075 H 0.41883 0.30998 0.21549 0.0
H1076 H 0.30105 0.37553 0.24022 0.0
H1077 H 0.33209 0.44002 0.22987 0.0
C1078 C 0.41049 0.4489 0.20793 0.0
C1079 C 0.45174 0.44878 0.19532 0.0
C1080 C 0.39344 0.41242 0.21666 0.0
C1081 C 0.47667 0.4122 0.19393 0.0
C1082 C 0.46013 0.3759 0.20304 0.0
C1083 C 0.40012 0.33839 0.21941 0.0
C1084 C 0.3574 0.3376 0.22809 0.0
C1085 C 0.41819 0.37545 0.2135 0.0
C1086 C 0.33364 0.3749 0.2326 0.0
C1087 C 0.35147 0.41193 0.22697 0.0
H1088 H 0.43356 0.55214 0.94615 0.0
H1089 H 0.38567 0.59212 0.0659 0.0
H1090 H 0.31848 0.61589 0.02822 0.0
H1091 H 0.28145 0.63767 0.96283 0.0
H1092 H 0.33524 0.60428 0.84493 0.0
H1093 H 0.39012 0.56268 0.87972 0.0
C1094 C 0.40822 0.56577 0.96396 0.0
C1095 C 0.41484 0.5722 1.00854 0.0
C1096 C 0.37052 0.57997 0.9423 0.0
C1097 C 0.38137 0.58803 0.03144 0.0
C1098 C 0.34306 0.60143 1.00995 0.0
C1099 C 0.30488 0.62093 0.94461 0.0
C1100 C 0.3059 0.62659 0.9021 0.0
C1101 C 0.3384 0.59953 0.96554 0.0
C1102 C 0.33439 0.60212 0.87811 0.0
C1103 C 0.36631 0.57855 0.89812 0.0
H1104 H 0.12177 0.5623 0.63769 0.0
H1105 H 0.05856 0.65261 0.56476 0.0
H1106 H 0.09865 0.70821 0.61197 0.0
H1107 H 0.15531 0.73035 0.67186 0.0
H1108 H 0.21366 0.63952 0.74738 0.0
H1109 H 0.17172 0.58512 0.70169 0.0
C1110 C 0.11658 0.59424 0.63252 0.0
C1111 C 0.08776 0.60354 0.59789 0.0
C1112 C 0.13894 0.62593 0.66019 0.0
C1113 C 0.08066 0.64494 0.59151 0.0
C1114 C 0.10368 0.67664 0.6183 0.0
C1115 C 0.15837 0.69871 0.67843 0.0
C1116 C 0.18765 0.68896 0.71271 0.0
C1117 C 0.13344 0.66744 0.65242 0.0
C1118 C 0.19116 0.6479 0.72125 0.0
C1119 C 0.16737 0.61665 0.69503 0.0
H1120 H 0.42304 0.32554 0.71025 0.0
H1121 H 0.2872 0.33613 0.6692 0.0
H1122 H 0.30166 0.36905 0.60924 0.0
H1123 H 0.35267 0.39812 0.56931 0.0
H1124 H 0.48815 0.39304 0.61285 0.0
H1125 H 0.47442 0.35531 0.67013 0.0
C1126 C 0.39673 0.33471 0.68791 0.0
C1127 C 0.35404 0.32809 0.69436 0.0
C1128 C 0.40525 0.3551 0.65377 0.0
C1129 C 0.32036 0.34084 0.66527 0.0
C1130 C 0.32858 0.35975 0.63081 0.0
C1131 C 0.37912 0.38839 0.59114 0.0
C1132 C 0.42139 0.39849 0.58669 0.0
C1133 C 0.37083 0.36752 0.62486 0.0
C1134 C 0.45529 0.38607 0.61572 0.0
C1135 C 0.44744 0.36431 0.64848 0.0
H1136 H 0.20475 0.65424 0.20807 0.0
H1137 H 0.24868 0.72638 0.12052 0.0
H1138 H 0.19695 0.69223 0.06276 0.0
H1139 H 0.13384 0.64613 0.03904 0.0
H1140 H 0.09377 0.57246 0.12761 0.0
H1141 H 0.14889 0.60301 0.18285 0.0
C1142 C 0.20366 0.66179 0.17609 0.0
C1143 C 0.23037 0.69275 0.16856 0.0
C1144 C 0.17384 0.64227 0.14331 0.0
C1145 C 0.22873 0.70226 0.12701 0.0
C1146 C 0.19875 0.68313 0.0941 0.0
C1147 C 0.13749 0.63674 0.07038 0.0
C1148 C 0.10946 0.60738 0.07928 0.0
C1149 C 0.17021 0.65388 0.10215 0.0
C1150 C 0.1149 0.59498 0.11986 0.0
C1151 C 0.14643 0.61244 0.15159 0.0
H1152 H 0.65001 0.35731 0.7069 0.0
H1153 H 0.77215 0.38227 0.66911 0.0
H1154 H 0.73784 0.43313 0.62645 0.0
H1155 H 0.67203 0.47145 0.59657 0.0
H1156 H 0.54947 0.44383 0.63152 0.0
H1157 H 0.5842 0.39526 0.67672 0.0
C1158 C 0.66948 0.37383 0.68961 0.0
C1159 C 0.71474 0.36471 0.69248 0.0
C1160 C 0.64893 0.40364 0.66365 0.0
C1161 C 0.73783 0.38736 0.66858 0.0
C1162 C 0.71793 0.41705 0.64371 0.0
C1163 C 0.6527 0.45535 0.61437 0.0
C1164 C 0.60711 0.46285 0.60982 0.0
C1165 C 0.67332 0.42573 0.64056 0.0
C1166 C 0.58401 0.4399 0.63341 0.0
C1167 C 0.60417 0.41157 0.65972 0.0
H1168 H 0.87577 0.70452 0.198 0.0
H1169 H 0.90785 0.60508 0.27144 0.0
H1170 H 0.94251 0.56671 0.21268 0.0
H1171 H 0.96025 0.56123 0.13941 0.0
H1172 H 0.92441 0.66118 0.06671 0.0
H1173 H 0.8941 0.69999 0.12681 0.0
C1174 C 0.89146 0.67501 0.20174 0.0
C1175 C 0.8903 0.65782 0.2391 0.0
C1176 C 0.9097 0.65313 0.16783 0.0
C1177 C 0.90911 0.61884 0.24293 0.0
C1178 C 0.92847 0.59698 0.20937 0.0
C1179 C 0.94559 0.5914 0.13671 0.0
C1180 C 0.94438 0.60831 0.09875 0.0
C1181 C 0.92824 0.61363 0.1714 0.0
C1182 C 0.92557 0.64748 0.09561 0.0
C1183 C 0.90844 0.66978 0.12995 0.0
H1184 H 0.80925 0.61297 0.48736 0.0
H1185 H 0.8655 0.51943 0.56004 0.0
H1186 H 0.81054 0.53199 0.60709 0.0
H1187 H 0.76243 0.58471 0.64004 0.0
H1188 H 0.71343 0.68364 0.57172 0.0
H1189 H 0.74875 0.65428 0.51088 0.0
C1190 C 0.80847 0.59451 0.51269 0.0
C1191 C 0.84235 0.56694 0.52145 0.0
C1192 C 0.77823 0.60355 0.54109 0.0
C1193 C 0.84035 0.54176 0.55316 0.0
C1194 C 0.80909 0.54919 0.58051 0.0
C1195 C 0.7579 0.59831 0.61085 0.0
C1196 C 0.73558 0.63584 0.6097 0.0
C1197 C 0.7802 0.58234 0.57682 0.0
C1198 C 0.73006 0.65416 0.57247 0.0
C1199 C 0.75059 0.63763 0.53788 0.0
H1200 H 0.39085 0.58501 0.43439 0.0
H1201 H 0.51712 0.61984 0.41497 0.0
H1202 H 0.48536 0.66723 0.36708 0.0
H1203 H 0.42092 0.70247 0.32964 0.0
H1204 H 0.29486 0.66999 0.35209 0.0
H1205 H 0.32656 0.62052 0.39744 0.0
C1206 C 0.41181 0.60246 0.41956 0.0
C1207 C 0.45756 0.597 0.42946 0.0
C1208 C 0.39283 0.63151 0.39152 0.0
C1209 C 0.48238 0.6218 0.40916 0.0
C1210 C 0.46393 0.6496 0.38119 0.0
C1211 C 0.39999 0.68456 0.34401 0.0
C1212 C 0.35426 0.69141 0.33574 0.0
C1213 C 0.41901 0.65532 0.37187 0.0
C1214 C 0.32954 0.66689 0.35646 0.0
C1215 C 0.34797 0.63789 0.38303 0.0
H1216 H 0.14287 0.45615 0.78865 0.0
H1217 H 0.13821 0.34513 0.84621 0.0
H1218 H 0.09118 0.37985 0.89461 0.0
H1219 H 0.06274 0.44428 0.92902 0.0
H1220 H 0.07289 0.55753 0.87694 0.0
H1221 H 0.1081 0.51957 0.81893 0.0
C1222 C 0.13171 0.43943 0.81174 0.0
C1223 C 0.14612 0.39865 0.81493 0.0
C1224 C 0.10676 0.46031 0.84138 0.0
C1225 C 0.12886 0.37678 0.84331 0.0
C1226 C 0.10218 0.39677 0.87152 0.0
C1227 C 0.07259 0.46077 0.90499 0.0
C1228 C 0.06641 0.50376 0.90778 0.0
C1229 C 0.09307 0.43904 0.87233 0.0
C1230 C 0.07817 0.52449 0.87581 0.0
C1231 C 0.09803 0.50281 0.8426 0.0
H1232 H 0.23188 0.3016 0.33157 0.0
H1233 H 0.097 0.29169 0.28345 0.0
H1234 H 0.07934 0.33924 0.34579 0.0
H1235 H 0.10281 0.38416 0.41307 0.0
H1236 H 0.23712 0.39119 0.46281 0.0
H1237 H 0.25487 0.34312 0.40068 0.0
C1238 C 0.1986 0.31011 0.33454 0.0
C1239 C 0.16571 0.29396 0.30265 0.0
C1240 C 0.18882 0.33641 0.37074 0.0
C1241 C 0.12273 0.30417 0.30743 0.0
C1242 C 0.11272 0.3312 0.34302 0.0
C1243 C 0.13595 0.37512 0.41011 0.0
C1244 C 0.1689 0.39142 0.44181 0.0
C1245 C 0.14556 0.34756 0.37469 0.0
C1246 C 0.21156 0.37892 0.43855 0.0
C1247 C 0.22155 0.35176 0.40306 0.0
loop_
_geom_bond_atom_site_label_1
_geom_bond_atom_site_label_2
_geom_bond_distance
_geom_bond_site_symmetry_2
_ccdc_geom_bond_type
Co0 N5 2.057 . S
Co0 O17 2.021 1_554 S
Co0 O20 2.062 1_655 S
Co0 O24 2.117 1_565 S
Co0 O25 2.020 1_554 S
C1 O21 1.259 1_655 S
C1 O24 1.258 . S
Co2 N11 2.057 . S
Co2 O18 2.117 1_545 S
Co2 O19 2.020 1_556 S
Co2 O21 2.021 1_556 S
Co2 O26 2.062 1_455 S
C3 N5 1.316 . S
C3 N6 1.347 . S
C3 H8 0.931 1_554 S
C4 N5 1.375 . S
C4 C7 1.350 . S
C4 H9 0.930 . S
N5 Co0 2.057 . S
N5 C3 1.316 . S
N5 C4 1.375 . S
N6 C3 1.347 . S
N6 C7 1.373 . S
C7 C4 1.350 . S
C7 N6 1.373 . S
C7 H28 0.931 . S
H8 C3 0.931 1_556 S
H9 C4 0.930 . S
C10 O17 1.259 1_455 S
C10 O18 1.258 . S
N11 Co2 2.057 . S
N11 C12 1.316 . S
N11 C13 1.375 . S
C12 N11 1.316 . S
C12 N14 1.347 . S
C12 H23 0.931 1_556 S
C13 N11 1.375 . S
C13 C15 1.350 . S
C13 H22 0.930 . S
N14 C12 1.347 . S
N14 C15 1.373 . S
C15 C13 1.350 . S
C15 N14 1.373 . S
C15 H29 0.931 . S
C16 O19 1.256 1_565 S
C16 O20 1.255 . S
O17 Co0 2.021 1_556 S
O17 C10 1.259 1_655 S
O18 Co2 2.117 1_565 S
O18 C10 1.258 . S
O19 Co2 2.020 1_554 S
O19 C16 1.256 1_545 S
O20 Co0 2.062 1_455 S
O20 C16 1.255 . S
O21 C1 1.259 1_455 S
O21 Co2 2.021 1_554 S
H22 C13 0.930 . S
H23 C12 0.931 1_554 S
O24 Co0 2.117 1_545 S
O24 C1 1.258 . S
O25 Co0 2.020 1_556 S
O25 C27 1.256 1_565 S
O26 Co2 2.062 1_655 S
O26 C27 1.255 . S
C27 O25 1.256 1_545 S
C27 O26 1.255 . S
H28 C7 0.931 . S
H29 C15 0.931 . S
Co30 N35 2.057 . S
Co30 O47 2.021 . S
Co30 O50 2.062 . S
Co30 O54 2.117 . S
Co30 O55 2.020 . S
C31 O51 1.259 . S
C31 O54 1.258 . S
Co32 N41 2.057 . S
Co32 O48 2.117 . S
Co32 O49 2.020 . S
Co32 O51 2.021 . S
Co32 O56 2.062 . S
C33 N35 1.316 . S
C33 N36 1.347 . S
C33 H38 0.931 . S
C34 N35 1.375 . S
C34 C37 1.350 . S
C34 H39 0.930 . S
N35 Co30 2.057 . S
N35 C33 1.316 . S
N35 C34 1.375 . S
N36 C33 1.347 . S
N36 C37 1.373 . S
C37 C34 1.350 . S
C37 N36 1.373 . S
C37 H58 0.931 . S
H38 C33 0.931 . S
H39 C34 0.930 . S
C40 O47 1.259 . S
C40 O48 1.258 . S
N41 Co32 2.057 . S
N41 C42 1.316 . S
N41 C43 1.375 . S
C42 N41 1.316 . S
C42 N44 1.347 . S
C42 H53 0.931 . S
C43 N41 1.375 . S
C43 C45 1.350 . S
C43 H52 0.930 . S
N44 C42 1.347 . S
N44 C45 1.373 . S
C45 C43 1.350 . S
C45 N44 1.373 . S
C45 H59 0.931 . S
C46 O49 1.256 . S
C46 O50 1.255 . S
O47 Co30 2.021 . S
O47 C40 1.259 . S
O48 Co32 2.117 . S
O48 C40 1.258 . S
O49 Co32 2.020 . S
O49 C46 1.256 . S
O50 Co30 2.062 . S
O50 C46 1.255 . S
O51 C31 1.259 . S
O51 Co32 2.021 . S
H52 C43 0.930 . S
H53 C42 0.931 . S
O54 Co30 2.117 . S
O54 C31 1.258 . S
O55 Co30 2.020 . S
O55 C57 1.256 . S
O56 Co32 2.062 . S
O56 C57 1.255 . S
C57 O55 1.256 . S
C57 O56 1.255 . S
H58 C37 0.931 . S
H59 C45 0.931 . S
Co60 N65 2.057 . S
Co60 O77 2.021 . S
Co60 O80 2.062 . S
Co60 O84 2.117 1_565 S
Co60 O85 2.020 1_565 S
C61 O81 1.259 . S
C61 O84 1.258 . S
Co62 N71 2.057 . S
Co62 O78 2.117 1_545 S
Co62 O79 2.020 1_545 S
Co62 O81 2.021 . S
Co62 O86 2.062 . S
C63 N65 1.316 . S
C63 N66 1.347 . S
C63 H68 0.931 . S
C64 N65 1.375 . S
C64 C67 1.350 . S
C64 H69 0.930 . S
N65 Co60 2.057 . S
N65 C63 1.316 . S
N65 C64 1.375 . S
N66 C63 1.347 . S
N66 C67 1.373 . S
C67 C64 1.350 . S
C67 N66 1.373 . S
C67 H88 0.931 . S
H68 C63 0.931 . S
H69 C64 0.930 . S
C70 O77 1.259 . S
C70 O78 1.258 . S
N71 Co62 2.057 . S
N71 C72 1.316 . S
N71 C73 1.375 . S
C72 N71 1.316 . S
C72 N74 1.347 . S
C72 H83 0.931 . S
C73 N71 1.375 . S
C73 C75 1.350 . S
C73 H82 0.930 . S
N74 C72 1.347 . S
N74 C75 1.373 . S
C75 C73 1.350 . S
C75 N74 1.373 . S
C75 H89 0.931 . S
C76 O79 1.256 . S
C76 O80 1.255 . S
O77 Co60 2.021 . S
O77 C70 1.259 . S
O78 Co62 2.117 1_565 S
O78 C70 1.258 . S
O79 Co62 2.020 1_565 S
O79 C76 1.256 . S
O80 Co60 2.062 . S
O80 C76 1.255 . S
O81 C61 1.259 . S
O81 Co62 2.021 . S
H82 C73 0.930 . S
H83 C72 0.931 . S
O84 Co60 2.117 1_545 S
O84 C61 1.258 . S
O85 Co60 2.020 1_545 S
O85 C87 1.256 . S
O86 Co62 2.062 . S
O86 C87 1.255 . S
C87 O85 1.256 . S
C87 O86 1.255 . S
H88 C67 0.931 . S
H89 C75 0.931 . S
Co90 N95 2.057 . S
Co90 O107 2.021 . S
Co90 O110 2.062 . S
Co90 O114 2.117 . S
Co90 O115 2.020 . S
C91 O111 1.259 . S
C91 O114 1.258 . S
Co92 N101 2.057 . S
Co92 O108 2.117 . S
Co92 O109 2.020 . S
Co92 O111 2.021 . S
Co92 O116 2.062 . S
C93 N95 1.316 . S
C93 N96 1.347 . S
C93 H98 0.931 . S
C94 N95 1.375 . S
C94 C97 1.350 . S
C94 H99 0.930 . S
N95 Co90 2.057 . S
N95 C93 1.316 . S
N95 C94 1.375 . S
N96 C93 1.347 . S
N96 C97 1.373 . S
C97 C94 1.350 . S
C97 N96 1.373 . S
C97 H118 0.931 . S
H98 C93 0.931 . S
H99 C94 0.930 . S
C100 O107 1.259 . S
C100 O108 1.258 . S
N101 Co92 2.057 . S
N101 C102 1.316 . S
N101 C103 1.375 . S
C102 N101 1.316 . S
C102 N104 1.347 . S
C102 H113 0.931 . S
C103 N101 1.375 . S
C103 C105 1.350 . S
C103 H112 0.930 . S
N104 C102 1.347 . S
N104 C105 1.373 . S
C105 C103 1.350 . S
C105 N104 1.373 . S
C105 H119 0.931 . S
C106 O109 1.256 . S
C106 O110 1.255 . S
O107 Co90 2.021 . S
O107 C100 1.259 . S
O108 Co92 2.117 . S
O108 C100 1.258 . S
O109 Co92 2.020 . S
O109 C106 1.256 . S
O110 Co90 2.062 . S
O110 C106 1.255 . S
O111 C91 1.259 . S
O111 Co92 2.021 . S
H112 C103 0.930 . S
H113 C102 0.931 . S
O114 Co90 2.117 . S
O114 C91 1.258 . S
O115 Co90 2.020 . S
O115 C117 1.256 . S
O116 Co92 2.062 . S
O116 C117 1.255 . S
C117 O115 1.256 . S
C117 O116 1.255 . S
H118 C97 0.931 . S
H119 C105 0.931 . S
Co120 N125 2.057 . S
Co120 O137 2.021 1_445 S
Co120 O140 2.062 1_455 S
Co120 O144 2.117 . S
Co120 O145 2.020 1_545 S
C121 O141 1.259 . S
C121 O144 1.258 . S
Co122 N131 2.057 . S
Co122 O138 2.117 . S
Co122 O139 2.020 1_565 S
Co122 O141 2.021 1_665 S
Co122 O146 2.062 1_655 S
C123 N125 1.316 . S
C123 N126 1.347 . S
C123 H128 0.931 . S
C124 N125 1.375 . S
C124 C127 1.350 . S
C124 H129 0.930 . S
N125 Co120 2.057 . S
N125 C123 1.316 . S
N125 C124 1.375 . S
N126 C123 1.347 . S
N126 C127 1.373 . S
C127 C124 1.350 . S
C127 N126 1.373 . S
C127 H148 0.931 . S
H128 C123 0.931 . S
H129 C124 0.930 . S
C130 O137 1.259 . S
C130 O138 1.258 . S
N131 Co122 2.057 . S
N131 C132 1.316 . S
N131 C133 1.375 . S
C132 N131 1.316 . S
C132 N134 1.347 . S
C132 H143 0.931 . S
C133 N131 1.375 . S
C133 C135 1.350 . S
C133 H142 0.930 . S
N134 C132 1.347 . S
N134 C135 1.373 . S
C135 C133 1.350 . S
C135 N134 1.373 . S
C135 H149 0.931 . S
C136 O139 1.256 . S
C136 O140 1.255 . S
O137 Co120 2.021 1_665 S
O137 C130 1.259 . S
O138 Co122 2.117 . S
O138 C130 1.258 . S
O139 Co122 2.020 1_545 S
O139 C136 1.256 . S
O140 Co120 2.062 1_655 S
O140 C136 1.255 . S
O141 C121 1.259 . S
O141 Co122 2.021 1_445 S
H142 C133 0.930 . S
H143 C132 0.931 . S
O144 Co120 2.117 . S
O144 C121 1.258 . S
O145 Co120 2.020 1_565 S
O145 C147 1.256 . S
O146 Co122 2.062 1_455 S
O146 C147 1.255 . S
C147 O145 1.256 . S
C147 O146 1.255 . S
H148 C127 0.931 . S
H149 C135 0.931 . S
Co150 N155 2.057 . S
Co150 O167 2.021 . S
Co150 O170 2.062 . S
Co150 O174 2.117 . S
Co150 O175 2.020 . S
C151 O171 1.259 . S
C151 O174 1.258 . S
Co152 N161 2.057 . S
Co152 O168 2.117 . S
Co152 O169 2.020 . S
Co152 O171 2.021 . S
Co152 O176 2.062 . S
C153 N155 1.316 . S
C153 N156 1.347 . S
C153 H158 0.931 . S
C154 N155 1.375 . S
C154 C157 1.350 . S
C154 H159 0.930 . S
N155 Co150 2.057 . S
N155 C153 1.316 . S
N155 C154 1.375 . S
N156 C153 1.347 . S
N156 C157 1.373 . S
C157 C154 1.350 . S
C157 N156 1.373 . S
C157 H178 0.931 . S
H158 C153 0.931 . S
H159 C154 0.930 . S
C160 O167 1.259 . S
C160 O168 1.258 . S
N161 Co152 2.057 . S
N161 C162 1.316 . S
N161 C163 1.375 . S
C162 N161 1.316 . S
C162 N164 1.347 . S
C162 H173 0.931 . S
C163 N161 1.375 . S
C163 C165 1.350 . S
C163 H172 0.930 . S
N164 C162 1.347 . S
N164 C165 1.373 . S
C165 C163 1.350 . S
C165 N164 1.373 . S
C165 H179 0.931 . S
C166 O169 1.256 . S
C166 O170 1.255 . S
O167 Co150 2.021 . S
O167 C160 1.259 . S
O168 Co152 2.117 . S
O168 C160 1.258 . S
O169 Co152 2.020 . S
O169 C166 1.256 . S
O170 Co150 2.062 . S
O170 C166 1.255 . S
O171 C151 1.259 . S
O171 Co152 2.021 . S
H172 C163 0.930 . S
H173 C162 0.931 . S
O174 Co150 2.117 . S
O174 C151 1.258 . S
O175 Co150 2.020 . S
O175 C177 1.256 . S
O176 Co152 2.062 . S
O176 C177 1.255 . S
C177 O175 1.256 . S
C177 O176 1.255 . S
H178 C157 0.931 . S
H179 C165 0.931 . S
Co180 N185 2.057 . S
Co180 O197 2.021 1_544 S
Co180 O200 2.062 1_545 S
Co180 O204 2.117 . S
Co180 O205 2.020 1_554 S
C181 O201 1.259 . S
C181 O204 1.258 . S
Co182 N191 2.057 . S
Co182 O198 2.117 . S
Co182 O199 2.020 1_556 S
Co182 O201 2.021 1_566 S
Co182 O206 2.062 1_565 S
C183 N185 1.316 . S
C183 N186 1.347 . S
C183 H188 0.931 . S
C184 N185 1.375 . S
C184 C187 1.350 . S
C184 H189 0.930 . S
N185 Co180 2.057 . S
N185 C183 1.316 . S
N185 C184 1.375 . S
N186 C183 1.347 . S
N186 C187 1.373 . S
C187 C184 1.350 . S
C187 N186 1.373 . S
C187 H208 0.931 . S
H188 C183 0.931 . S
H189 C184 0.930 . S
C190 O197 1.259 . S
C190 O198 1.258 . S
N191 Co182 2.057 . S
N191 C192 1.316 . S
N191 C193 1.375 . S
C192 N191 1.316 . S
C192 N194 1.347 . S
C192 H203 0.931 . S
C193 N191 1.375 . S
C193 C195 1.350 . S
C193 H202 0.930 . S
N194 C192 1.347 . S
N194 C195 1.373 . S
C195 C193 1.350 . S
C195 N194 1.373 . S
C195 H209 0.931 . S
C196 O199 1.256 . S
C196 O200 1.255 . S
O197 Co180 2.021 1_566 S
O197 C190 1.259 . S
O198 Co182 2.117 . S
O198 C190 1.258 . S
O199 Co182 2.020 1_554 S
O199 C196 1.256 . S
O200 Co180 2.062 1_565 S
O200 C196 1.255 . S
O201 C181 1.259 . S
O201 Co182 2.021 1_544 S
H202 C193 0.930 . S
H203 C192 0.931 . S
O204 Co180 2.117 . S
O204 C181 1.258 . S
O205 Co180 2.020 1_556 S
O205 C207 1.256 . S
O206 Co182 2.062 1_545 S
O206 C207 1.255 . S
C207 O205 1.256 . S
C207 O206 1.255 . S
H208 C187 0.931 . S
H209 C195 0.931 . S
Co210 N215 2.057 . S
Co210 O227 2.021 . S
Co210 O230 2.062 . S
Co210 O234 2.117 . S
Co210 O235 2.020 . S
C211 O231 1.259 . S
C211 O234 1.258 . S
Co212 N221 2.057 . S
Co212 O228 2.117 . S
Co212 O229 2.020 . S
Co212 O231 2.021 . S
Co212 O236 2.062 . S
C213 N215 1.316 . S
C213 N216 1.347 . S
C213 H218 0.931 . S
C214 N215 1.375 . S
C214 C217 1.350 . S
C214 H219 0.930 . S
N215 Co210 2.057 . S
N215 C213 1.316 . S
N215 C214 1.375 . S
N216 C213 1.347 . S
N216 C217 1.373 . S
C217 C214 1.350 . S
C217 N216 1.373 . S
C217 H238 0.931 . S
H218 C213 0.931 . S
H219 C214 0.930 . S
C220 O227 1.259 . S
C220 O228 1.258 . S
N221 Co212 2.057 . S
N221 C222 1.316 . S
N221 C223 1.375 . S
C222 N221 1.316 . S
C222 N224 1.347 . S
C222 H233 0.931 . S
C223 N221 1.375 . S
C223 C225 1.350 . S
C223 H232 0.930 . S
N224 C222 1.347 . S
N224 C225 1.373 . S
C225 C223 1.350 . S
C225 N224 1.373 . S
C225 H239 0.931 . S
C226 O229 1.256 . S
C226 O230 1.255 . S
O227 Co210 2.021 . S
O227 C220 1.259 . S
O228 Co212 2.117 . S
O228 C220 1.258 . S
O229 Co212 2.020 . S
O229 C226 1.256 . S
O230 Co210 2.062 . S
O230 C226 1.255 . S
O231 C211 1.259 . S
O231 Co212 2.021 . S
H232 C223 0.930 . S
H233 C222 0.931 . S
O234 Co210 2.117 . S
O234 C211 1.258 . S
O235 Co210 2.020 . S
O235 C237 1.256 . S
O236 Co212 2.062 . S
O236 C237 1.255 . S
C237 O235 1.256 . S
C237 O236 1.255 . S
H238 C217 0.931 . S
H239 C225 0.931 . S
Co240 N245 2.057 . S
Co240 O257 2.021 . S
Co240 O260 2.062 . S
Co240 O264 2.117 1_556 S
Co240 O265 2.005 1_556 S
C241 O261 1.259 . S
C241 O264 1.258 . S
Co242 N251 2.057 . S
Co242 O258 2.117 1_554 S
Co242 O259 2.009 1_554 S
Co242 O261 2.021 . S
Co242 O266 2.062 . S
C243 N245 1.316 . S
C243 N246 1.347 . S
C243 H248 0.931 . S
C244 N245 1.375 . S
C244 C247 1.350 . S
C244 H249 0.930 . S
N245 Co240 2.057 . S
N245 C243 1.316 . S
N245 C244 1.375 . S
N246 C243 1.347 . S
N246 C247 1.373 . S
C247 C244 1.350 . S
C247 N246 1.373 . S
C247 H268 0.931 . S
H248 C243 0.931 . S
H249 C244 0.930 . S
C250 O257 1.259 . S
C250 O258 1.258 . S
N251 Co242 2.057 . S
N251 C252 1.316 . S
N251 C253 1.375 . S
C252 N251 1.316 . S
C252 N254 1.347 . S
C252 H263 0.931 . S
C253 N251 1.375 . S
C253 C255 1.350 . S
C253 H262 0.930 . S
N254 C252 1.347 . S
N254 C255 1.373 . S
C255 C253 1.350 . S
C255 N254 1.373 . S
C255 H269 0.931 . S
C256 O259 1.274 . S
C256 O260 1.255 . S
O257 Co240 2.021 . S
O257 C250 1.259 . S
O258 Co242 2.117 1_556 S
O258 C250 1.258 . S
O259 Co242 2.009 1_556 S
O259 C256 1.274 . S
O260 Co240 2.062 . S
O260 C256 1.255 . S
O261 C241 1.259 . S
O261 Co242 2.021 . S
H262 C253 0.930 . S
H263 C252 0.931 . S
O264 Co240 2.117 1_554 S
O264 C241 1.258 . S
O265 Co240 2.005 1_554 S
O265 C267 1.280 . S
O266 Co242 2.062 . S
O266 C267 1.255 . S
C267 O265 1.280 . S
C267 O266 1.255 . S
H268 C247 0.931 . S
H269 C255 0.931 . S
Co270 N275 2.057 . S
Co270 O287 2.021 . S
Co270 O290 2.062 . S
Co270 O294 2.117 . S
Co270 O295 2.020 . S
C271 O291 1.259 . S
C271 O294 1.258 . S
Co272 N281 2.057 . S
Co272 O288 2.117 . S
Co272 O289 2.020 . S
Co272 O291 2.021 . S
Co272 O296 2.062 . S
C273 N275 1.316 . S
C273 N276 1.347 . S
C273 H278 0.931 . S
C274 N275 1.375 . S
C274 C277 1.350 . S
C274 H279 0.930 . S
N275 Co270 2.057 . S
N275 C273 1.316 . S
N275 C274 1.375 . S
N276 C273 1.347 . S
N276 C277 1.373 . S
C277 C274 1.350 . S
C277 N276 1.373 . S
C277 H298 0.931 . S
H278 C273 0.931 . S
H279 C274 0.930 . S
C280 O287 1.259 . S
C280 O288 1.258 . S
N281 Co272 2.057 . S
N281 C282 1.316 . S
N281 C283 1.375 . S
C282 N281 1.316 . S
C282 N284 1.347 . S
C282 H293 0.931 . S
C283 N281 1.375 . S
C283 C285 1.350 . S
C283 H292 0.930 . S
N284 C282 1.347 . S
N284 C285 1.373 . S
C285 C283 1.350 . S
C285 N284 1.373 . S
C285 H299 0.931 . S
C286 O289 1.256 . S
C286 O290 1.255 . S
O287 Co270 2.021 . S
O287 C280 1.259 . S
O288 Co272 2.117 . S
O288 C280 1.258 . S
O289 Co272 2.020 . S
O289 C286 1.256 . S
O290 Co270 2.062 . S
O290 C286 1.255 . S
O291 C271 1.259 . S
O291 Co272 2.021 . S
H292 C283 0.930 . S
H293 C282 0.931 . S
O294 Co270 2.117 . S
O294 C271 1.258 . S
O295 Co270 2.020 . S
O295 C297 1.256 . S
O296 Co272 2.062 . S
O296 C297 1.255 . S
C297 O295 1.256 . S
C297 O296 1.255 . S
H298 C277 0.931 . S
H299 C285 0.931 . S
Co300 N305 2.057 . S
Co300 O317 2.021 . S
Co300 O320 2.062 . S
Co300 O324 2.117 1_655 S
Co300 O325 2.020 . S
C301 O321 1.259 . S
C301 O324 1.258 . S
Co302 N311 2.057 . S
Co302 O318 2.117 1_455 S
Co302 O319 2.020 . S
Co302 O321 2.021 . S
Co302 O326 2.062 . S
C303 N305 1.316 . S
C303 N306 1.347 . S
C303 H308 0.931 . S
C304 N305 1.375 . S
C304 C307 1.350 . S
C304 H309 0.930 . S
N305 Co300 2.057 . S
N305 C303 1.316 . S
N305 C304 1.375 . S
N306 C303 1.347 . S
N306 C307 1.373 . S
C307 C304 1.350 . S
C307 N306 1.373 . S
C307 H328 0.931 . S
H308 C303 0.931 . S
H309 C304 0.930 . S
C310 O317 1.259 . S
C310 O318 1.258 . S
N311 Co302 2.057 . S
N311 C312 1.316 . S
N311 C313 1.375 . S
C312 N311 1.316 . S
C312 N314 1.347 . S
C312 H323 0.931 . S
C313 N311 1.375 . S
C313 C315 1.350 . S
C313 H322 0.930 . S
N314 C312 1.347 . S
N314 C315 1.373 . S
C315 C313 1.350 . S
C315 N314 1.373 . S
C315 H329 0.931 . S
C316 O319 1.256 1_655 S
C316 O320 1.255 . S
O317 Co300 2.021 . S
O317 C310 1.259 . S
O318 Co302 2.117 1_655 S
O318 C310 1.258 . S
O319 Co302 2.020 . S
O319 C316 1.256 1_455 S
O320 Co300 2.062 . S
O320 C316 1.255 . S
O321 C301 1.259 . S
O321 Co302 2.021 . S
H322 C313 0.930 . S
H323 C312 0.931 . S
O324 Co300 2.117 1_455 S
O324 C301 1.258 . S
O325 Co300 2.020 . S
O325 C327 1.256 1_655 S
O326 Co302 2.062 . S
O326 C327 1.255 . S
C327 O325 1.256 1_455 S
C327 O326 1.255 . S
H328 C307 0.931 . S
H329 C315 0.931 . S
Co330 N335 2.057 . S
Co330 O347 2.021 . S
Co330 O350 2.062 . S
Co330 O354 2.117 . S
Co330 O355 2.020 . S
C331 O351 1.259 . S
C331 O354 1.258 . S
Co332 N341 2.057 . S
Co332 O348 2.117 . S
Co332 O349 2.020 . S
Co332 O351 2.021 . S
Co332 O356 2.062 . S
C333 N335 1.316 . S
C333 N336 1.347 . S
C333 H338 0.931 . S
C334 N335 1.375 . S
C334 C337 1.350 . S
C334 H339 0.930 . S
N335 Co330 2.057 . S
N335 C333 1.316 . S
N335 C334 1.375 . S
N336 C333 1.347 . S
N336 C337 1.373 . S
C337 C334 1.350 . S
C337 N336 1.373 . S
C337 H358 0.931 . S
H338 C333 0.931 . S
H339 C334 0.930 . S
C340 O347 1.259 . S
C340 O348 1.258 . S
N341 Co332 2.057 . S
N341 C342 1.316 . S
N341 C343 1.375 . S
C342 N341 1.316 . S
C342 N344 1.347 . S
C342 H353 0.931 . S
C343 N341 1.375 . S
C343 C345 1.350 . S
C343 H352 0.930 . S
N344 C342 1.347 . S
N344 C345 1.373 . S
C345 C343 1.350 . S
C345 N344 1.373 . S
C345 H359 0.931 . S
C346 O349 1.256 . S
C346 O350 1.255 . S
O347 Co330 2.021 . S
O347 C340 1.259 . S
O348 Co332 2.117 . S
O348 C340 1.258 . S
O349 Co332 2.020 . S
O349 C346 1.256 . S
O350 Co330 2.062 . S
O350 C346 1.255 . S
O351 C331 1.259 . S
O351 Co332 2.021 . S
H352 C343 0.930 . S
H353 C342 0.931 . S
O354 Co330 2.117 . S
O354 C331 1.258 . S
O355 Co330 2.020 . S
O355 C357 1.256 . S
O356 Co332 2.062 . S
O356 C357 1.255 . S
C357 O355 1.256 . S
C357 O356 1.255 . S
H358 C337 0.931 . S
H359 C345 0.931 . S
Co360 N365 2.057 . S
Co360 O377 2.021 . S
Co360 O380 2.062 . S
Co360 O384 2.117 . S
Co360 O385 2.020 . S
C361 O381 1.259 . S
C361 O384 1.258 . S
Co362 N371 2.057 . S
Co362 O378 2.117 . S
Co362 O379 2.020 . S
Co362 O381 2.021 . S
Co362 O386 2.062 . S
C363 N365 1.316 . S
C363 N366 1.347 . S
C363 H368 0.931 . S
C364 N365 1.375 . S
C364 C367 1.350 . S
C364 H369 0.930 . S
N365 Co360 2.057 . S
N365 C363 1.316 . S
N365 C364 1.375 . S
N366 C363 1.347 . S
N366 C367 1.373 . S
C367 C364 1.350 . S
C367 N366 1.373 . S
C367 H388 0.931 . S
H368 C363 0.931 . S
H369 C364 0.930 . S
C370 O377 1.259 . S
C370 O378 1.258 . S
N371 Co362 2.057 . S
N371 C372 1.316 . S
N371 C373 1.375 . S
C372 N371 1.316 . S
C372 N374 1.347 . S
C372 H383 0.931 . S
C373 N371 1.375 . S
C373 C375 1.350 . S
C373 H382 0.930 . S
N374 C372 1.347 . S
N374 C375 1.373 . S
C375 C373 1.350 . S
C375 N374 1.373 . S
C375 H389 0.931 . S
C376 O379 1.256 . S
C376 O380 1.255 . S
O377 Co360 2.021 . S
O377 C370 1.259 . S
O378 Co362 2.117 . S
O378 C370 1.258 . S
O379 Co362 2.020 . S
O379 C376 1.256 . S
O380 Co360 2.062 . S
O380 C376 1.255 . S
O381 C361 1.259 . S
O381 Co362 2.021 . S
H382 C373 0.930 . S
H383 C372 0.931 . S
O384 Co360 2.117 . S
O384 C361 1.258 . S
O385 Co360 2.020 . S
O385 C387 1.256 . S
O386 Co362 2.062 . S
O386 C387 1.255 . S
C387 O385 1.256 . S
C387 O386 1.255 . S
H388 C367 0.931 . S
H389 C375 0.931 . S
Co390 N395 2.057 . S
Co390 O407 2.021 . S
Co390 O410 2.062 . S
Co390 O414 2.117 . S
Co390 O415 2.020 . S
C391 O411 1.259 . S
C391 O414 1.258 . S
Co392 N401 2.057 . S
Co392 O408 2.117 . S
Co392 O409 2.020 . S
Co392 O411 2.021 . S
Co392 O416 2.062 . S
C393 N395 1.316 . S
C393 N396 1.347 . S
C393 H398 0.931 . S
C394 N395 1.375 . S
C394 C397 1.350 . S
C394 H399 0.930 . S
N395 Co390 2.057 . S
N395 C393 1.316 . S
N395 C394 1.375 . S
N396 C393 1.347 . S
N396 C397 1.373 . S
C397 C394 1.350 . S
C397 N396 1.373 . S
C397 H418 0.931 . S
H398 C393 0.931 . S
H399 C394 0.930 . S
C400 O407 1.259 . S
C400 O408 1.258 . S
N401 Co392 2.057 . S
N401 C402 1.316 . S
N401 C403 1.375 . S
C402 N401 1.316 . S
C402 N404 1.347 . S
C402 H413 0.931 . S
C403 N401 1.375 . S
C403 C405 1.350 . S
C403 H412 0.930 . S
N404 C402 1.347 . S
N404 C405 1.373 . S
C405 C403 1.350 . S
C405 N404 1.373 . S
C405 H419 0.931 . S
C406 O409 1.256 . S
C406 O410 1.255 . S
O407 Co390 2.021 . S
O407 C400 1.259 . S
O408 Co392 2.117 . S
O408 C400 1.258 . S
O409 Co392 2.020 . S
O409 C406 1.256 . S
O410 Co390 2.062 . S
O410 C406 1.255 . S
O411 C391 1.259 . S
O411 Co392 2.021 . S
H412 C403 0.930 . S
H413 C402 0.931 . S
O414 Co390 2.117 . S
O414 C391 1.258 . S
O415 Co390 2.020 . S
O415 C417 1.256 . S
O416 Co392 2.062 . S
O416 C417 1.255 . S
C417 O415 1.256 . S
C417 O416 1.255 . S
H418 C397 0.931 . S
H419 C405 0.931 . S
Co420 N425 2.057 . S
Co420 O437 2.021 . S
Co420 O440 2.062 . S
Co420 O444 2.117 . S
Co420 O445 2.020 . S
C421 O441 1.259 . S
C421 O444 1.258 . S
Co422 N431 2.057 . S
Co422 O438 2.117 . S
Co422 O439 2.020 . S
Co422 O441 2.021 . S
Co422 O446 2.062 . S
C423 N425 1.316 . S
C423 N426 1.347 . S
C423 H428 0.931 . S
C424 N425 1.375 . S
C424 C427 1.350 . S
C424 H429 0.930 . S
N425 Co420 2.057 . S
N425 C423 1.316 . S
N425 C424 1.375 . S
N426 C423 1.347 . S
N426 C427 1.373 . S
C427 C424 1.350 . S
C427 N426 1.373 . S
C427 H448 0.931 . S
H428 C423 0.931 . S
H429 C424 0.930 . S
C430 O437 1.259 . S
C430 O438 1.258 . S
N431 Co422 2.057 . S
N431 C432 1.316 . S
N431 C433 1.375 . S
C432 N431 1.316 . S
C432 N434 1.347 . S
C432 H443 0.931 . S
C433 N431 1.375 . S
C433 C435 1.350 . S
C433 H442 0.930 . S
N434 C432 1.347 . S
N434 C435 1.373 . S
C435 C433 1.350 . S
C435 N434 1.373 . S
C435 H449 0.931 . S
C436 O439 1.256 . S
C436 O440 1.255 . S
O437 Co420 2.021 . S
O437 C430 1.259 . S
O438 Co422 2.117 . S
O438 C430 1.258 . S
O439 Co422 2.020 . S
O439 C436 1.256 . S
O440 Co420 2.062 . S
O440 C436 1.255 . S
O441 C421 1.259 . S
O441 Co422 2.021 . S
H442 C433 0.930 . S
H443 C432 0.931 . S
O444 Co420 2.117 . S
O444 C421 1.258 . S
O445 Co420 2.020 . S
O445 C447 1.256 . S
O446 Co422 2.062 . S
O446 C447 1.255 . S
C447 O445 1.256 . S
C447 O446 1.255 . S
H448 C427 0.931 . S
H449 C435 0.931 . S
Co450 N455 2.057 . S
Co450 O467 2.021 1_454 S
Co450 O470 2.062 1_554 S
Co450 O474 2.117 . S
Co450 O475 2.020 1_455 S
C451 O471 1.259 . S
C451 O474 1.258 . S
Co452 N461 2.057 . S
Co452 O468 2.117 . S
Co452 O469 2.020 1_655 S
Co452 O471 2.021 1_656 S
Co452 O476 2.062 1_556 S
C453 N455 1.316 . S
C453 N456 1.347 . S
C453 H458 0.931 . S
C454 N455 1.375 . S
C454 C457 1.350 . S
C454 H459 0.930 . S
N455 Co450 2.057 . S
N455 C453 1.316 . S
N455 C454 1.375 . S
N456 C453 1.347 . S
N456 C457 1.373 . S
C457 C454 1.350 . S
C457 N456 1.373 . S
C457 H478 0.931 . S
H458 C453 0.931 . S
H459 C454 0.930 . S
C460 O467 1.259 . S
C460 O468 1.258 . S
N461 Co452 2.057 . S
N461 C462 1.316 . S
N461 C463 1.375 . S
C462 N461 1.316 . S
C462 N464 1.347 . S
C462 H473 0.931 . S
C463 N461 1.375 . S
C463 C465 1.350 . S
C463 H472 0.930 . S
N464 C462 1.347 . S
N464 C465 1.373 . S
C465 C463 1.350 . S
C465 N464 1.373 . S
C465 H479 0.931 . S
C466 O469 1.256 . S
C466 O470 1.255 . S
O467 Co450 2.021 1_656 S
O467 C460 1.259 . S
O468 Co452 2.117 . S
O468 C460 1.258 . S
O469 Co452 2.020 1_455 S
O469 C466 1.256 . S
O470 Co450 2.062 1_556 S
O470 C466 1.255 . S
O471 C451 1.259 . S
O471 Co452 2.021 1_454 S
H472 C463 0.930 . S
H473 C462 0.931 . S
O474 Co450 2.117 . S
O474 C451 1.258 . S
O475 Co450 2.020 1_655 S
O475 C477 1.256 . S
O476 Co452 2.062 1_554 S
O476 C477 1.255 . S
C477 O475 1.256 . S
C477 O476 1.255 . S
H478 C457 0.931 . S
H479 C465 0.931 . S
H480 C486 0.930 . S
H481 C489 0.930 . S
H482 C490 0.930 . S
H483 C491 0.930 . S
H484 C494 0.930 . S
H485 C495 0.930 . S
C486 H480 0.930 . S
C486 C487 1.355 . S
C486 C488 1.415 . S
C487 C486 1.355 . S
C487 C489 1.419 . S
C488 C486 1.415 . S
C488 C493 1.425 . S
C488 C495 1.409 . S
C489 H481 0.930 . S
C489 C487 1.419 . S
C489 C490 1.362 . S
C490 H482 0.930 . S
C490 C489 1.362 . S
C490 C493 1.409 . S
C491 H483 0.930 . S
C491 C492 1.355 . S
C491 C493 1.415 . S
C492 C491 1.355 . S
C492 C494 1.419 . S
C493 C488 1.425 . S
C493 C490 1.409 . S
C493 C491 1.415 . S
C494 H484 0.930 . S
C494 C492 1.419 . S
C494 C495 1.362 . S
C495 H485 0.930 . S
C495 C488 1.409 . S
C495 C494 1.362 . S
H496 C502 0.930 . S
H497 C505 0.930 . S
H498 C506 0.930 . S
H499 C507 0.930 . S
H500 C510 0.930 . S
H501 C511 0.930 . S
C502 H496 0.930 . S
C502 C503 1.355 . S
C502 C504 1.415 . S
C503 C502 1.355 . S
C503 C505 1.419 . S
C504 C502 1.415 . S
C504 C509 1.425 . S
C504 C511 1.409 . S
C505 H497 0.930 . S
C505 C503 1.419 . S
C505 C506 1.362 . S
C506 H498 0.930 . S
C506 C505 1.362 . S
C506 C509 1.409 . S
C507 H499 0.930 . S
C507 C508 1.355 . S
C507 C509 1.415 . S
C508 C507 1.355 . S
C508 C510 1.419 . S
C509 C504 1.425 . S
C509 C506 1.409 . S
C509 C507 1.415 . S
C510 H500 0.930 . S
C510 C508 1.419 . S
C510 C511 1.362 . S
C511 H501 0.930 . S
C511 C504 1.409 . S
C511 C510 1.362 . S
H512 C518 0.930 . S
H513 C521 0.930 . S
H514 C522 0.930 . S
H515 C523 0.930 . S
H516 C526 0.930 . S
H517 C527 0.930 . S
C518 H512 0.930 . S
C518 C519 1.355 . S
C518 C520 1.415 . S
C519 C518 1.355 . S
C519 C521 1.419 . S
C520 C518 1.415 . S
C520 C525 1.425 . S
C520 C527 1.409 . S
C521 H513 0.930 . S
C521 C519 1.419 . S
C521 C522 1.362 . S
C522 H514 0.930 . S
C522 C521 1.362 . S
C522 C525 1.409 . S
C523 H515 0.930 . S
C523 C524 1.355 . S
C523 C525 1.415 . S
C524 C523 1.355 . S
C524 C526 1.419 . S
C525 C520 1.425 . S
C525 C522 1.409 . S
C525 C523 1.415 . S
C526 H516 0.930 . S
C526 C524 1.419 . S
C526 C527 1.362 . S
C527 H517 0.930 . S
C527 C520 1.409 . S
C527 C526 1.362 . S
H528 C534 0.930 . S
H529 C537 0.930 . S
H530 C538 0.930 . S
H531 C539 0.930 . S
H532 C542 0.930 1_565 S
H533 C543 0.930 . S
C534 H528 0.930 . S
C534 C535 1.355 . S
C534 C536 1.415 . S
C535 C534 1.355 . S
C535 C537 1.419 . S
C536 C534 1.415 . S
C536 C541 1.425 . S
C536 C543 1.409 . S
C537 H529 0.930 . S
C537 C535 1.419 . S
C537 C538 1.362 . S
C538 H530 0.930 . S
C538 C537 1.362 . S
C538 C541 1.409 . S
C539 H531 0.930 . S
C539 C540 1.355 . S
C539 C541 1.415 . S
C540 C539 1.355 . S
C540 C542 1.419 . S
C541 C536 1.425 . S
C541 C538 1.409 . S
C541 C539 1.415 . S
C542 H532 0.930 1_545 S
C542 C540 1.419 . S
C542 C543 1.362 . S
C543 H533 0.930 . S
C543 C536 1.409 . S
C543 C542 1.362 . S
H544 C550 0.930 . S
H545 C553 0.930 . S
H546 C554 0.930 . S
H547 C555 0.930 . S
H548 C558 0.930 . S
H549 C559 0.930 . S
C550 H544 0.930 . S
C550 C551 1.355 . S
C550 C552 1.415 . S
C551 C550 1.355 . S
C551 C553 1.419 . S
C552 C550 1.415 . S
C552 C557 1.425 . S
C552 C559 1.409 . S
C553 H545 0.930 . S
C553 C551 1.419 . S
C553 C554 1.362 . S
C554 H546 0.930 . S
C554 C553 1.362 . S
C554 C557 1.409 . S
C555 H547 0.930 . S
C555 C556 1.355 . S
C555 C557 1.415 . S
C556 C555 1.355 . S
C556 C558 1.419 . S
C557 C552 1.425 . S
C557 C554 1.409 . S
C557 C555 1.415 . S
C558 H548 0.930 . S
C558 C556 1.419 . S
C558 C559 1.362 . S
C559 H549 0.930 . S
C559 C552 1.409 . S
C559 C558 1.362 . S
H560 C566 0.930 . S
H561 C569 0.930 . S
H562 C570 0.930 . S
H563 C571 0.930 . S
H564 C574 0.930 . S
H565 C575 0.930 . S
C566 H560 0.930 . S
C566 C567 1.355 . S
C566 C568 1.415 . S
C567 C566 1.355 . S
C567 C569 1.419 . S
C568 C566 1.415 . S
C568 C573 1.425 . S
C568 C575 1.409 . S
C569 H561 0.930 . S
C569 C567 1.419 . S
C569 C570 1.362 . S
C570 H562 0.930 . S
C570 C569 1.362 . S
C570 C573 1.409 . S
C571 H563 0.930 . S
C571 C572 1.355 . S
C571 C573 1.415 . S
C572 C571 1.355 . S
C572 C574 1.419 . S
C573 C568 1.425 . S
C573 C570 1.409 . S
C573 C571 1.415 . S
C574 H564 0.930 . S
C574 C572 1.419 . S
C574 C575 1.362 . S
C575 H565 0.930 . S
C575 C568 1.409 . S
C575 C574 1.362 . S
H576 C582 0.930 . S
H577 C585 0.930 . S
H578 C586 0.930 . S
H579 C587 0.930 . S
H580 C590 0.930 . S
H581 C591 0.930 . S
C582 H576 0.930 . S
C582 C583 1.355 . S
C582 C584 1.415 . S
C583 C582 1.355 . S
C583 C585 1.419 . S
C584 C582 1.415 . S
C584 C589 1.425 . S
C584 C591 1.409 . S
C585 H577 0.930 . S
C585 C583 1.419 . S
C585 C586 1.362 . S
C586 H578 0.930 . S
C586 C585 1.362 . S
C586 C589 1.409 . S
C587 H579 0.930 . S
C587 C588 1.355 . S
C587 C589 1.415 . S
C588 C587 1.355 . S
C588 C590 1.419 . S
C589 C584 1.425 . S
C589 C586 1.409 . S
C589 C587 1.415 . S
C590 H580 0.930 . S
C590 C588 1.419 . S
C590 C591 1.362 . S
C591 H581 0.930 . S
C591 C584 1.409 . S
C591 C590 1.362 . S
H592 C598 0.930 . S
H593 C601 0.930 . S
H594 C602 0.930 . S
H595 C603 0.930 . S
H596 C606 0.930 . S
H597 C607 0.930 . S
C598 H592 0.930 . S
C598 C599 1.355 . S
C598 C600 1.415 . S
C599 C598 1.355 . S
C599 C601 1.419 . S
C600 C598 1.415 . S
C600 C605 1.425 . S
C600 C607 1.409 . S
C601 H593 0.930 . S
C601 C599 1.419 . S
C601 C602 1.362 . S
C602 H594 0.930 . S
C602 C601 1.362 . S
C602 C605 1.409 . S
C603 H595 0.930 . S
C603 C604 1.355 . S
C603 C605 1.415 . S
C604 C603 1.355 . S
C604 C606 1.419 . S
C605 C600 1.425 . S
C605 C602 1.409 . S
C605 C603 1.415 . S
C606 H596 0.930 . S
C606 C604 1.419 . S
C606 C607 1.362 . S
C607 H597 0.930 . S
C607 C600 1.409 . S
C607 C606 1.362 . S
H608 C614 0.930 . S
H609 C617 0.930 . S
H610 C618 0.930 . S
H611 C619 0.930 . S
H612 C622 0.930 . S
H613 C623 0.930 . S
C614 H608 0.930 . S
C614 C615 1.355 . S
C614 C616 1.415 . S
C615 C614 1.355 . S
C615 C617 1.419 . S
C616 C614 1.415 . S
C616 C621 1.425 . S
C616 C623 1.409 . S
C617 H609 0.930 . S
C617 C615 1.419 . S
C617 C618 1.362 . S
C618 H610 0.930 . S
C618 C617 1.362 . S
C618 C621 1.409 . S
C619 H611 0.930 . S
C619 C620 1.355 . S
C619 C621 1.415 . S
C620 C619 1.355 . S
C620 C622 1.419 . S
C621 C616 1.425 . S
C621 C618 1.409 . S
C621 C619 1.415 . S
C622 H612 0.930 . S
C622 C620 1.419 . S
C622 C623 1.362 . S
C623 H613 0.930 . S
C623 C616 1.409 . S
C623 C622 1.362 . S
H624 C630 0.930 . S
H625 C633 0.930 1_655 S
H626 C634 0.930 . S
H627 C635 0.930 . S
H628 C638 0.930 . S
H629 C639 0.930 . S
C630 H624 0.930 . S
C630 C631 1.355 . S
C630 C632 1.415 . S
C631 C630 1.355 . S
C631 C633 1.419 . S
C632 C630 1.415 . S
C632 C637 1.425 . S
C632 C639 1.409 . S
C633 H625 0.930 1_455 S
C633 C631 1.419 . S
C633 C634 1.362 . S
C634 H626 0.930 . S
C634 C633 1.362 . S
C634 C637 1.409 . S
C635 H627 0.930 . S
C635 C636 1.355 . S
C635 C637 1.415 . S
C636 C635 1.355 . S
C636 C638 1.419 . S
C637 C632 1.425 . S
C637 C634 1.409 . S
C637 C635 1.415 . S
C638 H628 0.930 . S
C638 C636 1.419 . S
C638 C639 1.362 . S
C639 H629 0.930 . S
C639 C632 1.409 . S
C639 C638 1.362 . S
H640 C646 0.930 . S
H641 C649 0.930 . S
H642 C650 0.930 . S
H643 C651 0.930 . S
H644 C654 0.930 . S
H645 C655 0.930 . S
C646 H640 0.930 . S
C646 C647 1.355 . S
C646 C648 1.415 . S
C647 C646 1.355 . S
C647 C649 1.419 . S
C648 C646 1.415 . S
C648 C653 1.425 . S
C648 C655 1.409 . S
C649 H641 0.930 . S
C649 C647 1.419 . S
C649 C650 1.362 . S
C650 H642 0.930 . S
C650 C649 1.362 . S
C650 C653 1.409 . S
C651 H643 0.930 . S
C651 C652 1.355 . S
C651 C653 1.415 . S
C652 C651 1.355 . S
C652 C654 1.419 . S
C653 C648 1.425 . S
C653 C650 1.409 . S
C653 C651 1.415 . S
C654 H644 0.930 . S
C654 C652 1.419 . S
C654 C655 1.362 . S
C655 H645 0.930 . S
C655 C648 1.409 . S
C655 C654 1.362 . S
H656 C662 0.930 . S
H657 C665 0.930 . S
H658 C666 0.930 . S
H659 C667 0.930 . S
H660 C670 0.930 . S
H661 C671 0.930 . S
C662 H656 0.930 . S
C662 C663 1.355 . S
C662 C664 1.415 . S
C663 C662 1.355 . S
C663 C665 1.419 . S
C664 C662 1.415 . S
C664 C669 1.425 . S
C664 C671 1.409 . S
C665 H657 0.930 . S
C665 C663 1.419 . S
C665 C666 1.362 . S
C666 H658 0.930 . S
C666 C665 1.362 . S
C666 C669 1.409 . S
C667 H659 0.930 . S
C667 C668 1.355 . S
C667 C669 1.415 . S
C668 C667 1.355 . S
C668 C670 1.419 . S
C669 C664 1.425 . S
C669 C666 1.409 . S
C669 C667 1.415 . S
C670 H660 0.930 . S
C670 C668 1.419 . S
C670 C671 1.362 . S
C671 H661 0.930 . S
C671 C664 1.409 . S
C671 C670 1.362 . S
H672 C678 0.930 . S
H673 C681 0.930 . S
H674 C682 0.930 . S
H675 C683 0.930 . S
H676 C686 0.930 . S
H677 C687 0.930 . S
C678 H672 0.930 . S
C678 C679 1.355 . S
C678 C680 1.415 . S
C679 C678 1.355 . S
C679 C681 1.419 . S
C680 C678 1.415 . S
C680 C685 1.425 . S
C680 C687 1.409 . S
C681 H673 0.930 . S
C681 C679 1.419 . S
C681 C682 1.362 . S
C682 H674 0.930 . S
C682 C681 1.362 . S
C682 C685 1.409 . S
C683 H675 0.930 . S
C683 C684 1.355 . S
C683 C685 1.415 . S
C684 C683 1.355 . S
C684 C686 1.419 . S
C685 C680 1.425 . S
C685 C682 1.409 . S
C685 C683 1.415 . S
C686 H676 0.930 . S
C686 C684 1.419 . S
C686 C687 1.362 . S
C687 H677 0.930 . S
C687 C680 1.409 . S
C687 C686 1.362 . S
H688 C694 0.930 . S
H689 C697 0.930 . S
H690 C698 0.930 . S
H691 C699 0.930 . S
H692 C702 0.930 . S
H693 C703 0.930 . S
C694 H688 0.930 . S
C694 C695 1.355 . S
C694 C696 1.415 . S
C695 C694 1.355 . S
C695 C697 1.419 . S
C696 C694 1.415 . S
C696 C701 1.425 . S
C696 C703 1.409 . S
C697 H689 0.930 . S
C697 C695 1.419 . S
C697 C698 1.362 . S
C698 H690 0.930 . S
C698 C697 1.362 . S
C698 C701 1.409 . S
C699 H691 0.930 . S
C699 C700 1.355 . S
C699 C701 1.415 . S
C700 C699 1.355 . S
C700 C702 1.419 . S
C701 C696 1.425 . S
C701 C698 1.409 . S
C701 C699 1.415 . S
C702 H692 0.930 . S
C702 C700 1.419 . S
C702 C703 1.362 . S
C703 H693 0.930 . S
C703 C696 1.409 . S
C703 C702 1.362 . S
H704 C710 0.930 . S
H705 C713 0.930 . S
H706 C714 0.930 . S
H707 C715 0.930 . S
H708 C718 0.930 . S
H709 C719 0.930 . S
C710 H704 0.930 . S
C710 C711 1.355 . S
C710 C712 1.415 . S
C711 C710 1.355 . S
C711 C713 1.419 . S
C712 C710 1.415 . S
C712 C717 1.425 . S
C712 C719 1.409 . S
C713 H705 0.930 . S
C713 C711 1.419 . S
C713 C714 1.362 . S
C714 H706 0.930 . S
C714 C713 1.362 . S
C714 C717 1.409 . S
C715 H707 0.930 . S
C715 C716 1.355 . S
C715 C717 1.415 . S
C716 C715 1.355 . S
C716 C718 1.419 . S
C717 C712 1.425 . S
C717 C714 1.409 . S
C717 C715 1.415 . S
C718 H708 0.930 . S
C718 C716 1.419 . S
C718 C719 1.362 . S
C719 H709 0.930 . S
C719 C712 1.409 . S
C719 C718 1.362 . S
H720 C726 0.930 . S
H721 C729 0.930 . S
H722 C730 0.930 . S
H723 C731 0.930 . S
H724 C734 0.930 . S
H725 C735 0.930 . S
C726 H720 0.930 . S
C726 C727 1.355 . S
C726 C728 1.415 . S
C727 C726 1.355 . S
C727 C729 1.419 . S
C728 C726 1.415 . S
C728 C733 1.425 . S
C728 C735 1.409 . S
C729 H721 0.930 . S
C729 C727 1.419 . S
C729 C730 1.362 . S
C730 H722 0.930 . S
C730 C729 1.362 . S
C730 C733 1.409 . S
C731 H723 0.930 . S
C731 C732 1.355 . S
C731 C733 1.415 . S
C732 C731 1.355 . S
C732 C734 1.419 . S
C733 C728 1.425 . S
C733 C730 1.409 . S
C733 C731 1.415 . S
C734 H724 0.930 . S
C734 C732 1.419 . S
C734 C735 1.362 . S
C735 H725 0.930 . S
C735 C728 1.409 . S
C735 C734 1.362 . S
H736 C742 0.930 . S
H737 C745 0.930 . S
H738 C746 0.930 . S
H739 C747 0.930 . S
H740 C750 0.930 . S
H741 C751 0.930 . S
C742 H736 0.930 . S
C742 C743 1.355 . S
C742 C744 1.415 . S
C743 C742 1.355 . S
C743 C745 1.419 . S
C744 C742 1.415 . S
C744 C749 1.425 . S
C744 C751 1.409 . S
C745 H737 0.930 . S
C745 C743 1.419 . S
C745 C746 1.362 . S
C746 H738 0.930 . S
C746 C745 1.362 . S
C746 C749 1.409 . S
C747 H739 0.930 . S
C747 C748 1.355 . S
C747 C749 1.415 . S
C748 C747 1.355 . S
C748 C750 1.419 . S
C749 C744 1.425 . S
C749 C746 1.409 . S
C749 C747 1.415 . S
C750 H740 0.930 . S
C750 C748 1.419 . S
C750 C751 1.362 . S
C751 H741 0.930 . S
C751 C744 1.409 . S
C751 C750 1.362 . S
H752 C758 0.930 . S
H753 C761 0.930 . S
H754 C762 0.930 . S
H755 C763 0.930 . S
H756 C766 0.930 1_556 S
H757 C767 0.930 . S
C758 H752 0.930 . S
C758 C759 1.355 . S
C758 C760 1.415 . S
C759 C758 1.355 . S
C759 C761 1.419 . S
C760 C758 1.415 . S
C760 C765 1.425 . S
C760 C767 1.409 . S
C761 H753 0.930 . S
C761 C759 1.419 . S
C761 C762 1.362 . S
C762 H754 0.930 . S
C762 C761 1.362 . S
C762 C765 1.409 . S
C763 H755 0.930 . S
C763 C764 1.355 . S
C763 C765 1.415 . S
C764 C763 1.355 . S
C764 C766 1.419 . S
C765 C760 1.425 . S
C765 C762 1.409 . S
C765 C763 1.415 . S
C766 H756 0.930 1_554 S
C766 C764 1.419 . S
C766 C767 1.362 . S
C767 H757 0.930 . S
C767 C760 1.409 . S
C767 C766 1.362 . S
H768 C774 0.930 . S
H769 C777 0.930 . S
H770 C778 0.930 . S
H771 C779 0.930 . S
H772 C782 0.930 . S
H773 C783 0.930 . S
C774 H768 0.930 . S
C774 C775 1.355 . S
C774 C776 1.415 . S
C775 C774 1.355 . S
C775 C777 1.419 . S
C776 C774 1.415 . S
C776 C781 1.425 . S
C776 C783 1.409 . S
C777 H769 0.930 . S
C777 C775 1.419 . S
C777 C778 1.362 . S
C778 H770 0.930 . S
C778 C777 1.362 . S
C778 C781 1.409 . S
C779 H771 0.930 . S
C779 C780 1.355 . S
C779 C781 1.415 . S
C780 C779 1.355 . S
C780 C782 1.419 . S
C781 C776 1.425 . S
C781 C778 1.409 . S
C781 C779 1.415 . S
C782 H772 0.930 . S
C782 C780 1.419 . S
C782 C783 1.362 . S
C783 H773 0.930 . S
C783 C776 1.409 . S
C783 C782 1.362 . S
H784 C790 0.930 . S
H785 C793 0.930 . S
H786 C794 0.930 . S
H787 C795 0.930 . S
H788 C798 0.930 . S
H789 C799 0.930 . S
C790 H784 0.930 . S
C790 C791 1.355 . S
C790 C792 1.415 . S
C791 C790 1.355 . S
C791 C793 1.419 . S
C792 C790 1.415 . S
C792 C797 1.425 . S
C792 C799 1.409 . S
C793 H785 0.930 . S
C793 C791 1.419 . S
C793 C794 1.362 . S
C794 H786 0.930 . S
C794 C793 1.362 . S
C794 C797 1.409 . S
C795 H787 0.930 . S
C795 C796 1.355 . S
C795 C797 1.415 . S
C796 C795 1.355 . S
C796 C798 1.419 . S
C797 C792 1.425 . S
C797 C794 1.409 . S
C797 C795 1.415 . S
C798 H788 0.930 . S
C798 C796 1.419 . S
C798 C799 1.362 . S
C799 H789 0.930 . S
C799 C792 1.409 . S
C799 C798 1.362 . S
H800 C806 0.930 . S
H801 C809 0.930 . S
H802 C810 0.930 . S
H803 C811 0.930 . S
H804 C814 0.930 . S
H805 C815 0.930 . S
C806 H800 0.930 . S
C806 C807 1.355 . S
C806 C808 1.415 . S
C807 C806 1.355 . S
C807 C809 1.419 . S
C808 C806 1.415 . S
C808 C813 1.425 . S
C808 C815 1.409 . S
C809 H801 0.930 . S
C809 C807 1.419 . S
C809 C810 1.362 . S
C810 H802 0.930 . S
C810 C809 1.362 . S
C810 C813 1.409 . S
C811 H803 0.930 . S
C811 C812 1.355 . S
C811 C813 1.415 . S
C812 C811 1.355 . S
C812 C814 1.419 . S
C813 C808 1.425 . S
C813 C810 1.409 . S
C813 C811 1.415 . S
C814 H804 0.930 . S
C814 C812 1.419 . S
C814 C815 1.362 . S
C815 H805 0.930 . S
C815 C808 1.409 . S
C815 C814 1.362 . S
H816 C822 0.930 . S
H817 C825 0.930 . S
H818 C826 0.930 . S
H819 C827 0.930 . S
H820 C830 0.930 . S
H821 C831 0.930 . S
C822 H816 0.930 . S
C822 C823 1.355 . S
C822 C824 1.415 . S
C823 C822 1.355 . S
C823 C825 1.419 . S
C824 C822 1.415 . S
C824 C829 1.425 . S
C824 C831 1.409 . S
C825 H817 0.930 . S
C825 C823 1.419 . S
C825 C826 1.362 . S
C826 H818 0.930 . S
C826 C825 1.362 . S
C826 C829 1.409 . S
C827 H819 0.930 . S
C827 C828 1.355 . S
C827 C829 1.415 . S
C828 C827 1.355 . S
C828 C830 1.419 . S
C829 C824 1.425 . S
C829 C826 1.409 . S
C829 C827 1.415 . S
C830 H820 0.930 . S
C830 C828 1.419 . S
C830 C831 1.362 . S
C831 H821 0.930 . S
C831 C824 1.409 . S
C831 C830 1.362 . S
H832 C838 0.930 . S
H833 C841 0.930 . S
H834 C842 0.930 . S
H835 C843 0.930 . S
H836 C846 0.930 . S
H837 C847 0.930 . S
C838 H832 0.930 . S
C838 C839 1.355 . S
C838 C840 1.415 . S
C839 C838 1.355 . S
C839 C841 1.419 . S
C840 C838 1.415 . S
C840 C845 1.425 . S
C840 C847 1.409 . S
C841 H833 0.930 . S
C841 C839 1.419 . S
C841 C842 1.362 . S
C842 H834 0.930 . S
C842 C841 1.362 . S
C842 C845 1.409 . S
C843 H835 0.930 . S
C843 C844 1.355 . S
C843 C845 1.415 . S
C844 C843 1.355 . S
C844 C846 1.419 . S
C845 C840 1.425 . S
C845 C842 1.409 . S
C845 C843 1.415 . S
C846 H836 0.930 . S
C846 C844 1.419 . S
C846 C847 1.362 . S
C847 H837 0.930 . S
C847 C840 1.409 . S
C847 C846 1.362 . S
H848 C854 0.930 . S
H849 C857 0.930 . S
H850 C858 0.930 . S
H851 C859 0.930 . S
H852 C862 0.930 . S
H853 C863 0.930 . S
C854 H848 0.930 . S
C854 C855 1.355 . S
C854 C856 1.415 . S
C855 C854 1.355 . S
C855 C857 1.419 . S
C856 C854 1.415 . S
C856 C861 1.425 . S
C856 C863 1.409 . S
C857 H849 0.930 . S
C857 C855 1.419 . S
C857 C858 1.362 . S
C858 H850 0.930 . S
C858 C857 1.362 . S
C858 C861 1.409 . S
C859 H851 0.930 . S
C859 C860 1.355 . S
C859 C861 1.415 . S
C860 C859 1.355 . S
C860 C862 1.419 . S
C861 C856 1.425 . S
C861 C858 1.409 . S
C861 C859 1.415 . S
C862 H852 0.930 . S
C862 C860 1.419 . S
C862 C863 1.362 . S
C863 H853 0.930 . S
C863 C856 1.409 . S
C863 C862 1.362 . S
H864 C870 0.930 . S
H865 C873 0.930 . S
H866 C874 0.930 . S
H867 C875 0.930 . S
H868 C878 0.930 . S
H869 C879 0.930 . S
C870 H864 0.930 . S
C870 C871 1.355 . S
C870 C872 1.415 . S
C871 C870 1.355 . S
C871 C873 1.419 . S
C872 C870 1.415 . S
C872 C877 1.425 . S
C872 C879 1.409 . S
C873 H865 0.930 . S
C873 C871 1.419 . S
C873 C874 1.362 . S
C874 H866 0.930 . S
C874 C873 1.362 . S
C874 C877 1.409 . S
C875 H867 0.930 . S
C875 C876 1.355 . S
C875 C877 1.415 . S
C876 C875 1.355 . S
C876 C878 1.419 . S
C877 C872 1.425 . S
C877 C874 1.409 . S
C877 C875 1.415 . S
C878 H868 0.930 . S
C878 C876 1.419 . S
C878 C879 1.362 . S
C879 H869 0.930 . S
C879 C872 1.409 . S
C879 C878 1.362 . S
H880 C886 0.930 . S
H881 C889 0.930 . S
H882 C890 0.930 . S
H883 C891 0.930 . S
H884 C894 0.930 . S
H885 C895 0.930 . S
C886 H880 0.930 . S
C886 C887 1.355 . S
C886 C888 1.415 . S
C887 C886 1.355 . S
C887 C889 1.419 . S
C888 C886 1.415 . S
C888 C893 1.425 . S
C888 C895 1.409 . S
C889 H881 0.930 . S
C889 C887 1.419 . S
C889 C890 1.362 . S
C890 H882 0.930 . S
C890 C889 1.362 . S
C890 C893 1.409 . S
C891 H883 0.930 . S
C891 C892 1.355 . S
C891 C893 1.415 . S
C892 C891 1.355 . S
C892 C894 1.419 . S
C893 C888 1.425 . S
C893 C890 1.409 . S
C893 C891 1.415 . S
C894 H884 0.930 . S
C894 C892 1.419 . S
C894 C895 1.362 . S
C895 H885 0.930 . S
C895 C888 1.409 . S
C895 C894 1.362 . S
H896 C902 0.930 . S
H897 C905 0.930 . S
H898 C906 0.930 . S
H899 C907 0.930 . S
H900 C910 0.930 . S
H901 C911 0.930 . S
C902 H896 0.930 . S
C902 C903 1.355 . S
C902 C904 1.415 . S
C903 C902 1.355 . S
C903 C905 1.419 . S
C904 C902 1.415 . S
C904 C909 1.425 . S
C904 C911 1.409 . S
C905 H897 0.930 . S
C905 C903 1.419 . S
C905 C906 1.362 . S
C906 H898 0.930 . S
C906 C905 1.362 . S
C906 C909 1.409 . S
C907 H899 0.930 . S
C907 C908 1.355 . S
C907 C909 1.415 . S
C908 C907 1.355 . S
C908 C910 1.419 . S
C909 C904 1.425 . S
C909 C906 1.409 . S
C909 C907 1.415 . S
C910 H900 0.930 . S
C910 C908 1.419 . S
C910 C911 1.362 . S
C911 H901 0.930 . S
C911 C904 1.409 . S
C911 C910 1.362 . S
H912 C918 0.930 . S
H913 C921 0.930 . S
H914 C922 0.930 . S
H915 C923 0.930 . S
H916 C926 0.930 . S
H917 C927 0.930 . S
C918 H912 0.930 . S
C918 C919 1.355 . S
C918 C920 1.415 . S
C919 C918 1.355 . S
C919 C921 1.419 . S
C920 C918 1.415 . S
C920 C925 1.425 . S
C920 C927 1.409 . S
C921 H913 0.930 . S
C921 C919 1.419 . S
C921 C922 1.362 . S
C922 H914 0.930 . S
C922 C921 1.362 . S
C922 C925 1.409 . S
C923 H915 0.930 . S
C923 C924 1.355 . S
C923 C925 1.415 . S
C924 C923 1.355 . S
C924 C926 1.419 . S
C925 C920 1.425 . S
C925 C922 1.409 . S
C925 C923 1.415 . S
C926 H916 0.930 . S
C926 C924 1.419 . S
C926 C927 1.362 . S
C927 H917 0.930 . S
C927 C920 1.409 . S
C927 C926 1.362 . S
H928 C934 0.930 . S
H929 C937 0.930 . S
H930 C938 0.930 . S
H931 C939 0.930 . S
H932 C942 0.930 . S
H933 C943 0.930 . S
C934 H928 0.930 . S
C934 C935 1.355 . S
C934 C936 1.415 . S
C935 C934 1.355 . S
C935 C937 1.419 . S
C936 C934 1.415 . S
C936 C941 1.425 . S
C936 C943 1.409 . S
C937 H929 0.930 . S
C937 C935 1.419 . S
C937 C938 1.362 . S
C938 H930 0.930 . S
C938 C937 1.362 . S
C938 C941 1.409 . S
C939 H931 0.930 . S
C939 C940 1.355 . S
C939 C941 1.415 . S
C940 C939 1.355 . S
C940 C942 1.419 . S
C941 C936 1.425 . S
C941 C938 1.409 . S
C941 C939 1.415 . S
C942 H932 0.930 . S
C942 C940 1.419 . S
C942 C943 1.362 . S
C943 H933 0.930 . S
C943 C936 1.409 . S
C943 C942 1.362 . S
H944 C950 0.930 . S
H945 C953 0.930 . S
H946 C954 0.930 . S
H947 C955 0.930 . S
H948 C958 0.930 . S
H949 C959 0.930 . S
C950 H944 0.930 . S
C950 C951 1.355 . S
C950 C952 1.415 . S
C951 C950 1.355 . S
C951 C953 1.419 . S
C952 C950 1.415 . S
C952 C957 1.425 . S
C952 C959 1.409 . S
C953 H945 0.930 . S
C953 C951 1.419 . S
C953 C954 1.362 . S
C954 H946 0.930 . S
C954 C953 1.362 . S
C954 C957 1.409 . S
C955 H947 0.930 . S
C955 C956 1.355 . S
C955 C957 1.415 . S
C956 C955 1.355 . S
C956 C958 1.419 . S
C957 C952 1.425 . S
C957 C954 1.409 . S
C957 C955 1.415 . S
C958 H948 0.930 . S
C958 C956 1.419 . S
C958 C959 1.362 . S
C959 H949 0.930 . S
C959 C952 1.409 . S
C959 C958 1.362 . S
H960 C966 0.930 . S
H961 C969 0.930 . S
H962 C970 0.930 . S
H963 C971 0.930 . S
H964 C974 0.930 . S
H965 C975 0.930 . S
C966 H960 0.930 . S
C966 C967 1.355 . S
C966 C968 1.415 . S
C967 C966 1.355 . S
C967 C969 1.419 . S
C968 C966 1.415 . S
C968 C973 1.425 . S
C968 C975 1.409 . S
C969 H961 0.930 . S
C969 C967 1.419 . S
C969 C970 1.362 . S
C970 H962 0.930 . S
C970 C969 1.362 . S
C970 C973 1.409 . S
C971 H963 0.930 . S
C971 C972 1.355 . S
C971 C973 1.415 . S
C972 C971 1.355 . S
C972 C974 1.419 . S
C973 C968 1.425 . S
C973 C970 1.409 . S
C973 C971 1.415 . S
C974 H964 0.930 . S
C974 C972 1.419 . S
C974 C975 1.362 . S
C975 H965 0.930 . S
C975 C968 1.409 . S
C975 C974 1.362 . S
H976 C982 0.930 . S
H977 C985 0.930 . S
H978 C986 0.930 . S
H979 C987 0.930 . S
H980 C990 0.930 . S
H981 C991 0.930 . S
C982 H976 0.930 . S
C982 C983 1.355 . S
C982 C984 1.415 . S
C983 C982 1.355 . S
C983 C985 1.419 . S
C984 C982 1.415 . S
C984 C989 1.425 . S
C984 C991 1.409 . S
C985 H977 0.930 . S
C985 C983 1.419 . S
C985 C986 1.362 . S
C986 H978 0.930 . S
C986 C985 1.362 . S
C986 C989 1.409 . S
C987 H979 0.930 . S
C987 C988 1.355 . S
C987 C989 1.415 . S
C988 C987 1.355 . S
C988 C990 1.419 . S
C989 C984 1.425 . S
C989 C986 1.409 . S
C989 C987 1.415 . S
C990 H980 0.930 . S
C990 C988 1.419 . S
C990 C991 1.362 . S
C991 H981 0.930 . S
C991 C984 1.409 . S
C991 C990 1.362 . S
H992 C998 0.930 . S
H993 C1001 0.930 . S
H994 C1002 0.930 . S
H995 C1003 0.930 . S
H996 C1006 0.930 . S
H997 C1007 0.930 . S
C998 H992 0.930 . S
C998 C999 1.355 . S
C998 C1000 1.415 . S
C999 C998 1.355 . S
C999 C1001 1.419 . S
C1000 C998 1.415 . S
C1000 C1005 1.425 . S
C1000 C1007 1.409 . S
C1001 H993 0.930 . S
C1001 C999 1.419 . S
C1001 C1002 1.362 . S
C1002 H994 0.930 . S
C1002 C1001 1.362 . S
C1002 C1005 1.409 . S
C1003 H995 0.930 . S
C1003 C1004 1.355 . S
C1003 C1005 1.415 . S
C1004 C1003 1.355 . S
C1004 C1006 1.419 . S
C1005 C1000 1.425 . S
C1005 C1002 1.409 . S
C1005 C1003 1.415 . S
C1006 H996 0.930 . S
C1006 C1004 1.419 . S
C1006 C1007 1.362 . S
C1007 H997 0.930 . S
C1007 C1000 1.409 . S
C1007 C1006 1.362 . S
H1008 C1014 0.930 . S
H1009 C1017 0.930 . S
H1010 C1018 0.930 . S
H1011 C1019 0.930 . S
H1012 C1022 0.930 . S
H1013 C1023 0.930 . S
C1014 H1008 0.930 . S
C1014 C1015 1.355 . S
C1014 C1016 1.415 . S
C1015 C1014 1.355 . S
C1015 C1017 1.419 . S
C1016 C1014 1.415 . S
C1016 C1021 1.425 . S
C1016 C1023 1.409 . S
C1017 H1009 0.930 . S
C1017 C1015 1.419 . S
C1017 C1018 1.362 . S
C1018 H1010 0.930 . S
C1018 C1017 1.362 . S
C1018 C1021 1.409 . S
C1019 H1011 0.930 . S
C1019 C1020 1.355 . S
C1019 C1021 1.415 . S
C1020 C1019 1.355 . S
C1020 C1022 1.419 . S
C1021 C1016 1.425 . S
C1021 C1018 1.409 . S
C1021 C1019 1.415 . S
C1022 H1012 0.930 . S
C1022 C1020 1.419 . S
C1022 C1023 1.362 . S
C1023 H1013 0.930 . S
C1023 C1016 1.409 . S
C1023 C1022 1.362 . S
H1024 C1030 0.930 . S
H1025 C1033 0.930 . S
H1026 C1034 0.930 . S
H1027 C1035 0.930 . S
H1028 C1038 0.930 . S
H1029 C1039 0.930 . S
C1030 H1024 0.930 . S
C1030 C1031 1.355 . S
C1030 C1032 1.415 . S
C1031 C1030 1.355 . S
C1031 C1033 1.419 . S
C1032 C1030 1.415 . S
C1032 C1037 1.425 . S
C1032 C1039 1.409 . S
C1033 H1025 0.930 . S
C1033 C1031 1.419 . S
C1033 C1034 1.362 . S
C1034 H1026 0.930 . S
C1034 C1033 1.362 . S
C1034 C1037 1.409 . S
C1035 H1027 0.930 . S
C1035 C1036 1.355 . S
C1035 C1037 1.415 . S
C1036 C1035 1.355 . S
C1036 C1038 1.419 . S
C1037 C1032 1.425 . S
C1037 C1034 1.409 . S
C1037 C1035 1.415 . S
C1038 H1028 0.930 . S
C1038 C1036 1.419 . S
C1038 C1039 1.362 . S
C1039 H1029 0.930 . S
C1039 C1032 1.409 . S
C1039 C1038 1.362 . S
H1040 C1046 0.930 . S
H1041 C1049 0.930 . S
H1042 C1050 0.930 . S
H1043 C1051 0.930 . S
H1044 C1054 0.930 . S
H1045 C1055 0.930 . S
C1046 H1040 0.930 . S
C1046 C1047 1.355 . S
C1046 C1048 1.415 . S
C1047 C1046 1.355 . S
C1047 C1049 1.419 . S
C1048 C1046 1.415 . S
C1048 C1053 1.425 . S
C1048 C1055 1.409 . S
C1049 H1041 0.930 . S
C1049 C1047 1.419 . S
C1049 C1050 1.362 . S
C1050 H1042 0.930 . S
C1050 C1049 1.362 . S
C1050 C1053 1.409 . S
C1051 H1043 0.930 . S
C1051 C1052 1.355 . S
C1051 C1053 1.415 . S
C1052 C1051 1.355 . S
C1052 C1054 1.419 . S
C1053 C1048 1.425 . S
C1053 C1050 1.409 . S
C1053 C1051 1.415 . S
C1054 H1044 0.930 . S
C1054 C1052 1.419 . S
C1054 C1055 1.362 . S
C1055 H1045 0.930 . S
C1055 C1048 1.409 . S
C1055 C1054 1.362 . S
H1056 C1062 0.930 . S
H1057 C1065 0.930 . S
H1058 C1066 0.930 . S
H1059 C1067 0.930 . S
H1060 C1070 0.930 . S
H1061 C1071 0.930 . S
C1062 H1056 0.930 . S
C1062 C1063 1.355 . S
C1062 C1064 1.415 . S
C1063 C1062 1.355 . S
C1063 C1065 1.419 . S
C1064 C1062 1.415 . S
C1064 C1069 1.425 . S
C1064 C1071 1.409 . S
C1065 H1057 0.930 . S
C1065 C1063 1.419 . S
C1065 C1066 1.362 . S
C1066 H1058 0.930 . S
C1066 C1065 1.362 . S
C1066 C1069 1.409 . S
C1067 H1059 0.930 . S
C1067 C1068 1.355 . S
C1067 C1069 1.415 . S
C1068 C1067 1.355 . S
C1068 C1070 1.419 . S
C1069 C1064 1.425 . S
C1069 C1066 1.409 . S
C1069 C1067 1.415 . S
C1070 H1060 0.930 . S
C1070 C1068 1.419 . S
C1070 C1071 1.362 . S
C1071 H1061 0.930 . S
C1071 C1064 1.409 . S
C1071 C1070 1.362 . S
H1072 C1078 0.930 . S
H1073 C1081 0.930 . S
H1074 C1082 0.930 . S
H1075 C1083 0.930 . S
H1076 C1086 0.930 . S
H1077 C1087 0.930 . S
C1078 H1072 0.930 . S
C1078 C1079 1.355 . S
C1078 C1080 1.415 . S
C1079 C1078 1.355 . S
C1079 C1081 1.419 . S
C1080 C1078 1.415 . S
C1080 C1085 1.425 . S
C1080 C1087 1.409 . S
C1081 H1073 0.930 . S
C1081 C1079 1.419 . S
C1081 C1082 1.362 . S
C1082 H1074 0.930 . S
C1082 C1081 1.362 . S
C1082 C1085 1.409 . S
C1083 H1075 0.930 . S
C1083 C1084 1.355 . S
C1083 C1085 1.415 . S
C1084 C1083 1.355 . S
C1084 C1086 1.419 . S
C1085 C1080 1.425 . S
C1085 C1082 1.409 . S
C1085 C1083 1.415 . S
C1086 H1076 0.930 . S
C1086 C1084 1.419 . S
C1086 C1087 1.362 . S
C1087 H1077 0.930 . S
C1087 C1080 1.409 . S
C1087 C1086 1.362 . S
H1088 C1094 0.930 . S
H1089 C1097 0.930 . S
H1090 C1098 0.930 . S
H1091 C1099 0.930 . S
H1092 C1102 0.930 . S
H1093 C1103 0.930 . S
C1094 H1088 0.930 . S
C1094 C1095 1.355 . S
C1094 C1096 1.415 . S
C1095 C1094 1.355 . S
C1095 C1097 1.419 . S
C1096 C1094 1.415 . S
C1096 C1101 1.425 . S
C1096 C1103 1.409 . S
C1097 H1089 0.930 . S
C1097 C1095 1.419 . S
C1097 C1098 1.362 . S
C1098 H1090 0.930 . S
C1098 C1097 1.362 . S
C1098 C1101 1.409 . S
C1099 H1091 0.930 . S
C1099 C1100 1.355 . S
C1099 C1101 1.415 . S
C1100 C1099 1.355 . S
C1100 C1102 1.419 . S
C1101 C1096 1.425 . S
C1101 C1098 1.409 . S
C1101 C1099 1.415 . S
C1102 H1092 0.930 . S
C1102 C1100 1.419 . S
C1102 C1103 1.362 . S
C1103 H1093 0.930 . S
C1103 C1096 1.409 . S
C1103 C1102 1.362 . S
H1104 C1110 0.930 . S
H1105 C1113 0.930 . S
H1106 C1114 0.930 . S
H1107 C1115 0.930 . S
H1108 C1118 0.930 . S
H1109 C1119 0.930 . S
C1110 H1104 0.930 . S
C1110 C1111 1.355 . S
C1110 C1112 1.415 . S
C1111 C1110 1.355 . S
C1111 C1113 1.419 . S
C1112 C1110 1.415 . S
C1112 C1117 1.425 . S
C1112 C1119 1.409 . S
C1113 H1105 0.930 . S
C1113 C1111 1.419 . S
C1113 C1114 1.362 . S
C1114 H1106 0.930 . S
C1114 C1113 1.362 . S
C1114 C1117 1.409 . S
C1115 H1107 0.930 . S
C1115 C1116 1.355 . S
C1115 C1117 1.415 . S
C1116 C1115 1.355 . S
C1116 C1118 1.419 . S
C1117 C1112 1.425 . S
C1117 C1114 1.409 . S
C1117 C1115 1.415 . S
C1118 H1108 0.930 . S
C1118 C1116 1.419 . S
C1118 C1119 1.362 . S
C1119 H1109 0.930 . S
C1119 C1112 1.409 . S
C1119 C1118 1.362 . S
H1120 C1126 0.930 . S
H1121 C1129 0.930 . S
H1122 C1130 0.930 . S
H1123 C1131 0.930 . S
H1124 C1134 0.930 . S
H1125 C1135 0.930 . S
C1126 H1120 0.930 . S
C1126 C1127 1.355 . S
C1126 C1128 1.415 . S
C1127 C1126 1.355 . S
C1127 C1129 1.419 . S
C1128 C1126 1.415 . S
C1128 C1133 1.425 . S
C1128 C1135 1.409 . S
C1129 H1121 0.930 . S
C1129 C1127 1.419 . S
C1129 C1130 1.362 . S
C1130 H1122 0.930 . S
C1130 C1129 1.362 . S
C1130 C1133 1.409 . S
C1131 H1123 0.930 . S
C1131 C1132 1.355 . S
C1131 C1133 1.415 . S
C1132 C1131 1.355 . S
C1132 C1134 1.419 . S
C1133 C1128 1.425 . S
C1133 C1130 1.409 . S
C1133 C1131 1.415 . S
C1134 H1124 0.930 . S
C1134 C1132 1.419 . S
C1134 C1135 1.362 . S
C1135 H1125 0.930 . S
C1135 C1128 1.409 . S
C1135 C1134 1.362 . S
H1136 C1142 0.930 . S
H1137 C1145 0.930 . S
H1138 C1146 0.930 . S
H1139 C1147 0.930 . S
H1140 C1150 0.930 . S
H1141 C1151 0.930 . S
C1142 H1136 0.930 . S
C1142 C1143 1.355 . S
C1142 C1144 1.415 . S
C1143 C1142 1.355 . S
C1143 C1145 1.419 . S
C1144 C1142 1.415 . S
C1144 C1149 1.425 . S
C1144 C1151 1.409 . S
C1145 H1137 0.930 . S
C1145 C1143 1.419 . S
C1145 C1146 1.362 . S
C1146 H1138 0.930 . S
C1146 C1145 1.362 . S
C1146 C1149 1.409 . S
C1147 H1139 0.930 . S
C1147 C1148 1.355 . S
C1147 C1149 1.415 . S
C1148 C1147 1.355 . S
C1148 C1150 1.419 . S
C1149 C1144 1.425 . S
C1149 C1146 1.409 . S
C1149 C1147 1.415 . S
C1150 H1140 0.930 . S
C1150 C1148 1.419 . S
C1150 C1151 1.362 . S
C1151 H1141 0.930 . S
C1151 C1144 1.409 . S
C1151 C1150 1.362 . S
H1152 C1158 0.930 . S
H1153 C1161 0.930 . S
H1154 C1162 0.930 . S
H1155 C1163 0.930 . S
H1156 C1166 0.930 . S
H1157 C1167 0.930 . S
C1158 H1152 0.930 . S
C1158 C1159 1.355 . S
C1158 C1160 1.415 . S
C1159 C1158 1.355 . S
C1159 C1161 1.419 . S
C1160 C1158 1.415 . S
C1160 C1165 1.425 . S
C1160 C1167 1.409 . S
C1161 H1153 0.930 . S
C1161 C1159 1.419 . S
C1161 C1162 1.362 . S
C1162 H1154 0.930 . S
C1162 C1161 1.362 . S
C1162 C1165 1.409 . S
C1163 H1155 0.930 . S
C1163 C1164 1.355 . S
C1163 C1165 1.415 . S
C1164 C1163 1.355 . S
C1164 C1166 1.419 . S
C1165 C1160 1.425 . S
C1165 C1162 1.409 . S
C1165 C1163 1.415 . S
C1166 H1156 0.930 . S
C1166 C1164 1.419 . S
C1166 C1167 1.362 . S
C1167 H1157 0.930 . S
C1167 C1160 1.409 . S
C1167 C1166 1.362 . S
H1168 C1174 0.930 . S
H1169 C1177 0.930 . S
H1170 C1178 0.930 . S
H1171 C1179 0.930 . S
H1172 C1182 0.930 . S
H1173 C1183 0.930 . S
C1174 H1168 0.930 . S
C1174 C1175 1.355 . S
C1174 C1176 1.415 . S
C1175 C1174 1.355 . S
C1175 C1177 1.419 . S
C1176 C1174 1.415 . S
C1176 C1181 1.425 . S
C1176 C1183 1.409 . S
C1177 H1169 0.930 . S
C1177 C1175 1.419 . S
C1177 C1178 1.362 . S
C1178 H1170 0.930 . S
C1178 C1177 1.362 . S
C1178 C1181 1.409 . S
C1179 H1171 0.930 . S
C1179 C1180 1.355 . S
C1179 C1181 1.415 . S
C1180 C1179 1.355 . S
C1180 C1182 1.419 . S
C1181 C1176 1.425 . S
C1181 C1178 1.409 . S
C1181 C1179 1.415 . S
C1182 H1172 0.930 . S
C1182 C1180 1.419 . S
C1182 C1183 1.362 . S
C1183 H1173 0.930 . S
C1183 C1176 1.409 . S
C1183 C1182 1.362 . S
H1184 C1190 0.930 . S
H1185 C1193 0.930 . S
H1186 C1194 0.930 . S
H1187 C1195 0.930 . S
H1188 C1198 0.930 . S
H1189 C1199 0.930 . S
C1190 H1184 0.930 . S
C1190 C1191 1.355 . S
C1190 C1192 1.415 . S
C1191 C1190 1.355 . S
C1191 C1193 1.419 . S
C1192 C1190 1.415 . S
C1192 C1197 1.425 . S
C1192 C1199 1.409 . S
C1193 H1185 0.930 . S
C1193 C1191 1.419 . S
C1193 C1194 1.362 . S
C1194 H1186 0.930 . S
C1194 C1193 1.362 . S
C1194 C1197 1.409 . S
C1195 H1187 0.930 . S
C1195 C1196 1.355 . S
C1195 C1197 1.415 . S
C1196 C1195 1.355 . S
C1196 C1198 1.419 . S
C1197 C1192 1.425 . S
C1197 C1194 1.409 . S
C1197 C1195 1.415 . S
C1198 H1188 0.930 . S
C1198 C1196 1.419 . S
C1198 C1199 1.362 . S
C1199 H1189 0.930 . S
C1199 C1192 1.409 . S
C1199 C1198 1.362 . S
H1200 C1206 0.930 . S
H1201 C1209 0.930 . S
H1202 C1210 0.930 . S
H1203 C1211 0.930 . S
H1204 C1214 0.930 . S
H1205 C1215 0.930 . S
C1206 H1200 0.930 . S
C1206 C1207 1.355 . S
C1206 C1208 1.415 . S
C1207 C1206 1.355 . S
C1207 C1209 1.419 . S
C1208 C1206 1.415 . S
C1208 C1213 1.425 . S
C1208 C1215 1.409 . S
C1209 H1201 0.930 . S
C1209 C1207 1.419 . S
C1209 C1210 1.362 . S
C1210 H1202 0.930 . S
C1210 C1209 1.362 . S
C1210 C1213 1.409 . S
C1211 H1203 0.930 . S
C1211 C1212 1.355 . S
C1211 C1213 1.415 . S
C1212 C1211 1.355 . S
C1212 C1214 1.419 . S
C1213 C1208 1.425 . S
C1213 C1210 1.409 . S
C1213 C1211 1.415 . S
C1214 H1204 0.930 . S
C1214 C1212 1.419 . S
C1214 C1215 1.362 . S
C1215 H1205 0.930 . S
C1215 C1208 1.409 . S
C1215 C1214 1.362 . S
H1216 C1222 0.930 . S
H1217 C1225 0.930 . S
H1218 C1226 0.930 . S
H1219 C1227 0.930 . S
H1220 C1230 0.930 . S
H1221 C1231 0.930 . S
C1222 H1216 0.930 . S
C1222 C1223 1.355 . S
C1222 C1224 1.415 . S
C1223 C1222 1.355 . S
C1223 C1225 1.419 . S
C1224 C1222 1.415 . S
C1224 C1229 1.425 . S
C1224 C1231 1.409 . S
C1225 H1217 0.930 . S
C1225 C1223 1.419 . S
C1225 C1226 1.362 . S
C1226 H1218 0.930 . S
C1226 C1225 1.362 . S
C1226 C1229 1.409 . S
C1227 H1219 0.930 . S
C1227 C1228 1.355 . S
C1227 C1229 1.415 . S
C1228 C1227 1.355 . S
C1228 C1230 1.419 . S
C1229 C1224 1.425 . S
C1229 C1226 1.409 . S
C1229 C1227 1.415 . S
C1230 H1220 0.930 . S
C1230 C1228 1.419 . S
C1230 C1231 1.362 . S
C1231 H1221 0.930 . S
C1231 C1224 1.409 . S
C1231 C1230 1.362 . S
H1232 C1238 0.930 . S
H1233 C1241 0.930 . S
H1234 C1242 0.930 . S
H1235 C1243 0.930 . S
H1236 C1246 0.930 . S
H1237 C1247 0.930 . S
C1238 H1232 0.930 . S
C1238 C1239 1.355 . S
C1238 C1240 1.415 . S
C1239 C1238 1.355 . S
C1239 C1241 1.419 . S
C1240 C1238 1.415 . S
C1240 C1245 1.425 . S
C1240 C1247 1.409 . S
C1241 H1233 0.930 . S
C1241 C1239 1.419 . S
C1241 C1242 1.362 . S
C1242 H1234 0.930 . S
C1242 C1241 1.362 . S
C1242 C1245 1.409 . S
C1243 H1235 0.930 . S
C1243 C1244 1.355 . S
C1243 C1245 1.415 . S
C1244 C1243 1.355 . S
C1244 C1246 1.419 . S
C1245 C1240 1.425 . S
C1245 C1242 1.409 . S
C1245 C1243 1.415 . S
C1246 H1236 0.930 . S
C1246 C1244 1.419 . S
C1246 C1247 1.362 . S
C1247 H1237 0.930 . S
C1247 C1240 1.409 . S
C1247 C1246 1.362 . S
C487 C106 1.725 . S
C492 N14 1.599 . S
C503 C16 2.330 . S
C508 C46 2.330 . S
C519 C70 1.216 . S
C524 C31 1.227 . S
C535 N104 0.837 . S
C540 C87 0.854 . S
C551 C147 0.864 . S
C556 N164 0.793 . S
C567 C151 1.219 . S
C572 C190 1.233 . S
C583 N186 0.868 . S
C588 C220 0.861 . S
C599 N126 0.419 . S
C604 N216 0.518 . S
C615 C286 2.188 . S
C620 C1 2.192 . S
C631 C327 1.667 . S
C636 N44 1.559 . S
C647 N66 0.869 . S
C652 C417 0.945 . S
C663 C250 1.245 . S
C668 C91 1.232 . S
C679 C331 1.228 . S
C684 C130 1.244 . S
C695 C421 2.188 . S
C700 C166 2.181 . S
C711 C207 1.642 . S
C716 N374 1.544 . S
C727 N456 0.848 . S
C732 C237 0.905 . S
C743 N246 0.516 . S
C748 N396 0.381 . S
C759 N284 0.905 . S
C764 C267 0.928 . S
C775 C310 1.206 . S
C780 C271 1.211 . S
C791 N434 1.581 . S
C796 C346 1.700 . S
C807 C361 1.198 . S
C812 C460 1.216 . S
C823 C357 1.699 . S
C828 N6 1.528 . S
C839 C387 2.342 . S
C844 C27 2.316 . S
C855 C370 1.216 . S
C860 C61 1.219 . S
C871 C76 0.820 . S
C876 N336 0.769 . S
C887 N276 0.852 . S
C892 C136 0.907 . S
C903 C280 1.208 . S
C908 C181 1.211 . S
C919 C391 0.872 . S
C924 N194 0.794 . S
C935 N134 0.421 . S
C940 N404 0.494 . S
C951 C177 2.185 . S
C956 C10 2.195 . S
C967 C316 1.651 . S
C972 N366 1.563 . S
C983 N74 0.840 . S
C988 C226 0.918 . S
C999 C241 1.247 . S
C1004 C340 1.254 . S
C1015 C100 1.253 . S
C1020 C121 1.258 . S
C1031 C297 2.186 . S
C1036 C430 2.173 . S
C1047 C196 1.673 . S
C1052 N36 1.577 . S
C1063 N464 0.868 . S
C1068 C406 0.894 . S
C1079 N254 0.520 . S
C1084 N224 0.358 . S
C1095 C256 0.913 . S
C1100 N156 0.866 . S
C1111 C301 1.212 . S
C1116 C160 1.221 . S
C1127 C117 1.713 . S
C1132 N426 1.558 . S
C1143 C40 1.199 . S
C1148 C451 1.205 . S
C1159 C376 2.319 . S
C1164 C436 2.313 . S
C1175 N344 0.829 . S
C1180 C477 0.835 . S
C1191 N306 0.781 . S
C1196 C400 0.827 . S
C1207 C447 2.318 . S
C1212 C57 2.319 . S
C1223 N96 0.760 . S
C1228 C466 0.815 . S
C1239 C211 0.811 . S
C1244 N314 0.868 . S
