# Generated by pormake.
# Topology ure, (4)-cn, num edge types: 1
# Building blocks:
#     Node 0, Type 0, BuildingBlock: GALJAG_clean_sbu_0, # of connection points: 4
#     Node 1, Type 0, BuildingBlock: GALJAG_clean_sbu_0, # of connection points: 4
#     Node 2, Type 0, BuildingBlock: GALJAG_clean_sbu_0, # of connection points: 4
#     Node 3, Type 0, BuildingBlock: GALJAG_clean_sbu_0, # of connection points: 4
#     Node 4, Type 0, BuildingBlock: GALJAG_clean_sbu_0, # of connection points: 4
#     Node 5, Type 0, BuildingBlock: GALJAG_clean_sbu_0, # of connection points: 4
#     Node 6, Type 0, BuildingBlock: GALJAG_clean_sbu_0, # of connection points: 4
#     Node 7, Type 0, BuildingBlock: GALJAG_clean_sbu_0, # of connection points: 4
#     Node 8, Type 0, BuildingBlock: GALJAG_clean_sbu_0, # of connection points: 4
#     Node 9, Type 0, BuildingBlock: GALJAG_clean_sbu_0, # of connection points: 4
#     Node 10, Type 0, BuildingBlock: GALJAG_clean_sbu_0, # of connection points: 4
#     Node 11, Type 0, BuildingBlock: GALJAG_clean_sbu_0, # of connection points: 4
#     Node 12, Type 0, BuildingBlock: GALJAG_clean_sbu_0, # of connection points: 4
#     Node 13, Type 0, BuildingBlock: GALJAG_clean_sbu_0, # of connection points: 4
#     Node 14, Type 0, BuildingBlock: GALJAG_clean_sbu_0, # of connection points: 4
#     Node 15, Type 0, BuildingBlock: GALJAG_clean_sbu_0, # of connection points: 4
#     Edge 16, Type (0, 0), BuildingBlock: OJICUG_clean_linker_0, # of connection points: 2
#     Edge 17, Type (0, 0), BuildingBlock: OJICUG_clean_linker_0, # of connection points: 2
#     Edge 18, Type (0, 0), BuildingBlock: OJICUG_clean_linker_0, # of connection points: 2
#     Edge 19, Type (0, 0), BuildingBlock: OJICUG_clean_linker_0, # of connection points: 2
#     Edge 20, Type (0, 0), BuildingBlock: OJICUG_clean_linker_0, # of connection points: 2
#     Edge 21, Type (0, 0), BuildingBlock: OJICUG_clean_linker_0, # of connection points: 2
#     Edge 22, Type (0, 0), BuildingBlock: OJICUG_clean_linker_0, # of connection points: 2
#     Edge 23, Type (0, 0), BuildingBlock: OJICUG_clean_linker_0, # of connection points: 2
#     Edge 24, Type (0, 0), BuildingBlock: OJICUG_clean_linker_0, # of connection points: 2
#     Edge 25, Type (0, 0), BuildingBlock: OJICUG_clean_linker_0, # of connection points: 2
#     Edge 26, Type (0, 0), BuildingBlock: OJICUG_clean_linker_0, # of connection points: 2
#     Edge 27, Type (0, 0), BuildingBlock: OJICUG_clean_linker_0, # of connection points: 2
#     Edge 28, Type (0, 0), BuildingBlock: OJICUG_clean_linker_0, # of connection points: 2
#     Edge 29, Type (0, 0), BuildingBlock: OJICUG_clean_linker_0, # of connection points: 2
#     Edge 30, Type (0, 0), BuildingBlock: OJICUG_clean_linker_0, # of connection points: 2
#     Edge 31, Type (0, 0), BuildingBlock: OJICUG_clean_linker_0, # of connection points: 2
#     Edge 32, Type (0, 0), BuildingBlock: OJICUG_clean_linker_0, # of connection points: 2
#     Edge 33, Type (0, 0), BuildingBlock: OJICUG_clean_linker_0, # of connection points: 2
#     Edge 34, Type (0, 0), BuildingBlock: OJICUG_clean_linker_0, # of connection points: 2
#     Edge 35, Type (0, 0), BuildingBlock: OJICUG_clean_linker_0, # of connection points: 2
#     Edge 36, Type (0, 0), BuildingBlock: OJICUG_clean_linker_0, # of connection points: 2
#     Edge 37, Type (0, 0), BuildingBlock: OJICUG_clean_linker_0, # of connection points: 2
#     Edge 38, Type (0, 0), BuildingBlock: OJICUG_clean_linker_0, # of connection points: 2
#     Edge 39, Type (0, 0), BuildingBlock: OJICUG_clean_linker_0, # of connection points: 2
#     Edge 40, Type (0, 0), BuildingBlock: OJICUG_clean_linker_0, # of connection points: 2
#     Edge 41, Type (0, 0), BuildingBlock: OJICUG_clean_linker_0, # of connection points: 2
#     Edge 42, Type (0, 0), BuildingBlock: OJICUG_clean_linker_0, # of connection points: 2
#     Edge 43, Type (0, 0), BuildingBlock: OJICUG_clean_linker_0, # of connection points: 2
#     Edge 44, Type (0, 0), BuildingBlock: OJICUG_clean_linker_0, # of connection points: 2
#     Edge 45, Type (0, 0), BuildingBlock: OJICUG_clean_linker_0, # of connection points: 2
#     Edge 46, Type (0, 0), BuildingBlock: OJICUG_clean_linker_0, # of connection points: 2
#     Edge 47, Type (0, 0), BuildingBlock: OJICUG_clean_linker_0, # of connection points: 2
# Relax obj value: 0.290
# Max RMSD: 0.221
# Mean RMSD: 0.173
data_MOF--net-ure--node1-GALJAG_clean_sbu_0--edge1-OJICUG_clean_linker_0
_symmetry_space_group_name_H-M    P1
_symmetry_Int_Tables_number       1
_symmetry_cell_setting            triclinic
loop_
_symmetry_equiv_pos_as_xyz
'x, y, z'
_cell_length_a     20.471847
_cell_length_b     23.78909
_cell_length_c     23.771379
_cell_angle_alpha  99.839791
_cell_angle_beta   96.218946
_cell_angle_gamma 95.542107
loop_
_atom_site_label
_atom_site_type_symbol
_atom_site_fract_x
_atom_site_fract_y
_atom_site_fract_z
_atom_type_partial_charge
In0 In 0.3084 0.31158 0.28348 0.0
O1 O 0.25793 0.21937 0.26017 0.0
O2 O 0.23759 0.27612 0.20238 0.0
C3 C 0.31059 0.30632 0.39607 0.0
C4 C 0.4311 0.29672 0.25973 0.0
C5 C 0.28159 0.41465 0.26037 0.0
O6 O 0.25789 0.31099 0.36512 0.0
O7 O 0.36122 0.30523 0.37043 0.0
O8 O 0.31994 0.38453 0.234 0.0
O9 O 0.25561 0.39262 0.29852 0.0
C10 C 0.22927 0.22583 0.21247 0.0
O11 O 0.41757 0.3424 0.28948 0.0
O12 O 0.38257 0.25871 0.24176 0.0
In13 In 0.00802 0.00743 0.51368 0.0
O14 O 0.05927 0.04595 0.60354 0.0
O15 O 0.03609 0.95522 0.58318 0.0
C16 C -0.00404 0.11825 0.5081 0.0
C17 C 0.08342 0.95311 0.441 0.0
C18 C 0.87997 0.9642 0.48717 0.0
O19 O 0.97569 0.0939 0.54705 0.0
O20 O 0.02351 0.0869 0.47155 0.0
O21 O 0.91215 0.98788 0.45367 0.0
O22 O 0.91263 0.96156 0.53459 0.0
C23 C 0.05946 -0.00128 0.62077 0.0
O24 O 0.02328 0.93651 0.44163 0.0
O25 O 0.10655 -0.00271 0.47784 0.0
In26 In 0.30309 0.7415 0.75452 0.0
O27 O 0.20001 0.69154 0.73037 0.0
O28 O 0.21111 0.78119 0.72883 0.0
C29 C 0.37541 0.65246 0.7525 0.0
C30 C 0.34965 0.80579 0.68165 0.0
C31 C 0.29277 0.76973 0.86733 0.0
O32 O 0.32634 0.65259 0.71547 0.0
O33 O 0.38967 0.69806 0.7894 0.0
O34 O 0.3354 0.79744 0.84435 0.0
O35 O 0.25687 0.72928 0.83343 0.0
C36 C 0.17243 0.73541 0.72273 0.0
O37 O 0.35213 0.82551 0.73491 0.0
O38 O 0.32727 0.75345 0.66654 0.0
In39 In 0.51169 0.00755 0.02673 0.0
O40 O 0.45358 0.02866 0.94668 0.0
O41 O 0.50416 0.09779 0.01037 0.0
C42 C 0.51279 0.89383 0.01556 0.0
C43 C 0.63999 0.01685 0.01338 0.0
C44 C 0.44268 0.02002 0.11693 0.0
O45 O 0.48049 0.91563 0.97765 0.0
O46 O 0.542 0.92936 0.05862 0.0
O47 O 0.49857 0.04836 0.11784 0.0
O48 O 0.42031 0.98748 0.06962 0.0
C49 C 0.46979 0.08236 0.96178 0.0
O50 O 0.62127 0.03534 0.06158 0.0
O51 O 0.59405 -0.00236 0.97291 0.0
In52 In 0.3067 0.75812 0.21874 0.0
O53 O 0.29278 0.66284 0.18135 0.0
O54 O 0.27073 0.68777 0.26683 0.0
C55 C 0.2914 0.77982 0.11022 0.0
C56 C 0.23617 0.8254 0.28592 0.0
C57 C 0.43693 0.76836 0.25514 0.0
O58 O 0.24961 0.74811 0.12937 0.0
O59 O 0.34038 0.80242 0.14638 0.0
O60 O 0.40629 0.81151 0.25211 0.0
O61 O 0.40193 0.72055 0.23981 0.0
C62 C 0.27447 0.64715 0.22585 0.0
O63 O 0.2977 0.82554 0.29718 0.0
O64 O 0.21012 0.79147 0.24068 0.0
In65 In 0.48332 -0.00212 0.44284 0.0
O66 O 0.44079 0.99515 0.52726 0.0
O67 O 0.42331 0.91969 0.46282 0.0
C68 C 0.52877 0.11041 0.46308 0.0
C69 C 0.60074 0.95615 0.45105 0.0
C70 C 0.40787 0.993 0.34161 0.0
O71 O 0.48543 0.09004 0.49061 0.0
O72 O 0.5496 0.07398 0.42636 0.0
O73 O 0.4409 0.95295 0.35194 0.0
O74 O 0.40775 0.0326 0.38428 0.0
C75 C 0.41751 0.9429 0.51362 0.0
O76 O 0.5676 0.9565 0.40323 0.0
O77 O 0.57385 0.97546 0.49437 0.0
In78 In 0.34993 0.31781 0.75452 0.0
O79 O 0.38682 0.23178 0.76359 0.0
O80 O 0.4048 0.29837 0.83693 0.0
C81 C 0.33203 0.30212 0.63888 0.0
C82 C 0.22328 0.30223 0.77448 0.0
C83 C 0.41246 0.42541 0.77229 0.0
O84 O 0.38297 0.28887 0.66652 0.0
O85 O 0.29005 0.32188 0.66957 0.0
O86 O 0.37325 0.40916 0.80544 0.0
O87 O 0.42433 0.38615 0.73325 0.0
C88 C 0.4085 0.24648 0.81626 0.0
O89 O 0.25743 0.35077 0.78789 0.0
O90 O 0.25368 0.26197 0.75273 0.0
In91 In 0.03055 0.95734 0.95809 0.0
O92 O 0.92011 0.9533 0.9312 0.0
O93 O 0.95598 0.99025 0.01778 0.0
C94 C 0.06574 0.97669 0.85643 0.0
C95 C 0.10893 0.03701 0.03602 0.0
C96 C 0.0317 0.8453 0.96306 0.0
O97 O 0.0265 0.00506 0.88358 0.0
O98 O 0.08874 0.93832 0.88085 0.0
O99 O 0.0755 0.88309 0.99255 0.0
O100 O 0.99019 0.86412 0.93005 0.0
C101 C 0.90691 0.97692 0.97951 0.0
O102 O 0.09362 0.98698 0.04527 0.0
O103 O 0.08782 0.04522 0.98662 0.0
In104 In 0.80712 0.25721 0.73921 0.0
O105 O 0.7966 0.32933 0.81278 0.0
O106 O 0.71094 0.29608 0.75361 0.0
C107 C 0.93989 0.27192 0.75763 0.0
C108 C 0.77703 0.15776 0.77594 0.0
C109 C 0.7948 0.25874 0.62506 0.0
O110 O 0.90569 0.31168 0.77352 0.0
O111 O 0.90708 0.22515 0.73234 0.0
O112 O 0.77804 0.2149 0.64558 0.0
O113 O 0.81551 0.30312 0.66225 0.0
C114 C 0.73608 0.33147 0.7982 0.0
O115 O 0.7434 0.17137 0.73372 0.0
O116 O 0.82314 0.19555 0.80114 0.0
In117 In 0.9783 0.49409 0.95822 0.0
O118 O 0.0675 0.48063 0.90993 0.0
O119 O 0.07444 0.46671 0.99606 0.0
C120 C 0.9136 0.48476 0.85137 0.0
C121 C 0.92451 0.43263 0.03093 0.0
C122 C -0.00528 0.60899 0.98933 0.0
O123 O 0.94421 0.44494 0.86638 0.0
O124 O 0.91049 0.52598 0.89154 0.0
O125 O 0.93844 0.57978 0.97925 0.0
O126 O 0.04309 0.57995 0.98802 0.0
C127 C 0.10253 0.46748 0.95157 0.0
O128 O 0.9496 0.48417 0.04619 0.0
O129 O 0.92162 0.41324 0.97775 0.0
In130 In 0.84412 0.78833 0.2589 0.0
O131 O 0.87786 0.70073 0.26604 0.0
O132 O 0.90313 0.76748 0.33871 0.0
C133 C 0.82433 0.7716 0.14319 0.0
C134 C 0.71912 0.78284 0.28388 0.0
C135 C 0.90572 0.8961 0.27354 0.0
O136 O 0.88058 0.77187 0.17118 0.0
O137 O 0.77747 0.77601 0.17328 0.0
O138 O 0.86988 0.88021 0.30935 0.0
O139 O 0.91465 0.85661 0.23354 0.0
C140 C 0.9035 0.71516 0.31774 0.0
O141 O 0.75605 0.82983 0.29107 0.0
O142 O 0.74611 0.73891 0.26593 0.0
In143 In 0.00767 0.47477 0.52649 0.0
O144 O 0.11728 0.49543 0.56286 0.0
O145 O 0.09136 0.46054 0.4737 0.0
C146 C 0.94714 0.49785 0.62096 0.0
C147 C 0.96756 0.55038 0.46148 0.0
C148 C -0.0089 0.36021 0.51468 0.0
O149 O 0.00458 0.521 0.61774 0.0
O150 O 0.91879 0.46538 0.5754 0.0
O151 O 0.97188 0.38491 0.47368 0.0
O152 O 0.01701 0.39322 0.56054 0.0
C153 C 0.13675 0.47768 0.51499 0.0
O154 O 0.9467 0.49736 0.44842 0.0
O155 O 0.00598 0.56491 0.508 0.0
In156 In 0.51134 0.53839 0.00936 0.0
O157 O 0.52333 0.46517 0.93751 0.0
O158 O 0.6099 0.52011 0.9765 0.0
C159 C 0.38356 0.49713 0.97874 0.0
C160 C 0.52874 0.52733 0.12089 0.0
C161 C 0.52757 0.6514 0.00384 0.0
O162 O 0.40986 0.54061 0.96232 0.0
O163 O 0.42169 0.47416 0.011 0.0
O164 O 0.55017 0.63183 0.04705 0.0
O165 O 0.49931 0.61374 0.96232 0.0
C166 C 0.58476 0.47709 0.93911 0.0
O167 O 0.48254 0.55172 0.09961 0.0
O168 O 0.5675 0.50884 0.08596 0.0
In169 In 0.79778 0.8109 0.79632 0.0
O170 O 0.88349 0.8185 0.7431 0.0
O171 O 0.88114 0.75444 0.79519 0.0
C172 C 0.78057 0.9214 0.79584 0.0
C173 C 0.72045 0.73134 0.71734 0.0
C174 C 0.79563 0.80718 0.90875 0.0
O175 O 0.83632 0.90451 0.80654 0.0
O176 O 0.73217 0.88227 0.7851 0.0
O177 O 0.74436 0.79159 0.87263 0.0
O178 O 0.84569 0.8259 0.88813 0.0
C179 C 0.91037 0.77762 0.75959 0.0
O180 O 0.7412 0.72239 0.76654 0.0
O181 O 0.73479 0.78191 0.70933 0.0
In182 In 0.82322 0.22629 0.26994 0.0
O183 O 0.71445 0.19952 0.23445 0.0
O184 O 0.74614 0.28702 0.2733 0.0
C185 C 0.87882 0.12807 0.25866 0.0
C186 C 0.87413 0.2865 0.19584 0.0
C187 C 0.81671 0.24043 0.38318 0.0
O188 O 0.82474 0.13311 0.22979 0.0
O189 O 0.90665 0.17346 0.29158 0.0
O190 O 0.85468 0.27473 0.36238 0.0
O191 O 0.78435 0.19941 0.3471 0.0
C192 C 0.69891 0.24966 0.24954 0.0
O193 O 0.8887 0.3022 0.24983 0.0
O194 O 0.83833 0.23901 0.18018 0.0
In195 In 0.53404 0.46016 0.45911 0.0
O196 O 0.61578 0.49518 0.53348 0.0
O197 O 0.56664 0.55501 0.493 0.0
C198 C 0.56019 0.35273 0.46867 0.0
C199 C 0.40832 0.45968 0.48144 0.0
C200 C 0.53927 0.48478 0.3532 0.0
O201 O 0.53427 0.3846 0.50572 0.0
O202 O 0.57444 0.37532 0.42657 0.0
O203 O 0.48808 0.48609 0.37822 0.0
O204 O 0.589 0.4705 0.38155 0.0
C205 C 0.60856 0.54708 0.53275 0.0
O206 O 0.42396 0.433 0.43518 0.0
O207 O 0.45624 0.48574 0.51707 0.0
C208 C 0.19137 0.12104 0.17976 0.0
C209 C 0.19597 0.17737 0.16871 0.0
H210 H 0.16057 0.03183 0.14587 0.0
C211 C 0.17322 0.18677 0.11366 0.0
H212 H 0.2092 0.11263 0.22176 0.0
C213 C 0.14668 0.14075 0.07026 0.0
C214 C 0.14185 0.08443 0.08115 0.0
H215 H 0.17667 0.22968 0.10377 0.0
H216 H 0.12924 0.14948 0.0283 0.0
C217 C 0.16422 0.07486 0.13629 0.0
C218 C 0.09118 0.88065 0.35388 0.0
C219 C 0.12294 0.92256 0.4002 0.0
H220 H 0.10225 0.81751 0.28098 0.0
C221 C 0.19221 0.93394 0.4075 0.0
H222 H 0.03775 0.87125 0.34706 0.0
C223 C 0.22922 0.90276 0.36986 0.0
C224 C 0.19737 0.86028 0.32402 0.0
H225 H 0.21783 0.9661 0.44285 0.0
H226 H 0.28269 0.91162 0.37688 0.0
C227 C 0.12804 0.85002 0.31595 0.0
C228 C 0.37366 0.85034 0.53932 0.0
C229 C 0.39464 0.90936 0.55611 0.0
H230 H 0.34392 0.77139 0.56593 0.0
C231 C 0.4001 0.93448 0.61471 0.0
H232 H 0.36929 0.82969 0.49456 0.0
C233 C 0.38611 0.90089 0.65584 0.0
C234 C 0.36641 0.84163 0.63905 0.0
H235 H 0.41665 0.97983 0.62898 0.0
H236 H 0.39101 0.92126 0.70071 0.0
C237 C 0.35969 0.81686 0.58032 0.0
C238 C 0.46761 0.18347 0.94587 0.0
C239 C 0.45393 0.12414 0.92431 0.0
H240 H 0.4645 0.26871 0.92847 0.0
C241 C 0.42805 0.10543 0.86622 0.0
H242 H 0.48799 0.19922 0.9904 0.0
C243 C 0.41567 0.14529 0.83051 0.0
C244 C 0.4283 0.20462 0.85236 0.0
H245 H 0.41766 0.06 0.84825 0.0
H246 H 0.39484 0.12958 0.78609 0.0
C247 C 0.4546 0.22329 0.91035 0.0
C248 C 0.62821 0.36426 0.82129 0.0
C249 C 0.69756 0.37091 0.83204 0.0
H250 H 0.53812 0.39262 0.84713 0.0
C251 C 0.72981 0.41437 0.87679 0.0
H252 H 0.6021 0.33112 0.78708 0.0
C253 C 0.69324 0.44991 0.91087 0.0
C254 C 0.62382 0.44216 0.90115 0.0
H255 H 0.78331 0.42057 0.88584 0.0
H256 H 0.71926 0.48261 0.94554 0.0
C257 C 0.59164 0.39938 0.85575 0.0
C258 C 0.92469 0.41732 0.13252 0.0
C259 C 0.90885 0.39596 0.07313 0.0
H260 H 0.92754 0.39915 0.218 0.0
C261 C 0.88353 0.33799 0.05456 0.0
H262 H 0.94495 0.46172 0.14813 0.0
C263 C 0.87404 0.30216 0.09455 0.0
C264 C 0.89006 0.32344 0.15393 0.0
H265 H 0.87148 0.32016 0.00911 0.0
H266 H 0.85375 0.25777 0.07889 0.0
C267 C 0.91556 0.38137 0.17253 0.0
C268 C 0.92072 0.57372 0.36746 0.0
C269 C 0.95155 0.59224 0.42421 0.0
H270 H 0.88275 0.59818 0.28872 0.0
C271 C 0.96948 0.65138 0.44466 0.0
H272 H 0.90698 0.5284 0.35036 0.0
C273 C 0.9556 0.69129 0.40949 0.0
C274 C 0.9242 0.67286 0.35292 0.0
H275 H -0.0063 0.66694 0.48813 0.0
H276 H 0.96877 0.73663 0.42685 0.0
C277 C 0.90749 0.61365 0.33203 0.0
C278 C 0.63627 0.65166 0.5727 0.0
C279 C 0.63993 0.59431 0.57878 0.0
H280 H 0.65877 0.74037 0.61223 0.0
C281 C 0.66879 0.5824 0.63108 0.0
H282 H 0.61383 0.66191 0.53286 0.0
C283 C 0.69299 0.62711 0.67678 0.0
C284 C 0.68959 0.6845 0.67067 0.0
H285 H 0.67155 0.53853 0.6371 0.0
H286 H 0.7153 0.61671 0.7166 0.0
C287 C 0.6614 0.69646 0.61817 0.0
C288 C 0.26117 0.31579 0.48863 0.0
C289 C 0.31389 0.30261 0.45753 0.0
H290 H 0.2258 0.3264 0.57091 0.0
C291 C 0.37108 0.28657 0.48586 0.0
H292 H 0.21649 0.32821 0.46779 0.0
C293 C 0.37596 0.28453 0.54444 0.0
C294 C 0.32425 0.29937 0.57602 0.0
H295 H 0.4122 0.27565 0.46271 0.0
H296 H 0.4206 0.27228 0.56533 0.0
C297 C 0.26652 0.31464 0.54756 0.0
C298 C 0.06919 0.03782 0.78166 0.0
C299 C 0.07789 0.98494 0.79833 0.0
H300 H 0.05881 0.08402 0.7122 0.0
C301 C 0.08998 0.9386 0.75718 0.0
H302 H 0.06018 0.07431 0.81273 0.0
C303 C 0.08748 0.94372 0.6992 0.0
C304 C 0.07486 0.9957 0.6821 0.0
H305 H 0.09706 0.89752 0.76924 0.0
H306 H 0.09284 0.90661 0.66742 0.0
C307 C 0.06862 0.0434 0.72416 0.0
C308 C 0.24011 0.74415 0.95028 0.0
C309 C 0.28759 0.77934 0.92961 0.0
H310 H 0.20468 0.71674 0.0234 0.0
C311 C 0.33214 0.81957 0.96913 0.0
H312 H 0.2045 0.71303 0.92098 0.0
C313 C 0.33234 0.82154 0.02842 0.0
C314 C 0.28688 0.78409 0.04877 0.0
H315 H 0.36808 0.84798 0.95417 0.0
H316 H 0.3692 0.85105 0.05806 0.0
C317 C 0.23985 0.74648 0.00912 0.0
C318 C 0.41013 0.05752 0.27042 0.0
C319 C 0.39279 0.00248 0.28223 0.0
H320 H 0.44114 0.10595 0.20793 0.0
C321 C 0.37835 0.95561 0.23642 0.0
H322 H 0.42219 0.0944 0.30503 0.0
C323 C 0.38747 0.96276 0.18048 0.0
C324 C 0.41313 0.01652 0.17019 0.0
H325 H 0.3649 0.91289 0.24455 0.0
H326 H 0.38084 0.92521 0.14661 0.0
C327 C 0.42147 0.06425 0.21496 0.0
C328 C 0.5517 0.32879 0.27557 0.0
C329 C 0.49916 0.28672 0.25075 0.0
H330 H 0.65623 0.35021 0.29391 0.0
C331 C 0.51257 0.2338 0.22068 0.0
H332 H 0.54263 0.36985 0.29884 0.0
C333 C 0.57781 0.22192 0.21842 0.0
C334 C 0.63032 0.26331 0.24547 0.0
H335 H 0.47268 0.20111 0.20028 0.0
H336 H 0.58705 0.18006 0.19681 0.0
C337 C 0.61671 0.31736 0.27271 0.0
C338 C 0.97977 0.27418 0.5601 0.0
C339 C 0.98602 0.29757 0.51036 0.0
H340 H 0.97653 0.19886 0.59781 0.0
C341 C -0.00782 0.26123 0.45858 0.0
H342 H 0.97447 0.3014 0.60046 0.0
C343 C -0.00485 0.20247 0.45737 0.0
C344 C 0.99017 0.17937 0.50757 0.0
H345 H -0.00274 0.27854 0.41977 0.0
H346 H 0.00194 0.17533 0.41748 0.0
C347 C 0.98085 0.21554 0.55853 0.0
C348 C 9e-05 0.71381 0.76065 0.0
C349 C 0.97295 0.76019 0.74128 0.0
H350 H 0.08489 0.6682 0.76803 0.0
C351 C 0.00813 0.79188 0.7073 0.0
H352 H 0.97369 0.68834 0.78653 0.0
C353 C 0.07176 0.78044 0.69697 0.0
C354 C 0.10067 0.7368 0.71984 0.0
H355 H 0.98801 0.82743 0.69126 0.0
H356 H 0.09977 0.80753 0.67364 0.0
C357 C 0.06339 0.70188 0.74959 0.0
C358 C 0.49736 0.7338 0.95709 0.0
C359 C 0.528 0.71354 0.00437 0.0
H360 H 0.46886 0.80708 0.92318 0.0
C361 C 0.55491 0.75305 0.05418 0.0
H362 H 0.47613 0.70426 0.91812 0.0
C363 C 0.54988 0.81146 0.05732 0.0
C364 C 0.51796 0.83176 0.01068 0.0
H365 H 0.57871 0.73877 0.09134 0.0
H366 H 0.57042 0.84065 0.09676 0.0
C367 C 0.49265 0.79253 0.96014 0.0
C368 C 0.60903 0.72619 0.27694 0.0
C369 C 0.64753 0.77986 0.28672 0.0
H370 H 0.51181 0.68057 0.2594 0.0
C371 C 0.61613 0.83009 0.29184 0.0
H372 H 0.63197 0.68674 0.27272 0.0
C373 C 0.54721 0.82662 0.2842 0.0
C374 C 0.50886 0.7728 0.27108 0.0
H375 H 0.64469 0.87188 0.29854 0.0
H376 H 0.52413 0.8659 0.28614 0.0
C377 C 0.54025 0.72268 0.26919 0.0
C378 C 0.57274 0.19465 0.42284 0.0
C379 C 0.54822 0.17257 0.46869 0.0
H380 H 0.59564 0.26968 0.38665 0.0
C381 C 0.53722 0.21067 0.51767 0.0
H382 H 0.58201 0.1661 0.38463 0.0
C383 C 0.54664 0.26984 0.51936 0.0
C384 C 0.56516 0.29181 0.47142 0.0
H385 H 0.51928 0.19472 0.5539 0.0
H386 H 0.53592 0.29829 0.55704 0.0
C387 C 0.58068 0.25389 0.42399 0.0
C388 C 0.11709 0.34083 0.79455 0.0
C389 C 0.15156 0.29395 0.77692 0.0
H390 H 0.02235 0.3706 0.80209 0.0
C391 C 0.11612 0.23943 0.75639 0.0
H392 H 0.14327 0.38333 0.81045 0.0
C393 C 0.04731 0.23226 0.75127 0.0
C394 C 0.01263 0.27941 0.76685 0.0
H395 H 0.14139 0.20249 0.74256 0.0
H396 H 0.02128 0.18994 0.73402 0.0
C397 C 0.04801 0.33358 0.7896 0.0
C398 C 0.06784 0.76448 0.01012 0.0
C399 C 0.02453 0.78469 0.97014 0.0
H400 H 0.09207 0.69195 0.04801 0.0
C401 C 0.97077 0.74712 0.9388 0.0
H402 H 0.1095 0.79264 0.0351 0.0
C403 C 0.95932 0.69106 0.948 0.0
C404 C 0.00283 0.67055 0.98726 0.0
H405 H 0.93699 0.76106 0.90727 0.0
H406 H 0.91774 0.66304 0.92259 0.0
C407 C 0.05757 0.70736 0.01799 0.0
C408 C 0.28929 0.48846 0.19816 0.0
C409 C 0.27148 0.47235 0.24905 0.0
H410 H 0.30264 0.55611 0.15042 0.0
C411 C 0.24862 0.51295 0.2902 0.0
H412 H 0.30677 0.4579 0.16558 0.0
C413 C 0.24698 0.56965 0.28184 0.0
C414 C 0.26726 0.58622 0.23183 0.0
H415 H 0.23473 0.50154 0.32985 0.0
H416 H 0.23179 0.60083 0.31521 0.0
C417 C 0.28669 0.5447 0.18942 0.0
C418 C 0.71852 0.05769 0.76071 0.0
C419 C 0.77102 0.09901 0.7885 0.0
H420 H 0.67977 0.96838 0.742 0.0
C421 C 0.82284 0.082 0.82302 0.0
H422 H 0.67799 0.06972 0.73378 0.0
C423 C 0.82459 0.02433 0.8265 0.0
C424 C 0.77383 0.98259 0.79663 0.0
H425 H 0.86406 0.11277 0.84491 0.0
H426 H 0.86672 0.01225 0.85141 0.0
C427 C 0.71958 -0.00016 0.76527 0.0
C428 C 0.27872 0.45296 0.00489 0.0
C429 C 0.31235 0.4786 0.96568 0.0
H430 H 0.18468 0.42932 0.03105 0.0
C431 C 0.27645 0.4923 0.91716 0.0
H432 H 0.30555 0.44212 0.04267 0.0
C433 C 0.2075 0.48409 0.90997 0.0
C434 C 0.17367 0.46318 0.95186 0.0
H435 H 0.30162 0.5116 0.88609 0.0
H436 H 0.18086 0.49764 0.87365 0.0
C437 C 0.2097 0.44575 -0.00172 0.0
C438 C 0.88707 0.02815 0.2108 0.0
C439 C 0.90162 0.07143 0.25984 0.0
H440 H 0.88012 0.93832 0.17666 0.0
C441 C 0.92858 0.05761 0.31203 0.0
H442 H 0.86579 0.03778 0.17036 0.0
C443 C 0.93513 0.00033 0.3161 0.0
C444 C 0.91646 0.95672 0.26779 0.0
H445 H 0.93962 0.09024 0.3506 0.0
H446 H 0.95208 0.98977 0.35722 0.0
C447 C 0.89552 0.97137 0.21449 0.0
C448 C 0.82714 0.02529 0.03918 0.0
C449 C 0.83938 0.98829 0.98963 0.0
H450 H 0.75359 0.06379 0.08606 0.0
C451 C 0.78624 0.96232 0.94853 0.0
H452 H 0.86764 0.04622 0.0713 0.0
C453 C 0.72212 0.97353 0.9558 0.0
C454 C 0.70929 0.01009 0.00532 0.0
H455 H 0.79414 0.93259 0.91096 0.0
H456 H 0.68237 0.95214 0.92308 0.0
C457 C 0.76226 0.03578 0.04729 0.0
C458 C 0.41887 0.58525 0.81283 0.0
C459 C 0.40504 0.59945 0.75813 0.0
H460 H 0.43319 0.51721 0.86004 0.0
C461 C 0.40852 0.55841 0.709 0.0
H462 H 0.41603 0.61614 0.85139 0.0
C463 C 0.41986 0.50244 0.71426 0.0
C464 C 0.42569 0.4865 0.76869 0.0
H465 H 0.39836 0.56872 0.66651 0.0
H466 H 0.41731 0.47044 0.67549 0.0
C467 C 0.42838 0.52884 0.81796 0.0
C468 C 0.25665 0.48768 0.55461 0.0
C469 C 0.20672 0.47431 0.50739 0.0
H470 H 0.36041 0.4927 0.58325 0.0
C471 C 0.22371 0.45553 0.45215 0.0
H472 H 0.24482 0.50187 0.5977 0.0
C473 C 0.28931 0.4503 0.44422 0.0
C474 C 0.33917 0.46349 0.49116 0.0
H475 H 0.18632 0.44479 0.41489 0.0
H476 H 0.30132 0.43662 0.40124 0.0
C477 C 0.32255 0.48236 0.54646 0.0
C478 C 0.85929 0.81905 0.00581 0.0
C479 C 0.7998 0.79992 0.96942 0.0
H480 H 0.91467 0.82239 0.08795 0.0
C481 C 0.74735 0.77106 0.99075 0.0
H482 H 0.89958 0.84319 0.99148 0.0
C483 C 0.75522 0.76074 0.0473 0.0
C484 C 0.81616 0.77774 0.08242 0.0
H485 H 0.70068 0.7562 0.96378 0.0
H486 H 0.71403 0.73919 0.06341 0.0
C487 C 0.86797 0.80701 0.06114 0.0
C488 C 0.59105 0.48497 0.26216 0.0
C489 C 0.5393 0.49781 0.29471 0.0
H490 H 0.62818 0.48388 0.18095 0.0
C491 C 0.48563 0.52202 0.27033 0.0
H492 H 0.63285 0.46606 0.27991 0.0
C493 C 0.48334 0.53275 0.21438 0.0
C494 C 0.5342 0.51878 0.18121 0.0
H495 H 0.445 0.53246 0.29436 0.0
H496 H 0.44098 0.55107 0.1968 0.0
C497 C 0.58832 0.49506 0.20563 0.0
C498 C 0.8255 0.29996 0.48214 0.0
C499 C 0.80948 0.24676 0.44486 0.0
H500 H 0.83294 0.34584 0.56885 0.0
C501 C 0.78446 0.19889 0.46654 0.0
H502 H 0.8433 0.33776 0.46606 0.0
C503 C 0.77782 0.20351 0.52479 0.0
C504 C 0.79585 0.25619 0.56268 0.0
H505 H 0.77106 0.1574 0.43861 0.0
H506 H 0.75982 0.16538 0.5403 0.0
C507 C 0.81887 0.30465 0.54073 0.0
C508 C 0.93923 0.54763 0.72052 0.0
C509 C 0.92173 0.49935 0.67672 0.0
H510 H 0.94729 0.58108 0.81072 0.0
C511 C 0.88994 0.44891 0.68962 0.0
H512 H 0.964 0.58683 0.71152 0.0
C513 C 0.88187 0.44504 0.74657 0.0
C514 C 0.90387 0.492 0.79092 0.0
H515 H 0.8766 0.41097 0.65659 0.0
H516 H 0.86148 0.40475 0.75628 0.0
C517 C 0.92935 0.54428 0.77711 0.0
C518 C 0.77578 0.95065 0.41984 0.0
C519 C 0.80807 0.94847 0.47451 0.0
H520 H 0.68394 0.95479 0.36964 0.0
C521 C 0.77043 0.93902 0.51867 0.0
H522 H 0.80373 0.95771 0.38497 0.0
C523 C 0.70169 0.93716 0.50973 0.0
C524 C 0.66989 0.9441 0.4564 0.0
H525 H 0.79422 0.93702 0.56116 0.0
H526 H 0.67385 0.9336 0.54547 0.0
C527 C 0.70714 0.94843 0.41085 0.0
loop_
_geom_bond_atom_site_label_1
_geom_bond_atom_site_label_2
_geom_bond_distance
_geom_bond_site_symmetry_2
_ccdc_geom_bond_type
In0 O1 2.294 . S
In0 O2 2.326 . S
In0 O6 2.266 . S
In0 O7 2.326 . S
In0 O8 2.266 . S
In0 O9 2.326 . S
In0 O11 2.294 . S
In0 O12 2.326 . S
O1 In0 2.294 . S
O1 C10 1.240 . S
O2 In0 2.326 . S
O2 C10 1.252 . S
C3 O6 1.252 . S
C3 O7 1.260 . S
C4 O11 1.240 . S
C4 O12 1.252 . S
C5 O8 1.252 . S
C5 O9 1.260 . S
O6 In0 2.266 . S
O6 C3 1.252 . S
O7 In0 2.326 . S
O7 C3 1.260 . S
O8 In0 2.266 . S
O8 C5 1.252 . S
O9 In0 2.326 . S
O9 C5 1.260 . S
C10 O1 1.240 . S
C10 O2 1.252 . S
O11 In0 2.294 . S
O11 C4 1.240 . S
O12 In0 2.326 . S
O12 C4 1.252 . S
In13 O14 2.294 1_665 S
In13 O15 2.325 . S
In13 O19 2.268 1_665 S
In13 O20 2.327 1_565 S
In13 O21 2.266 . S
In13 O22 2.326 1_565 S
In13 O24 2.293 1_655 S
In13 O25 2.326 1_655 S
O14 In13 2.294 1_445 S
O14 C23 1.240 1_545 S
O15 In13 2.325 . S
O15 C23 1.252 1_655 S
C16 O19 1.252 . S
C16 O20 1.260 1_455 S
C17 O24 1.240 . S
C17 O25 1.252 . S
C18 O21 1.245 1_545 S
C18 O22 1.266 . S
O19 In13 2.268 1_445 S
O19 C16 1.252 . S
O20 In13 2.327 1_545 S
O20 C16 1.260 1_655 S
O21 In13 2.266 . S
O21 C18 1.245 1_565 S
O22 In13 2.326 1_545 S
O22 C18 1.266 . S
C23 O14 1.240 1_565 S
C23 O15 1.252 1_455 S
O24 In13 2.293 1_455 S
O24 C17 1.240 . S
O25 In13 2.326 1_455 S
O25 C17 1.252 . S
In26 O27 2.294 . S
In26 O28 2.326 . S
In26 O32 2.266 . S
In26 O33 2.326 . S
In26 O34 2.266 . S
In26 O35 2.326 . S
In26 O37 2.294 . S
In26 O38 2.326 . S
O27 In26 2.294 . S
O27 C36 1.240 . S
O28 In26 2.326 . S
O28 C36 1.252 . S
C29 O32 1.252 . S
C29 O33 1.260 . S
C30 O37 1.240 . S
C30 O38 1.252 . S
C31 O34 1.252 . S
C31 O35 1.260 . S
O32 In26 2.266 . S
O32 C29 1.252 . S
O33 In26 2.326 . S
O33 C29 1.260 . S
O34 In26 2.266 . S
O34 C31 1.252 . S
O35 In26 2.326 . S
O35 C31 1.260 . S
C36 O27 1.240 . S
C36 O28 1.252 . S
O37 In26 2.294 . S
O37 C30 1.240 . S
O38 In26 2.326 . S
O38 C30 1.252 . S
In39 O40 2.294 1_554 S
In39 O41 2.326 1_564 S
In39 O45 2.266 1_554 S
In39 O46 2.326 . S
In39 O47 2.266 . S
In39 O48 2.326 . S
In39 O50 2.294 1_565 S
In39 O51 2.326 1_554 S
O40 In39 2.294 1_556 S
O40 C49 1.240 1_565 S
O41 In39 2.326 1_546 S
O41 C49 1.252 . S
C42 O45 1.252 1_554 S
C42 O46 1.260 . S
C43 O50 1.240 1_566 S
C43 O51 1.252 . S
C44 O47 1.252 . S
C44 O48 1.260 . S
O45 In39 2.266 1_556 S
O45 C42 1.252 1_556 S
O46 In39 2.326 . S
O46 C42 1.260 . S
O47 In39 2.266 . S
O47 C44 1.252 . S
O48 In39 2.326 . S
O48 C44 1.260 . S
C49 O40 1.240 1_545 S
C49 O41 1.252 . S
O50 In39 2.294 1_545 S
O50 C43 1.240 1_544 S
O51 In39 2.326 1_556 S
O51 C43 1.252 . S
In52 O53 2.294 . S
In52 O54 2.326 . S
In52 O58 2.266 . S
In52 O59 2.326 . S
In52 O60 2.266 . S
In52 O61 2.326 . S
In52 O63 2.294 . S
In52 O64 2.326 . S
O53 In52 2.294 . S
O53 C62 1.240 . S
O54 In52 2.326 . S
O54 C62 1.252 . S
C55 O58 1.252 . S
C55 O59 1.260 . S
C56 O63 1.240 . S
C56 O64 1.252 . S
C57 O60 1.252 . S
C57 O61 1.260 . S
O58 In52 2.266 . S
O58 C55 1.252 . S
O59 In52 2.326 . S
O59 C55 1.260 . S
O60 In52 2.266 . S
O60 C57 1.252 . S
O61 In52 2.326 . S
O61 C57 1.260 . S
C62 O53 1.240 . S
C62 O54 1.252 . S
O63 In52 2.294 . S
O63 C56 1.240 . S
O64 In52 2.326 . S
O64 C56 1.252 . S
In65 O66 2.294 1_545 S
In65 O67 2.326 1_545 S
In65 O71 2.266 . S
In65 O72 2.326 . S
In65 O73 2.266 1_545 S
In65 O74 2.326 . S
In65 O76 2.294 1_545 S
In65 O77 2.326 . S
O66 In65 2.294 1_565 S
O66 C75 1.240 . S
O67 In65 2.326 1_565 S
O67 C75 1.252 . S
C68 O71 1.252 . S
C68 O72 1.260 . S
C69 O76 1.240 1_545 S
C69 O77 1.252 . S
C70 O73 1.252 . S
C70 O74 1.260 1_565 S
O71 In65 2.266 . S
O71 C68 1.252 . S
O72 In65 2.326 . S
O72 C68 1.260 . S
O73 In65 2.266 1_565 S
O73 C70 1.252 . S
O74 In65 2.326 . S
O74 C70 1.260 1_545 S
C75 O66 1.240 . S
C75 O67 1.252 . S
O76 In65 2.294 1_565 S
O76 C69 1.240 1_565 S
O77 In65 2.326 . S
O77 C69 1.252 . S
In78 O79 2.294 . S
In78 O80 2.326 . S
In78 O84 2.266 . S
In78 O85 2.326 . S
In78 O86 2.266 . S
In78 O87 2.326 . S
In78 O89 2.294 . S
In78 O90 2.326 . S
O79 In78 2.294 . S
O79 C88 1.240 . S
O80 In78 2.326 . S
O80 C88 1.252 . S
C81 O84 1.252 . S
C81 O85 1.260 . S
C82 O89 1.240 . S
C82 O90 1.252 . S
C83 O86 1.252 . S
C83 O87 1.260 . S
O84 In78 2.266 . S
O84 C81 1.252 . S
O85 In78 2.326 . S
O85 C81 1.260 . S
O86 In78 2.266 . S
O86 C83 1.252 . S
O87 In78 2.326 . S
O87 C83 1.260 . S
C88 O79 1.240 . S
C88 O80 1.252 . S
O89 In78 2.294 . S
O89 C82 1.240 . S
O90 In78 2.326 . S
O90 C82 1.252 . S
In91 O92 2.295 . S
In91 O93 2.327 1_556 S
In91 O97 2.266 . S
In91 O98 2.325 1_655 S
In91 O99 2.266 1_655 S
In91 O100 2.326 . S
In91 O102 2.293 1_666 S
In91 O103 2.326 1_665 S
O92 In91 2.295 . S
O92 C101 1.240 . S
O93 In91 2.327 1_554 S
O93 C101 1.252 1_554 S
C94 O97 1.252 1_455 S
C94 O98 1.260 . S
C95 O102 1.240 . S
C95 O103 1.252 1_554 S
C96 O99 1.252 . S
C96 O100 1.260 1_455 S
O97 In91 2.266 . S
O97 C94 1.252 1_655 S
O98 In91 2.325 1_455 S
O98 C94 1.260 . S
O99 In91 2.266 1_455 S
O99 C96 1.252 . S
O100 In91 2.326 . S
O100 C96 1.260 1_655 S
C101 O92 1.240 . S
C101 O93 1.252 1_556 S
O102 In91 2.293 1_444 S
O102 C95 1.240 . S
O103 In91 2.326 1_445 S
O103 C95 1.252 1_556 S
In104 O105 2.294 . S
In104 O106 2.326 . S
In104 O110 2.266 . S
In104 O111 2.326 . S
In104 O112 2.266 . S
In104 O113 2.326 . S
In104 O115 2.294 . S
In104 O116 2.326 . S
O105 In104 2.294 . S
O105 C114 1.240 . S
O106 In104 2.326 . S
O106 C114 1.252 . S
C107 O110 1.252 . S
C107 O111 1.260 . S
C108 O115 1.240 . S
C108 O116 1.252 . S
C109 O112 1.252 . S
C109 O113 1.260 . S
O110 In104 2.266 . S
O110 C107 1.252 . S
O111 In104 2.326 . S
O111 C107 1.260 . S
O112 In104 2.266 . S
O112 C109 1.252 . S
O113 In104 2.326 . S
O113 C109 1.260 . S
C114 O105 1.240 . S
C114 O106 1.252 . S
O115 In104 2.294 . S
O115 C108 1.240 . S
O116 In104 2.326 . S
O116 C108 1.252 . S
In117 O118 2.296 . S
In117 O119 2.327 1_556 S
In117 O123 2.266 . S
In117 O124 2.324 1_455 S
In117 O125 2.265 1_455 S
In117 O126 2.326 . S
In117 O128 2.293 1_456 S
In117 O129 2.326 1_455 S
O118 In117 2.296 . S
O118 C127 1.240 1_556 S
O119 In117 2.327 1_554 S
O119 C127 1.252 . S
C120 O123 1.252 1_655 S
C120 O124 1.260 . S
C121 O128 1.240 . S
C121 O129 1.252 1_554 S
C122 O125 1.252 . S
C122 O126 1.260 1_655 S
O123 In117 2.266 . S
O123 C120 1.252 1_455 S
O124 In117 2.324 1_655 S
O124 C120 1.260 . S
O125 In117 2.265 1_655 S
O125 C122 1.252 . S
O126 In117 2.326 . S
O126 C122 1.260 1_455 S
C127 O118 1.240 1_554 S
C127 O119 1.252 . S
O128 In117 2.293 1_654 S
O128 C121 1.240 . S
O129 In117 2.326 1_655 S
O129 C121 1.252 1_556 S
In130 O131 2.294 . S
In130 O132 2.326 . S
In130 O136 2.266 . S
In130 O137 2.326 . S
In130 O138 2.266 . S
In130 O139 2.326 . S
In130 O141 2.294 . S
In130 O142 2.326 . S
O131 In130 2.294 . S
O131 C140 1.240 . S
O132 In130 2.326 . S
O132 C140 1.252 . S
C133 O136 1.252 . S
C133 O137 1.260 . S
C134 O141 1.240 . S
C134 O142 1.252 . S
C135 O138 1.252 . S
C135 O139 1.260 . S
O136 In130 2.266 . S
O136 C133 1.252 . S
O137 In130 2.326 . S
O137 C133 1.260 . S
O138 In130 2.266 . S
O138 C135 1.252 . S
O139 In130 2.326 . S
O139 C135 1.260 . S
C140 O131 1.240 . S
C140 O132 1.252 . S
O141 In130 2.294 . S
O141 C134 1.240 . S
O142 In130 2.326 . S
O142 C134 1.252 . S
In143 O144 2.294 . S
In143 O145 2.326 . S
In143 O149 2.266 . S
In143 O150 2.326 1_455 S
In143 O151 2.266 1_455 S
In143 O152 2.326 . S
In143 O154 2.294 1_455 S
In143 O155 2.326 . S
O144 In143 2.294 . S
O144 C153 1.240 . S
O145 In143 2.326 . S
O145 C153 1.252 . S
C146 O149 1.252 1_655 S
C146 O150 1.260 . S
C147 O154 1.240 . S
C147 O155 1.252 1_655 S
C148 O151 1.252 . S
C148 O152 1.260 1_655 S
O149 In143 2.266 . S
O149 C146 1.252 1_455 S
O150 In143 2.326 1_655 S
O150 C146 1.260 . S
O151 In143 2.266 1_655 S
O151 C148 1.252 . S
O152 In143 2.326 . S
O152 C148 1.260 1_455 S
C153 O144 1.240 . S
C153 O145 1.252 . S
O154 In143 2.294 1_655 S
O154 C147 1.240 . S
O155 In143 2.326 . S
O155 C147 1.252 1_455 S
In156 O157 2.294 1_554 S
In156 O158 2.326 . S
In156 O162 2.266 1_554 S
In156 O163 2.326 . S
In156 O164 2.266 . S
In156 O165 2.326 1_554 S
In156 O167 2.294 . S
In156 O168 2.326 . S
O157 In156 2.294 1_556 S
O157 C166 1.240 . S
O158 In156 2.326 . S
O158 C166 1.252 1_554 S
C159 O162 1.252 1_554 S
C159 O163 1.260 . S
C160 O167 1.240 . S
C160 O168 1.252 . S
C161 O164 1.252 . S
C161 O165 1.260 1_554 S
O162 In156 2.266 1_556 S
O162 C159 1.252 1_556 S
O163 In156 2.326 . S
O163 C159 1.260 . S
O164 In156 2.266 . S
O164 C161 1.252 . S
O165 In156 2.326 1_556 S
O165 C161 1.260 1_556 S
C166 O157 1.240 . S
C166 O158 1.252 1_556 S
O167 In156 2.294 . S
O167 C160 1.240 . S
O168 In156 2.326 . S
O168 C160 1.252 . S
In169 O170 2.294 . S
In169 O171 2.326 . S
In169 O175 2.266 . S
In169 O176 2.326 . S
In169 O177 2.266 . S
In169 O178 2.326 . S
In169 O180 2.294 . S
In169 O181 2.326 . S
O170 In169 2.294 . S
O170 C179 1.240 . S
O171 In169 2.326 . S
O171 C179 1.252 . S
C172 O175 1.252 . S
C172 O176 1.260 . S
C173 O180 1.240 . S
C173 O181 1.252 . S
C174 O177 1.252 . S
C174 O178 1.260 . S
O175 In169 2.266 . S
O175 C172 1.252 . S
O176 In169 2.326 . S
O176 C172 1.260 . S
O177 In169 2.266 . S
O177 C174 1.252 . S
O178 In169 2.326 . S
O178 C174 1.260 . S
C179 O170 1.240 . S
C179 O171 1.252 . S
O180 In169 2.294 . S
O180 C173 1.240 . S
O181 In169 2.326 . S
O181 C173 1.252 . S
In182 O183 2.294 . S
In182 O184 2.326 . S
In182 O188 2.266 . S
In182 O189 2.326 . S
In182 O190 2.266 . S
In182 O191 2.326 . S
In182 O193 2.294 . S
In182 O194 2.326 . S
O183 In182 2.294 . S
O183 C192 1.240 . S
O184 In182 2.326 . S
O184 C192 1.252 . S
C185 O188 1.252 . S
C185 O189 1.260 . S
C186 O193 1.240 . S
C186 O194 1.252 . S
C187 O190 1.252 . S
C187 O191 1.260 . S
O188 In182 2.266 . S
O188 C185 1.252 . S
O189 In182 2.326 . S
O189 C185 1.260 . S
O190 In182 2.266 . S
O190 C187 1.252 . S
O191 In182 2.326 . S
O191 C187 1.260 . S
C192 O183 1.240 . S
C192 O184 1.252 . S
O193 In182 2.294 . S
O193 C186 1.240 . S
O194 In182 2.326 . S
O194 C186 1.252 . S
In195 O196 2.294 . S
In195 O197 2.326 . S
In195 O201 2.266 . S
In195 O202 2.326 . S
In195 O203 2.266 . S
In195 O204 2.326 . S
In195 O206 2.294 . S
In195 O207 2.326 . S
O196 In195 2.294 . S
O196 C205 1.240 . S
O197 In195 2.326 . S
O197 C205 1.252 . S
C198 O201 1.252 . S
C198 O202 1.260 . S
C199 O206 1.240 . S
C199 O207 1.252 . S
C200 O203 1.252 . S
C200 O204 1.260 . S
O201 In195 2.266 . S
O201 C198 1.252 . S
O202 In195 2.326 . S
O202 C198 1.260 . S
O203 In195 2.266 . S
O203 C200 1.252 . S
O204 In195 2.326 . S
O204 C200 1.260 . S
C205 O196 1.240 . S
C205 O197 1.252 . S
O206 In195 2.294 . S
O206 C199 1.240 . S
O207 In195 2.326 . S
O207 C199 1.252 . S
C208 C209 1.387 . S
C208 H212 0.950 . S
C208 C217 1.390 . S
C209 C208 1.387 . S
C209 C211 1.387 . S
H210 C217 0.950 . S
C211 C209 1.387 . S
C211 C213 1.390 . S
C211 H215 0.950 . S
H212 C208 0.950 . S
C213 C211 1.390 . S
C213 C214 1.387 . S
C213 H216 0.950 . S
C214 C213 1.387 . S
C214 C217 1.387 . S
H215 C211 0.950 . S
H216 C213 0.950 . S
C217 C208 1.390 . S
C217 H210 0.950 . S
C217 C214 1.387 . S
C218 C219 1.387 . S
C218 H222 0.950 . S
C218 C227 1.390 . S
C219 C218 1.387 . S
C219 C221 1.387 . S
H220 C227 0.950 . S
C221 C219 1.387 . S
C221 C223 1.390 . S
C221 H225 0.950 . S
H222 C218 0.950 . S
C223 C221 1.390 . S
C223 C224 1.387 . S
C223 H226 0.950 . S
C224 C223 1.387 . S
C224 C227 1.387 . S
H225 C221 0.950 . S
H226 C223 0.950 . S
C227 C218 1.390 . S
C227 H220 0.950 . S
C227 C224 1.387 . S
C228 C229 1.387 . S
C228 H232 0.950 . S
C228 C237 1.390 . S
C229 C228 1.387 . S
C229 C231 1.387 . S
H230 C237 0.950 . S
C231 C229 1.387 . S
C231 C233 1.390 . S
C231 H235 0.950 . S
H232 C228 0.950 . S
C233 C231 1.390 . S
C233 C234 1.387 . S
C233 H236 0.950 . S
C234 C233 1.387 . S
C234 C237 1.387 . S
H235 C231 0.950 . S
H236 C233 0.950 . S
C237 C228 1.390 . S
C237 H230 0.950 . S
C237 C234 1.387 . S
C238 C239 1.387 . S
C238 H242 0.950 . S
C238 C247 1.390 . S
C239 C238 1.387 . S
C239 C241 1.387 . S
H240 C247 0.950 . S
C241 C239 1.387 . S
C241 C243 1.390 . S
C241 H245 0.950 . S
H242 C238 0.950 . S
C243 C241 1.390 . S
C243 C244 1.387 . S
C243 H246 0.950 . S
C244 C243 1.387 . S
C244 C247 1.387 . S
H245 C241 0.950 . S
H246 C243 0.950 . S
C247 C238 1.390 . S
C247 H240 0.950 . S
C247 C244 1.387 . S
C248 C249 1.387 . S
C248 H252 0.950 . S
C248 C257 1.390 . S
C249 C248 1.387 . S
C249 C251 1.387 . S
H250 C257 0.950 . S
C251 C249 1.387 . S
C251 C253 1.390 . S
C251 H255 0.950 . S
H252 C248 0.950 . S
C253 C251 1.390 . S
C253 C254 1.387 . S
C253 H256 0.950 1_556 S
C254 C253 1.387 . S
C254 C257 1.387 . S
H255 C251 0.950 . S
H256 C253 0.950 1_554 S
C257 C248 1.390 . S
C257 H250 0.950 . S
C257 C254 1.387 . S
C258 C259 1.387 . S
C258 H262 0.950 1_655 S
C258 C267 1.390 . S
C259 C258 1.387 . S
C259 C261 1.387 . S
H260 C267 0.950 . S
C261 C259 1.387 . S
C261 C263 1.390 . S
C261 H265 0.950 . S
H262 C258 0.950 1_455 S
C263 C261 1.390 . S
C263 C264 1.387 . S
C263 H266 0.950 . S
C264 C263 1.387 . S
C264 C267 1.387 . S
H265 C261 0.950 . S
H266 C263 0.950 . S
C267 C258 1.390 . S
C267 H260 0.950 . S
C267 C264 1.387 . S
C268 C269 1.387 1_455 S
C268 H272 0.950 . S
C268 C277 1.390 . S
C269 C268 1.387 1_655 S
C269 C271 1.387 . S
H270 C277 0.950 . S
C271 C269 1.387 . S
C271 C273 1.390 . S
C271 H275 0.950 . S
H272 C268 0.950 . S
C273 C271 1.390 . S
C273 C274 1.387 . S
C273 H276 0.950 . S
C274 C273 1.387 . S
C274 C277 1.387 1_655 S
H275 C271 0.950 . S
H276 C273 0.950 . S
C277 C268 1.390 . S
C277 H270 0.950 . S
C277 C274 1.387 1_455 S
C278 C279 1.387 . S
C278 H282 0.950 . S
C278 C287 1.390 . S
C279 C278 1.387 . S
C279 C281 1.387 . S
H280 C287 0.950 . S
C281 C279 1.387 . S
C281 C283 1.390 . S
C281 H285 0.950 . S
H282 C278 0.950 . S
C283 C281 1.390 . S
C283 C284 1.387 . S
C283 H286 0.950 . S
C284 C283 1.387 . S
C284 C287 1.387 . S
H285 C281 0.950 . S
H286 C283 0.950 . S
C287 C278 1.390 . S
C287 H280 0.950 . S
C287 C284 1.387 . S
C288 C289 1.387 . S
C288 H292 0.950 . S
C288 C297 1.390 . S
C289 C288 1.387 . S
C289 C291 1.387 . S
H290 C297 0.950 . S
C291 C289 1.387 . S
C291 C293 1.390 . S
C291 H295 0.950 . S
H292 C288 0.950 . S
C293 C291 1.390 . S
C293 C294 1.387 . S
C293 H296 0.950 . S
C294 C293 1.387 . S
C294 C297 1.387 . S
H295 C291 0.950 . S
H296 C293 0.950 . S
C297 C288 1.390 . S
C297 H290 0.950 . S
C297 C294 1.387 . S
C298 C299 1.387 1_545 S
C298 H302 0.950 . S
C298 C307 1.390 1_545 S
C299 C298 1.387 1_565 S
C299 C301 1.387 . S
H300 C307 0.950 1_645 S
C301 C299 1.387 . S
C301 C303 1.390 . S
C301 H305 0.950 . S
H302 C298 0.950 . S
C303 C301 1.390 . S
C303 C304 1.387 . S
C303 H306 0.950 . S
C304 C303 1.387 . S
C304 C307 1.387 . S
H305 C301 0.950 . S
H306 C303 0.950 . S
C307 C298 1.390 1_565 S
C307 H300 0.950 1_465 S
C307 C304 1.387 . S
C308 C309 1.387 . S
C308 H312 0.950 . S
C308 C317 1.390 1_556 S
C309 C308 1.387 . S
C309 C311 1.387 1_556 S
H310 C317 0.950 . S
C311 C309 1.387 1_554 S
C311 C313 1.390 . S
C311 H315 0.950 1_554 S
H312 C308 0.950 . S
C313 C311 1.390 . S
C313 C314 1.387 . S
C313 H316 0.950 . S
C314 C313 1.387 . S
C314 C317 1.387 . S
H315 C311 0.950 1_556 S
H316 C313 0.950 . S
C317 C308 1.390 1_554 S
C317 H310 0.950 . S
C317 C314 1.387 . S
C318 C319 1.387 1_545 S
C318 H322 0.950 . S
C318 C327 1.390 . S
C319 C318 1.387 1_565 S
C319 C321 1.387 . S
H320 C327 0.950 . S
C321 C319 1.387 . S
C321 C323 1.390 . S
C321 H325 0.950 . S
H322 C318 0.950 . S
C323 C321 1.390 . S
C323 C324 1.387 . S
C323 H326 0.950 . S
C324 C323 1.387 . S
C324 C327 1.387 1_565 S
H325 C321 0.950 . S
H326 C323 0.950 . S
C327 C318 1.390 . S
C327 H320 0.950 . S
C327 C324 1.387 1_545 S
C328 C329 1.387 . S
C328 H332 0.950 . S
C328 C337 1.390 . S
C329 C328 1.387 . S
C329 C331 1.387 . S
H330 C337 0.950 . S
C331 C329 1.387 . S
C331 C333 1.390 . S
C331 H335 0.950 . S
H332 C328 0.950 . S
C333 C331 1.390 . S
C333 C334 1.387 . S
C333 H336 0.950 . S
C334 C333 1.387 . S
C334 C337 1.387 . S
H335 C331 0.950 . S
H336 C333 0.950 . S
C337 C328 1.390 . S
C337 H330 0.950 . S
C337 C334 1.387 . S
C338 C339 1.387 . S
C338 H342 0.950 . S
C338 C347 1.390 . S
C339 C338 1.387 . S
C339 C341 1.387 . S
H340 C347 0.950 . S
C341 C339 1.387 . S
C341 C343 1.390 . S
C341 H345 0.950 . S
H342 C338 0.950 . S
C343 C341 1.390 . S
C343 C344 1.388 . S
C343 H346 0.950 . S
C344 C343 1.388 . S
C344 C347 1.392 . S
H345 C341 0.950 . S
H346 C343 0.950 . S
C347 C338 1.390 . S
C347 H340 0.950 . S
C347 C344 1.392 . S
C348 C349 1.387 . S
C348 H352 0.950 . S
C348 C357 1.390 . S
C349 C348 1.387 . S
C349 C351 1.387 . S
H350 C357 0.950 . S
C351 C349 1.387 . S
C351 C353 1.390 . S
C351 H355 0.946 1_455 S
H352 C348 0.950 . S
C353 C351 1.390 . S
C353 C354 1.387 . S
C353 H356 0.950 . S
C354 C353 1.387 . S
C354 C357 1.387 . S
H355 C351 0.946 1_655 S
H356 C353 0.950 . S
C357 C348 1.390 . S
C357 H350 0.950 . S
C357 C354 1.387 . S
C358 C359 1.387 . S
C358 H362 0.950 . S
C358 C367 1.390 . S
C359 C358 1.387 . S
C359 C361 1.387 1_556 S
H360 C367 0.950 . S
C361 C359 1.387 1_554 S
C361 C363 1.390 . S
C361 H365 0.950 . S
H362 C358 0.950 . S
C363 C361 1.390 . S
C363 C364 1.387 . S
C363 H366 0.950 . S
C364 C363 1.387 . S
C364 C367 1.387 1_554 S
H365 C361 0.950 . S
H366 C363 0.950 . S
C367 C358 1.390 . S
C367 H360 0.950 . S
C367 C364 1.387 1_556 S
C368 C369 1.387 . S
C368 H372 0.950 . S
C368 C377 1.390 . S
C369 C368 1.387 . S
C369 C371 1.387 . S
H370 C377 0.950 . S
C371 C369 1.387 . S
C371 C373 1.390 . S
C371 H375 0.950 . S
H372 C368 0.950 . S
C373 C371 1.390 . S
C373 C374 1.387 . S
C373 H376 0.950 . S
C374 C373 1.387 . S
C374 C377 1.387 . S
H375 C371 0.950 . S
H376 C373 0.950 . S
C377 C368 1.390 . S
C377 H370 0.950 . S
C377 C374 1.387 . S
C378 C379 1.387 . S
C378 H382 0.950 . S
C378 C387 1.390 . S
C379 C378 1.387 . S
C379 C381 1.387 . S
H380 C387 0.950 . S
C381 C379 1.387 . S
C381 C383 1.390 . S
C381 H385 0.950 . S
H382 C378 0.950 . S
C383 C381 1.390 . S
C383 C384 1.387 . S
C383 H386 0.950 . S
C384 C383 1.387 . S
C384 C387 1.387 . S
H385 C381 0.950 . S
H386 C383 0.950 . S
C387 C378 1.390 . S
C387 H380 0.950 . S
C387 C384 1.387 . S
C388 C389 1.387 . S
C388 H392 0.950 . S
C388 C397 1.390 . S
C389 C388 1.387 . S
C389 C391 1.387 . S
H390 C397 0.950 . S
C391 C389 1.387 . S
C391 C393 1.390 . S
C391 H395 0.950 . S
H392 C388 0.950 . S
C393 C391 1.390 . S
C393 C394 1.387 . S
C393 H396 0.950 . S
C394 C393 1.387 . S
C394 C397 1.387 . S
H395 C391 0.950 . S
H396 C393 0.950 . S
C397 C388 1.390 . S
C397 H390 0.950 . S
C397 C394 1.387 . S
C398 C399 1.387 . S
C398 H402 0.950 . S
C398 C407 1.390 . S
C399 C398 1.387 . S
C399 C401 1.387 1_455 S
H400 C407 0.950 . S
C401 C399 1.387 1_655 S
C401 C403 1.390 . S
C401 H405 0.950 . S
H402 C398 0.950 . S
C403 C401 1.390 . S
C403 C404 1.387 . S
C403 H406 0.950 . S
C404 C403 1.387 . S
C404 C407 1.387 1_655 S
H405 C401 0.950 . S
H406 C403 0.950 . S
C407 C398 1.390 . S
C407 H400 0.950 . S
C407 C404 1.387 1_455 S
C408 C409 1.387 . S
C408 H412 0.950 . S
C408 C417 1.390 . S
C409 C408 1.387 . S
C409 C411 1.387 . S
H410 C417 0.950 . S
C411 C409 1.387 . S
C411 C413 1.390 . S
C411 H415 0.950 . S
H412 C408 0.950 . S
C413 C411 1.390 . S
C413 C414 1.387 . S
C413 H416 0.950 . S
C414 C413 1.387 . S
C414 C417 1.387 . S
H415 C411 0.950 . S
H416 C413 0.950 . S
C417 C408 1.390 . S
C417 H410 0.950 . S
C417 C414 1.387 . S
C418 C419 1.387 . S
C418 H422 0.950 . S
C418 C427 1.390 . S
C419 C418 1.387 . S
C419 C421 1.387 . S
H420 C427 0.950 1_565 S
C421 C419 1.387 . S
C421 C423 1.390 . S
C421 H425 0.950 . S
H422 C418 0.950 . S
C423 C421 1.390 . S
C423 C424 1.387 1_545 S
C423 H426 0.950 1_545 S
C424 C423 1.387 1_565 S
C424 C427 1.387 1_565 S
H425 C421 0.950 . S
H426 C423 0.950 1_565 S
C427 C418 1.390 . S
C427 H420 0.950 1_545 S
C427 C424 1.387 1_545 S
C428 C429 1.387 1_556 S
C428 H432 0.950 . S
C428 C437 1.390 1_556 S
C429 C428 1.387 1_554 S
C429 C431 1.387 . S
H430 C437 0.950 1_556 S
C431 C429 1.387 . S
C431 C433 1.390 . S
C431 H435 0.950 . S
H432 C428 0.950 . S
C433 C431 1.390 . S
C433 C434 1.387 . S
C433 H436 0.950 . S
C434 C433 1.387 . S
C434 C437 1.387 . S
H435 C431 0.950 . S
H436 C433 0.950 . S
C437 C428 1.390 1_554 S
C437 H430 0.950 1_554 S
C437 C434 1.387 . S
C438 C439 1.387 . S
C438 H442 0.950 . S
C438 C447 1.390 1_545 S
C439 C438 1.387 . S
C439 C441 1.387 . S
H440 C447 0.950 . S
C441 C439 1.387 . S
C441 C443 1.390 . S
C441 H445 0.950 . S
H442 C438 0.950 . S
C443 C441 1.390 . S
C443 C444 1.387 1_545 S
C443 H446 0.950 1_655 S
C444 C443 1.387 1_565 S
C444 C447 1.387 . S
H445 C441 0.950 . S
H446 C443 0.950 1_455 S
C447 C438 1.390 1_565 S
C447 H440 0.950 . S
C447 C444 1.387 . S
C448 C449 1.387 1_544 S
C448 H452 0.950 . S
C448 C457 1.390 . S
C449 C448 1.387 1_566 S
C449 C451 1.387 . S
H450 C457 0.950 . S
C451 C449 1.387 . S
C451 C453 1.390 . S
C451 H455 0.950 . S
H452 C448 0.950 . S
C453 C451 1.390 . S
C453 C454 1.387 . S
C453 H456 0.950 . S
C454 C453 1.387 . S
C454 C457 1.387 1_566 S
H455 C451 0.950 . S
H456 C453 0.950 . S
C457 C448 1.390 . S
C457 H450 0.950 . S
C457 C454 1.387 1_544 S
C458 C459 1.387 . S
C458 H462 0.950 . S
C458 C467 1.390 . S
C459 C458 1.387 . S
C459 C461 1.387 . S
H460 C467 0.950 . S
C461 C459 1.387 . S
C461 C463 1.390 . S
C461 H465 0.950 . S
H462 C458 0.950 . S
C463 C461 1.390 . S
C463 C464 1.387 . S
C463 H466 0.950 . S
C464 C463 1.387 . S
C464 C467 1.387 . S
H465 C461 0.950 . S
H466 C463 0.950 . S
C467 C458 1.390 . S
C467 H460 0.950 . S
C467 C464 1.387 . S
C468 C469 1.387 . S
C468 H472 0.950 . S
C468 C477 1.390 . S
C469 C468 1.387 . S
C469 C471 1.387 . S
H470 C477 0.950 . S
C471 C469 1.387 . S
C471 C473 1.390 . S
C471 H475 0.950 . S
H472 C468 0.950 . S
C473 C471 1.390 . S
C473 C474 1.387 . S
C473 H476 0.950 . S
C474 C473 1.387 . S
C474 C477 1.387 . S
H475 C471 0.950 . S
H476 C473 0.950 . S
C477 C468 1.390 . S
C477 H470 0.950 . S
C477 C474 1.387 . S
C478 C479 1.387 . S
C478 H482 0.950 . S
C478 C487 1.390 1_556 S
C479 C478 1.387 . S
C479 C481 1.387 1_556 S
H480 C487 0.950 . S
C481 C479 1.387 1_554 S
C481 C483 1.390 . S
C481 H485 0.950 . S
H482 C478 0.950 . S
C483 C481 1.390 . S
C483 C484 1.387 . S
C483 H486 0.950 . S
C484 C483 1.387 . S
C484 C487 1.387 . S
H485 C481 0.950 . S
H486 C483 0.950 . S
C487 C478 1.390 1_554 S
C487 H480 0.950 . S
C487 C484 1.387 . S
C488 C489 1.387 . S
C488 H492 0.950 . S
C488 C497 1.390 . S
C489 C488 1.387 . S
C489 C491 1.387 . S
H490 C497 0.950 . S
C491 C489 1.387 . S
C491 C493 1.390 . S
C491 H495 0.950 . S
H492 C488 0.950 . S
C493 C491 1.390 . S
C493 C494 1.387 . S
C493 H496 0.950 . S
C494 C493 1.387 . S
C494 C497 1.387 . S
H495 C491 0.950 . S
H496 C493 0.950 . S
C497 C488 1.390 . S
C497 H490 0.950 . S
C497 C494 1.387 . S
C498 C499 1.387 . S
C498 H502 0.950 . S
C498 C507 1.390 . S
C499 C498 1.387 . S
C499 C501 1.387 . S
H500 C507 0.950 . S
C501 C499 1.387 . S
C501 C503 1.390 . S
C501 H505 0.950 . S
H502 C498 0.950 . S
C503 C501 1.390 . S
C503 C504 1.387 . S
C503 H506 0.950 . S
C504 C503 1.387 . S
C504 C507 1.387 . S
H505 C501 0.950 . S
H506 C503 0.950 . S
C507 C498 1.390 . S
C507 H500 0.950 . S
C507 C504 1.387 . S
C508 C509 1.387 . S
C508 H512 0.950 . S
C508 C517 1.390 . S
C509 C508 1.387 . S
C509 C511 1.387 . S
H510 C517 0.950 . S
C511 C509 1.387 . S
C511 C513 1.390 . S
C511 H515 0.950 1_655 S
H512 C508 0.950 . S
C513 C511 1.390 . S
C513 C514 1.387 . S
C513 H516 0.950 1_655 S
C514 C513 1.387 . S
C514 C517 1.387 . S
H515 C511 0.950 1_455 S
H516 C513 0.950 1_455 S
C517 C508 1.390 . S
C517 H510 0.950 . S
C517 C514 1.387 . S
C518 C519 1.392 . S
C518 H522 0.950 . S
C518 C527 1.390 . S
C519 C518 1.392 . S
C519 C521 1.384 1_545 S
H520 C527 0.950 . S
C521 C519 1.384 1_565 S
C521 C523 1.390 . S
C521 H525 0.950 . S
H522 C518 0.950 . S
C523 C521 1.390 . S
C523 C524 1.387 1_565 S
C523 H526 0.950 . S
C524 C523 1.387 1_545 S
C524 C527 1.387 . S
H525 C521 0.950 . S
H526 C523 0.950 . S
C527 C518 1.390 . S
C527 H520 0.950 . S
C527 C524 1.387 . S
C209 C10 1.829 . S
C214 C95 1.828 . S
C219 C17 1.826 . S
C224 C56 1.827 . S
C229 C75 1.847 . S
C234 C30 1.879 . S
C239 C49 1.878 . S
C244 C88 1.846 . S
C249 C114 1.810 . S
C254 C166 1.808 . S
C259 C121 1.848 . S
C264 C186 1.873 . S
C269 C147 1.870 . S
C274 C140 1.836 . S
C279 C205 1.750 . S
C284 C173 1.749 . S
C289 C3 1.431 . S
C294 C81 1.443 . S
C299 C94 1.080 . S
C304 C23 1.074 . S
C309 C31 1.704 . S
C314 C55 1.706 . S
C319 C70 1.241 . S
C324 C44 1.309 . S
C329 C4 1.654 . S
C334 C192 1.664 . S
C339 C148 1.704 . S
C344 C16 1.699 1_655 S
C349 C179 1.583 1_455 S
C354 C36 1.590 . S
C359 C161 1.698 1_556 S
C364 C42 1.690 . S
C369 C134 1.320 . S
C374 C57 1.355 . S
C379 C68 1.433 . S
C384 C198 1.417 . S
C389 C82 1.264 . S
C394 C107 1.295 1_455 S
C399 C96 1.384 . S
C404 C122 1.397 . S
C409 C5 1.105 . S
C414 C62 1.115 . S
C419 C108 1.133 . S
C424 C172 1.121 . S
C429 C159 1.199 . S
C434 C127 1.165 . S
C439 C185 1.319 . S
C444 C135 1.234 . S
C449 C101 1.478 . S
C454 C43 1.480 . S
C459 C29 1.353 . S
C464 C83 1.267 . S
C469 C153 1.608 . S
C474 C199 1.605 . S
C479 C174 1.409 . S
C484 C133 1.425 . S
C489 C200 1.072 . S
C494 C160 1.078 . S
C499 C187 1.704 . S
C504 C109 1.698 . S
C509 C146 1.292 . S
C514 C120 1.238 . S
C519 C18 1.322 . S
C524 C69 1.291 . S
