# Generated by pormake.
# Topology vcd, (5)-cn, num edge types: 1
# Building blocks:
#     Node 0, Type 0, BuildingBlock: XOMCOT_clean_sbu_0, # of connection points: 5
#     Node 1, Type 0, BuildingBlock: XOMCOT_clean_sbu_0, # of connection points: 5
#     Node 2, Type 0, BuildingBlock: XOMCOT_clean_sbu_0, # of connection points: 5
#     Node 3, Type 0, BuildingBlock: XOMCOT_clean_sbu_0, # of connection points: 5
#     Node 4, Type 0, BuildingBlock: XOMCOT_clean_sbu_0, # of connection points: 5
#     Node 5, Type 0, BuildingBlock: XOMCOT_clean_sbu_0, # of connection points: 5
#     Node 6, Type 0, BuildingBlock: XOMCOT_clean_sbu_0, # of connection points: 5
#     Node 7, Type 0, BuildingBlock: XOMCOT_clean_sbu_0, # of connection points: 5
#     Node 8, Type 0, BuildingBlock: XOMCOT_clean_sbu_0, # of connection points: 5
#     Node 9, Type 0, BuildingBlock: XOMCOT_clean_sbu_0, # of connection points: 5
#     Node 10, Type 0, BuildingBlock: XOMCOT_clean_sbu_0, # of connection points: 5
#     Node 11, Type 0, BuildingBlock: XOMCOT_clean_sbu_0, # of connection points: 5
#     Node 12, Type 0, BuildingBlock: XOMCOT_clean_sbu_0, # of connection points: 5
#     Node 13, Type 0, BuildingBlock: XOMCOT_clean_sbu_0, # of connection points: 5
#     Node 14, Type 0, BuildingBlock: XOMCOT_clean_sbu_0, # of connection points: 5
#     Node 15, Type 0, BuildingBlock: XOMCOT_clean_sbu_0, # of connection points: 5
#     Node 16, Type 0, BuildingBlock: XOMCOT_clean_sbu_0, # of connection points: 5
#     Node 17, Type 0, BuildingBlock: XOMCOT_clean_sbu_0, # of connection points: 5
#     Node 18, Type 0, BuildingBlock: XOMCOT_clean_sbu_0, # of connection points: 5
#     Node 19, Type 0, BuildingBlock: XOMCOT_clean_sbu_0, # of connection points: 5
#     Node 20, Type 0, BuildingBlock: XOMCOT_clean_sbu_0, # of connection points: 5
#     Node 21, Type 0, BuildingBlock: XOMCOT_clean_sbu_0, # of connection points: 5
#     Node 22, Type 0, BuildingBlock: XOMCOT_clean_sbu_0, # of connection points: 5
#     Node 23, Type 0, BuildingBlock: XOMCOT_clean_sbu_0, # of connection points: 5
#     Node 24, Type 0, BuildingBlock: XOMCOT_clean_sbu_0, # of connection points: 5
#     Node 25, Type 0, BuildingBlock: XOMCOT_clean_sbu_0, # of connection points: 5
#     Node 26, Type 0, BuildingBlock: XOMCOT_clean_sbu_0, # of connection points: 5
#     Node 27, Type 0, BuildingBlock: XOMCOT_clean_sbu_0, # of connection points: 5
#     Node 28, Type 0, BuildingBlock: XOMCOT_clean_sbu_0, # of connection points: 5
#     Node 29, Type 0, BuildingBlock: XOMCOT_clean_sbu_0, # of connection points: 5
#     Node 30, Type 0, BuildingBlock: XOMCOT_clean_sbu_0, # of connection points: 5
#     Node 31, Type 0, BuildingBlock: XOMCOT_clean_sbu_0, # of connection points: 5
#     Edge 32, Type (0, 0), BuildingBlock: XIVTED_clean_linker_0, # of connection points: 2
#     Edge 33, Type (0, 0), BuildingBlock: XIVTED_clean_linker_0, # of connection points: 2
#     Edge 34, Type (0, 0), BuildingBlock: XIVTED_clean_linker_0, # of connection points: 2
#     Edge 35, Type (0, 0), BuildingBlock: XIVTED_clean_linker_0, # of connection points: 2
#     Edge 36, Type (0, 0), BuildingBlock: XIVTED_clean_linker_0, # of connection points: 2
#     Edge 37, Type (0, 0), BuildingBlock: XIVTED_clean_linker_0, # of connection points: 2
#     Edge 38, Type (0, 0), BuildingBlock: XIVTED_clean_linker_0, # of connection points: 2
#     Edge 39, Type (0, 0), BuildingBlock: XIVTED_clean_linker_0, # of connection points: 2
#     Edge 40, Type (0, 0), BuildingBlock: XIVTED_clean_linker_0, # of connection points: 2
#     Edge 41, Type (0, 0), BuildingBlock: XIVTED_clean_linker_0, # of connection points: 2
#     Edge 42, Type (0, 0), BuildingBlock: XIVTED_clean_linker_0, # of connection points: 2
#     Edge 43, Type (0, 0), BuildingBlock: XIVTED_clean_linker_0, # of connection points: 2
#     Edge 44, Type (0, 0), BuildingBlock: XIVTED_clean_linker_0, # of connection points: 2
#     Edge 45, Type (0, 0), BuildingBlock: XIVTED_clean_linker_0, # of connection points: 2
#     Edge 46, Type (0, 0), BuildingBlock: XIVTED_clean_linker_0, # of connection points: 2
#     Edge 47, Type (0, 0), BuildingBlock: XIVTED_clean_linker_0, # of connection points: 2
#     Edge 48, Type (0, 0), BuildingBlock: XIVTED_clean_linker_0, # of connection points: 2
#     Edge 49, Type (0, 0), BuildingBlock: XIVTED_clean_linker_0, # of connection points: 2
#     Edge 50, Type (0, 0), BuildingBlock: XIVTED_clean_linker_0, # of connection points: 2
#     Edge 51, Type (0, 0), BuildingBlock: XIVTED_clean_linker_0, # of connection points: 2
#     Edge 52, Type (0, 0), BuildingBlock: XIVTED_clean_linker_0, # of connection points: 2
#     Edge 53, Type (0, 0), BuildingBlock: XIVTED_clean_linker_0, # of connection points: 2
#     Edge 54, Type (0, 0), BuildingBlock: XIVTED_clean_linker_0, # of connection points: 2
#     Edge 55, Type (0, 0), BuildingBlock: XIVTED_clean_linker_0, # of connection points: 2
#     Edge 56, Type (0, 0), BuildingBlock: XIVTED_clean_linker_0, # of connection points: 2
#     Edge 57, Type (0, 0), BuildingBlock: XIVTED_clean_linker_0, # of connection points: 2
#     Edge 58, Type (0, 0), BuildingBlock: XIVTED_clean_linker_0, # of connection points: 2
#     Edge 59, Type (0, 0), BuildingBlock: XIVTED_clean_linker_0, # of connection points: 2
#     Edge 60, Type (0, 0), BuildingBlock: XIVTED_clean_linker_0, # of connection points: 2
#     Edge 61, Type (0, 0), BuildingBlock: XIVTED_clean_linker_0, # of connection points: 2
#     Edge 62, Type (0, 0), BuildingBlock: XIVTED_clean_linker_0, # of connection points: 2
#     Edge 63, Type (0, 0), BuildingBlock: XIVTED_clean_linker_0, # of connection points: 2
#     Edge 64, Type (0, 0), BuildingBlock: XIVTED_clean_linker_0, # of connection points: 2
#     Edge 65, Type (0, 0), BuildingBlock: XIVTED_clean_linker_0, # of connection points: 2
#     Edge 66, Type (0, 0), BuildingBlock: XIVTED_clean_linker_0, # of connection points: 2
#     Edge 67, Type (0, 0), BuildingBlock: XIVTED_clean_linker_0, # of connection points: 2
#     Edge 68, Type (0, 0), BuildingBlock: XIVTED_clean_linker_0, # of connection points: 2
#     Edge 69, Type (0, 0), BuildingBlock: XIVTED_clean_linker_0, # of connection points: 2
#     Edge 70, Type (0, 0), BuildingBlock: XIVTED_clean_linker_0, # of connection points: 2
#     Edge 71, Type (0, 0), BuildingBlock: XIVTED_clean_linker_0, # of connection points: 2
#     Edge 72, Type (0, 0), BuildingBlock: XIVTED_clean_linker_0, # of connection points: 2
#     Edge 73, Type (0, 0), BuildingBlock: XIVTED_clean_linker_0, # of connection points: 2
#     Edge 74, Type (0, 0), BuildingBlock: XIVTED_clean_linker_0, # of connection points: 2
#     Edge 75, Type (0, 0), BuildingBlock: XIVTED_clean_linker_0, # of connection points: 2
#     Edge 76, Type (0, 0), BuildingBlock: XIVTED_clean_linker_0, # of connection points: 2
#     Edge 77, Type (0, 0), BuildingBlock: XIVTED_clean_linker_0, # of connection points: 2
#     Edge 78, Type (0, 0), BuildingBlock: XIVTED_clean_linker_0, # of connection points: 2
#     Edge 79, Type (0, 0), BuildingBlock: XIVTED_clean_linker_0, # of connection points: 2
#     Edge 80, Type (0, 0), BuildingBlock: XIVTED_clean_linker_0, # of connection points: 2
#     Edge 81, Type (0, 0), BuildingBlock: XIVTED_clean_linker_0, # of connection points: 2
#     Edge 82, Type (0, 0), BuildingBlock: XIVTED_clean_linker_0, # of connection points: 2
#     Edge 83, Type (0, 0), BuildingBlock: XIVTED_clean_linker_0, # of connection points: 2
#     Edge 84, Type (0, 0), BuildingBlock: XIVTED_clean_linker_0, # of connection points: 2
#     Edge 85, Type (0, 0), BuildingBlock: XIVTED_clean_linker_0, # of connection points: 2
#     Edge 86, Type (0, 0), BuildingBlock: XIVTED_clean_linker_0, # of connection points: 2
#     Edge 87, Type (0, 0), BuildingBlock: XIVTED_clean_linker_0, # of connection points: 2
#     Edge 88, Type (0, 0), BuildingBlock: XIVTED_clean_linker_0, # of connection points: 2
#     Edge 89, Type (0, 0), BuildingBlock: XIVTED_clean_linker_0, # of connection points: 2
#     Edge 90, Type (0, 0), BuildingBlock: XIVTED_clean_linker_0, # of connection points: 2
#     Edge 91, Type (0, 0), BuildingBlock: XIVTED_clean_linker_0, # of connection points: 2
#     Edge 92, Type (0, 0), BuildingBlock: XIVTED_clean_linker_0, # of connection points: 2
#     Edge 93, Type (0, 0), BuildingBlock: XIVTED_clean_linker_0, # of connection points: 2
#     Edge 94, Type (0, 0), BuildingBlock: XIVTED_clean_linker_0, # of connection points: 2
#     Edge 95, Type (0, 0), BuildingBlock: XIVTED_clean_linker_0, # of connection points: 2
#     Edge 96, Type (0, 0), BuildingBlock: XIVTED_clean_linker_0, # of connection points: 2
#     Edge 97, Type (0, 0), BuildingBlock: XIVTED_clean_linker_0, # of connection points: 2
#     Edge 98, Type (0, 0), BuildingBlock: XIVTED_clean_linker_0, # of connection points: 2
#     Edge 99, Type (0, 0), BuildingBlock: XIVTED_clean_linker_0, # of connection points: 2
#     Edge 100, Type (0, 0), BuildingBlock: XIVTED_clean_linker_0, # of connection points: 2
#     Edge 101, Type (0, 0), BuildingBlock: XIVTED_clean_linker_0, # of connection points: 2
#     Edge 102, Type (0, 0), BuildingBlock: XIVTED_clean_linker_0, # of connection points: 2
#     Edge 103, Type (0, 0), BuildingBlock: XIVTED_clean_linker_0, # of connection points: 2
#     Edge 104, Type (0, 0), BuildingBlock: XIVTED_clean_linker_0, # of connection points: 2
#     Edge 105, Type (0, 0), BuildingBlock: XIVTED_clean_linker_0, # of connection points: 2
#     Edge 106, Type (0, 0), BuildingBlock: XIVTED_clean_linker_0, # of connection points: 2
#     Edge 107, Type (0, 0), BuildingBlock: XIVTED_clean_linker_0, # of connection points: 2
#     Edge 108, Type (0, 0), BuildingBlock: XIVTED_clean_linker_0, # of connection points: 2
#     Edge 109, Type (0, 0), BuildingBlock: XIVTED_clean_linker_0, # of connection points: 2
#     Edge 110, Type (0, 0), BuildingBlock: XIVTED_clean_linker_0, # of connection points: 2
#     Edge 111, Type (0, 0), BuildingBlock: XIVTED_clean_linker_0, # of connection points: 2
# Relax obj value: 0.088
# Max RMSD: 0.135
# Mean RMSD: 0.135
data_MOF--net-vcd--node1-XOMCOT_clean_sbu_0--edge1-XIVTED_clean_linker_0
_symmetry_space_group_name_H-M    P1
_symmetry_Int_Tables_number       1
_symmetry_cell_setting            triclinic
loop_
_symmetry_equiv_pos_as_xyz
'x, y, z'
_cell_length_a     138.46352
_cell_length_b     48.199373
_cell_length_c     28.665809
_cell_angle_alpha  89.98897
_cell_angle_beta   89.917822
_cell_angle_gamma 89.894439
loop_
_atom_site_label
_atom_site_type_symbol
_atom_site_fract_x
_atom_site_fract_y
_atom_site_fract_z
_atom_type_partial_charge
Co0 Co 0.07634 0.47603 0.08792 0.0
C1 C 0.09758 0.47227 0.10831 0.0
C2 C 0.09377 0.45396 0.04268 0.0
C3 C 0.1036 0.45309 0.04709 0.0
N4 N 0.0899 0.46584 0.08105 0.0
N5 N 0.10605 0.46487 0.088 0.0
H6 H 0.09702 0.48326 0.14111 0.0
H7 H 0.08984 0.44717 0.01228 0.0
C8 C 0.06926 0.42659 0.03157 0.0
O9 O 0.0653 0.41584 0.06904 0.0
N10 N 0.06269 0.4874 0.09157 0.0
C11 C 0.05902 0.50818 0.11804 0.0
C12 C 0.04947 0.51212 0.10724 0.0
C13 C 0.05524 0.47991 0.06354 0.0
N14 N 0.04709 0.49441 0.0729 0.0
C15 C 0.06921 0.45466 0.17386 0.0
C16 C 0.08008 0.40676 0.1777 0.0
C17 C 0.07463 0.41458 0.21701 0.0
C18 C 0.06902 0.43861 0.21403 0.0
C19 C 0.07992 0.42338 0.13723 0.0
N20 N 0.07453 0.44726 0.13565 0.0
H21 H 0.06559 0.47424 0.17564 0.0
H22 H 0.08434 0.4174 0.10783 0.0
H23 H 0.06297 0.5201 0.14354 0.0
H24 H 0.05573 0.46478 0.03596 0.0
O25 O 0.07987 0.50456 0.13114 0.0
O26 O 0.079 0.51068 0.05474 0.0
O27 O 0.07321 0.4506 0.03317 0.0
C28 C 0.0807 0.52126 0.09596 0.0
H29 H 0.10858 0.44482 0.02147 0.0
H30 H 0.04474 0.52763 0.12231 0.0
H31 H 0.08457 0.38835 0.17852 0.0
H32 H 0.06499 0.44618 0.24384 0.0
Co33 Co 0.20507 0.77176 0.08882 0.0
C34 C 0.18328 0.76741 0.0984 0.0
C35 C 0.18806 0.77693 0.02919 0.0
C36 C 0.17818 0.77498 0.02879 0.0
N37 N 0.19134 0.77271 0.07293 0.0
N38 N 0.17514 0.76904 0.0723 0.0
H39 H 0.18327 0.76142 0.1346 0.0
H40 H 0.19255 0.78062 0.99896 0.0
C41 C 0.21458 0.81346 0.0216 0.0
O42 O 0.22258 0.81372 0.046 0.0
N43 N 0.21882 0.76968 0.10226 0.0
C44 C 0.22354 0.77617 0.14183 0.0
C45 C 0.23327 0.77118 0.13523 0.0
C46 C 0.22568 0.75977 0.073 0.0
N47 N 0.23463 0.76106 0.09173 0.0
C48 C 0.19835 0.79348 0.17487 0.0
C49 C 0.2075 0.8442 0.17382 0.0
C50 C 0.20259 0.83581 0.21431 0.0
C51 C 0.19782 0.81041 0.21387 0.0
C52 C 0.20761 0.82674 0.13437 0.0
N53 N 0.20325 0.80124 0.13551 0.0
H54 H 0.1952 0.77328 0.17814 0.0
H55 H 0.21156 0.83349 0.10431 0.0
H56 H 0.2202 0.784 0.1733 0.0
H57 H 0.22416 0.75317 0.0377 0.0
O58 O 0.20314 0.74143 0.13076 0.0
O59 O 0.20613 0.7361 0.0557 0.0
O60 O 0.20729 0.79913 0.03517 0.0
C61 C 0.20456 0.72468 0.09637 0.0
H62 H 0.17359 0.77797 0.99867 0.0
H63 H 0.2389 0.77476 0.16068 0.0
H64 H 0.2113 0.8638 0.1729 0.0
H65 H 0.19411 0.80283 0.24465 0.0
Co66 Co 0.07634 0.76991 0.16969 0.0
C67 C 0.0978 0.7712 0.15083 0.0
C68 C 0.09344 0.80133 0.20161 0.0
C69 C 0.10329 0.80206 0.19788 0.0
N70 N 0.08987 0.782 0.17221 0.0
N71 N 0.10609 0.78299 0.16635 0.0
H72 H 0.0976 0.75438 0.12588 0.0
H73 H 0.08929 0.81427 0.22485 0.0
C74 C 0.06785 0.81679 0.22726 0.0
O75 O 0.06215 0.82321 0.19227 0.0
N76 N 0.0628 0.75689 0.16946 0.0
C77 C 0.05903 0.73714 0.1413 0.0
C78 C 0.0496 0.73226 0.15344 0.0
C79 C 0.05556 0.76242 0.20019 0.0
N80 N 0.04737 0.74825 0.19038 0.0
C81 C 0.0691 0.78855 0.08268 0.0
C82 C 0.07698 0.84101 0.08207 0.0
C83 C 0.07248 0.83104 0.04145 0.0
C84 C 0.06834 0.8047 0.04278 0.0
C85 C 0.0774 0.82418 0.1222 0.0
N86 N 0.07356 0.79801 0.12205 0.0
H87 H 0.06671 0.76752 0.08003 0.0
H88 H 0.08106 0.83198 0.15265 0.0
H89 H 0.06285 0.72635 0.11386 0.0
H90 H 0.05622 0.77582 0.23002 0.0
O91 O 0.07981 0.74123 0.1265 0.0
O92 O 0.07981 0.73592 0.20317 0.0
O93 O 0.07342 0.7956 0.22437 0.0
C94 C 0.08113 0.72496 0.16188 0.0
H95 H 0.10805 0.81562 0.21722 0.0
H96 H 0.04484 0.71738 0.13706 0.0
H97 H 0.08033 0.8613 0.08248 0.0
H98 H 0.0651 0.79565 0.01196 0.0
Co99 Co 0.20417 0.47399 0.17848 0.0
C100 C 0.18249 0.47701 0.17005 0.0
C101 C 0.18726 0.46558 0.23842 0.0
C102 C 0.17736 0.46666 0.23861 0.0
N103 N 0.19055 0.47152 0.19524 0.0
N104 N 0.17433 0.47382 0.19562 0.0
H105 H 0.18255 0.48418 0.13443 0.0
H106 H 0.19172 0.46128 0.26844 0.0
C107 C 0.21456 0.43442 0.24637 0.0
O108 O 0.2225 0.43469 0.22131 0.0
N109 N 0.2178 0.47745 0.16351 0.0
C110 C 0.22258 0.47015 0.1244 0.0
C111 C 0.23229 0.47554 0.13067 0.0
C112 C 0.22457 0.48833 0.19194 0.0
N113 N 0.23355 0.48668 0.1735 0.0
C114 C 0.19805 0.4506 0.09297 0.0
C115 C 0.20849 0.40188 0.09621 0.0
C116 C 0.20455 0.41062 0.05362 0.0
C117 C 0.19884 0.43447 0.05313 0.0
C118 C 0.20745 0.41874 0.13594 0.0
N119 N 0.20273 0.4437 0.13331 0.0
H120 H 0.19424 0.46988 0.08951 0.0
H121 H 0.21097 0.41223 0.16731 0.0
H122 H 0.21934 0.46106 0.09375 0.0
H123 H 0.22294 0.49611 0.22644 0.0
O124 O 0.20162 0.50368 0.13576 0.0
O125 O 0.20481 0.50998 0.21037 0.0
O126 O 0.20702 0.44767 0.23284 0.0
C127 C 0.20292 0.52088 0.16964 0.0
H128 H 0.17277 0.46225 0.26827 0.0
H129 H 0.23797 0.4706 0.10613 0.0
H130 H 0.21282 0.38317 0.09814 0.0
H131 H 0.19542 0.44153 0.02128 0.0
Co132 Co 0.95386 0.52446 0.92183 0.0
C133 C 0.9322 0.52275 0.9125 0.0
C134 C 0.93697 0.53028 0.98242 0.0
C135 C 0.92705 0.52942 0.98237 0.0
N136 N 0.94025 0.52651 0.93854 0.0
N137 N 0.92405 0.52476 0.93838 0.0
H138 H 0.93222 0.51763 0.87592 0.0
H139 H 0.94147 0.53299 0.01284 0.0
C140 C 0.96394 0.56496 0.98869 0.0
O141 O 0.97191 0.56466 0.96389 0.0
N142 N 0.96749 0.52141 0.90684 0.0
C143 C 0.97217 0.52797 0.86709 0.0
C144 C 0.98188 0.52217 0.87281 0.0
C145 C 0.97432 0.51073 0.93527 0.0
N146 N 0.98322 0.51161 0.91596 0.0
C147 C 0.94754 0.54663 0.83552 0.0
C148 C 0.95624 0.59797 0.84009 0.0
C149 C 0.95158 0.58994 0.7989 0.0
C150 C 0.94704 0.56422 0.79742 0.0
C151 C 0.95632 0.57984 0.87853 0.0
N152 N 0.95219 0.5541 0.87565 0.0
H153 H 0.94452 0.52632 0.83113 0.0
H154 H 0.96005 0.58641 0.9093 0.0
H155 H 0.96885 0.53669 0.83629 0.0
H156 H 0.9728 0.50344 0.9702 0.0
O157 O 0.9515 0.49399 0.88052 0.0
O158 O 0.95475 0.48915 0.95544 0.0
O159 O 0.95647 0.55149 0.97522 0.0
C160 C 0.9529 0.47749 0.91531 0.0
H161 H 0.92241 0.53224 0.01243 0.0
H162 H 0.98753 0.52639 0.84772 0.0
H163 H 0.95987 0.6178 0.8423 0.0
H164 H 0.94353 0.557 0.76591 0.0
Co165 Co 0.82446 0.22092 0.9187 0.0
C166 C 0.84635 0.22309 0.90972 0.0
C167 C 0.84117 0.21941 0.97987 0.0
C168 C 0.85108 0.22008 0.98091 0.0
N169 N 0.83813 0.22088 0.93529 0.0
N170 N 0.85437 0.22229 0.9368 0.0
H171 H 0.84659 0.22531 0.87241 0.0
H172 H 0.83647 0.21829 0.00998 0.0
C173 C 0.81534 0.17751 0.98406 0.0
O174 O 0.80751 0.17594 0.95845 0.0
N175 N 0.81072 0.22188 0.90489 0.0
C176 C 0.80611 0.21596 0.86476 0.0
C177 C 0.7963 0.2198 0.87149 0.0
C178 C 0.80372 0.23015 0.93477 0.0
N179 N 0.79481 0.22845 0.91575 0.0
C180 C 0.83122 0.20202 0.83095 0.0
C181 C 0.82338 0.14958 0.83019 0.0
C182 C 0.82795 0.15962 0.78978 0.0
C183 C 0.83207 0.18591 0.79118 0.0
C184 C 0.82296 0.16632 0.87057 0.0
N185 N 0.82669 0.19263 0.87035 0.0
H186 H 0.83393 0.22281 0.82843 0.0
H187 H 0.81932 0.15829 0.9007 0.0
H188 H 0.80956 0.20912 0.83292 0.0
H189 H 0.80514 0.23651 0.9703 0.0
O190 O 0.82609 0.25225 0.87854 0.0
O191 O 0.82294 0.25591 0.95364 0.0
O192 O 0.82247 0.19268 0.97127 0.0
C193 C 0.82446 0.26822 0.91369 0.0
H194 H 0.85549 0.21956 0.012 0.0
H195 H 0.79071 0.21575 0.8461 0.0
H196 H 0.82004 0.12927 0.83035 0.0
H197 H 0.83547 0.1948 0.76056 0.0
Co198 Co 0.95336 0.22593 0.84543 0.0
C199 C 0.93159 0.22752 0.85934 0.0
C200 C 0.93618 0.2269 0.78792 0.0
C201 C 0.92629 0.22808 0.78888 0.0
N202 N 0.93958 0.22638 0.83194 0.0
N203 N 0.92337 0.22848 0.83374 0.0
H204 H 0.93167 0.2283 0.89688 0.0
H205 H 0.94065 0.22668 0.75692 0.0
C206 C 0.96154 0.18087 0.78122 0.0
O207 O 0.9692 0.17745 0.80758 0.0
N208 N 0.9672 0.22628 0.85593 0.0
C209 C 0.97222 0.22097 0.89517 0.0
C210 C 0.98193 0.22479 0.88598 0.0
C211 C 0.97388 0.23386 0.82397 0.0
N212 N 0.98296 0.23275 0.84103 0.0
C213 C 0.94792 0.2082 0.93591 0.0
C214 C 0.95532 0.15517 0.93464 0.0
C215 C 0.95241 0.16671 0.97747 0.0
C216 C 0.9482 0.193 0.9769 0.0
C217 C 0.9547 0.1711 0.8935 0.0
N218 N 0.9515 0.198 0.89483 0.0
H219 H 0.9451 0.22891 0.93858 0.0
H220 H 0.95704 0.16171 0.86163 0.0
H221 H 0.96909 0.21482 0.92815 0.0
H222 H 0.97206 0.23989 0.78871 0.0
O223 O 0.9522 0.25757 0.88524 0.0
O224 O 0.95468 0.26053 0.80946 0.0
O225 O 0.95481 0.1978 0.79286 0.0
C226 C 0.95356 0.27318 0.84938 0.0
H227 H 0.9216 0.2283 0.7587 0.0
H228 H 0.98777 0.22152 0.91044 0.0
H229 H 0.9584 0.13452 0.93308 0.0
H230 H 0.94537 0.20239 0.00843 0.0
Co231 Co 0.82572 0.52021 0.84376 0.0
C232 C 0.84736 0.52248 0.85564 0.0
C233 C 0.84267 0.52324 0.78441 0.0
C234 C 0.85257 0.52394 0.78499 0.0
N235 N 0.83935 0.5226 0.82858 0.0
N236 N 0.85555 0.52354 0.82976 0.0
H237 H 0.84728 0.52153 0.89318 0.0
H238 H 0.83817 0.5227 0.75362 0.0
C239 C 0.81589 0.56176 0.77785 0.0
O240 O 0.80813 0.56246 0.80415 0.0
N241 N 0.81203 0.51689 0.85672 0.0
C242 C 0.80704 0.52282 0.89593 0.0
C243 C 0.79736 0.51783 0.88782 0.0
C244 C 0.8054 0.50745 0.82618 0.0
N245 N 0.79635 0.50851 0.84368 0.0
C246 C 0.83067 0.54088 0.93304 0.0
C247 C 0.82194 0.59221 0.9276 0.0
C248 C 0.8248 0.58199 0.97128 0.0
C249 C 0.82966 0.55668 0.9731 0.0
C250 C 0.82317 0.57557 0.88768 0.0
N251 N 0.82701 0.54943 0.89113 0.0
H252 H 0.83398 0.52085 0.93719 0.0
H253 H 0.82067 0.58363 0.85506 0.0
H254 H 0.81013 0.53075 0.92784 0.0
H255 H 0.80717 0.50111 0.79098 0.0
O256 O 0.82798 0.48948 0.88475 0.0
O257 O 0.82509 0.48482 0.80964 0.0
O258 O 0.82328 0.54747 0.79022 0.0
C259 C 0.82677 0.47302 0.84984 0.0
H260 H 0.85721 0.52401 0.75457 0.0
H261 H 0.7915 0.52188 0.9119 0.0
H262 H 0.81838 0.61215 0.92465 0.0
H263 H 0.83232 0.54847 0.00587 0.0
Co264 Co 0.07383 0.97222 0.59152 0.0
C265 C 0.09553 0.97452 0.60399 0.0
C266 C 0.09099 0.97101 0.53283 0.0
C267 C 0.1009 0.97221 0.53369 0.0
N268 N 0.08757 0.97214 0.57685 0.0
N269 N 0.10377 0.97437 0.57842 0.0
H270 H 0.09543 0.97712 0.64128 0.0
H271 H 0.08657 0.96967 0.50187 0.0
C272 C 0.06499 0.93002 0.52315 0.0
O273 O 0.0569 0.92887 0.54698 0.0
N274 N 0.06003 0.97327 0.60376 0.0
C275 C 0.05515 0.96621 0.64267 0.0
C276 C 0.04541 0.97057 0.63498 0.0
C277 C 0.05326 0.98269 0.57375 0.0
N278 N 0.04423 0.98067 0.59139 0.0
C279 C 0.07984 0.95172 0.6796 0.0
C280 C 0.07232 0.89894 0.67517 0.0
C281 C 0.07646 0.90813 0.71716 0.0
C282 C 0.0804 0.93467 0.71842 0.0
C283 C 0.07213 0.91667 0.63604 0.0
N284 N 0.0757 0.94311 0.63879 0.0
H285 H 0.08245 0.97252 0.68391 0.0
H286 H 0.06879 0.90924 0.60472 0.0
H287 H 0.05837 0.95824 0.67429 0.0
H288 H 0.05493 0.99009 0.53904 0.0
O289 O 0.07534 0.00309 0.63297 0.0
O290 O 0.07259 0.00766 0.55773 0.0
O291 O 0.07211 0.94463 0.53773 0.0
C292 C 0.07396 0.01953 0.59815 0.0
H293 H 0.10562 0.97122 0.5036 0.0
H294 H 0.03964 0.96586 0.65921 0.0
H295 H 0.06914 0.87847 0.67283 0.0
H296 H 0.08346 0.94299 0.75025 0.0
Co297 Co 0.20336 0.27391 0.60112 0.0
C298 C 0.1817 0.26699 0.59857 0.0
C299 C 0.18648 0.30657 0.57335 0.0
C300 C 0.17658 0.30598 0.57166 0.0
N301 N 0.18976 0.2821 0.58981 0.0
N302 N 0.17355 0.28117 0.58757 0.0
H303 H 0.18175 0.24639 0.61351 0.0
H304 H 0.19094 0.32423 0.56483 0.0
C305 C 0.21403 0.31285 0.5327 0.0
O306 O 0.22227 0.31035 0.55481 0.0
N307 N 0.21692 0.2654 0.61135 0.0
C308 C 0.22189 0.26583 0.65174 0.0
C309 C 0.23133 0.25836 0.64276 0.0
C310 C 0.22325 0.25607 0.57908 0.0
N311 N 0.23221 0.25261 0.59685 0.0
C312 C 0.1968 0.30005 0.68271 0.0
C313 C 0.21184 0.33672 0.69554 0.0
C314 C 0.20544 0.33166 0.73258 0.0
C315 C 0.19758 0.31413 0.72476 0.0
C316 C 0.21074 0.32223 0.6534 0.0
N317 N 0.20354 0.30311 0.64827 0.0
H318 H 0.1911 0.28498 0.67929 0.0
H319 H 0.21615 0.32487 0.62711 0.0
H320 H 0.21891 0.27161 0.68527 0.0
H321 H 0.22138 0.25305 0.5428 0.0
O322 O 0.20021 0.24443 0.64336 0.0
O323 O 0.20223 0.23889 0.5673 0.0
O324 O 0.20645 0.30023 0.54714 0.0
C325 C 0.20058 0.22768 0.60809 0.0
H326 H 0.17195 0.32307 0.56155 0.0
H327 H 0.23717 0.25827 0.66783 0.0
H328 H 0.21799 0.35029 0.70004 0.0
H329 H 0.19229 0.31024 0.75183 0.0
Co330 Co 0.07459 0.27218 0.66614 0.0
C331 C 0.09606 0.2671 0.64992 0.0
C332 C 0.09199 0.26814 0.72211 0.0
C333 C 0.10184 0.26521 0.71945 0.0
N334 N 0.08833 0.2695 0.67866 0.0
N335 N 0.10442 0.26454 0.6741 0.0
H336 H 0.09565 0.26657 0.61236 0.0
H337 H 0.08774 0.26901 0.75378 0.0
C338 C 0.06719 0.31803 0.73099 0.0
O339 O 0.05994 0.3231 0.70274 0.0
N340 N 0.06076 0.27399 0.65606 0.0
C341 C 0.05579 0.28047 0.61716 0.0
C342 C 0.04604 0.27767 0.62643 0.0
C343 C 0.054 0.26688 0.68793 0.0
N344 N 0.04493 0.26924 0.6711 0.0
C345 C 0.07988 0.29041 0.57523 0.0
C346 C 0.07622 0.34636 0.58326 0.0
C347 C 0.07892 0.33553 0.53967 0.0
C348 C 0.08095 0.30734 0.53647 0.0
C349 C 0.07553 0.32857 0.62222 0.0
N350 N 0.07699 0.30055 0.61769 0.0
H351 H 0.0814 0.2688 0.56989 0.0
H352 H 0.07381 0.33773 0.65523 0.0
H353 H 0.05899 0.28668 0.58436 0.0
H354 H 0.05576 0.2601 0.72289 0.0
O355 O 0.07515 0.24076 0.62524 0.0
O356 O 0.07271 0.23716 0.70079 0.0
O357 O 0.07361 0.29987 0.72018 0.0
C358 C 0.07361 0.22482 0.66047 0.0
H359 H 0.10673 0.26407 0.7488 0.0
H360 H 0.04023 0.28188 0.60222 0.0
H361 H 0.07471 0.36829 0.5872 0.0
H362 H 0.08303 0.29806 0.50351 0.0
Co363 Co 0.20271 0.97464 0.66736 0.0
C364 C 0.18099 0.97356 0.65486 0.0
C365 C 0.18565 0.96837 0.72557 0.0
C366 C 0.17575 0.96798 0.72483 0.0
N367 N 0.18901 0.97147 0.68174 0.0
N368 N 0.17278 0.97114 0.68037 0.0
H369 H 0.18107 0.97707 0.61777 0.0
H370 H 0.19011 0.96716 0.75644 0.0
C371 C 0.21261 0.93248 0.73208 0.0
O372 O 0.22051 0.93277 0.70673 0.0
N373 N 0.21644 0.97873 0.65553 0.0
C374 C 0.22154 0.9732 0.61656 0.0
C375 C 0.23118 0.97857 0.62525 0.0
C376 C 0.22297 0.98828 0.68663 0.0
N377 N 0.23207 0.98777 0.66957 0.0
C378 C 0.19732 0.95495 0.57779 0.0
C379 C 0.20585 0.90327 0.57978 0.0
C380 C 0.20157 0.91261 0.53831 0.0
C381 C 0.19712 0.93852 0.53813 0.0
C382 C 0.20564 0.92027 0.61979 0.0
N383 N 0.20159 0.94623 0.61829 0.0
H384 H 0.19422 0.97528 0.57458 0.0
H385 H 0.20895 0.91252 0.6509 0.0
H386 H 0.21856 0.96534 0.58436 0.0
H387 H 0.22108 0.99444 0.72176 0.0
O388 O 0.20041 0.00595 0.6278 0.0
O389 O 0.20301 0.00948 0.70332 0.0
O390 O 0.20516 0.94649 0.71955 0.0
C391 C 0.20132 0.02187 0.66362 0.0
H392 H 0.17111 0.9663 0.7551 0.0
H393 H 0.23708 0.97498 0.60123 0.0
H394 H 0.20933 0.88315 0.5812 0.0
H395 H 0.19382 0.94665 0.50668 0.0
Co396 Co 0.95177 0.02115 0.42747 0.0
C397 C 0.92998 0.02115 0.41645 0.0
C398 C 0.93486 0.02286 0.48728 0.0
C399 C 0.92494 0.0229 0.48737 0.0
N400 N 0.93808 0.02207 0.44292 0.0
N401 N 0.92185 0.0219 0.44285 0.0
H402 H 0.92993 0.01996 0.37896 0.0
H403 H 0.93943 0.023 0.51781 0.0
C404 C 0.96072 0.06544 0.4908 0.0
O405 O 0.96829 0.06833 0.4636 0.0
N406 N 0.96553 0.01952 0.4149 0.0
C407 C 0.97036 0.02458 0.37495 0.0
C408 C 0.98011 0.02066 0.38293 0.0
C409 C 0.97235 0.01189 0.44604 0.0
N410 N 0.98136 0.01288 0.42782 0.0
C411 C 0.94609 0.03955 0.33767 0.0
C412 C 0.95435 0.09145 0.33797 0.0
C413 C 0.95119 0.08018 0.2954 0.0
C414 C 0.94652 0.05458 0.29652 0.0
C415 C 0.95354 0.07578 0.37929 0.0
N416 N 0.94996 0.04931 0.37839 0.0
H417 H 0.94301 0.01918 0.33531 0.0
H418 H 0.95609 0.08493 0.41091 0.0
H419 H 0.96708 0.03085 0.3424 0.0
H420 H 0.97071 0.00622 0.48168 0.0
O421 O 0.95004 0.98969 0.38781 0.0
O422 O 0.95295 0.98637 0.46313 0.0
O423 O 0.95381 0.04906 0.47986 0.0
C424 C 0.95144 0.97387 0.42339 0.0
H425 H 0.92038 0.023 0.51805 0.0
H426 H 0.98583 0.02396 0.35779 0.0
H427 H 0.95777 0.11161 0.33918 0.0
H428 H 0.94349 0.04549 0.26524 0.0
Co429 Co 0.82598 0.72207 0.42065 0.0
C430 C 0.84744 0.7325 0.41792 0.0
C431 C 0.84376 0.69542 0.45524 0.0
C432 C 0.85364 0.69813 0.45525 0.0
N433 N 0.8398 0.71708 0.43233 0.0
N434 N 0.85595 0.72132 0.43162 0.0
H435 H 0.84686 0.751 0.39675 0.0
H436 H 0.83984 0.67799 0.46935 0.0
C437 C 0.81599 0.68236 0.49009 0.0
O438 O 0.80777 0.6836 0.46748 0.0
N439 N 0.81224 0.72782 0.40989 0.0
C440 C 0.80738 0.72591 0.36934 0.0
C441 C 0.79783 0.73268 0.37726 0.0
C442 C 0.8057 0.73731 0.44117 0.0
N443 N 0.79675 0.73955 0.42266 0.0
C444 C 0.83315 0.69625 0.33989 0.0
C445 C 0.8188 0.65733 0.32771 0.0
C446 C 0.82498 0.6635 0.29027 0.0
C447 C 0.83256 0.68203 0.2979 0.0
C448 C 0.81974 0.67189 0.3699 0.0
N449 N 0.82653 0.69226 0.37459 0.0
H450 H 0.83851 0.71232 0.34267 0.0
H451 H 0.81445 0.66838 0.3965 0.0
H452 H 0.81052 0.71996 0.33625 0.0
H453 H 0.80747 0.7417 0.47718 0.0
O454 O 0.82844 0.75151 0.37731 0.0
O455 O 0.82625 0.75768 0.45314 0.0
O456 O 0.8234 0.69581 0.47556 0.0
C457 C 0.8277 0.76861 0.41196 0.0
H458 H 0.85876 0.68338 0.46939 0.0
H459 H 0.7921 0.73185 0.35167 0.0
H460 H 0.81287 0.64291 0.32346 0.0
H461 H 0.83772 0.68679 0.27059 0.0
Co462 Co 0.95383 0.72311 0.34656 0.0
C463 C 0.93238 0.7339 0.34715 0.0
C464 C 0.9362 0.69761 0.30797 0.0
C465 C 0.92633 0.70043 0.30724 0.0
N466 N 0.94008 0.7187 0.33257 0.0
N467 N 0.92392 0.7231 0.33206 0.0
H468 H 0.93287 0.75186 0.36963 0.0
H469 H 0.94017 0.68039 0.29334 0.0
C470 C 0.96422 0.68367 0.27809 0.0
O471 O 0.97226 0.68445 0.30211 0.0
N472 N 0.9675 0.72831 0.35961 0.0
C473 C 0.97218 0.7253 0.40048 0.0
C474 C 0.98181 0.7315 0.39373 0.0
C475 C 0.97422 0.73788 0.32944 0.0
N476 N 0.98312 0.73907 0.34878 0.0
C477 C 0.94592 0.69669 0.42505 0.0
C478 C 0.95951 0.65537 0.43691 0.0
C479 C 0.95267 0.66015 0.47218 0.0
C480 C 0.94564 0.68048 0.46498 0.0
C481 C 0.95939 0.67181 0.39646 0.0
N482 N 0.95286 0.69294 0.39173 0.0
H483 H 0.94089 0.7137 0.42273 0.0
H484 H 0.96499 0.66868 0.37123 0.0
H485 H 0.96888 0.71877 0.43287 0.0
H486 H 0.97264 0.7428 0.29341 0.0
O487 O 0.95117 0.75239 0.38995 0.0
O488 O 0.95386 0.75878 0.31449 0.0
O489 O 0.95673 0.69718 0.29167 0.0
C490 C 0.95215 0.76958 0.35554 0.0
H491 H 0.92127 0.68598 0.29193 0.0
H492 H 0.98746 0.72958 0.4196 0.0
H493 H 0.96508 0.63977 0.44124 0.0
H494 H 0.94032 0.68529 0.49156 0.0
Co495 Co 0.8232 0.02043 0.34225 0.0
C496 C 0.84452 0.0212 0.36132 0.0
C497 C 0.84088 0.02313 0.28856 0.0
C498 C 0.85074 0.02248 0.29245 0.0
N499 N 0.83696 0.02241 0.33151 0.0
N500 N 0.85307 0.02111 0.33808 0.0
H501 H 0.84378 0.0196 0.39882 0.0
H502 H 0.83682 0.02353 0.25636 0.0
C503 C 0.81533 0.06757 0.28364 0.0
O504 O 0.80898 0.07306 0.31648 0.0
N505 N 0.80921 0.01782 0.35021 0.0
C506 C 0.80388 0.01686 0.38966 0.0
C507 C 0.7943 0.01422 0.37805 0.0
C508 C 0.80273 0.01474 0.31523 0.0
N509 N 0.79355 0.01302 0.33123 0.0
C510 C 0.82325 0.04027 0.43542 0.0
C511 C 0.82715 0.09551 0.41958 0.0
C512 C 0.82537 0.08634 0.46531 0.0
C513 C 0.82359 0.05835 0.4728 0.0
C514 C 0.82661 0.0764 0.38229 0.0
N515 N 0.82419 0.04926 0.39038 0.0
H516 H 0.82205 0.01882 0.44369 0.0
H517 H 0.82827 0.08344 0.34747 0.0
H518 H 0.80656 0.01729 0.4248 0.0
H519 H 0.80471 0.01428 0.27871 0.0
O520 O 0.82499 0.98947 0.38301 0.0
O521 O 0.82284 0.98526 0.30723 0.0
O522 O 0.82144 0.04791 0.28915 0.0
C523 C 0.82415 0.97324 0.34758 0.0
H524 H 0.85581 0.02298 0.2637 0.0
H525 H 0.78835 0.01266 0.40243 0.0
H526 H 0.8289 0.11702 0.4128 0.0
H527 H 0.82252 0.05032 0.50778 0.0
Co528 Co 0.57702 0.47714 0.57718 0.0
C529 C 0.59872 0.47908 0.58783 0.0
C530 C 0.59377 0.48297 0.5173 0.0
C531 C 0.60368 0.48352 0.51707 0.0
N532 N 0.59062 0.47997 0.5615 0.0
N533 N 0.60681 0.48099 0.56136 0.0
H534 H 0.5988 0.47674 0.62521 0.0
H535 H 0.58913 0.48458 0.4871 0.0
C536 C 0.56936 0.4319 0.51226 0.0
O537 O 0.56217 0.42652 0.54078 0.0
N538 N 0.56329 0.475 0.59011 0.0
C539 C 0.55867 0.46733 0.62943 0.0
C540 C 0.54883 0.46957 0.62205 0.0
C541 C 0.55625 0.48234 0.55994 0.0
N542 N 0.54732 0.47897 0.57822 0.0
C543 C 0.58315 0.45837 0.66648 0.0
C544 C 0.57937 0.40254 0.65828 0.0
C545 C 0.58246 0.41304 0.70145 0.0
C546 C 0.58455 0.44119 0.70468 0.0
C547 C 0.57834 0.42057 0.61985 0.0
N548 N 0.57988 0.4485 0.62453 0.0
H549 H 0.58476 0.47993 0.67168 0.0
H550 H 0.57624 0.41169 0.58718 0.0
H551 H 0.56215 0.46065 0.66125 0.0
H552 H 0.55768 0.48912 0.52464 0.0
O553 O 0.57782 0.50828 0.61848 0.0
O554 O 0.57479 0.51226 0.54345 0.0
O555 O 0.57577 0.44991 0.52308 0.0
C556 C 0.57599 0.52436 0.58375 0.0
H557 H 0.60822 0.48593 0.48657 0.0
H558 H 0.54325 0.46487 0.64727 0.0
H559 H 0.57777 0.38069 0.65432 0.0
H560 H 0.58689 0.45028 0.73733 0.0
Co561 Co 0.70363 0.77326 0.58712 0.0
C562 C 0.68224 0.76898 0.60403 0.0
C563 C 0.68606 0.77259 0.53169 0.0
C564 C 0.67622 0.76969 0.53492 0.0
N565 N 0.68987 0.77228 0.57488 0.0
N566 N 0.67379 0.76736 0.58034 0.0
H567 H 0.68285 0.76701 0.64145 0.0
H568 H 0.6902 0.77434 0.4998 0.0
C569 C 0.7117 0.81878 0.52413 0.0
O570 O 0.719 0.82226 0.55268 0.0
N571 N 0.71749 0.77339 0.59784 0.0
C572 C 0.72232 0.77907 0.63749 0.0
C573 C 0.73209 0.77604 0.6292 0.0
C574 C 0.72437 0.76637 0.56641 0.0
N575 N 0.73338 0.76822 0.58439 0.0
C576 C 0.69938 0.79078 0.67959 0.0
C577 C 0.70295 0.84676 0.67094 0.0
C578 C 0.70157 0.83534 0.71546 0.0
C579 C 0.69946 0.80726 0.71916 0.0
C580 C 0.7029 0.82922 0.63156 0.0
N581 N 0.70161 0.80118 0.63641 0.0
H582 H 0.69776 0.76925 0.68497 0.0
H583 H 0.70398 0.83849 0.59794 0.0
H584 H 0.71906 0.7851 0.67019 0.0
H585 H 0.72278 0.76039 0.53087 0.0
O586 O 0.70266 0.7413 0.62648 0.0
O587 O 0.70514 0.73878 0.55079 0.0
O588 O 0.70492 0.80172 0.53443 0.0
C589 C 0.70408 0.72585 0.59049 0.0
H590 H 0.67122 0.76952 0.50591 0.0
H591 H 0.73779 0.77991 0.65411 0.0
H592 H 0.70431 0.86874 0.66677 0.0
H593 H 0.69801 0.79789 0.75284 0.0
Co594 Co 0.5754 0.7744 0.66413 0.0
C595 C 0.59707 0.76618 0.66723 0.0
C596 C 0.5924 0.80491 0.69649 0.0
C597 C 0.60228 0.80387 0.69834 0.0
N598 N 0.58904 0.78124 0.67742 0.0
N599 N 0.60526 0.77963 0.67984 0.0
H600 H 0.59697 0.74629 0.64977 0.0
H601 H 0.58801 0.82252 0.70638 0.0
C602 C 0.5647 0.8133 0.73247 0.0
O603 O 0.55662 0.81208 0.7088 0.0
N604 N 0.56179 0.76716 0.65242 0.0
C605 C 0.55694 0.76872 0.6118 0.0
C606 C 0.5474 0.76206 0.61994 0.0
C607 C 0.55528 0.75789 0.68393 0.0
N608 N 0.54632 0.75557 0.66551 0.0
C609 C 0.58287 0.80187 0.58563 0.0
C610 C 0.56832 0.84007 0.5714 0.0
C611 C 0.57543 0.8366 0.53696 0.0
C612 C 0.58292 0.81781 0.54533 0.0
C613 C 0.56866 0.82395 0.61223 0.0
N614 N 0.57573 0.80441 0.61827 0.0
H615 H 0.58832 0.786 0.58892 0.0
H616 H 0.56285 0.82595 0.63664 0.0
H617 H 0.56008 0.77459 0.57866 0.0
H618 H 0.55697 0.75468 0.72037 0.0
O619 O 0.57851 0.74545 0.62082 0.0
O620 O 0.57604 0.73873 0.69633 0.0
O621 O 0.57224 0.80006 0.71887 0.0
C622 C 0.5778 0.72813 0.65517 0.0
H623 H 0.60696 0.82043 0.71008 0.0
H624 H 0.54168 0.76224 0.59422 0.0
H625 H 0.56239 0.85442 0.56618 0.0
H626 H 0.58848 0.814 0.51944 0.0
Co627 Co 0.7054 0.47345 0.65776 0.0
C628 C 0.68405 0.47401 0.6406 0.0
C629 C 0.68792 0.47109 0.713 0.0
C630 C 0.67805 0.47222 0.7099 0.0
N631 N 0.69169 0.4721 0.66976 0.0
N632 N 0.67559 0.47423 0.66451 0.0
H633 H 0.68469 0.47601 0.60312 0.0
H634 H 0.69207 0.47019 0.74487 0.0
C635 C 0.71347 0.42706 0.7174 0.0
O636 O 0.71991 0.42156 0.68499 0.0
N637 N 0.71931 0.47541 0.64867 0.0
C638 C 0.72469 0.47393 0.60944 0.0
C639 C 0.73426 0.47747 0.62097 0.0
C640 C 0.72572 0.48043 0.6832 0.0
N641 N 0.73491 0.48149 0.66743 0.0
C642 C 0.70474 0.4526 0.56526 0.0
C643 C 0.70105 0.39751 0.58405 0.0
C644 C 0.70236 0.40611 0.53771 0.0
C645 C 0.70406 0.434 0.52866 0.0
C646 C 0.7018 0.41715 0.62032 0.0
N647 N 0.70409 0.4442 0.61072 0.0
H648 H 0.70605 0.47391 0.5562 0.0
H649 H 0.70039 0.41055 0.65563 0.0
H650 H 0.72206 0.47083 0.57457 0.0
H651 H 0.72362 0.48341 0.71923 0.0
O652 O 0.70362 0.50436 0.61651 0.0
O653 O 0.70609 0.50862 0.69212 0.0
O654 O 0.70725 0.44636 0.7112 0.0
C655 C 0.70472 0.52063 0.65183 0.0
H656 H 0.67308 0.47162 0.73904 0.0
H657 H 0.74027 0.47684 0.59684 0.0
H658 H 0.69942 0.37606 0.59201 0.0
H659 H 0.70488 0.44144 0.49318 0.0
Co660 Co 0.4545 0.52042 0.42424 0.0
C661 C 0.43267 0.51935 0.41709 0.0
C662 C 0.43793 0.52472 0.48671 0.0
C663 C 0.42801 0.52423 0.48818 0.0
N664 N 0.44091 0.52206 0.44213 0.0
N665 N 0.42469 0.52091 0.4444 0.0
H666 H 0.4324 0.51541 0.38015 0.0
H667 H 0.44264 0.52652 0.51657 0.0
C668 C 0.46456 0.56188 0.48942 0.0
O669 O 0.47236 0.56215 0.46335 0.0
N670 N 0.46814 0.51778 0.40877 0.0
C671 C 0.47271 0.52437 0.36874 0.0
C672 C 0.48246 0.51936 0.3743 0.0
C673 C 0.47511 0.50782 0.43725 0.0
N674 N 0.48398 0.50915 0.4176 0.0
C675 C 0.44781 0.54169 0.33787 0.0
C676 C 0.45668 0.59282 0.33921 0.0
C677 C 0.45198 0.58408 0.29848 0.0
C678 C 0.44732 0.55852 0.29876 0.0
C679 C 0.45675 0.57546 0.37876 0.0
N680 N 0.45257 0.54972 0.37742 0.0
H681 H 0.44472 0.52139 0.3346 0.0
H682 H 0.4605 0.58257 0.40908 0.0
H683 H 0.46926 0.53244 0.33777 0.0
H684 H 0.47374 0.50133 0.47277 0.0
O685 O 0.45217 0.48984 0.38327 0.0
O686 O 0.45562 0.48499 0.45788 0.0
O687 O 0.45714 0.54776 0.47722 0.0
C688 C 0.45373 0.47331 0.41779 0.0
H689 H 0.42361 0.52642 0.51917 0.0
H690 H 0.488 0.52311 0.34841 0.0
H691 H 0.46037 0.61259 0.34023 0.0
H692 H 0.44374 0.55073 0.26781 0.0
Co693 Co 0.32429 0.2241 0.41546 0.0
C694 C 0.34567 0.22089 0.3978 0.0
C695 C 0.34178 0.2216 0.47039 0.0
C696 C 0.35165 0.22008 0.46708 0.0
N697 N 0.33801 0.22192 0.42718 0.0
N698 N 0.35413 0.21954 0.42155 0.0
H699 H 0.34505 0.22092 0.36017 0.0
H700 H 0.33762 0.22268 0.50228 0.0
C701 C 0.31619 0.17654 0.47227 0.0
O702 O 0.30984 0.17159 0.43927 0.0
N703 N 0.31036 0.22682 0.40644 0.0
C704 C 0.30519 0.22853 0.36667 0.0
C705 C 0.29558 0.23168 0.37771 0.0
C706 C 0.30377 0.22978 0.44105 0.0
N707 N 0.29466 0.2324 0.42453 0.0
C708 C 0.32479 0.20568 0.3216 0.0
C709 C 0.32799 0.14985 0.33559 0.0
C710 C 0.32639 0.15979 0.29017 0.0
C711 C 0.32502 0.18807 0.2836 0.0
C712 C 0.32758 0.16852 0.37352 0.0
N713 N 0.32548 0.19598 0.36631 0.0
H714 H 0.32379 0.22732 0.31411 0.0
H715 H 0.32903 0.16084 0.40816 0.0
H716 H 0.30801 0.22818 0.33171 0.0
H717 H 0.30566 0.2303 0.47765 0.0
O718 O 0.32622 0.25574 0.37627 0.0
O719 O 0.32367 0.2586 0.45199 0.0
O720 O 0.32239 0.19595 0.46732 0.0
C721 C 0.32512 0.27134 0.41239 0.0
H722 H 0.35662 0.22002 0.49616 0.0
H723 H 0.28972 0.23318 0.35291 0.0
H724 H 0.32943 0.12807 0.34166 0.0
H725 H 0.32412 0.19667 0.2489 0.0
Co726 Co 0.45311 0.22241 0.3373 0.0
C727 C 0.43129 0.22299 0.3474 0.0
C728 C 0.43632 0.22289 0.27671 0.0
C729 C 0.42641 0.22333 0.27625 0.0
N730 N 0.43945 0.22243 0.32121 0.0
N731 N 0.42322 0.22335 0.32068 0.0
H732 H 0.43113 0.22378 0.38492 0.0
H733 H 0.44097 0.22303 0.24636 0.0
C734 C 0.46229 0.18035 0.27012 0.0
O735 O 0.47018 0.17903 0.29535 0.0
N736 N 0.46687 0.22336 0.35078 0.0
C737 C 0.47171 0.21495 0.38901 0.0
C738 C 0.48148 0.21894 0.38149 0.0
C739 C 0.4737 0.23324 0.32151 0.0
N740 N 0.48274 0.2302 0.33871 0.0
C741 C 0.44683 0.20165 0.42466 0.0
C742 C 0.45445 0.14886 0.42005 0.0
C743 C 0.45022 0.15803 0.4618 0.0
C744 C 0.44621 0.18449 0.46326 0.0
C745 C 0.45465 0.16664 0.38106 0.0
N746 N 0.45108 0.19312 0.38396 0.0
H747 H 0.44412 0.22239 0.42891 0.0
H748 H 0.45799 0.15916 0.34977 0.0
H749 H 0.46846 0.20612 0.41991 0.0
H750 H 0.47203 0.24154 0.28744 0.0
O751 O 0.45141 0.25308 0.37894 0.0
O752 O 0.45447 0.25788 0.30394 0.0
O753 O 0.45509 0.19514 0.28346 0.0
C754 C 0.45296 0.26959 0.34439 0.0
H755 H 0.4219 0.22322 0.24542 0.0
H756 H 0.48719 0.21312 0.4053 0.0
H757 H 0.45764 0.12837 0.41777 0.0
H758 H 0.443 0.19251 0.49505 0.0
Co759 Co 0.32593 0.52347 0.34651 0.0
C760 C 0.3474 0.52131 0.36485 0.0
C761 C 0.34338 0.51533 0.29319 0.0
C762 C 0.35325 0.51492 0.29605 0.0
N763 N 0.33968 0.51951 0.33602 0.0
N764 N 0.35582 0.5189 0.34092 0.0
H765 H 0.34688 0.52513 0.40197 0.0
H766 H 0.33915 0.51308 0.26174 0.0
C767 C 0.32187 0.57516 0.29008 0.0
O768 O 0.31777 0.5867 0.32653 0.0
N769 N 0.31189 0.52741 0.35335 0.0
C770 C 0.30672 0.54496 0.38056 0.0
C771 C 0.29709 0.54276 0.36966 0.0
C772 C 0.3052 0.51547 0.3253 0.0
N773 N 0.29613 0.52429 0.3348 0.0
C774 C 0.32543 0.54285 0.43873 0.0
C775 C 0.3363 0.59045 0.42943 0.0
C776 C 0.33329 0.58189 0.47405 0.0
C777 C 0.32776 0.55794 0.47812 0.0
C778 C 0.3339 0.57418 0.39018 0.0
N779 N 0.32833 0.55094 0.3952 0.0
H780 H 0.32103 0.52462 0.44348 0.0
H781 H 0.33672 0.5798 0.3563 0.0
H782 H 0.3096 0.55999 0.4046 0.0
H783 H 0.30693 0.50115 0.29749 0.0
O784 O 0.32606 0.49216 0.38773 0.0
O785 O 0.324 0.48881 0.31168 0.0
O786 O 0.32555 0.55089 0.29305 0.0
C787 C 0.32463 0.47641 0.35207 0.0
H788 H 0.35817 0.5119 0.26711 0.0
H789 H 0.2913 0.55505 0.38448 0.0
H790 H 0.34066 0.6089 0.4252 0.0
H791 H 0.32518 0.55089 0.51182 0.0
Co792 Co 0.5731 0.97459 0.08601 0.0
C793 C 0.59495 0.97803 0.10042 0.0
C794 C 0.59078 0.96811 0.02645 0.0
C795 C 0.60074 0.96987 0.03209 0.0
N796 N 0.58705 0.97332 0.07059 0.0
N797 N 0.60329 0.97589 0.0765 0.0
H798 H 0.59445 0.98361 0.13676 0.0
H799 H 0.58449 0.97093 0.04729 0.0
C800 C 0.56336 0.93156 0.02206 0.0
O801 O 0.5557 0.93043 0.04901 0.0
N802 N 0.55938 0.97681 0.09963 0.0
C803 C 0.55461 0.97011 0.13903 0.0
C804 C 0.54485 0.9743 0.1318 0.0
C805 C 0.55253 0.98587 0.06974 0.0
N806 N 0.54355 0.98401 0.08802 0.0
C807 C 0.57885 0.95484 0.17505 0.0
C808 C 0.57211 0.90117 0.16954 0.0
C809 C 0.57596 0.91076 0.21173 0.0
C810 C 0.57952 0.93772 0.21373 0.0
C811 C 0.57182 0.91897 0.13064 0.0
N812 N 0.57493 0.94588 0.13395 0.0
H813 H 0.5813 0.97578 0.17953 0.0
H814 H 0.56893 0.91088 0.09884 0.0
H815 H 0.55791 0.96237 0.17061 0.0
H816 H 0.55408 0.992 0.03421 0.0
O817 O 0.57508 0.00601 0.12582 0.0
O818 O 0.57195 0.00946 0.0507 0.0
O819 O 0.57064 0.94649 0.03342 0.0
C820 C 0.57363 0.02189 0.09031 0.0
H821 H 0.60585 0.96607 0.0042 0.0
H822 H 0.53917 0.97023 0.15682 0.0
H823 H 0.56934 0.88024 0.16671 0.0
H824 H 0.58246 0.94603 0.24583 0.0
Co825 Co 0.70271 0.27553 0.08133 0.0
C826 C 0.68111 0.26655 0.07351 0.0
C827 C 0.68577 0.30659 0.04992 0.0
C828 C 0.67591 0.30534 0.04619 0.0
N829 N 0.68912 0.28229 0.06675 0.0
N830 N 0.67293 0.28024 0.06108 0.0
H831 H 0.68122 0.24592 0.08835 0.0
H832 H 0.69014 0.32466 0.04284 0.0
C833 C 0.71348 0.31528 0.01469 0.0
O834 O 0.72141 0.31466 0.03959 0.0
N835 N 0.7163 0.26845 0.09395 0.0
C836 C 0.72098 0.26893 0.1351 0.0
C837 C 0.73055 0.26206 0.12751 0.0
C838 C 0.72294 0.25979 0.06252 0.0
N839 N 0.73181 0.2566 0.08165 0.0
C840 C 0.69463 0.30209 0.15937 0.0
C841 C 0.70921 0.33919 0.17889 0.0
C842 C 0.70179 0.3353 0.21175 0.0
C843 C 0.6943 0.31713 0.20062 0.0
C844 C 0.70914 0.32402 0.13693 0.0
N845 N 0.70205 0.30498 0.12826 0.0
H846 H 0.68917 0.28647 0.15423 0.0
H847 H 0.71518 0.3262 0.11375 0.0
H848 H 0.71772 0.27412 0.16828 0.0
H849 H 0.72132 0.25662 0.02601 0.0
O850 O 0.69954 0.2461 0.12363 0.0
O851 O 0.70231 0.2401 0.04824 0.0
O852 O 0.70597 0.30168 0.02739 0.0
C853 C 0.70045 0.22908 0.08898 0.0
H854 H 0.67125 0.32226 0.03565 0.0
H855 H 0.73616 0.26186 0.1537 0.0
H856 H 0.71515 0.35307 0.18622 0.0
H857 H 0.68852 0.31295 0.22514 0.0
Co858 Co 0.57432 0.27409 0.15401 0.0
C859 C 0.59536 0.26766 0.12774 0.0
C860 C 0.59256 0.26765 0.20148 0.0
C861 C 0.60226 0.26365 0.1947 0.0
N862 N 0.5882 0.2702 0.15978 0.0
N863 N 0.60407 0.26358 0.14847 0.0
H864 H 0.59422 0.26837 0.09041 0.0
H865 H 0.58888 0.26836 0.23477 0.0
C866 C 0.57166 0.32718 0.20884 0.0
O867 O 0.56804 0.33931 0.1718 0.0
N868 N 0.56017 0.2779 0.15208 0.0
C869 C 0.55478 0.29772 0.13096 0.0
C870 C 0.54527 0.29464 0.14342 0.0
C871 C 0.5537 0.26365 0.17848 0.0
N872 N 0.54458 0.27329 0.17344 0.0
C873 C 0.57154 0.29378 0.06301 0.0
C874 C 0.58387 0.33866 0.06349 0.0
C875 C 0.5789 0.33194 0.02216 0.0
C876 C 0.57278 0.30899 0.02254 0.0
C877 C 0.58233 0.32272 0.10417 0.0
N878 N 0.57595 0.30107 0.10379 0.0
H879 H 0.56682 0.27601 0.06161 0.0
H880 H 0.58635 0.32744 0.1355 0.0
H881 H 0.55748 0.31454 0.10986 0.0
H882 H 0.55561 0.24698 0.20196 0.0
O883 O 0.5739 0.24264 0.11333 0.0
O884 O 0.57299 0.23968 0.19007 0.0
O885 O 0.57459 0.30203 0.20686 0.0
C886 C 0.57307 0.22706 0.14972 0.0
H887 H 0.60762 0.26136 0.22192 0.0
H888 H 0.53938 0.3081 0.1331 0.0
H889 H 0.58887 0.35591 0.06432 0.0
H890 H 0.56907 0.30229 0.99127 0.0
Co891 Co 0.70188 0.97742 0.16492 0.0
C892 C 0.68014 0.97862 0.15505 0.0
C893 C 0.68507 0.977 0.2258 0.0
C894 C 0.67516 0.97761 0.22605 0.0
N895 N 0.68825 0.97734 0.18136 0.0
N896 N 0.67203 0.97854 0.18155 0.0
H897 H 0.68008 0.97962 0.11755 0.0
H898 H 0.68969 0.9767 0.25621 0.0
C899 C 0.71104 0.93396 0.22979 0.0
O900 O 0.71882 0.9326 0.20369 0.0
N901 N 0.71559 0.97839 0.15051 0.0
C902 C 0.7201 0.97222 0.11013 0.0
C903 C 0.72988 0.97652 0.11574 0.0
C904 C 0.72264 0.98724 0.17945 0.0
N905 N 0.73149 0.98582 0.15952 0.0
C906 C 0.69571 0.95848 0.0762 0.0
C907 C 0.70278 0.90507 0.07877 0.0
C908 C 0.69891 0.9153 0.03681 0.0
C909 C 0.69519 0.94218 0.03653 0.0
C910 C 0.70301 0.92218 0.11866 0.0
N911 N 0.69972 0.94898 0.1168 0.0
H912 H 0.69314 0.97941 0.07279 0.0
H913 H 0.70611 0.91386 0.14993 0.0
H914 H 0.71658 0.96516 0.07868 0.0
H915 H 0.7213 0.9934 0.21516 0.0
O916 O 0.70016 0.00883 0.12489 0.0
O917 O 0.70333 0.01245 0.19985 0.0
O918 O 0.70388 0.94926 0.21761 0.0
C919 C 0.70173 0.02482 0.16003 0.0
H920 H 0.67063 0.97791 0.25685 0.0
H921 H 0.73536 0.97316 0.08938 0.0
H922 H 0.70571 0.88425 0.08058 0.0
H923 H 0.69231 0.95135 0.00494 0.0
Co924 Co 0.45251 0.02134 0.91354 0.0
C925 C 0.43082 0.01926 0.90301 0.0
C926 C 0.43552 0.02551 0.97341 0.0
C927 C 0.42561 0.02456 0.97311 0.0
N928 N 0.43884 0.02253 0.92946 0.0
N929 N 0.42264 0.02068 0.92884 0.0
H930 H 0.43087 0.01507 0.86611 0.0
H931 H 0.44001 0.02787 1.00397 0.0
C932 C 0.46206 0.06416 0.97778 0.0
O933 O 0.46979 0.06503 0.95129 0.0
N934 N 0.46622 0.01924 0.89973 0.0
C935 C 0.47097 0.02585 0.86023 0.0
C936 C 0.48073 0.0216 0.86731 0.0
C937 C 0.47309 0.01009 0.92948 0.0
N938 N 0.48205 0.01188 0.91108 0.0
C939 C 0.44636 0.04097 0.82513 0.0
C940 C 0.45401 0.09369 0.82768 0.0
C941 C 0.4498 0.08402 0.78633 0.0
C942 C 0.44576 0.05763 0.78587 0.0
C943 C 0.45418 0.07643 0.86732 0.0
N944 N 0.45062 0.04994 0.86545 0.0
H945 H 0.44364 0.02024 0.82163 0.0
H946 H 0.45744 0.08441 0.89836 0.0
H947 H 0.46765 0.03353 0.82865 0.0
H948 H 0.47155 0.00393 0.96502 0.0
O949 O 0.45057 0.99003 0.87358 0.0
O950 O 0.45369 0.98645 0.94869 0.0
O951 O 0.45476 0.04938 0.96601 0.0
C952 C 0.45205 0.97408 0.90894 0.0
H953 H 0.42096 0.02685 1.00324 0.0
H954 H 0.4864 0.0256 0.8422 0.0
H955 H 0.45718 0.11419 0.82921 0.0
H956 H 0.44254 0.04929 0.75442 0.0
Co957 Co 0.32666 0.726 0.92091 0.0
C958 C 0.34848 0.72798 0.90922 0.0
C959 C 0.34341 0.737 0.97824 0.0
C960 C 0.35332 0.7379 0.97845 0.0
N961 N 0.34031 0.73077 0.93498 0.0
N962 N 0.35654 0.73217 0.9351 0.0
H963 H 0.34867 0.72242 0.87285 0.0
H964 H 0.33874 0.74041 0.00797 0.0
C965 C 0.32004 0.67968 0.98628 0.0
O966 O 0.31279 0.67361 0.95864 0.0
N967 N 0.31289 0.72205 0.90984 0.0
C968 C 0.30818 0.71465 0.87071 0.0
C969 C 0.29835 0.71645 0.87903 0.0
C970 C 0.30591 0.72878 0.94084 0.0
N971 N 0.29693 0.72536 0.92324 0.0
C972 C 0.33283 0.70925 0.83116 0.0
C973 C 0.32869 0.65345 0.83468 0.0
C974 C 0.3311 0.66561 0.79169 0.0
C975 C 0.33355 0.69356 0.79096 0.0
C976 C 0.32806 0.6702 0.87503 0.0
N977 N 0.32971 0.6982 0.87255 0.0
H978 H 0.3348 0.73071 0.828 0.0
H979 H 0.32611 0.66045 0.90728 0.0
H980 H 0.31158 0.70875 0.83823 0.0
H981 H 0.30743 0.73554 0.97605 0.0
O982 O 0.32669 0.75722 0.87975 0.0
O983 O 0.32392 0.76075 0.95506 0.0
O984 O 0.32616 0.69843 0.97486 0.0
C985 C 0.32467 0.77299 0.91458 0.0
H986 H 0.3578 0.74261 0.0083 0.0
H987 H 0.29271 0.71207 0.85401 0.0
H988 H 0.32696 0.63158 0.83676 0.0
H989 H 0.33582 0.70356 0.7589 0.0
Co990 Co 0.45546 0.72144 0.84673 0.0
C991 C 0.43371 0.72511 0.85773 0.0
C992 C 0.43839 0.71669 0.78789 0.0
C993 C 0.42849 0.71826 0.78813 0.0
N994 N 0.44173 0.72055 0.83155 0.0
N995 N 0.42552 0.72354 0.83202 0.0
H996 H 0.43378 0.73046 0.89422 0.0
H997 H 0.44284 0.71345 0.75737 0.0
C998 C 0.46477 0.67856 0.78113 0.0
O999 O 0.47267 0.67758 0.80633 0.0
N1000 N 0.46923 0.72326 0.85948 0.0
C1001 C 0.47405 0.7168 0.89878 0.0
C1002 C 0.48381 0.72071 0.89096 0.0
C1003 C 0.47605 0.73202 0.82911 0.0
N1004 N 0.48507 0.73004 0.84689 0.0
C1005 C 0.44914 0.70143 0.93458 0.0
C1006 C 0.45723 0.64916 0.93267 0.0
C1007 C 0.45272 0.65849 0.9736 0.0
C1008 C 0.44848 0.68469 0.97373 0.0
C1009 C 0.45747 0.66649 0.89312 0.0
N1010 N 0.45365 0.69273 0.89465 0.0
H1011 H 0.4463 0.72205 0.93789 0.0
H1012 H 0.461 0.65882 0.86248 0.0
H1013 H 0.47078 0.70946 0.93074 0.0
H1014 H 0.47443 0.73801 0.79361 0.0
O1015 O 0.45367 0.75258 0.88725 0.0
O1016 O 0.45653 0.75644 0.81184 0.0
O1017 O 0.45756 0.69345 0.794 0.0
C1018 C 0.45502 0.76864 0.8519 0.0
H1019 H 0.42386 0.71552 0.75813 0.0
H1020 H 0.48951 0.71673 0.91587 0.0
H1021 H 0.46058 0.62886 0.93141 0.0
H1022 H 0.44505 0.69282 0.00488 0.0
Co1023 Co 0.32397 0.02407 0.83903 0.0
C1024 C 0.34582 0.02218 0.84939 0.0
C1025 C 0.3408 0.02198 0.77876 0.0
C1026 C 0.35071 0.02111 0.77823 0.0
N1027 N 0.33766 0.02295 0.82325 0.0
N1028 N 0.3539 0.02133 0.82263 0.0
H1029 H 0.34598 0.02229 0.88688 0.0
H1030 H 0.33615 0.02165 0.74847 0.0
C1031 C 0.31532 0.06719 0.77204 0.0
O1032 O 0.30752 0.06972 0.79775 0.0
N1033 N 0.3102 0.02419 0.85185 0.0
C1034 C 0.30535 0.03159 0.89072 0.0
C1035 C 0.29557 0.02825 0.88269 0.0
C1036 C 0.30336 0.01562 0.82156 0.0
N1037 N 0.29434 0.01849 0.83891 0.0
C1038 C 0.33046 0.04351 0.92666 0.0
C1039 C 0.32342 0.09693 0.92425 0.0
C1040 C 0.32765 0.08694 0.96552 0.0
C1041 C 0.33136 0.0601 0.96574 0.0
C1042 C 0.32293 0.07961 0.88461 0.0
N1043 N 0.32626 0.05284 0.88641 0.0
H1044 H 0.33297 0.02254 0.93025 0.0
H1045 H 0.3196 0.08767 0.85371 0.0
H1046 H 0.30863 0.03919 0.92244 0.0
H1047 H 0.30499 0.00827 0.78678 0.0
O1048 O 0.32528 0.99326 0.88047 0.0
O1049 O 0.32231 0.98866 0.80548 0.0
O1050 O 0.32234 0.05165 0.78526 0.0
C1051 C 0.32364 0.97685 0.84601 0.0
H1052 H 0.35519 0.01989 0.74736 0.0
H1053 H 0.28982 0.03345 0.90677 0.0
H1054 H 0.32042 0.11767 0.92284 0.0
H1055 H 0.33449 0.05125 0.99703 0.0
H1056 H 0.08443 0.54577 0.17935 0.0
H1057 H 0.08502 0.70026 0.07879 0.0
H1058 H 0.08115 0.56488 0.03312 0.0
H1059 H 0.08152 0.68151 0.22505 0.0
H1060 H 0.08619 0.65088 0.06197 0.0
H1061 H 0.0859 0.59506 0.1963 0.0
C1062 C 0.0841 0.56032 0.15059 0.0
C1063 C 0.0826 0.5511 0.10461 0.0
C1064 C 0.08524 0.6575 0.09778 0.0
C1065 C 0.08429 0.6079 0.12417 0.0
C1066 C 0.0846 0.68576 0.10759 0.0
C1067 C 0.0831 0.69512 0.15352 0.0
C1068 C 0.08442 0.63821 0.13411 0.0
C1069 C 0.08267 0.67526 0.1892 0.0
C1070 C 0.08492 0.58854 0.16047 0.0
C1071 C 0.08229 0.57102 0.06901 0.0
N1072 N 0.08327 0.64771 0.1787 0.0
N1073 N 0.08308 0.59852 0.07957 0.0
H1074 H 0.19931 0.54573 0.08646 0.0
H1075 H 0.20576 0.69998 0.18083 0.0
H1076 H 0.20654 0.56476 0.22934 0.0
H1077 H 0.20376 0.68055 0.03418 0.0
H1078 H 0.20539 0.65087 0.19914 0.0
H1079 H 0.20006 0.59483 0.0674 0.0
C1080 C 0.20102 0.56026 0.11404 0.0
C1081 C 0.20286 0.55104 0.15976 0.0
C1082 C 0.20506 0.6572 0.16293 0.0
C1083 C 0.20376 0.60762 0.13772 0.0
C1084 C 0.20524 0.68534 0.15228 0.0
C1085 C 0.20472 0.69448 0.10574 0.0
C1086 C 0.20428 0.63775 0.12691 0.0
C1087 C 0.20416 0.67444 0.07046 0.0
C1088 C 0.20149 0.58835 0.10291 0.0
C1089 C 0.20504 0.57092 0.19376 0.0
N1090 N 0.20389 0.64695 0.08181 0.0
N1091 N 0.20542 0.59831 0.18204 0.0
H1092 H 0.95644 0.43527 0.97805 0.0
H1093 H 0.95282 0.31531 0.78361 0.0
H1094 H 0.94961 0.45085 0.83348 0.0
H1095 H 0.95543 0.30007 0.93148 0.0
H1096 H 0.95284 0.36551 0.79982 0.0
H1097 H 0.9571 0.38542 0.96072 0.0
C1098 C 0.95504 0.42821 0.94284 0.0
C1099 C 0.95294 0.4472 0.9073 0.0
C1100 C 0.95342 0.35106 0.8286 0.0
C1101 C 0.95378 0.39045 0.88696 0.0
C1102 C 0.95345 0.3225 0.81928 0.0
C1103 C 0.95405 0.30353 0.85618 0.0
C1104 C 0.95408 0.36051 0.87506 0.0
C1105 C 0.95485 0.31391 0.90187 0.0
C1106 C 0.95544 0.39981 0.93284 0.0
C1107 C 0.95124 0.43695 0.86209 0.0
N1108 N 0.95483 0.34159 0.90996 0.0
N1109 N 0.95171 0.40934 0.85322 0.0
H1110 H 0.83045 0.44656 0.93144 0.0
H1111 H 0.82245 0.2943 0.83084 0.0
H1112 H 0.82277 0.43034 0.78814 0.0
H1113 H 0.82568 0.31126 0.97781 0.0
H1114 H 0.82293 0.3437 0.81466 0.0
H1115 H 0.82937 0.39726 0.9483 0.0
C1116 C 0.82858 0.4326 0.90329 0.0
C1117 C 0.8267 0.44268 0.85812 0.0
C1118 C 0.8235 0.33676 0.85049 0.0
C1119 C 0.82541 0.38584 0.87765 0.0
C1120 C 0.82325 0.30847 0.85992 0.0
C1121 C 0.8241 0.29856 0.90589 0.0
C1122 C 0.82469 0.35558 0.88719 0.0
C1123 C 0.825 0.31799 0.94194 0.0
C1124 C 0.82792 0.40438 0.91316 0.0
C1125 C 0.82431 0.4235 0.82332 0.0
N1126 N 0.82535 0.34563 0.93177 0.0
N1127 N 0.82374 0.39595 0.83384 0.0
H1128 H 0.07592 0.04576 0.68129 0.0
H1129 H 0.07184 0.19872 0.57733 0.0
H1130 H 0.07121 0.06255 0.53514 0.0
H1131 H 0.0737 0.18178 0.72489 0.0
H1132 H 0.07156 0.14925 0.56162 0.0
H1133 H 0.07522 0.09515 0.69753 0.0
C1134 C 0.07475 0.05985 0.65239 0.0
C1135 C 0.07365 0.04988 0.60656 0.0
C1136 C 0.07199 0.15621 0.59747 0.0
C1137 C 0.07283 0.10694 0.62538 0.0
C1138 C 0.07217 0.18456 0.60664 0.0
C1139 C 0.07286 0.1945 0.65266 0.0
C1140 C 0.07256 0.13735 0.63449 0.0
C1141 C 0.07317 0.17506 0.68896 0.0
C1142 C 0.07433 0.08815 0.6619 0.0
C1143 C 0.07213 0.06927 0.57089 0.0
N1144 N 0.07308 0.14736 0.67906 0.0
N1145 N 0.07178 0.09691 0.58106 0.0
H1146 H 0.19941 0.04917 0.58161 0.0
H1147 H 0.19801 0.20119 0.69102 0.0
H1148 H 0.20202 0.06409 0.72957 0.0
H1149 H 0.2016 0.1851 0.54389 0.0
H1150 H 0.19795 0.15141 0.70589 0.0
H1151 H 0.19876 0.09875 0.56798 0.0
C1152 C 0.19983 0.06289 0.61147 0.0
C1153 C 0.20078 0.05233 0.65699 0.0
C1154 C 0.19873 0.15872 0.67036 0.0
C1155 C 0.20002 0.10968 0.64118 0.0
C1156 C 0.19872 0.18718 0.66167 0.0
C1157 C 0.19982 0.1974 0.61599 0.0
C1158 C 0.19978 0.14015 0.63312 0.0
C1159 C 0.20072 0.17819 0.57957 0.0
C1160 C 0.19948 0.09132 0.60347 0.0
C1161 C 0.20129 0.0713 0.69398 0.0
N1162 N 0.20068 0.15048 0.58895 0.0
N1163 N 0.20089 0.09912 0.68526 0.0
H1164 H 0.95244 0.93159 0.48905 0.0
H1165 H 0.95367 0.81252 0.29266 0.0
H1166 H 0.95088 0.94691 0.34082 0.0
H1167 H 0.94994 0.7953 0.43936 0.0
H1168 H 0.95363 0.86226 0.31048 0.0
H1169 H 0.95257 0.88137 0.47271 0.0
C1170 C 0.95213 0.92444 0.45328 0.0
C1171 C 0.95161 0.94346 0.41638 0.0
C1172 C 0.95279 0.84756 0.33876 0.0
C1173 C 0.9518 0.88646 0.39736 0.0
C1174 C 0.9528 0.8192 0.3285 0.0
C1175 C 0.95178 0.79977 0.36446 0.0
C1176 C 0.95182 0.8565 0.38534 0.0
C1177 C 0.95072 0.80956 0.41044 0.0
C1178 C 0.95219 0.89586 0.4439 0.0
C1179 C 0.95124 0.93309 0.37054 0.0
N1180 N 0.9508 0.8372 0.41957 0.0
N1181 N 0.95136 0.90542 0.36241 0.0
H1182 H 0.82342 0.94691 0.4307 0.0
H1183 H 0.83088 0.79438 0.32889 0.0
H1184 H 0.82574 0.93034 0.28311 0.0
H1185 H 0.82475 0.81171 0.47365 0.0
H1186 H 0.82994 0.84383 0.31172 0.0
H1187 H 0.82461 0.89768 0.44655 0.0
C1188 C 0.82418 0.93288 0.4014 0.0
C1189 C 0.82452 0.94288 0.35534 0.0
C1190 C 0.82882 0.83688 0.34724 0.0
C1191 C 0.82591 0.88592 0.37369 0.0
C1192 C 0.82939 0.80861 0.35725 0.0
C1193 C 0.82788 0.79884 0.40293 0.0
C1194 C 0.82675 0.85568 0.38315 0.0
C1195 C 0.82599 0.8183 0.43804 0.0
C1196 C 0.82485 0.90465 0.41065 0.0
C1197 C 0.82544 0.92355 0.31907 0.0
N1198 N 0.82546 0.84579 0.42738 0.0
N1199 N 0.82615 0.89592 0.32904 0.0
H1200 H 0.58242 0.70302 0.57313 0.0
H1201 H 0.57254 0.54959 0.66614 0.0
H1202 H 0.57379 0.68453 0.71446 0.0
H1203 H 0.57811 0.56791 0.52127 0.0
H1204 H 0.57314 0.59878 0.68404 0.0
H1205 H 0.58145 0.65386 0.554 0.0
C1206 C 0.58039 0.68858 0.60036 0.0
C1207 C 0.57818 0.69796 0.64561 0.0
C1208 C 0.57419 0.59222 0.64826 0.0
C1209 C 0.57698 0.64142 0.62354 0.0
C1210 C 0.57385 0.56405 0.63789 0.0
C1211 C 0.57533 0.55459 0.59206 0.0
C1212 C 0.57612 0.61134 0.61268 0.0
C1213 C 0.5769 0.57433 0.55698 0.0
C1214 C 0.57979 0.66048 0.58922 0.0
C1215 C 0.5756 0.67823 0.67926 0.0
N1216 N 0.57733 0.60184 0.5681 0.0
N1217 N 0.57505 0.6509 0.6675 0.0
H1218 H 0.70676 0.56266 0.71662 0.0
H1219 H 0.70454 0.68412 0.52384 0.0
H1220 H 0.7028 0.54779 0.56939 0.0
H1221 H 0.70492 0.69826 0.67254 0.0
H1222 H 0.70492 0.63381 0.53897 0.0
H1223 H 0.70701 0.61274 0.70066 0.0
C1224 C 0.70592 0.5699 0.68108 0.0
C1225 C 0.70473 0.55103 0.64442 0.0
C1226 C 0.70493 0.64803 0.56819 0.0
C1227 C 0.70507 0.60809 0.62569 0.0
C1228 C 0.70474 0.67669 0.55948 0.0
C1229 C 0.70464 0.6954 0.59686 0.0
C1230 C 0.70509 0.63821 0.61455 0.0
C1231 C 0.70491 0.68465 0.6425 0.0
C1232 C 0.70608 0.59845 0.67188 0.0
C1233 C 0.70372 0.56156 0.59887 0.0
N1234 N 0.70512 0.6569 0.65 0.0
N1235 N 0.70392 0.5893 0.59082 0.0
H1236 H 0.45581 0.43011 0.48083 0.0
H1237 H 0.45443 0.31279 0.28108 0.0
H1238 H 0.45195 0.44757 0.33428 0.0
H1239 H 0.45253 0.29518 0.42849 0.0
H1240 H 0.45495 0.36262 0.29964 0.0
H1241 H 0.45599 0.38024 0.46232 0.0
C1242 C 0.45499 0.42349 0.44495 0.0
C1243 C 0.45381 0.44302 0.40921 0.0
C1244 C 0.45442 0.34775 0.32784 0.0
C1245 C 0.4541 0.38632 0.38764 0.0
C1246 C 0.45413 0.31937 0.31718 0.0
C1247 C 0.45338 0.29983 0.35315 0.0
C1248 C 0.45403 0.35648 0.37477 0.0
C1249 C 0.45304 0.30948 0.39947 0.0
C1250 C 0.4551 0.39509 0.43432 0.0
C1251 C 0.45283 0.43331 0.36314 0.0
N1252 N 0.45338 0.33703 0.4089 0.0
N1253 N 0.45301 0.40575 0.35373 0.0
H1254 H 0.32176 0.31267 0.47766 0.0
H1255 H 0.32513 0.43457 0.28626 0.0
H1256 H 0.32825 0.29941 0.33197 0.0
H1257 H 0.32254 0.44929 0.43427 0.0
H1258 H 0.32503 0.38442 0.30177 0.0
H1259 H 0.32105 0.3629 0.4624 0.0
C1260 C 0.32308 0.32029 0.44268 0.0
C1261 C 0.32507 0.30182 0.40617 0.0
C1262 C 0.32446 0.39869 0.33081 0.0
C1263 C 0.32418 0.35892 0.38825 0.0
C1264 C 0.32447 0.42727 0.32185 0.0
C1265 C 0.32391 0.44609 0.35895 0.0
C1266 C 0.32382 0.389 0.37713 0.0
C1267 C 0.32308 0.43552 0.40455 0.0
C1268 C 0.32264 0.34889 0.43388 0.0
C1269 C 0.32668 0.3128 0.36133 0.0
N1270 N 0.32307 0.40776 0.41234 0.0
N1271 N 0.32617 0.34051 0.35368 0.0
H1272 H 0.57453 0.18552 0.2159 0.0
H1273 H 0.56975 0.06323 0.02606 0.0
H1274 H 0.57011 0.19946 0.06872 0.0
H1275 H 0.57707 0.04981 0.17068 0.0
H1276 H 0.56905 0.11336 0.04151 0.0
H1277 H 0.57443 0.13526 0.20106 0.0
C1278 C 0.57347 0.17803 0.18066 0.0
C1279 C 0.57239 0.19667 0.14355 0.0
C1280 C 0.57082 0.09937 0.06979 0.0
C1281 C 0.5723 0.13949 0.12615 0.0
C1282 C 0.57125 0.0708 0.06087 0.0
C1283 C 0.57349 0.05232 0.097 0.0
C1284 C 0.57262 0.10938 0.11517 0.0
C1285 C 0.57531 0.06325 0.14164 0.0
C1286 C 0.57346 0.1494 0.17209 0.0
C1287 C 0.57105 0.18586 0.09843 0.0
N1288 N 0.57482 0.09097 0.14943 0.0
N1289 N 0.57107 0.15808 0.09102 0.0
H1290 H 0.70139 0.06766 0.22493 0.0
H1291 H 0.70312 0.18602 0.02685 0.0
H1292 H 0.70243 0.05125 0.07698 0.0
H1293 H 0.69726 0.20318 0.17194 0.0
H1294 H 0.70368 0.13634 0.04538 0.0
H1295 H 0.7009 0.11776 0.2075 0.0
C1296 C 0.70156 0.07455 0.18898 0.0
C1297 C 0.70189 0.05524 0.15246 0.0
C1298 C 0.70223 0.15101 0.07312 0.0
C1299 C 0.70135 0.11218 0.13219 0.0
C1300 C 0.70188 0.17935 0.06243 0.0
C1301 C 0.70012 0.19879 0.09776 0.0
C1302 C 0.70089 0.14209 0.11952 0.0
C1303 C 0.69863 0.18895 0.14347 0.0
C1304 C 0.70124 0.10308 0.17897 0.0
C1305 C 0.7021 0.06531 0.10639 0.0
N1306 N 0.69908 0.16137 0.15304 0.0
N1307 N 0.70183 0.09294 0.09765 0.0
H1308 H 0.44923 0.94666 0.82754 0.0
H1309 H 0.45575 0.79542 0.93482 0.0
H1310 H 0.45572 0.93219 0.97281 0.0
H1311 H 0.45443 0.8111 0.7867 0.0
H1312 H 0.4552 0.84502 0.94947 0.0
H1313 H 0.45039 0.89719 0.81276 0.0
C1314 C 0.45088 0.93306 0.85656 0.0
C1315 C 0.45237 0.94368 0.90168 0.0
C1316 C 0.45506 0.83773 0.91374 0.0
C1317 C 0.45373 0.88659 0.88455 0.0
C1318 C 0.45535 0.80933 0.90519 0.0
C1319 C 0.45508 0.79902 0.8593 0.0
C1320 C 0.45441 0.85621 0.87622 0.0
C1321 C 0.45465 0.81813 0.82254 0.0
C1322 C 0.45157 0.90473 0.84788 0.0
C1323 C 0.45448 0.92492 0.9376 0.0
N1324 N 0.45426 0.84586 0.83183 0.0
N1325 N 0.45508 0.89723 0.92826 0.0
H1326 H 0.32217 0.79774 0.83086 0.0
H1327 H 0.32425 0.95176 0.93039 0.0
H1328 H 0.32397 0.81655 0.97781 0.0
H1329 H 0.3215 0.93318 0.78366 0.0
H1330 H 0.32351 0.90269 0.94813 0.0
H1331 H 0.32115 0.84691 0.81353 0.0
C1332 C 0.32231 0.81226 0.8597 0.0
C1333 C 0.32325 0.80297 0.90601 0.0
C1334 C 0.32304 0.9092 0.91205 0.0
C1335 C 0.3221 0.85972 0.88596 0.0
C1336 C 0.32349 0.93733 0.90166 0.0
C1337 C 0.323 0.9467 0.85521 0.0
C1338 C 0.32213 0.88996 0.87582 0.0
C1339 C 0.32194 0.92691 0.81985 0.0
C1340 C 0.32172 0.84042 0.84959 0.0
C1341 C 0.32328 0.82279 0.94169 0.0
N1342 N 0.32158 0.89939 0.8309 0.0
N1343 N 0.32279 0.85032 0.93086 0.0
H1344 H 0.04346 0.48093 0.98216 0.0
H1345 H 0.9869 0.51293 0.00903 0.0
H1346 H 0.02956 0.50472 0.11081 0.0
H1347 H 1.00042 0.49758 0.87572 0.0
H1348 H 1.00233 0.50531 0.04715 0.0
H1349 H 0.02769 0.48227 0.94304 0.0
C1350 C 0.03709 0.48613 1.00228 0.0
C1351 C 0.03784 0.49296 0.04978 0.0
C1352 C 1.00194 0.50345 0.00955 0.0
C1353 C 0.01982 0.49469 0.00528 0.0
C1354 C 0.99307 0.50758 0.98767 0.0
C1355 C 0.99229 0.50583 0.93891 0.0
C1356 C 1.01019 0.49753 0.98272 0.0
C1357 C 1.00068 0.49942 0.91329 0.0
C1358 C 0.0281 0.48707 0.97988 0.0
C1359 C 0.02935 0.49978 0.07402 0.0
N1360 N 1.00928 0.49555 0.93547 0.0
N1361 N 0.02073 0.50053 0.05154 0.0
H1362 H 0.25246 0.78109 0.11377 0.0
H1363 H 0.27927 0.70362 0.90214 0.0
H1364 H 0.23777 0.72758 0.01633 0.0
H1365 H 0.2936 0.75835 0.99893 0.0
H1366 H 0.26405 0.71183 0.94333 0.0
H1367 H 0.26761 0.77207 0.07298 0.0
C1368 C 0.25239 0.76724 0.08409 0.0
C1369 C 0.24374 0.7551 0.0687 0.0
C1370 C 0.27053 0.72202 0.95556 0.0
C1371 C 0.26119 0.74493 0.02108 0.0
C1372 C 0.27925 0.71746 0.93183 0.0
C1373 C 0.28782 0.73022 0.94692 0.0
C1374 C 0.27033 0.73952 0.99478 0.0
C1375 C 0.28727 0.74768 0.98619 0.0
C1376 C 0.26108 0.76225 0.06052 0.0
C1377 C 0.24419 0.7377 0.02932 0.0
N1378 N 0.27871 0.75178 0.00861 0.0
N1379 N 0.25274 0.73316 0.00696 0.0
H1380 H 0.98696 0.73257 0.25624 0.0
H1381 H 0.04371 0.76235 0.28116 0.0
H1382 H 1.00027 0.75536 0.38678 0.0
H1383 H 0.02976 0.73723 0.15349 0.0
H1384 H 0.0279 0.76272 0.32 0.0
H1385 H 1.00253 0.73723 0.21768 0.0
C1386 C 0.99311 0.73894 0.27684 0.0
C1387 C 0.99222 0.7436 0.32505 0.0
C1388 C 0.02832 0.75717 0.28346 0.0
C1389 C 1.01028 0.74849 0.2808 0.0
C1390 C 0.03735 0.75707 0.26118 0.0
C1391 C 0.03812 0.74947 0.21396 0.0
C1392 C 0.02 0.74976 0.25833 0.0
C1393 C 0.02959 0.74266 0.19007 0.0
C1394 C 1.00206 0.74137 0.25474 0.0
C1395 C 1.00059 0.75125 0.34973 0.0
N1396 N 0.02094 0.74293 0.21246 0.0
N1397 N 1.00925 0.75337 0.3274 0.0
H1398 H 0.29397 0.50942 0.24366 0.0
H1399 H 0.23669 0.49208 0.26708 0.0
H1400 H 0.27806 0.52361 0.37091 0.0
H1401 H 0.25136 0.49402 0.13398 0.0
H1402 H 0.25197 0.50064 0.30576 0.0
H1403 H 0.27871 0.49993 0.20337 0.0
C1404 C 0.28728 0.5103 0.26323 0.0
C1405 C 0.2873 0.5174 0.31077 0.0
C1406 C 0.25185 0.49929 0.26805 0.0
C1407 C 0.26981 0.50676 0.26481 0.0
C1408 C 0.24306 0.49459 0.24569 0.0
C1409 C 0.24261 0.49249 0.1968 0.0
C1410 C 0.26035 0.50176 0.24165 0.0
C1411 C 0.25129 0.49526 0.17163 0.0
C1412 C 0.27857 0.50511 0.24012 0.0
C1413 C 0.27839 0.51858 0.33417 0.0
N1414 N 0.25979 0.4997 0.19431 0.0
N1415 N 0.27003 0.51329 0.31103 0.0
H1416 H 0.77765 0.24316 0.87644 0.0
H1417 H 0.74857 0.23656 0.11869 0.0
H1418 H 0.79087 0.22313 0.00843 0.0
H1419 H 0.7359 0.26439 0.98933 0.0
H1420 H 0.76393 0.22976 0.07827 0.0
H1421 H 0.76214 0.24915 0.91639 0.0
C1422 C 0.77731 0.23998 0.91377 0.0
C1423 C 0.78563 0.23275 0.939 0.0
C1424 C 0.75778 0.23729 0.0587 0.0
C1425 C 0.76784 0.2396 0.98517 0.0
C1426 C 0.74898 0.24127 0.08185 0.0
C1427 C 0.74084 0.2511 0.05763 0.0
C1428 C 0.75852 0.24313 0.01078 0.0
C1429 C 0.74187 0.25643 0.00958 0.0
C1430 C 0.76844 0.24351 0.93663 0.0
C1431 C 0.78472 0.22915 0.98751 0.0
N1432 N 0.75052 0.25243 0.98787 0.0
N1433 N 0.77601 0.23255 0.00889 0.0
H1434 H 0.04196 0.2711 0.76503 0.0
H1435 H 0.98596 0.23052 0.74705 0.0
H1436 H 0.02734 0.25604 0.63465 0.0
H1437 H 1.00047 0.2472 0.87722 0.0
H1438 H 1.00099 0.23983 0.70546 0.0
H1439 H 0.0269 0.26207 0.80657 0.0
C1440 C 0.03562 0.26571 0.74502 0.0
C1441 C 0.036 0.26422 0.69606 0.0
C1442 C 1.00089 0.2415 0.74312 0.0
C1443 C 0.01858 0.25412 0.74377 0.0
C1444 C 0.99226 0.23634 0.76702 0.0
C1445 C 0.99186 0.23817 0.81596 0.0
C1446 C 1.00925 0.24855 0.76814 0.0
C1447 C 1.0004 0.24526 0.83965 0.0
C1448 C 0.02698 0.26072 0.76887 0.0
C1449 C 0.02742 0.25768 0.67226 0.0
N1450 N 1.00871 0.2502 0.81557 0.0
N1451 N 0.0191 0.25284 0.6963 0.0
H1452 H 0.79343 0.51475 0.75067 0.0
H1453 H 0.73764 0.47159 0.7602 0.0
H1454 H 0.77889 0.49281 0.87865 0.0
H1455 H 0.75218 0.50099 0.63643 0.0
H1456 H 0.75257 0.4782 0.80433 0.0
H1457 H 0.77841 0.50805 0.70834 0.0
C1458 C 0.7871 0.5082 0.7699 0.0
C1459 C 0.78748 0.50408 0.81837 0.0
C1460 C 0.75248 0.48322 0.76751 0.0
C1461 C 0.77009 0.49679 0.76987 0.0
C1462 C 0.74393 0.47961 0.74228 0.0
C1463 C 0.74361 0.4857 0.69433 0.0
C1464 C 0.76079 0.49295 0.74469 0.0
C1465 C 0.75207 0.49561 0.67304 0.0
C1466 C 0.77847 0.50461 0.74567 0.0
C1467 C 0.77893 0.49632 0.84138 0.0
N1468 N 0.76028 0.49888 0.69829 0.0
N1469 N 0.77059 0.49286 0.81693 0.0
H1470 H 0.04101 0.9795 0.49769 0.0
H1471 H 0.98473 0.01615 0.52138 0.0
H1472 H 0.02676 0.99354 0.62957 0.0
H1473 H 0.9988 -0.00101 0.39001 0.0
H1474 H 1.00003 0.00838 0.56139 0.0
H1475 H 0.02573 0.98763 0.4577 0.0
C1476 C 0.0347 0.98456 0.51834 0.0
C1477 C 0.03524 0.98596 0.56726 0.0
C1478 C 0.99977 0.00627 0.52381 0.0
C1479 C 0.01757 0.99493 0.52136 0.0
C1480 C 0.99099 0.01052 0.50083 0.0
C1481 C 0.99039 0.00811 0.45202 0.0
C1482 C 1.00808 -0.00044 0.49799 0.0
C1483 C 0.99888 0.00134 0.42751 0.0
C1484 C 0.02593 0.98899 0.49539 0.0
C1485 C 0.02671 0.99201 0.59194 0.0
N1486 N 1.00734 0.9973 0.45071 0.0
N1487 N 0.01825 0.99629 0.56877 0.0
H1488 H 0.23575 0.26435 0.50561 0.0
H1489 H 0.29116 0.21589 0.51405 0.0
H1490 H 0.24908 0.23071 0.62935 0.0
H1491 H 0.27774 0.25521 0.39532 0.0
H1492 H 0.27586 0.21984 0.55666 0.0
H1493 H 0.25097 0.25885 0.46402 0.0
C1494 C 0.24183 0.25545 0.52399 0.0
C1495 C 0.24107 0.24788 0.57119 0.0
C1496 C 0.27629 0.2276 0.52127 0.0
C1497 C 0.25871 0.24198 0.52361 0.0
C1498 C 0.28504 0.22552 0.49698 0.0
C1499 C 0.28579 0.23518 0.45082 0.0
C1500 C 0.26819 0.2394 0.49931 0.0
C1501 C 0.27753 0.24708 0.43044 0.0
C1502 C 0.25058 0.25256 0.50024 0.0
C1503 C 0.24933 0.23704 0.59317 0.0
N1504 N 0.26912 0.24882 0.45474 0.0
N1505 N 0.2578 0.23443 0.56925 0.0
H1506 H 0.29136 0.02076 0.74514 0.0
H1507 H 0.23493 0.98566 0.76367 0.0
H1508 H 0.27664 0.00691 0.87585 0.0
H1509 H 0.24962 0.00194 0.63363 0.0
H1510 H 0.25002 0.99369 0.8053 0.0
H1511 H 0.27617 0.01364 0.70398 0.0
C1512 C 0.28496 0.01596 0.76529 0.0
C1513 C 0.28535 0.01421 0.81423 0.0
C1514 C 0.24994 0.9956 0.76766 0.0
C1515 C 0.26778 0.00642 0.76694 0.0
C1516 C 0.24128 0.99121 0.74375 0.0
C1517 C 0.24093 0.99323 0.69481 0.0
C1518 C 0.25838 0.00203 0.74267 0.0
C1519 C 0.24952 -0.00011 0.67119 0.0
C1520 C 0.27625 0.0121 0.74167 0.0
C1521 C 0.27671 0.00861 0.83824 0.0
N1522 N 0.25786 0.00403 0.69528 0.0
N1523 N 0.26831 0.00486 0.81439 0.0
H1524 H 0.73699 0.77351 0.49134 0.0
H1525 H 0.79302 0.7337 0.51562 0.0
H1526 H 0.75069 0.75378 0.62233 0.0
H1527 H 0.77977 0.75805 0.38565 0.0
H1528 H 0.77763 0.74118 0.55518 0.0
H1529 H 0.7525 0.76729 0.45185 0.0
C1530 C 0.74322 0.76765 0.51183 0.0
C1531 C 0.74247 0.7641 0.56037 0.0
C1532 C 0.77809 0.74498 0.51801 0.0
C1533 C 0.76037 0.75726 0.51523 0.0
C1534 C 0.78694 0.74092 0.49534 0.0
C1535 C 0.78778 0.74527 0.44699 0.0
C1536 C 0.76996 0.75341 0.49234 0.0
C1537 C 0.7795 0.7541 0.42275 0.0
C1538 C 0.75212 0.76431 0.48924 0.0
C1539 C 0.7509 0.75702 0.58502 0.0
N1540 N 0.77096 0.75782 0.4456 0.0
N1541 N 0.75946 0.75379 0.56223 0.0
H1542 H 0.77572 0.03094 0.35646 0.0
H1543 H 0.74932 0.96739 0.13257 0.0
H1544 H 0.79112 0.99009 0.24501 0.0
H1545 H 0.73492 0.01695 0.23719 0.0
H1546 H 0.76466 0.97544 0.17227 0.0
H1547 H 0.76073 0.02553 0.31302 0.0
C1548 C 0.77595 0.02071 0.32289 0.0
C1549 C 0.78472 0.01075 0.30464 0.0
C1550 C 0.75814 0.98463 0.18641 0.0
C1551 C 0.76748 0.00463 0.25417 0.0
C1552 C 0.74935 0.98016 0.16358 0.0
C1553 C 0.74071 0.99137 0.18147 0.0
C1554 C 0.75835 0.00035 0.22763 0.0
C1555 C 0.74129 0.00744 0.2223 0.0
C1556 C 0.76738 0.01778 0.29789 0.0
C1557 C 0.78456 -0.0018 0.26039 0.0
N1558 N 0.74992 0.01133 0.24397 0.0
N1559 N 0.77608 0.99534 0.23681 0.0
H1560 H 0.54377 0.51244 0.50352 0.0
H1561 H 0.48739 0.47521 0.49191 0.0
H1562 H 0.52981 0.45626 0.59943 0.0
H1563 H 0.50164 0.53018 0.39506 0.0
H1564 H 0.50279 0.46787 0.53162 0.0
H1565 H 0.52841 0.51895 0.46341 0.0
C1566 C 0.53751 0.50133 0.51613 0.0
C1567 C 0.53817 0.48364 0.55502 0.0
C1568 C 0.50255 0.48148 0.5016 0.0
C1569 C 0.52041 0.49129 0.50914 0.0
C1570 C 0.49373 0.48579 0.47893 0.0
C1571 C 0.49315 0.50343 0.43995 0.0
C1572 C 0.51091 0.49494 0.48538 0.0
C1573 C 0.5017 0.51618 0.42451 0.0
C1574 C 0.5287 0.50518 0.49323 0.0
C1575 C 0.52969 0.47029 0.57001 0.0
N1576 N 0.51019 0.51175 0.4473 0.0
N1577 N 0.52119 0.47435 0.54705 0.0
H1578 H 0.52823 0.7721 0.64064 0.0
H1579 H 0.50291 0.70963 0.86925 0.0
H1580 H 0.54385 0.72848 0.74827 0.0
H1581 H 0.48808 0.76004 0.76739 0.0
H1582 H 0.51786 0.71539 0.8251 0.0
H1583 H 0.51336 0.76599 0.68511 0.0
C1584 C 0.52855 0.76096 0.67336 0.0
C1585 C 0.53738 0.75076 0.69051 0.0
C1586 C 0.51133 0.72522 0.81247 0.0
C1587 C 0.52026 0.74403 0.74231 0.0
C1588 C 0.50276 0.7221 0.83791 0.0
C1589 C 0.49411 0.7343 0.82224 0.0
C1590 C 0.51131 0.7406 0.77083 0.0
C1591 C 0.49446 0.74988 0.78075 0.0
C1592 C 0.52003 0.75769 0.69902 0.0
C1593 C 0.53728 0.73695 0.73375 0.0
N1594 N 0.50288 0.7525 0.75657 0.0
N1595 N 0.52888 0.73399 0.75807 0.0
H1596 H 0.48551 0.23833 0.24527 0.0
H1597 H 0.54303 0.25217 0.26141 0.0
H1598 H 0.50088 0.23415 0.37619 0.0
H1599 H 0.52629 0.27477 0.14051 0.0
H1600 H 0.52799 0.24053 0.30264 0.0
H1601 H 0.50064 0.24739 0.20549 0.0
C1602 C 0.492 0.23953 0.26601 0.0
C1603 C 0.49177 0.23568 0.31466 0.0
C1604 C 0.52763 0.24798 0.26704 0.0
C1605 C 0.50936 0.24558 0.26834 0.0
C1606 C 0.53621 0.2544 0.24339 0.0
C1607 C 0.53592 0.26456 0.19746 0.0
C1608 C 0.5187 0.25144 0.24441 0.0
C1609 C 0.52686 0.26734 0.17602 0.0
C1610 C 0.50071 0.24455 0.24296 0.0
C1611 C 0.50062 0.23682 0.33878 0.0
N1612 N 0.51864 0.26082 0.19958 0.0
N1613 N 0.50904 0.24165 0.31541 0.0
H1614 H 0.49965 0.03415 0.89078 0.0
H1615 H 0.52596 0.96166 0.10816 0.0
H1616 H 0.48525 0.979 0.98685 0.0
H1617 H 0.54037 0.01684 0.01216 0.0
H1618 H 0.51097 0.96817 0.06476 0.0
H1619 H 0.51465 0.0276 0.93411 0.0
C1620 C 0.49963 0.02045 0.92068 0.0
C1621 C 0.49111 0.00715 0.93505 0.0
C1622 C 0.51741 0.97889 0.0532 0.0
C1623 C 0.50832 -0.00014 0.98549 0.0
C1624 C 0.52598 0.97535 0.07826 0.0
C1625 C 0.53451 0.98868 0.06394 0.0
C1626 C 0.5173 0.99592 0.01341 0.0
C1627 C 0.53405 0.00582 0.02429 0.0
C1628 C 0.50821 0.01689 0.94569 0.0
C1629 C 0.49157 0.99 0.97469 0.0
N1630 N 0.52562 0.00892 1.00048 0.0
N1631 N 0.5 0.98689 0.99846 0.0
H1632 H 0.05992 0.40253 0.27767 0.0
H1633 H 0.09382 0.34094 0.47803 0.0
H1634 H 0.09077 0.39415 0.2615 0.0
H1635 H 0.06434 0.36626 0.50114 0.0
H1636 H 0.09295 0.35935 0.39849 0.0
H1637 H 0.06132 0.38639 0.35807 0.0
C1638 C 0.06699 0.39705 0.29091 0.0
C1639 C 0.07525 0.39993 0.26274 0.0
C1640 C 0.08671 0.36127 0.42108 0.0
C1641 C 0.0769 0.38146 0.35527 0.0
C1642 C 0.08723 0.35098 0.46657 0.0
C1643 C 0.07915 0.35227 0.49623 0.0
C1644 C 0.07799 0.37257 0.40477 0.0
C1645 C 0.07076 0.36519 0.47959 0.0
C1646 C 0.06779 0.38797 0.33697 0.0
C1647 C 0.0842 0.39208 0.2817 0.0
N1648 N 0.07036 0.37454 0.43479 0.0
N1649 N 0.08479 0.38334 0.32684 0.0
H1650 H 0.21836 0.85444 0.263 0.0
H1651 H 0.18634 0.8961 0.48594 0.0
H1652 H 0.18727 0.85152 0.26756 0.0
H1653 H 0.21744 0.89524 0.48883 0.0
H1654 H 0.18674 0.87941 0.40561 0.0
H1655 H 0.21843 0.8714 0.34401 0.0
C1656 C 0.21155 0.85805 0.28069 0.0
C1657 C 0.20279 0.8517 0.25862 0.0
C1658 C 0.1935 0.88252 0.42376 0.0
C1659 C 0.20281 0.87024 0.35131 0.0
C1660 C 0.19326 0.89178 0.46979 0.0
C1661 C 0.20186 0.89678 0.49405 0.0
C1662 C 0.20243 0.87848 0.40136 0.0
C1663 C 0.21065 0.89122 0.47143 0.0
C1664 C 0.21159 0.86732 0.32707 0.0
C1665 C 0.19418 0.85618 0.28334 0.0
N1666 N 0.21072 0.88258 0.42612 0.0
N1667 N 0.19441 0.86501 0.32829 0.0
H1668 H 0.08796 0.85712 1.00083 0.0
H1669 H 0.06092 0.88162 0.75641 0.0
H1670 H 0.05794 0.83781 0.9777 0.0
H1671 H 0.09105 0.89919 0.77945 0.0
H1672 H 0.05975 0.86399 0.83652 0.0
H1673 H 0.08911 0.87379 0.9203 0.0
C1674 C 0.08156 0.85693 0.97913 0.0
C1675 C 0.07285 0.846 0.99604 0.0
C1676 C 0.06664 0.87146 0.8239 0.0
C1677 C 0.07417 0.86432 0.90334 0.0
C1678 C 0.06733 0.88115 0.77795 0.0
C1679 C 0.07608 0.89194 0.76129 0.0
C1680 C 0.07476 0.87261 0.85336 0.0
C1681 C 0.08414 0.89126 0.79104 0.0
C1682 C 0.08225 0.86608 0.93292 0.0
C1683 C 0.06483 0.84583 0.96598 0.0
N1684 N 0.08327 0.88201 0.83562 0.0
N1685 N 0.06569 0.85466 0.92113 0.0
H1686 H 0.21118 0.38412 0.75841 0.0
H1687 H 0.2036 0.35506 0.03152 0.0
H1688 H 0.20378 0.30402 0.81529 0.0
H1689 H 0.2107 0.43508 0.97366 0.0
H1690 H 0.20549 0.33455 0.95354 0.0
H1691 H 0.21284 0.40203 0.83799 0.0
C1692 C 0.20998 0.37027 0.7876 0.0
C1693 C 0.20716 0.34272 0.7802 0.0
C1694 C 0.20671 0.35657 0.95804 0.0
C1695 C 0.209 0.36297 0.87127 0.0
C1696 C 0.20568 0.36818 1.00253 0.0
C1697 C 0.20682 0.39681 0.00874 0.0
C1698 C 0.20894 0.37377 0.91976 0.0
C1699 C 0.20954 0.41297 0.97009 0.0
C1700 C 0.2109 0.38048 0.83303 0.0
C1701 C 0.20571 0.32563 0.81937 0.0
N1702 N 0.21042 0.40129 0.92727 0.0
N1703 N 0.20658 0.33607 0.86313 0.0
H1704 H 0.9364 0.60702 0.74659 0.0
H1705 H 0.96861 0.65281 0.52763 0.0
H1706 H 0.9675 0.60852 0.75165 0.0
H1707 H 0.93792 0.63787 0.52286 0.0
H1708 H 0.96867 0.63873 0.60999 0.0
H1709 H 0.93699 0.62342 0.66616 0.0
C1710 C 0.94336 0.61148 0.73091 0.0
C1711 C 0.95191 0.60651 0.75559 0.0
C1712 C 0.96195 0.63833 0.59073 0.0
C1713 C 0.95269 0.62444 0.66304 0.0
C1714 C 0.96193 0.64598 0.54363 0.0
C1715 C 0.95324 0.64657 0.51848 0.0
C1716 C 0.9532 0.63134 0.61266 0.0
C1717 C 0.94477 0.63798 0.54109 0.0
C1718 C 0.94371 0.6205 0.68485 0.0
C1719 C 0.96075 0.6124 0.73377 0.0
N1720 N 0.94495 0.63094 0.58687 0.0
N1721 N 0.96093 0.62081 0.68841 0.0
H1722 H 0.84324 0.14899 0.73242 0.0
H1723 H 0.81006 0.10179 0.51804 0.0
H1724 H 0.81241 0.13855 0.7426 0.0
H1725 H 0.84099 0.10877 0.50923 0.0
H1726 H 0.81065 0.11839 0.59868 0.0
H1727 H 0.84258 0.13478 0.65061 0.0
C1728 C 0.83635 0.14312 0.71757 0.0
C1729 C 0.82787 0.1448 0.74437 0.0
C1730 C 0.81731 0.11683 0.57898 0.0
C1731 C 0.82701 0.12924 0.65024 0.0
C1732 C 0.81695 0.10783 0.53273 0.0
C1733 C 0.82547 0.10449 0.50682 0.0
C1734 C 0.82629 0.12224 0.59974 0.0
C1735 C 0.83425 0.1117 0.52777 0.0
C1736 C 0.83596 0.13529 0.67074 0.0
C1737 C 0.81913 0.13717 0.72337 0.0
N1738 N 0.83445 0.12001 0.57318 0.0
N1739 N 0.81891 0.12995 0.67743 0.0
H1740 H 0.95054 0.11103 0.99918 0.0
H1741 H 0.95061 0.13605 0.27317 0.0
H1742 H 0.95778 0.19017 0.06035 0.0
H1743 H 0.9559 0.05542 0.21245 0.0
H1744 H 0.95222 0.1567 0.19532 0.0
H1745 H 0.9515 0.08997 0.07701 0.0
C1746 C 0.95242 0.12393 0.02872 0.0
C1747 C 0.95388 0.15254 0.02316 0.0
C1748 C 0.95306 0.13448 0.19926 0.0
C1749 C 0.95481 0.12873 0.11227 0.0
C1750 C 0.95218 0.12271 0.24372 0.0
C1751 C 0.95292 0.09387 0.24946 0.0
C1752 C 0.9546 0.11727 0.16028 0.0
C1753 C 0.95494 0.07765 0.20971 0.0
C1754 C 0.95292 0.11194 0.07317 0.0
C1755 C 0.95627 0.1682 0.06299 0.0
N1756 N 0.95559 0.0895 0.16688 0.0
N1757 N 0.95654 0.1562 0.10579 0.0
H1758 H 0.82618 0.69213 0.20827 0.0
H1759 H 0.8167 0.55928 0.04862 0.0
H1760 H 0.81957 0.6109 0.26294 0.0
H1761 H 0.82764 0.63674 0.99517 0.0
H1762 H 0.81518 0.58013 0.12578 0.0
H1763 H 0.82444 0.67419 0.12929 0.0
C1764 C 0.8244 0.67043 0.20368 0.0
C1765 C 0.82324 0.65281 0.2424 0.0
C1766 C 0.81784 0.5927 0.09722 0.0
C1767 C 0.82104 0.63228 0.15169 0.0
C1768 C 0.81871 0.58083 0.05315 0.0
C1769 C 0.82247 0.59622 0.0157 0.0
C1770 C 0.82075 0.62023 0.10408 0.0
C1771 C 0.82476 0.62416 0.02318 0.0
C1772 C 0.82334 0.66028 0.15849 0.0
C1773 C 0.82059 0.62518 0.23421 0.0
N1774 N 0.82397 0.63522 0.06675 0.0
N1775 N 0.81966 0.6157 0.18971 0.0
H1776 H 0.59568 0.3495 0.97911 0.0
H1777 H 0.56827 0.38048 0.73848 0.0
H1778 H 0.56471 0.34867 0.96277 0.0
H1779 H 0.59734 0.40855 0.76378 0.0
H1780 H 0.56774 0.3615 0.81776 0.0
H1781 H 0.59718 0.36695 0.89864 0.0
C1782 C 0.58921 0.35346 0.95897 0.0
C1783 C 0.58007 0.34739 0.97754 0.0
C1784 C 0.57428 0.37155 0.80581 0.0
C1785 C 0.58174 0.36635 0.88539 0.0
C1786 C 0.57463 0.38198 0.76033 0.0
C1787 C 0.58285 0.39607 0.74463 0.0
C1788 C 0.58225 0.37505 0.83568 0.0
C1789 C 0.59084 0.39787 0.77472 0.0
C1790 C 0.59007 0.36308 0.91294 0.0
C1791 C 0.57192 0.35263 0.94964 0.0
N1792 N 0.59034 0.38762 0.81889 0.0
N1793 N 0.57295 0.36147 0.90498 0.0
H1794 H 0.68966 0.87668 0.74666 0.0
H1795 H 0.71392 0.88472 1.0002 0.0
H1796 H 0.7148 0.82894 0.7842 0.0
H1797 H 0.6848 0.9113 0.97047 0.0
H1798 H 0.71525 0.86712 0.92006 0.0
H1799 H 0.68903 0.89518 0.82652 0.0
C1800 C 0.69519 0.87075 0.77145 0.0
C1801 C 0.70234 0.85156 0.75902 0.0
C1802 C 0.70855 0.87666 0.93128 0.0
C1803 C 0.70155 0.87183 0.85037 0.0
C1804 C 0.70775 0.88637 0.97718 0.0
C1805 C 0.69926 0.8997 0.99202 0.0
C1806 C 0.70084 0.88051 0.89999 0.0
C1807 C 0.69154 0.90159 0.96035 0.0
C1808 C 0.69476 0.88091 0.81712 0.0
C1809 C 0.70923 0.84393 0.79258 0.0
N1810 N 0.69255 0.89241 0.91583 0.0
N1811 N 0.70865 0.85401 0.83678 0.0
H1812 H 0.55963 0.84137 0.47968 0.0
H1813 H 0.59135 0.89862 0.26647 0.0
H1814 H 0.58992 0.86145 0.48781 0.0
H1815 H 0.56058 0.88682 0.25649 0.0
H1816 H 0.59094 0.88103 0.3462 0.0
H1817 H 0.55958 0.85651 0.39784 0.0
C1818 C 0.56621 0.84947 0.46452 0.0
C1819 C 0.5748 0.8501 0.49052 0.0
C1820 C 0.58427 0.88195 0.32661 0.0
C1821 C 0.57487 0.86667 0.39686 0.0
C1822 C 0.58453 0.89171 0.28093 0.0
C1823 C 0.576 0.89407 0.25502 0.0
C1824 C 0.57538 0.87466 0.34686 0.0
C1825 C 0.56733 0.88502 0.27531 0.0
C1826 C 0.56621 0.85776 0.41769 0.0
C1827 C 0.58317 0.86035 0.46894 0.0
N1828 N 0.56722 0.87595 0.32034 0.0
N1829 N 0.583 0.86805 0.42343 0.0
H1830 H 0.68697 0.35917 0.26065 0.0
H1831 H 0.71718 0.37851 0.49635 0.0
H1832 H 0.71716 0.33807 0.27205 0.0
H1833 H 0.68669 0.39454 0.48466 0.0
H1834 H 0.71726 0.36077 0.41607 0.0
H1835 H 0.68681 0.37171 0.3431 0.0
C1836 C 0.6936 0.35745 0.28046 0.0
C1837 C 0.70209 0.34752 0.25938 0.0
C1838 C 0.7105 0.36756 0.43134 0.0
C1839 C 0.70194 0.36156 0.3543 0.0
C1840 C 0.71043 0.37721 0.47736 0.0
C1841 C 0.70186 0.38731 0.49725 0.0
C1842 C 0.70196 0.36849 0.40491 0.0
C1843 C 0.69338 0.38628 0.47079 0.0
C1844 C 0.69349 0.36445 0.32766 0.0
C1845 C 0.71049 0.34592 0.28672 0.0
N1846 N 0.69365 0.37731 0.42584 0.0
N1847 N 0.71019 0.35272 0.33283 0.0
H1848 H 0.46794 0.6026 0.25128 0.0
H1849 H 0.43715 0.64205 0.02386 0.0
H1850 H 0.43689 0.5992 0.24343 0.0
H1851 H 0.46826 0.64102 0.02477 0.0
H1852 H 0.43708 0.62585 0.10453 0.0
H1853 H 0.46842 0.61874 0.16989 0.0
C1854 C 0.46122 0.60596 0.23277 0.0
C1855 C 0.45236 0.59971 0.25401 0.0
C1856 C 0.44394 0.62879 0.08712 0.0
C1857 C 0.45284 0.61727 0.16091 0.0
C1858 C 0.44397 0.63773 0.04091 0.0
C1859 C 0.45272 0.64256 0.01768 0.0
C1860 C 0.45274 0.62494 0.11066 0.0
C1861 C 0.46137 0.6371 0.0414 0.0
C1862 C 0.4615 0.61474 0.18618 0.0
C1863 C 0.44387 0.60383 0.22828 0.0
N1864 N 0.46117 0.6288 0.08685 0.0
N1865 N 0.44432 0.61218 0.18312 0.0
H1866 H 0.31229 0.11136 0.00968 0.0
H1867 H 0.3415 0.13268 0.24902 0.0
H1868 H 0.3428 0.09575 0.02435 0.0
H1869 H 0.31113 0.14972 0.23388 0.0
H1870 H 0.34196 0.11638 0.16785 0.0
H1871 H 0.3117 0.12605 0.09159 0.0
C1872 C 0.3189 0.11178 0.0298 0.0
C1873 C 0.3276 0.10242 0.01026 0.0
C1874 C 0.33515 0.12322 0.1825 0.0
C1875 C 0.32695 0.11818 0.10428 0.0
C1876 C 0.33487 0.13201 0.22903 0.0
C1877 C 0.32624 0.1421 0.24812 0.0
C1878 C 0.32675 0.12481 0.15496 0.0
C1879 C 0.31789 0.14169 0.22043 0.0
C1880 C 0.31855 0.1197 0.07676 0.0
C1881 C 0.33594 0.1028 0.03818 0.0
N1882 N 0.31836 0.13345 0.17516 0.0
N1883 N 0.33539 0.11029 0.08379 0.0
H1884 H 0.43438 0.10026 0.73493 0.0
H1885 H 0.46596 0.13842 0.50918 0.0
H1886 H 0.46549 0.10125 0.7361 0.0
H1887 H 0.4349 0.14293 0.51513 0.0
H1888 H 0.46613 0.12221 0.59057 0.0
H1889 H 0.43457 0.11595 0.65396 0.0
C1890 C 0.44125 0.1045 0.71827 0.0
C1891 C 0.44992 0.09982 0.74216 0.0
C1892 C 0.45928 0.1264 0.57384 0.0
C1893 C 0.45026 0.11679 0.6489 0.0
C1894 C 0.45918 0.13519 0.52726 0.0
C1895 C 0.4504 0.14176 0.50553 0.0
C1896 C 0.45053 0.12422 0.59858 0.0
C1897 C 0.44181 0.13791 0.53067 0.0
C1898 C 0.44138 0.11312 0.6719 0.0
C1899 C 0.45865 0.1051 0.71894 0.0
N1900 N 0.4421 0.12957 0.57586 0.0
N1901 N 0.45861 0.11308 0.67334 0.0
H1902 H 0.34342 0.56347 0.54901 0.0
H1903 H 0.32116 0.68057 0.71456 0.0
H1904 H 0.32726 0.63379 0.4988 0.0
H1905 H 0.34074 0.6179 0.76536 0.0
H1906 H 0.32295 0.66223 0.63579 0.0
H1907 H 0.34295 0.58294 0.62794 0.0
C1908 C 0.34003 0.58349 0.55451 0.0
C1909 C 0.33546 0.59726 0.51741 0.0
C1910 C 0.32684 0.65231 0.66402 0.0
C1911 C 0.33455 0.6191 0.60777 0.0
C1912 C 0.32574 0.6626 0.70908 0.0
C1913 C 0.33082 0.65071 0.74646 0.0
C1914 C 0.33306 0.62982 0.65594 0.0
C1915 C 0.33664 0.62749 0.73752 0.0
C1916 C 0.33966 0.59441 0.5996 0.0
C1917 C 0.331 0.6228 0.52635 0.0
N1918 N 0.33765 0.61785 0.69302 0.0
N1919 N 0.33056 0.63274 0.57074 0.0
H1920 H 0.06064 0.37074 0.74678 0.0
H1921 H 0.06864 0.37027 0.0203 0.0
H1922 H 0.07574 0.30349 0.81418 0.0
H1923 H 0.06975 0.44643 0.94155 0.0
H1924 H 0.06877 0.34403 0.9469 0.0
H1925 H 0.06153 0.39756 0.81934 0.0
C1926 C 0.06415 0.36161 0.77684 0.0
C1927 C 0.06813 0.3348 0.77434 0.0
C1928 C 0.069 0.36647 0.94575 0.0
C1929 C 0.06899 0.36527 0.85786 0.0
C1930 C 0.06885 0.38149 0.98757 0.0
C1931 C 0.06916 0.41063 0.98711 0.0
C1932 C 0.0692 0.38065 0.90298 0.0
C1933 C 0.06953 0.42402 0.94358 0.0
C1934 C 0.06468 0.37699 0.81816 0.0
C1935 C 0.07262 0.32412 0.81445 0.0
N1936 N 0.06942 0.40896 0.90329 0.0
N1937 N 0.07282 0.33922 0.85472 0.0
H1938 H 0.22943 0.83829 0.97512 0.0
H1939 H 0.19688 0.9172 0.78591 0.0
H1940 H 0.19847 0.8286 0.97031 0.0
H1941 H 0.22781 0.90756 0.77587 0.0
H1942 H 0.19701 0.88799 0.85633 0.0
H1943 H 0.22866 0.86703 0.90541 0.0
C1944 C 0.22244 0.84221 0.95947 0.0
C1945 C 0.214 0.83088 0.97878 0.0
C1946 C 0.20375 0.89227 0.83854 0.0
C1947 C 0.21307 0.86412 0.8983 0.0
C1948 C 0.20369 0.909 0.79843 0.0
C1949 C 0.21235 0.91486 0.77473 0.0
C1950 C 0.21254 0.8816 0.85539 0.0
C1951 C 0.22094 0.90358 0.79264 0.0
C1952 C 0.22202 0.85862 0.91942 0.0
C1953 C 0.20517 0.83674 0.95656 0.0
N1954 N 0.22081 0.88768 0.83179 0.0
N1955 N 0.20493 0.85304 0.91761 0.0
H1956 H 0.08143 0.91081 0.47905 0.0
H1957 H 0.05378 0.85327 0.25519 0.0
H1958 H 0.05038 0.91172 0.46734 0.0
H1959 H 0.08094 0.8182 0.29965 0.0
H1960 H 0.05326 0.88085 0.32687 0.0
H1961 H 0.08229 0.88285 0.40723 0.0
C1962 C 0.07481 0.90523 0.46136 0.0
C1963 C 0.06582 0.91352 0.47943 0.0
C1964 C 0.05934 0.86713 0.32089 0.0
C1965 C 0.06676 0.88197 0.39703 0.0
C1966 C 0.05966 0.8514 0.27988 0.0
C1967 C 0.06743 0.83335 0.27114 0.0
C1968 C 0.06693 0.86532 0.3532 0.0
C1969 C 0.07481 0.83182 0.30474 0.0
C1970 C 0.0753 0.88919 0.42055 0.0
C1971 C 0.05746 0.90563 0.45499 0.0
N1972 N 0.07443 0.84774 0.34405 0.0
N1973 N 0.05814 0.89053 0.415 0.0
H1974 H 0.19811 0.32892 0.48111 0.0
H1975 H 0.22981 0.41174 0.29298 0.0
H1976 H 0.22911 0.33759 0.48741 0.0
H1977 H 0.1987 0.41687 0.29707 0.0
H1978 H 0.22946 0.38233 0.36201 0.0
H1979 H 0.19794 0.35886 0.41176 0.0
C1980 C 0.20487 0.33707 0.46803 0.0
C1981 C 0.21364 0.33072 0.49039 0.0
C1982 C 0.22269 0.3899 0.34801 0.0
C1983 C 0.21349 0.36488 0.41088 0.0
C1984 C 0.22288 0.4067 0.30838 0.0
C1985 C 0.21427 0.41692 0.28907 0.0
C1986 C 0.21381 0.38294 0.36867 0.0
C1987 C 0.20552 0.40968 0.3109 0.0
C1988 C 0.20477 0.35421 0.42847 0.0
C1989 C 0.22217 0.34191 0.47166 0.0
N1990 N 0.20551 0.39305 0.34942 0.0
N1991 N 0.22187 0.3583 0.43313 0.0
H1992 H 0.94795 0.58166 0.0391 0.0
H1993 H 0.97933 0.65759 0.2352 0.0
H1994 H 0.97902 0.58832 0.03552 0.0
H1995 H 0.9486 0.67067 0.22192 0.0
H1996 H 0.97903 0.62898 0.16535 0.0
H1997 H 0.94772 0.61096 0.10923 0.0
C1998 C 0.95471 0.58919 0.05305 0.0
C1999 C 0.96352 0.58249 0.03128 0.0
C2000 C 0.97233 0.63809 0.17761 0.0
C2001 C 0.9633 0.61591 0.11152 0.0
C2002 C 0.97248 0.65444 0.21773 0.0
C2003 C 0.96396 0.66655 0.23491 0.0
C2004 C 0.96358 0.63346 0.15428 0.0
C2005 C 0.95534 0.6617 0.21027 0.0
C2006 C 0.95457 0.60601 0.09295 0.0
C2007 C 0.97205 0.59299 0.05086 0.0
N2008 N 0.95536 0.64542 0.17133 0.0
N2009 N 0.97173 0.60902 0.08982 0.0
H2010 H 0.83136 0.16188 0.03506 0.0
H2011 H 0.80083 0.09981 0.24769 0.0
H2012 H 0.80026 0.15672 0.0345 0.0
H2013 H 0.83011 0.07373 0.22021 0.0
H2014 H 0.80103 0.12673 0.17523 0.0
H2015 H 0.83159 0.13526 0.10836 0.0
C2016 C 0.82459 0.1552 0.05031 0.0
C2017 C 0.81578 0.16143 0.02837 0.0
C2018 C 0.80742 0.11512 0.18507 0.0
C2019 C 0.81599 0.13139 0.11249 0.0
C2020 C 0.80732 0.09983 0.22655 0.0
C2021 C 0.81546 0.08438 0.24008 0.0
C2022 C 0.81576 0.11546 0.15709 0.0
C2023 C 0.82365 0.08517 0.21104 0.0
C2024 C 0.82473 0.13995 0.09203 0.0
C2025 C 0.80723 0.15223 0.04983 0.0
N2026 N 0.82362 0.10056 0.1711 0.0
N2027 N 0.80754 0.13789 0.09069 0.0
H2028 H 0.95365 0.05005 0.57596 0.0
H2029 H 0.95435 0.1968 0.69658 0.0
H2030 H 0.96616 0.11939 0.50272 0.0
H2031 H 0.96646 0.1265 0.769 0.0
H2032 H 0.95363 0.16875 0.62475 0.0
H2033 H 0.9533 0.07816 0.64779 0.0
C2034 C 0.95622 0.07126 0.57495 0.0
C2035 C 0.95999 0.08245 0.53358 0.0
C2036 C 0.95638 0.15954 0.65657 0.0
C2037 C 0.95936 0.11464 0.6147 0.0
C2038 C 0.95675 0.1754 0.69743 0.0
C2039 C 0.96052 0.16391 0.73855 0.0
C2040 C 0.95947 0.13181 0.65745 0.0
C2041 C 0.96358 0.13613 0.73785 0.0
C2042 C 0.95606 0.08715 0.6158 0.0
C2043 C 0.96328 0.10998 0.53406 0.0
N2044 N 0.9629 0.12089 0.69801 0.0
N2045 N 0.9628 0.12528 0.57392 0.0
H2046 H 0.80071 0.58647 0.73379 0.0
H2047 H 0.83199 0.66807 0.54308 0.0
H2048 H 0.83166 0.57711 0.72436 0.0
H2049 H 0.80112 0.65665 0.53527 0.0
H2050 H 0.83231 0.63832 0.61271 0.0
H2051 H 0.80102 0.61577 0.66462 0.0
C2052 C 0.8076 0.5906 0.71723 0.0
C2053 C 0.81617 0.57927 0.73512 0.0
C2054 C 0.82549 0.64232 0.59555 0.0
C2055 C 0.81658 0.61314 0.65535 0.0
C2056 C 0.82529 0.65935 0.55581 0.0
C2057 C 0.81652 0.66483 0.53286 0.0
C2058 C 0.81684 0.63102 0.61288 0.0
C2059 C 0.80807 0.65301 0.55138 0.0
C2060 C 0.80776 0.60732 0.67751 0.0
C2061 C 0.82486 0.58533 0.71176 0.0
N2062 N 0.80845 0.63684 0.59017 0.0
N2063 N 0.82485 0.60197 0.6732 0.0
H2064 H 0.56225 0.38017 0.49338 0.0
H2065 H 0.57263 0.38341 0.22174 0.0
H2066 H 0.57854 0.44681 0.4311 0.0
H2067 H 0.5716 0.30626 0.29784 0.0
H2068 H 0.57272 0.40869 0.29609 0.0
H2069 H 0.56347 0.35423 0.42002 0.0
C2070 C 0.56608 0.38936 0.46428 0.0
C2071 C 0.5703 0.41572 0.46839 0.0
C2072 C 0.57253 0.38623 0.29643 0.0
C2073 C 0.57158 0.38629 0.38413 0.0
C2074 C 0.57243 0.37179 0.25408 0.0
C2075 C 0.57211 0.34266 0.25357 0.0
C2076 C 0.57204 0.3715 0.33863 0.0
C2077 C 0.5719 0.32869 0.29659 0.0
C2078 C 0.56681 0.37448 0.42253 0.0
C2079 C 0.57522 0.42652 0.42952 0.0
N2080 N 0.57175 0.34323 0.33735 0.0
N2081 N 0.57562 0.41192 0.38884 0.0
H2082 H 0.69511 0.92013 0.28336 0.0
H2083 H 0.7265 0.84624 0.48181 0.0
H2084 H 0.72598 0.90874 0.27524 0.0
H2085 H 0.69604 0.82987 0.467 0.0
H2086 H 0.72604 0.87398 0.41072 0.0
H2087 H 0.69489 0.89169 0.35477 0.0
C2088 C 0.70183 0.91171 0.29652 0.0
C2089 C 0.71058 0.91684 0.27305 0.0
C2090 C 0.71944 0.86434 0.42289 0.0
C2091 C 0.71038 0.88457 0.35494 0.0
C2092 C 0.71969 0.84855 0.46371 0.0
C2093 C 0.71129 0.83566 0.48061 0.0
C2094 C 0.71071 0.86775 0.39868 0.0
C2095 C 0.70269 0.83934 0.45523 0.0
C2096 C 0.70169 0.89541 0.33716 0.0
C2097 C 0.71906 0.9053 0.29181 0.0
N2098 N 0.7026 0.85519 0.41569 0.0
N2099 N 0.71874 0.88995 0.33158 0.0
H2100 H 0.54844 0.90439 0.9801 0.0
H2101 H 0.58048 0.82877 0.78533 0.0
H2102 H 0.57911 0.91835 0.96725 0.0
H2103 H 0.54944 0.83658 0.77866 0.0
H2104 H 0.58043 0.85759 0.85598 0.0
H2105 H 0.54899 0.87537 0.91051 0.0
C2106 C 0.55531 0.90132 0.96273 0.0
C2107 C 0.56374 0.91389 0.97965 0.0
C2108 C 0.57365 0.85298 0.83889 0.0
C2109 C 0.56442 0.88044 0.89961 0.0
C2110 C 0.57366 0.83649 0.79861 0.0
C2111 C 0.56496 0.8303 0.77573 0.0
C2112 C 0.56485 0.86302 0.85678 0.0
C2113 C 0.55635 0.84086 0.79478 0.0
C2114 C 0.55561 0.88478 0.92282 0.0
C2115 C 0.57242 0.90916 0.95538 0.0
N2116 N 0.55652 0.85655 0.83413 0.0
N2117 N 0.57255 0.89272 0.91668 0.0
H2118 H 0.69849 0.42108 0.77947 0.0
H2119 H 0.729 0.33439 0.96524 0.0
H2120 H 0.72787 0.39489 0.75469 0.0
H2121 H 0.69784 0.33306 0.96305 0.0
H2122 H 0.72892 0.3611 0.89277 0.0
H2123 H 0.69831 0.39347 0.85136 0.0
C2124 C 0.70491 0.40958 0.78916 0.0
C2125 C 0.71321 0.41031 0.76092 0.0
C2126 C 0.7221 0.35494 0.9081 0.0
C2127 C 0.71306 0.37886 0.84343 0.0
C2128 C 0.72213 0.33978 0.94966 0.0
C2129 C 0.71341 0.33148 0.9705 0.0
C2130 C 0.71329 0.36233 0.88734 0.0
C2131 C 0.70474 0.33897 0.94831 0.0
C2132 C 0.70478 0.39373 0.83009 0.0
C2133 C 0.7213 0.39485 0.77519 0.0
N2134 N 0.70489 0.35413 0.90815 0.0
N2135 N 0.72104 0.37996 0.81555 0.0
H2136 H 0.47979 0.5865 0.5331 0.0
H2137 H 0.44873 0.66477 0.72877 0.0
H2138 H 0.44888 0.57677 0.54383 0.0
H2139 H 0.47962 0.65314 0.73523 0.0
H2140 H 0.44835 0.63626 0.65766 0.0
H2141 H 0.47957 0.6148 0.60344 0.0
C2142 C 0.47293 0.59034 0.55017 0.0
C2143 C 0.46434 0.57914 0.53239 0.0
C2144 C 0.45519 0.63996 0.6748 0.0
C2145 C 0.46404 0.61183 0.61346 0.0
C2146 C 0.45542 0.65631 0.71528 0.0
C2147 C 0.46422 0.66138 0.73814 0.0
C2148 C 0.46383 0.62893 0.65676 0.0
C2149 C 0.47265 0.64974 0.71908 0.0
C2150 C 0.47282 0.60648 0.59055 0.0
C2151 C 0.45569 0.58485 0.55636 0.0
N2152 N 0.47225 0.63423 0.67956 0.0
N2153 N 0.45575 0.6009 0.59558 0.0
H2154 H 0.30146 0.1451 0.50787 0.0
H2155 H 0.33147 0.08128 0.7207 0.0
H2156 H 0.33091 0.16912 0.53532 0.0
H2157 H 0.30041 0.08846 0.72116 0.0
H2158 H 0.33192 0.10751 0.64702 0.0
H2159 H 0.30145 0.118 0.58017 0.0
C2160 C 0.30795 0.14455 0.52894 0.0
C2161 C 0.31619 0.15947 0.51549 0.0
C2162 C 0.32502 0.10332 0.66341 0.0
C2163 C 0.31625 0.12825 0.59826 0.0
C2164 C 0.32476 0.0883 0.70533 0.0
C2165 C 0.31589 0.0828 0.72736 0.0
C2166 C 0.31635 0.11237 0.64287 0.0
C2167 C 0.30741 0.09241 0.70576 0.0
C2168 C 0.30792 0.12917 0.57033 0.0
C2169 C 0.32437 0.15807 0.54444 0.0
N2170 N 0.30785 0.10653 0.66472 0.0
N2171 N 0.32422 0.14263 0.58429 0.0
H2172 H 0.44623 0.16716 0.2174 0.0
H2173 H 0.4772 0.08951 0.02082 0.0
H2174 H 0.47709 0.15501 0.22384 0.0
H2175 H 0.44637 0.07839 0.03281 0.0
H2176 H 0.47695 0.11781 0.09112 0.0
H2177 H 0.4458 0.13876 0.14608 0.0
C2178 C 0.4529 0.15859 0.20387 0.0
C2179 C 0.46171 0.16345 0.22682 0.0
C2180 C 0.47023 0.10919 0.07852 0.0
C2181 C 0.46127 0.1312 0.14519 0.0
C2182 C 0.47035 0.09306 0.03815 0.0
C2183 C 0.46179 0.08147 0.02072 0.0
C2184 C 0.46146 0.11417 0.1018 0.0
C2185 C 0.45315 0.0868 0.04505 0.0
C2186 C 0.45264 0.14232 0.16328 0.0
C2187 C 0.47012 0.15176 0.20765 0.0
N2188 N 0.4532 0.10287 0.08427 0.0
N2189 N 0.46969 0.13636 0.16803 0.0
H2190 H 0.32292 0.55329 0.2021 0.0
H2191 H 0.3287 0.69687 0.0674 0.0
H2192 H 0.32158 0.63143 0.27516 0.0
H2193 H 0.31382 0.62721 0.00652 0.0
H2194 H 0.32955 0.67152 0.14184 0.0
H2195 H 0.32296 0.57855 0.12772 0.0
C2196 C 0.3227 0.57576 0.20252 0.0
C2197 C 0.3222 0.59028 0.24493 0.0
C2198 C 0.32613 0.66183 0.11205 0.0
C2199 C 0.32242 0.61925 0.15997 0.0
C2200 C 0.3257 0.67617 0.06955 0.0
C2201 C 0.32116 0.66416 0.03073 0.0
C2202 C 0.32222 0.63502 0.11537 0.0
C2203 C 0.31734 0.63733 0.03561 0.0
C2204 C 0.32269 0.59012 0.16009 0.0
C2205 C 0.3219 0.61941 0.24329 0.0
N2206 N 0.31802 0.6236 0.07698 0.0
N2207 N 0.32209 0.63296 0.20155 0.0
H2208 H 0.15839 0.48301 0.24959 0.0
H2209 H 0.12199 0.472 0.03426 0.0
H2210 H 0.1674 0.47054 0.10686 0.0
H2211 H 0.11248 0.46984 0.1776 0.0
H2212 H 0.13857 0.47688 0.06052 0.0
H2213 H 0.14159 0.48344 0.22403 0.0
C2214 C 0.15688 0.48033 0.21287 0.0
C2215 C 0.1644 0.47642 0.18044 0.0
C2216 C 0.13288 0.47537 0.08635 0.0
C2217 C 0.14508 0.47731 0.1509 0.0
C2218 C 0.12338 0.4724 0.07138 0.0
C2219 C 0.1158 0.46994 0.10378 0.0
C2220 C 0.13492 0.47602 0.13423 0.0
C2221 C 0.11808 0.4716 0.15142 0.0
C2222 C 0.14725 0.48072 0.19832 0.0
C2223 C 0.16191 0.47377 0.13318 0.0
N2224 N 0.12745 0.47435 0.16524 0.0
N2225 N 0.15248 0.47414 0.11994 0.0
H2226 H 0.1217 0.78651 0.22284 0.0
H2227 H 0.15969 0.75358 0.01969 0.0
H2228 H 0.11316 0.76412 0.08326 0.0
H2229 H 0.16772 0.77827 0.15898 0.0
H2230 H 0.14275 0.75352 0.04343 0.0
H2231 H 0.13854 0.77967 0.20131 0.0
C2232 C 0.12337 0.78016 0.18752 0.0
C2233 C 0.11598 0.77633 0.15457 0.0
C2234 C 0.14821 0.75879 0.0689 0.0
C2235 C 0.1354 0.76821 0.12962 0.0
C2236 C 0.15791 0.75896 0.05533 0.0
C2237 C 0.16519 0.76626 0.08723 0.0
C2238 C 0.1457 0.766 0.11477 0.0
C2239 C 0.16241 0.7724 0.1332 0.0
C2240 C 0.13302 0.77612 0.17531 0.0
C2241 C 0.11861 0.76734 0.10972 0.0
N2242 N 0.1529 0.77234 0.14544 0.0
N2243 N 0.12811 0.76384 0.09842 0.0
H2244 H 0.90839 0.50826 0.98849 0.0
H2245 H 0.87126 0.54287 0.78298 0.0
H2246 H 0.91705 0.53732 0.85239 0.0
H2247 H 0.86264 0.50512 0.91311 0.0
H2248 H 0.88798 0.54191 0.8088 0.0
H2249 H 0.89159 0.50785 0.96252 0.0
C2250 C 0.90677 0.5146 0.95315 0.0
C2251 C 0.91417 0.52295 0.92264 0.0
C2252 C 0.88244 0.53377 0.83173 0.0
C2253 C 0.8949 0.52243 0.89258 0.0
C2254 C 0.87286 0.53419 0.8169 0.0
C2255 C 0.86546 0.52385 0.84568 0.0
C2256 C 0.88473 0.52307 0.87588 0.0
C2257 C 0.86804 0.51351 0.8898 0.0
C2258 C 0.89717 0.51423 0.93828 0.0
C2259 C 0.91162 0.53049 0.87698 0.0
N2260 N 0.87746 0.51336 0.90349 0.0
N2261 N 0.90221 0.53018 0.86344 0.0
H2262 H 0.90787 0.25028 0.78856 0.0
H2263 H 0.86998 0.20225 0.98358 0.0
H2264 H 0.91613 0.20882 0.91583 0.0
H2265 H 0.86182 0.24468 0.85699 0.0
H2266 H 0.88686 0.20506 0.95997 0.0
H2267 H 0.89105 0.24902 0.81365 0.0
C2268 C 0.90616 0.24083 0.82178 0.0
C2269 C 0.91347 0.22942 0.84992 0.0
C2270 C 0.88139 0.2138 0.93735 0.0
C2271 C 0.8941 0.2281 0.87914 0.0
C2272 C 0.87171 0.21234 0.95093 0.0
C2273 C 0.86439 0.22338 0.92242 0.0
C2274 C 0.88385 0.22638 0.89482 0.0
C2275 C 0.86715 0.23566 0.87999 0.0
C2276 C 0.89653 0.24023 0.83619 0.0
C2277 C 0.91078 0.21801 0.89311 0.0
N2278 N 0.87664 0.23685 0.86756 0.0
N2279 N 0.90132 0.21752 0.90626 0.0
H2280 H 0.16573 0.99432 0.60026 0.0
H2281 H 0.11069 0.95722 0.66241 0.0
H2282 H 0.15698 0.94986 0.72404 0.0
H2283 H 0.11947 0.99394 0.53186 0.0
H2284 H 0.12756 0.95703 0.68756 0.0
H2285 H 0.14882 0.99611 0.57566 0.0
C2286 C 0.1603 0.98482 0.62222 0.0
C2287 C 0.16286 0.97204 0.66451 0.0
C2288 C 0.1258 0.96517 0.65341 0.0
C2289 C 0.14341 0.97433 0.63673 0.0
C2290 C 0.11614 0.96547 0.63919 0.0
C2291 C 0.11363 0.97549 0.59484 0.0
C2292 C 0.13303 0.97508 0.62321 0.0
C2293 C 0.12106 0.98562 0.56603 0.0
C2294 C 0.15062 0.986 0.60825 0.0
C2295 C 0.15541 0.96039 0.69163 0.0
N2296 N 0.1304 0.98514 0.58067 0.0
N2297 N 0.14607 0.96185 0.67733 0.0
H2298 H 0.11137 0.28469 0.59194 0.0
H2299 H 0.16634 0.24732 0.65524 0.0
H2300 H 0.11983 0.23982 0.71555 0.0
H2301 H 0.15797 0.29751 0.53746 0.0
H2302 H 0.14923 0.23923 0.67254 0.0
H2303 H 0.12825 0.28461 0.56617 0.0
C2304 C 0.11675 0.27453 0.61339 0.0
C2305 C 0.11417 0.26253 0.65625 0.0
C2306 C 0.15114 0.25184 0.64267 0.0
C2307 C 0.13355 0.26254 0.6272 0.0
C2308 C 0.16091 0.25628 0.63261 0.0
C2309 C 0.1636 0.27337 0.59515 0.0
C2310 C 0.14399 0.26448 0.61496 0.0
C2311 C 0.15623 0.28464 0.56721 0.0
C2312 C 0.1264 0.27462 0.59882 0.0
C2313 C 0.12149 0.24983 0.68275 0.0
N2314 N 0.14679 0.28015 0.57783 0.0
N2315 N 0.13083 0.2503 0.66795 0.0
H2316 H 0.85964 0.03962 0.42212 0.0
H2317 H 0.91473 0.0009 0.36162 0.0
H2318 H 0.86873 -0.00156 0.29588 0.0
H2319 H 0.90609 0.04172 0.48905 0.0
H2320 H 0.89782 -0.00044 0.33754 0.0
H2321 H 0.87649 0.03935 0.44902 0.0
C2322 C 0.86515 0.03034 0.40028 0.0
C2323 C 0.86277 0.01935 0.35645 0.0
C2324 C 0.89962 0.00878 0.37084 0.0
C2325 C 0.88205 0.01916 0.38664 0.0
C2326 C 0.90931 0.00972 0.38447 0.0
C2327 C 0.9119 0.02137 0.42753 0.0
C2328 C 0.89242 0.01964 0.40036 0.0
C2329 C 0.90447 0.03215 0.45589 0.0
C2330 C 0.87477 0.03033 0.41545 0.0
C2331 C 0.87023 0.0077 0.32944 0.0
N2332 N 0.8951 0.03104 0.44181 0.0
N2333 N 0.87949 0.00801 0.34485 0.0
H2334 H 0.87166 0.72104 0.48713 0.0
H2335 H 0.90823 0.72349 0.27637 0.0
H2336 H 0.8623 0.73926 0.34725 0.0
H2337 H 0.91745 0.73935 0.41722 0.0
H2338 H 0.89138 0.72958 0.30096 0.0
H2339 H 0.88846 0.72803 0.46278 0.0
C2340 C 0.87317 0.72693 0.45141 0.0
C2341 C 0.86562 0.72956 0.41912 0.0
C2342 C 0.89709 0.73221 0.32638 0.0
C2343 C 0.88481 0.73703 0.39065 0.0
C2344 C 0.90668 0.72869 0.31236 0.0
C2345 C 0.91421 0.73091 0.34484 0.0
C2346 C 0.89497 0.73734 0.37353 0.0
C2347 C 0.91186 0.73769 0.39108 0.0
C2348 C 0.88274 0.73097 0.43753 0.0
C2349 C 0.86792 0.73724 0.37323 0.0
N2350 N 0.90243 0.74019 0.40424 0.0
N2351 N 0.87733 0.74024 0.36014 0.0
H2352 H 0.6688 0.45846 0.5793 0.0
H2353 H 0.61396 0.49588 0.64605 0.0
H2354 H 0.66007 0.49596 0.70939 0.0
H2355 H 0.62246 0.4642 0.51129 0.0
H2356 H 0.63088 0.49506 0.67015 0.0
H2357 H 0.65194 0.46041 0.55296 0.0
C2358 C 0.66337 0.46727 0.60215 0.0
C2359 C 0.66586 0.47675 0.64683 0.0
C2360 C 0.62905 0.48833 0.63524 0.0
C2361 C 0.64657 0.4788 0.61726 0.0
C2362 C 0.61937 0.48862 0.62159 0.0
C2363 C 0.61675 0.4802 0.57651 0.0
C2364 C 0.6362 0.47942 0.60369 0.0
C2365 C 0.62412 0.4713 0.54613 0.0
C2366 C 0.65374 0.46824 0.58726 0.0
C2367 C 0.6585 0.48781 0.67512 0.0
N2368 N 0.63349 0.47111 0.56027 0.0
N2369 N 0.64922 0.48843 0.65996 0.0
H2370 H 0.62083 0.79287 0.73218 0.0
H2371 H 0.65847 0.74319 0.53753 0.0
H2372 H 0.61248 0.74985 0.60682 0.0
H2373 H 0.66688 0.78421 0.6648 0.0
H2374 H 0.64181 0.74195 0.56522 0.0
H2375 H 0.6378 0.78616 0.71146 0.0
C2376 C 0.62258 0.7818 0.7004 0.0
C2377 C 0.61521 0.77216 0.67095 0.0
C2378 C 0.64729 0.75107 0.5873 0.0
C2379 C 0.63469 0.76443 0.6468 0.0
C2380 C 0.65683 0.75194 0.57138 0.0
C2381 C 0.66411 0.76418 0.59858 0.0
C2382 C 0.64494 0.76266 0.63078 0.0
C2383 C 0.66153 0.77455 0.64266 0.0
C2384 C 0.63228 0.77793 0.68862 0.0
C2385 C 0.6179 0.75754 0.63062 0.0
N2386 N 0.65216 0.7738 0.65716 0.0
N2387 N 0.62742 0.75441 0.61947 0.0
H2388 H 0.4092 0.505 0.49662 0.0
H2389 H 0.37134 0.53788 0.29318 0.0
H2390 H 0.41715 0.5348 0.35994 0.0
H2391 H 0.36278 0.50516 0.427 0.0
H2392 H 0.38807 0.5381 0.3187 0.0
H2393 H 0.39223 0.50575 0.47326 0.0
C2394 C 0.4074 0.51178 0.46172 0.0
C2395 C 0.41467 0.51994 0.43026 0.0
C2396 C 0.38257 0.53085 0.34264 0.0
C2397 C 0.39518 0.5207 0.40322 0.0
C2398 C 0.37298 0.5306 0.32799 0.0
C2399 C 0.36562 0.52108 0.35774 0.0
C2400 C 0.38492 0.52152 0.38757 0.0
C2401 C 0.36821 0.51268 0.40295 0.0
C2402 C 0.39769 0.5121 0.44838 0.0
C2403 C 0.41185 0.52806 0.38525 0.0
N2404 N 0.37766 0.51293 0.41642 0.0
N2405 N 0.40235 0.52831 0.3732 0.0
H2406 H 0.41599 0.20306 0.40212 0.0
H2407 H 0.36092 0.23984 0.33889 0.0
H2408 H 0.40755 0.24281 0.27356 0.0
H2409 H 0.36975 0.19661 0.46354 0.0
H2410 H 0.37785 0.24072 0.31321 0.0
H2411 H 0.39902 0.20121 0.42535 0.0
C2412 C 0.41059 0.2116 0.3789 0.0
C2413 C 0.41325 0.22306 0.33575 0.0
C2414 C 0.37606 0.231 0.34615 0.0
C2415 C 0.3937 0.22071 0.36189 0.0
C2416 C 0.36638 0.23034 0.36064 0.0
C2417 C 0.36389 0.21842 0.4037 0.0
C2418 C 0.38329 0.2196 0.37489 0.0
C2419 C 0.37132 0.20657 0.4306 0.0
C2420 C 0.40087 0.21034 0.39201 0.0
C2421 C 0.40586 0.23343 0.30685 0.0
N2422 N 0.38064 0.20756 0.41588 0.0
N2423 N 0.39645 0.23203 0.32042 0.0
H2424 H 0.66502 0.99711 0.09818 0.0
H2425 H 0.60981 0.96467 0.16403 0.0
H2426 H 0.65611 0.96151 0.22957 0.0
H2427 H 0.61909 0.99307 0.02853 0.0
H2428 H 0.62661 0.96641 0.19069 0.0
H2429 H 0.64816 0.99791 0.0734 0.0
C2430 C 0.65956 0.98935 0.12182 0.0
C2431 C 0.66207 0.97924 0.16616 0.0
C2432 C 0.62497 0.97232 0.15514 0.0
C2433 C 0.64264 0.98044 0.13808 0.0
C2434 C 0.61536 0.97151 0.14003 0.0
C2435 C 0.61303 0.97852 0.09386 0.0
C2436 C 0.6323 0.98035 0.12394 0.0
C2437 C 0.62056 0.987 0.06414 0.0
C2438 C 0.6499 0.98997 0.10771 0.0
C2439 C 0.65458 0.96987 0.19539 0.0
N2440 N 0.62983 0.98762 0.07963 0.0
N2441 N 0.64524 0.97069 0.18085 0.0
H2442 H 0.61078 0.28754 0.06866 0.0
H2443 H 0.66551 0.24434 0.1253 0.0
H2444 H 0.61905 0.23319 0.18119 0.0
H2445 H 0.65746 0.29757 0.01079 0.0
H2446 H 0.64838 0.23577 0.14075 0.0
H2447 H 0.6276 0.28737 0.04114 0.0
C2448 C 0.61609 0.27523 0.08708 0.0
C2449 C 0.61353 0.2607 0.12764 0.0
C2450 C 0.65036 0.24915 0.11195 0.0
C2451 C 0.6328 0.26059 0.09686 0.0
C2452 C 0.66016 0.25389 0.10295 0.0
C2453 C 0.66296 0.272 0.06707 0.0
C2454 C 0.64327 0.26262 0.08492 0.0
C2455 C 0.65565 0.28394 0.03947 0.0
C2456 C 0.62571 0.27526 0.07161 0.0
C2457 C 0.62074 0.24519 0.15036 0.0
N2458 N 0.64618 0.27926 0.04919 0.0
N2459 N 0.63002 0.24574 0.13495 0.0
H2460 H 0.36967 0.03786 0.77325 0.0
H2461 H 0.40698 0.00377 0.97858 0.0
H2462 H 0.36109 0.00409 0.90647 0.0
H2463 H 0.41558 0.03381 0.84299 0.0
H2464 H 0.39018 0.00363 0.95287 0.0
H2465 H 0.38647 0.03634 0.79817 0.0
C2466 C 0.37129 0.02993 0.80766 0.0
C2467 C 0.36388 0.02095 0.83764 0.0
C2468 C 0.39574 0.01019 0.92866 0.0
C2469 C 0.38324 0.0195 0.86674 0.0
C2470 C 0.40535 0.0104 0.94339 0.0
C2471 C 0.41274 0.01898 0.91302 0.0
C2472 C 0.39344 0.01869 0.88316 0.0
C2473 C 0.41016 0.02682 0.86751 0.0
C2474 C 0.38092 0.02921 0.82197 0.0
C2475 C 0.3665 0.01148 0.88224 0.0
N2476 N 0.40074 0.02662 0.85407 0.0
N2477 N 0.37595 0.01098 0.89538 0.0
H2478 H 0.41003 0.73935 0.78007 0.0
H2479 H 0.37215 0.71984 0.98878 0.0
H2480 H 0.41822 0.71434 0.91907 0.0
H2481 H 0.36388 0.74067 0.84798 0.0
H2482 H 0.38903 0.71884 0.96446 0.0
H2483 H 0.3932 0.74116 0.8049 0.0
C2484 C 0.40831 0.73414 0.81583 0.0
C2485 C 0.41561 0.72644 0.84739 0.0
C2486 C 0.38353 0.72363 0.93883 0.0
C2487 C 0.39622 0.72875 0.87627 0.0
C2488 C 0.37386 0.72436 0.95275 0.0
C2489 C 0.36653 0.73054 0.92047 0.0
C2490 C 0.38596 0.72918 0.89221 0.0
C2491 C 0.36925 0.73562 0.87402 0.0
C2492 C 0.39867 0.7353 0.83004 0.0
C2493 C 0.41288 0.72056 0.89357 0.0
N2494 N 0.37873 0.73491 0.86136 0.0
N2495 N 0.40342 0.72174 0.90654 0.0
loop_
_geom_bond_atom_site_label_1
_geom_bond_atom_site_label_2
_geom_bond_distance
_geom_bond_site_symmetry_2
_ccdc_geom_bond_type
Co0 N4 2.148 . S
Co0 N10 2.128 . S
Co0 N20 2.194 . S
Co0 O25 2.351 . S
Co0 O26 2.155 . S
Co0 O27 2.096 . S
C1 N4 1.301 . S
C1 N5 1.328 . S
C1 H6 0.930 . S
C2 C3 1.333 . S
C2 N4 1.317 . S
C2 H7 0.930 . S
C3 C2 1.333 . S
C3 N5 1.350 . S
C3 H29 0.931 . S
N4 Co0 2.148 . S
N4 C1 1.301 . S
N4 C2 1.317 . S
N5 C1 1.328 . S
N5 C3 1.350 . S
H6 C1 0.930 . S
H7 C2 0.930 . S
C8 O9 1.224 . S
C8 O27 1.247 . S
O9 C8 1.224 . S
N10 Co0 2.128 . S
N10 C11 1.355 . S
N10 C13 1.311 . S
C11 N10 1.355 . S
C11 C12 1.363 . S
C11 H23 0.929 . S
C12 C11 1.363 . S
C12 N14 1.375 . S
C12 H30 0.931 . S
C13 N10 1.311 . S
C13 N14 1.347 . S
C13 H24 0.929 . S
N14 C12 1.375 . S
N14 C13 1.347 . S
C15 C18 1.365 . S
C15 N20 1.328 . S
C15 H21 0.929 . S
C16 C17 1.362 . S
C16 C19 1.378 . S
C16 H31 0.929 . S
C17 C16 1.362 . S
C17 C18 1.366 . S
C18 C15 1.365 . S
C18 C17 1.366 . S
C18 H32 0.930 . S
C19 C16 1.378 . S
C19 N20 1.315 . S
C19 H22 0.930 . S
N20 Co0 2.194 . S
N20 C15 1.328 . S
N20 C19 1.315 . S
H21 C15 0.929 . S
H22 C19 0.930 . S
H23 C11 0.929 . S
H24 C13 0.929 . S
O25 Co0 2.351 . S
O25 C28 1.244 . S
O26 Co0 2.155 . S
O26 C28 1.240 . S
O27 Co0 2.096 . S
O27 C8 1.247 . S
C28 O25 1.244 . S
C28 O26 1.240 . S
H29 C3 0.931 . S
H30 C12 0.931 . S
H31 C16 0.929 . S
H32 C18 0.930 . S
Co33 N37 2.148 . S
Co33 N43 2.128 . S
Co33 N53 2.194 . S
Co33 O58 2.351 . S
Co33 O59 2.155 . S
Co33 O60 2.096 . S
C34 N37 1.301 . S
C34 N38 1.328 . S
C34 H39 0.930 . S
C35 C36 1.333 . S
C35 N37 1.317 . S
C35 H40 0.930 . S
C36 C35 1.333 . S
C36 N38 1.350 . S
C36 H62 0.931 . S
N37 Co33 2.148 . S
N37 C34 1.301 . S
N37 C35 1.317 . S
N38 C34 1.328 . S
N38 C36 1.350 . S
H39 C34 0.930 . S
H40 C35 0.930 . S
C41 O42 1.224 . S
C41 O60 1.247 . S
O42 C41 1.224 . S
N43 Co33 2.128 . S
N43 C44 1.355 . S
N43 C46 1.311 . S
C44 N43 1.355 . S
C44 C45 1.363 . S
C44 H56 0.929 . S
C45 C44 1.363 . S
C45 N47 1.375 . S
C45 H63 0.931 . S
C46 N43 1.311 . S
C46 N47 1.347 . S
C46 H57 0.929 . S
N47 C45 1.375 . S
N47 C46 1.347 . S
C48 C51 1.365 . S
C48 N53 1.328 . S
C48 H54 0.929 . S
C49 C50 1.362 . S
C49 C52 1.378 . S
C49 H64 0.929 . S
C50 C49 1.362 . S
C50 C51 1.366 . S
C51 C48 1.365 . S
C51 C50 1.366 . S
C51 H65 0.930 . S
C52 C49 1.378 . S
C52 N53 1.315 . S
C52 H55 0.930 . S
N53 Co33 2.194 . S
N53 C48 1.328 . S
N53 C52 1.315 . S
H54 C48 0.929 . S
H55 C52 0.930 . S
H56 C44 0.929 . S
H57 C46 0.929 . S
O58 Co33 2.351 . S
O58 C61 1.244 . S
O59 Co33 2.155 . S
O59 C61 1.240 . S
O60 Co33 2.096 . S
O60 C41 1.247 . S
C61 O58 1.244 . S
C61 O59 1.240 . S
H62 C36 0.931 . S
H63 C45 0.931 . S
H64 C49 0.929 . S
H65 C51 0.930 . S
Co66 N70 2.148 . S
Co66 N76 2.128 . S
Co66 N86 2.194 . S
Co66 O91 2.351 . S
Co66 O92 2.155 . S
Co66 O93 2.096 . S
C67 N70 1.301 . S
C67 N71 1.328 . S
C67 H72 0.930 . S
C68 C69 1.333 . S
C68 N70 1.317 . S
C68 H73 0.930 . S
C69 C68 1.333 . S
C69 N71 1.350 . S
C69 H95 0.931 . S
N70 Co66 2.148 . S
N70 C67 1.301 . S
N70 C68 1.317 . S
N71 C67 1.328 . S
N71 C69 1.350 . S
H72 C67 0.930 . S
H73 C68 0.930 . S
C74 O75 1.224 . S
C74 O93 1.247 . S
O75 C74 1.224 . S
N76 Co66 2.128 . S
N76 C77 1.355 . S
N76 C79 1.311 . S
C77 N76 1.355 . S
C77 C78 1.363 . S
C77 H89 0.929 . S
C78 C77 1.363 . S
C78 N80 1.375 . S
C78 H96 0.931 . S
C79 N76 1.311 . S
C79 N80 1.347 . S
C79 H90 0.929 . S
N80 C78 1.375 . S
N80 C79 1.347 . S
C81 C84 1.365 . S
C81 N86 1.328 . S
C81 H87 0.929 . S
C82 C83 1.362 . S
C82 C85 1.378 . S
C82 H97 0.929 . S
C83 C82 1.362 . S
C83 C84 1.366 . S
C84 C81 1.365 . S
C84 C83 1.366 . S
C84 H98 0.930 1_554 S
C85 C82 1.378 . S
C85 N86 1.315 . S
C85 H88 0.930 . S
N86 Co66 2.194 . S
N86 C81 1.328 . S
N86 C85 1.315 . S
H87 C81 0.929 . S
H88 C85 0.930 . S
H89 C77 0.929 . S
H90 C79 0.929 . S
O91 Co66 2.351 . S
O91 C94 1.244 . S
O92 Co66 2.155 . S
O92 C94 1.240 . S
O93 Co66 2.096 . S
O93 C74 1.247 . S
C94 O91 1.244 . S
C94 O92 1.240 . S
H95 C69 0.931 . S
H96 C78 0.931 . S
H97 C82 0.929 . S
H98 C84 0.930 1_556 S
Co99 N103 2.148 . S
Co99 N109 2.128 . S
Co99 N119 2.194 . S
Co99 O124 2.351 . S
Co99 O125 2.155 . S
Co99 O126 2.096 . S
C100 N103 1.301 . S
C100 N104 1.328 . S
C100 H105 0.930 . S
C101 C102 1.333 . S
C101 N103 1.317 . S
C101 H106 0.930 . S
C102 C101 1.333 . S
C102 N104 1.350 . S
C102 H128 0.931 . S
N103 Co99 2.148 . S
N103 C100 1.301 . S
N103 C101 1.317 . S
N104 C100 1.328 . S
N104 C102 1.350 . S
H105 C100 0.930 . S
H106 C101 0.930 . S
C107 O108 1.224 . S
C107 O126 1.247 . S
O108 C107 1.224 . S
N109 Co99 2.128 . S
N109 C110 1.355 . S
N109 C112 1.311 . S
C110 N109 1.355 . S
C110 C111 1.363 . S
C110 H122 0.929 . S
C111 C110 1.363 . S
C111 N113 1.375 . S
C111 H129 0.931 . S
C112 N109 1.311 . S
C112 N113 1.347 . S
C112 H123 0.929 . S
N113 C111 1.375 . S
N113 C112 1.347 . S
C114 C117 1.365 . S
C114 N119 1.328 . S
C114 H120 0.929 . S
C115 C116 1.362 . S
C115 C118 1.378 . S
C115 H130 0.929 . S
C116 C115 1.362 . S
C116 C117 1.366 . S
C117 C114 1.365 . S
C117 C116 1.366 . S
C117 H131 0.930 1_554 S
C118 C115 1.378 . S
C118 N119 1.315 . S
C118 H121 0.930 . S
N119 Co99 2.194 . S
N119 C114 1.328 . S
N119 C118 1.315 . S
H120 C114 0.929 . S
H121 C118 0.930 . S
H122 C110 0.929 . S
H123 C112 0.929 . S
O124 Co99 2.351 . S
O124 C127 1.244 . S
O125 Co99 2.155 . S
O125 C127 1.240 . S
O126 Co99 2.096 . S
O126 C107 1.247 . S
C127 O124 1.244 . S
C127 O125 1.240 . S
H128 C102 0.931 . S
H129 C111 0.931 . S
H130 C115 0.929 . S
H131 C117 0.930 1_556 S
Co132 N136 2.148 . S
Co132 N142 2.128 . S
Co132 N152 2.194 . S
Co132 O157 2.351 . S
Co132 O158 2.155 . S
Co132 O159 2.096 . S
C133 N136 1.301 . S
C133 N137 1.328 . S
C133 H138 0.930 . S
C134 C135 1.333 . S
C134 N136 1.317 . S
C134 H139 0.930 . S
C135 C134 1.333 . S
C135 N137 1.350 . S
C135 H161 0.931 . S
N136 Co132 2.148 . S
N136 C133 1.301 . S
N136 C134 1.317 . S
N137 C133 1.328 . S
N137 C135 1.350 . S
H138 C133 0.930 . S
H139 C134 0.930 . S
C140 O141 1.224 . S
C140 O159 1.247 . S
O141 C140 1.224 . S
N142 Co132 2.128 . S
N142 C143 1.355 . S
N142 C145 1.311 . S
C143 N142 1.355 . S
C143 C144 1.363 . S
C143 H155 0.929 . S
C144 C143 1.363 . S
C144 N146 1.375 . S
C144 H162 0.931 . S
C145 N142 1.311 . S
C145 N146 1.347 . S
C145 H156 0.929 . S
N146 C144 1.375 . S
N146 C145 1.347 . S
C147 C150 1.365 . S
C147 N152 1.328 . S
C147 H153 0.929 . S
C148 C149 1.362 . S
C148 C151 1.378 . S
C148 H163 0.929 . S
C149 C148 1.362 . S
C149 C150 1.366 . S
C150 C147 1.365 . S
C150 C149 1.366 . S
C150 H164 0.930 . S
C151 C148 1.378 . S
C151 N152 1.315 . S
C151 H154 0.930 . S
N152 Co132 2.194 . S
N152 C147 1.328 . S
N152 C151 1.315 . S
H153 C147 0.929 . S
H154 C151 0.930 . S
H155 C143 0.929 . S
H156 C145 0.929 . S
O157 Co132 2.351 . S
O157 C160 1.244 . S
O158 Co132 2.155 . S
O158 C160 1.240 . S
O159 Co132 2.096 . S
O159 C140 1.247 . S
C160 O157 1.244 . S
C160 O158 1.240 . S
H161 C135 0.931 . S
H162 C144 0.931 . S
H163 C148 0.929 . S
H164 C150 0.930 . S
Co165 N169 2.148 . S
Co165 N175 2.128 . S
Co165 N185 2.194 . S
Co165 O190 2.351 . S
Co165 O191 2.155 . S
Co165 O192 2.096 . S
C166 N169 1.301 . S
C166 N170 1.328 . S
C166 H171 0.930 . S
C167 C168 1.333 . S
C167 N169 1.317 . S
C167 H172 0.930 . S
C168 C167 1.333 . S
C168 N170 1.350 . S
C168 H194 0.931 . S
N169 Co165 2.148 . S
N169 C166 1.301 . S
N169 C167 1.317 . S
N170 C166 1.328 . S
N170 C168 1.350 . S
H171 C166 0.930 . S
H172 C167 0.930 . S
C173 O174 1.224 . S
C173 O192 1.247 . S
O174 C173 1.224 . S
N175 Co165 2.128 . S
N175 C176 1.355 . S
N175 C178 1.311 . S
C176 N175 1.355 . S
C176 C177 1.363 . S
C176 H188 0.929 . S
C177 C176 1.363 . S
C177 N179 1.375 . S
C177 H195 0.931 . S
C178 N175 1.311 . S
C178 N179 1.347 . S
C178 H189 0.929 . S
N179 C177 1.375 . S
N179 C178 1.347 . S
C180 C183 1.365 . S
C180 N185 1.328 . S
C180 H186 0.929 . S
C181 C182 1.362 . S
C181 C184 1.378 . S
C181 H196 0.929 . S
C182 C181 1.362 . S
C182 C183 1.366 . S
C183 C180 1.365 . S
C183 C182 1.366 . S
C183 H197 0.930 . S
C184 C181 1.378 . S
C184 N185 1.315 . S
C184 H187 0.930 . S
N185 Co165 2.194 . S
N185 C180 1.328 . S
N185 C184 1.315 . S
H186 C180 0.929 . S
H187 C184 0.930 . S
H188 C176 0.929 . S
H189 C178 0.929 . S
O190 Co165 2.351 . S
O190 C193 1.244 . S
O191 Co165 2.155 . S
O191 C193 1.240 . S
O192 Co165 2.096 . S
O192 C173 1.247 . S
C193 O190 1.244 . S
C193 O191 1.240 . S
H194 C168 0.931 . S
H195 C177 0.931 . S
H196 C181 0.929 . S
H197 C183 0.930 . S
Co198 N202 2.148 . S
Co198 N208 2.128 . S
Co198 N218 2.194 . S
Co198 O223 2.351 . S
Co198 O224 2.155 . S
Co198 O225 2.096 . S
C199 N202 1.301 . S
C199 N203 1.328 . S
C199 H204 0.930 . S
C200 C201 1.333 . S
C200 N202 1.317 . S
C200 H205 0.930 . S
C201 C200 1.333 . S
C201 N203 1.350 . S
C201 H227 0.931 . S
N202 Co198 2.148 . S
N202 C199 1.301 . S
N202 C200 1.317 . S
N203 C199 1.328 . S
N203 C201 1.350 . S
H204 C199 0.930 . S
H205 C200 0.930 . S
C206 O207 1.224 . S
C206 O225 1.247 . S
O207 C206 1.224 . S
N208 Co198 2.128 . S
N208 C209 1.355 . S
N208 C211 1.311 . S
C209 N208 1.355 . S
C209 C210 1.363 . S
C209 H221 0.929 . S
C210 C209 1.363 . S
C210 N212 1.375 . S
C210 H228 0.931 . S
C211 N208 1.311 . S
C211 N212 1.347 . S
C211 H222 0.929 . S
N212 C210 1.375 . S
N212 C211 1.347 . S
C213 C216 1.365 . S
C213 N218 1.328 . S
C213 H219 0.929 . S
C214 C215 1.362 . S
C214 C217 1.378 . S
C214 H229 0.929 . S
C215 C214 1.362 . S
C215 C216 1.366 . S
C216 C213 1.365 . S
C216 C215 1.366 . S
C216 H230 0.930 1_556 S
C217 C214 1.378 . S
C217 N218 1.315 . S
C217 H220 0.930 . S
N218 Co198 2.194 . S
N218 C213 1.328 . S
N218 C217 1.315 . S
H219 C213 0.929 . S
H220 C217 0.930 . S
H221 C209 0.929 . S
H222 C211 0.929 . S
O223 Co198 2.351 . S
O223 C226 1.244 . S
O224 Co198 2.155 . S
O224 C226 1.240 . S
O225 Co198 2.096 . S
O225 C206 1.247 . S
C226 O223 1.244 . S
C226 O224 1.240 . S
H227 C201 0.931 . S
H228 C210 0.931 . S
H229 C214 0.929 . S
H230 C216 0.930 1_554 S
Co231 N235 2.148 . S
Co231 N241 2.128 . S
Co231 N251 2.194 . S
Co231 O256 2.351 . S
Co231 O257 2.155 . S
Co231 O258 2.096 . S
C232 N235 1.301 . S
C232 N236 1.328 . S
C232 H237 0.930 . S
C233 C234 1.333 . S
C233 N235 1.317 . S
C233 H238 0.930 . S
C234 C233 1.333 . S
C234 N236 1.350 . S
C234 H260 0.931 . S
N235 Co231 2.148 . S
N235 C232 1.301 . S
N235 C233 1.317 . S
N236 C232 1.328 . S
N236 C234 1.350 . S
H237 C232 0.930 . S
H238 C233 0.930 . S
C239 O240 1.224 . S
C239 O258 1.247 . S
O240 C239 1.224 . S
N241 Co231 2.128 . S
N241 C242 1.355 . S
N241 C244 1.311 . S
C242 N241 1.355 . S
C242 C243 1.363 . S
C242 H254 0.929 . S
C243 C242 1.363 . S
C243 N245 1.375 . S
C243 H261 0.931 . S
C244 N241 1.311 . S
C244 N245 1.347 . S
C244 H255 0.929 . S
N245 C243 1.375 . S
N245 C244 1.347 . S
C246 C249 1.365 . S
C246 N251 1.328 . S
C246 H252 0.929 . S
C247 C248 1.362 . S
C247 C250 1.378 . S
C247 H262 0.929 . S
C248 C247 1.362 . S
C248 C249 1.366 . S
C249 C246 1.365 . S
C249 C248 1.366 . S
C249 H263 0.930 1_556 S
C250 C247 1.378 . S
C250 N251 1.315 . S
C250 H253 0.930 . S
N251 Co231 2.194 . S
N251 C246 1.328 . S
N251 C250 1.315 . S
H252 C246 0.929 . S
H253 C250 0.930 . S
H254 C242 0.929 . S
H255 C244 0.929 . S
O256 Co231 2.351 . S
O256 C259 1.244 . S
O257 Co231 2.155 . S
O257 C259 1.240 . S
O258 Co231 2.096 . S
O258 C239 1.247 . S
C259 O256 1.244 . S
C259 O257 1.240 . S
H260 C234 0.931 . S
H261 C243 0.931 . S
H262 C247 0.929 . S
H263 C249 0.930 1_554 S
Co264 N268 2.148 . S
Co264 N274 2.128 . S
Co264 N284 2.194 . S
Co264 O289 2.351 1_565 S
Co264 O290 2.155 1_565 S
Co264 O291 2.096 . S
C265 N268 1.301 . S
C265 N269 1.328 . S
C265 H270 0.930 . S
C266 C267 1.333 . S
C266 N268 1.317 . S
C266 H271 0.930 . S
C267 C266 1.333 . S
C267 N269 1.350 . S
C267 H293 0.931 . S
N268 Co264 2.148 . S
N268 C265 1.301 . S
N268 C266 1.317 . S
N269 C265 1.328 . S
N269 C267 1.350 . S
H270 C265 0.930 . S
H271 C266 0.930 . S
C272 O273 1.224 . S
C272 O291 1.247 . S
O273 C272 1.224 . S
N274 Co264 2.128 . S
N274 C275 1.355 . S
N274 C277 1.311 . S
C275 N274 1.355 . S
C275 C276 1.363 . S
C275 H287 0.929 . S
C276 C275 1.363 . S
C276 N278 1.375 . S
C276 H294 0.931 . S
C277 N274 1.311 . S
C277 N278 1.347 . S
C277 H288 0.929 . S
N278 C276 1.375 . S
N278 C277 1.347 . S
C279 C282 1.365 . S
C279 N284 1.328 . S
C279 H285 0.929 . S
C280 C281 1.362 . S
C280 C283 1.378 . S
C280 H295 0.929 . S
C281 C280 1.362 . S
C281 C282 1.366 . S
C282 C279 1.365 . S
C282 C281 1.366 . S
C282 H296 0.930 . S
C283 C280 1.378 . S
C283 N284 1.315 . S
C283 H286 0.930 . S
N284 Co264 2.194 . S
N284 C279 1.328 . S
N284 C283 1.315 . S
H285 C279 0.929 . S
H286 C283 0.930 . S
H287 C275 0.929 . S
H288 C277 0.929 . S
O289 Co264 2.351 1_545 S
O289 C292 1.244 . S
O290 Co264 2.155 1_545 S
O290 C292 1.240 . S
O291 Co264 2.096 . S
O291 C272 1.247 . S
C292 O289 1.244 . S
C292 O290 1.240 . S
H293 C267 0.931 . S
H294 C276 0.931 . S
H295 C280 0.929 . S
H296 C282 0.930 . S
Co297 N301 2.148 . S
Co297 N307 2.128 . S
Co297 N317 2.194 . S
Co297 O322 2.351 . S
Co297 O323 2.155 . S
Co297 O324 2.096 . S
C298 N301 1.301 . S
C298 N302 1.328 . S
C298 H303 0.930 . S
C299 C300 1.333 . S
C299 N301 1.317 . S
C299 H304 0.930 . S
C300 C299 1.333 . S
C300 N302 1.350 . S
C300 H326 0.931 . S
N301 Co297 2.148 . S
N301 C298 1.301 . S
N301 C299 1.317 . S
N302 C298 1.328 . S
N302 C300 1.350 . S
H303 C298 0.930 . S
H304 C299 0.930 . S
C305 O306 1.224 . S
C305 O324 1.247 . S
O306 C305 1.224 . S
N307 Co297 2.128 . S
N307 C308 1.355 . S
N307 C310 1.311 . S
C308 N307 1.355 . S
C308 C309 1.363 . S
C308 H320 0.929 . S
C309 C308 1.363 . S
C309 N311 1.375 . S
C309 H327 0.931 . S
C310 N307 1.311 . S
C310 N311 1.347 . S
C310 H321 0.929 . S
N311 C309 1.375 . S
N311 C310 1.347 . S
C312 C315 1.365 . S
C312 N317 1.328 . S
C312 H318 0.929 . S
C313 C314 1.362 . S
C313 C316 1.378 . S
C313 H328 0.929 . S
C314 C313 1.362 . S
C314 C315 1.366 . S
C315 C312 1.365 . S
C315 C314 1.366 . S
C315 H329 0.930 . S
C316 C313 1.378 . S
C316 N317 1.315 . S
C316 H319 0.930 . S
N317 Co297 2.194 . S
N317 C312 1.328 . S
N317 C316 1.315 . S
H318 C312 0.929 . S
H319 C316 0.930 . S
H320 C308 0.929 . S
H321 C310 0.929 . S
O322 Co297 2.351 . S
O322 C325 1.244 . S
O323 Co297 2.155 . S
O323 C325 1.240 . S
O324 Co297 2.096 . S
O324 C305 1.247 . S
C325 O322 1.244 . S
C325 O323 1.240 . S
H326 C300 0.931 . S
H327 C309 0.931 . S
H328 C313 0.929 . S
H329 C315 0.930 . S
Co330 N334 2.148 . S
Co330 N340 2.128 . S
Co330 N350 2.194 . S
Co330 O355 2.351 . S
Co330 O356 2.155 . S
Co330 O357 2.096 . S
C331 N334 1.301 . S
C331 N335 1.328 . S
C331 H336 0.930 . S
C332 C333 1.333 . S
C332 N334 1.317 . S
C332 H337 0.930 . S
C333 C332 1.333 . S
C333 N335 1.350 . S
C333 H359 0.931 . S
N334 Co330 2.148 . S
N334 C331 1.301 . S
N334 C332 1.317 . S
N335 C331 1.328 . S
N335 C333 1.350 . S
H336 C331 0.930 . S
H337 C332 0.930 . S
C338 O339 1.224 . S
C338 O357 1.247 . S
O339 C338 1.224 . S
N340 Co330 2.128 . S
N340 C341 1.355 . S
N340 C343 1.311 . S
C341 N340 1.355 . S
C341 C342 1.363 . S
C341 H353 0.929 . S
C342 C341 1.363 . S
C342 N344 1.375 . S
C342 H360 0.931 . S
C343 N340 1.311 . S
C343 N344 1.347 . S
C343 H354 0.929 . S
N344 C342 1.375 . S
N344 C343 1.347 . S
C345 C348 1.365 . S
C345 N350 1.328 . S
C345 H351 0.929 . S
C346 C347 1.362 . S
C346 C349 1.378 . S
C346 H361 0.929 . S
C347 C346 1.362 . S
C347 C348 1.366 . S
C348 C345 1.365 . S
C348 C347 1.366 . S
C348 H362 0.930 . S
C349 C346 1.378 . S
C349 N350 1.315 . S
C349 H352 0.930 . S
N350 Co330 2.194 . S
N350 C345 1.328 . S
N350 C349 1.315 . S
H351 C345 0.929 . S
H352 C349 0.930 . S
H353 C341 0.929 . S
H354 C343 0.929 . S
O355 Co330 2.351 . S
O355 C358 1.244 . S
O356 Co330 2.155 . S
O356 C358 1.240 . S
O357 Co330 2.096 . S
O357 C338 1.247 . S
C358 O355 1.244 . S
C358 O356 1.240 . S
H359 C333 0.931 . S
H360 C342 0.931 . S
H361 C346 0.929 . S
H362 C348 0.930 . S
Co363 N367 2.148 . S
Co363 N373 2.128 . S
Co363 N383 2.194 . S
Co363 O388 2.351 1_565 S
Co363 O389 2.155 1_565 S
Co363 O390 2.096 . S
C364 N367 1.301 . S
C364 N368 1.328 . S
C364 H369 0.930 . S
C365 C366 1.333 . S
C365 N367 1.317 . S
C365 H370 0.930 . S
C366 C365 1.333 . S
C366 N368 1.350 . S
C366 H392 0.931 . S
N367 Co363 2.148 . S
N367 C364 1.301 . S
N367 C365 1.317 . S
N368 C364 1.328 . S
N368 C366 1.350 . S
H369 C364 0.930 . S
H370 C365 0.930 . S
C371 O372 1.224 . S
C371 O390 1.247 . S
O372 C371 1.224 . S
N373 Co363 2.128 . S
N373 C374 1.355 . S
N373 C376 1.311 . S
C374 N373 1.355 . S
C374 C375 1.363 . S
C374 H386 0.929 . S
C375 C374 1.363 . S
C375 N377 1.375 . S
C375 H393 0.931 . S
C376 N373 1.311 . S
C376 N377 1.347 . S
C376 H387 0.929 . S
N377 C375 1.375 . S
N377 C376 1.347 . S
C378 C381 1.365 . S
C378 N383 1.328 . S
C378 H384 0.929 . S
C379 C380 1.362 . S
C379 C382 1.378 . S
C379 H394 0.929 . S
C380 C379 1.362 . S
C380 C381 1.366 . S
C381 C378 1.365 . S
C381 C380 1.366 . S
C381 H395 0.930 . S
C382 C379 1.378 . S
C382 N383 1.315 . S
C382 H385 0.930 . S
N383 Co363 2.194 . S
N383 C378 1.328 . S
N383 C382 1.315 . S
H384 C378 0.929 . S
H385 C382 0.930 . S
H386 C374 0.929 . S
H387 C376 0.929 . S
O388 Co363 2.351 1_545 S
O388 C391 1.244 . S
O389 Co363 2.155 1_545 S
O389 C391 1.240 . S
O390 Co363 2.096 . S
O390 C371 1.247 . S
C391 O388 1.244 . S
C391 O389 1.240 . S
H392 C366 0.931 . S
H393 C375 0.931 . S
H394 C379 0.929 . S
H395 C381 0.930 . S
Co396 N400 2.148 . S
Co396 N406 2.128 . S
Co396 N416 2.194 . S
Co396 O421 2.351 1_545 S
Co396 O422 2.155 1_545 S
Co396 O423 2.096 . S
C397 N400 1.301 . S
C397 N401 1.328 . S
C397 H402 0.930 . S
C398 C399 1.333 . S
C398 N400 1.317 . S
C398 H403 0.930 . S
C399 C398 1.333 . S
C399 N401 1.350 . S
C399 H425 0.931 . S
N400 Co396 2.148 . S
N400 C397 1.301 . S
N400 C398 1.317 . S
N401 C397 1.328 . S
N401 C399 1.350 . S
H402 C397 0.930 . S
H403 C398 0.930 . S
C404 O405 1.224 . S
C404 O423 1.247 . S
O405 C404 1.224 . S
N406 Co396 2.128 . S
N406 C407 1.355 . S
N406 C409 1.311 . S
C407 N406 1.355 . S
C407 C408 1.363 . S
C407 H419 0.929 . S
C408 C407 1.363 . S
C408 N410 1.375 . S
C408 H426 0.931 . S
C409 N406 1.311 . S
C409 N410 1.347 . S
C409 H420 0.929 . S
N410 C408 1.375 . S
N410 C409 1.347 . S
C411 C414 1.365 . S
C411 N416 1.328 . S
C411 H417 0.929 . S
C412 C413 1.362 . S
C412 C415 1.378 . S
C412 H427 0.929 . S
C413 C412 1.362 . S
C413 C414 1.366 . S
C414 C411 1.365 . S
C414 C413 1.366 . S
C414 H428 0.930 . S
C415 C412 1.378 . S
C415 N416 1.315 . S
C415 H418 0.930 . S
N416 Co396 2.194 . S
N416 C411 1.328 . S
N416 C415 1.315 . S
H417 C411 0.929 . S
H418 C415 0.930 . S
H419 C407 0.929 . S
H420 C409 0.929 . S
O421 Co396 2.351 1_565 S
O421 C424 1.244 . S
O422 Co396 2.155 1_565 S
O422 C424 1.240 . S
O423 Co396 2.096 . S
O423 C404 1.247 . S
C424 O421 1.244 . S
C424 O422 1.240 . S
H425 C399 0.931 . S
H426 C408 0.931 . S
H427 C412 0.929 . S
H428 C414 0.930 . S
Co429 N433 2.148 . S
Co429 N439 2.128 . S
Co429 N449 2.194 . S
Co429 O454 2.351 . S
Co429 O455 2.155 . S
Co429 O456 2.096 . S
C430 N433 1.301 . S
C430 N434 1.328 . S
C430 H435 0.930 . S
C431 C432 1.333 . S
C431 N433 1.317 . S
C431 H436 0.930 . S
C432 C431 1.333 . S
C432 N434 1.350 . S
C432 H458 0.931 . S
N433 Co429 2.148 . S
N433 C430 1.301 . S
N433 C431 1.317 . S
N434 C430 1.328 . S
N434 C432 1.350 . S
H435 C430 0.930 . S
H436 C431 0.930 . S
C437 O438 1.224 . S
C437 O456 1.247 . S
O438 C437 1.224 . S
N439 Co429 2.128 . S
N439 C440 1.355 . S
N439 C442 1.311 . S
C440 N439 1.355 . S
C440 C441 1.363 . S
C440 H452 0.929 . S
C441 C440 1.363 . S
C441 N443 1.375 . S
C441 H459 0.931 . S
C442 N439 1.311 . S
C442 N443 1.347 . S
C442 H453 0.929 . S
N443 C441 1.375 . S
N443 C442 1.347 . S
C444 C447 1.365 . S
C444 N449 1.328 . S
C444 H450 0.929 . S
C445 C446 1.362 . S
C445 C448 1.378 . S
C445 H460 0.929 . S
C446 C445 1.362 . S
C446 C447 1.366 . S
C447 C444 1.365 . S
C447 C446 1.366 . S
C447 H461 0.930 . S
C448 C445 1.378 . S
C448 N449 1.315 . S
C448 H451 0.930 . S
N449 Co429 2.194 . S
N449 C444 1.328 . S
N449 C448 1.315 . S
H450 C444 0.929 . S
H451 C448 0.930 . S
H452 C440 0.929 . S
H453 C442 0.929 . S
O454 Co429 2.351 . S
O454 C457 1.244 . S
O455 Co429 2.155 . S
O455 C457 1.240 . S
O456 Co429 2.096 . S
O456 C437 1.247 . S
C457 O454 1.244 . S
C457 O455 1.240 . S
H458 C432 0.931 . S
H459 C441 0.931 . S
H460 C445 0.929 . S
H461 C447 0.930 . S
Co462 N466 2.148 . S
Co462 N472 2.128 . S
Co462 N482 2.194 . S
Co462 O487 2.351 . S
Co462 O488 2.155 . S
Co462 O489 2.096 . S
C463 N466 1.301 . S
C463 N467 1.328 . S
C463 H468 0.930 . S
C464 C465 1.333 . S
C464 N466 1.317 . S
C464 H469 0.930 . S
C465 C464 1.333 . S
C465 N467 1.350 . S
C465 H491 0.931 . S
N466 Co462 2.148 . S
N466 C463 1.301 . S
N466 C464 1.317 . S
N467 C463 1.328 . S
N467 C465 1.350 . S
H468 C463 0.930 . S
H469 C464 0.930 . S
C470 O471 1.224 . S
C470 O489 1.247 . S
O471 C470 1.224 . S
N472 Co462 2.128 . S
N472 C473 1.355 . S
N472 C475 1.311 . S
C473 N472 1.355 . S
C473 C474 1.363 . S
C473 H485 0.929 . S
C474 C473 1.363 . S
C474 N476 1.375 . S
C474 H492 0.931 . S
C475 N472 1.311 . S
C475 N476 1.347 . S
C475 H486 0.929 . S
N476 C474 1.375 . S
N476 C475 1.347 . S
C477 C480 1.365 . S
C477 N482 1.328 . S
C477 H483 0.929 . S
C478 C479 1.362 . S
C478 C481 1.378 . S
C478 H493 0.929 . S
C479 C478 1.362 . S
C479 C480 1.366 . S
C480 C477 1.365 . S
C480 C479 1.366 . S
C480 H494 0.930 . S
C481 C478 1.378 . S
C481 N482 1.315 . S
C481 H484 0.930 . S
N482 Co462 2.194 . S
N482 C477 1.328 . S
N482 C481 1.315 . S
H483 C477 0.929 . S
H484 C481 0.930 . S
H485 C473 0.929 . S
H486 C475 0.929 . S
O487 Co462 2.351 . S
O487 C490 1.244 . S
O488 Co462 2.155 . S
O488 C490 1.240 . S
O489 Co462 2.096 . S
O489 C470 1.247 . S
C490 O487 1.244 . S
C490 O488 1.240 . S
H491 C465 0.931 . S
H492 C474 0.931 . S
H493 C478 0.929 . S
H494 C480 0.930 . S
Co495 N499 2.148 . S
Co495 N505 2.128 . S
Co495 N515 2.194 . S
Co495 O520 2.351 1_545 S
Co495 O521 2.155 1_545 S
Co495 O522 2.096 . S
C496 N499 1.301 . S
C496 N500 1.328 . S
C496 H501 0.930 . S
C497 C498 1.333 . S
C497 N499 1.317 . S
C497 H502 0.930 . S
C498 C497 1.333 . S
C498 N500 1.350 . S
C498 H524 0.931 . S
N499 Co495 2.148 . S
N499 C496 1.301 . S
N499 C497 1.317 . S
N500 C496 1.328 . S
N500 C498 1.350 . S
H501 C496 0.930 . S
H502 C497 0.930 . S
C503 O504 1.224 . S
C503 O522 1.247 . S
O504 C503 1.224 . S
N505 Co495 2.128 . S
N505 C506 1.355 . S
N505 C508 1.311 . S
C506 N505 1.355 . S
C506 C507 1.363 . S
C506 H518 0.929 . S
C507 C506 1.363 . S
C507 N509 1.375 . S
C507 H525 0.931 . S
C508 N505 1.311 . S
C508 N509 1.347 . S
C508 H519 0.929 . S
N509 C507 1.375 . S
N509 C508 1.347 . S
C510 C513 1.365 . S
C510 N515 1.328 . S
C510 H516 0.929 . S
C511 C512 1.362 . S
C511 C514 1.378 . S
C511 H526 0.929 . S
C512 C511 1.362 . S
C512 C513 1.366 . S
C513 C510 1.365 . S
C513 C512 1.366 . S
C513 H527 0.930 . S
C514 C511 1.378 . S
C514 N515 1.315 . S
C514 H517 0.930 . S
N515 Co495 2.194 . S
N515 C510 1.328 . S
N515 C514 1.315 . S
H516 C510 0.929 . S
H517 C514 0.930 . S
H518 C506 0.929 . S
H519 C508 0.929 . S
O520 Co495 2.351 1_565 S
O520 C523 1.244 . S
O521 Co495 2.155 1_565 S
O521 C523 1.240 . S
O522 Co495 2.096 . S
O522 C503 1.247 . S
C523 O520 1.244 . S
C523 O521 1.240 . S
H524 C498 0.931 . S
H525 C507 0.931 . S
H526 C511 0.929 . S
H527 C513 0.930 . S
Co528 N532 2.148 . S
Co528 N538 2.128 . S
Co528 N548 2.194 . S
Co528 O553 2.351 . S
Co528 O554 2.155 . S
Co528 O555 2.096 . S
C529 N532 1.301 . S
C529 N533 1.328 . S
C529 H534 0.930 . S
C530 C531 1.333 . S
C530 N532 1.317 . S
C530 H535 0.930 . S
C531 C530 1.333 . S
C531 N533 1.350 . S
C531 H557 0.931 . S
N532 Co528 2.148 . S
N532 C529 1.301 . S
N532 C530 1.317 . S
N533 C529 1.328 . S
N533 C531 1.350 . S
H534 C529 0.930 . S
H535 C530 0.930 . S
C536 O537 1.224 . S
C536 O555 1.247 . S
O537 C536 1.224 . S
N538 Co528 2.128 . S
N538 C539 1.355 . S
N538 C541 1.311 . S
C539 N538 1.355 . S
C539 C540 1.363 . S
C539 H551 0.929 . S
C540 C539 1.363 . S
C540 N542 1.375 . S
C540 H558 0.931 . S
C541 N538 1.311 . S
C541 N542 1.347 . S
C541 H552 0.929 . S
N542 C540 1.375 . S
N542 C541 1.347 . S
C543 C546 1.365 . S
C543 N548 1.328 . S
C543 H549 0.929 . S
C544 C545 1.362 . S
C544 C547 1.378 . S
C544 H559 0.929 . S
C545 C544 1.362 . S
C545 C546 1.366 . S
C546 C543 1.365 . S
C546 C545 1.366 . S
C546 H560 0.930 . S
C547 C544 1.378 . S
C547 N548 1.315 . S
C547 H550 0.930 . S
N548 Co528 2.194 . S
N548 C543 1.328 . S
N548 C547 1.315 . S
H549 C543 0.929 . S
H550 C547 0.930 . S
H551 C539 0.929 . S
H552 C541 0.929 . S
O553 Co528 2.351 . S
O553 C556 1.244 . S
O554 Co528 2.155 . S
O554 C556 1.240 . S
O555 Co528 2.096 . S
O555 C536 1.247 . S
C556 O553 1.244 . S
C556 O554 1.240 . S
H557 C531 0.931 . S
H558 C540 0.931 . S
H559 C544 0.929 . S
H560 C546 0.930 . S
Co561 N565 2.148 . S
Co561 N571 2.128 . S
Co561 N581 2.194 . S
Co561 O586 2.351 . S
Co561 O587 2.155 . S
Co561 O588 2.096 . S
C562 N565 1.301 . S
C562 N566 1.328 . S
C562 H567 0.930 . S
C563 C564 1.333 . S
C563 N565 1.317 . S
C563 H568 0.930 . S
C564 C563 1.333 . S
C564 N566 1.350 . S
C564 H590 0.931 . S
N565 Co561 2.148 . S
N565 C562 1.301 . S
N565 C563 1.317 . S
N566 C562 1.328 . S
N566 C564 1.350 . S
H567 C562 0.930 . S
H568 C563 0.930 . S
C569 O570 1.224 . S
C569 O588 1.247 . S
O570 C569 1.224 . S
N571 Co561 2.128 . S
N571 C572 1.355 . S
N571 C574 1.311 . S
C572 N571 1.355 . S
C572 C573 1.363 . S
C572 H584 0.929 . S
C573 C572 1.363 . S
C573 N575 1.375 . S
C573 H591 0.931 . S
C574 N571 1.311 . S
C574 N575 1.347 . S
C574 H585 0.929 . S
N575 C573 1.375 . S
N575 C574 1.347 . S
C576 C579 1.365 . S
C576 N581 1.328 . S
C576 H582 0.929 . S
C577 C578 1.362 . S
C577 C580 1.378 . S
C577 H592 0.929 . S
C578 C577 1.362 . S
C578 C579 1.366 . S
C579 C576 1.365 . S
C579 C578 1.366 . S
C579 H593 0.930 . S
C580 C577 1.378 . S
C580 N581 1.315 . S
C580 H583 0.930 . S
N581 Co561 2.194 . S
N581 C576 1.328 . S
N581 C580 1.315 . S
H582 C576 0.929 . S
H583 C580 0.930 . S
H584 C572 0.929 . S
H585 C574 0.929 . S
O586 Co561 2.351 . S
O586 C589 1.244 . S
O587 Co561 2.155 . S
O587 C589 1.240 . S
O588 Co561 2.096 . S
O588 C569 1.247 . S
C589 O586 1.244 . S
C589 O587 1.240 . S
H590 C564 0.931 . S
H591 C573 0.931 . S
H592 C577 0.929 . S
H593 C579 0.930 . S
Co594 N598 2.148 . S
Co594 N604 2.128 . S
Co594 N614 2.194 . S
Co594 O619 2.351 . S
Co594 O620 2.155 . S
Co594 O621 2.096 . S
C595 N598 1.301 . S
C595 N599 1.328 . S
C595 H600 0.930 . S
C596 C597 1.333 . S
C596 N598 1.317 . S
C596 H601 0.930 . S
C597 C596 1.333 . S
C597 N599 1.350 . S
C597 H623 0.931 . S
N598 Co594 2.148 . S
N598 C595 1.301 . S
N598 C596 1.317 . S
N599 C595 1.328 . S
N599 C597 1.350 . S
H600 C595 0.930 . S
H601 C596 0.930 . S
C602 O603 1.224 . S
C602 O621 1.247 . S
O603 C602 1.224 . S
N604 Co594 2.128 . S
N604 C605 1.355 . S
N604 C607 1.311 . S
C605 N604 1.355 . S
C605 C606 1.363 . S
C605 H617 0.929 . S
C606 C605 1.363 . S
C606 N608 1.375 . S
C606 H624 0.931 . S
C607 N604 1.311 . S
C607 N608 1.347 . S
C607 H618 0.929 . S
N608 C606 1.375 . S
N608 C607 1.347 . S
C609 C612 1.365 . S
C609 N614 1.328 . S
C609 H615 0.929 . S
C610 C611 1.362 . S
C610 C613 1.378 . S
C610 H625 0.929 . S
C611 C610 1.362 . S
C611 C612 1.366 . S
C612 C609 1.365 . S
C612 C611 1.366 . S
C612 H626 0.930 . S
C613 C610 1.378 . S
C613 N614 1.315 . S
C613 H616 0.930 . S
N614 Co594 2.194 . S
N614 C609 1.328 . S
N614 C613 1.315 . S
H615 C609 0.929 . S
H616 C613 0.930 . S
H617 C605 0.929 . S
H618 C607 0.929 . S
O619 Co594 2.351 . S
O619 C622 1.244 . S
O620 Co594 2.155 . S
O620 C622 1.240 . S
O621 Co594 2.096 . S
O621 C602 1.247 . S
C622 O619 1.244 . S
C622 O620 1.240 . S
H623 C597 0.931 . S
H624 C606 0.931 . S
H625 C610 0.929 . S
H626 C612 0.930 . S
Co627 N631 2.148 . S
Co627 N637 2.128 . S
Co627 N647 2.194 . S
Co627 O652 2.351 . S
Co627 O653 2.155 . S
Co627 O654 2.096 . S
C628 N631 1.301 . S
C628 N632 1.328 . S
C628 H633 0.930 . S
C629 C630 1.333 . S
C629 N631 1.317 . S
C629 H634 0.930 . S
C630 C629 1.333 . S
C630 N632 1.350 . S
C630 H656 0.931 . S
N631 Co627 2.148 . S
N631 C628 1.301 . S
N631 C629 1.317 . S
N632 C628 1.328 . S
N632 C630 1.350 . S
H633 C628 0.930 . S
H634 C629 0.930 . S
C635 O636 1.224 . S
C635 O654 1.247 . S
O636 C635 1.224 . S
N637 Co627 2.128 . S
N637 C638 1.355 . S
N637 C640 1.311 . S
C638 N637 1.355 . S
C638 C639 1.363 . S
C638 H650 0.929 . S
C639 C638 1.363 . S
C639 N641 1.375 . S
C639 H657 0.931 . S
C640 N637 1.311 . S
C640 N641 1.347 . S
C640 H651 0.929 . S
N641 C639 1.375 . S
N641 C640 1.347 . S
C642 C645 1.365 . S
C642 N647 1.328 . S
C642 H648 0.929 . S
C643 C644 1.362 . S
C643 C646 1.378 . S
C643 H658 0.929 . S
C644 C643 1.362 . S
C644 C645 1.366 . S
C645 C642 1.365 . S
C645 C644 1.366 . S
C645 H659 0.930 . S
C646 C643 1.378 . S
C646 N647 1.315 . S
C646 H649 0.930 . S
N647 Co627 2.194 . S
N647 C642 1.328 . S
N647 C646 1.315 . S
H648 C642 0.929 . S
H649 C646 0.930 . S
H650 C638 0.929 . S
H651 C640 0.929 . S
O652 Co627 2.351 . S
O652 C655 1.244 . S
O653 Co627 2.155 . S
O653 C655 1.240 . S
O654 Co627 2.096 . S
O654 C635 1.247 . S
C655 O652 1.244 . S
C655 O653 1.240 . S
H656 C630 0.931 . S
H657 C639 0.931 . S
H658 C643 0.929 . S
H659 C645 0.930 . S
Co660 N664 2.148 . S
Co660 N670 2.128 . S
Co660 N680 2.194 . S
Co660 O685 2.351 . S
Co660 O686 2.155 . S
Co660 O687 2.096 . S
C661 N664 1.301 . S
C661 N665 1.328 . S
C661 H666 0.930 . S
C662 C663 1.333 . S
C662 N664 1.317 . S
C662 H667 0.930 . S
C663 C662 1.333 . S
C663 N665 1.350 . S
C663 H689 0.931 . S
N664 Co660 2.148 . S
N664 C661 1.301 . S
N664 C662 1.317 . S
N665 C661 1.328 . S
N665 C663 1.350 . S
H666 C661 0.930 . S
H667 C662 0.930 . S
C668 O669 1.224 . S
C668 O687 1.247 . S
O669 C668 1.224 . S
N670 Co660 2.128 . S
N670 C671 1.355 . S
N670 C673 1.311 . S
C671 N670 1.355 . S
C671 C672 1.363 . S
C671 H683 0.929 . S
C672 C671 1.363 . S
C672 N674 1.375 . S
C672 H690 0.931 . S
C673 N670 1.311 . S
C673 N674 1.347 . S
C673 H684 0.929 . S
N674 C672 1.375 . S
N674 C673 1.347 . S
C675 C678 1.365 . S
C675 N680 1.328 . S
C675 H681 0.929 . S
C676 C677 1.362 . S
C676 C679 1.378 . S
C676 H691 0.929 . S
C677 C676 1.362 . S
C677 C678 1.366 . S
C678 C675 1.365 . S
C678 C677 1.366 . S
C678 H692 0.930 . S
C679 C676 1.378 . S
C679 N680 1.315 . S
C679 H682 0.930 . S
N680 Co660 2.194 . S
N680 C675 1.328 . S
N680 C679 1.315 . S
H681 C675 0.929 . S
H682 C679 0.930 . S
H683 C671 0.929 . S
H684 C673 0.929 . S
O685 Co660 2.351 . S
O685 C688 1.244 . S
O686 Co660 2.155 . S
O686 C688 1.240 . S
O687 Co660 2.096 . S
O687 C668 1.247 . S
C688 O685 1.244 . S
C688 O686 1.240 . S
H689 C663 0.931 . S
H690 C672 0.931 . S
H691 C676 0.929 . S
H692 C678 0.930 . S
Co693 N697 2.148 . S
Co693 N703 2.128 . S
Co693 N713 2.194 . S
Co693 O718 2.351 . S
Co693 O719 2.155 . S
Co693 O720 2.096 . S
C694 N697 1.301 . S
C694 N698 1.328 . S
C694 H699 0.930 . S
C695 C696 1.333 . S
C695 N697 1.317 . S
C695 H700 0.930 . S
C696 C695 1.333 . S
C696 N698 1.350 . S
C696 H722 0.931 . S
N697 Co693 2.148 . S
N697 C694 1.301 . S
N697 C695 1.317 . S
N698 C694 1.328 . S
N698 C696 1.350 . S
H699 C694 0.930 . S
H700 C695 0.930 . S
C701 O702 1.224 . S
C701 O720 1.247 . S
O702 C701 1.224 . S
N703 Co693 2.128 . S
N703 C704 1.355 . S
N703 C706 1.311 . S
C704 N703 1.355 . S
C704 C705 1.363 . S
C704 H716 0.929 . S
C705 C704 1.363 . S
C705 N707 1.375 . S
C705 H723 0.931 . S
C706 N703 1.311 . S
C706 N707 1.347 . S
C706 H717 0.929 . S
N707 C705 1.375 . S
N707 C706 1.347 . S
C708 C711 1.365 . S
C708 N713 1.328 . S
C708 H714 0.929 . S
C709 C710 1.362 . S
C709 C712 1.378 . S
C709 H724 0.929 . S
C710 C709 1.362 . S
C710 C711 1.366 . S
C711 C708 1.365 . S
C711 C710 1.366 . S
C711 H725 0.930 . S
C712 C709 1.378 . S
C712 N713 1.315 . S
C712 H715 0.930 . S
N713 Co693 2.194 . S
N713 C708 1.328 . S
N713 C712 1.315 . S
H714 C708 0.929 . S
H715 C712 0.930 . S
H716 C704 0.929 . S
H717 C706 0.929 . S
O718 Co693 2.351 . S
O718 C721 1.244 . S
O719 Co693 2.155 . S
O719 C721 1.240 . S
O720 Co693 2.096 . S
O720 C701 1.247 . S
C721 O718 1.244 . S
C721 O719 1.240 . S
H722 C696 0.931 . S
H723 C705 0.931 . S
H724 C709 0.929 . S
H725 C711 0.930 . S
Co726 N730 2.148 . S
Co726 N736 2.128 . S
Co726 N746 2.194 . S
Co726 O751 2.351 . S
Co726 O752 2.155 . S
Co726 O753 2.096 . S
C727 N730 1.301 . S
C727 N731 1.328 . S
C727 H732 0.930 . S
C728 C729 1.333 . S
C728 N730 1.317 . S
C728 H733 0.930 . S
C729 C728 1.333 . S
C729 N731 1.350 . S
C729 H755 0.931 . S
N730 Co726 2.148 . S
N730 C727 1.301 . S
N730 C728 1.317 . S
N731 C727 1.328 . S
N731 C729 1.350 . S
H732 C727 0.930 . S
H733 C728 0.930 . S
C734 O735 1.224 . S
C734 O753 1.247 . S
O735 C734 1.224 . S
N736 Co726 2.128 . S
N736 C737 1.355 . S
N736 C739 1.311 . S
C737 N736 1.355 . S
C737 C738 1.363 . S
C737 H749 0.929 . S
C738 C737 1.363 . S
C738 N740 1.375 . S
C738 H756 0.931 . S
C739 N736 1.311 . S
C739 N740 1.347 . S
C739 H750 0.929 . S
N740 C738 1.375 . S
N740 C739 1.347 . S
C741 C744 1.365 . S
C741 N746 1.328 . S
C741 H747 0.929 . S
C742 C743 1.362 . S
C742 C745 1.378 . S
C742 H757 0.929 . S
C743 C742 1.362 . S
C743 C744 1.366 . S
C744 C741 1.365 . S
C744 C743 1.366 . S
C744 H758 0.930 . S
C745 C742 1.378 . S
C745 N746 1.315 . S
C745 H748 0.930 . S
N746 Co726 2.194 . S
N746 C741 1.328 . S
N746 C745 1.315 . S
H747 C741 0.929 . S
H748 C745 0.930 . S
H749 C737 0.929 . S
H750 C739 0.929 . S
O751 Co726 2.351 . S
O751 C754 1.244 . S
O752 Co726 2.155 . S
O752 C754 1.240 . S
O753 Co726 2.096 . S
O753 C734 1.247 . S
C754 O751 1.244 . S
C754 O752 1.240 . S
H755 C729 0.931 . S
H756 C738 0.931 . S
H757 C742 0.929 . S
H758 C744 0.930 . S
Co759 N763 2.148 . S
Co759 N769 2.128 . S
Co759 N779 2.194 . S
Co759 O784 2.351 . S
Co759 O785 2.155 . S
Co759 O786 2.096 . S
C760 N763 1.301 . S
C760 N764 1.328 . S
C760 H765 0.930 . S
C761 C762 1.333 . S
C761 N763 1.317 . S
C761 H766 0.930 . S
C762 C761 1.333 . S
C762 N764 1.350 . S
C762 H788 0.931 . S
N763 Co759 2.148 . S
N763 C760 1.301 . S
N763 C761 1.317 . S
N764 C760 1.328 . S
N764 C762 1.350 . S
H765 C760 0.930 . S
H766 C761 0.930 . S
C767 O768 1.224 . S
C767 O786 1.247 . S
O768 C767 1.224 . S
N769 Co759 2.128 . S
N769 C770 1.355 . S
N769 C772 1.311 . S
C770 N769 1.355 . S
C770 C771 1.363 . S
C770 H782 0.929 . S
C771 C770 1.363 . S
C771 N773 1.375 . S
C771 H789 0.931 . S
C772 N769 1.311 . S
C772 N773 1.347 . S
C772 H783 0.929 . S
N773 C771 1.375 . S
N773 C772 1.347 . S
C774 C777 1.365 . S
C774 N779 1.328 . S
C774 H780 0.929 . S
C775 C776 1.362 . S
C775 C778 1.378 . S
C775 H790 0.929 . S
C776 C775 1.362 . S
C776 C777 1.366 . S
C777 C774 1.365 . S
C777 C776 1.366 . S
C777 H791 0.930 . S
C778 C775 1.378 . S
C778 N779 1.315 . S
C778 H781 0.930 . S
N779 Co759 2.194 . S
N779 C774 1.328 . S
N779 C778 1.315 . S
H780 C774 0.929 . S
H781 C778 0.930 . S
H782 C770 0.929 . S
H783 C772 0.929 . S
O784 Co759 2.351 . S
O784 C787 1.244 . S
O785 Co759 2.155 . S
O785 C787 1.240 . S
O786 Co759 2.096 . S
O786 C767 1.247 . S
C787 O784 1.244 . S
C787 O785 1.240 . S
H788 C762 0.931 . S
H789 C771 0.931 . S
H790 C775 0.929 . S
H791 C777 0.930 . S
Co792 N796 2.148 . S
Co792 N802 2.128 . S
Co792 N812 2.194 . S
Co792 O817 2.351 1_565 S
Co792 O818 2.155 1_565 S
Co792 O819 2.096 . S
C793 N796 1.301 . S
C793 N797 1.328 . S
C793 H798 0.930 . S
C794 C795 1.333 . S
C794 N796 1.317 . S
C794 H799 0.930 . S
C795 C794 1.333 . S
C795 N797 1.350 . S
C795 H821 0.931 . S
N796 Co792 2.148 . S
N796 C793 1.301 . S
N796 C794 1.317 . S
N797 C793 1.328 . S
N797 C795 1.350 . S
H798 C793 0.930 . S
H799 C794 0.930 . S
C800 O801 1.224 . S
C800 O819 1.247 . S
O801 C800 1.224 . S
N802 Co792 2.128 . S
N802 C803 1.355 . S
N802 C805 1.311 . S
C803 N802 1.355 . S
C803 C804 1.363 . S
C803 H815 0.929 . S
C804 C803 1.363 . S
C804 N806 1.375 . S
C804 H822 0.931 . S
C805 N802 1.311 . S
C805 N806 1.347 . S
C805 H816 0.929 . S
N806 C804 1.375 . S
N806 C805 1.347 . S
C807 C810 1.365 . S
C807 N812 1.328 . S
C807 H813 0.929 . S
C808 C809 1.362 . S
C808 C811 1.378 . S
C808 H823 0.929 . S
C809 C808 1.362 . S
C809 C810 1.366 . S
C810 C807 1.365 . S
C810 C809 1.366 . S
C810 H824 0.930 . S
C811 C808 1.378 . S
C811 N812 1.315 . S
C811 H814 0.930 . S
N812 Co792 2.194 . S
N812 C807 1.328 . S
N812 C811 1.315 . S
H813 C807 0.929 . S
H814 C811 0.930 . S
H815 C803 0.929 . S
H816 C805 0.929 . S
O817 Co792 2.351 1_545 S
O817 C820 1.244 . S
O818 Co792 2.155 1_545 S
O818 C820 1.240 . S
O819 Co792 2.096 . S
O819 C800 1.247 . S
C820 O817 1.244 . S
C820 O818 1.240 . S
H821 C795 0.931 . S
H822 C804 0.931 . S
H823 C808 0.929 . S
H824 C810 0.930 . S
Co825 N829 2.148 . S
Co825 N835 2.128 . S
Co825 N845 2.194 . S
Co825 O850 2.351 . S
Co825 O851 2.155 . S
Co825 O852 2.096 . S
C826 N829 1.301 . S
C826 N830 1.328 . S
C826 H831 0.930 . S
C827 C828 1.333 . S
C827 N829 1.317 . S
C827 H832 0.930 . S
C828 C827 1.333 . S
C828 N830 1.350 . S
C828 H854 0.931 . S
N829 Co825 2.148 . S
N829 C826 1.301 . S
N829 C827 1.317 . S
N830 C826 1.328 . S
N830 C828 1.350 . S
H831 C826 0.930 . S
H832 C827 0.930 . S
C833 O834 1.224 . S
C833 O852 1.247 . S
O834 C833 1.224 . S
N835 Co825 2.128 . S
N835 C836 1.355 . S
N835 C838 1.311 . S
C836 N835 1.355 . S
C836 C837 1.363 . S
C836 H848 0.929 . S
C837 C836 1.363 . S
C837 N839 1.375 . S
C837 H855 0.931 . S
C838 N835 1.311 . S
C838 N839 1.347 . S
C838 H849 0.929 . S
N839 C837 1.375 . S
N839 C838 1.347 . S
C840 C843 1.365 . S
C840 N845 1.328 . S
C840 H846 0.929 . S
C841 C842 1.362 . S
C841 C844 1.378 . S
C841 H856 0.929 . S
C842 C841 1.362 . S
C842 C843 1.366 . S
C843 C840 1.365 . S
C843 C842 1.366 . S
C843 H857 0.930 . S
C844 C841 1.378 . S
C844 N845 1.315 . S
C844 H847 0.930 . S
N845 Co825 2.194 . S
N845 C840 1.328 . S
N845 C844 1.315 . S
H846 C840 0.929 . S
H847 C844 0.930 . S
H848 C836 0.929 . S
H849 C838 0.929 . S
O850 Co825 2.351 . S
O850 C853 1.244 . S
O851 Co825 2.155 . S
O851 C853 1.240 . S
O852 Co825 2.096 . S
O852 C833 1.247 . S
C853 O850 1.244 . S
C853 O851 1.240 . S
H854 C828 0.931 . S
H855 C837 0.931 . S
H856 C841 0.929 . S
H857 C843 0.930 . S
Co858 N862 2.148 . S
Co858 N868 2.128 . S
Co858 N878 2.194 . S
Co858 O883 2.351 . S
Co858 O884 2.155 . S
Co858 O885 2.096 . S
C859 N862 1.301 . S
C859 N863 1.328 . S
C859 H864 0.930 . S
C860 C861 1.333 . S
C860 N862 1.317 . S
C860 H865 0.930 . S
C861 C860 1.333 . S
C861 N863 1.350 . S
C861 H887 0.931 . S
N862 Co858 2.148 . S
N862 C859 1.301 . S
N862 C860 1.317 . S
N863 C859 1.328 . S
N863 C861 1.350 . S
H864 C859 0.930 . S
H865 C860 0.930 . S
C866 O867 1.224 . S
C866 O885 1.247 . S
O867 C866 1.224 . S
N868 Co858 2.128 . S
N868 C869 1.355 . S
N868 C871 1.311 . S
C869 N868 1.355 . S
C869 C870 1.363 . S
C869 H881 0.929 . S
C870 C869 1.363 . S
C870 N872 1.375 . S
C870 H888 0.931 . S
C871 N868 1.311 . S
C871 N872 1.347 . S
C871 H882 0.929 . S
N872 C870 1.375 . S
N872 C871 1.347 . S
C873 C876 1.365 . S
C873 N878 1.328 . S
C873 H879 0.929 . S
C874 C875 1.362 . S
C874 C877 1.378 . S
C874 H889 0.929 . S
C875 C874 1.362 . S
C875 C876 1.366 . S
C876 C873 1.365 . S
C876 C875 1.366 . S
C876 H890 0.930 1_554 S
C877 C874 1.378 . S
C877 N878 1.315 . S
C877 H880 0.930 . S
N878 Co858 2.194 . S
N878 C873 1.328 . S
N878 C877 1.315 . S
H879 C873 0.929 . S
H880 C877 0.930 . S
H881 C869 0.929 . S
H882 C871 0.929 . S
O883 Co858 2.351 . S
O883 C886 1.244 . S
O884 Co858 2.155 . S
O884 C886 1.240 . S
O885 Co858 2.096 . S
O885 C866 1.247 . S
C886 O883 1.244 . S
C886 O884 1.240 . S
H887 C861 0.931 . S
H888 C870 0.931 . S
H889 C874 0.929 . S
H890 C876 0.930 1_556 S
Co891 N895 2.148 . S
Co891 N901 2.128 . S
Co891 N911 2.194 . S
Co891 O916 2.351 1_565 S
Co891 O917 2.155 1_565 S
Co891 O918 2.096 . S
C892 N895 1.301 . S
C892 N896 1.328 . S
C892 H897 0.930 . S
C893 C894 1.333 . S
C893 N895 1.317 . S
C893 H898 0.930 . S
C894 C893 1.333 . S
C894 N896 1.350 . S
C894 H920 0.931 . S
N895 Co891 2.148 . S
N895 C892 1.301 . S
N895 C893 1.317 . S
N896 C892 1.328 . S
N896 C894 1.350 . S
H897 C892 0.930 . S
H898 C893 0.930 . S
C899 O900 1.224 . S
C899 O918 1.247 . S
O900 C899 1.224 . S
N901 Co891 2.128 . S
N901 C902 1.355 . S
N901 C904 1.311 . S
C902 N901 1.355 . S
C902 C903 1.363 . S
C902 H914 0.929 . S
C903 C902 1.363 . S
C903 N905 1.375 . S
C903 H921 0.931 . S
C904 N901 1.311 . S
C904 N905 1.347 . S
C904 H915 0.929 . S
N905 C903 1.375 . S
N905 C904 1.347 . S
C906 C909 1.365 . S
C906 N911 1.328 . S
C906 H912 0.929 . S
C907 C908 1.362 . S
C907 C910 1.378 . S
C907 H922 0.929 . S
C908 C907 1.362 . S
C908 C909 1.366 . S
C909 C906 1.365 . S
C909 C908 1.366 . S
C909 H923 0.930 1_554 S
C910 C907 1.378 . S
C910 N911 1.315 . S
C910 H913 0.930 . S
N911 Co891 2.194 . S
N911 C906 1.328 . S
N911 C910 1.315 . S
H912 C906 0.929 . S
H913 C910 0.930 . S
H914 C902 0.929 . S
H915 C904 0.929 . S
O916 Co891 2.351 1_545 S
O916 C919 1.244 . S
O917 Co891 2.155 1_545 S
O917 C919 1.240 . S
O918 Co891 2.096 . S
O918 C899 1.247 . S
C919 O916 1.244 . S
C919 O917 1.240 . S
H920 C894 0.931 . S
H921 C903 0.931 . S
H922 C907 0.929 . S
H923 C909 0.930 1_556 S
Co924 N928 2.148 . S
Co924 N934 2.128 . S
Co924 N944 2.194 . S
Co924 O949 2.351 1_545 S
Co924 O950 2.155 1_545 S
Co924 O951 2.096 . S
C925 N928 1.301 . S
C925 N929 1.328 . S
C925 H930 0.930 . S
C926 C927 1.333 . S
C926 N928 1.317 . S
C926 H931 0.930 . S
C927 C926 1.333 . S
C927 N929 1.350 . S
C927 H953 0.931 . S
N928 Co924 2.148 . S
N928 C925 1.301 . S
N928 C926 1.317 . S
N929 C925 1.328 . S
N929 C927 1.350 . S
H930 C925 0.930 . S
H931 C926 0.930 . S
C932 O933 1.224 . S
C932 O951 1.247 . S
O933 C932 1.224 . S
N934 Co924 2.128 . S
N934 C935 1.355 . S
N934 C937 1.311 . S
C935 N934 1.355 . S
C935 C936 1.363 . S
C935 H947 0.929 . S
C936 C935 1.363 . S
C936 N938 1.375 . S
C936 H954 0.931 . S
C937 N934 1.311 . S
C937 N938 1.347 . S
C937 H948 0.929 . S
N938 C936 1.375 . S
N938 C937 1.347 . S
C939 C942 1.365 . S
C939 N944 1.328 . S
C939 H945 0.929 . S
C940 C941 1.362 . S
C940 C943 1.378 . S
C940 H955 0.929 . S
C941 C940 1.362 . S
C941 C942 1.366 . S
C942 C939 1.365 . S
C942 C941 1.366 . S
C942 H956 0.930 . S
C943 C940 1.378 . S
C943 N944 1.315 . S
C943 H946 0.930 . S
N944 Co924 2.194 . S
N944 C939 1.328 . S
N944 C943 1.315 . S
H945 C939 0.929 . S
H946 C943 0.930 . S
H947 C935 0.929 . S
H948 C937 0.929 . S
O949 Co924 2.351 1_565 S
O949 C952 1.244 . S
O950 Co924 2.155 1_565 S
O950 C952 1.240 . S
O951 Co924 2.096 . S
O951 C932 1.247 . S
C952 O949 1.244 . S
C952 O950 1.240 . S
H953 C927 0.931 . S
H954 C936 0.931 . S
H955 C940 0.929 . S
H956 C942 0.930 . S
Co957 N961 2.148 . S
Co957 N967 2.128 . S
Co957 N977 2.194 . S
Co957 O982 2.351 . S
Co957 O983 2.155 . S
Co957 O984 2.096 . S
C958 N961 1.301 . S
C958 N962 1.328 . S
C958 H963 0.930 . S
C959 C960 1.333 . S
C959 N961 1.317 . S
C959 H964 0.930 . S
C960 C959 1.333 . S
C960 N962 1.350 . S
C960 H986 0.931 . S
N961 Co957 2.148 . S
N961 C958 1.301 . S
N961 C959 1.317 . S
N962 C958 1.328 . S
N962 C960 1.350 . S
H963 C958 0.930 . S
H964 C959 0.930 . S
C965 O966 1.224 . S
C965 O984 1.247 . S
O966 C965 1.224 . S
N967 Co957 2.128 . S
N967 C968 1.355 . S
N967 C970 1.311 . S
C968 N967 1.355 . S
C968 C969 1.363 . S
C968 H980 0.929 . S
C969 C968 1.363 . S
C969 N971 1.375 . S
C969 H987 0.931 . S
C970 N967 1.311 . S
C970 N971 1.347 . S
C970 H981 0.929 . S
N971 C969 1.375 . S
N971 C970 1.347 . S
C972 C975 1.365 . S
C972 N977 1.328 . S
C972 H978 0.929 . S
C973 C974 1.362 . S
C973 C976 1.378 . S
C973 H988 0.929 . S
C974 C973 1.362 . S
C974 C975 1.366 . S
C975 C972 1.365 . S
C975 C974 1.366 . S
C975 H989 0.930 . S
C976 C973 1.378 . S
C976 N977 1.315 . S
C976 H979 0.930 . S
N977 Co957 2.194 . S
N977 C972 1.328 . S
N977 C976 1.315 . S
H978 C972 0.929 . S
H979 C976 0.930 . S
H980 C968 0.929 . S
H981 C970 0.929 . S
O982 Co957 2.351 . S
O982 C985 1.244 . S
O983 Co957 2.155 . S
O983 C985 1.240 . S
O984 Co957 2.096 . S
O984 C965 1.247 . S
C985 O982 1.244 . S
C985 O983 1.240 . S
H986 C960 0.931 . S
H987 C969 0.931 . S
H988 C973 0.929 . S
H989 C975 0.930 . S
Co990 N994 2.148 . S
Co990 N1000 2.128 . S
Co990 N1010 2.194 . S
Co990 O1015 2.351 . S
Co990 O1016 2.155 . S
Co990 O1017 2.096 . S
C991 N994 1.301 . S
C991 N995 1.328 . S
C991 H996 0.930 . S
C992 C993 1.333 . S
C992 N994 1.317 . S
C992 H997 0.930 . S
C993 C992 1.333 . S
C993 N995 1.350 . S
C993 H1019 0.931 . S
N994 Co990 2.148 . S
N994 C991 1.301 . S
N994 C992 1.317 . S
N995 C991 1.328 . S
N995 C993 1.350 . S
H996 C991 0.930 . S
H997 C992 0.930 . S
C998 O999 1.224 . S
C998 O1017 1.247 . S
O999 C998 1.224 . S
N1000 Co990 2.128 . S
N1000 C1001 1.355 . S
N1000 C1003 1.311 . S
C1001 N1000 1.355 . S
C1001 C1002 1.363 . S
C1001 H1013 0.929 . S
C1002 C1001 1.363 . S
C1002 N1004 1.375 . S
C1002 H1020 0.931 . S
C1003 N1000 1.311 . S
C1003 N1004 1.347 . S
C1003 H1014 0.929 . S
N1004 C1002 1.375 . S
N1004 C1003 1.347 . S
C1005 C1008 1.365 . S
C1005 N1010 1.328 . S
C1005 H1011 0.929 . S
C1006 C1007 1.362 . S
C1006 C1009 1.378 . S
C1006 H1021 0.929 . S
C1007 C1006 1.362 . S
C1007 C1008 1.366 . S
C1008 C1005 1.365 . S
C1008 C1007 1.366 . S
C1008 H1022 0.930 1_556 S
C1009 C1006 1.378 . S
C1009 N1010 1.315 . S
C1009 H1012 0.930 . S
N1010 Co990 2.194 . S
N1010 C1005 1.328 . S
N1010 C1009 1.315 . S
H1011 C1005 0.929 . S
H1012 C1009 0.930 . S
H1013 C1001 0.929 . S
H1014 C1003 0.929 . S
O1015 Co990 2.351 . S
O1015 C1018 1.244 . S
O1016 Co990 2.155 . S
O1016 C1018 1.240 . S
O1017 Co990 2.096 . S
O1017 C998 1.247 . S
C1018 O1015 1.244 . S
C1018 O1016 1.240 . S
H1019 C993 0.931 . S
H1020 C1002 0.931 . S
H1021 C1006 0.929 . S
H1022 C1008 0.930 1_554 S
Co1023 N1027 2.148 . S
Co1023 N1033 2.128 . S
Co1023 N1043 2.194 . S
Co1023 O1048 2.351 1_545 S
Co1023 O1049 2.155 1_545 S
Co1023 O1050 2.096 . S
C1024 N1027 1.301 . S
C1024 N1028 1.328 . S
C1024 H1029 0.930 . S
C1025 C1026 1.333 . S
C1025 N1027 1.317 . S
C1025 H1030 0.930 . S
C1026 C1025 1.333 . S
C1026 N1028 1.350 . S
C1026 H1052 0.931 . S
N1027 Co1023 2.148 . S
N1027 C1024 1.301 . S
N1027 C1025 1.317 . S
N1028 C1024 1.328 . S
N1028 C1026 1.350 . S
H1029 C1024 0.930 . S
H1030 C1025 0.930 . S
C1031 O1032 1.224 . S
C1031 O1050 1.247 . S
O1032 C1031 1.224 . S
N1033 Co1023 2.128 . S
N1033 C1034 1.355 . S
N1033 C1036 1.311 . S
C1034 N1033 1.355 . S
C1034 C1035 1.363 . S
C1034 H1046 0.929 . S
C1035 C1034 1.363 . S
C1035 N1037 1.375 . S
C1035 H1053 0.931 . S
C1036 N1033 1.311 . S
C1036 N1037 1.347 . S
C1036 H1047 0.929 . S
N1037 C1035 1.375 . S
N1037 C1036 1.347 . S
C1038 C1041 1.365 . S
C1038 N1043 1.328 . S
C1038 H1044 0.929 . S
C1039 C1040 1.362 . S
C1039 C1042 1.378 . S
C1039 H1054 0.929 . S
C1040 C1039 1.362 . S
C1040 C1041 1.366 . S
C1041 C1038 1.365 . S
C1041 C1040 1.366 . S
C1041 H1055 0.930 1_556 S
C1042 C1039 1.378 . S
C1042 N1043 1.315 . S
C1042 H1045 0.930 . S
N1043 Co1023 2.194 . S
N1043 C1038 1.328 . S
N1043 C1042 1.315 . S
H1044 C1038 0.929 . S
H1045 C1042 0.930 . S
H1046 C1034 0.929 . S
H1047 C1036 0.929 . S
O1048 Co1023 2.351 1_565 S
O1048 C1051 1.244 . S
O1049 Co1023 2.155 1_565 S
O1049 C1051 1.240 . S
O1050 Co1023 2.096 . S
O1050 C1031 1.247 . S
C1051 O1048 1.244 . S
C1051 O1049 1.240 . S
H1052 C1026 0.931 . S
H1053 C1035 0.931 . S
H1054 C1039 0.929 . S
H1055 C1041 0.930 1_554 S
H1056 C1062 0.930 . S
H1057 C1066 0.930 . S
H1058 C1071 0.929 . S
H1059 C1069 0.929 . S
H1060 C1064 0.929 . S
H1061 C1070 0.929 . S
C1062 H1056 0.930 . S
C1062 C1063 1.367 . S
C1062 C1070 1.378 . S
C1063 C1062 1.367 . S
C1063 C1071 1.433 . S
C1064 H1060 0.929 . S
C1064 C1066 1.378 . S
C1064 C1068 1.350 . S
C1065 C1068 1.463 . S
C1065 C1070 1.350 . S
C1065 N1073 1.427 . S
C1066 H1057 0.930 . S
C1066 C1064 1.378 . S
C1066 C1067 1.367 . S
C1067 C1066 1.367 . S
C1067 C1069 1.433 . S
C1068 C1064 1.350 . S
C1068 C1065 1.463 . S
C1068 N1072 1.427 . S
C1069 H1059 0.929 . S
C1069 C1067 1.433 . S
C1069 N1072 1.384 . S
C1070 H1061 0.929 . S
C1070 C1062 1.378 . S
C1070 C1065 1.350 . S
C1071 H1058 0.929 . S
C1071 C1063 1.433 . S
C1071 N1073 1.384 . S
N1072 C1068 1.427 . S
N1072 C1069 1.384 . S
N1073 C1065 1.427 . S
N1073 C1071 1.384 . S
H1074 C1080 0.930 . S
H1075 C1084 0.930 . S
H1076 C1089 0.929 . S
H1077 C1087 0.929 . S
H1078 C1082 0.929 . S
H1079 C1088 0.929 . S
C1080 H1074 0.930 . S
C1080 C1081 1.367 . S
C1080 C1088 1.378 . S
C1081 C1080 1.367 . S
C1081 C1089 1.433 . S
C1082 H1078 0.929 . S
C1082 C1084 1.378 . S
C1082 C1086 1.350 . S
C1083 C1086 1.463 . S
C1083 C1088 1.350 . S
C1083 N1091 1.427 . S
C1084 H1075 0.930 . S
C1084 C1082 1.378 . S
C1084 C1085 1.367 . S
C1085 C1084 1.367 . S
C1085 C1087 1.433 . S
C1086 C1082 1.350 . S
C1086 C1083 1.463 . S
C1086 N1090 1.427 . S
C1087 H1077 0.929 . S
C1087 C1085 1.433 . S
C1087 N1090 1.384 . S
C1088 H1079 0.929 . S
C1088 C1080 1.378 . S
C1088 C1083 1.350 . S
C1089 H1076 0.929 . S
C1089 C1081 1.433 . S
C1089 N1091 1.384 . S
N1090 C1086 1.427 . S
N1090 C1087 1.384 . S
N1091 C1083 1.427 . S
N1091 C1089 1.384 . S
H1092 C1098 0.930 . S
H1093 C1102 0.930 . S
H1094 C1107 0.929 . S
H1095 C1105 0.929 . S
H1096 C1100 0.929 . S
H1097 C1106 0.929 . S
C1098 H1092 0.930 . S
C1098 C1099 1.367 . S
C1098 C1106 1.378 . S
C1099 C1098 1.367 . S
C1099 C1107 1.433 . S
C1100 H1096 0.929 . S
C1100 C1102 1.378 . S
C1100 C1104 1.350 . S
C1101 C1104 1.463 . S
C1101 C1106 1.350 . S
C1101 N1109 1.427 . S
C1102 H1093 0.930 . S
C1102 C1100 1.378 . S
C1102 C1103 1.367 . S
C1103 C1102 1.367 . S
C1103 C1105 1.433 . S
C1104 C1100 1.350 . S
C1104 C1101 1.463 . S
C1104 N1108 1.427 . S
C1105 H1095 0.929 . S
C1105 C1103 1.433 . S
C1105 N1108 1.384 . S
C1106 H1097 0.929 . S
C1106 C1098 1.378 . S
C1106 C1101 1.350 . S
C1107 H1094 0.929 . S
C1107 C1099 1.433 . S
C1107 N1109 1.384 . S
N1108 C1104 1.427 . S
N1108 C1105 1.384 . S
N1109 C1101 1.427 . S
N1109 C1107 1.384 . S
H1110 C1116 0.930 . S
H1111 C1120 0.930 . S
H1112 C1125 0.929 . S
H1113 C1123 0.929 . S
H1114 C1118 0.929 . S
H1115 C1124 0.929 . S
C1116 H1110 0.930 . S
C1116 C1117 1.367 . S
C1116 C1124 1.378 . S
C1117 C1116 1.367 . S
C1117 C1125 1.433 . S
C1118 H1114 0.929 . S
C1118 C1120 1.378 . S
C1118 C1122 1.350 . S
C1119 C1122 1.463 . S
C1119 C1124 1.350 . S
C1119 N1127 1.427 . S
C1120 H1111 0.930 . S
C1120 C1118 1.378 . S
C1120 C1121 1.367 . S
C1121 C1120 1.367 . S
C1121 C1123 1.433 . S
C1122 C1118 1.350 . S
C1122 C1119 1.463 . S
C1122 N1126 1.427 . S
C1123 H1113 0.929 . S
C1123 C1121 1.433 . S
C1123 N1126 1.384 . S
C1124 H1115 0.929 . S
C1124 C1116 1.378 . S
C1124 C1119 1.350 . S
C1125 H1112 0.929 . S
C1125 C1117 1.433 . S
C1125 N1127 1.384 . S
N1126 C1122 1.427 . S
N1126 C1123 1.384 . S
N1127 C1119 1.427 . S
N1127 C1125 1.384 . S
H1128 C1134 0.930 . S
H1129 C1138 0.930 . S
H1130 C1143 0.929 . S
H1131 C1141 0.929 . S
H1132 C1136 0.929 . S
H1133 C1142 0.929 . S
C1134 H1128 0.930 . S
C1134 C1135 1.367 . S
C1134 C1142 1.378 . S
C1135 C1134 1.367 . S
C1135 C1143 1.433 . S
C1136 H1132 0.929 . S
C1136 C1138 1.378 . S
C1136 C1140 1.350 . S
C1137 C1140 1.463 . S
C1137 C1142 1.350 . S
C1137 N1145 1.427 . S
C1138 H1129 0.930 . S
C1138 C1136 1.378 . S
C1138 C1139 1.367 . S
C1139 C1138 1.367 . S
C1139 C1141 1.433 . S
C1140 C1136 1.350 . S
C1140 C1137 1.463 . S
C1140 N1144 1.427 . S
C1141 H1131 0.929 . S
C1141 C1139 1.433 . S
C1141 N1144 1.384 . S
C1142 H1133 0.929 . S
C1142 C1134 1.378 . S
C1142 C1137 1.350 . S
C1143 H1130 0.929 . S
C1143 C1135 1.433 . S
C1143 N1145 1.384 . S
N1144 C1140 1.427 . S
N1144 C1141 1.384 . S
N1145 C1137 1.427 . S
N1145 C1143 1.384 . S
H1146 C1152 0.930 . S
H1147 C1156 0.930 . S
H1148 C1161 0.929 . S
H1149 C1159 0.929 . S
H1150 C1154 0.929 . S
H1151 C1160 0.929 . S
C1152 H1146 0.930 . S
C1152 C1153 1.367 . S
C1152 C1160 1.378 . S
C1153 C1152 1.367 . S
C1153 C1161 1.433 . S
C1154 H1150 0.929 . S
C1154 C1156 1.378 . S
C1154 C1158 1.350 . S
C1155 C1158 1.463 . S
C1155 C1160 1.350 . S
C1155 N1163 1.427 . S
C1156 H1147 0.930 . S
C1156 C1154 1.378 . S
C1156 C1157 1.367 . S
C1157 C1156 1.367 . S
C1157 C1159 1.433 . S
C1158 C1154 1.350 . S
C1158 C1155 1.463 . S
C1158 N1162 1.427 . S
C1159 H1149 0.929 . S
C1159 C1157 1.433 . S
C1159 N1162 1.384 . S
C1160 H1151 0.929 . S
C1160 C1152 1.378 . S
C1160 C1155 1.350 . S
C1161 H1148 0.929 . S
C1161 C1153 1.433 . S
C1161 N1163 1.384 . S
N1162 C1158 1.427 . S
N1162 C1159 1.384 . S
N1163 C1155 1.427 . S
N1163 C1161 1.384 . S
H1164 C1170 0.930 . S
H1165 C1174 0.930 . S
H1166 C1179 0.929 . S
H1167 C1177 0.929 . S
H1168 C1172 0.929 . S
H1169 C1178 0.929 . S
C1170 H1164 0.930 . S
C1170 C1171 1.367 . S
C1170 C1178 1.378 . S
C1171 C1170 1.367 . S
C1171 C1179 1.433 . S
C1172 H1168 0.929 . S
C1172 C1174 1.378 . S
C1172 C1176 1.350 . S
C1173 C1176 1.463 . S
C1173 C1178 1.350 . S
C1173 N1181 1.427 . S
C1174 H1165 0.930 . S
C1174 C1172 1.378 . S
C1174 C1175 1.367 . S
C1175 C1174 1.367 . S
C1175 C1177 1.433 . S
C1176 C1172 1.350 . S
C1176 C1173 1.463 . S
C1176 N1180 1.427 . S
C1177 H1167 0.929 . S
C1177 C1175 1.433 . S
C1177 N1180 1.384 . S
C1178 H1169 0.929 . S
C1178 C1170 1.378 . S
C1178 C1173 1.350 . S
C1179 H1166 0.929 . S
C1179 C1171 1.433 . S
C1179 N1181 1.384 . S
N1180 C1176 1.427 . S
N1180 C1177 1.384 . S
N1181 C1173 1.427 . S
N1181 C1179 1.384 . S
H1182 C1188 0.930 . S
H1183 C1192 0.930 . S
H1184 C1197 0.929 . S
H1185 C1195 0.929 . S
H1186 C1190 0.929 . S
H1187 C1196 0.929 . S
C1188 H1182 0.930 . S
C1188 C1189 1.367 . S
C1188 C1196 1.378 . S
C1189 C1188 1.367 . S
C1189 C1197 1.433 . S
C1190 H1186 0.929 . S
C1190 C1192 1.378 . S
C1190 C1194 1.350 . S
C1191 C1194 1.463 . S
C1191 C1196 1.350 . S
C1191 N1199 1.427 . S
C1192 H1183 0.930 . S
C1192 C1190 1.378 . S
C1192 C1193 1.367 . S
C1193 C1192 1.367 . S
C1193 C1195 1.433 . S
C1194 C1190 1.350 . S
C1194 C1191 1.463 . S
C1194 N1198 1.427 . S
C1195 H1185 0.929 . S
C1195 C1193 1.433 . S
C1195 N1198 1.384 . S
C1196 H1187 0.929 . S
C1196 C1188 1.378 . S
C1196 C1191 1.350 . S
C1197 H1184 0.929 . S
C1197 C1189 1.433 . S
C1197 N1199 1.384 . S
N1198 C1194 1.427 . S
N1198 C1195 1.384 . S
N1199 C1191 1.427 . S
N1199 C1197 1.384 . S
H1200 C1206 0.930 . S
H1201 C1210 0.930 . S
H1202 C1215 0.929 . S
H1203 C1213 0.929 . S
H1204 C1208 0.929 . S
H1205 C1214 0.929 . S
C1206 H1200 0.930 . S
C1206 C1207 1.367 . S
C1206 C1214 1.378 . S
C1207 C1206 1.367 . S
C1207 C1215 1.433 . S
C1208 H1204 0.929 . S
C1208 C1210 1.378 . S
C1208 C1212 1.350 . S
C1209 C1212 1.463 . S
C1209 C1214 1.350 . S
C1209 N1217 1.427 . S
C1210 H1201 0.930 . S
C1210 C1208 1.378 . S
C1210 C1211 1.367 . S
C1211 C1210 1.367 . S
C1211 C1213 1.433 . S
C1212 C1208 1.350 . S
C1212 C1209 1.463 . S
C1212 N1216 1.427 . S
C1213 H1203 0.929 . S
C1213 C1211 1.433 . S
C1213 N1216 1.384 . S
C1214 H1205 0.929 . S
C1214 C1206 1.378 . S
C1214 C1209 1.350 . S
C1215 H1202 0.929 . S
C1215 C1207 1.433 . S
C1215 N1217 1.384 . S
N1216 C1212 1.427 . S
N1216 C1213 1.384 . S
N1217 C1209 1.427 . S
N1217 C1215 1.384 . S
H1218 C1224 0.930 . S
H1219 C1228 0.930 . S
H1220 C1233 0.929 . S
H1221 C1231 0.929 . S
H1222 C1226 0.929 . S
H1223 C1232 0.929 . S
C1224 H1218 0.930 . S
C1224 C1225 1.367 . S
C1224 C1232 1.378 . S
C1225 C1224 1.367 . S
C1225 C1233 1.433 . S
C1226 H1222 0.929 . S
C1226 C1228 1.378 . S
C1226 C1230 1.350 . S
C1227 C1230 1.463 . S
C1227 C1232 1.350 . S
C1227 N1235 1.427 . S
C1228 H1219 0.930 . S
C1228 C1226 1.378 . S
C1228 C1229 1.367 . S
C1229 C1228 1.367 . S
C1229 C1231 1.433 . S
C1230 C1226 1.350 . S
C1230 C1227 1.463 . S
C1230 N1234 1.427 . S
C1231 H1221 0.929 . S
C1231 C1229 1.433 . S
C1231 N1234 1.384 . S
C1232 H1223 0.929 . S
C1232 C1224 1.378 . S
C1232 C1227 1.350 . S
C1233 H1220 0.929 . S
C1233 C1225 1.433 . S
C1233 N1235 1.384 . S
N1234 C1230 1.427 . S
N1234 C1231 1.384 . S
N1235 C1227 1.427 . S
N1235 C1233 1.384 . S
H1236 C1242 0.930 . S
H1237 C1246 0.930 . S
H1238 C1251 0.929 . S
H1239 C1249 0.929 . S
H1240 C1244 0.929 . S
H1241 C1250 0.929 . S
C1242 H1236 0.930 . S
C1242 C1243 1.367 . S
C1242 C1250 1.378 . S
C1243 C1242 1.367 . S
C1243 C1251 1.433 . S
C1244 H1240 0.929 . S
C1244 C1246 1.378 . S
C1244 C1248 1.350 . S
C1245 C1248 1.463 . S
C1245 C1250 1.350 . S
C1245 N1253 1.427 . S
C1246 H1237 0.930 . S
C1246 C1244 1.378 . S
C1246 C1247 1.367 . S
C1247 C1246 1.367 . S
C1247 C1249 1.433 . S
C1248 C1244 1.350 . S
C1248 C1245 1.463 . S
C1248 N1252 1.427 . S
C1249 H1239 0.929 . S
C1249 C1247 1.433 . S
C1249 N1252 1.384 . S
C1250 H1241 0.929 . S
C1250 C1242 1.378 . S
C1250 C1245 1.350 . S
C1251 H1238 0.929 . S
C1251 C1243 1.433 . S
C1251 N1253 1.384 . S
N1252 C1248 1.427 . S
N1252 C1249 1.384 . S
N1253 C1245 1.427 . S
N1253 C1251 1.384 . S
H1254 C1260 0.930 . S
H1255 C1264 0.930 . S
H1256 C1269 0.929 . S
H1257 C1267 0.929 . S
H1258 C1262 0.929 . S
H1259 C1268 0.929 . S
C1260 H1254 0.930 . S
C1260 C1261 1.367 . S
C1260 C1268 1.378 . S
C1261 C1260 1.367 . S
C1261 C1269 1.433 . S
C1262 H1258 0.929 . S
C1262 C1264 1.378 . S
C1262 C1266 1.350 . S
C1263 C1266 1.463 . S
C1263 C1268 1.350 . S
C1263 N1271 1.427 . S
C1264 H1255 0.930 . S
C1264 C1262 1.378 . S
C1264 C1265 1.367 . S
C1265 C1264 1.367 . S
C1265 C1267 1.433 . S
C1266 C1262 1.350 . S
C1266 C1263 1.463 . S
C1266 N1270 1.427 . S
C1267 H1257 0.929 . S
C1267 C1265 1.433 . S
C1267 N1270 1.384 . S
C1268 H1259 0.929 . S
C1268 C1260 1.378 . S
C1268 C1263 1.350 . S
C1269 H1256 0.929 . S
C1269 C1261 1.433 . S
C1269 N1271 1.384 . S
N1270 C1266 1.427 . S
N1270 C1267 1.384 . S
N1271 C1263 1.427 . S
N1271 C1269 1.384 . S
H1272 C1278 0.930 . S
H1273 C1282 0.930 . S
H1274 C1287 0.929 . S
H1275 C1285 0.929 . S
H1276 C1280 0.929 . S
H1277 C1286 0.929 . S
C1278 H1272 0.930 . S
C1278 C1279 1.367 . S
C1278 C1286 1.378 . S
C1279 C1278 1.367 . S
C1279 C1287 1.433 . S
C1280 H1276 0.929 . S
C1280 C1282 1.378 . S
C1280 C1284 1.350 . S
C1281 C1284 1.463 . S
C1281 C1286 1.350 . S
C1281 N1289 1.427 . S
C1282 H1273 0.930 . S
C1282 C1280 1.378 . S
C1282 C1283 1.367 . S
C1283 C1282 1.367 . S
C1283 C1285 1.433 . S
C1284 C1280 1.350 . S
C1284 C1281 1.463 . S
C1284 N1288 1.427 . S
C1285 H1275 0.929 . S
C1285 C1283 1.433 . S
C1285 N1288 1.384 . S
C1286 H1277 0.929 . S
C1286 C1278 1.378 . S
C1286 C1281 1.350 . S
C1287 H1274 0.929 . S
C1287 C1279 1.433 . S
C1287 N1289 1.384 . S
N1288 C1284 1.427 . S
N1288 C1285 1.384 . S
N1289 C1281 1.427 . S
N1289 C1287 1.384 . S
H1290 C1296 0.930 . S
H1291 C1300 0.930 . S
H1292 C1305 0.929 . S
H1293 C1303 0.929 . S
H1294 C1298 0.929 . S
H1295 C1304 0.929 . S
C1296 H1290 0.930 . S
C1296 C1297 1.367 . S
C1296 C1304 1.378 . S
C1297 C1296 1.367 . S
C1297 C1305 1.433 . S
C1298 H1294 0.929 . S
C1298 C1300 1.378 . S
C1298 C1302 1.350 . S
C1299 C1302 1.463 . S
C1299 C1304 1.350 . S
C1299 N1307 1.427 . S
C1300 H1291 0.930 . S
C1300 C1298 1.378 . S
C1300 C1301 1.367 . S
C1301 C1300 1.367 . S
C1301 C1303 1.433 . S
C1302 C1298 1.350 . S
C1302 C1299 1.463 . S
C1302 N1306 1.427 . S
C1303 H1293 0.929 . S
C1303 C1301 1.433 . S
C1303 N1306 1.384 . S
C1304 H1295 0.929 . S
C1304 C1296 1.378 . S
C1304 C1299 1.350 . S
C1305 H1292 0.929 . S
C1305 C1297 1.433 . S
C1305 N1307 1.384 . S
N1306 C1302 1.427 . S
N1306 C1303 1.384 . S
N1307 C1299 1.427 . S
N1307 C1305 1.384 . S
H1308 C1314 0.930 . S
H1309 C1318 0.930 . S
H1310 C1323 0.929 . S
H1311 C1321 0.929 . S
H1312 C1316 0.929 . S
H1313 C1322 0.929 . S
C1314 H1308 0.930 . S
C1314 C1315 1.367 . S
C1314 C1322 1.378 . S
C1315 C1314 1.367 . S
C1315 C1323 1.433 . S
C1316 H1312 0.929 . S
C1316 C1318 1.378 . S
C1316 C1320 1.350 . S
C1317 C1320 1.463 . S
C1317 C1322 1.350 . S
C1317 N1325 1.427 . S
C1318 H1309 0.930 . S
C1318 C1316 1.378 . S
C1318 C1319 1.367 . S
C1319 C1318 1.367 . S
C1319 C1321 1.433 . S
C1320 C1316 1.350 . S
C1320 C1317 1.463 . S
C1320 N1324 1.427 . S
C1321 H1311 0.929 . S
C1321 C1319 1.433 . S
C1321 N1324 1.384 . S
C1322 H1313 0.929 . S
C1322 C1314 1.378 . S
C1322 C1317 1.350 . S
C1323 H1310 0.929 . S
C1323 C1315 1.433 . S
C1323 N1325 1.384 . S
N1324 C1320 1.427 . S
N1324 C1321 1.384 . S
N1325 C1317 1.427 . S
N1325 C1323 1.384 . S
H1326 C1332 0.930 . S
H1327 C1336 0.930 . S
H1328 C1341 0.929 . S
H1329 C1339 0.929 . S
H1330 C1334 0.929 . S
H1331 C1340 0.929 . S
C1332 H1326 0.930 . S
C1332 C1333 1.367 . S
C1332 C1340 1.378 . S
C1333 C1332 1.367 . S
C1333 C1341 1.433 . S
C1334 H1330 0.929 . S
C1334 C1336 1.378 . S
C1334 C1338 1.350 . S
C1335 C1338 1.463 . S
C1335 C1340 1.350 . S
C1335 N1343 1.427 . S
C1336 H1327 0.930 . S
C1336 C1334 1.378 . S
C1336 C1337 1.367 . S
C1337 C1336 1.367 . S
C1337 C1339 1.433 . S
C1338 C1334 1.350 . S
C1338 C1335 1.463 . S
C1338 N1342 1.427 . S
C1339 H1329 0.929 . S
C1339 C1337 1.433 . S
C1339 N1342 1.384 . S
C1340 H1331 0.929 . S
C1340 C1332 1.378 . S
C1340 C1335 1.350 . S
C1341 H1328 0.929 . S
C1341 C1333 1.433 . S
C1341 N1343 1.384 . S
N1342 C1338 1.427 . S
N1342 C1339 1.384 . S
N1343 C1335 1.427 . S
N1343 C1341 1.384 . S
H1344 C1350 0.930 . S
H1345 C1354 0.930 . S
H1346 C1359 0.929 . S
H1347 C1357 0.929 . S
H1348 C1352 0.931 . S
H1349 C1358 0.931 . S
C1350 H1344 0.930 . S
C1350 C1351 1.367 . S
C1350 C1358 1.378 . S
C1351 C1350 1.367 . S
C1351 C1359 1.433 . S
C1352 H1348 0.931 . S
C1352 C1354 1.378 . S
C1352 C1356 1.350 . S
C1353 C1356 1.463 1_454 S
C1353 C1358 1.350 . S
C1353 N1361 1.427 . S
C1354 H1345 0.930 . S
C1354 C1352 1.378 . S
C1354 C1355 1.367 . S
C1355 C1354 1.367 . S
C1355 C1357 1.433 . S
C1356 C1352 1.350 . S
C1356 C1353 1.463 1_656 S
C1356 N1360 1.427 . S
C1357 H1347 0.929 . S
C1357 C1355 1.433 . S
C1357 N1360 1.384 . S
C1358 H1349 0.931 . S
C1358 C1350 1.378 . S
C1358 C1353 1.350 . S
C1359 H1346 0.929 . S
C1359 C1351 1.433 . S
C1359 N1361 1.384 . S
N1360 C1356 1.427 . S
N1360 C1357 1.384 . S
N1361 C1353 1.427 . S
N1361 C1359 1.384 . S
H1362 C1368 0.930 . S
H1363 C1372 0.930 . S
H1364 C1377 0.929 . S
H1365 C1375 0.929 . S
H1366 C1370 0.929 . S
H1367 C1376 0.929 . S
C1368 H1362 0.930 . S
C1368 C1369 1.367 . S
C1368 C1376 1.378 . S
C1369 C1368 1.367 . S
C1369 C1377 1.433 . S
C1370 H1366 0.929 . S
C1370 C1372 1.378 . S
C1370 C1374 1.350 . S
C1371 C1374 1.463 1_554 S
C1371 C1376 1.350 . S
C1371 N1379 1.427 1_554 S
C1372 H1363 0.930 . S
C1372 C1370 1.378 . S
C1372 C1373 1.367 . S
C1373 C1372 1.367 . S
C1373 C1375 1.433 . S
C1374 C1370 1.350 . S
C1374 C1371 1.463 1_556 S
C1374 N1378 1.427 1_556 S
C1375 H1365 0.929 . S
C1375 C1373 1.433 . S
C1375 N1378 1.384 1_556 S
C1376 H1367 0.929 . S
C1376 C1368 1.378 . S
C1376 C1371 1.350 . S
C1377 H1364 0.929 . S
C1377 C1369 1.433 . S
C1377 N1379 1.384 1_554 S
N1378 C1374 1.427 1_554 S
N1378 C1375 1.384 1_554 S
N1379 C1371 1.427 1_556 S
N1379 C1377 1.384 1_556 S
H1380 C1386 0.930 . S
H1381 C1390 0.930 . S
H1382 C1395 0.929 . S
H1383 C1393 0.929 . S
H1384 C1388 0.929 . S
H1385 C1394 0.929 . S
C1386 H1380 0.930 . S
C1386 C1387 1.367 . S
C1386 C1394 1.378 . S
C1387 C1386 1.367 . S
C1387 C1395 1.433 . S
C1388 H1384 0.929 . S
C1388 C1390 1.378 . S
C1388 C1392 1.350 . S
C1389 C1392 1.463 1_655 S
C1389 C1394 1.350 . S
C1389 N1397 1.427 . S
C1390 H1381 0.930 . S
C1390 C1388 1.378 . S
C1390 C1391 1.367 . S
C1391 C1390 1.367 . S
C1391 C1393 1.433 . S
C1392 C1388 1.350 . S
C1392 C1389 1.463 1_455 S
C1392 N1396 1.427 . S
C1393 H1383 0.929 . S
C1393 C1391 1.433 . S
C1393 N1396 1.384 . S
C1394 H1385 0.929 . S
C1394 C1386 1.378 . S
C1394 C1389 1.350 . S
C1395 H1382 0.929 . S
C1395 C1387 1.433 . S
C1395 N1397 1.384 . S
N1396 C1392 1.427 . S
N1396 C1393 1.384 . S
N1397 C1389 1.427 . S
N1397 C1395 1.384 . S
H1398 C1404 0.930 . S
H1399 C1408 0.930 . S
H1400 C1413 0.929 . S
H1401 C1411 0.929 . S
H1402 C1406 0.929 . S
H1403 C1412 0.929 . S
C1404 H1398 0.930 . S
C1404 C1405 1.367 . S
C1404 C1412 1.378 . S
C1405 C1404 1.367 . S
C1405 C1413 1.433 . S
C1406 H1402 0.929 . S
C1406 C1408 1.378 . S
C1406 C1410 1.350 . S
C1407 C1410 1.463 . S
C1407 C1412 1.350 . S
C1407 N1415 1.427 . S
C1408 H1399 0.930 . S
C1408 C1406 1.378 . S
C1408 C1409 1.367 . S
C1409 C1408 1.367 . S
C1409 C1411 1.433 . S
C1410 C1406 1.350 . S
C1410 C1407 1.463 . S
C1410 N1414 1.427 . S
C1411 H1401 0.929 . S
C1411 C1409 1.433 . S
C1411 N1414 1.384 . S
C1412 H1403 0.929 . S
C1412 C1404 1.378 . S
C1412 C1407 1.350 . S
C1413 H1400 0.929 . S
C1413 C1405 1.433 . S
C1413 N1415 1.384 . S
N1414 C1410 1.427 . S
N1414 C1411 1.384 . S
N1415 C1407 1.427 . S
N1415 C1413 1.384 . S
H1416 C1422 0.930 . S
H1417 C1426 0.930 . S
H1418 C1431 0.929 . S
H1419 C1429 0.929 . S
H1420 C1424 0.929 . S
H1421 C1430 0.929 . S
C1422 H1416 0.930 . S
C1422 C1423 1.367 . S
C1422 C1430 1.378 . S
C1423 C1422 1.367 . S
C1423 C1431 1.433 1_556 S
C1424 H1420 0.929 . S
C1424 C1426 1.378 . S
C1424 C1428 1.350 . S
C1425 C1428 1.463 1_556 S
C1425 C1430 1.350 . S
C1425 N1433 1.427 1_556 S
C1426 H1417 0.930 . S
C1426 C1424 1.378 . S
C1426 C1427 1.367 . S
C1427 C1426 1.367 . S
C1427 C1429 1.433 1_554 S
C1428 C1424 1.350 . S
C1428 C1425 1.463 1_554 S
C1428 N1432 1.427 1_554 S
C1429 H1419 0.929 . S
C1429 C1427 1.433 1_556 S
C1429 N1432 1.384 . S
C1430 H1421 0.929 . S
C1430 C1422 1.378 . S
C1430 C1425 1.350 . S
C1431 H1418 0.929 . S
C1431 C1423 1.433 1_554 S
C1431 N1433 1.384 . S
N1432 C1428 1.427 1_556 S
N1432 C1429 1.384 . S
N1433 C1425 1.427 1_554 S
N1433 C1431 1.384 . S
H1434 C1440 0.930 . S
H1435 C1444 0.930 . S
H1436 C1449 0.929 . S
H1437 C1447 0.929 . S
H1438 C1442 0.929 . S
H1439 C1448 0.929 . S
C1440 H1434 0.930 . S
C1440 C1441 1.367 . S
C1440 C1448 1.378 . S
C1441 C1440 1.367 . S
C1441 C1449 1.433 . S
C1442 H1438 0.929 . S
C1442 C1444 1.378 . S
C1442 C1446 1.350 . S
C1443 C1446 1.463 1_455 S
C1443 C1448 1.350 . S
C1443 N1451 1.427 . S
C1444 H1435 0.930 . S
C1444 C1442 1.378 . S
C1444 C1445 1.367 . S
C1445 C1444 1.367 . S
C1445 C1447 1.433 . S
C1446 C1442 1.350 . S
C1446 C1443 1.463 1_655 S
C1446 N1450 1.427 . S
C1447 H1437 0.929 . S
C1447 C1445 1.433 . S
C1447 N1450 1.384 . S
C1448 H1439 0.929 . S
C1448 C1440 1.378 . S
C1448 C1443 1.350 . S
C1449 H1436 0.929 . S
C1449 C1441 1.433 . S
C1449 N1451 1.384 . S
N1450 C1446 1.427 . S
N1450 C1447 1.384 . S
N1451 C1443 1.427 . S
N1451 C1449 1.384 . S
H1452 C1458 0.930 . S
H1453 C1462 0.930 . S
H1454 C1467 0.929 . S
H1455 C1465 0.929 . S
H1456 C1460 0.929 . S
H1457 C1466 0.929 . S
C1458 H1452 0.930 . S
C1458 C1459 1.367 . S
C1458 C1466 1.378 . S
C1459 C1458 1.367 . S
C1459 C1467 1.433 . S
C1460 H1456 0.929 . S
C1460 C1462 1.378 . S
C1460 C1464 1.350 . S
C1461 C1464 1.463 . S
C1461 C1466 1.350 . S
C1461 N1469 1.427 . S
C1462 H1453 0.930 . S
C1462 C1460 1.378 . S
C1462 C1463 1.367 . S
C1463 C1462 1.367 . S
C1463 C1465 1.433 . S
C1464 C1460 1.350 . S
C1464 C1461 1.463 . S
C1464 N1468 1.427 . S
C1465 H1455 0.929 . S
C1465 C1463 1.433 . S
C1465 N1468 1.384 . S
C1466 H1457 0.929 . S
C1466 C1458 1.378 . S
C1466 C1461 1.350 . S
C1467 H1454 0.929 . S
C1467 C1459 1.433 . S
C1467 N1469 1.384 . S
N1468 C1464 1.427 . S
N1468 C1465 1.384 . S
N1469 C1461 1.427 . S
N1469 C1467 1.384 . S
H1470 C1476 0.930 . S
H1471 C1480 0.930 . S
H1472 C1485 0.929 . S
H1473 C1483 0.929 . S
H1474 C1478 0.929 . S
H1475 C1484 0.929 . S
C1476 H1470 0.930 . S
C1476 C1477 1.367 . S
C1476 C1484 1.378 . S
C1477 C1476 1.367 . S
C1477 C1485 1.433 . S
C1478 H1474 0.929 . S
C1478 C1480 1.378 . S
C1478 C1482 1.350 . S
C1479 C1482 1.463 1_465 S
C1479 C1484 1.350 . S
C1479 N1487 1.431 . S
C1480 H1471 0.930 . S
C1480 C1478 1.378 . S
C1480 C1481 1.367 . S
C1481 C1480 1.367 . S
C1481 C1483 1.433 . S
C1482 C1478 1.350 . S
C1482 C1479 1.463 1_645 S
C1482 N1486 1.431 . S
C1483 H1473 0.929 . S
C1483 C1481 1.433 . S
C1483 N1486 1.390 . S
C1484 H1475 0.929 . S
C1484 C1476 1.378 . S
C1484 C1479 1.350 . S
C1485 H1472 0.929 . S
C1485 C1477 1.433 . S
C1485 N1487 1.390 . S
N1486 C1482 1.431 . S
N1486 C1483 1.390 . S
N1487 C1479 1.431 . S
N1487 C1485 1.390 . S
H1488 C1494 0.930 . S
H1489 C1498 0.930 . S
H1490 C1503 0.929 . S
H1491 C1501 0.929 . S
H1492 C1496 0.929 . S
H1493 C1502 0.929 . S
C1494 H1488 0.930 . S
C1494 C1495 1.367 . S
C1494 C1502 1.378 . S
C1495 C1494 1.367 . S
C1495 C1503 1.433 . S
C1496 H1492 0.929 . S
C1496 C1498 1.378 . S
C1496 C1500 1.350 . S
C1497 C1500 1.463 . S
C1497 C1502 1.350 . S
C1497 N1505 1.427 . S
C1498 H1489 0.930 . S
C1498 C1496 1.378 . S
C1498 C1499 1.367 . S
C1499 C1498 1.367 . S
C1499 C1501 1.433 . S
C1500 C1496 1.350 . S
C1500 C1497 1.463 . S
C1500 N1504 1.427 . S
C1501 H1491 0.929 . S
C1501 C1499 1.433 . S
C1501 N1504 1.384 . S
C1502 H1493 0.929 . S
C1502 C1494 1.378 . S
C1502 C1497 1.350 . S
C1503 H1490 0.929 . S
C1503 C1495 1.433 . S
C1503 N1505 1.384 . S
N1504 C1500 1.427 . S
N1504 C1501 1.384 . S
N1505 C1497 1.427 . S
N1505 C1503 1.384 . S
H1506 C1512 0.930 . S
H1507 C1516 0.930 . S
H1508 C1521 0.929 . S
H1509 C1519 0.929 . S
H1510 C1514 0.929 . S
H1511 C1520 0.929 . S
C1512 H1506 0.930 . S
C1512 C1513 1.367 . S
C1512 C1520 1.378 . S
C1513 C1512 1.367 . S
C1513 C1521 1.433 . S
C1514 H1510 0.929 . S
C1514 C1516 1.378 . S
C1514 C1518 1.350 . S
C1515 C1518 1.463 1_545 S
C1515 C1520 1.350 . S
C1515 N1523 1.427 . S
C1516 H1507 0.930 . S
C1516 C1514 1.378 . S
C1516 C1517 1.367 . S
C1517 C1516 1.367 . S
C1517 C1519 1.433 . S
C1518 C1514 1.350 . S
C1518 C1515 1.463 1_565 S
C1518 N1522 1.427 . S
C1519 H1509 0.929 . S
C1519 C1517 1.433 . S
C1519 N1522 1.384 . S
C1520 H1511 0.929 . S
C1520 C1512 1.378 . S
C1520 C1515 1.350 . S
C1521 H1508 0.929 . S
C1521 C1513 1.433 . S
C1521 N1523 1.384 . S
N1522 C1518 1.427 . S
N1522 C1519 1.384 . S
N1523 C1515 1.427 . S
N1523 C1521 1.384 . S
H1524 C1530 0.930 . S
H1525 C1534 0.930 . S
H1526 C1539 0.929 . S
H1527 C1537 0.929 . S
H1528 C1532 0.929 . S
H1529 C1538 0.929 . S
C1530 H1524 0.930 . S
C1530 C1531 1.367 . S
C1530 C1538 1.378 . S
C1531 C1530 1.367 . S
C1531 C1539 1.433 . S
C1532 H1528 0.929 . S
C1532 C1534 1.378 . S
C1532 C1536 1.350 . S
C1533 C1536 1.463 . S
C1533 C1538 1.350 . S
C1533 N1541 1.427 . S
C1534 H1525 0.930 . S
C1534 C1532 1.378 . S
C1534 C1535 1.367 . S
C1535 C1534 1.367 . S
C1535 C1537 1.433 . S
C1536 C1532 1.350 . S
C1536 C1533 1.463 . S
C1536 N1540 1.427 . S
C1537 H1527 0.929 . S
C1537 C1535 1.433 . S
C1537 N1540 1.384 . S
C1538 H1529 0.929 . S
C1538 C1530 1.378 . S
C1538 C1533 1.350 . S
C1539 H1526 0.929 . S
C1539 C1531 1.433 . S
C1539 N1541 1.384 . S
N1540 C1536 1.427 . S
N1540 C1537 1.384 . S
N1541 C1533 1.427 . S
N1541 C1539 1.384 . S
H1542 C1548 0.930 . S
H1543 C1552 0.930 . S
H1544 C1557 0.929 . S
H1545 C1555 0.929 . S
H1546 C1550 0.929 . S
H1547 C1556 0.929 . S
C1548 H1542 0.930 . S
C1548 C1549 1.367 . S
C1548 C1556 1.378 . S
C1549 C1548 1.367 . S
C1549 C1557 1.433 1_545 S
C1550 H1546 0.929 . S
C1550 C1552 1.378 . S
C1550 C1554 1.350 . S
C1551 C1554 1.463 1_545 S
C1551 C1556 1.350 . S
C1551 N1559 1.427 1_545 S
C1552 H1543 0.930 . S
C1552 C1550 1.378 . S
C1552 C1553 1.367 . S
C1553 C1552 1.367 . S
C1553 C1555 1.433 1_565 S
C1554 C1550 1.350 . S
C1554 C1551 1.463 1_565 S
C1554 N1558 1.427 1_565 S
C1555 H1545 0.929 . S
C1555 C1553 1.433 1_545 S
C1555 N1558 1.384 . S
C1556 H1547 0.929 . S
C1556 C1548 1.378 . S
C1556 C1551 1.350 . S
C1557 H1544 0.929 . S
C1557 C1549 1.433 1_565 S
C1557 N1559 1.384 . S
N1558 C1554 1.427 1_545 S
N1558 C1555 1.384 . S
N1559 C1551 1.427 1_565 S
N1559 C1557 1.384 . S
H1560 C1566 0.930 . S
H1561 C1570 0.930 . S
H1562 C1575 0.929 . S
H1563 C1573 0.929 . S
H1564 C1568 0.929 . S
H1565 C1574 0.929 . S
C1566 H1560 0.930 . S
C1566 C1567 1.367 . S
C1566 C1574 1.378 . S
C1567 C1566 1.367 . S
C1567 C1575 1.433 . S
C1568 H1564 0.929 . S
C1568 C1570 1.378 . S
C1568 C1572 1.350 . S
C1569 C1572 1.463 . S
C1569 C1574 1.350 . S
C1569 N1577 1.427 . S
C1570 H1561 0.930 . S
C1570 C1568 1.378 . S
C1570 C1571 1.367 . S
C1571 C1570 1.367 . S
C1571 C1573 1.433 . S
C1572 C1568 1.350 . S
C1572 C1569 1.463 . S
C1572 N1576 1.427 . S
C1573 H1563 0.929 . S
C1573 C1571 1.433 . S
C1573 N1576 1.384 . S
C1574 H1565 0.929 . S
C1574 C1566 1.378 . S
C1574 C1569 1.350 . S
C1575 H1562 0.929 . S
C1575 C1567 1.433 . S
C1575 N1577 1.384 . S
N1576 C1572 1.427 . S
N1576 C1573 1.384 . S
N1577 C1569 1.427 . S
N1577 C1575 1.384 . S
H1578 C1584 0.930 . S
H1579 C1588 0.930 . S
H1580 C1593 0.929 . S
H1581 C1591 0.929 . S
H1582 C1586 0.929 . S
H1583 C1592 0.929 . S
C1584 H1578 0.930 . S
C1584 C1585 1.367 . S
C1584 C1592 1.378 . S
C1585 C1584 1.367 . S
C1585 C1593 1.433 . S
C1586 H1582 0.929 . S
C1586 C1588 1.378 . S
C1586 C1590 1.350 . S
C1587 C1590 1.463 . S
C1587 C1592 1.350 . S
C1587 N1595 1.427 . S
C1588 H1579 0.930 . S
C1588 C1586 1.378 . S
C1588 C1589 1.367 . S
C1589 C1588 1.367 . S
C1589 C1591 1.433 . S
C1590 C1586 1.350 . S
C1590 C1587 1.463 . S
C1590 N1594 1.427 . S
C1591 H1581 0.929 . S
C1591 C1589 1.433 . S
C1591 N1594 1.384 . S
C1592 H1583 0.929 . S
C1592 C1584 1.378 . S
C1592 C1587 1.350 . S
C1593 H1580 0.929 . S
C1593 C1585 1.433 . S
C1593 N1595 1.384 . S
N1594 C1590 1.427 . S
N1594 C1591 1.384 . S
N1595 C1587 1.427 . S
N1595 C1593 1.384 . S
H1596 C1602 0.930 . S
H1597 C1606 0.930 . S
H1598 C1611 0.929 . S
H1599 C1609 0.929 . S
H1600 C1604 0.929 . S
H1601 C1610 0.929 . S
C1602 H1596 0.930 . S
C1602 C1603 1.367 . S
C1602 C1610 1.378 . S
C1603 C1602 1.367 . S
C1603 C1611 1.433 . S
C1604 H1600 0.929 . S
C1604 C1606 1.378 . S
C1604 C1608 1.350 . S
C1605 C1608 1.463 . S
C1605 C1610 1.350 . S
C1605 N1613 1.427 . S
C1606 H1597 0.930 . S
C1606 C1604 1.378 . S
C1606 C1607 1.367 . S
C1607 C1606 1.367 . S
C1607 C1609 1.433 . S
C1608 C1604 1.350 . S
C1608 C1605 1.463 . S
C1608 N1612 1.427 . S
C1609 H1599 0.929 . S
C1609 C1607 1.433 . S
C1609 N1612 1.384 . S
C1610 H1601 0.929 . S
C1610 C1602 1.378 . S
C1610 C1605 1.350 . S
C1611 H1598 0.929 . S
C1611 C1603 1.433 . S
C1611 N1613 1.384 . S
N1612 C1608 1.427 . S
N1612 C1609 1.384 . S
N1613 C1605 1.427 . S
N1613 C1611 1.384 . S
H1614 C1620 0.930 . S
H1615 C1624 0.930 . S
H1616 C1629 0.924 1_564 S
H1617 C1627 0.924 1_546 S
H1618 C1622 0.929 . S
H1619 C1628 0.929 . S
C1620 H1614 0.930 . S
C1620 C1621 1.367 . S
C1620 C1628 1.378 . S
C1621 C1620 1.367 . S
C1621 C1629 1.433 . S
C1622 H1618 0.929 . S
C1622 C1624 1.378 . S
C1622 C1626 1.350 . S
C1623 C1626 1.463 1_546 S
C1623 C1628 1.350 . S
C1623 N1631 1.427 1_546 S
C1624 H1615 0.930 . S
C1624 C1622 1.378 . S
C1624 C1625 1.367 . S
C1625 C1624 1.367 . S
C1625 C1627 1.433 . S
C1626 C1622 1.350 . S
C1626 C1623 1.463 1_564 S
C1626 N1630 1.427 1_564 S
C1627 H1617 0.924 1_564 S
C1627 C1625 1.433 . S
C1627 N1630 1.384 1_564 S
C1628 H1619 0.929 . S
C1628 C1620 1.378 . S
C1628 C1623 1.350 . S
C1629 H1616 0.924 1_546 S
C1629 C1621 1.433 . S
C1629 N1631 1.384 1_546 S
N1630 C1626 1.427 1_546 S
N1630 C1627 1.384 1_546 S
N1631 C1623 1.427 1_564 S
N1631 C1629 1.384 1_564 S
H1632 C1638 0.930 . S
H1633 C1642 0.930 . S
H1634 C1647 0.929 . S
H1635 C1645 0.929 . S
H1636 C1640 0.929 . S
H1637 C1646 0.929 . S
C1638 H1632 0.930 . S
C1638 C1639 1.367 . S
C1638 C1646 1.378 . S
C1639 C1638 1.367 . S
C1639 C1647 1.433 . S
C1640 H1636 0.929 . S
C1640 C1642 1.378 . S
C1640 C1644 1.350 . S
C1641 C1644 1.463 . S
C1641 C1646 1.350 . S
C1641 N1649 1.427 . S
C1642 H1633 0.930 . S
C1642 C1640 1.378 . S
C1642 C1643 1.367 . S
C1643 C1642 1.367 . S
C1643 C1645 1.433 . S
C1644 C1640 1.350 . S
C1644 C1641 1.463 . S
C1644 N1648 1.427 . S
C1645 H1635 0.929 . S
C1645 C1643 1.433 . S
C1645 N1648 1.384 . S
C1646 H1637 0.929 . S
C1646 C1638 1.378 . S
C1646 C1641 1.350 . S
C1647 H1634 0.929 . S
C1647 C1639 1.433 . S
C1647 N1649 1.384 . S
N1648 C1644 1.427 . S
N1648 C1645 1.384 . S
N1649 C1641 1.427 . S
N1649 C1647 1.384 . S
H1650 C1656 0.930 . S
H1651 C1660 0.930 . S
H1652 C1665 0.929 . S
H1653 C1663 0.929 . S
H1654 C1658 0.929 . S
H1655 C1664 0.929 . S
C1656 H1650 0.930 . S
C1656 C1657 1.367 . S
C1656 C1664 1.378 . S
C1657 C1656 1.367 . S
C1657 C1665 1.433 . S
C1658 H1654 0.929 . S
C1658 C1660 1.378 . S
C1658 C1662 1.350 . S
C1659 C1662 1.463 . S
C1659 C1664 1.350 . S
C1659 N1667 1.427 . S
C1660 H1651 0.930 . S
C1660 C1658 1.378 . S
C1660 C1661 1.367 . S
C1661 C1660 1.367 . S
C1661 C1663 1.433 . S
C1662 C1658 1.350 . S
C1662 C1659 1.463 . S
C1662 N1666 1.427 . S
C1663 H1653 0.929 . S
C1663 C1661 1.433 . S
C1663 N1666 1.384 . S
C1664 H1655 0.929 . S
C1664 C1656 1.378 . S
C1664 C1659 1.350 . S
C1665 H1652 0.929 . S
C1665 C1657 1.433 . S
C1665 N1667 1.384 . S
N1666 C1662 1.427 . S
N1666 C1663 1.384 . S
N1667 C1659 1.427 . S
N1667 C1665 1.384 . S
H1668 C1674 0.930 . S
H1669 C1678 0.930 . S
H1670 C1683 0.929 . S
H1671 C1681 0.929 . S
H1672 C1676 0.929 . S
H1673 C1682 0.929 . S
C1674 H1668 0.930 . S
C1674 C1675 1.367 . S
C1674 C1682 1.378 . S
C1675 C1674 1.367 . S
C1675 C1683 1.433 . S
C1676 H1672 0.929 . S
C1676 C1678 1.378 . S
C1676 C1680 1.350 . S
C1677 C1680 1.463 . S
C1677 C1682 1.350 . S
C1677 N1685 1.427 . S
C1678 H1669 0.930 . S
C1678 C1676 1.378 . S
C1678 C1679 1.367 . S
C1679 C1678 1.367 . S
C1679 C1681 1.433 . S
C1680 C1676 1.350 . S
C1680 C1677 1.463 . S
C1680 N1684 1.427 . S
C1681 H1671 0.929 . S
C1681 C1679 1.433 . S
C1681 N1684 1.384 . S
C1682 H1673 0.929 . S
C1682 C1674 1.378 . S
C1682 C1677 1.350 . S
C1683 H1670 0.929 . S
C1683 C1675 1.433 . S
C1683 N1685 1.384 . S
N1684 C1680 1.427 . S
N1684 C1681 1.384 . S
N1685 C1677 1.427 . S
N1685 C1683 1.384 . S
H1686 C1692 0.930 . S
H1687 C1696 0.930 1_554 S
H1688 C1701 0.929 . S
H1689 C1699 0.929 . S
H1690 C1694 0.929 . S
H1691 C1700 0.929 . S
C1692 H1686 0.930 . S
C1692 C1693 1.367 . S
C1692 C1700 1.378 . S
C1693 C1692 1.367 . S
C1693 C1701 1.433 . S
C1694 H1690 0.929 . S
C1694 C1696 1.378 . S
C1694 C1698 1.350 . S
C1695 C1698 1.463 . S
C1695 C1700 1.350 . S
C1695 N1703 1.427 . S
C1696 H1687 0.930 1_556 S
C1696 C1694 1.378 . S
C1696 C1697 1.367 . S
C1697 C1696 1.367 . S
C1697 C1699 1.433 . S
C1698 C1694 1.350 . S
C1698 C1695 1.463 . S
C1698 N1702 1.427 . S
C1699 H1689 0.929 . S
C1699 C1697 1.433 . S
C1699 N1702 1.384 . S
C1700 H1691 0.929 . S
C1700 C1692 1.378 . S
C1700 C1695 1.350 . S
C1701 H1688 0.929 . S
C1701 C1693 1.433 . S
C1701 N1703 1.384 . S
N1702 C1698 1.427 . S
N1702 C1699 1.384 . S
N1703 C1695 1.427 . S
N1703 C1701 1.384 . S
H1704 C1710 0.930 . S
H1705 C1714 0.930 . S
H1706 C1719 0.929 . S
H1707 C1717 0.929 . S
H1708 C1712 0.929 . S
H1709 C1718 0.929 . S
C1710 H1704 0.930 . S
C1710 C1711 1.367 . S
C1710 C1718 1.378 . S
C1711 C1710 1.367 . S
C1711 C1719 1.433 . S
C1712 H1708 0.929 . S
C1712 C1714 1.378 . S
C1712 C1716 1.350 . S
C1713 C1716 1.463 . S
C1713 C1718 1.350 . S
C1713 N1721 1.427 . S
C1714 H1705 0.930 . S
C1714 C1712 1.378 . S
C1714 C1715 1.367 . S
C1715 C1714 1.367 . S
C1715 C1717 1.433 . S
C1716 C1712 1.350 . S
C1716 C1713 1.463 . S
C1716 N1720 1.427 . S
C1717 H1707 0.929 . S
C1717 C1715 1.433 . S
C1717 N1720 1.384 . S
C1718 H1709 0.929 . S
C1718 C1710 1.378 . S
C1718 C1713 1.350 . S
C1719 H1706 0.929 . S
C1719 C1711 1.433 . S
C1719 N1721 1.384 . S
N1720 C1716 1.427 . S
N1720 C1717 1.384 . S
N1721 C1713 1.427 . S
N1721 C1719 1.384 . S
H1722 C1728 0.930 . S
H1723 C1732 0.930 . S
H1724 C1737 0.929 . S
H1725 C1735 0.929 . S
H1726 C1730 0.929 . S
H1727 C1736 0.929 . S
C1728 H1722 0.930 . S
C1728 C1729 1.367 . S
C1728 C1736 1.378 . S
C1729 C1728 1.367 . S
C1729 C1737 1.433 . S
C1730 H1726 0.929 . S
C1730 C1732 1.378 . S
C1730 C1734 1.350 . S
C1731 C1734 1.463 . S
C1731 C1736 1.350 . S
C1731 N1739 1.427 . S
C1732 H1723 0.930 . S
C1732 C1730 1.378 . S
C1732 C1733 1.367 . S
C1733 C1732 1.367 . S
C1733 C1735 1.433 . S
C1734 C1730 1.350 . S
C1734 C1731 1.463 . S
C1734 N1738 1.427 . S
C1735 H1725 0.929 . S
C1735 C1733 1.433 . S
C1735 N1738 1.384 . S
C1736 H1727 0.929 . S
C1736 C1728 1.378 . S
C1736 C1731 1.350 . S
C1737 H1724 0.929 . S
C1737 C1729 1.433 . S
C1737 N1739 1.384 . S
N1738 C1734 1.427 . S
N1738 C1735 1.384 . S
N1739 C1731 1.427 . S
N1739 C1737 1.384 . S
H1740 C1746 0.930 1_556 S
H1741 C1750 0.930 . S
H1742 C1755 0.929 . S
H1743 C1753 0.929 . S
H1744 C1748 0.929 . S
H1745 C1754 0.929 . S
C1746 H1740 0.930 1_554 S
C1746 C1747 1.367 . S
C1746 C1754 1.378 . S
C1747 C1746 1.367 . S
C1747 C1755 1.433 . S
C1748 H1744 0.929 . S
C1748 C1750 1.378 . S
C1748 C1752 1.350 . S
C1749 C1752 1.463 . S
C1749 C1754 1.350 . S
C1749 N1757 1.427 . S
C1750 H1741 0.930 . S
C1750 C1748 1.378 . S
C1750 C1751 1.367 . S
C1751 C1750 1.367 . S
C1751 C1753 1.433 . S
C1752 C1748 1.350 . S
C1752 C1749 1.463 . S
C1752 N1756 1.427 . S
C1753 H1743 0.929 . S
C1753 C1751 1.433 . S
C1753 N1756 1.384 . S
C1754 H1745 0.929 . S
C1754 C1746 1.378 . S
C1754 C1749 1.350 . S
C1755 H1742 0.929 . S
C1755 C1747 1.433 . S
C1755 N1757 1.384 . S
N1756 C1752 1.427 . S
N1756 C1753 1.384 . S
N1757 C1749 1.427 . S
N1757 C1755 1.384 . S
H1758 C1764 0.930 . S
H1759 C1768 0.930 . S
H1760 C1773 0.929 . S
H1761 C1771 0.929 1_556 S
H1762 C1766 0.929 . S
H1763 C1772 0.929 . S
C1764 H1758 0.930 . S
C1764 C1765 1.367 . S
C1764 C1772 1.378 . S
C1765 C1764 1.367 . S
C1765 C1773 1.433 . S
C1766 H1762 0.929 . S
C1766 C1768 1.378 . S
C1766 C1770 1.350 . S
C1767 C1770 1.463 . S
C1767 C1772 1.350 . S
C1767 N1775 1.427 . S
C1768 H1759 0.930 . S
C1768 C1766 1.378 . S
C1768 C1769 1.367 . S
C1769 C1768 1.367 . S
C1769 C1771 1.433 . S
C1770 C1766 1.350 . S
C1770 C1767 1.463 . S
C1770 N1774 1.427 . S
C1771 H1761 0.929 1_554 S
C1771 C1769 1.433 . S
C1771 N1774 1.384 . S
C1772 H1763 0.929 . S
C1772 C1764 1.378 . S
C1772 C1767 1.350 . S
C1773 H1760 0.929 . S
C1773 C1765 1.433 . S
C1773 N1775 1.384 . S
N1774 C1770 1.427 . S
N1774 C1771 1.384 . S
N1775 C1767 1.427 . S
N1775 C1773 1.384 . S
H1776 C1782 0.930 . S
H1777 C1786 0.930 . S
H1778 C1791 0.929 . S
H1779 C1789 0.929 . S
H1780 C1784 0.929 . S
H1781 C1790 0.929 . S
C1782 H1776 0.930 . S
C1782 C1783 1.367 . S
C1782 C1790 1.378 . S
C1783 C1782 1.367 . S
C1783 C1791 1.433 . S
C1784 H1780 0.929 . S
C1784 C1786 1.378 . S
C1784 C1788 1.350 . S
C1785 C1788 1.463 . S
C1785 C1790 1.350 . S
C1785 N1793 1.427 . S
C1786 H1777 0.930 . S
C1786 C1784 1.378 . S
C1786 C1787 1.367 . S
C1787 C1786 1.367 . S
C1787 C1789 1.433 . S
C1788 C1784 1.350 . S
C1788 C1785 1.463 . S
C1788 N1792 1.427 . S
C1789 H1779 0.929 . S
C1789 C1787 1.433 . S
C1789 N1792 1.384 . S
C1790 H1781 0.929 . S
C1790 C1782 1.378 . S
C1790 C1785 1.350 . S
C1791 H1778 0.929 . S
C1791 C1783 1.433 . S
C1791 N1793 1.384 . S
N1792 C1788 1.427 . S
N1792 C1789 1.384 . S
N1793 C1785 1.427 . S
N1793 C1791 1.384 . S
H1794 C1800 0.930 . S
H1795 C1804 0.930 1_554 S
H1796 C1809 0.929 . S
H1797 C1807 0.929 . S
H1798 C1802 0.929 . S
H1799 C1808 0.929 . S
C1800 H1794 0.930 . S
C1800 C1801 1.367 . S
C1800 C1808 1.378 . S
C1801 C1800 1.367 . S
C1801 C1809 1.433 . S
C1802 H1798 0.929 . S
C1802 C1804 1.378 . S
C1802 C1806 1.350 . S
C1803 C1806 1.463 . S
C1803 C1808 1.350 . S
C1803 N1811 1.427 . S
C1804 H1795 0.930 1_556 S
C1804 C1802 1.378 . S
C1804 C1805 1.367 . S
C1805 C1804 1.367 . S
C1805 C1807 1.433 . S
C1806 C1802 1.350 . S
C1806 C1803 1.463 . S
C1806 N1810 1.427 . S
C1807 H1797 0.929 . S
C1807 C1805 1.433 . S
C1807 N1810 1.384 . S
C1808 H1799 0.929 . S
C1808 C1800 1.378 . S
C1808 C1803 1.350 . S
C1809 H1796 0.929 . S
C1809 C1801 1.433 . S
C1809 N1811 1.384 . S
N1810 C1806 1.427 . S
N1810 C1807 1.384 . S
N1811 C1803 1.427 . S
N1811 C1809 1.384 . S
H1812 C1818 0.930 . S
H1813 C1822 0.930 . S
H1814 C1827 0.929 . S
H1815 C1825 0.929 . S
H1816 C1820 0.929 . S
H1817 C1826 0.929 . S
C1818 H1812 0.930 . S
C1818 C1819 1.367 . S
C1818 C1826 1.378 . S
C1819 C1818 1.367 . S
C1819 C1827 1.433 . S
C1820 H1816 0.929 . S
C1820 C1822 1.378 . S
C1820 C1824 1.350 . S
C1821 C1824 1.463 . S
C1821 C1826 1.350 . S
C1821 N1829 1.427 . S
C1822 H1813 0.930 . S
C1822 C1820 1.378 . S
C1822 C1823 1.367 . S
C1823 C1822 1.367 . S
C1823 C1825 1.433 . S
C1824 C1820 1.350 . S
C1824 C1821 1.463 . S
C1824 N1828 1.427 . S
C1825 H1815 0.929 . S
C1825 C1823 1.433 . S
C1825 N1828 1.384 . S
C1826 H1817 0.929 . S
C1826 C1818 1.378 . S
C1826 C1821 1.350 . S
C1827 H1814 0.929 . S
C1827 C1819 1.433 . S
C1827 N1829 1.384 . S
N1828 C1824 1.427 . S
N1828 C1825 1.384 . S
N1829 C1821 1.427 . S
N1829 C1827 1.384 . S
H1830 C1836 0.930 . S
H1831 C1840 0.930 . S
H1832 C1845 0.929 . S
H1833 C1843 0.929 . S
H1834 C1838 0.929 . S
H1835 C1844 0.929 . S
C1836 H1830 0.930 . S
C1836 C1837 1.367 . S
C1836 C1844 1.378 . S
C1837 C1836 1.367 . S
C1837 C1845 1.433 . S
C1838 H1834 0.929 . S
C1838 C1840 1.378 . S
C1838 C1842 1.350 . S
C1839 C1842 1.463 . S
C1839 C1844 1.350 . S
C1839 N1847 1.427 . S
C1840 H1831 0.930 . S
C1840 C1838 1.378 . S
C1840 C1841 1.367 . S
C1841 C1840 1.367 . S
C1841 C1843 1.433 . S
C1842 C1838 1.350 . S
C1842 C1839 1.463 . S
C1842 N1846 1.427 . S
C1843 H1833 0.929 . S
C1843 C1841 1.433 . S
C1843 N1846 1.384 . S
C1844 H1835 0.929 . S
C1844 C1836 1.378 . S
C1844 C1839 1.350 . S
C1845 H1832 0.929 . S
C1845 C1837 1.433 . S
C1845 N1847 1.384 . S
N1846 C1842 1.427 . S
N1846 C1843 1.384 . S
N1847 C1839 1.427 . S
N1847 C1845 1.384 . S
H1848 C1854 0.930 . S
H1849 C1858 0.930 1_556 S
H1850 C1863 0.929 . S
H1851 C1861 0.929 . S
H1852 C1856 0.929 . S
H1853 C1862 0.929 . S
C1854 H1848 0.930 . S
C1854 C1855 1.367 . S
C1854 C1862 1.378 . S
C1855 C1854 1.367 . S
C1855 C1863 1.433 . S
C1856 H1852 0.929 . S
C1856 C1858 1.378 . S
C1856 C1860 1.350 . S
C1857 C1860 1.463 . S
C1857 C1862 1.350 . S
C1857 N1865 1.427 . S
C1858 H1849 0.930 1_554 S
C1858 C1856 1.378 . S
C1858 C1859 1.367 . S
C1859 C1858 1.367 . S
C1859 C1861 1.433 . S
C1860 C1856 1.350 . S
C1860 C1857 1.463 . S
C1860 N1864 1.427 . S
C1861 H1851 0.929 . S
C1861 C1859 1.433 . S
C1861 N1864 1.384 . S
C1862 H1853 0.929 . S
C1862 C1854 1.378 . S
C1862 C1857 1.350 . S
C1863 H1850 0.929 . S
C1863 C1855 1.433 . S
C1863 N1865 1.384 . S
N1864 C1860 1.427 . S
N1864 C1861 1.384 . S
N1865 C1857 1.427 . S
N1865 C1863 1.384 . S
H1866 C1872 0.930 . S
H1867 C1876 0.930 . S
H1868 C1881 0.929 . S
H1869 C1879 0.929 . S
H1870 C1874 0.929 . S
H1871 C1880 0.929 . S
C1872 H1866 0.930 . S
C1872 C1873 1.367 . S
C1872 C1880 1.378 . S
C1873 C1872 1.367 . S
C1873 C1881 1.433 . S
C1874 H1870 0.929 . S
C1874 C1876 1.378 . S
C1874 C1878 1.350 . S
C1875 C1878 1.463 . S
C1875 C1880 1.350 . S
C1875 N1883 1.427 . S
C1876 H1867 0.930 . S
C1876 C1874 1.378 . S
C1876 C1877 1.367 . S
C1877 C1876 1.367 . S
C1877 C1879 1.433 . S
C1878 C1874 1.350 . S
C1878 C1875 1.463 . S
C1878 N1882 1.427 . S
C1879 H1869 0.929 . S
C1879 C1877 1.433 . S
C1879 N1882 1.384 . S
C1880 H1871 0.929 . S
C1880 C1872 1.378 . S
C1880 C1875 1.350 . S
C1881 H1868 0.929 . S
C1881 C1873 1.433 . S
C1881 N1883 1.384 . S
N1882 C1878 1.427 . S
N1882 C1879 1.384 . S
N1883 C1875 1.427 . S
N1883 C1881 1.384 . S
H1884 C1890 0.930 . S
H1885 C1894 0.930 . S
H1886 C1899 0.929 . S
H1887 C1897 0.929 . S
H1888 C1892 0.929 . S
H1889 C1898 0.929 . S
C1890 H1884 0.930 . S
C1890 C1891 1.367 . S
C1890 C1898 1.378 . S
C1891 C1890 1.367 . S
C1891 C1899 1.433 . S
C1892 H1888 0.929 . S
C1892 C1894 1.378 . S
C1892 C1896 1.350 . S
C1893 C1896 1.463 . S
C1893 C1898 1.350 . S
C1893 N1901 1.427 . S
C1894 H1885 0.930 . S
C1894 C1892 1.378 . S
C1894 C1895 1.367 . S
C1895 C1894 1.367 . S
C1895 C1897 1.433 . S
C1896 C1892 1.350 . S
C1896 C1893 1.463 . S
C1896 N1900 1.427 . S
C1897 H1887 0.929 . S
C1897 C1895 1.433 . S
C1897 N1900 1.384 . S
C1898 H1889 0.929 . S
C1898 C1890 1.378 . S
C1898 C1893 1.350 . S
C1899 H1886 0.929 . S
C1899 C1891 1.433 . S
C1899 N1901 1.384 . S
N1900 C1896 1.427 . S
N1900 C1897 1.384 . S
N1901 C1893 1.427 . S
N1901 C1899 1.384 . S
H1902 C1908 0.930 . S
H1903 C1912 0.930 . S
H1904 C1917 0.929 . S
H1905 C1915 0.929 . S
H1906 C1910 0.929 . S
H1907 C1916 0.929 . S
C1908 H1902 0.930 . S
C1908 C1909 1.367 . S
C1908 C1916 1.378 . S
C1909 C1908 1.367 . S
C1909 C1917 1.433 . S
C1910 H1906 0.929 . S
C1910 C1912 1.378 . S
C1910 C1914 1.350 . S
C1911 C1914 1.463 . S
C1911 C1916 1.350 . S
C1911 N1919 1.427 . S
C1912 H1903 0.930 . S
C1912 C1910 1.378 . S
C1912 C1913 1.367 . S
C1913 C1912 1.367 . S
C1913 C1915 1.433 . S
C1914 C1910 1.350 . S
C1914 C1911 1.463 . S
C1914 N1918 1.427 . S
C1915 H1905 0.929 . S
C1915 C1913 1.433 . S
C1915 N1918 1.384 . S
C1916 H1907 0.929 . S
C1916 C1908 1.378 . S
C1916 C1911 1.350 . S
C1917 H1904 0.929 . S
C1917 C1909 1.433 . S
C1917 N1919 1.384 . S
N1918 C1914 1.427 . S
N1918 C1915 1.384 . S
N1919 C1911 1.427 . S
N1919 C1917 1.384 . S
H1920 C1926 0.930 . S
H1921 C1930 0.930 1_554 S
H1922 C1935 0.929 . S
H1923 C1933 0.929 . S
H1924 C1928 0.929 . S
H1925 C1934 0.929 . S
C1926 H1920 0.930 . S
C1926 C1927 1.367 . S
C1926 C1934 1.378 . S
C1927 C1926 1.367 . S
C1927 C1935 1.433 . S
C1928 H1924 0.929 . S
C1928 C1930 1.378 . S
C1928 C1932 1.350 . S
C1929 C1932 1.463 . S
C1929 C1934 1.350 . S
C1929 N1937 1.427 . S
C1930 H1921 0.930 1_556 S
C1930 C1928 1.378 . S
C1930 C1931 1.367 . S
C1931 C1930 1.367 . S
C1931 C1933 1.433 . S
C1932 C1928 1.350 . S
C1932 C1929 1.463 . S
C1932 N1936 1.427 . S
C1933 H1923 0.929 . S
C1933 C1931 1.433 . S
C1933 N1936 1.384 . S
C1934 H1925 0.929 . S
C1934 C1926 1.378 . S
C1934 C1929 1.350 . S
C1935 H1922 0.929 . S
C1935 C1927 1.433 . S
C1935 N1937 1.384 . S
N1936 C1932 1.427 . S
N1936 C1933 1.384 . S
N1937 C1929 1.427 . S
N1937 C1935 1.384 . S
H1938 C1944 0.930 . S
H1939 C1948 0.930 . S
H1940 C1953 0.929 . S
H1941 C1951 0.929 . S
H1942 C1946 0.929 . S
H1943 C1952 0.929 . S
C1944 H1938 0.930 . S
C1944 C1945 1.367 . S
C1944 C1952 1.378 . S
C1945 C1944 1.367 . S
C1945 C1953 1.433 . S
C1946 H1942 0.929 . S
C1946 C1948 1.378 . S
C1946 C1950 1.350 . S
C1947 C1950 1.463 . S
C1947 C1952 1.350 . S
C1947 N1955 1.427 . S
C1948 H1939 0.930 . S
C1948 C1946 1.378 . S
C1948 C1949 1.367 . S
C1949 C1948 1.367 . S
C1949 C1951 1.433 . S
C1950 C1946 1.350 . S
C1950 C1947 1.463 . S
C1950 N1954 1.427 . S
C1951 H1941 0.929 . S
C1951 C1949 1.433 . S
C1951 N1954 1.384 . S
C1952 H1943 0.929 . S
C1952 C1944 1.378 . S
C1952 C1947 1.350 . S
C1953 H1940 0.929 . S
C1953 C1945 1.433 . S
C1953 N1955 1.384 . S
N1954 C1950 1.427 . S
N1954 C1951 1.384 . S
N1955 C1947 1.427 . S
N1955 C1953 1.384 . S
H1956 C1962 0.930 . S
H1957 C1966 0.930 . S
H1958 C1971 0.929 . S
H1959 C1969 0.929 . S
H1960 C1964 0.929 . S
H1961 C1970 0.929 . S
C1962 H1956 0.930 . S
C1962 C1963 1.367 . S
C1962 C1970 1.378 . S
C1963 C1962 1.367 . S
C1963 C1971 1.433 . S
C1964 H1960 0.929 . S
C1964 C1966 1.378 . S
C1964 C1968 1.350 . S
C1965 C1968 1.463 . S
C1965 C1970 1.350 . S
C1965 N1973 1.427 . S
C1966 H1957 0.930 . S
C1966 C1964 1.378 . S
C1966 C1967 1.367 . S
C1967 C1966 1.367 . S
C1967 C1969 1.433 . S
C1968 C1964 1.350 . S
C1968 C1965 1.463 . S
C1968 N1972 1.427 . S
C1969 H1959 0.929 . S
C1969 C1967 1.433 . S
C1969 N1972 1.384 . S
C1970 H1961 0.929 . S
C1970 C1962 1.378 . S
C1970 C1965 1.350 . S
C1971 H1958 0.929 . S
C1971 C1963 1.433 . S
C1971 N1973 1.384 . S
N1972 C1968 1.427 . S
N1972 C1969 1.384 . S
N1973 C1965 1.427 . S
N1973 C1971 1.384 . S
H1974 C1980 0.930 . S
H1975 C1984 0.930 . S
H1976 C1989 0.929 . S
H1977 C1987 0.929 . S
H1978 C1982 0.929 . S
H1979 C1988 0.929 . S
C1980 H1974 0.930 . S
C1980 C1981 1.367 . S
C1980 C1988 1.378 . S
C1981 C1980 1.367 . S
C1981 C1989 1.433 . S
C1982 H1978 0.929 . S
C1982 C1984 1.378 . S
C1982 C1986 1.350 . S
C1983 C1986 1.463 . S
C1983 C1988 1.350 . S
C1983 N1991 1.427 . S
C1984 H1975 0.930 . S
C1984 C1982 1.378 . S
C1984 C1985 1.367 . S
C1985 C1984 1.367 . S
C1985 C1987 1.433 . S
C1986 C1982 1.350 . S
C1986 C1983 1.463 . S
C1986 N1990 1.427 . S
C1987 H1977 0.929 . S
C1987 C1985 1.433 . S
C1987 N1990 1.384 . S
C1988 H1979 0.929 . S
C1988 C1980 1.378 . S
C1988 C1983 1.350 . S
C1989 H1976 0.929 . S
C1989 C1981 1.433 . S
C1989 N1991 1.384 . S
N1990 C1986 1.427 . S
N1990 C1987 1.384 . S
N1991 C1983 1.427 . S
N1991 C1989 1.384 . S
H1992 C1998 0.930 . S
H1993 C2002 0.930 . S
H1994 C2007 0.929 . S
H1995 C2005 0.929 . S
H1996 C2000 0.929 . S
H1997 C2006 0.929 . S
C1998 H1992 0.930 . S
C1998 C1999 1.367 . S
C1998 C2006 1.378 . S
C1999 C1998 1.367 . S
C1999 C2007 1.433 . S
C2000 H1996 0.929 . S
C2000 C2002 1.378 . S
C2000 C2004 1.350 . S
C2001 C2004 1.463 . S
C2001 C2006 1.350 . S
C2001 N2009 1.427 . S
C2002 H1993 0.930 . S
C2002 C2000 1.378 . S
C2002 C2003 1.367 . S
C2003 C2002 1.367 . S
C2003 C2005 1.433 . S
C2004 C2000 1.350 . S
C2004 C2001 1.463 . S
C2004 N2008 1.427 . S
C2005 H1995 0.929 . S
C2005 C2003 1.433 . S
C2005 N2008 1.384 . S
C2006 H1997 0.929 . S
C2006 C1998 1.378 . S
C2006 C2001 1.350 . S
C2007 H1994 0.929 . S
C2007 C1999 1.433 . S
C2007 N2009 1.384 . S
N2008 C2004 1.427 . S
N2008 C2005 1.384 . S
N2009 C2001 1.427 . S
N2009 C2007 1.384 . S
H2010 C2016 0.930 . S
H2011 C2020 0.930 . S
H2012 C2025 0.929 . S
H2013 C2023 0.929 . S
H2014 C2018 0.929 . S
H2015 C2024 0.929 . S
C2016 H2010 0.930 . S
C2016 C2017 1.367 . S
C2016 C2024 1.378 . S
C2017 C2016 1.367 . S
C2017 C2025 1.433 . S
C2018 H2014 0.929 . S
C2018 C2020 1.378 . S
C2018 C2022 1.350 . S
C2019 C2022 1.463 . S
C2019 C2024 1.350 . S
C2019 N2027 1.427 . S
C2020 H2011 0.930 . S
C2020 C2018 1.378 . S
C2020 C2021 1.367 . S
C2021 C2020 1.367 . S
C2021 C2023 1.433 . S
C2022 C2018 1.350 . S
C2022 C2019 1.463 . S
C2022 N2026 1.427 . S
C2023 H2013 0.929 . S
C2023 C2021 1.433 . S
C2023 N2026 1.384 . S
C2024 H2015 0.929 . S
C2024 C2016 1.378 . S
C2024 C2019 1.350 . S
C2025 H2012 0.929 . S
C2025 C2017 1.433 . S
C2025 N2027 1.384 . S
N2026 C2022 1.427 . S
N2026 C2023 1.384 . S
N2027 C2019 1.427 . S
N2027 C2025 1.384 . S
H2028 C2034 0.930 . S
H2029 C2038 0.930 . S
H2030 C2043 0.929 . S
H2031 C2041 0.929 . S
H2032 C2036 0.929 . S
H2033 C2042 0.929 . S
C2034 H2028 0.930 . S
C2034 C2035 1.367 . S
C2034 C2042 1.378 . S
C2035 C2034 1.367 . S
C2035 C2043 1.433 . S
C2036 H2032 0.929 . S
C2036 C2038 1.378 . S
C2036 C2040 1.350 . S
C2037 C2040 1.463 . S
C2037 C2042 1.350 . S
C2037 N2045 1.427 . S
C2038 H2029 0.930 . S
C2038 C2036 1.378 . S
C2038 C2039 1.367 . S
C2039 C2038 1.367 . S
C2039 C2041 1.433 . S
C2040 C2036 1.350 . S
C2040 C2037 1.463 . S
C2040 N2044 1.427 . S
C2041 H2031 0.929 . S
C2041 C2039 1.433 . S
C2041 N2044 1.384 . S
C2042 H2033 0.929 . S
C2042 C2034 1.378 . S
C2042 C2037 1.350 . S
C2043 H2030 0.929 . S
C2043 C2035 1.433 . S
C2043 N2045 1.384 . S
N2044 C2040 1.427 . S
N2044 C2041 1.384 . S
N2045 C2037 1.427 . S
N2045 C2043 1.384 . S
H2046 C2052 0.930 . S
H2047 C2056 0.930 . S
H2048 C2061 0.929 . S
H2049 C2059 0.929 . S
H2050 C2054 0.929 . S
H2051 C2060 0.929 . S
C2052 H2046 0.930 . S
C2052 C2053 1.367 . S
C2052 C2060 1.378 . S
C2053 C2052 1.367 . S
C2053 C2061 1.433 . S
C2054 H2050 0.929 . S
C2054 C2056 1.378 . S
C2054 C2058 1.350 . S
C2055 C2058 1.463 . S
C2055 C2060 1.350 . S
C2055 N2063 1.427 . S
C2056 H2047 0.930 . S
C2056 C2054 1.378 . S
C2056 C2057 1.367 . S
C2057 C2056 1.367 . S
C2057 C2059 1.433 . S
C2058 C2054 1.350 . S
C2058 C2055 1.463 . S
C2058 N2062 1.427 . S
C2059 H2049 0.929 . S
C2059 C2057 1.433 . S
C2059 N2062 1.384 . S
C2060 H2051 0.929 . S
C2060 C2052 1.378 . S
C2060 C2055 1.350 . S
C2061 H2048 0.929 . S
C2061 C2053 1.433 . S
C2061 N2063 1.384 . S
N2062 C2058 1.427 . S
N2062 C2059 1.384 . S
N2063 C2055 1.427 . S
N2063 C2061 1.384 . S
H2064 C2070 0.930 . S
H2065 C2074 0.930 . S
H2066 C2079 0.929 . S
H2067 C2077 0.929 . S
H2068 C2072 0.929 . S
H2069 C2078 0.929 . S
C2070 H2064 0.930 . S
C2070 C2071 1.367 . S
C2070 C2078 1.378 . S
C2071 C2070 1.367 . S
C2071 C2079 1.433 . S
C2072 H2068 0.929 . S
C2072 C2074 1.378 . S
C2072 C2076 1.350 . S
C2073 C2076 1.463 . S
C2073 C2078 1.350 . S
C2073 N2081 1.427 . S
C2074 H2065 0.930 . S
C2074 C2072 1.378 . S
C2074 C2075 1.367 . S
C2075 C2074 1.367 . S
C2075 C2077 1.433 . S
C2076 C2072 1.350 . S
C2076 C2073 1.463 . S
C2076 N2080 1.427 . S
C2077 H2067 0.929 . S
C2077 C2075 1.433 . S
C2077 N2080 1.384 . S
C2078 H2069 0.929 . S
C2078 C2070 1.378 . S
C2078 C2073 1.350 . S
C2079 H2066 0.929 . S
C2079 C2071 1.433 . S
C2079 N2081 1.384 . S
N2080 C2076 1.427 . S
N2080 C2077 1.384 . S
N2081 C2073 1.427 . S
N2081 C2079 1.384 . S
H2082 C2088 0.930 . S
H2083 C2092 0.930 . S
H2084 C2097 0.929 . S
H2085 C2095 0.929 . S
H2086 C2090 0.929 . S
H2087 C2096 0.929 . S
C2088 H2082 0.930 . S
C2088 C2089 1.367 . S
C2088 C2096 1.378 . S
C2089 C2088 1.367 . S
C2089 C2097 1.433 . S
C2090 H2086 0.929 . S
C2090 C2092 1.378 . S
C2090 C2094 1.350 . S
C2091 C2094 1.463 . S
C2091 C2096 1.350 . S
C2091 N2099 1.427 . S
C2092 H2083 0.930 . S
C2092 C2090 1.378 . S
C2092 C2093 1.367 . S
C2093 C2092 1.367 . S
C2093 C2095 1.433 . S
C2094 C2090 1.350 . S
C2094 C2091 1.463 . S
C2094 N2098 1.427 . S
C2095 H2085 0.929 . S
C2095 C2093 1.433 . S
C2095 N2098 1.384 . S
C2096 H2087 0.929 . S
C2096 C2088 1.378 . S
C2096 C2091 1.350 . S
C2097 H2084 0.929 . S
C2097 C2089 1.433 . S
C2097 N2099 1.384 . S
N2098 C2094 1.427 . S
N2098 C2095 1.384 . S
N2099 C2091 1.427 . S
N2099 C2097 1.384 . S
H2100 C2106 0.930 . S
H2101 C2110 0.930 . S
H2102 C2115 0.929 . S
H2103 C2113 0.929 . S
H2104 C2108 0.929 . S
H2105 C2114 0.929 . S
C2106 H2100 0.930 . S
C2106 C2107 1.367 . S
C2106 C2114 1.378 . S
C2107 C2106 1.367 . S
C2107 C2115 1.433 . S
C2108 H2104 0.929 . S
C2108 C2110 1.378 . S
C2108 C2112 1.350 . S
C2109 C2112 1.463 . S
C2109 C2114 1.350 . S
C2109 N2117 1.427 . S
C2110 H2101 0.930 . S
C2110 C2108 1.378 . S
C2110 C2111 1.367 . S
C2111 C2110 1.367 . S
C2111 C2113 1.433 . S
C2112 C2108 1.350 . S
C2112 C2109 1.463 . S
C2112 N2116 1.427 . S
C2113 H2103 0.929 . S
C2113 C2111 1.433 . S
C2113 N2116 1.384 . S
C2114 H2105 0.929 . S
C2114 C2106 1.378 . S
C2114 C2109 1.350 . S
C2115 H2102 0.929 . S
C2115 C2107 1.433 . S
C2115 N2117 1.384 . S
N2116 C2112 1.427 . S
N2116 C2113 1.384 . S
N2117 C2109 1.427 . S
N2117 C2115 1.384 . S
H2118 C2124 0.930 . S
H2119 C2128 0.930 . S
H2120 C2133 0.929 . S
H2121 C2131 0.929 1_554 S
H2122 C2126 0.929 . S
H2123 C2132 0.929 . S
C2124 H2118 0.930 . S
C2124 C2125 1.367 . S
C2124 C2132 1.378 . S
C2125 C2124 1.367 . S
C2125 C2133 1.433 . S
C2126 H2122 0.929 . S
C2126 C2128 1.378 . S
C2126 C2130 1.350 . S
C2127 C2130 1.463 . S
C2127 C2132 1.350 . S
C2127 N2135 1.427 . S
C2128 H2119 0.930 . S
C2128 C2126 1.378 . S
C2128 C2129 1.367 . S
C2129 C2128 1.367 . S
C2129 C2131 1.433 . S
C2130 C2126 1.350 . S
C2130 C2127 1.463 . S
C2130 N2134 1.427 . S
C2131 H2121 0.929 1_556 S
C2131 C2129 1.433 . S
C2131 N2134 1.384 . S
C2132 H2123 0.929 . S
C2132 C2124 1.378 . S
C2132 C2127 1.350 . S
C2133 H2120 0.929 . S
C2133 C2125 1.433 . S
C2133 N2135 1.384 . S
N2134 C2130 1.427 . S
N2134 C2131 1.384 . S
N2135 C2127 1.427 . S
N2135 C2133 1.384 . S
H2136 C2142 0.930 . S
H2137 C2146 0.930 . S
H2138 C2151 0.929 . S
H2139 C2149 0.929 . S
H2140 C2144 0.929 . S
H2141 C2150 0.929 . S
C2142 H2136 0.930 . S
C2142 C2143 1.367 . S
C2142 C2150 1.378 . S
C2143 C2142 1.367 . S
C2143 C2151 1.433 . S
C2144 H2140 0.929 . S
C2144 C2146 1.378 . S
C2144 C2148 1.350 . S
C2145 C2148 1.463 . S
C2145 C2150 1.350 . S
C2145 N2153 1.427 . S
C2146 H2137 0.930 . S
C2146 C2144 1.378 . S
C2146 C2147 1.367 . S
C2147 C2146 1.367 . S
C2147 C2149 1.433 . S
C2148 C2144 1.350 . S
C2148 C2145 1.463 . S
C2148 N2152 1.427 . S
C2149 H2139 0.929 . S
C2149 C2147 1.433 . S
C2149 N2152 1.384 . S
C2150 H2141 0.929 . S
C2150 C2142 1.378 . S
C2150 C2145 1.350 . S
C2151 H2138 0.929 . S
C2151 C2143 1.433 . S
C2151 N2153 1.384 . S
N2152 C2148 1.427 . S
N2152 C2149 1.384 . S
N2153 C2145 1.427 . S
N2153 C2151 1.384 . S
H2154 C2160 0.930 . S
H2155 C2164 0.930 . S
H2156 C2169 0.929 . S
H2157 C2167 0.929 . S
H2158 C2162 0.929 . S
H2159 C2168 0.929 . S
C2160 H2154 0.930 . S
C2160 C2161 1.367 . S
C2160 C2168 1.378 . S
C2161 C2160 1.367 . S
C2161 C2169 1.433 . S
C2162 H2158 0.929 . S
C2162 C2164 1.378 . S
C2162 C2166 1.350 . S
C2163 C2166 1.463 . S
C2163 C2168 1.350 . S
C2163 N2171 1.427 . S
C2164 H2155 0.930 . S
C2164 C2162 1.378 . S
C2164 C2165 1.367 . S
C2165 C2164 1.367 . S
C2165 C2167 1.433 . S
C2166 C2162 1.350 . S
C2166 C2163 1.463 . S
C2166 N2170 1.427 . S
C2167 H2157 0.929 . S
C2167 C2165 1.433 . S
C2167 N2170 1.384 . S
C2168 H2159 0.929 . S
C2168 C2160 1.378 . S
C2168 C2163 1.350 . S
C2169 H2156 0.929 . S
C2169 C2161 1.433 . S
C2169 N2171 1.384 . S
N2170 C2166 1.427 . S
N2170 C2167 1.384 . S
N2171 C2163 1.427 . S
N2171 C2169 1.384 . S
H2172 C2178 0.930 . S
H2173 C2182 0.930 1_556 S
H2174 C2187 0.929 . S
H2175 C2185 0.929 . S
H2176 C2180 0.929 . S
H2177 C2186 0.929 . S
C2178 H2172 0.930 . S
C2178 C2179 1.367 . S
C2178 C2186 1.378 . S
C2179 C2178 1.367 . S
C2179 C2187 1.433 . S
C2180 H2176 0.929 . S
C2180 C2182 1.378 . S
C2180 C2184 1.350 . S
C2181 C2184 1.463 . S
C2181 C2186 1.350 . S
C2181 N2189 1.427 . S
C2182 H2173 0.930 1_554 S
C2182 C2180 1.378 . S
C2182 C2183 1.367 . S
C2183 C2182 1.367 . S
C2183 C2185 1.433 . S
C2184 C2180 1.350 . S
C2184 C2181 1.463 . S
C2184 N2188 1.427 . S
C2185 H2175 0.929 . S
C2185 C2183 1.433 . S
C2185 N2188 1.384 . S
C2186 H2177 0.929 . S
C2186 C2178 1.378 . S
C2186 C2181 1.350 . S
C2187 H2174 0.929 . S
C2187 C2179 1.433 . S
C2187 N2189 1.384 . S
N2188 C2184 1.427 . S
N2188 C2185 1.384 . S
N2189 C2181 1.427 . S
N2189 C2187 1.384 . S
H2190 C2196 0.930 . S
H2191 C2200 0.930 . S
H2192 C2205 0.929 . S
H2193 C2203 0.929 1_556 S
H2194 C2198 0.929 . S
H2195 C2204 0.929 . S
C2196 H2190 0.930 . S
C2196 C2197 1.367 . S
C2196 C2204 1.378 . S
C2197 C2196 1.367 . S
C2197 C2205 1.433 . S
C2198 H2194 0.929 . S
C2198 C2200 1.378 . S
C2198 C2202 1.350 . S
C2199 C2202 1.463 . S
C2199 C2204 1.350 . S
C2199 N2207 1.427 . S
C2200 H2191 0.930 . S
C2200 C2198 1.378 . S
C2200 C2201 1.367 . S
C2201 C2200 1.367 . S
C2201 C2203 1.433 . S
C2202 C2198 1.350 . S
C2202 C2199 1.463 . S
C2202 N2206 1.427 . S
C2203 H2193 0.929 1_554 S
C2203 C2201 1.433 . S
C2203 N2206 1.384 . S
C2204 H2195 0.929 . S
C2204 C2196 1.378 . S
C2204 C2199 1.350 . S
C2205 H2192 0.929 . S
C2205 C2197 1.433 . S
C2205 N2207 1.384 . S
N2206 C2202 1.427 . S
N2206 C2203 1.384 . S
N2207 C2199 1.427 . S
N2207 C2205 1.384 . S
H2208 C2214 0.930 . S
H2209 C2218 0.930 . S
H2210 C2223 0.929 . S
H2211 C2221 0.929 . S
H2212 C2216 0.929 . S
H2213 C2222 0.929 . S
C2214 H2208 0.930 . S
C2214 C2215 1.367 . S
C2214 C2222 1.378 . S
C2215 C2214 1.367 . S
C2215 C2223 1.433 . S
C2216 H2212 0.929 . S
C2216 C2218 1.378 . S
C2216 C2220 1.350 . S
C2217 C2220 1.463 . S
C2217 C2222 1.350 . S
C2217 N2225 1.427 . S
C2218 H2209 0.930 . S
C2218 C2216 1.378 . S
C2218 C2219 1.367 . S
C2219 C2218 1.367 . S
C2219 C2221 1.433 . S
C2220 C2216 1.350 . S
C2220 C2217 1.463 . S
C2220 N2224 1.427 . S
C2221 H2211 0.929 . S
C2221 C2219 1.433 . S
C2221 N2224 1.384 . S
C2222 H2213 0.929 . S
C2222 C2214 1.378 . S
C2222 C2217 1.350 . S
C2223 H2210 0.929 . S
C2223 C2215 1.433 . S
C2223 N2225 1.384 . S
N2224 C2220 1.427 . S
N2224 C2221 1.384 . S
N2225 C2217 1.427 . S
N2225 C2223 1.384 . S
H2226 C2232 0.930 . S
H2227 C2236 0.930 . S
H2228 C2241 0.929 . S
H2229 C2239 0.929 . S
H2230 C2234 0.929 . S
H2231 C2240 0.929 . S
C2232 H2226 0.930 . S
C2232 C2233 1.367 . S
C2232 C2240 1.378 . S
C2233 C2232 1.367 . S
C2233 C2241 1.433 . S
C2234 H2230 0.929 . S
C2234 C2236 1.378 . S
C2234 C2238 1.350 . S
C2235 C2238 1.463 . S
C2235 C2240 1.350 . S
C2235 N2243 1.427 . S
C2236 H2227 0.930 . S
C2236 C2234 1.378 . S
C2236 C2237 1.367 . S
C2237 C2236 1.367 . S
C2237 C2239 1.433 . S
C2238 C2234 1.350 . S
C2238 C2235 1.463 . S
C2238 N2242 1.427 . S
C2239 H2229 0.929 . S
C2239 C2237 1.433 . S
C2239 N2242 1.384 . S
C2240 H2231 0.929 . S
C2240 C2232 1.378 . S
C2240 C2235 1.350 . S
C2241 H2228 0.929 . S
C2241 C2233 1.433 . S
C2241 N2243 1.384 . S
N2242 C2238 1.427 . S
N2242 C2239 1.384 . S
N2243 C2235 1.427 . S
N2243 C2241 1.384 . S
H2244 C2250 0.930 . S
H2245 C2254 0.930 . S
H2246 C2259 0.929 . S
H2247 C2257 0.929 . S
H2248 C2252 0.929 . S
H2249 C2258 0.929 . S
C2250 H2244 0.930 . S
C2250 C2251 1.367 . S
C2250 C2258 1.378 . S
C2251 C2250 1.367 . S
C2251 C2259 1.433 . S
C2252 H2248 0.929 . S
C2252 C2254 1.378 . S
C2252 C2256 1.350 . S
C2253 C2256 1.463 . S
C2253 C2258 1.350 . S
C2253 N2261 1.427 . S
C2254 H2245 0.930 . S
C2254 C2252 1.378 . S
C2254 C2255 1.367 . S
C2255 C2254 1.367 . S
C2255 C2257 1.433 . S
C2256 C2252 1.350 . S
C2256 C2253 1.463 . S
C2256 N2260 1.427 . S
C2257 H2247 0.929 . S
C2257 C2255 1.433 . S
C2257 N2260 1.384 . S
C2258 H2249 0.929 . S
C2258 C2250 1.378 . S
C2258 C2253 1.350 . S
C2259 H2246 0.929 . S
C2259 C2251 1.433 . S
C2259 N2261 1.384 . S
N2260 C2256 1.427 . S
N2260 C2257 1.384 . S
N2261 C2253 1.427 . S
N2261 C2259 1.384 . S
H2262 C2268 0.930 . S
H2263 C2272 0.930 . S
H2264 C2277 0.929 . S
H2265 C2275 0.929 . S
H2266 C2270 0.929 . S
H2267 C2276 0.929 . S
C2268 H2262 0.930 . S
C2268 C2269 1.367 . S
C2268 C2276 1.378 . S
C2269 C2268 1.367 . S
C2269 C2277 1.433 . S
C2270 H2266 0.929 . S
C2270 C2272 1.378 . S
C2270 C2274 1.350 . S
C2271 C2274 1.463 . S
C2271 C2276 1.350 . S
C2271 N2279 1.427 . S
C2272 H2263 0.930 . S
C2272 C2270 1.378 . S
C2272 C2273 1.367 . S
C2273 C2272 1.367 . S
C2273 C2275 1.433 . S
C2274 C2270 1.350 . S
C2274 C2271 1.463 . S
C2274 N2278 1.427 . S
C2275 H2265 0.929 . S
C2275 C2273 1.433 . S
C2275 N2278 1.384 . S
C2276 H2267 0.929 . S
C2276 C2268 1.378 . S
C2276 C2271 1.350 . S
C2277 H2264 0.929 . S
C2277 C2269 1.433 . S
C2277 N2279 1.384 . S
N2278 C2274 1.427 . S
N2278 C2275 1.384 . S
N2279 C2271 1.427 . S
N2279 C2277 1.384 . S
H2280 C2286 0.930 . S
H2281 C2290 0.930 . S
H2282 C2295 0.929 . S
H2283 C2293 0.929 . S
H2284 C2288 0.929 . S
H2285 C2294 0.929 . S
C2286 H2280 0.930 . S
C2286 C2287 1.367 1_545 S
C2286 C2294 1.378 . S
C2287 C2286 1.367 1_565 S
C2287 C2295 1.433 . S
C2288 H2284 0.929 . S
C2288 C2290 1.378 . S
C2288 C2292 1.350 . S
C2289 C2292 1.463 . S
C2289 C2294 1.350 1_565 S
C2289 N2297 1.427 . S
C2290 H2281 0.930 . S
C2290 C2288 1.378 . S
C2290 C2291 1.367 . S
C2291 C2290 1.367 . S
C2291 C2293 1.433 1_565 S
C2292 C2288 1.350 . S
C2292 C2289 1.463 . S
C2292 N2296 1.427 1_565 S
C2293 H2283 0.929 . S
C2293 C2291 1.433 1_545 S
C2293 N2296 1.384 . S
C2294 H2285 0.929 . S
C2294 C2286 1.378 . S
C2294 C2289 1.350 1_545 S
C2295 H2282 0.929 . S
C2295 C2287 1.433 . S
C2295 N2297 1.384 . S
N2296 C2292 1.427 1_545 S
N2296 C2293 1.384 . S
N2297 C2289 1.427 . S
N2297 C2295 1.384 . S
H2298 C2304 0.930 . S
H2299 C2308 0.930 . S
H2300 C2313 0.929 . S
H2301 C2311 0.929 . S
H2302 C2306 0.929 . S
H2303 C2312 0.929 . S
C2304 H2298 0.930 . S
C2304 C2305 1.367 . S
C2304 C2312 1.378 . S
C2305 C2304 1.367 . S
C2305 C2313 1.433 . S
C2306 H2302 0.929 . S
C2306 C2308 1.378 . S
C2306 C2310 1.350 . S
C2307 C2310 1.463 . S
C2307 C2312 1.350 . S
C2307 N2315 1.427 . S
C2308 H2299 0.930 . S
C2308 C2306 1.378 . S
C2308 C2309 1.367 . S
C2309 C2308 1.367 . S
C2309 C2311 1.433 . S
C2310 C2306 1.350 . S
C2310 C2307 1.463 . S
C2310 N2314 1.427 . S
C2311 H2301 0.929 . S
C2311 C2309 1.433 . S
C2311 N2314 1.384 . S
C2312 H2303 0.929 . S
C2312 C2304 1.378 . S
C2312 C2307 1.350 . S
C2313 H2300 0.929 . S
C2313 C2305 1.433 . S
C2313 N2315 1.384 . S
N2314 C2310 1.427 . S
N2314 C2311 1.384 . S
N2315 C2307 1.427 . S
N2315 C2313 1.384 . S
H2316 C2322 0.930 . S
H2317 C2326 0.930 . S
H2318 C2331 0.929 . S
H2319 C2329 0.929 . S
H2320 C2324 0.929 . S
H2321 C2330 0.929 . S
C2322 H2316 0.930 . S
C2322 C2323 1.367 . S
C2322 C2330 1.378 . S
C2323 C2322 1.367 . S
C2323 C2331 1.433 1_545 S
C2324 H2320 0.929 . S
C2324 C2326 1.378 . S
C2324 C2328 1.350 1_565 S
C2325 C2328 1.463 . S
C2325 C2330 1.350 . S
C2325 N2333 1.427 1_545 S
C2326 H2317 0.930 . S
C2326 C2324 1.378 . S
C2326 C2327 1.367 1_565 S
C2327 C2326 1.367 1_545 S
C2327 C2329 1.433 . S
C2328 C2324 1.350 1_545 S
C2328 C2325 1.463 . S
C2328 N2332 1.427 . S
C2329 H2319 0.929 . S
C2329 C2327 1.433 . S
C2329 N2332 1.384 . S
C2330 H2321 0.929 . S
C2330 C2322 1.378 . S
C2330 C2325 1.350 . S
C2331 H2318 0.929 . S
C2331 C2323 1.433 1_565 S
C2331 N2333 1.384 . S
N2332 C2328 1.427 . S
N2332 C2329 1.384 . S
N2333 C2325 1.427 1_565 S
N2333 C2331 1.384 . S
H2334 C2340 0.930 . S
H2335 C2344 0.930 . S
H2336 C2349 0.929 . S
H2337 C2347 0.929 . S
H2338 C2342 0.929 . S
H2339 C2348 0.929 . S
C2340 H2334 0.930 . S
C2340 C2341 1.367 . S
C2340 C2348 1.378 . S
C2341 C2340 1.367 . S
C2341 C2349 1.433 . S
C2342 H2338 0.929 . S
C2342 C2344 1.378 . S
C2342 C2346 1.350 . S
C2343 C2346 1.463 . S
C2343 C2348 1.350 . S
C2343 N2351 1.427 . S
C2344 H2335 0.930 . S
C2344 C2342 1.378 . S
C2344 C2345 1.367 . S
C2345 C2344 1.367 . S
C2345 C2347 1.433 . S
C2346 C2342 1.350 . S
C2346 C2343 1.463 . S
C2346 N2350 1.427 . S
C2347 H2337 0.929 . S
C2347 C2345 1.433 . S
C2347 N2350 1.384 . S
C2348 H2339 0.929 . S
C2348 C2340 1.378 . S
C2348 C2343 1.350 . S
C2349 H2336 0.929 . S
C2349 C2341 1.433 . S
C2349 N2351 1.384 . S
N2350 C2346 1.427 . S
N2350 C2347 1.384 . S
N2351 C2343 1.427 . S
N2351 C2349 1.384 . S
H2352 C2358 0.930 . S
H2353 C2362 0.930 . S
H2354 C2367 0.929 . S
H2355 C2365 0.929 . S
H2356 C2360 0.929 . S
H2357 C2366 0.929 . S
C2358 H2352 0.930 . S
C2358 C2359 1.367 . S
C2358 C2366 1.378 . S
C2359 C2358 1.367 . S
C2359 C2367 1.433 . S
C2360 H2356 0.929 . S
C2360 C2362 1.378 . S
C2360 C2364 1.350 . S
C2361 C2364 1.463 . S
C2361 C2366 1.350 . S
C2361 N2369 1.427 . S
C2362 H2353 0.930 . S
C2362 C2360 1.378 . S
C2362 C2363 1.367 . S
C2363 C2362 1.367 . S
C2363 C2365 1.433 . S
C2364 C2360 1.350 . S
C2364 C2361 1.463 . S
C2364 N2368 1.427 . S
C2365 H2355 0.929 . S
C2365 C2363 1.433 . S
C2365 N2368 1.384 . S
C2366 H2357 0.929 . S
C2366 C2358 1.378 . S
C2366 C2361 1.350 . S
C2367 H2354 0.929 . S
C2367 C2359 1.433 . S
C2367 N2369 1.384 . S
N2368 C2364 1.427 . S
N2368 C2365 1.384 . S
N2369 C2361 1.427 . S
N2369 C2367 1.384 . S
H2370 C2376 0.930 . S
H2371 C2380 0.930 . S
H2372 C2385 0.929 . S
H2373 C2383 0.929 . S
H2374 C2378 0.929 . S
H2375 C2384 0.929 . S
C2376 H2370 0.930 . S
C2376 C2377 1.367 . S
C2376 C2384 1.378 . S
C2377 C2376 1.367 . S
C2377 C2385 1.433 . S
C2378 H2374 0.929 . S
C2378 C2380 1.378 . S
C2378 C2382 1.350 . S
C2379 C2382 1.463 . S
C2379 C2384 1.350 . S
C2379 N2387 1.427 . S
C2380 H2371 0.930 . S
C2380 C2378 1.378 . S
C2380 C2381 1.367 . S
C2381 C2380 1.367 . S
C2381 C2383 1.433 . S
C2382 C2378 1.350 . S
C2382 C2379 1.463 . S
C2382 N2386 1.427 . S
C2383 H2373 0.929 . S
C2383 C2381 1.433 . S
C2383 N2386 1.384 . S
C2384 H2375 0.929 . S
C2384 C2376 1.378 . S
C2384 C2379 1.350 . S
C2385 H2372 0.929 . S
C2385 C2377 1.433 . S
C2385 N2387 1.384 . S
N2386 C2382 1.427 . S
N2386 C2383 1.384 . S
N2387 C2379 1.427 . S
N2387 C2385 1.384 . S
H2388 C2394 0.930 . S
H2389 C2398 0.930 . S
H2390 C2403 0.929 . S
H2391 C2401 0.929 . S
H2392 C2396 0.929 . S
H2393 C2402 0.929 . S
C2394 H2388 0.930 . S
C2394 C2395 1.367 . S
C2394 C2402 1.378 . S
C2395 C2394 1.367 . S
C2395 C2403 1.433 . S
C2396 H2392 0.929 . S
C2396 C2398 1.378 . S
C2396 C2400 1.350 . S
C2397 C2400 1.463 . S
C2397 C2402 1.350 . S
C2397 N2405 1.427 . S
C2398 H2389 0.930 . S
C2398 C2396 1.378 . S
C2398 C2399 1.367 . S
C2399 C2398 1.367 . S
C2399 C2401 1.433 . S
C2400 C2396 1.350 . S
C2400 C2397 1.463 . S
C2400 N2404 1.427 . S
C2401 H2391 0.929 . S
C2401 C2399 1.433 . S
C2401 N2404 1.384 . S
C2402 H2393 0.929 . S
C2402 C2394 1.378 . S
C2402 C2397 1.350 . S
C2403 H2390 0.929 . S
C2403 C2395 1.433 . S
C2403 N2405 1.384 . S
N2404 C2400 1.427 . S
N2404 C2401 1.384 . S
N2405 C2397 1.427 . S
N2405 C2403 1.384 . S
H2406 C2412 0.930 . S
H2407 C2416 0.930 . S
H2408 C2421 0.929 . S
H2409 C2419 0.929 . S
H2410 C2414 0.929 . S
H2411 C2420 0.929 . S
C2412 H2406 0.930 . S
C2412 C2413 1.367 . S
C2412 C2420 1.378 . S
C2413 C2412 1.367 . S
C2413 C2421 1.433 . S
C2414 H2410 0.929 . S
C2414 C2416 1.378 . S
C2414 C2418 1.350 . S
C2415 C2418 1.463 . S
C2415 C2420 1.350 . S
C2415 N2423 1.427 . S
C2416 H2407 0.930 . S
C2416 C2414 1.378 . S
C2416 C2417 1.367 . S
C2417 C2416 1.367 . S
C2417 C2419 1.433 . S
C2418 C2414 1.350 . S
C2418 C2415 1.463 . S
C2418 N2422 1.427 . S
C2419 H2409 0.929 . S
C2419 C2417 1.433 . S
C2419 N2422 1.384 . S
C2420 H2411 0.929 . S
C2420 C2412 1.378 . S
C2420 C2415 1.350 . S
C2421 H2408 0.929 . S
C2421 C2413 1.433 . S
C2421 N2423 1.384 . S
N2422 C2418 1.427 . S
N2422 C2419 1.384 . S
N2423 C2415 1.427 . S
N2423 C2421 1.384 . S
H2424 C2430 0.930 1_545 S
H2425 C2434 0.930 . S
H2426 C2439 0.929 . S
H2427 C2437 0.929 1_545 S
H2428 C2432 0.929 . S
H2429 C2438 0.929 1_545 S
C2430 H2424 0.930 1_565 S
C2430 C2431 1.367 . S
C2430 C2438 1.378 . S
C2431 C2430 1.367 . S
C2431 C2439 1.433 . S
C2432 H2428 0.929 . S
C2432 C2434 1.378 . S
C2432 C2436 1.350 . S
C2433 C2436 1.463 . S
C2433 C2438 1.350 . S
C2433 N2441 1.427 . S
C2434 H2425 0.930 . S
C2434 C2432 1.378 . S
C2434 C2435 1.367 . S
C2435 C2434 1.367 . S
C2435 C2437 1.433 . S
C2436 C2432 1.350 . S
C2436 C2433 1.463 . S
C2436 N2440 1.427 . S
C2437 H2427 0.929 1_565 S
C2437 C2435 1.433 . S
C2437 N2440 1.384 . S
C2438 H2429 0.929 1_565 S
C2438 C2430 1.378 . S
C2438 C2433 1.350 . S
C2439 H2426 0.929 . S
C2439 C2431 1.433 . S
C2439 N2441 1.384 . S
N2440 C2436 1.427 . S
N2440 C2437 1.384 . S
N2441 C2433 1.427 . S
N2441 C2439 1.384 . S
H2442 C2448 0.930 . S
H2443 C2452 0.930 . S
H2444 C2457 0.929 . S
H2445 C2455 0.929 . S
H2446 C2450 0.929 . S
H2447 C2456 0.929 . S
C2448 H2442 0.930 . S
C2448 C2449 1.367 . S
C2448 C2456 1.378 . S
C2449 C2448 1.367 . S
C2449 C2457 1.433 . S
C2450 H2446 0.929 . S
C2450 C2452 1.378 . S
C2450 C2454 1.350 . S
C2451 C2454 1.463 . S
C2451 C2456 1.350 . S
C2451 N2459 1.427 . S
C2452 H2443 0.930 . S
C2452 C2450 1.378 . S
C2452 C2453 1.367 . S
C2453 C2452 1.367 . S
C2453 C2455 1.433 . S
C2454 C2450 1.350 . S
C2454 C2451 1.463 . S
C2454 N2458 1.427 . S
C2455 H2445 0.929 . S
C2455 C2453 1.433 . S
C2455 N2458 1.384 . S
C2456 H2447 0.929 . S
C2456 C2448 1.378 . S
C2456 C2451 1.350 . S
C2457 H2444 0.929 . S
C2457 C2449 1.433 . S
C2457 N2459 1.384 . S
N2458 C2454 1.427 . S
N2458 C2455 1.384 . S
N2459 C2451 1.427 . S
N2459 C2457 1.384 . S
H2460 C2466 0.930 . S
H2461 C2470 0.930 . S
H2462 C2475 0.929 . S
H2463 C2473 0.929 . S
H2464 C2468 0.929 . S
H2465 C2474 0.929 . S
C2466 H2460 0.930 . S
C2466 C2467 1.367 . S
C2466 C2474 1.378 . S
C2467 C2466 1.367 . S
C2467 C2475 1.433 1_545 S
C2468 H2464 0.929 . S
C2468 C2470 1.378 . S
C2468 C2472 1.350 1_565 S
C2469 C2472 1.463 . S
C2469 C2474 1.350 . S
C2469 N2477 1.427 1_545 S
C2470 H2461 0.930 . S
C2470 C2468 1.378 . S
C2470 C2471 1.367 1_565 S
C2471 C2470 1.367 1_545 S
C2471 C2473 1.433 . S
C2472 C2468 1.350 1_545 S
C2472 C2469 1.463 . S
C2472 N2476 1.427 . S
C2473 H2463 0.929 . S
C2473 C2471 1.433 . S
C2473 N2476 1.384 . S
C2474 H2465 0.929 . S
C2474 C2466 1.378 . S
C2474 C2469 1.350 . S
C2475 H2462 0.929 . S
C2475 C2467 1.433 1_565 S
C2475 N2477 1.384 . S
N2476 C2472 1.427 . S
N2476 C2473 1.384 . S
N2477 C2469 1.427 1_565 S
N2477 C2475 1.384 . S
H2478 C2484 0.930 . S
H2479 C2488 0.930 . S
H2480 C2493 0.929 . S
H2481 C2491 0.929 . S
H2482 C2486 0.929 . S
H2483 C2492 0.929 . S
C2484 H2478 0.930 . S
C2484 C2485 1.367 . S
C2484 C2492 1.378 . S
C2485 C2484 1.367 . S
C2485 C2493 1.433 . S
C2486 H2482 0.929 . S
C2486 C2488 1.378 . S
C2486 C2490 1.350 . S
C2487 C2490 1.463 . S
C2487 C2492 1.350 . S
C2487 N2495 1.427 . S
C2488 H2479 0.930 . S
C2488 C2486 1.378 . S
C2488 C2489 1.367 . S
C2489 C2488 1.367 . S
C2489 C2491 1.433 . S
C2490 C2486 1.350 . S
C2490 C2487 1.463 . S
C2490 N2494 1.427 . S
C2491 H2481 0.929 . S
C2491 C2489 1.433 . S
C2491 N2494 1.384 . S
C2492 H2483 0.929 . S
C2492 C2484 1.378 . S
C2492 C2487 1.350 . S
C2493 H2480 0.929 . S
C2493 C2485 1.433 . S
C2493 N2495 1.384 . S
N2494 C2490 1.427 . S
N2494 C2491 1.384 . S
N2495 C2487 1.427 . S
N2495 C2493 1.384 . S
C1063 C28 0.955 . S
C1067 C94 0.948 . S
C1081 C127 0.954 . S
C1085 C61 0.949 . S
C1099 C160 0.957 . S
C1103 C226 0.952 . S
C1117 C259 0.950 . S
C1121 C193 0.952 . S
C1135 C292 0.955 . S
C1139 C358 0.949 . S
C1153 C391 0.953 . S
C1157 C325 0.949 . S
C1171 C424 0.957 . S
C1175 C490 0.952 . S
C1189 C523 0.949 . S
C1193 C457 0.954 . S
C1207 C622 0.952 . S
C1211 C556 0.950 . S
C1225 C655 0.949 . S
C1229 C589 0.957 . S
C1243 C688 0.956 . S
C1247 C754 0.952 . S
C1261 C721 0.951 . S
C1265 C787 0.957 . S
C1279 C886 0.952 . S
C1283 C820 0.957 . S
C1297 C919 0.954 . S
C1301 C853 0.955 . S
C1315 C952 0.949 . S
C1319 C1018 0.954 . S
C1333 C985 0.956 . S
C1337 C1051 0.948 . S
C1351 N14 1.598 . S
C1355 N146 1.598 . S
C1369 N47 1.594 . S
C1373 N971 1.594 . S
C1387 N476 1.597 . S
C1391 N80 1.597 . S
C1405 N773 1.597 . S
C1409 N113 1.597 . S
C1423 N179 1.589 . S
C1427 N839 1.589 . S
C1441 N344 1.593 . S
C1445 N212 1.593 . S
C1459 N245 1.594 . S
C1463 N641 1.594 . S
C1477 N278 1.595 . S
C1481 N410 1.595 . S
C1495 N311 1.597 . S
C1499 N707 1.597 . S
C1513 N1037 1.592 . S
C1517 N377 1.592 . S
C1531 N575 1.596 . S
C1535 N443 1.596 . S
C1549 N509 1.596 . S
C1553 N905 1.596 . S
C1567 N542 1.591 . S
C1571 N674 1.591 . S
C1585 N608 1.597 . S
C1589 N1004 1.597 . S
C1603 N740 1.595 . S
C1607 N872 1.595 . S
C1621 N938 1.593 . S
C1625 N806 1.593 . S
C1639 C17 1.368 . S
C1643 C347 1.363 . S
C1657 C50 1.368 . S
C1661 C380 1.363 . S
C1675 C83 1.363 1_556 S
C1679 C281 1.369 . S
C1693 C314 1.366 . S
C1697 C116 1.366 1_556 S
C1711 C149 1.364 . S
C1715 C479 1.367 . S
C1729 C182 1.363 . S
C1733 C512 1.368 . S
C1747 C215 1.367 1_554 S
C1751 C413 1.366 . S
C1765 C446 1.365 . S
C1769 C248 1.366 1_554 S
C1783 C875 1.364 1_556 S
C1787 C545 1.368 . S
C1801 C578 1.365 . S
C1805 C908 1.368 1_556 S
C1819 C611 1.367 . S
C1823 C809 1.364 . S
C1837 C842 1.364 . S
C1841 C644 1.368 . S
C1855 C677 1.368 . S
C1859 C1007 1.365 1_554 S
C1873 C1040 1.369 1_554 S
C1877 C710 1.363 . S
C1891 C941 1.364 . S
C1895 C743 1.366 . S
C1909 C776 1.364 . S
C1913 C974 1.366 . S
C1927 C338 1.793 . S
C1931 C8 1.793 1_556 S
C1945 C41 1.794 1_556 S
C1949 C371 1.794 . S
C1963 C272 1.795 . S
C1967 C74 1.795 . S
C1981 C305 1.799 . S
C1985 C107 1.799 . S
C1999 C140 1.795 1_554 S
C2003 C470 1.795 . S
C2017 C173 1.794 1_554 S
C2021 C503 1.794 . S
C2035 C404 1.799 . S
C2039 C206 1.799 . S
C2053 C239 1.798 . S
C2057 C437 1.798 . S
C2071 C536 1.793 . S
C2075 C866 1.793 . S
C2089 C899 1.798 . S
C2093 C569 1.798 . S
C2107 C800 1.794 1_556 S
C2111 C602 1.794 . S
C2125 C635 1.799 . S
C2129 C833 1.799 1_556 S
C2143 C668 1.799 . S
C2147 C998 1.799 . S
C2161 C701 1.797 . S
C2165 C1031 1.797 . S
C2179 C734 1.793 . S
C2183 C932 1.793 1_554 S
C2197 C767 1.799 . S
C2201 C965 1.799 1_554 S
C2215 N104 1.501 . S
C2219 N5 1.499 . S
C2233 N71 1.500 . S
C2237 N38 1.499 . S
C2251 N137 1.503 . S
C2255 N236 1.499 . S
C2269 N203 1.503 . S
C2273 N170 1.499 . S
C2287 N368 1.512 . S
C2291 N269 1.507 . S
C2305 N335 1.509 . S
C2309 N302 1.502 . S
C2323 N500 1.501 . S
C2327 N401 1.508 . S
C2341 N434 1.499 . S
C2345 N467 1.500 . S
C2359 N632 1.502 . S
C2363 N533 1.509 . S
C2377 N599 1.499 . S
C2381 N566 1.500 . S
C2395 N665 1.508 . S
C2399 N764 1.501 . S
C2413 N731 1.507 . S
C2417 N698 1.512 . S
C2431 N896 1.512 . S
C2435 N797 1.508 . S
C2449 N863 1.510 . S
C2453 N830 1.512 . S
C2467 N1028 1.500 . S
C2471 N929 1.506 . S
C2485 N995 1.504 . S
C2489 N962 1.499 . S
