# Generated by pormake.
# Topology wjl, (5)-cn, num edge types: 1
# Building blocks:
#     Node 0, Type 0, BuildingBlock: XOMCOT_clean_sbu_1, # of connection points: 5
#     Node 1, Type 0, BuildingBlock: XOMCOT_clean_sbu_1, # of connection points: 5
#     Node 2, Type 0, BuildingBlock: XOMCOT_clean_sbu_1, # of connection points: 5
#     Node 3, Type 0, BuildingBlock: XOMCOT_clean_sbu_1, # of connection points: 5
#     Node 4, Type 0, BuildingBlock: XOMCOT_clean_sbu_1, # of connection points: 5
#     Node 5, Type 0, BuildingBlock: XOMCOT_clean_sbu_1, # of connection points: 5
#     Node 6, Type 0, BuildingBlock: XOMCOT_clean_sbu_1, # of connection points: 5
#     Node 7, Type 0, BuildingBlock: XOMCOT_clean_sbu_1, # of connection points: 5
#     Node 8, Type 0, BuildingBlock: XOMCOT_clean_sbu_1, # of connection points: 5
#     Node 9, Type 0, BuildingBlock: XOMCOT_clean_sbu_1, # of connection points: 5
#     Node 10, Type 0, BuildingBlock: XOMCOT_clean_sbu_1, # of connection points: 5
#     Node 11, Type 0, BuildingBlock: XOMCOT_clean_sbu_1, # of connection points: 5
#     Edge 12, Type (0, 0), BuildingBlock: CIFDUS_clean_linker_0, # of connection points: 2
#     Edge 13, Type (0, 0), BuildingBlock: CIFDUS_clean_linker_0, # of connection points: 2
#     Edge 14, Type (0, 0), BuildingBlock: CIFDUS_clean_linker_0, # of connection points: 2
#     Edge 15, Type (0, 0), BuildingBlock: CIFDUS_clean_linker_0, # of connection points: 2
#     Edge 16, Type (0, 0), BuildingBlock: CIFDUS_clean_linker_0, # of connection points: 2
#     Edge 17, Type (0, 0), BuildingBlock: CIFDUS_clean_linker_0, # of connection points: 2
#     Edge 18, Type (0, 0), BuildingBlock: CIFDUS_clean_linker_0, # of connection points: 2
#     Edge 19, Type (0, 0), BuildingBlock: CIFDUS_clean_linker_0, # of connection points: 2
#     Edge 20, Type (0, 0), BuildingBlock: CIFDUS_clean_linker_0, # of connection points: 2
#     Edge 21, Type (0, 0), BuildingBlock: CIFDUS_clean_linker_0, # of connection points: 2
#     Edge 22, Type (0, 0), BuildingBlock: CIFDUS_clean_linker_0, # of connection points: 2
#     Edge 23, Type (0, 0), BuildingBlock: CIFDUS_clean_linker_0, # of connection points: 2
#     Edge 24, Type (0, 0), BuildingBlock: CIFDUS_clean_linker_0, # of connection points: 2
#     Edge 25, Type (0, 0), BuildingBlock: CIFDUS_clean_linker_0, # of connection points: 2
#     Edge 26, Type (0, 0), BuildingBlock: CIFDUS_clean_linker_0, # of connection points: 2
#     Edge 27, Type (0, 0), BuildingBlock: CIFDUS_clean_linker_0, # of connection points: 2
#     Edge 28, Type (0, 0), BuildingBlock: CIFDUS_clean_linker_0, # of connection points: 2
#     Edge 29, Type (0, 0), BuildingBlock: CIFDUS_clean_linker_0, # of connection points: 2
#     Edge 30, Type (0, 0), BuildingBlock: CIFDUS_clean_linker_0, # of connection points: 2
#     Edge 31, Type (0, 0), BuildingBlock: CIFDUS_clean_linker_0, # of connection points: 2
#     Edge 32, Type (0, 0), BuildingBlock: CIFDUS_clean_linker_0, # of connection points: 2
#     Edge 33, Type (0, 0), BuildingBlock: CIFDUS_clean_linker_0, # of connection points: 2
#     Edge 34, Type (0, 0), BuildingBlock: CIFDUS_clean_linker_0, # of connection points: 2
#     Edge 35, Type (0, 0), BuildingBlock: CIFDUS_clean_linker_0, # of connection points: 2
#     Edge 36, Type (0, 0), BuildingBlock: CIFDUS_clean_linker_0, # of connection points: 2
#     Edge 37, Type (0, 0), BuildingBlock: CIFDUS_clean_linker_0, # of connection points: 2
#     Edge 38, Type (0, 0), BuildingBlock: CIFDUS_clean_linker_0, # of connection points: 2
#     Edge 39, Type (0, 0), BuildingBlock: CIFDUS_clean_linker_0, # of connection points: 2
#     Edge 40, Type (0, 0), BuildingBlock: CIFDUS_clean_linker_0, # of connection points: 2
#     Edge 41, Type (0, 0), BuildingBlock: CIFDUS_clean_linker_0, # of connection points: 2
# Relax obj value: 0.448
# Max RMSD: 0.224
# Mean RMSD: 0.224
data_MOF--net-wjl--node1-XOMCOT_clean_sbu_1--edge1-CIFDUS_clean_linker_0
_symmetry_space_group_name_H-M    P1
_symmetry_Int_Tables_number       1
_symmetry_cell_setting            triclinic
loop_
_symmetry_equiv_pos_as_xyz
'x, y, z'
_cell_length_a     22.953313
_cell_length_b     23.026303
_cell_length_c     78.725858
_cell_angle_alpha  89.693636
_cell_angle_beta   90.450828
_cell_angle_gamma 119.84133
loop_
_atom_site_label
_atom_site_type_symbol
_atom_site_fract_x
_atom_site_fract_y
_atom_site_fract_z
_atom_type_partial_charge
C0 C 0.36694 0.30207 0.35596 0.0
C1 C 0.41277 0.3239 0.36918 0.0
N2 N 0.47003 0.37745 0.36375 0.0
N3 N 0.39533 0.34238 0.34245 0.0
C4 C 0.45826 0.38649 0.34747 0.0
H5 H 0.31565 0.26122 0.35635 0.0
Co6 Co 0.35962 0.34298 0.32139 0.0
C7 C 0.40471 0.48842 0.31667 0.0
O8 O 0.34447 0.47462 0.31169 0.0
N9 N 0.32424 0.34367 0.29946 0.0
C10 C 0.26112 0.34244 0.27753 0.0
C11 C 0.26973 0.34855 0.29485 0.0
C12 C 0.34838 0.33624 0.28449 0.0
N13 N 0.31099 0.3351 0.2711 0.0
O14 O 0.4303 0.3325 0.31181 0.0
H15 H 0.23733 0.35586 0.30336 0.0
H16 H 0.3909 0.32857 0.28326 0.0
O17 O 0.41608 0.44088 0.32047 0.0
C18 C 0.41615 0.27141 0.31185 0.0
O19 O 0.35397 0.22507 0.31508 0.0
N20 N 0.28911 0.34676 0.33223 0.0
C21 C 0.18536 0.32513 0.35426 0.0
C22 C 0.24786 0.38431 0.35513 0.0
C23 C 0.29925 0.39384 0.34414 0.0
C24 C 0.22862 0.28927 0.33108 0.0
C25 C 0.17551 0.27829 0.34161 0.0
H26 H 0.3487 0.43613 0.34633 0.0
H27 H 0.22245 0.25048 0.32234 0.0
H28 H 0.49471 0.42528 0.33932 0.0
H29 H 0.40344 0.30403 0.38197 0.0
H30 H 0.22057 0.34184 0.27027 0.0
H31 H 0.25909 0.42067 0.3651 0.0
H32 H 0.1283 0.23188 0.34041 0.0
C33 C 0.15813 0.39713 0.51887 0.0
C34 C 0.17609 0.43306 0.53374 0.0
N35 N 0.13763 0.46169 0.53539 0.0
N36 N 0.10882 0.40336 0.51117 0.0
C37 C 0.09675 0.44218 0.52168 0.0
H38 H 0.17988 0.36845 0.51397 0.0
Co39 Co 0.06919 0.36544 0.49049 0.0
C40 C 0.06844 0.49459 0.48546 0.0
O41 O 0.13423 0.52934 0.48446 0.0
N42 N 0.03013 0.3269 0.46971 0.0
C43 C 0.97548 0.25253 0.44938 0.0
C44 C 0.98457 0.26223 0.46662 0.0
C45 C 0.04769 0.35551 0.45421 0.0
N46 N 1.01587 0.31118 0.44155 0.0
O47 O 0.15514 0.42105 0.47978 0.0
H48 H 0.96184 0.22361 0.47619 0.0
H49 H 0.08697 0.40675 0.45222 0.0
O50 O 0.03944 0.43125 0.48739 0.0
C51 C 0.18736 0.38936 0.47822 0.0
O52 O 0.1549 0.32457 0.48119 0.0
N53 N 0.98951 0.30833 0.50168 0.0
C54 C 0.88538 0.22817 0.52345 0.0
C55 C 0.8782 0.27068 0.51188 0.0
C56 C 0.9307 0.30952 0.50074 0.0
C57 C 0.99527 0.26384 0.512 0.0
C58 C 0.94377 0.22321 0.52301 0.0
H59 H 0.92438 0.34086 0.49159 0.0
H60 H 0.04147 0.26203 0.51215 0.0
H61 H 0.05809 0.4552 0.51947 0.0
H62 H 0.21526 0.43874 0.54247 0.0
H63 H 0.94411 0.20511 0.44312 0.0
H64 H 0.83313 0.27468 0.51168 0.0
H65 H 0.95122 0.19103 0.53178 0.0
C66 C 0.75671 0.13703 0.69009 0.0
C67 C 0.72814 0.14723 0.70424 0.0
N68 N 0.66145 0.11866 0.70148 0.0
N69 N 0.70824 0.10217 0.67852 0.0
C70 C 0.6509 0.09201 0.68578 0.0
H71 H 0.80925 0.15281 0.68844 0.0
Co72 Co 0.72184 0.07249 0.65795 0.0
C73 C 0.58753 0.97032 0.64542 0.0
O74 O 0.61641 0.93656 0.64034 0.0
N75 N 0.73749 0.04389 0.63671 0.0
C76 C 0.76582 0.9993 0.61551 0.0
C77 C 0.76184 1.00281 0.63279 0.0
C78 C 0.72678 0.06409 0.62139 0.0
N79 N 0.74394 0.03806 0.6083 0.0
O80 O 0.74129 0.15746 0.648 0.0
H81 H 0.7764 0.97643 0.64161 0.0
H82 H 0.70696 0.0977 0.61988 0.0
O83 O 0.62362 0.02785 0.65243 0.0
C84 C 0.80525 0.19464 0.64879 0.0
O85 O 0.84034 0.16646 0.65364 0.0
N86 N 0.7122 0.9964 0.66926 0.0
C87 C 0.72339 0.91151 0.69299 0.0
C88 C 0.66132 0.90814 0.6899 0.0
C89 C 0.65684 0.95127 0.67807 0.0
C90 C 0.7729 1.00141 0.67244 0.0
C91 C 0.77906 0.95759 0.68354 0.0
H92 H 0.61022 0.95184 0.67719 0.0
H93 H 0.81752 0.04115 0.66657 0.0
H94 H 0.60188 0.0632 0.68001 0.0
H95 H 0.7544 0.17322 0.71568 0.0
H96 H 0.78618 0.97244 0.60884 0.0
H97 H 0.61737 0.87592 0.69734 0.0
H98 H 0.82806 0.96227 0.68518 0.0
C99 C 0.62218 0.7513 0.85516 0.0
C100 C 0.57826 0.73384 0.86855 0.0
N101 N 0.53249 0.66823 0.86713 0.0
N102 N 0.60434 0.69679 0.84552 0.0
C103 C 0.5496 0.64725 0.85307 0.0
H104 H 0.66385 0.80063 0.85246 0.0
Co105 Co 0.64262 0.69519 0.82521 0.0
C106 C 0.59298 0.55076 0.81852 0.0
O107 O 0.6538 0.56655 0.81377 0.0
N108 N 0.68161 0.69513 0.80385 0.0
C109 C 0.75043 0.70322 0.7829 0.0
C110 C 0.74002 0.69674 0.80011 0.0
C111 C 0.65681 0.69834 0.78841 0.0
N112 N 0.69798 0.70429 0.7756 0.0
O113 O 0.57878 0.71483 0.81453 0.0
H114 H 0.77403 0.69364 0.80908 0.0
H115 H 0.61106 0.70004 0.78645 0.0
O116 O 0.58082 0.59721 0.82296 0.0
C117 C 0.60153 0.77729 0.81196 0.0
O118 O 0.66661 0.8182 0.81316 0.0
N119 N 0.70675 0.68325 0.83741 0.0
C120 C 0.80451 0.68465 0.8592 0.0
C121 C 0.73832 0.63055 0.85914 0.0
C122 C 0.69022 0.63114 0.84833 0.0
C123 C 0.76942 0.73815 0.83805 0.0
C124 C 0.81967 0.73895 0.84835 0.0
H125 H 0.63893 0.59121 0.84951 0.0
H126 H 0.78057 0.78152 0.83036 0.0
H127 H 0.52329 0.59624 0.84856 0.0
H128 H 0.57984 0.76693 0.87848 0.0
H129 H 0.79429 0.70918 0.7763 0.0
H130 H 0.72251 0.58919 0.86794 0.0
H131 H 0.86954 0.78228 0.8479 0.0
C132 C 0.97498 0.67999 0.01827 0.0
C133 C 0.95252 0.63885 0.03228 0.0
N134 N 0.96425 0.58755 0.0299 0.0
N135 N 1.001 0.65502 0.00712 0.0
C136 C 0.99375 0.59887 0.01453 0.0
H137 H 0.97072 0.72414 0.0161 0.0
Co138 Co 0.02978 0.68706 0.98538 0.0
C139 C 0.06156 0.58468 0.97296 0.0
O140 O 0.01822 0.56954 0.96043 0.0
N141 N 0.05822 0.72005 0.96317 0.0
C142 C 0.11645 0.78103 0.94083 0.0
C143 C 0.12003 0.76641 0.95768 0.0
C144 C 0.01866 0.70636 0.94925 0.0
N145 N 0.05263 0.74256 0.93563 0.0
O146 O 0.9442 0.6172 0.97718 0.0
H147 H 0.16492 0.79006 0.96543 0.0
H148 H 0.9651 0.6726 0.94906 0.0
O149 O 0.07025 0.6303 0.98344 0.0
C150 C 0.89811 0.63281 0.97816 0.0
O151 O 0.91548 0.69466 0.98222 0.0
N152 N 0.10876 0.75687 -0.00535 0.0
C153 C 0.19969 0.85129 0.01726 0.0
C154 C 0.2098 0.79989 0.01118 0.0
C155 C 0.16347 0.75282 -0.00011 0.0
C156 C 0.10236 0.81065 -0.00111 0.0
C157 C 0.14731 0.85862 0.01026 0.0
H158 H 0.17013 0.71159 -0.00369 0.0
H159 H 0.05867 0.813 -0.00539 0.0
H160 H 1.00902 0.5664 0.00864 0.0
H161 H 0.92772 0.64553 0.0431 0.0
H162 H 0.15705 0.8177 0.93309 0.0
H163 H 0.2505 0.79338 0.01602 0.0
H164 H 0.13744 0.89737 0.01465 0.0
C165 C 0.24106 0.89532 0.19665 0.0
C166 C 0.26138 0.88574 0.21241 0.0
N167 N 0.32752 0.90625 0.21173 0.0
N168 N 0.29407 0.92169 0.1861 0.0
C169 C 0.34586 0.92751 0.19561 0.0
H170 H 0.19113 0.88501 0.19318 0.0
Co171 Co 0.29287 0.94774 0.16381 0.0
C172 C 0.43539 0.03744 0.15519 0.0
O173 O 0.41841 0.07902 0.1483 0.0
N174 N 0.29064 0.97309 0.14084 0.0
C175 C 0.28005 0.01786 0.11663 0.0
C176 C 0.28 0.02118 0.13402 0.0
C177 C 0.29854 0.94253 0.12712 0.0
N178 N 0.29136 0.96797 0.11225 0.0
O179 O 0.27304 0.86009 0.15667 0.0
H180 H 0.27272 0.05731 0.1409 0.0
H181 H 0.30929 0.90197 0.128 0.0
O182 O 0.39014 0.98242 0.16172 0.0
C183 C 0.20947 0.82162 0.15668 0.0
O184 O 0.17155 0.84849 0.15944 0.0
N185 N 0.30421 0.02865 0.17218 0.0
C186 C 0.29234 0.12392 0.19142 0.0
C187 C 0.3517 0.12023 0.19184 0.0
C188 C 0.35645 0.072 0.18224 0.0
C189 C 0.24588 0.03064 0.17187 0.0
C190 C 0.23986 0.07949 0.18075 0.0
H191 H 0.39986 0.06618 0.18414 0.0
H192 H 0.20293 0.99267 0.16497 0.0
H193 H 0.39675 0.94953 0.19103 0.0
H194 H 0.22988 0.86571 0.22349 0.0
H195 H 0.26997 0.04846 0.10796 0.0
H196 H 0.39254 0.15078 0.20044 0.0
H197 H 0.19309 0.08004 0.17982 0.0
C198 C 0.77385 0.68637 0.4491 0.0
C199 C 0.76817 0.65426 0.43395 0.0
N200 N 0.72058 0.58943 0.43573 0.0
N201 N 0.72919 0.64201 0.46017 0.0
C202 C 0.6985 0.5834 0.45178 0.0
H203 H 0.80623 0.7391 0.45169 0.0
Co204 Co 0.71069 0.65867 0.48179 0.0
C205 C 0.58281 0.52793 0.48673 0.0
O206 O 0.61105 0.50349 0.49688 0.0
N207 N 0.69181 0.67498 0.50362 0.0
C208 C 0.63569 0.67728 0.52627 0.0
C209 C 0.63373 0.6703 0.5089 0.0
C210 C 0.72896 0.68664 0.51787 0.0
N211 N 0.69572 0.68781 0.53179 0.0
O212 O 0.74404 0.60165 0.49045 0.0
H213 H 0.59149 0.65973 0.50074 0.0
H214 H 0.77787 0.69045 0.51821 0.0
O215 O 0.61822 0.58555 0.4801 0.0
C216 C 0.80825 0.63204 0.49 0.0
O217 O 0.84014 0.69625 0.4863 0.0
N218 N 0.684 0.71721 0.47264 0.0
C219 C 0.67046 0.81217 0.45349 0.0
C220 C 0.62749 0.74349 0.45078 0.0
C221 C 0.63531 0.69688 0.46039 0.0
C222 C 0.72375 0.7835 0.47621 0.0
C223 C 0.71761 0.83199 0.46682 0.0
H224 H 0.60579 0.64481 0.45688 0.0
H225 H 0.76314 0.79898 0.48566 0.0
H226 H 0.65766 0.53786 0.45697 0.0
H227 H 0.79478 0.67736 0.42234 0.0
H228 H 0.59567 0.67315 0.53428 0.0
H229 H 0.59156 0.72558 0.4404 0.0
H230 H 0.75159 0.88445 0.46943 0.0
C231 C 0.10474 0.78654 0.61451 0.0
C232 C 0.1209 0.77452 0.59859 0.0
N233 N 0.11856 0.71488 0.59898 0.0
N234 N 0.09175 0.73441 0.62475 0.0
C235 C 0.10115 0.69197 0.61498 0.0
H236 H 0.10086 0.82958 0.61829 0.0
Co237 Co 0.06171 0.72305 0.64688 0.0
C238 C 0.05348 0.59132 0.65347 0.0
O239 O 0.10689 0.61974 0.66332 0.0
N240 N 0.03086 0.71188 0.6691 0.0
C241 C 0.97141 0.66833 0.6926 0.0
C242 C 0.97688 0.6576 0.67567 0.0
C243 C 0.0564 0.75542 0.68214 0.0
N244 N 0.0214 0.73 0.69658 0.0
O245 O 0.15151 0.74803 0.65448 0.0
H246 H 0.94361 0.61285 0.66861 0.0
H247 H 0.1007 0.8043 0.68123 0.0
O248 O 0.03266 0.62722 0.64618 0.0
C249 C 0.18953 0.81155 0.65541 0.0
O250 O 0.16279 0.8498 0.65288 0.0
N251 N 0.97849 0.70635 0.63878 0.0
C252 C 0.88677 0.7155 0.61741 0.0
C253 C 0.88936 0.65602 0.61834 0.0
C254 C 0.93639 0.65265 0.629 0.0
C255 C 0.9716 0.7617 0.6394 0.0
C256 C 0.92616 0.76761 0.62867 0.0
H257 H 0.94293 0.60958 0.62797 0.0
H258 H 1.00648 0.80424 0.64694 0.0
H259 H 0.09263 0.64372 0.61926 0.0
H260 H 0.13247 0.80663 0.58757 0.0
H261 H 0.93364 0.63369 0.7013 0.0
H262 H 0.86039 0.61516 0.60963 0.0
H263 H 0.92551 0.81432 0.62825 0.0
C264 C 0.3264 0.07111 0.788 0.0
C265 C 0.36509 0.08801 0.77363 0.0
N266 N 0.41585 0.07555 0.77648 0.0
N267 N 0.35233 0.04772 0.79981 0.0
C268 C 0.40699 0.05142 0.79249 0.0
H269 H 0.28259 0.07633 0.78986 0.0
Co270 Co 0.31838 0.02195 0.82141 0.0
C271 C 0.36389 0.92835 0.83413 0.0
O272 O 0.3083 0.89711 0.84295 0.0
N273 N 0.28287 0.99781 0.84362 0.0
C274 C 0.21688 0.95451 0.8662 0.0
C275 C 0.21954 0.95474 0.84877 0.0
C276 C 0.31742 0.023 0.85827 0.0
N277 N 0.27857 0.99771 0.87221 0.0
O278 O 0.38854 0.1074 0.8294 0.0
H279 H 0.17726 0.92462 0.8406 0.0
H280 H 0.37007 0.06046 0.8587 0.0
O281 O 0.37529 0.97991 0.82526 0.0
C282 C 0.37166 0.15257 0.82901 0.0
O283 O 0.30851 0.13415 0.82584 0.0
N284 N 0.24811 0.94306 0.81203 0.0
C285 C 0.15105 0.85493 0.78931 0.0
C286 C 0.20604 0.84734 0.79373 0.0
C287 C 0.25505 0.89304 0.80476 0.0
C288 C 0.19329 0.94929 0.80835 0.0
C289 C 0.14393 0.90559 0.79705 0.0
H290 H 0.30087 0.89132 0.80588 0.0
H291 H 0.19037 0.99146 0.81334 0.0
H292 H 0.43969 0.03679 0.79877 0.0
H293 H 0.35716 0.10919 0.76214 0.0
H294 H 0.17261 0.92486 0.87379 0.0
H295 H 0.21453 0.8105 0.78743 0.0
H296 H 0.1028 0.9138 0.79362 0.0
C297 C 0.28272 0.34369 0.95688 0.0
C298 C 0.28675 0.38126 0.94279 0.0
N299 N 0.34267 0.44171 0.94427 0.0
N300 N 0.33638 0.38022 0.96696 0.0
C301 C 0.37155 0.43951 0.95904 0.0
H302 H 0.24286 0.29358 0.95976 0.0
Co303 Co 0.35337 0.35969 0.98851 0.0
C304 C 0.50014 0.4066 0.98612 0.0
O305 O 0.48705 0.34668 -0.00892 0.0
N306 N 0.36816 0.34034 0.01092 0.0
C307 C 0.40787 0.35204 0.03734 0.0
C308 C 0.42405 0.37084 0.02075 0.0
C309 C 0.31835 0.30489 0.02212 0.0
N310 N 0.34103 0.31157 0.0383 0.0
O311 O 0.34117 0.43156 -0.00315 0.0
H312 H 0.47263 0.4104 0.01688 0.0
H313 H 0.26569 0.28038 0.0187 0.0
O314 O 0.45222 0.42023 0.9852 0.0
C315 C 0.27782 0.4093 -0.00313 0.0
O316 O 0.23778 0.34458 -0.00514 0.0
N317 N 0.35723 0.28565 0.97939 0.0
C318 C 0.33261 0.17419 0.95998 0.0
C319 C 0.38097 0.23886 0.95499 0.0
C320 C 0.39153 0.29362 0.96462 0.0
C321 C 0.312 0.22282 0.9849 0.0
C322 C 0.29905 0.16624 0.97539 0.0
H323 H 0.42381 0.3429 0.95943 0.0
H324 H 0.28179 0.21632 -0.00406 0.0
H325 H 0.41769 0.48037 0.96405 0.0
H326 H 0.25095 0.36551 0.93241 0.0
H327 H 0.44215 0.37171 0.04802 0.0
H328 H 0.4064 0.24793 0.94291 0.0
H329 H 0.26054 0.11719 0.97958 0.0
C330 C 0.91013 0.2494 0.11656 0.0
C331 C 0.89455 0.27199 0.10191 0.0
N332 N 0.90733 0.33505 0.10463 0.0
N333 N 0.93296 0.2982 0.12834 0.0
C334 C 0.93014 0.34935 0.12074 0.0
H335 H 0.90693 0.20131 0.11838 0.0
Co336 Co 0.96621 0.29598 0.14968 0.0
C337 C 0.98574 0.42312 0.16363 0.0
O338 O 0.94108 0.38987 0.17543 0.0
N339 N 1.00046 0.29424 0.17107 0.0
C340 C 0.06711 0.32547 0.19383 0.0
C341 C 0.06115 0.34043 0.17722 0.0
C342 C 0.97101 0.251 0.18402 0.0
N343 N 1.01037 0.26919 0.19803 0.0
O344 O 0.88054 0.27388 0.15895 0.0
H345 H 0.09799 0.38355 0.17023 0.0
H346 H 0.92051 0.20876 0.18351 0.0
O347 O 0.99993 0.39157 0.15268 0.0
C348 C 0.83527 0.21232 0.15814 0.0
O349 O 0.85243 0.16852 0.15316 0.0
N350 N 0.04609 0.31208 0.13977 0.0
C351 C 0.1482 0.31618 0.12019 0.0
C352 C 0.14223 0.37349 0.1221 0.0
C353 C 0.09012 0.37021 0.13178 0.0
C354 C 0.05266 0.25663 0.13861 0.0
C355 C 0.10341 0.25745 0.12879 0.0
H356 H 0.08342 0.41334 0.13201 0.0
H357 H 1.0162 0.21063 0.14469 0.0
H358 H 0.94754 0.39761 0.12658 0.0
H359 H 0.87654 0.2446 0.09012 0.0
H360 H 0.10913 0.35442 0.20228 0.0
H361 H 0.17505 0.41931 0.11533 0.0
H362 H 0.10643 0.2122 0.12752 0.0
C363 C 0.69751 0.95222 0.29061 0.0
C364 C 0.66393 0.93293 0.27534 0.0
N365 N 0.61379 0.94741 0.27551 0.0
N366 N 0.66885 0.97886 0.30036 0.0
C367 C 0.61786 0.97508 0.29088 0.0
H368 H 0.74017 0.94721 0.29442 0.0
Co369 Co 0.69779 0.01124 0.32208 0.0
C370 C 0.64687 0.10699 0.32752 0.0
O371 O 0.70388 0.1509 0.33457 0.0
N372 N 0.72885 0.04301 0.34454 0.0
C373 C 0.79271 0.10063 0.36668 0.0
C374 C 0.78303 0.10141 0.34946 0.0
C375 C 0.70647 1.0081 0.35924 0.0
N376 N 0.74457 0.04173 0.3728 0.0
O377 O 0.62574 0.92891 0.33055 0.0
H378 H 0.81506 0.14225 0.34115 0.0
H379 H 0.66531 0.95727 0.36001 0.0
O380 O 0.63907 0.05093 0.32235 0.0
C381 C 0.6397 0.88177 0.33092 0.0
O382 O 0.70243 0.89712 0.32862 0.0
N383 N 0.76959 0.08706 0.31236 0.0
C384 C 0.87308 0.1682 0.2905 0.0
C385 C 0.81439 0.17232 0.29093 0.0
C386 C 0.76233 0.12996 0.30165 0.0
C387 C 0.82781 0.08468 0.31259 0.0
C388 C 0.88043 0.12491 0.30169 0.0
H389 H 0.71451 0.12741 0.29995 0.0
H390 H 0.83125 0.0476 0.32037 0.0
H391 H 0.58505 0.99324 0.29504 0.0
H392 H 0.67526 0.90941 0.265 0.0
H393 H 0.83319 0.13962 0.37403 0.0
H394 H 0.80625 0.20318 0.28186 0.0
H395 H 0.92443 0.11912 0.3012 0.0
H396 H 0.4006 0.14699 0.30902 0.0
H397 H 0.55164 0.35423 0.31603 0.0
H398 H 0.63623 0.32127 0.32148 0.0
H399 H 0.66556 0.23317 0.3261 0.0
H400 H 0.51504 0.02603 0.31865 0.0
H401 H 0.43178 0.05942 0.31164 0.0
C402 C 0.45223 0.18511 0.31151 0.0
C403 C 0.46963 0.25304 0.31217 0.0
C404 C 0.50043 0.16571 0.31482 0.0
C405 C 0.53685 0.30169 0.31534 0.0
C406 C 0.58515 0.28279 0.31861 0.0
C407 C 0.61448 0.19522 0.323 0.0
C408 C 0.59629 0.12702 0.32318 0.0
C409 C 0.56717 0.21487 0.31875 0.0
C410 C 0.53023 0.07875 0.31876 0.0
C411 C 0.48265 0.09785 0.31471 0.0
H412 H 0.26858 0.3366 0.48319 0.0
H413 H 0.27436 0.52202 0.47061 0.0
H414 H 0.3976 0.58043 0.47107 0.0
H415 H 0.50342 0.57957 0.47671 0.0
H416 H 0.4953 0.39462 0.49117 0.0
H417 H 0.37302 0.33526 0.48834 0.0
C418 C 0.29651 0.3897 0.48033 0.0
C419 C 0.26192 0.42475 0.47678 0.0
C420 C 0.36705 0.4231 0.48111 0.0
C421 C 0.29946 0.49371 0.47332 0.0
C422 C 0.36997 0.52713 0.47364 0.0
C423 C 0.47499 0.52612 0.47906 0.0
C424 C 0.50874 0.49154 0.4841 0.0
C425 C 0.40431 0.49248 0.47776 0.0
C426 C 0.47082 0.42249 0.48732 0.0
C427 C 0.40083 0.38851 0.48569 0.0
H428 H 0.92045 0.50924 0.64499 0.0
H429 H 0.10248 0.50652 0.65756 0.0
H430 H 0.04235 0.38473 0.65578 0.0
H431 H 0.93848 0.27944 0.6521 0.0
H432 H 0.75317 0.27773 0.64112 0.0
H433 H 0.81438 0.40088 0.64057 0.0
C434 C 0.94705 0.48197 0.64714 0.0
C435 C 1.01617 0.51726 0.65139 0.0
C436 C 0.91157 0.41121 0.64641 0.0
C437 C 0.04948 0.48092 0.65437 0.0
C438 C 1.01509 0.41116 0.65332 0.0
C439 C 0.91103 0.30556 0.64944 0.0
C440 C 0.84098 0.26891 0.64667 0.0
C441 C 0.94613 0.37584 0.64957 0.0
C442 C 0.80695 0.30435 0.64326 0.0
C443 C 0.842 0.37485 0.64302 0.0
H444 H 0.46747 0.95925 0.81182 0.0
H445 H 0.3506 0.81972 0.85134 0.0
H446 H 0.40768 0.7563 0.84653 0.0
H447 H 0.49222 0.74055 0.83155 0.0
H448 H 0.61463 0.88292 0.79335 0.0
H449 H 0.55313 0.94379 0.79685 0.0
C450 C 0.45472 0.91528 0.81944 0.0
C451 C 0.40448 0.89463 0.83192 0.0
C452 C 0.48797 0.87853 0.81662 0.0
C453 C 0.38886 0.83716 0.84163 0.0
C454 C 0.42129 0.8004 0.83885 0.0
C455 C 0.50421 0.78393 0.82371 0.0
C456 C 0.55675 0.80637 0.81192 0.0
C457 C 0.47062 0.82028 0.82633 0.0
C458 C 0.57352 0.86411 0.80229 0.0
C459 C 0.53882 0.89928 0.80442 0.0
H460 H 0.79206 0.65466 0.97729 0.0
H461 H 0.84121 0.49647 0.97624 0.0
H462 H 0.72182 0.41286 0.97776 0.0
H463 H 0.60475 0.38511 0.98145 0.0
H464 H 0.5549 0.54274 0.9826 0.0
H465 H 0.67367 0.62638 0.9789 0.0
C466 C 0.77673 0.60186 0.97722 0.0
C467 C 0.82575 0.58191 0.97677 0.0
C468 C 0.70801 0.5541 0.97826 0.0
C469 C 0.80475 0.51328 0.97656 0.0
C470 C 0.73646 0.46545 0.97752 0.0
C471 C 0.61966 0.43776 0.98084 0.0
C472 C 0.57096 0.45768 0.98255 0.0
C473 C 0.68785 0.48536 0.97873 0.0
C474 C 0.59125 0.52604 0.98143 0.0
C475 C 0.65919 0.57385 0.97934 0.0
H476 H 0.08653 0.73183 0.16796 0.0
H477 H 0.26125 0.7453 0.14404 0.0
H478 H 0.20645 0.62246 0.14351 0.0
H479 H 0.10868 0.5112 0.15037 0.0
H480 H 0.93813 0.50125 0.17585 0.0
H481 H 0.99166 0.62303 0.17526 0.0
C482 C 0.11268 0.7081 0.16249 0.0
C483 C 0.1777 0.74768 0.15589 0.0
C484 C 0.08158 0.63806 0.16259 0.0
C485 C 0.21115 0.71594 0.14916 0.0
C486 C 0.17978 0.64577 0.14886 0.0
C487 C 0.08317 0.53578 0.15568 0.0
C488 C 0.01926 0.49714 0.16307 0.0
C489 C 0.11497 0.60627 0.15559 0.0
C490 C 0.98731 0.52973 0.17015 0.0
C491 C 0.01783 0.59939 0.16978 0.0
H492 H 0.93449 0.44199 0.49287 0.0
H493 H 0.11201 0.62691 0.47938 0.0
H494 H 0.04794 0.68535 0.48049 0.0
H495 H 0.94177 0.684 0.48474 0.0
H496 H 0.76267 0.49906 0.49741 0.0
H497 H 0.82739 0.44046 0.49722 0.0
C498 C 0.95926 0.49479 0.49 0.0
C499 C 0.02826 0.52947 0.48585 0.0
C500 C 0.92185 0.52821 0.49062 0.0
C501 C 0.05919 0.59854 0.48252 0.0
C502 C 0.02251 0.63213 0.48318 0.0
C503 C 0.91662 0.63088 0.48759 0.0
C504 C 0.84717 0.5961 0.49115 0.0
C505 C 0.95386 0.59747 0.48718 0.0
C506 C 0.8159 0.52721 0.49469 0.0
C507 C 0.85293 0.49367 0.49452 0.0
H508 H 0.27295 0.77316 0.64125 0.0
H509 H 0.27209 0.92566 0.67251 0.0
H510 H 0.39495 0.99003 0.67203 0.0
H511 H 0.50325 1.00526 0.66172 0.0
H512 H 0.5024 0.85422 0.62929 0.0
H513 H 0.38072 0.78844 0.63095 0.0
C514 C 0.29985 0.81978 0.64824 0.0
C515 C 0.26358 0.84406 0.65713 0.0
C516 C 0.37054 0.85781 0.64739 0.0
C517 C 0.29901 0.90559 0.66571 0.0
C518 C 0.36927 0.94271 0.66533 0.0
C519 C 0.4765 0.95823 0.65495 0.0
C520 C 0.5126 0.93509 0.64543 0.0
C521 C 0.40572 0.91992 0.65597 0.0
C522 C 0.47649 0.87366 0.63676 0.0
C523 C 0.40657 0.83554 0.63775 0.0
H524 H 0.61606 0.44593 0.82007 0.0
H525 H 0.45725 0.49397 0.82377 0.0
H526 H 0.37562 0.37544 0.82842 0.0
H527 H 0.34904 0.25787 0.83047 0.0
H528 H 0.50871 0.21081 0.82734 0.0
H529 H 0.59055 0.32964 0.82372 0.0
C530 C 0.56354 0.43064 0.82182 0.0
C531 C 0.54273 0.47892 0.8213 0.0
C532 C 0.51716 0.36262 0.82474 0.0
C533 C 0.47462 0.458 0.82394 0.0
C534 C 0.42796 0.3902 0.82665 0.0
C535 C 0.40185 0.27356 0.82917 0.0
C536 C 0.42255 0.22515 0.82914 0.0
C537 C 0.44862 0.34203 0.82697 0.0
C538 C 0.49126 0.24671 0.8275 0.0
C539 C 0.53807 0.31471 0.8253 0.0
H540 H 0.17808 0.3874 0.97534 0.0
H541 H 0.31332 0.53084 0.01186 0.0
H542 H 0.25771 0.59798 0.00783 0.0
H543 H 0.16759 0.61259 -0.00551 0.0
H544 H 0.03796 0.47079 0.95672 0.0
H545 H 0.09427 0.40573 0.96081 0.0
C546 C 0.19542 0.43335 0.98248 0.0
C547 C 0.249 0.45369 -0.00589 0.0
C548 C 0.16405 0.47167 0.97988 0.0
C549 C 0.27201 0.51411 0.00291 0.0
C550 C 0.24003 0.55221 0.00062 0.0
C551 C 0.1519 0.56791 0.98703 0.0
C552 C 0.09824 0.54692 0.97528 0.0
C553 C 0.18552 0.53109 0.98923 0.0
C554 C 0.07889 0.48845 0.96582 0.0
C555 C 0.11108 0.45105 0.96816 0.0
H556 H 0.73084 0.08549 0.16194 0.0
H557 H 0.77739 0.29127 0.15817 0.0
H558 H 0.65761 0.2549 0.15707 0.0
H559 H 0.54012 0.16457 0.15538 0.0
H560 H 0.49261 0.95889 0.16016 0.0
H561 H 0.61248 0.9953 0.16263 0.0
C562 C 0.71478 0.12246 0.16106 0.0
C563 C 0.76312 0.19105 0.16002 0.0
C564 C 0.64575 0.10115 0.16041 0.0
C565 C 0.7414 0.23825 0.15905 0.0
C566 C 0.67286 0.21744 0.15829 0.0
C567 C 0.55594 0.12762 0.15693 0.0
C568 C 0.50758 0.05898 0.15727 0.0
C569 C 0.6247 0.14901 0.15862 0.0
C570 C 0.52886 0.01193 0.15971 0.0
C571 C 0.59736 0.03276 0.16113 0.0
H572 H 0.38688 0.59654 0.31872 0.0
H573 H 0.53859 0.53848 0.32306 0.0
H574 H 0.62339 0.65424 0.32929 0.0
H575 H 0.65526 0.77244 0.33236 0.0
H576 H 0.5037 0.83071 0.32816 0.0
H577 H 0.41779 0.71402 0.32332 0.0
C578 C 0.43854 0.60916 0.32095 0.0
C579 C 0.45643 0.55887 0.32021 0.0
C580 C 0.48696 0.67576 0.32469 0.0
C581 C 0.52344 0.57611 0.32344 0.0
C582 C 0.57197 0.64233 0.32704 0.0
C583 C 0.60332 0.75964 0.33057 0.0
C584 C 0.58607 0.81045 0.33057 0.0
C585 C 0.55437 0.6926 0.32758 0.0
C586 C 0.51843 0.79273 0.3283 0.0
C587 C 0.46933 0.72602 0.3254 0.0
H588 H 0.70112 0.61447 0.40354 0.0
H589 H 0.6625 0.45512 0.43861 0.0
H590 H 0.58402 0.37248 0.41834 0.0
H591 H 0.51679 0.34772 0.39208 0.0
H592 H 0.55284 0.50982 0.35804 0.0
H593 H 0.64291 0.58877 0.37624 0.0
C594 C 0.67715 0.56156 0.40653 0.0
C595 C 0.68699 0.54086 0.42256 0.0
C596 C 0.631 0.51481 0.39505 0.0
C597 C 0.65488 0.47211 0.42637 0.0
C598 C 0.60994 0.42498 0.41483 0.0
C599 C 0.54465 0.40023 0.38863 0.0
C600 C 0.52759 0.42253 0.37376 0.0
C601 C 0.59575 0.44606 0.39939 0.0
C602 C 0.56502 0.49072 0.36929 0.0
C603 C 0.61644 0.53629 0.37977 0.0
H604 H 0.1098 0.56186 0.53264 0.0
H605 H 0.17348 0.46069 0.5681 0.0
H606 H 0.17797 0.53441 0.59087 0.0
H607 H 0.16023 0.62482 0.60082 0.0
H608 H 0.09234 0.7234 0.56571 0.0
H609 H 0.09411 0.65412 0.54254 0.0
C610 C 0.1241 0.55562 0.54539 0.0
C611 C 0.14079 0.50558 0.54873 0.0
C612 C 0.12629 0.59796 0.5584 0.0
C613 C 0.16081 0.49909 0.5652 0.0
C614 C 0.16316 0.54104 0.57823 0.0
C615 C 0.14555 0.63098 0.58812 0.0
C616 C 0.12561 0.67876 0.58504 0.0
C617 C 0.14552 0.59024 0.57498 0.0
C618 C 0.1084 0.68736 0.56841 0.0
C619 C 0.10882 0.64736 0.55519 0.0
H620 H 0.66826 0.11925 0.73569 0.0
H621 H 0.54018 0.10479 0.69358 0.0
H622 H 0.45213 0.08954 0.71324 0.0
H623 H 0.41085 0.07833 0.7423 0.0
H624 H 0.54 0.09618 0.78449 0.0
H625 H 0.62824 0.11187 0.76485 0.0
C626 C 0.62153 0.11375 0.73081 0.0
C627 C 0.61095 0.11308 0.71317 0.0
C628 C 0.57111 0.10518 0.74219 0.0
C629 C 0.54944 0.10464 0.70708 0.0
C630 C 0.49911 0.09621 0.71832 0.0
C631 C 0.45853 0.08653 0.74724 0.0
C632 C 0.46849 0.08598 0.76488 0.0
C633 C 0.50931 0.09609 0.73589 0.0
C634 C 0.53036 0.09538 0.771 0.0
C635 C 0.58114 0.10483 0.75977 0.0
H636 H 0.52817 0.69053 0.90054 0.0
H637 H 0.41884 0.55126 0.86022 0.0
H638 H 0.34405 0.46969 0.88088 0.0
H639 H 0.32048 0.43262 0.91048 0.0
H640 H 0.42703 0.57327 0.95075 0.0
H641 H 0.49143 0.66004 0.92995 0.0
C642 C 0.48703 0.64313 0.8962 0.0
C643 C 0.48065 0.62635 0.8789 0.0
C644 C 0.44414 0.59632 0.90815 0.0
C645 C 0.42656 0.56463 0.87353 0.0
C646 C 0.38343 0.51799 0.88533 0.0
C647 C 0.35649 0.4826 0.91474 0.0
C648 C 0.37037 0.49566 0.93214 0.0
C649 C 0.39347 0.53235 0.90271 0.0
C650 C 0.41706 0.56105 0.93741 0.0
C651 C 0.45371 0.61092 0.92552 0.0
H652 H 0.9214 0.33438 0.07063 0.0
H653 H 0.89132 0.44138 0.11132 0.0
H654 H 0.90523 0.52911 0.09157 0.0
H655 H 0.93353 0.57889 0.06328 0.0
H656 H 0.95781 0.46903 0.0222 0.0
H657 H 0.93874 0.37927 0.04165 0.0
C658 C 0.91651 0.37612 0.07513 0.0
C659 C 0.90634 0.38165 0.0925 0.0
C660 C 0.92444 0.42646 0.06369 0.0
C661 C 0.90065 0.43654 0.0981 0.0
C662 C 0.90837 0.48669 0.0868 0.0
C663 C 0.93372 0.53512 0.05842 0.0
C664 C 0.94836 0.53205 0.04123 0.0
C665 C 0.92165 0.48282 0.06963 0.0
C666 C 0.94858 0.4744 0.03538 0.0
C667 C 0.93705 0.42238 0.04649 0.0
H668 H 0.49039 0.93383 0.2785 0.0
H669 H 0.63117 0.93753 0.24185 0.0
H670 H 0.55286 0.92135 0.21889 0.0
H671 H 0.44583 0.90862 0.20914 0.0
H672 H 0.3076 0.91161 0.24552 0.0
H673 H 0.38346 0.92222 0.26866 0.0
C674 C 0.50434 0.93173 0.2655 0.0
C675 C 0.56684 0.937 0.26198 0.0
C676 C 0.4594 0.92335 0.25229 0.0
C677 C 0.58322 0.93278 0.24502 0.0
C678 C 0.53858 0.92393 0.23184 0.0
C679 C 0.43236 0.91219 0.22209 0.0
C680 C 0.371 0.90961 0.22549 0.0
C681 C 0.47674 0.91954 0.23532 0.0
C682 C 0.35399 0.9127 0.24246 0.0
C683 C 0.39764 0.9193 0.25573 0.0
H684 H 0.38636 0.24577 0.20428 0.0
H685 H 0.17474 0.099 0.20673 0.0
H686 H 0.16051 0.16028 0.22965 0.0
H687 H 0.21046 0.24454 0.25206 0.0
H688 H 0.4237 0.38074 0.25267 0.0
H689 H 0.43543 0.33393 0.22584 0.0
C690 C 0.33707 0.22686 0.2098 0.0
C691 C 0.28211 0.16714 0.20369 0.0
C692 C 0.32967 0.26006 0.2238 0.0
C693 C 0.21823 0.14511 0.21079 0.0
C694 C 0.20995 0.17972 0.22416 0.0
C695 C 0.25908 0.26494 0.24603 0.0
C696 C 0.31616 0.31578 0.25416 0.0
C697 C 0.26564 0.23575 0.23114 0.0
C698 C 0.37929 0.34132 0.24652 0.0
C699 C 0.3859 0.31448 0.23128 0.0
H700 H 0.15362 0.40951 0.37104 0.0
H701 H 0.10526 0.20271 0.36888 0.0
H702 H 0.03884 0.17826 0.39447 0.0
H703 H 1.00987 0.21861 0.41975 0.0
H704 H 0.06441 0.42643 0.42353 0.0
H705 H 0.11421 0.44764 0.39523 0.0
C706 C 0.12824 0.35899 0.3761 0.0
C707 C 0.13531 0.3084 0.36803 0.0
C708 C 0.09226 0.34562 0.39133 0.0
C709 C 0.1005 0.2428 0.37458 0.0
C710 C 0.06299 0.22876 0.38941 0.0
C711 C 0.03093 0.2682 0.41426 0.0
C712 C 0.03414 0.32106 0.42387 0.0
C713 C 0.06063 0.28024 0.3982 0.0
C714 C 0.0624 0.38515 0.41652 0.0
C715 C 0.09077 0.39726 0.40034 0.0
H716 H 0.75576 0.15177 0.59486 0.0
H717 H 0.74281 0.96404 0.58155 0.0
H718 H 0.77571 1.00335 0.55253 0.0
H719 H 0.82571 0.09751 0.53246 0.0
H720 H 0.83933 0.28517 0.54579 0.0
H721 H 0.78606 0.23855 0.5731 0.0
C722 C 0.75816 0.11858 0.58555 0.0
C723 C 0.7488 0.05575 0.59056 0.0
C724 C 0.77743 0.14164 0.56887 0.0
C725 C 0.75197 0.01351 0.5782 0.0
C726 C 0.77046 0.0358 0.56156 0.0
C727 C 0.81524 0.12742 0.5412 0.0
C728 C 0.83695 0.19468 0.53731 0.0
C729 C 0.78616 0.10082 0.55698 0.0
C730 C 0.82276 0.23311 0.54855 0.0
C731 C 0.79302 0.20671 0.56423 0.0
H732 H 0.7977 0.80532 0.75898 0.0
H733 H 0.58996 0.65272 0.75476 0.0
H734 H 0.58108 0.69906 0.72731 0.0
H735 H 0.63101 0.78829 0.70579 0.0
H736 H 0.83511 0.94974 0.71308 0.0
H737 H 0.84754 0.89319 0.73756 0.0
C738 C 0.75102 0.78145 0.75182 0.0
C739 C 0.69474 0.72554 0.75865 0.0
C740 C 0.74576 0.81001 0.73657 0.0
C741 C 0.63385 0.69578 0.74958 0.0
C742 C 0.62885 0.72238 0.73398 0.0
C743 C 0.67817 0.81153 0.71273 0.0
C744 C 0.73194 0.87341 0.70728 0.0
C745 C 0.68417 0.78056 0.72755 0.0
C746 C 0.79303 0.9015 0.71643 0.0
C747 C 0.80017 0.8696 0.73069 0.0
H748 H 0.96947 0.63744 0.91678 0.0
H749 H 0.06924 0.85245 0.91908 0.0
H750 H 1.00355 0.85454 0.89457 0.0
H751 H 0.9088 0.79366 0.87492 0.0
H752 H 0.81601 0.57832 0.87105 0.0
H753 H 0.8873 0.57782 0.89398 0.0
C754 C 0.97733 0.6846 0.91165 0.0
C755 C 0.0232 0.7446 0.91966 0.0
C756 C 0.93988 0.68522 0.89757 0.0
C757 C 0.03409 0.80578 0.91298 0.0
C758 C 0.99624 0.80683 0.89909 0.0
C759 C 0.90504 0.74659 0.87866 0.0
C760 C 0.85529 0.6859 0.87142 0.0
C761 C 0.94767 0.74664 0.89158 0.0
C762 C 0.85172 0.62569 0.87674 0.0
C763 C 0.89301 0.62528 0.88978 0.0
H764 H 0.30574 0.03228 0.08233 0.0
H765 H 0.26653 0.84325 0.10389 0.0
H766 H 0.24491 0.79417 0.07577 0.0
H767 H 0.22235 0.79994 0.04573 0.0
H768 H 0.25269 0.98528 0.02399 0.0
H769 H 0.29155 0.04049 0.05159 0.0
C770 C 0.29254 0.98038 0.08093 0.0
C771 C 0.28704 0.94162 0.09539 0.0
C772 C 0.27787 0.95151 0.06468 0.0
C773 C 0.27165 0.87484 0.09315 0.0
C774 C 0.25864 0.84633 0.07701 0.0
C775 C 0.23934 0.85295 0.04687 0.0
C776 C 0.23482 0.88856 0.03283 0.0
C777 C 0.25976 0.88362 0.06278 0.0
C778 C 0.25549 0.9568 0.03465 0.0
C779 C 0.27754 0.98825 0.05042 0.0
H780 H 0.812 0.77889 0.54557 0.0
H781 H 0.62539 0.60013 0.55645 0.0
H782 H 0.66553 0.59546 0.58512 0.0
H783 H 0.75849 0.63727 0.60602 0.0
H784 H 0.94352 0.81902 0.5953 0.0
H785 H 0.89914 0.82875 0.56782 0.0
C786 C 0.78021 0.73962 0.55439 0.0
C787 C 0.71646 0.68963 0.54907 0.0
C788 C 0.8033 0.73802 0.57083 0.0
C789 C 0.67473 0.63907 0.56046 0.0
C790 C 0.69774 0.63633 0.57676 0.0
C791 C 0.78831 0.67961 0.59777 0.0
C792 C 0.85398 0.72731 0.60261 0.0
C793 C 0.76252 0.68482 0.58196 0.0
C794 C 0.89244 0.78213 0.5919 0.0
C795 C 0.86742 0.78736 0.57612 0.0
H796 H 0.13182 0.90979 0.76116 0.0
H797 H 0.08174 0.71995 0.78384 0.0
H798 H 0.03018 0.66273 0.75708 0.0
H799 H 1.01049 0.66902 0.72648 0.0
H800 H 0.06925 0.86043 0.70347 0.0
H801 H 0.10639 0.91524 0.73112 0.0
C802 C 0.10796 0.85569 0.76033 0.0
C803 C 0.10968 0.81879 0.7744 0.0
C804 C 0.08107 0.82384 0.7448 0.0
C805 C 0.08038 0.749 0.77313 0.0
C806 C 0.05135 0.71651 0.75784 0.0
C807 C 0.03031 0.72251 0.72764 0.0
C808 C 0.03746 0.76086 0.71304 0.0
C809 C 0.05303 0.75368 0.74348 0.0
C810 C 0.0641 0.83026 0.71456 0.0
C811 C 0.08507 0.86144 0.73034 0.0
H812 H 0.19652 0.98641 0.89811 0.0
H813 H 0.404 0.05543 0.88591 0.0
H814 H 0.43849 0.10689 0.91384 0.0
H815 H 0.41108 0.14524 0.94002 0.0
H816 H 0.20406 0.07994 0.95159 0.0
H817 H 0.16791 0.01087 0.92606 0.0
C818 C 0.24916 0.01127 0.90161 0.0
C819 C 0.29765 0.01849 0.88962 0.0
C820 C 0.26879 0.04116 0.91769 0.0
C821 C 0.36565 0.05091 0.89458 0.0
C822 C 0.38547 0.07999 0.91064 0.0
C823 C 0.35797 0.11487 0.93711 0.0
C824 C 0.3105 0.11866 0.94756 0.0
C825 C 0.33769 0.07756 0.92203 0.0
C826 C 0.24177 0.07794 0.94383 0.0
C827 C 0.22106 0.03911 0.92907 0.0
H828 H 0.37504 0.38275 0.06732 0.0
H829 H 0.21653 0.20587 0.04337 0.0
H830 H 0.14401 0.18707 0.06788 0.0
H831 H 0.12296 0.22755 0.09483 0.0
H832 H 0.2813 0.40715 0.1178 0.0
H833 H 0.35766 0.41765 0.095 0.0
C834 C 0.32536 0.33902 0.06756 0.0
C835 C 0.30125 0.29569 0.05349 0.0
C836 C 0.28398 0.32934 0.08149 0.0
C837 C 0.23597 0.24022 0.05397 0.0
C838 C 0.19464 0.22947 0.06798 0.0
C839 C 0.17468 0.26804 0.095 0.0
C840 C 0.19674 0.3166 0.10791 0.0
C841 C 0.21767 0.27462 0.08164 0.0
C842 C 0.26338 0.36949 0.10792 0.0
C843 C 0.30687 0.3755 0.0949 0.0
H844 H 0.03662 0.33517 0.22757 0.0
H845 H 0.94033 0.13789 0.20556 0.0
H846 H 0.89755 0.08804 0.23348 0.0
H847 H 0.87787 0.10189 0.2634 0.0
H848 H 0.96426 0.29953 0.28481 0.0
H849 H 0.02229 0.34867 0.25798 0.0
C850 C 1.00745 0.28126 0.22901 0.0
C851 C 0.99141 0.23999 0.21464 0.0
C852 C 0.98148 0.25342 0.24496 0.0
C853 C 0.95261 0.1703 0.2165 0.0
C854 C 0.92838 0.14197 0.23242 0.0
C855 C 0.91095 0.15557 0.26224 0.0
C856 C 0.91811 0.19737 0.27593 0.0
C857 C 0.94117 0.18315 0.24664 0.0
C858 C 0.95923 0.26685 0.27437 0.0
C859 C 0.99178 0.29472 0.25905 0.0
H860 H 0.63296 0.95711 0.38991 0.0
H861 H 0.8491 0.06651 0.3934 0.0
H862 H 0.84472 0.01096 0.42023 0.0
H863 H 0.78029 0.92137 0.44064 0.0
H864 H 0.56373 0.81242 0.43758 0.0
H865 H 0.56746 0.87762 0.41264 0.0
C866 C 0.67892 0.96905 0.39666 0.0
C867 C 0.74119 0.01519 0.38959 0.0
C868 C 0.67603 0.93663 0.41206 0.0
C869 C 0.8005 0.03134 0.39859 0.0
C870 C 0.79805 0.99927 0.41389 0.0
C871 C 0.73372 0.91313 0.43489 0.0
C872 C 0.67185 0.86126 0.44088 0.0
C873 C 0.73619 0.95057 0.4205 0.0
C874 C 0.61214 0.85108 0.43305 0.0
C875 C 0.61419 0.88836 0.41878 0.0
loop_
_geom_bond_atom_site_label_1
_geom_bond_atom_site_label_2
_geom_bond_distance
_geom_bond_site_symmetry_2
_ccdc_geom_bond_type
C0 C1 1.351 . S
C0 N3 1.368 . S
C0 H5 0.931 . S
C1 C0 1.351 . S
C1 N2 1.373 . S
C1 H29 0.930 . S
N2 C1 1.373 . S
N2 C4 1.340 . S
N3 C0 1.368 . S
N3 C4 1.321 . S
N3 Co6 2.135 . S
C4 N2 1.340 . S
C4 N3 1.321 . S
C4 H28 0.930 . S
H5 C0 0.931 . S
Co6 N3 2.135 . S
Co6 N9 2.121 . S
Co6 O14 2.055 . S
Co6 O17 2.039 . S
Co6 N20 2.140 . S
C7 O8 1.227 . S
C7 O17 1.265 . S
O8 C7 1.227 . S
N9 Co6 2.121 . S
N9 C11 1.375 . S
N9 C12 1.313 . S
C10 C11 1.338 . S
C10 N13 1.377 . S
C10 H30 0.930 . S
C11 N9 1.375 . S
C11 C10 1.338 . S
C11 H15 0.931 . S
C12 N9 1.313 . S
C12 N13 1.344 . S
C12 H16 0.930 . S
N13 C10 1.377 . S
N13 C12 1.344 . S
O14 Co6 2.055 . S
O14 C18 1.253 . S
H15 C11 0.931 . S
H16 C12 0.930 . S
O17 Co6 2.039 . S
O17 C7 1.265 . S
C18 O14 1.253 . S
C18 O19 1.227 . S
O19 C18 1.227 . S
N20 Co6 2.140 . S
N20 C23 1.346 . S
N20 C24 1.345 . S
C21 C22 1.387 . S
C21 C25 1.391 . S
C22 C21 1.387 . S
C22 C23 1.369 . S
C22 H31 0.929 . S
C23 N20 1.346 . S
C23 C22 1.369 . S
C23 H26 0.928 . S
C24 N20 1.345 . S
C24 C25 1.371 . S
C24 H27 0.931 . S
C25 C21 1.391 . S
C25 C24 1.371 . S
C25 H32 0.930 . S
H26 C23 0.928 . S
H27 C24 0.931 . S
H28 C4 0.930 . S
H29 C1 0.930 . S
H30 C10 0.930 . S
H31 C22 0.929 . S
H32 C25 0.930 . S
C33 C34 1.351 . S
C33 N36 1.368 . S
C33 H38 0.931 . S
C34 C33 1.351 . S
C34 N35 1.373 . S
C34 H62 0.930 . S
N35 C34 1.373 . S
N35 C37 1.340 . S
N36 C33 1.368 . S
N36 C37 1.321 . S
N36 Co39 2.135 . S
C37 N35 1.340 . S
C37 N36 1.321 . S
C37 H61 0.930 1_455 S
H38 C33 0.931 . S
Co39 N36 2.135 . S
Co39 N42 2.121 . S
Co39 O47 2.055 . S
Co39 O50 2.039 1_455 S
Co39 N53 2.140 1_455 S
C40 O41 1.227 . S
C40 O50 1.265 . S
O41 C40 1.227 . S
N42 Co39 2.121 . S
N42 C44 1.375 1_455 S
N42 C45 1.313 . S
C43 C44 1.338 . S
C43 N46 1.377 1_655 S
C43 H63 0.930 . S
C44 N42 1.375 1_655 S
C44 C43 1.338 . S
C44 H48 0.931 . S
C45 N42 1.313 . S
C45 N46 1.344 . S
C45 H49 0.930 . S
N46 C43 1.377 1_455 S
N46 C45 1.344 . S
O47 Co39 2.055 . S
O47 C51 1.253 . S
H48 C44 0.931 . S
H49 C45 0.930 . S
O50 Co39 2.039 1_655 S
O50 C40 1.265 . S
C51 O47 1.253 . S
C51 O52 1.227 . S
O52 C51 1.227 . S
N53 Co39 2.140 1_655 S
N53 C56 1.346 . S
N53 C57 1.345 . S
C54 C55 1.387 . S
C54 C58 1.391 . S
C55 C54 1.387 . S
C55 C56 1.369 . S
C55 H64 0.929 . S
C56 N53 1.346 . S
C56 C55 1.369 . S
C56 H59 0.928 . S
C57 N53 1.345 . S
C57 C58 1.371 . S
C57 H60 0.931 1_655 S
C58 C54 1.391 . S
C58 C57 1.371 . S
C58 H65 0.930 . S
H59 C56 0.928 . S
H60 C57 0.931 1_455 S
H61 C37 0.930 1_655 S
H62 C34 0.930 . S
H63 C43 0.930 . S
H64 C55 0.929 . S
H65 C58 0.930 . S
C66 C67 1.351 . S
C66 N69 1.368 . S
C66 H71 0.931 . S
C67 C66 1.351 . S
C67 N68 1.373 . S
C67 H95 0.930 . S
N68 C67 1.373 . S
N68 C70 1.340 . S
N69 C66 1.368 . S
N69 C70 1.321 . S
N69 Co72 2.135 . S
C70 N68 1.340 . S
C70 N69 1.321 . S
C70 H94 0.930 1_545 S
H71 C66 0.931 . S
Co72 N69 2.135 . S
Co72 N75 2.121 . S
Co72 O80 2.055 . S
Co72 O83 2.039 1_545 S
Co72 N86 2.140 1_545 S
C73 O74 1.227 . S
C73 O83 1.265 . S
O74 C73 1.227 . S
N75 Co72 2.121 . S
N75 C77 1.375 1_545 S
N75 C78 1.313 . S
C76 C77 1.338 . S
C76 N79 1.377 1_565 S
C76 H96 0.930 . S
C77 N75 1.375 1_565 S
C77 C76 1.338 . S
C77 H81 0.931 . S
C78 N75 1.313 . S
C78 N79 1.344 . S
C78 H82 0.930 . S
N79 C76 1.377 1_545 S
N79 C78 1.344 . S
O80 Co72 2.055 . S
O80 C84 1.253 . S
H81 C77 0.931 . S
H82 C78 0.930 . S
O83 Co72 2.039 1_565 S
O83 C73 1.265 . S
C84 O80 1.253 . S
C84 O85 1.227 . S
O85 C84 1.227 . S
N86 Co72 2.140 1_565 S
N86 C89 1.346 . S
N86 C90 1.345 . S
C87 C88 1.387 . S
C87 C91 1.391 . S
C88 C87 1.387 . S
C88 C89 1.369 . S
C88 H97 0.929 . S
C89 N86 1.346 . S
C89 C88 1.369 . S
C89 H92 0.928 . S
C90 N86 1.345 . S
C90 C91 1.371 . S
C90 H93 0.931 1_565 S
C91 C87 1.391 . S
C91 C90 1.371 . S
C91 H98 0.930 . S
H92 C89 0.928 . S
H93 C90 0.931 1_545 S
H94 C70 0.930 1_565 S
H95 C67 0.930 . S
H96 C76 0.930 . S
H97 C88 0.929 . S
H98 C91 0.930 . S
C99 C100 1.351 . S
C99 N102 1.368 . S
C99 H104 0.931 . S
C100 C99 1.351 . S
C100 N101 1.373 . S
C100 H128 0.930 . S
N101 C100 1.373 . S
N101 C103 1.340 . S
N102 C99 1.368 . S
N102 C103 1.321 . S
N102 Co105 2.135 . S
C103 N101 1.340 . S
C103 N102 1.321 . S
C103 H127 0.930 . S
H104 C99 0.931 . S
Co105 N102 2.135 . S
Co105 N108 2.121 . S
Co105 O113 2.055 . S
Co105 O116 2.039 . S
Co105 N119 2.140 . S
C106 O107 1.227 . S
C106 O116 1.265 . S
O107 C106 1.227 . S
N108 Co105 2.121 . S
N108 C110 1.375 . S
N108 C111 1.313 . S
C109 C110 1.338 . S
C109 N112 1.377 . S
C109 H129 0.930 . S
C110 N108 1.375 . S
C110 C109 1.338 . S
C110 H114 0.931 . S
C111 N108 1.313 . S
C111 N112 1.344 . S
C111 H115 0.930 . S
N112 C109 1.377 . S
N112 C111 1.344 . S
O113 Co105 2.055 . S
O113 C117 1.253 . S
H114 C110 0.931 . S
H115 C111 0.930 . S
O116 Co105 2.039 . S
O116 C106 1.265 . S
C117 O113 1.253 . S
C117 O118 1.227 . S
O118 C117 1.227 . S
N119 Co105 2.140 . S
N119 C122 1.346 . S
N119 C123 1.345 . S
C120 C121 1.387 . S
C120 C124 1.391 . S
C121 C120 1.387 . S
C121 C122 1.369 . S
C121 H130 0.929 . S
C122 N119 1.346 . S
C122 C121 1.369 . S
C122 H125 0.928 . S
C123 N119 1.345 . S
C123 C124 1.371 . S
C123 H126 0.931 . S
C124 C120 1.391 . S
C124 C123 1.371 . S
C124 H131 0.930 . S
H125 C122 0.928 . S
H126 C123 0.931 . S
H127 C103 0.930 . S
H128 C100 0.930 . S
H129 C109 0.930 . S
H130 C121 0.929 . S
H131 C124 0.930 . S
C132 C133 1.351 . S
C132 N135 1.368 . S
C132 H137 0.931 . S
C133 C132 1.351 . S
C133 N134 1.373 . S
C133 H161 0.930 . S
N134 C133 1.373 . S
N134 C136 1.340 . S
N135 C132 1.368 . S
N135 C136 1.321 . S
N135 Co138 2.135 . S
C136 N134 1.340 . S
C136 N135 1.321 . S
C136 H160 0.930 1_655 S
H137 C132 0.931 . S
Co138 N135 2.135 . S
Co138 N141 2.121 1_554 S
Co138 O146 2.069 . S
Co138 O149 2.039 1_654 S
Co138 N152 2.140 1_655 S
C139 O140 1.208 1_556 S
C139 O149 1.271 . S
O140 C139 1.208 1_554 S
N141 Co138 2.121 1_556 S
N141 C143 1.375 1_655 S
N141 C144 1.313 . S
C142 C143 1.338 . S
C142 N145 1.377 1_455 S
C142 H162 0.930 . S
C143 N141 1.375 1_455 S
C143 C142 1.338 . S
C143 H147 0.931 . S
C144 N141 1.313 . S
C144 N145 1.344 . S
C144 H148 0.930 . S
N145 C142 1.377 1_655 S
N145 C144 1.344 . S
O146 Co138 2.069 . S
O146 C150 1.272 . S
H147 C143 0.931 . S
H148 C144 0.930 . S
O149 Co138 2.039 1_456 S
O149 C139 1.271 . S
C150 O146 1.272 . S
C150 O151 1.227 . S
O151 C150 1.227 . S
N152 Co138 2.140 1_455 S
N152 C155 1.346 . S
N152 C156 1.345 . S
C153 C154 1.387 . S
C153 C157 1.391 . S
C154 C153 1.387 . S
C154 C155 1.369 . S
C154 H163 0.929 . S
C155 N152 1.346 . S
C155 C154 1.369 . S
C155 H158 0.928 . S
C156 N152 1.345 . S
C156 C157 1.371 . S
C156 H159 0.931 1_455 S
C157 C153 1.391 . S
C157 C156 1.371 . S
C157 H164 0.930 . S
H158 C155 0.928 . S
H159 C156 0.931 1_655 S
H160 C136 0.930 1_455 S
H161 C133 0.930 . S
H162 C142 0.930 . S
H163 C154 0.929 . S
H164 C157 0.930 . S
C165 C166 1.351 . S
C165 N168 1.368 . S
C165 H170 0.931 . S
C166 C165 1.351 . S
C166 N167 1.373 . S
C166 H194 0.930 . S
N167 C166 1.373 . S
N167 C169 1.340 . S
N168 C165 1.368 . S
N168 C169 1.321 . S
N168 Co171 2.135 . S
C169 N167 1.340 . S
C169 N168 1.321 . S
C169 H193 0.930 1_565 S
H170 C165 0.931 . S
Co171 N168 2.135 . S
Co171 N174 2.121 . S
Co171 O179 2.055 . S
Co171 O182 2.039 1_565 S
Co171 N185 2.140 1_565 S
C172 O173 1.227 . S
C172 O182 1.265 . S
O173 C172 1.227 . S
N174 Co171 2.121 . S
N174 C176 1.375 1_565 S
N174 C177 1.313 . S
C175 C176 1.338 . S
C175 N178 1.377 1_545 S
C175 H195 0.930 . S
C176 N174 1.375 1_545 S
C176 C175 1.338 . S
C176 H180 0.931 . S
C177 N174 1.313 . S
C177 N178 1.344 . S
C177 H181 0.930 . S
N178 C175 1.377 1_565 S
N178 C177 1.344 . S
O179 Co171 2.055 . S
O179 C183 1.253 . S
H180 C176 0.931 . S
H181 C177 0.930 . S
O182 Co171 2.039 1_545 S
O182 C172 1.265 . S
C183 O179 1.253 . S
C183 O184 1.227 . S
O184 C183 1.227 . S
N185 Co171 2.140 1_545 S
N185 C188 1.346 . S
N185 C189 1.345 . S
C186 C187 1.387 . S
C186 C190 1.391 . S
C187 C186 1.387 . S
C187 C188 1.369 . S
C187 H196 0.929 . S
C188 N185 1.346 . S
C188 C187 1.369 . S
C188 H191 0.928 . S
C189 N185 1.345 . S
C189 C190 1.371 . S
C189 H192 0.931 1_545 S
C190 C186 1.391 . S
C190 C189 1.371 . S
C190 H197 0.930 . S
H191 C188 0.928 . S
H192 C189 0.931 1_565 S
H193 C169 0.930 1_545 S
H194 C166 0.930 . S
H195 C175 0.930 . S
H196 C187 0.929 . S
H197 C190 0.930 . S
C198 C199 1.351 . S
C198 N201 1.368 . S
C198 H203 0.931 . S
C199 C198 1.351 . S
C199 N200 1.373 . S
C199 H227 0.930 . S
N200 C199 1.373 . S
N200 C202 1.340 . S
N201 C198 1.368 . S
N201 C202 1.321 . S
N201 Co204 2.135 . S
C202 N200 1.340 . S
C202 N201 1.321 . S
C202 H226 0.930 . S
H203 C198 0.931 . S
Co204 N201 2.135 . S
Co204 N207 2.121 . S
Co204 O212 2.055 . S
Co204 O215 2.039 . S
Co204 N218 2.140 . S
C205 O206 1.227 . S
C205 O215 1.265 . S
O206 C205 1.227 . S
N207 Co204 2.121 . S
N207 C209 1.375 . S
N207 C210 1.313 . S
C208 C209 1.338 . S
C208 N211 1.377 . S
C208 H228 0.930 . S
C209 N207 1.375 . S
C209 C208 1.338 . S
C209 H213 0.931 . S
C210 N207 1.313 . S
C210 N211 1.344 . S
C210 H214 0.930 . S
N211 C208 1.377 . S
N211 C210 1.344 . S
O212 Co204 2.055 . S
O212 C216 1.253 . S
H213 C209 0.931 . S
H214 C210 0.930 . S
O215 Co204 2.039 . S
O215 C205 1.265 . S
C216 O212 1.253 . S
C216 O217 1.227 . S
O217 C216 1.227 . S
N218 Co204 2.140 . S
N218 C221 1.346 . S
N218 C222 1.345 . S
C219 C220 1.387 . S
C219 C223 1.391 . S
C220 C219 1.387 . S
C220 C221 1.369 . S
C220 H229 0.929 . S
C221 N218 1.346 . S
C221 C220 1.369 . S
C221 H224 0.928 . S
C222 N218 1.345 . S
C222 C223 1.371 . S
C222 H225 0.931 . S
C223 C219 1.391 . S
C223 C222 1.371 . S
C223 H230 0.930 . S
H224 C221 0.928 . S
H225 C222 0.931 . S
H226 C202 0.930 . S
H227 C199 0.930 . S
H228 C208 0.930 . S
H229 C220 0.929 . S
H230 C223 0.930 . S
C231 C232 1.351 . S
C231 N234 1.368 . S
C231 H236 0.931 . S
C232 C231 1.351 . S
C232 N233 1.373 . S
C232 H260 0.930 . S
N233 C232 1.373 . S
N233 C235 1.340 . S
N234 C231 1.368 . S
N234 C235 1.321 . S
N234 Co237 2.135 . S
C235 N233 1.340 . S
C235 N234 1.321 . S
C235 H259 0.930 1_455 S
H236 C231 0.931 . S
Co237 N234 2.135 . S
Co237 N240 2.121 . S
Co237 O245 2.055 . S
Co237 O248 2.039 1_455 S
Co237 N251 2.140 1_455 S
C238 O239 1.227 . S
C238 O248 1.265 . S
O239 C238 1.227 . S
N240 Co237 2.121 . S
N240 C242 1.375 1_455 S
N240 C243 1.313 . S
C241 C242 1.338 . S
C241 N244 1.377 1_655 S
C241 H261 0.930 . S
C242 N240 1.375 1_655 S
C242 C241 1.338 . S
C242 H246 0.931 . S
C243 N240 1.313 . S
C243 N244 1.344 . S
C243 H247 0.930 . S
N244 C241 1.377 1_455 S
N244 C243 1.344 . S
O245 Co237 2.055 . S
O245 C249 1.253 . S
H246 C242 0.931 . S
H247 C243 0.930 . S
O248 Co237 2.039 1_655 S
O248 C238 1.265 . S
C249 O245 1.253 . S
C249 O250 1.227 . S
O250 C249 1.227 . S
N251 Co237 2.140 1_655 S
N251 C254 1.346 . S
N251 C255 1.345 . S
C252 C253 1.387 . S
C252 C256 1.391 . S
C253 C252 1.387 . S
C253 C254 1.369 . S
C253 H262 0.929 . S
C254 N251 1.346 . S
C254 C253 1.369 . S
C254 H257 0.928 . S
C255 N251 1.345 . S
C255 C256 1.371 . S
C255 H258 0.931 1_655 S
C256 C252 1.391 . S
C256 C255 1.371 . S
C256 H263 0.930 . S
H257 C254 0.928 . S
H258 C255 0.931 1_455 S
H259 C235 0.930 1_655 S
H260 C232 0.930 . S
H261 C241 0.930 . S
H262 C253 0.929 . S
H263 C256 0.930 . S
C264 C265 1.351 . S
C264 N267 1.368 . S
C264 H269 0.931 . S
C265 C264 1.351 . S
C265 N266 1.373 . S
C265 H293 0.930 . S
N266 C265 1.373 . S
N266 C268 1.340 . S
N267 C264 1.368 . S
N267 C268 1.321 . S
N267 Co270 2.135 . S
C268 N266 1.340 . S
C268 N267 1.321 . S
C268 H292 0.930 1_545 S
H269 C264 0.931 . S
Co270 N267 2.135 . S
Co270 N273 2.121 . S
Co270 O278 2.055 . S
Co270 O281 2.039 1_545 S
Co270 N284 2.140 1_545 S
C271 O272 1.227 . S
C271 O281 1.265 . S
O272 C271 1.227 . S
N273 Co270 2.121 . S
N273 C275 1.375 1_545 S
N273 C276 1.313 . S
C274 C275 1.338 . S
C274 N277 1.377 1_565 S
C274 H294 0.930 . S
C275 N273 1.375 1_565 S
C275 C274 1.338 . S
C275 H279 0.931 . S
C276 N273 1.313 . S
C276 N277 1.344 . S
C276 H280 0.930 . S
N277 C274 1.377 1_545 S
N277 C276 1.344 . S
O278 Co270 2.055 . S
O278 C282 1.253 . S
H279 C275 0.931 . S
H280 C276 0.930 . S
O281 Co270 2.039 1_565 S
O281 C271 1.265 . S
C282 O278 1.253 . S
C282 O283 1.227 . S
O283 C282 1.227 . S
N284 Co270 2.140 1_565 S
N284 C287 1.346 . S
N284 C288 1.345 . S
C285 C286 1.387 . S
C285 C289 1.391 . S
C286 C285 1.387 . S
C286 C287 1.369 . S
C286 H295 0.929 . S
C287 N284 1.346 . S
C287 C286 1.369 . S
C287 H290 0.928 . S
C288 N284 1.345 . S
C288 C289 1.371 . S
C288 H291 0.931 1_565 S
C289 C285 1.391 . S
C289 C288 1.371 . S
C289 H296 0.930 . S
H290 C287 0.928 . S
H291 C288 0.931 1_545 S
H292 C268 0.930 1_565 S
H293 C265 0.930 . S
H294 C274 0.930 . S
H295 C286 0.929 . S
H296 C289 0.930 . S
C297 C298 1.351 . S
C297 N300 1.368 . S
C297 H302 0.931 . S
C298 C297 1.351 . S
C298 N299 1.373 . S
C298 H326 0.930 . S
N299 C298 1.373 . S
N299 C301 1.340 . S
N300 C297 1.368 . S
N300 C301 1.321 . S
N300 Co303 2.135 . S
C301 N299 1.340 . S
C301 N300 1.321 . S
C301 H325 0.930 . S
H302 C297 0.931 . S
Co303 N300 2.135 . S
Co303 N306 2.121 1_556 S
Co303 O311 2.055 . S
Co303 O314 2.038 . S
Co303 N317 2.140 . S
C304 O305 1.227 . S
C304 O314 1.265 . S
O305 C304 1.227 . S
N306 Co303 2.121 1_554 S
N306 C308 1.375 . S
N306 C309 1.313 . S
C307 C308 1.338 . S
C307 N310 1.377 . S
C307 H327 0.930 . S
C308 N306 1.375 . S
C308 C307 1.338 . S
C308 H312 0.931 . S
C309 N306 1.313 . S
C309 N310 1.344 . S
C309 H313 0.930 . S
N310 C307 1.377 . S
N310 C309 1.344 . S
O311 Co303 2.055 . S
O311 C315 1.253 . S
H312 C308 0.931 . S
H313 C309 0.930 . S
O314 Co303 2.038 . S
O314 C304 1.265 . S
C315 O311 1.253 . S
C315 O316 1.227 . S
O316 C315 1.227 . S
N317 Co303 2.140 . S
N317 C320 1.346 . S
N317 C321 1.345 . S
C318 C319 1.387 . S
C318 C322 1.391 . S
C319 C318 1.387 . S
C319 C320 1.369 . S
C319 H328 0.929 . S
C320 N317 1.346 . S
C320 C319 1.369 . S
C320 H323 0.928 . S
C321 N317 1.345 . S
C321 C322 1.371 . S
C321 H324 0.931 . S
C322 C318 1.391 . S
C322 C321 1.371 . S
C322 H329 0.930 . S
H323 C320 0.928 . S
H324 C321 0.931 . S
H325 C301 0.930 . S
H326 C298 0.930 . S
H327 C307 0.930 . S
H328 C319 0.929 . S
H329 C322 0.930 . S
C330 C331 1.351 . S
C330 N333 1.368 . S
C330 H335 0.931 . S
C331 C330 1.351 . S
C331 N332 1.373 . S
C331 H359 0.930 . S
N332 C331 1.373 . S
N332 C334 1.340 . S
N333 C330 1.368 . S
N333 C334 1.321 . S
N333 Co336 2.135 . S
C334 N332 1.340 . S
C334 N333 1.321 . S
C334 H358 0.930 1_655 S
H335 C330 0.931 . S
Co336 N333 2.135 . S
Co336 N339 2.121 . S
Co336 O344 2.055 . S
Co336 O347 2.039 1_655 S
Co336 N350 2.140 1_655 S
C337 O338 1.227 . S
C337 O347 1.265 . S
O338 C337 1.227 . S
N339 Co336 2.121 . S
N339 C341 1.375 1_655 S
N339 C342 1.313 . S
C340 C341 1.338 . S
C340 N343 1.377 1_455 S
C340 H360 0.930 . S
C341 N339 1.375 1_455 S
C341 C340 1.338 . S
C341 H345 0.931 . S
C342 N339 1.313 . S
C342 N343 1.344 . S
C342 H346 0.930 . S
N343 C340 1.377 1_655 S
N343 C342 1.344 . S
O344 Co336 2.055 . S
O344 C348 1.253 . S
H345 C341 0.931 . S
H346 C342 0.930 . S
O347 Co336 2.039 1_455 S
O347 C337 1.265 . S
C348 O344 1.253 . S
C348 O349 1.227 . S
O349 C348 1.227 . S
N350 Co336 2.140 1_455 S
N350 C353 1.346 . S
N350 C354 1.345 . S
C351 C352 1.387 . S
C351 C355 1.391 . S
C352 C351 1.387 . S
C352 C353 1.369 . S
C352 H361 0.929 . S
C353 N350 1.346 . S
C353 C352 1.369 . S
C353 H356 0.928 . S
C354 N350 1.345 . S
C354 C355 1.371 . S
C354 H357 0.931 1_455 S
C355 C351 1.391 . S
C355 C354 1.371 . S
C355 H362 0.930 . S
H356 C353 0.928 . S
H357 C354 0.931 1_655 S
H358 C334 0.930 1_455 S
H359 C331 0.930 . S
H360 C340 0.930 . S
H361 C352 0.929 . S
H362 C355 0.930 . S
C363 C364 1.351 . S
C363 N366 1.368 . S
C363 H368 0.931 . S
C364 C363 1.351 . S
C364 N365 1.373 . S
C364 H392 0.930 . S
N365 C364 1.373 . S
N365 C367 1.340 . S
N366 C363 1.368 . S
N366 C367 1.321 . S
N366 Co369 2.135 . S
C367 N365 1.340 . S
C367 N366 1.321 . S
C367 H391 0.930 1_565 S
H368 C363 0.931 . S
Co369 N366 2.135 . S
Co369 N372 2.121 . S
Co369 O377 2.055 . S
Co369 O380 2.039 1_565 S
Co369 N383 2.140 1_565 S
C370 O371 1.227 . S
C370 O380 1.265 . S
O371 C370 1.227 . S
N372 Co369 2.121 . S
N372 C374 1.375 1_565 S
N372 C375 1.313 . S
C373 C374 1.338 . S
C373 N376 1.377 1_545 S
C373 H393 0.930 . S
C374 N372 1.375 1_545 S
C374 C373 1.338 . S
C374 H378 0.931 . S
C375 N372 1.313 . S
C375 N376 1.344 . S
C375 H379 0.930 . S
N376 C373 1.377 1_565 S
N376 C375 1.344 . S
O377 Co369 2.055 . S
O377 C381 1.253 . S
H378 C374 0.931 . S
H379 C375 0.930 . S
O380 Co369 2.039 1_545 S
O380 C370 1.265 . S
C381 O377 1.253 . S
C381 O382 1.227 . S
O382 C381 1.227 . S
N383 Co369 2.140 1_545 S
N383 C386 1.346 . S
N383 C387 1.345 . S
C384 C385 1.387 . S
C384 C388 1.391 . S
C385 C384 1.387 . S
C385 C386 1.369 . S
C385 H394 0.929 . S
C386 N383 1.346 . S
C386 C385 1.369 . S
C386 H389 0.928 . S
C387 N383 1.345 . S
C387 C388 1.371 . S
C387 H390 0.931 1_545 S
C388 C384 1.391 . S
C388 C387 1.371 . S
C388 H395 0.930 . S
H389 C386 0.928 . S
H390 C387 0.931 1_565 S
H391 C367 0.930 1_545 S
H392 C364 0.930 . S
H393 C373 0.930 . S
H394 C385 0.929 . S
H395 C388 0.930 . S
H396 C402 0.930 . S
H397 C405 0.930 . S
H398 C406 0.930 . S
H399 C407 0.930 . S
H400 C410 0.930 . S
H401 C411 0.930 . S
C402 H396 0.930 . S
C402 C403 1.355 . S
C402 C404 1.415 . S
C403 C402 1.355 . S
C403 C405 1.419 . S
C404 C402 1.415 . S
C404 C409 1.425 . S
C404 C411 1.409 . S
C405 H397 0.930 . S
C405 C403 1.419 . S
C405 C406 1.362 . S
C406 H398 0.930 . S
C406 C405 1.362 . S
C406 C409 1.409 . S
C407 H399 0.930 . S
C407 C408 1.355 . S
C407 C409 1.415 . S
C408 C407 1.355 . S
C408 C410 1.419 . S
C409 C404 1.425 . S
C409 C406 1.409 . S
C409 C407 1.415 . S
C410 H400 0.930 . S
C410 C408 1.419 . S
C410 C411 1.362 . S
C411 H401 0.930 . S
C411 C404 1.409 . S
C411 C410 1.362 . S
H412 C418 0.930 . S
H413 C421 0.930 . S
H414 C422 0.930 . S
H415 C423 0.930 . S
H416 C426 0.930 . S
H417 C427 0.930 . S
C418 H412 0.930 . S
C418 C419 1.355 . S
C418 C420 1.415 . S
C419 C418 1.355 . S
C419 C421 1.419 . S
C420 C418 1.415 . S
C420 C425 1.425 . S
C420 C427 1.409 . S
C421 H413 0.930 . S
C421 C419 1.419 . S
C421 C422 1.362 . S
C422 H414 0.930 . S
C422 C421 1.362 . S
C422 C425 1.409 . S
C423 H415 0.930 . S
C423 C424 1.355 . S
C423 C425 1.415 . S
C424 C423 1.355 . S
C424 C426 1.419 . S
C425 C420 1.425 . S
C425 C422 1.409 . S
C425 C423 1.415 . S
C426 H416 0.930 . S
C426 C424 1.419 . S
C426 C427 1.362 . S
C427 H417 0.930 . S
C427 C420 1.409 . S
C427 C426 1.362 . S
H428 C434 0.930 . S
H429 C437 0.930 . S
H430 C438 0.930 . S
H431 C439 0.930 . S
H432 C442 0.930 . S
H433 C443 0.930 . S
C434 H428 0.930 . S
C434 C435 1.355 . S
C434 C436 1.415 . S
C435 C434 1.355 . S
C435 C437 1.419 . S
C436 C434 1.415 . S
C436 C441 1.425 . S
C436 C443 1.409 . S
C437 H429 0.930 . S
C437 C435 1.419 . S
C437 C438 1.362 . S
C438 H430 0.930 . S
C438 C437 1.362 . S
C438 C441 1.409 . S
C439 H431 0.930 . S
C439 C440 1.355 . S
C439 C441 1.415 . S
C440 C439 1.355 . S
C440 C442 1.419 . S
C441 C436 1.425 . S
C441 C438 1.409 . S
C441 C439 1.415 . S
C442 H432 0.930 . S
C442 C440 1.419 . S
C442 C443 1.362 . S
C443 H433 0.930 . S
C443 C436 1.409 . S
C443 C442 1.362 . S
H444 C450 0.930 . S
H445 C453 0.930 . S
H446 C454 0.930 . S
H447 C455 0.930 . S
H448 C458 0.930 . S
H449 C459 0.930 . S
C450 H444 0.930 . S
C450 C451 1.355 . S
C450 C452 1.415 . S
C451 C450 1.355 . S
C451 C453 1.419 . S
C452 C450 1.415 . S
C452 C457 1.425 . S
C452 C459 1.409 . S
C453 H445 0.930 . S
C453 C451 1.419 . S
C453 C454 1.362 . S
C454 H446 0.930 . S
C454 C453 1.362 . S
C454 C457 1.409 . S
C455 H447 0.930 . S
C455 C456 1.355 . S
C455 C457 1.415 . S
C456 C455 1.355 . S
C456 C458 1.419 . S
C457 C452 1.425 . S
C457 C454 1.409 . S
C457 C455 1.415 . S
C458 H448 0.930 . S
C458 C456 1.419 . S
C458 C459 1.362 . S
C459 H449 0.930 . S
C459 C452 1.409 . S
C459 C458 1.362 . S
H460 C466 0.930 . S
H461 C469 0.930 . S
H462 C470 0.930 . S
H463 C471 0.930 . S
H464 C474 0.930 . S
H465 C475 0.930 . S
C466 H460 0.930 . S
C466 C467 1.355 . S
C466 C468 1.415 . S
C467 C466 1.355 . S
C467 C469 1.419 1_554 S
C468 C466 1.415 . S
C468 C473 1.425 1_554 S
C468 C475 1.409 . S
C469 H461 0.930 . S
C469 C467 1.419 1_556 S
C469 C470 1.362 . S
C470 H462 0.930 . S
C470 C469 1.362 . S
C470 C473 1.409 . S
C471 H463 0.930 . S
C471 C472 1.355 1_556 S
C471 C473 1.415 . S
C472 C471 1.355 1_554 S
C472 C474 1.419 . S
C473 C468 1.425 1_556 S
C473 C470 1.409 . S
C473 C471 1.415 . S
C474 H464 0.930 . S
C474 C472 1.419 . S
C474 C475 1.362 . S
C475 H465 0.930 . S
C475 C468 1.409 . S
C475 C474 1.362 . S
H476 C482 0.930 . S
H477 C485 0.930 . S
H478 C486 0.930 . S
H479 C487 0.930 . S
H480 C490 0.930 . S
H481 C491 0.930 . S
C482 H476 0.930 . S
C482 C483 1.355 . S
C482 C484 1.415 . S
C483 C482 1.355 . S
C483 C485 1.419 . S
C484 C482 1.415 . S
C484 C489 1.425 . S
C484 C491 1.409 . S
C485 H477 0.930 . S
C485 C483 1.419 . S
C485 C486 1.362 . S
C486 H478 0.930 . S
C486 C485 1.362 . S
C486 C489 1.409 . S
C487 H479 0.930 . S
C487 C488 1.355 . S
C487 C489 1.415 . S
C488 C487 1.355 . S
C488 C490 1.419 . S
C489 C484 1.425 . S
C489 C486 1.409 . S
C489 C487 1.415 . S
C490 H480 0.930 . S
C490 C488 1.419 . S
C490 C491 1.362 . S
C491 H481 0.930 . S
C491 C484 1.409 . S
C491 C490 1.362 . S
H492 C498 0.930 . S
H493 C501 0.930 . S
H494 C502 0.930 . S
H495 C503 0.930 . S
H496 C506 0.930 . S
H497 C507 0.930 . S
C498 H492 0.930 . S
C498 C499 1.355 . S
C498 C500 1.415 . S
C499 C498 1.355 . S
C499 C501 1.419 . S
C500 C498 1.415 . S
C500 C505 1.425 . S
C500 C507 1.409 . S
C501 H493 0.930 . S
C501 C499 1.419 . S
C501 C502 1.362 . S
C502 H494 0.930 . S
C502 C501 1.362 . S
C502 C505 1.409 . S
C503 H495 0.930 . S
C503 C504 1.355 . S
C503 C505 1.415 . S
C504 C503 1.355 . S
C504 C506 1.419 . S
C505 C500 1.425 . S
C505 C502 1.409 . S
C505 C503 1.415 . S
C506 H496 0.930 . S
C506 C504 1.419 . S
C506 C507 1.362 . S
C507 H497 0.930 . S
C507 C500 1.409 . S
C507 C506 1.362 . S
H508 C514 0.930 . S
H509 C517 0.930 . S
H510 C518 0.930 . S
H511 C519 0.930 . S
H512 C522 0.930 . S
H513 C523 0.930 . S
C514 H508 0.930 . S
C514 C515 1.355 . S
C514 C516 1.415 . S
C515 C514 1.355 . S
C515 C517 1.419 . S
C516 C514 1.415 . S
C516 C521 1.425 . S
C516 C523 1.409 . S
C517 H509 0.930 . S
C517 C515 1.419 . S
C517 C518 1.362 . S
C518 H510 0.930 . S
C518 C517 1.362 . S
C518 C521 1.409 . S
C519 H511 0.930 . S
C519 C520 1.355 . S
C519 C521 1.415 . S
C520 C519 1.355 . S
C520 C522 1.419 . S
C521 C516 1.425 . S
C521 C518 1.409 . S
C521 C519 1.415 . S
C522 H512 0.930 . S
C522 C520 1.419 . S
C522 C523 1.362 . S
C523 H513 0.930 . S
C523 C516 1.409 . S
C523 C522 1.362 . S
H524 C530 0.930 . S
H525 C533 0.930 . S
H526 C534 0.930 . S
H527 C535 0.930 . S
H528 C538 0.930 . S
H529 C539 0.930 . S
C530 H524 0.930 . S
C530 C531 1.355 . S
C530 C532 1.415 . S
C531 C530 1.355 . S
C531 C533 1.419 . S
C532 C530 1.415 . S
C532 C537 1.425 . S
C532 C539 1.409 . S
C533 H525 0.930 . S
C533 C531 1.419 . S
C533 C534 1.362 . S
C534 H526 0.930 . S
C534 C533 1.362 . S
C534 C537 1.409 . S
C535 H527 0.930 . S
C535 C536 1.355 . S
C535 C537 1.415 . S
C536 C535 1.355 . S
C536 C538 1.419 . S
C537 C532 1.425 . S
C537 C534 1.409 . S
C537 C535 1.415 . S
C538 H528 0.930 . S
C538 C536 1.419 . S
C538 C539 1.362 . S
C539 H529 0.930 . S
C539 C532 1.409 . S
C539 C538 1.362 . S
H540 C546 0.930 . S
H541 C549 0.930 . S
H542 C550 0.930 . S
H543 C551 0.930 . S
H544 C554 0.927 1_554 S
H545 C555 0.926 1_554 S
C546 H540 0.930 . S
C546 C547 1.355 . S
C546 C548 1.415 . S
C547 C546 1.355 . S
C547 C549 1.419 . S
C548 C546 1.415 . S
C548 C553 1.425 . S
C548 C555 1.409 . S
C549 H541 0.930 . S
C549 C547 1.419 . S
C549 C550 1.362 . S
C550 H542 0.930 . S
C550 C549 1.362 . S
C550 C553 1.409 . S
C551 H543 0.930 . S
C551 C552 1.355 . S
C551 C553 1.415 . S
C552 C551 1.355 . S
C552 C554 1.419 . S
C553 C548 1.425 . S
C553 C550 1.409 . S
C553 C551 1.415 . S
C554 H544 0.927 1_556 S
C554 C552 1.419 . S
C554 C555 1.362 . S
C555 H545 0.926 1_556 S
C555 C548 1.409 . S
C555 C554 1.362 . S
H556 C562 0.930 . S
H557 C565 0.930 . S
H558 C566 0.930 . S
H559 C567 0.930 . S
H560 C570 0.930 . S
H561 C571 0.930 . S
C562 H556 0.930 . S
C562 C563 1.355 . S
C562 C564 1.415 . S
C563 C562 1.355 . S
C563 C565 1.419 . S
C564 C562 1.415 . S
C564 C569 1.425 . S
C564 C571 1.409 . S
C565 H557 0.930 . S
C565 C563 1.419 . S
C565 C566 1.362 . S
C566 H558 0.930 . S
C566 C565 1.362 . S
C566 C569 1.409 . S
C567 H559 0.930 . S
C567 C568 1.355 . S
C567 C569 1.415 . S
C568 C567 1.355 . S
C568 C570 1.419 . S
C569 C564 1.425 . S
C569 C566 1.409 . S
C569 C567 1.415 . S
C570 H560 0.930 . S
C570 C568 1.419 . S
C570 C571 1.362 . S
C571 H561 0.930 . S
C571 C564 1.409 . S
C571 C570 1.362 . S
H572 C578 0.930 . S
H573 C581 0.930 . S
H574 C582 0.930 . S
H575 C583 0.930 . S
H576 C586 0.930 . S
H577 C587 0.930 . S
C578 H572 0.930 . S
C578 C579 1.355 . S
C578 C580 1.415 . S
C579 C578 1.355 . S
C579 C581 1.419 . S
C580 C578 1.415 . S
C580 C585 1.425 . S
C580 C587 1.409 . S
C581 H573 0.930 . S
C581 C579 1.419 . S
C581 C582 1.362 . S
C582 H574 0.930 . S
C582 C581 1.362 . S
C582 C585 1.409 . S
C583 H575 0.930 . S
C583 C584 1.355 . S
C583 C585 1.415 . S
C584 C583 1.355 . S
C584 C586 1.419 . S
C585 C580 1.425 . S
C585 C582 1.409 . S
C585 C583 1.415 . S
C586 H576 0.930 . S
C586 C584 1.419 . S
C586 C587 1.362 . S
C587 H577 0.930 . S
C587 C580 1.409 . S
C587 C586 1.362 . S
H588 C594 0.930 . S
H589 C597 0.930 . S
H590 C598 0.930 . S
H591 C599 0.930 . S
H592 C602 0.930 . S
H593 C603 0.930 . S
C594 H588 0.930 . S
C594 C595 1.355 . S
C594 C596 1.415 . S
C595 C594 1.355 . S
C595 C597 1.419 . S
C596 C594 1.415 . S
C596 C601 1.425 . S
C596 C603 1.409 . S
C597 H589 0.930 . S
C597 C595 1.419 . S
C597 C598 1.362 . S
C598 H590 0.930 . S
C598 C597 1.362 . S
C598 C601 1.409 . S
C599 H591 0.930 . S
C599 C600 1.355 . S
C599 C601 1.415 . S
C600 C599 1.355 . S
C600 C602 1.419 . S
C601 C596 1.425 . S
C601 C598 1.409 . S
C601 C599 1.415 . S
C602 H592 0.930 . S
C602 C600 1.419 . S
C602 C603 1.362 . S
C603 H593 0.930 . S
C603 C596 1.409 . S
C603 C602 1.362 . S
H604 C610 0.930 . S
H605 C613 0.930 . S
H606 C614 0.930 . S
H607 C615 0.930 . S
H608 C618 0.930 . S
H609 C619 0.930 . S
C610 H604 0.930 . S
C610 C611 1.355 . S
C610 C612 1.415 . S
C611 C610 1.355 . S
C611 C613 1.419 1_455 S
C612 C610 1.415 . S
C612 C617 1.425 . S
C612 C619 1.409 . S
C613 H605 0.930 . S
C613 C611 1.419 1_655 S
C613 C614 1.362 . S
C614 H606 0.930 . S
C614 C613 1.362 . S
C614 C617 1.409 1_655 S
C615 H607 0.930 . S
C615 C616 1.355 1_655 S
C615 C617 1.415 1_655 S
C616 C615 1.355 1_455 S
C616 C618 1.419 . S
C617 C612 1.425 . S
C617 C614 1.409 1_455 S
C617 C615 1.415 1_455 S
C618 H608 0.930 . S
C618 C616 1.419 . S
C618 C619 1.362 . S
C619 H609 0.930 . S
C619 C612 1.409 . S
C619 C618 1.362 . S
H620 C626 0.930 1_565 S
H621 C629 0.930 . S
H622 C630 0.930 . S
H623 C631 0.930 . S
H624 C634 0.930 . S
H625 C635 0.930 . S
C626 H620 0.930 1_545 S
C626 C627 1.355 . S
C626 C628 1.415 . S
C627 C626 1.355 . S
C627 C629 1.419 . S
C628 C626 1.415 . S
C628 C633 1.425 . S
C628 C635 1.409 1_545 S
C629 H621 0.930 . S
C629 C627 1.419 . S
C629 C630 1.362 . S
C630 H622 0.930 . S
C630 C629 1.362 . S
C630 C633 1.409 . S
C631 H623 0.930 . S
C631 C632 1.355 . S
C631 C633 1.415 . S
C632 C631 1.355 . S
C632 C634 1.419 1_545 S
C633 C628 1.425 . S
C633 C630 1.409 . S
C633 C631 1.415 . S
C634 H624 0.930 . S
C634 C632 1.419 1_565 S
C634 C635 1.362 . S
C635 H625 0.930 . S
C635 C628 1.409 1_565 S
C635 C634 1.362 . S
H636 C642 0.930 . S
H637 C645 0.930 . S
H638 C646 0.930 . S
H639 C647 0.930 . S
H640 C650 0.930 . S
H641 C651 0.930 . S
C642 H636 0.930 . S
C642 C643 1.355 . S
C642 C644 1.415 . S
C643 C642 1.355 . S
C643 C645 1.419 . S
C644 C642 1.415 . S
C644 C649 1.425 . S
C644 C651 1.409 . S
C645 H637 0.930 . S
C645 C643 1.419 . S
C645 C646 1.362 . S
C646 H638 0.930 . S
C646 C645 1.362 . S
C646 C649 1.409 . S
C647 H639 0.930 . S
C647 C648 1.355 . S
C647 C649 1.415 . S
C648 C647 1.355 . S
C648 C650 1.419 . S
C649 C644 1.425 . S
C649 C646 1.409 . S
C649 C647 1.415 . S
C650 H640 0.930 . S
C650 C648 1.419 . S
C650 C651 1.362 . S
C651 H641 0.930 . S
C651 C644 1.409 . S
C651 C650 1.362 . S
H652 C658 0.930 . S
H653 C661 0.930 . S
H654 C662 0.930 . S
H655 C663 0.930 . S
H656 C666 0.930 . S
H657 C667 0.930 1_455 S
C658 H652 0.930 . S
C658 C659 1.355 . S
C658 C660 1.415 . S
C659 C658 1.355 . S
C659 C661 1.419 . S
C660 C658 1.415 . S
C660 C665 1.425 . S
C660 C667 1.409 . S
C661 H653 0.930 . S
C661 C659 1.419 . S
C661 C662 1.362 . S
C662 H654 0.930 . S
C662 C661 1.362 . S
C662 C665 1.409 . S
C663 H655 0.930 . S
C663 C664 1.355 . S
C663 C665 1.415 . S
C664 C663 1.355 . S
C664 C666 1.419 . S
C665 C660 1.425 . S
C665 C662 1.409 . S
C665 C663 1.415 . S
C666 H656 0.930 . S
C666 C664 1.419 . S
C666 C667 1.362 . S
C667 H657 0.930 1_655 S
C667 C660 1.409 . S
C667 C666 1.362 . S
H668 C674 0.932 . S
H669 C677 0.930 . S
H670 C678 0.930 . S
H671 C679 0.930 . S
H672 C682 0.930 . S
H673 C683 0.930 . S
C674 H668 0.932 . S
C674 C675 1.352 1_545 S
C674 C676 1.415 1_545 S
C675 C674 1.352 1_565 S
C675 C677 1.419 . S
C676 C674 1.415 1_565 S
C676 C681 1.425 . S
C676 C683 1.409 1_565 S
C677 H669 0.930 . S
C677 C675 1.419 . S
C677 C678 1.362 . S
C678 H670 0.930 . S
C678 C677 1.362 . S
C678 C681 1.409 . S
C679 H671 0.930 . S
C679 C680 1.355 . S
C679 C681 1.415 . S
C680 C679 1.355 . S
C680 C682 1.419 1_565 S
C681 C676 1.425 . S
C681 C678 1.409 . S
C681 C679 1.415 . S
C682 H672 0.930 . S
C682 C680 1.419 1_545 S
C682 C683 1.362 . S
C683 H673 0.930 . S
C683 C676 1.409 1_545 S
C683 C682 1.362 . S
H684 C690 0.930 . S
H685 C693 0.930 . S
H686 C694 0.930 . S
H687 C695 0.930 . S
H688 C698 0.930 . S
H689 C699 0.930 . S
C690 H684 0.930 . S
C690 C691 1.355 . S
C690 C692 1.415 . S
C691 C690 1.355 . S
C691 C693 1.419 . S
C692 C690 1.415 . S
C692 C697 1.425 . S
C692 C699 1.409 . S
C693 H685 0.930 . S
C693 C691 1.419 . S
C693 C694 1.362 . S
C694 H686 0.930 . S
C694 C693 1.362 . S
C694 C697 1.409 . S
C695 H687 0.930 . S
C695 C696 1.355 . S
C695 C697 1.415 . S
C696 C695 1.355 . S
C696 C698 1.419 . S
C697 C692 1.425 . S
C697 C694 1.409 . S
C697 C695 1.415 . S
C698 H688 0.930 . S
C698 C696 1.419 . S
C698 C699 1.362 . S
C699 H689 0.930 . S
C699 C692 1.409 . S
C699 C698 1.362 . S
H700 C706 0.930 . S
H701 C709 0.930 . S
H702 C710 0.930 . S
H703 C711 0.930 . S
H704 C714 0.930 . S
H705 C715 0.931 1_655 S
C706 H700 0.930 . S
C706 C707 1.355 . S
C706 C708 1.415 . S
C707 C706 1.355 . S
C707 C709 1.419 . S
C708 C706 1.415 . S
C708 C713 1.425 . S
C708 C715 1.409 . S
C709 H701 0.930 . S
C709 C707 1.419 . S
C709 C710 1.362 . S
C710 H702 0.930 . S
C710 C709 1.362 . S
C710 C713 1.409 . S
C711 H703 0.930 . S
C711 C712 1.355 . S
C711 C713 1.415 . S
C712 C711 1.355 . S
C712 C714 1.419 1_455 S
C713 C708 1.425 . S
C713 C710 1.409 . S
C713 C711 1.415 . S
C714 H704 0.930 . S
C714 C712 1.419 1_655 S
C714 C715 1.362 1_655 S
C715 H705 0.931 1_455 S
C715 C708 1.409 . S
C715 C714 1.362 1_455 S
H716 C722 0.930 . S
H717 C725 0.930 . S
H718 C726 0.930 . S
H719 C727 0.930 . S
H720 C730 0.930 . S
H721 C731 0.930 . S
C722 H716 0.930 . S
C722 C723 1.355 . S
C722 C724 1.415 . S
C723 C722 1.355 . S
C723 C725 1.419 1_545 S
C724 C722 1.415 . S
C724 C729 1.425 . S
C724 C731 1.409 . S
C725 H717 0.930 . S
C725 C723 1.419 1_565 S
C725 C726 1.362 . S
C726 H718 0.930 . S
C726 C725 1.362 . S
C726 C729 1.409 1_565 S
C727 H719 0.930 . S
C727 C728 1.355 . S
C727 C729 1.415 . S
C728 C727 1.355 . S
C728 C730 1.419 . S
C729 C724 1.425 . S
C729 C726 1.409 1_545 S
C729 C727 1.415 . S
C730 H720 0.930 . S
C730 C728 1.419 . S
C730 C731 1.362 . S
C731 H721 0.930 . S
C731 C724 1.409 . S
C731 C730 1.362 . S
H732 C738 0.930 . S
H733 C741 0.930 . S
H734 C742 0.930 . S
H735 C743 0.930 . S
H736 C746 0.930 . S
H737 C747 0.930 . S
C738 H732 0.930 . S
C738 C739 1.355 . S
C738 C740 1.415 . S
C739 C738 1.355 . S
C739 C741 1.419 . S
C740 C738 1.415 . S
C740 C745 1.425 . S
C740 C747 1.409 . S
C741 H733 0.930 . S
C741 C739 1.419 . S
C741 C742 1.362 . S
C742 H734 0.930 . S
C742 C741 1.362 . S
C742 C745 1.409 . S
C743 H735 0.930 . S
C743 C744 1.355 . S
C743 C745 1.415 . S
C744 C743 1.355 . S
C744 C746 1.419 . S
C745 C740 1.425 . S
C745 C742 1.409 . S
C745 C743 1.415 . S
C746 H736 0.930 . S
C746 C744 1.419 . S
C746 C747 1.362 . S
C747 H737 0.930 . S
C747 C740 1.409 . S
C747 C746 1.362 . S
H748 C754 0.930 . S
H749 C757 0.930 . S
H750 C758 0.930 . S
H751 C759 0.930 . S
H752 C762 0.930 . S
H753 C763 0.930 . S
C754 H748 0.930 . S
C754 C755 1.355 . S
C754 C756 1.415 . S
C755 C754 1.355 . S
C755 C757 1.419 . S
C756 C754 1.415 . S
C756 C761 1.425 . S
C756 C763 1.409 . S
C757 H749 0.930 . S
C757 C755 1.419 . S
C757 C758 1.362 . S
C758 H750 0.930 . S
C758 C757 1.362 . S
C758 C761 1.409 . S
C759 H751 0.930 . S
C759 C760 1.355 . S
C759 C761 1.415 . S
C760 C759 1.355 . S
C760 C762 1.419 . S
C761 C756 1.425 . S
C761 C758 1.409 . S
C761 C759 1.415 . S
C762 H752 0.930 . S
C762 C760 1.419 . S
C762 C763 1.362 . S
C763 H753 0.930 . S
C763 C756 1.409 . S
C763 C762 1.362 . S
H764 C770 0.930 1_545 S
H765 C773 0.930 . S
H766 C774 0.930 . S
H767 C775 0.930 . S
H768 C778 0.930 . S
H769 C779 0.931 . S
C770 H764 0.930 1_565 S
C770 C771 1.355 . S
C770 C772 1.415 . S
C771 C770 1.355 . S
C771 C773 1.419 . S
C772 C770 1.415 . S
C772 C777 1.425 . S
C772 C779 1.409 . S
C773 H765 0.930 . S
C773 C771 1.419 . S
C773 C774 1.362 . S
C774 H766 0.930 . S
C774 C773 1.362 . S
C774 C777 1.409 . S
C775 H767 0.930 . S
C775 C776 1.355 . S
C775 C777 1.415 . S
C776 C775 1.355 . S
C776 C778 1.419 . S
C777 C772 1.425 . S
C777 C774 1.409 . S
C777 C775 1.415 . S
C778 H768 0.930 . S
C778 C776 1.419 . S
C778 C779 1.362 . S
C779 H769 0.931 . S
C779 C772 1.409 . S
C779 C778 1.362 . S
H780 C786 0.930 . S
H781 C789 0.930 . S
H782 C790 0.930 . S
H783 C791 0.930 . S
H784 C794 0.930 . S
H785 C795 0.930 . S
C786 H780 0.930 . S
C786 C787 1.355 . S
C786 C788 1.415 . S
C787 C786 1.355 . S
C787 C789 1.419 . S
C788 C786 1.415 . S
C788 C793 1.425 . S
C788 C795 1.409 . S
C789 H781 0.930 . S
C789 C787 1.419 . S
C789 C790 1.362 . S
C790 H782 0.930 . S
C790 C789 1.362 . S
C790 C793 1.409 . S
C791 H783 0.930 . S
C791 C792 1.355 . S
C791 C793 1.415 . S
C792 C791 1.355 . S
C792 C794 1.419 . S
C793 C788 1.425 . S
C793 C790 1.409 . S
C793 C791 1.415 . S
C794 H784 0.930 . S
C794 C792 1.419 . S
C794 C795 1.362 . S
C795 H785 0.930 . S
C795 C788 1.409 . S
C795 C794 1.362 . S
H796 C802 0.930 . S
H797 C805 0.930 . S
H798 C806 0.930 1_655 S
H799 C807 0.930 1_655 S
H800 C810 0.930 . S
H801 C811 0.930 . S
C802 H796 0.930 . S
C802 C803 1.355 . S
C802 C804 1.415 . S
C803 C802 1.355 . S
C803 C805 1.419 . S
C804 C802 1.415 . S
C804 C809 1.425 . S
C804 C811 1.409 . S
C805 H797 0.930 . S
C805 C803 1.419 . S
C805 C806 1.362 . S
C806 H798 0.930 1_455 S
C806 C805 1.362 . S
C806 C809 1.409 . S
C807 H799 0.930 1_455 S
C807 C808 1.355 . S
C807 C809 1.415 . S
C808 C807 1.355 . S
C808 C810 1.419 . S
C809 C804 1.425 . S
C809 C806 1.409 . S
C809 C807 1.415 . S
C810 H800 0.930 . S
C810 C808 1.419 . S
C810 C811 1.362 . S
C811 H801 0.930 . S
C811 C804 1.409 . S
C811 C810 1.362 . S
H812 C818 0.930 . S
H813 C821 0.930 . S
H814 C822 0.930 . S
H815 C823 0.930 . S
H816 C826 0.930 . S
H817 C827 0.930 . S
C818 H812 0.930 . S
C818 C819 1.355 . S
C818 C820 1.415 . S
C819 C818 1.355 . S
C819 C821 1.419 1_545 S
C820 C818 1.415 . S
C820 C825 1.425 . S
C820 C827 1.409 . S
C821 H813 0.930 . S
C821 C819 1.419 1_565 S
C821 C822 1.362 . S
C822 H814 0.930 . S
C822 C821 1.362 . S
C822 C825 1.409 1_565 S
C823 H815 0.930 . S
C823 C824 1.355 . S
C823 C825 1.415 . S
C824 C823 1.355 . S
C824 C826 1.419 . S
C825 C820 1.425 . S
C825 C822 1.409 1_545 S
C825 C823 1.415 . S
C826 H816 0.930 . S
C826 C824 1.419 . S
C826 C827 1.362 . S
C827 H817 0.930 . S
C827 C820 1.409 . S
C827 C826 1.362 . S
H828 C834 0.930 . S
H829 C837 0.930 . S
H830 C838 0.930 . S
H831 C839 0.930 . S
H832 C842 0.930 . S
H833 C843 0.930 . S
C834 H828 0.930 . S
C834 C835 1.355 . S
C834 C836 1.415 . S
C835 C834 1.355 . S
C835 C837 1.419 . S
C836 C834 1.415 . S
C836 C841 1.425 . S
C836 C843 1.409 . S
C837 H829 0.930 . S
C837 C835 1.419 . S
C837 C838 1.362 . S
C838 H830 0.930 . S
C838 C837 1.362 . S
C838 C841 1.409 . S
C839 H831 0.930 . S
C839 C840 1.355 . S
C839 C841 1.415 . S
C840 C839 1.355 . S
C840 C842 1.419 . S
C841 C836 1.425 . S
C841 C838 1.409 . S
C841 C839 1.415 . S
C842 H832 0.930 . S
C842 C840 1.419 . S
C842 C843 1.362 . S
C843 H833 0.930 . S
C843 C836 1.409 . S
C843 C842 1.362 . S
H844 C850 0.930 . S
H845 C853 0.930 . S
H846 C854 0.930 . S
H847 C855 0.930 . S
H848 C858 0.930 . S
H849 C859 0.930 . S
C850 H844 0.930 . S
C850 C851 1.355 . S
C850 C852 1.415 . S
C851 C850 1.355 . S
C851 C853 1.419 1_655 S
C852 C850 1.415 . S
C852 C857 1.425 . S
C852 C859 1.409 . S
C853 H845 0.930 . S
C853 C851 1.419 1_455 S
C853 C854 1.362 . S
C854 H846 0.930 . S
C854 C853 1.362 . S
C854 C857 1.409 1_455 S
C855 H847 0.930 . S
C855 C856 1.355 . S
C855 C857 1.415 . S
C856 C855 1.355 . S
C856 C858 1.419 . S
C857 C852 1.425 . S
C857 C854 1.409 1_655 S
C857 C855 1.415 . S
C858 H848 0.930 . S
C858 C856 1.419 . S
C858 C859 1.362 . S
C859 H849 0.930 . S
C859 C852 1.409 . S
C859 C858 1.362 . S
H860 C866 0.930 . S
H861 C869 0.930 . S
H862 C870 0.930 . S
H863 C871 0.930 . S
H864 C874 0.930 . S
H865 C875 0.930 . S
C866 H860 0.930 . S
C866 C867 1.355 . S
C866 C868 1.415 . S
C867 C866 1.355 . S
C867 C869 1.419 1_565 S
C868 C866 1.415 . S
C868 C873 1.425 . S
C868 C875 1.409 . S
C869 H861 0.930 . S
C869 C867 1.419 1_545 S
C869 C870 1.362 . S
C870 H862 0.930 . S
C870 C869 1.362 . S
C870 C873 1.409 1_545 S
C871 H863 0.930 . S
C871 C872 1.355 . S
C871 C873 1.415 . S
C872 C871 1.355 . S
C872 C874 1.419 . S
C873 C868 1.425 . S
C873 C870 1.409 1_565 S
C873 C871 1.415 . S
C874 H864 0.930 . S
C874 C872 1.419 . S
C874 C875 1.362 . S
C875 H865 0.930 . S
C875 C868 1.409 . S
C875 C874 1.362 . S
C403 C18 1.845 . S
C408 C370 1.766 . S
C419 C51 1.859 . S
C424 C205 1.765 . S
C435 C238 1.756 . S
C440 C84 1.847 . S
C451 C271 1.785 . S
C456 C117 1.869 . S
C467 C150 1.864 . S
C472 C304 1.818 1_554 S
C483 C183 1.874 . S
C488 C337 1.818 . S
C499 C40 1.801 . S
C504 C216 1.874 . S
C515 C249 1.869 . S
C520 C73 1.786 . S
C531 C106 1.805 . S
C536 C282 1.856 . S
C547 C315 1.875 . S
C552 C139 1.816 . S
C563 C348 1.848 . S
C568 C172 1.755 . S
C579 C7 1.756 . S
C584 C381 1.848 . S
C595 N200 0.460 . S
C600 N2 0.497 . S
C611 N35 0.479 . S
C616 N233 0.426 . S
C627 N68 0.460 . S
C632 N266 0.497 . S
C643 N101 0.390 . S
C648 N299 0.543 . S
C659 N332 0.489 . S
C664 N134 0.469 . S
C675 N365 0.382 . S
C680 N167 0.522 . S
C691 C186 1.194 . S
C696 N13 1.171 . S
C707 C21 1.128 . S
C712 N46 1.175 . S
C723 N79 1.181 . S
C728 C54 1.124 . S
C739 N112 1.166 . S
C744 C87 1.181 . S
C755 N145 1.255 . S
C760 C120 1.174 . S
C771 N178 1.262 . S
C776 C153 1.198 . S
C787 N211 1.184 . S
C792 C252 1.123 . S
C803 C285 1.238 . S
C808 N244 1.251 . S
C819 N277 1.168 . S
C824 C318 1.136 . S
C835 N310 1.256 . S
C840 C351 1.176 . S
C851 N343 1.213 . S
C856 C384 1.126 . S
C867 N376 1.215 . S
C872 C219 1.127 . S
