# Generated by pormake.
# Topology vcc, (6)-cn, num edge types: 1
# Building blocks:
#     Node 0, Type 0, BuildingBlock: BETDEL_clean_sbu_0, # of connection points: 6
#     Node 1, Type 0, BuildingBlock: BETDEL_clean_sbu_0, # of connection points: 6
#     Node 2, Type 0, BuildingBlock: BETDEL_clean_sbu_0, # of connection points: 6
#     Node 3, Type 0, BuildingBlock: BETDEL_clean_sbu_0, # of connection points: 6
#     Node 4, Type 0, BuildingBlock: BETDEL_clean_sbu_0, # of connection points: 6
#     Node 5, Type 0, BuildingBlock: BETDEL_clean_sbu_0, # of connection points: 6
#     Node 6, Type 0, BuildingBlock: BETDEL_clean_sbu_0, # of connection points: 6
#     Node 7, Type 0, BuildingBlock: BETDEL_clean_sbu_0, # of connection points: 6
#     Node 8, Type 0, BuildingBlock: BETDEL_clean_sbu_0, # of connection points: 6
#     Node 9, Type 0, BuildingBlock: BETDEL_clean_sbu_0, # of connection points: 6
#     Node 10, Type 0, BuildingBlock: BETDEL_clean_sbu_0, # of connection points: 6
#     Node 11, Type 0, BuildingBlock: BETDEL_clean_sbu_0, # of connection points: 6
#     Node 12, Type 0, BuildingBlock: BETDEL_clean_sbu_0, # of connection points: 6
#     Node 13, Type 0, BuildingBlock: BETDEL_clean_sbu_0, # of connection points: 6
#     Node 14, Type 0, BuildingBlock: BETDEL_clean_sbu_0, # of connection points: 6
#     Node 15, Type 0, BuildingBlock: BETDEL_clean_sbu_0, # of connection points: 6
#     Node 16, Type 0, BuildingBlock: BETDEL_clean_sbu_0, # of connection points: 6
#     Node 17, Type 0, BuildingBlock: BETDEL_clean_sbu_0, # of connection points: 6
#     Node 18, Type 0, BuildingBlock: BETDEL_clean_sbu_0, # of connection points: 6
#     Node 19, Type 0, BuildingBlock: BETDEL_clean_sbu_0, # of connection points: 6
#     Node 20, Type 0, BuildingBlock: BETDEL_clean_sbu_0, # of connection points: 6
#     Node 21, Type 0, BuildingBlock: BETDEL_clean_sbu_0, # of connection points: 6
#     Node 22, Type 0, BuildingBlock: BETDEL_clean_sbu_0, # of connection points: 6
#     Node 23, Type 0, BuildingBlock: BETDEL_clean_sbu_0, # of connection points: 6
#     Node 24, Type 0, BuildingBlock: BETDEL_clean_sbu_0, # of connection points: 6
#     Node 25, Type 0, BuildingBlock: BETDEL_clean_sbu_0, # of connection points: 6
#     Node 26, Type 0, BuildingBlock: BETDEL_clean_sbu_0, # of connection points: 6
#     Node 27, Type 0, BuildingBlock: BETDEL_clean_sbu_0, # of connection points: 6
#     Node 28, Type 0, BuildingBlock: BETDEL_clean_sbu_0, # of connection points: 6
#     Node 29, Type 0, BuildingBlock: BETDEL_clean_sbu_0, # of connection points: 6
#     Node 30, Type 0, BuildingBlock: BETDEL_clean_sbu_0, # of connection points: 6
#     Node 31, Type 0, BuildingBlock: BETDEL_clean_sbu_0, # of connection points: 6
#     Edge 32, Type (0, 0), BuildingBlock: OJICUG_clean_linker_0, # of connection points: 2
#     Edge 33, Type (0, 0), BuildingBlock: OJICUG_clean_linker_0, # of connection points: 2
#     Edge 34, Type (0, 0), BuildingBlock: OJICUG_clean_linker_0, # of connection points: 2
#     Edge 35, Type (0, 0), BuildingBlock: OJICUG_clean_linker_0, # of connection points: 2
#     Edge 36, Type (0, 0), BuildingBlock: OJICUG_clean_linker_0, # of connection points: 2
#     Edge 37, Type (0, 0), BuildingBlock: OJICUG_clean_linker_0, # of connection points: 2
#     Edge 38, Type (0, 0), BuildingBlock: OJICUG_clean_linker_0, # of connection points: 2
#     Edge 39, Type (0, 0), BuildingBlock: OJICUG_clean_linker_0, # of connection points: 2
#     Edge 40, Type (0, 0), BuildingBlock: OJICUG_clean_linker_0, # of connection points: 2
#     Edge 41, Type (0, 0), BuildingBlock: OJICUG_clean_linker_0, # of connection points: 2
#     Edge 42, Type (0, 0), BuildingBlock: OJICUG_clean_linker_0, # of connection points: 2
#     Edge 43, Type (0, 0), BuildingBlock: OJICUG_clean_linker_0, # of connection points: 2
#     Edge 44, Type (0, 0), BuildingBlock: OJICUG_clean_linker_0, # of connection points: 2
#     Edge 45, Type (0, 0), BuildingBlock: OJICUG_clean_linker_0, # of connection points: 2
#     Edge 46, Type (0, 0), BuildingBlock: OJICUG_clean_linker_0, # of connection points: 2
#     Edge 47, Type (0, 0), BuildingBlock: OJICUG_clean_linker_0, # of connection points: 2
#     Edge 48, Type (0, 0), BuildingBlock: OJICUG_clean_linker_0, # of connection points: 2
#     Edge 49, Type (0, 0), BuildingBlock: OJICUG_clean_linker_0, # of connection points: 2
#     Edge 50, Type (0, 0), BuildingBlock: OJICUG_clean_linker_0, # of connection points: 2
#     Edge 51, Type (0, 0), BuildingBlock: OJICUG_clean_linker_0, # of connection points: 2
#     Edge 52, Type (0, 0), BuildingBlock: OJICUG_clean_linker_0, # of connection points: 2
#     Edge 53, Type (0, 0), BuildingBlock: OJICUG_clean_linker_0, # of connection points: 2
#     Edge 54, Type (0, 0), BuildingBlock: OJICUG_clean_linker_0, # of connection points: 2
#     Edge 55, Type (0, 0), BuildingBlock: OJICUG_clean_linker_0, # of connection points: 2
#     Edge 56, Type (0, 0), BuildingBlock: OJICUG_clean_linker_0, # of connection points: 2
#     Edge 57, Type (0, 0), BuildingBlock: OJICUG_clean_linker_0, # of connection points: 2
#     Edge 58, Type (0, 0), BuildingBlock: OJICUG_clean_linker_0, # of connection points: 2
#     Edge 59, Type (0, 0), BuildingBlock: OJICUG_clean_linker_0, # of connection points: 2
#     Edge 60, Type (0, 0), BuildingBlock: OJICUG_clean_linker_0, # of connection points: 2
#     Edge 61, Type (0, 0), BuildingBlock: OJICUG_clean_linker_0, # of connection points: 2
#     Edge 62, Type (0, 0), BuildingBlock: OJICUG_clean_linker_0, # of connection points: 2
#     Edge 63, Type (0, 0), BuildingBlock: OJICUG_clean_linker_0, # of connection points: 2
#     Edge 64, Type (0, 0), BuildingBlock: OJICUG_clean_linker_0, # of connection points: 2
#     Edge 65, Type (0, 0), BuildingBlock: OJICUG_clean_linker_0, # of connection points: 2
#     Edge 66, Type (0, 0), BuildingBlock: OJICUG_clean_linker_0, # of connection points: 2
#     Edge 67, Type (0, 0), BuildingBlock: OJICUG_clean_linker_0, # of connection points: 2
#     Edge 68, Type (0, 0), BuildingBlock: OJICUG_clean_linker_0, # of connection points: 2
#     Edge 69, Type (0, 0), BuildingBlock: OJICUG_clean_linker_0, # of connection points: 2
#     Edge 70, Type (0, 0), BuildingBlock: OJICUG_clean_linker_0, # of connection points: 2
#     Edge 71, Type (0, 0), BuildingBlock: OJICUG_clean_linker_0, # of connection points: 2
#     Edge 72, Type (0, 0), BuildingBlock: OJICUG_clean_linker_0, # of connection points: 2
#     Edge 73, Type (0, 0), BuildingBlock: OJICUG_clean_linker_0, # of connection points: 2
#     Edge 74, Type (0, 0), BuildingBlock: OJICUG_clean_linker_0, # of connection points: 2
#     Edge 75, Type (0, 0), BuildingBlock: OJICUG_clean_linker_0, # of connection points: 2
#     Edge 76, Type (0, 0), BuildingBlock: OJICUG_clean_linker_0, # of connection points: 2
#     Edge 77, Type (0, 0), BuildingBlock: OJICUG_clean_linker_0, # of connection points: 2
#     Edge 78, Type (0, 0), BuildingBlock: OJICUG_clean_linker_0, # of connection points: 2
#     Edge 79, Type (0, 0), BuildingBlock: OJICUG_clean_linker_0, # of connection points: 2
#     Edge 80, Type (0, 0), BuildingBlock: OJICUG_clean_linker_0, # of connection points: 2
#     Edge 81, Type (0, 0), BuildingBlock: OJICUG_clean_linker_0, # of connection points: 2
#     Edge 82, Type (0, 0), BuildingBlock: OJICUG_clean_linker_0, # of connection points: 2
#     Edge 83, Type (0, 0), BuildingBlock: OJICUG_clean_linker_0, # of connection points: 2
#     Edge 84, Type (0, 0), BuildingBlock: OJICUG_clean_linker_0, # of connection points: 2
#     Edge 85, Type (0, 0), BuildingBlock: OJICUG_clean_linker_0, # of connection points: 2
#     Edge 86, Type (0, 0), BuildingBlock: OJICUG_clean_linker_0, # of connection points: 2
#     Edge 87, Type (0, 0), BuildingBlock: OJICUG_clean_linker_0, # of connection points: 2
#     Edge 88, Type (0, 0), BuildingBlock: OJICUG_clean_linker_0, # of connection points: 2
#     Edge 89, Type (0, 0), BuildingBlock: OJICUG_clean_linker_0, # of connection points: 2
#     Edge 90, Type (0, 0), BuildingBlock: OJICUG_clean_linker_0, # of connection points: 2
#     Edge 91, Type (0, 0), BuildingBlock: OJICUG_clean_linker_0, # of connection points: 2
#     Edge 92, Type (0, 0), BuildingBlock: OJICUG_clean_linker_0, # of connection points: 2
#     Edge 93, Type (0, 0), BuildingBlock: OJICUG_clean_linker_0, # of connection points: 2
#     Edge 94, Type (0, 0), BuildingBlock: OJICUG_clean_linker_0, # of connection points: 2
#     Edge 95, Type (0, 0), BuildingBlock: OJICUG_clean_linker_0, # of connection points: 2
#     Edge 96, Type (0, 0), BuildingBlock: OJICUG_clean_linker_0, # of connection points: 2
#     Edge 97, Type (0, 0), BuildingBlock: OJICUG_clean_linker_0, # of connection points: 2
#     Edge 98, Type (0, 0), BuildingBlock: OJICUG_clean_linker_0, # of connection points: 2
#     Edge 99, Type (0, 0), BuildingBlock: OJICUG_clean_linker_0, # of connection points: 2
#     Edge 100, Type (0, 0), BuildingBlock: OJICUG_clean_linker_0, # of connection points: 2
#     Edge 101, Type (0, 0), BuildingBlock: OJICUG_clean_linker_0, # of connection points: 2
#     Edge 102, Type (0, 0), BuildingBlock: OJICUG_clean_linker_0, # of connection points: 2
#     Edge 103, Type (0, 0), BuildingBlock: OJICUG_clean_linker_0, # of connection points: 2
#     Edge 104, Type (0, 0), BuildingBlock: OJICUG_clean_linker_0, # of connection points: 2
#     Edge 105, Type (0, 0), BuildingBlock: OJICUG_clean_linker_0, # of connection points: 2
#     Edge 106, Type (0, 0), BuildingBlock: OJICUG_clean_linker_0, # of connection points: 2
#     Edge 107, Type (0, 0), BuildingBlock: OJICUG_clean_linker_0, # of connection points: 2
#     Edge 108, Type (0, 0), BuildingBlock: OJICUG_clean_linker_0, # of connection points: 2
#     Edge 109, Type (0, 0), BuildingBlock: OJICUG_clean_linker_0, # of connection points: 2
#     Edge 110, Type (0, 0), BuildingBlock: OJICUG_clean_linker_0, # of connection points: 2
#     Edge 111, Type (0, 0), BuildingBlock: OJICUG_clean_linker_0, # of connection points: 2
#     Edge 112, Type (0, 0), BuildingBlock: OJICUG_clean_linker_0, # of connection points: 2
#     Edge 113, Type (0, 0), BuildingBlock: OJICUG_clean_linker_0, # of connection points: 2
#     Edge 114, Type (0, 0), BuildingBlock: OJICUG_clean_linker_0, # of connection points: 2
#     Edge 115, Type (0, 0), BuildingBlock: OJICUG_clean_linker_0, # of connection points: 2
#     Edge 116, Type (0, 0), BuildingBlock: OJICUG_clean_linker_0, # of connection points: 2
#     Edge 117, Type (0, 0), BuildingBlock: OJICUG_clean_linker_0, # of connection points: 2
#     Edge 118, Type (0, 0), BuildingBlock: OJICUG_clean_linker_0, # of connection points: 2
#     Edge 119, Type (0, 0), BuildingBlock: OJICUG_clean_linker_0, # of connection points: 2
#     Edge 120, Type (0, 0), BuildingBlock: OJICUG_clean_linker_0, # of connection points: 2
#     Edge 121, Type (0, 0), BuildingBlock: OJICUG_clean_linker_0, # of connection points: 2
#     Edge 122, Type (0, 0), BuildingBlock: OJICUG_clean_linker_0, # of connection points: 2
#     Edge 123, Type (0, 0), BuildingBlock: OJICUG_clean_linker_0, # of connection points: 2
#     Edge 124, Type (0, 0), BuildingBlock: OJICUG_clean_linker_0, # of connection points: 2
#     Edge 125, Type (0, 0), BuildingBlock: OJICUG_clean_linker_0, # of connection points: 2
#     Edge 126, Type (0, 0), BuildingBlock: OJICUG_clean_linker_0, # of connection points: 2
#     Edge 127, Type (0, 0), BuildingBlock: OJICUG_clean_linker_0, # of connection points: 2
# Relax obj value: 0.094
# Max RMSD: 0.136
# Mean RMSD: 0.136
data_MOF--net-vcc--node1-BETDEL_clean_sbu_0--edge1-OJICUG_clean_linker_0
_symmetry_space_group_name_H-M    P1
_symmetry_Int_Tables_number       1
_symmetry_cell_setting            triclinic
loop_
_symmetry_equiv_pos_as_xyz
'x, y, z'
_cell_length_a     31.104863
_cell_length_b     38.364749
_cell_length_c     33.235049
_cell_angle_alpha  89.873565
_cell_angle_beta   90.0642
_cell_angle_gamma 90.011979
loop_
_atom_site_label
_atom_site_type_symbol
_atom_site_fract_x
_atom_site_fract_y
_atom_site_fract_z
_atom_type_partial_charge
Dy0 Dy 0.3309 0.04428 0.06811 0.0
C1 C 0.21499 0.05567 0.19994 0.0
C2 C 0.36211 1.03564 0.99221 0.0
Dy3 Dy 0.26232 0.0442 0.13302 0.0
O4 O 0.36041 0.06486 1.01174 0.0
O5 O 0.35242 1.01036 1.01672 0.0
O6 O 0.36048 0.09215 0.09388 0.0
O7 O 0.29317 0.08512 0.09804 0.0
C8 C 0.32457 0.10427 0.10827 0.0
C9 C 0.29502 0.98118 0.11685 0.0
O10 O 0.21709 0.05058 0.08049 0.0
O11 O 0.27087 0.05281 1.03214 0.0
O12 O 0.2075 1.0311 0.17386 0.0
O13 O 0.24493 0.07622 0.18647 0.0
O14 O 0.28159 0.99051 0.15198 0.0
O15 O 0.28738 1.00497 0.09162 0.0
O16 O 0.37175 1.02586 0.11997 0.0
O17 O 0.32451 0.04882 0.16685 0.0
C18 C 0.22983 0.05329 0.04239 0.0
C19 C 0.36212 1.03476 0.1576 0.0
Dy20 Dy 0.83301 0.28656 0.06669 0.0
C21 C 0.94761 0.27175 0.20187 0.0
C22 C 0.80226 0.29599 0.99072 0.0
Dy23 Dy 0.90724 0.28548 0.13153 0.0
O24 O 0.80246 0.26668 1.01041 0.0
O25 O 0.81302 0.32095 1.01518 0.0
O26 O 0.80476 0.23856 0.09312 0.0
O27 O 0.8721 0.24639 0.09677 0.0
C28 C 0.84096 0.22724 0.10804 0.0
C29 C 0.88769 0.35166 0.10972 0.0
O30 O 0.9481 0.27178 0.07819 0.0
O31 O 0.89401 0.2811 1.03083 0.0
O32 O -0.03617 0.29027 0.1727 0.0
O33 O 0.91171 0.25765 0.19029 0.0
O34 O 0.91728 0.3439 0.13574 0.0
O35 O 0.87307 0.32338 0.09672 0.0
O36 O 0.79477 0.30676 0.11915 0.0
O37 O 0.84559 0.28907 0.16679 0.0
C38 C 0.93459 0.27436 0.04029 0.0
C39 C 0.80681 0.30102 0.15718 0.0
Dy40 Dy 0.32925 0.28748 0.24877 0.0
C41 C 0.21008 0.27937 0.11913 0.0
C42 C 0.36119 0.29573 0.32456 0.0
Dy43 Dy 0.26009 0.28833 0.18501 0.0
O44 O 0.36031 0.26679 0.30443 0.0
O45 O 0.35059 0.32111 0.30049 0.0
O46 O 0.35912 0.24018 0.22245 0.0
O47 O 0.29155 0.2466 0.21857 0.0
C48 C 0.32329 0.2279 0.20798 0.0
C49 C 0.2934 0.35119 0.20163 0.0
O50 O 0.21563 0.28069 0.23786 0.0
O51 O 0.27009 0.27755 0.28545 0.0
O52 O 0.204 0.30321 0.14634 0.0
O53 O 0.24014 0.25814 0.13093 0.0
O54 O 0.28027 0.34194 0.16637 0.0
O55 O 0.28561 0.32729 0.22666 0.0
O56 O 0.36936 0.30582 0.19623 0.0
O57 O 0.3213 0.28303 0.14995 0.0
C58 C 0.22889 0.27718 0.27574 0.0
C59 C 0.35925 0.29674 0.1587 0.0
Dy60 Dy 0.83272 0.0453 0.25204 0.0
C61 C 0.94374 0.06181 0.1152 0.0
C62 C 0.80256 1.0364 0.32818 0.0
Dy63 Dy 0.90592 0.04635 0.18629 0.0
O64 O 0.80223 0.0655 0.30809 0.0
O65 O 0.81366 1.01128 0.30413 0.0
O66 O 0.80453 0.09347 0.22576 0.0
O67 O 0.87172 0.08534 0.22176 0.0
C68 C 0.8407 0.1047 0.21075 0.0
C69 C 0.88639 0.98019 0.20783 0.0
O70 O 0.94786 0.05887 0.23944 0.0
O71 O 0.89421 0.05024 0.28737 0.0
O72 O -0.03932 1.04217 0.14305 0.0
O73 O 0.9085 0.07584 0.12841 0.0
O74 O 0.91575 0.98797 0.18161 0.0
O75 O 0.87204 1.00843 0.22123 0.0
O76 O 0.79348 1.02475 0.20049 0.0
O77 O 0.84364 1.04188 0.15204 0.0
C78 C 0.93479 0.05638 0.27749 0.0
C79 C 0.80505 1.02995 0.16229 0.0
Dy80 Dy 0.65725 1.03792 0.93735 0.0
C81 C 0.55221 0.04854 0.0782 0.0
C82 C 0.69689 1.0235 0.86704 0.0
Dy83 Dy 0.58298 1.03944 1.00241 0.0
O84 O 0.71357 1.04207 0.89589 0.0
O85 O 0.66087 1.00978 0.87892 0.0
O86 O 0.66752 0.09632 0.93297 0.0
O87 O 0.62416 0.07575 0.97273 0.0
C88 C 0.63829 0.10408 0.95928 0.0
C89 C 0.59012 0.98049 0.9604 0.0
O90 O 0.54508 0.06076 0.95035 0.0
O91 O 0.59544 0.04301 0.90242 0.0
O92 O 0.55186 1.01941 0.0583 0.0
O93 O 0.56356 0.0736 0.05402 0.0
O94 O 0.554 0.99193 0.97525 0.0
O95 O 0.62132 0.9993 0.97208 0.0
O96 O 0.69789 1.02357 0.99072 0.0
O97 O 0.644 1.03291 0.03821 0.0
C98 C 0.55696 0.0554 0.91229 0.0
C99 C 0.68447 1.02591 1.02864 0.0
Dy100 Dy 0.01317 0.7937 0.93551 0.0
C101 C 0.1129 0.78573 0.07633 0.0
C102 C -0.0349 0.80482 0.86877 0.0
Dy103 Dy 0.08194 0.7942 1.00001 0.0
O104 O 0.95843 0.77994 0.89477 0.0
O105 O -0.00543 0.82577 0.88225 0.0
O106 O 0.03364 0.74064 0.91579 0.0
O107 O 0.03941 0.75411 0.97648 0.0
C108 C 0.0474 0.73088 0.95071 0.0
C109 C 0.07463 0.85443 0.95998 0.0
O110 O 0.1226 0.77673 0.94751 0.0
O111 O 0.07466 0.80018 0.90145 0.0
O112 O 0.11222 0.81473 0.05614 0.0
O113 O 0.10239 0.76042 0.05225 0.0
O114 O 0.11076 0.84248 0.97428 0.0
O115 O 0.04354 0.83494 0.97035 0.0
O116 O -0.03192 0.79948 0.98803 0.0
O117 O 0.02214 0.80286 0.03603 0.0
C118 C 0.1125 0.78628 0.91007 0.0
C119 C -0.01896 0.80269 1.026 0.0
Dy120 Dy 0.65317 0.79741 0.88267 0.0
C121 C 0.55481 0.78955 0.74111 0.0
C122 C 0.70066 0.80742 0.95 0.0
Dy123 Dy 0.58497 0.79816 0.81754 0.0
O124 O 0.70804 0.78343 0.92321 0.0
O125 O 0.67077 0.8283 0.93705 0.0
O126 O 0.63364 0.74372 0.90114 0.0
O127 O 0.62821 0.75837 0.8407 0.0
C128 C 0.62055 0.73449 0.86585 0.0
C129 C 0.59094 0.85784 0.85864 0.0
O130 O 0.54392 0.77919 0.86893 0.0
O131 O 0.59098 0.80188 0.91622 0.0
O132 O 0.55664 0.81884 0.76055 0.0
O133 O 0.56358 0.76429 0.76598 0.0
O134 O 0.55516 0.84576 0.84376 0.0
O135 O 0.62244 0.83886 0.84825 0.0
O136 O 0.69862 0.80394 0.83038 0.0
O137 O 0.64493 0.80704 0.78196 0.0
C138 C 0.5535 0.78773 0.90671 0.0
C139 C 0.68593 0.8071 0.79229 0.0
Dy140 Dy 0.01016 1.03829 0.88224 0.0
C141 C 0.11079 0.04733 0.74263 0.0
C142 C -0.03993 1.02889 0.94789 0.0
Dy143 Dy 0.07895 1.03786 0.81832 0.0
O144 O 0.95404 0.05293 0.92076 0.0
O145 O -0.00985 1.00775 0.93612 0.0
O146 O 0.03041 0.09168 0.90119 0.0
O147 O 0.03553 0.07764 0.84068 0.0
C148 C 0.04334 0.10126 0.86597 0.0
C149 C 0.07301 0.97794 0.85906 0.0
O150 O 0.11927 0.05563 0.87107 0.0
O151 O 0.07131 1.03253 0.91726 0.0
O152 O 0.10921 1.01794 0.76201 0.0
O153 O 0.1006 0.07233 0.76721 0.0
O154 O 0.10882 0.99025 0.84454 0.0
O155 O 0.0414 0.9968 0.84841 0.0
O156 O -0.03455 1.03081 0.8296 0.0
O157 O 0.01961 1.0281 0.78183 0.0
C158 C 0.10922 0.04629 0.90857 0.0
C159 C -0.02151 1.02752 0.79171 0.0
Dy160 Dy 0.34042 0.5513 0.56301 0.0
C161 C 0.22542 0.55405 0.6996 0.0
C162 C 0.37047 0.54252 0.4871 0.0
Dy163 Dy 0.26547 0.54522 0.62823 0.0
O164 O 0.36888 0.57203 0.50629 0.0
O165 O 0.36183 0.51728 0.51208 0.0
O166 O 0.36537 0.59932 0.59113 0.0
O167 O 0.2987 0.58752 0.59604 0.0
C168 C 0.32886 0.60751 0.60798 0.0
C169 C 0.29031 0.48245 0.5992 0.0
O170 O 0.22389 0.56027 0.57587 0.0
O171 O 0.27851 0.55654 0.52792 0.0
O172 O 0.21081 0.5348 0.67037 0.0
O173 O 0.2594 0.57096 0.68796 0.0
O174 O 0.25927 0.48573 0.62498 0.0
O175 O 0.30303 0.51248 0.59124 0.0
O176 O 0.38028 0.53197 0.61503 0.0
O177 O 0.32703 0.54158 0.66346 0.0
C178 C 0.23745 0.56049 0.53788 0.0
C179 C 0.36709 0.53358 0.65322 0.0
Dy180 Dy 0.83551 0.78997 0.56783 0.0
C181 C 0.95245 0.7794 0.69921 0.0
C182 C 0.80463 0.79871 0.49154 0.0
Dy183 Dy 0.90438 0.79037 0.63244 0.0
O184 O 0.8055 0.7696 0.51151 0.0
O185 O 0.81487 0.82394 0.51583 0.0
O186 O 0.80655 0.74171 0.59335 0.0
O187 O 0.87383 0.7492 0.59762 0.0
C188 C 0.84261 0.72976 0.60777 0.0
C189 C 0.87026 0.85317 0.61666 0.0
O190 O 0.94944 0.78455 0.57987 0.0
O191 O 0.89539 0.78139 0.53181 0.0
O192 O -0.04097 0.80429 0.67321 0.0
O193 O 0.92308 0.75835 0.68571 0.0
O194 O 0.88371 0.8436 0.65176 0.0
O195 O 0.87843 0.82972 0.59126 0.0
O196 O 0.79497 0.80755 0.6204 0.0
O197 O 0.84283 0.78406 0.66652 0.0
C198 C 0.9365 0.78148 0.54187 0.0
C199 C 0.80504 0.79805 0.65787 0.0
Dy200 Dy 0.33301 0.78891 0.75097 0.0
C201 C 0.21728 0.77878 0.6184 0.0
C202 C 0.363 0.79809 0.82737 0.0
Dy203 Dy 0.26483 0.78905 0.68561 0.0
O204 O 0.36265 0.7689 0.80769 0.0
O205 O 0.35281 0.82316 0.80274 0.0
O206 O 0.36235 0.74072 0.72614 0.0
O207 O 0.29511 0.74801 0.72098 0.0
C208 C 0.32652 0.72862 0.71143 0.0
C209 C 0.29808 0.85199 0.70161 0.0
O210 O 0.21942 0.78257 0.73791 0.0
O211 O 0.27307 0.77981 0.78644 0.0
O212 O 0.20995 0.8029 0.64504 0.0
O213 O 0.24717 0.75794 0.63143 0.0
O214 O 0.28492 0.8425 0.66644 0.0
O215 O 0.28996 0.82839 0.72695 0.0
O216 O 0.37415 0.807 0.69919 0.0
O217 O 0.3271 0.78356 0.65238 0.0
C218 C 0.23209 0.77949 0.77602 0.0
C219 C 0.36459 0.79784 0.6616 0.0
Dy220 Dy 0.83836 0.5465 0.74948 0.0
C221 C 0.95748 0.55546 0.61977 0.0
C222 C 0.80715 0.53692 0.82543 0.0
Dy223 Dy 0.90721 0.54622 0.68531 0.0
O224 O 0.80816 0.56627 0.80592 0.0
O225 O 0.81752 0.51196 0.80085 0.0
O226 O 0.80839 0.59415 0.72358 0.0
O227 O 0.87586 0.58755 0.71928 0.0
C228 C 0.84415 0.60643 0.70892 0.0
C229 C 0.874 0.48323 0.70174 0.0
O230 O 0.95189 0.55394 0.73791 0.0
O231 O 0.89779 0.55656 0.78577 0.0
O232 O -0.03648 0.53155 0.64705 0.0
O233 O 0.9272 0.57654 0.63125 0.0
O234 O 0.88697 0.49274 0.6665 0.0
O235 O 0.88193 0.50694 0.72687 0.0
O236 O 0.79806 0.52876 0.69666 0.0
O237 O 0.84594 0.55196 0.65042 0.0
C238 C 0.93889 0.55726 0.7758 0.0
C239 C 0.80806 0.53813 0.65914 0.0
Dy240 Dy 0.65437 0.53887 0.43491 0.0
C241 C 0.55634 0.54731 0.57649 0.0
C242 C 0.70197 0.52791 0.36801 0.0
Dy243 Dy 0.58623 0.53863 0.50005 0.0
O244 O 0.70931 0.55229 0.39435 0.0
O245 O 0.67195 0.50727 0.38114 0.0
O246 O 0.63496 0.59248 0.416 0.0
O247 O 0.62952 0.57816 0.47652 0.0
C248 C 0.62186 0.6019 0.4512 0.0
C249 C 0.59195 0.47879 0.45935 0.0
O250 O 0.54504 0.55706 0.44825 0.0
O251 O 0.59219 0.53429 0.40116 0.0
O252 O 0.55791 0.51804 0.55702 0.0
O253 O 0.56516 0.57257 0.55163 0.0
O254 O 0.55622 0.49094 0.47413 0.0
O255 O 0.62351 0.49776 0.46968 0.0
O256 O 0.69997 0.53262 0.48719 0.0
O257 O 0.64644 0.52992 0.53569 0.0
C258 C 0.55459 0.54827 0.41052 0.0
C259 C 0.68744 0.52973 0.52532 0.0
Dy260 Dy 0.00924 0.29913 0.43618 0.0
C261 C 0.11433 0.28796 0.57718 0.0
C262 C -0.0315 0.31315 0.36613 0.0
Dy263 Dy 0.08395 0.29737 0.50111 0.0
O264 O 0.95245 0.29448 0.39526 0.0
O265 O 0.00443 0.32726 0.37766 0.0
O266 O 0.00011 0.24054 0.43134 0.0
O267 O 0.04251 0.26133 0.47162 0.0
C268 C 0.02913 0.23289 0.45797 0.0
C269 C 0.07677 0.35659 0.45926 0.0
O270 O 0.12147 0.27662 0.44841 0.0
O271 O 0.0708 0.29511 0.40096 0.0
O272 O 0.11421 0.31726 0.55748 0.0
O273 O 0.10386 0.26297 0.55264 0.0
O274 O 0.11282 0.34506 0.47431 0.0
O275 O 0.04547 0.33773 0.47078 0.0
O276 O -0.03125 0.31294 0.48967 0.0
O277 O 0.02294 0.30341 0.53694 0.0
C278 C 0.10934 0.28258 0.41042 0.0
C279 C -0.01762 0.31032 0.52754 0.0
Dy280 Dy 0.65307 0.29553 0.38117 0.0
C281 C 0.55383 0.28827 0.24025 0.0
C282 C 0.70279 0.30491 0.44711 0.0
Dy283 Dy 0.58475 0.29663 0.31646 0.0
O284 O 0.70921 0.28108 0.41995 0.0
O285 O 0.67234 0.3258 0.4354 0.0
O286 O 0.63309 0.24201 0.39975 0.0
O287 O 0.62779 0.25658 0.33927 0.0
C288 C 0.61995 0.23279 0.36448 0.0
C289 C 0.59111 0.35619 0.35765 0.0
O290 O 0.5436 0.27828 0.36829 0.0
O291 O 0.59118 0.30038 0.41552 0.0
O292 O 0.55537 0.31741 0.25999 0.0
O293 O 0.56345 0.26291 0.26472 0.0
O294 O 0.55521 0.34425 0.34291 0.0
O295 O 0.62249 0.33719 0.34703 0.0
O296 O 0.69829 0.30276 0.32877 0.0
O297 O 0.64455 0.3059 0.28048 0.0
C298 C 0.55325 0.28689 0.40608 0.0
C299 C 0.68561 0.30615 0.29071 0.0
Dy300 Dy 0.01427 0.53785 0.38175 0.0
C301 C 0.11659 0.54788 0.2392 0.0
C302 C -0.02386 0.52244 0.4527 0.0
Dy303 Dy 0.08712 0.53893 0.31562 0.0
O304 O -0.04077 0.54189 0.42466 0.0
O305 O 0.01161 0.50858 0.43979 0.0
O306 O 0.00448 0.59616 0.38672 0.0
O307 O 0.04798 0.57587 0.3467 0.0
C308 C 0.0337 0.60404 0.36041 0.0
C309 C 0.07872 0.47936 0.35678 0.0
O310 O 0.1267 0.55942 0.36697 0.0
O311 O 0.07688 0.54214 0.41566 0.0
O312 O 0.11698 0.51875 0.25924 0.0
O313 O 0.10586 0.57299 0.26342 0.0
O314 O 0.11497 0.49045 0.34178 0.0
O315 O 0.04799 0.499 0.34581 0.0
O316 O -0.02797 0.52565 0.32866 0.0
O317 O 0.02545 0.53447 0.28057 0.0
C318 C 0.11541 0.55413 0.40523 0.0
C319 C -0.01509 0.52835 0.29057 0.0
Dy320 Dy 0.83222 0.04735 0.56714 0.0
C321 C 0.71769 0.06298 0.70202 0.0
C322 C 0.86343 1.03776 0.49154 0.0
Dy323 Dy 0.75787 0.04876 0.6319 0.0
O324 O 0.863 0.06713 0.51094 0.0
O325 O 0.85253 1.01284 0.51609 0.0
O326 O 0.86093 0.09508 0.59355 0.0
O327 O 0.79352 0.08766 0.5971 0.0
C328 C 0.82485 0.10659 0.60839 0.0
C329 C 0.7774 0.98253 0.61036 0.0
O330 O 0.71721 0.06271 0.57845 0.0
O331 O 0.77123 0.0532 0.53117 0.0
O332 O 0.7014 0.0442 0.67316 0.0
O333 O 0.75357 0.07698 0.69023 0.0
O334 O 0.74802 0.99024 0.63652 0.0
O335 O 0.79165 1.01089 0.59714 0.0
O336 O 0.87008 1.02675 0.61976 0.0
O337 O 0.81945 0.04484 0.66719 0.0
C338 C 0.73071 0.06015 0.54059 0.0
C339 C 0.85805 1.03255 0.65771 0.0
Dy340 Dy 0.32803 0.2833 0.5635 0.0
C341 C 0.44176 0.27876 0.70119 0.0
C342 C 0.29836 0.2921 0.48727 0.0
Dy343 Dy 0.40264 0.2892 0.62949 0.0
O344 O 0.29965 0.26263 0.50673 0.0
O345 O 0.3073 0.31735 0.51202 0.0
O346 O 0.30428 0.2343 0.59046 0.0
O347 O 0.37055 0.24715 0.59609 0.0
C348 C 0.3409 0.22639 0.6074 0.0
C349 C 0.37673 0.35199 0.60104 0.0
O350 O 0.44495 0.2765 0.57692 0.0
O351 O 0.39032 0.27988 0.52877 0.0
O352 O 0.45574 0.29977 0.67326 0.0
O353 O 0.40897 0.26115 0.68805 0.0
O354 O 0.40791 0.34882 0.62682 0.0
O355 O 0.36431 0.32192 0.59306 0.0
O356 O 0.28759 0.30157 0.61569 0.0
O357 O 0.34083 0.29199 0.66434 0.0
C358 C 0.43149 0.27678 0.53885 0.0
C359 C 0.30066 0.29971 0.65398 0.0
Dy360 Dy 0.83486 0.28859 0.75131 0.0
C361 C 0.72291 0.27289 0.61452 0.0
C362 C 0.86453 0.29675 0.8278 0.0
Dy363 Dy 0.76149 0.28798 0.68535 0.0
O364 O 0.86419 0.2677 0.80775 0.0
O365 O 0.8545 0.32214 0.80354 0.0
O366 O 0.86264 0.24035 0.72514 0.0
O367 O 0.79551 0.24883 0.72102 0.0
C368 C 0.82638 0.22933 0.71011 0.0
C369 C 0.78136 0.35393 0.70711 0.0
O370 O 0.71954 0.2757 0.73849 0.0
O371 O 0.77324 0.28447 0.7864 0.0
O372 O 0.70634 0.29249 0.64247 0.0
O373 O 0.75829 0.25877 0.62743 0.0
O374 O 0.75205 0.34643 0.6807 0.0
O375 O 0.7955 0.32556 0.72047 0.0
O376 O 0.87409 0.30929 0.69974 0.0
O377 O 0.82377 0.29252 0.65119 0.0
C378 C 0.73263 0.27843 0.77651 0.0
C379 C 0.8624 0.30436 0.6615 0.0
Dy380 Dy 0.33536 0.04573 0.75211 0.0
C381 C 0.44987 0.06274 0.61703 0.0
C382 C 0.30447 1.03466 0.8277 0.0
Dy383 Dy 0.40943 0.0481 0.68696 0.0
O384 O 0.30299 0.06403 0.80816 0.0
O385 O 0.31732 1.01034 0.80334 0.0
O386 O 0.30724 0.09442 0.72741 0.0
O387 O 0.37444 0.08634 0.72296 0.0
C388 C 0.34337 0.1059 0.71256 0.0
C389 C 0.38997 0.98162 0.70772 0.0
O390 O 0.4502 0.06175 0.74044 0.0
O391 O 0.39638 0.05201 0.78794 0.0
O392 O 0.46617 0.04401 0.64602 0.0
O393 O 0.41382 0.07653 0.62863 0.0
O394 O 0.41929 0.98966 0.68161 0.0
O395 O 0.37561 1.00975 0.72123 0.0
O396 O 0.29705 1.02664 0.69892 0.0
O397 O 0.34764 0.04548 0.65173 0.0
C398 C 0.43683 0.0591 0.77836 0.0
C399 C 0.30892 1.03325 0.66103 0.0
Dy400 Dy 0.15536 1.04056 0.43628 0.0
C401 C 0.05582 0.04876 0.57704 0.0
C402 C 0.20272 1.02913 0.36936 0.0
Dy403 Dy 0.0868 1.0403 0.50092 0.0
O404 O 0.21027 0.05364 0.39551 0.0
O405 O 0.1727 1.00863 0.38276 0.0
O406 O 0.13637 0.09425 0.41728 0.0
O407 O 0.13012 0.07994 0.4777 0.0
C408 C 0.1227 0.10368 0.45227 0.0
C409 C 0.09275 0.9805 0.46011 0.0
O410 O 0.04588 0.05866 0.44886 0.0
O411 O 0.0934 1.03604 0.40202 0.0
O412 O 0.05694 1.01968 0.55718 0.0
O413 O 0.06603 0.0741 0.55277 0.0
O414 O 0.0569 0.99268 0.47462 0.0
O415 O 0.1242 0.99945 0.47074 0.0
O416 O 0.20062 1.03337 0.48878 0.0
O417 O 0.14673 1.03085 0.53693 0.0
C418 C 0.05563 0.04985 0.41118 0.0
C419 C 0.18782 1.03022 0.52683 0.0
Dy420 Dy 0.51051 0.79792 0.43624 0.0
C421 C 0.6155 0.78691 0.57747 0.0
C422 C 0.46981 0.81223 0.36623 0.0
Dy423 Dy 0.58516 0.79603 0.50125 0.0
O424 O 0.45372 0.7935 0.39528 0.0
O425 O 0.50576 0.82626 0.37783 0.0
O426 O 0.5009 0.73948 0.43124 0.0
O427 O 0.54427 0.75992 0.47107 0.0
C428 C 0.53021 0.73166 0.45752 0.0
C429 C 0.5771 0.85562 0.46022 0.0
O430 O 0.62275 0.77549 0.44853 0.0
O431 O 0.57211 0.79417 0.40114 0.0
O432 O 0.61607 0.816 0.55733 0.0
O433 O 0.60417 0.76186 0.55336 0.0
O434 O 0.61335 0.8442 0.47496 0.0
O435 O 0.54611 0.83637 0.47152 0.0
O436 O 0.46988 0.8108 0.48984 0.0
O437 O 0.52415 0.80116 0.53703 0.0
C438 C 0.61063 0.78157 0.41057 0.0
C439 C 0.48355 0.80778 0.52764 0.0
Dy440 Dy 0.15583 0.79798 0.38262 0.0
C441 C 0.05665 0.78828 0.24159 0.0
C442 C 0.20392 0.80814 0.44953 0.0
Dy443 Dy 0.08716 0.79803 0.31778 0.0
O444 O 0.21089 0.78393 0.42291 0.0
O445 O 0.17411 0.82911 0.43659 0.0
O446 O 0.13597 0.74438 0.40149 0.0
O447 O 0.13083 0.75865 0.34099 0.0
C448 C 0.12313 0.73488 0.36623 0.0
C449 C 0.09307 0.85805 0.35811 0.0
O450 O 0.04661 0.78013 0.37034 0.0
O451 O 0.09418 0.80356 0.41667 0.0
O452 O 0.05795 0.81775 0.26069 0.0
O453 O 0.06633 0.76337 0.26664 0.0
O454 O 0.05728 0.84589 0.34333 0.0
O455 O 0.12457 0.83899 0.34789 0.0
O456 O 0.20094 0.80535 0.3302 0.0
O457 O 0.14694 0.80767 0.28201 0.0
C458 C 0.05646 0.78953 0.40785 0.0
C459 C 0.18802 0.8084 0.29216 0.0
Dy460 Dy 0.5104 1.03683 0.38203 0.0
C461 C 0.61503 0.04675 0.24085 0.0
C462 C 0.47074 1.02257 0.45246 0.0
Dy463 Dy 0.58433 1.0381 0.3168 0.0
O464 O 0.45409 1.04107 0.42346 0.0
O465 O 0.50674 1.0088 0.44069 0.0
O466 O 0.49979 0.09517 0.38583 0.0
O467 O 0.54357 0.0746 0.34644 0.0
C468 C 0.52896 0.10289 0.35941 0.0
C469 C 0.57687 0.97902 0.35891 0.0
O470 O 0.62257 0.05947 0.36851 0.0
O471 O 0.57226 1.04216 0.41678 0.0
O472 O 0.61385 1.01747 0.26056 0.0
O473 O 0.60527 0.07199 0.26526 0.0
O474 O 0.613 0.99046 0.34403 0.0
O475 O 0.54572 0.99795 0.34729 0.0
O476 O 0.46936 1.02333 0.32881 0.0
O477 O 0.52305 1.03317 0.28121 0.0
C478 C 0.61074 0.05444 0.40667 0.0
C479 C 0.48258 1.02635 0.29089 0.0
Dy480 Dy 0.83281 0.54532 0.0672 0.0
C481 C 0.71643 0.55544 0.19894 0.0
C482 C 0.86308 0.5364 0.99087 0.0
Dy483 Dy 0.7642 0.54483 0.13209 0.0
O484 O 0.8623 0.56559 1.01056 0.0
O485 O 0.85297 0.51122 1.01538 0.0
O486 O 0.86255 0.59309 0.0932 0.0
O487 O 0.79525 0.58597 0.0976 0.0
C488 C 0.82669 0.60505 0.10793 0.0
C489 C 0.79704 0.48188 0.11535 0.0
O490 O 0.71899 0.55248 0.07966 0.0
O491 O 0.77289 0.5553 1.03152 0.0
O492 O 0.7092 0.53112 0.17248 0.0
O493 O 0.74642 0.57618 0.18595 0.0
O494 O 0.78382 0.49106 0.15058 0.0
O495 O 0.78926 0.50581 0.09031 0.0
O496 O 0.87372 0.52709 0.11934 0.0
O497 O 0.82618 0.54966 0.16624 0.0
C498 C 0.73182 0.55595 0.04166 0.0
C499 C 0.86397 0.53591 0.15703 0.0
Dy500 Dy 0.33291 0.7879 0.06698 0.0
C501 C 0.44843 0.77152 0.20178 0.0
C502 C 0.30224 0.79761 0.99097 0.0
Dy503 Dy 0.40763 0.7859 0.13185 0.0
O504 O 0.30235 0.76826 1.01059 0.0
O505 O 0.31309 0.82249 1.0155 0.0
O506 O 0.30474 0.73967 0.09293 0.0
O507 O 0.37208 0.74742 0.0965 0.0
C508 C 0.34098 0.72816 0.1076 0.0
C509 C 0.38802 0.85217 0.11057 0.0
O510 O 0.44815 0.77315 0.07816 0.0
O511 O 0.39389 0.7832 1.03109 0.0
O512 O 0.46447 0.7903 0.17274 0.0
O513 O 0.41247 0.75748 0.1902 0.0
O514 O 0.41739 0.84435 0.13679 0.0
O515 O 0.37375 0.82391 0.09726 0.0
O516 O 0.2954 0.80831 0.1198 0.0
O517 O 0.34611 0.78963 0.1671 0.0
C518 C 0.43448 0.77646 0.0404 0.0
C519 C 0.30758 0.80222 0.15773 0.0
Dy520 Dy 0.83097 0.78726 0.25036 0.0
C521 C 0.71387 0.77718 0.11871 0.0
C522 C 0.86149 0.79732 0.32648 0.0
Dy523 Dy 0.76208 0.78709 0.1856 0.0
O524 O 0.86078 0.76787 0.30732 0.0
O525 O 0.85124 0.82213 0.3015 0.0
O526 O 0.86107 0.73945 0.22517 0.0
O527 O 0.79366 0.74616 0.22028 0.0
C528 C 0.82537 0.72719 0.21031 0.0
C529 C 0.79502 0.85021 0.20188 0.0
O530 O 0.71719 0.77945 0.23813 0.0
O531 O 0.77132 0.77717 0.2862 0.0
O532 O 0.70695 0.80129 0.14546 0.0
O533 O 0.74365 0.75614 0.13152 0.0
O534 O 0.78211 0.8407 0.16665 0.0
O535 O 0.78715 0.82643 0.22704 0.0
O536 O 0.87131 0.80498 0.19761 0.0
O537 O 0.82364 0.78131 0.15151 0.0
C538 C 0.73022 0.77632 0.27613 0.0
C539 C 0.86136 0.7954 0.16018 0.0
Dy540 Dy 0.3329 0.54541 0.25025 0.0
C541 C 0.44689 0.55967 0.11498 0.0
C542 C 0.3024 0.53762 0.3264 0.0
Dy543 Dy 0.40689 0.54577 0.18538 0.0
O544 O 0.30196 0.56638 0.30567 0.0
O545 O 0.31336 0.51215 0.30277 0.0
O546 O 0.30476 0.59306 0.22293 0.0
O547 O 0.37212 0.58529 0.21974 0.0
C548 C 0.341 0.60432 0.20812 0.0
C549 C 0.38715 0.47988 0.20783 0.0
O550 O 0.44806 0.55891 0.23873 0.0
O551 O 0.39393 0.5505 0.28617 0.0
O552 O 0.4632 0.54097 0.14397 0.0
O553 O 0.41101 0.57369 0.12665 0.0
O554 O 0.41668 0.48732 0.18166 0.0
O555 O 0.37282 0.50831 0.22066 0.0
O556 O 0.2945 0.52402 0.19865 0.0
O557 O 0.34505 0.54096 0.15046 0.0
C558 C 0.43459 0.55658 0.27663 0.0
C559 C 0.30643 0.52894 0.1605 0.0
Dy560 Dy 0.1596 0.53474 0.93488 0.0
C561 C 0.05469 0.54711 0.07605 0.0
C562 C 0.20034 0.51893 0.86548 0.0
Dy563 Dy 0.08513 0.53745 1.00017 0.0
O564 O 0.21656 0.53807 0.89407 0.0
O565 O 0.16393 0.5057 0.87703 0.0
O566 O 0.16866 0.59333 0.929 0.0
O567 O 0.12744 0.5728 0.97049 0.0
C568 C 0.14029 0.60118 0.9561 0.0
C569 C 0.09151 0.47803 0.95879 0.0
O570 O 0.04783 0.5585 0.94745 0.0
O571 O 0.09784 0.53926 0.89994 0.0
O572 O 0.0548 0.51774 0.05662 0.0
O573 O 0.06543 0.57202 0.05141 0.0
O574 O 0.05563 0.48985 0.97377 0.0
O575 O 0.12298 0.49676 0.97006 0.0
O576 O 0.20006 0.52089 0.98855 0.0
O577 O 0.14616 0.53089 0.0359 0.0
C578 C 0.0596 0.55227 0.90949 0.0
C579 C 0.18659 0.52363 1.02643 0.0
Dy580 Dy 0.51263 0.29636 0.93484 0.0
C581 C 0.61178 0.28858 0.07568 0.0
C582 C 0.46271 0.30707 0.86921 0.0
Dy583 Dy 0.5808 0.29701 0.99946 0.0
O584 O 0.45648 0.28263 0.8958 0.0
O585 O 0.49327 0.32767 0.88123 0.0
O586 O 0.53251 0.24289 0.91609 0.0
O587 O 0.53772 0.25709 0.97662 0.0
C588 C 0.54554 0.23343 0.95138 0.0
C589 C 0.57505 0.35681 0.95834 0.0
O590 O 0.6218 0.27864 0.94762 0.0
O591 O 0.57432 0.30106 0.90041 0.0
O592 O 0.61004 0.31776 0.0559 0.0
O593 O 0.60236 0.26324 0.05125 0.0
O594 O 0.61076 0.3445 0.97311 0.0
O595 O 0.54338 0.33798 0.96887 0.0
O596 O 0.46735 0.30239 0.98723 0.0
O597 O 0.52102 0.30581 0.03551 0.0
C598 C 0.61209 0.28732 0.90983 0.0
C599 C 0.47999 0.30559 1.02527 0.0
Dy600 Dy 0.15453 0.29733 0.88092 0.0
C601 C 0.04998 0.28743 0.73945 0.0
C602 C 0.193 0.31284 0.95172 0.0
Dy603 Dy 0.08007 0.29594 0.81574 0.0
O604 O 0.20971 0.29321 0.92385 0.0
O605 O 0.15764 0.32687 0.93861 0.0
O606 O 0.16437 0.23892 0.88577 0.0
O607 O 0.12055 0.2595 0.84619 0.0
C608 C 0.13482 0.23121 0.85967 0.0
C609 C 0.08874 0.35538 0.8568 0.0
O610 O 0.04182 0.27505 0.86776 0.0
O611 O 0.09256 0.29241 0.91565 0.0
O612 O 0.05033 0.31656 0.75936 0.0
O613 O 0.06006 0.26215 0.76385 0.0
O614 O 0.05234 0.34421 0.84219 0.0
O615 O 0.11944 0.33593 0.84543 0.0
O616 O 0.19555 0.30989 0.82706 0.0
O617 O 0.14124 0.30003 0.78004 0.0
C618 C 0.05392 0.28025 0.90582 0.0
C619 C 0.18189 0.30665 0.78923 0.0
Dy620 Dy 0.5115 0.53741 0.88025 0.0
C621 C 0.6176 0.54937 0.74011 0.0
C622 C 0.47047 0.52228 0.94978 0.0
Dy623 Dy 0.58679 0.53963 0.81601 0.0
O624 O 0.45447 0.54131 0.92091 0.0
O625 O 0.50662 0.50857 0.93831 0.0
O626 O 0.50134 0.59578 0.88516 0.0
O627 O 0.54564 0.57564 0.84604 0.0
C628 C 0.531 0.60379 0.85935 0.0
C629 C 0.5781 0.47986 0.85657 0.0
O630 O 0.62411 0.55957 0.86925 0.0
O631 O 0.57289 0.54096 0.91605 0.0
O632 O 0.61827 0.52017 0.76003 0.0
O633 O 0.60596 0.57421 0.76435 0.0
O634 O 0.61456 0.49118 0.84226 0.0
O635 O 0.54738 0.49929 0.84503 0.0
O636 O 0.47155 0.52407 0.82615 0.0
O637 O 0.52612 0.53441 0.77962 0.0
C638 C 0.61168 0.55325 0.90704 0.0
C639 C 0.48552 0.52731 0.78848 0.0
C640 C 0.33988 0.89634 0.07633 0.0
C641 C 0.36742 0.88674 0.10805 0.0
H642 H 0.29585 0.93504 0.05337 0.0
C643 C 0.37365 0.90996 0.14007 0.0
H644 H 0.33495 0.87903 0.05115 0.0
C645 C 0.35089 0.94108 0.1418 0.0
C646 C 0.32243 0.95039 0.11089 0.0
H647 H 0.39468 0.90337 0.16496 0.0
H648 H 0.35491 0.95758 0.16795 0.0
C649 C 0.31788 0.92835 0.07745 0.0
C650 C 0.85382 0.442 0.13905 0.0
C651 C 0.8241 0.45089 0.10902 0.0
H652 H 0.89794 0.40434 0.16177 0.0
C653 C 0.81761 0.42804 0.0766 0.0
H654 H 0.85924 0.45907 0.16448 0.0
C655 C 0.83896 0.39569 0.07572 0.0
C656 C 0.86778 0.38653 0.10663 0.0
H657 H 0.79451 0.43432 0.05329 0.0
H658 H 0.83241 0.37777 0.05147 0.0
C659 C 0.87593 0.41055 0.1375 0.0
C660 C 0.37391 0.42135 0.17972 0.0
C661 C 0.3665 0.44532 0.21077 0.0
H662 H 0.3558 0.3733 0.15239 0.0
C663 C 0.33749 0.43655 0.24161 0.0
H664 H 0.39602 0.42729 0.15549 0.0
C665 C 0.31529 0.4046 0.24052 0.0
C666 C 0.32107 0.38182 0.20793 0.0
H667 H 0.33145 0.45451 0.26595 0.0
H668 H 0.29212 0.39858 0.26383 0.0
C669 C 0.35092 0.39033 0.17794 0.0
C670 C 0.81559 0.90415 0.2405 0.0
C671 C 0.82214 0.8812 0.20819 0.0
H672 H 0.83049 0.95443 0.26561 0.0
C673 C 0.85213 0.8899 0.17839 0.0
H674 H 0.79228 0.898 0.26364 0.0
C675 C 0.87449 0.92126 0.18008 0.0
C676 C 0.86632 0.94536 0.21085 0.0
H677 H 0.85763 0.87274 0.15307 0.0
H678 H 0.89673 0.92732 0.15599 0.0
C679 C 0.83716 0.93639 0.2415 0.0
C680 C 0.5894 0.14817 0.99261 0.0
C681 C 0.61748 0.13863 0.96138 0.0
H682 H 0.5451 0.18689 1.01481 0.0
C683 C 0.62419 0.16195 0.92941 0.0
H684 H 0.58401 0.13078 1.01772 0.0
C685 C 0.60151 0.19312 0.92727 0.0
C686 C 0.57262 0.20241 0.95772 0.0
H687 H 0.64562 0.15545 0.90487 0.0
H688 H 0.60602 0.20971 0.90119 0.0
C689 C 0.56747 0.18024 0.99109 0.0
C690 C 0.10203 0.69015 0.92477 0.0
C691 C 0.07446 0.69967 0.95621 0.0
H692 H 0.14493 0.6522 0.90089 0.0
C693 C 0.07056 0.67756 0.98979 0.0
H694 H 0.10571 0.70676 0.89858 0.0
C695 C 0.09238 0.64541 0.99064 0.0
C696 C 0.11904 0.63561 0.95842 0.0
H697 H 0.04928 0.68438 1.01432 0.0
H698 H 0.08817 0.62823 1.01612 0.0
C699 C 0.12449 0.65882 0.92613 0.0
C700 C 0.56461 0.69395 0.88963 0.0
C701 C 0.59389 0.70328 0.85947 0.0
H702 H 0.52108 0.65582 0.91224 0.0
C703 C 0.60026 0.68075 0.82675 0.0
H704 H 0.55928 0.71078 0.91527 0.0
C705 C 0.57921 0.64828 0.82566 0.0
C706 C 0.55081 0.6387 0.85668 0.0
H707 H 0.62302 0.6874 0.80331 0.0
H708 H 0.5856 0.63062 0.80113 0.0
C709 C 0.54279 0.66237 0.88789 0.0
C710 C 0.08561 0.18744 0.82611 0.0
C711 C 0.11454 0.19646 0.85693 0.0
H712 H 0.0409 0.149 0.80389 0.0
C713 C 0.12247 0.17245 0.88798 0.0
H714 H 0.07919 0.2054 0.80175 0.0
C715 C 0.10012 0.14109 0.88972 0.0
C716 C 0.07035 0.13233 0.85974 0.0
H717 H 0.14458 0.17856 0.91218 0.0
H718 H 0.10549 0.12396 0.91519 0.0
C719 C 0.06402 0.15521 0.82719 0.0
C720 C 0.37847 0.416 0.58889 0.0
C721 C 0.35494 0.38486 0.59059 0.0
H722 H 0.37615 0.47166 0.58745 0.0
C723 C 0.30991 0.38619 0.58825 0.0
H724 H 0.41327 0.41558 0.59044 0.0
C725 C 0.28863 0.41829 0.58872 0.0
C726 C 0.31215 0.44947 0.58949 0.0
H727 H 0.29096 0.36262 0.58916 0.0
H728 H 0.25384 0.41873 0.59022 0.0
C729 C 0.3572 0.44809 0.5873 0.0
C730 C 0.79139 0.92432 0.63955 0.0
C731 C 0.798 0.9479 0.60781 0.0
H732 H 0.8097 0.87631 0.66719 0.0
C733 C 0.8259 0.93856 0.57636 0.0
H734 H 0.77007 0.93067 0.66424 0.0
C735 C 0.84784 0.90649 0.57747 0.0
C736 C 0.84289 0.88408 0.61064 0.0
H737 H 0.83115 0.9561 0.55139 0.0
H738 H 0.87013 0.90004 0.5536 0.0
C739 C 0.81407 0.89312 0.64127 0.0
C740 C 0.34217 0.9372 0.74196 0.0
C741 C 0.36981 0.94684 0.71037 0.0
H742 H 0.2983 0.89838 0.76484 0.0
C743 C 0.37648 0.92347 0.67859 0.0
H744 H 0.33692 0.95458 0.76697 0.0
C745 C 0.35401 0.89218 0.67692 0.0
C746 C 0.32538 0.88287 0.70766 0.0
H747 H 0.39762 0.93006 0.65382 0.0
H748 H 0.35835 0.87555 0.65093 0.0
C749 C 0.32045 0.90505 0.74089 0.0
C750 C 0.83069 0.3973 0.7412 0.0
C751 C 0.80169 0.38862 0.7103 0.0
H752 H 0.87581 0.43532 0.76366 0.0
C753 C 0.79394 0.41285 0.67946 0.0
H754 H 0.837 0.37915 0.76539 0.0
C755 C 0.81661 0.44405 0.67792 0.0
C756 C 0.84649 0.45246 0.70794 0.0
H757 H 0.77181 0.407 0.65518 0.0
H758 H 0.81147 0.46129 0.65251 0.0
C759 C 0.85259 0.4294 0.74034 0.0
C760 C 0.60048 0.65535 0.49029 0.0
C761 C 0.59491 0.63296 0.45729 0.0
H762 H 0.58462 0.70512 0.51617 0.0
C763 C 0.5659 0.64218 0.4268 0.0
H764 H 0.62299 0.64877 0.51401 0.0
C765 C 0.54354 0.67349 0.42851 0.0
C766 C 0.5507 0.69701 0.46008 0.0
H767 H 0.56113 0.62543 0.40097 0.0
H768 H 0.52202 0.67994 0.40394 0.0
C769 C 0.57888 0.68756 0.49138 0.0
C770 C 0.09942 0.15667 0.4915 0.0
C771 C 0.09546 0.13472 0.4579 0.0
H772 H 0.08172 0.20587 0.51788 0.0
C773 C 0.06768 0.14426 0.42654 0.0
H774 H 0.1209 0.14984 0.51595 0.0
C775 C 0.04496 0.17544 0.42803 0.0
C776 C 0.05044 0.19851 0.46033 0.0
H777 H 0.06405 0.12783 0.40028 0.0
H778 H 0.02438 0.18211 0.40284 0.0
C779 C 0.0774 0.18874 0.49244 0.0
C780 C 0.56306 0.19321 0.3883 0.0
C781 C 0.59274 0.20192 0.35824 0.0
H782 H 0.51887 0.15574 0.41119 0.0
C783 C 0.59902 0.179 0.32586 0.0
H784 H 0.5578 0.21035 0.41368 0.0
C785 C 0.57752 0.14673 0.3251 0.0
C786 C 0.54881 0.13772 0.35609 0.0
H787 H 0.62208 0.18517 0.30251 0.0
H788 H 0.58391 0.12871 0.3009 0.0
C789 C 0.54082 0.16182 0.38687 0.0
C790 C 0.10401 0.68045 0.3279 0.0
C791 C 0.09654 0.70362 0.35983 0.0
H792 H 0.09034 0.62978 0.30319 0.0
C793 C 0.06618 0.69489 0.38927 0.0
H794 H 0.12765 0.68661 0.30506 0.0
C795 C 0.04434 0.6633 0.38762 0.0
C796 C 0.05339 0.63901 0.35727 0.0
H797 H 0.06 0.71222 0.4143 0.0
H798 H 0.02176 0.65725 0.41144 0.0
C799 C 0.08294 0.64798 0.32696 0.0
C800 C 0.22883 0.07281 0.2709 0.0
C801 C 0.20806 0.05074 0.24335 0.0
H802 H 0.24515 0.08241 0.33248 0.0
C803 C 0.18805 1.02029 0.25749 0.0
H804 H 0.24528 0.09611 0.26073 0.0
C805 C 0.18893 1.01201 0.2984 0.0
C806 C 0.2097 1.03409 0.32595 0.0
H807 H 0.17259 1.00242 0.23684 0.0
H808 H 0.17249 0.98871 0.30856 0.0
C809 C 0.2297 0.06453 0.31182 0.0
C810 C -0.01145 0.31774 0.294 0.0
C811 C -0.03981 0.30528 0.3236 0.0
H812 H 0.00813 0.31558 0.23235 0.0
C813 C 0.92957 0.27997 0.31323 0.0
H814 H 0.01309 0.33674 0.30136 0.0
C815 C 0.92747 0.26724 0.27399 0.0
C816 C 0.95585 0.27969 0.2444 0.0
H817 H 0.9079 0.26939 0.33565 0.0
H818 H 0.90294 0.24823 0.26662 0.0
C819 C -0.01354 0.30501 0.25476 0.0
C820 C 0.22567 0.27834 1.00711 0.0
C821 C 0.20028 0.30666 0.99485 0.0
H822 H 0.24669 0.24626 0.05588 0.0
C823 C 0.17561 0.32451 1.0236 0.0
H824 H 0.24426 0.2636 0.98548 0.0
C825 C 0.17662 0.31433 0.064 0.0
C826 C 0.2019 0.28588 0.07617 0.0
H827 H 0.15505 0.346 1.01475 0.0
H828 H 0.15828 0.32909 0.0858 0.0
C829 C 0.2262 0.26787 0.04729 0.0
C830 C 0.92594 0.07367 0.04339 0.0
C831 C 0.95074 0.05572 0.07208 0.0
H832 H 0.90834 0.07846 0.98122 0.0
C833 C -0.02399 1.02739 0.05983 0.0
H834 H 0.90547 0.09516 0.05226 0.0
C835 C -0.02369 1.01704 1.01967 0.0
C836 C 0.95194 1.03518 0.99082 0.0
H837 H -0.00532 1.01257 0.08144 0.0
H838 H -0.00326 0.99543 1.01106 0.0
C839 C 0.92674 0.06361 1.003 0.0
C840 C 0.73583 0.05598 0.81352 0.0
C841 C 0.70509 1.0309 0.82437 0.0
H842 H 0.76254 0.08709 0.76631 0.0
C843 C 0.67662 1.01819 0.79501 0.0
H844 H 0.75759 0.06675 0.83574 0.0
C845 C 0.67874 1.03045 0.75551 0.0
C846 C 0.70946 0.05554 0.74468 0.0
H847 H 0.65201 0.99935 0.80275 0.0
H848 H 0.65699 1.01968 0.73329 0.0
C849 C 0.73793 0.06825 0.77404 0.0
C850 C 0.93867 0.76944 0.81111 0.0
C851 C 0.95801 0.80009 0.82535 0.0
H852 H 0.92354 0.73802 0.7599 0.0
C853 C -0.02196 0.82272 0.79784 0.0
H854 H 0.9238 0.75116 0.83172 0.0
C855 C -0.02116 0.81479 0.75687 0.0
C856 C -0.04049 0.78414 0.74263 0.0
H857 H -0.00603 0.84621 0.80808 0.0
H858 H -0.00629 0.83307 0.73626 0.0
C859 C 0.93947 0.76151 0.77014 0.0
C860 C 0.68697 0.82288 1.02153 0.0
C861 C 0.70771 0.80151 0.99328 0.0
H862 H 0.67098 0.83108 0.08344 0.0
C863 C 0.72795 0.77084 1.0065 0.0
H864 H 0.67035 0.84633 1.01208 0.0
C865 C 0.72735 0.76167 0.04718 0.0
C866 C 0.70665 0.78306 0.07544 0.0
H867 H 0.74339 0.75349 0.98529 0.0
H868 H 0.74399 0.73822 0.05661 0.0
C869 C 0.6864 0.81372 0.06222 0.0
C870 C 0.18331 0.5103 0.7931 0.0
C871 C 0.2101 0.52474 0.82277 0.0
H872 H 0.16608 0.50928 0.73068 0.0
C873 C 0.2406 0.54995 0.81175 0.0
H874 H 0.15897 0.49126 0.80094 0.0
C875 C 0.24382 0.56092 0.77184 0.0
C876 C 0.21681 0.54669 0.74221 0.0
H877 H 0.26112 0.56197 0.83413 0.0
H878 H 0.26799 0.58013 0.7641 0.0
C879 C 0.18666 0.52117 0.75311 0.0
C880 C 0.23135 0.77185 0.50622 0.0
C881 C 0.21115 0.80247 0.49282 0.0
H882 H 0.24741 0.73948 0.55656 0.0
C883 C 0.19052 0.82403 0.52095 0.0
H884 H 0.24672 0.75436 0.48511 0.0
C885 C 0.18996 0.81507 0.56169 0.0
C886 C 0.21016 0.78445 0.57509 0.0
H887 H 0.17392 0.84745 0.51137 0.0
H888 H 0.17457 0.83256 0.58279 0.0
C889 C 0.23081 0.7629 0.54697 0.0
C890 C -0.00672 0.51082 0.52471 0.0
C891 C -0.03139 0.52854 0.49573 0.0
H892 H 0.01017 0.50624 0.58707 0.0
C893 C 0.94282 0.55666 0.50768 0.0
H894 H 0.01413 0.48949 0.51609 0.0
C895 C 0.94189 0.56705 0.54781 0.0
C896 C -0.03386 0.54915 0.57693 0.0
H897 H 0.92422 0.5713 0.48586 0.0
H898 H 0.92109 0.58849 0.55617 0.0
C899 C -0.00816 0.52091 0.56507 0.0
C900 C 0.68857 0.51976 0.25589 0.0
C901 C 0.70894 0.55021 0.24222 0.0
H902 H 0.67212 0.48796 0.30656 0.0
C903 C 0.72946 0.57205 0.27018 0.0
H904 H 0.67329 0.50208 0.23491 0.0
C905 C 0.72976 0.56353 0.31103 0.0
C906 C 0.70938 0.53309 0.3247 0.0
H907 H 0.74616 0.59535 0.26039 0.0
H908 H 0.74506 0.58122 0.33199 0.0
C909 C 0.68884 0.51125 0.29676 0.0
C910 C 0.68776 0.31693 0.51901 0.0
C911 C 0.71175 0.29883 0.48999 0.0
H912 H 0.67073 0.32161 0.58103 0.0
C913 C 0.73759 0.2707 0.50208 0.0
H914 H 0.66689 0.33832 0.51047 0.0
C915 C 0.7394 0.26087 0.54257 0.0
C916 C 0.71502 0.27879 0.57146 0.0
H917 H 0.75572 0.25589 0.48019 0.0
H918 H 0.76034 0.2396 0.55135 0.0
C919 C 0.68912 0.30683 0.55929 0.0
C920 C 0.42872 0.27343 0.81366 0.0
C921 C 0.45301 0.30224 0.82631 0.0
H922 H 0.40731 0.24265 0.76383 0.0
C923 C 0.47499 0.32233 0.79755 0.0
H924 H 0.4121 0.25715 0.8353 0.0
C925 C 0.47337 0.31341 0.75692 0.0
C926 C 0.44935 0.28448 0.74429 0.0
H927 H 0.49458 0.34434 0.80652 0.0
H928 H 0.49027 0.32958 0.73536 0.0
C929 C 0.4268 0.26468 0.77293 0.0
C930 C 0.48904 1.03019 0.56387 0.0
C931 C 0.45821 0.05523 0.57444 0.0
H932 H 0.51584 0.99892 0.51699 0.0
C933 C 0.42968 0.06773 0.54495 0.0
H934 H 0.51084 1.01959 0.58621 0.0
C935 C 0.43179 0.05526 0.50562 0.0
C936 C 0.4626 1.0302 0.49505 0.0
H937 H 0.40499 0.08653 0.55248 0.0
H938 H 0.40996 0.06584 0.4833 0.0
C939 C 0.49117 1.01773 0.52452 0.0
C940 C 0.48757 0.80441 0.25479 0.0
C941 C 0.45682 0.77923 0.24435 0.0
H942 H 0.51445 0.83589 0.30151 0.0
C943 C 0.42845 0.76675 0.27393 0.0
H944 H 0.50925 0.815 0.23239 0.0
C945 C 0.43068 0.77933 0.31323 0.0
C946 C 0.46143 0.80451 0.32367 0.0
H947 H 0.40381 0.74785 0.26651 0.0
H948 H 0.409 0.76874 0.33562 0.0
C949 C 0.48981 0.81699 0.29409 0.0
C950 C 0.42756 0.5656 0.04275 0.0
C951 C 0.45558 0.55257 0.07235 0.0
H952 H 0.40904 0.56495 0.98071 0.0
C953 C 0.48651 0.52765 0.06167 0.0
H954 H 0.4028 0.58432 0.05035 0.0
C955 C 0.48935 0.51594 1.02205 0.0
C956 C 0.46141 0.52905 0.99242 0.0
H957 H 0.50792 0.51664 0.08407 0.0
H958 H 0.51415 0.49725 1.01445 0.0
C959 C 0.43041 0.5539 1.00312 0.0
C960 C 0.34111 0.06572 0.92912 0.0
C961 C 0.35147 1.03443 0.94891 0.0
H962 H 0.31533 0.09011 0.87672 0.0
C963 C 0.34332 1.00266 0.92934 0.0
H964 H 0.34615 0.09068 0.94356 0.0
C965 C 0.32565 1.00234 0.89045 0.0
C966 C 0.31484 1.03377 0.87105 0.0
H967 H 0.35011 0.97813 0.94424 0.0
H968 H 0.32101 0.97762 0.87537 0.0
C969 C 0.32243 0.06537 0.89104 0.0
C970 C 0.82409 0.32878 0.92859 0.0
C971 C 0.81369 0.2971 0.94761 0.0
H972 H 0.84952 0.35365 0.8757 0.0
C973 C 0.82287 0.26571 0.92774 0.0
H974 H 0.81824 0.35337 0.94358 0.0
C975 C 0.8427 0.26585 0.89017 0.0
C976 C 0.85274 0.2974 0.87083 0.0
H977 H 0.81609 0.24081 0.9418 0.0
H978 H 0.84889 0.24106 0.87574 0.0
C979 C 0.84303 0.32893 0.89029 0.0
C980 C 0.34197 0.26401 0.38709 0.0
C981 C 0.34973 0.29596 0.36769 0.0
H982 H 0.31688 0.23776 0.43855 0.0
C983 C 0.33783 0.327 0.38717 0.0
H984 H 0.35 0.23954 0.37272 0.0
C985 C 0.31873 0.32596 0.4254 0.0
C986 C 0.31036 0.29384 0.44432 0.0
H987 H 0.34257 0.35198 0.37258 0.0
H988 H 0.31103 0.35022 0.44035 0.0
C989 C 0.32196 0.26294 0.42454 0.0
C990 C 0.82392 1.00441 0.391 0.0
C991 C 0.81395 1.03586 0.3713 0.0
H992 H 0.84861 0.9802 0.44464 0.0
C993 C 0.82341 0.0675 0.39054 0.0
H994 H 0.81787 0.97964 0.37648 0.0
C995 C 0.84297 0.06782 0.42825 0.0
C996 C 0.8524 1.03651 0.44836 0.0
H997 H 0.81701 0.09223 0.37592 0.0
H998 H 0.84931 0.09278 0.44222 0.0
C999 C 0.84255 1.00473 0.42946 0.0
C1000 C 0.57482 0.08038 0.14055 0.0
C1001 C 0.56382 0.04903 0.12126 0.0
H1002 H 0.60091 0.10437 0.19361 0.0
C1003 C 0.57269 1.01731 0.14072 0.0
H1004 H 0.56922 0.1052 0.12585 0.0
C1005 C 0.59279 1.01681 0.17818 0.0
C1006 C 0.60335 0.04803 0.19783 0.0
H1007 H 0.56546 0.99264 0.12643 0.0
H1008 H 0.59871 0.99179 0.19231 0.0
C1009 C 0.594 0.07989 0.17875 0.0
C1010 C 0.09293 0.75394 0.14004 0.0
C1011 C 0.10254 0.78523 0.11979 0.0
H1012 H 0.06995 0.73017 0.19466 0.0
C1013 C 0.09421 0.81699 0.13922 0.0
H1014 H 0.09815 0.72907 0.12548 0.0
C1015 C 0.07612 0.81763 0.17754 0.0
C1016 C 0.06699 0.78651 0.19818 0.0
H1017 H 0.10042 0.84163 0.12432 0.0
H1018 H 0.07055 0.84272 0.19148 0.0
C1019 C 0.0758 0.75458 0.17915 0.0
C1020 C 0.57717 0.81905 0.67798 0.0
C1021 C 0.5663 0.78798 0.69799 0.0
H1022 H 0.60396 0.84287 0.62569 0.0
C1023 C 0.57467 0.75601 0.67892 0.0
H1024 H 0.572 0.84414 0.69204 0.0
C1025 C 0.59307 0.75529 0.64035 0.0
C1026 C 0.60433 0.78649 0.6207 0.0
H1027 H 0.56751 0.73163 0.69398 0.0
H1028 H 0.59788 0.7304 0.62569 0.0
C1029 C 0.59649 0.8183 0.64019 0.0
C1030 C 0.09194 0.08064 0.6797 0.0
C1031 C 0.10097 0.04884 0.69911 0.0
H1032 H 0.06962 0.10575 0.6256 0.0
C1033 C 0.09237 1.01757 0.67874 0.0
H1034 H 0.09739 0.10515 0.695 0.0
C1035 C 0.07449 1.01791 0.64031 0.0
C1036 C 0.0659 0.04954 0.62052 0.0
H1037 H 0.09814 0.99258 0.69299 0.0
H1038 H 0.06866 0.99317 0.62563 0.0
C1039 C 0.07504 0.08098 0.64047 0.0
C1040 C 0.34551 0.57137 0.42444 0.0
C1041 C 0.35755 0.54058 0.44442 0.0
H1042 H 0.31575 0.59441 0.37303 0.0
C1043 C 0.34831 0.50834 0.42632 0.0
H1044 H 0.35129 0.59665 0.43785 0.0
C1045 C 0.32772 0.50704 0.3888 0.0
C1046 C 0.31528 0.53794 0.36916 0.0
H1047 H 0.35634 0.48417 0.44146 0.0
H1048 H 0.32223 0.48194 0.37484 0.0
C1049 C 0.32408 0.57005 0.38764 0.0
C1050 C 0.82435 0.83095 0.42807 0.0
C1051 C 0.81514 0.79949 0.44813 0.0
H1052 H 0.84715 0.85514 0.37362 0.0
C1053 C 0.82405 0.76789 0.42858 0.0
H1054 H 0.81869 0.85571 0.44273 0.0
C1055 C 0.84232 0.76758 0.39034 0.0
C1056 C 0.85103 0.79885 0.36987 0.0
H1057 H 0.81817 0.74314 0.44334 0.0
H1058 H 0.84834 0.74259 0.37631 0.0
C1059 C 0.84164 0.83063 0.389 0.0
C1060 C 0.34191 0.83054 0.88998 0.0
C1061 C 0.35141 0.79897 0.87048 0.0
H1062 H 0.31783 0.85504 0.94356 0.0
C1063 C 0.34163 0.76746 0.89005 0.0
H1064 H 0.34822 0.85522 0.87525 0.0
C1065 C 0.32225 0.76737 0.92782 0.0
C1066 C 0.31333 0.79878 0.94775 0.0
H1067 H 0.34768 0.74264 0.87566 0.0
H1068 H 0.31564 0.74248 0.94197 0.0
C1069 C 0.3235 0.83043 0.92855 0.0
C1070 C 0.82668 0.50395 0.88846 0.0
C1071 C 0.81726 0.53562 0.86892 0.0
H1072 H 0.84948 0.47916 0.94259 0.0
C1073 C 0.82563 0.567 0.88914 0.0
H1074 H 0.82141 0.47935 0.87329 0.0
C1075 C 0.84367 0.56691 0.92752 0.0
C1076 C 0.85267 0.53542 0.94743 0.0
H1077 H 0.81954 0.59191 0.87481 0.0
H1078 H 0.84931 0.59174 0.94207 0.0
C1079 C 0.84374 0.50385 0.92765 0.0
C1080 C 0.5987 0.51827 0.67714 0.0
C1081 C 0.60643 0.54999 0.69685 0.0
H1082 H 0.57411 0.49258 0.62518 0.0
C1083 C 0.59496 0.58126 0.6774 0.0
H1084 H 0.60633 0.49364 0.69147 0.0
C1085 C 0.57643 0.58066 0.63884 0.0
C1086 C 0.56811 0.54876 0.61958 0.0
H1087 H 0.59968 0.60608 0.69222 0.0
H1088 H 0.56908 0.60509 0.62394 0.0
C1089 C 0.57921 0.51764 0.63938 0.0
C1090 C 0.07213 0.31821 0.67708 0.0
C1091 C 0.06213 0.28668 0.69649 0.0
H1092 H 0.09928 0.34321 0.62568 0.0
C1093 C 0.07237 0.25513 0.67728 0.0
H1094 H 0.06552 0.34301 0.6913 0.0
C1095 C 0.09184 0.25525 0.6392 0.0
C1096 C 0.10226 0.28691 0.62016 0.0
H1097 H 0.06593 0.23043 0.69193 0.0
H1098 H 0.09811 0.23064 0.62441 0.0
C1099 C 0.09251 0.31832 0.63977 0.0
C1100 C 0.59187 0.31882 0.13885 0.0
C1101 C 0.60108 0.28741 0.11901 0.0
H1102 H 0.567 0.34356 0.19124 0.0
C1103 C 0.59182 0.25575 0.13859 0.0
H1104 H 0.59778 0.34371 0.12444 0.0
C1105 C 0.57411 0.25566 0.17746 0.0
C1106 C 0.56446 0.28723 0.19691 0.0
H1107 H 0.5977 0.23113 0.12368 0.0
H1108 H 0.56856 0.23099 0.19249 0.0
C1109 C 0.57323 0.31873 0.17693 0.0
C1110 C 0.07634 0.57995 0.1381 0.0
C1111 C 0.06603 0.54827 0.11919 0.0
H1112 H 0.10158 0.60481 0.19101 0.0
C1113 C 0.07516 0.51688 0.13927 0.0
H1114 H 0.07051 0.60453 0.12296 0.0
C1115 C 0.0949 0.51701 0.1769 0.0
C1116 C 0.10486 0.54856 0.19614 0.0
H1117 H 0.06842 0.49197 0.12532 0.0
H1118 H 0.10107 0.49223 0.19148 0.0
C1119 C 0.09515 0.5801 0.1765 0.0
C1120 C 0.36056 0.18116 0.17023 0.0
C1121 C 0.32164 0.19631 0.18244 0.0
H1122 H 0.39168 0.14063 0.1375 0.0
C1123 C 0.28276 0.18099 0.16994 0.0
H1124 H 0.39111 0.19231 0.17917 0.0
C1125 C 0.28311 0.15085 0.14579 0.0
C1126 C 0.32234 0.1359 0.13369 0.0
H1127 H 0.25227 0.19215 0.17892 0.0
H1128 H 0.25287 0.13939 0.1365 0.0
C1129 C 0.36091 0.15148 0.14618 0.0
C1130 C 0.80448 0.15129 0.17163 0.0
C1131 C 0.84313 0.13593 0.18434 0.0
H1132 H 0.77388 0.19163 0.13808 0.0
C1133 C 0.88225 0.15096 0.17185 0.0
H1134 H 0.77375 0.14047 0.18055 0.0
C1135 C 0.88233 0.18094 0.14713 0.0
C1136 C 0.84329 0.19603 0.13449 0.0
H1137 H 0.91257 0.13969 0.18127 0.0
H1138 H 0.9127 0.19216 0.13783 0.0
C1139 C 0.80456 0.18075 0.1471 0.0
C1140 C 0.55402 0.90522 0.89575 0.0
C1141 C 0.5928 0.88948 0.88423 0.0
H1142 H 0.52312 0.94588 0.92841 0.0
C1143 C 0.63177 0.90421 0.89756 0.0
H1144 H 0.52342 0.89461 0.88611 0.0
C1145 C 0.6316 0.93416 0.92211 0.0
C1146 C 0.59246 0.94953 0.93377 0.0
H1147 H 0.66218 0.89265 0.88905 0.0
H1148 H 0.66187 0.94504 0.93219 0.0
C1149 C 0.55385 0.9347 0.92016 0.0
C1150 C 0.03289 0.90092 0.92193 0.0
C1151 C 0.07216 0.88603 0.93423 0.0
H1152 H 0.00199 0.94213 0.88837 0.0
C1153 C 0.11067 0.90163 0.9216 0.0
H1154 H 0.00269 0.88945 0.93128 0.0
C1155 C 0.11028 0.93124 0.89727 0.0
C1156 C 0.07135 0.94636 0.88487 0.0
H1157 H 0.14149 0.89086 0.93039 0.0
H1158 H 0.1408 0.94239 0.88828 0.0
C1159 C 0.03249 0.93101 0.89748 0.0
C1160 C 0.28579 0.68267 0.67165 0.0
C1161 C 0.32458 0.69661 0.68657 0.0
H1162 H 0.2562 0.64285 0.635 0.0
C1163 C 0.36331 0.67991 0.67698 0.0
H1164 H 0.2554 0.69494 0.67879 0.0
C1165 C 0.36374 0.65068 0.65233 0.0
C1166 C 0.32545 0.63702 0.63649 0.0
H1167 H 0.39375 0.68975 0.68806 0.0
H1168 H 0.39452 0.63895 0.64534 0.0
C1169 C 0.2862 0.65289 0.64681 0.0
C1170 C 0.88421 0.6833 0.64589 0.0
C1171 C 0.84497 0.6982 0.63356 0.0
H1172 H 0.91509 0.64214 0.6795 0.0
C1173 C 0.80643 0.68264 0.64622 0.0
H1174 H 0.91443 0.69474 0.63651 0.0
C1175 C 0.8068 0.65308 0.67063 0.0
C1176 C 0.84573 0.63797 0.68304 0.0
H1177 H 0.77563 0.69343 0.63741 0.0
H1178 H 0.77628 0.64195 0.67967 0.0
C1179 C 0.8846 0.65326 0.67038 0.0
C1180 C 0.55461 0.40294 0.3962 0.0
C1181 C 0.59324 0.38754 0.38363 0.0
H1182 H 0.52424 0.44338 0.42969 0.0
C1183 C 0.6324 0.40239 0.39622 0.0
H1184 H 0.52388 0.39217 0.3872 0.0
C1185 C 0.63261 0.43226 0.42083 0.0
C1186 C 0.59366 0.44743 0.43336 0.0
H1187 H 0.66268 0.39105 0.38695 0.0
H1188 H 0.66304 0.44333 0.43017 0.0
C1189 C 0.55482 0.43235 0.42073 0.0
C1190 C 0.03602 0.40343 0.42037 0.0
C1191 C 0.07484 0.38776 0.43267 0.0
H1192 H 0.00639 0.44523 0.38664 0.0
C1193 C 0.11377 0.40248 0.4197 0.0
H1194 H 0.0055 0.39267 0.42995 0.0
C1195 C 0.11428 0.432 0.39526 0.0
C1196 C 0.07587 0.44799 0.38297 0.0
H1197 H 0.1443 0.39113 0.42843 0.0
H1198 H 0.14515 0.44239 0.38609 0.0
C1199 C 0.03654 0.43348 0.39573 0.0
C1200 C 0.78395 0.15327 0.64697 0.0
C1201 C 0.82283 0.13783 0.63463 0.0
H1202 H 0.75415 0.19487 0.68061 0.0
C1203 C 0.86172 0.15282 0.6473 0.0
H1204 H 0.75347 0.1423 0.6376 0.0
C1205 C 0.86211 0.18233 0.67157 0.0
C1206 C 0.82362 0.19806 0.68397 0.0
H1207 H 0.89229 0.14166 0.63852 0.0
H1208 H 0.89295 0.19292 0.68055 0.0
C1209 C 0.78434 0.18332 0.67143 0.0
C1210 C 0.38388 0.18115 0.64673 0.0
C1211 C 0.34459 0.19694 0.63616 0.0
H1212 H 0.41476 0.13925 0.67934 0.0
C1213 C 0.30635 0.18326 0.65202 0.0
H1214 H 0.41386 0.19119 0.63488 0.0
C1215 C 0.30684 0.15417 0.67698 0.0
C1216 C 0.34559 0.13757 0.68694 0.0
H1217 H 0.27552 0.1949 0.64487 0.0
H1218 H 0.27637 0.14442 0.68809 0.0
C1219 C 0.38436 0.15145 0.67194 0.0
C1220 C 0.0561 0.90477 0.39638 0.0
C1221 C 0.09488 0.88941 0.38411 0.0
H1222 H 0.02534 0.94512 0.42972 0.0
C1223 C 0.13389 0.90427 0.39708 0.0
H1224 H 0.02548 0.89398 0.38707 0.0
C1225 C 0.13381 0.93407 0.42181 0.0
C1226 C 0.09472 0.9492 0.43403 0.0
H1227 H 0.16428 0.89298 0.38804 0.0
H1228 H 0.16414 0.94513 0.43146 0.0
C1229 C 0.05602 0.93413 0.421 0.0
C1230 C 0.53552 0.90214 0.42166 0.0
C1231 C 0.57463 0.88707 0.43417 0.0
H1232 H 0.50511 0.94358 0.38796 0.0
C1233 C 0.61329 0.90263 0.42184 0.0
H1234 H 0.5052 0.89072 0.43078 0.0
C1235 C 0.61324 0.93232 0.39769 0.0
C1236 C 0.57453 0.94763 0.38507 0.0
H1237 H 0.64402 0.89179 0.43078 0.0
H1238 H 0.64393 0.94334 0.38896 0.0
C1239 C 0.53547 0.93235 0.39731 0.0
C1240 C 0.86314 0.65157 0.14706 0.0
C1241 C 0.82457 0.63629 0.13407 0.0
H1242 H 0.89333 0.69182 0.1811 0.0
C1243 C 0.78535 0.65112 0.14641 0.0
H1244 H 0.8939 0.64079 0.13824 0.0
C1245 C 0.78501 0.68085 0.17122 0.0
C1246 C 0.82388 0.69591 0.18419 0.0
H1247 H 0.75511 0.63989 0.13678 0.0
H1248 H 0.75452 0.69192 0.18033 0.0
C1249 C 0.8628 0.68086 0.17181 0.0
C1250 C 0.38253 0.65112 0.17005 0.0
C1251 C 0.34345 0.63576 0.18207 0.0
H1252 H 0.41285 0.69297 0.13698 0.0
C1253 C 0.30476 0.65107 0.16937 0.0
H1254 H 0.41287 0.63989 0.17945 0.0
C1255 C 0.30475 0.68086 0.14542 0.0
C1256 C 0.34342 0.69654 0.13336 0.0
H1257 H 0.27405 0.63998 0.17791 0.0
H1258 H 0.27403 0.6917 0.13643 0.0
C1259 C 0.38252 0.68146 0.1459 0.0
C1260 C 0.13188 0.43127 0.91983 0.0
C1261 C 0.09316 0.4468 0.93246 0.0
H1262 H 0.16128 0.38971 0.88583 0.0
C1263 C 0.05412 0.43193 0.92002 0.0
H1264 H 0.16248 0.44214 0.92903 0.0
C1265 C 0.05345 0.40243 0.89568 0.0
C1266 C 0.09178 0.38664 0.88296 0.0
H1267 H 0.02367 0.44314 0.92905 0.0
H1268 H 0.0225 0.39192 0.88689 0.0
C1269 C 0.1312 0.40129 0.89526 0.0
C1270 C 0.61265 0.40388 0.92113 0.0
C1271 C 0.57359 0.38852 0.93266 0.0
H1272 H 0.64432 0.44427 0.88852 0.0
C1273 C 0.5349 0.40372 0.91926 0.0
H1274 H 0.64307 0.39292 0.93079 0.0
C1275 C 0.53563 0.43376 0.89467 0.0
C1276 C 0.57507 0.44875 0.88307 0.0
H1277 H 0.50429 0.39247 0.92775 0.0
H1278 H 0.50558 0.44503 0.88456 0.0
C1279 C 0.61338 0.43342 0.89672 0.0
C1280 C 0.212 0.06108 0.96885 0.0
C1281 C 0.19804 0.05493 1.00874 0.0
H1282 H 0.19539 0.06337 0.90608 0.0
C1283 C 0.1544 0.04773 1.01517 0.0
H1284 H 0.24542 0.06682 0.96255 0.0
C1285 C 0.12585 0.04553 0.98262 0.0
C1286 C 0.14003 0.05064 0.94265 0.0
H1287 H 0.14243 0.04278 0.04524 0.0
H1288 H 0.09255 1.03934 0.98893 0.0
C1289 C 0.18335 0.05909 0.93626 0.0
C1290 C -0.02118 0.27193 0.93327 0.0
C1291 C 0.02328 0.27453 0.93975 0.0
H1292 H 0.91619 0.26971 0.95966 0.0
C1293 C 0.03853 0.27408 0.97982 0.0
H1294 H -0.03415 0.27222 0.90301 0.0
C1295 C 0.01008 0.27253 1.01249 0.0
C1296 C -0.03449 0.27159 1.00607 0.0
H1297 H 0.07265 0.27574 0.98614 0.0
H1298 H 0.02304 0.2733 0.04273 0.0
C1299 C 0.95033 0.27061 0.96597 0.0
C1300 C 0.21233 0.27053 0.34973 0.0
C1301 C 0.19754 0.27468 0.30972 0.0
H1302 H 0.19664 0.26953 0.41269 0.0
C1303 C 0.15325 0.27888 0.30339 0.0
H1304 H 0.24624 0.26714 0.35602 0.0
C1305 C 0.12483 0.28023 0.33609 0.0
C1306 C 0.13979 0.2774 0.37617 0.0
H1307 H 0.14058 0.28214 0.27325 0.0
H1308 H 0.09102 0.28428 0.3298 0.0
C1309 C 0.18387 0.27182 0.38247 0.0
C1310 C 0.01054 0.05519 0.30473 0.0
C1311 C -0.03377 0.05854 0.31143 0.0
H1312 H 0.0731 0.04981 0.3307 0.0
C1313 C 0.95164 0.06126 0.3516 0.0
H1314 H 0.02301 0.05296 0.27443 0.0
C1315 C -0.01955 0.05958 0.38414 0.0
C1316 C 0.02454 0.0547 0.37739 0.0
H1317 H 0.91771 0.06403 0.35808 0.0
H1318 H -0.03201 0.06101 0.41451 0.0
C1319 C 0.03923 0.05314 0.33722 0.0
C1320 C 0.72948 1.02274 0.13546 0.0
C1321 C 0.77394 1.02452 0.12867 0.0
H1322 H 0.66656 1.02166 0.10943 0.0
C1323 C 0.78881 1.0237 0.08854 0.0
H1324 H 0.71681 1.02334 0.1658 0.0
C1325 C 0.76005 1.02265 0.05607 0.0
C1326 C 0.71553 1.02258 0.06275 0.0
H1327 H 0.82291 1.02472 0.08201 0.0
H1328 H 0.77277 1.02313 1.02575 0.0
C1329 C 0.70066 1.02191 0.10293 0.0
C1330 C -0.03627 0.81047 0.09957 0.0
C1331 C 0.94952 0.80425 0.05977 0.0
H1332 H 0.9475 0.81275 0.16239 0.0
C1333 C 0.90588 0.79694 0.05351 0.0
H1334 H -0.00283 0.81629 0.10572 0.0
C1335 C 0.87757 0.7947 0.08616 0.0
C1336 C 0.89199 0.79985 0.12606 0.0
H1337 H 0.89373 0.79196 1.02351 0.0
H1338 H 0.84425 0.78845 0.07997 0.0
C1339 C 0.9353 0.80843 0.13227 0.0
C1340 C 0.78899 0.79711 0.73197 0.0
C1341 C 0.77465 0.8028 0.69211 0.0
H1342 H 0.77289 0.79445 0.79468 0.0
C1343 C 0.73169 0.81254 0.68605 0.0
H1344 H 0.82205 0.78996 0.73806 0.0
C1345 C 0.7035 0.81521 0.71884 0.0
C1346 C 0.71756 0.80843 0.7586 0.0
H1347 H 0.71957 0.81736 0.65598 0.0
H1348 H 0.6703 0.82193 0.71278 0.0
C1349 C 0.7609 0.79996 0.76473 0.0
C1350 C 0.87401 1.03028 0.73194 0.0
C1351 C 0.8887 1.02747 0.69183 0.0
H1352 H 0.89025 1.03226 0.79467 0.0
C1353 C 0.93273 1.02199 0.68533 0.0
H1354 H 0.84023 1.03426 0.73836 0.0
C1355 C -0.03855 1.0208 0.7179 0.0
C1356 C 0.94693 1.02495 0.75793 0.0
H1357 H 0.94527 1.01971 0.65506 0.0
H1358 H -0.00468 1.01749 0.71146 0.0
C1359 C 0.90269 1.02902 0.76448 0.0
C1360 C 0.22017 0.56471 0.46373 0.0
C1361 C 0.20587 0.56304 0.50406 0.0
H1362 H 0.20332 0.56349 0.40101 0.0
C1363 C 0.16146 0.56115 0.51116 0.0
H1364 H 0.25413 0.56629 0.4569 0.0
C1365 C 0.13238 0.55945 0.47898 0.0
C1366 C 0.14675 0.55974 0.43867 0.0
H1367 H 0.14913 0.55983 0.54159 0.0
H1368 H 0.09846 0.55714 0.48588 0.0
C1369 C 0.19101 0.56318 0.43148 0.0
C1370 C 0.04008 0.78984 0.48186 0.0
C1371 C 0.02575 0.78491 0.4419 0.0
H1372 H 0.02381 0.79222 0.54451 0.0
C1373 C -0.01756 0.77635 0.43558 0.0
H1374 H 0.07338 0.79607 0.48815 0.0
C1375 C 0.95395 0.77411 0.46823 0.0
C1376 C -0.03192 0.7801 0.50811 0.0
H1377 H -0.02971 0.77219 0.40541 0.0
H1378 H 0.92052 0.76832 0.46199 0.0
C1379 C 0.01171 0.7874 0.51446 0.0
C1380 C 0.15692 0.78538 0.80338 0.0
C1381 C 0.20043 0.77764 0.80962 0.0
H1382 H 0.09543 0.79421 0.82991 0.0
C1383 C 0.21455 0.77089 0.84937 0.0
H1384 H 0.14488 0.7908 0.77342 0.0
C1385 C 0.18619 0.77292 0.88207 0.0
C1386 C 0.14302 0.78196 0.87592 0.0
H1387 H 0.24788 0.76469 0.85548 0.0
H1388 H 0.19833 0.7682 0.91215 0.0
C1389 C 0.12865 0.78758 0.83605 0.0
C1390 C 0.0435 0.55476 0.83533 0.0
C1391 C 0.02891 0.55755 0.87546 0.0
H1392 H 0.02711 0.55273 0.77265 0.0
C1393 C -0.01511 0.56304 0.88207 0.0
H1394 H 0.07727 0.55079 0.82884 0.0
C1395 C 0.95609 0.56419 0.84955 0.0
C1396 C -0.02949 0.56 0.80951 0.0
H1397 H -0.02757 0.5653 0.91237 0.0
H1398 H 0.92222 0.56747 0.85606 0.0
C1399 C 0.01475 0.55599 0.80285 0.0
C1400 C 0.76281 0.53631 0.5525 0.0
C1401 C 0.71935 0.5284 0.55893 0.0
H1402 H 0.82446 0.54565 0.57874 0.0
C1403 C 0.70557 0.52198 0.59882 0.0
H1404 H 0.77463 0.54152 0.52244 0.0
C1405 C 0.73417 0.5244 0.63141 0.0
C1406 C 0.77729 0.53355 0.62504 0.0
H1407 H 0.6723 0.5157 0.60512 0.0
H1408 H 0.72225 0.51986 0.66158 0.0
C1409 C 0.79132 0.53893 0.58507 0.0
C1410 C -0.0335 0.31337 0.60193 0.0
C1411 C 0.95145 0.31311 0.56177 0.0
H1412 H 0.95068 0.31118 0.66484 0.0
C1413 C 0.90689 0.31289 0.55521 0.0
H1414 H 0.00063 0.3137 0.60835 0.0
C1415 C 0.8783 0.31134 0.58775 0.0
C1416 C 0.89337 0.31016 0.62785 0.0
H1417 H 0.89402 0.3127 0.52492 0.0
H1418 H 0.84418 0.31026 0.58128 0.0
C1419 C 0.93786 0.31205 0.63453 0.0
C1420 C 0.7032 0.31297 0.21697 0.0
C1421 C 0.71745 0.3085 0.25709 0.0
H1422 H 0.71965 0.31434 0.15421 0.0
C1423 C 0.76162 0.30395 0.26385 0.0
H1424 H 0.6694 0.31664 0.21033 0.0
C1425 C 0.79044 0.30262 0.23144 0.0
C1426 C 0.776 0.30586 0.19123 0.0
H1427 H 0.77388 0.30042 0.2941 0.0
H1428 H 0.82413 0.29832 0.23804 0.0
C1429 C 0.73205 0.31172 0.18454 0.0
C1430 C 0.93904 0.52562 0.18402 0.0
C1431 C 0.89504 0.53095 0.19082 0.0
H1432 H 0.00172 0.52048 0.21 0.0
C1433 C 0.88043 0.53266 0.23101 0.0
H1434 H 0.95144 0.52403 0.15363 0.0
C1435 C 0.90912 0.5303 0.26347 0.0
C1436 C 0.95336 0.52647 0.25671 0.0
H1437 H 0.84662 0.53633 0.23756 0.0
H1438 H 0.89674 0.53266 0.29378 0.0
C1439 C -0.03215 0.52362 0.21652 0.0
C1440 C 0.71471 0.06386 0.46629 0.0
C1441 C 0.69971 0.06312 0.50642 0.0
H1442 H 0.69881 0.06208 0.4034 0.0
C1443 C 0.65517 0.06259 0.51299 0.0
H1444 H 0.74883 0.06447 0.45989 0.0
C1445 C 0.62654 0.06112 0.48044 0.0
C1446 C 0.64157 0.06035 0.44037 0.0
H1447 H 0.64237 0.06204 0.54328 0.0
H1448 H 0.59244 0.05973 0.48688 0.0
C1449 C 0.68602 0.06262 0.4337 0.0
C1450 C 0.50723 0.28119 0.51215 0.0
C1451 C 0.46323 0.27585 0.50508 0.0
H1452 H 0.56964 0.28892 0.48682 0.0
C1453 C 0.44922 0.27239 0.46479 0.0
H1454 H 0.5193 0.28409 0.54253 0.0
C1455 C 0.47823 0.2751 0.43252 0.0
C1456 C 0.52196 0.28174 0.43965 0.0
H1457 H 0.41556 0.26819 0.458 0.0
H1458 H 0.46618 0.27288 0.40205 0.0
C1459 C 0.53609 0.28422 0.47995 0.0
C1460 C 0.71576 0.2742 0.85061 0.0
C1461 C 0.70119 0.27683 0.81039 0.0
H1462 H 0.69949 0.27513 0.91348 0.0
C1463 C 0.65697 0.28079 0.80355 0.0
H1464 H 0.74964 0.27099 0.85718 0.0
C1465 C 0.62837 0.2835 0.83596 0.0
C1466 C 0.64306 0.28203 0.87616 0.0
H1467 H 0.64453 0.28298 0.7732 0.0
H1468 H 0.59457 0.28725 0.82933 0.0
C1469 C 0.68704 0.27656 0.88307 0.0
C1470 C 0.45288 0.06348 0.85258 0.0
C1471 C 0.46785 0.06248 0.81245 0.0
H1472 H 0.46885 0.06243 0.91547 0.0
C1473 C 0.51239 0.06225 0.80586 0.0
H1474 H 0.41875 0.06388 0.85901 0.0
C1475 C 0.54108 0.06133 0.8384 0.0
C1476 C 0.52608 0.06084 0.8785 0.0
H1477 H 0.52517 0.06152 0.77557 0.0
H1478 H 0.57518 0.06013 0.83198 0.0
C1479 C 0.48161 0.0628 0.88516 0.0
C1480 C 0.20521 1.02271 0.60063 0.0
C1481 C 0.21957 1.02749 0.5606 0.0
H1482 H 0.22154 1.02053 0.66344 0.0
C1483 C 0.26381 1.03184 0.5541 0.0
H1484 H 0.17137 1.01917 0.60708 0.0
C1485 C 0.29258 1.03264 0.58667 0.0
C1486 C 0.27806 1.02903 0.62678 0.0
H1487 H 0.27617 1.03559 0.52395 0.0
H1488 H 0.32633 1.03679 0.58025 0.0
C1489 C 0.23402 1.02341 0.63321 0.0
C1490 C 0.43926 0.80888 0.63451 0.0
C1491 C 0.39523 0.8035 0.62786 0.0
H1492 H 0.50161 0.81462 0.60812 0.0
C1493 C 0.38007 0.80257 0.58781 0.0
H1494 H 0.45198 0.80992 0.66483 0.0
C1495 C 0.40831 0.80564 0.55524 0.0
C1496 C 0.4526 0.80939 0.56177 0.0
H1497 H 0.34619 0.79897 0.58145 0.0
H1498 H 0.39555 0.80379 0.52498 0.0
C1499 C 0.46764 0.81158 0.60185 0.0
C1500 C 0.29213 0.80428 0.23208 0.0
C1501 C 0.27727 0.80751 0.19201 0.0
H1502 H 0.27623 0.80228 0.2949 0.0
C1503 C 0.23336 0.81381 0.18569 0.0
H1504 H 0.32584 0.79968 0.23838 0.0
C1505 C 0.20492 0.81538 0.21838 0.0
C1506 C 0.21955 0.81078 0.25836 0.0
H1507 H 0.22068 0.81648 0.15547 0.0
H1508 H 0.17111 0.81933 0.21204 0.0
C1509 C 0.26371 0.80591 0.26476 0.0
C1510 C 0.40698 1.02786 0.26379 0.0
C1511 C 0.45125 1.02441 0.25699 0.0
H1512 H 0.34449 1.0339 0.23794 0.0
C1513 C 0.46588 1.0221 0.21683 0.0
H1514 H 0.39452 1.0298 0.29412 0.0
C1515 C 0.43712 1.02436 0.18435 0.0
C1516 C 0.39308 1.02942 0.19124 0.0
H1517 H 0.4998 1.01927 0.21034 0.0
H1518 H 0.44955 1.02324 0.15395 0.0
C1519 C 0.37834 1.0305 0.23138 0.0
C1520 C 0.68615 0.56356 0.93532 0.0
C1521 C 0.64214 0.55764 0.94149 0.0
H1522 H 0.74859 0.56792 0.96173 0.0
C1523 C 0.62738 0.55376 0.98149 0.0
H1524 H 0.69879 0.56667 0.90517 0.0
C1525 C 0.65595 0.55446 1.01419 0.0
C1526 C 0.70018 0.55901 1.0079 0.0
H1527 H 0.59362 0.54938 0.98769 0.0
H1528 H 0.64347 0.55041 0.04425 0.0
C1529 C 0.71474 0.56418 0.96801 0.0
C1530 C 0.47881 0.77644 0.93356 0.0
C1531 C 0.52285 0.78161 0.94032 0.0
H1532 H 0.41642 0.77059 0.95981 0.0
C1533 C 0.538 0.78197 0.98038 0.0
H1534 H 0.4661 0.77584 0.90321 0.0
C1535 C 0.50973 0.7786 1.01288 0.0
C1536 C 0.46543 0.7751 1.00627 0.0
H1537 H 0.57189 0.78538 0.98681 0.0
H1538 H 0.52249 0.78004 0.04317 0.0
C1539 C 0.4504 0.77344 0.96615 0.0
C1540 C 0.685 0.77051 0.38264 0.0
C1541 C 0.64101 0.7764 0.37632 0.0
H1542 H 0.74733 0.76558 0.35627 0.0
C1543 C 0.62609 0.77948 0.33625 0.0
H1544 H 0.69772 0.76799 0.41286 0.0
C1545 C 0.65453 0.77812 0.30357 0.0
C1546 C 0.69876 0.77367 0.30996 0.0
H1547 H 0.59232 0.78375 0.32995 0.0
H1548 H 0.64195 0.78162 0.27343 0.0
C1549 C 0.71346 0.76921 0.34994 0.0
C1550 C 0.51008 0.5552 0.30415 0.0
C1551 C 0.46576 0.55851 0.31073 0.0
H1552 H 0.57246 0.54939 0.33026 0.0
C1553 C 0.45095 0.56076 0.35086 0.0
H1554 H 0.52272 0.55335 0.27388 0.0
C1555 C 0.47956 0.55856 0.38349 0.0
C1556 C 0.52365 0.55365 0.3768 0.0
H1557 H 0.41698 0.56347 0.35722 0.0
H1558 H 0.46697 0.55959 0.41384 0.0
C1559 C 0.53857 0.55266 0.33669 0.0
C1560 C 0.23115 0.52101 0.13336 0.0
C1561 C 0.27562 0.52315 0.12675 0.0
H1562 H 0.16838 0.51933 0.1071 0.0
C1563 C 0.2907 0.52233 0.08669 0.0
H1564 H 0.21833 0.52158 0.16365 0.0
C1565 C 0.2621 0.52093 0.0541 0.0
C1566 C 0.21755 0.52053 0.06061 0.0
H1567 H 0.32481 0.52363 0.0803 0.0
H1568 H 0.27494 0.52146 1.02383 0.0
C1569 C 0.20251 0.51984 0.10074 0.0
C1570 C 0.37604 0.29632 0.08469 0.0
C1571 C 0.39005 0.30143 0.12471 0.0
H1572 H 0.39279 0.29406 1.02213 0.0
C1573 C 0.43323 0.31035 0.13125 0.0
H1574 H 0.34287 0.28977 0.07825 0.0
C1575 C 0.46191 0.31284 0.09877 0.0
C1576 C 0.44812 0.30674 0.05883 0.0
H1577 H 0.44514 0.31465 0.16147 0.0
H1578 H 0.49521 0.31893 0.1052 0.0
C1579 C 0.40461 0.29902 0.05224 0.0
C1580 C 0.2253 0.306 0.68176 0.0
C1581 C 0.2699 0.30494 0.68797 0.0
H1582 H 0.16289 0.30758 0.70852 0.0
C1583 C 0.2854 0.30705 0.72792 0.0
H1584 H 0.2121 0.30449 0.65164 0.0
C1585 C 0.25718 0.3089 0.76075 0.0
C1586 C 0.21257 0.30858 0.75467 0.0
H1587 H 0.31958 0.3066 0.73413 0.0
H1588 H 0.27039 0.30955 0.7909 0.0
C1589 C 0.19707 0.30772 0.71463 0.0
C1590 C 0.47067 0.52609 0.71389 0.0
C1591 C 0.45509 0.52488 0.75384 0.0
H1592 H 0.4556 0.52951 0.65091 0.0
C1593 C 0.4105 0.52383 0.75983 0.0
H1594 H 0.50486 0.52675 0.70789 0.0
C1595 C 0.38229 0.52547 0.72699 0.0
C1596 C 0.39782 0.52809 0.68714 0.0
H1597 H 0.39727 0.52287 0.78995 0.0
H1598 H 0.34808 0.52546 0.73308 0.0
C1599 C 0.44242 0.52759 0.68099 0.0
loop_
_geom_bond_atom_site_label_1
_geom_bond_atom_site_label_2
_geom_bond_distance
_geom_bond_site_symmetry_2
_ccdc_geom_bond_type
Dy0 O4 2.398 1_554 S
Dy0 O5 2.491 1_544 S
Dy0 O6 2.403 . S
Dy0 O7 2.664 . S
Dy0 O11 2.326 . S
Dy0 O15 2.310 1_545 S
Dy0 O16 2.351 . S
C1 O12 1.185 . S
C1 O13 1.355 1_565 S
C2 O4 1.185 . S
C2 O5 1.355 1_545 S
Dy3 O7 2.310 1_565 S
Dy3 O10 2.351 . S
Dy3 O12 2.398 . S
Dy3 O13 2.491 1_565 S
Dy3 O14 2.403 . S
Dy3 O15 2.664 . S
Dy3 O17 2.326 . S
O4 Dy0 2.398 1_556 S
O4 C2 1.185 . S
O5 Dy0 2.491 1_566 S
O5 C2 1.355 1_565 S
O6 Dy0 2.403 . S
O6 C8 1.254 . S
O7 Dy0 2.664 . S
O7 Dy3 2.310 1_545 S
O7 C8 1.268 . S
C8 O6 1.254 . S
C8 O7 1.268 . S
C9 O14 1.254 . S
C9 O15 1.268 . S
O10 Dy3 2.351 . S
O10 C18 1.249 1_565 S
O11 Dy0 2.326 . S
O11 C18 1.267 . S
O12 C1 1.185 . S
O12 Dy3 2.398 . S
O13 C1 1.355 1_545 S
O13 Dy3 2.491 1_545 S
O14 Dy3 2.403 . S
O14 C9 1.254 . S
O15 Dy0 2.310 1_565 S
O15 Dy3 2.664 . S
O15 C9 1.268 . S
O16 Dy0 2.351 . S
O16 C19 1.249 . S
O17 Dy3 2.326 . S
O17 C19 1.267 1_565 S
C18 O10 1.249 1_545 S
C18 O11 1.267 . S
C19 O16 1.249 . S
C19 O17 1.267 1_545 S
Dy20 O24 2.398 1_554 S
Dy20 O25 2.491 1_554 S
Dy20 O26 2.403 . S
Dy20 O27 2.664 . S
Dy20 O31 2.326 . S
Dy20 O35 2.310 . S
Dy20 O36 2.351 . S
C21 O32 1.185 . S
C21 O33 1.355 . S
C22 O24 1.185 . S
C22 O25 1.355 . S
Dy23 O27 2.310 . S
Dy23 O30 2.351 . S
Dy23 O32 2.398 . S
Dy23 O33 2.491 . S
Dy23 O34 2.403 . S
Dy23 O35 2.664 . S
Dy23 O37 2.326 . S
O24 Dy20 2.398 1_556 S
O24 C22 1.185 . S
O25 Dy20 2.491 1_556 S
O25 C22 1.355 . S
O26 Dy20 2.403 . S
O26 C28 1.254 . S
O27 Dy20 2.664 . S
O27 Dy23 2.310 . S
O27 C28 1.268 . S
C28 O26 1.254 . S
C28 O27 1.268 . S
C29 O34 1.254 . S
C29 O35 1.268 . S
O30 Dy23 2.351 . S
O30 C38 1.249 . S
O31 Dy20 2.326 . S
O31 C38 1.267 . S
O32 C21 1.185 . S
O32 Dy23 2.398 . S
O33 C21 1.355 . S
O33 Dy23 2.491 . S
O34 Dy23 2.403 . S
O34 C29 1.254 . S
O35 Dy20 2.310 . S
O35 Dy23 2.664 . S
O35 C29 1.268 . S
O36 Dy20 2.351 . S
O36 C39 1.249 . S
O37 Dy23 2.326 . S
O37 C39 1.267 . S
C38 O30 1.249 . S
C38 O31 1.267 . S
C39 O36 1.249 . S
C39 O37 1.267 . S
Dy40 O44 2.398 . S
Dy40 O45 2.491 . S
Dy40 O46 2.403 . S
Dy40 O47 2.664 . S
Dy40 O51 2.326 . S
Dy40 O55 2.310 . S
Dy40 O56 2.351 . S
C41 O52 1.185 . S
C41 O53 1.355 . S
C42 O44 1.185 . S
C42 O45 1.355 . S
Dy43 O47 2.310 . S
Dy43 O50 2.351 . S
Dy43 O52 2.398 . S
Dy43 O53 2.491 . S
Dy43 O54 2.403 . S
Dy43 O55 2.664 . S
Dy43 O57 2.326 . S
O44 Dy40 2.398 . S
O44 C42 1.185 . S
O45 Dy40 2.491 . S
O45 C42 1.355 . S
O46 Dy40 2.403 . S
O46 C48 1.254 . S
O47 Dy40 2.664 . S
O47 Dy43 2.310 . S
O47 C48 1.268 . S
C48 O46 1.254 . S
C48 O47 1.268 . S
C49 O54 1.254 . S
C49 O55 1.268 . S
O50 Dy43 2.351 . S
O50 C58 1.249 . S
O51 Dy40 2.326 . S
O51 C58 1.267 . S
O52 C41 1.185 . S
O52 Dy43 2.398 . S
O53 C41 1.355 . S
O53 Dy43 2.491 . S
O54 Dy43 2.403 . S
O54 C49 1.254 . S
O55 Dy40 2.310 . S
O55 Dy43 2.664 . S
O55 C49 1.268 . S
O56 Dy40 2.351 . S
O56 C59 1.249 . S
O57 Dy43 2.326 . S
O57 C59 1.267 . S
C58 O50 1.249 . S
C58 O51 1.267 . S
C59 O56 1.249 . S
C59 O57 1.267 . S
Dy60 O64 2.398 . S
Dy60 O65 2.491 1_545 S
Dy60 O66 2.403 . S
Dy60 O67 2.664 . S
Dy60 O71 2.326 . S
Dy60 O75 2.310 1_545 S
Dy60 O76 2.351 . S
C61 O72 1.185 . S
C61 O73 1.355 1_565 S
C62 O64 1.185 . S
C62 O65 1.355 1_545 S
Dy63 O67 2.310 1_565 S
Dy63 O70 2.351 . S
Dy63 O72 2.398 . S
Dy63 O73 2.491 1_565 S
Dy63 O74 2.403 . S
Dy63 O75 2.664 . S
Dy63 O77 2.326 . S
O64 Dy60 2.398 . S
O64 C62 1.185 . S
O65 Dy60 2.491 1_565 S
O65 C62 1.355 1_565 S
O66 Dy60 2.403 . S
O66 C68 1.254 . S
O67 Dy60 2.664 . S
O67 Dy63 2.310 1_545 S
O67 C68 1.268 . S
C68 O66 1.254 . S
C68 O67 1.268 . S
C69 O74 1.254 . S
C69 O75 1.268 . S
O70 Dy63 2.351 . S
O70 C78 1.249 1_565 S
O71 Dy60 2.326 . S
O71 C78 1.267 . S
O72 C61 1.185 . S
O72 Dy63 2.398 . S
O73 C61 1.355 1_545 S
O73 Dy63 2.491 1_545 S
O74 Dy63 2.403 . S
O74 C69 1.254 . S
O75 Dy60 2.310 1_565 S
O75 Dy63 2.664 . S
O75 C69 1.268 . S
O76 Dy60 2.351 . S
O76 C79 1.249 . S
O77 Dy63 2.326 . S
O77 C79 1.267 1_565 S
C78 O70 1.249 1_545 S
C78 O71 1.267 . S
C79 O76 1.249 . S
C79 O77 1.267 1_545 S
Dy80 O84 2.398 . S
Dy80 O85 2.491 1_545 S
Dy80 O86 2.403 . S
Dy80 O87 2.664 . S
Dy80 O91 2.326 . S
Dy80 O95 2.310 1_545 S
Dy80 O96 2.351 . S
C81 O92 1.185 . S
C81 O93 1.355 1_565 S
C82 O84 1.185 . S
C82 O85 1.355 1_545 S
Dy83 O87 2.310 1_565 S
Dy83 O90 2.351 . S
Dy83 O92 2.398 1_556 S
Dy83 O93 2.491 1_566 S
Dy83 O94 2.403 . S
Dy83 O95 2.664 . S
Dy83 O97 2.326 . S
O84 Dy80 2.398 . S
O84 C82 1.185 . S
O85 Dy80 2.491 1_565 S
O85 C82 1.355 1_565 S
O86 Dy80 2.403 . S
O86 C88 1.254 . S
O87 Dy80 2.664 . S
O87 Dy83 2.310 1_545 S
O87 C88 1.268 . S
C88 O86 1.254 . S
C88 O87 1.268 . S
C89 O94 1.254 . S
C89 O95 1.268 . S
O90 Dy83 2.351 . S
O90 C98 1.249 . S
O91 Dy80 2.326 . S
O91 C98 1.267 1_545 S
O92 C81 1.185 . S
O92 Dy83 2.398 1_554 S
O93 C81 1.355 1_545 S
O93 Dy83 2.491 1_544 S
O94 Dy83 2.403 . S
O94 C89 1.254 . S
O95 Dy80 2.310 1_565 S
O95 Dy83 2.664 . S
O95 C89 1.268 . S
O96 Dy80 2.351 . S
O96 C99 1.249 1_545 S
O97 Dy83 2.326 . S
O97 C99 1.267 . S
C98 O90 1.249 . S
C98 O91 1.267 1_565 S
C99 O96 1.249 1_565 S
C99 O97 1.267 . S
Dy100 O104 2.398 . S
Dy100 O105 2.491 . S
Dy100 O106 2.403 . S
Dy100 O107 2.664 . S
Dy100 O111 2.326 . S
Dy100 O115 2.310 . S
Dy100 O116 2.351 . S
C101 O112 1.185 . S
C101 O113 1.355 . S
C102 O104 1.185 . S
C102 O105 1.355 . S
Dy103 O107 2.310 . S
Dy103 O110 2.351 . S
Dy103 O112 2.398 1_556 S
Dy103 O113 2.491 1_556 S
Dy103 O114 2.403 . S
Dy103 O115 2.664 . S
Dy103 O117 2.326 . S
O104 Dy100 2.398 . S
O104 C102 1.185 . S
O105 Dy100 2.491 . S
O105 C102 1.355 . S
O106 Dy100 2.403 . S
O106 C108 1.254 . S
O107 Dy100 2.664 . S
O107 Dy103 2.310 . S
O107 C108 1.268 . S
C108 O106 1.254 . S
C108 O107 1.268 . S
C109 O114 1.254 . S
C109 O115 1.268 . S
O110 Dy103 2.351 . S
O110 C118 1.249 . S
O111 Dy100 2.326 . S
O111 C118 1.267 . S
O112 C101 1.185 . S
O112 Dy103 2.398 1_554 S
O113 C101 1.355 . S
O113 Dy103 2.491 1_554 S
O114 Dy103 2.403 . S
O114 C109 1.254 . S
O115 Dy100 2.310 . S
O115 Dy103 2.664 . S
O115 C109 1.268 . S
O116 Dy100 2.351 . S
O116 C119 1.249 . S
O117 Dy103 2.326 . S
O117 C119 1.267 . S
C118 O110 1.249 . S
C118 O111 1.267 . S
C119 O116 1.249 . S
C119 O117 1.267 . S
Dy120 O124 2.398 . S
Dy120 O125 2.491 . S
Dy120 O126 2.403 . S
Dy120 O127 2.664 . S
Dy120 O131 2.326 . S
Dy120 O135 2.310 . S
Dy120 O136 2.351 . S
C121 O132 1.185 . S
C121 O133 1.355 . S
C122 O124 1.185 . S
C122 O125 1.355 . S
Dy123 O127 2.310 . S
Dy123 O130 2.351 . S
Dy123 O132 2.398 . S
Dy123 O133 2.491 . S
Dy123 O134 2.403 . S
Dy123 O135 2.664 . S
Dy123 O137 2.326 . S
O124 Dy120 2.398 . S
O124 C122 1.185 . S
O125 Dy120 2.491 . S
O125 C122 1.355 . S
O126 Dy120 2.403 . S
O126 C128 1.254 . S
O127 Dy120 2.664 . S
O127 Dy123 2.310 . S
O127 C128 1.268 . S
C128 O126 1.254 . S
C128 O127 1.268 . S
C129 O134 1.254 . S
C129 O135 1.268 . S
O130 Dy123 2.351 . S
O130 C138 1.249 . S
O131 Dy120 2.326 . S
O131 C138 1.267 . S
O132 C121 1.185 . S
O132 Dy123 2.398 . S
O133 C121 1.355 . S
O133 Dy123 2.491 . S
O134 Dy123 2.403 . S
O134 C129 1.254 . S
O135 Dy120 2.310 . S
O135 Dy123 2.664 . S
O135 C129 1.268 . S
O136 Dy120 2.351 . S
O136 C139 1.249 . S
O137 Dy123 2.326 . S
O137 C139 1.267 . S
C138 O130 1.249 . S
C138 O131 1.267 . S
C139 O136 1.249 . S
C139 O137 1.267 . S
Dy140 O144 2.398 . S
Dy140 O145 2.491 1_545 S
Dy140 O146 2.403 . S
Dy140 O147 2.664 . S
Dy140 O151 2.326 . S
Dy140 O155 2.310 1_545 S
Dy140 O156 2.351 . S
C141 O152 1.185 . S
C141 O153 1.355 1_565 S
C142 O144 1.185 . S
C142 O145 1.355 1_545 S
Dy143 O147 2.310 1_565 S
Dy143 O150 2.351 . S
Dy143 O152 2.398 . S
Dy143 O153 2.491 1_565 S
Dy143 O154 2.403 . S
Dy143 O155 2.664 . S
Dy143 O157 2.326 . S
O144 Dy140 2.398 . S
O144 C142 1.185 . S
O145 Dy140 2.491 1_565 S
O145 C142 1.355 1_565 S
O146 Dy140 2.403 . S
O146 C148 1.254 . S
O147 Dy140 2.664 . S
O147 Dy143 2.310 1_545 S
O147 C148 1.268 . S
C148 O146 1.254 . S
C148 O147 1.268 . S
C149 O154 1.254 . S
C149 O155 1.268 . S
O150 Dy143 2.351 . S
O150 C158 1.249 . S
O151 Dy140 2.326 . S
O151 C158 1.267 1_545 S
O152 C141 1.185 . S
O152 Dy143 2.398 . S
O153 C141 1.355 1_545 S
O153 Dy143 2.491 1_545 S
O154 Dy143 2.403 . S
O154 C149 1.254 . S
O155 Dy140 2.310 1_565 S
O155 Dy143 2.664 . S
O155 C149 1.268 . S
O156 Dy140 2.351 . S
O156 C159 1.249 1_545 S
O157 Dy143 2.326 . S
O157 C159 1.267 . S
C158 O150 1.249 . S
C158 O151 1.267 1_565 S
C159 O156 1.249 1_565 S
C159 O157 1.267 . S
Dy160 O164 2.398 . S
Dy160 O165 2.491 . S
Dy160 O166 2.403 . S
Dy160 O167 2.664 . S
Dy160 O171 2.326 . S
Dy160 O175 2.310 . S
Dy160 O176 2.351 . S
C161 O172 1.185 . S
C161 O173 1.355 . S
C162 O164 1.185 . S
C162 O165 1.355 . S
Dy163 O167 2.310 . S
Dy163 O170 2.351 . S
Dy163 O172 2.398 . S
Dy163 O173 2.491 . S
Dy163 O174 2.403 . S
Dy163 O175 2.664 . S
Dy163 O177 2.326 . S
O164 Dy160 2.398 . S
O164 C162 1.185 . S
O165 Dy160 2.491 . S
O165 C162 1.355 . S
O166 Dy160 2.403 . S
O166 C168 1.254 . S
O167 Dy160 2.664 . S
O167 Dy163 2.310 . S
O167 C168 1.268 . S
C168 O166 1.254 . S
C168 O167 1.268 . S
C169 O174 1.254 . S
C169 O175 1.268 . S
O170 Dy163 2.351 . S
O170 C178 1.249 . S
O171 Dy160 2.326 . S
O171 C178 1.267 . S
O172 C161 1.185 . S
O172 Dy163 2.398 . S
O173 C161 1.355 . S
O173 Dy163 2.491 . S
O174 Dy163 2.403 . S
O174 C169 1.254 . S
O175 Dy160 2.310 . S
O175 Dy163 2.664 . S
O175 C169 1.268 . S
O176 Dy160 2.351 . S
O176 C179 1.249 . S
O177 Dy163 2.326 . S
O177 C179 1.267 . S
C178 O170 1.249 . S
C178 O171 1.267 . S
C179 O176 1.249 . S
C179 O177 1.267 . S
Dy180 O184 2.398 . S
Dy180 O185 2.491 . S
Dy180 O186 2.403 . S
Dy180 O187 2.664 . S
Dy180 O191 2.326 . S
Dy180 O195 2.310 . S
Dy180 O196 2.351 . S
C181 O192 1.185 . S
C181 O193 1.355 . S
C182 O184 1.185 . S
C182 O185 1.355 . S
Dy183 O187 2.310 . S
Dy183 O190 2.351 . S
Dy183 O192 2.398 . S
Dy183 O193 2.491 . S
Dy183 O194 2.403 . S
Dy183 O195 2.664 . S
Dy183 O197 2.326 . S
O184 Dy180 2.398 . S
O184 C182 1.185 . S
O185 Dy180 2.491 . S
O185 C182 1.355 . S
O186 Dy180 2.403 . S
O186 C188 1.254 . S
O187 Dy180 2.664 . S
O187 Dy183 2.310 . S
O187 C188 1.268 . S
C188 O186 1.254 . S
C188 O187 1.268 . S
C189 O194 1.254 . S
C189 O195 1.268 . S
O190 Dy183 2.351 . S
O190 C198 1.249 . S
O191 Dy180 2.326 . S
O191 C198 1.267 . S
O192 C181 1.185 . S
O192 Dy183 2.398 . S
O193 C181 1.355 . S
O193 Dy183 2.491 . S
O194 Dy183 2.403 . S
O194 C189 1.254 . S
O195 Dy180 2.310 . S
O195 Dy183 2.664 . S
O195 C189 1.268 . S
O196 Dy180 2.351 . S
O196 C199 1.249 . S
O197 Dy183 2.326 . S
O197 C199 1.267 . S
C198 O190 1.249 . S
C198 O191 1.267 . S
C199 O196 1.249 . S
C199 O197 1.267 . S
Dy200 O204 2.398 . S
Dy200 O205 2.491 . S
Dy200 O206 2.403 . S
Dy200 O207 2.664 . S
Dy200 O211 2.326 . S
Dy200 O215 2.310 . S
Dy200 O216 2.351 . S
C201 O212 1.185 . S
C201 O213 1.355 . S
C202 O204 1.185 . S
C202 O205 1.355 . S
Dy203 O207 2.310 . S
Dy203 O210 2.351 . S
Dy203 O212 2.398 . S
Dy203 O213 2.491 . S
Dy203 O214 2.403 . S
Dy203 O215 2.664 . S
Dy203 O217 2.326 . S
O204 Dy200 2.398 . S
O204 C202 1.185 . S
O205 Dy200 2.491 . S
O205 C202 1.355 . S
O206 Dy200 2.403 . S
O206 C208 1.254 . S
O207 Dy200 2.664 . S
O207 Dy203 2.310 . S
O207 C208 1.268 . S
C208 O206 1.254 . S
C208 O207 1.268 . S
C209 O214 1.254 . S
C209 O215 1.268 . S
O210 Dy203 2.351 . S
O210 C218 1.249 . S
O211 Dy200 2.326 . S
O211 C218 1.267 . S
O212 C201 1.185 . S
O212 Dy203 2.398 . S
O213 C201 1.355 . S
O213 Dy203 2.491 . S
O214 Dy203 2.403 . S
O214 C209 1.254 . S
O215 Dy200 2.310 . S
O215 Dy203 2.664 . S
O215 C209 1.268 . S
O216 Dy200 2.351 . S
O216 C219 1.249 . S
O217 Dy203 2.326 . S
O217 C219 1.267 . S
C218 O210 1.249 . S
C218 O211 1.267 . S
C219 O216 1.249 . S
C219 O217 1.267 . S
Dy220 O224 2.398 . S
Dy220 O225 2.491 . S
Dy220 O226 2.403 . S
Dy220 O227 2.664 . S
Dy220 O231 2.326 . S
Dy220 O235 2.310 . S
Dy220 O236 2.351 . S
C221 O232 1.185 . S
C221 O233 1.355 . S
C222 O224 1.185 . S
C222 O225 1.355 . S
Dy223 O227 2.310 . S
Dy223 O230 2.351 . S
Dy223 O232 2.398 . S
Dy223 O233 2.491 . S
Dy223 O234 2.403 . S
Dy223 O235 2.664 . S
Dy223 O237 2.326 . S
O224 Dy220 2.398 . S
O224 C222 1.185 . S
O225 Dy220 2.491 . S
O225 C222 1.355 . S
O226 Dy220 2.403 . S
O226 C228 1.254 . S
O227 Dy220 2.664 . S
O227 Dy223 2.310 . S
O227 C228 1.268 . S
C228 O226 1.254 . S
C228 O227 1.268 . S
C229 O234 1.254 . S
C229 O235 1.268 . S
O230 Dy223 2.351 . S
O230 C238 1.249 . S
O231 Dy220 2.326 . S
O231 C238 1.267 . S
O232 C221 1.185 . S
O232 Dy223 2.398 . S
O233 C221 1.355 . S
O233 Dy223 2.491 . S
O234 Dy223 2.403 . S
O234 C229 1.254 . S
O235 Dy220 2.310 . S
O235 Dy223 2.664 . S
O235 C229 1.268 . S
O236 Dy220 2.351 . S
O236 C239 1.249 . S
O237 Dy223 2.326 . S
O237 C239 1.267 . S
C238 O230 1.249 . S
C238 O231 1.267 . S
C239 O236 1.249 . S
C239 O237 1.267 . S
Dy240 O244 2.398 . S
Dy240 O245 2.491 . S
Dy240 O246 2.403 . S
Dy240 O247 2.664 . S
Dy240 O251 2.326 . S
Dy240 O255 2.310 . S
Dy240 O256 2.351 . S
C241 O252 1.185 . S
C241 O253 1.355 . S
C242 O244 1.185 . S
C242 O245 1.355 . S
Dy243 O247 2.310 . S
Dy243 O250 2.351 . S
Dy243 O252 2.398 . S
Dy243 O253 2.491 . S
Dy243 O254 2.403 . S
Dy243 O255 2.664 . S
Dy243 O257 2.326 . S
O244 Dy240 2.398 . S
O244 C242 1.185 . S
O245 Dy240 2.491 . S
O245 C242 1.355 . S
O246 Dy240 2.403 . S
O246 C248 1.254 . S
O247 Dy240 2.664 . S
O247 Dy243 2.310 . S
O247 C248 1.268 . S
C248 O246 1.254 . S
C248 O247 1.268 . S
C249 O254 1.254 . S
C249 O255 1.268 . S
O250 Dy243 2.351 . S
O250 C258 1.249 . S
O251 Dy240 2.326 . S
O251 C258 1.267 . S
O252 C241 1.185 . S
O252 Dy243 2.398 . S
O253 C241 1.355 . S
O253 Dy243 2.491 . S
O254 Dy243 2.403 . S
O254 C249 1.254 . S
O255 Dy240 2.310 . S
O255 Dy243 2.664 . S
O255 C249 1.268 . S
O256 Dy240 2.351 . S
O256 C259 1.249 . S
O257 Dy243 2.326 . S
O257 C259 1.267 . S
C258 O250 1.249 . S
C258 O251 1.267 . S
C259 O256 1.249 . S
C259 O257 1.267 . S
Dy260 O264 2.398 . S
Dy260 O265 2.491 . S
Dy260 O266 2.403 . S
Dy260 O267 2.664 . S
Dy260 O271 2.326 . S
Dy260 O275 2.310 . S
Dy260 O276 2.351 . S
C261 O272 1.185 . S
C261 O273 1.355 . S
C262 O264 1.185 . S
C262 O265 1.355 . S
Dy263 O267 2.310 . S
Dy263 O270 2.351 . S
Dy263 O272 2.398 . S
Dy263 O273 2.491 . S
Dy263 O274 2.403 . S
Dy263 O275 2.664 . S
Dy263 O277 2.326 . S
O264 Dy260 2.398 . S
O264 C262 1.185 . S
O265 Dy260 2.491 . S
O265 C262 1.355 . S
O266 Dy260 2.403 . S
O266 C268 1.254 . S
O267 Dy260 2.664 . S
O267 Dy263 2.310 . S
O267 C268 1.268 . S
C268 O266 1.254 . S
C268 O267 1.268 . S
C269 O274 1.254 . S
C269 O275 1.268 . S
O270 Dy263 2.351 . S
O270 C278 1.249 . S
O271 Dy260 2.326 . S
O271 C278 1.267 . S
O272 C261 1.185 . S
O272 Dy263 2.398 . S
O273 C261 1.355 . S
O273 Dy263 2.491 . S
O274 Dy263 2.403 . S
O274 C269 1.254 . S
O275 Dy260 2.310 . S
O275 Dy263 2.664 . S
O275 C269 1.268 . S
O276 Dy260 2.351 . S
O276 C279 1.249 . S
O277 Dy263 2.326 . S
O277 C279 1.267 . S
C278 O270 1.249 . S
C278 O271 1.267 . S
C279 O276 1.249 . S
C279 O277 1.267 . S
Dy280 O284 2.398 . S
Dy280 O285 2.491 . S
Dy280 O286 2.403 . S
Dy280 O287 2.664 . S
Dy280 O291 2.326 . S
Dy280 O295 2.310 . S
Dy280 O296 2.351 . S
C281 O292 1.185 . S
C281 O293 1.355 . S
C282 O284 1.185 . S
C282 O285 1.355 . S
Dy283 O287 2.310 . S
Dy283 O290 2.351 . S
Dy283 O292 2.398 . S
Dy283 O293 2.491 . S
Dy283 O294 2.403 . S
Dy283 O295 2.664 . S
Dy283 O297 2.326 . S
O284 Dy280 2.398 . S
O284 C282 1.185 . S
O285 Dy280 2.491 . S
O285 C282 1.355 . S
O286 Dy280 2.403 . S
O286 C288 1.254 . S
O287 Dy280 2.664 . S
O287 Dy283 2.310 . S
O287 C288 1.268 . S
C288 O286 1.254 . S
C288 O287 1.268 . S
C289 O294 1.254 . S
C289 O295 1.268 . S
O290 Dy283 2.351 . S
O290 C298 1.249 . S
O291 Dy280 2.326 . S
O291 C298 1.267 . S
O292 C281 1.185 . S
O292 Dy283 2.398 . S
O293 C281 1.355 . S
O293 Dy283 2.491 . S
O294 Dy283 2.403 . S
O294 C289 1.254 . S
O295 Dy280 2.310 . S
O295 Dy283 2.664 . S
O295 C289 1.268 . S
O296 Dy280 2.351 . S
O296 C299 1.249 . S
O297 Dy283 2.326 . S
O297 C299 1.267 . S
C298 O290 1.249 . S
C298 O291 1.267 . S
C299 O296 1.249 . S
C299 O297 1.267 . S
Dy300 O304 2.398 . S
Dy300 O305 2.491 . S
Dy300 O306 2.403 . S
Dy300 O307 2.664 . S
Dy300 O311 2.326 . S
Dy300 O315 2.310 . S
Dy300 O316 2.351 . S
C301 O312 1.185 . S
C301 O313 1.355 . S
C302 O304 1.185 . S
C302 O305 1.355 . S
Dy303 O307 2.310 . S
Dy303 O310 2.351 . S
Dy303 O312 2.398 . S
Dy303 O313 2.491 . S
Dy303 O314 2.403 . S
Dy303 O315 2.664 . S
Dy303 O317 2.326 . S
O304 Dy300 2.398 . S
O304 C302 1.185 . S
O305 Dy300 2.491 . S
O305 C302 1.355 . S
O306 Dy300 2.403 . S
O306 C308 1.254 . S
O307 Dy300 2.664 . S
O307 Dy303 2.310 . S
O307 C308 1.268 . S
C308 O306 1.254 . S
C308 O307 1.268 . S
C309 O314 1.254 . S
C309 O315 1.268 . S
O310 Dy303 2.351 . S
O310 C318 1.249 . S
O311 Dy300 2.326 . S
O311 C318 1.267 . S
O312 C301 1.185 . S
O312 Dy303 2.398 . S
O313 C301 1.355 . S
O313 Dy303 2.491 . S
O314 Dy303 2.403 . S
O314 C309 1.254 . S
O315 Dy300 2.310 . S
O315 Dy303 2.664 . S
O315 C309 1.268 . S
O316 Dy300 2.351 . S
O316 C319 1.249 . S
O317 Dy303 2.326 . S
O317 C319 1.267 . S
C318 O310 1.249 . S
C318 O311 1.267 . S
C319 O316 1.249 . S
C319 O317 1.267 . S
Dy320 O324 2.398 . S
Dy320 O325 2.491 1_545 S
Dy320 O326 2.403 . S
Dy320 O327 2.664 . S
Dy320 O331 2.326 . S
Dy320 O335 2.310 1_545 S
Dy320 O336 2.351 . S
C321 O332 1.185 . S
C321 O333 1.355 1_565 S
C322 O324 1.185 . S
C322 O325 1.355 1_545 S
Dy323 O327 2.310 1_565 S
Dy323 O330 2.351 . S
Dy323 O332 2.398 . S
Dy323 O333 2.491 1_565 S
Dy323 O334 2.403 . S
Dy323 O335 2.664 . S
Dy323 O337 2.326 . S
O324 Dy320 2.398 . S
O324 C322 1.185 . S
O325 Dy320 2.491 1_565 S
O325 C322 1.355 1_565 S
O326 Dy320 2.403 . S
O326 C328 1.254 . S
O327 Dy320 2.664 . S
O327 Dy323 2.310 1_545 S
O327 C328 1.268 . S
C328 O326 1.254 . S
C328 O327 1.268 . S
C329 O334 1.254 . S
C329 O335 1.268 . S
O330 Dy323 2.351 . S
O330 C338 1.249 1_565 S
O331 Dy320 2.326 . S
O331 C338 1.267 . S
O332 C321 1.185 . S
O332 Dy323 2.398 . S
O333 C321 1.355 1_545 S
O333 Dy323 2.491 1_545 S
O334 Dy323 2.403 . S
O334 C329 1.254 . S
O335 Dy320 2.310 1_565 S
O335 Dy323 2.664 . S
O335 C329 1.268 . S
O336 Dy320 2.351 . S
O336 C339 1.249 . S
O337 Dy323 2.326 . S
O337 C339 1.267 1_565 S
C338 O330 1.249 1_545 S
C338 O331 1.267 . S
C339 O336 1.249 . S
C339 O337 1.267 1_545 S
Dy340 O344 2.398 . S
Dy340 O345 2.491 . S
Dy340 O346 2.403 . S
Dy340 O347 2.664 . S
Dy340 O351 2.326 . S
Dy340 O355 2.310 . S
Dy340 O356 2.351 . S
C341 O352 1.185 . S
C341 O353 1.355 . S
C342 O344 1.185 . S
C342 O345 1.355 . S
Dy343 O347 2.310 . S
Dy343 O350 2.351 . S
Dy343 O352 2.398 . S
Dy343 O353 2.491 . S
Dy343 O354 2.403 . S
Dy343 O355 2.664 . S
Dy343 O357 2.326 . S
O344 Dy340 2.398 . S
O344 C342 1.185 . S
O345 Dy340 2.491 . S
O345 C342 1.355 . S
O346 Dy340 2.403 . S
O346 C348 1.254 . S
O347 Dy340 2.664 . S
O347 Dy343 2.310 . S
O347 C348 1.268 . S
C348 O346 1.254 . S
C348 O347 1.268 . S
C349 O354 1.254 . S
C349 O355 1.268 . S
O350 Dy343 2.351 . S
O350 C358 1.249 . S
O351 Dy340 2.326 . S
O351 C358 1.267 . S
O352 C341 1.185 . S
O352 Dy343 2.398 . S
O353 C341 1.355 . S
O353 Dy343 2.491 . S
O354 Dy343 2.403 . S
O354 C349 1.254 . S
O355 Dy340 2.310 . S
O355 Dy343 2.664 . S
O355 C349 1.268 . S
O356 Dy340 2.351 . S
O356 C359 1.249 . S
O357 Dy343 2.326 . S
O357 C359 1.267 . S
C358 O350 1.249 . S
C358 O351 1.267 . S
C359 O356 1.249 . S
C359 O357 1.267 . S
Dy360 O364 2.398 . S
Dy360 O365 2.491 . S
Dy360 O366 2.403 . S
Dy360 O367 2.664 . S
Dy360 O371 2.326 . S
Dy360 O375 2.310 . S
Dy360 O376 2.351 . S
C361 O372 1.185 . S
C361 O373 1.355 . S
C362 O364 1.185 . S
C362 O365 1.355 . S
Dy363 O367 2.310 . S
Dy363 O370 2.351 . S
Dy363 O372 2.398 . S
Dy363 O373 2.491 . S
Dy363 O374 2.403 . S
Dy363 O375 2.664 . S
Dy363 O377 2.326 . S
O364 Dy360 2.398 . S
O364 C362 1.185 . S
O365 Dy360 2.491 . S
O365 C362 1.355 . S
O366 Dy360 2.403 . S
O366 C368 1.254 . S
O367 Dy360 2.664 . S
O367 Dy363 2.310 . S
O367 C368 1.268 . S
C368 O366 1.254 . S
C368 O367 1.268 . S
C369 O374 1.254 . S
C369 O375 1.268 . S
O370 Dy363 2.351 . S
O370 C378 1.249 . S
O371 Dy360 2.326 . S
O371 C378 1.267 . S
O372 C361 1.185 . S
O372 Dy363 2.398 . S
O373 C361 1.355 . S
O373 Dy363 2.491 . S
O374 Dy363 2.403 . S
O374 C369 1.254 . S
O375 Dy360 2.310 . S
O375 Dy363 2.664 . S
O375 C369 1.268 . S
O376 Dy360 2.351 . S
O376 C379 1.249 . S
O377 Dy363 2.326 . S
O377 C379 1.267 . S
C378 O370 1.249 . S
C378 O371 1.267 . S
C379 O376 1.249 . S
C379 O377 1.267 . S
Dy380 O384 2.398 . S
Dy380 O385 2.491 1_545 S
Dy380 O386 2.403 . S
Dy380 O387 2.664 . S
Dy380 O391 2.326 . S
Dy380 O395 2.310 1_545 S
Dy380 O396 2.351 . S
C381 O392 1.185 . S
C381 O393 1.355 1_565 S
C382 O384 1.185 . S
C382 O385 1.355 1_545 S
Dy383 O387 2.310 1_565 S
Dy383 O390 2.351 . S
Dy383 O392 2.398 . S
Dy383 O393 2.491 1_565 S
Dy383 O394 2.403 . S
Dy383 O395 2.664 . S
Dy383 O397 2.326 . S
O384 Dy380 2.398 . S
O384 C382 1.185 . S
O385 Dy380 2.491 1_565 S
O385 C382 1.355 1_565 S
O386 Dy380 2.403 . S
O386 C388 1.254 . S
O387 Dy380 2.664 . S
O387 Dy383 2.310 1_545 S
O387 C388 1.268 . S
C388 O386 1.254 . S
C388 O387 1.268 . S
C389 O394 1.254 . S
C389 O395 1.268 . S
O390 Dy383 2.351 . S
O390 C398 1.249 1_565 S
O391 Dy380 2.326 . S
O391 C398 1.267 . S
O392 C381 1.185 . S
O392 Dy383 2.398 . S
O393 C381 1.355 1_545 S
O393 Dy383 2.491 1_545 S
O394 Dy383 2.403 . S
O394 C389 1.254 . S
O395 Dy380 2.310 1_565 S
O395 Dy383 2.664 . S
O395 C389 1.268 . S
O396 Dy380 2.351 . S
O396 C399 1.249 . S
O397 Dy383 2.326 . S
O397 C399 1.267 1_565 S
C398 O390 1.249 1_545 S
C398 O391 1.267 . S
C399 O396 1.249 . S
C399 O397 1.267 1_545 S
Dy400 O404 2.398 . S
Dy400 O405 2.491 1_545 S
Dy400 O406 2.403 . S
Dy400 O407 2.664 . S
Dy400 O411 2.326 . S
Dy400 O415 2.310 1_545 S
Dy400 O416 2.351 . S
C401 O412 1.185 . S
C401 O413 1.355 1_565 S
C402 O404 1.185 . S
C402 O405 1.355 1_545 S
Dy403 O407 2.310 1_565 S
Dy403 O410 2.351 . S
Dy403 O412 2.398 . S
Dy403 O413 2.491 1_565 S
Dy403 O414 2.403 . S
Dy403 O415 2.664 . S
Dy403 O417 2.326 . S
O404 Dy400 2.398 . S
O404 C402 1.185 . S
O405 Dy400 2.491 1_565 S
O405 C402 1.355 1_565 S
O406 Dy400 2.403 . S
O406 C408 1.254 . S
O407 Dy400 2.664 . S
O407 Dy403 2.310 1_545 S
O407 C408 1.268 . S
C408 O406 1.254 . S
C408 O407 1.268 . S
C409 O414 1.254 . S
C409 O415 1.268 . S
O410 Dy403 2.351 . S
O410 C418 1.249 . S
O411 Dy400 2.326 . S
O411 C418 1.267 1_545 S
O412 C401 1.185 . S
O412 Dy403 2.398 . S
O413 C401 1.355 1_545 S
O413 Dy403 2.491 1_545 S
O414 Dy403 2.403 . S
O414 C409 1.254 . S
O415 Dy400 2.310 1_565 S
O415 Dy403 2.664 . S
O415 C409 1.268 . S
O416 Dy400 2.351 . S
O416 C419 1.249 1_545 S
O417 Dy403 2.326 . S
O417 C419 1.267 . S
C418 O410 1.249 . S
C418 O411 1.267 1_565 S
C419 O416 1.249 1_565 S
C419 O417 1.267 . S
Dy420 O424 2.398 . S
Dy420 O425 2.491 . S
Dy420 O426 2.403 . S
Dy420 O427 2.664 . S
Dy420 O431 2.326 . S
Dy420 O435 2.310 . S
Dy420 O436 2.351 . S
C421 O432 1.185 . S
C421 O433 1.355 . S
C422 O424 1.185 . S
C422 O425 1.355 . S
Dy423 O427 2.310 . S
Dy423 O430 2.351 . S
Dy423 O432 2.398 . S
Dy423 O433 2.491 . S
Dy423 O434 2.403 . S
Dy423 O435 2.664 . S
Dy423 O437 2.326 . S
O424 Dy420 2.398 . S
O424 C422 1.185 . S
O425 Dy420 2.491 . S
O425 C422 1.355 . S
O426 Dy420 2.403 . S
O426 C428 1.254 . S
O427 Dy420 2.664 . S
O427 Dy423 2.310 . S
O427 C428 1.268 . S
C428 O426 1.254 . S
C428 O427 1.268 . S
C429 O434 1.254 . S
C429 O435 1.268 . S
O430 Dy423 2.351 . S
O430 C438 1.249 . S
O431 Dy420 2.326 . S
O431 C438 1.267 . S
O432 C421 1.185 . S
O432 Dy423 2.398 . S
O433 C421 1.355 . S
O433 Dy423 2.491 . S
O434 Dy423 2.403 . S
O434 C429 1.254 . S
O435 Dy420 2.310 . S
O435 Dy423 2.664 . S
O435 C429 1.268 . S
O436 Dy420 2.351 . S
O436 C439 1.249 . S
O437 Dy423 2.326 . S
O437 C439 1.267 . S
C438 O430 1.249 . S
C438 O431 1.267 . S
C439 O436 1.249 . S
C439 O437 1.267 . S
Dy440 O444 2.398 . S
Dy440 O445 2.491 . S
Dy440 O446 2.403 . S
Dy440 O447 2.664 . S
Dy440 O451 2.326 . S
Dy440 O455 2.310 . S
Dy440 O456 2.351 . S
C441 O452 1.185 . S
C441 O453 1.355 . S
C442 O444 1.185 . S
C442 O445 1.355 . S
Dy443 O447 2.310 . S
Dy443 O450 2.351 . S
Dy443 O452 2.398 . S
Dy443 O453 2.491 . S
Dy443 O454 2.403 . S
Dy443 O455 2.664 . S
Dy443 O457 2.326 . S
O444 Dy440 2.398 . S
O444 C442 1.185 . S
O445 Dy440 2.491 . S
O445 C442 1.355 . S
O446 Dy440 2.403 . S
O446 C448 1.254 . S
O447 Dy440 2.664 . S
O447 Dy443 2.310 . S
O447 C448 1.268 . S
C448 O446 1.254 . S
C448 O447 1.268 . S
C449 O454 1.254 . S
C449 O455 1.268 . S
O450 Dy443 2.351 . S
O450 C458 1.249 . S
O451 Dy440 2.326 . S
O451 C458 1.267 . S
O452 C441 1.185 . S
O452 Dy443 2.398 . S
O453 C441 1.355 . S
O453 Dy443 2.491 . S
O454 Dy443 2.403 . S
O454 C449 1.254 . S
O455 Dy440 2.310 . S
O455 Dy443 2.664 . S
O455 C449 1.268 . S
O456 Dy440 2.351 . S
O456 C459 1.249 . S
O457 Dy443 2.326 . S
O457 C459 1.267 . S
C458 O450 1.249 . S
C458 O451 1.267 . S
C459 O456 1.249 . S
C459 O457 1.267 . S
Dy460 O464 2.398 . S
Dy460 O465 2.491 1_545 S
Dy460 O466 2.403 . S
Dy460 O467 2.664 . S
Dy460 O471 2.326 . S
Dy460 O475 2.310 1_545 S
Dy460 O476 2.351 . S
C461 O472 1.185 . S
C461 O473 1.355 1_565 S
C462 O464 1.185 . S
C462 O465 1.355 1_545 S
Dy463 O467 2.310 1_565 S
Dy463 O470 2.351 . S
Dy463 O472 2.398 . S
Dy463 O473 2.491 1_565 S
Dy463 O474 2.403 . S
Dy463 O475 2.664 . S
Dy463 O477 2.326 . S
O464 Dy460 2.398 . S
O464 C462 1.185 . S
O465 Dy460 2.491 1_565 S
O465 C462 1.355 1_565 S
O466 Dy460 2.403 . S
O466 C468 1.254 . S
O467 Dy460 2.664 . S
O467 Dy463 2.310 1_545 S
O467 C468 1.268 . S
C468 O466 1.254 . S
C468 O467 1.268 . S
C469 O474 1.254 . S
C469 O475 1.268 . S
O470 Dy463 2.351 . S
O470 C478 1.249 . S
O471 Dy460 2.326 . S
O471 C478 1.267 1_545 S
O472 C461 1.185 . S
O472 Dy463 2.398 . S
O473 C461 1.355 1_545 S
O473 Dy463 2.491 1_545 S
O474 Dy463 2.403 . S
O474 C469 1.254 . S
O475 Dy460 2.310 1_565 S
O475 Dy463 2.664 . S
O475 C469 1.268 . S
O476 Dy460 2.351 . S
O476 C479 1.249 1_545 S
O477 Dy463 2.326 . S
O477 C479 1.267 . S
C478 O470 1.249 . S
C478 O471 1.267 1_565 S
C479 O476 1.249 1_565 S
C479 O477 1.267 . S
Dy480 O484 2.398 1_554 S
Dy480 O485 2.491 1_554 S
Dy480 O486 2.403 . S
Dy480 O487 2.664 . S
Dy480 O491 2.326 . S
Dy480 O495 2.310 . S
Dy480 O496 2.351 . S
C481 O492 1.185 . S
C481 O493 1.355 . S
C482 O484 1.185 . S
C482 O485 1.355 . S
Dy483 O487 2.310 . S
Dy483 O490 2.351 . S
Dy483 O492 2.398 . S
Dy483 O493 2.491 . S
Dy483 O494 2.403 . S
Dy483 O495 2.664 . S
Dy483 O497 2.326 . S
O484 Dy480 2.398 1_556 S
O484 C482 1.185 . S
O485 Dy480 2.491 1_556 S
O485 C482 1.355 . S
O486 Dy480 2.403 . S
O486 C488 1.254 . S
O487 Dy480 2.664 . S
O487 Dy483 2.310 . S
O487 C488 1.268 . S
C488 O486 1.254 . S
C488 O487 1.268 . S
C489 O494 1.254 . S
C489 O495 1.268 . S
O490 Dy483 2.351 . S
O490 C498 1.249 . S
O491 Dy480 2.326 . S
O491 C498 1.267 . S
O492 C481 1.185 . S
O492 Dy483 2.398 . S
O493 C481 1.355 . S
O493 Dy483 2.491 . S
O494 Dy483 2.403 . S
O494 C489 1.254 . S
O495 Dy480 2.310 . S
O495 Dy483 2.664 . S
O495 C489 1.268 . S
O496 Dy480 2.351 . S
O496 C499 1.249 . S
O497 Dy483 2.326 . S
O497 C499 1.267 . S
C498 O490 1.249 . S
C498 O491 1.267 . S
C499 O496 1.249 . S
C499 O497 1.267 . S
Dy500 O504 2.398 1_554 S
Dy500 O505 2.491 1_554 S
Dy500 O506 2.403 . S
Dy500 O507 2.664 . S
Dy500 O511 2.326 . S
Dy500 O515 2.310 . S
Dy500 O516 2.351 . S
C501 O512 1.185 . S
C501 O513 1.355 . S
C502 O504 1.185 . S
C502 O505 1.355 . S
Dy503 O507 2.310 . S
Dy503 O510 2.351 . S
Dy503 O512 2.398 . S
Dy503 O513 2.491 . S
Dy503 O514 2.403 . S
Dy503 O515 2.664 . S
Dy503 O517 2.326 . S
O504 Dy500 2.398 1_556 S
O504 C502 1.185 . S
O505 Dy500 2.491 1_556 S
O505 C502 1.355 . S
O506 Dy500 2.403 . S
O506 C508 1.254 . S
O507 Dy500 2.664 . S
O507 Dy503 2.310 . S
O507 C508 1.268 . S
C508 O506 1.254 . S
C508 O507 1.268 . S
C509 O514 1.254 . S
C509 O515 1.268 . S
O510 Dy503 2.351 . S
O510 C518 1.249 . S
O511 Dy500 2.326 . S
O511 C518 1.267 . S
O512 C501 1.185 . S
O512 Dy503 2.398 . S
O513 C501 1.355 . S
O513 Dy503 2.491 . S
O514 Dy503 2.403 . S
O514 C509 1.254 . S
O515 Dy500 2.310 . S
O515 Dy503 2.664 . S
O515 C509 1.268 . S
O516 Dy500 2.351 . S
O516 C519 1.249 . S
O517 Dy503 2.326 . S
O517 C519 1.267 . S
C518 O510 1.249 . S
C518 O511 1.267 . S
C519 O516 1.249 . S
C519 O517 1.267 . S
Dy520 O524 2.398 . S
Dy520 O525 2.491 . S
Dy520 O526 2.403 . S
Dy520 O527 2.664 . S
Dy520 O531 2.326 . S
Dy520 O535 2.310 . S
Dy520 O536 2.351 . S
C521 O532 1.185 . S
C521 O533 1.355 . S
C522 O524 1.185 . S
C522 O525 1.355 . S
Dy523 O527 2.310 . S
Dy523 O530 2.351 . S
Dy523 O532 2.398 . S
Dy523 O533 2.491 . S
Dy523 O534 2.403 . S
Dy523 O535 2.664 . S
Dy523 O537 2.326 . S
O524 Dy520 2.398 . S
O524 C522 1.185 . S
O525 Dy520 2.491 . S
O525 C522 1.355 . S
O526 Dy520 2.403 . S
O526 C528 1.254 . S
O527 Dy520 2.664 . S
O527 Dy523 2.310 . S
O527 C528 1.268 . S
C528 O526 1.254 . S
C528 O527 1.268 . S
C529 O534 1.254 . S
C529 O535 1.268 . S
O530 Dy523 2.351 . S
O530 C538 1.249 . S
O531 Dy520 2.326 . S
O531 C538 1.267 . S
O532 C521 1.185 . S
O532 Dy523 2.398 . S
O533 C521 1.355 . S
O533 Dy523 2.491 . S
O534 Dy523 2.403 . S
O534 C529 1.254 . S
O535 Dy520 2.310 . S
O535 Dy523 2.664 . S
O535 C529 1.268 . S
O536 Dy520 2.351 . S
O536 C539 1.249 . S
O537 Dy523 2.326 . S
O537 C539 1.267 . S
C538 O530 1.249 . S
C538 O531 1.267 . S
C539 O536 1.249 . S
C539 O537 1.267 . S
Dy540 O544 2.398 . S
Dy540 O545 2.491 . S
Dy540 O546 2.403 . S
Dy540 O547 2.664 . S
Dy540 O551 2.326 . S
Dy540 O555 2.310 . S
Dy540 O556 2.351 . S
C541 O552 1.185 . S
C541 O553 1.355 . S
C542 O544 1.185 . S
C542 O545 1.355 . S
Dy543 O547 2.310 . S
Dy543 O550 2.351 . S
Dy543 O552 2.398 . S
Dy543 O553 2.491 . S
Dy543 O554 2.403 . S
Dy543 O555 2.664 . S
Dy543 O557 2.326 . S
O544 Dy540 2.398 . S
O544 C542 1.185 . S
O545 Dy540 2.491 . S
O545 C542 1.355 . S
O546 Dy540 2.403 . S
O546 C548 1.254 . S
O547 Dy540 2.664 . S
O547 Dy543 2.310 . S
O547 C548 1.268 . S
C548 O546 1.254 . S
C548 O547 1.268 . S
C549 O554 1.254 . S
C549 O555 1.268 . S
O550 Dy543 2.351 . S
O550 C558 1.249 . S
O551 Dy540 2.326 . S
O551 C558 1.267 . S
O552 C541 1.185 . S
O552 Dy543 2.398 . S
O553 C541 1.355 . S
O553 Dy543 2.491 . S
O554 Dy543 2.403 . S
O554 C549 1.254 . S
O555 Dy540 2.310 . S
O555 Dy543 2.664 . S
O555 C549 1.268 . S
O556 Dy540 2.351 . S
O556 C559 1.249 . S
O557 Dy543 2.326 . S
O557 C559 1.267 . S
C558 O550 1.249 . S
C558 O551 1.267 . S
C559 O556 1.249 . S
C559 O557 1.267 . S
Dy560 O564 2.398 . S
Dy560 O565 2.491 . S
Dy560 O566 2.403 . S
Dy560 O567 2.664 . S
Dy560 O571 2.326 . S
Dy560 O575 2.310 . S
Dy560 O576 2.351 . S
C561 O572 1.185 . S
C561 O573 1.355 . S
C562 O564 1.185 . S
C562 O565 1.355 . S
Dy563 O567 2.310 . S
Dy563 O570 2.351 . S
Dy563 O572 2.398 1_556 S
Dy563 O573 2.491 1_556 S
Dy563 O574 2.403 . S
Dy563 O575 2.664 . S
Dy563 O577 2.326 . S
O564 Dy560 2.398 . S
O564 C562 1.185 . S
O565 Dy560 2.491 . S
O565 C562 1.355 . S
O566 Dy560 2.403 . S
O566 C568 1.254 . S
O567 Dy560 2.664 . S
O567 Dy563 2.310 . S
O567 C568 1.268 . S
C568 O566 1.254 . S
C568 O567 1.268 . S
C569 O574 1.254 . S
C569 O575 1.268 . S
O570 Dy563 2.351 . S
O570 C578 1.249 . S
O571 Dy560 2.326 . S
O571 C578 1.267 . S
O572 C561 1.185 . S
O572 Dy563 2.398 1_554 S
O573 C561 1.355 . S
O573 Dy563 2.491 1_554 S
O574 Dy563 2.403 . S
O574 C569 1.254 . S
O575 Dy560 2.310 . S
O575 Dy563 2.664 . S
O575 C569 1.268 . S
O576 Dy560 2.351 . S
O576 C579 1.249 . S
O577 Dy563 2.326 . S
O577 C579 1.267 . S
C578 O570 1.249 . S
C578 O571 1.267 . S
C579 O576 1.249 . S
C579 O577 1.267 . S
Dy580 O584 2.398 . S
Dy580 O585 2.491 . S
Dy580 O586 2.403 . S
Dy580 O587 2.664 . S
Dy580 O591 2.326 . S
Dy580 O595 2.310 . S
Dy580 O596 2.351 . S
C581 O592 1.185 . S
C581 O593 1.355 . S
C582 O584 1.185 . S
C582 O585 1.355 . S
Dy583 O587 2.310 . S
Dy583 O590 2.351 . S
Dy583 O592 2.398 1_556 S
Dy583 O593 2.491 1_556 S
Dy583 O594 2.403 . S
Dy583 O595 2.664 . S
Dy583 O597 2.326 . S
O584 Dy580 2.398 . S
O584 C582 1.185 . S
O585 Dy580 2.491 . S
O585 C582 1.355 . S
O586 Dy580 2.403 . S
O586 C588 1.254 . S
O587 Dy580 2.664 . S
O587 Dy583 2.310 . S
O587 C588 1.268 . S
C588 O586 1.254 . S
C588 O587 1.268 . S
C589 O594 1.254 . S
C589 O595 1.268 . S
O590 Dy583 2.351 . S
O590 C598 1.249 . S
O591 Dy580 2.326 . S
O591 C598 1.267 . S
O592 C581 1.185 . S
O592 Dy583 2.398 1_554 S
O593 C581 1.355 . S
O593 Dy583 2.491 1_554 S
O594 Dy583 2.403 . S
O594 C589 1.254 . S
O595 Dy580 2.310 . S
O595 Dy583 2.664 . S
O595 C589 1.268 . S
O596 Dy580 2.351 . S
O596 C599 1.249 . S
O597 Dy583 2.326 . S
O597 C599 1.267 . S
C598 O590 1.249 . S
C598 O591 1.267 . S
C599 O596 1.249 . S
C599 O597 1.267 . S
Dy600 O604 2.398 . S
Dy600 O605 2.491 . S
Dy600 O606 2.403 . S
Dy600 O607 2.664 . S
Dy600 O611 2.326 . S
Dy600 O615 2.310 . S
Dy600 O616 2.351 . S
C601 O612 1.185 . S
C601 O613 1.355 . S
C602 O604 1.185 . S
C602 O605 1.355 . S
Dy603 O607 2.310 . S
Dy603 O610 2.351 . S
Dy603 O612 2.398 . S
Dy603 O613 2.491 . S
Dy603 O614 2.403 . S
Dy603 O615 2.664 . S
Dy603 O617 2.326 . S
O604 Dy600 2.398 . S
O604 C602 1.185 . S
O605 Dy600 2.491 . S
O605 C602 1.355 . S
O606 Dy600 2.403 . S
O606 C608 1.254 . S
O607 Dy600 2.664 . S
O607 Dy603 2.310 . S
O607 C608 1.268 . S
C608 O606 1.254 . S
C608 O607 1.268 . S
C609 O614 1.254 . S
C609 O615 1.268 . S
O610 Dy603 2.351 . S
O610 C618 1.249 . S
O611 Dy600 2.326 . S
O611 C618 1.267 . S
O612 C601 1.185 . S
O612 Dy603 2.398 . S
O613 C601 1.355 . S
O613 Dy603 2.491 . S
O614 Dy603 2.403 . S
O614 C609 1.254 . S
O615 Dy600 2.310 . S
O615 Dy603 2.664 . S
O615 C609 1.268 . S
O616 Dy600 2.351 . S
O616 C619 1.249 . S
O617 Dy603 2.326 . S
O617 C619 1.267 . S
C618 O610 1.249 . S
C618 O611 1.267 . S
C619 O616 1.249 . S
C619 O617 1.267 . S
Dy620 O624 2.398 . S
Dy620 O625 2.491 . S
Dy620 O626 2.403 . S
Dy620 O627 2.664 . S
Dy620 O631 2.326 . S
Dy620 O635 2.310 . S
Dy620 O636 2.351 . S
C621 O632 1.185 . S
C621 O633 1.355 . S
C622 O624 1.185 . S
C622 O625 1.355 . S
Dy623 O627 2.310 . S
Dy623 O630 2.351 . S
Dy623 O632 2.398 . S
Dy623 O633 2.491 . S
Dy623 O634 2.403 . S
Dy623 O635 2.664 . S
Dy623 O637 2.326 . S
O624 Dy620 2.398 . S
O624 C622 1.185 . S
O625 Dy620 2.491 . S
O625 C622 1.355 . S
O626 Dy620 2.403 . S
O626 C628 1.254 . S
O627 Dy620 2.664 . S
O627 Dy623 2.310 . S
O627 C628 1.268 . S
C628 O626 1.254 . S
C628 O627 1.268 . S
C629 O634 1.254 . S
C629 O635 1.268 . S
O630 Dy623 2.351 . S
O630 C638 1.249 . S
O631 Dy620 2.326 . S
O631 C638 1.267 . S
O632 C621 1.185 . S
O632 Dy623 2.398 . S
O633 C621 1.355 . S
O633 Dy623 2.491 . S
O634 Dy623 2.403 . S
O634 C629 1.254 . S
O635 Dy620 2.310 . S
O635 Dy623 2.664 . S
O635 C629 1.268 . S
O636 Dy620 2.351 . S
O636 C639 1.249 . S
O637 Dy623 2.326 . S
O637 C639 1.267 . S
C638 O630 1.249 . S
C638 O631 1.267 . S
C639 O636 1.249 . S
C639 O637 1.267 . S
C640 C641 1.387 . S
C640 H644 0.950 . S
C640 C649 1.390 . S
C641 C640 1.387 . S
C641 C643 1.387 . S
H642 C649 0.950 . S
C643 C641 1.387 . S
C643 C645 1.390 . S
C643 H647 0.950 . S
H644 C640 0.950 . S
C645 C643 1.390 . S
C645 C646 1.387 . S
C645 H648 0.950 . S
C646 C645 1.387 . S
C646 C649 1.387 . S
H647 C643 0.950 . S
H648 C645 0.950 . S
C649 C640 1.390 . S
C649 H642 0.950 . S
C649 C646 1.387 . S
C650 C651 1.387 . S
C650 H654 0.950 . S
C650 C659 1.390 . S
C651 C650 1.387 . S
C651 C653 1.387 . S
H652 C659 0.950 . S
C653 C651 1.387 . S
C653 C655 1.390 . S
C653 H657 0.950 . S
H654 C650 0.950 . S
C655 C653 1.390 . S
C655 C656 1.387 . S
C655 H658 0.950 . S
C656 C655 1.387 . S
C656 C659 1.387 . S
H657 C653 0.950 . S
H658 C655 0.950 . S
C659 C650 1.390 . S
C659 H652 0.950 . S
C659 C656 1.387 . S
C660 C661 1.387 . S
C660 H664 0.950 . S
C660 C669 1.390 . S
C661 C660 1.387 . S
C661 C663 1.387 . S
H662 C669 0.950 . S
C663 C661 1.387 . S
C663 C665 1.390 . S
C663 H667 0.950 . S
H664 C660 0.950 . S
C665 C663 1.390 . S
C665 C666 1.387 . S
C665 H668 0.950 . S
C666 C665 1.387 . S
C666 C669 1.387 . S
H667 C663 0.950 . S
H668 C665 0.950 . S
C669 C660 1.390 . S
C669 H662 0.950 . S
C669 C666 1.387 . S
C670 C671 1.387 . S
C670 H674 0.950 . S
C670 C679 1.390 . S
C671 C670 1.387 . S
C671 C673 1.387 . S
H672 C679 0.950 . S
C673 C671 1.387 . S
C673 C675 1.390 . S
C673 H677 0.950 . S
H674 C670 0.950 . S
C675 C673 1.390 . S
C675 C676 1.387 . S
C675 H678 0.950 . S
C676 C675 1.387 . S
C676 C679 1.387 . S
H677 C673 0.950 . S
H678 C675 0.950 . S
C679 C670 1.390 . S
C679 H672 0.950 . S
C679 C676 1.387 . S
C680 C681 1.387 . S
C680 H684 0.950 . S
C680 C689 1.390 . S
C681 C680 1.387 . S
C681 C683 1.387 . S
H682 C689 0.950 . S
C683 C681 1.387 . S
C683 C685 1.390 . S
C683 H687 0.950 . S
H684 C680 0.950 . S
C685 C683 1.390 . S
C685 C686 1.387 . S
C685 H688 0.950 . S
C686 C685 1.387 . S
C686 C689 1.387 . S
H687 C683 0.950 . S
H688 C685 0.950 . S
C689 C680 1.390 . S
C689 H682 0.950 . S
C689 C686 1.387 . S
C690 C691 1.387 . S
C690 H694 0.950 . S
C690 C699 1.390 . S
C691 C690 1.387 . S
C691 C693 1.387 . S
H692 C699 0.950 . S
C693 C691 1.387 . S
C693 C695 1.390 . S
C693 H697 0.950 . S
H694 C690 0.950 . S
C695 C693 1.390 . S
C695 C696 1.387 . S
C695 H698 0.950 . S
C696 C695 1.387 . S
C696 C699 1.387 . S
H697 C693 0.950 . S
H698 C695 0.950 . S
C699 C690 1.390 . S
C699 H692 0.950 . S
C699 C696 1.387 . S
C700 C701 1.387 . S
C700 H704 0.950 . S
C700 C709 1.390 . S
C701 C700 1.387 . S
C701 C703 1.387 . S
H702 C709 0.950 . S
C703 C701 1.387 . S
C703 C705 1.390 . S
C703 H707 0.950 . S
H704 C700 0.950 . S
C705 C703 1.390 . S
C705 C706 1.387 . S
C705 H708 0.950 . S
C706 C705 1.387 . S
C706 C709 1.387 . S
H707 C703 0.950 . S
H708 C705 0.950 . S
C709 C700 1.390 . S
C709 H702 0.950 . S
C709 C706 1.387 . S
C710 C711 1.387 . S
C710 H714 0.950 . S
C710 C719 1.390 . S
C711 C710 1.387 . S
C711 C713 1.387 . S
H712 C719 0.950 . S
C713 C711 1.387 . S
C713 C715 1.390 . S
C713 H717 0.950 . S
H714 C710 0.950 . S
C715 C713 1.390 . S
C715 C716 1.387 . S
C715 H718 0.950 . S
C716 C715 1.387 . S
C716 C719 1.387 . S
H717 C713 0.950 . S
H718 C715 0.950 . S
C719 C710 1.390 . S
C719 H712 0.950 . S
C719 C716 1.387 . S
C720 C721 1.387 . S
C720 H724 0.950 . S
C720 C729 1.390 . S
C721 C720 1.387 . S
C721 C723 1.387 . S
H722 C729 0.950 . S
C723 C721 1.387 . S
C723 C725 1.390 . S
C723 H727 0.950 . S
H724 C720 0.950 . S
C725 C723 1.390 . S
C725 C726 1.387 . S
C725 H728 0.950 . S
C726 C725 1.387 . S
C726 C729 1.387 . S
H727 C723 0.950 . S
H728 C725 0.950 . S
C729 C720 1.390 . S
C729 H722 0.950 . S
C729 C726 1.387 . S
C730 C731 1.387 . S
C730 H734 0.950 . S
C730 C739 1.390 . S
C731 C730 1.387 . S
C731 C733 1.387 . S
H732 C739 0.950 . S
C733 C731 1.387 . S
C733 C735 1.390 . S
C733 H737 0.950 . S
H734 C730 0.950 . S
C735 C733 1.390 . S
C735 C736 1.387 . S
C735 H738 0.950 . S
C736 C735 1.387 . S
C736 C739 1.387 . S
H737 C733 0.950 . S
H738 C735 0.950 . S
C739 C730 1.390 . S
C739 H732 0.950 . S
C739 C736 1.387 . S
C740 C741 1.387 . S
C740 H744 0.950 . S
C740 C749 1.390 . S
C741 C740 1.387 . S
C741 C743 1.387 . S
H742 C749 0.950 . S
C743 C741 1.387 . S
C743 C745 1.390 . S
C743 H747 0.950 . S
H744 C740 0.950 . S
C745 C743 1.390 . S
C745 C746 1.387 . S
C745 H748 0.950 . S
C746 C745 1.387 . S
C746 C749 1.387 . S
H747 C743 0.950 . S
H748 C745 0.950 . S
C749 C740 1.390 . S
C749 H742 0.950 . S
C749 C746 1.387 . S
C750 C751 1.387 . S
C750 H754 0.950 . S
C750 C759 1.390 . S
C751 C750 1.387 . S
C751 C753 1.387 . S
H752 C759 0.950 . S
C753 C751 1.387 . S
C753 C755 1.390 . S
C753 H757 0.950 . S
H754 C750 0.950 . S
C755 C753 1.390 . S
C755 C756 1.387 . S
C755 H758 0.950 . S
C756 C755 1.387 . S
C756 C759 1.387 . S
H757 C753 0.950 . S
H758 C755 0.950 . S
C759 C750 1.390 . S
C759 H752 0.950 . S
C759 C756 1.387 . S
C760 C761 1.387 . S
C760 H764 0.950 . S
C760 C769 1.390 . S
C761 C760 1.387 . S
C761 C763 1.387 . S
H762 C769 0.950 . S
C763 C761 1.387 . S
C763 C765 1.390 . S
C763 H767 0.950 . S
H764 C760 0.950 . S
C765 C763 1.390 . S
C765 C766 1.387 . S
C765 H768 0.950 . S
C766 C765 1.387 . S
C766 C769 1.387 . S
H767 C763 0.950 . S
H768 C765 0.950 . S
C769 C760 1.390 . S
C769 H762 0.950 . S
C769 C766 1.387 . S
C770 C771 1.387 . S
C770 H774 0.950 . S
C770 C779 1.390 . S
C771 C770 1.387 . S
C771 C773 1.387 . S
H772 C779 0.950 . S
C773 C771 1.387 . S
C773 C775 1.390 . S
C773 H777 0.950 . S
H774 C770 0.950 . S
C775 C773 1.390 . S
C775 C776 1.387 . S
C775 H778 0.950 . S
C776 C775 1.387 . S
C776 C779 1.387 . S
H777 C773 0.950 . S
H778 C775 0.950 . S
C779 C770 1.390 . S
C779 H772 0.950 . S
C779 C776 1.387 . S
C780 C781 1.387 . S
C780 H784 0.950 . S
C780 C789 1.390 . S
C781 C780 1.387 . S
C781 C783 1.387 . S
H782 C789 0.950 . S
C783 C781 1.387 . S
C783 C785 1.390 . S
C783 H787 0.950 . S
H784 C780 0.950 . S
C785 C783 1.390 . S
C785 C786 1.387 . S
C785 H788 0.950 . S
C786 C785 1.387 . S
C786 C789 1.387 . S
H787 C783 0.950 . S
H788 C785 0.950 . S
C789 C780 1.390 . S
C789 H782 0.950 . S
C789 C786 1.387 . S
C790 C791 1.387 . S
C790 H794 0.950 . S
C790 C799 1.390 . S
C791 C790 1.387 . S
C791 C793 1.387 . S
H792 C799 0.950 . S
C793 C791 1.387 . S
C793 C795 1.390 . S
C793 H797 0.950 . S
H794 C790 0.950 . S
C795 C793 1.390 . S
C795 C796 1.387 . S
C795 H798 0.950 . S
C796 C795 1.387 . S
C796 C799 1.387 . S
H797 C793 0.950 . S
H798 C795 0.950 . S
C799 C790 1.390 . S
C799 H792 0.950 . S
C799 C796 1.387 . S
C800 C801 1.387 1_545 S
C800 H804 0.950 . S
C800 C809 1.390 . S
C801 C800 1.387 1_565 S
C801 C803 1.387 . S
H802 C809 0.950 . S
C803 C801 1.387 . S
C803 C805 1.390 . S
C803 H807 0.950 . S
H804 C800 0.950 . S
C805 C803 1.390 . S
C805 C806 1.387 1_565 S
C805 H808 0.950 . S
C806 C805 1.387 1_545 S
C806 C809 1.387 . S
H807 C803 0.950 . S
H808 C805 0.950 . S
C809 C800 1.390 . S
C809 H802 0.950 . S
C809 C806 1.387 . S
C810 C811 1.397 . S
C810 H814 0.950 . S
C810 C819 1.381 1_455 S
C811 C810 1.397 . S
C811 C813 1.387 . S
H812 C819 0.950 . S
C813 C811 1.387 . S
C813 C815 1.381 1_455 S
C813 H817 0.950 . S
H814 C810 0.950 . S
C815 C813 1.381 1_655 S
C815 C816 1.396 . S
C815 H818 0.950 . S
C816 C815 1.396 . S
C816 C819 1.387 . S
H817 C813 0.950 . S
H818 C815 0.950 . S
C819 C810 1.381 1_655 S
C819 H812 0.950 . S
C819 C816 1.387 . S
C820 C821 1.387 . S
C820 H824 0.950 . S
C820 C829 1.390 1_556 S
C821 C820 1.387 . S
C821 C823 1.387 . S
H822 C829 0.950 . S
C823 C821 1.387 . S
C823 C825 1.390 1_556 S
C823 H827 0.950 . S
H824 C820 0.950 . S
C825 C823 1.390 1_554 S
C825 C826 1.387 . S
C825 H828 0.950 . S
C826 C825 1.387 . S
C826 C829 1.387 . S
H827 C823 0.950 . S
H828 C825 0.950 . S
C829 C820 1.390 1_554 S
C829 H822 0.950 . S
C829 C826 1.387 . S
C830 C831 1.387 1_545 S
C830 H834 0.950 . S
C830 C839 1.390 1_654 S
C831 C830 1.387 1_565 S
C831 C833 1.387 . S
H832 C839 0.950 . S
C833 C831 1.387 . S
C833 C835 1.390 1_654 S
C833 H837 0.950 . S
H834 C830 0.950 . S
C835 C833 1.390 1_456 S
C835 C836 1.387 1_565 S
C835 H838 0.950 . S
C836 C835 1.387 1_545 S
C836 C839 1.387 . S
H837 C833 0.950 . S
H838 C835 0.950 . S
C839 C830 1.390 1_456 S
C839 H832 0.950 . S
C839 C836 1.387 . S
C840 C841 1.387 . S
C840 H844 0.950 . S
C840 C849 1.390 . S
C841 C840 1.387 . S
C841 C843 1.387 1_545 S
H842 C849 0.950 . S
C843 C841 1.387 1_565 S
C843 C845 1.390 . S
C843 H847 0.950 . S
H844 C840 0.950 . S
C845 C843 1.390 . S
C845 C846 1.387 . S
C845 H848 0.950 . S
C846 C845 1.387 . S
C846 C849 1.387 1_565 S
H847 C843 0.950 . S
H848 C845 0.950 . S
C849 C840 1.390 . S
C849 H842 0.950 . S
C849 C846 1.387 1_545 S
C850 C851 1.387 . S
C850 H854 0.950 . S
C850 C859 1.403 . S
C851 C850 1.387 . S
C851 C853 1.374 1_455 S
H852 C859 0.950 . S
C853 C851 1.374 1_655 S
C853 C855 1.404 . S
C853 H857 0.950 . S
H854 C850 0.950 . S
C855 C853 1.404 . S
C855 C856 1.387 . S
C855 H858 0.950 . S
C856 C855 1.387 . S
C856 C859 1.374 1_655 S
H857 C853 0.950 . S
H858 C855 0.950 . S
C859 C850 1.403 . S
C859 H852 0.950 . S
C859 C856 1.374 1_455 S
C860 C861 1.387 . S
C860 H864 0.950 . S
C860 C869 1.390 1_556 S
C861 C860 1.387 . S
C861 C863 1.387 . S
H862 C869 0.950 . S
C863 C861 1.387 . S
C863 C865 1.390 1_556 S
C863 H867 0.950 . S
H864 C860 0.950 . S
C865 C863 1.390 1_554 S
C865 C866 1.387 . S
C865 H868 0.950 . S
C866 C865 1.387 . S
C866 C869 1.387 . S
H867 C863 0.950 . S
H868 C865 0.950 . S
C869 C860 1.390 1_554 S
C869 H862 0.950 . S
C869 C866 1.387 . S
C870 C871 1.387 . S
C870 H874 0.950 . S
C870 C879 1.390 . S
C871 C870 1.387 . S
C871 C873 1.387 . S
H872 C879 0.950 . S
C873 C871 1.387 . S
C873 C875 1.390 . S
C873 H877 0.950 . S
H874 C870 0.950 . S
C875 C873 1.390 . S
C875 C876 1.387 . S
C875 H878 0.950 . S
C876 C875 1.387 . S
C876 C879 1.387 . S
H877 C873 0.950 . S
H878 C875 0.950 . S
C879 C870 1.390 . S
C879 H872 0.950 . S
C879 C876 1.387 . S
C880 C881 1.387 . S
C880 H884 0.950 . S
C880 C889 1.390 . S
C881 C880 1.387 . S
C881 C883 1.387 . S
H882 C889 0.950 . S
C883 C881 1.387 . S
C883 C885 1.390 . S
C883 H887 0.950 . S
H884 C880 0.950 . S
C885 C883 1.390 . S
C885 C886 1.387 . S
C885 H888 0.950 . S
C886 C885 1.387 . S
C886 C889 1.387 . S
H887 C883 0.950 . S
H888 C885 0.950 . S
C889 C880 1.390 . S
C889 H882 0.950 . S
C889 C886 1.387 . S
C890 C891 1.387 . S
C890 H894 0.950 . S
C890 C899 1.390 1_455 S
C891 C890 1.387 . S
C891 C893 1.387 . S
H892 C899 0.950 . S
C893 C891 1.387 . S
C893 C895 1.390 1_455 S
C893 H897 0.950 . S
H894 C890 0.950 . S
C895 C893 1.390 1_655 S
C895 C896 1.387 . S
C895 H898 0.950 . S
C896 C895 1.387 . S
C896 C899 1.387 . S
H897 C893 0.950 . S
H898 C895 0.950 . S
C899 C890 1.390 1_655 S
C899 H892 0.950 . S
C899 C896 1.387 . S
C900 C901 1.387 . S
C900 H904 0.950 . S
C900 C909 1.390 . S
C901 C900 1.387 . S
C901 C903 1.387 . S
H902 C909 0.950 . S
C903 C901 1.387 . S
C903 C905 1.390 . S
C903 H907 0.950 . S
H904 C900 0.950 . S
C905 C903 1.390 . S
C905 C906 1.387 . S
C905 H908 0.950 . S
C906 C905 1.387 . S
C906 C909 1.387 . S
H907 C903 0.950 . S
H908 C905 0.950 . S
C909 C900 1.390 . S
C909 H902 0.950 . S
C909 C906 1.387 . S
C910 C911 1.387 . S
C910 H914 0.950 . S
C910 C919 1.390 . S
C911 C910 1.387 . S
C911 C913 1.387 . S
H912 C919 0.950 . S
C913 C911 1.387 . S
C913 C915 1.390 . S
C913 H917 0.950 . S
H914 C910 0.950 . S
C915 C913 1.390 . S
C915 C916 1.387 . S
C915 H918 0.950 . S
C916 C915 1.387 . S
C916 C919 1.387 . S
H917 C913 0.950 . S
H918 C915 0.950 . S
C919 C910 1.390 . S
C919 H912 0.950 . S
C919 C916 1.387 . S
C920 C921 1.387 . S
C920 H924 0.950 . S
C920 C929 1.390 . S
C921 C920 1.387 . S
C921 C923 1.387 . S
H922 C929 0.950 . S
C923 C921 1.387 . S
C923 C925 1.390 . S
C923 H927 0.950 . S
H924 C920 0.950 . S
C925 C923 1.390 . S
C925 C926 1.387 . S
C925 H928 0.950 . S
C926 C925 1.387 . S
C926 C929 1.387 . S
H927 C923 0.950 . S
H928 C925 0.950 . S
C929 C920 1.390 . S
C929 H922 0.950 . S
C929 C926 1.387 . S
C930 C931 1.387 . S
C930 H934 0.950 . S
C930 C939 1.390 . S
C931 C930 1.387 . S
C931 C933 1.387 1_565 S
H932 C939 0.950 . S
C933 C931 1.387 1_545 S
C933 C935 1.390 . S
C933 H937 0.950 . S
H934 C930 0.950 . S
C935 C933 1.390 . S
C935 C936 1.387 . S
C935 H938 0.950 . S
C936 C935 1.387 . S
C936 C939 1.387 1_545 S
H937 C933 0.950 . S
H938 C935 0.950 . S
C939 C930 1.390 . S
C939 H932 0.950 . S
C939 C936 1.387 1_565 S
C940 C941 1.387 . S
C940 H944 0.950 . S
C940 C949 1.390 . S
C941 C940 1.387 . S
C941 C943 1.387 . S
H942 C949 0.950 . S
C943 C941 1.387 . S
C943 C945 1.390 . S
C943 H947 0.950 . S
H944 C940 0.950 . S
C945 C943 1.390 . S
C945 C946 1.387 . S
C945 H948 0.950 . S
C946 C945 1.387 . S
C946 C949 1.387 . S
H947 C943 0.950 . S
H948 C945 0.950 . S
C949 C940 1.390 . S
C949 H942 0.950 . S
C949 C946 1.387 . S
C950 C951 1.387 . S
C950 H954 0.950 . S
C950 C959 1.390 1_554 S
C951 C950 1.387 . S
C951 C953 1.387 . S
H952 C959 0.950 . S
C953 C951 1.387 . S
C953 C955 1.390 1_554 S
C953 H957 0.950 . S
H954 C950 0.950 . S
C955 C953 1.390 1_556 S
C955 C956 1.387 . S
C955 H958 0.950 . S
C956 C955 1.387 . S
C956 C959 1.387 . S
H957 C953 0.950 . S
H958 C955 0.950 . S
C959 C950 1.390 1_556 S
C959 H952 0.950 . S
C959 C956 1.387 . S
C960 C961 1.387 . S
C960 H964 0.950 . S
C960 C969 1.390 . S
C961 C960 1.387 . S
C961 C963 1.387 1_545 S
H962 C969 0.950 . S
C963 C961 1.387 1_565 S
C963 C965 1.390 . S
C963 H967 0.950 . S
H964 C960 0.950 . S
C965 C963 1.390 . S
C965 C966 1.387 1_565 S
C965 H968 0.950 . S
C966 C965 1.387 1_545 S
C966 C969 1.387 . S
H967 C963 0.950 . S
H968 C965 0.950 . S
C969 C960 1.390 . S
C969 H962 0.950 . S
C969 C966 1.387 . S
C970 C971 1.387 . S
C970 H974 0.950 . S
C970 C979 1.390 . S
C971 C970 1.387 . S
C971 C973 1.387 . S
H972 C979 0.950 . S
C973 C971 1.387 . S
C973 C975 1.390 . S
C973 H977 0.950 . S
H974 C970 0.950 . S
C975 C973 1.390 . S
C975 C976 1.387 . S
C975 H978 0.950 . S
C976 C975 1.387 . S
C976 C979 1.387 . S
H977 C973 0.950 . S
H978 C975 0.950 . S
C979 C970 1.390 . S
C979 H972 0.950 . S
C979 C976 1.387 . S
C980 C981 1.387 . S
C980 H984 0.950 . S
C980 C989 1.390 . S
C981 C980 1.387 . S
C981 C983 1.387 . S
H982 C989 0.950 . S
C983 C981 1.387 . S
C983 C985 1.390 . S
C983 H987 0.950 . S
H984 C980 0.950 . S
C985 C983 1.390 . S
C985 C986 1.387 . S
C985 H988 0.950 . S
C986 C985 1.387 . S
C986 C989 1.387 . S
H987 C983 0.950 . S
H988 C985 0.950 . S
C989 C980 1.390 . S
C989 H982 0.950 . S
C989 C986 1.387 . S
C990 C991 1.387 1_565 S
C990 H994 0.950 . S
C990 C999 1.390 . S
C991 C990 1.387 1_545 S
C991 C993 1.387 . S
H992 C999 0.950 . S
C993 C991 1.387 . S
C993 C995 1.390 . S
C993 H997 0.950 . S
H994 C990 0.950 . S
C995 C993 1.390 . S
C995 C996 1.387 . S
C995 H998 0.950 . S
C996 C995 1.387 . S
C996 C999 1.387 1_545 S
H997 C993 0.950 . S
H998 C995 0.950 . S
C999 C990 1.390 . S
C999 H992 0.950 . S
C999 C996 1.387 1_565 S
C1000 C1001 1.387 1_545 S
C1000 H1004 0.950 . S
C1000 C1009 1.390 . S
C1001 C1000 1.387 1_565 S
C1001 C1003 1.387 . S
H1002 C1009 0.950 . S
C1003 C1001 1.387 . S
C1003 C1005 1.390 . S
C1003 H1007 0.950 . S
H1004 C1000 0.950 . S
C1005 C1003 1.390 . S
C1005 C1006 1.387 . S
C1005 H1008 0.950 . S
C1006 C1005 1.387 . S
C1006 C1009 1.387 1_565 S
H1007 C1003 0.950 . S
H1008 C1005 0.950 . S
C1009 C1000 1.390 . S
C1009 H1002 0.950 . S
C1009 C1006 1.387 1_545 S
C1010 C1011 1.387 . S
C1010 H1014 0.950 . S
C1010 C1019 1.390 . S
C1011 C1010 1.387 . S
C1011 C1013 1.387 . S
H1012 C1019 0.950 . S
C1013 C1011 1.387 . S
C1013 C1015 1.390 . S
C1013 H1017 0.950 . S
H1014 C1010 0.950 . S
C1015 C1013 1.390 . S
C1015 C1016 1.387 . S
C1015 H1018 0.950 . S
C1016 C1015 1.387 . S
C1016 C1019 1.387 . S
H1017 C1013 0.950 . S
H1018 C1015 0.950 . S
C1019 C1010 1.390 . S
C1019 H1012 0.950 . S
C1019 C1016 1.387 . S
C1020 C1021 1.387 . S
C1020 H1024 0.950 . S
C1020 C1029 1.390 . S
C1021 C1020 1.387 . S
C1021 C1023 1.387 . S
H1022 C1029 0.950 . S
C1023 C1021 1.387 . S
C1023 C1025 1.390 . S
C1023 H1027 0.950 . S
H1024 C1020 0.950 . S
C1025 C1023 1.390 . S
C1025 C1026 1.387 . S
C1025 H1028 0.950 . S
C1026 C1025 1.387 . S
C1026 C1029 1.387 . S
H1027 C1023 0.950 . S
H1028 C1025 0.950 . S
C1029 C1020 1.390 . S
C1029 H1022 0.950 . S
C1029 C1026 1.387 . S
C1030 C1031 1.387 1_545 S
C1030 H1034 0.950 . S
C1030 C1039 1.390 . S
C1031 C1030 1.387 1_565 S
C1031 C1033 1.387 . S
H1032 C1039 0.950 . S
C1033 C1031 1.387 . S
C1033 C1035 1.390 . S
C1033 H1037 0.950 . S
H1034 C1030 0.950 . S
C1035 C1033 1.390 . S
C1035 C1036 1.387 . S
C1035 H1038 0.950 . S
C1036 C1035 1.387 . S
C1036 C1039 1.387 1_565 S
H1037 C1033 0.950 . S
H1038 C1035 0.950 . S
C1039 C1030 1.390 . S
C1039 H1032 0.950 . S
C1039 C1036 1.387 1_545 S
C1040 C1041 1.387 . S
C1040 H1044 0.950 . S
C1040 C1049 1.390 . S
C1041 C1040 1.387 . S
C1041 C1043 1.387 . S
H1042 C1049 0.950 . S
C1043 C1041 1.387 . S
C1043 C1045 1.390 . S
C1043 H1047 0.950 . S
H1044 C1040 0.950 . S
C1045 C1043 1.390 . S
C1045 C1046 1.387 . S
C1045 H1048 0.950 . S
C1046 C1045 1.387 . S
C1046 C1049 1.387 . S
H1047 C1043 0.950 . S
H1048 C1045 0.950 . S
C1049 C1040 1.390 . S
C1049 H1042 0.950 . S
C1049 C1046 1.387 . S
C1050 C1051 1.387 . S
C1050 H1054 0.950 . S
C1050 C1059 1.390 . S
C1051 C1050 1.387 . S
C1051 C1053 1.387 . S
H1052 C1059 0.950 . S
C1053 C1051 1.387 . S
C1053 C1055 1.390 . S
C1053 H1057 0.950 . S
H1054 C1050 0.950 . S
C1055 C1053 1.390 . S
C1055 C1056 1.387 . S
C1055 H1058 0.950 . S
C1056 C1055 1.387 . S
C1056 C1059 1.387 . S
H1057 C1053 0.950 . S
H1058 C1055 0.950 . S
C1059 C1050 1.390 . S
C1059 H1052 0.950 . S
C1059 C1056 1.387 . S
C1060 C1061 1.387 . S
C1060 H1064 0.950 . S
C1060 C1069 1.390 . S
C1061 C1060 1.387 . S
C1061 C1063 1.387 . S
H1062 C1069 0.950 . S
C1063 C1061 1.387 . S
C1063 C1065 1.390 . S
C1063 H1067 0.950 . S
H1064 C1060 0.950 . S
C1065 C1063 1.390 . S
C1065 C1066 1.387 . S
C1065 H1068 0.950 . S
C1066 C1065 1.387 . S
C1066 C1069 1.387 . S
H1067 C1063 0.950 . S
H1068 C1065 0.950 . S
C1069 C1060 1.390 . S
C1069 H1062 0.950 . S
C1069 C1066 1.387 . S
C1070 C1071 1.387 . S
C1070 H1074 0.950 . S
C1070 C1079 1.390 . S
C1071 C1070 1.387 . S
C1071 C1073 1.387 . S
H1072 C1079 0.950 . S
C1073 C1071 1.387 . S
C1073 C1075 1.390 . S
C1073 H1077 0.950 . S
H1074 C1070 0.950 . S
C1075 C1073 1.390 . S
C1075 C1076 1.387 . S
C1075 H1078 0.950 . S
C1076 C1075 1.387 . S
C1076 C1079 1.387 . S
H1077 C1073 0.950 . S
H1078 C1075 0.950 . S
C1079 C1070 1.390 . S
C1079 H1072 0.950 . S
C1079 C1076 1.387 . S
C1080 C1081 1.387 . S
C1080 H1084 0.950 . S
C1080 C1089 1.390 . S
C1081 C1080 1.387 . S
C1081 C1083 1.387 . S
H1082 C1089 0.950 . S
C1083 C1081 1.387 . S
C1083 C1085 1.390 . S
C1083 H1087 0.950 . S
H1084 C1080 0.950 . S
C1085 C1083 1.390 . S
C1085 C1086 1.387 . S
C1085 H1088 0.950 . S
C1086 C1085 1.387 . S
C1086 C1089 1.387 . S
H1087 C1083 0.950 . S
H1088 C1085 0.950 . S
C1089 C1080 1.390 . S
C1089 H1082 0.950 . S
C1089 C1086 1.387 . S
C1090 C1091 1.387 . S
C1090 H1094 0.950 . S
C1090 C1099 1.390 . S
C1091 C1090 1.387 . S
C1091 C1093 1.387 . S
H1092 C1099 0.950 . S
C1093 C1091 1.387 . S
C1093 C1095 1.390 . S
C1093 H1097 0.950 . S
H1094 C1090 0.950 . S
C1095 C1093 1.390 . S
C1095 C1096 1.387 . S
C1095 H1098 0.950 . S
C1096 C1095 1.387 . S
C1096 C1099 1.387 . S
H1097 C1093 0.950 . S
H1098 C1095 0.950 . S
C1099 C1090 1.390 . S
C1099 H1092 0.950 . S
C1099 C1096 1.387 . S
C1100 C1101 1.387 . S
C1100 H1104 0.950 . S
C1100 C1109 1.390 . S
C1101 C1100 1.387 . S
C1101 C1103 1.387 . S
H1102 C1109 0.950 . S
C1103 C1101 1.387 . S
C1103 C1105 1.390 . S
C1103 H1107 0.950 . S
H1104 C1100 0.950 . S
C1105 C1103 1.390 . S
C1105 C1106 1.387 . S
C1105 H1108 0.950 . S
C1106 C1105 1.387 . S
C1106 C1109 1.387 . S
H1107 C1103 0.950 . S
H1108 C1105 0.950 . S
C1109 C1100 1.390 . S
C1109 H1102 0.950 . S
C1109 C1106 1.387 . S
C1110 C1111 1.387 . S
C1110 H1114 0.950 . S
C1110 C1119 1.390 . S
C1111 C1110 1.387 . S
C1111 C1113 1.387 . S
H1112 C1119 0.950 . S
C1113 C1111 1.387 . S
C1113 C1115 1.390 . S
C1113 H1117 0.950 . S
H1114 C1110 0.950 . S
C1115 C1113 1.390 . S
C1115 C1116 1.387 . S
C1115 H1118 0.950 . S
C1116 C1115 1.387 . S
C1116 C1119 1.387 . S
H1117 C1113 0.950 . S
H1118 C1115 0.950 . S
C1119 C1110 1.390 . S
C1119 H1112 0.950 . S
C1119 C1116 1.387 . S
C1120 C1121 1.387 . S
C1120 H1124 0.950 . S
C1120 C1129 1.390 . S
C1121 C1120 1.387 . S
C1121 C1123 1.387 . S
H1122 C1129 0.950 . S
C1123 C1121 1.387 . S
C1123 C1125 1.390 . S
C1123 H1127 0.950 . S
H1124 C1120 0.950 . S
C1125 C1123 1.390 . S
C1125 C1126 1.387 . S
C1125 H1128 0.950 . S
C1126 C1125 1.387 . S
C1126 C1129 1.387 . S
H1127 C1123 0.950 . S
H1128 C1125 0.950 . S
C1129 C1120 1.390 . S
C1129 H1122 0.950 . S
C1129 C1126 1.387 . S
C1130 C1131 1.387 . S
C1130 H1134 0.950 . S
C1130 C1139 1.390 . S
C1131 C1130 1.387 . S
C1131 C1133 1.387 . S
H1132 C1139 0.950 . S
C1133 C1131 1.387 . S
C1133 C1135 1.390 . S
C1133 H1137 0.950 . S
H1134 C1130 0.950 . S
C1135 C1133 1.390 . S
C1135 C1136 1.387 . S
C1135 H1138 0.950 . S
C1136 C1135 1.387 . S
C1136 C1139 1.387 . S
H1137 C1133 0.950 . S
H1138 C1135 0.950 . S
C1139 C1130 1.390 . S
C1139 H1132 0.950 . S
C1139 C1136 1.387 . S
C1140 C1141 1.387 . S
C1140 H1144 0.950 . S
C1140 C1149 1.390 . S
C1141 C1140 1.387 . S
C1141 C1143 1.387 . S
H1142 C1149 0.950 . S
C1143 C1141 1.387 . S
C1143 C1145 1.390 . S
C1143 H1147 0.950 . S
H1144 C1140 0.950 . S
C1145 C1143 1.390 . S
C1145 C1146 1.387 . S
C1145 H1148 0.950 . S
C1146 C1145 1.387 . S
C1146 C1149 1.387 . S
H1147 C1143 0.950 . S
H1148 C1145 0.950 . S
C1149 C1140 1.390 . S
C1149 H1142 0.950 . S
C1149 C1146 1.387 . S
C1150 C1151 1.387 . S
C1150 H1154 0.950 . S
C1150 C1159 1.390 . S
C1151 C1150 1.387 . S
C1151 C1153 1.387 . S
H1152 C1159 0.950 . S
C1153 C1151 1.387 . S
C1153 C1155 1.390 . S
C1153 H1157 0.950 . S
H1154 C1150 0.950 . S
C1155 C1153 1.390 . S
C1155 C1156 1.387 . S
C1155 H1158 0.950 . S
C1156 C1155 1.387 . S
C1156 C1159 1.387 . S
H1157 C1153 0.950 . S
H1158 C1155 0.950 . S
C1159 C1150 1.390 . S
C1159 H1152 0.950 . S
C1159 C1156 1.387 . S
C1160 C1161 1.387 . S
C1160 H1164 0.950 . S
C1160 C1169 1.390 . S
C1161 C1160 1.387 . S
C1161 C1163 1.387 . S
H1162 C1169 0.950 . S
C1163 C1161 1.387 . S
C1163 C1165 1.390 . S
C1163 H1167 0.950 . S
H1164 C1160 0.950 . S
C1165 C1163 1.390 . S
C1165 C1166 1.387 . S
C1165 H1168 0.950 . S
C1166 C1165 1.387 . S
C1166 C1169 1.387 . S
H1167 C1163 0.950 . S
H1168 C1165 0.950 . S
C1169 C1160 1.390 . S
C1169 H1162 0.950 . S
C1169 C1166 1.387 . S
C1170 C1171 1.387 . S
C1170 H1174 0.950 . S
C1170 C1179 1.390 . S
C1171 C1170 1.387 . S
C1171 C1173 1.387 . S
H1172 C1179 0.950 . S
C1173 C1171 1.387 . S
C1173 C1175 1.390 . S
C1173 H1177 0.950 . S
H1174 C1170 0.950 . S
C1175 C1173 1.390 . S
C1175 C1176 1.387 . S
C1175 H1178 0.950 . S
C1176 C1175 1.387 . S
C1176 C1179 1.387 . S
H1177 C1173 0.950 . S
H1178 C1175 0.950 . S
C1179 C1170 1.390 . S
C1179 H1172 0.950 . S
C1179 C1176 1.387 . S
C1180 C1181 1.387 . S
C1180 H1184 0.950 . S
C1180 C1189 1.390 . S
C1181 C1180 1.387 . S
C1181 C1183 1.387 . S
H1182 C1189 0.950 . S
C1183 C1181 1.387 . S
C1183 C1185 1.390 . S
C1183 H1187 0.950 . S
H1184 C1180 0.950 . S
C1185 C1183 1.390 . S
C1185 C1186 1.387 . S
C1185 H1188 0.950 . S
C1186 C1185 1.387 . S
C1186 C1189 1.387 . S
H1187 C1183 0.950 . S
H1188 C1185 0.950 . S
C1189 C1180 1.390 . S
C1189 H1182 0.950 . S
C1189 C1186 1.387 . S
C1190 C1191 1.387 . S
C1190 H1194 0.950 . S
C1190 C1199 1.390 . S
C1191 C1190 1.387 . S
C1191 C1193 1.387 . S
H1192 C1199 0.950 . S
C1193 C1191 1.387 . S
C1193 C1195 1.390 . S
C1193 H1197 0.950 . S
H1194 C1190 0.950 . S
C1195 C1193 1.390 . S
C1195 C1196 1.387 . S
C1195 H1198 0.950 . S
C1196 C1195 1.387 . S
C1196 C1199 1.387 . S
H1197 C1193 0.950 . S
H1198 C1195 0.950 . S
C1199 C1190 1.390 . S
C1199 H1192 0.950 . S
C1199 C1196 1.387 . S
C1200 C1201 1.387 . S
C1200 H1204 0.950 . S
C1200 C1209 1.390 . S
C1201 C1200 1.387 . S
C1201 C1203 1.387 . S
H1202 C1209 0.950 . S
C1203 C1201 1.387 . S
C1203 C1205 1.390 . S
C1203 H1207 0.950 . S
H1204 C1200 0.950 . S
C1205 C1203 1.390 . S
C1205 C1206 1.387 . S
C1205 H1208 0.950 . S
C1206 C1205 1.387 . S
C1206 C1209 1.387 . S
H1207 C1203 0.950 . S
H1208 C1205 0.950 . S
C1209 C1200 1.390 . S
C1209 H1202 0.950 . S
C1209 C1206 1.387 . S
C1210 C1211 1.387 . S
C1210 H1214 0.950 . S
C1210 C1219 1.390 . S
C1211 C1210 1.387 . S
C1211 C1213 1.387 . S
H1212 C1219 0.950 . S
C1213 C1211 1.387 . S
C1213 C1215 1.390 . S
C1213 H1217 0.950 . S
H1214 C1210 0.950 . S
C1215 C1213 1.390 . S
C1215 C1216 1.387 . S
C1215 H1218 0.950 . S
C1216 C1215 1.387 . S
C1216 C1219 1.387 . S
H1217 C1213 0.950 . S
H1218 C1215 0.950 . S
C1219 C1210 1.390 . S
C1219 H1212 0.950 . S
C1219 C1216 1.387 . S
C1220 C1221 1.387 . S
C1220 H1224 0.950 . S
C1220 C1229 1.390 . S
C1221 C1220 1.387 . S
C1221 C1223 1.387 . S
H1222 C1229 0.950 . S
C1223 C1221 1.387 . S
C1223 C1225 1.390 . S
C1223 H1227 0.950 . S
H1224 C1220 0.950 . S
C1225 C1223 1.390 . S
C1225 C1226 1.387 . S
C1225 H1228 0.950 . S
C1226 C1225 1.387 . S
C1226 C1229 1.387 . S
H1227 C1223 0.950 . S
H1228 C1225 0.950 . S
C1229 C1220 1.390 . S
C1229 H1222 0.950 . S
C1229 C1226 1.387 . S
C1230 C1231 1.387 . S
C1230 H1234 0.950 . S
C1230 C1239 1.390 . S
C1231 C1230 1.387 . S
C1231 C1233 1.387 . S
H1232 C1239 0.950 . S
C1233 C1231 1.387 . S
C1233 C1235 1.390 . S
C1233 H1237 0.950 . S
H1234 C1230 0.950 . S
C1235 C1233 1.390 . S
C1235 C1236 1.387 . S
C1235 H1238 0.950 . S
C1236 C1235 1.387 . S
C1236 C1239 1.387 . S
H1237 C1233 0.950 . S
H1238 C1235 0.950 . S
C1239 C1230 1.390 . S
C1239 H1232 0.950 . S
C1239 C1236 1.387 . S
C1240 C1241 1.387 . S
C1240 H1244 0.950 . S
C1240 C1249 1.390 . S
C1241 C1240 1.387 . S
C1241 C1243 1.387 . S
H1242 C1249 0.950 . S
C1243 C1241 1.387 . S
C1243 C1245 1.390 . S
C1243 H1247 0.950 . S
H1244 C1240 0.950 . S
C1245 C1243 1.390 . S
C1245 C1246 1.387 . S
C1245 H1248 0.950 . S
C1246 C1245 1.387 . S
C1246 C1249 1.387 . S
H1247 C1243 0.950 . S
H1248 C1245 0.950 . S
C1249 C1240 1.390 . S
C1249 H1242 0.950 . S
C1249 C1246 1.387 . S
C1250 C1251 1.387 . S
C1250 H1254 0.950 . S
C1250 C1259 1.390 . S
C1251 C1250 1.387 . S
C1251 C1253 1.387 . S
H1252 C1259 0.950 . S
C1253 C1251 1.387 . S
C1253 C1255 1.390 . S
C1253 H1257 0.950 . S
H1254 C1250 0.950 . S
C1255 C1253 1.390 . S
C1255 C1256 1.387 . S
C1255 H1258 0.950 . S
C1256 C1255 1.387 . S
C1256 C1259 1.387 . S
H1257 C1253 0.950 . S
H1258 C1255 0.950 . S
C1259 C1250 1.390 . S
C1259 H1252 0.950 . S
C1259 C1256 1.387 . S
C1260 C1261 1.387 . S
C1260 H1264 0.950 . S
C1260 C1269 1.390 . S
C1261 C1260 1.387 . S
C1261 C1263 1.387 . S
H1262 C1269 0.950 . S
C1263 C1261 1.387 . S
C1263 C1265 1.390 . S
C1263 H1267 0.950 . S
H1264 C1260 0.950 . S
C1265 C1263 1.390 . S
C1265 C1266 1.387 . S
C1265 H1268 0.950 . S
C1266 C1265 1.387 . S
C1266 C1269 1.387 . S
H1267 C1263 0.950 . S
H1268 C1265 0.950 . S
C1269 C1260 1.390 . S
C1269 H1262 0.950 . S
C1269 C1266 1.387 . S
C1270 C1271 1.387 . S
C1270 H1274 0.950 . S
C1270 C1279 1.390 . S
C1271 C1270 1.387 . S
C1271 C1273 1.387 . S
H1272 C1279 0.950 . S
C1273 C1271 1.387 . S
C1273 C1275 1.390 . S
C1273 H1277 0.950 . S
H1274 C1270 0.950 . S
C1275 C1273 1.390 . S
C1275 C1276 1.387 . S
C1275 H1278 0.950 . S
C1276 C1275 1.387 . S
C1276 C1279 1.387 . S
H1277 C1273 0.950 . S
H1278 C1275 0.950 . S
C1279 C1270 1.390 . S
C1279 H1272 0.950 . S
C1279 C1276 1.387 . S
C1280 C1281 1.387 . S
C1280 H1284 0.950 . S
C1280 C1289 1.390 . S
C1281 C1280 1.387 . S
C1281 C1283 1.387 1_545 S
H1282 C1289 0.950 . S
C1283 C1281 1.387 1_565 S
C1283 C1285 1.390 . S
C1283 H1287 0.950 . S
H1284 C1280 0.950 . S
C1285 C1283 1.390 . S
C1285 C1286 1.387 . S
C1285 H1288 0.950 . S
C1286 C1285 1.387 . S
C1286 C1289 1.387 1_565 S
H1287 C1283 0.950 . S
H1288 C1285 0.950 . S
C1289 C1280 1.390 . S
C1289 H1282 0.950 . S
C1289 C1286 1.387 1_545 S
C1290 C1291 1.387 . S
C1290 H1294 0.950 . S
C1290 C1299 1.390 . S
C1291 C1290 1.387 . S
C1291 C1293 1.387 . S
H1292 C1299 0.950 . S
C1293 C1291 1.387 . S
C1293 C1295 1.390 . S
C1293 H1297 0.950 . S
H1294 C1290 0.950 . S
C1295 C1293 1.390 . S
C1295 C1296 1.387 . S
C1295 H1298 0.950 . S
C1296 C1295 1.387 . S
C1296 C1299 1.387 . S
H1297 C1293 0.950 . S
H1298 C1295 0.950 . S
C1299 C1290 1.390 . S
C1299 H1292 0.950 . S
C1299 C1296 1.387 . S
C1300 C1301 1.387 . S
C1300 H1304 0.950 . S
C1300 C1309 1.390 . S
C1301 C1300 1.387 . S
C1301 C1303 1.387 . S
H1302 C1309 0.950 . S
C1303 C1301 1.387 . S
C1303 C1305 1.390 . S
C1303 H1307 0.950 . S
H1304 C1300 0.950 . S
C1305 C1303 1.390 . S
C1305 C1306 1.387 . S
C1305 H1308 0.950 . S
C1306 C1305 1.387 . S
C1306 C1309 1.387 . S
H1307 C1303 0.950 . S
H1308 C1305 0.950 . S
C1309 C1300 1.390 . S
C1309 H1302 0.950 . S
C1309 C1306 1.387 . S
C1310 C1311 1.387 1_565 S
C1310 H1314 0.950 . S
C1310 C1319 1.390 . S
C1311 C1310 1.387 1_545 S
C1311 C1313 1.387 . S
H1312 C1319 0.950 . S
C1313 C1311 1.387 . S
C1313 C1315 1.390 . S
C1313 H1317 0.950 . S
H1314 C1310 0.950 . S
C1315 C1313 1.390 . S
C1315 C1316 1.387 1_545 S
C1315 H1318 0.950 . S
C1316 C1315 1.387 1_565 S
C1316 C1319 1.387 . S
H1317 C1313 0.950 . S
H1318 C1315 0.950 . S
C1319 C1310 1.390 . S
C1319 H1312 0.950 . S
C1319 C1316 1.387 . S
C1320 C1321 1.387 1_565 S
C1320 H1324 0.950 . S
C1320 C1329 1.390 . S
C1321 C1320 1.387 1_545 S
C1321 C1323 1.387 . S
H1322 C1329 0.950 . S
C1323 C1321 1.387 . S
C1323 C1325 1.390 . S
C1323 H1327 0.950 . S
H1324 C1320 0.950 . S
C1325 C1323 1.390 . S
C1325 C1326 1.387 1_545 S
C1325 H1328 0.950 . S
C1326 C1325 1.387 1_565 S
C1326 C1329 1.387 . S
H1327 C1323 0.950 . S
H1328 C1325 0.950 . S
C1329 C1320 1.390 . S
C1329 H1322 0.950 . S
C1329 C1326 1.387 . S
C1330 C1331 1.387 . S
C1330 H1334 0.950 . S
C1330 C1339 1.390 . S
C1331 C1330 1.387 . S
C1331 C1333 1.387 . S
H1332 C1339 0.950 . S
C1333 C1331 1.387 . S
C1333 C1335 1.390 . S
C1333 H1337 0.950 . S
H1334 C1330 0.950 . S
C1335 C1333 1.390 . S
C1335 C1336 1.387 . S
C1335 H1338 0.950 . S
C1336 C1335 1.387 . S
C1336 C1339 1.387 . S
H1337 C1333 0.950 . S
H1338 C1335 0.950 . S
C1339 C1330 1.390 . S
C1339 H1332 0.950 . S
C1339 C1336 1.387 . S
C1340 C1341 1.387 . S
C1340 H1344 0.950 . S
C1340 C1349 1.390 . S
C1341 C1340 1.387 . S
C1341 C1343 1.387 . S
H1342 C1349 0.950 . S
C1343 C1341 1.387 . S
C1343 C1345 1.390 . S
C1343 H1347 0.950 . S
H1344 C1340 0.950 . S
C1345 C1343 1.390 . S
C1345 C1346 1.387 . S
C1345 H1348 0.950 . S
C1346 C1345 1.387 . S
C1346 C1349 1.387 . S
H1347 C1343 0.950 . S
H1348 C1345 0.950 . S
C1349 C1340 1.390 . S
C1349 H1342 0.950 . S
C1349 C1346 1.387 . S
C1350 C1351 1.387 . S
C1350 H1354 0.950 . S
C1350 C1359 1.390 . S
C1351 C1350 1.387 . S
C1351 C1353 1.387 1_545 S
H1352 C1359 0.950 . S
C1353 C1351 1.387 1_565 S
C1353 C1355 1.390 . S
C1353 H1357 0.950 . S
H1354 C1350 0.950 . S
C1355 C1353 1.390 . S
C1355 C1356 1.387 . S
C1355 H1358 0.950 . S
C1356 C1355 1.387 . S
C1356 C1359 1.387 1_565 S
H1357 C1353 0.950 . S
H1358 C1355 0.950 . S
C1359 C1350 1.390 . S
C1359 H1352 0.950 . S
C1359 C1356 1.387 1_545 S
C1360 C1361 1.387 . S
C1360 H1364 0.950 . S
C1360 C1369 1.390 . S
C1361 C1360 1.387 . S
C1361 C1363 1.387 . S
H1362 C1369 0.950 . S
C1363 C1361 1.387 . S
C1363 C1365 1.390 . S
C1363 H1367 0.950 . S
H1364 C1360 0.950 . S
C1365 C1363 1.390 . S
C1365 C1366 1.387 . S
C1365 H1368 0.950 . S
C1366 C1365 1.387 . S
C1366 C1369 1.387 . S
H1367 C1363 0.950 . S
H1368 C1365 0.950 . S
C1369 C1360 1.390 . S
C1369 H1362 0.950 . S
C1369 C1366 1.387 . S
C1370 C1371 1.387 . S
C1370 H1374 0.950 . S
C1370 C1379 1.390 . S
C1371 C1370 1.387 . S
C1371 C1373 1.387 . S
H1372 C1379 0.950 . S
C1373 C1371 1.387 . S
C1373 C1375 1.390 . S
C1373 H1377 0.950 . S
H1374 C1370 0.950 . S
C1375 C1373 1.390 . S
C1375 C1376 1.387 . S
C1375 H1378 0.950 . S
C1376 C1375 1.387 . S
C1376 C1379 1.387 . S
H1377 C1373 0.950 . S
H1378 C1375 0.950 . S
C1379 C1370 1.390 . S
C1379 H1372 0.950 . S
C1379 C1376 1.387 . S
C1380 C1381 1.387 . S
C1380 H1384 0.950 . S
C1380 C1389 1.390 . S
C1381 C1380 1.387 . S
C1381 C1383 1.387 . S
H1382 C1389 0.950 . S
C1383 C1381 1.387 . S
C1383 C1385 1.390 . S
C1383 H1387 0.950 . S
H1384 C1380 0.950 . S
C1385 C1383 1.390 . S
C1385 C1386 1.387 . S
C1385 H1388 0.950 . S
C1386 C1385 1.387 . S
C1386 C1389 1.387 . S
H1387 C1383 0.950 . S
H1388 C1385 0.950 . S
C1389 C1380 1.390 . S
C1389 H1382 0.950 . S
C1389 C1386 1.387 . S
C1390 C1391 1.387 . S
C1390 H1394 0.950 . S
C1390 C1399 1.390 . S
C1391 C1390 1.387 . S
C1391 C1393 1.387 . S
H1392 C1399 0.950 . S
C1393 C1391 1.387 . S
C1393 C1395 1.390 . S
C1393 H1397 0.950 . S
H1394 C1390 0.950 . S
C1395 C1393 1.390 . S
C1395 C1396 1.387 . S
C1395 H1398 0.950 . S
C1396 C1395 1.387 . S
C1396 C1399 1.387 . S
H1397 C1393 0.950 . S
H1398 C1395 0.950 . S
C1399 C1390 1.390 . S
C1399 H1392 0.950 . S
C1399 C1396 1.387 . S
C1400 C1401 1.387 . S
C1400 H1404 0.950 . S
C1400 C1409 1.390 . S
C1401 C1400 1.387 . S
C1401 C1403 1.387 . S
H1402 C1409 0.950 . S
C1403 C1401 1.387 . S
C1403 C1405 1.390 . S
C1403 H1407 0.950 . S
H1404 C1400 0.950 . S
C1405 C1403 1.390 . S
C1405 C1406 1.387 . S
C1405 H1408 0.950 . S
C1406 C1405 1.387 . S
C1406 C1409 1.387 . S
H1407 C1403 0.950 . S
H1408 C1405 0.950 . S
C1409 C1400 1.390 . S
C1409 H1402 0.950 . S
C1409 C1406 1.387 . S
C1410 C1411 1.387 . S
C1410 H1414 0.950 . S
C1410 C1419 1.390 . S
C1411 C1410 1.387 . S
C1411 C1413 1.387 . S
H1412 C1419 0.950 . S
C1413 C1411 1.387 . S
C1413 C1415 1.390 . S
C1413 H1417 0.950 . S
H1414 C1410 0.950 . S
C1415 C1413 1.390 . S
C1415 C1416 1.387 . S
C1415 H1418 0.950 . S
C1416 C1415 1.387 . S
C1416 C1419 1.387 . S
H1417 C1413 0.950 . S
H1418 C1415 0.950 . S
C1419 C1410 1.390 . S
C1419 H1412 0.950 . S
C1419 C1416 1.387 . S
C1420 C1421 1.387 . S
C1420 H1424 0.950 . S
C1420 C1429 1.390 . S
C1421 C1420 1.387 . S
C1421 C1423 1.387 . S
H1422 C1429 0.950 . S
C1423 C1421 1.387 . S
C1423 C1425 1.390 . S
C1423 H1427 0.950 . S
H1424 C1420 0.950 . S
C1425 C1423 1.390 . S
C1425 C1426 1.387 . S
C1425 H1428 0.950 . S
C1426 C1425 1.387 . S
C1426 C1429 1.387 . S
H1427 C1423 0.950 . S
H1428 C1425 0.950 . S
C1429 C1420 1.390 . S
C1429 H1422 0.950 . S
C1429 C1426 1.387 . S
C1430 C1431 1.387 . S
C1430 H1434 0.950 . S
C1430 C1439 1.390 . S
C1431 C1430 1.387 . S
C1431 C1433 1.387 . S
H1432 C1439 0.950 . S
C1433 C1431 1.387 . S
C1433 C1435 1.390 . S
C1433 H1437 0.950 . S
H1434 C1430 0.950 . S
C1435 C1433 1.390 . S
C1435 C1436 1.387 . S
C1435 H1438 0.950 . S
C1436 C1435 1.387 . S
C1436 C1439 1.387 . S
H1437 C1433 0.950 . S
H1438 C1435 0.950 . S
C1439 C1430 1.390 . S
C1439 H1432 0.950 . S
C1439 C1436 1.387 . S
C1440 C1441 1.387 . S
C1440 H1444 0.950 . S
C1440 C1449 1.390 . S
C1441 C1440 1.387 . S
C1441 C1443 1.387 1_545 S
H1442 C1449 0.950 . S
C1443 C1441 1.387 1_565 S
C1443 C1445 1.390 . S
C1443 H1447 0.950 . S
H1444 C1440 0.950 . S
C1445 C1443 1.390 . S
C1445 C1446 1.387 . S
C1445 H1448 0.950 . S
C1446 C1445 1.387 . S
C1446 C1449 1.387 1_565 S
H1447 C1443 0.950 . S
H1448 C1445 0.950 . S
C1449 C1440 1.390 . S
C1449 H1442 0.950 . S
C1449 C1446 1.387 1_545 S
C1450 C1451 1.387 . S
C1450 H1454 0.950 . S
C1450 C1459 1.390 . S
C1451 C1450 1.387 . S
C1451 C1453 1.387 . S
H1452 C1459 0.950 . S
C1453 C1451 1.387 . S
C1453 C1455 1.390 . S
C1453 H1457 0.950 . S
H1454 C1450 0.950 . S
C1455 C1453 1.390 . S
C1455 C1456 1.387 . S
C1455 H1458 0.950 . S
C1456 C1455 1.387 . S
C1456 C1459 1.387 . S
H1457 C1453 0.950 . S
H1458 C1455 0.950 . S
C1459 C1450 1.390 . S
C1459 H1452 0.950 . S
C1459 C1456 1.387 . S
C1460 C1461 1.387 . S
C1460 H1464 0.950 . S
C1460 C1469 1.390 . S
C1461 C1460 1.387 . S
C1461 C1463 1.387 . S
H1462 C1469 0.950 . S
C1463 C1461 1.387 . S
C1463 C1465 1.390 . S
C1463 H1467 0.950 . S
H1464 C1460 0.950 . S
C1465 C1463 1.390 . S
C1465 C1466 1.387 . S
C1465 H1468 0.950 . S
C1466 C1465 1.387 . S
C1466 C1469 1.387 . S
H1467 C1463 0.950 . S
H1468 C1465 0.950 . S
C1469 C1460 1.390 . S
C1469 H1462 0.950 . S
C1469 C1466 1.387 . S
C1470 C1471 1.387 . S
C1470 H1474 0.950 . S
C1470 C1479 1.390 . S
C1471 C1470 1.387 . S
C1471 C1473 1.387 1_545 S
H1472 C1479 0.950 . S
C1473 C1471 1.387 1_565 S
C1473 C1475 1.390 . S
C1473 H1477 0.950 . S
H1474 C1470 0.950 . S
C1475 C1473 1.390 . S
C1475 C1476 1.387 . S
C1475 H1478 0.950 . S
C1476 C1475 1.387 . S
C1476 C1479 1.387 1_565 S
H1477 C1473 0.950 . S
H1478 C1475 0.950 . S
C1479 C1470 1.390 . S
C1479 H1472 0.950 . S
C1479 C1476 1.387 1_545 S
C1480 C1481 1.387 . S
C1480 H1484 0.950 . S
C1480 C1489 1.390 . S
C1481 C1480 1.387 . S
C1481 C1483 1.387 1_565 S
H1482 C1489 0.950 . S
C1483 C1481 1.387 1_545 S
C1483 C1485 1.390 . S
C1483 H1487 0.950 . S
H1484 C1480 0.950 . S
C1485 C1483 1.390 . S
C1485 C1486 1.387 . S
C1485 H1488 0.950 . S
C1486 C1485 1.387 . S
C1486 C1489 1.387 1_545 S
H1487 C1483 0.950 . S
H1488 C1485 0.950 . S
C1489 C1480 1.390 . S
C1489 H1482 0.950 . S
C1489 C1486 1.387 1_565 S
C1490 C1491 1.387 . S
C1490 H1494 0.950 . S
C1490 C1499 1.390 . S
C1491 C1490 1.387 . S
C1491 C1493 1.387 . S
H1492 C1499 0.950 . S
C1493 C1491 1.387 . S
C1493 C1495 1.390 . S
C1493 H1497 0.950 . S
H1494 C1490 0.950 . S
C1495 C1493 1.390 . S
C1495 C1496 1.387 . S
C1495 H1498 0.950 . S
C1496 C1495 1.387 . S
C1496 C1499 1.387 . S
H1497 C1493 0.950 . S
H1498 C1495 0.950 . S
C1499 C1490 1.390 . S
C1499 H1492 0.950 . S
C1499 C1496 1.387 . S
C1500 C1501 1.387 . S
C1500 H1504 0.950 . S
C1500 C1509 1.390 . S
C1501 C1500 1.387 . S
C1501 C1503 1.387 . S
H1502 C1509 0.950 . S
C1503 C1501 1.387 . S
C1503 C1505 1.390 . S
C1503 H1507 0.950 . S
H1504 C1500 0.950 . S
C1505 C1503 1.390 . S
C1505 C1506 1.387 . S
C1505 H1508 0.950 . S
C1506 C1505 1.387 . S
C1506 C1509 1.387 . S
H1507 C1503 0.950 . S
H1508 C1505 0.950 . S
C1509 C1500 1.390 . S
C1509 H1502 0.950 . S
C1509 C1506 1.387 . S
C1510 C1511 1.387 1_545 S
C1510 H1514 0.950 . S
C1510 C1519 1.390 . S
C1511 C1510 1.387 1_565 S
C1511 C1513 1.387 . S
H1512 C1519 0.950 . S
C1513 C1511 1.387 . S
C1513 C1515 1.390 . S
C1513 H1517 0.950 . S
H1514 C1510 0.950 . S
C1515 C1513 1.390 . S
C1515 C1516 1.387 1_565 S
C1515 H1518 0.950 . S
C1516 C1515 1.387 1_545 S
C1516 C1519 1.387 . S
H1517 C1513 0.950 . S
H1518 C1515 0.950 . S
C1519 C1510 1.390 . S
C1519 H1512 0.950 . S
C1519 C1516 1.387 . S
C1520 C1521 1.387 . S
C1520 H1524 0.950 . S
C1520 C1529 1.390 . S
C1521 C1520 1.387 . S
C1521 C1523 1.387 . S
H1522 C1529 0.950 . S
C1523 C1521 1.387 . S
C1523 C1525 1.390 . S
C1523 H1527 0.950 . S
H1524 C1520 0.950 . S
C1525 C1523 1.390 . S
C1525 C1526 1.387 . S
C1525 H1528 0.950 . S
C1526 C1525 1.387 . S
C1526 C1529 1.387 . S
H1527 C1523 0.950 . S
H1528 C1525 0.950 . S
C1529 C1520 1.390 . S
C1529 H1522 0.950 . S
C1529 C1526 1.387 . S
C1530 C1531 1.387 . S
C1530 H1534 0.950 . S
C1530 C1539 1.390 . S
C1531 C1530 1.387 . S
C1531 C1533 1.387 . S
H1532 C1539 0.950 . S
C1533 C1531 1.387 . S
C1533 C1535 1.390 . S
C1533 H1537 0.950 . S
H1534 C1530 0.950 . S
C1535 C1533 1.390 . S
C1535 C1536 1.387 . S
C1535 H1538 0.950 . S
C1536 C1535 1.387 . S
C1536 C1539 1.387 . S
H1537 C1533 0.950 . S
H1538 C1535 0.950 . S
C1539 C1530 1.390 . S
C1539 H1532 0.950 . S
C1539 C1536 1.387 . S
C1540 C1541 1.387 . S
C1540 H1544 0.950 . S
C1540 C1549 1.390 . S
C1541 C1540 1.387 . S
C1541 C1543 1.387 . S
H1542 C1549 0.950 . S
C1543 C1541 1.387 . S
C1543 C1545 1.390 . S
C1543 H1547 0.950 . S
H1544 C1540 0.950 . S
C1545 C1543 1.390 . S
C1545 C1546 1.387 . S
C1545 H1548 0.950 . S
C1546 C1545 1.387 . S
C1546 C1549 1.387 . S
H1547 C1543 0.950 . S
H1548 C1545 0.950 . S
C1549 C1540 1.390 . S
C1549 H1542 0.950 . S
C1549 C1546 1.387 . S
C1550 C1551 1.387 . S
C1550 H1554 0.950 . S
C1550 C1559 1.390 . S
C1551 C1550 1.387 . S
C1551 C1553 1.387 . S
H1552 C1559 0.950 . S
C1553 C1551 1.387 . S
C1553 C1555 1.390 . S
C1553 H1557 0.950 . S
H1554 C1550 0.950 . S
C1555 C1553 1.390 . S
C1555 C1556 1.387 . S
C1555 H1558 0.950 . S
C1556 C1555 1.387 . S
C1556 C1559 1.387 . S
H1557 C1553 0.950 . S
H1558 C1555 0.950 . S
C1559 C1550 1.390 . S
C1559 H1552 0.950 . S
C1559 C1556 1.387 . S
C1560 C1561 1.387 . S
C1560 H1564 0.950 . S
C1560 C1569 1.390 . S
C1561 C1560 1.387 . S
C1561 C1563 1.387 . S
H1562 C1569 0.950 . S
C1563 C1561 1.387 . S
C1563 C1565 1.390 . S
C1563 H1567 0.950 . S
H1564 C1560 0.950 . S
C1565 C1563 1.390 . S
C1565 C1566 1.387 . S
C1565 H1568 0.950 . S
C1566 C1565 1.387 . S
C1566 C1569 1.387 . S
H1567 C1563 0.950 . S
H1568 C1565 0.950 . S
C1569 C1560 1.390 . S
C1569 H1562 0.950 . S
C1569 C1566 1.387 . S
C1570 C1571 1.387 . S
C1570 H1574 0.950 . S
C1570 C1579 1.390 . S
C1571 C1570 1.387 . S
C1571 C1573 1.387 . S
H1572 C1579 0.950 . S
C1573 C1571 1.387 . S
C1573 C1575 1.390 . S
C1573 H1577 0.950 . S
H1574 C1570 0.950 . S
C1575 C1573 1.390 . S
C1575 C1576 1.387 . S
C1575 H1578 0.950 . S
C1576 C1575 1.387 . S
C1576 C1579 1.387 . S
H1577 C1573 0.950 . S
H1578 C1575 0.950 . S
C1579 C1570 1.390 . S
C1579 H1572 0.950 . S
C1579 C1576 1.387 . S
C1580 C1581 1.387 . S
C1580 H1584 0.950 . S
C1580 C1589 1.390 . S
C1581 C1580 1.387 . S
C1581 C1583 1.387 . S
H1582 C1589 0.950 . S
C1583 C1581 1.387 . S
C1583 C1585 1.390 . S
C1583 H1587 0.950 . S
H1584 C1580 0.950 . S
C1585 C1583 1.390 . S
C1585 C1586 1.387 . S
C1585 H1588 0.950 . S
C1586 C1585 1.387 . S
C1586 C1589 1.387 . S
H1587 C1583 0.950 . S
H1588 C1585 0.950 . S
C1589 C1580 1.390 . S
C1589 H1582 0.950 . S
C1589 C1586 1.387 . S
C1590 C1591 1.387 . S
C1590 H1594 0.950 . S
C1590 C1599 1.390 . S
C1591 C1590 1.387 . S
C1591 C1593 1.387 . S
H1592 C1599 0.950 . S
C1593 C1591 1.387 . S
C1593 C1595 1.390 . S
C1593 H1597 0.950 . S
H1594 C1590 0.950 . S
C1595 C1593 1.390 . S
C1595 C1596 1.387 . S
C1595 H1598 0.950 . S
C1596 C1595 1.387 . S
C1596 C1599 1.387 . S
H1597 C1593 0.950 . S
H1598 C1595 0.950 . S
C1599 C1590 1.390 . S
C1599 H1592 0.950 . S
C1599 C1596 1.387 . S
C641 C509 1.664 . S
C646 C9 1.664 . S
C651 C489 1.665 . S
C656 C29 1.665 . S
C661 C549 1.665 . S
C666 C49 1.665 . S
C671 C529 1.664 . S
C676 C69 1.664 . S
C681 C88 1.665 . S
C686 C588 1.665 . S
C691 C108 1.664 . S
C696 C568 1.664 . S
C701 C128 1.664 . S
C706 C628 1.664 . S
C711 C608 1.665 . S
C716 C148 1.665 . S
C721 C349 1.664 . S
C726 C169 1.664 . S
C731 C329 1.665 . S
C736 C189 1.665 . S
C741 C389 1.664 . S
C746 C209 1.664 . S
C751 C369 1.664 . S
C756 C229 1.664 . S
C761 C248 1.665 . S
C766 C428 1.665 . S
C771 C408 1.665 . S
C776 C268 1.665 . S
C781 C288 1.664 . S
C786 C468 1.664 . S
C791 C448 1.665 . S
C796 C308 1.665 . S
C801 C1 0.915 . S
C806 C402 0.915 . S
C811 C262 0.910 . S
C816 C21 0.910 . S
C821 C602 0.915 . S
C826 C41 0.915 . S
C831 C61 0.915 . S
C836 C142 0.915 . S
C841 C82 0.915 . S
C846 C321 0.915 . S
C851 C102 0.915 . S
C856 C181 0.915 . S
C861 C122 0.910 . S
C866 C521 0.910 . S
C871 C562 0.911 . S
C876 C161 0.911 . S
C881 C442 0.915 . S
C886 C201 0.915 . S
C891 C302 0.910 . S
C896 C221 0.910 . S
C901 C481 0.911 . S
C906 C242 0.911 . S
C911 C282 0.910 . S
C916 C361 0.910 . S
C921 C582 0.915 . S
C926 C341 0.915 . S
C931 C381 0.910 . S
C936 C462 0.910 . S
C941 C501 0.910 . S
C946 C422 0.910 . S
C951 C541 0.916 . S
C956 C622 0.916 . S
C961 C2 1.591 . S
C966 C382 1.591 . S
C971 C22 1.593 . S
C976 C362 1.593 . S
C981 C42 1.591 . S
C986 C342 1.591 . S
C991 C62 1.593 . S
C996 C322 1.593 . S
C1001 C81 1.591 . S
C1006 C461 1.591 . S
C1011 C101 1.591 . S
C1016 C441 1.591 . S
C1021 C121 1.592 . S
C1026 C421 1.592 . S
C1031 C141 1.591 . S
C1036 C401 1.591 . S
C1041 C162 1.591 . S
C1046 C542 1.591 . S
C1051 C182 1.592 . S
C1056 C522 1.592 . S
C1061 C202 1.593 . S
C1066 C502 1.593 . S
C1071 C222 1.593 . S
C1076 C482 1.593 . S
C1081 C621 1.593 . S
C1086 C241 1.593 . S
C1091 C601 1.592 . S
C1096 C261 1.592 . S
C1101 C581 1.593 . S
C1106 C281 1.593 . S
C1111 C561 1.591 . S
C1116 C301 1.591 . S
C1121 C48 1.644 . S
C1126 C8 1.644 . S
C1131 C68 1.644 . S
C1136 C28 1.644 . S
C1141 C129 1.644 . S
C1146 C89 1.644 . S
C1151 C109 1.644 . S
C1156 C149 1.644 . S
C1161 C208 1.644 . S
C1166 C168 1.644 . S
C1171 C188 1.644 . S
C1176 C228 1.644 . S
C1181 C289 1.644 . S
C1186 C249 1.644 . S
C1191 C269 1.643 . S
C1196 C309 1.643 . S
C1201 C328 1.644 . S
C1206 C368 1.644 . S
C1211 C348 1.644 . S
C1216 C388 1.644 . S
C1221 C449 1.644 . S
C1226 C409 1.644 . S
C1231 C429 1.644 . S
C1236 C469 1.644 . S
C1241 C488 1.643 . S
C1246 C528 1.643 . S
C1251 C548 1.644 . S
C1256 C508 1.644 . S
C1261 C569 1.643 . S
C1266 C609 1.643 . S
C1271 C589 1.644 . S
C1276 C629 1.644 . S
C1281 C18 1.661 1_556 S
C1286 C158 1.649 . S
C1291 C618 1.649 . S
C1296 C38 1.661 1_456 S
C1301 C58 1.661 . S
C1306 C278 1.649 . S
C1311 C78 1.660 1_455 S
C1316 C418 1.649 . S
C1321 C79 1.649 . S
C1326 C99 1.660 1_554 S
C1331 C119 1.661 1_654 S
C1336 C539 1.649 . S
C1341 C199 1.649 . S
C1346 C139 1.661 . S
C1351 C339 1.649 . S
C1356 C159 1.661 1_655 S
C1361 C178 1.661 . S
C1366 C318 1.649 . S
C1371 C458 1.649 . S
C1376 C198 1.661 1_455 S
C1381 C218 1.661 . S
C1386 C118 1.649 . S
C1391 C578 1.649 . S
C1396 C238 1.661 1_455 S
C1401 C259 1.661 . S
C1406 C239 1.649 . S
C1411 C279 1.661 1_655 S
C1416 C379 1.649 . S
C1421 C299 1.661 . S
C1426 C39 1.649 . S
C1431 C499 1.649 . S
C1436 C319 1.660 1_655 S
C1441 C338 1.661 . S
C1446 C478 1.649 . S
C1451 C358 1.661 . S
C1456 C298 1.649 . S
C1461 C378 1.661 . S
C1466 C598 1.649 . S
C1471 C398 1.661 . S
C1476 C98 1.649 . S
C1481 C419 1.660 . S
C1486 C399 1.649 . S
C1491 C219 1.649 . S
C1496 C439 1.661 . S
C1501 C519 1.649 . S
C1506 C459 1.661 . S
C1511 C479 1.661 . S
C1516 C19 1.649 . S
C1521 C638 1.649 . S
C1526 C498 1.660 1_556 S
C1531 C138 1.649 . S
C1536 C518 1.661 1_556 S
C1541 C438 1.649 . S
C1546 C538 1.661 . S
C1551 C558 1.660 . S
C1556 C258 1.649 . S
C1561 C559 1.649 . S
C1566 C579 1.660 1_554 S
C1571 C59 1.649 . S
C1576 C599 1.661 1_554 S
C1581 C359 1.649 . S
C1586 C619 1.661 . S
C1591 C639 1.660 . S
C1596 C179 1.649 . S
