# Generated by pormake.
# Topology sxb, (6)-cn, num edge types: 1
# Building blocks:
#     Node 0, Type 0, BuildingBlock: HISSIN_clean_sbu_0, # of connection points: 6
#     Node 1, Type 0, BuildingBlock: HISSIN_clean_sbu_0, # of connection points: 6
#     Node 2, Type 0, BuildingBlock: HISSIN_clean_sbu_0, # of connection points: 6
#     Node 3, Type 0, BuildingBlock: HISSIN_clean_sbu_0, # of connection points: 6
#     Edge 4, Type (0, 0), BuildingBlock: MIFKUJ_clean_linker_0, # of connection points: 2
#     Edge 5, Type (0, 0), BuildingBlock: MIFKUJ_clean_linker_0, # of connection points: 2
#     Edge 6, Type (0, 0), BuildingBlock: MIFKUJ_clean_linker_0, # of connection points: 2
#     Edge 7, Type (0, 0), BuildingBlock: MIFKUJ_clean_linker_0, # of connection points: 2
#     Edge 8, Type (0, 0), BuildingBlock: MIFKUJ_clean_linker_0, # of connection points: 2
#     Edge 9, Type (0, 0), BuildingBlock: MIFKUJ_clean_linker_0, # of connection points: 2
#     Edge 10, Type (0, 0), BuildingBlock: MIFKUJ_clean_linker_0, # of connection points: 2
#     Edge 11, Type (0, 0), BuildingBlock: MIFKUJ_clean_linker_0, # of connection points: 2
#     Edge 12, Type (0, 0), BuildingBlock: MIFKUJ_clean_linker_0, # of connection points: 2
#     Edge 13, Type (0, 0), BuildingBlock: MIFKUJ_clean_linker_0, # of connection points: 2
#     Edge 14, Type (0, 0), BuildingBlock: MIFKUJ_clean_linker_0, # of connection points: 2
#     Edge 15, Type (0, 0), BuildingBlock: MIFKUJ_clean_linker_0, # of connection points: 2
# Relax obj value: 0.276
# Max RMSD: 0.105
# Mean RMSD: 0.080
data_MOF--net-sxb--node1-HISSIN_clean_sbu_0--edge1-MIFKUJ_clean_linker_0
_symmetry_space_group_name_H-M    P1
_symmetry_Int_Tables_number       1
_symmetry_cell_setting            triclinic
loop_
_symmetry_equiv_pos_as_xyz
'x, y, z'
_cell_length_a     22.333091
_cell_length_b     43.577457
_cell_length_c     40.498594
_cell_angle_alpha  95.707198
_cell_angle_beta   96.614501
_cell_angle_gamma 73.27745
loop_
_atom_site_label
_atom_site_type_symbol
_atom_site_fract_x
_atom_site_fract_y
_atom_site_fract_z
_atom_type_partial_charge
Eu0 Eu 0.98923 0.04204 0.94415 0.0
Eu1 Eu 0.11615 0.05969 0.95638 0.0
C2 C 1.05083 0.04748 0.01907 0.0
C3 C 0.86164 1.01605 0.97123 0.0
C4 C 0.82945 0.04058 -0.00666 0.0
C5 C 0.86202 0.97679 0.01012 0.0
C6 C 0.81495 0.03339 0.02369 0.0
C7 C 0.87681 0.984 0.9797 0.0
C8 C 0.83181 1.00149 0.03264 0.0
C9 C 0.88737 1.02425 0.94225 0.0
O10 O 0.15257 1.00365 0.94612 0.0
O11 O 1.06269 0.99203 0.95417 0.0
C12 C 0.12373 0.98162 0.95002 0.0
O13 O 1.01583 0.03999 0.89121 0.0
O14 O 0.16663 0.09024 -0.01373 0.0
O15 O 0.21459 0.05427 0.95004 0.0
O16 O 0.09431 0.06496 0.90073 0.0
C17 C 1.05573 0.05277 0.88004 0.0
O18 O 0.95227 0.09793 0.94005 0.0
O19 O 1.04305 0.111 0.95763 0.0
O20 O 0.10375 0.04272 0.00576 0.0
O21 O 0.88704 0.05414 0.94179 0.0
O22 O 0.94051 1.00471 0.9341 0.0
O23 O 0.99806 0.05369 -3e-05 0.0
C24 C 0.26751 0.06005 0.0033 0.0
C25 C 0.27731 1.02809 0.01088 0.0
C26 C 0.33545 0.0682 0.05257 0.0
C27 C 0.31674 1.01613 0.03878 0.0
C28 C 0.29644 0.08008 0.02446 0.0
C29 C 0.34619 0.03607 0.05989 0.0
C30 C 0.22061 0.0736 0.97623 0.0
C31 C 0.98152 0.12057 0.9488 0.0
H32 H 0.81685 0.06554 -0.01231 0.0
H33 H 0.87508 0.95195 0.01626 0.0
H34 H 0.78987 0.05287 0.04005 0.0
H35 H 0.90186 0.96456 0.96328 0.0
H36 H 0.2539 1.01244 -0.00454 0.0
H37 H 0.3584 0.08394 0.06816 0.0
H38 H 0.32426 0.9913 0.04388 0.0
H39 H 0.28826 0.10499 0.01944 0.0
Eu40 Eu 0.09083 1.01022 0.44781 0.0
Eu41 Eu 1.04672 0.08341 0.45101 0.0
C42 C 0.074 0.04916 0.51985 0.0
C43 C 0.09701 0.92652 0.46157 0.0
C44 C 1.04946 0.93979 0.48288 0.0
C45 C 0.07996 0.87431 0.46274 0.0
C46 C 1.01614 0.92064 0.49332 0.0
C47 C 0.11327 0.89362 0.45213 0.0
C48 C 1.02993 0.88797 0.48256 0.0
C49 C 0.12458 0.94789 0.44691 0.0
O50 O 0.15907 0.07464 0.4499 0.0
O51 O 0.19195 1.02049 0.45217 0.0
C52 C 0.20796 0.04784 0.45122 0.0
O53 O 0.09995 1.0217 0.39559 0.0
O54 O 0.99548 0.12983 0.47317 0.0
O55 O 1.04208 0.12749 0.42855 0.0
O56 O 1.02318 0.06839 0.3967 0.0
C57 C 1.05986 0.04475 0.37961 0.0
O58 O 0.97768 1.01899 0.44435 0.0
O59 O 0.947 0.07324 0.45385 0.0
O60 O 0.078 0.07402 0.50541 0.0
O61 O 0.08866 0.96388 0.42293 0.0
O62 O 0.14982 0.96605 0.46831 0.0
O63 O 1.06885 1.02338 0.50156 0.0
C64 C 1.04609 0.16983 0.46841 0.0
C65 C 1.06569 0.1884 0.44778 0.0
C66 C 0.10303 0.19035 0.51617 0.0
C67 C 0.10578 0.20671 0.46099 0.0
C68 C 1.06356 0.17166 0.50291 0.0
C69 C 0.12606 0.20707 0.49509 0.0
C70 C 1.01461 0.1459 0.45304 0.0
C71 C 0.92995 0.04582 0.44923 0.0
H72 H 1.03632 0.96526 0.49028 0.0
H73 H 0.09087 0.84919 0.45392 0.0
H74 H 0.97796 0.93157 0.50876 0.0
H75 H 0.14974 0.88319 0.43554 0.0
H76 H 1.05261 0.18743 0.42117 0.0
H77 H 0.11834 0.1903 0.54255 0.0
H78 H 0.12262 0.21977 0.4444 0.0
H79 H 1.04928 0.15755 0.51946 0.0
Eu80 Eu 0.48653 0.54053 0.94301 0.0
Eu81 Eu 0.61353 0.55971 0.95646 0.0
C82 C 0.54815 0.54644 0.01862 0.0
C83 C 0.36464 0.5009 0.95503 0.0
C84 C 0.41123 0.4743 0.96748 0.0
C85 C 0.28749 0.48635 -0.01725 0.0
C86 C 0.396 0.45395 -0.01229 0.0
C87 C 0.30261 0.50648 0.96236 0.0
C88 C 0.33427 0.46035 -0.00383 0.0
C89 C 0.38171 0.5249 0.93798 0.0
O90 O 0.64761 0.50313 0.95781 0.0
O91 O 0.55712 0.48912 0.94248 0.0
C92 C 0.61879 0.48013 0.95028 0.0
O93 O 0.50996 0.54172 0.89052 0.0
O94 O 0.6744 0.5851 -0.01357 0.0
O95 O 0.71102 0.55118 0.94604 0.0
O96 O 0.59317 0.56336 0.90026 0.0
C97 C 0.55225 0.55282 0.87957 0.0
O98 O 0.45214 0.5975 0.94373 0.0
O99 O 0.54453 0.61125 0.95253 0.0
O100 O 0.5805 0.56347 0.00784 0.0
O101 O 0.39174 0.54898 0.9574 0.0
O102 O 0.42418 0.51382 0.91692 0.0
O103 O 0.5165 0.53097 -0.00263 0.0
C104 C 0.7719 0.54775 -0.00292 0.0
C105 C 0.83465 0.54808 -0.00061 0.0
C106 C 0.79955 0.50527 0.03543 0.0
C107 C 0.87987 0.52683 0.01941 0.0
C108 C 0.75447 0.52664 0.01569 0.0
C109 C 0.86285 0.50481 0.03712 0.0
C110 C 0.72463 0.56708 0.9735 0.0
C111 C 0.4821 0.62036 0.94797 0.0
H112 H 0.4597 0.46985 0.96246 0.0
H113 H 0.23926 0.49142 -0.01148 0.0
H114 H 0.43272 0.43405 -0.00224 0.0
H115 H 0.26626 0.52699 0.95321 0.0
H116 H 0.84891 0.56402 -0.015 0.0
H117 H 0.78511 0.48871 0.04887 0.0
H118 H 0.92856 0.52664 0.01987 0.0
H119 H 0.70609 0.52605 0.0142 0.0
Eu120 Eu 0.56089 0.50437 0.44617 0.0
Eu121 Eu 0.52098 0.57755 0.45044 0.0
C122 C 0.54943 0.5421 0.5181 0.0
C123 C 0.59356 0.41759 0.46652 0.0
C124 C 0.59516 0.42107 0.50148 0.0
C125 C 0.56183 0.36897 0.46655 0.0
C126 C 0.57948 0.39879 0.5188 0.0
C127 C 0.5782 0.39103 0.44931 0.0
C128 C 0.56117 0.37291 0.50145 0.0
C129 C 0.60449 0.44217 0.44755 0.0
O130 O 0.63203 0.5704 0.45039 0.0
O131 O 0.66126 0.51592 0.44661 0.0
C132 C 0.67925 0.54312 0.44856 0.0
O133 O 0.54211 0.5137 0.3913 0.0
O134 O 0.49612 0.62286 0.48065 0.0
O135 O 0.48055 0.62283 0.42703 0.0
O136 O 0.54228 0.56611 0.39649 0.0
C137 C 0.54265 0.53973 0.3778 0.0
O138 O 0.44991 0.51192 0.44751 0.0
O139 O 0.42011 0.56635 0.44875 0.0
O140 O 0.55819 0.56572 0.50351 0.0
O141 O 0.55809 0.45618 0.42661 0.0
O142 O 0.63167 0.4624 0.46429 0.0
O143 O 0.5374 0.51775 0.49972 0.0
C144 C 0.51735 0.66401 0.45603 0.0
C145 C 0.57671 0.65504 0.44391 0.0
C146 C 0.53356 0.71498 0.47829 0.0
C147 C 0.61489 0.67554 0.44965 0.0
C148 C 0.49533 0.69427 0.47268 0.0
C149 C 0.59427 0.70529 0.46761 0.0
C150 C 0.48261 0.6402 0.45501 0.0
C151 C 0.40244 0.53918 0.44821 0.0
H152 H 0.60691 0.44141 0.51543 0.0
H153 H 0.54673 0.34972 0.45227 0.0
H154 H 0.58007 0.40232 0.54567 0.0
H155 H 0.57665 0.38798 0.42236 0.0
H156 H 0.59452 0.63169 0.43107 0.0
H157 H 0.51691 0.73783 0.49227 0.0
H158 H 0.66121 0.6678 0.44075 0.0
H159 H 0.44978 0.70132 0.48244 0.0
H160 H 0.5178 0.67518 0.97633 0.0
H161 H 0.46075 0.73216 0.97839 0.0
H162 H 0.30319 0.70992 0.91987 0.0
H163 H 0.35894 0.65241 0.92046 0.0
H164 H 0.24665 0.75906 0.94524 0.0
H165 H 0.45427 0.81126 -0.00811 0.0
H166 H 0.56791 0.7995 -0.0131 0.0
H167 H 0.54865 0.74436 0.89434 0.0
H168 H 0.43483 0.75605 0.89865 0.0
H169 H 0.09315 0.92979 0.97453 0.0
H170 H 0.15019 0.87283 0.97578 0.0
H171 H 0.29586 0.88899 0.92466 0.0
H172 H 0.24067 0.94659 0.92597 0.0
H173 H 0.35778 0.84278 0.95056 0.0
H174 H 0.15926 0.84085 0.89479 0.0
H175 H 1.044 0.85224 0.8858 0.0
H176 H 1.04299 0.8061 0.97454 0.0
H177 H 0.15822 0.79471 -0.01579 0.0
C178 C 0.47101 0.68204 0.96366 0.0
C179 C 0.44495 0.65742 0.94802 0.0
C180 C 0.43756 0.71577 0.96435 0.0
C181 C 0.3759 0.72812 0.94823 0.0
C182 C 0.34976 0.70328 0.93275 0.0
C183 C 0.38263 0.6694 0.93291 0.0
C184 C 0.33904 0.7657 0.94796 0.0
C185 C 0.27221 0.77689 0.94655 0.0
C186 C 0.36809 0.79135 0.94855 0.0
C187 C 0.43628 0.7842 0.94582 0.0
C188 C 0.47433 0.79667 0.97046 0.0
C189 C 0.53874 0.79001 0.96776 0.0
C190 C 0.56551 0.77109 0.94039 0.0
C191 C 0.52789 0.7589 0.91559 0.0
C192 C 0.46345 0.76552 0.91816 0.0
C193 C 0.1373 0.92156 0.96337 0.0
C194 C 0.16037 0.94452 0.94998 0.0
C195 C 0.17062 0.88782 0.96358 0.0
C196 C 0.22888 0.87377 0.94924 0.0
C197 C 0.25201 0.897 0.93608 0.0
C198 C 0.21942 0.93091 0.93665 0.0
C199 C 0.26551 0.83615 0.94843 0.0
C200 C 0.33227 0.82496 0.94951 0.0
C201 C 0.23625 0.81043 0.946 0.0
C202 C 0.16718 0.81727 0.94041 0.0
C203 C 0.13436 0.83329 0.91246 0.0
C204 C 1.06908 0.83973 0.90724 0.0
C205 C 1.03618 0.82999 0.92965 0.0
C206 C 1.06853 0.81369 0.95726 0.0
C207 C 0.13381 0.80722 0.96261 0.0
H208 H 0.98564 0.835 0.92557 0.0
H209 H 0.61539 0.76594 0.93836 0.0
H210 H 0.57755 0.42435 0.93375 0.0
H211 H 0.63518 0.36722 0.93307 0.0
H212 H 0.80605 0.39191 0.9673 0.0
H213 H 0.74832 0.44933 0.96706 0.0
H214 H 0.84645 0.34067 0.93146 0.0
H215 H 0.70643 0.35315 0.01562 0.0
H216 H 0.60426 0.36871 0.03946 0.0
H217 H 0.53746 0.30491 0.96642 0.0
H218 H 0.63906 0.28923 0.9419 0.0
H219 H 1.02378 0.1761 0.96625 0.0
H220 H 0.96687 0.23338 0.96741 0.0
H221 H 0.79537 0.20959 0.93263 0.0
H222 H 0.85234 0.15208 0.93227 0.0
H223 H 0.75561 0.26055 0.9692 0.0
H224 H 0.89776 0.24837 0.88523 0.0
H225 H 1.00023 0.23395 0.8618 0.0
H226 H 1.06403 0.29793 0.93591 0.0
H227 H 0.96215 0.31244 0.96001 0.0
C228 C 0.62742 0.41806 0.94132 0.0
C229 C 0.65645 0.4432 0.95055 0.0
C230 C 0.66129 0.38442 0.94126 0.0
C231 C 0.72705 0.37297 0.95083 0.0
C232 C 0.75619 0.39819 0.95972 0.0
C233 C 0.72228 0.43191 0.9597 0.0
C234 C 0.76463 0.33571 0.95121 0.0
C235 C 0.82599 0.32362 0.94028 0.0
C236 C 0.74087 0.31127 0.96185 0.0
C237 C 0.68011 0.32027 0.97673 0.0
C238 C 0.66984 0.34255 0.00455 0.0
C239 C 0.61204 0.35139 0.01818 0.0
C240 C 0.56432 0.33789 0.00439 0.0
C241 C 0.57443 0.31539 0.97703 0.0
C242 C 0.63213 0.3065 0.96328 0.0
C243 C 0.97394 0.18262 0.9586 0.0
C244 C 0.94454 0.15767 0.94894 0.0
C245 C 0.94047 0.21636 0.95897 0.0
C246 C 0.87475 0.22812 0.9494 0.0
C247 C 0.84524 0.20309 0.94018 0.0
C248 C 0.87874 0.1693 0.93984 0.0
C249 C 0.83744 0.26546 0.94933 0.0
C250 C 0.77609 0.27757 0.96035 0.0
C251 C 0.86137 0.28996 0.93894 0.0
C252 C 0.92261 0.28121 0.92463 0.0
C253 C 0.93381 0.25919 0.89666 0.0
C254 C 0.99176 0.25103 0.88324 0.0
C255 C 1.03868 0.26494 0.89742 0.0
C256 C 1.02769 0.28711 0.92499 0.0
C257 C 0.96986 0.29533 0.93853 0.0
H258 H 0.08349 0.25859 0.887 0.0
H259 H 0.51957 0.3448 0.01494 0.0
H260 H 0.23864 0.19706 0.47114 0.0
H261 H 0.32054 0.22318 0.49105 0.0
H262 H 0.20709 0.27755 0.56796 0.0
H263 H 0.12469 0.25109 0.54812 0.0
H264 H 0.25131 0.31392 0.52575 0.0
H265 H 0.333 0.22403 0.593 0.0
H266 H 0.36469 0.16644 0.60303 0.0
H267 H 0.5044 0.14819 0.53358 0.0
H268 H 0.47271 0.20555 0.52255 0.0
H269 H 0.48465 0.39093 0.55229 0.0
H270 H 0.42134 0.36019 0.57121 0.0
H271 H 0.50957 0.27843 0.50707 0.0
H272 H 0.57627 0.30825 0.48976 0.0
H273 H 0.47451 0.25822 0.55836 0.0
H274 H 0.37966 0.33703 0.47825 0.0
H275 H 0.34505 0.39094 0.45668 0.0
H276 H 0.22914 0.42612 0.5375 0.0
H277 H 0.26369 0.37243 0.55977 0.0
C278 C 0.23134 0.21452 0.49235 0.0
C279 C 0.17543 0.22246 0.50797 0.0
C280 C 0.27828 0.2291 0.50392 0.0
C281 C 0.26987 0.25192 0.53117 0.0
C282 C 0.21435 0.25971 0.54709 0.0
C283 C 0.16754 0.24474 0.53576 0.0
C284 C 0.31696 0.26965 0.54055 0.0
C285 C 0.29979 0.30212 0.534 0.0
C286 C 0.38035 0.25365 0.54999 0.0
C287 C 0.40038 0.21916 0.55695 0.0
C288 C 0.37026 0.20772 0.57972 0.0
C289 C 0.38819 0.1751 0.58555 0.0
C290 C 0.43644 0.15366 0.56889 0.0
C291 C 0.46696 0.16482 0.54641 0.0
C292 C 0.44911 0.19741 0.54041 0.0
C293 C 0.4927 0.36597 0.54327 0.0
C294 C 0.53439 0.35226 0.51881 0.0
C295 C 0.45597 0.34852 0.55394 0.0
C296 C 0.45937 0.31745 0.53971 0.0
C297 C 0.50567 0.30254 0.51808 0.0
C298 C 0.54319 0.31977 0.50786 0.0
C299 C 0.40908 0.30241 0.5429 0.0
C300 C 0.42564 0.27043 0.5515 0.0
C301 C 0.34522 0.31848 0.53403 0.0
C302 C 0.32504 0.35088 0.52098 0.0
C303 C 0.34728 0.35635 0.4916 0.0
C304 C 0.32761 0.38683 0.47922 0.0
C305 C 0.28521 0.41198 0.49582 0.0
C306 C 0.26221 0.40665 0.52477 0.0
C307 C 0.28183 0.37621 0.53729 0.0
H308 H 0.26996 0.43555 0.48617 0.0
H309 H 0.45024 0.12841 0.57343 0.0
H310 H 1.06067 0.82845 0.50663 0.0
H311 H 0.98844 0.79662 0.51274 0.0
H312 H 0.83237 0.87337 0.47601 0.0
H313 H 0.90355 0.90551 0.4711 0.0
H314 H 0.80209 0.8487 0.527 0.0
H315 H 0.90152 0.8091 0.42528 0.0
H316 H 0.9907 0.78573 0.3913 0.0
H317 H 1.04748 0.70197 0.44755 0.0
H318 H 0.95924 0.72513 0.48226 0.0
H319 H 0.57237 0.7693 0.46032 0.0
H320 H 0.64856 0.80071 0.4716 0.0
H321 H 0.78944 0.71717 0.50693 0.0
H322 H 0.71414 0.68561 0.49524 0.0
H323 H 0.83244 0.74315 0.46282 0.0
H324 H 0.72244 0.7813 0.56022 0.0
H325 H 0.63033 0.80518 0.59196 0.0
H326 H 0.59018 0.89226 0.54205 0.0
H327 H 0.68149 0.86874 0.50961 0.0
C328 C 1.0108 0.83852 0.50032 0.0
C329 C 0.98737 0.86934 0.48859 0.0
C330 C 0.96977 0.82042 0.50375 0.0
C331 C 0.90521 0.83275 0.49474 0.0
C332 C 0.88188 0.86373 0.48358 0.0
C333 C 0.92256 0.88196 0.48069 0.0
C334 C 0.86169 0.81306 0.49526 0.0
C335 C 0.80844 0.82565 0.5129 0.0
C336 C 0.8709 0.78281 0.4773 0.0
C337 C 0.92426 0.76901 0.45662 0.0
C338 C 0.93339 0.78584 0.43061 0.0
C339 C 0.98372 0.77262 0.41119 0.0
C340 C 1.02486 0.74244 0.41733 0.0
C341 C 1.01569 0.72539 0.44288 0.0
C342 C 0.96554 0.73855 0.46243 0.0
C343 C 0.61941 0.75787 0.47092 0.0
C344 C 0.63783 0.7251 0.47663 0.0
C345 C 0.66271 0.77577 0.47748 0.0
C346 C 0.72446 0.76117 0.49032 0.0
C347 C 0.74207 0.72871 0.49699 0.0
C348 C 0.69918 0.71078 0.49018 0.0
C349 C 0.77229 0.77887 0.49433 0.0
C350 C 0.82639 0.76594 0.47742 0.0
C351 C 0.7635 0.80889 0.51274 0.0
C352 C 0.70853 0.82311 0.53225 0.0
C353 C 0.69367 0.80544 0.55579 0.0
C354 C 0.64164 0.81893 0.57395 0.0
C355 C 0.60433 0.85018 0.56896 0.0
C356 C 0.61906 0.86804 0.54585 0.0
C357 C 0.67098 0.85464 0.52759 0.0
H358 H 0.56408 0.86059 0.58305 0.0
H359 H 1.06374 0.73222 0.40224 0.0
H360 H 0.35812 0.06084 0.12456 0.0
H361 H 0.4524 0.04623 0.16372 0.0
H362 H 0.53579 0.96769 0.09463 0.0
H363 H 0.44155 0.98128 0.05657 0.0
H364 H 0.5929 0.9565 0.15652 0.0
H365 H 0.53306 0.05315 0.0825 0.0
H366 H 0.46084 0.10643 0.07075 0.0
H367 H 0.4781 0.13743 0.17459 0.0
H368 H 0.55041 0.08425 0.18681 0.0
H369 H 0.7787 0.95449 0.0418 0.0
H370 H 0.72115 0.95218 0.08803 0.0
H371 H 0.78337 1.02994 0.14157 0.0
H372 H 0.84072 1.0326 0.09449 0.0
H373 H 0.66817 0.04812 0.13392 0.0
H374 H 0.79168 0.95737 0.18226 0.0
H375 H 0.86743 0.90402 0.1877 0.0
H376 H 0.73504 0.85973 0.13206 0.0
H377 H 0.65899 0.91276 0.12553 0.0
C378 C 0.39584 0.03974 0.11847 0.0
C379 C 0.39353 1.0227 0.08721 0.0
C380 C 0.44948 1.0313 0.1409 0.0
C381 C 0.50208 1.00657 0.13164 0.0
C382 C 0.49613 0.987 0.1024 0.0
C383 C 0.44223 0.99496 0.08039 0.0
C384 C 0.56655 1.00623 0.14581 0.0
C385 C 0.61009 0.97655 0.15241 0.0
C386 C 0.58908 1.03296 0.14281 0.0
C387 C 0.54655 0.06491 0.13555 0.0
C388 C 0.52146 0.07144 0.10273 0.0
C389 C 0.4805 0.10154 0.09602 0.0
C390 C 0.46479 0.12528 0.12192 0.0
C391 C 0.49022 0.119 0.15457 0.0
C392 C 0.53118 0.08892 0.16141 0.0
C393 C 0.78246 0.97018 0.06396 0.0
C394 C 0.81272 0.99428 0.06417 0.0
C395 C 0.74987 0.96865 0.0908 0.0
C396 C 0.74743 0.99098 0.11859 0.0
C397 C 0.78389 1.01265 0.12038 0.0
C398 C 0.81623 1.01432 0.09336 0.0
C399 C 0.6945 0.9971 0.13978 0.0
C400 C 0.65301 1.02817 0.14048 0.0
C401 C 0.67442 0.97159 0.14946 0.0
C402 C 0.71927 0.93924 0.15362 0.0
C403 C 0.77868 0.93629 0.17108 0.0
C404 C 0.82176 0.90606 0.17433 0.0
C405 C 0.80598 0.8785 0.16033 0.0
C406 C 0.74708 0.8811 0.14303 0.0
C407 C 0.70385 0.91128 0.13964 0.0
H408 H 0.83942 0.85511 0.16284 0.0
H409 H 0.43299 0.14855 0.1167 0.0
H410 H 0.26926 0.09947 0.4592 0.0
H411 H 0.37892 0.09981 0.46083 0.0
H412 H 0.4351 0.99716 0.44425 0.0
H413 H 0.32502 0.99689 0.44456 0.0
H414 H 0.53925 1.00103 0.46836 0.0
H415 H 0.43646 0.08096 0.38705 0.0
H416 H 0.35872 0.13094 0.36961 0.0
H417 H 0.42498 0.184 0.45403 0.0
H418 H 0.5032 0.13435 0.47178 0.0
H419 H 0.86795 0.99431 0.44085 0.0
H420 H 0.75802 0.9942 0.44084 0.0
H421 H 0.70377 0.09668 0.45907 0.0
H422 H 0.81385 0.0967 0.45821 0.0
H423 H 0.59894 0.09331 0.43476 0.0
H424 H 0.70281 1.01927 0.51527 0.0
H425 H 0.77618 0.97175 0.54029 0.0
H426 H 0.7068 0.90981 0.46612 0.0
H427 H 0.63352 0.95704 0.44033 0.0
C428 C 0.3039 0.07652 0.45564 0.0
C429 C 0.28208 0.04818 0.4515 0.0
C430 C 0.36994 0.07667 0.45603 0.0
C431 C 0.4228 0.04855 0.45143 0.0
C432 C 0.40069 1.02019 0.44769 0.0
C433 C 0.33471 1.02001 0.44778 0.0
C434 C 0.49776 0.04828 0.45101 0.0
C435 C 0.55047 1.02149 0.46022 0.0
C436 C 0.52066 0.07418 0.44204 0.0
C437 C 0.47505 0.10399 0.4309 0.0
C438 C 0.4344 0.10333 0.40181 0.0
C439 C 0.39031 0.13157 0.39188 0.0
C440 C 0.3868 0.16061 0.41075 0.0
C441 C 0.42769 0.16151 0.43945 0.0
C442 C 0.47197 0.13335 0.44942 0.0
C443 C 0.83366 1.01726 0.44505 0.0
C444 C 0.85593 0.0455 0.44959 0.0
C445 C 0.76767 1.01724 0.44546 0.0
C446 C 0.71536 0.04542 0.45079 0.0
C447 C 0.73784 0.07365 0.45495 0.0
C448 C 0.80381 0.07368 0.45452 0.0
C449 C 0.6405 0.04579 0.4515 0.0
C450 C 0.58785 0.07264 0.44248 0.0
C451 C 0.61776 1.02012 0.46121 0.0
C452 C 0.66327 0.99171 0.47562 0.0
C453 C 0.70368 0.99553 0.50407 0.0
C454 C 0.74515 0.96865 0.51842 0.0
C455 C 0.7462 0.9378 0.50477 0.0
C456 C 0.706 0.93374 0.47661 0.0
C457 C 0.66453 0.96056 0.46209 0.0
H458 H 0.77791 0.91705 0.51616 0.0
H459 H 0.35247 0.18241 0.4031 0.0
H460 H 0.87397 0.44051 0.03423 0.0
H461 H 0.9671 0.3981 0.05229 0.0
H462 H 1.05587 0.4702 0.09642 0.0
H463 H 0.96289 0.5123 0.07908 0.0
H464 H 1.0656 0.39359 0.02327 0.0
H465 H 0.17037 0.44791 0.14926 0.0
H466 H 0.13871 0.46381 0.20609 0.0
H467 H 1.01138 0.4053 0.1905 0.0
H468 H 1.04298 0.38849 0.1337 0.0
H469 H 0.2725 0.48238 0.05105 0.0
H470 H 0.22004 0.45354 0.08074 0.0
H471 H 0.30768 0.36517 0.02527 0.0
H472 H 0.35915 0.39472 -0.00558 0.0
H473 H 0.2261 0.40291 0.11595 0.0
H474 H 0.2006 0.33076 0.00235 0.0
H475 H 0.22459 0.32109 0.94348 0.0
H476 H 0.18034 0.42279 0.93468 0.0
H477 H 0.15574 0.43291 -0.00659 0.0
C478 C 0.91241 0.44721 0.04905 0.0
C479 C 0.91191 0.47967 0.05472 0.0
C480 C 0.96551 0.42292 0.05947 0.0
C481 C 1.01867 0.43077 0.07581 0.0
C482 C 1.01533 0.46327 0.08444 0.0
C483 C 0.9625 0.48747 0.07396 0.0
C484 C 0.08168 0.40725 0.07549 0.0
C485 C 0.10068 0.39417 0.04405 0.0
C486 C 0.12781 0.40684 0.10261 0.0
C487 C 0.10957 0.41665 0.13712 0.0
C488 C 0.13631 0.43799 0.158 0.0
C489 C 0.11812 0.44731 0.19023 0.0
C490 C 0.07318 0.43552 0.20193 0.0
C491 C 1.04624 0.41441 0.18141 0.0
C492 C 1.06423 0.405 0.14917 0.0
C493 C 0.28181 0.45665 0.04576 0.0
C494 C 0.31769 0.44093 0.01967 0.0
C495 C 0.25263 0.43997 0.06315 0.0
C496 C 0.25854 0.40724 0.05468 0.0
C497 C 0.30155 0.39052 0.03181 0.0
C498 C 0.33078 0.40739 0.01416 0.0
C499 C 0.20755 0.39459 0.06303 0.0
C500 C 0.19097 0.40002 0.096 0.0
C501 C 0.16308 0.38839 0.03732 0.0
C502 C 0.17676 0.3825 0.00206 0.0
C503 C 0.1959 0.35097 -0.01227 0.0
C504 C 0.20959 0.34544 0.95445 0.0
C505 C 0.20408 0.37131 0.93537 0.0
C506 C 0.18457 0.40278 0.94947 0.0
C507 C 0.17059 0.40843 -0.01732 0.0
H508 H 0.21488 0.36697 0.90965 0.0
H509 H 1.05914 0.4428 0.22687 0.0
H510 H 0.34257 0.48847 0.45246 0.0
H511 H 0.23321 0.48856 0.45387 0.0
H512 H 0.17339 0.59041 0.44527 0.0
H513 H 0.28385 0.59034 0.44522 0.0
H514 H 0.07922 0.58742 0.47159 0.0
H515 H 0.14711 0.50626 0.38067 0.0
H516 H 0.21616 0.45606 0.35654 0.0
H517 H 0.18208 0.40376 0.43351 0.0
H518 H 0.11307 0.45369 0.45812 0.0
H519 H 0.74004 0.59413 0.44807 0.0
H520 H 0.84972 0.59398 0.44733 0.0
H521 H 0.90774 0.49135 0.44936 0.0
H522 H 0.79715 0.4916 0.44884 0.0
H523 H 1.00332 0.49433 0.42683 0.0
H524 H 0.93885 0.56943 0.51802 0.0
H525 H 0.87631 0.61714 0.54923 0.0
H526 H 0.90806 0.67825 0.48018 0.0
H527 H 0.9708 0.6308 0.44847 0.0
C528 C 0.30713 0.51133 0.45061 0.0
C529 C 0.32814 0.53934 0.44844 0.0
C530 C 0.24116 0.51139 0.45096 0.0
C531 C 0.1873 0.5394 0.44861 0.0
C532 C 0.20865 0.56749 0.44691 0.0
C533 C 0.27476 0.56746 0.44678 0.0
C534 C 0.11224 0.53975 0.44839 0.0
C535 C 1.06413 0.56675 0.46101 0.0
C536 C 0.08506 0.51363 0.43633 0.0
C537 C 0.12538 0.48366 0.42129 0.0
C538 C 0.1544 0.48403 0.39239 0.0
C539 C 0.19353 0.45564 0.37866 0.0
C540 C 0.20359 0.42675 0.39352 0.0
C541 C 0.17425 0.42615 0.42203 0.0
C542 C 0.13506 0.45446 0.43584 0.0
C543 C 0.77517 0.57108 0.44853 0.0
C544 C 0.75364 0.54292 0.44869 0.0
C545 C 0.84129 0.57094 0.44854 0.0
C546 C 0.89477 0.54265 0.44925 0.0
C547 C 0.87287 0.51447 0.44903 0.0
C548 C 0.80664 0.51459 0.44881 0.0
C549 C 0.96995 0.5422 0.44963 0.0
C550 C 1.01812 0.51516 0.43711 0.0
C551 C 0.99743 0.56805 0.46243 0.0
C552 C 0.95883 0.59658 0.4807 0.0
C553 C 0.93213 0.59303 0.50938 0.0
C554 C 0.8968 0.62 0.52718 0.0
C555 C 0.88825 0.65067 0.51668 0.0
C556 C 0.91482 0.65445 0.48828 0.0
C557 C 0.95031 0.62753 0.47039 0.0
H558 H 0.86135 0.67147 0.53074 0.0
H559 H 0.23406 0.40483 0.38293 0.0
H560 H 0.14836 1.00983 0.33826 0.0
H561 H 0.1451 1.00974 0.27745 0.0
H562 H 0.96138 0.07736 0.27509 0.0
H563 H 0.96499 0.07839 0.3361 0.0
H564 H 1.0061 1.00647 0.22457 0.0
H565 H 1.02779 0.11554 0.26126 0.0
H566 H 0.0823 0.1504 0.2968 0.0
H567 H 0.25768 0.09621 0.26013 0.0
H568 H 0.20422 0.0607 0.22479 0.0
H569 H 0.95152 0.05016 0.05516 0.0
H570 H 0.95219 0.04807 0.11545 0.0
H571 H 0.151 0.0384 0.12722 0.0
H572 H 0.15052 0.04077 0.06711 0.0
H573 H 0.10087 0.07853 0.17423 0.0
H574 H 0.08634 0.97688 0.13098 0.0
H575 H 1.04846 0.93437 0.09834 0.0
H576 H 0.88158 0.96171 0.14976 0.0
H577 H 0.91605 1.00598 0.18115 0.0
C578 C 0.10711 1.02469 0.32488 0.0
C579 C 1.05696 0.04417 0.34232 0.0
C580 C 0.10536 1.02459 0.29002 0.0
C581 C 1.05303 0.04353 0.27153 0.0
C582 C 1.00236 0.06256 0.28872 0.0
C583 C 1.00457 0.06317 0.32368 0.0
C584 C 1.05197 0.04388 0.23443 0.0
C585 C 1.02548 1.02266 0.21336 0.0
C586 C 0.08039 0.06371 0.21988 0.0
C587 C 0.11219 0.08527 0.24076 0.0
C588 C 0.07806 0.11087 0.26107 0.0
C589 C 0.10874 0.13079 0.2811 0.0
C590 C 0.17345 0.12546 0.28082 0.0
C591 C 0.20759 0.10027 0.26039 0.0
C592 C 0.17712 0.08026 0.24035 0.0
C593 C 0.99548 0.04759 0.07052 0.0
C594 C 1.05098 0.0457 0.05597 0.0
C595 C 0.99586 0.04622 0.10517 0.0
C596 C 1.05173 0.04289 0.12635 0.0
C597 C 0.10708 0.04107 0.11179 0.0
C598 C 0.1068 0.04231 0.07719 0.0
C599 C 1.05253 0.04184 0.16357 0.0
C600 C 0.08004 0.06262 0.18492 0.0
C601 C 1.02626 1.02089 0.17826 0.0
C602 C 1.00341 0.99535 0.15806 0.0
C603 C 1.0407 0.97453 0.13475 0.0
C604 C 1.01972 0.95009 0.1164 0.0
C605 C 0.96221 0.94562 0.12168 0.0
C606 C 0.92561 0.96556 0.14535 0.0
C607 C 0.94562 0.99052 0.16324 0.0
H608 H 0.94622 0.92655 0.10765 0.0
H609 H 0.19712 0.1409 0.29635 0.0
H610 H 0.10807 0.08926 0.84648 0.0
H611 H 0.11143 0.08956 0.78617 0.0
H612 H 1.01272 1.01702 0.76915 0.0
H613 H 1.00818 1.01697 0.82937 0.0
H614 H 0.11797 1.00388 0.7314 0.0
H615 H 0.9357 0.0917 0.75385 0.0
H616 H 0.87898 0.14256 0.78255 0.0
H617 H 1.00064 0.19067 0.74822 0.0
H618 H 1.0587 0.13994 0.71969 0.0
H619 H 1.04555 1.00643 0.55664 0.0
H620 H 1.04281 1.00805 0.61683 0.0
H621 H 0.10024 0.0952 0.62852 0.0
H622 H 0.10049 0.09436 0.56787 0.0
H623 H 1.0191 0.10154 0.67002 0.0
H624 H 0.20229 1.01674 0.64819 0.0
H625 H 0.26582 0.96667 0.62108 0.0
H626 H 0.15302 0.91379 0.65581 0.0
H627 H 0.08826 0.96364 0.68278 0.0
C628 C 0.08693 0.07337 0.82997 0.0
C629 C 1.0577 0.05314 0.84308 0.0
C630 C 0.08875 0.07364 0.79534 0.0
C631 C 1.06216 0.05339 0.77278 0.0
C632 C 1.03363 1.0329 0.78582 0.0
C633 C 1.03084 0.03301 0.82039 0.0
C634 C 1.06422 0.05346 0.73572 0.0
C635 C 0.09563 1.02513 0.71793 0.0
C636 C 1.0371 0.08139 0.71802 0.0
C637 C 1.00196 0.11194 0.73493 0.0
C638 C 0.95069 0.11306 0.75265 0.0
C639 C 0.91824 0.14188 0.76885 0.0
C640 C 0.93632 0.16981 0.7673 0.0
C641 C 0.98676 0.169 0.74944 0.0
C642 C 1.01942 0.14023 0.73323 0.0
C643 C 1.05785 1.02596 0.57192 0.0
C644 C 0.07371 0.05014 0.55708 0.0
C645 C 1.05665 1.02676 0.60664 0.0
C646 C 0.07263 0.05138 0.62792 0.0
C647 C 0.08787 0.07578 0.61309 0.0
C648 C 0.08826 0.07522 0.57822 0.0
C649 C 0.07266 0.05177 0.66536 0.0
C650 C 1.04168 0.08021 0.68333 0.0
C651 C 0.10121 1.02404 0.68337 0.0
C652 C 0.14004 0.99399 0.66723 0.0
C653 C 0.19075 0.99448 0.64985 0.0
C654 C 0.22702 0.96613 0.63454 0.0
C655 C 0.21336 0.93708 0.63665 0.0
C656 C 0.16349 0.93632 0.65416 0.0
C657 C 0.12702 0.96461 0.66949 0.0
H658 H 0.24151 0.91516 0.62478 0.0
H659 H 0.91115 0.1921 0.77986 0.0
H660 H 0.5749 0.58247 0.34272 0.0
H661 H 0.57683 0.58241 0.28256 0.0
H662 H 0.51273 0.49721 0.26825 0.0
H663 H 0.51376 0.49634 0.32873 0.0
H664 H 0.59216 0.49093 0.22619 0.0
H665 H 0.41441 0.5782 0.25288 0.0
H666 H 0.35683 0.62833 0.28251 0.0
H667 H 0.47414 0.67877 0.24788 0.0
H668 H 0.53296 0.62884 0.21837 0.0
H669 H 0.49836 0.50815 0.0513 0.0
H670 H 0.49727 0.50612 0.11154 0.0
H671 H 0.59413 0.57943 0.12981 0.0
H672 H 0.59579 0.58147 0.06977 0.0
H673 H 0.4954 0.59128 0.16892 0.0
H674 H 0.67203 0.50205 0.14168 0.0
H675 H 0.72393 0.45174 0.11037 0.0
H676 H 0.60042 0.40467 0.1446 0.0
H677 H 0.54719 0.45487 0.17577 0.0
C678 C 0.56112 0.56369 0.32683 0.0
C679 C 0.54376 0.53952 0.34081 0.0
C680 C 0.56181 0.56379 0.29218 0.0
C681 C 0.54346 0.54025 0.27023 0.0
C682 C 0.52694 0.51581 0.28424 0.0
C683 C 0.52736 0.51536 0.31899 0.0
C684 C 0.54178 0.54106 0.23291 0.0
C685 C 0.57007 0.51285 0.21378 0.0
C686 C 0.51393 0.5696 0.21612 0.0
C687 C 0.47845 0.59971 0.23368 0.0
C688 C 0.42817 0.59994 0.25176 0.0
C689 C 0.39528 0.62832 0.2685 0.0
C690 C 0.41192 0.6567 0.26714 0.0
C691 C 0.46136 0.65677 0.24894 0.0
C692 C 0.49445 0.62844 0.23218 0.0
C693 C 0.51954 0.52384 0.06809 0.0
C694 C 0.54725 0.54495 0.05541 0.0
C695 C 0.51904 0.52258 0.10265 0.0
C696 C 0.54593 0.5425 0.12552 0.0
C697 C 0.573 0.5638 0.11289 0.0
C698 C 0.57408 0.56485 0.0784 0.0
C699 C 0.54583 0.5413 0.1625 0.0
C700 C 0.51723 0.56941 0.18148 0.0
C701 C 0.57259 0.51263 0.17903 0.0
C702 C 0.60525 0.48229 0.1608 0.0
C703 C 0.65568 0.48103 0.14236 0.0
C704 C 0.68538 0.45252 0.12466 0.0
C705 C 0.66538 0.42505 0.12542 0.0
C706 C 0.61581 0.42598 0.144 0.0
C707 C 0.5859 0.45444 0.16172 0.0
H708 H 0.68836 0.40301 0.11166 0.0
H709 H 0.38641 0.67864 0.28014 0.0
H710 H 0.59195 0.58348 0.56447 0.0
H711 H 0.59453 0.5858 0.62533 0.0
H712 H 0.5142 0.50625 0.6175 0.0
H713 H 0.51227 0.50347 0.55661 0.0
H714 H 0.45565 0.55691 0.66192 0.0
H715 H 0.66603 0.4942 0.64216 0.0
H716 H 0.76852 0.48347 0.61952 0.0
H717 H 0.8002 0.56722 0.67554 0.0
H718 H 0.69743 0.57872 0.69817 0.0
H719 H 0.49545 0.52028 0.83022 0.0
H720 H 0.49733 0.51919 0.77013 0.0
H721 H 0.61257 0.58448 0.78388 0.0
H722 H 0.61298 0.58456 0.84456 0.0
H723 H 0.65314 0.54341 0.73596 0.0
H724 H 0.447 0.60744 0.75614 0.0
H725 H 0.34338 0.62156 0.77821 0.0
H726 H 0.30119 0.54074 0.72105 0.0
H727 H 0.40494 0.52587 0.69896 0.0
C728 C 0.57499 0.56636 0.57562 0.0
C729 C 0.55197 0.54324 0.55539 0.0
C730 C 0.57666 0.56768 0.61056 0.0
C731 C 0.5548 0.54613 0.6263 0.0
C732 C 0.53135 0.52319 0.60615 0.0
C733 C 0.53048 0.52156 0.57123 0.0
C734 C 0.55579 0.54769 0.66363 0.0
C735 C 0.49895 0.55353 0.67808 0.0
C736 C 0.61186 0.54447 0.68502 0.0
C737 C 0.67376 0.5375 0.67158 0.0
C738 C 0.69462 0.51048 0.64943 0.0
C739 C 0.75281 0.50423 0.63665 0.0
C740 C 0.79077 0.5247 0.64601 0.0
C741 C 0.7707 0.55142 0.66827 0.0
C742 C 0.71251 0.5578 0.6811 0.0
C743 C 0.52113 0.53457 0.82062 0.0
C744 C 0.55365 0.55274 0.84256 0.0
C745 C 0.52185 0.53407 0.78596 0.0
C746 C 0.55383 0.55235 0.77187 0.0
C747 C 0.58716 0.57022 0.79375 0.0
C748 C 0.58723 0.57034 0.82859 0.0
C749 C 0.55283 0.5524 0.73451 0.0
C750 C 0.60965 0.5469 0.71996 0.0
C751 C 0.49652 0.55649 0.71298 0.0
C752 C 0.434 0.56538 0.72613 0.0
C753 C 0.4158 0.59255 0.74845 0.0
C754 C 0.35702 0.60071 0.76094 0.0
C755 C 0.31579 0.58202 0.7511 0.0
C756 C 0.3332 0.55518 0.72868 0.0
C757 C 0.39197 0.54689 0.71614 0.0
H758 H 0.2703 0.58838 0.7608 0.0
H759 H 0.83581 0.51982 0.63609 0.0
loop_
_geom_bond_atom_site_label_1
_geom_bond_atom_site_label_2
_geom_bond_distance
_geom_bond_site_symmetry_2
_ccdc_geom_bond_type
Eu0 C9 2.828 . S
Eu0 O11 2.392 1_655 S
Eu0 O13 2.418 . S
Eu0 O18 2.373 1_565 S
Eu0 O21 2.488 . S
Eu0 O22 2.471 1_556 S
Eu0 O23 2.349 1_556 S
Eu1 O10 2.373 1_545 S
Eu1 O14 2.488 . S
Eu1 O15 2.471 1_554 S
Eu1 O16 2.349 1_554 S
Eu1 O19 2.392 1_455 S
Eu1 O20 2.418 . S
Eu1 C30 2.828 . S
C2 O20 1.244 . S
C2 O23 1.265 1_445 S
C3 C4 1.379 1_556 S
C3 C7 1.373 1_545 S
C3 C9 1.505 1_545 S
C4 C3 1.379 1_554 S
C4 C6 1.369 . S
C4 H32 0.930 . S
C5 C7 1.383 1_545 S
C5 C8 1.382 1_556 S
C5 H33 0.930 . S
C6 C4 1.369 . S
C6 C8 1.392 . S
C6 H34 0.930 . S
C7 C3 1.373 1_565 S
C7 C5 1.383 1_565 S
C7 H35 0.931 . S
C8 C5 1.382 1_554 S
C8 C6 1.392 . S
C9 Eu0 2.828 . S
C9 C3 1.505 1_565 S
C9 O21 1.249 . S
C9 O22 1.244 1_556 S
O10 Eu1 2.373 1_565 S
O10 C12 1.258 . S
O11 Eu0 2.392 1_455 S
O11 C12 1.242 1_556 S
C12 O10 1.258 . S
C12 O11 1.242 1_554 S
O13 Eu0 2.418 . S
O13 C17 1.244 . S
O14 Eu1 2.488 . S
O14 C30 1.249 . S
O15 Eu1 2.471 1_556 S
O15 C30 1.244 1_556 S
O16 Eu1 2.349 1_556 S
O16 C17 1.265 1_445 S
C17 O13 1.244 . S
C17 O16 1.265 1_665 S
O18 Eu0 2.373 1_545 S
O18 C31 1.258 1_556 S
O19 Eu1 2.392 1_655 S
O19 C31 1.242 . S
O20 Eu1 2.418 . S
O20 C2 1.244 . S
O21 Eu0 2.488 . S
O21 C9 1.249 . S
O22 Eu0 2.471 1_554 S
O22 C9 1.244 1_554 S
O23 Eu0 2.349 1_554 S
O23 C2 1.265 1_665 S
C24 C25 1.379 1_554 S
C24 C28 1.373 1_565 S
C24 C30 1.505 1_565 S
C25 C24 1.379 1_556 S
C25 C27 1.369 . S
C25 H36 0.930 . S
C26 C28 1.383 1_565 S
C26 C29 1.382 1_554 S
C26 H37 0.930 . S
C27 C25 1.369 . S
C27 C29 1.392 . S
C27 H38 0.930 . S
C28 C24 1.373 1_545 S
C28 C26 1.383 1_545 S
C28 H39 0.931 . S
C29 C26 1.382 1_556 S
C29 C27 1.392 . S
C30 Eu1 2.828 . S
C30 O14 1.249 . S
C30 O15 1.244 1_554 S
C30 C24 1.505 1_545 S
C31 O18 1.258 1_554 S
C31 O19 1.242 . S
H32 C4 0.930 . S
H33 C5 0.930 . S
H34 C6 0.930 . S
H35 C7 0.931 . S
H36 C25 0.930 . S
H37 C26 0.930 . S
H38 C27 0.930 . S
H39 C28 0.931 . S
Eu40 C49 2.828 1_455 S
Eu40 O51 2.392 . S
Eu40 O53 2.418 1_455 S
Eu40 O58 2.373 1_455 S
Eu40 O61 2.488 1_455 S
Eu40 O62 2.471 1_455 S
Eu40 O63 2.349 . S
Eu41 O50 2.373 1_655 S
Eu41 O54 2.488 1_655 S
Eu41 O55 2.471 1_655 S
Eu41 O56 2.349 . S
Eu41 O59 2.392 . S
Eu41 O60 2.418 1_655 S
Eu41 C70 2.828 1_655 S
C42 O60 1.244 . S
C42 O63 1.265 1_545 S
C43 C44 1.379 . S
C43 C47 1.373 . S
C43 C49 1.505 . S
C44 C43 1.379 . S
C44 C46 1.369 . S
C44 H72 0.930 . S
C45 C47 1.383 . S
C45 C48 1.382 . S
C45 H73 0.930 . S
C46 C44 1.369 . S
C46 C48 1.392 . S
C46 H74 0.930 . S
C47 C43 1.373 . S
C47 C45 1.383 . S
C47 H75 0.931 . S
C48 C45 1.382 . S
C48 C46 1.392 . S
C49 Eu40 2.828 1_655 S
C49 C43 1.505 . S
C49 O61 1.249 . S
C49 O62 1.244 . S
O50 Eu41 2.373 1_455 S
O50 C52 1.258 1_545 S
O51 Eu40 2.392 . S
O51 C52 1.242 . S
C52 O50 1.258 1_565 S
C52 O51 1.242 . S
O53 Eu40 2.418 1_655 S
O53 C57 1.244 . S
O54 Eu41 2.488 1_455 S
O54 C70 1.249 . S
O55 Eu41 2.471 1_455 S
O55 C70 1.244 . S
O56 Eu41 2.349 . S
O56 C57 1.265 1_545 S
C57 O53 1.244 . S
C57 O56 1.265 1_565 S
O58 Eu40 2.373 1_655 S
O58 C71 1.258 1_565 S
O59 Eu41 2.392 . S
O59 C71 1.242 . S
O60 Eu41 2.418 1_455 S
O60 C42 1.244 . S
O61 Eu40 2.488 1_655 S
O61 C49 1.249 . S
O62 Eu40 2.471 1_655 S
O62 C49 1.244 . S
O63 Eu40 2.349 . S
O63 C42 1.265 1_565 S
C64 C65 1.379 . S
C64 C68 1.373 . S
C64 C70 1.505 . S
C65 C64 1.379 . S
C65 C67 1.369 . S
C65 H76 0.930 . S
C66 C68 1.383 . S
C66 C69 1.382 . S
C66 H77 0.930 . S
C67 C65 1.369 . S
C67 C69 1.392 . S
C67 H78 0.930 . S
C68 C64 1.373 . S
C68 C66 1.383 . S
C68 H79 0.931 . S
C69 C66 1.382 . S
C69 C67 1.392 . S
C70 Eu41 2.828 1_455 S
C70 O54 1.249 . S
C70 O55 1.244 . S
C70 C64 1.505 . S
C71 O58 1.258 1_545 S
C71 O59 1.242 . S
H72 C44 0.930 . S
H73 C45 0.930 . S
H74 C46 0.930 . S
H75 C47 0.931 . S
H76 C65 0.930 . S
H77 C66 0.930 . S
H78 C67 0.930 . S
H79 C68 0.931 . S
Eu80 C89 2.828 . S
Eu80 O91 2.392 . S
Eu80 O93 2.418 . S
Eu80 O98 2.373 . S
Eu80 O101 2.488 . S
Eu80 O102 2.471 1_556 S
Eu80 O103 2.349 1_556 S
Eu81 O90 2.373 . S
Eu81 O94 2.488 . S
Eu81 O95 2.471 1_554 S
Eu81 O96 2.349 1_554 S
Eu81 O99 2.392 . S
Eu81 O100 2.418 . S
Eu81 C110 2.828 . S
C82 O100 1.244 . S
C82 O103 1.265 . S
C83 C84 1.379 1_556 S
C83 C87 1.373 . S
C83 C89 1.505 . S
C84 C83 1.379 1_554 S
C84 C86 1.369 . S
C84 H112 0.930 . S
C85 C87 1.383 . S
C85 C88 1.382 1_556 S
C85 H113 0.930 . S
C86 C84 1.369 . S
C86 C88 1.392 . S
C86 H114 0.930 . S
C87 C83 1.373 . S
C87 C85 1.383 . S
C87 H115 0.931 . S
C88 C85 1.382 1_554 S
C88 C86 1.392 . S
C89 Eu80 2.828 . S
C89 C83 1.505 . S
C89 O101 1.249 . S
C89 O102 1.244 1_556 S
O90 Eu81 2.373 . S
O90 C92 1.258 . S
O91 Eu80 2.392 . S
O91 C92 1.242 1_556 S
C92 O90 1.258 . S
C92 O91 1.242 1_554 S
O93 Eu80 2.418 . S
O93 C97 1.244 . S
O94 Eu81 2.488 . S
O94 C110 1.249 . S
O95 Eu81 2.471 1_556 S
O95 C110 1.244 1_556 S
O96 Eu81 2.349 1_556 S
O96 C97 1.265 . S
C97 O93 1.244 . S
C97 O96 1.265 . S
O98 Eu80 2.373 . S
O98 C111 1.258 1_556 S
O99 Eu81 2.392 . S
O99 C111 1.242 . S
O100 Eu81 2.418 . S
O100 C82 1.244 . S
O101 Eu80 2.488 . S
O101 C89 1.249 . S
O102 Eu80 2.471 1_554 S
O102 C89 1.244 1_554 S
O103 Eu80 2.349 1_554 S
O103 C82 1.265 . S
C104 C105 1.379 1_554 S
C104 C108 1.373 . S
C104 C110 1.505 . S
C105 C104 1.379 1_556 S
C105 C107 1.369 . S
C105 H116 0.930 . S
C106 C108 1.383 . S
C106 C109 1.382 1_554 S
C106 H117 0.930 . S
C107 C105 1.369 . S
C107 C109 1.392 . S
C107 H118 0.930 . S
C108 C104 1.373 . S
C108 C106 1.383 . S
C108 H119 0.931 . S
C109 C106 1.382 1_556 S
C109 C107 1.392 . S
C110 Eu81 2.828 . S
C110 O94 1.249 . S
C110 O95 1.244 1_554 S
C110 C104 1.505 . S
C111 O98 1.258 1_554 S
C111 O99 1.242 . S
H112 C84 0.930 . S
H113 C85 0.930 . S
H114 C86 0.930 . S
H115 C87 0.931 . S
H116 C105 0.930 . S
H117 C106 0.930 . S
H118 C107 0.930 . S
H119 C108 0.931 . S
Eu120 C129 2.828 . S
Eu120 O131 2.392 . S
Eu120 O133 2.418 . S
Eu120 O138 2.373 . S
Eu120 O141 2.488 . S
Eu120 O142 2.471 . S
Eu120 O143 2.349 . S
Eu121 O130 2.373 . S
Eu121 O134 2.488 . S
Eu121 O135 2.471 . S
Eu121 O136 2.349 . S
Eu121 O139 2.392 . S
Eu121 O140 2.418 . S
Eu121 C150 2.828 . S
C122 O140 1.244 . S
C122 O143 1.265 . S
C123 C124 1.379 . S
C123 C127 1.373 . S
C123 C129 1.505 . S
C124 C123 1.379 . S
C124 C126 1.369 . S
C124 H152 0.930 . S
C125 C127 1.383 . S
C125 C128 1.382 . S
C125 H153 0.930 . S
C126 C124 1.369 . S
C126 C128 1.392 . S
C126 H154 0.930 . S
C127 C123 1.373 . S
C127 C125 1.383 . S
C127 H155 0.931 . S
C128 C125 1.382 . S
C128 C126 1.392 . S
C129 Eu120 2.828 . S
C129 C123 1.505 . S
C129 O141 1.249 . S
C129 O142 1.244 . S
O130 Eu121 2.373 . S
O130 C132 1.258 . S
O131 Eu120 2.392 . S
O131 C132 1.242 . S
C132 O130 1.258 . S
C132 O131 1.242 . S
O133 Eu120 2.418 . S
O133 C137 1.244 . S
O134 Eu121 2.488 . S
O134 C150 1.249 . S
O135 Eu121 2.471 . S
O135 C150 1.244 . S
O136 Eu121 2.349 . S
O136 C137 1.265 . S
C137 O133 1.244 . S
C137 O136 1.265 . S
O138 Eu120 2.373 . S
O138 C151 1.258 . S
O139 Eu121 2.392 . S
O139 C151 1.242 . S
O140 Eu121 2.418 . S
O140 C122 1.244 . S
O141 Eu120 2.488 . S
O141 C129 1.249 . S
O142 Eu120 2.471 . S
O142 C129 1.244 . S
O143 Eu120 2.349 . S
O143 C122 1.265 . S
C144 C145 1.379 . S
C144 C148 1.373 . S
C144 C150 1.505 . S
C145 C144 1.379 . S
C145 C147 1.369 . S
C145 H156 0.930 . S
C146 C148 1.383 . S
C146 C149 1.382 . S
C146 H157 0.930 . S
C147 C145 1.369 . S
C147 C149 1.392 . S
C147 H158 0.930 . S
C148 C144 1.373 . S
C148 C146 1.383 . S
C148 H159 0.931 . S
C149 C146 1.382 . S
C149 C147 1.392 . S
C150 Eu121 2.828 . S
C150 O134 1.249 . S
C150 O135 1.244 . S
C150 C144 1.505 . S
C151 O138 1.258 . S
C151 O139 1.242 . S
H152 C124 0.930 . S
H153 C125 0.930 . S
H154 C126 0.930 . S
H155 C127 0.931 . S
H156 C145 0.930 . S
H157 C146 0.930 . S
H158 C147 0.930 . S
H159 C148 0.931 . S
H160 C178 0.951 . S
H161 C180 0.951 . S
H162 C182 0.950 . S
H163 C183 0.950 . S
H164 C185 0.950 . S
H165 C188 0.950 . S
H166 C189 0.950 . S
H167 C191 0.950 . S
H168 C192 0.950 . S
H169 C193 0.951 . S
H170 C195 0.951 . S
H171 C197 0.950 . S
H172 C198 0.950 . S
H173 C200 0.950 . S
H174 C203 0.950 . S
H175 C204 0.950 . S
H176 C206 0.950 . S
H177 C207 0.950 . S
C178 H160 0.951 . S
C178 C179 1.365 1_556 S
C178 C180 1.388 . S
C179 C178 1.365 1_554 S
C179 C183 1.385 . S
C180 H161 0.951 . S
C180 C178 1.388 . S
C180 C181 1.366 1_556 S
C181 C180 1.366 1_554 S
C181 C182 1.414 . S
C181 C184 1.499 . S
C182 H162 0.950 . S
C182 C181 1.414 . S
C182 C183 1.374 . S
C183 H163 0.950 . S
C183 C179 1.385 . S
C183 C182 1.374 . S
C184 C181 1.499 . S
C184 C185 1.373 . S
C184 C186 1.389 1_554 S
C185 H164 0.950 . S
C185 C184 1.373 . S
C185 C201 1.377 . S
C186 C184 1.389 1_556 S
C186 C187 1.524 . S
C186 C200 1.377 . S
C187 C186 1.524 . S
C187 C188 1.397 1_556 S
C187 C192 1.363 . S
C188 H165 0.950 . S
C188 C187 1.397 1_554 S
C188 C189 1.334 . S
C189 H166 0.950 . S
C189 C188 1.334 . S
C189 C190 1.287 1_554 S
C190 C189 1.287 1_556 S
C190 C191 1.524 . S
C190 H209 0.913 . S
C191 H167 0.950 . S
C191 C190 1.524 . S
C191 C192 1.415 . S
C192 H168 0.950 . S
C192 C187 1.363 . S
C192 C191 1.415 . S
C193 H169 0.951 . S
C193 C194 1.365 . S
C193 C195 1.388 . S
C194 C193 1.365 . S
C194 C198 1.385 1_554 S
C195 H170 0.951 . S
C195 C193 1.388 . S
C195 C196 1.343 1_554 S
C196 C195 1.343 1_556 S
C196 C197 1.438 . S
C196 C199 1.498 . S
C197 H171 0.950 . S
C197 C196 1.438 . S
C197 C198 1.374 . S
C198 H172 0.950 . S
C198 C194 1.385 1_556 S
C198 C197 1.374 . S
C199 C196 1.498 . S
C199 C200 1.373 . S
C199 C201 1.389 1_556 S
C200 H173 0.950 . S
C200 C186 1.377 . S
C200 C199 1.373 . S
C201 C185 1.377 . S
C201 C199 1.389 1_554 S
C201 C202 1.524 . S
C202 C201 1.524 . S
C202 C203 1.397 1_554 S
C202 C207 1.363 . S
C203 H174 0.950 . S
C203 C202 1.397 1_556 S
C203 C204 1.334 . S
C204 H175 0.950 . S
C204 C203 1.334 . S
C204 C205 1.287 1_556 S
C205 C204 1.287 1_554 S
C205 C206 1.524 . S
C205 H208 0.999 . S
C206 H176 0.950 . S
C206 C205 1.524 . S
C206 C207 1.415 . S
C207 H177 0.950 . S
C207 C202 1.363 . S
C207 C206 1.415 . S
H208 C205 0.999 . S
H209 C190 0.913 . S
H210 C228 0.951 . S
H211 C230 0.951 . S
H212 C232 0.950 . S
H213 C233 0.950 . S
H214 C235 0.955 . S
H215 C238 0.950 . S
H216 C239 0.950 . S
H217 C241 0.950 . S
H218 C242 0.950 . S
H219 C243 0.951 . S
H220 C245 0.951 . S
H221 C247 0.950 . S
H222 C248 0.950 . S
H223 C250 0.950 . S
H224 C253 0.950 . S
H225 C254 0.950 . S
H226 C256 0.950 . S
H227 C257 0.950 . S
C228 H210 0.951 . S
C228 C229 1.367 1_556 S
C228 C230 1.388 . S
C229 C228 1.367 1_554 S
C229 C233 1.383 . S
C230 H211 0.951 . S
C230 C228 1.388 . S
C230 C231 1.366 1_556 S
C231 C230 1.366 1_554 S
C231 C232 1.414 . S
C231 C234 1.499 . S
C232 H212 0.950 . S
C232 C231 1.414 . S
C232 C233 1.374 . S
C233 H213 0.950 . S
C233 C229 1.383 . S
C233 C232 1.374 . S
C234 C231 1.499 . S
C234 C235 1.369 1_554 S
C234 C236 1.389 . S
C235 H214 0.955 . S
C235 C234 1.369 1_556 S
C235 C251 1.377 . S
C236 C234 1.389 . S
C236 C237 1.524 . S
C236 C250 1.377 . S
C237 C236 1.524 . S
C237 C238 1.397 . S
C237 C242 1.363 1_554 S
C238 H215 0.950 . S
C238 C237 1.397 . S
C238 C239 1.334 . S
C239 H216 0.950 . S
C239 C238 1.334 . S
C239 C240 1.287 . S
C240 C239 1.287 . S
C240 C241 1.524 1_554 S
C240 H259 0.913 . S
C241 H217 0.950 . S
C241 C240 1.524 1_556 S
C241 C242 1.415 . S
C242 H218 0.950 . S
C242 C237 1.363 1_556 S
C242 C241 1.415 . S
C243 H219 0.951 . S
C243 C244 1.367 . S
C243 C245 1.388 . S
C244 C243 1.367 . S
C244 C248 1.383 1_554 S
C245 H220 0.951 . S
C245 C243 1.388 . S
C245 C246 1.366 1_554 S
C246 C245 1.366 1_556 S
C246 C247 1.414 . S
C246 C249 1.499 . S
C247 H221 0.950 . S
C247 C246 1.414 . S
C247 C248 1.374 . S
C248 H222 0.950 . S
C248 C244 1.383 1_556 S
C248 C247 1.374 . S
C249 C246 1.499 . S
C249 C250 1.373 1_556 S
C249 C251 1.389 . S
C250 H223 0.950 . S
C250 C236 1.377 . S
C250 C249 1.373 1_554 S
C251 C235 1.377 . S
C251 C249 1.389 . S
C251 C252 1.524 . S
C252 C251 1.524 . S
C252 C253 1.397 . S
C252 C257 1.363 1_556 S
C253 H224 0.950 . S
C253 C252 1.397 . S
C253 C254 1.334 . S
C254 H225 0.950 . S
C254 C253 1.334 . S
C254 C255 1.287 . S
C255 C254 1.287 . S
C255 C256 1.524 1_556 S
C255 H258 0.999 . S
C256 H226 0.950 . S
C256 C255 1.524 1_554 S
C256 C257 1.415 . S
C257 H227 0.950 . S
C257 C252 1.363 1_554 S
C257 C256 1.415 . S
H258 C255 0.999 . S
H259 C240 0.913 . S
H260 C278 0.951 . S
H261 C280 0.951 . S
H262 C282 0.950 . S
H263 C283 0.950 . S
H264 C285 0.950 . S
H265 C288 0.950 . S
H266 C289 0.950 . S
H267 C291 0.950 . S
H268 C292 0.950 . S
H269 C293 0.951 . S
H270 C295 0.951 . S
H271 C297 0.950 . S
H272 C298 0.950 . S
H273 C300 0.950 . S
H274 C303 0.950 . S
H275 C304 0.950 . S
H276 C306 0.950 . S
H277 C307 0.950 . S
C278 H260 0.951 . S
C278 C279 1.366 . S
C278 C280 1.388 . S
C279 C278 1.366 . S
C279 C283 1.385 . S
C280 H261 0.951 . S
C280 C278 1.388 . S
C280 C281 1.366 . S
C281 C280 1.366 . S
C281 C282 1.414 . S
C281 C284 1.499 . S
C282 H262 0.950 . S
C282 C281 1.414 . S
C282 C283 1.374 . S
C283 H263 0.950 . S
C283 C279 1.385 . S
C283 C282 1.374 . S
C284 C281 1.499 . S
C284 C285 1.373 . S
C284 C286 1.389 . S
C285 H264 0.950 . S
C285 C284 1.373 . S
C285 C301 1.377 . S
C286 C284 1.389 . S
C286 C287 1.524 . S
C286 C300 1.377 . S
C287 C286 1.524 . S
C287 C288 1.397 . S
C287 C292 1.363 . S
C288 H265 0.950 . S
C288 C287 1.397 . S
C288 C289 1.334 . S
C289 H266 0.950 . S
C289 C288 1.334 . S
C289 C290 1.287 . S
C290 C289 1.287 . S
C290 C291 1.524 . S
C290 H309 0.913 . S
C291 H267 0.950 . S
C291 C290 1.524 . S
C291 C292 1.415 . S
C292 H268 0.950 . S
C292 C287 1.363 . S
C292 C291 1.415 . S
C293 H269 0.951 . S
C293 C294 1.366 . S
C293 C295 1.388 . S
C294 C293 1.366 . S
C294 C298 1.385 . S
C295 H270 0.951 . S
C295 C293 1.388 . S
C295 C296 1.366 . S
C296 C295 1.366 . S
C296 C297 1.414 . S
C296 C299 1.499 . S
C297 H271 0.950 . S
C297 C296 1.414 . S
C297 C298 1.374 . S
C298 H272 0.950 . S
C298 C294 1.385 . S
C298 C297 1.374 . S
C299 C296 1.499 . S
C299 C300 1.373 . S
C299 C301 1.389 . S
C300 H273 0.950 . S
C300 C286 1.377 . S
C300 C299 1.373 . S
C301 C285 1.377 . S
C301 C299 1.389 . S
C301 C302 1.524 . S
C302 C301 1.524 . S
C302 C303 1.397 . S
C302 C307 1.363 . S
C303 H274 0.950 . S
C303 C302 1.397 . S
C303 C304 1.334 . S
C304 H275 0.950 . S
C304 C303 1.334 . S
C304 C305 1.287 . S
C305 C304 1.287 . S
C305 C306 1.524 . S
C305 H308 0.999 . S
C306 H276 0.950 . S
C306 C305 1.524 . S
C306 C307 1.415 . S
C307 H277 0.950 . S
C307 C302 1.363 . S
C307 C306 1.415 . S
H308 C305 0.999 . S
H309 C290 0.913 . S
H310 C328 0.951 . S
H311 C330 0.951 . S
H312 C332 0.950 . S
H313 C333 0.950 . S
H314 C335 0.950 . S
H315 C338 0.950 . S
H316 C339 0.950 . S
H317 C341 0.950 . S
H318 C342 0.950 . S
H319 C343 0.951 . S
H320 C345 0.951 . S
H321 C347 0.950 . S
H322 C348 0.950 . S
H323 C350 0.950 . S
H324 C353 0.950 . S
H325 C354 0.950 . S
H326 C356 0.950 . S
H327 C357 0.950 . S
C328 H310 0.951 . S
C328 C329 1.366 . S
C328 C330 1.388 . S
C329 C328 1.366 . S
C329 C333 1.385 . S
C330 H311 0.951 . S
C330 C328 1.388 . S
C330 C331 1.366 . S
C331 C330 1.366 . S
C331 C332 1.414 . S
C331 C334 1.499 . S
C332 H312 0.950 . S
C332 C331 1.414 . S
C332 C333 1.374 . S
C333 H313 0.950 . S
C333 C329 1.385 . S
C333 C332 1.374 . S
C334 C331 1.499 . S
C334 C335 1.373 . S
C334 C336 1.389 . S
C335 H314 0.950 . S
C335 C334 1.373 . S
C335 C351 1.377 . S
C336 C334 1.389 . S
C336 C337 1.524 . S
C336 C350 1.377 . S
C337 C336 1.524 . S
C337 C338 1.397 . S
C337 C342 1.363 . S
C338 H315 0.950 . S
C338 C337 1.397 . S
C338 C339 1.334 . S
C339 H316 0.950 . S
C339 C338 1.334 . S
C339 C340 1.287 . S
C340 C339 1.287 . S
C340 C341 1.524 . S
C340 H359 0.913 . S
C341 H317 0.950 . S
C341 C340 1.524 . S
C341 C342 1.415 . S
C342 H318 0.950 . S
C342 C337 1.363 . S
C342 C341 1.415 . S
C343 H319 0.951 . S
C343 C344 1.366 . S
C343 C345 1.388 . S
C344 C343 1.366 . S
C344 C348 1.385 . S
C345 H320 0.951 . S
C345 C343 1.388 . S
C345 C346 1.366 . S
C346 C345 1.366 . S
C346 C347 1.414 . S
C346 C349 1.499 . S
C347 H321 0.950 . S
C347 C346 1.414 . S
C347 C348 1.374 . S
C348 H322 0.950 . S
C348 C344 1.385 . S
C348 C347 1.374 . S
C349 C346 1.499 . S
C349 C350 1.373 . S
C349 C351 1.389 . S
C350 H323 0.950 . S
C350 C336 1.377 . S
C350 C349 1.373 . S
C351 C335 1.377 . S
C351 C349 1.389 . S
C351 C352 1.524 . S
C352 C351 1.524 . S
C352 C353 1.397 . S
C352 C357 1.363 . S
C353 H324 0.950 . S
C353 C352 1.397 . S
C353 C354 1.334 . S
C354 H325 0.950 . S
C354 C353 1.334 . S
C354 C355 1.287 . S
C355 C354 1.287 . S
C355 C356 1.524 . S
C355 H358 0.999 . S
C356 H326 0.950 . S
C356 C355 1.524 . S
C356 C357 1.415 . S
C357 H327 0.950 . S
C357 C352 1.363 . S
C357 C356 1.415 . S
H358 C355 0.999 . S
H359 C340 0.913 . S
H360 C378 0.951 . S
H361 C380 0.951 . S
H362 C382 0.950 . S
H363 C383 0.950 1_544 S
H364 C385 0.950 . S
H365 C388 0.950 . S
H366 C389 0.950 . S
H367 C391 0.950 . S
H368 C392 0.950 . S
H369 C393 0.951 . S
H370 C395 0.951 . S
H371 C397 0.950 . S
H372 C398 0.950 1_566 S
H373 C400 0.950 . S
H374 C403 0.950 . S
H375 C404 0.950 . S
H376 C406 0.950 . S
H377 C407 0.950 . S
C378 H360 0.951 . S
C378 C379 1.366 . S
C378 C380 1.388 . S
C379 C378 1.366 . S
C379 C383 1.385 . S
C380 H361 0.951 . S
C380 C378 1.388 . S
C380 C381 1.366 . S
C381 C380 1.366 . S
C381 C382 1.414 1_566 S
C381 C384 1.499 . S
C382 H362 0.950 . S
C382 C381 1.414 1_544 S
C382 C383 1.374 1_544 S
C383 H363 0.950 1_566 S
C383 C379 1.385 . S
C383 C382 1.374 1_566 S
C384 C381 1.499 . S
C384 C385 1.374 1_565 S
C384 C386 1.389 1_556 S
C385 H364 0.950 . S
C385 C384 1.374 1_545 S
C385 C401 1.377 . S
C386 C384 1.389 1_554 S
C386 C387 1.524 . S
C386 C400 1.377 . S
C387 C386 1.524 . S
C387 C388 1.397 . S
C387 C392 1.363 . S
C388 H365 0.950 . S
C388 C387 1.397 . S
C388 C389 1.334 . S
C389 H366 0.950 . S
C389 C388 1.334 . S
C389 C390 1.287 . S
C390 C389 1.287 . S
C390 C391 1.524 . S
C390 H409 0.913 . S
C391 H367 0.950 . S
C391 C390 1.524 . S
C391 C392 1.415 . S
C392 H368 0.950 . S
C392 C387 1.363 . S
C392 C391 1.415 . S
C393 H369 0.951 . S
C393 C394 1.366 . S
C393 C395 1.388 . S
C394 C393 1.366 . S
C394 C398 1.385 . S
C395 H370 0.951 . S
C395 C393 1.388 . S
C395 C396 1.366 . S
C396 C395 1.366 . S
C396 C397 1.414 1_544 S
C396 C399 1.498 . S
C397 H371 0.950 . S
C397 C396 1.414 1_566 S
C397 C398 1.374 1_566 S
C398 H372 0.950 1_544 S
C398 C394 1.385 . S
C398 C397 1.374 1_544 S
C399 C396 1.498 . S
C399 C400 1.379 1_545 S
C399 C401 1.385 1_554 S
C400 H373 0.950 . S
C400 C386 1.377 . S
C400 C399 1.379 1_565 S
C401 C385 1.377 . S
C401 C399 1.385 1_556 S
C401 C402 1.524 . S
C402 C401 1.524 . S
C402 C403 1.397 . S
C402 C407 1.363 . S
C403 H374 0.950 . S
C403 C402 1.397 . S
C403 C404 1.334 . S
C404 H375 0.950 . S
C404 C403 1.334 . S
C404 C405 1.287 . S
C405 C404 1.287 . S
C405 C406 1.524 . S
C405 H408 0.999 . S
C406 H376 0.950 . S
C406 C405 1.524 . S
C406 C407 1.415 . S
C407 H377 0.950 . S
C407 C402 1.363 . S
C407 C406 1.415 . S
H408 C405 0.999 . S
H409 C390 0.913 . S
H410 C428 0.951 . S
H411 C430 0.951 . S
H412 C432 0.950 . S
H413 C433 0.950 . S
H414 C435 0.950 . S
H415 C438 0.950 . S
H416 C439 0.950 . S
H417 C441 0.950 . S
H418 C442 0.950 . S
H419 C443 0.951 . S
H420 C445 0.951 . S
H421 C447 0.950 . S
H422 C448 0.950 . S
H423 C450 0.950 . S
H424 C453 0.950 . S
H425 C454 0.950 . S
H426 C456 0.950 . S
H427 C457 0.950 . S
C428 H410 0.951 . S
C428 C429 1.366 1_545 S
C428 C430 1.388 . S
C429 C428 1.366 1_565 S
C429 C433 1.385 . S
C430 H411 0.951 . S
C430 C428 1.388 . S
C430 C431 1.366 1_545 S
C431 C430 1.366 1_565 S
C431 C432 1.414 . S
C431 C434 1.499 . S
C432 H412 0.950 . S
C432 C431 1.414 . S
C432 C433 1.374 . S
C433 H413 0.950 . S
C433 C429 1.385 . S
C433 C432 1.374 . S
C434 C431 1.499 . S
C434 C435 1.373 . S
C434 C436 1.389 1_565 S
C435 H414 0.950 . S
C435 C434 1.373 . S
C435 C451 1.377 . S
C436 C434 1.389 1_545 S
C436 C437 1.524 . S
C436 C450 1.377 . S
C437 C436 1.524 . S
C437 C438 1.397 1_545 S
C437 C442 1.363 . S
C438 H415 0.950 . S
C438 C437 1.397 1_565 S
C438 C439 1.334 . S
C439 H416 0.950 . S
C439 C438 1.334 . S
C439 C440 1.287 1_565 S
C440 C439 1.287 1_545 S
C440 C441 1.524 . S
C440 H459 0.913 . S
C441 H417 0.950 . S
C441 C440 1.524 . S
C441 C442 1.415 . S
C442 H418 0.950 . S
C442 C437 1.363 . S
C442 C441 1.415 . S
C443 H419 0.951 . S
C443 C444 1.366 1_565 S
C443 C445 1.388 . S
C444 C443 1.366 1_545 S
C444 C448 1.385 . S
C445 H420 0.951 . S
C445 C443 1.388 . S
C445 C446 1.366 1_565 S
C446 C445 1.366 1_545 S
C446 C447 1.414 . S
C446 C449 1.499 . S
C447 H421 0.950 . S
C447 C446 1.414 . S
C447 C448 1.374 . S
C448 H422 0.950 . S
C448 C444 1.385 . S
C448 C447 1.374 . S
C449 C446 1.499 . S
C449 C450 1.373 . S
C449 C451 1.389 1_545 S
C450 H423 0.950 . S
C450 C436 1.377 . S
C450 C449 1.373 . S
C451 C435 1.377 . S
C451 C449 1.389 1_565 S
C451 C452 1.524 . S
C452 C451 1.524 . S
C452 C453 1.397 1_565 S
C452 C457 1.363 . S
C453 H424 0.950 . S
C453 C452 1.397 1_545 S
C453 C454 1.334 . S
C454 H425 0.950 . S
C454 C453 1.334 . S
C454 C455 1.287 1_545 S
C455 C454 1.287 1_565 S
C455 C456 1.524 . S
C455 H458 0.999 . S
C456 H426 0.950 . S
C456 C455 1.524 . S
C456 C457 1.415 . S
C457 H427 0.950 . S
C457 C452 1.363 . S
C457 C456 1.415 . S
H458 C455 0.999 . S
H459 C440 0.913 . S
H460 C478 0.951 . S
H461 C480 0.951 . S
H462 C482 0.950 . S
H463 C483 0.950 . S
H464 C485 0.950 . S
H465 C488 0.950 . S
H466 C489 0.950 . S
H467 C491 0.950 . S
H468 C492 0.950 . S
H469 C493 0.951 . S
H470 C495 0.951 . S
H471 C497 0.950 . S
H472 C498 0.950 . S
H473 C500 0.950 . S
H474 C503 0.950 . S
H475 C504 0.950 . S
H476 C506 0.950 . S
H477 C507 0.950 . S
C478 H460 0.951 . S
C478 C479 1.366 . S
C478 C480 1.388 . S
C479 C478 1.366 . S
C479 C483 1.385 1_556 S
C480 H461 0.951 . S
C480 C478 1.388 . S
C480 C481 1.366 . S
C481 C480 1.366 . S
C481 C482 1.414 1_556 S
C481 C484 1.499 . S
C482 H462 0.950 . S
C482 C481 1.414 1_554 S
C482 C483 1.374 . S
C483 H463 0.950 . S
C483 C479 1.385 1_554 S
C483 C482 1.374 . S
C484 C481 1.499 . S
C484 C485 1.373 . S
C484 C486 1.390 1_556 S
C485 H464 0.950 . S
C485 C484 1.373 . S
C485 C501 1.377 1_655 S
C486 C484 1.390 1_554 S
C486 C487 1.524 . S
C486 C500 1.377 1_655 S
C487 C486 1.524 . S
C487 C488 1.397 . S
C487 C492 1.363 1_655 S
C488 H465 0.950 . S
C488 C487 1.397 . S
C488 C489 1.334 . S
C489 H466 0.950 . S
C489 C488 1.334 . S
C489 C490 1.287 . S
C490 C489 1.287 . S
C490 C491 1.524 1_655 S
C490 H509 0.913 . S
C491 H467 0.950 . S
C491 C490 1.524 1_455 S
C491 C492 1.415 . S
C492 H468 0.950 . S
C492 C487 1.363 1_455 S
C492 C491 1.415 . S
C493 H469 0.951 . S
C493 C494 1.366 . S
C493 C495 1.388 . S
C494 C493 1.366 . S
C494 C498 1.385 1_554 S
C495 H470 0.951 . S
C495 C493 1.388 . S
C495 C496 1.366 . S
C496 C495 1.366 . S
C496 C497 1.414 1_554 S
C496 C499 1.498 . S
C497 H471 0.950 . S
C497 C496 1.414 1_556 S
C497 C498 1.374 . S
C498 H472 0.950 . S
C498 C494 1.385 1_556 S
C498 C497 1.374 . S
C499 C496 1.498 . S
C499 C500 1.377 . S
C499 C501 1.387 1_554 S
C500 H473 0.950 . S
C500 C486 1.377 1_455 S
C500 C499 1.377 . S
C501 C485 1.377 1_455 S
C501 C499 1.387 1_556 S
C501 C502 1.524 . S
C502 C501 1.524 . S
C502 C503 1.397 . S
C502 C507 1.363 1_455 S
C503 H474 0.950 . S
C503 C502 1.397 . S
C503 C504 1.334 . S
C504 H475 0.950 . S
C504 C503 1.334 . S
C504 C505 1.287 . S
C505 C504 1.287 . S
C505 C506 1.524 1_455 S
C505 H508 0.999 . S
C506 H476 0.950 . S
C506 C505 1.524 1_655 S
C506 C507 1.415 . S
C507 H477 0.950 . S
C507 C502 1.363 1_655 S
C507 C506 1.415 . S
H508 C505 0.999 . S
H509 C490 0.913 . S
H510 C528 0.951 . S
H511 C530 0.951 . S
H512 C532 0.950 . S
H513 C533 0.950 . S
H514 C535 0.950 . S
H515 C538 0.950 . S
H516 C539 0.950 . S
H517 C541 0.950 . S
H518 C542 0.950 . S
H519 C543 0.951 . S
H520 C545 0.951 . S
H521 C547 0.950 . S
H522 C548 0.950 . S
H523 C550 0.950 . S
H524 C553 0.950 . S
H525 C554 0.950 . S
H526 C556 0.950 . S
H527 C557 0.950 . S
C528 H510 0.951 . S
C528 C529 1.366 . S
C528 C530 1.388 . S
C529 C528 1.366 . S
C529 C533 1.385 . S
C530 H511 0.951 . S
C530 C528 1.388 . S
C530 C531 1.366 . S
C531 C530 1.366 . S
C531 C532 1.414 . S
C531 C534 1.499 . S
C532 H512 0.950 . S
C532 C531 1.414 . S
C532 C533 1.374 . S
C533 H513 0.950 . S
C533 C529 1.385 . S
C533 C532 1.374 . S
C534 C531 1.499 . S
C534 C535 1.373 . S
C534 C536 1.389 . S
C535 H514 0.950 . S
C535 C534 1.373 . S
C535 C551 1.377 1_455 S
C536 C534 1.389 . S
C536 C537 1.524 . S
C536 C550 1.377 1_455 S
C537 C536 1.524 . S
C537 C538 1.397 . S
C537 C542 1.363 . S
C538 H515 0.950 . S
C538 C537 1.397 . S
C538 C539 1.334 . S
C539 H516 0.950 . S
C539 C538 1.334 . S
C539 C540 1.287 . S
C540 C539 1.287 . S
C540 C541 1.524 . S
C540 H559 0.913 . S
C541 H517 0.950 . S
C541 C540 1.524 . S
C541 C542 1.415 . S
C542 H518 0.950 . S
C542 C537 1.363 . S
C542 C541 1.415 . S
C543 H519 0.951 . S
C543 C544 1.366 . S
C543 C545 1.388 . S
C544 C543 1.366 . S
C544 C548 1.385 . S
C545 H520 0.951 . S
C545 C543 1.388 . S
C545 C546 1.366 . S
C546 C545 1.366 . S
C546 C547 1.414 . S
C546 C549 1.499 . S
C547 H521 0.950 . S
C547 C546 1.414 . S
C547 C548 1.374 . S
C548 H522 0.950 . S
C548 C544 1.385 . S
C548 C547 1.374 . S
C549 C546 1.499 . S
C549 C550 1.373 . S
C549 C551 1.389 . S
C550 H523 0.950 . S
C550 C536 1.377 1_655 S
C550 C549 1.373 . S
C551 C535 1.377 1_655 S
C551 C549 1.389 . S
C551 C552 1.524 . S
C552 C551 1.524 . S
C552 C553 1.397 . S
C552 C557 1.363 . S
C553 H524 0.950 . S
C553 C552 1.397 . S
C553 C554 1.334 . S
C554 H525 0.950 . S
C554 C553 1.334 . S
C554 C555 1.287 . S
C555 C554 1.287 . S
C555 C556 1.524 . S
C555 H558 0.999 . S
C556 H526 0.950 . S
C556 C555 1.524 . S
C556 C557 1.415 . S
C557 H527 0.950 . S
C557 C552 1.363 . S
C557 C556 1.415 . S
H558 C555 0.999 . S
H559 C540 0.913 . S
H560 C578 0.951 . S
H561 C580 0.951 . S
H562 C582 0.950 . S
H563 C583 0.950 . S
H564 C585 0.950 . S
H565 C588 0.950 1_655 S
H566 C589 0.950 . S
H567 C591 0.950 . S
H568 C592 0.950 . S
H569 C593 0.951 . S
H570 C595 0.951 . S
H571 C597 0.950 . S
H572 C598 0.950 . S
H573 C600 0.950 . S
H574 C603 0.948 1_455 S
H575 C604 0.950 . S
H576 C606 0.950 . S
H577 C607 0.950 . S
C578 H560 0.951 . S
C578 C579 1.366 1_465 S
C578 C580 1.388 . S
C579 C578 1.366 1_645 S
C579 C583 1.385 . S
C580 H561 0.951 . S
C580 C578 1.388 . S
C580 C581 1.366 1_465 S
C581 C580 1.366 1_645 S
C581 C582 1.414 . S
C581 C584 1.499 . S
C582 H562 0.950 . S
C582 C581 1.414 . S
C582 C583 1.374 . S
C583 H563 0.950 . S
C583 C579 1.385 . S
C583 C582 1.374 . S
C584 C581 1.499 . S
C584 C585 1.373 1_545 S
C584 C586 1.389 1_655 S
C585 H564 0.950 . S
C585 C584 1.373 1_565 S
C585 C601 1.377 . S
C586 C584 1.389 1_455 S
C586 C587 1.524 . S
C586 C600 1.377 . S
C587 C586 1.524 . S
C587 C588 1.397 . S
C587 C592 1.363 . S
C588 H565 0.950 1_455 S
C588 C587 1.397 . S
C588 C589 1.334 . S
C589 H566 0.950 . S
C589 C588 1.334 . S
C589 C590 1.287 . S
C590 C589 1.287 . S
C590 C591 1.524 . S
C590 H609 0.913 . S
C591 H567 0.950 . S
C591 C590 1.524 . S
C591 C592 1.415 . S
C592 H568 0.950 . S
C592 C587 1.363 . S
C592 C591 1.415 . S
C593 H569 0.951 . S
C593 C594 1.365 . S
C593 C595 1.388 . S
C594 C593 1.365 . S
C594 C598 1.384 1_645 S
C595 H570 0.951 . S
C595 C593 1.388 . S
C595 C596 1.364 1_545 S
C596 C595 1.364 1_565 S
C596 C597 1.411 1_655 S
C596 C599 1.503 . S
C597 H571 0.950 . S
C597 C596 1.411 1_455 S
C597 C598 1.374 . S
C598 H572 0.950 . S
C598 C594 1.384 1_465 S
C598 C597 1.374 . S
C599 C596 1.503 . S
C599 C600 1.373 1_665 S
C599 C601 1.389 . S
C600 H573 0.950 . S
C600 C586 1.377 . S
C600 C599 1.373 1_445 S
C601 C585 1.377 . S
C601 C599 1.389 . S
C601 C602 1.524 . S
C602 C601 1.524 . S
C602 C603 1.397 . S
C602 C607 1.363 . S
C603 H574 0.948 1_655 S
C603 C602 1.397 . S
C603 C604 1.334 . S
C604 H575 0.950 . S
C604 C603 1.334 . S
C604 C605 1.287 . S
C605 C604 1.287 . S
C605 C606 1.524 . S
C605 H608 0.999 . S
C606 H576 0.950 . S
C606 C605 1.524 . S
C606 C607 1.415 . S
C607 H577 0.950 . S
C607 C602 1.363 . S
C607 C606 1.415 . S
H608 C605 0.999 . S
H609 C590 0.913 . S
H610 C628 0.951 . S
H611 C630 0.951 . S
H612 C632 0.952 . S
H613 C633 0.949 1_655 S
H614 C635 0.950 . S
H615 C638 0.950 . S
H616 C639 0.950 . S
H617 C641 0.950 . S
H618 C642 0.950 . S
H619 C643 0.951 . S
H620 C645 0.951 . S
H621 C647 0.950 . S
H622 C648 0.950 . S
H623 C650 0.950 . S
H624 C653 0.950 . S
H625 C654 0.950 . S
H626 C656 0.950 . S
H627 C657 0.950 . S
C628 H610 0.951 . S
C628 C629 1.366 . S
C628 C630 1.388 . S
C629 C628 1.366 . S
C629 C633 1.385 1_545 S
C630 H611 0.951 . S
C630 C628 1.388 . S
C630 C631 1.369 . S
C631 C630 1.369 . S
C631 C632 1.408 1_445 S
C631 C634 1.502 1_545 S
C632 H612 0.952 . S
C632 C631 1.408 1_665 S
C632 C633 1.374 1_655 S
C633 H613 0.949 1_455 S
C633 C629 1.385 1_565 S
C633 C632 1.374 1_455 S
C634 C631 1.502 1_565 S
C634 C635 1.392 . S
C634 C636 1.368 1_465 S
C635 H614 0.950 . S
C635 C634 1.392 . S
C635 C651 1.377 . S
C636 C634 1.368 1_645 S
C636 C637 1.524 . S
C636 C650 1.377 . S
C637 C636 1.524 . S
C637 C638 1.397 . S
C637 C642 1.363 . S
C638 H615 0.950 . S
C638 C637 1.397 . S
C638 C639 1.334 . S
C639 H616 0.950 . S
C639 C638 1.334 . S
C639 C640 1.287 . S
C640 C639 1.287 . S
C640 C641 1.524 . S
C640 H659 0.913 . S
C641 H617 0.950 . S
C641 C640 1.524 . S
C641 C642 1.415 . S
C642 H618 0.950 . S
C642 C637 1.363 . S
C642 C641 1.415 . S
C643 H619 0.951 . S
C643 C644 1.366 . S
C643 C645 1.388 . S
C644 C643 1.366 . S
C644 C648 1.385 1_565 S
C645 H620 0.951 . S
C645 C643 1.388 . S
C645 C646 1.366 . S
C646 C645 1.366 . S
C646 C647 1.414 1_565 S
C646 C649 1.498 . S
C647 H621 0.950 . S
C647 C646 1.414 1_545 S
C647 C648 1.374 . S
C648 H622 0.950 . S
C648 C644 1.385 1_545 S
C648 C647 1.374 . S
C649 C646 1.498 . S
C649 C650 1.371 1_465 S
C649 C651 1.392 . S
C650 H623 0.950 . S
C650 C636 1.377 . S
C650 C649 1.371 1_645 S
C651 C635 1.377 . S
C651 C649 1.392 . S
C651 C652 1.524 . S
C652 C651 1.524 . S
C652 C653 1.397 . S
C652 C657 1.363 . S
C653 H624 0.950 . S
C653 C652 1.397 . S
C653 C654 1.334 . S
C654 H625 0.950 . S
C654 C653 1.334 . S
C654 C655 1.287 . S
C655 C654 1.287 . S
C655 C656 1.524 . S
C655 H658 0.999 . S
C656 H626 0.950 . S
C656 C655 1.524 . S
C656 C657 1.415 . S
C657 H627 0.950 . S
C657 C652 1.363 . S
C657 C656 1.415 . S
H658 C655 0.999 . S
H659 C640 0.913 . S
H660 C678 0.951 . S
H661 C680 0.951 . S
H662 C682 0.950 . S
H663 C683 0.950 . S
H664 C685 0.950 . S
H665 C688 0.950 . S
H666 C689 0.950 . S
H667 C691 0.950 . S
H668 C692 0.950 . S
H669 C693 0.951 . S
H670 C695 0.951 . S
H671 C697 0.950 . S
H672 C698 0.950 . S
H673 C700 0.950 . S
H674 C703 0.950 . S
H675 C704 0.950 . S
H676 C706 0.950 . S
H677 C707 0.950 . S
C678 H660 0.951 . S
C678 C679 1.366 . S
C678 C680 1.388 . S
C679 C678 1.366 . S
C679 C683 1.385 . S
C680 H661 0.951 . S
C680 C678 1.388 . S
C680 C681 1.366 . S
C681 C680 1.366 . S
C681 C682 1.414 . S
C681 C684 1.499 . S
C682 H662 0.950 . S
C682 C681 1.414 . S
C682 C683 1.374 . S
C683 H663 0.950 . S
C683 C679 1.385 . S
C683 C682 1.374 . S
C684 C681 1.499 . S
C684 C685 1.373 . S
C684 C686 1.389 . S
C685 H664 0.950 . S
C685 C684 1.373 . S
C685 C701 1.377 . S
C686 C684 1.389 . S
C686 C687 1.524 . S
C686 C700 1.377 . S
C687 C686 1.524 . S
C687 C688 1.397 . S
C687 C692 1.363 . S
C688 H665 0.950 . S
C688 C687 1.397 . S
C688 C689 1.334 . S
C689 H666 0.950 . S
C689 C688 1.334 . S
C689 C690 1.287 . S
C690 C689 1.287 . S
C690 C691 1.524 . S
C690 H709 0.913 . S
C691 H667 0.950 . S
C691 C690 1.524 . S
C691 C692 1.415 . S
C692 H668 0.950 . S
C692 C687 1.363 . S
C692 C691 1.415 . S
C693 H669 0.951 . S
C693 C694 1.366 . S
C693 C695 1.388 . S
C694 C693 1.366 . S
C694 C698 1.385 . S
C695 H670 0.951 . S
C695 C693 1.388 . S
C695 C696 1.366 . S
C696 C695 1.366 . S
C696 C697 1.414 . S
C696 C699 1.499 . S
C697 H671 0.950 . S
C697 C696 1.414 . S
C697 C698 1.374 . S
C698 H672 0.950 . S
C698 C694 1.385 . S
C698 C697 1.374 . S
C699 C696 1.499 . S
C699 C700 1.373 . S
C699 C701 1.389 . S
C700 H673 0.950 . S
C700 C686 1.377 . S
C700 C699 1.373 . S
C701 C685 1.377 . S
C701 C699 1.389 . S
C701 C702 1.524 . S
C702 C701 1.524 . S
C702 C703 1.397 . S
C702 C707 1.363 . S
C703 H674 0.950 . S
C703 C702 1.397 . S
C703 C704 1.334 . S
C704 H675 0.950 . S
C704 C703 1.334 . S
C704 C705 1.287 . S
C705 C704 1.287 . S
C705 C706 1.524 . S
C705 H708 0.999 . S
C706 H676 0.950 . S
C706 C705 1.524 . S
C706 C707 1.415 . S
C707 H677 0.950 . S
C707 C702 1.363 . S
C707 C706 1.415 . S
H708 C705 0.999 . S
H709 C690 0.913 . S
H710 C728 0.951 . S
H711 C730 0.951 . S
H712 C732 0.950 . S
H713 C733 0.950 . S
H714 C735 0.950 . S
H715 C738 0.950 . S
H716 C739 0.950 . S
H717 C741 0.950 . S
H718 C742 0.950 . S
H719 C743 0.951 . S
H720 C745 0.951 . S
H721 C747 0.950 . S
H722 C748 0.950 . S
H723 C750 0.950 . S
H724 C753 0.950 . S
H725 C754 0.950 . S
H726 C756 0.950 . S
H727 C757 0.950 . S
C728 H710 0.951 . S
C728 C729 1.366 . S
C728 C730 1.388 . S
C729 C728 1.366 . S
C729 C733 1.385 . S
C730 H711 0.951 . S
C730 C728 1.388 . S
C730 C731 1.366 . S
C731 C730 1.366 . S
C731 C732 1.414 . S
C731 C734 1.499 . S
C732 H712 0.950 . S
C732 C731 1.414 . S
C732 C733 1.374 . S
C733 H713 0.950 . S
C733 C729 1.385 . S
C733 C732 1.374 . S
C734 C731 1.499 . S
C734 C735 1.373 . S
C734 C736 1.389 . S
C735 H714 0.950 . S
C735 C734 1.373 . S
C735 C751 1.377 . S
C736 C734 1.389 . S
C736 C737 1.524 . S
C736 C750 1.377 . S
C737 C736 1.524 . S
C737 C738 1.397 . S
C737 C742 1.363 . S
C738 H715 0.950 . S
C738 C737 1.397 . S
C738 C739 1.334 . S
C739 H716 0.950 . S
C739 C738 1.334 . S
C739 C740 1.287 . S
C740 C739 1.287 . S
C740 C741 1.524 . S
C740 H759 0.913 . S
C741 H717 0.950 . S
C741 C740 1.524 . S
C741 C742 1.415 . S
C742 H718 0.950 . S
C742 C737 1.363 . S
C742 C741 1.415 . S
C743 H719 0.951 . S
C743 C744 1.366 . S
C743 C745 1.388 . S
C744 C743 1.366 . S
C744 C748 1.385 . S
C745 H720 0.951 . S
C745 C743 1.388 . S
C745 C746 1.366 . S
C746 C745 1.366 . S
C746 C747 1.414 . S
C746 C749 1.499 . S
C747 H721 0.950 . S
C747 C746 1.414 . S
C747 C748 1.374 . S
C748 H722 0.950 . S
C748 C744 1.385 . S
C748 C747 1.374 . S
C749 C746 1.499 . S
C749 C750 1.373 . S
C749 C751 1.389 . S
C750 H723 0.950 . S
C750 C736 1.377 . S
C750 C749 1.373 . S
C751 C735 1.377 . S
C751 C749 1.389 . S
C751 C752 1.524 . S
C752 C751 1.524 . S
C752 C753 1.397 . S
C752 C757 1.363 . S
C753 H724 0.950 . S
C753 C752 1.397 . S
C753 C754 1.334 . S
C754 H725 0.950 . S
C754 C753 1.334 . S
C754 C755 1.287 . S
C755 C754 1.287 . S
C755 C756 1.524 . S
C755 H758 0.999 . S
C756 H726 0.950 . S
C756 C755 1.524 . S
C756 C757 1.415 . S
C757 H727 0.950 . S
C757 C752 1.363 . S
C757 C756 1.415 . S
H758 C755 0.999 . S
H759 C740 0.913 . S
C179 C111 3.498 . S
C194 C12 3.498 . S
C229 C92 3.498 . S
C244 C31 3.498 . S
C279 C69 0.148 . S
C294 C128 0.148 . S
C329 C48 0.149 . S
C344 C149 0.149 . S
C379 C29 1.027 . S
C394 C8 1.027 . S
C429 C52 4.822 . S
C444 C71 4.822 . S
C479 C109 1.026 . S
C494 C88 1.026 . S
C529 C151 4.822 . S
C544 C132 4.822 . S
C579 C57 1.464 1_545 S
C594 C2 1.465 1_655 S
C629 C17 1.464 1_445 S
C644 C42 1.466 1_565 S
C679 C137 1.464 . S
C694 C82 1.461 . S
C729 C122 1.464 . S
C744 C97 1.466 . S
