# Generated by pormake.
# Topology tfs, (6)-cn, num edge types: 1
# Building blocks:
#     Node 0, Type 0, BuildingBlock: CIFDUS_clean_sbu_1, # of connection points: 6
#     Node 1, Type 0, BuildingBlock: CIFDUS_clean_sbu_1, # of connection points: 6
#     Node 2, Type 0, BuildingBlock: CIFDUS_clean_sbu_1, # of connection points: 6
#     Node 3, Type 0, BuildingBlock: CIFDUS_clean_sbu_1, # of connection points: 6
#     Node 4, Type 0, BuildingBlock: CIFDUS_clean_sbu_1, # of connection points: 6
#     Node 5, Type 0, BuildingBlock: CIFDUS_clean_sbu_1, # of connection points: 6
#     Edge 6, Type (0, 0), BuildingBlock: XIVTED_clean_linker_0, # of connection points: 2
#     Edge 7, Type (0, 0), BuildingBlock: XIVTED_clean_linker_0, # of connection points: 2
#     Edge 8, Type (0, 0), BuildingBlock: XIVTED_clean_linker_0, # of connection points: 2
#     Edge 9, Type (0, 0), BuildingBlock: XIVTED_clean_linker_0, # of connection points: 2
#     Edge 10, Type (0, 0), BuildingBlock: XIVTED_clean_linker_0, # of connection points: 2
#     Edge 11, Type (0, 0), BuildingBlock: XIVTED_clean_linker_0, # of connection points: 2
#     Edge 12, Type (0, 0), BuildingBlock: XIVTED_clean_linker_0, # of connection points: 2
#     Edge 13, Type (0, 0), BuildingBlock: XIVTED_clean_linker_0, # of connection points: 2
#     Edge 14, Type (0, 0), BuildingBlock: XIVTED_clean_linker_0, # of connection points: 2
#     Edge 15, Type (0, 0), BuildingBlock: XIVTED_clean_linker_0, # of connection points: 2
#     Edge 16, Type (0, 0), BuildingBlock: XIVTED_clean_linker_0, # of connection points: 2
#     Edge 17, Type (0, 0), BuildingBlock: XIVTED_clean_linker_0, # of connection points: 2
#     Edge 18, Type (0, 0), BuildingBlock: XIVTED_clean_linker_0, # of connection points: 2
#     Edge 19, Type (0, 0), BuildingBlock: XIVTED_clean_linker_0, # of connection points: 2
#     Edge 20, Type (0, 0), BuildingBlock: XIVTED_clean_linker_0, # of connection points: 2
#     Edge 21, Type (0, 0), BuildingBlock: XIVTED_clean_linker_0, # of connection points: 2
#     Edge 22, Type (0, 0), BuildingBlock: XIVTED_clean_linker_0, # of connection points: 2
#     Edge 23, Type (0, 0), BuildingBlock: XIVTED_clean_linker_0, # of connection points: 2
# Relax obj value: 0.214
# Max RMSD: 0.172
# Mean RMSD: 0.172
data_MOF--net-tfs--node1-CIFDUS_clean_sbu_1--edge1-XIVTED_clean_linker_0
_symmetry_space_group_name_H-M    P1
_symmetry_Int_Tables_number       1
_symmetry_cell_setting            triclinic
loop_
_symmetry_equiv_pos_as_xyz
'x, y, z'
_cell_length_a     41.966007
_cell_length_b     41.913447
_cell_length_c     16.010025
_cell_angle_alpha  90.502012
_cell_angle_beta   89.663858
_cell_angle_gamma 119.7354
loop_
_atom_site_label
_atom_site_type_symbol
_atom_site_fract_x
_atom_site_fract_y
_atom_site_fract_z
_atom_type_partial_charge
O0 O 0.21182 0.41985 0.86817 0.0
Mn1 Mn 0.21134 0.42359 0.99938 0.0
O2 O 0.16016 0.41998 0.82826 0.0
Mn3 Mn 0.1455 0.42931 0.93114 0.0
O4 O 0.20944 0.42655 0.1326 0.0
O5 O 0.23742 0.39302 0.01278 0.0
Mn6 Mn 0.27437 0.42076 0.08251 0.0
O7 O 0.25984 0.47547 0.99446 0.0
O8 O 0.25036 0.41128 0.18281 0.0
O9 O 0.16009 0.37264 0.00144 0.0
O10 O 0.11637 0.38853 0.99374 0.0
O11 O 0.28973 0.39427 0.02169 0.0
O12 O 0.30264 0.4703 0.06384 0.0
C13 C 0.1809 0.4815 0.98783 0.0
C14 C 0.18884 0.4177 0.81185 0.0
C15 C 0.22462 0.41874 0.1936 0.0
C16 C 0.25882 0.38128 0.9826 0.0
C17 C 0.29209 0.48957 0.02571 0.0
C18 C 0.12605 0.36469 0.00603 0.0
O19 O 0.18616 0.45361 0.98828 0.0
O20 O 0.15043 0.47483 0.95315 0.0
O21 O 0.79223 0.20672 0.86727 0.0
Mn22 Mn 0.79188 0.20889 0.99977 0.0
O23 O 0.73769 0.15772 0.83232 0.0
Mn24 Mn 0.71844 0.14371 0.93904 0.0
O25 O 0.79171 0.21035 0.13455 0.0
O26 O 0.84884 0.23422 0.00423 0.0
Mn27 Mn 0.85924 0.27331 0.06931 0.0
O28 O 0.78807 0.25717 0.99326 0.0
O29 O 0.84927 0.25248 0.17286 0.0
O30 O 0.79106 0.1572 0.0033 0.0
O31 O 0.73158 0.11371 0.99369 0.0
O32 O 0.89885 0.28775 0.00279 0.0
O33 O 0.83766 0.30165 0.05358 0.0
C34 C 0.70331 0.17898 0.0033 0.0
C35 C 0.7689 0.18482 0.81231 0.0
C36 C 0.81687 0.22726 0.19131 0.0
C37 C 0.88115 0.25517 0.97042 0.0
C38 C 0.80675 0.29013 0.02035 0.0
C39 C 0.76499 0.12318 0.00597 0.0
O40 O 0.73653 0.18458 0.99738 0.0
O41 O 0.67868 0.14821 0.97084 0.0
O42 O 0.58978 0.79015 0.86787 0.0
Mn43 Mn 0.58646 0.78741 0.99933 0.0
O44 O 0.58941 0.73792 0.8288 0.0
Mn45 Mn 0.58124 0.71552 0.93264 0.0
O46 O 0.58385 0.78424 0.13304 0.0
O47 O 0.61683 0.84431 0.01123 0.0
Mn48 Mn 0.58786 0.85351 0.07819 0.0
O49 O 0.53431 0.7833 0.99363 0.0
O50 O 0.59679 0.84041 0.18036 0.0
O51 O 0.63765 0.78745 0.00172 0.0
O52 O 0.62253 0.72807 0.99442 0.0
O53 O 0.61411 0.89492 0.01848 0.0
O54 O 0.53854 0.83237 0.05726 0.0
C55 C 0.52914 0.69884 0.98949 0.0
C56 C 0.59148 0.76866 0.81165 0.0
C57 C 0.59034 0.80773 0.19319 0.0
C58 C 0.6283 0.87731 0.98154 0.0
C59 C 0.51974 0.80177 0.02152 0.0
C60 C 0.64606 0.76164 0.00622 0.0
O61 O 0.55665 0.73209 0.98962 0.0
O62 O 0.53634 0.67501 0.95557 0.0
O63 O 0.80701 0.58897 0.86585 0.0
Mn64 Mn 0.80416 0.58446 0.99741 0.0
O65 O 0.85647 0.58394 0.82907 0.0
Mn66 Mn 0.86986 0.57644 0.93444 0.0
O67 O 0.80282 0.58072 0.13163 0.0
O68 O 0.77877 0.6161 0.00706 0.0
Mn69 Mn 0.74086 0.58747 0.07445 0.0
O70 O 0.75573 0.53369 0.98384 0.0
O71 O 0.76292 0.59844 0.17648 0.0
O72 O 0.85547 0.63446 0.00635 0.0
O73 O 0.89907 0.61829 0.99513 0.0
O74 O 0.72488 0.6121 0.01113 0.0
O75 O 0.71308 0.53753 0.05776 0.0
C76 C 0.8332 0.52523 0.99247 0.0
C77 C 0.8293 0.58832 0.81045 0.0
C78 C 0.78738 0.58966 0.19109 0.0
C79 C 0.75672 0.62657 0.97546 0.0
C80 C 0.72364 0.51902 0.01564 0.0
C81 C 0.88931 0.64201 0.01043 0.0
O82 O 0.82856 0.55351 0.99022 0.0
O83 O 0.86396 0.531 0.96041 0.0
O84 O 0.22108 0.79841 0.86999 0.0
Mn85 Mn 0.22519 0.80102 0.0012 0.0
O86 O 0.27195 0.85029 0.82767 0.0
Mn87 Mn 0.29599 0.8666 0.92958 0.0
O88 O 0.23184 0.8064 0.13266 0.0
O89 O 0.16807 0.77413 0.01165 0.0
Mn90 Mn 0.16164 0.73958 0.08541 0.0
O91 O 0.22882 0.75219 0.00191 0.0
O92 O 0.18056 0.76036 0.18757 0.0
O93 O 0.22427 0.85157 0.99887 0.0
O94 O 0.28322 0.89605 0.98984 0.0
O95 O 0.11568 0.72858 0.06466 0.0
O96 O 0.17566 0.70695 0.04877 0.0
C97 C 0.31291 0.8315 0.98768 0.0
C98 C 0.24149 0.82107 0.81279 0.0
C99 C 0.21179 0.78878 0.19568 0.0
C100 C 0.13194 0.75742 0.01774 0.0
C101 C 0.2076 0.71827 0.02039 0.0
C102 C 0.24955 0.88579 0.00171 0.0
O103 O 0.28003 0.82665 0.98901 0.0
O104 O 0.33653 0.86169 0.95198 0.0
O105 O 0.42187 0.21438 0.87259 0.0
Mn106 Mn 0.42422 0.21887 0.00382 0.0
O107 O 0.41067 0.2602 0.84184 0.0
Mn108 Mn 0.42407 0.28399 0.94549 0.0
O109 O 0.42617 0.22558 0.13631 0.0
O110 O 0.39116 0.16195 0.01369 0.0
Mn111 Mn 0.41894 0.15321 0.08273 0.0
O112 O 0.47582 0.21938 0.00517 0.0
O113 O 0.42259 0.17411 0.18613 0.0
O114 O 0.37247 0.21775 0.00243 0.0
O115 O 0.38793 0.27533 0.02109 0.0
O116 O 0.3813 0.10826 0.06631 0.0
O117 O 0.46215 0.16248 0.03545 0.0
C118 C 0.47884 0.3109 0.97886 0.0
C119 C 0.41421 0.23273 0.81968 0.0
C120 C 0.4255 0.20541 0.19762 0.0
C121 C 0.37017 0.12596 0.01975 0.0
C122 C 0.48553 0.19489 0.0156 0.0
C123 C 0.36366 0.24211 0.0228 0.0
O124 O 0.4578 0.27523 0.9886 0.0
O125 O 0.4635 0.32883 0.95005 0.0
H126 H 0.31899 0.24545 0.14287 0.0
H127 H 0.27672 0.35684 0.84182 0.0
H128 H 0.32616 0.23069 0.87853 0.0
H129 H 0.21532 0.31972 0.0707 0.0
H130 H 0.28697 0.30429 0.84479 0.0
H131 H 0.2738 0.26501 0.11626 0.0
C132 C 0.30952 0.24439 0.07955 0.0
C133 C 0.32591 0.23578 0.01301 0.0
C134 C 0.26986 0.30661 0.89261 0.0
C135 C 0.27602 0.26063 0.9813 0.0
C136 C 0.26336 0.33635 0.88993 0.0
C137 C 0.24499 0.34276 0.95586 0.0
C138 C 0.25882 0.28371 0.96303 0.0
C139 C 0.22934 0.31572 0.01809 0.0
C140 C 0.28404 0.25606 0.06411 0.0
C141 C 0.31365 0.23636 0.93176 0.0
N142 N 0.23787 0.28831 0.02211 0.0
N143 N 0.29042 0.24974 0.91795 0.0
H144 H 0.1006 0.32064 0.87012 0.0
H145 H 0.90027 0.21636 0.07276 0.0
H146 H 0.07818 0.32537 0.1311 0.0
H147 H 0.92431 0.26831 0.8322 0.0
H148 H 0.96384 0.22919 0.08205 0.0
H149 H 0.03564 0.27532 0.84793 0.0
C150 C 0.08251 0.3104 0.92381 0.0
C151 C 0.0951 0.3264 0.00299 0.0
C152 C 0.95474 0.23625 0.02552 0.0
C153 C 0.02039 0.27508 0.97754 0.0
C154 C 0.91812 0.22815 0.01916 0.0
C155 C 0.90674 0.24126 0.95145 0.0
C156 C 0.97994 0.25661 0.96252 0.0
C157 C 0.93169 0.25746 0.8852 0.0
C158 C 0.04526 0.28503 0.91071 0.0
C159 C 0.06991 0.31323 0.06949 0.0
N160 N 0.96724 0.26535 0.89305 0.0
N161 N 0.03374 0.28874 0.05517 0.0
H162 H 0.75954 0.07833 0.13481 0.0
H163 H 0.65484 0.91765 0.8398 0.0
H164 H 0.77974 0.09384 0.87056 0.0
H165 H 0.68809 0.89865 0.07927 0.0
H166 H 0.70633 0.98071 0.84306 0.0
H167 H 0.74017 0.01302 0.11651 0.0
C168 C 0.76194 0.06845 0.07364 0.0
C169 C 0.77209 0.09188 0.00445 0.0
C170 C 0.7034 0.96238 0.89348 0.0
C171 C 0.74736 0.01641 0.98183 0.0
C172 C 0.67431 0.92599 0.89074 0.0
C173 C 0.66714 0.90253 0.95896 0.0
C174 C 0.72483 0.97583 0.96621 0.0
C175 C 0.69278 0.91554 0.02473 0.0
C176 C 0.7503 0.03094 0.06286 0.0
C177 C 0.77295 0.077 0.9259 0.0
N178 N 0.71949 0.95162 0.02838 0.0
N179 N 0.75966 0.04015 0.9163 0.0
H180 H 0.79737 0.68698 0.0708 0.0
H181 H 0.68832 0.77797 0.86833 0.0
H182 H 0.73975 0.65254 0.8368 0.0
H183 H 0.68742 0.7559 0.13053 0.0
H184 H 0.73379 0.75816 0.84538 0.0
H185 H 0.78452 0.73799 0.07717 0.0
C186 C 0.78424 0.69157 0.01779 0.0
C187 C 0.76964 0.66531 0.95301 0.0
C188 C 0.72492 0.75929 0.90848 0.0
C189 C 0.75432 0.72342 0.96077 0.0
C190 C 0.69946 0.77125 0.92197 0.0
C191 C 0.68445 0.76922 0.00181 0.0
C192 C 0.73599 0.74573 0.97557 0.0
C193 C 0.69876 0.75865 0.06836 0.0
C194 C 0.7762 0.72029 0.02252 0.0
C195 C 0.75179 0.6722 0.88748 0.0
N196 N 0.72335 0.74687 0.05368 0.0
N197 N 0.74398 0.7001 0.89376 0.0
H198 H 0.09665 0.74172 0.86811 0.0
H199 H 0.91411 0.69181 0.88581 0.0
H200 H 0.10888 0.79811 0.10157 0.0
H201 H 0.93719 0.67568 0.1386 0.0
H202 H 0.97876 0.73935 0.86842 0.0
H203 H 0.03287 0.72815 0.86101 0.0
C204 C 0.08674 0.75351 0.91498 0.0
C205 C 0.10827 0.77122 0.98538 0.0
C206 C 0.96929 0.72644 0.92868 0.0
C207 C 0.03458 0.75388 0.98043 0.0
C208 C 0.93227 0.69982 0.93924 0.0
C209 C 0.92011 0.68019 0.0143 0.0
C210 C 0.99418 0.7337 0.99408 0.0
C211 C 0.94522 0.69065 0.08038 0.0
C212 C 0.05 0.74517 0.91173 0.0
C213 C 0.09334 0.78463 0.04584 0.0
N214 N 0.98112 0.71639 0.06849 0.0
N215 N 0.057 0.77419 0.04416 0.0
H216 H 0.2384 0.91382 0.86154 0.0
H217 H 0.30564 0.10435 0.09746 0.0
H218 H 0.24673 0.92867 0.12839 0.0
H219 H 0.35211 0.09245 0.86723 0.0
H220 H 0.25693 0.04018 0.08608 0.0
H221 H 0.25318 0.97792 0.84588 0.0
C222 C 0.24117 0.92995 0.91711 0.0
C223 C 0.24074 0.91573 0.99655 0.0
C224 C 0.27676 0.0521 0.03595 0.0
C225 C 0.25832 0.98926 0.97891 0.0
C226 C 0.30415 0.08906 0.04127 0.0
C227 C 0.33329 0.10375 0.98365 0.0
C228 C 0.27802 0.03001 0.97118 0.0
C229 C 0.33023 0.08229 0.91308 0.0
C230 C 0.25012 0.96667 0.90797 0.0
C231 C 0.24604 0.9383 0.06626 0.0
N232 N 0.30377 0.04616 0.90993 0.0
N233 N 0.25505 0.97408 0.05582 0.0
H234 H 0.20575 0.67919 0.15387 0.0
H235 H 0.22921 0.53324 0.88267 0.0
H236 H 0.23963 0.69675 0.896 0.0
H237 H 0.18971 0.51684 0.13593 0.0
H238 H 0.24989 0.59898 0.89678 0.0
H239 H 0.2158 0.62682 0.15788 0.0
C240 C 0.21598 0.67228 0.09826 0.0
C241 C 0.22141 0.69197 0.02415 0.0
C242 C 0.23795 0.58133 0.95035 0.0
C243 C 0.23228 0.63117 0.02761 0.0
C244 C 0.22673 0.54389 0.94281 0.0
C245 C 0.20814 0.51973 0.00868 0.0
C246 C 0.23012 0.59451 0.02414 0.0
C247 C 0.20446 0.53464 0.08419 0.0
C248 C 0.22169 0.64229 0.10056 0.0
C249 C 0.23497 0.68212 0.9542 0.0
N250 N 0.2147 0.57091 0.08939 0.0
N251 N 0.23925 0.65185 0.9571 0.0
H252 H 0.51059 0.15272 0.08356 0.0
H253 H 0.70305 0.2325 0.90881 0.0
H254 H 0.55069 0.25696 0.95937 0.0
H255 H 0.67319 0.18201 0.15062 0.0
H256 H 0.65355 0.24766 0.91973 0.0
H257 H 0.57227 0.16428 0.09689 0.0
C258 C 0.53231 0.17825 0.05845 0.0
C259 C 0.52478 0.20375 0.01932 0.0
C260 C 0.65902 0.23494 0.97215 0.0
C261 C 0.59722 0.21725 0.03578 0.0
C262 C 0.68763 0.22671 0.96657 0.0
C263 C 0.69225 0.20596 0.0291 0.0
C264 C 0.63474 0.2217 0.04017 0.0
C265 C 0.67079 0.19821 0.1013 0.0
C266 C 0.56793 0.18497 0.06737 0.0
C267 C 0.55497 0.23635 0.98939 0.0
N268 N 0.64237 0.20511 0.10383 0.0
N269 N 0.58999 0.24195 0.99694 0.0
H270 H 0.47758 0.69343 0.88082 0.0
H271 H 0.32842 0.53115 0.15862 0.0
H272 H 0.4929 0.67368 0.13668 0.0
H273 H 0.31574 0.53909 0.89409 0.0
H274 H 0.38097 0.59314 0.15898 0.0
H275 H 0.41196 0.64852 0.8931 0.0
C276 C 0.46671 0.68107 0.94101 0.0
C277 C 0.49058 0.68767 0.00832 0.0
C278 C 0.3665 0.58179 0.10087 0.0
C279 C 0.41585 0.63503 0.02184 0.0
C280 C 0.33636 0.54636 0.10064 0.0
C281 C 0.31795 0.52978 0.026 0.0
C282 C 0.37906 0.60097 0.02552 0.0
C283 C 0.32923 0.55084 0.95292 0.0
C284 C 0.42934 0.65492 0.94752 0.0
C285 C 0.47535 0.66993 0.08385 0.0
N286 N 0.35957 0.58515 0.95416 0.0
N287 N 0.43914 0.64405 0.08819 0.0
H288 H 0.78393 0.47399 0.88677 0.0
H289 H 0.80179 0.32559 0.15592 0.0
H290 H 0.82328 0.48985 0.13963 0.0
H291 H 0.77838 0.31288 0.89231 0.0
H292 H 0.79059 0.37731 0.16035 0.0
H293 H 0.76231 0.40801 0.8986 0.0
C294 C 0.78617 0.46321 0.94639 0.0
C295 C 0.8051 0.4873 0.01271 0.0
C296 C 0.78722 0.36298 0.10159 0.0
C297 C 0.78193 0.41221 0.02558 0.0
C298 C 0.79353 0.33335 0.09907 0.0
C299 C 0.79149 0.31529 0.0234 0.0
C300 C 0.77946 0.37541 0.02748 0.0
C301 C 0.7804 0.32622 0.9518 0.0
C302 C 0.77443 0.42563 0.95258 0.0
C303 C 0.80835 0.47215 0.08753 0.0
N304 N 0.77553 0.35615 0.95518 0.0
N305 N 0.79753 0.43574 0.09147 0.0
H306 H 0.31686 0.78404 0.87875 0.0
H307 H 0.47801 0.79461 0.15558 0.0
H308 H 0.33753 0.82014 0.135 0.0
H309 H 0.47051 0.776 0.88963 0.0
H310 H 0.41558 0.78446 0.15697 0.0
H311 H 0.36034 0.76127 0.89103 0.0
C312 C 0.32915 0.7854 0.93897 0.0
C313 C 0.3234 0.80364 0.00632 0.0
C314 C 0.42712 0.78186 0.09834 0.0
C315 C 0.37428 0.77913 0.0199 0.0
C316 C 0.46276 0.78754 0.09754 0.0
C317 C 0.47952 0.78657 0.0222 0.0
C318 C 0.40806 0.7758 0.02289 0.0
C319 C 0.45855 0.7771 0.94893 0.0
C320 C 0.35443 0.77295 0.94552 0.0
C321 C 0.34081 0.80576 0.08206 0.0
N322 N 0.42407 0.77281 0.95078 0.0
N323 N 0.36593 0.79426 0.08643 0.0
H324 H 0.697 0.48124 0.86896 0.0
H325 H 0.52785 0.30938 0.09358 0.0
H326 H 0.68827 0.46848 0.13618 0.0
H327 H 0.52207 0.35764 0.86136 0.0
H328 H 0.59471 0.35346 0.09772 0.0
H329 H 0.64098 0.42113 0.85402 0.0
C330 C 0.68403 0.46513 0.92417 0.0
C331 C 0.69699 0.47965 0.00379 0.0
C332 C 0.57866 0.35371 0.04529 0.0
C333 C 0.63314 0.41135 0.98764 0.0
C334 C 0.54072 0.32852 0.0428 0.0
C335 C 0.51944 0.33026 0.97775 0.0
C336 C 0.59506 0.38001 0.9815 0.0
C337 C 0.5374 0.35562 0.91329 0.0
C338 C 0.65198 0.43104 0.91584 0.0
C339 C 0.67887 0.45806 0.07369 0.0
N340 N 0.57392 0.37956 0.91712 0.0
N341 N 0.64764 0.42512 0.06416 0.0
H342 H 0.25425 0.45012 0.72573 0.0
H343 H 0.15888 0.37899 0.27633 0.0
H344 H 0.13794 0.37801 0.6938 0.0
H345 H 0.27135 0.4636 0.3108 0.0
H346 H 0.15028 0.37639 0.42905 0.0
H347 H 0.26176 0.45178 0.57321 0.0
C348 C 0.23047 0.43402 0.6867 0.0
C349 C 0.19546 0.41396 0.72227 0.0
C350 C 0.17669 0.39593 0.40306 0.0
C351 C 0.20357 0.4161 0.54805 0.0
C352 C 0.18136 0.3977 0.31602 0.0
C353 C 0.21569 0.42186 0.28142 0.0
C354 C 0.20665 0.41837 0.45527 0.0
C355 C 0.24438 0.44479 0.33541 0.0
C356 C 0.23462 0.43531 0.59964 0.0
C357 C 0.16542 0.39403 0.66872 0.0
N358 N 0.23929 0.4424 0.41945 0.0
N359 N 0.17012 0.39566 0.58449 0.0
H360 H 0.72851 0.13949 0.68369 0.0
H361 H 0.85972 0.26831 0.32132 0.0
H362 H 0.82752 0.24253 0.73026 0.0
H363 H 0.75637 0.17016 0.27155 0.0
H364 H 0.84892 0.25787 0.46986 0.0
H365 H 0.73934 0.14889 0.5343 0.0
C366 C 0.75266 0.16422 0.66285 0.0
C367 C 0.77706 0.19041 0.72076 0.0
C368 C 0.82853 0.2385 0.42686 0.0
C369 C 0.78953 0.2012 0.54739 0.0
C370 C 0.83464 0.24431 0.34127 0.0
C371 C 0.80896 0.21993 0.2826 0.0
C372 C 0.79647 0.20791 0.45566 0.0
C373 C 0.77697 0.18971 0.31384 0.0
C374 C 0.75873 0.16949 0.57694 0.0
C375 C 0.8079 0.22158 0.68866 0.0
N376 N 0.7717 0.18451 0.39816 0.0
N377 N 0.81317 0.22611 0.60433 0.0
H378 H 0.568 0.81104 0.73024 0.0
H379 H 0.61699 0.76689 0.27114 0.0
H380 H 0.62108 0.74672 0.68719 0.0
H381 H 0.55884 0.82596 0.31806 0.0
H382 H 0.61916 0.75889 0.42312 0.0
H383 H 0.56651 0.81861 0.57869 0.0
C384 C 0.57983 0.79901 0.68909 0.0
C385 C 0.59449 0.77809 0.72156 0.0
C386 C 0.60566 0.77333 0.39992 0.0
C387 C 0.59257 0.78619 0.54789 0.0
C388 C 0.60414 0.77754 0.31325 0.0
C389 C 0.58782 0.79717 0.28214 0.0
C390 C 0.59054 0.7887 0.45533 0.0
C391 C 0.57202 0.81092 0.3395 0.0
C392 C 0.57869 0.80301 0.60247 0.0
C393 C 0.60912 0.76277 0.66496 0.0
N394 N 0.57386 0.80653 0.4229 0.0
N395 N 0.60771 0.76703 0.5812 0.0
H396 H 0.76698 0.57893 0.73039 0.0
H397 H 0.85116 0.59927 0.26686 0.0
H398 H 0.87827 0.6037 0.68261 0.0
H399 H 0.74052 0.57502 0.32067 0.0
H400 H 0.86214 0.60033 0.41844 0.0
H401 H 0.75737 0.57824 0.57933 0.0
C402 C 0.78949 0.58459 0.6884 0.0
C403 C 0.82338 0.59119 0.7197 0.0
C404 C 0.83544 0.59467 0.39671 0.0
C405 C 0.81257 0.59014 0.54616 0.0
C406 C 0.82916 0.59383 0.31025 0.0
C407 C 0.79503 0.58739 0.28087 0.0
C408 C 0.80727 0.58872 0.45377 0.0
C409 C 0.7675 0.58068 0.34015 0.0
C410 C 0.78397 0.58397 0.60197 0.0
C411 C 0.8515 0.59812 0.6617 0.0
N412 N 0.77423 0.58159 0.42315 0.0
N413 N 0.84545 0.59732 0.57813 0.0
H414 H 0.23201 0.75229 0.30095 0.0
H415 H 0.23525 0.86724 0.70584 0.0
H416 H 0.2169 0.84649 0.28783 0.0
H417 H 0.22694 0.76074 0.71731 0.0
H418 H 0.23146 0.86227 0.55323 0.0
H419 H 0.23692 0.759 0.45316 0.0
C420 C 0.23083 0.77509 0.33032 0.0
C421 C 0.22486 0.79937 0.28207 0.0
C422 C 0.23 0.83976 0.58893 0.0
C423 C 0.22872 0.80628 0.45641 0.0
C424 C 0.23179 0.84242 0.67597 0.0
C425 C 0.23083 0.81409 0.72398 0.0
C426 C 0.22809 0.80886 0.54927 0.0
C427 C 0.22701 0.78282 0.68252 0.0
C428 C 0.23301 0.77855 0.41719 0.0
C429 C 0.22244 0.82781 0.3229 0.0
N430 N 0.22617 0.7812 0.59741 0.0
N431 N 0.22419 0.83039 0.40791 0.0
H432 H 0.37473 0.24515 0.70233 0.0
H433 H 0.47041 0.20336 0.31457 0.0
H434 H 0.44998 0.20384 0.7279 0.0
H435 H 0.38535 0.23136 0.28353 0.0
H436 H 0.46632 0.20825 0.46582 0.0
H437 H 0.37896 0.24202 0.55032 0.0
C438 C 0.39188 0.235 0.67595 0.0
C439 C 0.41208 0.22475 0.72833 0.0
C440 C 0.44873 0.21372 0.42634 0.0
C441 C 0.41769 0.22193 0.55331 0.0
C442 C 0.45135 0.21135 0.33979 0.0
C443 C 0.42846 0.21734 0.28623 0.0
C444 C 0.42268 0.2218 0.4606 0.0
C445 C 0.40398 0.22719 0.32239 0.0
C446 C 0.39439 0.23342 0.58896 0.0
C447 C 0.4337 0.21173 0.6903 0.0
N448 N 0.40153 0.22883 0.40741 0.0
N449 N 0.43619 0.21105 0.6053 0.0
loop_
_geom_bond_atom_site_label_1
_geom_bond_atom_site_label_2
_geom_bond_distance
_geom_bond_site_symmetry_2
_ccdc_geom_bond_type
O0 Mn1 2.163 1_556 S
O0 C14 1.244 . S
Mn1 O0 2.163 1_554 S
Mn1 O4 2.160 . S
Mn1 O5 2.221 . S
Mn1 O7 2.163 . S
Mn1 O9 2.160 . S
Mn1 O19 2.221 1_554 S
O2 Mn3 2.087 . S
O2 C14 1.256 . S
Mn3 O2 2.087 . S
Mn3 O10 2.089 . S
Mn3 O19 2.290 . S
Mn3 O20 2.251 . S
O4 Mn1 2.160 . S
O4 C15 1.239 . S
O5 Mn1 2.221 . S
O5 Mn6 2.290 . S
O5 C16 1.278 1_554 S
Mn6 O5 2.290 . S
Mn6 O8 2.089 . S
Mn6 O11 2.251 . S
Mn6 O12 2.087 . S
O7 Mn1 2.163 . S
O7 C17 1.244 . S
O8 Mn6 2.089 . S
O8 C15 1.256 . S
O9 Mn1 2.160 . S
O9 C18 1.239 1_554 S
O10 Mn3 2.089 . S
O10 C18 1.256 . S
O11 Mn6 2.251 . S
O11 C16 1.241 1_554 S
O12 Mn6 2.087 . S
O12 C17 1.256 . S
C13 O19 1.278 . S
C13 O20 1.241 . S
C14 O0 1.244 . S
C14 O2 1.256 . S
C15 O4 1.239 . S
C15 O8 1.256 . S
C16 O5 1.278 1_556 S
C16 O11 1.241 1_556 S
C17 O7 1.244 . S
C17 O12 1.256 . S
C18 O9 1.239 1_556 S
C18 O10 1.256 . S
O19 Mn1 2.221 1_556 S
O19 Mn3 2.290 . S
O19 C13 1.278 . S
O20 Mn3 2.251 . S
O20 C13 1.241 . S
O21 Mn22 2.163 1_556 S
O21 C35 1.244 . S
Mn22 O21 2.163 1_554 S
Mn22 O25 2.160 . S
Mn22 O26 2.221 . S
Mn22 O28 2.163 . S
Mn22 O30 2.160 . S
Mn22 O40 2.221 1_554 S
O23 Mn24 2.087 . S
O23 C35 1.256 . S
Mn24 O23 2.087 . S
Mn24 O31 2.089 . S
Mn24 O40 2.290 . S
Mn24 O41 2.251 . S
O25 Mn22 2.160 . S
O25 C36 1.239 . S
O26 Mn22 2.221 . S
O26 Mn27 2.290 . S
O26 C37 1.278 1_554 S
Mn27 O26 2.290 . S
Mn27 O29 2.089 . S
Mn27 O32 2.251 . S
Mn27 O33 2.087 . S
O28 Mn22 2.163 . S
O28 C38 1.244 . S
O29 Mn27 2.089 . S
O29 C36 1.256 . S
O30 Mn22 2.160 . S
O30 C39 1.239 1_554 S
O31 Mn24 2.089 . S
O31 C39 1.256 . S
O32 Mn27 2.251 . S
O32 C37 1.241 1_554 S
O33 Mn27 2.087 . S
O33 C38 1.256 . S
C34 O40 1.278 . S
C34 O41 1.241 . S
C35 O21 1.244 . S
C35 O23 1.256 . S
C36 O25 1.239 . S
C36 O29 1.256 . S
C37 O26 1.278 1_556 S
C37 O32 1.241 1_556 S
C38 O28 1.244 . S
C38 O33 1.256 . S
C39 O30 1.239 1_556 S
C39 O31 1.256 . S
O40 Mn22 2.221 1_556 S
O40 Mn24 2.290 . S
O40 C34 1.278 . S
O41 Mn24 2.251 . S
O41 C34 1.241 . S
O42 Mn43 2.163 1_556 S
O42 C56 1.244 . S
Mn43 O42 2.163 1_554 S
Mn43 O46 2.160 . S
Mn43 O47 2.221 . S
Mn43 O49 2.163 . S
Mn43 O51 2.160 . S
Mn43 O61 2.221 1_554 S
O44 Mn45 2.087 . S
O44 C56 1.256 . S
Mn45 O44 2.087 . S
Mn45 O52 2.089 . S
Mn45 O61 2.290 . S
Mn45 O62 2.251 . S
O46 Mn43 2.160 . S
O46 C57 1.239 . S
O47 Mn43 2.221 . S
O47 Mn48 2.290 . S
O47 C58 1.278 1_554 S
Mn48 O47 2.290 . S
Mn48 O50 2.089 . S
Mn48 O53 2.251 . S
Mn48 O54 2.087 . S
O49 Mn43 2.163 . S
O49 C59 1.244 . S
O50 Mn48 2.089 . S
O50 C57 1.256 . S
O51 Mn43 2.160 . S
O51 C60 1.239 1_554 S
O52 Mn45 2.089 . S
O52 C60 1.256 . S
O53 Mn48 2.251 . S
O53 C58 1.241 1_554 S
O54 Mn48 2.087 . S
O54 C59 1.256 . S
C55 O61 1.278 . S
C55 O62 1.241 . S
C56 O42 1.244 . S
C56 O44 1.256 . S
C57 O46 1.239 . S
C57 O50 1.256 . S
C58 O47 1.278 1_556 S
C58 O53 1.241 1_556 S
C59 O49 1.244 . S
C59 O54 1.256 . S
C60 O51 1.239 1_556 S
C60 O52 1.256 . S
O61 Mn43 2.221 1_556 S
O61 Mn45 2.290 . S
O61 C55 1.278 . S
O62 Mn45 2.251 . S
O62 C55 1.241 . S
O63 Mn64 2.163 1_556 S
O63 C77 1.244 . S
Mn64 O63 2.163 1_554 S
Mn64 O67 2.160 . S
Mn64 O68 2.221 . S
Mn64 O70 2.163 . S
Mn64 O72 2.160 . S
Mn64 O82 2.221 1_554 S
O65 Mn66 2.087 . S
O65 C77 1.256 . S
Mn66 O65 2.087 . S
Mn66 O73 2.089 . S
Mn66 O82 2.290 . S
Mn66 O83 2.251 . S
O67 Mn64 2.160 . S
O67 C78 1.239 . S
O68 Mn64 2.221 . S
O68 Mn69 2.290 . S
O68 C79 1.278 1_554 S
Mn69 O68 2.290 . S
Mn69 O71 2.089 . S
Mn69 O74 2.251 . S
Mn69 O75 2.087 . S
O70 Mn64 2.163 . S
O70 C80 1.244 . S
O71 Mn69 2.089 . S
O71 C78 1.256 . S
O72 Mn64 2.160 . S
O72 C81 1.239 1_554 S
O73 Mn66 2.089 . S
O73 C81 1.256 . S
O74 Mn69 2.251 . S
O74 C79 1.241 1_554 S
O75 Mn69 2.087 . S
O75 C80 1.256 . S
C76 O82 1.278 . S
C76 O83 1.241 . S
C77 O63 1.244 . S
C77 O65 1.256 . S
C78 O67 1.239 . S
C78 O71 1.256 . S
C79 O68 1.278 1_556 S
C79 O74 1.241 1_556 S
C80 O70 1.244 . S
C80 O75 1.256 . S
C81 O72 1.239 1_556 S
C81 O73 1.256 . S
O82 Mn64 2.221 1_556 S
O82 Mn66 2.290 . S
O82 C76 1.278 . S
O83 Mn66 2.251 . S
O83 C76 1.241 . S
O84 Mn85 2.163 1_556 S
O84 C98 1.244 . S
Mn85 O84 2.163 1_554 S
Mn85 O88 2.160 . S
Mn85 O89 2.221 . S
Mn85 O91 2.163 . S
Mn85 O93 2.160 . S
Mn85 O103 2.221 1_554 S
O86 Mn87 2.087 . S
O86 C98 1.256 . S
Mn87 O86 2.087 . S
Mn87 O94 2.089 . S
Mn87 O103 2.290 . S
Mn87 O104 2.251 . S
O88 Mn85 2.160 . S
O88 C99 1.239 . S
O89 Mn85 2.221 . S
O89 Mn90 2.290 . S
O89 C100 1.278 1_554 S
Mn90 O89 2.290 . S
Mn90 O92 2.089 . S
Mn90 O95 2.251 . S
Mn90 O96 2.087 . S
O91 Mn85 2.163 . S
O91 C101 1.244 . S
O92 Mn90 2.089 . S
O92 C99 1.256 . S
O93 Mn85 2.160 . S
O93 C102 1.239 1_554 S
O94 Mn87 2.089 . S
O94 C102 1.256 . S
O95 Mn90 2.251 . S
O95 C100 1.241 1_554 S
O96 Mn90 2.087 . S
O96 C101 1.256 . S
C97 O103 1.278 . S
C97 O104 1.241 . S
C98 O84 1.244 . S
C98 O86 1.256 . S
C99 O88 1.239 . S
C99 O92 1.256 . S
C100 O89 1.278 1_556 S
C100 O95 1.241 1_556 S
C101 O91 1.244 . S
C101 O96 1.256 . S
C102 O93 1.239 1_556 S
C102 O94 1.256 . S
O103 Mn85 2.221 1_556 S
O103 Mn87 2.290 . S
O103 C97 1.278 . S
O104 Mn87 2.251 . S
O104 C97 1.241 . S
O105 Mn106 2.163 1_556 S
O105 C119 1.244 . S
Mn106 O105 2.163 1_554 S
Mn106 O109 2.160 . S
Mn106 O110 2.221 . S
Mn106 O112 2.163 . S
Mn106 O114 2.160 . S
Mn106 O124 2.221 1_554 S
O107 Mn108 2.087 . S
O107 C119 1.256 . S
Mn108 O107 2.087 . S
Mn108 O115 2.089 . S
Mn108 O124 2.290 . S
Mn108 O125 2.251 . S
O109 Mn106 2.160 . S
O109 C120 1.239 . S
O110 Mn106 2.221 . S
O110 Mn111 2.290 . S
O110 C121 1.278 1_554 S
Mn111 O110 2.290 . S
Mn111 O113 2.089 . S
Mn111 O116 2.251 . S
Mn111 O117 2.087 . S
O112 Mn106 2.163 . S
O112 C122 1.244 . S
O113 Mn111 2.089 . S
O113 C120 1.256 . S
O114 Mn106 2.160 . S
O114 C123 1.239 1_554 S
O115 Mn108 2.089 . S
O115 C123 1.256 . S
O116 Mn111 2.251 . S
O116 C121 1.241 1_554 S
O117 Mn111 2.087 . S
O117 C122 1.256 . S
C118 O124 1.278 . S
C118 O125 1.241 . S
C119 O105 1.244 . S
C119 O107 1.256 . S
C120 O109 1.239 . S
C120 O113 1.256 . S
C121 O110 1.278 1_556 S
C121 O116 1.241 1_556 S
C122 O112 1.244 . S
C122 O117 1.256 . S
C123 O114 1.239 1_556 S
C123 O115 1.256 . S
O124 Mn106 2.221 1_556 S
O124 Mn108 2.290 . S
O124 C118 1.278 . S
O125 Mn108 2.251 . S
O125 C118 1.241 . S
H126 C132 0.930 . S
H127 C136 0.930 . S
H128 C141 0.929 . S
H129 C139 0.929 . S
H130 C134 0.929 . S
H131 C140 0.929 . S
C132 H126 0.930 . S
C132 C133 1.367 1_554 S
C132 C140 1.378 . S
C133 C132 1.367 1_556 S
C133 C141 1.433 . S
C134 H130 0.929 . S
C134 C136 1.378 . S
C134 C138 1.350 . S
C135 C138 1.463 . S
C135 C140 1.350 1_556 S
C135 N143 1.427 . S
C136 H127 0.930 . S
C136 C134 1.378 . S
C136 C137 1.367 . S
C137 C136 1.367 . S
C137 C139 1.433 1_556 S
C138 C134 1.350 . S
C138 C135 1.463 . S
C138 N142 1.427 1_556 S
C139 H129 0.929 . S
C139 C137 1.433 1_554 S
C139 N142 1.384 . S
C140 H131 0.929 . S
C140 C132 1.378 . S
C140 C135 1.350 1_554 S
C141 H128 0.929 . S
C141 C133 1.433 . S
C141 N143 1.384 . S
N142 C138 1.427 1_554 S
N142 C139 1.384 . S
N143 C135 1.427 . S
N143 C141 1.384 . S
H144 C150 0.930 . S
H145 C154 0.930 . S
H146 C159 0.929 . S
H147 C157 0.929 . S
H148 C152 0.929 . S
H149 C158 0.929 . S
C150 H144 0.930 . S
C150 C151 1.367 . S
C150 C158 1.378 . S
C151 C150 1.367 . S
C151 C159 1.433 1_556 S
C152 H148 0.929 . S
C152 C154 1.378 . S
C152 C156 1.350 1_554 S
C153 C156 1.463 1_455 S
C153 C158 1.350 . S
C153 N161 1.427 1_556 S
C154 H145 0.930 . S
C154 C152 1.378 . S
C154 C155 1.367 1_554 S
C155 C154 1.367 1_556 S
C155 C157 1.433 . S
C156 C152 1.350 1_556 S
C156 C153 1.463 1_655 S
C156 N160 1.427 . S
C157 H147 0.929 . S
C157 C155 1.433 . S
C157 N160 1.384 . S
C158 H149 0.929 . S
C158 C150 1.378 . S
C158 C153 1.350 . S
C159 H146 0.929 . S
C159 C151 1.433 1_554 S
C159 N161 1.384 . S
N160 C156 1.427 . S
N160 C157 1.384 . S
N161 C153 1.427 1_554 S
N161 C159 1.384 . S
H162 C168 0.930 . S
H163 C172 0.930 . S
H164 C177 0.929 . S
H165 C175 0.929 . S
H166 C170 0.929 . S
H167 C176 0.929 . S
C168 H162 0.930 . S
C168 C169 1.367 1_554 S
C168 C176 1.378 . S
C169 C168 1.367 1_556 S
C169 C177 1.433 . S
C170 H166 0.929 . S
C170 C172 1.378 . S
C170 C174 1.350 . S
C171 C174 1.463 1_545 S
C171 C176 1.350 1_556 S
C171 N179 1.427 . S
C172 H163 0.930 . S
C172 C170 1.378 . S
C172 C173 1.367 . S
C173 C172 1.367 . S
C173 C175 1.433 1_556 S
C174 C170 1.350 . S
C174 C171 1.463 1_565 S
C174 N178 1.427 1_556 S
C175 H165 0.929 . S
C175 C173 1.433 1_554 S
C175 N178 1.384 . S
C176 H167 0.929 . S
C176 C168 1.378 . S
C176 C171 1.350 1_554 S
C177 H164 0.929 . S
C177 C169 1.433 . S
C177 N179 1.384 . S
N178 C174 1.427 1_554 S
N178 C175 1.384 . S
N179 C171 1.427 . S
N179 C177 1.384 . S
H180 C186 0.930 . S
H181 C190 0.930 . S
H182 C195 0.929 . S
H183 C193 0.929 . S
H184 C188 0.929 . S
H185 C194 0.929 . S
C186 H180 0.930 . S
C186 C187 1.367 1_554 S
C186 C194 1.378 . S
C187 C186 1.367 1_556 S
C187 C195 1.433 . S
C188 H184 0.929 . S
C188 C190 1.378 . S
C188 C192 1.350 . S
C189 C192 1.463 . S
C189 C194 1.350 1_556 S
C189 N197 1.427 . S
C190 H181 0.930 . S
C190 C188 1.378 . S
C190 C191 1.367 . S
C191 C190 1.367 . S
C191 C193 1.433 1_556 S
C192 C188 1.350 . S
C192 C189 1.463 . S
C192 N196 1.427 1_556 S
C193 H183 0.929 . S
C193 C191 1.433 1_554 S
C193 N196 1.384 . S
C194 H185 0.929 . S
C194 C186 1.378 . S
C194 C189 1.350 1_554 S
C195 H182 0.929 . S
C195 C187 1.433 . S
C195 N197 1.384 . S
N196 C192 1.427 1_554 S
N196 C193 1.384 . S
N197 C189 1.427 . S
N197 C195 1.384 . S
H198 C204 0.930 . S
H199 C208 0.930 . S
H200 C213 0.929 . S
H201 C211 0.929 . S
H202 C206 0.929 . S
H203 C212 0.929 . S
C204 H198 0.930 . S
C204 C205 1.367 . S
C204 C212 1.378 . S
C205 C204 1.367 . S
C205 C213 1.433 1_556 S
C206 H202 0.929 . S
C206 C208 1.378 . S
C206 C210 1.350 1_554 S
C207 C210 1.463 1_455 S
C207 C212 1.350 . S
C207 N215 1.427 1_556 S
C208 H199 0.930 . S
C208 C206 1.378 . S
C208 C209 1.367 1_554 S
C209 C208 1.367 1_556 S
C209 C211 1.433 . S
C210 C206 1.350 1_556 S
C210 C207 1.463 1_655 S
C210 N214 1.427 . S
C211 H201 0.929 . S
C211 C209 1.433 . S
C211 N214 1.384 . S
C212 H203 0.929 . S
C212 C204 1.378 . S
C212 C207 1.350 . S
C213 H200 0.929 . S
C213 C205 1.433 1_554 S
C213 N215 1.384 . S
N214 C210 1.427 . S
N214 C211 1.384 . S
N215 C207 1.427 1_554 S
N215 C213 1.384 . S
H216 C222 0.930 . S
H217 C226 0.930 . S
H218 C231 0.929 . S
H219 C229 0.929 . S
H220 C224 0.929 . S
H221 C230 0.929 . S
C222 H216 0.930 . S
C222 C223 1.367 . S
C222 C230 1.378 . S
C223 C222 1.367 . S
C223 C231 1.433 1_556 S
C224 H220 0.929 . S
C224 C226 1.378 . S
C224 C228 1.350 1_554 S
C225 C228 1.463 1_565 S
C225 C230 1.350 . S
C225 N233 1.427 1_556 S
C226 H217 0.930 . S
C226 C224 1.378 . S
C226 C227 1.367 1_554 S
C227 C226 1.367 1_556 S
C227 C229 1.433 . S
C228 C224 1.350 1_556 S
C228 C225 1.463 1_545 S
C228 N232 1.427 . S
C229 H219 0.929 . S
C229 C227 1.433 . S
C229 N232 1.384 . S
C230 H221 0.929 . S
C230 C222 1.378 . S
C230 C225 1.350 . S
C231 H218 0.929 . S
C231 C223 1.433 1_554 S
C231 N233 1.384 . S
N232 C228 1.427 . S
N232 C229 1.384 . S
N233 C225 1.427 1_554 S
N233 C231 1.384 . S
H234 C240 0.930 . S
H235 C244 0.930 . S
H236 C249 0.929 . S
H237 C247 0.929 . S
H238 C242 0.929 . S
H239 C248 0.929 . S
C240 H234 0.930 . S
C240 C241 1.367 . S
C240 C248 1.378 . S
C241 C240 1.367 . S
C241 C249 1.433 1_554 S
C242 H238 0.929 . S
C242 C244 1.378 . S
C242 C246 1.350 1_556 S
C243 C246 1.463 . S
C243 C248 1.350 . S
C243 N251 1.427 1_554 S
C244 H235 0.930 . S
C244 C242 1.378 . S
C244 C245 1.367 1_556 S
C245 C244 1.367 1_554 S
C245 C247 1.433 . S
C246 C242 1.350 1_554 S
C246 C243 1.463 . S
C246 N250 1.427 . S
C247 H237 0.929 . S
C247 C245 1.433 . S
C247 N250 1.384 . S
C248 H239 0.929 . S
C248 C240 1.378 . S
C248 C243 1.350 . S
C249 H236 0.929 . S
C249 C241 1.433 1_556 S
C249 N251 1.384 . S
N250 C246 1.427 . S
N250 C247 1.384 . S
N251 C243 1.427 1_556 S
N251 C249 1.384 . S
H252 C258 0.930 . S
H253 C262 0.930 . S
H254 C267 0.929 1_556 S
H255 C265 0.929 . S
H256 C260 0.929 . S
H257 C266 0.929 . S
C258 H252 0.930 . S
C258 C259 1.367 . S
C258 C266 1.378 . S
C259 C258 1.367 . S
C259 C267 1.433 . S
C260 H256 0.929 . S
C260 C262 1.378 . S
C260 C264 1.350 1_556 S
C261 C264 1.463 . S
C261 C266 1.350 . S
C261 N269 1.425 1_554 S
C262 H253 0.930 . S
C262 C260 1.378 . S
C262 C263 1.367 1_556 S
C263 C262 1.367 1_554 S
C263 C265 1.433 . S
C264 C260 1.350 1_554 S
C264 C261 1.463 . S
C264 N268 1.427 . S
C265 H255 0.929 . S
C265 C263 1.433 . S
C265 N268 1.384 . S
C266 H257 0.929 . S
C266 C258 1.378 . S
C266 C261 1.350 . S
C267 H254 0.929 1_554 S
C267 C259 1.433 . S
C267 N269 1.383 1_554 S
N268 C264 1.427 . S
N268 C265 1.384 . S
N269 C261 1.425 1_556 S
N269 C267 1.383 1_556 S
H270 C276 0.930 . S
H271 C280 0.930 . S
H272 C285 0.929 . S
H273 C283 0.929 . S
H274 C278 0.929 . S
H275 C284 0.929 . S
C276 H270 0.930 . S
C276 C277 1.367 1_556 S
C276 C284 1.378 . S
C277 C276 1.367 1_554 S
C277 C285 1.433 . S
C278 H274 0.929 . S
C278 C280 1.378 . S
C278 C282 1.350 . S
C279 C282 1.463 . S
C279 C284 1.350 1_554 S
C279 N287 1.427 . S
C280 H271 0.930 . S
C280 C278 1.378 . S
C280 C281 1.367 . S
C281 C280 1.367 . S
C281 C283 1.433 1_554 S
C282 C278 1.350 . S
C282 C279 1.463 . S
C282 N286 1.427 1_554 S
C283 H273 0.929 . S
C283 C281 1.433 1_556 S
C283 N286 1.384 . S
C284 H275 0.929 . S
C284 C276 1.378 . S
C284 C279 1.350 1_556 S
C285 H272 0.929 . S
C285 C277 1.433 . S
C285 N287 1.384 . S
N286 C282 1.427 1_556 S
N286 C283 1.384 . S
N287 C279 1.427 . S
N287 C285 1.384 . S
H288 C294 0.930 . S
H289 C298 0.930 . S
H290 C303 0.929 . S
H291 C301 0.929 . S
H292 C296 0.929 . S
H293 C302 0.929 . S
C294 H288 0.930 . S
C294 C295 1.367 1_556 S
C294 C302 1.378 . S
C295 C294 1.367 1_554 S
C295 C303 1.433 . S
C296 H292 0.929 . S
C296 C298 1.378 . S
C296 C300 1.350 . S
C297 C300 1.463 . S
C297 C302 1.350 1_554 S
C297 N305 1.427 . S
C298 H289 0.930 . S
C298 C296 1.378 . S
C298 C299 1.367 . S
C299 C298 1.367 . S
C299 C301 1.433 1_554 S
C300 C296 1.350 . S
C300 C297 1.463 . S
C300 N304 1.427 1_554 S
C301 H291 0.929 . S
C301 C299 1.433 1_556 S
C301 N304 1.384 . S
C302 H293 0.929 . S
C302 C294 1.378 . S
C302 C297 1.350 1_556 S
C303 H290 0.929 . S
C303 C295 1.433 . S
C303 N305 1.384 . S
N304 C300 1.427 1_556 S
N304 C301 1.384 . S
N305 C297 1.427 . S
N305 C303 1.384 . S
H306 C312 0.930 . S
H307 C316 0.930 . S
H308 C321 0.929 . S
H309 C319 0.929 . S
H310 C314 0.929 . S
H311 C320 0.929 . S
C312 H306 0.930 . S
C312 C313 1.367 1_556 S
C312 C320 1.378 . S
C313 C312 1.367 1_554 S
C313 C321 1.433 . S
C314 H310 0.929 . S
C314 C316 1.378 . S
C314 C318 1.350 . S
C315 C318 1.463 . S
C315 C320 1.350 1_554 S
C315 N323 1.427 . S
C316 H307 0.930 . S
C316 C314 1.378 . S
C316 C317 1.367 . S
C317 C316 1.367 . S
C317 C319 1.433 1_554 S
C318 C314 1.350 . S
C318 C315 1.463 . S
C318 N322 1.427 1_554 S
C319 H309 0.929 . S
C319 C317 1.433 1_556 S
C319 N322 1.384 . S
C320 H311 0.929 . S
C320 C312 1.378 . S
C320 C315 1.350 1_556 S
C321 H308 0.929 . S
C321 C313 1.433 . S
C321 N323 1.384 . S
N322 C318 1.427 1_556 S
N322 C319 1.384 . S
N323 C315 1.427 . S
N323 C321 1.384 . S
H324 C330 0.930 . S
H325 C334 0.930 . S
H326 C339 0.929 . S
H327 C337 0.929 . S
H328 C332 0.929 . S
H329 C338 0.929 . S
C330 H324 0.930 . S
C330 C331 1.367 1_556 S
C330 C338 1.378 . S
C331 C330 1.367 1_554 S
C331 C339 1.433 . S
C332 H328 0.929 . S
C332 C334 1.378 . S
C332 C336 1.350 . S
C333 C336 1.463 . S
C333 C338 1.350 1_554 S
C333 N341 1.427 . S
C334 H325 0.930 . S
C334 C332 1.378 . S
C334 C335 1.367 . S
C335 C334 1.367 . S
C335 C337 1.433 1_554 S
C336 C332 1.350 . S
C336 C333 1.463 . S
C336 N340 1.427 1_554 S
C337 H327 0.929 . S
C337 C335 1.433 1_556 S
C337 N340 1.384 . S
C338 H329 0.929 . S
C338 C330 1.378 . S
C338 C333 1.350 1_556 S
C339 H326 0.929 . S
C339 C331 1.433 . S
C339 N341 1.384 . S
N340 C336 1.427 1_556 S
N340 C337 1.384 . S
N341 C333 1.427 . S
N341 C339 1.384 . S
H342 C348 0.930 . S
H343 C352 0.930 . S
H344 C357 0.929 . S
H345 C355 0.929 . S
H346 C350 0.929 . S
H347 C356 0.929 . S
C348 H342 0.930 . S
C348 C349 1.367 . S
C348 C356 1.378 . S
C349 C348 1.367 . S
C349 C357 1.433 . S
C350 H346 0.929 . S
C350 C352 1.378 . S
C350 C354 1.350 . S
C351 C354 1.463 . S
C351 C356 1.350 . S
C351 N359 1.427 . S
C352 H343 0.930 . S
C352 C350 1.378 . S
C352 C353 1.367 . S
C353 C352 1.367 . S
C353 C355 1.433 . S
C354 C350 1.350 . S
C354 C351 1.463 . S
C354 N358 1.427 . S
C355 H345 0.929 . S
C355 C353 1.433 . S
C355 N358 1.384 . S
C356 H347 0.929 . S
C356 C348 1.378 . S
C356 C351 1.350 . S
C357 H344 0.929 . S
C357 C349 1.433 . S
C357 N359 1.384 . S
N358 C354 1.427 . S
N358 C355 1.384 . S
N359 C351 1.427 . S
N359 C357 1.384 . S
H360 C366 0.930 . S
H361 C370 0.930 . S
H362 C375 0.929 . S
H363 C373 0.929 . S
H364 C368 0.929 . S
H365 C374 0.929 . S
C366 H360 0.930 . S
C366 C367 1.367 . S
C366 C374 1.378 . S
C367 C366 1.367 . S
C367 C375 1.433 . S
C368 H364 0.929 . S
C368 C370 1.378 . S
C368 C372 1.350 . S
C369 C372 1.463 . S
C369 C374 1.350 . S
C369 N377 1.427 . S
C370 H361 0.930 . S
C370 C368 1.378 . S
C370 C371 1.367 . S
C371 C370 1.367 . S
C371 C373 1.433 . S
C372 C368 1.350 . S
C372 C369 1.463 . S
C372 N376 1.427 . S
C373 H363 0.929 . S
C373 C371 1.433 . S
C373 N376 1.384 . S
C374 H365 0.929 . S
C374 C366 1.378 . S
C374 C369 1.350 . S
C375 H362 0.929 . S
C375 C367 1.433 . S
C375 N377 1.384 . S
N376 C372 1.427 . S
N376 C373 1.384 . S
N377 C369 1.427 . S
N377 C375 1.384 . S
H378 C384 0.930 . S
H379 C388 0.930 . S
H380 C393 0.929 . S
H381 C391 0.929 . S
H382 C386 0.929 . S
H383 C392 0.929 . S
C384 H378 0.930 . S
C384 C385 1.367 . S
C384 C392 1.378 . S
C385 C384 1.367 . S
C385 C393 1.433 . S
C386 H382 0.929 . S
C386 C388 1.378 . S
C386 C390 1.350 . S
C387 C390 1.463 . S
C387 C392 1.350 . S
C387 N395 1.427 . S
C388 H379 0.930 . S
C388 C386 1.378 . S
C388 C389 1.367 . S
C389 C388 1.367 . S
C389 C391 1.433 . S
C390 C386 1.350 . S
C390 C387 1.463 . S
C390 N394 1.427 . S
C391 H381 0.929 . S
C391 C389 1.433 . S
C391 N394 1.384 . S
C392 H383 0.929 . S
C392 C384 1.378 . S
C392 C387 1.350 . S
C393 H380 0.929 . S
C393 C385 1.433 . S
C393 N395 1.384 . S
N394 C390 1.427 . S
N394 C391 1.384 . S
N395 C387 1.427 . S
N395 C393 1.384 . S
H396 C402 0.930 . S
H397 C406 0.930 . S
H398 C411 0.929 . S
H399 C409 0.929 . S
H400 C404 0.929 . S
H401 C410 0.929 . S
C402 H396 0.930 . S
C402 C403 1.367 . S
C402 C410 1.378 . S
C403 C402 1.367 . S
C403 C411 1.433 . S
C404 H400 0.929 . S
C404 C406 1.378 . S
C404 C408 1.350 . S
C405 C408 1.463 . S
C405 C410 1.350 . S
C405 N413 1.427 . S
C406 H397 0.930 . S
C406 C404 1.378 . S
C406 C407 1.367 . S
C407 C406 1.367 . S
C407 C409 1.433 . S
C408 C404 1.350 . S
C408 C405 1.463 . S
C408 N412 1.427 . S
C409 H399 0.929 . S
C409 C407 1.433 . S
C409 N412 1.384 . S
C410 H401 0.929 . S
C410 C402 1.378 . S
C410 C405 1.350 . S
C411 H398 0.929 . S
C411 C403 1.433 . S
C411 N413 1.384 . S
N412 C408 1.427 . S
N412 C409 1.384 . S
N413 C405 1.427 . S
N413 C411 1.384 . S
H414 C420 0.930 . S
H415 C424 0.930 . S
H416 C429 0.929 . S
H417 C427 0.929 . S
H418 C422 0.929 . S
H419 C428 0.929 . S
C420 H414 0.930 . S
C420 C421 1.367 . S
C420 C428 1.378 . S
C421 C420 1.367 . S
C421 C429 1.433 . S
C422 H418 0.929 . S
C422 C424 1.378 . S
C422 C426 1.350 . S
C423 C426 1.463 . S
C423 C428 1.350 . S
C423 N431 1.427 . S
C424 H415 0.930 . S
C424 C422 1.378 . S
C424 C425 1.367 . S
C425 C424 1.367 . S
C425 C427 1.433 . S
C426 C422 1.350 . S
C426 C423 1.463 . S
C426 N430 1.427 . S
C427 H417 0.929 . S
C427 C425 1.433 . S
C427 N430 1.384 . S
C428 H419 0.929 . S
C428 C420 1.378 . S
C428 C423 1.350 . S
C429 H416 0.929 . S
C429 C421 1.433 . S
C429 N431 1.384 . S
N430 C426 1.427 . S
N430 C427 1.384 . S
N431 C423 1.427 . S
N431 C429 1.384 . S
H432 C438 0.930 . S
H433 C442 0.930 . S
H434 C447 0.929 . S
H435 C445 0.929 . S
H436 C440 0.929 . S
H437 C446 0.929 . S
C438 H432 0.930 . S
C438 C439 1.367 . S
C438 C446 1.378 . S
C439 C438 1.367 . S
C439 C447 1.433 . S
C440 H436 0.929 . S
C440 C442 1.378 . S
C440 C444 1.350 . S
C441 C444 1.463 . S
C441 C446 1.350 . S
C441 N449 1.427 . S
C442 H433 0.930 . S
C442 C440 1.378 . S
C442 C443 1.367 . S
C443 C442 1.367 . S
C443 C445 1.433 . S
C444 C440 1.350 . S
C444 C441 1.463 . S
C444 N448 1.427 . S
C445 H435 0.929 . S
C445 C443 1.433 . S
C445 N448 1.384 . S
C446 H437 0.929 . S
C446 C438 1.378 . S
C446 C441 1.350 . S
C447 H434 0.929 . S
C447 C439 1.433 . S
C447 N449 1.384 . S
N448 C444 1.427 . S
N448 C445 1.384 . S
N449 C441 1.427 . S
N449 C447 1.384 . S
C133 C123 1.304 . S
C137 C16 1.123 . S
C151 C18 1.306 . S
C155 C37 1.089 . S
C169 C39 1.300 . S
C173 C58 1.125 . S
C187 C79 1.097 . S
C191 C60 1.299 . S
C205 C100 1.101 . S
C209 C81 1.316 . S
C223 C102 1.302 . S
C227 C121 1.092 . S
C241 C101 1.541 . S
C245 C13 1.391 1_554 S
C259 C122 1.537 . S
C263 C34 1.405 1_554 S
C277 C55 1.394 1_554 S
C281 C17 1.540 . S
C295 C76 1.391 1_554 S
C299 C38 1.541 . S
C313 C97 1.391 1_554 S
C317 C59 1.541 . S
C331 C80 1.538 . S
C335 C118 1.412 1_554 S
C349 C14 1.469 . S
C353 C15 1.488 . S
C367 C35 1.466 . S
C371 C36 1.481 . S
C385 C56 1.470 . S
C389 C57 1.489 . S
C403 C77 1.477 . S
C407 C78 1.494 . S
C421 C99 1.489 . S
C425 C98 1.475 . S
C439 C119 1.472 . S
C443 C120 1.486 . S
