# Generated by pormake.
# Topology sra, (4)-cn, num edge types: 1
# Building blocks:
#     Node 0, Type 0, BuildingBlock: QUQFOY_clean_sbu_3, # of connection points: 4
#     Node 1, Type 0, BuildingBlock: QUQFOY_clean_sbu_3, # of connection points: 4
#     Node 2, Type 0, BuildingBlock: QUQFOY_clean_sbu_3, # of connection points: 4
#     Node 3, Type 0, BuildingBlock: QUQFOY_clean_sbu_3, # of connection points: 4
#     Node 4, Type 0, BuildingBlock: QUQFOY_clean_sbu_3, # of connection points: 4
#     Node 5, Type 0, BuildingBlock: QUQFOY_clean_sbu_3, # of connection points: 4
#     Node 6, Type 0, BuildingBlock: QUQFOY_clean_sbu_3, # of connection points: 4
#     Node 7, Type 0, BuildingBlock: QUQFOY_clean_sbu_3, # of connection points: 4
#     Edge 8, Type (0, 0), BuildingBlock: KIFKEQ_clean_linker_1, # of connection points: 2
#     Edge 9, Type (0, 0), BuildingBlock: KIFKEQ_clean_linker_1, # of connection points: 2
#     Edge 10, Type (0, 0), BuildingBlock: KIFKEQ_clean_linker_1, # of connection points: 2
#     Edge 11, Type (0, 0), BuildingBlock: KIFKEQ_clean_linker_1, # of connection points: 2
#     Edge 12, Type (0, 0), BuildingBlock: KIFKEQ_clean_linker_1, # of connection points: 2
#     Edge 13, Type (0, 0), BuildingBlock: KIFKEQ_clean_linker_1, # of connection points: 2
#     Edge 14, Type (0, 0), BuildingBlock: KIFKEQ_clean_linker_1, # of connection points: 2
#     Edge 15, Type (0, 0), BuildingBlock: KIFKEQ_clean_linker_1, # of connection points: 2
#     Edge 16, Type (0, 0), BuildingBlock: KIFKEQ_clean_linker_1, # of connection points: 2
#     Edge 17, Type (0, 0), BuildingBlock: KIFKEQ_clean_linker_1, # of connection points: 2
#     Edge 18, Type (0, 0), BuildingBlock: KIFKEQ_clean_linker_1, # of connection points: 2
#     Edge 19, Type (0, 0), BuildingBlock: KIFKEQ_clean_linker_1, # of connection points: 2
#     Edge 20, Type (0, 0), BuildingBlock: KIFKEQ_clean_linker_1, # of connection points: 2
#     Edge 21, Type (0, 0), BuildingBlock: KIFKEQ_clean_linker_1, # of connection points: 2
#     Edge 22, Type (0, 0), BuildingBlock: KIFKEQ_clean_linker_1, # of connection points: 2
#     Edge 23, Type (0, 0), BuildingBlock: KIFKEQ_clean_linker_1, # of connection points: 2
# Relax obj value: 0.028
# Max RMSD: 0.060
# Mean RMSD: 0.060
data_MOF--net-sra--node1-QUQFOY_clean_sbu_3--edge1-KIFKEQ_clean_linker_1
_symmetry_space_group_name_H-M    P1
_symmetry_Int_Tables_number       1
_symmetry_cell_setting            triclinic
loop_
_symmetry_equiv_pos_as_xyz
'x, y, z'
_cell_length_a     28.962606
_cell_length_b     56.153605
_cell_length_c     34.342323
_cell_angle_alpha  89.675424
_cell_angle_beta   90.052975
_cell_angle_gamma 89.632653
loop_
_atom_site_label
_atom_site_type_symbol
_atom_site_fract_x
_atom_site_fract_y
_atom_site_fract_z
_atom_type_partial_charge
C0 C 0.08584 0.09699 0.21161 0.0
O1 O 0.05768 0.10538 0.23642 0.0
Cd2 Cd 0.97673 0.11087 0.22286 0.0
O3 O 0.0716 0.09013 0.17847 0.0
Cd4 Cd -0.00061 0.08632 0.14128 0.0
C5 C -0.01312 0.14607 0.14075 0.0
O6 O 0.94884 0.07508 0.19473 0.0
O7 O 0.91512 0.0855 0.14116 0.0
O8 O 0.02646 0.04681 0.12411 0.0
C9 C 0.91163 0.0774 0.17558 0.0
O10 O 0.97285 0.14349 0.17567 0.0
C11 C 0.02051 0.04925 0.0877 0.0
O12 O 0.00271 0.12847 0.12151 0.0
O13 O 0.00559 0.06937 0.0758 0.0
C14 C 0.9245 0.36676 0.21179 0.0
O15 O 0.95268 0.35819 0.23661 0.0
Cd16 Cd 0.03363 0.35278 0.22314 0.0
O17 O 0.93872 0.37379 0.17863 0.0
Cd18 Cd 0.01131 0.3775 0.14179 0.0
C19 C 0.02379 0.31776 0.14162 0.0
O20 O 0.06195 0.38877 0.19518 0.0
O21 O 0.09563 0.37814 0.14195 0.0
O22 O -0.01516 0.41706 0.12335 0.0
C23 C 0.09913 0.38645 0.17608 0.0
O24 O 0.03792 0.3202 0.1765 0.0
C25 C -0.00898 0.41446 0.08705 0.0
O26 O 0.00789 0.33546 0.1223 0.0
O27 O 0.00573 0.39424 0.07584 0.0
C28 C 0.09383 0.87964 0.76885 0.0
O29 O 0.06641 0.87632 0.74057 0.0
Cd30 Cd -0.01219 0.86572 0.75158 0.0
O31 O 0.07885 0.88005 0.80371 0.0
Cd32 Cd 0.00688 0.87883 0.84233 0.0
C33 C 0.00722 0.82076 0.82082 0.0
O34 O 0.95505 0.89488 0.79326 0.0
O35 O 0.92252 0.87831 0.84286 0.0
O36 O 0.03502 0.91609 0.86667 0.0
C37 C 0.91809 0.8894 0.81078 0.0
O38 O -0.0025 0.82825 0.78668 0.0
C39 C 0.02795 0.91175 0.90243 0.0
O40 O 0.01343 0.83519 0.84887 0.0
O41 O 0.0118 0.89135 0.91101 0.0
C42 C 0.91851 0.58517 0.76556 0.0
O43 O 0.94574 0.5866 0.73671 0.0
Cd44 Cd 0.02488 0.59689 0.74636 0.0
O45 O 0.93397 0.58542 0.80029 0.0
Cd46 Cd 0.00768 0.58418 0.83701 0.0
C47 C 0.01065 0.64215 0.81551 0.0
O48 O 0.05834 0.56747 0.78757 0.0
O49 O 0.09174 0.58424 0.83642 0.0
O50 O 0.97897 0.54703 0.86207 0.0
C51 C 0.09559 0.57286 0.80478 0.0
O52 O 0.01888 0.63459 0.78125 0.0
C53 C -0.0133 0.55127 0.8977 0.0
O54 O 0.00412 0.62768 0.84371 0.0
O55 O 0.00348 0.57155 0.90582 0.0
C56 C 0.57669 0.59281 0.71135 0.0
O57 O 0.54848 0.59893 0.73781 0.0
Cd58 Cd 0.46841 0.60671 0.72353 0.0
O59 O 0.56266 0.58874 0.6769 0.0
Cd60 Cd 0.49097 0.58645 0.63853 0.0
C61 C 0.48109 0.64598 0.64611 0.0
O62 O 0.44065 0.57258 0.69032 0.0
O63 O 0.40649 0.58506 0.63814 0.0
O64 O 0.52124 0.54844 0.61748 0.0
C65 C 0.40331 0.57552 0.67159 0.0
O66 O 0.46756 0.64182 0.68078 0.0
C67 C 0.51403 0.55178 0.58142 0.0
O68 O 0.49522 0.62919 0.62422 0.0
O69 O 0.49681 0.5718 0.5714 0.0
C70 C 0.43524 0.87317 0.71777 0.0
O71 O 0.46222 0.86358 0.74256 0.0
Cd72 Cd 0.54216 0.85523 0.72872 0.0
O73 O 0.44993 0.87904 0.68418 0.0
Cd74 Cd 0.52088 0.87875 0.6452 0.0
C75 C 0.52759 0.81862 0.64967 0.0
O76 O 0.57242 0.88972 0.69743 0.0
O77 O 0.60545 0.87802 0.64445 0.0
O78 O 0.50277 0.91899 0.6251 0.0
C79 C 0.6094 0.88661 0.67839 0.0
O80 O 0.54215 0.82147 0.68433 0.0
C81 C 0.50213 0.91492 0.58884 0.0
O82 O 0.5136 0.83625 0.62919 0.0
O83 O 0.5095 0.89357 0.57822 0.0
C84 C 0.58332 0.36764 0.27059 0.0
O85 O 0.55504 0.35951 0.24577 0.0
Cd86 Cd 0.47421 0.35428 0.25954 0.0
O87 O 0.56926 0.37434 0.3039 0.0
Cd88 Cd 0.49706 0.37806 0.3413 0.0
C89 C 0.4852 0.31843 0.34082 0.0
O90 O 0.44584 0.38999 0.28829 0.0
O91 O 0.41275 0.37907 0.34168 0.0
O92 O 0.52402 0.41713 0.36006 0.0
C93 C 0.40882 0.38757 0.30754 0.0
O94 O 0.47079 0.32128 0.30603 0.0
C95 C 0.51772 0.41424 0.39633 0.0
O96 O 0.50105 0.33585 0.36023 0.0
O97 O 0.50267 0.39408 0.40739 0.0
C98 C 0.42707 0.09685 0.26986 0.0
O99 O 0.45498 0.10559 0.2452 0.0
Cd100 Cd 0.5357 0.1114 0.25876 0.0
O101 O 0.44139 0.08991 0.30311 0.0
Cd102 Cd 0.5137 0.08688 0.34051 0.0
C103 C 0.52486 0.14663 0.34 0.0
O104 O 0.56532 0.07588 0.28783 0.0
O105 O 0.59808 0.08709 0.34114 0.0
O106 O 0.49538 0.04643 0.35917 0.0
C107 C 0.60223 0.0786 0.30714 0.0
O108 O 0.53883 0.14414 0.30508 0.0
C109 C 0.49543 0.05006 0.39558 0.0
O110 O 0.50962 0.12898 0.3595 0.0
O111 O 0.503 0.07122 0.40681 0.0
H112 H 0.95743 0.29863 0.09493 0.0
H113 H 0.08599 0.28212 0.15307 0.0
H114 H 0.94693 0.2562 0.08072 0.0
H115 H 0.07617 0.24003 0.13798 0.0
H116 H 0.05394 0.16564 0.09505 0.0
H117 H 0.0646 0.20822 0.08137 0.0
H118 H 0.93418 0.22374 0.13669 0.0
H119 H 0.92419 0.18149 0.15127 0.0
C120 C -0.01583 0.28605 0.10341 0.0
C121 C 0.02232 0.29353 0.12536 0.0
C122 C 0.97811 0.26185 0.09537 0.0
C123 C 0.01077 0.24493 0.10825 0.0
C124 C 0.05075 0.25273 0.12735 0.0
C125 C 0.05621 0.27677 0.1362 0.0
C126 C 0.02698 0.17812 0.10317 0.0
C127 C -0.01158 0.17041 0.12446 0.0
C128 C 0.03313 0.20241 0.09545 0.0
C129 C 0.00019 0.21918 0.108 0.0
C130 C 0.95984 0.21116 0.12634 0.0
C131 C 0.95426 0.18703 0.13489 0.0
H132 H 0.04497 0.79017 0.76988 0.0
H133 H -0.01731 0.793 0.8839 0.0
H134 H 0.04709 0.74707 0.77329 0.0
H135 H -0.01712 0.74918 0.8868 0.0
H136 H 0.0266 0.66779 0.88248 0.0
H137 H 0.02855 0.71141 0.88845 0.0
H138 H -0.01223 0.71816 0.76778 0.0
H139 H -0.01245 0.67528 0.76161 0.0
C140 C 0.03172 0.78147 0.79578 0.0
C141 C 0.013 0.79485 0.82636 0.0
C142 C 0.03264 0.75675 0.79766 0.0
C143 C 0.01388 0.74463 0.82981 0.0
C144 C -0.00257 0.75799 0.86155 0.0
C145 C -0.00277 0.78301 0.85992 0.0
C146 C 0.01788 0.67873 0.85743 0.0
C147 C 0.0078 0.66817 0.82139 0.0
C148 C 0.01889 0.70364 0.86084 0.0
C149 C 0.00943 0.71827 0.82833 0.0
C150 C -0.00314 0.7075 0.79306 0.0
C151 C -0.00353 0.68285 0.78956 0.0
H152 H 0.5465 0.66613 0.59941 0.0
H153 H 0.42263 0.68223 0.66423 0.0
H154 H 0.55877 0.70886 0.58838 0.0
H155 H 0.43413 0.72472 0.65214 0.0
H156 H 0.45818 0.7999 0.60583 0.0
H157 H 0.4447 0.75747 0.59329 0.0
H158 H 0.57477 0.73991 0.64804 0.0
H159 H 0.5875 0.78203 0.66169 0.0
C160 C 0.52117 0.67874 0.61017 0.0
C161 C 0.4838 0.67097 0.63289 0.0
C162 C 0.52824 0.70311 0.60392 0.0
C163 C 0.49729 0.71995 0.61933 0.0
C164 C 0.45818 0.71205 0.63961 0.0
C165 C 0.45178 0.68779 0.64672 0.0
C166 C 0.48437 0.78699 0.6142 0.0
C167 C 0.52375 0.79412 0.63489 0.0
C168 C 0.4766 0.7628 0.60713 0.0
C169 C 0.50879 0.74556 0.61965 0.0
C170 C 0.54971 0.75291 0.63775 0.0
C171 C 0.55686 0.77695 0.64573 0.0
H172 H 0.42336 0.28311 0.32936 0.0
H173 H 0.55218 0.29863 0.38692 0.0
H174 H 0.43392 0.24083 0.34394 0.0
H175 H 0.56342 0.25603 0.40059 0.0
H176 H 0.58642 0.18213 0.32854 0.0
H177 H 0.57585 0.22425 0.34355 0.0
H178 H 0.44683 0.20837 0.40053 0.0
H179 H 0.45809 0.16591 0.38644 0.0
C180 C 0.45335 0.27749 0.346 0.0
C181 C 0.4871 0.29403 0.35682 0.0
C182 C 0.45925 0.25335 0.35456 0.0
C183 C 0.4995 0.24524 0.37332 0.0
C184 C 0.53202 0.26192 0.38621 0.0
C185 C 0.52554 0.28622 0.37847 0.0
C186 C 0.55653 0.18756 0.34533 0.0
C187 C 0.52292 0.17088 0.35615 0.0
C188 C 0.55064 0.21161 0.35414 0.0
C189 C 0.51051 0.21949 0.37314 0.0
C190 C 0.47812 0.20265 0.38598 0.0
C191 C 0.48461 0.17843 0.378 0.0
H192 H 0.35776 0.08085 0.31695 0.0
H193 H 0.38349 0.10976 0.20207 0.0
H194 H 0.27539 0.07986 0.3029 0.0
H195 H 0.30089 0.10904 0.18833 0.0
H196 H 0.1555 0.08162 0.16422 0.0
H197 H 0.23791 0.08049 0.17816 0.0
H198 H 0.21193 0.10866 0.29291 0.0
H199 H 0.12929 0.10952 0.27928 0.0
C200 C 0.34591 0.08696 0.28866 0.0
C201 C 0.37726 0.09541 0.26063 0.0
C202 C 0.29865 0.08652 0.28075 0.0
C203 C 0.28168 0.09446 0.24459 0.0
C204 C 0.31302 0.10259 0.21633 0.0
C205 C 0.36031 0.10309 0.22428 0.0
C206 C 0.16726 0.08749 0.19251 0.0
C207 C 0.13575 0.09568 0.22065 0.0
C208 C 0.21454 0.08697 0.20037 0.0
C209 C 0.23138 0.09454 0.23657 0.0
C210 C 0.19991 0.10247 0.26488 0.0
C211 C 0.15258 0.10307 0.257 0.0
H212 H 0.65323 0.38265 0.31776 0.0
H213 H 0.6264 0.35504 0.2027 0.0
H214 H 0.73555 0.38338 0.30356 0.0
H215 H 0.70895 0.35547 0.18881 0.0
H216 H 0.85468 0.38259 0.16451 0.0
H217 H 0.77232 0.38376 0.17859 0.0
H218 H 0.79866 0.35465 0.29323 0.0
H219 H 0.88122 0.35377 0.27946 0.0
C220 C 0.66483 0.37675 0.28942 0.0
C221 C 0.63318 0.36876 0.26136 0.0
C222 C 0.71207 0.37704 0.2814 0.0
C223 C 0.72873 0.36941 0.24513 0.0
C224 C 0.69709 0.3617 0.21689 0.0
C225 C 0.64981 0.36134 0.22493 0.0
C226 C 0.84301 0.37651 0.1928 0.0
C227 C 0.8746 0.36807 0.22087 0.0
C228 C 0.79575 0.37706 0.20075 0.0
C229 C 0.77901 0.36924 0.23696 0.0
C230 C 0.81058 0.36104 0.26519 0.0
C231 C 0.85787 0.36043 0.25722 0.0
H232 H 0.13925 0.8753 0.69951 0.0
H233 H 0.1618 0.88893 0.82185 0.0
H234 H 0.22218 0.87576 0.68855 0.0
H235 H 0.24481 0.88994 0.81061 0.0
H236 H 0.38814 0.85771 0.78213 0.0
H237 H 0.30568 0.8616 0.79491 0.0
H238 H 0.28872 0.90151 0.68783 0.0
H239 H 0.37079 0.89715 0.67454 0.0
C240 C 0.16184 0.87872 0.72398 0.0
C241 C 0.1439 0.88194 0.76158 0.0
C242 C 0.2094 0.8791 0.71765 0.0
C243 C 0.24007 0.88282 0.74875 0.0
C244 C 0.22209 0.88668 0.78617 0.0
C245 C 0.1745 0.88624 0.79254 0.0
C246 C 0.36687 0.86746 0.76146 0.0
C247 C 0.38596 0.87694 0.72718 0.0
C248 C 0.31966 0.8698 0.76889 0.0
C249 C 0.29064 0.88176 0.74226 0.0
C250 C 0.31002 0.89184 0.70857 0.0
C251 C 0.35712 0.88942 0.70107 0.0
H252 H 0.64811 0.59684 0.66061 0.0
H253 H 0.61731 0.58375 0.78181 0.0
H254 H 0.73013 0.59408 0.67454 0.0
H255 H 0.69953 0.57947 0.79564 0.0
H256 H 0.85021 0.59938 0.81474 0.0
H257 H 0.76764 0.60062 0.80214 0.0
H258 H 0.7907 0.56858 0.68944 0.0
H259 H 0.87356 0.56881 0.70132 0.0
C260 C 0.65897 0.59303 0.6902 0.0
C261 C 0.62638 0.59056 0.72015 0.0
C262 C 0.70608 0.59123 0.6982 0.0
C263 C 0.72179 0.58639 0.73624 0.0
C264 C 0.68894 0.58363 0.76613 0.0
C265 C 0.64176 0.58594 0.75823 0.0
C266 C 0.83751 0.59251 0.78736 0.0
C267 C 0.86825 0.58413 0.7589 0.0
C268 C 0.79006 0.59306 0.78018 0.0
C269 C 0.77218 0.5848 0.74465 0.0
C270 C 0.80309 0.57567 0.71673 0.0
C271 C 0.85062 0.5756 0.72361 0.0
H272 H 0.69461 0.87791 0.64722 0.0
H273 H 0.62681 0.90368 0.75098 0.0
H274 H 0.76931 0.8814 0.67952 0.0
H275 H 0.70147 0.90758 0.78294 0.0
H276 H 0.83403 0.87782 0.84071 0.0
H277 H 0.7595 0.87973 0.80798 0.0
H278 H 0.82442 0.91017 0.70614 0.0
H279 H 0.89932 0.90786 0.73869 0.0
C280 C 0.69571 0.88456 0.67675 0.0
C281 C 0.65487 0.89031 0.69669 0.0
C282 C 0.73849 0.88671 0.69516 0.0
C283 C 0.7412 0.89466 0.73384 0.0
C284 C 0.7004 0.90107 0.75332 0.0
C285 C 0.65768 0.89892 0.73495 0.0
C286 C 0.83236 0.8851 0.81146 0.0
C287 C 0.87253 0.89255 0.79217 0.0
C288 C 0.78962 0.88633 0.79279 0.0
C289 C 0.78615 0.89504 0.75444 0.0
C290 C 0.82616 0.9031 0.73552 0.0
C291 C 0.86895 0.9019 0.75424 0.0
H292 H 0.38684 0.55786 0.74439 0.0
H293 H 0.31767 0.58334 0.64051 0.0
H294 H 0.31244 0.55351 0.77672 0.0
H295 H 0.24335 0.5794 0.67311 0.0
H296 H 0.11364 0.55383 0.73326 0.0
H297 H 0.18835 0.55089 0.70066 0.0
H298 H 0.25449 0.58127 0.80151 0.0
H299 H 0.18017 0.58382 0.83428 0.0
C300 C 0.35573 0.5624 0.72838 0.0
C301 C 0.3581 0.57113 0.69002 0.0
C302 C 0.31315 0.56 0.74697 0.0
C303 C 0.27206 0.56626 0.72756 0.0
C304 C 0.27435 0.5742 0.68872 0.0
C305 C 0.31695 0.57661 0.67013 0.0
C306 C 0.14424 0.55962 0.7486 0.0
C307 C 0.14103 0.56919 0.78623 0.0
C308 C 0.18694 0.55806 0.72986 0.0
C309 C 0.22726 0.56595 0.74844 0.0
C310 C 0.22416 0.57479 0.78656 0.0
C311 C 0.18151 0.57639 0.80525 0.0
H312 H 0.62086 0.06053 0.23526 0.0
H313 H 0.68673 0.08876 0.33793 0.0
H314 H 0.69585 0.05702 0.20358 0.0
H315 H 0.76155 0.08586 0.3059 0.0
H316 H 0.89406 0.06132 0.24922 0.0
H317 H 0.81927 0.05846 0.28145 0.0
H318 H 0.75212 0.08399 0.17665 0.0
H319 H 0.82665 0.08624 0.14419 0.0
C320 C 0.65138 0.06593 0.25109 0.0
C321 C 0.64791 0.07507 0.28898 0.0
C322 C 0.6943 0.06403 0.23287 0.0
C323 C 0.73463 0.0713 0.25211 0.0
C324 C 0.73123 0.07983 0.29043 0.0
C325 C 0.68832 0.08165 0.3087 0.0
C326 C 0.86325 0.06611 0.23299 0.0
C327 C 0.86622 0.07413 0.19425 0.0
C328 C 0.82045 0.0646 0.25151 0.0
C329 C 0.77977 0.07112 0.2317 0.0
C330 C 0.78272 0.07855 0.19261 0.0
C331 C 0.82548 0.07998 0.17406 0.0
H332 H 0.18416 0.37749 0.14511 0.0
H333 H 0.11677 0.40371 0.24872 0.0
H334 H 0.25878 0.38056 0.17729 0.0
H335 H 0.19163 0.40741 0.28062 0.0
H336 H 0.32429 0.3782 0.33887 0.0
H337 H 0.24951 0.38067 0.30667 0.0
H338 H 0.31514 0.40785 0.20269 0.0
H339 H 0.39022 0.40475 0.23462 0.0
C340 C 0.18535 0.38421 0.17459 0.0
C341 C 0.14459 0.39017 0.1945 0.0
C342 C 0.22817 0.38613 0.19297 0.0
C343 C 0.23117 0.39416 0.2316 0.0
C344 C 0.19044 0.40081 0.25106 0.0
C345 C 0.14758 0.39881 0.23272 0.0
C346 C 0.32273 0.38488 0.30924 0.0
C347 C 0.36316 0.39109 0.28916 0.0
C348 C 0.2798 0.38645 0.29085 0.0
C349 C 0.27636 0.39437 0.25203 0.0
C350 C 0.31671 0.40132 0.2324 0.0
C351 C 0.35967 0.39966 0.25076 0.0
H352 H 0.04976 0.00427 0.10618 0.0
H353 H 0.00863 0.04864 0.00878 0.0
H354 H 0.05785 0.97029 0.06273 0.0
H355 H 0.016 0.01459 0.9655 0.0
H356 H 0.00317 0.91125 0.97947 0.0
H357 H 0.00655 0.94446 0.02506 0.0
H358 H 0.07285 -0.01233 0.93718 0.0
H359 H 0.06874 0.95476 0.89159 0.0
C360 C 0.04269 0.00681 0.07545 0.0
C361 C 0.02845 0.02914 0.06089 0.0
C362 C 0.04707 -0.0127 0.05064 0.0
C363 C 0.03746 -0.01028 0.01072 0.0
C364 C 0.02424 0.0122 -0.00396 0.0
C365 C 0.01978 0.0317 0.02086 0.0
C366 C 0.01902 0.92773 0.97013 0.0
C367 C 0.03525 0.93046 0.93186 0.0
C368 C 0.02109 0.94674 -0.00376 0.0
C369 C 0.03949 0.96879 0.98454 0.0
C370 C 0.05764 0.97108 0.94682 0.0
C371 C 0.05551 0.95215 0.92078 0.0
H372 H 0.01149 0.55187 0.97475 0.0
H373 H 0.94563 0.5083 0.88779 0.0
H374 H 0.00747 0.51884 0.02124 0.0
H375 H 0.94089 0.47558 0.93429 0.0
H376 H 0.9625 0.45966 0.10395 0.0
H377 H 0.95538 0.49348 0.05939 0.0
H378 H -0.00295 0.4485 0.96382 0.0
H379 H 0.00345 0.41463 0.00821 0.0
C380 C -0.00453 0.53541 0.96579 0.0
C381 C 0.97929 0.53262 0.92753 0.0
C382 C -0.00698 0.51651 -0.00758 0.0
C383 C 0.9743 0.4945 0.98128 0.0
C384 C 0.95632 0.49214 0.94353 0.0
C385 C 0.95881 0.51096 0.91697 0.0
C386 C 0.96973 0.45695 0.07335 0.0
C387 C -0.01637 0.43448 0.05958 0.0
C388 C 0.96591 0.47636 0.0479 0.0
C389 C 0.97576 0.4737 0.00812 0.0
C390 C -0.01136 0.45108 -0.00577 0.0
C391 C -0.00746 0.43169 0.01969 0.0
H392 H 0.50211 0.41436 0.47481 0.0
H393 H 0.54928 0.45886 0.37998 0.0
H394 H 0.50709 0.44813 0.51886 0.0
H395 H 0.55507 0.49252 0.4242 0.0
H396 H 0.49409 0.55169 0.50352 0.0
H397 H 0.50082 0.51827 0.45875 0.0
H398 H 0.56063 0.47509 0.55056 0.0
H399 H 0.55309 0.5083 0.59545 0.0
C400 C 0.51417 0.43126 0.4635 0.0
C401 C 0.52501 0.43398 0.42389 0.0
C402 C 0.51725 0.45059 0.48877 0.0
C403 C 0.53128 0.47304 0.47497 0.0
C404 C 0.5435 0.47555 0.43559 0.0
C405 C 0.54043 0.45622 0.41033 0.0
C406 C 0.50915 0.53515 0.51399 0.0
C407 C 0.52269 0.53257 0.55307 0.0
C408 C 0.51321 0.51602 0.48831 0.0
C409 C 0.53095 0.49396 0.50121 0.0
C410 C 0.54611 0.49172 0.53992 0.0
C411 C 0.54201 0.5108 0.56556 0.0
H412 H 0.51532 0.96202 0.60112 0.0
H413 H 0.47359 0.912 0.51305 0.0
H414 H 0.50922 -0.00562 0.55437 0.0
H415 H 0.46433 0.94465 0.46645 0.0
H416 H 0.50959 0.00303 0.38197 0.0
H417 H 0.50699 0.9704 0.42848 0.0
H418 H 0.46266 0.0194 0.51805 0.0
H419 H 0.46847 0.0523 0.47171 0.0
C420 C 0.50397 0.95804 0.57181 0.0
C421 C 0.4952 0.9345 0.5606 0.0
C422 C 0.50002 0.97667 0.54498 0.0
C423 C 0.4862 0.9723 0.5064 0.0
C424 C 0.47602 0.94872 0.49559 0.0
C425 C 0.481 0.92998 0.52231 0.0
C426 C 0.49904 0.00677 0.41158 0.0
C427 C 0.48958 0.0302 0.42336 0.0
C428 C 0.49715 -0.01201 0.43829 0.0
C429 C 0.48478 -0.00789 0.4773 0.0
C430 C 0.47347 0.01553 0.48858 0.0
C431 C 0.47642 0.03441 0.462 0.0
loop_
_geom_bond_atom_site_label_1
_geom_bond_atom_site_label_2
_geom_bond_distance
_geom_bond_site_symmetry_2
_ccdc_geom_bond_type
C0 O1 1.306 . S
C0 O3 1.160 . S
O1 C0 1.306 . S
O1 Cd2 2.228 . S
Cd2 O1 2.228 . S
Cd2 O6 2.273 1_455 S
Cd2 O10 2.277 . S
O3 C0 1.160 . S
O3 Cd4 2.203 . S
Cd4 O3 2.203 . S
Cd4 O6 2.411 1_455 S
Cd4 O7 2.333 1_455 S
Cd4 O8 2.352 . S
Cd4 O12 2.277 . S
Cd4 O13 2.356 . S
C5 O10 1.209 . S
C5 O12 1.226 . S
O6 Cd2 2.273 1_655 S
O6 Cd4 2.411 1_655 S
O6 C9 1.320 . S
O7 Cd4 2.333 1_655 S
O7 C9 1.214 . S
O8 Cd4 2.352 . S
O8 C11 1.258 . S
C9 O6 1.320 . S
C9 O7 1.214 . S
O10 Cd2 2.277 . S
O10 C5 1.209 . S
C11 O8 1.258 . S
C11 O13 1.282 . S
O12 Cd4 2.277 . S
O12 C5 1.226 . S
O13 Cd4 2.356 . S
O13 C11 1.282 . S
C14 O15 1.306 . S
C14 O17 1.160 . S
O15 C14 1.306 . S
O15 Cd16 2.228 1_655 S
Cd16 O15 2.228 1_455 S
Cd16 O20 2.273 . S
Cd16 O24 2.277 . S
O17 C14 1.160 . S
O17 Cd18 2.203 1_655 S
Cd18 O17 2.203 1_455 S
Cd18 O20 2.411 . S
Cd18 O21 2.333 . S
Cd18 O22 2.352 . S
Cd18 O26 2.277 . S
Cd18 O27 2.356 . S
C19 O24 1.209 . S
C19 O26 1.226 . S
O20 Cd16 2.273 . S
O20 Cd18 2.411 . S
O20 C23 1.320 . S
O21 Cd18 2.333 . S
O21 C23 1.214 . S
O22 Cd18 2.352 . S
O22 C25 1.258 . S
C23 O20 1.320 . S
C23 O21 1.214 . S
O24 Cd16 2.277 . S
O24 C19 1.209 . S
C25 O22 1.258 . S
C25 O27 1.282 . S
O26 Cd18 2.277 . S
O26 C19 1.226 . S
O27 Cd18 2.356 . S
O27 C25 1.282 . S
C28 O29 1.306 . S
C28 O31 1.160 . S
O29 C28 1.306 . S
O29 Cd30 2.228 . S
Cd30 O29 2.228 . S
Cd30 O34 2.273 1_455 S
Cd30 O38 2.277 . S
O31 C28 1.160 . S
O31 Cd32 2.203 . S
Cd32 O31 2.203 . S
Cd32 O34 2.411 1_455 S
Cd32 O35 2.333 1_455 S
Cd32 O36 2.352 . S
Cd32 O40 2.277 . S
Cd32 O41 2.356 . S
C33 O38 1.209 . S
C33 O40 1.226 . S
O34 Cd30 2.273 1_655 S
O34 Cd32 2.411 1_655 S
O34 C37 1.320 . S
O35 Cd32 2.333 1_655 S
O35 C37 1.214 . S
O36 Cd32 2.352 . S
O36 C39 1.258 . S
C37 O34 1.320 . S
C37 O35 1.214 . S
O38 Cd30 2.277 . S
O38 C33 1.209 . S
C39 O36 1.258 . S
C39 O41 1.282 . S
O40 Cd32 2.277 . S
O40 C33 1.226 . S
O41 Cd32 2.356 . S
O41 C39 1.282 . S
C42 O43 1.306 . S
C42 O45 1.160 . S
O43 C42 1.306 . S
O43 Cd44 2.228 1_655 S
Cd44 O43 2.228 1_455 S
Cd44 O48 2.273 . S
Cd44 O52 2.277 . S
O45 C42 1.160 . S
O45 Cd46 2.203 1_655 S
Cd46 O45 2.203 1_455 S
Cd46 O48 2.411 . S
Cd46 O49 2.333 . S
Cd46 O50 2.352 . S
Cd46 O54 2.277 . S
Cd46 O55 2.356 . S
C47 O52 1.209 . S
C47 O54 1.226 . S
O48 Cd44 2.273 . S
O48 Cd46 2.411 . S
O48 C51 1.320 . S
O49 Cd46 2.333 . S
O49 C51 1.214 . S
O50 Cd46 2.352 . S
O50 C53 1.258 . S
C51 O48 1.320 . S
C51 O49 1.214 . S
O52 Cd44 2.277 . S
O52 C47 1.209 . S
C53 O50 1.258 . S
C53 O55 1.282 . S
O54 Cd46 2.277 . S
O54 C47 1.226 . S
O55 Cd46 2.356 . S
O55 C53 1.282 . S
C56 O57 1.306 . S
C56 O59 1.160 . S
O57 C56 1.306 . S
O57 Cd58 2.228 . S
Cd58 O57 2.228 . S
Cd58 O62 2.273 . S
Cd58 O66 2.277 . S
O59 C56 1.160 . S
O59 Cd60 2.203 . S
Cd60 O59 2.203 . S
Cd60 O62 2.411 . S
Cd60 O63 2.333 . S
Cd60 O64 2.352 . S
Cd60 O68 2.277 . S
Cd60 O69 2.356 . S
C61 O66 1.209 . S
C61 O68 1.226 . S
O62 Cd58 2.273 . S
O62 Cd60 2.411 . S
O62 C65 1.320 . S
O63 Cd60 2.333 . S
O63 C65 1.214 . S
O64 Cd60 2.352 . S
O64 C67 1.258 . S
C65 O62 1.320 . S
C65 O63 1.214 . S
O66 Cd58 2.277 . S
O66 C61 1.209 . S
C67 O64 1.258 . S
C67 O69 1.282 . S
O68 Cd60 2.277 . S
O68 C61 1.226 . S
O69 Cd60 2.356 . S
O69 C67 1.282 . S
C70 O71 1.306 . S
C70 O73 1.160 . S
O71 C70 1.306 . S
O71 Cd72 2.228 . S
Cd72 O71 2.228 . S
Cd72 O76 2.273 . S
Cd72 O80 2.277 . S
O73 C70 1.160 . S
O73 Cd74 2.203 . S
Cd74 O73 2.203 . S
Cd74 O76 2.411 . S
Cd74 O77 2.333 . S
Cd74 O78 2.352 . S
Cd74 O82 2.277 . S
Cd74 O83 2.356 . S
C75 O80 1.209 . S
C75 O82 1.226 . S
O76 Cd72 2.273 . S
O76 Cd74 2.411 . S
O76 C79 1.320 . S
O77 Cd74 2.333 . S
O77 C79 1.214 . S
O78 Cd74 2.352 . S
O78 C81 1.258 . S
C79 O76 1.320 . S
C79 O77 1.214 . S
O80 Cd72 2.277 . S
O80 C75 1.209 . S
C81 O78 1.258 . S
C81 O83 1.282 . S
O82 Cd74 2.277 . S
O82 C75 1.226 . S
O83 Cd74 2.356 . S
O83 C81 1.282 . S
C84 O85 1.306 . S
C84 O87 1.160 . S
O85 C84 1.306 . S
O85 Cd86 2.228 . S
Cd86 O85 2.228 . S
Cd86 O90 2.273 . S
Cd86 O94 2.277 . S
O87 C84 1.160 . S
O87 Cd88 2.203 . S
Cd88 O87 2.203 . S
Cd88 O90 2.411 . S
Cd88 O91 2.333 . S
Cd88 O92 2.352 . S
Cd88 O96 2.277 . S
Cd88 O97 2.356 . S
C89 O94 1.209 . S
C89 O96 1.226 . S
O90 Cd86 2.273 . S
O90 Cd88 2.411 . S
O90 C93 1.320 . S
O91 Cd88 2.333 . S
O91 C93 1.214 . S
O92 Cd88 2.352 . S
O92 C95 1.258 . S
C93 O90 1.320 . S
C93 O91 1.214 . S
O94 Cd86 2.277 . S
O94 C89 1.209 . S
C95 O92 1.258 . S
C95 O97 1.282 . S
O96 Cd88 2.277 . S
O96 C89 1.226 . S
O97 Cd88 2.356 . S
O97 C95 1.282 . S
C98 O99 1.306 . S
C98 O101 1.160 . S
O99 C98 1.306 . S
O99 Cd100 2.228 . S
Cd100 O99 2.228 . S
Cd100 O104 2.273 . S
Cd100 O108 2.277 . S
O101 C98 1.160 . S
O101 Cd102 2.203 . S
Cd102 O101 2.203 . S
Cd102 O104 2.411 . S
Cd102 O105 2.333 . S
Cd102 O106 2.352 . S
Cd102 O110 2.277 . S
Cd102 O111 2.356 . S
C103 O108 1.209 . S
C103 O110 1.226 . S
O104 Cd100 2.273 . S
O104 Cd102 2.411 . S
O104 C107 1.320 . S
O105 Cd102 2.333 . S
O105 C107 1.214 . S
O106 Cd102 2.352 . S
O106 C109 1.258 . S
C107 O104 1.320 . S
C107 O105 1.214 . S
O108 Cd100 2.277 . S
O108 C103 1.209 . S
C109 O106 1.258 . S
C109 O111 1.282 . S
O110 Cd102 2.277 . S
O110 C103 1.226 . S
O111 Cd102 2.356 . S
O111 C109 1.282 . S
H112 C120 0.950 1_655 S
H113 C125 0.950 . S
H114 C122 0.950 1_655 S
H115 C124 0.950 . S
H116 C126 0.950 . S
H117 C128 0.950 . S
H118 C130 0.950 . S
H119 C131 0.950 1_655 S
C120 H112 0.950 1_455 S
C120 C121 1.386 . S
C120 C122 1.391 . S
C121 C120 1.386 . S
C121 C125 1.393 . S
C122 H114 0.950 1_455 S
C122 C120 1.391 . S
C122 C123 1.400 . S
C123 C122 1.400 . S
C123 C124 1.398 . S
C123 C129 1.491 . S
C124 H115 0.950 . S
C124 C123 1.398 . S
C124 C125 1.391 . S
C125 H113 0.950 . S
C125 C121 1.393 . S
C125 C124 1.391 . S
C126 H116 0.950 . S
C126 C127 1.386 . S
C126 C128 1.391 . S
C127 C126 1.386 . S
C127 C131 1.393 . S
C128 H117 0.950 . S
C128 C126 1.391 . S
C128 C129 1.400 . S
C129 C123 1.491 . S
C129 C128 1.400 . S
C129 C130 1.398 . S
C130 H118 0.950 . S
C130 C129 1.398 . S
C130 C131 1.391 . S
C131 H119 0.950 1_455 S
C131 C127 1.393 . S
C131 C130 1.391 . S
H132 C140 0.950 . S
H133 C145 0.950 . S
H134 C142 0.950 . S
H135 C144 0.950 . S
H136 C146 0.950 . S
H137 C148 0.950 . S
H138 C150 0.950 1_655 S
H139 C151 0.949 1_655 S
C140 H132 0.950 . S
C140 C141 1.386 . S
C140 C142 1.391 . S
C141 C140 1.386 . S
C141 C145 1.393 . S
C142 H134 0.950 . S
C142 C140 1.391 . S
C142 C143 1.400 . S
C143 C142 1.400 . S
C143 C144 1.398 . S
C143 C149 1.491 . S
C144 H135 0.950 . S
C144 C143 1.398 . S
C144 C145 1.391 . S
C145 H133 0.950 . S
C145 C141 1.393 . S
C145 C144 1.391 . S
C146 H136 0.950 . S
C146 C147 1.386 . S
C146 C148 1.391 . S
C147 C146 1.386 . S
C147 C151 1.393 . S
C148 H137 0.950 . S
C148 C146 1.391 . S
C148 C149 1.400 . S
C149 C143 1.491 . S
C149 C148 1.400 . S
C149 C150 1.398 . S
C150 H138 0.950 1_455 S
C150 C149 1.398 . S
C150 C151 1.391 . S
C151 H139 0.949 1_455 S
C151 C147 1.393 . S
C151 C150 1.391 . S
H152 C160 0.950 . S
H153 C165 0.950 . S
H154 C162 0.950 . S
H155 C164 0.950 . S
H156 C166 0.950 . S
H157 C168 0.950 . S
H158 C170 0.950 . S
H159 C171 0.950 . S
C160 H152 0.950 . S
C160 C161 1.386 . S
C160 C162 1.391 . S
C161 C160 1.386 . S
C161 C165 1.393 . S
C162 H154 0.950 . S
C162 C160 1.391 . S
C162 C163 1.400 . S
C163 C162 1.400 . S
C163 C164 1.398 . S
C163 C169 1.491 . S
C164 H155 0.950 . S
C164 C163 1.398 . S
C164 C165 1.391 . S
C165 H153 0.950 . S
C165 C161 1.393 . S
C165 C164 1.391 . S
C166 H156 0.950 . S
C166 C167 1.386 . S
C166 C168 1.391 . S
C167 C166 1.386 . S
C167 C171 1.393 . S
C168 H157 0.950 . S
C168 C166 1.391 . S
C168 C169 1.400 . S
C169 C163 1.491 . S
C169 C168 1.400 . S
C169 C170 1.398 . S
C170 H158 0.950 . S
C170 C169 1.398 . S
C170 C171 1.391 . S
C171 H159 0.950 . S
C171 C167 1.393 . S
C171 C170 1.391 . S
H172 C180 0.950 . S
H173 C185 0.950 . S
H174 C182 0.950 . S
H175 C184 0.950 . S
H176 C186 0.950 . S
H177 C188 0.950 . S
H178 C190 0.950 . S
H179 C191 0.950 . S
C180 H172 0.950 . S
C180 C181 1.386 . S
C180 C182 1.391 . S
C181 C180 1.386 . S
C181 C185 1.393 . S
C182 H174 0.950 . S
C182 C180 1.391 . S
C182 C183 1.400 . S
C183 C182 1.400 . S
C183 C184 1.398 . S
C183 C189 1.491 . S
C184 H175 0.950 . S
C184 C183 1.398 . S
C184 C185 1.391 . S
C185 H173 0.950 . S
C185 C181 1.393 . S
C185 C184 1.391 . S
C186 H176 0.950 . S
C186 C187 1.386 . S
C186 C188 1.391 . S
C187 C186 1.386 . S
C187 C191 1.393 . S
C188 H177 0.950 . S
C188 C186 1.391 . S
C188 C189 1.400 . S
C189 C183 1.491 . S
C189 C188 1.400 . S
C189 C190 1.398 . S
C190 H178 0.950 . S
C190 C189 1.398 . S
C190 C191 1.391 . S
C191 H179 0.950 . S
C191 C187 1.393 . S
C191 C190 1.391 . S
H192 C200 0.950 . S
H193 C205 0.950 . S
H194 C202 0.950 . S
H195 C204 0.950 . S
H196 C206 0.950 . S
H197 C208 0.950 . S
H198 C210 0.950 . S
H199 C211 0.950 . S
C200 H192 0.950 . S
C200 C201 1.386 . S
C200 C202 1.391 . S
C201 C200 1.386 . S
C201 C205 1.393 . S
C202 H194 0.950 . S
C202 C200 1.391 . S
C202 C203 1.400 . S
C203 C202 1.400 . S
C203 C204 1.398 . S
C203 C209 1.491 . S
C204 H195 0.950 . S
C204 C203 1.398 . S
C204 C205 1.391 . S
C205 H193 0.950 . S
C205 C201 1.393 . S
C205 C204 1.391 . S
C206 H196 0.950 . S
C206 C207 1.386 . S
C206 C208 1.391 . S
C207 C206 1.386 . S
C207 C211 1.393 . S
C208 H197 0.950 . S
C208 C206 1.391 . S
C208 C209 1.400 . S
C209 C203 1.491 . S
C209 C208 1.400 . S
C209 C210 1.398 . S
C210 H198 0.950 . S
C210 C209 1.398 . S
C210 C211 1.391 . S
C211 H199 0.950 . S
C211 C207 1.393 . S
C211 C210 1.391 . S
H212 C220 0.950 . S
H213 C225 0.950 . S
H214 C222 0.950 . S
H215 C224 0.950 . S
H216 C226 0.950 . S
H217 C228 0.950 . S
H218 C230 0.950 . S
H219 C231 0.950 . S
C220 H212 0.950 . S
C220 C221 1.386 . S
C220 C222 1.391 . S
C221 C220 1.386 . S
C221 C225 1.393 . S
C222 H214 0.950 . S
C222 C220 1.391 . S
C222 C223 1.400 . S
C223 C222 1.400 . S
C223 C224 1.398 . S
C223 C229 1.491 . S
C224 H215 0.950 . S
C224 C223 1.398 . S
C224 C225 1.391 . S
C225 H213 0.950 . S
C225 C221 1.393 . S
C225 C224 1.391 . S
C226 H216 0.950 . S
C226 C227 1.386 . S
C226 C228 1.391 . S
C227 C226 1.386 . S
C227 C231 1.393 . S
C228 H217 0.950 . S
C228 C226 1.391 . S
C228 C229 1.400 . S
C229 C223 1.491 . S
C229 C228 1.400 . S
C229 C230 1.398 . S
C230 H218 0.950 . S
C230 C229 1.398 . S
C230 C231 1.391 . S
C231 H219 0.950 . S
C231 C227 1.393 . S
C231 C230 1.391 . S
H232 C240 0.950 . S
H233 C245 0.950 . S
H234 C242 0.950 . S
H235 C244 0.950 . S
H236 C246 0.950 . S
H237 C248 0.950 . S
H238 C250 0.950 . S
H239 C251 0.950 . S
C240 H232 0.950 . S
C240 C241 1.386 . S
C240 C242 1.391 . S
C241 C240 1.386 . S
C241 C245 1.393 . S
C242 H234 0.950 . S
C242 C240 1.391 . S
C242 C243 1.400 . S
C243 C242 1.400 . S
C243 C244 1.398 . S
C243 C249 1.491 . S
C244 H235 0.950 . S
C244 C243 1.398 . S
C244 C245 1.391 . S
C245 H233 0.950 . S
C245 C241 1.393 . S
C245 C244 1.391 . S
C246 H236 0.950 . S
C246 C247 1.386 . S
C246 C248 1.391 . S
C247 C246 1.386 . S
C247 C251 1.393 . S
C248 H237 0.950 . S
C248 C246 1.391 . S
C248 C249 1.400 . S
C249 C243 1.491 . S
C249 C248 1.400 . S
C249 C250 1.398 . S
C250 H238 0.950 . S
C250 C249 1.398 . S
C250 C251 1.391 . S
C251 H239 0.950 . S
C251 C247 1.393 . S
C251 C250 1.391 . S
H252 C260 0.950 . S
H253 C265 0.950 . S
H254 C262 0.950 . S
H255 C264 0.950 . S
H256 C266 0.950 . S
H257 C268 0.950 . S
H258 C270 0.950 . S
H259 C271 0.950 . S
C260 H252 0.950 . S
C260 C261 1.386 . S
C260 C262 1.391 . S
C261 C260 1.386 . S
C261 C265 1.393 . S
C262 H254 0.950 . S
C262 C260 1.391 . S
C262 C263 1.400 . S
C263 C262 1.400 . S
C263 C264 1.398 . S
C263 C269 1.491 . S
C264 H255 0.950 . S
C264 C263 1.398 . S
C264 C265 1.391 . S
C265 H253 0.950 . S
C265 C261 1.393 . S
C265 C264 1.391 . S
C266 H256 0.950 . S
C266 C267 1.386 . S
C266 C268 1.391 . S
C267 C266 1.386 . S
C267 C271 1.393 . S
C268 H257 0.950 . S
C268 C266 1.391 . S
C268 C269 1.400 . S
C269 C263 1.491 . S
C269 C268 1.400 . S
C269 C270 1.398 . S
C270 H258 0.950 . S
C270 C269 1.398 . S
C270 C271 1.391 . S
C271 H259 0.950 . S
C271 C267 1.393 . S
C271 C270 1.391 . S
H272 C280 0.950 . S
H273 C285 0.950 . S
H274 C282 0.950 . S
H275 C284 0.950 . S
H276 C286 0.950 . S
H277 C288 0.950 . S
H278 C290 0.950 . S
H279 C291 0.950 . S
C280 H272 0.950 . S
C280 C281 1.386 . S
C280 C282 1.391 . S
C281 C280 1.386 . S
C281 C285 1.393 . S
C282 H274 0.950 . S
C282 C280 1.391 . S
C282 C283 1.400 . S
C283 C282 1.400 . S
C283 C284 1.398 . S
C283 C289 1.491 . S
C284 H275 0.950 . S
C284 C283 1.398 . S
C284 C285 1.391 . S
C285 H273 0.950 . S
C285 C281 1.393 . S
C285 C284 1.391 . S
C286 H276 0.950 . S
C286 C287 1.386 . S
C286 C288 1.391 . S
C287 C286 1.386 . S
C287 C291 1.393 . S
C288 H277 0.950 . S
C288 C286 1.391 . S
C288 C289 1.400 . S
C289 C283 1.491 . S
C289 C288 1.400 . S
C289 C290 1.398 . S
C290 H278 0.950 . S
C290 C289 1.398 . S
C290 C291 1.391 . S
C291 H279 0.950 . S
C291 C287 1.393 . S
C291 C290 1.391 . S
H292 C300 0.950 . S
H293 C305 0.950 . S
H294 C302 0.950 . S
H295 C304 0.950 . S
H296 C306 0.950 . S
H297 C308 0.950 . S
H298 C310 0.950 . S
H299 C311 0.950 . S
C300 H292 0.950 . S
C300 C301 1.386 . S
C300 C302 1.391 . S
C301 C300 1.386 . S
C301 C305 1.393 . S
C302 H294 0.950 . S
C302 C300 1.391 . S
C302 C303 1.400 . S
C303 C302 1.400 . S
C303 C304 1.398 . S
C303 C309 1.491 . S
C304 H295 0.950 . S
C304 C303 1.398 . S
C304 C305 1.391 . S
C305 H293 0.950 . S
C305 C301 1.393 . S
C305 C304 1.391 . S
C306 H296 0.950 . S
C306 C307 1.386 . S
C306 C308 1.391 . S
C307 C306 1.386 . S
C307 C311 1.393 . S
C308 H297 0.950 . S
C308 C306 1.391 . S
C308 C309 1.400 . S
C309 C303 1.491 . S
C309 C308 1.400 . S
C309 C310 1.398 . S
C310 H298 0.950 . S
C310 C309 1.398 . S
C310 C311 1.391 . S
C311 H299 0.950 . S
C311 C307 1.393 . S
C311 C310 1.391 . S
H312 C320 0.950 . S
H313 C325 0.950 . S
H314 C322 0.950 . S
H315 C324 0.950 . S
H316 C326 0.950 . S
H317 C328 0.950 . S
H318 C330 0.950 . S
H319 C331 0.950 . S
C320 H312 0.950 . S
C320 C321 1.386 . S
C320 C322 1.391 . S
C321 C320 1.386 . S
C321 C325 1.393 . S
C322 H314 0.950 . S
C322 C320 1.391 . S
C322 C323 1.400 . S
C323 C322 1.400 . S
C323 C324 1.398 . S
C323 C329 1.491 . S
C324 H315 0.950 . S
C324 C323 1.398 . S
C324 C325 1.391 . S
C325 H313 0.950 . S
C325 C321 1.393 . S
C325 C324 1.391 . S
C326 H316 0.950 . S
C326 C327 1.386 . S
C326 C328 1.391 . S
C327 C326 1.386 . S
C327 C331 1.393 . S
C328 H317 0.950 . S
C328 C326 1.391 . S
C328 C329 1.400 . S
C329 C323 1.491 . S
C329 C328 1.400 . S
C329 C330 1.398 . S
C330 H318 0.950 . S
C330 C329 1.398 . S
C330 C331 1.391 . S
C331 H319 0.950 . S
C331 C327 1.393 . S
C331 C330 1.391 . S
H332 C340 0.950 . S
H333 C345 0.950 . S
H334 C342 0.950 . S
H335 C344 0.950 . S
H336 C346 0.950 . S
H337 C348 0.950 . S
H338 C350 0.950 . S
H339 C351 0.950 . S
C340 H332 0.950 . S
C340 C341 1.386 . S
C340 C342 1.391 . S
C341 C340 1.386 . S
C341 C345 1.393 . S
C342 H334 0.950 . S
C342 C340 1.391 . S
C342 C343 1.400 . S
C343 C342 1.400 . S
C343 C344 1.398 . S
C343 C349 1.491 . S
C344 H335 0.950 . S
C344 C343 1.398 . S
C344 C345 1.391 . S
C345 H333 0.950 . S
C345 C341 1.393 . S
C345 C344 1.391 . S
C346 H336 0.950 . S
C346 C347 1.386 . S
C346 C348 1.391 . S
C347 C346 1.386 . S
C347 C351 1.393 . S
C348 H337 0.950 . S
C348 C346 1.391 . S
C348 C349 1.400 . S
C349 C343 1.491 . S
C349 C348 1.400 . S
C349 C350 1.398 . S
C350 H338 0.950 . S
C350 C349 1.398 . S
C350 C351 1.391 . S
C351 H339 0.950 . S
C351 C347 1.393 . S
C351 C350 1.391 . S
H352 C360 0.950 . S
H353 C365 0.950 . S
H354 C362 0.950 . S
H355 C364 0.950 . S
H356 C366 0.950 . S
H357 C368 0.950 . S
H358 C370 0.950 . S
H359 C371 0.950 . S
C360 H352 0.950 . S
C360 C361 1.386 . S
C360 C362 1.391 . S
C361 C360 1.386 . S
C361 C365 1.393 1_455 S
C362 H354 0.950 . S
C362 C360 1.391 . S
C362 C363 1.400 . S
C363 C362 1.400 . S
C363 C364 1.398 1_455 S
C363 C369 1.491 1_544 S
C364 H355 0.950 . S
C364 C363 1.398 1_655 S
C364 C365 1.391 . S
C365 H353 0.950 . S
C365 C361 1.393 1_655 S
C365 C364 1.391 . S
C366 H356 0.950 . S
C366 C367 1.386 1_655 S
C366 C368 1.391 . S
C367 C366 1.386 1_455 S
C367 C371 1.393 . S
C368 H357 0.950 . S
C368 C366 1.391 . S
C368 C369 1.400 1_655 S
C369 C363 1.491 1_566 S
C369 C368 1.400 1_455 S
C369 C370 1.398 . S
C370 H358 0.950 . S
C370 C369 1.398 . S
C370 C371 1.391 . S
C371 H359 0.950 . S
C371 C367 1.393 . S
C371 C370 1.391 . S
H372 C380 0.950 . S
H373 C385 0.950 . S
H374 C382 0.950 . S
H375 C384 0.950 . S
H376 C386 0.950 . S
H377 C388 0.950 . S
H378 C390 0.950 . S
H379 C391 0.950 . S
C380 H372 0.950 . S
C380 C381 1.386 . S
C380 C382 1.391 . S
C381 C380 1.386 . S
C381 C385 1.393 1_455 S
C382 H374 0.950 . S
C382 C380 1.391 . S
C382 C383 1.400 . S
C383 C382 1.400 . S
C383 C384 1.398 1_455 S
C383 C389 1.491 1_556 S
C384 H375 0.950 . S
C384 C383 1.398 1_655 S
C384 C385 1.391 . S
C385 H373 0.950 . S
C385 C381 1.393 1_655 S
C385 C384 1.391 . S
C386 H376 0.950 . S
C386 C387 1.386 1_655 S
C386 C388 1.391 . S
C387 C386 1.386 1_455 S
C387 C391 1.393 . S
C388 H377 0.950 . S
C388 C386 1.391 . S
C388 C389 1.400 1_655 S
C389 C383 1.491 1_554 S
C389 C388 1.400 1_455 S
C389 C390 1.398 . S
C390 H378 0.950 . S
C390 C389 1.398 . S
C390 C391 1.391 . S
C391 H379 0.950 . S
C391 C387 1.393 . S
C391 C390 1.391 . S
H392 C400 0.950 . S
H393 C405 0.950 . S
H394 C402 0.950 . S
H395 C404 0.950 . S
H396 C406 0.950 . S
H397 C408 0.950 . S
H398 C410 0.950 . S
H399 C411 0.950 . S
C400 H392 0.950 . S
C400 C401 1.386 . S
C400 C402 1.391 . S
C401 C400 1.386 . S
C401 C405 1.393 . S
C402 H394 0.950 . S
C402 C400 1.391 . S
C402 C403 1.400 . S
C403 C402 1.400 . S
C403 C404 1.398 . S
C403 C409 1.491 . S
C404 H395 0.950 . S
C404 C403 1.398 . S
C404 C405 1.391 . S
C405 H393 0.950 . S
C405 C401 1.393 . S
C405 C404 1.391 . S
C406 H396 0.950 . S
C406 C407 1.386 . S
C406 C408 1.391 . S
C407 C406 1.386 . S
C407 C411 1.393 . S
C408 H397 0.950 . S
C408 C406 1.391 . S
C408 C409 1.400 . S
C409 C403 1.491 . S
C409 C408 1.400 . S
C409 C410 1.398 . S
C410 H398 0.950 . S
C410 C409 1.398 . S
C410 C411 1.391 . S
C411 H399 0.950 . S
C411 C407 1.393 . S
C411 C410 1.391 . S
H412 C420 0.950 . S
H413 C425 0.950 . S
H414 C422 0.950 . S
H415 C424 0.950 . S
H416 C426 0.950 . S
H417 C428 0.950 . S
H418 C430 0.950 . S
H419 C431 0.950 . S
C420 H412 0.950 . S
C420 C421 1.386 . S
C420 C422 1.391 . S
C421 C420 1.386 . S
C421 C425 1.393 . S
C422 H414 0.950 . S
C422 C420 1.391 . S
C422 C423 1.400 . S
C423 C422 1.400 . S
C423 C424 1.398 . S
C423 C429 1.491 1_565 S
C424 H415 0.950 . S
C424 C423 1.398 . S
C424 C425 1.391 . S
C425 H413 0.950 . S
C425 C421 1.393 . S
C425 C424 1.391 . S
C426 H416 0.950 . S
C426 C427 1.386 . S
C426 C428 1.391 . S
C427 C426 1.386 . S
C427 C431 1.393 . S
C428 H417 0.950 . S
C428 C426 1.391 . S
C428 C429 1.400 . S
C429 C423 1.491 1_545 S
C429 C428 1.400 . S
C429 C430 1.398 . S
C430 H418 0.950 . S
C430 C429 1.398 . S
C430 C431 1.391 . S
C431 H419 0.950 . S
C431 C427 1.393 . S
C431 C430 1.391 . S
C121 C19 1.442 . S
C127 C5 1.439 . S
C141 C33 1.440 . S
C147 C47 1.441 . S
C161 C61 1.443 . S
C167 C75 1.439 . S
C181 C89 1.437 . S
C187 C103 1.444 . S
C201 C98 1.412 . S
C207 C0 1.420 . S
C221 C84 1.412 . S
C227 C14 1.419 . S
C241 C28 1.420 . S
C247 C70 1.417 . S
C261 C56 1.411 . S
C267 C42 1.422 . S
C281 C79 1.419 . S
C287 C37 1.415 . S
C301 C65 1.411 . S
C307 C51 1.415 . S
C321 C107 1.410 . S
C327 C9 1.413 . S
C341 C23 1.417 . S
C347 C93 1.414 . S
C361 C11 1.384 . S
C367 C39 1.385 . S
C381 C53 1.381 . S
C387 C25 1.381 . S
C401 C95 1.385 . S
C407 C67 1.383 . S
C421 C81 1.380 . S
C427 C109 1.381 . S
