# Generated by pormake.
# Topology umm, (4)-cn, num edge types: 1
# Building blocks:
#     Node 0, Type 0, BuildingBlock: KOZSID_clean_sbu_0, # of connection points: 4
#     Node 1, Type 0, BuildingBlock: KOZSID_clean_sbu_0, # of connection points: 4
#     Node 2, Type 0, BuildingBlock: KOZSID_clean_sbu_0, # of connection points: 4
#     Node 3, Type 0, BuildingBlock: KOZSID_clean_sbu_0, # of connection points: 4
#     Node 4, Type 0, BuildingBlock: KOZSID_clean_sbu_0, # of connection points: 4
#     Node 5, Type 0, BuildingBlock: KOZSID_clean_sbu_0, # of connection points: 4
#     Node 6, Type 0, BuildingBlock: KOZSID_clean_sbu_0, # of connection points: 4
#     Node 7, Type 0, BuildingBlock: KOZSID_clean_sbu_0, # of connection points: 4
#     Node 8, Type 0, BuildingBlock: KOZSID_clean_sbu_0, # of connection points: 4
#     Node 9, Type 0, BuildingBlock: KOZSID_clean_sbu_0, # of connection points: 4
#     Node 10, Type 0, BuildingBlock: KOZSID_clean_sbu_0, # of connection points: 4
#     Node 11, Type 0, BuildingBlock: KOZSID_clean_sbu_0, # of connection points: 4
#     Edge 12, Type (0, 0), BuildingBlock: OJICUG_clean_linker_0, # of connection points: 2
#     Edge 13, Type (0, 0), BuildingBlock: OJICUG_clean_linker_0, # of connection points: 2
#     Edge 14, Type (0, 0), BuildingBlock: OJICUG_clean_linker_0, # of connection points: 2
#     Edge 15, Type (0, 0), BuildingBlock: OJICUG_clean_linker_0, # of connection points: 2
#     Edge 16, Type (0, 0), BuildingBlock: OJICUG_clean_linker_0, # of connection points: 2
#     Edge 17, Type (0, 0), BuildingBlock: OJICUG_clean_linker_0, # of connection points: 2
#     Edge 18, Type (0, 0), BuildingBlock: OJICUG_clean_linker_0, # of connection points: 2
#     Edge 19, Type (0, 0), BuildingBlock: OJICUG_clean_linker_0, # of connection points: 2
#     Edge 20, Type (0, 0), BuildingBlock: OJICUG_clean_linker_0, # of connection points: 2
#     Edge 21, Type (0, 0), BuildingBlock: OJICUG_clean_linker_0, # of connection points: 2
#     Edge 22, Type (0, 0), BuildingBlock: OJICUG_clean_linker_0, # of connection points: 2
#     Edge 23, Type (0, 0), BuildingBlock: OJICUG_clean_linker_0, # of connection points: 2
#     Edge 24, Type (0, 0), BuildingBlock: OJICUG_clean_linker_0, # of connection points: 2
#     Edge 25, Type (0, 0), BuildingBlock: OJICUG_clean_linker_0, # of connection points: 2
#     Edge 26, Type (0, 0), BuildingBlock: OJICUG_clean_linker_0, # of connection points: 2
#     Edge 27, Type (0, 0), BuildingBlock: OJICUG_clean_linker_0, # of connection points: 2
#     Edge 28, Type (0, 0), BuildingBlock: OJICUG_clean_linker_0, # of connection points: 2
#     Edge 29, Type (0, 0), BuildingBlock: OJICUG_clean_linker_0, # of connection points: 2
#     Edge 30, Type (0, 0), BuildingBlock: OJICUG_clean_linker_0, # of connection points: 2
#     Edge 31, Type (0, 0), BuildingBlock: OJICUG_clean_linker_0, # of connection points: 2
#     Edge 32, Type (0, 0), BuildingBlock: OJICUG_clean_linker_0, # of connection points: 2
#     Edge 33, Type (0, 0), BuildingBlock: OJICUG_clean_linker_0, # of connection points: 2
#     Edge 34, Type (0, 0), BuildingBlock: OJICUG_clean_linker_0, # of connection points: 2
#     Edge 35, Type (0, 0), BuildingBlock: OJICUG_clean_linker_0, # of connection points: 2
# Relax obj value: 0.061
# Max RMSD: 0.163
# Mean RMSD: 0.163
data_MOF--net-umm--node1-KOZSID_clean_sbu_0--edge1-OJICUG_clean_linker_0
_symmetry_space_group_name_H-M    P1
_symmetry_Int_Tables_number       1
_symmetry_cell_setting            triclinic
loop_
_symmetry_equiv_pos_as_xyz
'x, y, z'
_cell_length_a     46.432418
_cell_length_b     46.500974
_cell_length_c     30.170576
_cell_angle_alpha  89.972091
_cell_angle_beta   90.000452
_cell_angle_gamma 119.94614
loop_
_atom_site_label
_atom_site_type_symbol
_atom_site_fract_x
_atom_site_fract_y
_atom_site_fract_z
_atom_type_partial_charge
C0 C 0.3406 0.54994 0.08373 0.0
C1 C 0.30703 0.52625 0.08325 0.0
C2 C 0.30441 0.49764 0.10011 0.0
C3 C 0.33638 0.50534 0.10974 0.0
N4 N 0.35888 0.53702 0.10006 0.0
Co5 Co 0.40767 0.55806 0.10755 0.0
N6 N 0.40552 0.51433 0.10869 0.0
C7 C 0.37802 0.48485 0.11623 0.0
C8 C 0.3839 0.45873 0.1152 0.0
C9 C 0.41725 0.47266 0.107 0.0
C10 C 0.42998 0.5067 0.10371 0.0
N11 N 0.45642 0.57903 0.11604 0.0
C12 C 0.47675 0.566 0.11175 0.0
C13 C 0.50913 0.58932 0.12309 0.0
C14 C 0.5088 0.61768 0.13519 0.0
C15 C 0.47633 0.61021 0.1307 0.0
N16 N 0.40926 0.60147 0.10534 0.0
C17 C 0.43422 0.63043 0.12038 0.0
C18 C 0.42858 0.65642 0.11284 0.0
C19 C 0.39821 0.64275 0.0918 0.0
C20 C 0.387 0.60913 0.08759 0.0
N21 N 0.40272 0.55693 0.17253 0.0
C22 C 0.41129 0.57132 0.26389 0.0
C23 C 0.39044 0.57858 0.23823 0.0
C24 C 0.38622 0.57087 0.19275 0.0
C25 C 0.42497 0.55379 0.2434 0.0
C26 C 0.42049 0.54695 0.19808 0.0
N27 N 0.41399 0.56064 0.04327 0.0
C28 C 0.44483 0.59356 0.98058 0.0
C29 C 0.42369 0.56864 0.95127 0.0
C30 C 0.39785 0.539 0.9693 0.0
C31 C 0.39353 0.53543 1.01549 0.0
C32 C 0.43938 0.58925 0.02592 0.0
H33 H 0.37348 0.51262 0.02874 0.0
H34 H 0.45575 0.60955 0.04689 0.0
H35 H 0.3712 0.57801 0.17346 0.0
H36 H 0.4333 0.5354 0.18342 0.0
C37 C 0.34671 0.48229 0.11808 0.0
C38 C 0.35432 0.58456 0.06953 0.0
C39 C 0.46568 0.53106 0.1009 0.0
C40 C 0.46451 0.63283 0.13318 0.0
H41 H 0.28659 0.52906 0.07137 0.0
H42 H 0.28209 0.47361 0.10243 0.0
H43 H 0.36598 0.4326 0.11887 0.0
H44 H 0.43074 0.4593 0.10463 0.0
H45 H 0.53061 0.58603 0.12317 0.0
H46 H 0.5299 0.64117 0.1449 0.0
H47 H 0.44518 0.68242 0.11988 0.0
H48 H 0.38574 0.65589 0.08086 0.0
H49 H 0.37884 0.59166 0.25247 0.0
H50 H 0.44013 0.54631 0.26189 0.0
H51 H 0.4657 0.6165 0.96875 0.0
H52 H 0.38072 0.51899 0.94803 0.0
C53 C 0.79393 0.33711 0.41425 0.0
C54 C 0.78433 0.30362 0.41386 0.0
C55 C 0.81057 0.30122 0.4303 0.0
C56 C 0.83473 0.33322 0.43957 0.0
N57 N 0.82529 0.35557 0.42996 0.0
Co58 Co 0.85285 0.40433 0.43712 0.0
N59 N 0.89455 0.40228 0.43789 0.0
C60 C 0.89678 0.37496 0.4458 0.0
C61 C 0.92885 0.38094 0.44463 0.0
C62 C 0.94805 0.41418 0.43588 0.0
C63 C 0.92651 0.42669 0.43224 0.0
N64 N 0.88048 0.45302 0.44525 0.0
C65 C 0.91379 0.47333 0.44037 0.0
C66 C 0.92279 0.50576 0.45119 0.0
C67 C 0.89414 0.50546 0.46364 0.0
C68 C 0.86921 0.47298 0.4598 0.0
N69 N 0.8109 0.40583 0.43533 0.0
C70 C 0.80688 0.43081 0.45031 0.0
C71 C 0.77511 0.42503 0.44347 0.0
C72 C 0.75829 0.39451 0.42301 0.0
C73 C 0.78078 0.38336 0.4184 0.0
N74 N 0.84939 0.39951 0.50212 0.0
C75 C 0.84441 0.4051 0.59438 0.0
C76 C 0.81601 0.38562 0.56861 0.0
C77 C 0.81909 0.3827 0.52268 0.0
C78 C 0.87537 0.42005 0.57318 0.0
C79 C 0.87732 0.41705 0.5274 0.0
N80 N 0.85641 0.41048 0.37285 0.0
C81 C 0.85573 0.44185 0.3098 0.0
C82 C 0.86112 0.42143 0.28125 0.0
C83 C 0.86399 0.39515 0.29939 0.0
C84 C 0.86192 0.3903 0.34547 0.0
C85 C 0.85315 0.4358 0.35515 0.0
H86 H 0.86464 0.37029 0.35898 0.0
H87 H 0.84826 0.45168 0.37584 0.0
H88 H 0.7968 0.36801 0.50355 0.0
H89 H 0.9015 0.43056 0.51233 0.0
C90 C 0.86816 0.34365 0.44786 0.0
C91 C 0.77252 0.35051 0.40088 0.0
C92 C 0.93759 0.46225 0.42875 0.0
C93 C 0.83479 0.46116 0.46264 0.0
H94 H 0.76105 0.28307 0.40241 0.0
H95 H 0.81246 0.279 0.4327 0.0
H96 H 0.93724 0.36316 0.44857 0.0
H97 H 0.97489 0.42777 0.43343 0.0
H98 H 0.94748 0.52728 0.4505 0.0
H99 H 0.8917 0.52661 0.47303 0.0
H100 H 0.76565 0.44158 0.4507 0.0
H101 H 0.73252 0.38187 0.41276 0.0
H102 H 0.79158 0.37309 0.58369 0.0
H103 H 0.89803 0.43545 0.59151 0.0
H104 H 0.85276 0.46202 0.29709 0.0
H105 H 0.86813 0.37876 0.27821 0.0
C106 C 0.46431 0.7914 0.75064 0.0
C107 C 0.48764 0.781 0.75129 0.0
C108 C 0.51626 0.8067 0.76851 0.0
C109 C 0.50898 0.83135 0.77716 0.0
N110 N 0.47755 0.82273 0.76646 0.0
Co111 Co 0.45724 0.85128 0.77228 0.0
N112 N 0.50146 0.89227 0.77446 0.0
C113 C 0.53053 0.8936 0.78325 0.0
C114 C 0.55715 0.92531 0.78256 0.0
C115 C 0.54397 0.94523 0.77324 0.0
C116 C 0.50986 0.92448 0.76897 0.0
N117 N 0.43699 0.87985 0.77901 0.0
C118 C 0.45075 0.91322 0.77435 0.0
C119 C 0.42766 0.92295 0.78418 0.0
C120 C 0.39869 0.89469 0.79568 0.0
C121 C 0.40559 0.86926 0.79236 0.0
N122 N 0.41333 0.81006 0.76916 0.0
C123 C 0.38431 0.80677 0.78294 0.0
C124 C 0.35798 0.77539 0.77543 0.0
C125 C 0.37147 0.75804 0.75579 0.0
C126 C 0.40533 0.77985 0.75232 0.0
N127 N 0.45706 0.84743 0.83731 0.0
C128 C 0.44236 0.84191 0.92852 0.0
C129 C 0.43482 0.8137 0.90303 0.0
C130 C 0.44266 0.81704 0.85761 0.0
C131 C 0.46009 0.873 0.90791 0.0
C132 C 0.46707 0.87521 0.86265 0.0
N133 N 0.45616 0.85517 0.70788 0.0
C134 C 0.42561 0.8551 0.64347 0.0
C135 C 0.45161 0.85948 0.61591 0.0
C136 C 0.48014 0.86164 0.63523 0.0
C137 C 0.48208 0.8598 0.6815 0.0
C138 C 0.42824 0.85272 0.68901 0.0
H139 H 0.50431 0.86189 0.69595 0.0
H140 H 0.40728 0.84851 0.70888 0.0
H141 H 0.43542 0.79485 0.83846 0.0
H142 H 0.47893 0.89952 0.84787 0.0
C143 C 0.53238 0.86453 0.78576 0.0
C144 C 0.42969 0.7708 0.73604 0.0
C145 C 0.48609 0.9365 0.76459 0.0
C146 C 0.38236 0.83504 0.79475 0.0
H147 H 0.4846 0.75758 0.73997 0.0
H148 H 0.54007 0.80793 0.77176 0.0
H149 H 0.58313 0.93299 0.78712 0.0
H150 H 0.55786 0.97201 0.77069 0.0
H151 H 0.4315 0.9479 0.78365 0.0
H152 H 0.37519 0.89285 0.80423 0.0
H153 H 0.33193 0.76654 0.78166 0.0
H154 H 0.35804 0.73235 0.74535 0.0
H155 H 0.42153 0.7891 0.91738 0.0
H156 H 0.46774 0.89568 0.92628 0.0
H157 H 0.40292 0.8527 0.62982 0.0
H158 H 0.50078 0.86497 0.61483 0.0
C159 C 0.6838 0.46347 0.08648 0.0
C160 C 0.71717 0.48776 0.08576 0.0
C161 C 0.71906 0.51614 0.10222 0.0
C162 C 0.6869 0.50773 0.11185 0.0
N163 N 0.66494 0.47584 0.10248 0.0
Co164 Co 0.6161 0.45386 0.11018 0.0
N165 N 0.61714 0.49706 0.11055 0.0
C166 C 0.64417 0.52686 0.11828 0.0
C167 C 0.63747 0.55244 0.11747 0.0
C168 C 0.60407 0.53781 0.10917 0.0
C169 C 0.59218 0.50393 0.10531 0.0
N170 N 0.56731 0.43198 0.11886 0.0
C171 C 0.54636 0.44425 0.11408 0.0
C172 C 0.51408 0.42026 0.12489 0.0
C173 C 0.51518 0.3924 0.13752 0.0
C174 C 0.54793 0.40073 0.13366 0.0
N175 N 0.61564 0.41098 0.10877 0.0
C176 C 0.59116 0.38187 0.12421 0.0
C177 C 0.59755 0.35632 0.11727 0.0
C178 C 0.62794 0.37044 0.09621 0.0
C179 C 0.63839 0.40386 0.09136 0.0
N180 N 0.62127 0.45571 0.17515 0.0
C181 C 0.61597 0.44539 0.26746 0.0
C182 C 0.63582 0.43691 0.24172 0.0
C183 C 0.6386 0.44279 0.19576 0.0
C184 C 0.60053 0.4609 0.24623 0.0
C185 C 0.60338 0.46572 0.20042 0.0
N186 N 0.60962 0.45072 0.04596 0.0
C187 C 0.57879 0.41745 0.98354 0.0
C188 C 0.59879 0.44295 0.95413 0.0
C189 C 0.62427 0.47287 0.97199 0.0
C190 C 0.62917 0.4763 1.01808 0.0
C191 C 0.58477 0.42169 0.02881 0.0
H192 H 0.64883 0.49941 0.03118 0.0
H193 H 0.56912 0.40112 0.04992 0.0
H194 H 0.65356 0.43551 0.17663 0.0
H195 H 0.58946 0.47594 0.18534 0.0
C196 C 0.67583 0.53022 0.12016 0.0
C197 C 0.67084 0.42878 0.07307 0.0
C198 C 0.55667 0.47895 0.10243 0.0
C199 C 0.56051 0.37877 0.13667 0.0
H200 H 0.73796 0.48548 0.07405 0.0
H201 H 0.74105 0.54044 0.10438 0.0
H202 H 0.65487 0.57867 0.12154 0.0
H203 H 0.58998 0.55058 0.10733 0.0
H204 H 0.49209 0.42268 0.12405 0.0
H205 H 0.49437 0.36861 0.14698 0.0
H206 H 0.58143 0.33029 0.12471 0.0
H207 H 0.64092 0.35771 0.08566 0.0
H208 H 0.64873 0.42541 0.25685 0.0
H209 H 0.58483 0.46781 0.26454 0.0
H210 H 0.55827 0.3942 0.97189 0.0
H211 H 0.64059 0.49329 0.95065 0.0
C212 C 0.2255 0.67429 0.41161 0.0
C213 C 0.23558 0.70788 0.41141 0.0
C214 C 0.20959 0.71067 0.428 0.0
C215 C 0.18513 0.67878 0.43719 0.0
N216 N 0.19413 0.65613 0.42741 0.0
Co217 Co 0.16602 0.60739 0.43433 0.0
N218 N 0.12467 0.6101 0.43553 0.0
C219 C 0.12292 0.63769 0.44344 0.0
C220 C 0.09101 0.63218 0.44245 0.0
C221 C 0.0714 0.59898 0.43385 0.0
C222 C 0.09254 0.586 0.43017 0.0
N223 N 0.13785 0.5587 0.44226 0.0
C224 C 0.10446 0.53877 0.43779 0.0
C225 C 0.09505 0.50624 0.44858 0.0
C226 C 0.12354 0.50605 0.46059 0.0
C227 C 0.14877 0.53838 0.45654 0.0
N228 N 0.2076 0.60521 0.43211 0.0
C229 C 0.21123 0.57992 0.4468 0.0
C230 C 0.24283 0.58529 0.43979 0.0
C231 C 0.25998 0.61587 0.41953 0.0
C232 C 0.23782 0.62747 0.41521 0.0
N233 N 0.16971 0.6119 0.49934 0.0
C234 C 0.17526 0.60307 0.5907 0.0
C235 C 0.20347 0.62377 0.56514 0.0
C236 C 0.20012 0.62813 0.51967 0.0
C237 C 0.14412 0.58964 0.57008 0.0
C238 C 0.14189 0.59424 0.52475 0.0
N239 N 0.16232 0.60153 0.37001 0.0
C240 C 0.16304 0.5705 0.30664 0.0
C241 C 0.15879 0.59174 0.2782 0.0
C242 C 0.15626 0.61814 0.29658 0.0
C243 C 0.15769 0.62238 0.34276 0.0
C244 C 0.16506 0.57598 0.35209 0.0
H245 H 0.15534 0.64256 0.35643 0.0
H246 H 0.16928 0.55957 0.37265 0.0
H247 H 0.22233 0.64306 0.50048 0.0
H248 H 0.11756 0.58166 0.50998 0.0
C249 C 0.1518 0.66877 0.44551 0.0
C250 C 0.2465 0.66049 0.39794 0.0
C251 C 0.08092 0.55032 0.42686 0.0
C252 C 0.18311 0.54974 0.45913 0.0
H253 H 0.259 0.72825 0.39997 0.0
H254 H 0.20807 0.73309 0.43053 0.0
H255 H 0.08299 0.65025 0.44642 0.0
H256 H 0.04456 0.58573 0.43151 0.0
H257 H 0.07019 0.48497 0.44827 0.0
H258 H 0.12565 0.4847 0.46991 0.0
H259 H 0.25198 0.56844 0.4468 0.0
H260 H 0.28574 0.62826 0.40923 0.0
H261 H 0.22812 0.63517 0.57946 0.0
H262 H 0.12141 0.57461 0.58848 0.0
H263 H 0.16569 0.55019 0.29375 0.0
H264 H 0.15299 0.63515 0.27548 0.0
C265 C 0.5575 0.2229 0.748 0.0
C266 C 0.53336 0.23221 0.74646 0.0
C267 C 0.50456 0.20578 0.76205 0.0
C268 C 0.51257 0.18181 0.77199 0.0
N269 N 0.54461 0.19152 0.76357 0.0
Co270 Co 0.56612 0.16429 0.77217 0.0
N271 N 0.52261 0.12242 0.77204 0.0
C272 C 0.49281 0.11997 0.77892 0.0
C273 C 0.46697 0.08786 0.77782 0.0
C274 C 0.48142 0.06885 0.77021 0.0
C275 C 0.51545 0.09054 0.76704 0.0
N276 N 0.58749 0.13697 0.78168 0.0
C277 C 0.57492 0.10374 0.77699 0.0
C278 C 0.59858 0.0951 0.7884 0.0
C279 C 0.62654 0.12383 0.8013 0.0
C280 C 0.61859 0.14847 0.79699 0.0
N281 N 0.60937 0.2064 0.77138 0.0
C282 C 0.63823 0.2106 0.78742 0.0
C283 C 0.66409 0.24246 0.78134 0.0
C284 C 0.65048 0.25918 0.76027 0.0
C285 C 0.61702 0.23654 0.75456 0.0
N286 N 0.56361 0.1677 0.83696 0.0
C287 C 0.57309 0.17301 0.92934 0.0
C288 C 0.58182 0.20121 0.9033 0.0
C289 C 0.57635 0.19796 0.85729 0.0
C290 C 0.55769 0.14201 0.90836 0.0
C291 C 0.55327 0.1399 0.86248 0.0
N292 N 0.56986 0.16088 0.7081 0.0
C293 C 0.60347 0.16281 0.64628 0.0
C294 C 0.57813 0.15728 0.61652 0.0
C295 C 0.54815 0.15316 0.63389 0.0
C296 C 0.54448 0.15491 0.67984 0.0
C297 C 0.59899 0.16482 0.69145 0.0
H298 H 0.52131 0.15167 0.69254 0.0
H299 H 0.61939 0.16966 0.71291 0.0
H300 H 0.58384 0.22012 0.83795 0.0
H301 H 0.54311 0.11575 0.84757 0.0
C302 C 0.48973 0.14839 0.78015 0.0
C303 C 0.59256 0.2447 0.7361 0.0
C304 C 0.54022 0.07967 0.76486 0.0
C305 C 0.64083 0.18287 0.80015 0.0
H306 H 0.53606 0.25545 0.73489 0.0
H307 H 0.48029 0.20368 0.76356 0.0
H308 H 0.4407 0.0793 0.78118 0.0
H309 H 0.46843 0.04203 0.76832 0.0
H310 H 0.59587 0.0706 0.78778 0.0
H311 H 0.65016 0.12652 0.81124 0.0
H312 H 0.69 0.25207 0.7895 0.0
H313 H 0.66357 0.285 0.75036 0.0
H314 H 0.59323 0.22563 0.91823 0.0
H315 H 0.55058 0.11951 0.92696 0.0
H316 H 0.62677 0.16536 0.63497 0.0
H317 H 0.52787 0.14912 0.61226 0.0
C318 C 0.46354 0.67641 0.62923 0.0
C319 C 0.48742 0.70989 0.62963 0.0
C320 C 0.51606 0.71228 0.6132 0.0
C321 C 0.50822 0.68028 0.60392 0.0
N322 N 0.47643 0.65794 0.61352 0.0
Co323 Co 0.45523 0.60918 0.60633 0.0
N324 N 0.49897 0.61121 0.60558 0.0
C325 C 0.52852 0.63853 0.59767 0.0
C326 C 0.55459 0.63253 0.59882 0.0
C327 C 0.54055 0.59929 0.60756 0.0
C328 C 0.50651 0.58679 0.61123 0.0
N329 N 0.43416 0.56049 0.59818 0.0
C330 C 0.44714 0.54017 0.60305 0.0
C331 C 0.42371 0.50774 0.59225 0.0
C332 C 0.39537 0.50805 0.57979 0.0
C333 C 0.40293 0.54054 0.58363 0.0
N334 N 0.41179 0.6077 0.60811 0.0
C335 C 0.38279 0.58273 0.59312 0.0
C336 C 0.35681 0.58852 0.59994 0.0
C337 C 0.37051 0.61904 0.62042 0.0
C338 C 0.40414 0.63018 0.62504 0.0
N339 N 0.4566 0.61402 0.54134 0.0
C340 C 0.44605 0.60845 0.44908 0.0
C341 C 0.43713 0.62793 0.47485 0.0
C342 C 0.44312 0.63084 0.52078 0.0
C343 C 0.46205 0.59348 0.47027 0.0
C344 C 0.46699 0.59647 0.51605 0.0
N345 N 0.45262 0.60301 0.67061 0.0
C346 C 0.42056 0.57164 0.73363 0.0
C347 C 0.44636 0.59205 0.7622 0.0
C348 C 0.47552 0.61833 0.74407 0.0
C349 C 0.4783 0.62318 0.69799 0.0
C350 C 0.42403 0.5777 0.68829 0.0
H351 H 0.50103 0.64319 0.68449 0.0
H352 H 0.40327 0.56182 0.66759 0.0
H353 H 0.43552 0.64553 0.53991 0.0
H354 H 0.47766 0.58296 0.53113 0.0
C355 C 0.53122 0.66984 0.59562 0.0
C356 C 0.42872 0.66301 0.64257 0.0
C357 C 0.48203 0.55123 0.61469 0.0
C358 C 0.38034 0.55238 0.58079 0.0
H359 H 0.4847 0.73044 0.64108 0.0
H360 H 0.54018 0.7345 0.61081 0.0
H361 H 0.58077 0.6503 0.59487 0.0
H362 H 0.5538 0.58569 0.60997 0.0
H363 H 0.42687 0.48621 0.59296 0.0
H364 H 0.37178 0.48691 0.57042 0.0
H365 H 0.33079 0.57197 0.59271 0.0
H366 H 0.35737 0.63168 0.63066 0.0
H367 H 0.42524 0.64047 0.45976 0.0
H368 H 0.46931 0.57808 0.45194 0.0
H369 H 0.39742 0.55148 0.74634 0.0
H370 H 0.49605 0.63471 0.76526 0.0
C371 C 0.79745 0.46359 0.95974 0.0
C372 C 0.78757 0.48728 0.96024 0.0
C373 C 0.81356 0.51589 0.94339 0.0
C374 C 0.83782 0.50819 0.93375 0.0
N375 N 0.82865 0.47651 0.94341 0.0
Co376 Co 0.8564 0.45546 0.93591 0.0
N377 N 0.89797 0.49919 0.93479 0.0
C378 C 0.89995 0.52868 0.92727 0.0
C379 C 0.93195 0.5548 0.92831 0.0
C380 C 0.95137 0.54087 0.93649 0.0
C381 C 0.93005 0.50682 0.93977 0.0
N382 N 0.88417 0.43449 0.9274 0.0
C383 C 0.91753 0.44752 0.93169 0.0
C384 C 0.92659 0.4242 0.92033 0.0
C385 C 0.89791 0.39585 0.90823 0.0
C386 C 0.87291 0.40332 0.91273 0.0
N387 N 0.81458 0.41206 0.9381 0.0
C388 C 0.81057 0.3831 0.92304 0.0
C389 C 0.77896 0.35711 0.93058 0.0
C390 C 0.76226 0.37078 0.95162 0.0
C391 C 0.78466 0.4044 0.95585 0.0
N392 N 0.85258 0.45661 0.87093 0.0
C393 C 0.84678 0.44224 0.77956 0.0
C394 C 0.81866 0.43497 0.80522 0.0
C395 C 0.82214 0.44268 0.8507 0.0
C396 C 0.87797 0.45976 0.80006 0.0
C397 C 0.88033 0.4666 0.84538 0.0
N398 N 0.86013 0.45287 1.00018 0.0
C399 C 0.85806 0.41994 0.06286 0.0
C400 C 0.86185 0.44486 0.09218 0.0
C401 C 0.86564 0.4745 0.07417 0.0
C402 C 0.86489 0.47807 0.02798 0.0
C403 C 0.85691 0.42425 1.01752 0.0
H404 H 0.86765 0.50089 1.01474 0.0
H405 H 0.85298 0.40396 0.99654 0.0
H406 H 0.79999 0.43554 0.86999 0.0
H407 H 0.90469 0.47815 0.86004 0.0
C408 C 0.8712 0.53125 0.92543 0.0
C409 C 0.77655 0.42897 0.97392 0.0
C410 C 0.9414 0.48246 0.94255 0.0
C411 C 0.83848 0.38071 0.91024 0.0
H412 H 0.76432 0.48447 0.97212 0.0
H413 H 0.81526 0.53993 0.94109 0.0
H414 H 0.94016 0.58093 0.92465 0.0
H415 H 0.97821 0.55422 0.93886 0.0
H416 H 0.95137 0.4275 0.92025 0.0
H417 H 0.89552 0.37236 0.89851 0.0
H418 H 0.76956 0.33111 0.92352 0.0
H419 H 0.73664 0.35764 0.96255 0.0
H420 H 0.79398 0.4219 0.79098 0.0
H421 H 0.90062 0.46725 0.78157 0.0
H422 H 0.85599 0.39699 0.07467 0.0
H423 H 0.86853 0.49451 0.09544 0.0
C424 C 0.34135 0.7907 0.29538 0.0
C425 C 0.3079 0.78141 0.29692 0.0
C426 C 0.30554 0.80785 0.28133 0.0
C427 C 0.33752 0.8318 0.27139 0.0
N428 N 0.35984 0.82208 0.27981 0.0
Co429 Co 0.40858 0.84929 0.2712 0.0
N430 N 0.40695 0.89117 0.27133 0.0
C431 C 0.37961 0.89364 0.26446 0.0
C432 C 0.3859 0.92576 0.26555 0.0
C433 C 0.41936 0.94475 0.27315 0.0
C434 C 0.43169 0.92305 0.27633 0.0
N435 N 0.45727 0.87659 0.26168 0.0
C436 C 0.47793 0.90982 0.26637 0.0
C437 C 0.51022 0.91844 0.25496 0.0
C438 C 0.50944 0.8897 0.24206 0.0
C439 C 0.47685 0.86508 0.24637 0.0
N440 N 0.4097 0.80717 0.27199 0.0
C441 C 0.43434 0.80295 0.25595 0.0
C442 C 0.42834 0.77109 0.26203 0.0
C443 C 0.39801 0.75438 0.2831 0.0
C444 C 0.3872 0.77703 0.28881 0.0
N445 N 0.40266 0.84589 0.20641 0.0
C446 C 0.40682 0.84057 0.11403 0.0
C447 C 0.38734 0.81237 0.14007 0.0
C448 C 0.38513 0.81562 0.18608 0.0
C449 C 0.42242 0.87156 0.13501 0.0
C450 C 0.42012 0.87368 0.18089 0.0
N451 N 0.41573 0.8527 0.33527 0.0
C452 C 0.44741 0.85076 0.39709 0.0
C453 C 0.4276 0.8563 0.42685 0.0
C454 C 0.40175 0.86043 0.40948 0.0
C455 C 0.39633 0.85868 0.36353 0.0
C456 C 0.44091 0.84875 0.35192 0.0
H457 H 0.3764 0.86193 0.35084 0.0
H458 H 0.45647 0.84389 0.33046 0.0
H459 H 0.37046 0.79347 0.20543 0.0
H460 H 0.43411 0.89783 0.1958 0.0
C461 C 0.34811 0.86523 0.26323 0.0
C462 C 0.3546 0.76889 0.30728 0.0
C463 C 0.46732 0.93391 0.2785 0.0
C464 C 0.46468 0.83068 0.24321 0.0
H465 H 0.28736 0.75817 0.30849 0.0
H466 H 0.28337 0.80996 0.27982 0.0
H467 H 0.3682 0.93433 0.2622 0.0
H468 H 0.43319 0.97157 0.27504 0.0
H469 H 0.53201 0.94293 0.25558 0.0
H470 H 0.53036 0.887 0.23211 0.0
H471 H 0.44463 0.76147 0.25386 0.0
H472 H 0.38527 0.72856 0.29301 0.0
H473 H 0.37432 0.78795 0.12514 0.0
H474 H 0.43781 0.89407 0.11641 0.0
H475 H 0.46815 0.84819 0.4084 0.0
H476 H 0.38552 0.86449 0.43111 0.0
C477 C 0.55805 0.33927 0.63175 0.0
C478 C 0.53456 0.30567 0.63194 0.0
C479 C 0.50578 0.30286 0.61534 0.0
C480 C 0.51318 0.33474 0.60616 0.0
N481 N 0.54482 0.35741 0.61595 0.0
Co482 Co 0.56541 0.40615 0.60905 0.0
N483 N 0.52133 0.4034 0.60783 0.0
C484 C 0.49201 0.3758 0.59992 0.0
C485 C 0.4656 0.38128 0.60094 0.0
C486 C 0.47916 0.41448 0.60955 0.0
C487 C 0.51327 0.42748 0.6132 0.0
N488 N 0.58589 0.45483 0.60116 0.0
C489 C 0.5724 0.47474 0.60564 0.0
C490 C 0.59551 0.50729 0.59485 0.0
C491 C 0.62419 0.5075 0.58285 0.0
C492 C 0.61713 0.47518 0.58689 0.0
N493 N 0.60919 0.40836 0.61129 0.0
C494 C 0.6381 0.43368 0.59662 0.0
C495 C 0.66435 0.42833 0.60362 0.0
C496 C 0.65093 0.39774 0.62388 0.0
C497 C 0.61717 0.38612 0.62819 0.0
N498 N 0.56461 0.40165 0.54405 0.0
C499 C 0.579 0.4105 0.45269 0.0
C500 C 0.58652 0.3898 0.47825 0.0
C501 C 0.5788 0.38544 0.52372 0.0
C502 C 0.56127 0.42392 0.47331 0.0
C503 C 0.55444 0.41931 0.51863 0.0
N504 N 0.56754 0.41199 0.67338 0.0
C505 C 0.59927 0.44302 0.73677 0.0
C506 C 0.57378 0.42176 0.76519 0.0
C507 C 0.54487 0.39535 0.7468 0.0
C508 C 0.54207 0.39112 0.70062 0.0
C509 C 0.59582 0.43754 0.69132 0.0
H510 H 0.51956 0.37094 0.68693 0.0
H511 H 0.61645 0.45397 0.67076 0.0
H512 H 0.5861 0.37051 0.5429 0.0
H513 H 0.54268 0.43188 0.53341 0.0
C514 C 0.48984 0.34473 0.59785 0.0
C515 C 0.59284 0.35309 0.64544 0.0
C516 C 0.5373 0.46317 0.61654 0.0
C517 C 0.64013 0.46385 0.58429 0.0
H518 H 0.53763 0.28531 0.64338 0.0
H519 H 0.48185 0.28043 0.61281 0.0
H520 H 0.43951 0.36319 0.59698 0.0
H521 H 0.46554 0.4277 0.61192 0.0
H522 H 0.59188 0.52854 0.59516 0.0
H523 H 0.64765 0.52886 0.57353 0.0
H524 H 0.69034 0.4452 0.59662 0.0
H525 H 0.66432 0.38537 0.63418 0.0
H526 H 0.59978 0.37841 0.46393 0.0
H527 H 0.55359 0.43894 0.4549 0.0
H528 H 0.62222 0.46333 0.74966 0.0
H529 H 0.52459 0.37834 0.76788 0.0
C530 C 0.22711 0.55007 0.95689 0.0
C531 C 0.23619 0.52578 0.9576 0.0
C532 C 0.20971 0.4974 0.94112 0.0
C533 C 0.18595 0.5058 0.9315 0.0
N534 N 0.19587 0.53769 0.94089 0.0
Co535 Co 0.16901 0.55967 0.9332 0.0
N536 N 0.12685 0.51647 0.93282 0.0
C537 C 0.1241 0.48668 0.92508 0.0
C538 C 0.09182 0.46109 0.92588 0.0
C539 C 0.07305 0.47571 0.9342 0.0
C540 C 0.09502 0.50959 0.93807 0.0
N541 N 0.1421 0.58155 0.92454 0.0
C542 C 0.10887 0.56928 0.92933 0.0
C543 C 0.10058 0.59326 0.91853 0.0
C544 C 0.12953 0.62113 0.9059 0.0
C545 C 0.15395 0.6128 0.90975 0.0
N546 N 0.21142 0.60255 0.93462 0.0
C547 C 0.21604 0.63167 0.9192 0.0
C548 C 0.24798 0.65721 0.92615 0.0
C549 C 0.26425 0.64309 0.9472 0.0
C550 C 0.24128 0.60967 0.95203 0.0
N551 N 0.17233 0.55783 0.86823 0.0
C552 C 0.17734 0.56817 0.77592 0.0
C553 C 0.20568 0.57665 0.80166 0.0
C554 C 0.20257 0.57076 0.84762 0.0
C555 C 0.14639 0.55265 0.79716 0.0
C556 C 0.14444 0.54783 0.84296 0.0
N557 N 0.16567 0.5628 0.99743 0.0
C558 C 0.1681 0.59606 0.05986 0.0
C559 C 0.16262 0.57056 0.08926 0.0
C560 C 0.15818 0.54064 0.07139 0.0
C561 C 0.15965 0.53722 0.0253 0.0
C562 C 0.16985 0.59183 1.01459 0.0
H563 H 0.15621 0.51411 1.01219 0.0
H564 H 0.17475 0.61239 0.99348 0.0
H565 H 0.22482 0.57804 0.86675 0.0
H566 H 0.1203 0.53761 0.85805 0.0
C567 C 0.1524 0.48331 0.92319 0.0
C568 C 0.24882 0.58475 0.97032 0.0
C569 C 0.08449 0.53457 0.94097 0.0
C570 C 0.18849 0.63476 0.90674 0.0
H571 H 0.25926 0.52806 0.96931 0.0
H572 H 0.2074 0.4731 0.93896 0.0
H573 H 0.083 0.43486 0.92181 0.0
H574 H 0.04619 0.46295 0.93604 0.0
H575 H 0.07616 0.59084 0.91937 0.0
H576 H 0.1325 0.64492 0.89645 0.0
H577 H 0.25788 0.68325 0.91872 0.0
H578 H 0.28996 0.65582 0.95775 0.0
H579 H 0.23008 0.58815 0.78653 0.0
H580 H 0.12379 0.54574 0.77885 0.0
H581 H 0.17083 0.61931 0.07152 0.0
H582 H 0.1541 0.52022 0.09272 0.0
C583 C 0.67974 0.22214 0.29275 0.0
C584 C 0.71346 0.23252 0.2921 0.0
C585 C 0.71638 0.20682 0.27489 0.0
C586 C 0.68444 0.18217 0.26623 0.0
N587 N 0.66164 0.19081 0.27692 0.0
Co588 Co 0.61279 0.16228 0.2711 0.0
N589 N 0.616 0.12128 0.26891 0.0
C590 C 0.64373 0.11993 0.26013 0.0
C591 C 0.63863 0.08821 0.26082 0.0
C592 C 0.60553 0.06831 0.27014 0.0
C593 C 0.59217 0.08907 0.2744 0.0
N594 N 0.56397 0.13373 0.26436 0.0
C595 C 0.54434 0.10035 0.26901 0.0
C596 C 0.51153 0.09064 0.25917 0.0
C597 C 0.51084 0.11891 0.24767 0.0
C598 C 0.54317 0.14433 0.251 0.0
N599 N 0.61011 0.20351 0.27421 0.0
C600 C 0.58439 0.20681 0.26042 0.0
C601 C 0.58945 0.2382 0.26794 0.0
C602 C 0.62029 0.25554 0.28758 0.0
C603 C 0.63232 0.23372 0.29106 0.0
N604 N 0.61646 0.16613 0.20607 0.0
C605 C 0.6073 0.17166 0.11485 0.0
C606 C 0.62796 0.19986 0.14034 0.0
C607 C 0.63246 0.19652 0.18576 0.0
C608 C 0.59392 0.14056 0.13546 0.0
C609 C 0.59868 0.13835 0.18072 0.0
N610 N 0.60781 0.15838 0.3355 0.0
C611 C 0.57734 0.15847 0.3999 0.0
C612 C 0.59895 0.15408 0.42746 0.0
C613 C 0.62531 0.15191 0.40814 0.0
C614 C 0.62909 0.15375 0.36187 0.0
C615 C 0.58235 0.16085 0.35436 0.0
H616 H 0.64923 0.15164 0.34743 0.0
H617 H 0.5656 0.16507 0.33448 0.0
H618 H 0.64741 0.2187 0.20492 0.0
H619 H 0.58624 0.11404 0.1955 0.0
C620 C 0.67466 0.14899 0.25763 0.0
C621 C 0.66573 0.24275 0.30734 0.0
C622 C 0.55639 0.07706 0.27878 0.0
C623 C 0.55417 0.17855 0.24861 0.0
H624 H 0.73385 0.25594 0.30342 0.0
H625 H 0.73895 0.20557 0.27163 0.0
H626 H 0.65692 0.08052 0.25627 0.0
H627 H 0.59263 0.04152 0.27268 0.0
H628 H 0.49042 0.0657 0.2597 0.0
H629 H 0.48919 0.12077 0.23912 0.0
H630 H 0.57226 0.24706 0.2617 0.0
H631 H 0.63255 0.28123 0.29803 0.0
H632 H 0.63928 0.22446 0.12599 0.0
H633 H 0.57889 0.11788 0.11709 0.0
H634 H 0.55706 0.16089 0.41354 0.0
H635 H 0.64261 0.14856 0.42854 0.0
C636 C 0.39722 0.58376 0.34048 0.0
C637 C 0.42033 0.58305 0.31086 0.0
H638 H 0.38718 0.59243 0.40725 0.0
C639 C 0.45266 0.5935 0.3266 0.0
H640 H 0.37212 0.5759 0.32977 0.0
C641 C 0.46118 0.60277 0.37086 0.0
C642 C 0.4378 0.60229 0.40086 0.0
H643 H 0.47158 0.59444 0.30469 0.0
H644 H 0.48614 0.61008 0.38175 0.0
C645 C 0.40588 0.59333 0.38493 0.0
C646 C 0.81936 0.42023 0.65852 0.0
C647 C 0.84232 0.41127 0.6426 0.0
H648 H 0.80302 0.43765 0.71368 0.0
C649 C 0.86521 0.41078 0.6726 0.0
H650 H 0.80156 0.42112 0.6362 0.0
C651 C 0.86597 0.42006 0.71686 0.0
C652 C 0.84409 0.43051 0.73259 0.0
H653 H 0.88287 0.40348 0.6617 0.0
H654 H 0.88395 0.41912 0.73877 0.0
C655 C 0.82027 0.4298 0.70297 0.0
C656 C 0.43026 0.8157 1.00519 0.0
C657 C 0.43086 0.83942 0.97555 0.0
H658 H 0.42207 0.79733 0.0721 0.0
C659 C 0.42069 0.86147 0.99136 0.0
H660 H 0.43794 0.79834 0.9944 0.0
C661 C 0.41181 0.86098 0.03575 0.0
C662 C 0.41243 0.83819 0.06575 0.0
H663 H 0.41971 0.8794 0.96942 0.0
H664 H 0.40476 0.87878 0.04676 0.0
C665 C 0.42107 0.81505 0.04976 0.0
C666 C 0.61003 0.46036 0.34564 0.0
C667 C 0.60988 0.43716 0.31569 0.0
H668 H 0.60148 0.47059 0.41179 0.0
C669 C 0.60124 0.40539 0.33166 0.0
H670 H 0.61706 0.4852 0.33469 0.0
C671 C 0.59168 0.39668 0.37611 0.0
C672 C 0.59067 0.4196 0.40569 0.0
H673 H 0.60059 0.38682 0.30936 0.0
H674 H 0.58407 0.37166 0.38684 0.0
C675 C 0.60077 0.4518 0.38991 0.0
C676 C 0.15574 0.56176 0.65347 0.0
C677 C 0.17782 0.59396 0.63769 0.0
H678 H 0.13863 0.52836 0.70869 0.0
C679 C 0.20176 0.61689 0.66728 0.0
H680 H 0.13766 0.54297 0.63159 0.0
C681 C 0.20261 0.60818 0.71173 0.0
C682 C 0.17948 0.5764 0.72769 0.0
H683 H 0.21915 0.6419 0.65655 0.0
H684 H 0.22052 0.62674 0.73403 0.0
C685 C 0.15645 0.5532 0.69774 0.0
C686 C 0.6214 0.19786 0.03818 0.0
C687 C 0.59829 0.17415 0.06782 0.0
H688 H 0.63158 0.21623 0.97127 0.0
C689 C 0.56606 0.1521 0.05201 0.0
H690 H 0.64644 0.21521 0.04897 0.0
C691 C 0.55767 0.1526 1.00762 0.0
C692 C 0.58108 0.17539 0.97762 0.0
H693 H 0.54715 0.13418 0.07395 0.0
H694 H 0.53282 0.1348 0.99661 0.0
C695 C 0.61286 0.19851 0.99362 0.0
C696 C 0.30688 0.59633 0.06587 0.0
C697 C 0.33253 0.59406 0.04421 0.0
H698 H 0.2602 0.5953 0.05912 0.0
C699 C 0.33305 0.59418 0.99765 0.0
H700 H 0.30562 0.59574 0.10173 0.0
C701 C 0.30732 0.59437 0.97328 0.0
C702 C 0.28028 0.59394 0.99504 0.0
H703 H 0.3522 0.5919 0.98016 0.0
H704 H 0.30723 0.59231 0.93752 0.0
C705 C 0.28091 0.59607 0.04152 0.0
C706 C 0.71366 0.30249 0.40046 0.0
C707 C 0.74054 0.32819 0.37735 0.0
H708 H 0.66868 0.25514 0.39608 0.0
C709 C 0.73938 0.32824 0.33082 0.0
H710 H 0.71419 0.30162 0.43632 0.0
C711 C 0.7131 0.30192 0.30783 0.0
C712 C 0.68775 0.27476 0.33094 0.0
H713 H 0.75996 0.34746 0.31221 0.0
H714 H 0.71397 0.30146 0.27198 0.0
C715 C 0.68765 0.2759 0.37747 0.0
C716 C 0.41787 0.71162 0.73557 0.0
C717 C 0.41969 0.73879 0.71245 0.0
H718 H 0.41918 0.66607 0.73123 0.0
C719 C 0.41847 0.73764 0.66592 0.0
H720 H 0.41918 0.71209 0.77143 0.0
C721 C 0.41791 0.71105 0.64294 0.0
C722 C 0.41905 0.68534 0.66607 0.0
H723 H 0.42029 0.75841 0.6473 0.0
H724 H 0.41931 0.71192 0.60709 0.0
C725 C 0.41783 0.68529 0.7126 0.0
C726 C 0.69163 0.41746 1.00189 0.0
C727 C 0.69311 0.41958 0.04837 0.0
H728 H 0.71666 0.41778 0.94169 0.0
C729 C 0.71972 0.41916 0.07013 0.0
H730 H 0.67168 0.41822 0.98428 0.0
C731 C 0.74564 0.41934 0.04578 0.0
C732 C 0.74525 0.41946 0.99922 0.0
H733 H 0.72168 0.42122 0.1059 0.0
H734 H 0.76706 0.42162 0.06329 0.0
C735 C 0.71734 0.41719 0.97755 0.0
C736 C 0.27971 0.68377 0.32817 0.0
C737 C 0.27864 0.68269 0.3747 0.0
H738 H 0.30542 0.71167 0.27009 0.0
C739 C 0.30584 0.70744 0.39842 0.0
H740 H 0.25885 0.66534 0.30913 0.0
C741 C 0.33221 0.73421 0.37614 0.0
C742 C 0.33211 0.73649 0.32971 0.0
H743 H 0.30536 0.70748 0.43432 0.0
H744 H 0.35149 0.75428 0.39532 0.0
C745 C 0.30632 0.71027 0.30587 0.0
C746 C 0.60487 0.27938 0.66724 0.0
C747 C 0.60249 0.27711 0.71367 0.0
H748 H 0.60475 0.30611 0.60906 0.0
C749 C 0.60292 0.30333 0.73751 0.0
H750 H 0.60408 0.25931 0.64807 0.0
C751 C 0.60281 0.32983 0.71521 0.0
C752 C 0.60281 0.3309 0.66867 0.0
H753 H 0.60061 0.30193 0.77328 0.0
H754 H 0.60036 0.34825 0.73424 0.0
C755 C 0.60527 0.30615 0.64495 0.0
C756 C 0.49574 0.50618 0.14054 0.0
C757 C 0.4899 0.5187 0.10122 0.0
H758 H 0.52107 0.48338 0.17148 0.0
C759 C 0.50548 0.51737 0.06199 0.0
H760 H 0.48389 0.50685 0.17115 0.0
C761 C 0.52652 0.50371 0.06211 0.0
C762 C 0.532 0.49078 0.10134 0.0
H763 H 0.50123 0.52674 0.03128 0.0
H764 H 0.53868 0.50337 0.03164 0.0
C765 C 0.5166 0.49241 0.14061 0.0
C766 C 0.99198 0.49758 0.46766 0.0
C767 C 0.97415 0.48628 0.4278 0.0
H768 H 0.03988 0.52628 0.4984 0.0
C769 C 0.9917 0.49517 0.38752 0.0
H770 H 0.97902 0.49055 0.49913 0.0
C771 C 0.02649 0.51544 0.38712 0.0
C772 C 0.04428 0.52663 0.42701 0.0
H773 H 0.9785 0.48628 0.35644 0.0
H774 H 0.0395 0.52248 0.35569 0.0
C775 C 0.0267 0.51758 0.46727 0.0
C776 C 0.51536 0.02476 0.72482 0.0
C777 C 0.528 0.04315 0.76407 0.0
H778 H 0.49203 0.97642 0.69426 0.0
C779 C 0.52564 0.02612 0.80363 0.0
H780 H 0.51626 0.03727 0.69412 0.0
C781 C 0.51139 0.9915 0.80382 0.0
C782 C 0.49913 0.97314 0.76449 0.0
H783 H 0.53443 0.03963 0.83451 0.0
H784 H 0.51011 0.97897 0.83467 0.0
C785 C 0.50121 0.99005 0.72498 0.0
C786 C 0.50057 0.51545 0.57582 0.0
C787 C 0.49456 0.5272 0.61567 0.0
H788 H 0.51937 0.48641 0.54505 0.0
C789 C 0.50378 0.51878 0.65587 0.0
H790 H 0.49423 0.52214 0.54439 0.0
C791 C 0.5183 0.49851 0.65624 0.0
C792 C 0.52433 0.48684 0.61636 0.0
H793 H 0.4999 0.52803 0.68693 0.0
H794 H 0.52471 0.49184 0.68763 0.0
C795 C 0.51529 0.49546 0.57616 0.0
C796 C 0.0296 0.50981 0.9813 0.0
C797 C 0.048 0.52274 0.94208 0.0
H798 H 0.98128 0.48677 1.01215 0.0
C799 C 0.03096 0.52112 0.90281 0.0
H800 H 0.0421 0.51014 1.01177 0.0
C801 C 0.99633 0.50735 0.90289 0.0
C802 C 0.97798 0.49482 0.94222 0.0
H803 H 0.04445 0.53016 0.87194 0.0
H804 H 0.9838 0.50668 0.87229 0.0
C805 C 0.9949 0.49614 0.98143 0.0
C806 C 0.50629 0.98744 0.23974 0.0
C807 C 0.49162 0.97042 0.27929 0.0
H808 H 0.53793 0.03459 0.2087 0.0
C809 C 0.49738 0.98881 0.31854 0.0
H810 H 0.50158 0.97393 0.20886 0.0
C811 C 0.51795 0.02352 0.31839 0.0
C812 C 0.53279 0.04043 0.27887 0.0
H813 H 0.48576 0.97631 0.34924 0.0
H814 H 0.5224 0.03715 0.3491 0.0
C815 C 0.52669 0.02207 0.23954 0.0
C816 C 0.42983 0.5542 0.82818 0.0
C817 C 0.44185 0.58623 0.81065 0.0
H818 H 0.41516 0.52351 0.88619 0.0
C819 C 0.44729 0.61216 0.83929 0.0
H820 H 0.42538 0.53374 0.80667 0.0
C821 C 0.44062 0.60619 0.88454 0.0
C822 C 0.42901 0.57424 0.9025 0.0
H823 H 0.4558 0.6369 0.82647 0.0
H824 H 0.44424 0.62669 0.90537 0.0
C825 C 0.42365 0.54829 0.87365 0.0
C826 C 0.84194 0.40132 0.20416 0.0
C827 C 0.86244 0.42725 0.2328 0.0
H828 H 0.82437 0.3868 0.13808 0.0
C829 C 0.88244 0.45928 0.21527 0.0
H830 H 0.82572 0.37658 0.21697 0.0
C831 C 0.88217 0.46519 0.1698 0.0
C832 C 0.86158 0.43925 0.14095 0.0
H833 H 0.89846 0.47974 0.23678 0.0
H834 H 0.89846 0.48997 0.15726 0.0
C835 C 0.84124 0.40729 0.1589 0.0
C836 C 0.45246 0.83885 0.53966 0.0
C837 C 0.44778 0.8604 0.56726 0.0
H838 H 0.44832 0.81948 0.4744 0.0
C839 C 0.43658 0.88078 0.54861 0.0
H840 H 0.4604 0.82239 0.55338 0.0
C841 C 0.43005 0.87956 0.50317 0.0
C842 C 0.43422 0.85761 0.47543 0.0
H843 H 0.4328 0.89766 0.56929 0.0
H844 H 0.42201 0.89601 0.48982 0.0
C845 C 0.44548 0.83724 0.49437 0.0
C846 C 0.57425 0.40076 0.84133 0.0
C847 C 0.5785 0.42683 0.81372 0.0
H848 H 0.57886 0.3857 0.90649 0.0
C849 C 0.58986 0.45844 0.83224 0.0
H850 H 0.56627 0.37636 0.8277 0.0
C851 C 0.59664 0.46384 0.87763 0.0
C852 C 0.59259 0.4378 0.90544 0.0
H853 H 0.5934 0.479 0.81153 0.0
H854 H 0.60462 0.4883 0.89094 0.0
C855 C 0.58152 0.40624 0.88653 0.0
C856 C 0.13959 0.54966 0.16576 0.0
C857 C 0.16158 0.57571 0.13795 0.0
H858 H 0.12119 0.53449 0.23187 0.0
C859 C 0.18206 0.60727 0.15687 0.0
H860 H 0.12312 0.5252 0.15245 0.0
C861 C 0.18026 0.61274 0.20206 0.0
C862 C 0.15845 0.58667 0.22967 0.0
H863 H 0.19993 0.6278 0.1369 0.0
H864 H 0.19667 0.63714 0.21569 0.0
C865 C 0.13821 0.55505 0.21116 0.0
C866 C 0.61505 0.17632 0.549 0.0
C867 C 0.58343 0.15596 0.56794 0.0
H868 H 0.64483 0.19116 0.49 0.0
C869 C 0.55732 0.13403 0.54019 0.0
H870 H 0.63566 0.19407 0.56897 0.0
C871 C 0.56262 0.1328 0.49476 0.0
C872 C 0.5942 0.15317 0.47611 0.0
H873 H 0.53282 0.11758 0.55355 0.0
H874 H 0.54196 0.11593 0.47408 0.0
C875 C 0.62043 0.17471 0.50371 0.0
loop_
_geom_bond_atom_site_label_1
_geom_bond_atom_site_label_2
_geom_bond_distance
_geom_bond_site_symmetry_2
_ccdc_geom_bond_type
C0 C1 1.443 . S
C0 N4 1.376 . S
C0 C38 1.389 . S
C1 C0 1.443 . S
C1 C2 1.340 . S
C1 H41 0.951 . S
C2 C1 1.340 . S
C2 C3 1.439 . S
C2 H42 0.950 . S
C3 C2 1.439 . S
C3 N4 1.374 . S
C3 C37 1.395 . S
N4 C0 1.376 . S
N4 C3 1.374 . S
N4 Co5 2.008 . S
Co5 N4 2.008 . S
Co5 N6 1.995 . S
Co5 N11 2.008 . S
Co5 N16 1.995 . S
Co5 N21 2.282 . S
Co5 N27 2.282 . S
N6 Co5 1.995 . S
N6 C7 1.376 . S
N6 C10 1.383 . S
C7 N6 1.376 . S
C7 C8 1.446 . S
C7 C37 1.391 . S
C8 C7 1.446 . S
C8 C9 1.339 . S
C8 H43 0.949 . S
C9 C8 1.339 . S
C9 C10 1.439 . S
C9 H44 0.950 . S
C10 N6 1.383 . S
C10 C9 1.439 . S
C10 C39 1.392 . S
N11 Co5 2.008 . S
N11 C12 1.376 . S
N11 C15 1.374 . S
C12 N11 1.376 . S
C12 C13 1.443 . S
C12 C39 1.389 . S
C13 C12 1.443 . S
C13 C14 1.340 . S
C13 H45 0.951 . S
C14 C13 1.340 . S
C14 C15 1.439 . S
C14 H46 0.950 . S
C15 N11 1.374 . S
C15 C14 1.439 . S
C15 C40 1.395 . S
N16 Co5 1.995 . S
N16 C17 1.376 . S
N16 C20 1.383 . S
C17 N16 1.376 . S
C17 C18 1.446 . S
C17 C40 1.391 . S
C18 C17 1.446 . S
C18 C19 1.339 . S
C18 H47 0.949 . S
C19 C18 1.339 . S
C19 C20 1.439 . S
C19 H48 0.950 . S
C20 N16 1.383 . S
C20 C19 1.439 . S
C20 C38 1.392 . S
N21 Co5 2.282 . S
N21 C24 1.332 . S
N21 C26 1.332 . S
C22 C23 1.386 . S
C22 C25 1.388 . S
C23 C22 1.386 . S
C23 C24 1.382 . S
C23 H49 0.950 . S
C24 N21 1.332 . S
C24 C23 1.382 . S
C24 H35 0.952 . S
C25 C22 1.388 . S
C25 C26 1.382 . S
C25 H50 0.950 . S
C26 N21 1.332 . S
C26 C25 1.382 . S
C26 H36 0.948 . S
N27 Co5 2.282 . S
N27 C31 1.332 1_554 S
N27 C32 1.332 1_554 S
C28 C29 1.388 . S
C28 C32 1.382 . S
C28 H51 0.950 . S
C29 C28 1.388 . S
C29 C30 1.386 . S
C30 C29 1.386 . S
C30 C31 1.382 . S
C30 H52 0.950 . S
C31 N27 1.332 1_556 S
C31 C30 1.382 . S
C31 H33 0.952 . S
C32 N27 1.332 1_556 S
C32 C28 1.382 . S
C32 H34 0.947 . S
H33 C31 0.952 . S
H34 C32 0.947 . S
H35 C24 0.952 . S
H36 C26 0.948 . S
C37 C3 1.395 . S
C37 C7 1.391 . S
C38 C0 1.389 . S
C38 C20 1.392 . S
C39 C10 1.392 . S
C39 C12 1.389 . S
C40 C15 1.395 . S
C40 C17 1.391 . S
H41 C1 0.951 . S
H42 C2 0.950 . S
H43 C8 0.949 . S
H44 C9 0.950 . S
H45 C13 0.951 . S
H46 C14 0.950 . S
H47 C18 0.949 . S
H48 C19 0.950 . S
H49 C23 0.950 . S
H50 C25 0.950 . S
H51 C28 0.950 . S
H52 C30 0.950 . S
C53 C54 1.443 . S
C53 N57 1.376 . S
C53 C91 1.389 . S
C54 C53 1.443 . S
C54 C55 1.340 . S
C54 H94 0.951 . S
C55 C54 1.340 . S
C55 C56 1.439 . S
C55 H95 0.950 . S
C56 C55 1.439 . S
C56 N57 1.374 . S
C56 C90 1.395 . S
N57 C53 1.376 . S
N57 C56 1.374 . S
N57 Co58 2.008 . S
Co58 N57 2.008 . S
Co58 N59 1.995 . S
Co58 N64 2.008 . S
Co58 N69 1.995 . S
Co58 N74 2.282 . S
Co58 N80 2.282 . S
N59 Co58 1.995 . S
N59 C60 1.376 . S
N59 C63 1.383 . S
C60 N59 1.376 . S
C60 C61 1.446 . S
C60 C90 1.391 . S
C61 C60 1.446 . S
C61 C62 1.339 . S
C61 H96 0.949 . S
C62 C61 1.339 . S
C62 C63 1.439 . S
C62 H97 0.950 . S
C63 N59 1.383 . S
C63 C62 1.439 . S
C63 C92 1.392 . S
N64 Co58 2.008 . S
N64 C65 1.376 . S
N64 C68 1.374 . S
C65 N64 1.376 . S
C65 C66 1.443 . S
C65 C92 1.389 . S
C66 C65 1.443 . S
C66 C67 1.340 . S
C66 H98 0.951 . S
C67 C66 1.340 . S
C67 C68 1.439 . S
C67 H99 0.950 . S
C68 N64 1.374 . S
C68 C67 1.439 . S
C68 C93 1.395 . S
N69 Co58 1.995 . S
N69 C70 1.376 . S
N69 C73 1.383 . S
C70 N69 1.376 . S
C70 C71 1.446 . S
C70 C93 1.391 . S
C71 C70 1.446 . S
C71 C72 1.339 . S
C71 H100 0.949 . S
C72 C71 1.339 . S
C72 C73 1.439 . S
C72 H101 0.950 . S
C73 N69 1.383 . S
C73 C72 1.439 . S
C73 C91 1.392 . S
N74 Co58 2.282 . S
N74 C77 1.332 . S
N74 C79 1.332 . S
C75 C76 1.386 . S
C75 C78 1.388 . S
C76 C75 1.386 . S
C76 C77 1.382 . S
C76 H102 0.950 . S
C77 N74 1.332 . S
C77 C76 1.382 . S
C77 H88 0.952 . S
C78 C75 1.388 . S
C78 C79 1.382 . S
C78 H103 0.950 . S
C79 N74 1.332 . S
C79 C78 1.382 . S
C79 H89 0.948 . S
N80 Co58 2.282 . S
N80 C84 1.332 . S
N80 C85 1.332 . S
C81 C82 1.388 . S
C81 C85 1.382 . S
C81 H104 0.950 . S
C82 C81 1.388 . S
C82 C83 1.386 . S
C83 C82 1.386 . S
C83 C84 1.382 . S
C83 H105 0.950 . S
C84 N80 1.332 . S
C84 C83 1.382 . S
C84 H86 0.952 . S
C85 N80 1.332 . S
C85 C81 1.382 . S
C85 H87 0.948 . S
H86 C84 0.952 . S
H87 C85 0.948 . S
H88 C77 0.952 . S
H89 C79 0.948 . S
C90 C56 1.395 . S
C90 C60 1.391 . S
C91 C53 1.389 . S
C91 C73 1.392 . S
C92 C63 1.392 . S
C92 C65 1.389 . S
C93 C68 1.395 . S
C93 C70 1.391 . S
H94 C54 0.951 . S
H95 C55 0.950 . S
H96 C61 0.949 . S
H97 C62 0.950 . S
H98 C66 0.951 . S
H99 C67 0.950 . S
H100 C71 0.949 . S
H101 C72 0.950 . S
H102 C76 0.950 . S
H103 C78 0.950 . S
H104 C81 0.950 . S
H105 C83 0.950 . S
C106 C107 1.443 . S
C106 N110 1.376 . S
C106 C144 1.389 . S
C107 C106 1.443 . S
C107 C108 1.340 . S
C107 H147 0.951 . S
C108 C107 1.340 . S
C108 C109 1.439 . S
C108 H148 0.950 . S
C109 C108 1.439 . S
C109 N110 1.374 . S
C109 C143 1.395 . S
N110 C106 1.376 . S
N110 C109 1.374 . S
N110 Co111 2.008 . S
Co111 N110 2.008 . S
Co111 N112 1.995 . S
Co111 N117 2.008 . S
Co111 N122 1.995 . S
Co111 N127 2.282 . S
Co111 N133 2.282 . S
N112 Co111 1.995 . S
N112 C113 1.376 . S
N112 C116 1.383 . S
C113 N112 1.376 . S
C113 C114 1.446 . S
C113 C143 1.391 . S
C114 C113 1.446 . S
C114 C115 1.339 . S
C114 H149 0.949 . S
C115 C114 1.339 . S
C115 C116 1.439 . S
C115 H150 0.950 . S
C116 N112 1.383 . S
C116 C115 1.439 . S
C116 C145 1.392 . S
N117 Co111 2.008 . S
N117 C118 1.376 . S
N117 C121 1.374 . S
C118 N117 1.376 . S
C118 C119 1.443 . S
C118 C145 1.389 . S
C119 C118 1.443 . S
C119 C120 1.340 . S
C119 H151 0.951 . S
C120 C119 1.340 . S
C120 C121 1.439 . S
C120 H152 0.950 . S
C121 N117 1.374 . S
C121 C120 1.439 . S
C121 C146 1.395 . S
N122 Co111 1.995 . S
N122 C123 1.376 . S
N122 C126 1.383 . S
C123 N122 1.376 . S
C123 C124 1.446 . S
C123 C146 1.391 . S
C124 C123 1.446 . S
C124 C125 1.339 . S
C124 H153 0.949 . S
C125 C124 1.339 . S
C125 C126 1.439 . S
C125 H154 0.950 . S
C126 N122 1.383 . S
C126 C125 1.439 . S
C126 C144 1.392 . S
N127 Co111 2.282 . S
N127 C130 1.332 . S
N127 C132 1.332 . S
C128 C129 1.386 . S
C128 C131 1.388 . S
C129 C128 1.386 . S
C129 C130 1.382 . S
C129 H155 0.950 . S
C130 N127 1.332 . S
C130 C129 1.382 . S
C130 H141 0.952 . S
C131 C128 1.388 . S
C131 C132 1.382 . S
C131 H156 0.950 . S
C132 N127 1.332 . S
C132 C131 1.382 . S
C132 H142 0.948 . S
N133 Co111 2.282 . S
N133 C137 1.332 . S
N133 C138 1.332 . S
C134 C135 1.388 . S
C134 C138 1.382 . S
C134 H157 0.950 . S
C135 C134 1.388 . S
C135 C136 1.386 . S
C136 C135 1.386 . S
C136 C137 1.382 . S
C136 H158 0.950 . S
C137 N133 1.332 . S
C137 C136 1.382 . S
C137 H139 0.952 . S
C138 N133 1.332 . S
C138 C134 1.382 . S
C138 H140 0.948 . S
H139 C137 0.952 . S
H140 C138 0.948 . S
H141 C130 0.952 . S
H142 C132 0.948 . S
C143 C109 1.395 . S
C143 C113 1.391 . S
C144 C106 1.389 . S
C144 C126 1.392 . S
C145 C116 1.392 . S
C145 C118 1.389 . S
C146 C121 1.395 . S
C146 C123 1.391 . S
H147 C107 0.951 . S
H148 C108 0.950 . S
H149 C114 0.949 . S
H150 C115 0.950 . S
H151 C119 0.951 . S
H152 C120 0.950 . S
H153 C124 0.949 . S
H154 C125 0.950 . S
H155 C129 0.950 . S
H156 C131 0.950 . S
H157 C134 0.950 . S
H158 C136 0.950 . S
C159 C160 1.443 . S
C159 N163 1.376 . S
C159 C197 1.389 . S
C160 C159 1.443 . S
C160 C161 1.340 . S
C160 H200 0.951 . S
C161 C160 1.340 . S
C161 C162 1.439 . S
C161 H201 0.950 . S
C162 C161 1.439 . S
C162 N163 1.374 . S
C162 C196 1.395 . S
N163 C159 1.376 . S
N163 C162 1.374 . S
N163 Co164 2.008 . S
Co164 N163 2.008 . S
Co164 N165 1.995 . S
Co164 N170 2.008 . S
Co164 N175 1.995 . S
Co164 N180 2.282 . S
Co164 N186 2.282 . S
N165 Co164 1.995 . S
N165 C166 1.376 . S
N165 C169 1.383 . S
C166 N165 1.376 . S
C166 C167 1.446 . S
C166 C196 1.391 . S
C167 C166 1.446 . S
C167 C168 1.339 . S
C167 H202 0.949 . S
C168 C167 1.339 . S
C168 C169 1.439 . S
C168 H203 0.950 . S
C169 N165 1.383 . S
C169 C168 1.439 . S
C169 C198 1.392 . S
N170 Co164 2.008 . S
N170 C171 1.376 . S
N170 C174 1.374 . S
C171 N170 1.376 . S
C171 C172 1.443 . S
C171 C198 1.389 . S
C172 C171 1.443 . S
C172 C173 1.340 . S
C172 H204 0.951 . S
C173 C172 1.340 . S
C173 C174 1.439 . S
C173 H205 0.950 . S
C174 N170 1.374 . S
C174 C173 1.439 . S
C174 C199 1.395 . S
N175 Co164 1.995 . S
N175 C176 1.376 . S
N175 C179 1.383 . S
C176 N175 1.376 . S
C176 C177 1.446 . S
C176 C199 1.391 . S
C177 C176 1.446 . S
C177 C178 1.339 . S
C177 H206 0.949 . S
C178 C177 1.339 . S
C178 C179 1.439 . S
C178 H207 0.950 . S
C179 N175 1.383 . S
C179 C178 1.439 . S
C179 C197 1.392 . S
N180 Co164 2.282 . S
N180 C183 1.332 . S
N180 C185 1.332 . S
C181 C182 1.386 . S
C181 C184 1.388 . S
C182 C181 1.386 . S
C182 C183 1.382 . S
C182 H208 0.950 . S
C183 N180 1.332 . S
C183 C182 1.382 . S
C183 H194 0.952 . S
C184 C181 1.388 . S
C184 C185 1.382 . S
C184 H209 0.950 . S
C185 N180 1.332 . S
C185 C184 1.382 . S
C185 H195 0.948 . S
N186 Co164 2.282 . S
N186 C190 1.332 1_554 S
N186 C191 1.332 1_554 S
C187 C188 1.388 . S
C187 C191 1.382 . S
C187 H210 0.950 . S
C188 C187 1.388 . S
C188 C189 1.386 . S
C189 C188 1.386 . S
C189 C190 1.382 . S
C189 H211 0.950 . S
C190 N186 1.332 1_556 S
C190 C189 1.382 . S
C190 H192 0.952 . S
C191 N186 1.332 1_556 S
C191 C187 1.382 . S
C191 H193 0.947 . S
H192 C190 0.952 . S
H193 C191 0.947 . S
H194 C183 0.952 . S
H195 C185 0.948 . S
C196 C162 1.395 . S
C196 C166 1.391 . S
C197 C159 1.389 . S
C197 C179 1.392 . S
C198 C169 1.392 . S
C198 C171 1.389 . S
C199 C174 1.395 . S
C199 C176 1.391 . S
H200 C160 0.951 . S
H201 C161 0.950 . S
H202 C167 0.949 . S
H203 C168 0.950 . S
H204 C172 0.951 . S
H205 C173 0.950 . S
H206 C177 0.949 . S
H207 C178 0.950 . S
H208 C182 0.950 . S
H209 C184 0.950 . S
H210 C187 0.950 . S
H211 C189 0.950 . S
C212 C213 1.443 . S
C212 N216 1.376 . S
C212 C250 1.389 . S
C213 C212 1.443 . S
C213 C214 1.340 . S
C213 H253 0.951 . S
C214 C213 1.340 . S
C214 C215 1.439 . S
C214 H254 0.950 . S
C215 C214 1.439 . S
C215 N216 1.374 . S
C215 C249 1.395 . S
N216 C212 1.376 . S
N216 C215 1.374 . S
N216 Co217 2.008 . S
Co217 N216 2.008 . S
Co217 N218 1.995 . S
Co217 N223 2.008 . S
Co217 N228 1.995 . S
Co217 N233 2.282 . S
Co217 N239 2.282 . S
N218 Co217 1.995 . S
N218 C219 1.376 . S
N218 C222 1.383 . S
C219 N218 1.376 . S
C219 C220 1.446 . S
C219 C249 1.391 . S
C220 C219 1.446 . S
C220 C221 1.339 . S
C220 H255 0.949 . S
C221 C220 1.339 . S
C221 C222 1.439 . S
C221 H256 0.950 . S
C222 N218 1.383 . S
C222 C221 1.439 . S
C222 C251 1.392 . S
N223 Co217 2.008 . S
N223 C224 1.376 . S
N223 C227 1.374 . S
C224 N223 1.376 . S
C224 C225 1.443 . S
C224 C251 1.389 . S
C225 C224 1.443 . S
C225 C226 1.340 . S
C225 H257 0.951 . S
C226 C225 1.340 . S
C226 C227 1.439 . S
C226 H258 0.950 . S
C227 N223 1.374 . S
C227 C226 1.439 . S
C227 C252 1.395 . S
N228 Co217 1.995 . S
N228 C229 1.376 . S
N228 C232 1.383 . S
C229 N228 1.376 . S
C229 C230 1.446 . S
C229 C252 1.391 . S
C230 C229 1.446 . S
C230 C231 1.339 . S
C230 H259 0.949 . S
C231 C230 1.339 . S
C231 C232 1.439 . S
C231 H260 0.950 . S
C232 N228 1.383 . S
C232 C231 1.439 . S
C232 C250 1.392 . S
N233 Co217 2.282 . S
N233 C236 1.332 . S
N233 C238 1.332 . S
C234 C235 1.386 . S
C234 C237 1.388 . S
C235 C234 1.386 . S
C235 C236 1.382 . S
C235 H261 0.950 . S
C236 N233 1.332 . S
C236 C235 1.382 . S
C236 H247 0.952 . S
C237 C234 1.388 . S
C237 C238 1.382 . S
C237 H262 0.950 . S
C238 N233 1.332 . S
C238 C237 1.382 . S
C238 H248 0.948 . S
N239 Co217 2.282 . S
N239 C243 1.332 . S
N239 C244 1.332 . S
C240 C241 1.388 . S
C240 C244 1.382 . S
C240 H263 0.950 . S
C241 C240 1.388 . S
C241 C242 1.386 . S
C242 C241 1.386 . S
C242 C243 1.382 . S
C242 H264 0.950 . S
C243 N239 1.332 . S
C243 C242 1.382 . S
C243 H245 0.952 . S
C244 N239 1.332 . S
C244 C240 1.382 . S
C244 H246 0.948 . S
H245 C243 0.952 . S
H246 C244 0.948 . S
H247 C236 0.952 . S
H248 C238 0.948 . S
C249 C215 1.395 . S
C249 C219 1.391 . S
C250 C212 1.389 . S
C250 C232 1.392 . S
C251 C222 1.392 . S
C251 C224 1.389 . S
C252 C227 1.395 . S
C252 C229 1.391 . S
H253 C213 0.951 . S
H254 C214 0.950 . S
H255 C220 0.949 . S
H256 C221 0.950 . S
H257 C225 0.951 . S
H258 C226 0.950 . S
H259 C230 0.949 . S
H260 C231 0.950 . S
H261 C235 0.950 . S
H262 C237 0.950 . S
H263 C240 0.950 . S
H264 C242 0.950 . S
C265 C266 1.443 . S
C265 N269 1.376 . S
C265 C303 1.389 . S
C266 C265 1.443 . S
C266 C267 1.340 . S
C266 H306 0.951 . S
C267 C266 1.340 . S
C267 C268 1.439 . S
C267 H307 0.950 . S
C268 C267 1.439 . S
C268 N269 1.374 . S
C268 C302 1.395 . S
N269 C265 1.376 . S
N269 C268 1.374 . S
N269 Co270 2.008 . S
Co270 N269 2.008 . S
Co270 N271 1.995 . S
Co270 N276 2.008 . S
Co270 N281 1.995 . S
Co270 N286 2.282 . S
Co270 N292 2.282 . S
N271 Co270 1.995 . S
N271 C272 1.376 . S
N271 C275 1.383 . S
C272 N271 1.376 . S
C272 C273 1.446 . S
C272 C302 1.391 . S
C273 C272 1.446 . S
C273 C274 1.339 . S
C273 H308 0.949 . S
C274 C273 1.339 . S
C274 C275 1.439 . S
C274 H309 0.950 . S
C275 N271 1.383 . S
C275 C274 1.439 . S
C275 C304 1.392 . S
N276 Co270 2.008 . S
N276 C277 1.376 . S
N276 C280 1.374 . S
C277 N276 1.376 . S
C277 C278 1.443 . S
C277 C304 1.389 . S
C278 C277 1.443 . S
C278 C279 1.340 . S
C278 H310 0.951 . S
C279 C278 1.340 . S
C279 C280 1.439 . S
C279 H311 0.950 . S
C280 N276 1.374 . S
C280 C279 1.439 . S
C280 C305 1.395 . S
N281 Co270 1.995 . S
N281 C282 1.376 . S
N281 C285 1.383 . S
C282 N281 1.376 . S
C282 C283 1.446 . S
C282 C305 1.391 . S
C283 C282 1.446 . S
C283 C284 1.339 . S
C283 H312 0.949 . S
C284 C283 1.339 . S
C284 C285 1.439 . S
C284 H313 0.950 . S
C285 N281 1.383 . S
C285 C284 1.439 . S
C285 C303 1.392 . S
N286 Co270 2.282 . S
N286 C289 1.332 . S
N286 C291 1.332 . S
C287 C288 1.386 . S
C287 C290 1.388 . S
C288 C287 1.386 . S
C288 C289 1.382 . S
C288 H314 0.950 . S
C289 N286 1.332 . S
C289 C288 1.382 . S
C289 H300 0.952 . S
C290 C287 1.388 . S
C290 C291 1.382 . S
C290 H315 0.950 . S
C291 N286 1.332 . S
C291 C290 1.382 . S
C291 H301 0.948 . S
N292 Co270 2.282 . S
N292 C296 1.332 . S
N292 C297 1.332 . S
C293 C294 1.388 . S
C293 C297 1.382 . S
C293 H316 0.950 . S
C294 C293 1.388 . S
C294 C295 1.386 . S
C295 C294 1.386 . S
C295 C296 1.382 . S
C295 H317 0.950 . S
C296 N292 1.332 . S
C296 C295 1.382 . S
C296 H298 0.952 . S
C297 N292 1.332 . S
C297 C293 1.382 . S
C297 H299 0.948 . S
H298 C296 0.952 . S
H299 C297 0.948 . S
H300 C289 0.952 . S
H301 C291 0.948 . S
C302 C268 1.395 . S
C302 C272 1.391 . S
C303 C265 1.389 . S
C303 C285 1.392 . S
C304 C275 1.392 . S
C304 C277 1.389 . S
C305 C280 1.395 . S
C305 C282 1.391 . S
H306 C266 0.951 . S
H307 C267 0.950 . S
H308 C273 0.949 . S
H309 C274 0.950 . S
H310 C278 0.951 . S
H311 C279 0.950 . S
H312 C283 0.949 . S
H313 C284 0.950 . S
H314 C288 0.950 . S
H315 C290 0.950 . S
H316 C293 0.950 . S
H317 C295 0.950 . S
C318 C319 1.443 . S
C318 N322 1.376 . S
C318 C356 1.389 . S
C319 C318 1.443 . S
C319 C320 1.340 . S
C319 H359 0.951 . S
C320 C319 1.340 . S
C320 C321 1.439 . S
C320 H360 0.950 . S
C321 C320 1.439 . S
C321 N322 1.374 . S
C321 C355 1.395 . S
N322 C318 1.376 . S
N322 C321 1.374 . S
N322 Co323 2.008 . S
Co323 N322 2.008 . S
Co323 N324 1.995 . S
Co323 N329 2.008 . S
Co323 N334 1.995 . S
Co323 N339 2.282 . S
Co323 N345 2.282 . S
N324 Co323 1.995 . S
N324 C325 1.376 . S
N324 C328 1.383 . S
C325 N324 1.376 . S
C325 C326 1.446 . S
C325 C355 1.391 . S
C326 C325 1.446 . S
C326 C327 1.339 . S
C326 H361 0.949 . S
C327 C326 1.339 . S
C327 C328 1.439 . S
C327 H362 0.950 . S
C328 N324 1.383 . S
C328 C327 1.439 . S
C328 C357 1.392 . S
N329 Co323 2.008 . S
N329 C330 1.376 . S
N329 C333 1.374 . S
C330 N329 1.376 . S
C330 C331 1.443 . S
C330 C357 1.389 . S
C331 C330 1.443 . S
C331 C332 1.340 . S
C331 H363 0.951 . S
C332 C331 1.340 . S
C332 C333 1.439 . S
C332 H364 0.950 . S
C333 N329 1.374 . S
C333 C332 1.439 . S
C333 C358 1.395 . S
N334 Co323 1.995 . S
N334 C335 1.376 . S
N334 C338 1.383 . S
C335 N334 1.376 . S
C335 C336 1.446 . S
C335 C358 1.391 . S
C336 C335 1.446 . S
C336 C337 1.339 . S
C336 H365 0.949 . S
C337 C336 1.339 . S
C337 C338 1.439 . S
C337 H366 0.950 . S
C338 N334 1.383 . S
C338 C337 1.439 . S
C338 C356 1.392 . S
N339 Co323 2.282 . S
N339 C342 1.332 . S
N339 C344 1.332 . S
C340 C341 1.386 . S
C340 C343 1.388 . S
C341 C340 1.386 . S
C341 C342 1.382 . S
C341 H367 0.950 . S
C342 N339 1.332 . S
C342 C341 1.382 . S
C342 H353 0.952 . S
C343 C340 1.388 . S
C343 C344 1.382 . S
C343 H368 0.950 . S
C344 N339 1.332 . S
C344 C343 1.382 . S
C344 H354 0.948 . S
N345 Co323 2.282 . S
N345 C349 1.332 . S
N345 C350 1.332 . S
C346 C347 1.388 . S
C346 C350 1.382 . S
C346 H369 0.950 . S
C347 C346 1.388 . S
C347 C348 1.386 . S
C348 C347 1.386 . S
C348 C349 1.382 . S
C348 H370 0.950 . S
C349 N345 1.332 . S
C349 C348 1.382 . S
C349 H351 0.952 . S
C350 N345 1.332 . S
C350 C346 1.382 . S
C350 H352 0.948 . S
H351 C349 0.952 . S
H352 C350 0.948 . S
H353 C342 0.952 . S
H354 C344 0.948 . S
C355 C321 1.395 . S
C355 C325 1.391 . S
C356 C318 1.389 . S
C356 C338 1.392 . S
C357 C328 1.392 . S
C357 C330 1.389 . S
C358 C333 1.395 . S
C358 C335 1.391 . S
H359 C319 0.951 . S
H360 C320 0.950 . S
H361 C326 0.949 . S
H362 C327 0.950 . S
H363 C331 0.951 . S
H364 C332 0.950 . S
H365 C336 0.949 . S
H366 C337 0.950 . S
H367 C341 0.950 . S
H368 C343 0.950 . S
H369 C346 0.950 . S
H370 C348 0.950 . S
C371 C372 1.443 . S
C371 N375 1.376 . S
C371 C409 1.389 . S
C372 C371 1.443 . S
C372 C373 1.340 . S
C372 H412 0.951 . S
C373 C372 1.340 . S
C373 C374 1.439 . S
C373 H413 0.950 . S
C374 C373 1.439 . S
C374 N375 1.374 . S
C374 C408 1.395 . S
N375 C371 1.376 . S
N375 C374 1.374 . S
N375 Co376 2.008 . S
Co376 N375 2.008 . S
Co376 N377 1.995 . S
Co376 N382 2.008 . S
Co376 N387 1.995 . S
Co376 N392 2.282 . S
Co376 N398 2.282 . S
N377 Co376 1.995 . S
N377 C378 1.376 . S
N377 C381 1.383 . S
C378 N377 1.376 . S
C378 C379 1.446 . S
C378 C408 1.391 . S
C379 C378 1.446 . S
C379 C380 1.339 . S
C379 H414 0.949 . S
C380 C379 1.339 . S
C380 C381 1.439 . S
C380 H415 0.950 . S
C381 N377 1.383 . S
C381 C380 1.439 . S
C381 C410 1.392 . S
N382 Co376 2.008 . S
N382 C383 1.376 . S
N382 C386 1.374 . S
C383 N382 1.376 . S
C383 C384 1.443 . S
C383 C410 1.389 . S
C384 C383 1.443 . S
C384 C385 1.340 . S
C384 H416 0.951 . S
C385 C384 1.340 . S
C385 C386 1.439 . S
C385 H417 0.950 . S
C386 N382 1.374 . S
C386 C385 1.439 . S
C386 C411 1.395 . S
N387 Co376 1.995 . S
N387 C388 1.376 . S
N387 C391 1.383 . S
C388 N387 1.376 . S
C388 C389 1.446 . S
C388 C411 1.391 . S
C389 C388 1.446 . S
C389 C390 1.339 . S
C389 H418 0.949 . S
C390 C389 1.339 . S
C390 C391 1.439 . S
C390 H419 0.950 . S
C391 N387 1.383 . S
C391 C390 1.439 . S
C391 C409 1.392 . S
N392 Co376 2.282 . S
N392 C395 1.332 . S
N392 C397 1.332 . S
C393 C394 1.386 . S
C393 C396 1.388 . S
C394 C393 1.386 . S
C394 C395 1.382 . S
C394 H420 0.950 . S
C395 N392 1.332 . S
C395 C394 1.382 . S
C395 H406 0.952 . S
C396 C393 1.388 . S
C396 C397 1.382 . S
C396 H421 0.950 . S
C397 N392 1.332 . S
C397 C396 1.382 . S
C397 H407 0.948 . S
N398 Co376 2.282 . S
N398 C402 1.332 1_556 S
N398 C403 1.332 1_556 S
C399 C400 1.388 . S
C399 C403 1.382 . S
C399 H422 0.950 . S
C400 C399 1.388 . S
C400 C401 1.386 . S
C401 C400 1.386 . S
C401 C402 1.382 . S
C401 H423 0.950 . S
C402 N398 1.332 1_554 S
C402 C401 1.382 . S
C402 H404 0.952 . S
C403 N398 1.332 1_554 S
C403 C399 1.382 . S
C403 H405 0.947 . S
H404 C402 0.952 . S
H405 C403 0.947 . S
H406 C395 0.952 . S
H407 C397 0.948 . S
C408 C374 1.395 . S
C408 C378 1.391 . S
C409 C371 1.389 . S
C409 C391 1.392 . S
C410 C381 1.392 . S
C410 C383 1.389 . S
C411 C386 1.395 . S
C411 C388 1.391 . S
H412 C372 0.951 . S
H413 C373 0.950 . S
H414 C379 0.949 . S
H415 C380 0.950 . S
H416 C384 0.951 . S
H417 C385 0.950 . S
H418 C389 0.949 . S
H419 C390 0.950 . S
H420 C394 0.950 . S
H421 C396 0.950 . S
H422 C399 0.950 . S
H423 C401 0.950 . S
C424 C425 1.443 . S
C424 N428 1.376 . S
C424 C462 1.389 . S
C425 C424 1.443 . S
C425 C426 1.340 . S
C425 H465 0.951 . S
C426 C425 1.340 . S
C426 C427 1.439 . S
C426 H466 0.950 . S
C427 C426 1.439 . S
C427 N428 1.374 . S
C427 C461 1.395 . S
N428 C424 1.376 . S
N428 C427 1.374 . S
N428 Co429 2.008 . S
Co429 N428 2.008 . S
Co429 N430 1.995 . S
Co429 N435 2.008 . S
Co429 N440 1.995 . S
Co429 N445 2.282 . S
Co429 N451 2.282 . S
N430 Co429 1.995 . S
N430 C431 1.376 . S
N430 C434 1.383 . S
C431 N430 1.376 . S
C431 C432 1.446 . S
C431 C461 1.391 . S
C432 C431 1.446 . S
C432 C433 1.339 . S
C432 H467 0.949 . S
C433 C432 1.339 . S
C433 C434 1.439 . S
C433 H468 0.950 . S
C434 N430 1.383 . S
C434 C433 1.439 . S
C434 C463 1.392 . S
N435 Co429 2.008 . S
N435 C436 1.376 . S
N435 C439 1.374 . S
C436 N435 1.376 . S
C436 C437 1.443 . S
C436 C463 1.389 . S
C437 C436 1.443 . S
C437 C438 1.340 . S
C437 H469 0.951 . S
C438 C437 1.340 . S
C438 C439 1.439 . S
C438 H470 0.950 . S
C439 N435 1.374 . S
C439 C438 1.439 . S
C439 C464 1.395 . S
N440 Co429 1.995 . S
N440 C441 1.376 . S
N440 C444 1.383 . S
C441 N440 1.376 . S
C441 C442 1.446 . S
C441 C464 1.391 . S
C442 C441 1.446 . S
C442 C443 1.339 . S
C442 H471 0.949 . S
C443 C442 1.339 . S
C443 C444 1.439 . S
C443 H472 0.950 . S
C444 N440 1.383 . S
C444 C443 1.439 . S
C444 C462 1.392 . S
N445 Co429 2.282 . S
N445 C448 1.332 . S
N445 C450 1.332 . S
C446 C447 1.386 . S
C446 C449 1.388 . S
C447 C446 1.386 . S
C447 C448 1.382 . S
C447 H473 0.950 . S
C448 N445 1.332 . S
C448 C447 1.382 . S
C448 H459 0.952 . S
C449 C446 1.388 . S
C449 C450 1.382 . S
C449 H474 0.950 . S
C450 N445 1.332 . S
C450 C449 1.382 . S
C450 H460 0.948 . S
N451 Co429 2.282 . S
N451 C455 1.332 . S
N451 C456 1.332 . S
C452 C453 1.388 . S
C452 C456 1.382 . S
C452 H475 0.950 . S
C453 C452 1.388 . S
C453 C454 1.386 . S
C454 C453 1.386 . S
C454 C455 1.382 . S
C454 H476 0.950 . S
C455 N451 1.332 . S
C455 C454 1.382 . S
C455 H457 0.952 . S
C456 N451 1.332 . S
C456 C452 1.382 . S
C456 H458 0.948 . S
H457 C455 0.952 . S
H458 C456 0.948 . S
H459 C448 0.952 . S
H460 C450 0.948 . S
C461 C427 1.395 . S
C461 C431 1.391 . S
C462 C424 1.389 . S
C462 C444 1.392 . S
C463 C434 1.392 . S
C463 C436 1.389 . S
C464 C439 1.395 . S
C464 C441 1.391 . S
H465 C425 0.951 . S
H466 C426 0.950 . S
H467 C432 0.949 . S
H468 C433 0.950 . S
H469 C437 0.951 . S
H470 C438 0.950 . S
H471 C442 0.949 . S
H472 C443 0.950 . S
H473 C447 0.950 . S
H474 C449 0.950 . S
H475 C452 0.950 . S
H476 C454 0.950 . S
C477 C478 1.443 . S
C477 N481 1.376 . S
C477 C515 1.389 . S
C478 C477 1.443 . S
C478 C479 1.340 . S
C478 H518 0.951 . S
C479 C478 1.340 . S
C479 C480 1.439 . S
C479 H519 0.950 . S
C480 C479 1.439 . S
C480 N481 1.374 . S
C480 C514 1.395 . S
N481 C477 1.376 . S
N481 C480 1.374 . S
N481 Co482 2.008 . S
Co482 N481 2.008 . S
Co482 N483 1.995 . S
Co482 N488 2.008 . S
Co482 N493 1.995 . S
Co482 N498 2.282 . S
Co482 N504 2.282 . S
N483 Co482 1.995 . S
N483 C484 1.376 . S
N483 C487 1.383 . S
C484 N483 1.376 . S
C484 C485 1.446 . S
C484 C514 1.391 . S
C485 C484 1.446 . S
C485 C486 1.339 . S
C485 H520 0.949 . S
C486 C485 1.339 . S
C486 C487 1.439 . S
C486 H521 0.950 . S
C487 N483 1.383 . S
C487 C486 1.439 . S
C487 C516 1.392 . S
N488 Co482 2.008 . S
N488 C489 1.376 . S
N488 C492 1.374 . S
C489 N488 1.376 . S
C489 C490 1.443 . S
C489 C516 1.389 . S
C490 C489 1.443 . S
C490 C491 1.340 . S
C490 H522 0.951 . S
C491 C490 1.340 . S
C491 C492 1.439 . S
C491 H523 0.950 . S
C492 N488 1.374 . S
C492 C491 1.439 . S
C492 C517 1.395 . S
N493 Co482 1.995 . S
N493 C494 1.376 . S
N493 C497 1.383 . S
C494 N493 1.376 . S
C494 C495 1.446 . S
C494 C517 1.391 . S
C495 C494 1.446 . S
C495 C496 1.339 . S
C495 H524 0.949 . S
C496 C495 1.339 . S
C496 C497 1.439 . S
C496 H525 0.950 . S
C497 N493 1.383 . S
C497 C496 1.439 . S
C497 C515 1.392 . S
N498 Co482 2.282 . S
N498 C501 1.332 . S
N498 C503 1.332 . S
C499 C500 1.386 . S
C499 C502 1.388 . S
C500 C499 1.386 . S
C500 C501 1.382 . S
C500 H526 0.950 . S
C501 N498 1.332 . S
C501 C500 1.382 . S
C501 H512 0.952 . S
C502 C499 1.388 . S
C502 C503 1.382 . S
C502 H527 0.950 . S
C503 N498 1.332 . S
C503 C502 1.382 . S
C503 H513 0.948 . S
N504 Co482 2.282 . S
N504 C508 1.332 . S
N504 C509 1.332 . S
C505 C506 1.388 . S
C505 C509 1.382 . S
C505 H528 0.950 . S
C506 C505 1.388 . S
C506 C507 1.386 . S
C507 C506 1.386 . S
C507 C508 1.382 . S
C507 H529 0.950 . S
C508 N504 1.332 . S
C508 C507 1.382 . S
C508 H510 0.952 . S
C509 N504 1.332 . S
C509 C505 1.382 . S
C509 H511 0.948 . S
H510 C508 0.952 . S
H511 C509 0.948 . S
H512 C501 0.952 . S
H513 C503 0.948 . S
C514 C480 1.395 . S
C514 C484 1.391 . S
C515 C477 1.389 . S
C515 C497 1.392 . S
C516 C487 1.392 . S
C516 C489 1.389 . S
C517 C492 1.395 . S
C517 C494 1.391 . S
H518 C478 0.951 . S
H519 C479 0.950 . S
H520 C485 0.949 . S
H521 C486 0.950 . S
H522 C490 0.951 . S
H523 C491 0.950 . S
H524 C495 0.949 . S
H525 C496 0.950 . S
H526 C500 0.950 . S
H527 C502 0.950 . S
H528 C505 0.950 . S
H529 C507 0.950 . S
C530 C531 1.443 . S
C530 N534 1.376 . S
C530 C568 1.389 . S
C531 C530 1.443 . S
C531 C532 1.340 . S
C531 H571 0.951 . S
C532 C531 1.340 . S
C532 C533 1.439 . S
C532 H572 0.950 . S
C533 C532 1.439 . S
C533 N534 1.374 . S
C533 C567 1.395 . S
N534 C530 1.376 . S
N534 C533 1.374 . S
N534 Co535 2.008 . S
Co535 N534 2.008 . S
Co535 N536 1.995 . S
Co535 N541 2.008 . S
Co535 N546 1.995 . S
Co535 N551 2.282 . S
Co535 N557 2.282 . S
N536 Co535 1.995 . S
N536 C537 1.376 . S
N536 C540 1.383 . S
C537 N536 1.376 . S
C537 C538 1.446 . S
C537 C567 1.391 . S
C538 C537 1.446 . S
C538 C539 1.339 . S
C538 H573 0.949 . S
C539 C538 1.339 . S
C539 C540 1.439 . S
C539 H574 0.950 . S
C540 N536 1.383 . S
C540 C539 1.439 . S
C540 C569 1.392 . S
N541 Co535 2.008 . S
N541 C542 1.376 . S
N541 C545 1.374 . S
C542 N541 1.376 . S
C542 C543 1.443 . S
C542 C569 1.389 . S
C543 C542 1.443 . S
C543 C544 1.340 . S
C543 H575 0.951 . S
C544 C543 1.340 . S
C544 C545 1.439 . S
C544 H576 0.950 . S
C545 N541 1.374 . S
C545 C544 1.439 . S
C545 C570 1.395 . S
N546 Co535 1.995 . S
N546 C547 1.376 . S
N546 C550 1.383 . S
C547 N546 1.376 . S
C547 C548 1.446 . S
C547 C570 1.391 . S
C548 C547 1.446 . S
C548 C549 1.339 . S
C548 H577 0.949 . S
C549 C548 1.339 . S
C549 C550 1.439 . S
C549 H578 0.950 . S
C550 N546 1.383 . S
C550 C549 1.439 . S
C550 C568 1.392 . S
N551 Co535 2.282 . S
N551 C554 1.332 . S
N551 C556 1.332 . S
C552 C553 1.386 . S
C552 C555 1.388 . S
C553 C552 1.386 . S
C553 C554 1.382 . S
C553 H579 0.950 . S
C554 N551 1.332 . S
C554 C553 1.382 . S
C554 H565 0.952 . S
C555 C552 1.388 . S
C555 C556 1.382 . S
C555 H580 0.950 . S
C556 N551 1.332 . S
C556 C555 1.382 . S
C556 H566 0.948 . S
N557 Co535 2.282 . S
N557 C561 1.332 1_556 S
N557 C562 1.332 1_556 S
C558 C559 1.388 . S
C558 C562 1.382 . S
C558 H581 0.950 . S
C559 C558 1.388 . S
C559 C560 1.386 . S
C560 C559 1.386 . S
C560 C561 1.382 . S
C560 H582 0.950 . S
C561 N557 1.332 1_554 S
C561 C560 1.382 . S
C561 H563 0.952 . S
C562 N557 1.332 1_554 S
C562 C558 1.382 . S
C562 H564 0.947 . S
H563 C561 0.952 . S
H564 C562 0.947 . S
H565 C554 0.952 . S
H566 C556 0.948 . S
C567 C533 1.395 . S
C567 C537 1.391 . S
C568 C530 1.389 . S
C568 C550 1.392 . S
C569 C540 1.392 . S
C569 C542 1.389 . S
C570 C545 1.395 . S
C570 C547 1.391 . S
H571 C531 0.951 . S
H572 C532 0.950 . S
H573 C538 0.949 . S
H574 C539 0.950 . S
H575 C543 0.951 . S
H576 C544 0.950 . S
H577 C548 0.949 . S
H578 C549 0.950 . S
H579 C553 0.950 . S
H580 C555 0.950 . S
H581 C558 0.950 . S
H582 C560 0.950 . S
C583 C584 1.443 . S
C583 N587 1.376 . S
C583 C621 1.389 . S
C584 C583 1.443 . S
C584 C585 1.340 . S
C584 H624 0.951 . S
C585 C584 1.340 . S
C585 C586 1.439 . S
C585 H625 0.950 . S
C586 C585 1.439 . S
C586 N587 1.374 . S
C586 C620 1.395 . S
N587 C583 1.376 . S
N587 C586 1.374 . S
N587 Co588 2.008 . S
Co588 N587 2.008 . S
Co588 N589 1.995 . S
Co588 N594 2.008 . S
Co588 N599 1.995 . S
Co588 N604 2.282 . S
Co588 N610 2.282 . S
N589 Co588 1.995 . S
N589 C590 1.376 . S
N589 C593 1.383 . S
C590 N589 1.376 . S
C590 C591 1.446 . S
C590 C620 1.391 . S
C591 C590 1.446 . S
C591 C592 1.339 . S
C591 H626 0.949 . S
C592 C591 1.339 . S
C592 C593 1.439 . S
C592 H627 0.950 . S
C593 N589 1.383 . S
C593 C592 1.439 . S
C593 C622 1.392 . S
N594 Co588 2.008 . S
N594 C595 1.376 . S
N594 C598 1.374 . S
C595 N594 1.376 . S
C595 C596 1.443 . S
C595 C622 1.389 . S
C596 C595 1.443 . S
C596 C597 1.340 . S
C596 H628 0.951 . S
C597 C596 1.340 . S
C597 C598 1.439 . S
C597 H629 0.950 . S
C598 N594 1.374 . S
C598 C597 1.439 . S
C598 C623 1.395 . S
N599 Co588 1.995 . S
N599 C600 1.376 . S
N599 C603 1.383 . S
C600 N599 1.376 . S
C600 C601 1.446 . S
C600 C623 1.391 . S
C601 C600 1.446 . S
C601 C602 1.339 . S
C601 H630 0.949 . S
C602 C601 1.339 . S
C602 C603 1.439 . S
C602 H631 0.950 . S
C603 N599 1.383 . S
C603 C602 1.439 . S
C603 C621 1.392 . S
N604 Co588 2.282 . S
N604 C607 1.332 . S
N604 C609 1.332 . S
C605 C606 1.386 . S
C605 C608 1.388 . S
C606 C605 1.386 . S
C606 C607 1.382 . S
C606 H632 0.950 . S
C607 N604 1.332 . S
C607 C606 1.382 . S
C607 H618 0.952 . S
C608 C605 1.388 . S
C608 C609 1.382 . S
C608 H633 0.950 . S
C609 N604 1.332 . S
C609 C608 1.382 . S
C609 H619 0.948 . S
N610 Co588 2.282 . S
N610 C614 1.332 . S
N610 C615 1.332 . S
C611 C612 1.388 . S
C611 C615 1.382 . S
C611 H634 0.950 . S
C612 C611 1.388 . S
C612 C613 1.386 . S
C613 C612 1.386 . S
C613 C614 1.382 . S
C613 H635 0.950 . S
C614 N610 1.332 . S
C614 C613 1.382 . S
C614 H616 0.952 . S
C615 N610 1.332 . S
C615 C611 1.382 . S
C615 H617 0.948 . S
H616 C614 0.952 . S
H617 C615 0.948 . S
H618 C607 0.952 . S
H619 C609 0.948 . S
C620 C586 1.395 . S
C620 C590 1.391 . S
C621 C583 1.389 . S
C621 C603 1.392 . S
C622 C593 1.392 . S
C622 C595 1.389 . S
C623 C598 1.395 . S
C623 C600 1.391 . S
H624 C584 0.951 . S
H625 C585 0.950 . S
H626 C591 0.949 . S
H627 C592 0.950 . S
H628 C596 0.951 . S
H629 C597 0.950 . S
H630 C601 0.949 . S
H631 C602 0.950 . S
H632 C606 0.950 . S
H633 C608 0.950 . S
H634 C611 0.950 . S
H635 C613 0.950 . S
C636 C637 1.387 . S
C636 H640 0.950 . S
C636 C645 1.390 . S
C637 C636 1.387 . S
C637 C639 1.387 . S
H638 C645 0.950 . S
C639 C637 1.387 . S
C639 C641 1.390 . S
C639 H643 0.950 . S
H640 C636 0.950 . S
C641 C639 1.390 . S
C641 C642 1.387 . S
C641 H644 0.950 . S
C642 C641 1.387 . S
C642 C645 1.387 . S
H643 C639 0.950 . S
H644 C641 0.950 . S
C645 C636 1.390 . S
C645 H638 0.950 . S
C645 C642 1.387 . S
C646 C647 1.387 . S
C646 H650 0.950 . S
C646 C655 1.390 . S
C647 C646 1.387 . S
C647 C649 1.387 . S
H648 C655 0.950 . S
C649 C647 1.387 . S
C649 C651 1.390 . S
C649 H653 0.950 . S
H650 C646 0.950 . S
C651 C649 1.390 . S
C651 C652 1.387 . S
C651 H654 0.950 . S
C652 C651 1.387 . S
C652 C655 1.387 . S
H653 C649 0.950 . S
H654 C651 0.950 . S
C655 C646 1.390 . S
C655 H648 0.950 . S
C655 C652 1.387 . S
C656 C657 1.387 . S
C656 H660 0.950 . S
C656 C665 1.390 1_556 S
C657 C656 1.387 . S
C657 C659 1.387 . S
H658 C665 0.950 . S
C659 C657 1.387 . S
C659 C661 1.390 1_556 S
C659 H663 0.950 . S
H660 C656 0.950 . S
C661 C659 1.390 1_554 S
C661 C662 1.387 . S
C661 H664 0.950 . S
C662 C661 1.387 . S
C662 C665 1.387 . S
H663 C659 0.950 . S
H664 C661 0.950 . S
C665 C656 1.390 1_554 S
C665 H658 0.950 . S
C665 C662 1.387 . S
C666 C667 1.387 . S
C666 H670 0.950 . S
C666 C675 1.390 . S
C667 C666 1.387 . S
C667 C669 1.387 . S
H668 C675 0.950 . S
C669 C667 1.387 . S
C669 C671 1.390 . S
C669 H673 0.950 . S
H670 C666 0.950 . S
C671 C669 1.390 . S
C671 C672 1.387 . S
C671 H674 0.950 . S
C672 C671 1.387 . S
C672 C675 1.387 . S
H673 C669 0.950 . S
H674 C671 0.950 . S
C675 C666 1.390 . S
C675 H668 0.950 . S
C675 C672 1.387 . S
C676 C677 1.387 . S
C676 H680 0.950 . S
C676 C685 1.390 . S
C677 C676 1.387 . S
C677 C679 1.387 . S
H678 C685 0.950 . S
C679 C677 1.387 . S
C679 C681 1.390 . S
C679 H683 0.950 . S
H680 C676 0.950 . S
C681 C679 1.390 . S
C681 C682 1.387 . S
C681 H684 0.950 . S
C682 C681 1.387 . S
C682 C685 1.387 . S
H683 C679 0.950 . S
H684 C681 0.950 . S
C685 C676 1.390 . S
C685 H678 0.950 . S
C685 C682 1.387 . S
C686 C687 1.387 . S
C686 H690 0.950 . S
C686 C695 1.390 1_554 S
C687 C686 1.387 . S
C687 C689 1.387 . S
H688 C695 0.950 . S
C689 C687 1.387 . S
C689 C691 1.390 1_554 S
C689 H693 0.950 . S
H690 C686 0.950 . S
C691 C689 1.390 1_556 S
C691 C692 1.387 . S
C691 H694 0.950 . S
C692 C691 1.387 . S
C692 C695 1.387 . S
H693 C689 0.950 . S
H694 C691 0.950 . S
C695 C686 1.390 1_556 S
C695 H688 0.950 . S
C695 C692 1.387 . S
C696 C697 1.387 . S
C696 H700 0.950 . S
C696 C705 1.390 1_554 S
C697 C696 1.387 . S
C697 C699 1.387 . S
H698 C705 0.950 . S
C699 C697 1.387 . S
C699 C701 1.390 1_554 S
C699 H703 0.950 . S
H700 C696 0.950 . S
C701 C699 1.390 1_556 S
C701 C702 1.387 . S
C701 H704 0.950 . S
C702 C701 1.387 . S
C702 C705 1.387 . S
H703 C699 0.950 . S
H704 C701 0.950 . S
C705 C696 1.390 1_556 S
C705 H698 0.950 . S
C705 C702 1.387 . S
C706 C707 1.387 . S
C706 H710 0.950 . S
C706 C715 1.390 . S
C707 C706 1.387 . S
C707 C709 1.387 . S
H708 C715 0.950 . S
C709 C707 1.387 . S
C709 C711 1.390 . S
C709 H713 0.950 . S
H710 C706 0.950 . S
C711 C709 1.390 . S
C711 C712 1.387 . S
C711 H714 0.950 . S
C712 C711 1.387 . S
C712 C715 1.387 . S
H713 C709 0.950 . S
H714 C711 0.950 . S
C715 C706 1.390 . S
C715 H708 0.950 . S
C715 C712 1.387 . S
C716 C717 1.387 . S
C716 H720 0.950 . S
C716 C725 1.390 . S
C717 C716 1.387 . S
C717 C719 1.387 . S
H718 C725 0.950 . S
C719 C717 1.387 . S
C719 C721 1.390 . S
C719 H723 0.950 . S
H720 C716 0.950 . S
C721 C719 1.390 . S
C721 C722 1.387 . S
C721 H724 0.950 . S
C722 C721 1.387 . S
C722 C725 1.387 . S
H723 C719 0.950 . S
H724 C721 0.950 . S
C725 C716 1.390 . S
C725 H718 0.950 . S
C725 C722 1.387 . S
C726 C727 1.387 . S
C726 H730 0.950 . S
C726 C735 1.390 1_554 S
C727 C726 1.387 . S
C727 C729 1.387 . S
H728 C735 0.950 . S
C729 C727 1.387 . S
C729 C731 1.390 1_554 S
C729 H733 0.950 . S
H730 C726 0.950 . S
C731 C729 1.390 1_556 S
C731 C732 1.387 . S
C731 H734 0.950 . S
C732 C731 1.387 . S
C732 C735 1.387 . S
H733 C729 0.950 . S
H734 C731 0.950 . S
C735 C726 1.390 1_556 S
C735 H728 0.950 . S
C735 C732 1.387 . S
C736 C737 1.387 . S
C736 H740 0.950 . S
C736 C745 1.390 . S
C737 C736 1.387 . S
C737 C739 1.387 . S
H738 C745 0.950 . S
C739 C737 1.387 . S
C739 C741 1.390 . S
C739 H743 0.950 . S
H740 C736 0.950 . S
C741 C739 1.390 . S
C741 C742 1.387 . S
C741 H744 0.950 . S
C742 C741 1.387 . S
C742 C745 1.387 . S
H743 C739 0.950 . S
H744 C741 0.950 . S
C745 C736 1.390 . S
C745 H738 0.950 . S
C745 C742 1.387 . S
C746 C747 1.387 . S
C746 H750 0.950 . S
C746 C755 1.390 . S
C747 C746 1.387 . S
C747 C749 1.387 . S
H748 C755 0.950 . S
C749 C747 1.387 . S
C749 C751 1.390 . S
C749 H753 0.950 . S
H750 C746 0.950 . S
C751 C749 1.390 . S
C751 C752 1.387 . S
C751 H754 0.950 . S
C752 C751 1.387 . S
C752 C755 1.387 . S
H753 C749 0.950 . S
H754 C751 0.950 . S
C755 C746 1.390 . S
C755 H748 0.950 . S
C755 C752 1.387 . S
C756 C757 1.387 . S
C756 H760 0.950 . S
C756 C765 1.390 . S
C757 C756 1.387 . S
C757 C759 1.387 . S
H758 C765 0.950 . S
C759 C757 1.387 . S
C759 C761 1.390 . S
C759 H763 0.950 . S
H760 C756 0.950 . S
C761 C759 1.390 . S
C761 C762 1.387 . S
C761 H764 0.950 . S
C762 C761 1.387 . S
C762 C765 1.387 . S
H763 C759 0.950 . S
H764 C761 0.950 . S
C765 C756 1.390 . S
C765 H758 0.950 . S
C765 C762 1.387 . S
C766 C767 1.387 . S
C766 H770 0.950 . S
C766 C775 1.390 1_655 S
C767 C766 1.387 . S
C767 C769 1.387 . S
H768 C775 0.950 . S
C769 C767 1.387 . S
C769 C771 1.390 1_655 S
C769 H773 0.950 . S
H770 C766 0.950 . S
C771 C769 1.390 1_455 S
C771 C772 1.387 . S
C771 H774 0.950 . S
C772 C771 1.387 . S
C772 C775 1.387 . S
H773 C769 0.950 . S
H774 C771 0.950 . S
C775 C766 1.390 1_455 S
C775 H768 0.950 . S
C775 C772 1.387 . S
C776 C777 1.387 . S
C776 H780 0.950 . S
C776 C785 1.390 1_545 S
C777 C776 1.387 . S
C777 C779 1.387 . S
H778 C785 0.950 . S
C779 C777 1.387 . S
C779 C781 1.390 1_545 S
C779 H783 0.950 . S
H780 C776 0.950 . S
C781 C779 1.390 1_565 S
C781 C782 1.387 . S
C781 H784 0.950 . S
C782 C781 1.387 . S
C782 C785 1.387 . S
H783 C779 0.950 . S
H784 C781 0.950 . S
C785 C776 1.390 1_565 S
C785 H778 0.950 . S
C785 C782 1.387 . S
C786 C787 1.387 . S
C786 H790 0.950 . S
C786 C795 1.390 . S
C787 C786 1.387 . S
C787 C789 1.387 . S
H788 C795 0.950 . S
C789 C787 1.387 . S
C789 C791 1.390 . S
C789 H793 0.950 . S
H790 C786 0.950 . S
C791 C789 1.390 . S
C791 C792 1.387 . S
C791 H794 0.950 . S
C792 C791 1.387 . S
C792 C795 1.387 . S
H793 C789 0.950 . S
H794 C791 0.950 . S
C795 C786 1.390 . S
C795 H788 0.950 . S
C795 C792 1.387 . S
C796 C797 1.387 . S
C796 H800 0.950 . S
C796 C805 1.390 1_455 S
C797 C796 1.387 . S
C797 C799 1.387 . S
H798 C805 0.950 . S
C799 C797 1.387 . S
C799 C801 1.390 1_455 S
C799 H803 0.950 . S
H800 C796 0.950 . S
C801 C799 1.390 1_655 S
C801 C802 1.387 . S
C801 H804 0.950 . S
C802 C801 1.387 . S
C802 C805 1.387 . S
H803 C799 0.950 . S
H804 C801 0.950 . S
C805 C796 1.390 1_655 S
C805 H798 0.950 . S
C805 C802 1.387 . S
C806 C807 1.387 . S
C806 H810 0.950 . S
C806 C815 1.390 1_565 S
C807 C806 1.387 . S
C807 C809 1.387 . S
H808 C815 0.950 . S
C809 C807 1.387 . S
C809 C811 1.390 1_565 S
C809 H813 0.950 . S
H810 C806 0.950 . S
C811 C809 1.390 1_545 S
C811 C812 1.387 . S
C811 H814 0.950 . S
C812 C811 1.387 . S
C812 C815 1.387 . S
H813 C809 0.950 . S
H814 C811 0.950 . S
C815 C806 1.390 1_545 S
C815 H808 0.950 . S
C815 C812 1.387 . S
C816 C817 1.387 . S
C816 H820 0.950 . S
C816 C825 1.390 . S
C817 C816 1.387 . S
C817 C819 1.387 . S
H818 C825 0.950 . S
C819 C817 1.387 . S
C819 C821 1.390 . S
C819 H823 0.950 . S
H820 C816 0.950 . S
C821 C819 1.390 . S
C821 C822 1.387 . S
C821 H824 0.950 . S
C822 C821 1.387 . S
C822 C825 1.387 . S
H823 C819 0.950 . S
H824 C821 0.950 . S
C825 C816 1.390 . S
C825 H818 0.950 . S
C825 C822 1.387 . S
C826 C827 1.387 . S
C826 H830 0.950 . S
C826 C835 1.390 . S
C827 C826 1.387 . S
C827 C829 1.387 . S
H828 C835 0.950 . S
C829 C827 1.387 . S
C829 C831 1.390 . S
C829 H833 0.950 . S
H830 C826 0.950 . S
C831 C829 1.390 . S
C831 C832 1.387 . S
C831 H834 0.950 . S
C832 C831 1.387 . S
C832 C835 1.387 . S
H833 C829 0.950 . S
H834 C831 0.950 . S
C835 C826 1.390 . S
C835 H828 0.950 . S
C835 C832 1.387 . S
C836 C837 1.387 . S
C836 H840 0.950 . S
C836 C845 1.390 . S
C837 C836 1.387 . S
C837 C839 1.387 . S
H838 C845 0.950 . S
C839 C837 1.387 . S
C839 C841 1.390 . S
C839 H843 0.950 . S
H840 C836 0.950 . S
C841 C839 1.390 . S
C841 C842 1.387 . S
C841 H844 0.950 . S
C842 C841 1.387 . S
C842 C845 1.387 . S
H843 C839 0.950 . S
H844 C841 0.950 . S
C845 C836 1.390 . S
C845 H838 0.950 . S
C845 C842 1.387 . S
C846 C847 1.387 . S
C846 H850 0.950 . S
C846 C855 1.390 . S
C847 C846 1.387 . S
C847 C849 1.387 . S
H848 C855 0.950 . S
C849 C847 1.387 . S
C849 C851 1.390 . S
C849 H853 0.950 . S
H850 C846 0.950 . S
C851 C849 1.390 . S
C851 C852 1.387 . S
C851 H854 0.950 . S
C852 C851 1.387 . S
C852 C855 1.387 . S
H853 C849 0.950 . S
H854 C851 0.950 . S
C855 C846 1.390 . S
C855 H848 0.950 . S
C855 C852 1.387 . S
C856 C857 1.387 . S
C856 H860 0.950 . S
C856 C865 1.390 . S
C857 C856 1.387 . S
C857 C859 1.387 . S
H858 C865 0.950 . S
C859 C857 1.387 . S
C859 C861 1.390 . S
C859 H863 0.950 . S
H860 C856 0.950 . S
C861 C859 1.390 . S
C861 C862 1.387 . S
C861 H864 0.950 . S
C862 C861 1.387 . S
C862 C865 1.387 . S
H863 C859 0.950 . S
H864 C861 0.950 . S
C865 C856 1.390 . S
C865 H858 0.950 . S
C865 C862 1.387 . S
C866 C867 1.387 . S
C866 H870 0.950 . S
C866 C875 1.390 . S
C867 C866 1.387 . S
C867 C869 1.387 . S
H868 C875 0.950 . S
C869 C867 1.387 . S
C869 C871 1.390 . S
C869 H873 0.950 . S
H870 C866 0.950 . S
C871 C869 1.390 . S
C871 C872 1.387 . S
C871 H874 0.950 . S
C872 C871 1.387 . S
C872 C875 1.387 . S
H873 C869 0.950 . S
H874 C871 0.950 . S
C875 C866 1.390 . S
C875 H868 0.950 . S
C875 C872 1.387 . S
C637 C22 1.631 . S
C642 C340 1.631 . S
C647 C75 1.631 . S
C652 C393 1.631 . S
C657 C128 1.631 . S
C662 C446 1.631 . S
C667 C181 1.632 . S
C672 C499 1.632 . S
C677 C234 1.632 . S
C682 C552 1.632 . S
C687 C605 1.631 . S
C692 C287 1.631 . S
C697 C38 1.844 . S
C702 C568 1.845 . S
C707 C91 1.843 . S
C712 C621 1.844 . S
C717 C144 1.844 . S
C722 C356 1.845 . S
C727 C197 1.844 . S
C732 C409 1.844 . S
C737 C250 1.843 . S
C742 C462 1.843 . S
C747 C303 1.845 . S
C752 C515 1.843 . S
C757 C39 1.923 . S
C762 C198 1.923 . S
C767 C92 1.923 . S
C772 C251 1.923 . S
C777 C304 1.921 . S
C782 C145 1.921 . S
C787 C357 1.923 . S
C792 C516 1.923 . S
C797 C569 1.921 . S
C802 C410 1.921 . S
C807 C463 1.923 . S
C812 C622 1.923 . S
C817 C347 1.340 . S
C822 C29 1.339 . S
C827 C82 1.341 . S
C832 C400 1.342 . S
C837 C135 1.342 . S
C842 C453 1.342 . S
C847 C506 1.341 . S
C852 C188 1.341 . S
C857 C559 1.340 . S
C862 C241 1.340 . S
C867 C294 1.342 . S
C872 C612 1.342 . S
