# Generated by pormake.
# Topology ftb, (5)-cn, num edge types: 1
# Building blocks:
#     Node 0, Type 0, BuildingBlock: XOMCOT_clean_sbu_0, # of connection points: 5
#     Node 1, Type 0, BuildingBlock: XOMCOT_clean_sbu_0, # of connection points: 5
#     Node 2, Type 0, BuildingBlock: XOMCOT_clean_sbu_0, # of connection points: 5
#     Node 3, Type 0, BuildingBlock: XOMCOT_clean_sbu_0, # of connection points: 5
#     Node 4, Type 0, BuildingBlock: XOMCOT_clean_sbu_0, # of connection points: 5
#     Node 5, Type 0, BuildingBlock: XOMCOT_clean_sbu_0, # of connection points: 5
#     Node 6, Type 0, BuildingBlock: XOMCOT_clean_sbu_0, # of connection points: 5
#     Node 7, Type 0, BuildingBlock: XOMCOT_clean_sbu_0, # of connection points: 5
#     Edge 8, Type (0, 0), BuildingBlock: KIFKEQ_clean_linker_1, # of connection points: 2
#     Edge 9, Type (0, 0), BuildingBlock: KIFKEQ_clean_linker_1, # of connection points: 2
#     Edge 10, Type (0, 0), BuildingBlock: KIFKEQ_clean_linker_1, # of connection points: 2
#     Edge 11, Type (0, 0), BuildingBlock: KIFKEQ_clean_linker_1, # of connection points: 2
#     Edge 12, Type (0, 0), BuildingBlock: KIFKEQ_clean_linker_1, # of connection points: 2
#     Edge 13, Type (0, 0), BuildingBlock: KIFKEQ_clean_linker_1, # of connection points: 2
#     Edge 14, Type (0, 0), BuildingBlock: KIFKEQ_clean_linker_1, # of connection points: 2
#     Edge 15, Type (0, 0), BuildingBlock: KIFKEQ_clean_linker_1, # of connection points: 2
#     Edge 16, Type (0, 0), BuildingBlock: KIFKEQ_clean_linker_1, # of connection points: 2
#     Edge 17, Type (0, 0), BuildingBlock: KIFKEQ_clean_linker_1, # of connection points: 2
#     Edge 18, Type (0, 0), BuildingBlock: KIFKEQ_clean_linker_1, # of connection points: 2
#     Edge 19, Type (0, 0), BuildingBlock: KIFKEQ_clean_linker_1, # of connection points: 2
#     Edge 20, Type (0, 0), BuildingBlock: KIFKEQ_clean_linker_1, # of connection points: 2
#     Edge 21, Type (0, 0), BuildingBlock: KIFKEQ_clean_linker_1, # of connection points: 2
#     Edge 22, Type (0, 0), BuildingBlock: KIFKEQ_clean_linker_1, # of connection points: 2
#     Edge 23, Type (0, 0), BuildingBlock: KIFKEQ_clean_linker_1, # of connection points: 2
#     Edge 24, Type (0, 0), BuildingBlock: KIFKEQ_clean_linker_1, # of connection points: 2
#     Edge 25, Type (0, 0), BuildingBlock: KIFKEQ_clean_linker_1, # of connection points: 2
#     Edge 26, Type (0, 0), BuildingBlock: KIFKEQ_clean_linker_1, # of connection points: 2
#     Edge 27, Type (0, 0), BuildingBlock: KIFKEQ_clean_linker_1, # of connection points: 2
# Relax obj value: 0.116
# Max RMSD: 0.197
# Mean RMSD: 0.197
data_MOF--net-ftb--node1-XOMCOT_clean_sbu_0--edge1-KIFKEQ_clean_linker_1
_symmetry_space_group_name_H-M    P1
_symmetry_Int_Tables_number       1
_symmetry_cell_setting            triclinic
loop_
_symmetry_equiv_pos_as_xyz
'x, y, z'
_cell_length_a     55.700497
_cell_length_b     21.387978
_cell_length_c     28.652997
_cell_angle_alpha  90.057694
_cell_angle_beta   91.888691
_cell_angle_gamma 90.050442
loop_
_atom_site_label
_atom_site_type_symbol
_atom_site_fract_x
_atom_site_fract_y
_atom_site_fract_z
_atom_type_partial_charge
Co0 Co 0.32752 -0.00766 0.03526 0.0
C1 C 0.32923 0.91722 0.9486 0.0
C2 C 0.30879 0.00152 0.9387 0.0
C3 C 0.308 0.96821 0.89755 0.0
N4 N 0.32218 0.96966 0.97051 0.0
N5 N 0.32084 0.91511 0.9037 0.0
H6 H 0.3401 0.88133 0.9654 0.0
H7 H 0.29969 0.04511 0.94533 0.0
C8 C 0.34081 0.12995 1.0313 0.0
O9 O 0.35772 0.12454 0.06412 0.0
N10 N 0.33234 0.01493 0.10093 0.0
C11 C 0.34303 0.98002 0.13475 0.0
C12 C 0.34236 0.01162 0.17641 0.0
C13 C 0.32424 0.06616 0.12336 0.0
N14 N 0.33085 0.06646 0.16934 0.0
C15 C 0.3719 0.92467 0.04808 0.0
C16 C 0.40067 0.00998 1.00398 0.0
C17 C 0.41153 0.95986 1.02794 0.0
C18 C 0.39676 0.91542 0.04857 0.0
C19 C 0.37574 0.01688 1.00382 0.0
N20 N 0.36184 0.97731 1.02889 0.0
H21 H 0.36079 0.88976 0.06384 0.0
H22 H 0.36782 0.05427 0.98345 0.0
H23 H 0.3503 0.93384 0.13039 0.0
H24 H 0.31398 0.10278 0.10611 0.0
O25 O 0.31675 0.90987 0.0537 0.0
O26 O 0.29348 -0.00694 0.04317 0.0
O27 O 0.3296 0.08202 1.01555 0.0
C28 C 0.29526 0.9342 0.05351 0.0
H29 H 0.29801 0.98132 0.86605 0.0
H30 H 0.34957 -0.0055 0.20948 0.0
H31 H 0.41138 0.04367 0.98558 0.0
H32 H 0.40437 0.87496 0.06627 0.0
Co33 Co 0.67618 0.98913 0.04846 0.0
C34 C 0.67748 0.91148 0.13374 0.0
C35 C 0.69534 -0.00064 0.14509 0.0
C36 C 0.69706 0.96507 0.18571 0.0
N37 N 0.68293 0.96586 0.11271 0.0
N38 N 0.68589 0.9095 0.17868 0.0
H39 H 0.668 0.87388 0.11589 0.0
H40 H 0.70294 0.04514 0.13945 0.0
C41 C 0.66379 0.1274 0.05306 0.0
O42 O 0.6469 0.12323 1.02011 0.0
N43 N 0.66975 0.01165 0.98328 0.0
C44 C 0.65691 0.97812 0.95135 0.0
C45 C 0.65672 0.00885 0.90933 0.0
C46 C 0.67821 0.06111 0.95925 0.0
N47 N 0.66985 0.06154 0.91428 0.0
C48 C 0.63216 0.9187 0.04129 0.0
C49 C 0.60346 0.00567 0.08367 0.0
C50 C 0.59251 0.95317 0.06259 0.0
C51 C 0.60741 0.90817 0.04275 0.0
C52 C 0.62828 0.01393 0.08182 0.0
N53 N 0.6421 0.97316 0.05768 0.0
H54 H 0.64326 0.88338 1.02595 0.0
H55 H 0.63611 0.05345 0.0999 0.0
H56 H 0.64861 0.93347 0.95721 0.0
H57 H 0.68973 0.09681 0.97468 0.0
O58 O 0.68681 0.90711 1.0286 0.0
O59 O 0.70994 0.99091 0.03782 0.0
O60 O 0.67443 0.07871 0.06882 0.0
C61 C 0.70817 0.93208 1.02736 0.0
H62 H 0.70592 0.98045 0.21783 0.0
H63 H 0.64782 -0.00711 0.87735 0.0
H64 H 0.59297 0.04128 0.10046 0.0
H65 H 0.60006 0.86529 1.02809 0.0
Co66 Co 0.32591 0.488 0.53892 0.0
C67 C 0.32536 0.41401 0.44951 0.0
C68 C 0.29763 0.48329 0.45112 0.0
C69 C 0.29463 0.44933 0.4106 0.0
N70 N 0.31707 0.46183 0.47545 0.0
N71 N 0.31202 0.4056 0.40961 0.0
H72 H 0.33999 0.38382 0.46025 0.0
H73 H 0.28606 0.52044 0.46265 0.0
C74 C 0.32938 0.6026 0.47931 0.0
O75 O 0.33815 0.56962 0.44514 0.0
N76 N 0.33392 0.51362 0.60219 0.0
C77 C 0.34655 0.4803 0.63431 0.0
C78 C 0.34861 0.51481 0.67483 0.0
C79 C 0.32833 0.56777 0.62349 0.0
N80 N 0.33719 0.56994 0.66805 0.0
C81 C 0.3699 0.41917 0.5299 0.0
C82 C 0.39993 0.52204 0.52927 0.0
C83 C 0.41019 0.46227 0.52959 0.0
C84 C 0.39481 0.41032 0.52979 0.0
C85 C 0.37504 0.52879 0.52975 0.0
N86 N 0.36019 0.47782 0.52894 0.0
H87 H 0.35846 0.37865 0.53251 0.0
H88 H 0.36805 0.57535 0.53357 0.0
H89 H 0.35376 0.43407 0.62866 0.0
H90 H 0.31825 0.60498 0.60648 0.0
O91 O 0.31768 0.40503 0.56082 0.0
O92 O 0.29259 0.48507 0.55363 0.0
O93 O 0.3258 0.57787 0.51897 0.0
C94 C 0.29592 0.42672 0.56425 0.0
H95 H 0.28053 0.45595 0.38418 0.0
H96 H 0.35757 0.49984 0.70696 0.0
H97 H 0.41109 0.56353 0.53101 0.0
H98 H 0.40194 0.36324 0.53065 0.0
Co99 Co 0.6748 0.47486 0.53932 0.0
C100 C 0.67707 0.39497 0.62466 0.0
C101 C 0.70191 0.47181 0.62813 0.0
C102 C 0.70439 0.43803 0.66877 0.0
N103 N 0.68473 0.44512 0.60064 0.0
N104 N 0.68875 0.38975 0.66675 0.0
H105 H 0.66317 0.36346 0.61177 0.0
H106 H 0.71213 0.51278 0.61899 0.0
C107 C 0.66566 0.61331 0.55429 0.0
O108 O 0.64752 0.61476 0.5238 0.0
N109 N 0.66554 0.50555 0.47724 0.0
C110 C 0.6491 0.48125 0.44665 0.0
C111 C 0.64816 0.51734 0.40701 0.0
C112 C 0.67516 0.5546 0.45451 0.0
N113 N 0.6644 0.56375 0.41205 0.0
C114 C 0.62941 0.41087 0.53636 0.0
C115 C 0.60454 0.49663 0.58808 0.0
C116 C 0.59161 0.44924 0.56443 0.0
C117 C 0.60458 0.40438 0.53998 0.0
C118 C 0.62939 0.50139 0.58337 0.0
N119 N 0.6412 0.46175 0.5546 0.0
H120 H 0.63894 0.37643 0.51661 0.0
H121 H 0.63885 0.53745 0.60271 0.0
H122 H 0.63866 0.4396 0.45162 0.0
H123 H 0.68923 0.58416 0.46939 0.0
O124 O 0.68242 0.394 0.5127 0.0
O125 O 0.70765 0.47365 0.52136 0.0
O126 O 0.67595 0.56195 0.56515 0.0
C127 C 0.70397 0.41646 0.50783 0.0
H128 H 0.71711 0.4477 0.69722 0.0
H129 H 0.63657 0.50951 0.37649 0.0
H130 H 0.5955 0.53038 0.60954 0.0
H131 H 0.59557 0.36614 0.52182 0.0
Co132 Co 0.82593 0.98684 0.53973 0.0
C133 C 0.82618 0.91341 0.45032 0.0
C134 C 0.79894 0.98407 0.45026 0.0
C135 C 0.79657 0.95082 0.40926 0.0
N136 N 0.81778 0.96151 0.4758 0.0
N137 N 0.81364 0.9062 0.40934 0.0
H138 H 0.84071 0.88325 0.4616 0.0
H139 H 0.78729 0.02133 0.4613 0.0
C140 C 0.83013 0.10253 0.48135 0.0
O141 O 0.83927 0.07024 0.4472 0.0
N142 N 0.8333 0.01154 0.60345 0.0
C143 C 0.84558 0.97768 0.63576 0.0
C144 C 0.8474 0.01178 0.6765 0.0
C145 C 0.82767 0.06557 0.62485 0.0
N146 N 0.83618 0.06715 0.66965 0.0
C147 C 0.87004 0.91798 0.53216 0.0
C148 C 0.90009 0.02085 0.53261 0.0
C149 C 0.91034 0.96109 0.53288 0.0
C150 C 0.89496 0.90914 0.53264 0.0
C151 C 0.87519 0.02759 0.53256 0.0
N152 N 0.86033 0.97664 0.53108 0.0
H153 H 0.85857 0.87745 0.53434 0.0
H154 H 0.86819 0.07413 0.53643 0.0
H155 H 0.85275 0.93142 0.63006 0.0
H156 H 0.81787 0.10319 0.60773 0.0
O157 O 0.81736 0.90366 0.56072 0.0
O158 O 0.79243 0.98399 0.55301 0.0
O159 O 0.82609 0.07701 0.52053 0.0
C160 C 0.79559 0.92553 0.56348 0.0
H161 H 0.78268 0.95733 0.38241 0.0
H162 H 0.85609 -0.00357 0.7088 0.0
H163 H 0.91125 0.06233 0.53473 0.0
H164 H 0.9021 0.86206 0.53351 0.0
Co165 Co 0.17464 0.9746 0.54033 0.0
C166 C 0.17756 0.89559 0.62642 0.0
C167 C 0.20379 0.96917 0.62636 0.0
C168 C 0.20704 0.93529 0.66673 0.0
N169 N 0.18534 0.9445 0.60114 0.0
N170 N 0.19051 0.88897 0.66712 0.0
H171 H 0.1628 0.86576 0.61517 0.0
H172 H 0.21444 0.00865 0.61568 0.0
C173 C 0.16629 0.11319 0.55509 0.0
O174 O 0.14825 0.11511 0.5244 0.0
N175 N 0.16473 0.0058 0.47874 0.0
C176 C 0.14724 0.98394 0.44941 0.0
C177 C 0.14677 0.019 0.40925 0.0
C178 C 0.17519 0.05263 0.45496 0.0
N179 N 0.16428 0.06252 0.41264 0.0
C180 C 0.12941 0.91011 0.53961 0.0
C181 C 0.10475 -0.00317 0.59086 0.0
C182 C 0.09175 0.94881 0.56812 0.0
C183 C 0.10462 0.9035 0.54392 0.0
C184 C 0.12955 0.00175 0.58545 0.0
N185 N 0.14124 0.96146 0.55697 0.0
H186 H 0.13881 0.87565 0.51963 0.0
H187 H 0.13904 0.03851 0.60394 0.0
H188 H 0.13564 0.94483 0.45563 0.0
H189 H 0.19042 0.07906 0.46868 0.0
O190 O 0.18193 0.89388 0.51304 0.0
O191 O 0.20726 0.97338 0.52088 0.0
O192 O 0.17617 0.06148 0.56647 0.0
C193 C 0.20341 0.91628 0.50733 0.0
H194 H 0.22098 0.94371 0.69313 0.0
H195 H 0.13411 0.01314 0.38013 0.0
H196 H 0.09581 0.03106 0.61206 0.0
H197 H 0.09557 0.86491 0.52632 0.0
Co198 Co 0.82741 0.49136 0.03583 0.0
C199 C 0.82831 0.41488 0.94972 0.0
C200 C 0.80729 0.49827 0.94017 0.0
C201 C 0.80624 0.46453 0.89923 0.0
N202 N 0.82122 0.46727 0.97162 0.0
N203 N 0.81945 0.41202 0.90518 0.0
H204 H 0.83961 0.37962 0.96622 0.0
H205 H 0.79806 0.54166 0.9469 0.0
C206 C 0.84002 0.6293 1.02978 0.0
O207 O 0.85696 0.62552 0.06267 0.0
N208 N 0.83313 0.51546 0.10093 0.0
C209 C 0.84567 0.48326 0.13402 0.0
C210 C 0.84565 0.51607 0.17522 0.0
C211 C 0.82461 0.56613 0.12348 0.0
N212 N 0.83267 0.56863 0.16856 0.0
C213 C 0.87181 0.42319 0.04611 0.0
C214 C 0.90025 0.50936 1.00214 0.0
C215 C 0.91127 0.45888 1.02536 0.0
C216 C 0.89666 0.41397 0.04585 0.0
C217 C 0.87533 0.51625 1.00274 0.0
N218 N 0.86163 0.47625 1.02784 0.0
H219 H 0.86082 0.38822 0.06217 0.0
H220 H 0.86731 0.55399 0.98294 0.0
H221 H 0.85397 0.43835 0.12947 0.0
H222 H 0.81333 0.60134 0.10688 0.0
O223 O 0.81694 0.40926 0.05584 0.0
O224 O 0.79352 0.49217 0.04544 0.0
O225 O 0.82909 0.58054 1.01483 0.0
C226 C 0.79545 0.4335 0.05624 0.0
H227 H 0.79589 0.47695 0.868 0.0
H228 H 0.85438 0.50181 0.20779 0.0
H229 H 0.91082 0.54344 0.98384 0.0
H230 H 0.9044 0.37329 0.06306 0.0
Co231 Co 0.17622 0.49052 0.05104 0.0
C232 C 0.17611 0.41279 0.13634 0.0
C233 C 0.19244 0.50233 0.14951 0.0
C234 C 0.19341 0.46827 0.19031 0.0
N235 N 0.18141 0.46772 0.11587 0.0
N236 N 0.18322 0.41193 0.18194 0.0
H237 H 0.16733 0.37425 0.11817 0.0
H238 H 0.19982 0.54849 0.14456 0.0
C239 C 0.1636 0.62874 0.05393 0.0
O240 O 0.14722 0.62375 1.02006 0.0
N241 N 0.17144 0.51263 0.98533 0.0
C242 C 0.16003 0.47818 0.95191 0.0
C243 C 0.16159 0.50796 0.90967 0.0
C244 C 0.18062 0.56195 0.96221 0.0
N245 N 0.1744 0.56088 0.91612 0.0
C246 C 0.1321 0.42118 0.03971 0.0
C247 C 0.10298 0.50718 0.08211 0.0
C248 C 0.09224 0.45504 0.06012 0.0
C249 C 0.10733 0.41063 0.0401 0.0
C250 C 0.12783 0.51546 0.0813 0.0
N251 N 0.1419 0.47513 0.05733 0.0
H252 H 0.14337 0.38601 1.02467 0.0
H253 H 0.1355 0.55452 0.10023 0.0
H254 H 0.15153 0.4336 0.957 0.0
H255 H 0.19175 0.59772 0.97867 0.0
O256 O 0.18714 0.40817 0.03252 0.0
O257 O 0.21026 0.49169 0.04345 0.0
O258 O 0.17413 0.58041 0.07061 0.0
C259 C 0.20858 0.43284 0.03298 0.0
H260 H 0.20166 0.48308 0.22322 0.0
H261 H 0.15358 0.49219 0.8768 0.0
H262 H 0.09233 0.54235 0.09901 0.0
H263 H 0.10011 0.36803 1.02473 0.0
H264 H 0.35324 0.34852 0.38534 0.0
H265 H 0.27694 0.3538 0.35401 0.0
H266 H 0.35783 0.26815 0.32583 0.0
H267 H 0.28139 0.27302 0.29506 0.0
H268 H 0.30086 0.16768 0.16269 0.0
H269 H 0.29681 0.25146 0.21943 0.0
H270 H 0.34909 0.16097 0.31117 0.0
H271 H 0.35408 0.07938 0.25406 0.0
C272 C 0.33742 0.33218 0.36603 0.0
C273 C 0.31475 0.35776 0.37451 0.0
C274 C 0.34002 0.28601 0.33187 0.0
C275 C 0.31997 0.26384 0.30549 0.0
C276 C 0.2973 0.28958 0.31399 0.0
C277 C 0.29474 0.33595 0.34795 0.0
C278 C 0.31164 0.16559 0.19472 0.0
C279 C 0.32771 0.11581 0.2034 0.0
C280 C 0.30914 0.2136 0.2276 0.0
C281 C 0.32262 0.2132 0.27006 0.0
C282 C 0.33863 0.16353 0.2787 0.0
C283 C 0.3412 0.11582 0.2459 0.0
H284 H 0.65727 0.80592 0.17068 0.0
H285 H 0.70947 0.89632 0.26341 0.0
H286 H 0.65349 0.7219 0.2264 0.0
H287 H 0.70448 0.81407 0.32025 0.0
H288 H 0.70606 0.62522 0.39627 0.0
H289 H 0.71222 0.708 0.33898 0.0
H290 H 0.63678 0.70051 0.29869 0.0
H291 H 0.631 0.61713 0.35464 0.0
C292 C 0.66797 0.80838 0.20277 0.0
C293 C 0.68364 0.85891 0.21201 0.0
C294 C 0.66554 0.76016 0.23525 0.0
C295 C 0.67849 0.76114 0.27828 0.0
C296 C 0.69435 0.81117 0.28742 0.0
C297 C 0.69696 0.85914 0.25475 0.0
C298 C 0.69085 0.64156 0.37517 0.0
C299 C 0.66812 0.61413 0.37959 0.0
C300 C 0.69432 0.68912 0.34237 0.0
C301 C 0.67504 0.71083 0.31365 0.0
C302 C 0.65222 0.68408 0.31906 0.0
C303 C 0.64886 0.63627 0.35135 0.0
H304 H 0.30344 0.66201 0.66827 0.0
H305 H 0.36626 0.59299 0.74425 0.0
H306 H 0.29982 0.74583 0.72529 0.0
H307 H 0.36247 0.67634 0.80128 0.0
H308 H 0.33191 0.79301 0.92065 0.0
H309 H 0.33602 0.7098 0.86333 0.0
H310 H 0.32059 0.84122 0.75209 0.0
H311 H 0.31671 0.92452 0.80918 0.0
C312 C 0.3166 0.6648 0.69681 0.0
C313 C 0.3351 0.62026 0.70151 0.0
C314 C 0.3145 0.71295 0.72959 0.0
C315 C 0.33081 0.71774 0.76799 0.0
C316 C 0.34935 0.67344 0.7726 0.0
C317 C 0.3515 0.62548 0.73978 0.0
C318 C 0.32966 0.80449 0.88402 0.0
C319 C 0.3239 0.86578 0.86979 0.0
C320 C 0.33198 0.75664 0.85108 0.0
C321 C 0.32854 0.76874 0.80307 0.0
C322 C 0.32295 0.83 0.7888 0.0
C323 C 0.32072 0.87786 0.82168 0.0
H324 H 0.67246 0.27073 0.65486 0.0
H325 H 0.69809 0.40184 0.75986 0.0
H326 H 0.66848 0.19098 0.71495 0.0
H327 H 0.69405 0.32248 0.81981 0.0
H328 H 0.70637 0.14578 0.90848 0.0
H329 H 0.7112 0.22521 0.8482 0.0
H330 H 0.64453 0.16576 0.78072 0.0
H331 H 0.63979 0.08685 0.84042 0.0
C332 C 0.67704 0.28278 0.69074 0.0
C333 C 0.68568 0.34276 0.70233 0.0
C334 C 0.67479 0.23702 0.72529 0.0
C335 C 0.68103 0.25013 0.77234 0.0
C336 C 0.68952 0.31024 0.7839 0.0
C337 C 0.6918 0.35589 0.74941 0.0
C338 C 0.69272 0.14985 0.88089 0.0
C339 C 0.67284 0.10924 0.87917 0.0
C340 C 0.69545 0.19545 0.8463 0.0
C341 C 0.67833 0.20167 0.80928 0.0
C342 C 0.65836 0.16149 0.80798 0.0
C343 C 0.65566 0.11604 0.84238 0.0
H344 H 0.86511 0.08988 0.74603 0.0
H345 H 0.80239 0.15899 0.66983 0.0
H346 H 0.86126 0.1732 0.80311 0.0
H347 H 0.79866 0.24266 0.72692 0.0
H348 H 0.81515 0.42124 0.81074 0.0
H349 H 0.81917 0.33792 0.75371 0.0
H350 H 0.83499 0.2069 0.86506 0.0
H351 H 0.83081 0.29023 0.9223 0.0
C352 C 0.85036 0.1224 0.74156 0.0
C353 C 0.83401 0.11728 0.7032 0.0
C354 C 0.84817 0.17031 0.77439 0.0
C355 C 0.82963 0.2146 0.76971 0.0
C356 C 0.81335 0.20982 0.73127 0.0
C357 C 0.8155 0.16177 0.69845 0.0
C358 C 0.81928 0.37465 0.82325 0.0
C359 C 0.82256 0.36269 0.87134 0.0
C360 C 0.82159 0.32678 0.79043 0.0
C361 C 0.82733 0.26562 0.80475 0.0
C362 C 0.83085 0.25365 0.85277 0.0
C363 C 0.82848 0.30155 0.88565 0.0
H364 H 0.17876 0.68588 0.92926 0.0
H365 H 0.1795 0.5425 0.82345 0.0
H366 H 0.18195 0.76596 0.8693 0.0
H367 H 0.18345 0.62197 0.76342 0.0
H368 H 0.16545 0.77906 0.66177 0.0
H369 H 0.16181 0.70079 0.7226 0.0
H370 H 0.20719 0.81225 0.81534 0.0
H371 H 0.20956 0.89193 0.75606 0.0
C372 C 0.18001 0.67146 0.89326 0.0
C373 C 0.1787 0.60787 0.88119 0.0
C374 C 0.18186 0.71736 0.85871 0.0
C375 C 0.18277 0.70076 0.81116 0.0
C376 C 0.18218 0.63688 0.79937 0.0
C377 C 0.18007 0.59115 0.83387 0.0
C378 C 0.17444 0.78745 0.69521 0.0
C379 C 0.18794 0.84227 0.70334 0.0
C380 C 0.1726 0.74193 0.7301 0.0
C381 C 0.18433 0.74968 0.77407 0.0
C382 C 0.19766 0.80464 0.78227 0.0
C383 C 0.19931 0.85029 0.74765 0.0
H384 H 0.80212 0.91432 0.31683 0.0
H385 H 0.83163 0.78925 0.422 0.0
H386 H 0.80635 0.83338 0.25769 0.0
H387 H 0.83564 0.7081 0.36316 0.0
H388 H 0.86332 0.5999 0.24002 0.0
H389 H 0.85867 0.68209 0.29737 0.0
H390 H 0.7908 0.73394 0.23106 0.0
H391 H 0.7957 0.65149 0.1729 0.0
C392 C 0.80936 0.8694 0.32743 0.0
C393 C 0.81661 0.85848 0.37423 0.0
C394 C 0.81172 0.82285 0.29349 0.0
C395 C 0.82136 0.76404 0.30547 0.0
C396 C 0.82855 0.75313 0.35236 0.0
C397 C 0.82627 0.79976 0.38622 0.0
C398 C 0.84725 0.62825 0.23784 0.0
C399 C 0.82973 0.61839 0.20209 0.0
C400 C 0.84457 0.67556 0.27087 0.0
C401 C 0.82423 0.71445 0.26933 0.0
C402 C 0.80681 0.70529 0.23315 0.0
C403 C 0.80957 0.65792 0.19983 0.0
H404 H 0.18835 0.17229 0.42765 0.0
H405 H 0.1513 0.06363 0.32031 0.0
H406 H 0.19469 0.25538 0.37139 0.0
H407 H 0.15616 0.14794 0.26525 0.0
H408 H 0.18521 0.28789 0.1633 0.0
H409 H 0.18291 0.20212 0.21896 0.0
H410 H 0.17397 0.33541 0.33063 0.0
H411 H 0.17712 0.42079 0.27495 0.0
C412 C 0.18161 0.16578 0.39214 0.0
C413 C 0.16916 0.11093 0.3789 0.0
C414 C 0.18495 0.21402 0.35988 0.0
C415 C 0.1758 0.20895 0.31358 0.0
C416 C 0.16375 0.15361 0.30027 0.0
C417 C 0.16062 0.10529 0.33229 0.0
C418 C 0.18264 0.29869 0.19971 0.0
C419 C 0.1813 0.36109 0.21469 0.0
C420 C 0.18128 0.24952 0.23175 0.0
C421 C 0.17821 0.26146 0.27958 0.0
C422 C 0.17682 0.3241 0.2944 0.0
C423 C 0.17848 0.37321 0.26242 0.0
H424 H 0.56438 0.90337 0.99127 0.0
H425 H 0.55982 0.98872 0.12763 0.0
H426 H 0.52065 0.90039 0.98416 0.0
H427 H 0.51613 0.98788 0.1193 0.0
H428 H 0.44281 0.05221 0.05358 0.0
H429 H 0.48645 0.0456 0.06379 0.0
H430 H 0.48391 0.85099 1.02382 0.0
H431 H 0.44006 0.85753 1.01378 0.0
C432 C 0.55416 0.92065 1.02007 0.0
C433 C 0.56581 0.94671 0.05994 0.0
C434 C 0.52907 0.91916 1.0158 0.0
C435 C 0.51504 0.94441 0.05098 0.0
C436 C 0.52655 0.96896 0.09132 0.0
C437 C 0.55162 0.96967 0.09593 0.0
C438 C 0.45159 0.00811 0.04672 0.0
C439 C 0.43807 0.95543 0.03274 0.0
C440 C 0.47651 0.00419 0.05299 0.0
C441 C 0.48852 0.94771 0.04481 0.0
C442 C 0.47508 0.89512 1.03027 0.0
C443 C 0.45004 0.89878 1.02472 0.0
H444 H 0.43675 0.38146 0.58471 0.0
H445 H 0.44378 0.52735 0.48198 0.0
H446 H 0.48042 0.37641 0.59466 0.0
H447 H 0.48735 0.52204 0.49158 0.0
H448 H 0.5614 0.54963 0.55739 0.0
H449 H 0.51784 0.54974 0.54947 0.0
H450 H 0.51732 0.34802 0.55684 0.0
H451 H 0.56102 0.348 0.56691 0.0
C452 C 0.44762 0.41171 0.56368 0.0
C453 C 0.43677 0.45505 0.53271 0.0
C454 C 0.47267 0.40891 0.56945 0.0
C455 C 0.48743 0.44931 0.54433 0.0
C456 C 0.47654 0.49125 0.51233 0.0
C457 C 0.45156 0.49415 0.50666 0.0
C458 C 0.55204 0.50527 0.55825 0.0
C459 C 0.56482 0.4488 0.56284 0.0
C460 C 0.52702 0.50529 0.55294 0.0
C461 C 0.51404 0.44885 0.55192 0.0
C462 C 0.52672 0.39237 0.55762 0.0
C463 C 0.55181 0.39234 0.56297 0.0
H464 H 0.06147 0.04906 0.56074 0.0
H465 H 0.06119 0.84756 0.57174 0.0
H466 H 0.01792 0.04899 0.55301 0.0
H467 H 0.0175 0.84737 0.56173 0.0
H468 H 0.9368 0.88054 0.58841 0.0
H469 H 0.98047 0.87573 0.5988 0.0
H470 H 0.98754 0.02086 0.49534 0.0
H471 H 0.944 0.02601 0.48541 0.0
C472 C 0.05214 0.00469 0.56199 0.0
C473 C 0.06495 0.94831 0.56691 0.0
C474 C 0.02712 0.0046 0.55677 0.0
C475 C 0.01416 0.94812 0.5561 0.0
C476 C 0.02687 0.89175 0.56222 0.0
C477 C 0.05196 0.89184 0.56753 0.0
C478 C 0.94772 0.91075 0.56742 0.0
C479 C 0.93692 0.95391 0.53626 0.0
C480 C 0.97276 0.90808 0.57343 0.0
C481 C 0.98756 0.94843 0.54833 0.0
C482 C 0.97671 0.99015 0.51611 0.0
C483 C 0.95174 -0.00706 0.51024 0.0
H484 H 0.94002 0.35726 1.00997 0.0
H485 H 0.94236 0.5513 0.05159 0.0
H486 H 0.98392 0.35134 1.01975 0.0
H487 H 0.98601 0.54528 0.06155 0.0
H488 H 0.05934 0.48833 0.12534 0.0
H489 H 0.01567 0.48668 0.11675 0.0
H490 H 0.02065 0.40249 0.98055 0.0
H491 H 0.06438 0.40632 0.98794 0.0
C492 C 0.94992 0.39851 1.02122 0.0
C493 C 0.93783 0.45481 1.02985 0.0
C494 C 0.97498 0.39519 1.02663 0.0
C495 C 0.9883 0.44777 0.04164 0.0
C496 C 0.97616 0.50389 0.05038 0.0
C497 C 0.95123 0.50748 0.04425 0.0
C498 C 0.05124 0.46988 0.09333 0.0
C499 C 0.06556 0.44814 0.05713 0.0
C500 C 0.02619 0.46867 0.08859 0.0
C501 C 0.01482 0.44482 0.04788 0.0
C502 C 0.02897 0.42072 1.01245 0.0
C503 C 0.05406 0.42272 1.01688 0.0
H504 H 0.25498 0.47055 0.04564 0.0
H505 H 0.21154 0.31195 1.00239 0.0
H506 H 0.2913 0.40828 0.03764 0.0
H507 H 0.24797 0.24978 0.99419 0.0
H508 H 0.3385 0.23174 0.08868 0.0
H509 H 0.30816 0.31403 0.08238 0.0
H510 H 0.28556 0.24498 0.94624 0.0
H511 H 0.31591 0.16308 0.95236 0.0
C512 C 0.25319 0.42256 0.03391 0.0
C513 C 0.2304 0.39593 1.02475 0.0
C514 C 0.274 0.38703 1.02947 0.0
C515 C 0.27245 0.32445 1.01515 0.0
C516 C 0.24969 0.2983 1.00468 0.0
C517 C 0.22884 0.33365 1.00965 0.0
C518 C 0.32782 0.23594 0.05654 0.0
C519 C 0.32937 0.19073 1.02121 0.0
C520 C 0.31031 0.28274 0.05306 0.0
C521 C 0.29419 0.28479 1.01425 0.0
C522 C 0.29745 0.24356 0.97691 0.0
C523 C 0.31495 0.19712 0.98028 0.0
H524 H 0.83808 0.73449 0.08378 0.0
H525 H 0.81478 0.65806 0.95021 0.0
H526 H 0.8079 0.81688 0.07515 0.0
H527 H 0.78457 0.74001 0.94181 0.0
H528 H 0.75461 0.97098 0.03577 0.0
H529 H 0.79086 0.90852 1.02772 0.0
H530 H 0.74726 0.74796 0.99032 0.0
H531 H 0.71088 0.81032 0.99861 0.0
C532 C 0.82726 0.73689 0.05171 0.0
C533 C 0.82854 0.68952 1.01794 0.0
C534 C 0.80986 0.78378 0.04689 0.0
C535 C 0.79357 0.78377 1.00827 0.0
C536 C 0.79659 0.74025 0.97232 0.0
C537 C 0.814 0.69372 0.97701 0.0
C538 C 0.75274 0.92251 1.02526 0.0
C539 C 0.72989 0.89533 1.018 0.0
C540 C 0.77351 0.88688 1.02079 0.0
C541 C 0.77186 0.82361 1.00833 0.0
C542 C 0.74905 0.79697 0.99939 0.0
C543 C 0.72823 0.83245 1.00439 0.0
H544 H 0.16435 0.73446 1.00001 0.0
H545 H 0.1895 0.65937 0.13262 0.0
H546 H 0.1947 0.81687 1.00663 0.0
H547 H 0.21966 0.74164 0.13932 0.0
H548 H 0.24871 0.97165 0.04305 0.0
H549 H 0.21255 0.9087 0.05134 0.0
H550 H 0.25642 0.74969 0.09072 0.0
H551 H 0.29265 0.81259 0.08237 0.0
C552 C 0.17576 0.73682 1.03129 0.0
C553 C 0.17506 0.68945 0.0651 0.0
C554 C 0.19319 0.78392 0.03506 0.0
C555 C 0.20997 0.78439 0.07288 0.0
C556 C 0.20736 0.7413 0.10922 0.0
C557 C 0.18999 0.69448 0.10547 0.0
C558 C 0.25065 0.92339 0.05396 0.0
C559 C 0.27354 0.89688 0.06195 0.0
C560 C 0.22992 0.88744 0.05855 0.0
C561 C 0.23165 0.82449 0.0718 0.0
C562 C 0.25453 0.79845 0.08109 0.0
C563 C 0.27528 0.83424 0.07603 0.0
H564 H 0.66622 0.23127 0.99786 0.0
H565 H 0.68898 0.15779 0.13251 0.0
H566 H 0.69637 0.31398 1.00611 0.0
H567 H 0.7192 0.23995 0.14049 0.0
H568 H 0.74887 0.47047 0.04574 0.0
H569 H 0.71282 0.40683 0.05296 0.0
H570 H 0.75683 0.24844 0.09309 0.0
H571 H 0.79301 0.312 0.08565 0.0
C572 C 0.67694 0.23431 1.03002 0.0
C573 C 0.67548 0.18769 0.06427 0.0
C574 C 0.69433 0.2814 0.03463 0.0
C575 C 0.71045 0.28234 0.07349 0.0
C576 C 0.70732 0.23944 0.10977 0.0
C577 C 0.68992 0.19275 0.1053 0.0
C578 C 0.75087 0.42224 0.05666 0.0
C579 C 0.77379 0.39604 0.06498 0.0
C580 C 0.73021 0.3859 0.06063 0.0
C581 C 0.73203 0.32288 0.07363 0.0
C582 C 0.7549 0.29722 0.08357 0.0
C583 C 0.77561 0.33341 0.07906 0.0
H584 H 0.25024 0.95029 0.50193 0.0
H585 H 0.2016 0.79629 0.47356 0.0
H586 H 0.28419 0.88405 0.48336 0.0
H587 H 0.23578 0.73011 0.45449 0.0
H588 H 0.32826 0.7034 0.53625 0.0
H589 H 0.29904 0.78829 0.53157 0.0
H590 H 0.27221 0.71814 0.39845 0.0
H591 H 0.30196 0.63371 0.40269 0.0
C592 C 0.24673 0.90261 0.49088 0.0
C593 C 0.22326 0.87816 0.48976 0.0
C594 C 0.2662 0.86486 0.48021 0.0
C595 C 0.26257 0.80214 0.46759 0.0
C596 C 0.239 0.77861 0.46367 0.0
C597 C 0.21949 0.81627 0.4749 0.0
C598 C 0.31681 0.7078 0.5051 0.0
C599 C 0.31741 0.66256 0.4697 0.0
C600 C 0.30005 0.75616 0.50244 0.0
C601 C 0.28329 0.75927 0.46481 0.0
C602 C 0.28493 0.71647 0.42785 0.0
C603 C 0.3021 0.66877 0.43003 0.0
H604 H 0.75094 0.45016 0.50485 0.0
H605 H 0.70244 0.29684 0.47332 0.0
H606 H 0.78504 0.38402 0.48703 0.0
H607 H 0.73678 0.23077 0.455 0.0
H608 H 0.82862 0.20226 0.53926 0.0
H609 H 0.79947 0.28729 0.53462 0.0
H610 H 0.77368 0.21979 0.40002 0.0
H611 H 0.80337 0.13523 0.40425 0.0
C612 C 0.7475 0.40265 0.4933 0.0
C613 C 0.72402 0.37836 0.49102 0.0
C614 C 0.76706 0.36496 0.48305 0.0
C615 C 0.76351 0.30248 0.46971 0.0
C616 C 0.73995 0.27911 0.46475 0.0
C617 C 0.72034 0.31669 0.47556 0.0
C618 C 0.81743 0.2073 0.50783 0.0
C619 C 0.8183 0.16275 0.47198 0.0
C620 C 0.80071 0.25574 0.5052 0.0
C621 C 0.78423 0.25961 0.46712 0.0
C622 C 0.78617 0.21753 0.42977 0.0
C623 C 0.80331 0.16976 0.43194 0.0
H624 H 0.16633 0.22653 0.51085 0.0
H625 H 0.19641 0.12825 0.63075 0.0
H626 H 0.19636 0.30883 0.52246 0.0
H627 H 0.22633 0.21042 0.64232 0.0
H628 H 0.29618 0.30195 0.58538 0.0
H629 H 0.26132 0.23383 0.59296 0.0
H630 H 0.21412 0.39256 0.57406 0.0
H631 H 0.24889 0.46061 0.56637 0.0
C632 C 0.17874 0.22367 0.54068 0.0
C633 C 0.1792 0.17067 0.56954 0.0
C634 C 0.19603 0.27067 0.54725 0.0
C635 C 0.21397 0.26531 0.58279 0.0
C636 C 0.21302 0.21508 0.6141 0.0
C637 C 0.19578 0.16832 0.60762 0.0
C638 C 0.27839 0.3224 0.58367 0.0
C639 C 0.27529 0.38646 0.57501 0.0
C640 C 0.25842 0.28352 0.58822 0.0
C641 C 0.23498 0.30796 0.58394 0.0
C642 C 0.23194 0.37241 0.57709 0.0
C643 C 0.25189 0.41131 0.57288 0.0
H644 H 0.66565 0.72636 0.50966 0.0
H645 H 0.69527 0.62932 0.6305 0.0
H646 H 0.69573 0.80862 0.52109 0.0
H647 H 0.72527 0.71137 0.64185 0.0
H648 H 0.79547 0.80079 0.58477 0.0
H649 H 0.7604 0.73335 0.59236 0.0
H650 H 0.71365 0.89271 0.5722 0.0
H651 H 0.74861 0.96007 0.5645 0.0
C652 C 0.67796 0.72381 0.53966 0.0
C653 C 0.67832 0.6711 0.56881 0.0
C654 C 0.69528 0.77076 0.54612 0.0
C655 C 0.71315 0.76561 0.58181 0.0
C656 C 0.71203 0.71582 0.61348 0.0
C657 C 0.69475 0.66913 0.60713 0.0
C658 C 0.77773 0.82152 0.58273 0.0
C659 C 0.77481 0.88555 0.57377 0.0
C660 C 0.75764 0.78304 0.58731 0.0
C661 C 0.73427 0.80786 0.58275 0.0
C662 C 0.73141 0.87228 0.57547 0.0
C663 C 0.75147 0.91077 0.57124 0.0
loop_
_geom_bond_atom_site_label_1
_geom_bond_atom_site_label_2
_geom_bond_distance
_geom_bond_site_symmetry_2
_ccdc_geom_bond_type
Co0 N4 2.148 1_554 S
Co0 N10 2.128 1_565 S
Co0 N20 2.197 . S
Co0 O25 2.351 . S
Co0 O26 2.155 . S
Co0 O27 2.096 1_564 S
C1 N4 1.301 . S
C1 N5 1.328 . S
C1 H6 0.930 . S
C2 C3 1.333 1_545 S
C2 N4 1.317 1_545 S
C2 H7 0.930 . S
C3 C2 1.333 1_565 S
C3 N5 1.350 . S
C3 H29 0.931 . S
N4 Co0 2.148 1_556 S
N4 C1 1.301 . S
N4 C2 1.317 1_565 S
N5 C1 1.328 . S
N5 C3 1.350 . S
H6 C1 0.930 . S
H7 C2 0.930 . S
C8 O9 1.224 . S
C8 O27 1.247 . S
O9 C8 1.224 . S
N10 Co0 2.128 1_545 S
N10 C11 1.355 . S
N10 C13 1.311 . S
C11 N10 1.355 . S
C11 C12 1.363 . S
C11 H23 0.929 1_545 S
C12 C11 1.363 . S
C12 N14 1.375 . S
C12 H30 0.931 . S
C13 N10 1.311 . S
C13 N14 1.347 . S
C13 H24 0.929 . S
N14 C12 1.375 . S
N14 C13 1.347 . S
C15 C18 1.365 . S
C15 N20 1.331 . S
C15 H21 0.929 . S
C16 C17 1.362 1_556 S
C16 C19 1.378 . S
C16 H31 0.929 . S
C17 C16 1.362 1_554 S
C17 C18 1.366 1_545 S
C18 C15 1.365 . S
C18 C17 1.366 1_565 S
C18 H32 0.930 . S
C19 C16 1.378 . S
C19 N20 1.311 1_546 S
C19 H22 0.930 . S
N20 Co0 2.197 . S
N20 C15 1.331 . S
N20 C19 1.311 1_564 S
H21 C15 0.929 . S
H22 C19 0.930 . S
H23 C11 0.929 1_565 S
H24 C13 0.929 . S
O25 Co0 2.351 . S
O25 C28 1.244 . S
O26 Co0 2.155 . S
O26 C28 1.240 . S
O27 Co0 2.096 1_546 S
O27 C8 1.247 . S
C28 O25 1.244 . S
C28 O26 1.240 . S
H29 C3 0.931 . S
H30 C12 0.931 . S
H31 C16 0.929 . S
H32 C18 0.930 . S
Co33 N37 2.148 . S
Co33 N43 2.128 1_564 S
Co33 N53 2.194 . S
Co33 O58 2.351 1_554 S
Co33 O59 2.155 1_554 S
Co33 O60 2.096 1_565 S
C34 N37 1.301 . S
C34 N38 1.328 . S
C34 H39 0.930 . S
C35 C36 1.333 1_545 S
C35 N37 1.317 1_545 S
C35 H40 0.930 . S
C36 C35 1.333 1_565 S
C36 N38 1.350 . S
C36 H62 0.931 . S
N37 Co33 2.148 . S
N37 C34 1.301 . S
N37 C35 1.317 1_565 S
N38 C34 1.328 . S
N38 C36 1.350 . S
H39 C34 0.930 . S
H40 C35 0.930 . S
C41 O42 1.224 . S
C41 O60 1.247 . S
O42 C41 1.224 . S
N43 Co33 2.128 1_546 S
N43 C44 1.355 . S
N43 C46 1.311 . S
C44 N43 1.355 . S
C44 C45 1.363 . S
C44 H56 0.929 1_545 S
C45 C44 1.363 . S
C45 N47 1.375 . S
C45 H63 0.931 . S
C46 N43 1.311 . S
C46 N47 1.347 . S
C46 H57 0.929 . S
N47 C45 1.375 . S
N47 C46 1.347 . S
C48 C51 1.365 . S
C48 N53 1.328 . S
C48 H54 0.929 . S
C49 C50 1.362 . S
C49 C52 1.378 . S
C49 H64 0.929 . S
C50 C49 1.362 . S
C50 C51 1.366 1_545 S
C51 C48 1.365 . S
C51 C50 1.366 1_565 S
C51 H65 0.930 . S
C52 C49 1.378 . S
C52 N53 1.315 1_545 S
C52 H55 0.930 . S
N53 Co33 2.194 . S
N53 C48 1.328 . S
N53 C52 1.315 1_565 S
H54 C48 0.929 . S
H55 C52 0.930 . S
H56 C44 0.929 1_565 S
H57 C46 0.929 . S
O58 Co33 2.351 1_556 S
O58 C61 1.244 . S
O59 Co33 2.155 1_556 S
O59 C61 1.240 . S
O60 Co33 2.096 1_545 S
O60 C41 1.247 . S
C61 O58 1.244 . S
C61 O59 1.240 . S
H62 C36 0.931 . S
H63 C45 0.931 . S
H64 C49 0.929 . S
H65 C51 0.930 . S
Co66 N70 2.148 . S
Co66 N76 2.128 . S
Co66 N86 2.194 . S
Co66 O91 2.351 . S
Co66 O92 2.155 . S
Co66 O93 2.096 . S
C67 N70 1.301 . S
C67 N71 1.328 . S
C67 H72 0.930 . S
C68 C69 1.333 . S
C68 N70 1.317 . S
C68 H73 0.930 . S
C69 C68 1.333 . S
C69 N71 1.350 . S
C69 H95 0.931 . S
N70 Co66 2.148 . S
N70 C67 1.301 . S
N70 C68 1.317 . S
N71 C67 1.328 . S
N71 C69 1.350 . S
H72 C67 0.930 . S
H73 C68 0.930 . S
C74 O75 1.224 . S
C74 O93 1.247 . S
O75 C74 1.224 . S
N76 Co66 2.128 . S
N76 C77 1.355 . S
N76 C79 1.311 . S
C77 N76 1.355 . S
C77 C78 1.363 . S
C77 H89 0.929 . S
C78 C77 1.363 . S
C78 N80 1.375 . S
C78 H96 0.931 . S
C79 N76 1.311 . S
C79 N80 1.347 . S
C79 H90 0.929 . S
N80 C78 1.375 . S
N80 C79 1.347 . S
C81 C84 1.365 . S
C81 N86 1.328 . S
C81 H87 0.929 . S
C82 C83 1.362 . S
C82 C85 1.378 . S
C82 H97 0.929 . S
C83 C82 1.362 . S
C83 C84 1.366 . S
C84 C81 1.365 . S
C84 C83 1.366 . S
C84 H98 0.930 . S
C85 C82 1.378 . S
C85 N86 1.315 . S
C85 H88 0.930 . S
N86 Co66 2.194 . S
N86 C81 1.328 . S
N86 C85 1.315 . S
H87 C81 0.929 . S
H88 C85 0.930 . S
H89 C77 0.929 . S
H90 C79 0.929 . S
O91 Co66 2.351 . S
O91 C94 1.244 . S
O92 Co66 2.155 . S
O92 C94 1.240 . S
O93 Co66 2.096 . S
O93 C74 1.247 . S
C94 O91 1.244 . S
C94 O92 1.240 . S
H95 C69 0.931 . S
H96 C78 0.931 . S
H97 C82 0.929 . S
H98 C84 0.930 . S
Co99 N103 2.148 . S
Co99 N109 2.128 . S
Co99 N119 2.194 . S
Co99 O124 2.351 . S
Co99 O125 2.155 . S
Co99 O126 2.096 . S
C100 N103 1.301 . S
C100 N104 1.328 . S
C100 H105 0.930 . S
C101 C102 1.333 . S
C101 N103 1.317 . S
C101 H106 0.930 . S
C102 C101 1.333 . S
C102 N104 1.350 . S
C102 H128 0.931 . S
N103 Co99 2.148 . S
N103 C100 1.301 . S
N103 C101 1.317 . S
N104 C100 1.328 . S
N104 C102 1.350 . S
H105 C100 0.930 . S
H106 C101 0.930 . S
C107 O108 1.224 . S
C107 O126 1.247 . S
O108 C107 1.224 . S
N109 Co99 2.128 . S
N109 C110 1.355 . S
N109 C112 1.311 . S
C110 N109 1.355 . S
C110 C111 1.363 . S
C110 H122 0.929 . S
C111 C110 1.363 . S
C111 N113 1.375 . S
C111 H129 0.931 . S
C112 N109 1.311 . S
C112 N113 1.347 . S
C112 H123 0.929 . S
N113 C111 1.375 . S
N113 C112 1.347 . S
C114 C117 1.365 . S
C114 N119 1.328 . S
C114 H120 0.929 . S
C115 C116 1.362 . S
C115 C118 1.378 . S
C115 H130 0.929 . S
C116 C115 1.362 . S
C116 C117 1.366 . S
C117 C114 1.365 . S
C117 C116 1.366 . S
C117 H131 0.930 . S
C118 C115 1.378 . S
C118 N119 1.315 . S
C118 H121 0.930 . S
N119 Co99 2.194 . S
N119 C114 1.328 . S
N119 C118 1.315 . S
H120 C114 0.929 . S
H121 C118 0.930 . S
H122 C110 0.929 . S
H123 C112 0.929 . S
O124 Co99 2.351 . S
O124 C127 1.244 . S
O125 Co99 2.155 . S
O125 C127 1.240 . S
O126 Co99 2.096 . S
O126 C107 1.247 . S
C127 O124 1.244 . S
C127 O125 1.240 . S
H128 C102 0.931 . S
H129 C111 0.931 . S
H130 C115 0.929 . S
H131 C117 0.930 . S
Co132 N136 2.148 . S
Co132 N142 2.128 1_565 S
Co132 N152 2.194 . S
Co132 O157 2.351 . S
Co132 O158 2.155 . S
Co132 O159 2.096 1_565 S
C133 N136 1.301 . S
C133 N137 1.328 . S
C133 H138 0.930 . S
C134 C135 1.333 1_545 S
C134 N136 1.317 1_545 S
C134 H139 0.930 . S
C135 C134 1.333 1_565 S
C135 N137 1.350 . S
C135 H161 0.931 . S
N136 Co132 2.148 . S
N136 C133 1.301 . S
N136 C134 1.317 1_565 S
N137 C133 1.328 . S
N137 C135 1.350 . S
H138 C133 0.930 . S
H139 C134 0.930 . S
C140 O141 1.224 . S
C140 O159 1.247 . S
O141 C140 1.224 . S
N142 Co132 2.128 1_545 S
N142 C143 1.355 . S
N142 C145 1.311 . S
C143 N142 1.355 . S
C143 C144 1.363 . S
C143 H155 0.929 1_545 S
C144 C143 1.363 . S
C144 N146 1.375 . S
C144 H162 0.931 . S
C145 N142 1.311 . S
C145 N146 1.347 . S
C145 H156 0.929 . S
N146 C144 1.375 . S
N146 C145 1.347 . S
C147 C150 1.365 . S
C147 N152 1.328 . S
C147 H153 0.929 . S
C148 C149 1.362 . S
C148 C151 1.378 . S
C148 H163 0.929 . S
C149 C148 1.362 . S
C149 C150 1.366 1_545 S
C150 C147 1.365 . S
C150 C149 1.366 1_565 S
C150 H164 0.930 . S
C151 C148 1.378 . S
C151 N152 1.315 1_545 S
C151 H154 0.930 . S
N152 Co132 2.194 . S
N152 C147 1.328 . S
N152 C151 1.315 1_565 S
H153 C147 0.929 . S
H154 C151 0.930 . S
H155 C143 0.929 1_565 S
H156 C145 0.929 . S
O157 Co132 2.351 . S
O157 C160 1.244 . S
O158 Co132 2.155 . S
O158 C160 1.240 . S
O159 Co132 2.096 1_545 S
O159 C140 1.247 . S
C160 O157 1.244 . S
C160 O158 1.240 . S
H161 C135 0.931 . S
H162 C144 0.931 . S
H163 C148 0.929 . S
H164 C150 0.930 . S
Co165 N169 2.148 . S
Co165 N175 2.128 1_565 S
Co165 N185 2.194 . S
Co165 O190 2.351 . S
Co165 O191 2.155 . S
Co165 O192 2.096 1_565 S
C166 N169 1.301 . S
C166 N170 1.328 . S
C166 H171 0.930 . S
C167 C168 1.333 1_545 S
C167 N169 1.317 1_545 S
C167 H172 0.930 . S
C168 C167 1.333 1_565 S
C168 N170 1.350 . S
C168 H194 0.931 . S
N169 Co165 2.148 . S
N169 C166 1.301 . S
N169 C167 1.317 1_565 S
N170 C166 1.328 . S
N170 C168 1.350 . S
H171 C166 0.930 . S
H172 C167 0.930 . S
C173 O174 1.224 . S
C173 O192 1.247 . S
O174 C173 1.224 . S
N175 Co165 2.128 1_545 S
N175 C176 1.355 . S
N175 C178 1.311 . S
C176 N175 1.355 . S
C176 C177 1.363 . S
C176 H188 0.929 1_545 S
C177 C176 1.363 . S
C177 N179 1.375 . S
C177 H195 0.931 . S
C178 N175 1.311 . S
C178 N179 1.347 . S
C178 H189 0.929 . S
N179 C177 1.375 . S
N179 C178 1.347 . S
C180 C183 1.365 . S
C180 N185 1.328 . S
C180 H186 0.929 . S
C181 C182 1.362 . S
C181 C184 1.378 . S
C181 H196 0.929 . S
C182 C181 1.362 . S
C182 C183 1.366 1_545 S
C183 C180 1.365 . S
C183 C182 1.366 1_565 S
C183 H197 0.930 . S
C184 C181 1.378 . S
C184 N185 1.315 1_545 S
C184 H187 0.930 . S
N185 Co165 2.194 . S
N185 C180 1.328 . S
N185 C184 1.315 1_565 S
H186 C180 0.929 . S
H187 C184 0.930 . S
H188 C176 0.929 1_565 S
H189 C178 0.929 . S
O190 Co165 2.351 . S
O190 C193 1.244 . S
O191 Co165 2.155 . S
O191 C193 1.240 . S
O192 Co165 2.096 1_545 S
O192 C173 1.247 . S
C193 O190 1.244 . S
C193 O191 1.240 . S
H194 C168 0.931 . S
H195 C177 0.931 . S
H196 C181 0.929 . S
H197 C183 0.930 . S
Co198 N202 2.148 1_554 S
Co198 N208 2.128 . S
Co198 N218 2.197 . S
Co198 O223 2.351 . S
Co198 O224 2.155 . S
Co198 O225 2.096 1_554 S
C199 N202 1.301 . S
C199 N203 1.328 . S
C199 H204 0.930 . S
C200 C201 1.333 . S
C200 N202 1.317 . S
C200 H205 0.930 . S
C201 C200 1.333 . S
C201 N203 1.350 . S
C201 H227 0.931 . S
N202 Co198 2.148 1_556 S
N202 C199 1.301 . S
N202 C200 1.317 . S
N203 C199 1.328 . S
N203 C201 1.350 . S
H204 C199 0.930 . S
H205 C200 0.930 . S
C206 O207 1.224 . S
C206 O225 1.247 . S
O207 C206 1.224 . S
N208 Co198 2.128 . S
N208 C209 1.355 . S
N208 C211 1.311 . S
C209 N208 1.355 . S
C209 C210 1.363 . S
C209 H221 0.929 . S
C210 C209 1.363 . S
C210 N212 1.375 . S
C210 H228 0.931 . S
C211 N208 1.311 . S
C211 N212 1.347 . S
C211 H222 0.929 . S
N212 C210 1.375 . S
N212 C211 1.347 . S
C213 C216 1.365 . S
C213 N218 1.331 . S
C213 H219 0.929 . S
C214 C215 1.362 1_556 S
C214 C217 1.378 . S
C214 H229 0.929 . S
C215 C214 1.362 1_554 S
C215 C216 1.366 . S
C216 C213 1.365 . S
C216 C215 1.366 . S
C216 H230 0.930 . S
C217 C214 1.378 . S
C217 N218 1.311 1_556 S
C217 H220 0.930 . S
N218 Co198 2.197 . S
N218 C213 1.331 . S
N218 C217 1.311 1_554 S
H219 C213 0.929 . S
H220 C217 0.930 . S
H221 C209 0.929 . S
H222 C211 0.929 . S
O223 Co198 2.351 . S
O223 C226 1.244 . S
O224 Co198 2.155 . S
O224 C226 1.240 . S
O225 Co198 2.096 1_556 S
O225 C206 1.247 . S
C226 O223 1.244 . S
C226 O224 1.240 . S
H227 C201 0.931 . S
H228 C210 0.931 . S
H229 C214 0.929 . S
H230 C216 0.930 . S
Co231 N235 2.148 . S
Co231 N241 2.128 1_554 S
Co231 N251 2.194 . S
Co231 O256 2.351 1_554 S
Co231 O257 2.155 1_554 S
Co231 O258 2.096 . S
C232 N235 1.301 . S
C232 N236 1.328 . S
C232 H237 0.930 . S
C233 C234 1.333 . S
C233 N235 1.317 . S
C233 H238 0.930 . S
C234 C233 1.333 . S
C234 N236 1.350 . S
C234 H260 0.931 . S
N235 Co231 2.148 . S
N235 C232 1.301 . S
N235 C233 1.317 . S
N236 C232 1.328 . S
N236 C234 1.350 . S
H237 C232 0.930 . S
H238 C233 0.930 . S
C239 O240 1.224 . S
C239 O258 1.247 . S
O240 C239 1.224 . S
N241 Co231 2.128 1_556 S
N241 C242 1.355 . S
N241 C244 1.311 . S
C242 N241 1.355 . S
C242 C243 1.363 . S
C242 H254 0.929 . S
C243 C242 1.363 . S
C243 N245 1.375 . S
C243 H261 0.931 . S
C244 N241 1.311 . S
C244 N245 1.347 . S
C244 H255 0.929 . S
N245 C243 1.375 . S
N245 C244 1.347 . S
C246 C249 1.365 . S
C246 N251 1.328 . S
C246 H252 0.929 . S
C247 C248 1.362 . S
C247 C250 1.378 . S
C247 H262 0.929 . S
C248 C247 1.362 . S
C248 C249 1.366 . S
C249 C246 1.365 . S
C249 C248 1.366 . S
C249 H263 0.930 . S
C250 C247 1.378 . S
C250 N251 1.315 . S
C250 H253 0.930 . S
N251 Co231 2.194 . S
N251 C246 1.328 . S
N251 C250 1.315 . S
H252 C246 0.929 . S
H253 C250 0.930 . S
H254 C242 0.929 . S
H255 C244 0.929 . S
O256 Co231 2.351 1_556 S
O256 C259 1.244 . S
O257 Co231 2.155 1_556 S
O257 C259 1.240 . S
O258 Co231 2.096 . S
O258 C239 1.247 . S
C259 O256 1.244 . S
C259 O257 1.240 . S
H260 C234 0.931 . S
H261 C243 0.931 . S
H262 C247 0.929 . S
H263 C249 0.930 . S
H264 C272 0.950 . S
H265 C277 0.950 . S
H266 C274 0.950 . S
H267 C276 0.950 . S
H268 C278 0.950 . S
H269 C280 0.950 . S
H270 C282 0.950 . S
H271 C283 0.950 . S
C272 H264 0.950 . S
C272 C273 1.386 . S
C272 C274 1.391 . S
C273 C272 1.386 . S
C273 C277 1.393 . S
C274 H266 0.950 . S
C274 C272 1.391 . S
C274 C275 1.400 . S
C275 C274 1.400 . S
C275 C276 1.398 . S
C275 C281 1.491 . S
C276 H267 0.950 . S
C276 C275 1.398 . S
C276 C277 1.391 . S
C277 H265 0.950 . S
C277 C273 1.393 . S
C277 C276 1.391 . S
C278 H268 0.950 . S
C278 C279 1.386 . S
C278 C280 1.391 . S
C279 C278 1.386 . S
C279 C283 1.393 . S
C280 H269 0.950 . S
C280 C278 1.391 . S
C280 C281 1.400 . S
C281 C275 1.491 . S
C281 C280 1.400 . S
C281 C282 1.398 . S
C282 H270 0.950 . S
C282 C281 1.398 . S
C282 C283 1.391 . S
C283 H271 0.950 . S
C283 C279 1.393 . S
C283 C282 1.391 . S
H284 C292 0.950 . S
H285 C297 0.950 . S
H286 C294 0.950 . S
H287 C296 0.950 . S
H288 C298 0.950 . S
H289 C300 0.950 . S
H290 C302 0.950 . S
H291 C303 0.950 . S
C292 H284 0.950 . S
C292 C293 1.386 . S
C292 C294 1.391 . S
C293 C292 1.386 . S
C293 C297 1.393 . S
C294 H286 0.950 . S
C294 C292 1.391 . S
C294 C295 1.400 . S
C295 C294 1.400 . S
C295 C296 1.398 . S
C295 C301 1.491 . S
C296 H287 0.950 . S
C296 C295 1.398 . S
C296 C297 1.391 . S
C297 H285 0.950 . S
C297 C293 1.393 . S
C297 C296 1.391 . S
C298 H288 0.950 . S
C298 C299 1.386 . S
C298 C300 1.391 . S
C299 C298 1.386 . S
C299 C303 1.393 . S
C300 H289 0.950 . S
C300 C298 1.391 . S
C300 C301 1.400 . S
C301 C295 1.491 . S
C301 C300 1.400 . S
C301 C302 1.398 . S
C302 H290 0.950 . S
C302 C301 1.398 . S
C302 C303 1.391 . S
C303 H291 0.950 . S
C303 C299 1.393 . S
C303 C302 1.391 . S
H304 C312 0.950 . S
H305 C317 0.950 . S
H306 C314 0.950 . S
H307 C316 0.950 . S
H308 C318 0.950 . S
H309 C320 0.950 . S
H310 C322 0.950 . S
H311 C323 0.950 . S
C312 H304 0.950 . S
C312 C313 1.386 . S
C312 C314 1.391 . S
C313 C312 1.386 . S
C313 C317 1.393 . S
C314 H306 0.950 . S
C314 C312 1.391 . S
C314 C315 1.400 . S
C315 C314 1.400 . S
C315 C316 1.398 . S
C315 C321 1.491 . S
C316 H307 0.950 . S
C316 C315 1.398 . S
C316 C317 1.391 . S
C317 H305 0.950 . S
C317 C313 1.393 . S
C317 C316 1.391 . S
C318 H308 0.950 . S
C318 C319 1.386 . S
C318 C320 1.391 . S
C319 C318 1.386 . S
C319 C323 1.393 . S
C320 H309 0.950 . S
C320 C318 1.391 . S
C320 C321 1.400 . S
C321 C315 1.491 . S
C321 C320 1.400 . S
C321 C322 1.398 . S
C322 H310 0.950 . S
C322 C321 1.398 . S
C322 C323 1.391 . S
C323 H311 0.950 . S
C323 C319 1.393 . S
C323 C322 1.391 . S
H324 C332 0.950 . S
H325 C337 0.950 . S
H326 C334 0.950 . S
H327 C336 0.950 . S
H328 C338 0.950 . S
H329 C340 0.950 . S
H330 C342 0.950 . S
H331 C343 0.950 . S
C332 H324 0.950 . S
C332 C333 1.386 . S
C332 C334 1.391 . S
C333 C332 1.386 . S
C333 C337 1.393 . S
C334 H326 0.950 . S
C334 C332 1.391 . S
C334 C335 1.400 . S
C335 C334 1.400 . S
C335 C336 1.398 . S
C335 C341 1.491 . S
C336 H327 0.950 . S
C336 C335 1.398 . S
C336 C337 1.391 . S
C337 H325 0.950 . S
C337 C333 1.393 . S
C337 C336 1.391 . S
C338 H328 0.950 . S
C338 C339 1.386 . S
C338 C340 1.391 . S
C339 C338 1.386 . S
C339 C343 1.393 . S
C340 H329 0.950 . S
C340 C338 1.391 . S
C340 C341 1.400 . S
C341 C335 1.491 . S
C341 C340 1.400 . S
C341 C342 1.398 . S
C342 H330 0.950 . S
C342 C341 1.398 . S
C342 C343 1.391 . S
C343 H331 0.950 . S
C343 C339 1.393 . S
C343 C342 1.391 . S
H344 C352 0.950 . S
H345 C357 0.950 . S
H346 C354 0.950 . S
H347 C356 0.950 . S
H348 C358 0.950 . S
H349 C360 0.950 . S
H350 C362 0.950 . S
H351 C363 0.950 . S
C352 H344 0.950 . S
C352 C353 1.386 . S
C352 C354 1.391 . S
C353 C352 1.386 . S
C353 C357 1.393 . S
C354 H346 0.950 . S
C354 C352 1.391 . S
C354 C355 1.400 . S
C355 C354 1.400 . S
C355 C356 1.398 . S
C355 C361 1.491 . S
C356 H347 0.950 . S
C356 C355 1.398 . S
C356 C357 1.391 . S
C357 H345 0.950 . S
C357 C353 1.393 . S
C357 C356 1.391 . S
C358 H348 0.950 . S
C358 C359 1.386 . S
C358 C360 1.391 . S
C359 C358 1.386 . S
C359 C363 1.393 . S
C360 H349 0.950 . S
C360 C358 1.391 . S
C360 C361 1.400 . S
C361 C355 1.491 . S
C361 C360 1.400 . S
C361 C362 1.398 . S
C362 H350 0.950 . S
C362 C361 1.398 . S
C362 C363 1.391 . S
C363 H351 0.950 . S
C363 C359 1.393 . S
C363 C362 1.391 . S
H364 C372 0.950 . S
H365 C377 0.950 . S
H366 C374 0.950 . S
H367 C376 0.950 . S
H368 C378 0.950 . S
H369 C380 0.950 . S
H370 C382 0.950 . S
H371 C383 0.950 . S
C372 H364 0.950 . S
C372 C373 1.386 . S
C372 C374 1.391 . S
C373 C372 1.386 . S
C373 C377 1.393 . S
C374 H366 0.950 . S
C374 C372 1.391 . S
C374 C375 1.400 . S
C375 C374 1.400 . S
C375 C376 1.398 . S
C375 C381 1.491 . S
C376 H367 0.950 . S
C376 C375 1.398 . S
C376 C377 1.391 . S
C377 H365 0.950 . S
C377 C373 1.393 . S
C377 C376 1.391 . S
C378 H368 0.950 . S
C378 C379 1.386 . S
C378 C380 1.391 . S
C379 C378 1.386 . S
C379 C383 1.393 . S
C380 H369 0.950 . S
C380 C378 1.391 . S
C380 C381 1.400 . S
C381 C375 1.491 . S
C381 C380 1.400 . S
C381 C382 1.398 . S
C382 H370 0.950 . S
C382 C381 1.398 . S
C382 C383 1.391 . S
C383 H371 0.950 . S
C383 C379 1.393 . S
C383 C382 1.391 . S
H384 C392 0.950 . S
H385 C397 0.950 . S
H386 C394 0.950 . S
H387 C396 0.950 . S
H388 C398 0.950 . S
H389 C400 0.950 . S
H390 C402 0.950 . S
H391 C403 0.950 . S
C392 H384 0.950 . S
C392 C393 1.386 . S
C392 C394 1.391 . S
C393 C392 1.386 . S
C393 C397 1.393 . S
C394 H386 0.950 . S
C394 C392 1.391 . S
C394 C395 1.400 . S
C395 C394 1.400 . S
C395 C396 1.398 . S
C395 C401 1.491 . S
C396 H387 0.950 . S
C396 C395 1.398 . S
C396 C397 1.391 . S
C397 H385 0.950 . S
C397 C393 1.393 . S
C397 C396 1.391 . S
C398 H388 0.950 . S
C398 C399 1.386 . S
C398 C400 1.391 . S
C399 C398 1.386 . S
C399 C403 1.393 . S
C400 H389 0.950 . S
C400 C398 1.391 . S
C400 C401 1.400 . S
C401 C395 1.491 . S
C401 C400 1.400 . S
C401 C402 1.398 . S
C402 H390 0.950 . S
C402 C401 1.398 . S
C402 C403 1.391 . S
C403 H391 0.950 . S
C403 C399 1.393 . S
C403 C402 1.391 . S
H404 C412 0.950 . S
H405 C417 0.950 . S
H406 C414 0.950 . S
H407 C416 0.950 . S
H408 C418 0.950 . S
H409 C420 0.950 . S
H410 C422 0.950 . S
H411 C423 0.950 . S
C412 H404 0.950 . S
C412 C413 1.386 . S
C412 C414 1.391 . S
C413 C412 1.386 . S
C413 C417 1.393 . S
C414 H406 0.950 . S
C414 C412 1.391 . S
C414 C415 1.400 . S
C415 C414 1.400 . S
C415 C416 1.398 . S
C415 C421 1.491 . S
C416 H407 0.950 . S
C416 C415 1.398 . S
C416 C417 1.391 . S
C417 H405 0.950 . S
C417 C413 1.393 . S
C417 C416 1.391 . S
C418 H408 0.950 . S
C418 C419 1.386 . S
C418 C420 1.391 . S
C419 C418 1.386 . S
C419 C423 1.393 . S
C420 H409 0.950 . S
C420 C418 1.391 . S
C420 C421 1.400 . S
C421 C415 1.491 . S
C421 C420 1.400 . S
C421 C422 1.398 . S
C422 H410 0.950 . S
C422 C421 1.398 . S
C422 C423 1.391 . S
C423 H411 0.950 . S
C423 C419 1.393 . S
C423 C422 1.391 . S
H424 C432 0.950 . S
H425 C437 0.950 . S
H426 C434 0.950 . S
H427 C436 0.950 . S
H428 C438 0.950 . S
H429 C440 0.950 . S
H430 C442 0.950 . S
H431 C443 0.950 . S
C432 H424 0.950 . S
C432 C433 1.386 1_566 S
C432 C434 1.391 . S
C433 C432 1.386 1_544 S
C433 C437 1.393 . S
C434 H426 0.950 . S
C434 C432 1.391 . S
C434 C435 1.400 1_566 S
C435 C434 1.400 1_544 S
C435 C436 1.398 . S
C435 C441 1.491 . S
C436 H427 0.950 . S
C436 C435 1.398 . S
C436 C437 1.391 . S
C437 H425 0.950 . S
C437 C433 1.393 . S
C437 C436 1.391 . S
C438 H428 0.950 . S
C438 C439 1.386 . S
C438 C440 1.391 . S
C439 C438 1.386 . S
C439 C443 1.393 1_544 S
C440 H429 0.950 . S
C440 C438 1.391 . S
C440 C441 1.400 . S
C441 C435 1.491 . S
C441 C440 1.400 . S
C441 C442 1.398 1_544 S
C442 H430 0.950 . S
C442 C441 1.398 1_566 S
C442 C443 1.391 . S
C443 H431 0.950 . S
C443 C439 1.393 1_566 S
C443 C442 1.391 . S
H444 C452 0.950 . S
H445 C457 0.950 . S
H446 C454 0.950 . S
H447 C456 0.950 . S
H448 C458 0.950 . S
H449 C460 0.950 . S
H450 C462 0.950 . S
H451 C463 0.950 . S
C452 H444 0.950 . S
C452 C453 1.386 . S
C452 C454 1.391 . S
C453 C452 1.386 . S
C453 C457 1.393 . S
C454 H446 0.950 . S
C454 C452 1.391 . S
C454 C455 1.400 . S
C455 C454 1.400 . S
C455 C456 1.398 . S
C455 C461 1.491 . S
C456 H447 0.950 . S
C456 C455 1.398 . S
C456 C457 1.391 . S
C457 H445 0.950 . S
C457 C453 1.393 . S
C457 C456 1.391 . S
C458 H448 0.950 . S
C458 C459 1.386 . S
C458 C460 1.391 . S
C459 C458 1.386 . S
C459 C463 1.393 . S
C460 H449 0.950 . S
C460 C458 1.391 . S
C460 C461 1.400 . S
C461 C455 1.491 . S
C461 C460 1.400 . S
C461 C462 1.398 . S
C462 H450 0.950 . S
C462 C461 1.398 . S
C462 C463 1.391 . S
C463 H451 0.950 . S
C463 C459 1.393 . S
C463 C462 1.391 . S
H464 C472 0.950 . S
H465 C477 0.950 . S
H466 C474 0.950 . S
H467 C476 0.950 . S
H468 C478 0.950 . S
H469 C480 0.950 . S
H470 C482 0.950 . S
H471 C483 0.950 . S
C472 H464 0.950 . S
C472 C473 1.386 . S
C472 C474 1.391 . S
C473 C472 1.386 . S
C473 C477 1.393 1_545 S
C474 H466 0.950 . S
C474 C472 1.391 . S
C474 C475 1.400 . S
C475 C474 1.400 . S
C475 C476 1.398 1_545 S
C475 C481 1.491 1_455 S
C476 H467 0.950 . S
C476 C475 1.398 1_565 S
C476 C477 1.391 . S
C477 H465 0.950 . S
C477 C473 1.393 1_565 S
C477 C476 1.391 . S
C478 H468 0.950 . S
C478 C479 1.386 1_565 S
C478 C480 1.391 . S
C479 C478 1.386 1_545 S
C479 C483 1.393 . S
C480 H469 0.950 . S
C480 C478 1.391 . S
C480 C481 1.400 1_565 S
C481 C475 1.491 1_655 S
C481 C480 1.400 1_545 S
C481 C482 1.398 . S
C482 H470 0.950 . S
C482 C481 1.398 . S
C482 C483 1.391 . S
C483 H471 0.950 . S
C483 C479 1.393 . S
C483 C482 1.391 . S
H484 C492 0.950 . S
H485 C497 0.950 . S
H486 C494 0.950 . S
H487 C496 0.950 . S
H488 C498 0.950 . S
H489 C500 0.950 . S
H490 C502 0.950 . S
H491 C503 0.950 . S
C492 H484 0.950 . S
C492 C493 1.386 1_556 S
C492 C494 1.391 . S
C493 C492 1.386 1_554 S
C493 C497 1.393 . S
C494 H486 0.950 . S
C494 C492 1.391 . S
C494 C495 1.400 1_556 S
C495 C494 1.400 1_554 S
C495 C496 1.398 . S
C495 C501 1.491 1_655 S
C496 H487 0.950 . S
C496 C495 1.398 . S
C496 C497 1.391 . S
C497 H485 0.950 . S
C497 C493 1.393 . S
C497 C496 1.391 . S
C498 H488 0.950 . S
C498 C499 1.386 . S
C498 C500 1.391 . S
C499 C498 1.386 . S
C499 C503 1.393 1_554 S
C500 H489 0.950 . S
C500 C498 1.391 . S
C500 C501 1.400 . S
C501 C495 1.491 1_455 S
C501 C500 1.400 . S
C501 C502 1.398 1_554 S
C502 H490 0.950 . S
C502 C501 1.398 1_556 S
C502 C503 1.391 . S
C503 H491 0.950 . S
C503 C499 1.393 1_556 S
C503 C502 1.391 . S
H504 C512 0.950 . S
H505 C517 0.950 . S
H506 C514 0.950 . S
H507 C516 0.950 . S
H508 C518 0.950 . S
H509 C520 0.950 . S
H510 C522 0.950 . S
H511 C523 0.950 . S
C512 H504 0.950 . S
C512 C513 1.386 . S
C512 C514 1.391 . S
C513 C512 1.386 . S
C513 C517 1.393 1_556 S
C514 H506 0.950 . S
C514 C512 1.391 . S
C514 C515 1.400 . S
C515 C514 1.400 . S
C515 C516 1.398 1_556 S
C515 C521 1.491 . S
C516 H507 0.950 . S
C516 C515 1.398 1_554 S
C516 C517 1.391 . S
C517 H505 0.950 . S
C517 C513 1.393 1_554 S
C517 C516 1.391 . S
C518 H508 0.950 . S
C518 C519 1.386 1_554 S
C518 C520 1.391 . S
C519 C518 1.386 1_556 S
C519 C523 1.393 . S
C520 H509 0.950 . S
C520 C518 1.391 . S
C520 C521 1.400 1_554 S
C521 C515 1.491 . S
C521 C520 1.400 1_556 S
C521 C522 1.398 . S
C522 H510 0.950 . S
C522 C521 1.398 . S
C522 C523 1.391 . S
C523 H511 0.950 . S
C523 C519 1.393 . S
C523 C522 1.391 . S
H524 C532 0.950 . S
H525 C537 0.950 . S
H526 C534 0.950 . S
H527 C536 0.950 . S
H528 C538 0.950 . S
H529 C540 0.950 . S
H530 C542 0.950 . S
H531 C543 0.950 . S
C532 H524 0.950 . S
C532 C533 1.386 1_554 S
C532 C534 1.391 . S
C533 C532 1.386 1_556 S
C533 C537 1.393 . S
C534 H526 0.950 . S
C534 C532 1.391 . S
C534 C535 1.400 1_554 S
C535 C534 1.400 1_556 S
C535 C536 1.398 . S
C535 C541 1.491 . S
C536 H527 0.950 . S
C536 C535 1.398 . S
C536 C537 1.391 . S
C537 H525 0.950 . S
C537 C533 1.393 . S
C537 C536 1.391 . S
C538 H528 0.950 . S
C538 C539 1.386 . S
C538 C540 1.391 . S
C539 C538 1.386 . S
C539 C543 1.393 1_556 S
C540 H529 0.950 . S
C540 C538 1.391 . S
C540 C541 1.400 . S
C541 C535 1.491 . S
C541 C540 1.400 . S
C541 C542 1.398 1_556 S
C542 H530 0.950 . S
C542 C541 1.398 1_554 S
C542 C543 1.391 . S
C543 H531 0.950 . S
C543 C539 1.393 1_554 S
C543 C542 1.391 . S
H544 C552 0.950 . S
H545 C557 0.950 . S
H546 C554 0.950 . S
H547 C556 0.950 . S
H548 C558 0.950 . S
H549 C560 0.950 . S
H550 C562 0.950 . S
H551 C563 0.950 . S
C552 H544 0.950 . S
C552 C553 1.386 . S
C552 C554 1.391 . S
C553 C552 1.386 . S
C553 C557 1.393 . S
C554 H546 0.950 . S
C554 C552 1.391 . S
C554 C555 1.400 . S
C555 C554 1.400 . S
C555 C556 1.398 . S
C555 C561 1.491 . S
C556 H547 0.950 . S
C556 C555 1.398 . S
C556 C557 1.391 . S
C557 H545 0.950 . S
C557 C553 1.393 . S
C557 C556 1.391 . S
C558 H548 0.950 . S
C558 C559 1.386 . S
C558 C560 1.391 . S
C559 C558 1.386 . S
C559 C563 1.393 . S
C560 H549 0.950 . S
C560 C558 1.391 . S
C560 C561 1.400 . S
C561 C555 1.491 . S
C561 C560 1.400 . S
C561 C562 1.398 . S
C562 H550 0.950 . S
C562 C561 1.398 . S
C562 C563 1.391 . S
C563 H551 0.950 . S
C563 C559 1.393 . S
C563 C562 1.391 . S
H564 C572 0.950 1_556 S
H565 C577 0.950 . S
H566 C574 0.950 1_556 S
H567 C576 0.950 . S
H568 C578 0.950 . S
H569 C580 0.950 . S
H570 C582 0.949 1_556 S
H571 C583 0.956 . S
C572 H564 0.950 1_554 S
C572 C573 1.386 . S
C572 C574 1.391 . S
C573 C572 1.386 . S
C573 C577 1.393 . S
C574 H566 0.950 1_554 S
C574 C572 1.391 . S
C574 C575 1.400 . S
C575 C574 1.400 . S
C575 C576 1.398 . S
C575 C581 1.491 . S
C576 H567 0.950 . S
C576 C575 1.398 . S
C576 C577 1.391 . S
C577 H565 0.950 . S
C577 C573 1.393 . S
C577 C576 1.391 . S
C578 H568 0.950 . S
C578 C579 1.386 . S
C578 C580 1.391 . S
C579 C578 1.386 . S
C579 C583 1.387 1_554 S
C580 H569 0.950 . S
C580 C578 1.391 . S
C580 C581 1.400 . S
C581 C575 1.491 . S
C581 C580 1.400 . S
C581 C582 1.400 . S
C582 H570 0.949 1_554 S
C582 C581 1.400 . S
C582 C583 1.390 1_554 S
C583 H571 0.956 . S
C583 C579 1.387 1_556 S
C583 C582 1.390 1_556 S
H584 C592 0.950 . S
H585 C597 0.950 . S
H586 C594 0.950 . S
H587 C596 0.950 . S
H588 C598 0.950 . S
H589 C600 0.950 . S
H590 C602 0.950 . S
H591 C603 0.950 . S
C592 H584 0.950 . S
C592 C593 1.386 . S
C592 C594 1.391 . S
C593 C592 1.386 . S
C593 C597 1.393 . S
C594 H586 0.950 . S
C594 C592 1.391 . S
C594 C595 1.400 . S
C595 C594 1.400 . S
C595 C596 1.398 . S
C595 C601 1.491 . S
C596 H587 0.950 . S
C596 C595 1.398 . S
C596 C597 1.391 . S
C597 H585 0.950 . S
C597 C593 1.393 . S
C597 C596 1.391 . S
C598 H588 0.950 . S
C598 C599 1.386 . S
C598 C600 1.391 . S
C599 C598 1.386 . S
C599 C603 1.393 . S
C600 H589 0.950 . S
C600 C598 1.391 . S
C600 C601 1.400 . S
C601 C595 1.491 . S
C601 C600 1.400 . S
C601 C602 1.398 . S
C602 H590 0.950 . S
C602 C601 1.398 . S
C602 C603 1.391 . S
C603 H591 0.950 . S
C603 C599 1.393 . S
C603 C602 1.391 . S
H604 C612 0.950 . S
H605 C617 0.950 . S
H606 C614 0.950 . S
H607 C616 0.950 . S
H608 C618 0.950 . S
H609 C620 0.950 . S
H610 C622 0.950 . S
H611 C623 0.950 . S
C612 H604 0.950 . S
C612 C613 1.386 . S
C612 C614 1.391 . S
C613 C612 1.386 . S
C613 C617 1.393 . S
C614 H606 0.950 . S
C614 C612 1.391 . S
C614 C615 1.400 . S
C615 C614 1.400 . S
C615 C616 1.398 . S
C615 C621 1.491 . S
C616 H607 0.950 . S
C616 C615 1.398 . S
C616 C617 1.391 . S
C617 H605 0.950 . S
C617 C613 1.393 . S
C617 C616 1.391 . S
C618 H608 0.950 . S
C618 C619 1.386 . S
C618 C620 1.391 . S
C619 C618 1.386 . S
C619 C623 1.393 . S
C620 H609 0.950 . S
C620 C618 1.391 . S
C620 C621 1.400 . S
C621 C615 1.491 . S
C621 C620 1.400 . S
C621 C622 1.398 . S
C622 H610 0.950 . S
C622 C621 1.398 . S
C622 C623 1.391 . S
C623 H611 0.950 . S
C623 C619 1.393 . S
C623 C622 1.391 . S
H624 C632 0.950 . S
H625 C637 0.950 . S
H626 C634 0.950 . S
H627 C636 0.950 . S
H628 C638 0.950 . S
H629 C640 0.950 . S
H630 C642 0.950 . S
H631 C643 0.950 . S
C632 H624 0.950 . S
C632 C633 1.386 . S
C632 C634 1.391 . S
C633 C632 1.386 . S
C633 C637 1.393 . S
C634 H626 0.950 . S
C634 C632 1.391 . S
C634 C635 1.400 . S
C635 C634 1.400 . S
C635 C636 1.398 . S
C635 C641 1.491 . S
C636 H627 0.950 . S
C636 C635 1.398 . S
C636 C637 1.391 . S
C637 H625 0.950 . S
C637 C633 1.393 . S
C637 C636 1.391 . S
C638 H628 0.950 . S
C638 C639 1.386 . S
C638 C640 1.391 . S
C639 C638 1.386 . S
C639 C643 1.393 . S
C640 H629 0.950 . S
C640 C638 1.391 . S
C640 C641 1.400 . S
C641 C635 1.491 . S
C641 C640 1.400 . S
C641 C642 1.398 . S
C642 H630 0.950 . S
C642 C641 1.398 . S
C642 C643 1.391 . S
C643 H631 0.950 . S
C643 C639 1.393 . S
C643 C642 1.391 . S
H644 C652 0.950 . S
H645 C657 0.950 . S
H646 C654 0.950 . S
H647 C656 0.950 . S
H648 C658 0.950 . S
H649 C660 0.950 . S
H650 C662 0.950 . S
H651 C663 0.950 . S
C652 H644 0.950 . S
C652 C653 1.386 . S
C652 C654 1.391 . S
C653 C652 1.386 . S
C653 C657 1.393 . S
C654 H646 0.950 . S
C654 C652 1.391 . S
C654 C655 1.400 . S
C655 C654 1.400 . S
C655 C656 1.398 . S
C655 C661 1.491 . S
C656 H647 0.950 . S
C656 C655 1.398 . S
C656 C657 1.391 . S
C657 H645 0.950 . S
C657 C653 1.393 . S
C657 C656 1.391 . S
C658 H648 0.950 . S
C658 C659 1.386 . S
C658 C660 1.391 . S
C659 C658 1.386 . S
C659 C663 1.393 . S
C660 H649 0.950 . S
C660 C658 1.391 . S
C660 C661 1.400 . S
C661 C655 1.491 . S
C661 C660 1.400 . S
C661 C662 1.398 . S
C662 H650 0.950 . S
C662 C661 1.398 . S
C662 C663 1.391 . S
C663 H651 0.950 . S
C663 C659 1.393 . S
C663 C662 1.391 . S
C273 N71 1.600 . S
C279 N14 1.597 . S
C293 N38 1.599 . S
C299 N113 1.595 . S
C313 N80 1.594 . S
C319 N5 1.598 . S
C333 N104 1.597 . S
C339 N47 1.592 . S
C353 N146 1.597 . S
C359 N203 1.600 . S
C373 N245 1.597 . S
C379 N170 1.601 . S
C393 N137 1.597 . S
C399 N212 1.592 . S
C413 N179 1.599 . S
C419 N236 1.602 . S
C433 C50 1.395 . S
C439 C17 1.397 . S
C453 C83 1.395 . S
C459 C116 1.397 . S
C473 C182 1.397 . S
C479 C149 1.400 . S
C493 C215 1.397 . S
C499 C248 1.395 . S
C513 C259 0.653 . S
C519 C8 0.649 . S
C533 C206 0.690 . S
C539 C61 0.681 . S
C553 C239 0.681 . S
C559 C28 0.662 . S
C573 C41 0.690 . S
C579 C226 0.680 . S
C593 C193 0.680 . S
C599 C74 0.690 . S
C613 C127 0.677 . S
C619 C140 0.689 . S
C633 C173 0.673 . S
C639 C94 0.654 . S
C653 C107 0.669 . S
C659 C160 0.651 . S
