# Generated by pormake.
# Topology wir, (6)-cn, num edge types: 1
# Building blocks:
#     Node 0, Type 0, BuildingBlock: FUNLAD_clean_sbu_0, # of connection points: 6
#     Node 1, Type 0, BuildingBlock: FUNLAD_clean_sbu_0, # of connection points: 6
#     Node 2, Type 0, BuildingBlock: FUNLAD_clean_sbu_0, # of connection points: 6
#     Node 3, Type 0, BuildingBlock: FUNLAD_clean_sbu_0, # of connection points: 6
#     Node 4, Type 0, BuildingBlock: FUNLAD_clean_sbu_0, # of connection points: 6
#     Node 5, Type 0, BuildingBlock: FUNLAD_clean_sbu_0, # of connection points: 6
#     Node 6, Type 0, BuildingBlock: FUNLAD_clean_sbu_0, # of connection points: 6
#     Node 7, Type 0, BuildingBlock: FUNLAD_clean_sbu_0, # of connection points: 6
#     Node 8, Type 0, BuildingBlock: FUNLAD_clean_sbu_0, # of connection points: 6
#     Node 9, Type 0, BuildingBlock: FUNLAD_clean_sbu_0, # of connection points: 6
#     Node 10, Type 0, BuildingBlock: FUNLAD_clean_sbu_0, # of connection points: 6
#     Node 11, Type 0, BuildingBlock: FUNLAD_clean_sbu_0, # of connection points: 6
#     Node 12, Type 0, BuildingBlock: FUNLAD_clean_sbu_0, # of connection points: 6
#     Node 13, Type 0, BuildingBlock: FUNLAD_clean_sbu_0, # of connection points: 6
#     Node 14, Type 0, BuildingBlock: FUNLAD_clean_sbu_0, # of connection points: 6
#     Node 15, Type 0, BuildingBlock: FUNLAD_clean_sbu_0, # of connection points: 6
#     Node 16, Type 0, BuildingBlock: FUNLAD_clean_sbu_0, # of connection points: 6
#     Node 17, Type 0, BuildingBlock: FUNLAD_clean_sbu_0, # of connection points: 6
#     Node 18, Type 0, BuildingBlock: FUNLAD_clean_sbu_0, # of connection points: 6
#     Node 19, Type 0, BuildingBlock: FUNLAD_clean_sbu_0, # of connection points: 6
#     Node 20, Type 0, BuildingBlock: FUNLAD_clean_sbu_0, # of connection points: 6
#     Node 21, Type 0, BuildingBlock: FUNLAD_clean_sbu_0, # of connection points: 6
#     Node 22, Type 0, BuildingBlock: FUNLAD_clean_sbu_0, # of connection points: 6
#     Node 23, Type 0, BuildingBlock: FUNLAD_clean_sbu_0, # of connection points: 6
#     Node 24, Type 0, BuildingBlock: FUNLAD_clean_sbu_0, # of connection points: 6
#     Node 25, Type 0, BuildingBlock: FUNLAD_clean_sbu_0, # of connection points: 6
#     Node 26, Type 0, BuildingBlock: FUNLAD_clean_sbu_0, # of connection points: 6
#     Node 27, Type 0, BuildingBlock: FUNLAD_clean_sbu_0, # of connection points: 6
#     Node 28, Type 0, BuildingBlock: FUNLAD_clean_sbu_0, # of connection points: 6
#     Node 29, Type 0, BuildingBlock: FUNLAD_clean_sbu_0, # of connection points: 6
#     Node 30, Type 0, BuildingBlock: FUNLAD_clean_sbu_0, # of connection points: 6
#     Node 31, Type 0, BuildingBlock: FUNLAD_clean_sbu_0, # of connection points: 6
#     Edge 32, Type (0, 0), BuildingBlock: OJICUG_clean_linker_0, # of connection points: 2
#     Edge 33, Type (0, 0), BuildingBlock: OJICUG_clean_linker_0, # of connection points: 2
#     Edge 34, Type (0, 0), BuildingBlock: OJICUG_clean_linker_0, # of connection points: 2
#     Edge 35, Type (0, 0), BuildingBlock: OJICUG_clean_linker_0, # of connection points: 2
#     Edge 36, Type (0, 0), BuildingBlock: OJICUG_clean_linker_0, # of connection points: 2
#     Edge 37, Type (0, 0), BuildingBlock: OJICUG_clean_linker_0, # of connection points: 2
#     Edge 38, Type (0, 0), BuildingBlock: OJICUG_clean_linker_0, # of connection points: 2
#     Edge 39, Type (0, 0), BuildingBlock: OJICUG_clean_linker_0, # of connection points: 2
#     Edge 40, Type (0, 0), BuildingBlock: OJICUG_clean_linker_0, # of connection points: 2
#     Edge 41, Type (0, 0), BuildingBlock: OJICUG_clean_linker_0, # of connection points: 2
#     Edge 42, Type (0, 0), BuildingBlock: OJICUG_clean_linker_0, # of connection points: 2
#     Edge 43, Type (0, 0), BuildingBlock: OJICUG_clean_linker_0, # of connection points: 2
#     Edge 44, Type (0, 0), BuildingBlock: OJICUG_clean_linker_0, # of connection points: 2
#     Edge 45, Type (0, 0), BuildingBlock: OJICUG_clean_linker_0, # of connection points: 2
#     Edge 46, Type (0, 0), BuildingBlock: OJICUG_clean_linker_0, # of connection points: 2
#     Edge 47, Type (0, 0), BuildingBlock: OJICUG_clean_linker_0, # of connection points: 2
#     Edge 48, Type (0, 0), BuildingBlock: OJICUG_clean_linker_0, # of connection points: 2
#     Edge 49, Type (0, 0), BuildingBlock: OJICUG_clean_linker_0, # of connection points: 2
#     Edge 50, Type (0, 0), BuildingBlock: OJICUG_clean_linker_0, # of connection points: 2
#     Edge 51, Type (0, 0), BuildingBlock: OJICUG_clean_linker_0, # of connection points: 2
#     Edge 52, Type (0, 0), BuildingBlock: OJICUG_clean_linker_0, # of connection points: 2
#     Edge 53, Type (0, 0), BuildingBlock: OJICUG_clean_linker_0, # of connection points: 2
#     Edge 54, Type (0, 0), BuildingBlock: OJICUG_clean_linker_0, # of connection points: 2
#     Edge 55, Type (0, 0), BuildingBlock: OJICUG_clean_linker_0, # of connection points: 2
#     Edge 56, Type (0, 0), BuildingBlock: OJICUG_clean_linker_0, # of connection points: 2
#     Edge 57, Type (0, 0), BuildingBlock: OJICUG_clean_linker_0, # of connection points: 2
#     Edge 58, Type (0, 0), BuildingBlock: OJICUG_clean_linker_0, # of connection points: 2
#     Edge 59, Type (0, 0), BuildingBlock: OJICUG_clean_linker_0, # of connection points: 2
#     Edge 60, Type (0, 0), BuildingBlock: OJICUG_clean_linker_0, # of connection points: 2
#     Edge 61, Type (0, 0), BuildingBlock: OJICUG_clean_linker_0, # of connection points: 2
#     Edge 62, Type (0, 0), BuildingBlock: OJICUG_clean_linker_0, # of connection points: 2
#     Edge 63, Type (0, 0), BuildingBlock: OJICUG_clean_linker_0, # of connection points: 2
#     Edge 64, Type (0, 0), BuildingBlock: OJICUG_clean_linker_0, # of connection points: 2
#     Edge 65, Type (0, 0), BuildingBlock: OJICUG_clean_linker_0, # of connection points: 2
#     Edge 66, Type (0, 0), BuildingBlock: OJICUG_clean_linker_0, # of connection points: 2
#     Edge 67, Type (0, 0), BuildingBlock: OJICUG_clean_linker_0, # of connection points: 2
#     Edge 68, Type (0, 0), BuildingBlock: OJICUG_clean_linker_0, # of connection points: 2
#     Edge 69, Type (0, 0), BuildingBlock: OJICUG_clean_linker_0, # of connection points: 2
#     Edge 70, Type (0, 0), BuildingBlock: OJICUG_clean_linker_0, # of connection points: 2
#     Edge 71, Type (0, 0), BuildingBlock: OJICUG_clean_linker_0, # of connection points: 2
#     Edge 72, Type (0, 0), BuildingBlock: OJICUG_clean_linker_0, # of connection points: 2
#     Edge 73, Type (0, 0), BuildingBlock: OJICUG_clean_linker_0, # of connection points: 2
#     Edge 74, Type (0, 0), BuildingBlock: OJICUG_clean_linker_0, # of connection points: 2
#     Edge 75, Type (0, 0), BuildingBlock: OJICUG_clean_linker_0, # of connection points: 2
#     Edge 76, Type (0, 0), BuildingBlock: OJICUG_clean_linker_0, # of connection points: 2
#     Edge 77, Type (0, 0), BuildingBlock: OJICUG_clean_linker_0, # of connection points: 2
#     Edge 78, Type (0, 0), BuildingBlock: OJICUG_clean_linker_0, # of connection points: 2
#     Edge 79, Type (0, 0), BuildingBlock: OJICUG_clean_linker_0, # of connection points: 2
#     Edge 80, Type (0, 0), BuildingBlock: OJICUG_clean_linker_0, # of connection points: 2
#     Edge 81, Type (0, 0), BuildingBlock: OJICUG_clean_linker_0, # of connection points: 2
#     Edge 82, Type (0, 0), BuildingBlock: OJICUG_clean_linker_0, # of connection points: 2
#     Edge 83, Type (0, 0), BuildingBlock: OJICUG_clean_linker_0, # of connection points: 2
#     Edge 84, Type (0, 0), BuildingBlock: OJICUG_clean_linker_0, # of connection points: 2
#     Edge 85, Type (0, 0), BuildingBlock: OJICUG_clean_linker_0, # of connection points: 2
#     Edge 86, Type (0, 0), BuildingBlock: OJICUG_clean_linker_0, # of connection points: 2
#     Edge 87, Type (0, 0), BuildingBlock: OJICUG_clean_linker_0, # of connection points: 2
#     Edge 88, Type (0, 0), BuildingBlock: OJICUG_clean_linker_0, # of connection points: 2
#     Edge 89, Type (0, 0), BuildingBlock: OJICUG_clean_linker_0, # of connection points: 2
#     Edge 90, Type (0, 0), BuildingBlock: OJICUG_clean_linker_0, # of connection points: 2
#     Edge 91, Type (0, 0), BuildingBlock: OJICUG_clean_linker_0, # of connection points: 2
#     Edge 92, Type (0, 0), BuildingBlock: OJICUG_clean_linker_0, # of connection points: 2
#     Edge 93, Type (0, 0), BuildingBlock: OJICUG_clean_linker_0, # of connection points: 2
#     Edge 94, Type (0, 0), BuildingBlock: OJICUG_clean_linker_0, # of connection points: 2
#     Edge 95, Type (0, 0), BuildingBlock: OJICUG_clean_linker_0, # of connection points: 2
#     Edge 96, Type (0, 0), BuildingBlock: OJICUG_clean_linker_0, # of connection points: 2
#     Edge 97, Type (0, 0), BuildingBlock: OJICUG_clean_linker_0, # of connection points: 2
#     Edge 98, Type (0, 0), BuildingBlock: OJICUG_clean_linker_0, # of connection points: 2
#     Edge 99, Type (0, 0), BuildingBlock: OJICUG_clean_linker_0, # of connection points: 2
#     Edge 100, Type (0, 0), BuildingBlock: OJICUG_clean_linker_0, # of connection points: 2
#     Edge 101, Type (0, 0), BuildingBlock: OJICUG_clean_linker_0, # of connection points: 2
#     Edge 102, Type (0, 0), BuildingBlock: OJICUG_clean_linker_0, # of connection points: 2
#     Edge 103, Type (0, 0), BuildingBlock: OJICUG_clean_linker_0, # of connection points: 2
#     Edge 104, Type (0, 0), BuildingBlock: OJICUG_clean_linker_0, # of connection points: 2
#     Edge 105, Type (0, 0), BuildingBlock: OJICUG_clean_linker_0, # of connection points: 2
#     Edge 106, Type (0, 0), BuildingBlock: OJICUG_clean_linker_0, # of connection points: 2
#     Edge 107, Type (0, 0), BuildingBlock: OJICUG_clean_linker_0, # of connection points: 2
#     Edge 108, Type (0, 0), BuildingBlock: OJICUG_clean_linker_0, # of connection points: 2
#     Edge 109, Type (0, 0), BuildingBlock: OJICUG_clean_linker_0, # of connection points: 2
#     Edge 110, Type (0, 0), BuildingBlock: OJICUG_clean_linker_0, # of connection points: 2
#     Edge 111, Type (0, 0), BuildingBlock: OJICUG_clean_linker_0, # of connection points: 2
#     Edge 112, Type (0, 0), BuildingBlock: OJICUG_clean_linker_0, # of connection points: 2
#     Edge 113, Type (0, 0), BuildingBlock: OJICUG_clean_linker_0, # of connection points: 2
#     Edge 114, Type (0, 0), BuildingBlock: OJICUG_clean_linker_0, # of connection points: 2
#     Edge 115, Type (0, 0), BuildingBlock: OJICUG_clean_linker_0, # of connection points: 2
#     Edge 116, Type (0, 0), BuildingBlock: OJICUG_clean_linker_0, # of connection points: 2
#     Edge 117, Type (0, 0), BuildingBlock: OJICUG_clean_linker_0, # of connection points: 2
#     Edge 118, Type (0, 0), BuildingBlock: OJICUG_clean_linker_0, # of connection points: 2
#     Edge 119, Type (0, 0), BuildingBlock: OJICUG_clean_linker_0, # of connection points: 2
#     Edge 120, Type (0, 0), BuildingBlock: OJICUG_clean_linker_0, # of connection points: 2
#     Edge 121, Type (0, 0), BuildingBlock: OJICUG_clean_linker_0, # of connection points: 2
#     Edge 122, Type (0, 0), BuildingBlock: OJICUG_clean_linker_0, # of connection points: 2
#     Edge 123, Type (0, 0), BuildingBlock: OJICUG_clean_linker_0, # of connection points: 2
#     Edge 124, Type (0, 0), BuildingBlock: OJICUG_clean_linker_0, # of connection points: 2
#     Edge 125, Type (0, 0), BuildingBlock: OJICUG_clean_linker_0, # of connection points: 2
#     Edge 126, Type (0, 0), BuildingBlock: OJICUG_clean_linker_0, # of connection points: 2
#     Edge 127, Type (0, 0), BuildingBlock: OJICUG_clean_linker_0, # of connection points: 2
# Relax obj value: 1.075
# Max RMSD: 0.228
# Mean RMSD: 0.228
data_MOF--net-wir--node1-FUNLAD_clean_sbu_0--edge1-OJICUG_clean_linker_0
_symmetry_space_group_name_H-M    P1
_symmetry_Int_Tables_number       1
_symmetry_cell_setting            triclinic
loop_
_symmetry_equiv_pos_as_xyz
'x, y, z'
_cell_length_a     35.160962
_cell_length_b     35.008698
_cell_length_c     47.817679
_cell_angle_alpha  90.089895
_cell_angle_beta   89.931371
_cell_angle_gamma 90.020123
loop_
_atom_site_label
_atom_site_type_symbol
_atom_site_fract_x
_atom_site_fract_y
_atom_site_fract_z
_atom_type_partial_charge
C0 C 0.20944 0.13627 0.3187 0.0
N1 N 0.2678 0.18273 0.38834 0.0
C2 C 0.27644 0.14504 0.38874 0.0
C3 C 0.3141 0.13394 0.38606 0.0
C4 C 0.34244 0.16211 0.38354 0.0
C5 C 0.3332 0.20031 0.38839 0.0
C6 C 0.29513 0.21009 0.39124 0.0
Zn7 Zn 0.22447 0.19778 0.36364 0.0
C8 C 0.25682 0.24658 0.31685 0.0
N9 N 0.14288 0.23608 0.30526 0.0
C10 C 0.12349 0.21216 0.28788 0.0
C11 C 0.14575 0.27393 0.29953 0.0
C12 C 0.129 0.28916 0.27587 0.0
C13 C 0.10913 0.26544 0.25705 0.0
C14 C 0.10658 0.22624 0.26346 0.0
Zn15 Zn 0.1808 0.217 0.33428 0.0
O16 O 0.2312 0.14444 0.33909 0.0
C17 C 0.14711 0.17828 0.38458 0.0
O18 O 0.18517 0.16144 0.31138 0.0
H19 H 0.16263 0.29247 0.31259 0.0
H20 H 0.25413 0.12387 0.38713 0.0
H21 H 0.12216 0.18194 0.29231 0.0
O22 O 0.18213 0.17276 0.3904 0.0
O23 O 0.13826 0.19347 0.3612 0.0
H24 H 0.28767 0.24002 0.39101 0.0
O25 O 0.17641 0.2707 0.3591 0.0
O26 O 0.21814 0.24671 0.38787 0.0
O27 O 0.22282 0.24397 0.30843 0.0
O28 O 0.26621 0.22754 0.33827 0.0
C29 C 0.19589 0.27359 0.38151 0.0
H30 H 0.32074 0.10381 0.38426 0.0
H31 H 0.35467 0.2225 0.38773 0.0
H32 H 0.1313 0.31971 0.27303 0.0
H33 H 0.09176 0.2065 0.24989 0.0
C34 C 0.22803 0.96536 0.57271 0.0
N35 N 0.17026 1.01663 0.64363 0.0
C36 C 0.19973 1.01638 0.66188 0.0
C37 C 0.19928 1.04103 0.68479 0.0
C38 C 0.16789 0.06557 0.68902 0.0
C39 C 0.1373 0.06377 0.6706 0.0
C40 C 0.13932 1.03954 0.64779 0.0
Zn41 Zn 0.16372 0.9774 0.61317 0.0
C42 C 0.11825 1.01099 0.56699 0.0
N43 N 0.13022 0.89714 0.5519 0.0
C44 C 0.1552 0.87771 0.53539 0.0
C45 C 0.09308 0.9004 0.54458 0.0
C46 C 0.07942 0.8833 0.52053 0.0
C47 C 0.10395 0.86226 0.50303 0.0
C48 C 0.14263 0.86002 0.51071 0.0
Zn49 Zn 0.14555 0.93286 0.58373 0.0
O50 O 0.2196 0.9869 0.59345 0.0
C51 C 0.18234 0.89772 0.63277 0.0
O52 O 0.20278 0.94166 0.56415 0.0
H53 H 0.07377 0.91741 0.55694 0.0
H54 H 0.22345 0.99722 0.65859 0.0
H55 H 0.18496 0.8765 0.54099 0.0
O56 O 0.186 0.93285 0.63933 0.0
O57 O 0.16853 0.88884 0.60898 0.0
H58 H 0.11531 1.03862 0.63378 0.0
O59 O 0.08991 0.92386 0.6055 0.0
O60 O 0.11186 0.96778 0.63311 0.0
O61 O 0.11962 0.97642 0.55941 0.0
O62 O 0.13787 1.02109 0.58795 0.0
C63 C 0.08573 0.94467 0.62713 0.0
H64 H 0.22413 1.04224 0.69812 0.0
H65 H 0.11289 0.08238 0.67303 0.0
H66 H 1.04925 0.88579 0.51663 0.0
H67 H 0.16295 0.84449 0.49807 0.0
C68 C 0.40406 0.98003 0.81915 0.0
N69 N 0.34596 0.93387 0.8889 0.0
C70 C 0.33709 0.97152 0.88914 0.0
C71 C 0.29934 0.98236 0.88659 0.0
C72 C 0.27116 0.95398 0.88447 0.0
C73 C 0.28065 0.91594 0.88961 0.0
C74 C 0.31879 0.90643 0.89226 0.0
Zn75 Zn 0.38874 0.91852 0.86352 0.0
C76 C 0.35489 0.86982 0.81698 0.0
N77 N 0.46873 0.87942 0.80403 0.0
C78 C 0.48839 0.90327 0.78679 0.0
C79 C 0.46523 0.8417 0.79794 0.0
C80 C 0.48171 0.82653 0.77408 0.0
C81 C 0.50201 0.85017 0.75546 0.0
C82 C 0.50505 0.88927 0.7622 0.0
Zn83 Zn 0.43157 0.89868 0.83359 0.0
O84 O 0.38211 0.97182 0.83942 0.0
C85 C 0.46671 0.93781 0.8832 0.0
O86 O 0.42778 0.95456 0.81133 0.0
H87 H 0.44815 0.82326 0.81093 0.0
H88 H 0.35925 0.99279 0.88724 0.0
H89 H 0.49021 0.93341 0.79151 0.0
O90 O 0.43189 0.94355 0.88959 0.0
O91 O 0.47485 0.92173 0.85997 0.0
H92 H 0.32635 0.87653 0.89217 0.0
O93 O 0.43557 0.84462 0.85801 0.0
O94 O 0.39522 0.8697 0.88745 0.0
O95 O 0.38869 0.87238 0.80806 0.0
O96 O 0.34613 0.88882 0.83863 0.0
C97 C 0.41656 0.84224 0.8807 0.0
H98 H 0.29249 1.0124 0.88453 0.0
H99 H 0.25931 0.89361 0.88921 0.0
H100 H 0.47893 0.79606 0.77098 0.0
H101 H 0.52013 0.90898 0.74879 0.0
C102 C 0.38422 0.15409 0.06608 0.0
N103 N 0.42864 0.09479 0.13589 0.0
C104 C 0.3912 0.08567 0.13551 0.0
C105 C 0.38063 1.04765 0.13296 0.0
C106 C 0.40904 1.01943 0.13135 0.0
C107 C 0.44677 1.02928 0.13683 0.0
C108 C 0.45601 0.06765 0.13952 0.0
Zn109 Zn 0.44461 0.1384 0.11145 0.0
C110 C 0.49365 0.10552 0.06507 0.0
N111 N 0.48547 0.2194 0.05287 0.0
C112 C 0.46307 0.23863 1.03441 0.0
C113 C 0.52352 0.2163 0.04851 0.0
C114 C 0.54051 0.23276 1.02537 0.0
C115 C 0.51846 0.25236 1.00547 0.0
C116 C 0.479 0.25521 1.0104 0.0
Zn117 Zn 0.46456 0.18175 0.0818 0.0
O118 O 0.39229 0.132 0.08632 0.0
C119 C 0.42472 0.21604 0.13135 0.0
O120 O 0.40941 0.17838 0.0587 0.0
H121 H 0.54102 0.19936 0.06217 0.0
H122 H 0.36996 0.1078 0.13335 0.0
H123 H 0.43268 0.24003 1.03763 0.0
O124 O 0.41892 0.181 0.13741 0.0
O125 O 0.44116 0.22462 0.10837 0.0
H126 H 0.48574 0.07538 0.13984 0.0
O127 O 0.51781 0.18498 0.10716 0.0
O128 O 0.49269 0.14452 0.13644 0.0
O129 O 0.49086 0.13939 0.05619 0.0
O130 O 0.47479 0.09647 0.08665 0.0
C131 C 0.52014 0.16588 0.12979 0.0
H132 H 0.35079 1.04062 0.13066 0.0
H133 H 0.46912 1.00799 0.13682 0.0
H134 H 0.57108 0.23031 1.02375 0.0
H135 H 0.46044 0.26985 0.99594 0.0
C136 C 0.21319 0.98043 0.26996 0.0
N137 N 0.26544 0.92138 0.20008 0.0
C138 C 0.26487 0.95045 0.1814 0.0
C139 C 0.28944 0.94964 0.15852 0.0
C140 C 0.31424 0.91829 0.15478 0.0
C141 C 0.31282 0.88809 0.17367 0.0
C142 C 0.28863 0.89047 0.19641 0.0
Zn143 Zn 0.22625 0.91521 0.23047 0.0
C144 C 0.25985 0.87 0.27684 0.0
N145 N 0.14574 0.88224 0.29133 0.0
C146 C 0.12617 0.90754 0.30752 0.0
C147 C 0.14895 0.84505 0.29894 0.0
C148 C 0.13153 0.83162 0.32293 0.0
C149 C 0.11022 0.85645 0.34005 0.0
C150 C 0.10819 0.89522 0.33213 0.0
Zn151 Zn 0.18138 0.89723 0.25949 0.0
O152 O 0.23481 0.97193 0.24934 0.0
C153 C 0.14664 0.93276 0.2098 0.0
O154 O 0.19003 0.95486 0.27878 0.0
H155 H 0.16603 0.8255 0.28681 0.0
H156 H 0.2455 0.97412 0.1843 0.0
H157 H 0.125 0.93734 0.3017 0.0
O158 O 0.18175 0.93621 0.20353 0.0
O159 O 0.13746 0.9201 0.23389 0.0
H160 H 0.28793 0.86673 0.21077 0.0
O161 O 0.17201 0.84174 0.23805 0.0
O162 O 0.21736 0.86273 0.21139 0.0
O163 O 0.22519 0.87076 0.28398 0.0
O164 O 0.27004 0.89035 0.25625 0.0
C165 C 0.1935 0.8371 0.21692 0.0
H166 H 0.29037 0.97422 0.1448 0.0
H167 H 0.33164 0.86374 0.17162 0.0
H168 H 0.13395 0.80137 0.32703 0.0
H169 H 0.09257 0.91583 0.34449 0.0
C170 C 0.38289 0.96437 0.52316 0.0
N171 N 0.43936 1.01539 0.45156 0.0
C172 C 0.40976 1.01513 0.43342 0.0
C173 C 0.41001 1.03988 0.4106 0.0
C174 C 0.44136 0.06447 0.40636 0.0
C175 C 0.47207 0.06269 0.42464 0.0
C176 C 0.47023 1.0384 0.44735 0.0
Zn177 Zn 0.44647 0.97625 0.48198 0.0
C178 C 0.49268 1.01015 0.52749 0.0
N179 N 0.48196 0.89644 0.54303 0.0
C180 C 0.45826 0.87703 0.56051 0.0
C181 C 0.51951 0.90013 0.54908 0.0
C182 C 0.5349 0.88342 0.57264 0.0
C183 C 0.51178 0.86247 0.59112 0.0
C184 C 0.47264 0.85973 0.58481 0.0
Zn185 Zn 0.46499 0.93167 0.51126 0.0
O186 O 0.39101 0.98554 0.5022 0.0
C187 C 0.42747 0.89617 0.46267 0.0
O188 O 0.40821 0.9407 0.53167 0.0
H189 H 0.53791 0.91727 0.53615 0.0
H190 H 0.3861 0.99589 0.43671 0.0
H191 H 0.42816 0.87557 0.556 0.0
O192 O 0.42402 0.93131 0.45608 0.0
O193 O 0.44133 0.88734 0.48645 0.0
H194 H 0.49439 1.03751 0.46122 0.0
O195 O 0.51985 0.92249 0.48861 0.0
O196 O 0.49797 0.96691 0.46156 0.0
O197 O 0.4916 0.97558 0.53499 0.0
O198 O 0.47241 1.02022 0.50691 0.0
C199 C 0.52394 0.94353 0.46717 0.0
H200 H 0.3851 1.04112 0.39734 0.0
H201 H 0.49646 0.08132 0.42218 0.0
H202 H 0.56527 0.88624 0.57541 0.0
H203 H 0.45328 0.84427 0.59825 0.0
C204 C 0.40384 0.13698 0.77324 0.0
N205 N 0.34308 0.18183 0.70431 0.0
C206 C 0.33424 0.14416 0.70468 0.0
C207 C 0.29656 0.13331 0.70793 0.0
C208 C 0.26836 0.16166 0.71016 0.0
C209 C 0.27772 0.19962 0.70453 0.0
C210 C 0.31576 0.20914 0.70115 0.0
Zn211 Zn 0.38668 0.19794 0.72862 0.0
C212 C 0.35413 0.24653 0.77548 0.0
N213 N 0.46809 0.23899 0.78669 0.0
C214 C 0.48715 0.21634 0.8051 0.0
C215 C 0.46492 0.27717 0.79127 0.0
C216 C 0.48101 0.29398 0.81463 0.0
C217 C 0.50032 0.27162 0.83453 0.0
C218 C 0.50334 0.23207 0.82932 0.0
Zn219 Zn 0.43046 0.21809 0.7578 0.0
O220 O 0.38144 0.14496 0.75323 0.0
C221 C 0.4641 0.17925 0.70762 0.0
O222 O 0.42771 0.16255 0.78064 0.0
H223 H 0.44815 0.29487 0.77762 0.0
H224 H 0.35647 0.12295 0.70641 0.0
H225 H 0.48867 0.18586 0.8017 0.0
O226 O 0.42911 0.17327 0.70191 0.0
O227 O 0.47302 0.19509 0.73079 0.0
H228 H 0.32324 0.23906 0.70079 0.0
O229 O 0.43333 0.27143 0.73268 0.0
O230 O 0.39184 0.24648 0.70416 0.0
O231 O 0.3882 0.24435 0.78378 0.0
O232 O 0.34479 0.2273 0.7541 0.0
C233 C 0.41361 0.27381 0.7104 0.0
H234 H 0.28982 0.10328 0.71033 0.0
H235 H 0.25639 0.22193 0.70499 0.0
H236 H 0.47847 0.32465 0.81646 0.0
H237 H 0.51778 0.21327 0.84374 0.0
C238 C 0.2276 0.15191 1.02044 0.0
N239 N 0.1702 0.10013 0.94985 0.0
C240 C 0.19999 0.10054 0.93184 0.0
C241 C 0.20031 0.0755 0.90916 0.0
C242 C 0.16938 1.05037 0.90494 0.0
C243 C 0.13836 1.05212 0.92302 0.0
C244 C 0.13961 0.07679 0.9456 0.0
Zn245 Zn 0.16304 0.13909 0.98042 0.0
C246 C 0.11782 0.10505 1.02633 0.0
N247 N 0.12847 0.21902 1.04186 0.0
C248 C 0.15214 0.23881 0.05915 0.0
C249 C 0.09101 0.21502 0.04817 0.0
C250 C 0.07563 0.23188 0.07174 0.0
C251 C 0.09866 0.25338 0.08996 0.0
C252 C 0.13776 0.2563 0.08344 0.0
Zn253 Zn 0.14524 0.1839 1.00987 0.0
O254 O 0.21888 0.13036 0.9998 0.0
C255 C 0.18205 0.21918 0.96126 0.0
O256 O 0.20235 0.17529 1.02954 0.0
H257 H 0.07267 0.19759 1.03539 0.0
H258 H 0.22344 0.12001 0.9352 0.0
H259 H 0.18218 0.24048 0.05446 0.0
O260 O 0.18497 0.18405 0.95452 0.0
O261 O 0.16855 0.22819 0.98515 0.0
H262 H 0.11537 0.07753 0.95947 0.0
O263 O 0.0903 0.1932 0.98762 0.0
O264 O 0.11127 0.14815 0.96058 0.0
O265 O 0.11896 0.1397 1.03375 0.0
O266 O 0.13768 0.0949 1.00549 0.0
C267 C 0.08573 0.17202 0.96626 0.0
H268 H 0.22545 0.07436 0.89607 0.0
H269 H 0.11429 1.03306 0.92059 0.0
H270 H 1.04531 0.22879 0.07467 0.0
H271 H 0.15709 0.27211 0.09669 0.0
C272 C 0.91337 0.84283 0.71272 0.0
N273 N 0.96726 0.8804 0.78853 0.0
C274 C 0.96423 0.84264 0.79454 0.0
C275 C 0.98106 0.82763 0.81826 0.0
C276 C 1.00112 0.85151 0.83687 0.0
C277 C 1.00384 0.8906 0.83015 0.0
C278 C 0.98689 0.90443 0.80567 0.0
Zn279 Zn 0.92925 0.89943 0.75955 0.0
C280 C 0.96316 0.93781 0.70896 0.0
N281 N 0.84226 0.93415 0.70553 0.0
C282 C 0.81539 0.90635 0.70239 0.0
C283 C 0.8329 0.97167 0.70548 0.0
C284 C 0.79501 0.98203 0.70821 0.0
C285 C 0.76717 0.95331 0.71038 0.0
C286 C 0.77716 0.91537 0.70524 0.0
Zn287 Zn 0.88586 0.91921 0.73013 0.0
O288 O 0.93282 0.84536 0.73515 0.0
C289 C 0.85334 0.87057 0.77706 0.0
O290 O 0.89197 0.87027 0.70614 0.0
H291 H 0.8548 0.99324 0.70725 0.0
H292 H 0.94718 0.82401 0.78167 0.0
H293 H 0.82329 0.87654 0.70237 0.0
O294 O 0.88726 0.87314 0.78564 0.0
O295 O 0.84416 0.8896 0.75559 0.0
H296 H 0.98839 0.93458 0.80102 0.0
O297 O 0.87939 0.97251 0.75455 0.0
O298 O 0.92548 0.95523 0.78213 0.0
O299 O 0.92822 0.94399 0.7032 0.0
O300 O 0.97181 0.92232 0.73227 0.0
C301 C 0.90132 0.98053 0.77486 0.0
H302 H 0.97864 0.79714 0.82131 0.0
H303 H 1.0188 0.91047 0.84353 0.0
H304 H 0.78781 1.012 0.71023 0.0
H305 H 0.75611 0.89277 0.70566 0.0
C306 C 1.02497 0.1711 0.46663 0.0
N307 N 0.98252 0.21921 0.54226 0.0
C308 C 1.02006 0.21586 0.54844 0.0
C309 C 1.0352 0.23295 0.57199 0.0
C310 C 1.01182 0.2539 0.59034 0.0
C311 C 0.9727 0.25627 0.58389 0.0
C312 C 0.95859 0.23864 0.55961 0.0
Zn313 Zn 0.96578 0.18346 0.51067 0.0
C314 C 0.92826 0.21828 0.46193 0.0
N315 N 0.94023 0.09908 0.45128 0.0
C316 C 0.97097 0.0759 0.44709 0.0
C317 C 0.91064 0.09941 0.43314 0.0
C318 C 0.91076 0.07459 0.41032 0.0
C319 C 0.94196 1.04982 0.40607 0.0
C320 C 0.97266 1.05149 0.42438 0.0
Zn321 Zn 0.94745 0.13855 0.48151 0.0
O322 O 1.0208 0.19231 0.48803 0.0
C323 C 0.99341 0.10527 0.52742 0.0
O324 O 0.99901 0.14764 0.46105 0.0
H325 H 0.88709 0.11878 0.43643 0.0
H326 H 1.03863 0.1987 0.53562 0.0
H327 H 0.99513 0.07678 0.46097 0.0
O328 O 0.99225 0.13994 0.53477 0.0
O329 O 0.97342 0.09495 0.50671 0.0
H330 H 0.92851 0.23984 0.555 0.0
O331 O 0.89189 0.1295 0.5017 0.0
O332 O 0.90887 0.17477 0.53097 0.0
O333 O 0.92494 0.18309 0.45542 0.0
O334 O 0.94219 0.2274 0.48564 0.0
C335 C 0.88358 0.15101 0.52248 0.0
H336 H 0.06557 0.2304 0.57487 0.0
H337 H 0.95314 0.27169 0.59724 0.0
H338 H 0.88584 0.07346 0.39705 0.0
H339 H 0.99694 1.0327 0.42193 0.0
C340 C 0.69428 0.27386 0.21148 0.0
N341 N 0.64175 0.23697 0.28811 0.0
C342 C 0.64508 0.27474 0.29409 0.0
C343 C 0.62867 0.28994 0.31797 0.0
C344 C 0.60861 0.26628 0.33671 0.0
C345 C 0.60567 0.22715 0.33006 0.0
C346 C 0.62226 0.21311 0.30545 0.0
Zn347 Zn 0.67915 0.21768 0.25873 0.0
C348 C 0.64458 0.17802 0.20923 0.0
N349 N 0.76533 0.18244 0.20395 0.0
C350 C 0.79255 0.20984 0.20066 0.0
C351 C 0.77411 0.14477 0.20366 0.0
C352 C 0.81184 0.13383 0.20614 0.0
C353 C 0.84008 0.16214 0.20829 0.0
C354 C 0.83068 0.20022 0.20325 0.0
Zn355 Zn 0.7224 0.19788 0.22911 0.0
O356 O 0.67503 0.27149 0.23406 0.0
C357 C 0.75563 0.24688 0.2756 0.0
O358 O 0.71594 0.24654 0.20496 0.0
H359 H 0.7519 0.12354 0.20555 0.0
H360 H 0.66204 0.29319 0.28102 0.0
H361 H 0.78504 0.23975 0.2008 0.0
O362 O 0.72172 0.24432 0.28427 0.0
O363 O 0.76473 0.22781 0.25406 0.0
H364 H 0.62055 0.18295 0.30082 0.0
O365 O 0.72908 0.14483 0.25343 0.0
O366 O 0.68312 0.16212 0.28125 0.0
O367 O 0.6795 0.17251 0.20298 0.0
O368 O 0.63616 0.19419 0.23237 0.0
C369 C 0.70704 0.13673 0.27367 0.0
H370 H 0.63134 0.32043 0.32099 0.0
H371 H 0.59074 0.20743 0.34356 0.0
H372 H 0.81862 0.10377 0.20814 0.0
H373 H 0.85207 0.22249 0.20367 0.0
C374 C 0.59171 0.94858 0.96235 0.0
N375 N 0.62637 0.89534 1.03937 0.0
C376 C 0.58837 0.89874 1.04386 0.0
C377 C 0.5714 0.88241 0.06706 0.0
C378 C 0.59341 0.86259 0.08686 0.0
C379 C 0.63282 0.8595 0.08183 0.0
C380 C 0.64874 0.87598 0.05778 0.0
Zn381 Zn 0.64733 0.93276 1.01032 0.0
C382 C 0.68691 0.89803 0.96078 0.0
N383 N 0.68343 1.01937 0.95595 0.0
C384 C 0.65592 1.04631 0.95208 0.0
C385 C 0.72081 1.02876 0.95647 0.0
C386 C 0.73109 0.06687 0.95894 0.0
C387 C 0.70248 0.0949 0.96028 0.0
C388 C 0.66488 0.08476 0.95464 0.0
Zn389 Zn 0.66742 0.97587 0.98054 0.0
O390 O 0.59392 0.92968 0.98507 0.0
C391 C 0.61851 1.00914 1.02687 0.0
O392 O 0.61932 0.96964 0.95557 0.0
H393 H 0.74218 1.0068 0.95883 0.0
H394 H 0.57092 0.91581 1.03025 0.0
H395 H 0.62624 1.03842 0.95167 0.0
O396 O 0.62133 0.97533 1.03587 0.0
O397 O 0.63727 1.01803 1.0052 0.0
H398 H 0.6791 0.87438 0.05446 0.0
O399 O 0.71976 0.98235 1.00571 0.0
O400 O 0.70257 0.93603 1.03336 0.0
O401 O 0.69301 0.93302 0.95468 0.0
O402 O 0.67042 0.88965 0.98378 0.0
C403 C 0.72778 0.96031 1.026 0.0
H404 H 0.54086 0.8851 0.06877 0.0
H405 H 0.65137 0.84472 0.09622 0.0
H406 H 0.76086 0.07413 0.96141 0.0
H407 H 0.64238 0.1059 0.95448 0.0
C408 C 0.91841 0.27924 0.87679 0.0
N409 N 0.96647 0.23398 0.80244 0.0
C410 C 0.9635 0.27121 0.79489 0.0
C411 C 0.98078 0.28455 0.77083 0.0
C412 C 1.0017 0.25958 0.75355 0.0
C413 C 1.00361 0.22081 0.76146 0.0
C414 C 0.98576 0.20858 0.78614 0.0
Zn415 Zn 0.9306 0.21909 0.83417 0.0
C416 C 0.96485 0.18332 0.88388 0.0
N417 N 0.84608 0.19512 0.89328 0.0
C418 C 0.8228 0.22595 0.89697 0.0
C419 C 0.84645 0.16583 0.91178 0.0
C420 C 0.82155 0.16629 0.93446 0.0
C421 C 0.79656 0.19748 0.93817 0.0
C422 C 0.79818 0.22794 0.91951 0.0
Zn423 Zn 0.88547 0.20137 0.86307 0.0
O424 O 0.94004 0.27448 0.85575 0.0
C425 C 0.85244 0.24662 0.81658 0.0
O426 O 0.89436 0.25375 0.88224 0.0
H427 H 0.86588 0.14221 0.90885 0.0
H428 H 0.94663 0.29085 0.8071 0.0
H429 H 0.82364 0.24984 0.88275 0.0
O430 O 0.88715 0.24572 0.80958 0.0
O431 O 0.84201 0.2264 0.83717 0.0
H432 H 0.98676 0.17875 0.79192 0.0
O433 O 0.87681 0.1448 0.84415 0.0
O434 O 0.9218 0.16164 0.81481 0.0
O435 O 0.9297 0.18013 0.8901 0.0
O436 O 0.97421 0.19596 0.85982 0.0
C437 C 0.89846 0.13621 0.82358 0.0
H438 H 0.97853 0.31482 0.76674 0.0
H439 H 1.019 0.20013 0.749 0.0
H440 H 0.82048 0.14153 0.94799 0.0
H441 H 0.77919 0.25216 0.92153 0.0
C442 C 0.58597 0.16971 0.62583 0.0
N443 N 0.62909 0.21857 0.55108 0.0
C444 C 0.5916 0.21492 0.54477 0.0
C445 C 0.57644 0.23193 0.52124 0.0
C446 C 0.59974 0.25308 0.50302 0.0
C447 C 0.63881 0.25581 0.50959 0.0
C448 C 0.65295 0.23823 0.53386 0.0
Zn449 Zn 0.64571 0.18274 0.58262 0.0
C450 C 0.68137 0.21714 0.63228 0.0
N451 N 0.67043 0.09775 0.64155 0.0
C452 C 0.63972 0.07432 0.6451 0.0
C453 C 0.69936 0.09832 0.66025 0.0
C454 C 0.69856 0.07357 0.68306 0.0
C455 C 0.66734 1.04865 0.68672 0.0
C456 C 0.63734 1.05001 0.66778 0.0
Zn457 Zn 0.66372 0.13749 0.61151 0.0
O458 O 0.59069 0.19146 0.60486 0.0
C459 C 0.61876 0.10437 0.56519 0.0
O460 O 0.61157 0.14585 0.63128 0.0
H461 H 0.72287 0.1179 0.65747 0.0
H462 H 0.57308 0.19754 0.55743 0.0
H463 H 0.61603 0.07503 0.63079 0.0
O464 O 0.61953 0.13916 0.55817 0.0
O465 O 0.63899 0.09397 0.58569 0.0
H466 H 0.683 0.23964 0.53853 0.0
O467 O 0.71982 0.12923 0.59196 0.0
O468 O 0.70288 0.17434 0.56264 0.0
O469 O 0.68484 0.18187 0.63839 0.0
O470 O 0.66862 0.22657 0.60827 0.0
C471 C 0.72821 0.15077 0.57125 0.0
H472 H 0.5461 0.22911 0.51828 0.0
H473 H 0.6583 0.27141 0.49634 0.0
H474 H 0.72299 0.07268 0.69682 0.0
H475 H 0.61306 1.03113 0.66978 0.0
C476 C 0.69564 0.8423 0.3812 0.0
N477 N 0.64236 0.87971 0.30536 0.0
C478 C 0.6458 0.84198 0.29928 0.0
C479 C 0.62933 0.82679 0.27546 0.0
C480 C 0.60912 0.85042 0.25684 0.0
C481 C 0.60604 0.88951 0.26359 0.0
C482 C 0.62271 0.90355 0.28814 0.0
Zn483 Zn 0.68 0.89889 0.33462 0.0
C484 C 0.64599 0.93684 0.38516 0.0
N485 N 0.7668 0.9336 0.389 0.0
C486 C 0.79392 0.90605 0.39192 0.0
C487 C 0.77582 0.97122 0.38929 0.0
C488 C 0.81359 0.98196 0.38643 0.0
C489 C 0.84164 0.95351 0.38392 0.0
C490 C 0.83206 0.91546 0.38894 0.0
Zn491 Zn 0.72348 0.9185 0.36411 0.0
O492 O 0.67614 0.845 0.35882 0.0
C493 C 0.75641 0.87032 0.31708 0.0
O494 O 0.71752 0.86941 0.38774 0.0
H495 H 0.75372 0.99259 0.38773 0.0
H496 H 0.66292 0.82353 0.31218 0.0
H497 H 0.78627 0.87617 0.39179 0.0
O498 O 0.72243 0.87267 0.30859 0.0
O499 O 0.76556 0.88944 0.33856 0.0
H500 H 0.62096 0.9337 0.29283 0.0
O501 O 0.72949 0.97206 0.34024 0.0
O502 O 0.68354 0.95475 0.31247 0.0
O503 O 0.68094 0.94277 0.39101 0.0
O504 O 0.63728 0.92159 0.36173 0.0
C505 C 0.70733 0.98022 0.32012 0.0
H506 H 0.6321 0.79632 0.27237 0.0
H507 H 0.59096 0.90919 0.25017 0.0
H508 H 0.82051 1.012 0.38451 0.0
H509 H 0.8533 0.89306 0.38826 0.0
C510 C 1.02567 0.94308 0.12727 0.0
N511 N 0.98323 0.89571 0.05158 0.0
C512 C 1.02073 0.89956 1.04534 0.0
C513 C 1.03607 0.88287 1.02169 0.0
C514 C 1.01295 0.86172 1.00332 0.0
C515 C 0.97385 0.85887 1.0098 0.0
C516 C 0.95951 0.87618 1.03417 0.0
Zn517 Zn 0.96639 0.93101 0.08344 0.0
C518 C 0.92924 0.89598 0.13205 0.0
N519 N 0.94099 1.01508 0.14313 0.0
C520 C 0.97159 1.03841 0.14739 0.0
C521 C 0.91109 1.01484 0.16104 0.0
C522 C 0.91065 1.04006 0.18362 0.0
C523 C 0.94158 0.06518 0.18783 0.0
C524 C 0.97271 0.06327 0.16987 0.0
Zn525 Zn 0.94836 0.9759 0.11274 0.0
O526 O 1.02127 0.9219 0.10589 0.0
C527 C 0.99389 1.00971 0.06683 0.0
O528 O 1.00003 0.9669 0.13287 0.0
H529 H 0.88764 0.99537 0.15768 0.0
H530 H 1.03912 0.91682 0.05821 0.0
H531 H 0.99593 1.03753 0.13363 0.0
O532 O 0.99278 0.97504 0.05947 0.0
O533 O 0.97394 1.01993 0.08762 0.0
H534 H 0.92944 0.87463 1.0388 0.0
O535 O 0.8926 0.98458 0.09308 0.0
O536 O 0.90937 0.93948 0.06357 0.0
O537 O 0.9262 0.93115 0.13868 0.0
O538 O 0.94295 0.88687 0.10825 0.0
C539 C 0.88403 0.9629 0.07247 0.0
H540 H 0.06641 0.88584 1.01879 0.0
H541 H 0.95448 0.84328 0.99643 0.0
H542 H 0.88544 1.04133 0.19662 0.0
H543 H 0.99678 0.08233 0.1723 0.0
C544 C 0.70831 0.63613 0.81818 0.0
N545 N 0.7677 0.68222 0.88751 0.0
C546 C 0.77707 0.6447 0.88743 0.0
C547 C 0.81497 0.63437 0.88472 0.0
C548 C 0.84281 0.66311 0.88268 0.0
C549 C 0.8328 0.70101 0.88791 0.0
C550 C 0.79455 0.71001 0.89074 0.0
Zn551 Zn 0.72398 0.69726 0.86305 0.0
C552 C 0.75638 0.74608 0.81616 0.0
N553 N 0.64244 0.73637 0.80489 0.0
C554 C 0.62282 0.71233 0.78774 0.0
C555 C 0.64547 0.77413 0.79888 0.0
C556 C 0.62874 0.7891 0.7751 0.0
C557 C 0.60879 0.76519 0.75646 0.0
C558 C 0.60598 0.72612 0.76321 0.0
Zn559 Zn 0.68053 0.71724 0.83377 0.0
O560 O 0.73036 0.64401 0.83845 0.0
C561 C 0.64679 0.67865 0.88435 0.0
O562 O 0.68414 0.6615 0.81106 0.0
H563 H 0.66248 0.79275 0.81178 0.0
H564 H 0.75519 0.62313 0.88559 0.0
H565 H 0.62128 0.68218 0.79241 0.0
O566 O 0.68174 0.67235 0.89 0.0
O567 O 0.63807 0.6943 0.86111 0.0
H568 H 0.78664 0.73981 0.89083 0.0
O569 O 0.67716 0.77128 0.85827 0.0
O570 O 0.71795 0.74614 0.88722 0.0
O571 O 0.72244 0.74356 0.80762 0.0
O572 O 0.7656 0.727 0.83759 0.0
C573 C 0.69662 0.77367 0.88071 0.0
H574 H 0.82219 0.60441 0.88262 0.0
H575 H 0.85383 0.72362 0.88758 0.0
H576 H 0.63119 0.81958 0.77202 0.0
H577 H 0.59107 0.70624 0.74981 0.0
C578 C 0.72832 0.46529 0.07073 0.0
N579 N 0.67042 0.51583 0.14175 0.0
C580 C 0.69996 0.51546 0.15992 0.0
C581 C 0.69966 0.54004 0.18287 0.0
C582 C 0.66838 0.56466 0.18717 0.0
C583 C 0.63772 0.56305 0.16881 0.0
C584 C 0.63954 0.53879 0.146 0.0
Zn585 Zn 0.66394 0.47681 0.11117 0.0
C586 C 0.61825 0.51064 0.06518 0.0
N587 N 0.63087 0.39674 0.0497 0.0
C588 C 0.65588 0.37701 1.03341 0.0
C589 C 0.59377 0.39999 1.04226 0.0
C590 C 0.58015 0.38244 1.01838 0.0
C591 C 0.60466 0.36091 1.00119 0.0
C592 C 0.64334 0.35884 1.00891 0.0
Zn593 Zn 0.64601 0.43238 0.08159 0.0
O594 O 0.71979 0.4866 0.09157 0.0
C595 C 0.68271 0.39699 0.13066 0.0
O596 O 0.70319 0.44156 0.06204 0.0
H597 H 0.57444 0.4172 0.05447 0.0
H598 H 0.72364 0.49628 0.15655 0.0
H599 H 0.68561 0.37581 1.0391 0.0
O600 O 0.68624 0.43212 0.13727 0.0
O601 O 0.66914 0.38818 0.10677 0.0
H602 H 0.61547 0.53793 0.13204 0.0
O603 O 0.59053 0.42295 0.10322 0.0
O604 O 0.61213 0.46695 0.13095 0.0
O605 O 0.61975 0.47614 0.05741 0.0
O606 O 0.63797 0.52063 0.08611 0.0
C607 C 0.58619 0.44367 0.12488 0.0
H608 H 0.72456 0.54116 0.19617 0.0
H609 H 0.61341 0.58178 0.17129 0.0
H610 H 0.54999 0.38489 1.01442 0.0
H611 H 0.66368 0.34302 0.99648 0.0
C612 C 0.90278 0.47959 0.32069 0.0
N613 N 0.84233 0.43238 0.38896 0.0
C614 C 0.8337 0.47007 0.38955 0.0
C615 C 0.79609 0.48122 0.38659 0.0
C616 C 0.76779 0.45309 0.38367 0.0
C617 C 0.7769 0.41486 0.38839 0.0
C618 C 0.81491 0.40503 0.39149 0.0
Zn619 Zn 0.88596 0.41742 0.36431 0.0
C620 C 0.85371 0.36956 0.31683 0.0
N621 N 0.96796 0.37919 0.30592 0.0
C622 C 0.9877 0.40322 0.28886 0.0
C623 C 0.96486 0.34145 0.29976 0.0
C624 C 0.98172 0.32646 0.27599 0.0
C625 C 1.00194 0.35032 0.25749 0.0
C626 C 1.00472 0.3894 0.26434 0.0
Zn627 Zn 0.92984 0.39811 0.33498 0.0
O628 O 0.88036 0.4712 0.34064 0.0
C629 C 0.9631 0.43604 0.38573 0.0
O630 O 0.92658 0.45415 0.31297 0.0
H631 H 0.9477 0.32283 0.31256 0.0
H632 H 0.85604 0.49125 0.3883 0.0
H633 H 0.98924 0.43336 0.29361 0.0
O634 O 0.92808 0.44164 0.39153 0.0
O635 O 0.9721 0.42087 0.36233 0.0
H636 H 0.82231 0.37509 0.39112 0.0
O637 O 0.93343 0.34405 0.35915 0.0
O638 O 0.8915 0.36812 0.38785 0.0
O639 O 0.88784 0.37191 0.30859 0.0
O640 O 0.84428 0.38851 0.33834 0.0
C641 C 0.91358 0.34112 0.38139 0.0
H642 H 0.7895 0.51137 0.38489 0.0
H643 H 0.75542 0.3927 0.38742 0.0
H644 H 0.97921 0.29599 0.27283 0.0
H645 H 1.01978 0.40926 0.25103 0.0
C646 C 0.88392 0.65665 0.56733 0.0
N647 N 0.92839 0.59737 0.63707 0.0
C648 C 0.89094 0.58827 0.63681 0.0
C649 C 0.88035 0.55025 0.63438 0.0
C650 C 0.90874 0.52203 0.6328 0.0
C651 C 0.94648 0.53185 0.63818 0.0
C652 C 0.95576 0.57024 0.6407 0.0
Zn653 Zn 0.94425 0.64111 0.6127 0.0
C654 C 0.99324 0.60864 0.56622 0.0
N655 N 0.9848 0.72242 0.55425 0.0
C656 C 0.96229 0.74144 0.53574 0.0
C657 C 1.02286 0.71944 0.54985 0.0
C658 C 1.03971 0.73572 0.52659 0.0
C659 C 1.01752 0.75502 0.50662 0.0
C660 C 0.97809 0.75786 0.51162 0.0
Zn661 Zn 0.96405 0.68463 0.58314 0.0
O662 O 0.89204 0.63457 0.58755 0.0
C663 C 0.92418 0.71865 0.63272 0.0
O664 O 0.90896 0.68113 0.56003 0.0
H665 H 1.04046 0.70268 0.56356 0.0
H666 H 0.8697 0.6104 0.63461 0.0
H667 H 0.9319 0.74277 0.539 0.0
O668 O 0.91844 0.68358 0.63874 0.0
O669 O 0.9406 0.72732 0.60975 0.0
H670 H 0.9855 0.57796 0.64091 0.0
O671 O 1.01736 0.68784 0.60851 0.0
O672 O 0.99227 0.64723 0.63769 0.0
O673 O 0.99036 0.64254 0.55745 0.0
O674 O 0.9745 0.5994 0.58781 0.0
C675 C 1.0197 0.66862 0.63109 0.0
H676 H 0.8505 0.54321 0.63209 0.0
H677 H 0.96881 0.51052 0.63817 0.0
H678 H 0.07028 0.73334 0.5249 0.0
H679 H 0.95946 0.77234 0.49712 0.0
C680 C 0.7106 0.4808 0.76871 0.0
N681 N 0.763 0.42206 0.6989 0.0
C682 C 0.76285 0.45152 0.68055 0.0
C683 C 0.78805 0.45127 0.65804 0.0
C684 C 0.81307 0.4201 0.65435 0.0
C685 C 0.81115 0.38944 0.67281 0.0
C686 C 0.78627 0.39123 0.69519 0.0
Zn687 Zn 0.72359 0.41572 0.72909 0.0
C688 C 0.75678 0.3705 0.7756 0.0
N689 N 0.64279 0.38288 0.78979 0.0
C690 C 0.62342 0.40827 0.80604 0.0
C691 C 0.64588 0.34568 0.7974 0.0
C692 C 0.62867 0.33237 0.8215 0.0
C693 C 0.60766 0.35733 0.83873 0.0
C694 C 0.60563 0.39607 0.83075 0.0
Zn695 Zn 0.67859 0.39782 0.75804 0.0
O696 O 0.73224 0.47227 0.74811 0.0
C697 C 0.64413 0.43344 0.70828 0.0
O698 O 0.68725 0.45534 0.77741 0.0
H699 H 0.66281 0.32606 0.78522 0.0
H700 H 0.74344 0.47515 0.6835 0.0
H701 H 0.62231 0.43807 0.80021 0.0
O702 O 0.67926 0.4369 0.70208 0.0
O703 O 0.63487 0.42073 0.73234 0.0
H704 H 0.78528 0.36723 0.70931 0.0
O705 O 0.66938 0.34232 0.73652 0.0
O706 O 0.71473 0.36338 0.70988 0.0
O707 O 0.7221 0.37141 0.78266 0.0
O708 O 0.76713 0.39066 0.75495 0.0
C709 C 0.69091 0.33771 0.71539 0.0
H710 H 0.78934 0.47617 0.64466 0.0
H711 H 0.83015 0.36522 0.67079 0.0
H712 H 0.63104 0.30212 0.82565 0.0
H713 H 0.59017 0.41673 0.84318 0.0
C714 C 0.88334 0.46557 1.02154 0.0
N715 N 0.94065 0.51876 0.95118 0.0
C716 C 0.91154 0.51824 0.93263 0.0
C717 C 0.9121 0.54308 0.90988 0.0
C718 C 0.94325 0.56806 0.90613 0.0
C719 C 0.97341 0.5667 0.92493 0.0
C720 C 0.97129 0.54225 0.94754 0.0
Zn721 Zn 0.94756 0.47889 0.98106 0.0
C722 C 0.9928 0.51147 1.02733 0.0
N723 N 0.9822 0.39727 1.04106 0.0
C724 C 0.95834 0.37777 0.05838 0.0
C725 C 1.01975 0.40068 0.04721 0.0
C726 C 1.03496 0.38365 0.07071 0.0
C727 C 1.01165 0.36273 0.08907 0.0
C728 C 0.97253 0.36018 0.08263 0.0
Zn729 Zn 0.96548 0.43328 1.00967 0.0
O730 O 0.89163 0.4872 1.00086 0.0
C731 C 0.92934 0.39935 0.96014 0.0
O732 O 0.90862 0.44182 1.02995 0.0
H733 H 1.03829 0.41792 1.03447 0.0
H734 H 0.88808 0.49863 0.93549 0.0
H735 H 0.92824 0.37653 0.05382 0.0
O736 O 0.92611 0.43468 0.95413 0.0
O737 O 0.94216 0.38969 0.98406 0.0
H738 H 0.99511 0.54149 0.96174 0.0
O739 O 1.02023 0.42445 0.98715 0.0
O740 O 0.99956 0.47052 0.96105 0.0
O741 O 0.99197 0.4766 1.03411 0.0
O742 O 0.97254 0.52219 1.00692 0.0
C743 C 1.025 0.44639 0.96629 0.0
H744 H 0.88755 0.54398 0.89624 0.0
H745 H 0.99762 0.58566 0.92287 0.0
H746 H 0.06534 0.38629 0.07356 0.0
H747 H 0.95304 0.34472 0.09597 0.0
C748 C 0.90374 0.63674 0.27524 0.0
N749 N 0.84362 0.68181 0.20622 0.0
C750 C 0.83505 0.64408 0.20608 0.0
C751 C 0.79735 0.6329 0.2085 0.0
C752 C 0.76888 0.661 0.21049 0.0
C753 C 0.77815 0.69915 0.20552 0.0
C754 C 0.81622 0.70902 0.20298 0.0
Zn755 Zn 0.88705 0.69783 0.23066 0.0
C756 C 0.85428 0.74657 0.27737 0.0
N757 N 0.96831 0.73847 0.28892 0.0
C758 C 0.98765 0.71578 0.30714 0.0
C759 C 0.96511 0.77662 0.29361 0.0
C760 C 0.98163 0.7934 0.31682 0.0
C761 C 1.00142 0.77104 0.33645 0.0
C762 C 1.00429 0.73148 0.3312 0.0
Zn763 Zn 0.93076 0.71773 0.25996 0.0
O764 O 0.88155 0.64483 0.25513 0.0
C765 C 0.96465 0.67901 0.20974 0.0
O766 O 0.92764 0.66222 0.28279 0.0
H767 H 0.9481 0.79432 0.28011 0.0
H768 H 0.85737 0.623 0.20796 0.0
H769 H 0.98913 0.68531 0.30366 0.0
O770 O 0.92965 0.67321 0.20396 0.0
O771 O 0.97352 0.69459 0.23303 0.0
H772 H 0.82352 0.73899 0.20307 0.0
O773 O 0.93407 0.77094 0.23492 0.0
O774 O 0.89239 0.74637 0.20636 0.0
O775 O 0.88831 0.7443 0.28579 0.0
O776 O 0.84502 0.72722 0.25603 0.0
C777 C 0.91437 0.77349 0.21265 0.0
H778 H 0.79075 0.60278 0.21043 0.0
H779 H 0.75664 0.7213 0.20585 0.0
H780 H 0.97909 0.82406 0.31868 0.0
H781 H 1.01901 0.71265 0.34544 0.0
C782 C 0.72778 0.65301 0.52104 0.0
N783 N 0.67048 0.60035 0.45071 0.0
C784 C 0.69988 0.60087 0.43235 0.0
C785 C 0.69967 0.57601 0.40953 0.0
C786 C 0.66855 0.55105 0.40551 0.0
C787 C 0.63797 0.55267 0.42399 0.0
C788 C 0.63982 0.577 0.44673 0.0
Zn789 Zn 0.66344 0.63947 0.48125 0.0
C790 C 0.61847 0.60528 0.52729 0.0
N791 N 0.6282 0.71931 0.5426 0.0
C792 C 0.652 0.73921 0.55971 0.0
C793 C 0.59083 0.71518 0.54917 0.0
C794 C 0.57571 0.73197 0.57286 0.0
C795 C 0.59891 0.7535 0.59094 0.0
C796 C 0.6379 0.7566 0.58412 0.0
Zn797 Zn 0.6449 0.68413 0.51061 0.0
O798 O 0.71934 0.63122 0.50046 0.0
C799 C 0.68129 0.71956 0.46173 0.0
O800 O 0.70228 0.67618 0.53003 0.0
H801 H 0.57239 0.69765 0.53653 0.0
H802 H 0.72338 0.62034 0.43548 0.0
H803 H 0.68198 0.74102 0.5548 0.0
O804 O 0.68487 0.68443 0.45513 0.0
O805 O 0.66754 0.72849 0.48555 0.0
H806 H 0.61585 0.57763 0.46084 0.0
O807 O 0.58955 0.69255 0.48872 0.0
O808 O 0.61153 0.64802 0.46167 0.0
O809 O 0.61931 0.63993 0.53472 0.0
O810 O 0.63854 0.59527 0.50651 0.0
C811 C 0.5854 0.67118 0.46743 0.0
H812 H 0.7245 0.57497 0.39613 0.0
H813 H 0.61371 0.53382 0.4217 0.0
H814 H 0.54544 0.72877 0.57602 0.0
H815 H 0.65736 0.77245 0.59725 0.0
C816 C 0.41388 0.34037 0.21126 0.0
N817 N 0.4686 0.37875 0.28657 0.0
C818 C 0.46537 0.34112 0.29297 0.0
C819 C 0.48195 0.32654 0.31693 0.0
C820 C 0.50197 0.3507 0.33536 0.0
C821 C 0.50497 0.38963 0.3282 0.0
C822 C 0.48828 0.40302 0.3035 0.0
Zn823 Zn 0.43048 0.39749 0.25755 0.0
C824 C 0.464 0.43521 0.20668 0.0
N825 N 0.3431 0.43197 0.20373 0.0
C826 C 0.31607 0.40426 0.20095 0.0
C827 C 0.33389 0.46954 0.20353 0.0
C828 C 0.2961 0.48008 0.20659 0.0
C829 C 0.2682 0.45149 0.2092 0.0
C830 C 0.27792 0.41348 0.20411 0.0
Zn831 Zn 0.38684 0.41715 0.22827 0.0
O832 O 0.43357 0.34306 0.23357 0.0
C833 C 0.35445 0.36946 0.27579 0.0
O834 O 0.39247 0.36779 0.20467 0.0
H835 H 0.3559 0.49103 0.20497 0.0
H836 H 0.44829 0.32233 0.28025 0.0
H837 H 0.32384 0.37442 0.20104 0.0
O838 O 0.38852 0.37185 0.28409 0.0
O839 O 0.34515 0.38823 0.25422 0.0
H840 H 0.48998 0.43306 0.29852 0.0
O841 O 0.38111 0.4709 0.25216 0.0
O842 O 0.42742 0.45366 0.27955 0.0
O843 O 0.42903 0.44133 0.20101 0.0
O844 O 0.47281 0.4198 0.22999 0.0
C845 C 0.40354 0.47912 0.27212 0.0
H846 H 0.47933 0.29613 0.32032 0.0
H847 H 0.51992 0.40971 0.34141 0.0
H848 H 0.28905 0.51009 0.20857 0.0
H849 H 0.25677 0.39098 0.20485 0.0
C850 C 0.5246 0.67161 0.96647 0.0
N851 N 0.48048 0.71899 1.04184 0.0
C852 C 0.51764 0.71578 0.04913 0.0
C853 C 0.53137 0.7332 0.07304 0.0
C854 C 0.5069 0.75449 0.09042 0.0
C855 C 0.46819 0.7566 0.08281 0.0
C856 C 0.45554 0.7386 0.05827 0.0
Zn857 Zn 0.46506 0.68323 1.0101 0.0
C858 C 0.42804 0.71861 0.96111 0.0
N859 N 0.43999 0.59964 0.95016 0.0
C860 C 0.47091 0.57674 0.9459 0.0
C861 C 0.41044 0.59993 0.932 0.0
C862 C 0.41078 0.57531 0.90906 0.0
C863 C 0.44215 0.55079 0.90474 0.0
C864 C 0.47281 0.55252 0.92309 0.0
Zn865 Zn 0.4467 0.63885 0.98063 0.0
O866 O 0.52057 0.69229 0.98818 0.0
C867 C 0.4927 0.60508 1.0266 0.0
O868 O 0.49841 0.64856 0.96049 0.0
H869 H 0.38673 0.61908 0.93536 0.0
H870 H 0.53691 0.69866 1.03682 0.0
H871 H 0.49501 0.57767 0.95984 0.0
O872 O 0.4913 0.63959 1.03433 0.0
O873 O 0.47287 0.59509 1.00572 0.0
H874 H 0.42577 0.73977 0.0527 0.0
O875 O 0.3909 0.62922 1.00059 0.0
O876 O 0.40791 0.67433 1.02993 0.0
O877 O 0.42423 0.6835 0.95452 0.0
O878 O 0.44192 0.72735 0.9849 0.0
C879 C 0.38261 0.65063 1.02144 0.0
H880 H 0.56156 0.73078 0.0769 0.0
H881 H 0.4479 0.77228 0.09538 0.0
H882 H 0.38588 0.57412 0.89577 0.0
H883 H 0.4972 0.5339 0.92058 0.0
C884 C 0.19461 0.77451 0.71323 0.0
N885 N 0.14225 0.7372 0.78971 0.0
C886 C 0.14576 0.77491 0.79581 0.0
C887 C 0.12907 0.79014 0.81956 0.0
C888 C 0.10855 0.76656 0.83809 0.0
C889 C 0.10559 0.72744 0.83138 0.0
C890 C 0.12247 0.71338 0.80689 0.0
Zn891 Zn 0.17946 0.71799 0.76017 0.0
C892 C 0.14444 0.67915 0.71044 0.0
N893 N 0.26516 0.68299 0.70491 0.0
C894 C 0.29254 0.71026 0.70179 0.0
C895 C 0.27368 0.64527 0.70428 0.0
C896 C 0.31135 0.63405 0.70659 0.0
C897 C 0.33979 0.66214 0.70893 0.0
C898 C 0.33061 0.70036 0.70423 0.0
Zn899 Zn 0.22241 0.69833 0.73026 0.0
O900 O 0.17545 0.77201 0.73584 0.0
C901 C 0.25616 0.74678 0.77694 0.0
O902 O 0.21613 0.74719 0.70652 0.0
H903 H 0.25134 0.62416 0.70605 0.0
H904 H 0.16297 0.79333 0.78289 0.0
H905 H 0.28522 0.74022 0.70217 0.0
O906 O 0.22232 0.74426 0.78578 0.0
O907 O 0.26498 0.72778 0.75529 0.0
H908 H 0.12069 0.68323 0.80219 0.0
O909 O 0.22888 0.645 0.75412 0.0
O910 O 0.18322 0.66208 0.7823 0.0
O911 O 0.17929 0.67353 0.70406 0.0
O912 O 0.13623 0.69501 0.73374 0.0
C913 C 0.20691 0.63667 0.77434 0.0
H914 H 0.13184 0.82061 0.82263 0.0
H915 H 0.09037 0.70776 0.84474 0.0
H916 H 0.31794 0.60391 0.7083 0.0
H917 H 0.35214 0.72249 0.70478 0.0
C918 C 0.08507 0.44499 0.46739 0.0
N919 N 0.12763 0.39847 0.54306 0.0
C920 C 0.09027 0.40266 0.5496 0.0
C921 C 0.07504 0.3858 0.57319 0.0
C922 C 0.09813 0.3641 0.59119 0.0
C923 C 0.13717 0.36112 0.58448 0.0
C924 C 0.15138 0.37859 0.56017 0.0
Zn925 Zn 0.14441 0.43329 0.51099 0.0
C926 C 0.18121 0.39697 0.46224 0.0
N927 N 0.17008 0.51606 0.45056 0.0
C928 C 0.13938 0.5392 0.44624 0.0
C929 C 0.19965 0.51529 0.43236 0.0
C930 C 0.19959 0.53971 0.40935 0.0
C931 C 0.16845 0.56448 0.40498 0.0
C932 C 0.13771 0.56314 0.42332 0.0
Zn933 Zn 0.16288 0.47745 0.48132 0.0
O934 O 0.08923 0.42423 0.48896 0.0
C935 C 0.11748 0.51241 0.52707 0.0
O936 O 0.11113 0.46816 0.46143 0.0
H937 H 0.22317 0.49596 0.43577 0.0
H938 H 0.07189 0.42017 0.53694 0.0
H939 H 0.11527 0.53871 0.46022 0.0
O940 O 0.11843 0.47789 0.5348 0.0
O941 O 0.13744 0.52202 0.50616 0.0
H942 H 0.18137 0.37678 0.5553 0.0
O943 O 0.21866 0.48656 0.50099 0.0
O944 O 0.20159 0.442 0.53076 0.0
O945 O 0.18481 0.43205 0.45552 0.0
O946 O 0.16742 0.3884 0.48612 0.0
C947 C 0.22698 0.46538 0.52189 0.0
H948 H 1.04476 0.389 0.57629 0.0
H949 H 0.15659 0.34524 0.59756 0.0
H950 H 0.22453 0.54056 0.39606 0.0
H951 H 0.11346 0.58192 0.42077 0.0
C952 C 0.41475 0.77294 0.38189 0.0
N953 N 0.4698 0.73552 0.3063 0.0
C954 C 0.46698 0.77337 0.30053 0.0
C955 C 0.4836 0.78852 0.27675 0.0
C956 C 0.50325 0.76472 0.25784 0.0
C957 C 0.50599 0.72558 0.26438 0.0
C958 C 0.48923 0.71159 0.28891 0.0
Zn959 Zn 0.43131 0.71638 0.335 0.0
C960 C 0.46385 0.67787 0.38555 0.0
N961 N 0.34312 0.68171 0.38817 0.0
C962 C 0.31579 0.70913 0.39079 0.0
C963 C 0.33434 0.64404 0.38846 0.0
C964 C 0.2967 0.63302 0.38541 0.0
C965 C 0.26849 0.66125 0.38266 0.0
C966 C 0.27776 0.69943 0.38759 0.0
Zn967 Zn 0.3871 0.6969 0.36397 0.0
O968 O 0.43477 0.77017 0.3597 0.0
C969 C 0.35577 0.7455 0.31682 0.0
O970 O 0.3926 0.74589 0.38808 0.0
H971 H 0.35661 0.62281 0.38709 0.0
H972 H 0.4501 0.79195 0.31358 0.0
H973 H 0.3233 0.73904 0.39064 0.0
O974 O 0.38991 0.74296 0.30868 0.0
O975 O 0.34596 0.72635 0.3381 0.0
H976 H 0.49062 0.68138 0.29338 0.0
O977 O 0.38139 0.64351 0.33966 0.0
O978 O 0.42795 0.66072 0.31239 0.0
O979 O 0.42878 0.67219 0.39116 0.0
O980 O 0.47309 0.69321 0.3623 0.0
C981 C 0.40385 0.63534 0.31967 0.0
H982 H 0.48127 0.81905 0.27384 0.0
H983 H 0.52074 0.70582 0.25077 0.0
H984 H 0.29001 0.60291 0.38355 0.0
H985 H 0.25638 0.72167 0.38674 0.0
C986 C 0.08653 0.67005 0.12771 0.0
N987 N 0.12918 0.7192 0.05273 0.0
C988 C 0.09159 0.71595 0.04665 0.0
C989 C 0.07645 0.73272 1.02302 0.0
C990 C 0.09988 0.75319 1.00447 0.0
C991 C 0.13899 0.75568 1.01089 0.0
C992 C 0.15312 0.73836 1.03526 0.0
Zn993 Zn 0.14592 0.6831 0.08407 0.0
C994 C 0.18243 0.71696 0.13359 0.0
N995 N 0.17102 0.59755 0.14248 0.0
C996 C 0.14024 0.57427 0.14621 0.0
C997 C 0.20031 0.59775 0.16088 0.0
C998 C 0.19982 0.57272 0.18353 0.0
C999 C 0.16854 0.54792 0.18735 0.0
C1000 C 0.13816 0.5497 0.16875 0.0
Zn1001 Zn 0.16404 0.63755 0.11268 0.0
O1002 O 0.09112 0.69183 0.10673 0.0
C1003 C 0.11844 0.60506 0.06645 0.0
O1004 O 0.11212 0.64608 0.13297 0.0
H1005 H 0.22388 0.61721 0.15797 0.0
H1006 H 0.07298 0.69894 0.05951 0.0
H1007 H 0.1163 0.57527 0.13214 0.0
O1008 O 0.11935 0.6399 0.0596 0.0
O1009 O 0.13869 0.59436 0.08687 0.0
H1010 H 0.18322 0.73948 1.03977 0.0
O1011 O 0.21989 0.62909 0.09256 0.0
O1012 O 0.20277 0.67457 0.06363 0.0
O1013 O 0.18581 0.68163 0.13955 0.0
O1014 O 0.16935 0.72662 0.10974 0.0
C1015 C 0.22809 0.65075 0.07187 0.0
H1016 H 1.04606 0.7302 1.02018 0.0
H1017 H 0.15854 0.77084 0.9974 0.0
H1018 H 0.22451 0.57152 0.19701 0.0
H1019 H 0.11382 0.53092 0.17088 0.0
C1020 C 0.1966 0.34206 0.88094 0.0
N1021 N 0.14231 0.37745 0.80484 0.0
C1022 C 0.14552 0.33931 0.80014 0.0
C1023 C 0.12925 0.32258 0.77681 0.0
C1024 C 0.10969 0.34498 0.75708 0.0
C1025 C 0.10675 0.38452 0.76237 0.0
C1026 C 0.12315 0.40018 0.78654 0.0
Zn1027 Zn 0.17995 0.3981 0.83382 0.0
C1028 C 0.14643 0.43663 0.88416 0.0
N1029 N 0.26739 0.43372 0.88748 0.0
C1030 C 0.29476 0.40643 0.89047 0.0
C1031 C 0.2761 0.47142 0.88754 0.0
C1032 C 0.31377 0.48246 0.88466 0.0
C1033 C 0.34209 0.45425 0.88232 0.0
C1034 C 0.33281 0.41615 0.88746 0.0
Zn1035 Zn 0.22383 0.41784 0.86308 0.0
O1036 O 0.17679 0.34474 0.85872 0.0
C1037 C 0.25631 0.36957 0.81608 0.0
O1038 O 0.21861 0.36915 0.88725 0.0
H1039 H 0.25381 0.49258 0.88589 0.0
H1040 H 0.16242 0.32156 0.81366 0.0
H1041 H 0.28737 0.37648 0.89048 0.0
O1042 O 0.22223 0.37182 0.8078 0.0
O1043 O 0.26568 0.3887 0.8375 0.0
H1044 H 0.12167 0.43065 0.79002 0.0
O1045 O 0.22915 0.47093 0.8388 0.0
O1046 O 0.1829 0.45371 0.81122 0.0
O1047 O 0.18146 0.44234 0.88989 0.0
O1048 O 0.1374 0.42109 0.8609 0.0
C1049 C 0.20681 0.47914 0.81882 0.0
H1050 H 0.13181 0.29192 0.77492 0.0
H1051 H 0.09217 0.40338 0.74806 0.0
H1052 H 0.32043 0.51256 0.88262 0.0
H1053 H 0.35424 0.39393 0.8869 0.0
C1054 C 0.52334 0.44344 0.62564 0.0
N1055 N 0.48172 0.39677 0.54957 0.0
C1056 C 0.51932 0.40055 0.54364 0.0
C1057 C 0.53504 0.38362 0.52023 0.0
C1058 C 0.51223 0.3623 0.50177 0.0
C1059 C 0.473 0.35956 0.50789 0.0
C1060 C 0.45827 0.37713 0.53204 0.0
Zn1061 Zn 0.46457 0.43201 0.58139 0.0
C1062 C 0.42677 0.39672 0.62976 0.0
N1063 N 0.43902 0.51578 0.64128 0.0
C1064 C 0.46977 0.53886 0.6457 0.0
C1065 C 0.40917 0.51543 0.65924 0.0
C1066 C 0.409 0.54022 0.68208 0.0
C1067 C 0.44016 0.56498 0.6865 0.0
C1068 C 0.47116 0.56326 0.66842 0.0
Zn1069 Zn 0.44635 0.47675 0.61075 0.0
O1070 O 0.51909 0.42239 0.60418 0.0
C1071 C 0.4928 0.51058 0.56539 0.0
O1072 O 0.49772 0.46728 0.63118 0.0
H1073 H 0.3856 0.49614 0.65576 0.0
H1074 H 0.53753 0.41787 0.55661 0.0
H1075 H 0.49411 0.53801 0.63194 0.0
O1076 O 0.49161 0.476 0.55783 0.0
O1077 O 0.47249 0.52073 0.58599 0.0
H1078 H 0.42813 0.37563 0.53642 0.0
O1079 O 0.39096 0.48609 0.59063 0.0
O1080 O 0.40791 0.44123 0.56097 0.0
O1081 O 0.42368 0.43187 0.63646 0.0
O1082 O 0.44054 0.38776 0.60594 0.0
C1083 C 0.38266 0.46489 0.56969 0.0
H1084 H 0.56544 0.38653 0.5176 0.0
H1085 H 0.45386 0.34385 0.49442 0.0
H1086 H 0.38388 0.5414 0.69518 0.0
H1087 H 0.4954 0.58206 0.67102 0.0
C1088 C 0.18344 0.34331 0.39278 0.0
C1089 C 0.19215 0.30603 0.40148 0.0
H1090 H 0.17452 0.40171 0.40516 0.0
C1091 C 0.19888 0.29948 0.43013 0.0
H1092 H 0.17834 0.3493 0.37088 0.0
C1093 C 0.19628 0.32912 0.44969 0.0
C1094 C 0.18786 0.36644 0.44112 0.0
H1095 H 0.20555 0.27106 0.4376 0.0
H1096 H 0.20068 0.32275 0.47162 0.0
C1097 C 0.18178 0.37333 0.41238 0.0
C1098 C 0.06049 0.9488 0.67575 0.0
C1099 C 1.05332 0.94175 0.64719 0.0
H1100 H 1.03806 0.95334 0.71731 0.0
C1101 C 1.01557 0.93524 0.6388 0.0
H1102 H 0.08922 0.954 0.68301 0.0
C1103 C 0.9858 0.93609 0.65865 0.0
C1104 C 0.99333 0.94268 0.68729 0.0
H1105 H 1.00904 0.93015 0.61698 0.0
H1106 H 0.95703 0.93038 0.65173 0.0
C1107 C 1.03112 0.94879 0.69548 0.0
C1108 C 0.42748 0.77216 0.8917 0.0
C1109 C 0.41952 0.80962 0.90051 0.0
H1110 H 0.43502 0.71355 0.90397 0.0
C1111 C 0.41249 0.81623 0.92914 0.0
H1112 H 0.43273 0.76611 0.86982 0.0
C1113 C 0.41408 0.78652 0.94858 0.0
C1114 C 0.42185 0.74906 0.93994 0.0
H1115 H 0.40633 0.84476 0.93671 0.0
H1116 H 0.40952 0.79297 0.9705 0.0
C1117 C 0.4282 0.74207 0.91122 0.0
C1118 C 0.57679 0.16353 0.19728 0.0
C1119 C 0.61401 0.17116 0.18831 0.0
H1120 H 0.51852 0.15574 0.1859 0.0
C1121 C 0.62049 0.17718 0.15951 0.0
H1122 H 0.57072 0.15928 0.21928 0.0
C1123 C 0.59017 0.17637 0.14027 0.0
C1124 C 0.55295 0.16862 0.1494 0.0
H1125 H 0.64878 0.18394 0.15201 0.0
H1126 H 0.59585 0.18149 0.11833 0.0
C1127 C 0.54684 0.16176 0.17809 0.0
C1128 C 0.19773 0.813 0.16811 0.0
C1129 C 0.1898 0.80531 0.19646 0.0
H1130 H 0.20178 0.79144 0.12627 0.0
C1131 C 0.18095 0.76771 0.20425 0.0
H1132 H 0.20458 0.84173 0.16134 0.0
C1133 C 0.18047 0.73844 0.18398 0.0
C1134 C 0.18797 0.74651 0.15555 0.0
H1135 H 0.17502 0.76088 0.2259 0.0
H1136 H 0.17308 0.70972 0.19041 0.0
C1137 C 0.19639 0.78417 0.14793 0.0
C1138 C 0.62353 0.93462 0.43539 0.0
C1139 C 0.61592 0.94162 0.40685 0.0
H1140 H 0.6004 0.92832 0.47703 0.0
C1141 C 0.57818 0.94814 0.39875 0.0
H1142 H 0.65227 0.9286 0.44221 0.0
C1143 C 0.54889 0.94815 0.41853 0.0
C1144 C 0.55615 0.94066 0.447 0.0
H1145 H 0.57122 0.95303 0.37698 0.0
H1146 H 0.52017 0.95367 0.41139 0.0
C1147 C 0.59384 0.93374 0.45527 0.0
C1148 C 0.42689 0.37342 0.67956 0.0
C1149 C 0.41998 0.36647 0.65093 0.0
H1150 H 0.43148 0.34945 0.72093 0.0
C1151 C 0.41099 0.32923 0.64242 0.0
H1152 H 0.43462 0.40177 0.68669 0.0
C1153 C 0.4088 0.29966 0.66195 0.0
C1154 C 0.41651 0.30623 0.69048 0.0
H1155 H 0.40597 0.32285 0.62055 0.0
H1156 H 0.40179 0.27126 0.65453 0.0
C1157 C 0.42562 0.34347 0.69913 0.0
C1158 C 1.01656 0.18523 0.95408 0.0
C1159 C 1.0538 0.17577 0.94602 0.0
H1160 H 0.9587 0.19366 0.94075 0.0
C1161 C 0.0609 0.16732 0.91764 0.0
H1162 H 1.01014 0.19158 0.97575 0.0
C1163 C 1.03189 0.16878 0.89772 0.0
C1164 C 0.99458 0.17782 0.90563 0.0
H1165 H 0.0893 0.15996 0.91064 0.0
H1166 H 1.03874 0.16297 0.87603 0.0
C1167 C 0.98711 0.18582 0.93409 0.0
C1168 C 0.90907 0.81649 0.66439 0.0
C1169 C 0.9159 0.81002 0.69303 0.0
H1170 H 0.90614 0.79289 0.62309 0.0
C1171 C 0.92317 0.77253 0.70197 0.0
H1172 H 0.90342 0.84505 0.65675 0.0
C1173 C 0.92355 0.74224 0.68255 0.0
C1174 C 0.91753 0.7491 0.65382 0.0
H1175 H 0.92823 0.76662 0.72388 0.0
H1176 H 0.93 0.7137 0.68986 0.0
C1177 C 0.91034 0.78658 0.64505 0.0
C1178 C 0.09485 0.18141 0.45469 0.0
C1179 C 0.05724 0.17389 0.44646 0.0
H1180 H 0.15322 0.18719 0.44162 0.0
C1181 C 1.05012 0.16593 0.41802 0.0
H1182 H 0.10133 0.18724 0.47642 0.0
C1183 C 0.07943 0.1661 0.39823 0.0
C1184 C 0.11708 0.17323 0.4063 0.0
H1185 H 1.02147 0.15997 0.41089 0.0
H1186 H 0.07254 0.16088 0.37648 0.0
C1187 C 0.12457 0.18067 0.43482 0.0
C1188 C 0.6823 0.37375 0.18058 0.0
C1189 C 0.68882 0.36662 0.1519 0.0
H1190 H 0.67769 0.34994 0.22205 0.0
C1191 C 0.69678 0.32914 0.14339 0.0
H1192 H 0.67534 0.40228 0.18773 0.0
C1193 C 0.69843 0.29955 0.16294 0.0
C1194 C 0.69125 0.30632 0.19154 0.0
H1195 H 0.70147 0.32259 0.12151 0.0
H1196 H 0.70475 0.271 0.15549 0.0
C1197 C 0.68307 0.34378 0.2002 0.0
C1198 C 0.53477 0.95138 0.89498 0.0
C1199 C 0.49749 0.94425 0.90405 0.0
H1200 H 0.59318 0.95844 0.9062 0.0
C1201 C 0.49108 0.93835 0.93287 0.0
H1202 H 0.54079 0.95553 0.87297 0.0
C1203 C 0.52151 0.93881 0.95204 0.0
C1204 C 0.55878 0.94607 0.94281 0.0
H1205 H 0.46274 0.93198 0.94046 0.0
H1206 H 0.51586 0.93383 0.974 0.0
C1207 C 0.56483 0.95278 0.91409 0.0
C1208 C 0.91406 0.30332 0.9256 0.0
C1209 C 0.92214 0.311 0.89726 0.0
H1210 H 0.90983 0.3249 0.96742 0.0
C1211 C 0.93111 0.34858 0.88949 0.0
H1212 H 0.90711 0.27461 0.93234 0.0
C1213 C 0.93156 0.37784 0.90976 0.0
C1214 C 0.92389 0.3698 0.93816 0.0
H1215 H 0.93716 0.35539 0.86785 0.0
H1216 H 0.93903 0.40655 0.90334 0.0
C1217 C 0.91536 0.33215 0.94577 0.0
C1218 C 0.51632 0.1809 0.63762 0.0
C1219 C 0.55376 0.17283 0.64592 0.0
H1220 H 0.45806 0.18773 0.65065 0.0
C1221 C 0.56079 0.16502 0.67437 0.0
H1222 H 0.50997 0.18668 0.61588 0.0
C1223 C 0.53151 0.1659 0.69413 0.0
C1224 C 0.49402 0.17359 0.68599 0.0
H1225 H 0.58935 0.15871 0.68151 0.0
H1226 H 0.53828 0.1608 0.71591 0.0
C1227 C 0.48661 0.18083 0.65746 0.0
C1228 C 0.69919 0.81658 0.42965 0.0
C1229 C 0.69218 0.80991 0.40105 0.0
H1230 H 0.70129 0.7935 0.47108 0.0
C1231 C 0.68334 0.77265 0.39231 0.0
H1232 H 0.70596 0.84502 0.43713 0.0
C1233 C 0.68174 0.74274 0.41189 0.0
C1234 C 0.68804 0.74979 0.44058 0.0
H1235 H 0.67802 0.76663 0.37044 0.0
H1236 H 0.6743 0.71434 0.40472 0.0
C1237 C 0.6967 0.78707 0.44917 0.0
C1238 C 0.07939 0.94658 0.19591 0.0
C1239 C 0.11681 0.93794 0.18803 0.0
H1240 H 1.0219 0.95491 0.18295 0.0
C1241 C 0.12437 0.93005 0.15957 0.0
H1242 H 0.07245 0.95229 0.2176 0.0
C1243 C 0.09493 0.93039 0.13955 0.0
C1244 C 0.05758 0.9395 0.14757 0.0
H1245 H 0.15285 0.92251 0.15291 0.0
H1246 H 0.10145 0.92416 0.11788 0.0
C1247 C 1.05038 0.94782 0.17597 0.0
C1248 C 0.68736 0.87435 0.91094 0.0
C1249 C 0.69318 0.86744 0.93969 0.0
H1250 H 0.68259 0.85005 0.86959 0.0
C1251 C 0.69983 0.82985 0.94846 0.0
H1252 H 0.68131 0.90298 0.90362 0.0
C1253 C 0.70085 0.79992 0.9291 0.0
C1254 C 0.69425 0.80648 0.90045 0.0
H1255 H 0.70386 0.82348 0.97043 0.0
H1256 H 0.70614 0.77129 0.93674 0.0
C1257 C 0.68745 0.84406 0.89151 0.0
C1258 C 0.48647 0.43401 0.15638 0.0
C1259 C 0.49405 0.44036 0.18503 0.0
H1260 H 0.50967 0.42868 0.11467 0.0
C1261 C 0.53178 0.44669 0.19324 0.0
H1262 H 0.45772 0.42817 0.14946 0.0
C1263 C 0.56109 0.44713 0.1735 0.0
C1264 C 0.55388 0.44032 0.14492 0.0
H1265 H 0.53873 0.45111 0.21508 0.0
H1266 H 0.5898 0.45246 0.18075 0.0
C1267 C 0.51619 0.43359 0.13651 0.0
C1268 C 0.92791 0.24153 0.41208 0.0
C1269 C 0.92121 0.24844 0.44075 0.0
H1270 H 0.93193 0.26556 0.37066 0.0
C1271 C 0.91205 0.28561 0.44932 0.0
H1272 H 0.93575 0.21323 0.40491 0.0
C1273 C 0.90947 0.31515 0.4298 0.0
C1274 C 0.91693 0.30864 0.40122 0.0
H1275 H 0.90717 0.29196 0.47121 0.0
H1276 H 0.90234 0.34349 0.43728 0.0
C1277 C 0.92625 0.27148 0.39251 0.0
C1278 C 1.04645 0.66417 0.67936 0.0
C1279 C 1.05256 0.67115 0.65068 0.0
H1280 H 0.0704 0.66114 0.7205 0.0
C1281 C 0.08983 0.67861 0.64154 0.0
H1282 H 1.0181 0.65835 0.68718 0.0
C1283 C 0.1202 0.67899 0.66075 0.0
C1284 C 0.11373 0.67281 0.68953 0.0
H1285 H 0.09552 0.68378 0.6196 0.0
H1286 H 0.14854 0.68551 0.65323 0.0
C1287 C 0.07646 0.6655 0.69852 0.0
C1288 C 0.67887 0.23884 0.68262 0.0
C1289 C 0.68641 0.24686 0.65419 0.0
H1290 H 0.67306 0.26137 0.72449 0.0
C1291 C 0.69441 0.2846 0.64651 0.0
H1292 H 0.67181 0.21006 0.6891 0.0
C1293 C 0.69532 0.31353 0.66662 0.0
C1294 C 0.6874 0.30586 0.69498 0.0
H1295 H 0.69982 0.29185 0.62484 0.0
H1296 H 0.70189 0.3423 0.65981 0.0
C1297 C 0.67895 0.26819 0.70283 0.0
C1298 C 0.07911 0.4502 0.89783 0.0
C1299 C 0.11659 0.44226 0.90585 0.0
H1300 H 1.02138 0.4577 0.91064 0.0
C1301 C 0.1241 0.43483 0.93435 0.0
H1302 H 0.07227 0.45546 0.87609 0.0
C1303 C 0.0945 0.43485 0.95427 0.0
C1304 C 0.05707 0.44319 0.94609 0.0
H1305 H 0.15264 0.42774 0.94107 0.0
H1306 H 0.10092 0.42892 0.97598 0.0
C1307 C 1.04993 0.45118 0.91769 0.0
C1308 C 0.92892 0.87283 0.18184 0.0
C1309 C 0.92214 0.86586 0.1532 0.0
H1310 H 0.93295 0.84888 0.22324 0.0
C1311 C 0.91277 0.82873 0.14467 0.0
H1312 H 0.93691 0.9011 0.18896 0.0
C1313 C 0.9101 0.79925 0.16421 0.0
C1314 C 0.91768 0.80582 0.19275 0.0
H1315 H 0.9078 0.82239 0.12279 0.0
H1316 H 0.90283 0.77091 0.15679 0.0
C1317 C 0.92717 0.84294 0.20141 0.0
C1318 C 0.51556 0.68124 0.45564 0.0
C1319 C 0.55316 0.67367 0.44738 0.0
H1320 H 0.45726 0.687 0.44253 0.0
C1321 C 0.5604 0.66546 0.41899 0.0
H1322 H 0.50905 0.68728 0.47734 0.0
C1323 C 0.53118 0.66542 0.39925 0.0
C1324 C 0.49357 0.6727 0.40731 0.0
H1325 H 0.58905 0.65947 0.41185 0.0
H1326 H 0.53814 0.66003 0.37751 0.0
C1327 C 0.48593 0.68037 0.43578 0.0
C1328 C 0.40946 0.31391 0.16297 0.0
C1329 C 0.41633 0.3075 0.19161 0.0
H1330 H 0.40657 0.29025 0.12167 0.0
C1331 C 0.42372 0.27004 0.20056 0.0
H1332 H 0.40375 0.34245 0.1553 0.0
C1333 C 0.42415 0.23973 0.18116 0.0
C1334 C 0.41809 0.24653 0.15242 0.0
H1335 H 0.42884 0.26418 0.22247 0.0
H1336 H 0.43067 0.21121 0.18848 0.0
C1337 C 0.41081 0.28399 0.14363 0.0
C1338 C 0.59471 0.68096 0.95464 0.0
C1339 C 0.55691 0.67459 0.94633 0.0
H1340 H 0.65321 0.68575 0.94158 0.0
C1341 C 0.54959 0.66771 0.91777 0.0
H1342 H 0.60136 0.68591 0.97645 0.0
C1343 C 0.57887 0.66776 0.89796 0.0
C1344 C 0.61671 0.67373 0.90608 0.0
H1345 H 0.52081 0.66262 0.91056 0.0
H1346 H 0.57181 0.66334 0.87614 0.0
C1347 C 0.62439 0.68014 0.93472 0.0
C1348 C 0.19854 0.80037 0.6648 0.0
C1349 C 0.19148 0.80704 0.69342 0.0
H1350 H 0.20133 0.82353 0.62342 0.0
C1351 C 0.18327 0.84443 0.70219 0.0
H1352 H 0.20488 0.77186 0.65727 0.0
C1353 C 0.18232 0.87446 0.68264 0.0
C1354 C 0.1887 0.8674 0.65394 0.0
H1355 H 0.17797 0.8505 0.72407 0.0
H1356 H 0.17531 0.90295 0.68985 0.0
C1357 C 0.19674 0.82999 0.64533 0.0
C1358 C 0.05992 0.44926 0.41887 0.0
C1359 C 1.05281 0.4418 0.44737 0.0
H1360 H 1.0375 0.45351 0.37736 0.0
C1361 C 1.01525 0.43426 0.45576 0.0
H1362 H 0.08854 0.4552 0.41162 0.0
C1363 C 0.98554 0.43449 0.43594 0.0
C1364 C 0.99304 0.44144 0.40736 0.0
H1365 H 1.00881 0.4288 0.47754 0.0
H1366 H 0.95691 0.428 0.44283 0.0
C1367 C 1.03063 0.44862 0.39916 0.0
C1368 C 0.41219 0.82854 0.44994 0.0
C1369 C 0.42092 0.86582 0.44145 0.0
H1370 H 0.40329 0.77048 0.43778 0.0
C1371 C 0.42778 0.87273 0.41281 0.0
H1372 H 0.40722 0.82218 0.47181 0.0
C1373 C 0.42666 0.84271 0.39321 0.0
C1374 C 0.41775 0.80544 0.40183 0.0
H1375 H 0.43532 0.90111 0.4057 0.0
H1376 H 0.43242 0.84867 0.37139 0.0
C1377 C 0.41014 0.7989 0.43037 0.0
C1378 C 0.9872 0.68101 0.15956 0.0
C1379 C 0.99463 0.67356 0.18807 0.0
H1380 H 1.01048 0.68714 0.11797 0.0
C1381 C 1.03215 0.66583 0.19613 0.0
H1382 H 0.95864 0.68795 0.15279 0.0
C1383 C 0.06142 0.66506 0.17631 0.0
C1384 C 1.05435 0.67308 0.14789 0.0
H1385 H 1.03896 0.66057 0.21787 0.0
H1386 H 0.08998 0.65867 0.1834 0.0
C1387 C 1.01688 0.68121 0.13968 0.0
C1388 C 0.18376 0.27257 0.89203 0.0
C1389 C 0.19337 0.30964 0.90076 0.0
H1390 H 0.174 0.21437 0.90436 0.0
C1391 C 0.20113 0.31605 0.92929 0.0
H1392 H 0.17784 0.26675 0.87021 0.0
C1393 C 0.19853 0.28647 0.94877 0.0
C1394 C 0.18905 0.2494 0.94017 0.0
H1395 H 0.20849 0.34434 0.93676 0.0
H1396 H 0.20364 0.2927 0.97064 0.0
C1397 C 0.18208 0.24259 0.91153 0.0
C1398 C 0.59259 0.4309 0.63799 0.0
C1399 C 0.55518 0.43983 0.64599 0.0
H1400 H 0.65052 0.42327 0.6514 0.0
C1401 C 0.5479 0.44812 0.67437 0.0
H1402 H 0.59917 0.42473 0.61632 0.0
C1403 C 0.57688 0.44703 0.69433 0.0
C1404 C 0.61435 0.43856 0.68648 0.0
H1405 H 0.51938 0.4551 0.68132 0.0
H1406 H 0.56989 0.45272 0.71602 0.0
C1407 C 0.62199 0.4307 0.65803 0.0
C1408 C 1.04941 0.26872 0.22886 0.0
C1409 C 0.08592 0.2833 0.23438 0.0
H1410 H 0.99033 0.2823 0.22759 0.0
C1411 C 0.09231 0.32197 0.22766 0.0
H1412 H 1.04313 0.23857 0.2305 0.0
C1413 C 0.06172 0.3473 0.22919 0.0
C1414 C 1.02522 0.33265 0.23468 0.0
H1415 H 0.12082 0.33369 0.22767 0.0
H1416 H 0.06805 0.37742 0.23107 0.0
C1417 C 1.01882 0.29407 0.22764 0.0
C1418 C 0.07567 0.76946 0.47819 0.0
C1419 C 1.03704 0.777 0.48395 0.0
H1420 H 0.13114 0.79357 0.48028 0.0
C1421 C 1.02314 0.81319 0.47635 0.0
H1422 H 0.08699 0.7408 0.47994 0.0
C1423 C 1.04888 0.84326 0.4731 0.0
C1424 C 0.0871 0.83727 0.48085 0.0
H1425 H 0.99321 0.82007 0.47752 0.0
H1426 H 1.03761 0.87193 0.47125 0.0
C1427 C 0.10125 0.79996 0.47776 0.0
C1428 C 0.56186 0.8467 0.72733 0.0
C1429 C 0.52524 0.83226 0.73272 0.0
H1430 H 0.62093 0.83299 0.72659 0.0
C1431 C 0.51887 0.79356 0.72601 0.0
H1432 H 0.56819 0.87685 0.72887 0.0
C1433 C 0.54935 0.76817 0.72785 0.0
C1434 C 0.58581 0.78278 0.73354 0.0
H1435 H 0.49033 0.78191 0.72582 0.0
H1436 H 0.54293 0.73809 0.72979 0.0
C1437 C 0.59241 0.82129 0.72646 0.0
C1438 C 0.57685 0.2673 0.97737 0.0
C1439 C 0.53813 0.27458 0.98299 0.0
H1440 H 0.63214 0.29184 0.9792 0.0
C1441 C 0.52399 0.3106 0.97518 0.0
H1442 H 0.58841 0.23875 0.97924 0.0
C1443 C 0.5495 0.34081 0.97169 0.0
C1444 C 0.58778 0.33524 0.97943 0.0
H1445 H 0.49401 0.31728 0.97622 0.0
H1446 H 0.538 0.36936 0.96955 0.0
C1447 C 0.6022 0.29797 0.97669 0.0
C1448 C 0.05966 0.776 0.36655 0.0
C1449 C 1.02386 0.79053 0.35891 0.0
H1450 H 0.11836 0.78949 0.37179 0.0
C1451 C 1.01705 0.82948 0.3646 0.0
H1452 H 0.06601 0.74582 0.36557 0.0
C1453 C 1.04785 0.85465 0.365 0.0
C1454 C 0.08477 0.83979 0.362 0.0
H1455 H 0.98871 0.84137 0.36296 0.0
H1456 H 1.04199 0.88477 0.36255 0.0
C1457 C 0.09004 0.80133 0.36978 0.0
C1458 C 0.56897 0.8451 0.61963 0.0
C1459 C 0.53042 0.83843 0.61306 0.0
H1460 H 0.62446 0.82126 0.61621 0.0
C1461 C 0.51633 0.80155 0.61831 0.0
H1462 H 0.58038 0.87384 0.61984 0.0
C1463 C 0.5419 0.7711 0.61976 0.0
C1464 C 0.58041 0.77772 0.61294 0.0
H1465 H 0.48637 0.79496 0.6166 0.0
H1466 H 0.53046 0.74238 0.62014 0.0
C1467 C 0.59453 0.81464 0.61809 0.0
C1468 C 0.54543 0.35539 0.86373 0.0
C1469 C 0.58249 0.34082 0.8609 0.0
H1470 H 0.48646 0.34166 0.86113 0.0
C1471 C 0.58799 0.30243 0.86878 0.0
H1472 H 0.53942 0.38548 0.86122 0.0
C1473 C 0.55787 0.27685 0.86528 0.0
C1474 C 0.52209 0.29111 0.85733 0.0
H1475 H 0.61641 0.29088 0.87091 0.0
H1476 H 0.56451 0.24673 0.86424 0.0
C1477 C 0.51485 0.32998 0.86305 0.0
C1478 C 1.04128 0.27134 0.11824 0.0
C1479 C 0.07991 0.27781 0.11173 0.0
H1480 H 0.98587 0.29527 0.1144 0.0
C1481 C 0.09404 0.31474 0.11677 0.0
H1482 H 1.0298 0.24264 0.11867 0.0
C1483 C 0.06853 0.34528 0.1179 0.0
C1484 C 1.03006 0.33863 0.11108 0.0
H1485 H 0.12402 0.32124 0.11513 0.0
H1486 H 0.08004 0.37398 0.11806 0.0
C1487 C 1.0158 0.30183 0.11636 0.0
C1488 C 0.09124 0.82329 0.86728 0.0
C1489 C 0.08501 0.78455 0.86062 0.0
H1490 H 0.06704 0.87869 0.86344 0.0
C1491 C 1.0484 0.77002 0.86592 0.0
H1492 H 0.11974 0.83501 0.86755 0.0
C1493 C 1.01777 0.79534 0.86672 0.0
C1494 C 1.02427 0.83388 0.85967 0.0
H1495 H 1.04216 0.73985 0.86441 0.0
H1496 H 0.98928 0.78357 0.86659 0.0
C1497 C 0.06068 0.84859 0.86537 0.0
C1498 C 1.0156 0.31496 0.6176 0.0
C1499 C 1.03013 0.27825 0.61231 0.0
H1500 H 1.02907 0.37425 0.61992 0.0
C1501 C 0.06867 0.27197 0.61908 0.0
H1502 H 0.9856 0.32123 0.61574 0.0
C1503 C 0.09392 0.30272 0.61793 0.0
C1504 C 0.0795 0.33952 0.61289 0.0
H1505 H 0.08038 0.24336 0.61925 0.0
H1506 H 0.12395 0.29644 0.61631 0.0
C1507 C 1.04083 0.34568 0.61943 0.0
C1508 C 0.59179 0.32289 0.36613 0.0
C1509 C 0.58549 0.28416 0.35952 0.0
H1510 H 0.56764 0.37829 0.36216 0.0
C1511 C 0.54891 0.26967 0.36501 0.0
H1512 H 0.62032 0.33459 0.36626 0.0
C1513 C 0.51831 0.29503 0.36578 0.0
C1514 C 0.52484 0.33348 0.35849 0.0
H1515 H 0.54265 0.2395 0.36359 0.0
H1516 H 0.48981 0.28329 0.36573 0.0
C1517 C 0.56125 0.34821 0.36419 0.0
C1518 C 0.535 0.84771 0.11494 0.0
C1519 C 0.5737 0.84034 0.10932 0.0
H1520 H 0.47962 0.82339 0.11275 0.0
C1521 C 0.58768 0.80419 0.11694 0.0
H1522 H 0.52356 0.87633 0.11325 0.0
C1523 C 0.56205 0.77401 0.12011 0.0
C1524 C 0.52382 0.77984 0.11234 0.0
H1525 H 0.61764 0.79741 0.11591 0.0
H1526 H 0.57344 0.74539 0.12203 0.0
C1527 C 0.50953 0.81712 0.11532 0.0
C1528 C 0.09455 0.28662 0.72874 0.0
C1529 C 0.08756 0.32555 0.73443 0.0
H1530 H 0.06981 0.23124 0.7309 0.0
C1531 C 1.05173 0.33993 0.72672 0.0
H1532 H 0.12293 0.27486 0.73043 0.0
C1533 C 1.02145 0.31448 0.72351 0.0
C1534 C 1.02689 0.27607 0.73138 0.0
H1535 H 1.04527 0.37009 0.72771 0.0
H1536 H 0.99307 0.32617 0.72154 0.0
C1537 C 0.06385 0.26133 0.72835 0.0
C1538 C 0.51728 0.30089 0.4751 0.0
C1539 C 0.53126 0.33787 0.48014 0.0
H1540 H 0.53145 0.2417 0.47388 0.0
C1541 C 0.56993 0.34445 0.47381 0.0
H1542 H 0.4873 0.29432 0.47665 0.0
C1543 C 0.59549 0.31404 0.4758 0.0
C1544 C 0.5813 0.27719 0.48102 0.0
H1545 H 0.58133 0.37318 0.47346 0.0
H1546 H 0.62538 0.32069 0.47787 0.0
C1547 C 0.54288 0.27042 0.47408 0.0
C1548 C 0.54938 0.84662 0.22875 0.0
C1549 C 0.5861 0.83246 0.23404 0.0
H1550 H 0.49041 0.83238 0.22808 0.0
C1551 C 0.59279 0.79386 0.22721 0.0
H1552 H 0.54281 0.87671 0.23044 0.0
C1553 C 0.5625 0.76819 0.22904 0.0
C1554 C 0.52594 0.78247 0.23481 0.0
H1555 H 0.62142 0.78246 0.227 0.0
H1556 H 0.56915 0.73815 0.23096 0.0
C1557 C 0.51903 0.82094 0.22782 0.0
C1558 C 1.01757 0.80056 0.97634 0.0
C1559 C 1.0316 0.83754 0.98137 0.0
H1560 H 1.03174 0.74136 0.97529 0.0
C1561 C 0.0702 0.84411 0.97481 0.0
H1562 H 0.98761 0.79399 0.97801 0.0
C1563 C 0.09577 0.81371 0.9768 0.0
C1564 C 0.08159 0.77691 0.9822 0.0
H1565 H 0.08159 0.87285 0.97441 0.0
H1566 H 0.12568 0.82036 0.97882 0.0
C1567 C 1.04317 0.77009 0.9753 0.0
C1568 C 0.31862 0.2835 0.31728 0.0
C1569 C 0.28274 0.27659 0.30521 0.0
H1570 H 0.3688 0.3184 0.31809 0.0
C1571 C 0.27001 0.3018 0.28425 0.0
H1572 H 0.32924 0.26518 0.33375 0.0
C1573 C 0.2925 0.33281 0.27557 0.0
C1574 C 0.32841 0.33969 0.28761 0.0
H1575 H 0.24234 0.29789 0.27473 0.0
H1576 H 0.28189 0.35111 0.25907 0.0
C1577 C 0.34111 0.31452 0.30859 0.0
C1578 C 1.03114 1.04416 0.52668 0.0
C1579 C 1.02364 0.07994 0.5389 0.0
H1580 H 0.06733 0.995 0.52524 0.0
C1581 C 1.04885 0.09364 0.55951 0.0
H1582 H 1.01284 1.03295 0.51041 0.0
C1583 C 0.08059 0.07215 0.56769 0.0
C1584 C 0.08809 1.03637 0.55547 0.0
H1585 H 1.0444 0.12133 0.56911 0.0
H1586 H 0.09888 0.08336 0.58397 0.0
C1587 C 0.06289 1.02269 0.53485 0.0
C1588 C 0.293 0.83288 0.81813 0.0
C1589 C 0.3286 0.83985 0.80558 0.0
H1590 H 0.24284 0.79796 0.81955 0.0
C1591 C 0.34077 0.81469 0.78431 0.0
H1592 H 0.2828 0.85114 0.83484 0.0
C1593 C 0.31805 0.78369 0.77582 0.0
C1594 C 0.28244 0.77673 0.78837 0.0
H1595 H 0.3682 0.81862 0.77439 0.0
H1596 H 0.32826 0.76544 0.75911 0.0
C1597 C 0.27028 0.80188 0.80964 0.0
C1598 C 0.54918 0.09242 1.03303 0.0
C1599 C 0.52401 0.07973 0.05401 0.0
H1600 H 0.59905 0.08084 1.00854 0.0
C1601 C 0.53144 1.04435 0.06684 0.0
H1602 H 0.54484 0.11976 1.02295 0.0
C1603 C 0.56301 1.02229 0.0589 0.0
C1604 C 0.58817 1.03497 1.03791 0.0
H1605 H 0.51313 1.03384 0.08337 0.0
H1606 H 0.56733 0.99495 0.06898 0.0
C1607 C 0.58074 0.07035 1.02507 0.0
C1608 C 0.3437 0.80169 0.28496 0.0
C1609 C 0.3303 0.77589 0.30533 0.0
H1610 H 0.33274 0.85191 0.26055 0.0
C1611 C 0.29425 0.78268 0.31719 0.0
H1612 H 0.37154 0.79788 0.27565 0.0
C1613 C 0.27224 0.81415 0.30887 0.0
C1614 C 0.2856 0.83993 0.28847 0.0
H1615 H 0.28314 0.76392 0.33324 0.0
H1616 H 0.2444 0.81791 0.31819 0.0
C1617 C 0.32169 0.83319 0.27664 0.0
C1618 C 0.56242 0.09279 0.53389 0.0
C1619 C 0.58834 0.07901 0.55394 0.0
H1620 H 0.51149 0.08259 0.51038 0.0
C1621 C 0.58127 1.04316 0.56613 0.0
H1622 H 0.56652 0.12054 0.52436 0.0
C1623 C 0.54921 1.02174 0.55851 0.0
C1624 C 0.52327 1.03552 0.53848 0.0
H1625 H 0.60013 1.03187 0.58199 0.0
H1626 H 0.54511 0.99402 0.56809 0.0
C1627 C 0.53037 0.07133 0.52624 0.0
C1628 C 0.29213 0.28304 0.77507 0.0
C1629 C 0.32809 0.27646 0.78709 0.0
H1630 H 0.24186 0.31775 0.77417 0.0
C1631 C 0.34082 0.30201 0.80789 0.0
H1632 H 0.28151 0.26445 0.75872 0.0
C1633 C 0.31829 0.33306 0.81645 0.0
C1634 C 0.28233 0.33964 0.80443 0.0
H1635 H 0.36855 0.29836 0.81737 0.0
H1636 H 0.32891 0.35165 0.8328 0.0
C1637 C 0.26959 0.3141 0.78363 0.0
C1638 C 0.08064 1.04348 1.02604 0.0
C1639 C 0.08782 0.07947 1.03803 0.0
H1640 H 1.04499 0.99385 1.02504 0.0
C1641 C 0.06255 0.09305 0.05868 0.0
H1642 H 0.09899 1.03232 1.00975 0.0
C1643 C 1.03108 0.07127 0.06712 0.0
C1644 C 1.0239 1.03527 0.05513 0.0
H1645 H 0.06673 0.12089 0.06813 0.0
H1646 H 1.01272 0.08243 0.08341 0.0
C1647 C 1.04917 1.02169 1.03448 0.0
C1648 C 0.76955 0.80185 0.7841 0.0
C1649 C 0.78225 0.77637 0.80488 0.0
H1650 H 0.78125 0.85179 0.75956 0.0
C1651 C 0.81789 0.78339 0.81729 0.0
H1652 H 0.74205 0.79786 0.77434 0.0
C1653 C 0.84016 0.81482 0.80913 0.0
C1654 C 0.82746 0.84029 0.78834 0.0
H1655 H 0.82847 0.76487 0.83366 0.0
H1656 H 0.86767 0.8188 0.81888 0.0
C1657 C 0.79182 0.83327 0.77593 0.0
C1658 C 0.84025 0.31459 0.28386 0.0
C1659 C 0.82764 0.33978 0.30497 0.0
H1660 H 0.82816 0.26534 0.25853 0.0
C1661 C 0.79172 0.33296 0.31705 0.0
H1662 H 0.86794 0.31842 0.27432 0.0
C1663 C 0.76913 0.30203 0.3083 0.0
C1664 C 0.78173 0.27682 0.28722 0.0
H1665 H 0.78116 0.35125 0.33362 0.0
H1666 H 0.74147 0.29819 0.31789 0.0
C1667 C 0.81763 0.28366 0.27509 0.0
C1668 C 0.81861 0.33384 0.77591 0.0
C1669 C 0.78235 0.34049 0.78743 0.0
H1670 H 0.86855 0.29872 0.77538 0.0
C1671 C 0.76871 0.3147 0.80773 0.0
H1672 H 0.82988 0.35257 0.75991 0.0
C1673 C 0.79065 0.28331 0.81627 0.0
C1674 C 0.8269 0.27665 0.80475 0.0
H1675 H 0.74071 0.31842 0.81681 0.0
H1676 H 0.77937 0.26458 0.83227 0.0
C1677 C 0.84056 0.30245 0.78446 0.0
C1678 C 0.76989 0.81459 0.28486 0.0
C1679 C 0.7825 0.84024 0.30564 0.0
H1680 H 0.78187 0.76472 0.26019 0.0
C1681 C 0.81833 0.83359 0.31785 0.0
H1682 H 0.74226 0.81826 0.27524 0.0
C1683 C 0.84086 0.80239 0.30952 0.0
C1684 C 0.82824 0.77673 0.28876 0.0
H1685 H 0.82887 0.85225 0.3342 0.0
H1686 H 0.86848 0.79871 0.31914 0.0
C1687 C 0.79241 0.78338 0.27653 0.0
C1688 C 0.56254 0.52254 1.03331 0.0
C1689 C 0.58785 0.53605 0.05392 0.0
H1690 H 0.51229 0.53296 1.00909 0.0
C1691 C 0.58028 0.57167 0.06639 0.0
H1692 H 0.56701 0.49497 1.02351 0.0
C1693 C 0.5484 0.59315 0.05846 0.0
C1694 C 0.52309 0.57965 1.03784 0.0
H1695 H 0.59864 0.58274 0.08267 0.0
H1696 H 0.54394 0.62071 0.06825 0.0
C1697 C 0.53066 0.54403 1.02537 0.0
C1698 C 1.04883 0.59604 0.53416 0.0
C1699 C 1.02359 0.58303 0.555 0.0
H1700 H 0.09864 0.58469 0.50954 0.0
C1701 C 1.03089 0.54744 0.56752 0.0
H1702 H 1.04457 0.62356 0.52434 0.0
C1703 C 0.06236 0.52544 0.55937 0.0
C1704 C 0.08757 0.53838 0.53849 0.0
H1705 H 1.01253 0.5367 0.58394 0.0
H1706 H 0.06657 0.49791 0.5692 0.0
C1707 C 0.08033 0.57402 0.52601 0.0
C1708 C 0.06214 0.59411 1.03506 0.0
C1709 C 0.08804 0.57991 0.05497 0.0
H1710 H 1.01134 0.58438 1.01135 0.0
C1711 C 0.08102 0.54378 0.06671 0.0
H1712 H 0.06621 0.62208 1.02587 0.0
C1713 C 1.04906 0.52244 0.05874 0.0
C1714 C 1.02317 0.53664 1.03883 0.0
H1715 H 0.09987 0.53217 0.08245 0.0
H1716 H 1.045 0.49446 0.06793 0.0
C1717 C 1.03018 0.57278 1.0271 0.0
C1718 C 0.54911 0.52236 0.534 0.0
C1719 C 0.52337 0.53597 0.55433 0.0
H1720 H 0.59971 0.53281 0.51011 0.0
C1721 C 0.53058 0.57171 0.56671 0.0
H1722 H 0.54491 0.4947 0.5243 0.0
C1723 C 0.56251 0.59326 0.55893 0.0
C1724 C 0.58821 0.5797 0.53856 0.0
H1725 H 0.51188 0.58285 0.58279 0.0
H1726 H 0.56668 0.62094 0.56862 0.0
C1727 C 0.58103 0.54393 0.52622 0.0
C1728 C 0.3876 0.12073 0.3581 0.0
C1729 C 0.38152 0.15058 0.37726 0.0
H1730 H 0.41574 0.06737 0.35212 0.0
C1731 C 0.41017 0.16015 0.39628 0.0
H1732 H 0.36659 0.11421 0.34222 0.0
C1733 C 0.43884 0.13382 0.40141 0.0
C1734 C 0.4372 0.09794 0.38815 0.0
H1735 H 0.40683 0.18403 0.41052 0.0
H1736 H 0.45645 0.13838 0.41968 0.0
C1737 C 0.41595 0.09413 0.36354 0.0
C1738 C 0.22306 0.12124 0.73638 0.0
C1739 C 0.22925 0.1506 0.7169 0.0
H1740 H 0.19372 0.06877 0.7433 0.0
C1741 C 0.20019 0.16054 0.69833 0.0
H1742 H 0.24436 0.11452 0.75198 0.0
C1743 C 0.17067 0.13486 0.69395 0.0
C1744 C 0.17204 0.0991 0.70731 0.0
H1745 H 0.20356 0.18412 0.68389 0.0
H1746 H 0.15257 0.13954 0.67596 0.0
C1747 C 0.19378 0.09533 0.73169 0.0
C1748 C 0.17355 0.981 0.90109 0.0
C1749 C 0.17451 1.01643 0.88724 0.0
H1750 H 0.20669 0.93209 0.9115 0.0
C1751 C 0.19634 1.01996 0.86285 0.0
H1752 H 0.1555 0.9766 0.91917 0.0
C1753 C 0.22571 0.99411 0.85832 0.0
C1754 C 0.23202 0.96506 0.87801 0.0
H1755 H 0.19605 1.04629 0.85097 0.0
H1756 H 0.24693 1.00066 0.84259 0.0
C1757 C 0.20315 0.95538 0.89684 0.0
C1758 C 0.38318 0.92181 0.14972 0.0
C1759 C 0.34752 0.9223 0.13639 0.0
H1760 H 0.432 0.95558 0.15896 0.0
C1761 C 0.34343 0.94319 0.11161 0.0
H1762 H 0.38805 0.90435 0.16805 0.0
C1763 C 0.36897 0.97259 0.10623 0.0
C1764 C 0.39826 0.97981 0.12549 0.0
H1765 H 0.31692 0.94241 0.10009 0.0
H1766 H 0.362 0.9933 0.09021 0.0
C1767 C 0.40849 0.95146 0.14464 0.0
C1768 C 0.72077 0.99363 0.7356 0.0
C1769 C 0.72776 0.96398 0.71645 0.0
H1770 H 0.69133 1.0463 0.74143 0.0
C1771 C 0.6995 0.95373 0.69729 0.0
H1772 H 0.74145 1.00062 0.75161 0.0
C1773 C 0.6703 0.9794 0.69201 0.0
C1774 C 0.67112 1.01536 0.70518 0.0
H1775 H 0.70349 0.92993 0.68308 0.0
H1776 H 0.653 0.97444 0.67362 0.0
C1777 C 0.69184 1.01955 0.73001 0.0
C1778 C 0.91613 1.02025 0.36331 0.0
C1779 C 0.93757 1.01632 0.38781 0.0
H1780 H 0.86607 1.00094 0.34244 0.0
C1781 C 0.93881 0.9805 0.40109 0.0
H1782 H 0.91629 1.04692 0.35184 0.0
C1783 C 0.90957 0.95465 0.39626 0.0
C1784 C 0.88082 0.96458 0.37745 0.0
H1785 H 0.95662 0.9758 0.41923 0.0
H1786 H 0.90604 0.93094 0.41058 0.0
C1787 C 0.88716 0.99416 0.35818 0.0
C1788 C 0.93744 0.13458 0.19146 0.0
C1789 C 0.9364 0.09922 0.20541 0.0
H1790 H 0.9045 0.18366 0.18108 0.0
C1791 C 0.91461 0.09584 0.22983 0.0
H1792 H 0.95543 0.13883 0.17332 0.0
C1793 C 0.88543 0.12188 0.2344 0.0
C1794 C 0.87919 0.15092 0.2147 0.0
H1795 H 0.91482 0.06954 0.24174 0.0
H1796 H 0.86423 0.11548 0.25019 0.0
C1797 C 0.90801 0.16038 0.19576 0.0
C1798 C 0.74166 0.14209 0.98582 0.0
C1799 C 0.71288 0.1346 0.96621 0.0
H1800 H 0.79304 0.17306 0.99276 0.0
C1801 C 0.70269 0.16292 0.94701 0.0
H1802 H 0.74855 0.12138 1.00185 0.0
C1803 C 0.72762 0.19304 0.9424 0.0
C1804 C 0.76296 0.19301 0.95617 0.0
H1805 H 0.67954 0.15853 0.93242 0.0
H1806 H 0.72289 0.21054 0.92406 0.0
C1807 C 0.76681 0.17198 0.98091 0.0
C1808 C 0.91049 0.66282 0.8958 0.0
C1809 C 0.88225 0.65249 0.87664 0.0
H1810 H 0.95717 0.6423 0.91937 0.0
C1811 C 0.88935 0.62291 0.85745 0.0
H1812 H 0.9064 0.68655 0.91006 0.0
C1813 C 0.91845 0.59716 0.86295 0.0
C1814 C 0.93922 0.6014 0.88775 0.0
H1815 H 0.86869 0.61586 0.84145 0.0
H1816 H 0.9191 0.57044 0.85148 0.0
C1817 C 0.93987 0.63731 0.90099 0.0
C1818 C 0.69392 0.59392 0.23012 0.0
C1819 C 0.67273 0.59807 0.20552 0.0
H1820 H 0.74381 0.61292 0.25136 0.0
C1821 C 0.67186 0.63391 0.19227 0.0
H1822 H 0.69348 0.5672 0.24153 0.0
C1823 C 0.70118 0.65959 0.19732 0.0
C1824 C 0.72964 0.64951 0.21634 0.0
H1825 H 0.65427 0.63874 0.17403 0.0
H1826 H 0.70494 0.68335 0.1831 0.0
C1827 C 0.72297 0.61982 0.23547 0.0
C1828 C 0.69984 0.45523 0.39583 0.0
C1829 C 0.72886 0.46468 0.37705 0.0
H1830 H 0.6531 0.4771 0.41878 0.0
C1831 C 0.72316 0.49441 0.35781 0.0
H1832 H 0.7029 0.43144 0.41011 0.0
C1833 C 0.69464 0.521 0.36292 0.0
C1834 C 0.67296 0.5174 0.38737 0.0
H1835 H 0.74449 0.50083 0.34212 0.0
H1836 H 0.69501 0.54765 0.35143 0.0
C1837 C 0.67106 0.48158 0.40065 0.0
C1838 C 0.84353 0.4459 0.61197 0.0
C1839 C 0.84696 0.42476 0.63669 0.0
H1840 H 0.86265 0.49618 0.59105 0.0
C1841 C 0.88215 0.42436 0.65068 0.0
H1842 H 0.81738 0.44511 0.60001 0.0
C1843 C 0.90757 0.45409 0.6461 0.0
C1844 C 0.89794 0.48247 0.62681 0.0
H1845 H 0.88647 0.40682 0.66904 0.0
H1846 H 0.93065 0.4582 0.66079 0.0
C1847 C 0.86917 0.47538 0.60711 0.0
C1848 C 0.22268 0.49185 0.23519 0.0
C1849 C 0.22902 0.46237 0.21578 0.0
H1850 H 0.19374 0.54465 0.24174 0.0
C1851 C 0.2003 0.45259 0.19687 0.0
H1852 H 0.24375 0.49849 0.25099 0.0
C1853 C 0.17119 0.47856 0.19208 0.0
C1854 C 0.17254 0.51433 0.20551 0.0
H1855 H 0.20383 0.42894 0.18245 0.0
H1856 H 0.15348 0.47397 0.17386 0.0
C1857 C 0.19381 0.51804 0.23012 0.0
C1858 C 0.41649 0.52135 0.86189 0.0
C1859 C 0.43796 0.51737 0.88637 0.0
H1860 H 0.36641 0.50207 0.84102 0.0
C1861 C 0.43927 0.4815 0.89957 0.0
H1862 H 0.41661 0.54806 0.85046 0.0
C1863 C 0.41003 0.45565 0.89474 0.0
C1864 C 0.38123 0.46561 0.87596 0.0
H1865 H 0.45713 0.47676 0.91768 0.0
H1866 H 0.40658 0.43189 0.909 0.0
C1867 C 0.38751 0.49527 0.85674 0.0
C1868 C 0.43671 0.63431 0.69121 0.0
C1869 C 0.43544 0.59857 0.70461 0.0
H1870 H 0.40416 0.68398 0.68177 0.0
C1871 C 0.41391 0.59471 0.72911 0.0
H1872 H 0.45453 0.63888 0.67302 0.0
C1873 C 0.38508 0.62092 0.73428 0.0
C1874 C 0.37888 0.65055 0.71504 0.0
H1875 H 0.41398 0.56807 0.74062 0.0
H1876 H 0.36399 0.61429 0.7501 0.0
C1877 C 0.4076 0.66028 0.69609 0.0
C1878 C 0.19469 0.59365 0.3622 0.0
C1879 C 0.17299 0.59779 0.38661 0.0
H1880 H 0.24477 0.61305 0.34135 0.0
C1881 C 0.17139 0.6338 0.39969 0.0
H1882 H 0.19481 0.56682 0.35087 0.0
C1883 C 0.20046 0.6598 0.39479 0.0
C1884 C 0.22945 0.64982 0.37611 0.0
H1885 H 0.15339 0.63866 0.41774 0.0
H1886 H 0.20368 0.68374 0.40898 0.0
C1887 C 0.22349 0.6199 0.35699 0.0
C1888 C 0.1771 0.07725 0.29821 0.0
C1889 C 0.2108 0.097 0.30515 0.0
H1890 H 0.1514 1.02529 0.28291 0.0
C1891 C 0.24554 0.07773 0.3004 0.0
H1892 H 0.14977 0.09067 0.30175 0.0
C1893 C 0.24653 1.04051 0.28858 0.0
C1894 C 0.21276 1.02044 0.28232 0.0
H1895 H 0.27214 0.09166 0.30557 0.0
H1896 H 0.27382 1.02708 0.28491 0.0
C1897 C 0.17805 1.03948 0.28754 0.0
C1898 C 0.28671 0.93125 0.55372 0.0
C1899 C 0.2676 0.96574 0.55984 0.0
H1900 H 0.33771 0.90378 0.53865 0.0
C1901 C 0.28724 1.00005 0.55403 0.0
H1902 H 0.2729 0.90421 0.55797 0.0
C1903 C 0.32414 0.99979 0.54188 0.0
C1904 C 0.3435 0.96522 0.53632 0.0
H1905 H 0.27374 1.02721 0.55839 0.0
H1906 H 0.33782 1.02677 0.53725 0.0
C1907 C 0.32415 0.931 0.54274 0.0
C1908 C 0.43806 0.07761 0.79119 0.0
C1909 C 0.40378 0.09731 0.78596 0.0
H1910 H 0.46508 1.02531 0.80443 0.0
C1911 C 0.36953 0.07748 0.79118 0.0
H1912 H 0.46503 0.09151 0.78714 0.0
C1913 C 0.36956 1.0398 0.80197 0.0
C1914 C 0.40384 1.0198 0.80662 0.0
H1915 H 0.34254 0.09136 0.78724 0.0
H1916 H 0.34261 1.02604 0.80632 0.0
C1917 C 0.43808 1.03935 0.80084 0.0
C1918 C 0.28699 0.18675 1.03738 0.0
C1919 C 0.26766 0.15207 1.03227 0.0
H1920 H 0.33868 0.21465 0.05068 0.0
C1921 C 0.28775 0.11794 1.0376 0.0
H1922 H 0.27283 0.21366 1.03335 0.0
C1923 C 0.32527 0.11854 0.04847 0.0
C1924 C 0.34482 0.15325 0.05311 0.0
H1925 H 0.27412 0.09066 1.03389 0.0
H1926 H 0.3392 0.09167 0.05302 0.0
C1927 C 0.32504 0.18733 0.0471 0.0
C1928 C 0.86558 1.03913 0.79328 0.0
C1929 C 0.90023 1.01977 0.78841 0.0
H1930 H 0.83758 0.08987 0.80886 0.0
C1931 C 0.93405 1.03937 0.79521 0.0
H1932 H 0.8389 1.02528 0.78821 0.0
C1933 C 0.93331 0.07713 0.80587 0.0
C1934 C 0.89869 0.09626 0.8112 0.0
H1935 H 0.96131 1.02584 0.79156 0.0
H1936 H 0.96003 0.09122 0.81041 0.0
C1937 C 0.8648 0.07633 0.80508 0.0
C1938 C 0.78714 0.18469 0.55239 0.0
C1939 C 0.76784 0.15031 0.55845 0.0
H1940 H 0.83843 0.21189 0.5376 0.0
C1941 C 0.78743 0.11591 0.55281 0.0
H1942 H 0.77339 0.2118 0.55654 0.0
C1943 C 0.82447 0.11596 0.5409 0.0
C1944 C 0.84404 0.15041 0.53542 0.0
H1945 H 0.7738 0.08881 0.55716 0.0
H1946 H 0.8381 0.0889 0.5364 0.0
C1947 C 0.82472 0.18474 0.54164 0.0
C1948 C 0.67318 1.03939 0.30194 0.0
C1949 C 0.70747 1.01989 0.30749 0.0
H1950 H 0.6461 0.09141 0.28825 0.0
C1951 C 0.74172 1.03979 0.3024 0.0
H1952 H 0.64621 1.0254 0.30585 0.0
C1953 C 0.74165 0.07736 0.2914 0.0
C1954 C 0.70734 0.09713 0.28642 0.0
H1955 H 0.76871 1.02603 0.30654 0.0
H1956 H 0.76859 0.09119 0.28714 0.0
C1957 C 0.67311 0.07752 0.29209 0.0
C1958 C 0.82397 0.99672 0.05492 0.0
C1959 C 0.84406 0.96265 0.06044 0.0
H1960 H 0.77264 1.02285 1.03914 0.0
C1961 C 0.82483 0.92792 0.05528 0.0
H1962 H 0.83751 1.02404 0.05865 0.0
C1963 C 0.78688 0.92725 1.04533 0.0
C1964 C 0.76711 0.96127 1.03912 0.0
H1965 H 0.83899 0.90106 0.05944 0.0
H1966 H 0.77333 0.89989 1.04174 0.0
C1967 C 0.78656 0.99602 1.04382 0.0
C1968 C 0.74384 0.57755 0.79944 0.0
C1969 C 0.70926 0.59697 0.80447 0.0
H1970 H 0.77164 0.52688 0.78354 0.0
C1971 C 0.67537 0.57752 0.79762 0.0
H1972 H 0.77057 0.59127 0.80452 0.0
C1973 C 0.67597 0.53985 0.78675 0.0
C1974 C 0.71051 0.52067 0.78125 0.0
H1975 H 0.64815 0.59109 0.80138 0.0
H1976 H 0.64919 0.52588 0.78219 0.0
C1977 C 0.74447 0.54045 0.78743 0.0
C1978 C 0.8246 0.4317 1.04063 0.0
C1979 C 0.84386 0.46609 1.03453 0.0
H1980 H 0.77342 0.4045 0.05556 0.0
C1981 C 0.82436 0.5005 1.04032 0.0
H1982 H 0.83829 0.40459 1.03637 0.0
C1983 C 0.78742 0.50045 0.0524 0.0
C1984 C 0.7679 0.46598 0.0579 0.0
H1985 H 0.83797 0.52759 1.03595 0.0
H1986 H 0.77382 0.5275 0.05696 0.0
C1987 C 0.78713 0.43165 0.05154 0.0
C1988 C 0.93728 0.53889 0.30284 0.0
C1989 C 0.90289 0.51946 0.30834 0.0
H1990 H 0.96461 0.59099 0.28943 0.0
C1991 C 0.86875 0.53962 0.30354 0.0
H1992 H 0.96418 0.52471 0.30655 0.0
C1993 C 0.86901 0.57735 0.29286 0.0
C1994 C 0.9034 0.59706 0.2879 0.0
H1995 H 0.84169 0.52595 0.30767 0.0
H1996 H 0.84212 0.59136 0.28878 0.0
C1997 C 0.93754 0.57719 0.2933 0.0
C1998 C 0.78807 0.61962 0.53844 0.0
C1999 C 0.76775 0.65356 0.53298 0.0
H2000 H 0.83959 0.59383 0.55413 0.0
C2001 C 0.7867 0.68843 0.53815 0.0
H2002 H 0.7747 0.59221 0.5347 0.0
C2003 C 0.82465 0.68936 0.54805 0.0
C2004 C 0.84465 0.65547 0.5542 0.0
H2005 H 0.77233 0.7152 0.53403 0.0
H2006 H 0.83802 0.7168 0.55167 0.0
C2007 C 0.82547 0.62057 0.54949 0.0
C2008 C 0.36929 0.57607 0.30147 0.0
C2009 C 0.4036 0.59578 0.3067 0.0
H2010 H 0.34221 0.52493 0.28588 0.0
C2011 C 0.43782 0.57621 0.30093 0.0
H2012 H 0.34234 0.58988 0.30577 0.0
C2013 C 0.43774 0.53817 0.29076 0.0
C2014 C 0.40344 0.51875 0.28497 0.0
H2015 H 0.46484 0.59004 0.30493 0.0
H2016 H 0.4647 0.5242 0.2868 0.0
C2017 C 0.36921 0.53862 0.29017 0.0
C2018 C 0.3236 0.61563 1.04027 0.0
C2019 C 0.34315 0.65003 1.03457 0.0
H2020 H 0.27323 0.5886 0.05716 0.0
C2021 C 0.32405 0.6844 1.04108 0.0
H2022 H 0.33707 0.58854 1.03562 0.0
C2023 C 0.28673 0.68445 0.05231 0.0
C2024 C 0.26747 0.65012 0.05861 0.0
H2025 H 0.33776 0.71152 1.03693 0.0
H2026 H 0.27318 0.7116 0.05666 0.0
C2027 C 0.28683 0.61567 0.05266 0.0
C2028 C 0.17274 0.5772 0.79213 0.0
C2029 C 0.20703 0.59677 0.78658 0.0
H2030 H 0.14568 0.52486 0.80531 0.0
C2031 C 0.24127 0.57665 0.79103 0.0
H2032 H 0.14577 0.59136 0.78866 0.0
C2033 C 0.24122 0.53879 0.80143 0.0
C2034 C 0.20692 0.51895 0.80643 0.0
H2035 H 0.26825 0.59044 0.78681 0.0
H2036 H 0.26819 0.52479 0.80524 0.0
C2037 C 0.17268 0.53879 0.80139 0.0
C2038 C 0.28643 0.50019 0.53988 0.0
C2039 C 0.26666 0.46582 0.53449 0.0
H2040 H 0.33737 0.52711 0.55587 0.0
C2041 C 0.28589 0.4314 0.54048 0.0
H2042 H 0.27287 0.52731 0.53556 0.0
C2043 C 0.32357 0.43128 0.55095 0.0
C2044 C 0.34307 0.46558 0.55694 0.0
H2045 H 0.272 0.40432 0.53649 0.0
H2046 H 0.33721 0.40411 0.55498 0.0
C2047 C 0.32359 0.50008 0.55152 0.0
loop_
_geom_bond_atom_site_label_1
_geom_bond_atom_site_label_2
_geom_bond_distance
_geom_bond_site_symmetry_2
_ccdc_geom_bond_type
C0 O16 1.251 . S
C0 O18 1.254 . S
N1 C2 1.333 . S
N1 C6 1.307 . S
N1 Zn7 2.020 . S
C2 N1 1.333 . S
C2 C3 1.379 . S
C2 H20 0.952 . S
C3 C2 1.379 . S
C3 C4 1.390 . S
C3 H30 0.949 . S
C4 C3 1.390 . S
C4 C5 1.357 . S
C5 C4 1.357 . S
C5 C6 1.370 . S
C5 H31 0.950 . S
C6 N1 1.307 . S
C6 C5 1.370 . S
C6 H24 0.948 . S
Zn7 N1 2.020 . S
Zn7 O16 2.039 . S
Zn7 O22 2.034 . S
Zn7 O26 2.025 . S
Zn7 O28 2.024 . S
C8 O27 1.246 . S
C8 O28 1.249 . S
N9 C10 1.307 . S
N9 C11 1.333 . S
N9 Zn15 2.020 . S
C10 N9 1.307 . S
C10 C14 1.370 . S
C10 H21 0.948 . S
C11 N9 1.333 . S
C11 C12 1.379 . S
C11 H19 0.952 . S
C12 C11 1.379 . S
C12 C13 1.390 . S
C12 H32 0.949 . S
C13 C12 1.390 . S
C13 C14 1.357 . S
C14 C10 1.370 . S
C14 C13 1.357 . S
C14 H33 0.950 . S
Zn15 N9 2.020 . S
Zn15 O18 2.025 . S
Zn15 O23 2.024 . S
Zn15 O25 2.039 . S
Zn15 O27 2.034 . S
O16 C0 1.251 . S
O16 Zn7 2.039 . S
C17 O22 1.246 . S
C17 O23 1.249 . S
O18 C0 1.254 . S
O18 Zn15 2.025 . S
H19 C11 0.952 . S
H20 C2 0.952 . S
H21 C10 0.948 . S
O22 Zn7 2.034 . S
O22 C17 1.246 . S
O23 Zn15 2.024 . S
O23 C17 1.249 . S
H24 C6 0.948 . S
O25 Zn15 2.039 . S
O25 C29 1.251 . S
O26 Zn7 2.025 . S
O26 C29 1.254 . S
O27 C8 1.246 . S
O27 Zn15 2.034 . S
O28 Zn7 2.024 . S
O28 C8 1.249 . S
C29 O25 1.251 . S
C29 O26 1.254 . S
H30 C3 0.949 . S
H31 C5 0.950 . S
H32 C12 0.949 . S
H33 C14 0.950 . S
C34 O50 1.251 . S
C34 O52 1.254 . S
N35 C36 1.333 . S
N35 C40 1.307 . S
N35 Zn41 2.020 . S
C36 N35 1.333 . S
C36 C37 1.379 . S
C36 H54 0.952 . S
C37 C36 1.379 . S
C37 C38 1.390 1_565 S
C37 H64 0.949 . S
C38 C37 1.390 1_545 S
C38 C39 1.357 . S
C39 C38 1.357 . S
C39 C40 1.370 1_545 S
C39 H65 0.950 . S
C40 N35 1.307 . S
C40 C39 1.370 1_565 S
C40 H58 0.948 . S
Zn41 N35 2.020 . S
Zn41 O50 2.039 . S
Zn41 O56 2.034 . S
Zn41 O60 2.025 . S
Zn41 O62 2.024 . S
C42 O61 1.246 . S
C42 O62 1.249 . S
N43 C44 1.307 . S
N43 C45 1.333 . S
N43 Zn49 2.020 . S
C44 N43 1.307 . S
C44 C48 1.370 . S
C44 H55 0.948 . S
C45 N43 1.333 . S
C45 C46 1.387 . S
C45 H53 0.952 . S
C46 C45 1.387 . S
C46 C47 1.395 . S
C46 H66 0.936 1_455 S
C47 C46 1.395 . S
C47 C48 1.357 . S
C48 C44 1.370 . S
C48 C47 1.357 . S
C48 H67 0.950 . S
Zn49 N43 2.020 . S
Zn49 O52 2.025 . S
Zn49 O57 2.024 . S
Zn49 O59 2.039 . S
Zn49 O61 2.034 . S
O50 C34 1.251 . S
O50 Zn41 2.039 . S
C51 O56 1.246 . S
C51 O57 1.249 . S
O52 C34 1.254 . S
O52 Zn49 2.025 . S
H53 C45 0.952 . S
H54 C36 0.952 . S
H55 C44 0.948 . S
O56 Zn41 2.034 . S
O56 C51 1.246 . S
O57 Zn49 2.024 . S
O57 C51 1.249 . S
H58 C40 0.948 . S
O59 Zn49 2.039 . S
O59 C63 1.251 . S
O60 Zn41 2.025 . S
O60 C63 1.254 . S
O61 C42 1.246 . S
O61 Zn49 2.034 . S
O62 Zn41 2.024 . S
O62 C42 1.249 . S
C63 O59 1.251 . S
C63 O60 1.254 . S
H64 C37 0.949 . S
H65 C39 0.950 . S
H66 C46 0.936 1_655 S
H67 C48 0.950 . S
C68 O84 1.251 . S
C68 O86 1.254 . S
N69 C70 1.333 . S
N69 C74 1.307 . S
N69 Zn75 2.020 . S
C70 N69 1.333 . S
C70 C71 1.379 . S
C70 H88 0.952 . S
C71 C70 1.379 . S
C71 C72 1.390 . S
C71 H98 0.949 . S
C72 C71 1.390 . S
C72 C73 1.357 . S
C73 C72 1.357 . S
C73 C74 1.370 . S
C73 H99 0.950 . S
C74 N69 1.307 . S
C74 C73 1.370 . S
C74 H92 0.948 . S
Zn75 N69 2.020 . S
Zn75 O84 2.039 . S
Zn75 O90 2.034 . S
Zn75 O94 2.025 . S
Zn75 O96 2.024 . S
C76 O95 1.246 . S
C76 O96 1.249 . S
N77 C78 1.307 . S
N77 C79 1.333 . S
N77 Zn83 2.020 . S
C78 N77 1.307 . S
C78 C82 1.370 . S
C78 H89 0.948 . S
C79 N77 1.333 . S
C79 C80 1.379 . S
C79 H87 0.952 . S
C80 C79 1.379 . S
C80 C81 1.390 . S
C80 H100 0.949 . S
C81 C80 1.390 . S
C81 C82 1.357 . S
C82 C78 1.370 . S
C82 C81 1.357 . S
C82 H101 0.950 . S
Zn83 N77 2.020 . S
Zn83 O86 2.025 . S
Zn83 O91 2.024 . S
Zn83 O93 2.039 . S
Zn83 O95 2.034 . S
O84 C68 1.251 . S
O84 Zn75 2.039 . S
C85 O90 1.246 . S
C85 O91 1.249 . S
O86 C68 1.254 . S
O86 Zn83 2.025 . S
H87 C79 0.952 . S
H88 C70 0.952 . S
H89 C78 0.948 . S
O90 Zn75 2.034 . S
O90 C85 1.246 . S
O91 Zn83 2.024 . S
O91 C85 1.249 . S
H92 C74 0.948 . S
O93 Zn83 2.039 . S
O93 C97 1.251 . S
O94 Zn75 2.025 . S
O94 C97 1.254 . S
O95 C76 1.246 . S
O95 Zn83 2.034 . S
O96 Zn75 2.024 . S
O96 C76 1.249 . S
C97 O93 1.251 . S
C97 O94 1.254 . S
H98 C71 0.949 . S
H99 C73 0.950 . S
H100 C80 0.949 . S
H101 C82 0.950 . S
C102 O118 1.251 . S
C102 O120 1.254 . S
N103 C104 1.333 . S
N103 C108 1.307 . S
N103 Zn109 2.020 . S
C104 N103 1.333 . S
C104 C105 1.379 . S
C104 H122 0.952 . S
C105 C104 1.379 . S
C105 C106 1.390 1_545 S
C105 H132 0.949 . S
C106 C105 1.390 1_565 S
C106 C107 1.357 . S
C107 C106 1.357 . S
C107 C108 1.370 1_565 S
C107 H133 0.950 . S
C108 N103 1.307 . S
C108 C107 1.370 1_545 S
C108 H126 0.948 . S
Zn109 N103 2.020 . S
Zn109 O118 2.039 . S
Zn109 O124 2.034 . S
Zn109 O128 2.025 . S
Zn109 O130 2.024 . S
C110 O129 1.246 . S
C110 O130 1.249 . S
N111 C112 1.307 . S
N111 C113 1.333 . S
N111 Zn117 2.020 . S
C112 N111 1.307 . S
C112 C116 1.370 1_554 S
C112 H123 0.948 . S
C113 N111 1.333 . S
C113 C114 1.379 . S
C113 H121 0.952 . S
C114 C113 1.379 . S
C114 C115 1.390 1_554 S
C114 H134 0.949 . S
C115 C114 1.390 1_556 S
C115 C116 1.357 . S
C116 C112 1.370 1_556 S
C116 C115 1.357 . S
C116 H135 0.950 . S
Zn117 N111 2.020 . S
Zn117 O120 2.025 . S
Zn117 O125 2.024 . S
Zn117 O127 2.039 . S
Zn117 O129 2.034 . S
O118 C102 1.251 . S
O118 Zn109 2.039 . S
C119 O124 1.246 . S
C119 O125 1.249 . S
O120 C102 1.254 . S
O120 Zn117 2.025 . S
H121 C113 0.952 . S
H122 C104 0.952 . S
H123 C112 0.948 . S
O124 Zn109 2.034 . S
O124 C119 1.246 . S
O125 Zn117 2.024 . S
O125 C119 1.249 . S
H126 C108 0.948 . S
O127 Zn117 2.039 . S
O127 C131 1.251 . S
O128 Zn109 2.025 . S
O128 C131 1.254 . S
O129 C110 1.246 . S
O129 Zn117 2.034 . S
O130 Zn109 2.024 . S
O130 C110 1.249 . S
C131 O127 1.251 . S
C131 O128 1.254 . S
H132 C105 0.949 . S
H133 C107 0.950 . S
H134 C114 0.949 . S
H135 C116 0.950 . S
C136 O152 1.251 . S
C136 O154 1.254 . S
N137 C138 1.333 . S
N137 C142 1.307 . S
N137 Zn143 2.020 . S
C138 N137 1.333 . S
C138 C139 1.379 . S
C138 H156 0.952 . S
C139 C138 1.379 . S
C139 C140 1.390 . S
C139 H166 0.949 . S
C140 C139 1.390 . S
C140 C141 1.357 . S
C141 C140 1.357 . S
C141 C142 1.370 . S
C141 H167 0.950 . S
C142 N137 1.307 . S
C142 C141 1.370 . S
C142 H160 0.948 . S
Zn143 N137 2.020 . S
Zn143 O152 2.039 . S
Zn143 O158 2.034 . S
Zn143 O162 2.025 . S
Zn143 O164 2.024 . S
C144 O163 1.246 . S
C144 O164 1.249 . S
N145 C146 1.307 . S
N145 C147 1.333 . S
N145 Zn151 2.020 . S
C146 N145 1.307 . S
C146 C150 1.370 . S
C146 H157 0.948 . S
C147 N145 1.333 . S
C147 C148 1.379 . S
C147 H155 0.952 . S
C148 C147 1.379 . S
C148 C149 1.390 . S
C148 H168 0.949 . S
C149 C148 1.390 . S
C149 C150 1.357 . S
C150 C146 1.370 . S
C150 C149 1.357 . S
C150 H169 0.950 . S
Zn151 N145 2.020 . S
Zn151 O154 2.025 . S
Zn151 O159 2.024 . S
Zn151 O161 2.039 . S
Zn151 O163 2.034 . S
O152 C136 1.251 . S
O152 Zn143 2.039 . S
C153 O158 1.246 . S
C153 O159 1.249 . S
O154 C136 1.254 . S
O154 Zn151 2.025 . S
H155 C147 0.952 . S
H156 C138 0.952 . S
H157 C146 0.948 . S
O158 Zn143 2.034 . S
O158 C153 1.246 . S
O159 Zn151 2.024 . S
O159 C153 1.249 . S
H160 C142 0.948 . S
O161 Zn151 2.039 . S
O161 C165 1.251 . S
O162 Zn143 2.025 . S
O162 C165 1.254 . S
O163 C144 1.246 . S
O163 Zn151 2.034 . S
O164 Zn143 2.024 . S
O164 C144 1.249 . S
C165 O161 1.251 . S
C165 O162 1.254 . S
H166 C139 0.949 . S
H167 C141 0.950 . S
H168 C148 0.949 . S
H169 C150 0.950 . S
C170 O186 1.251 . S
C170 O188 1.254 . S
N171 C172 1.333 . S
N171 C176 1.307 . S
N171 Zn177 2.020 . S
C172 N171 1.333 . S
C172 C173 1.379 . S
C172 H190 0.952 . S
C173 C172 1.379 . S
C173 C174 1.390 1_565 S
C173 H200 0.949 . S
C174 C173 1.390 1_545 S
C174 C175 1.357 . S
C175 C174 1.357 . S
C175 C176 1.370 1_545 S
C175 H201 0.950 . S
C176 N171 1.307 . S
C176 C175 1.370 1_565 S
C176 H194 0.948 . S
Zn177 N171 2.020 . S
Zn177 O186 2.039 . S
Zn177 O192 2.034 . S
Zn177 O196 2.025 . S
Zn177 O198 2.024 . S
C178 O197 1.246 . S
C178 O198 1.249 . S
N179 C180 1.307 . S
N179 C181 1.333 . S
N179 Zn185 2.020 . S
C180 N179 1.307 . S
C180 C184 1.370 . S
C180 H191 0.948 . S
C181 N179 1.333 . S
C181 C182 1.379 . S
C181 H189 0.952 . S
C182 C181 1.379 . S
C182 C183 1.390 . S
C182 H202 0.949 . S
C183 C182 1.390 . S
C183 C184 1.357 . S
C184 C180 1.370 . S
C184 C183 1.357 . S
C184 H203 0.950 . S
Zn185 N179 2.020 . S
Zn185 O188 2.025 . S
Zn185 O193 2.024 . S
Zn185 O195 2.039 . S
Zn185 O197 2.034 . S
O186 C170 1.251 . S
O186 Zn177 2.039 . S
C187 O192 1.246 . S
C187 O193 1.249 . S
O188 C170 1.254 . S
O188 Zn185 2.025 . S
H189 C181 0.952 . S
H190 C172 0.952 . S
H191 C180 0.948 . S
O192 Zn177 2.034 . S
O192 C187 1.246 . S
O193 Zn185 2.024 . S
O193 C187 1.249 . S
H194 C176 0.948 . S
O195 Zn185 2.039 . S
O195 C199 1.251 . S
O196 Zn177 2.025 . S
O196 C199 1.254 . S
O197 C178 1.246 . S
O197 Zn185 2.034 . S
O198 Zn177 2.024 . S
O198 C178 1.249 . S
C199 O195 1.251 . S
C199 O196 1.254 . S
H200 C173 0.949 . S
H201 C175 0.950 . S
H202 C182 0.949 . S
H203 C184 0.950 . S
C204 O220 1.251 . S
C204 O222 1.254 . S
N205 C206 1.333 . S
N205 C210 1.307 . S
N205 Zn211 2.020 . S
C206 N205 1.333 . S
C206 C207 1.379 . S
C206 H224 0.952 . S
C207 C206 1.379 . S
C207 C208 1.390 . S
C207 H234 0.949 . S
C208 C207 1.390 . S
C208 C209 1.357 . S
C209 C208 1.357 . S
C209 C210 1.370 . S
C209 H235 0.950 . S
C210 N205 1.307 . S
C210 C209 1.370 . S
C210 H228 0.948 . S
Zn211 N205 2.020 . S
Zn211 O220 2.039 . S
Zn211 O226 2.034 . S
Zn211 O230 2.025 . S
Zn211 O232 2.024 . S
C212 O231 1.246 . S
C212 O232 1.249 . S
N213 C214 1.307 . S
N213 C215 1.333 . S
N213 Zn219 2.020 . S
C214 N213 1.307 . S
C214 C218 1.370 . S
C214 H225 0.948 . S
C215 N213 1.333 . S
C215 C216 1.379 . S
C215 H223 0.952 . S
C216 C215 1.379 . S
C216 C217 1.390 . S
C216 H236 0.949 . S
C217 C216 1.390 . S
C217 C218 1.357 . S
C218 C214 1.370 . S
C218 C217 1.357 . S
C218 H237 0.950 . S
Zn219 N213 2.020 . S
Zn219 O222 2.025 . S
Zn219 O227 2.024 . S
Zn219 O229 2.039 . S
Zn219 O231 2.034 . S
O220 C204 1.251 . S
O220 Zn211 2.039 . S
C221 O226 1.246 . S
C221 O227 1.249 . S
O222 C204 1.254 . S
O222 Zn219 2.025 . S
H223 C215 0.952 . S
H224 C206 0.952 . S
H225 C214 0.948 . S
O226 Zn211 2.034 . S
O226 C221 1.246 . S
O227 Zn219 2.024 . S
O227 C221 1.249 . S
H228 C210 0.948 . S
O229 Zn219 2.039 . S
O229 C233 1.251 . S
O230 Zn211 2.025 . S
O230 C233 1.254 . S
O231 C212 1.246 . S
O231 Zn219 2.034 . S
O232 Zn211 2.024 . S
O232 C212 1.249 . S
C233 O229 1.251 . S
C233 O230 1.254 . S
H234 C207 0.949 . S
H235 C209 0.950 . S
H236 C216 0.949 . S
H237 C218 0.950 . S
C238 O254 1.251 . S
C238 O256 1.254 . S
N239 C240 1.333 . S
N239 C244 1.307 . S
N239 Zn245 2.020 . S
C240 N239 1.333 . S
C240 C241 1.379 . S
C240 H258 0.952 . S
C241 C240 1.379 . S
C241 C242 1.390 1_545 S
C241 H268 0.949 . S
C242 C241 1.390 1_565 S
C242 C243 1.357 . S
C243 C242 1.357 . S
C243 C244 1.370 1_565 S
C243 H269 0.950 . S
C244 N239 1.307 . S
C244 C243 1.370 1_545 S
C244 H262 0.948 . S
Zn245 N239 2.020 . S
Zn245 O254 2.039 . S
Zn245 O260 2.034 . S
Zn245 O264 2.025 . S
Zn245 O266 2.024 . S
C246 O265 1.246 . S
C246 O266 1.249 . S
N247 C248 1.307 . S
N247 C249 1.333 . S
N247 Zn253 2.020 . S
C248 N247 1.307 . S
C248 C252 1.370 1_556 S
C248 H259 0.948 . S
C249 N247 1.333 . S
C249 C250 1.387 . S
C249 H257 0.952 . S
C250 C249 1.387 . S
C250 C251 1.395 1_556 S
C250 H270 0.936 1_455 S
C251 C250 1.395 1_554 S
C251 C252 1.357 . S
C252 C248 1.370 1_554 S
C252 C251 1.357 . S
C252 H271 0.950 . S
Zn253 N247 2.020 . S
Zn253 O256 2.025 . S
Zn253 O261 2.024 . S
Zn253 O263 2.039 . S
Zn253 O265 2.034 . S
O254 C238 1.251 . S
O254 Zn245 2.039 . S
C255 O260 1.246 . S
C255 O261 1.249 . S
O256 C238 1.254 . S
O256 Zn253 2.025 . S
H257 C249 0.952 . S
H258 C240 0.952 . S
H259 C248 0.948 . S
O260 Zn245 2.034 . S
O260 C255 1.246 . S
O261 Zn253 2.024 . S
O261 C255 1.249 . S
H262 C244 0.948 . S
O263 Zn253 2.039 . S
O263 C267 1.251 . S
O264 Zn245 2.025 . S
O264 C267 1.254 . S
O265 C246 1.246 . S
O265 Zn253 2.034 . S
O266 Zn245 2.024 . S
O266 C246 1.249 . S
C267 O263 1.251 . S
C267 O264 1.254 . S
H268 C241 0.949 . S
H269 C243 0.950 . S
H270 C250 0.936 1_655 S
H271 C252 0.950 . S
C272 O288 1.251 . S
C272 O290 1.254 . S
N273 C274 1.333 . S
N273 C278 1.307 . S
N273 Zn279 2.020 . S
C274 N273 1.333 . S
C274 C275 1.379 . S
C274 H292 0.952 . S
C275 C274 1.379 . S
C275 C276 1.390 . S
C275 H302 0.949 . S
C276 C275 1.390 . S
C276 C277 1.357 . S
C277 C276 1.357 . S
C277 C278 1.370 . S
C277 H303 0.950 . S
C278 N273 1.307 . S
C278 C277 1.370 . S
C278 H296 0.948 . S
Zn279 N273 2.020 . S
Zn279 O288 2.039 . S
Zn279 O294 2.034 . S
Zn279 O298 2.025 . S
Zn279 O300 2.024 . S
C280 O299 1.246 . S
C280 O300 1.249 . S
N281 C282 1.307 . S
N281 C283 1.333 . S
N281 Zn287 2.020 . S
C282 N281 1.307 . S
C282 C286 1.370 . S
C282 H293 0.948 . S
C283 N281 1.333 . S
C283 C284 1.379 . S
C283 H291 0.952 . S
C284 C283 1.379 . S
C284 C285 1.390 . S
C284 H304 0.949 . S
C285 C284 1.390 . S
C285 C286 1.357 . S
C286 C282 1.370 . S
C286 C285 1.357 . S
C286 H305 0.950 . S
Zn287 N281 2.020 . S
Zn287 O290 2.025 . S
Zn287 O295 2.024 . S
Zn287 O297 2.039 . S
Zn287 O299 2.034 . S
O288 C272 1.251 . S
O288 Zn279 2.039 . S
C289 O294 1.246 . S
C289 O295 1.249 . S
O290 C272 1.254 . S
O290 Zn287 2.025 . S
H291 C283 0.952 . S
H292 C274 0.952 . S
H293 C282 0.948 . S
O294 Zn279 2.034 . S
O294 C289 1.246 . S
O295 Zn287 2.024 . S
O295 C289 1.249 . S
H296 C278 0.948 . S
O297 Zn287 2.039 . S
O297 C301 1.251 . S
O298 Zn279 2.025 . S
O298 C301 1.254 . S
O299 C280 1.246 . S
O299 Zn287 2.034 . S
O300 Zn279 2.024 . S
O300 C280 1.249 . S
C301 O297 1.251 . S
C301 O298 1.254 . S
H302 C275 0.949 . S
H303 C277 0.950 . S
H304 C284 0.949 . S
H305 C286 0.950 . S
C306 O322 1.251 . S
C306 O324 1.254 . S
N307 C308 1.333 . S
N307 C312 1.307 . S
N307 Zn313 2.020 . S
C308 N307 1.333 . S
C308 C309 1.387 . S
C308 H326 0.952 . S
C309 C308 1.387 . S
C309 C310 1.395 . S
C309 H336 0.936 1_655 S
C310 C309 1.395 . S
C310 C311 1.357 . S
C311 C310 1.357 . S
C311 C312 1.370 . S
C311 H337 0.950 . S
C312 N307 1.307 . S
C312 C311 1.370 . S
C312 H330 0.948 . S
Zn313 N307 2.020 . S
Zn313 O322 2.039 . S
Zn313 O328 2.034 . S
Zn313 O332 2.025 . S
Zn313 O334 2.024 . S
C314 O333 1.246 . S
C314 O334 1.249 . S
N315 C316 1.307 . S
N315 C317 1.333 . S
N315 Zn321 2.020 . S
C316 N315 1.307 . S
C316 C320 1.370 1_545 S
C316 H327 0.948 . S
C317 N315 1.333 . S
C317 C318 1.379 . S
C317 H325 0.952 . S
C318 C317 1.379 . S
C318 C319 1.390 1_545 S
C318 H338 0.949 . S
C319 C318 1.390 1_565 S
C319 C320 1.357 . S
C320 C316 1.370 1_565 S
C320 C319 1.357 . S
C320 H339 0.950 . S
Zn321 N315 2.020 . S
Zn321 O324 2.025 . S
Zn321 O329 2.024 . S
Zn321 O331 2.039 . S
Zn321 O333 2.034 . S
O322 C306 1.251 . S
O322 Zn313 2.039 . S
C323 O328 1.246 . S
C323 O329 1.249 . S
O324 C306 1.254 . S
O324 Zn321 2.025 . S
H325 C317 0.952 . S
H326 C308 0.952 . S
H327 C316 0.948 . S
O328 Zn313 2.034 . S
O328 C323 1.246 . S
O329 Zn321 2.024 . S
O329 C323 1.249 . S
H330 C312 0.948 . S
O331 Zn321 2.039 . S
O331 C335 1.251 . S
O332 Zn313 2.025 . S
O332 C335 1.254 . S
O333 C314 1.246 . S
O333 Zn321 2.034 . S
O334 Zn313 2.024 . S
O334 C314 1.249 . S
C335 O331 1.251 . S
C335 O332 1.254 . S
H336 C309 0.936 1_455 S
H337 C311 0.950 . S
H338 C318 0.949 . S
H339 C320 0.950 . S
C340 O356 1.251 . S
C340 O358 1.254 . S
N341 C342 1.333 . S
N341 C346 1.307 . S
N341 Zn347 2.020 . S
C342 N341 1.333 . S
C342 C343 1.379 . S
C342 H360 0.952 . S
C343 C342 1.379 . S
C343 C344 1.390 . S
C343 H370 0.949 . S
C344 C343 1.390 . S
C344 C345 1.357 . S
C345 C344 1.357 . S
C345 C346 1.370 . S
C345 H371 0.950 . S
C346 N341 1.307 . S
C346 C345 1.370 . S
C346 H364 0.948 . S
Zn347 N341 2.020 . S
Zn347 O356 2.039 . S
Zn347 O362 2.034 . S
Zn347 O366 2.025 . S
Zn347 O368 2.024 . S
C348 O367 1.246 . S
C348 O368 1.249 . S
N349 C350 1.307 . S
N349 C351 1.333 . S
N349 Zn355 2.020 . S
C350 N349 1.307 . S
C350 C354 1.370 . S
C350 H361 0.948 . S
C351 N349 1.333 . S
C351 C352 1.379 . S
C351 H359 0.952 . S
C352 C351 1.379 . S
C352 C353 1.390 . S
C352 H372 0.949 . S
C353 C352 1.390 . S
C353 C354 1.357 . S
C354 C350 1.370 . S
C354 C353 1.357 . S
C354 H373 0.950 . S
Zn355 N349 2.020 . S
Zn355 O358 2.025 . S
Zn355 O363 2.024 . S
Zn355 O365 2.039 . S
Zn355 O367 2.034 . S
O356 C340 1.251 . S
O356 Zn347 2.039 . S
C357 O362 1.246 . S
C357 O363 1.249 . S
O358 C340 1.254 . S
O358 Zn355 2.025 . S
H359 C351 0.952 . S
H360 C342 0.952 . S
H361 C350 0.948 . S
O362 Zn347 2.034 . S
O362 C357 1.246 . S
O363 Zn355 2.024 . S
O363 C357 1.249 . S
H364 C346 0.948 . S
O365 Zn355 2.039 . S
O365 C369 1.251 . S
O366 Zn347 2.025 . S
O366 C369 1.254 . S
O367 C348 1.246 . S
O367 Zn355 2.034 . S
O368 Zn347 2.024 . S
O368 C348 1.249 . S
C369 O365 1.251 . S
C369 O366 1.254 . S
H370 C343 0.949 . S
H371 C345 0.950 . S
H372 C352 0.949 . S
H373 C354 0.950 . S
C374 O390 1.251 . S
C374 O392 1.254 . S
N375 C376 1.333 . S
N375 C380 1.307 . S
N375 Zn381 2.020 . S
C376 N375 1.333 . S
C376 C377 1.379 . S
C376 H394 0.952 . S
C377 C376 1.379 . S
C377 C378 1.390 1_556 S
C377 H404 0.949 . S
C378 C377 1.390 1_554 S
C378 C379 1.357 . S
C379 C378 1.357 . S
C379 C380 1.370 1_554 S
C379 H405 0.950 . S
C380 N375 1.307 . S
C380 C379 1.370 1_556 S
C380 H398 0.948 . S
Zn381 N375 2.020 . S
Zn381 O390 2.039 . S
Zn381 O396 2.034 . S
Zn381 O400 2.025 . S
Zn381 O402 2.024 . S
C382 O401 1.246 . S
C382 O402 1.249 . S
N383 C384 1.307 . S
N383 C385 1.333 . S
N383 Zn389 2.020 . S
C384 N383 1.307 . S
C384 C388 1.370 1_565 S
C384 H395 0.948 . S
C385 N383 1.333 . S
C385 C386 1.379 . S
C385 H393 0.952 . S
C386 C385 1.379 . S
C386 C387 1.390 1_565 S
C386 H406 0.949 . S
C387 C386 1.390 1_545 S
C387 C388 1.357 . S
C388 C384 1.370 1_545 S
C388 C387 1.357 . S
C388 H407 0.950 . S
Zn389 N383 2.020 . S
Zn389 O392 2.025 . S
Zn389 O397 2.024 . S
Zn389 O399 2.039 . S
Zn389 O401 2.034 . S
O390 C374 1.251 . S
O390 Zn381 2.039 . S
C391 O396 1.246 . S
C391 O397 1.249 . S
O392 C374 1.254 . S
O392 Zn389 2.025 . S
H393 C385 0.952 . S
H394 C376 0.952 . S
H395 C384 0.948 . S
O396 Zn381 2.034 . S
O396 C391 1.246 . S
O397 Zn389 2.024 . S
O397 C391 1.249 . S
H398 C380 0.948 . S
O399 Zn389 2.039 . S
O399 C403 1.251 . S
O400 Zn381 2.025 . S
O400 C403 1.254 . S
O401 C382 1.246 . S
O401 Zn389 2.034 . S
O402 Zn381 2.024 . S
O402 C382 1.249 . S
C403 O399 1.251 . S
C403 O400 1.254 . S
H404 C377 0.949 . S
H405 C379 0.950 . S
H406 C386 0.949 . S
H407 C388 0.950 . S
C408 O424 1.251 . S
C408 O426 1.254 . S
N409 C410 1.333 . S
N409 C414 1.307 . S
N409 Zn415 2.020 . S
C410 N409 1.333 . S
C410 C411 1.379 . S
C410 H428 0.952 . S
C411 C410 1.379 . S
C411 C412 1.390 . S
C411 H438 0.949 . S
C412 C411 1.390 . S
C412 C413 1.357 . S
C413 C412 1.357 . S
C413 C414 1.370 . S
C413 H439 0.950 . S
C414 N409 1.307 . S
C414 C413 1.370 . S
C414 H432 0.948 . S
Zn415 N409 2.020 . S
Zn415 O424 2.039 . S
Zn415 O430 2.034 . S
Zn415 O434 2.025 . S
Zn415 O436 2.024 . S
C416 O435 1.246 . S
C416 O436 1.249 . S
N417 C418 1.307 . S
N417 C419 1.333 . S
N417 Zn423 2.020 . S
C418 N417 1.307 . S
C418 C422 1.370 . S
C418 H429 0.948 . S
C419 N417 1.333 . S
C419 C420 1.379 . S
C419 H427 0.952 . S
C420 C419 1.379 . S
C420 C421 1.390 . S
C420 H440 0.949 . S
C421 C420 1.390 . S
C421 C422 1.357 . S
C422 C418 1.370 . S
C422 C421 1.357 . S
C422 H441 0.950 . S
Zn423 N417 2.020 . S
Zn423 O426 2.025 . S
Zn423 O431 2.024 . S
Zn423 O433 2.039 . S
Zn423 O435 2.034 . S
O424 C408 1.251 . S
O424 Zn415 2.039 . S
C425 O430 1.246 . S
C425 O431 1.249 . S
O426 C408 1.254 . S
O426 Zn423 2.025 . S
H427 C419 0.952 . S
H428 C410 0.952 . S
H429 C418 0.948 . S
O430 Zn415 2.034 . S
O430 C425 1.246 . S
O431 Zn423 2.024 . S
O431 C425 1.249 . S
H432 C414 0.948 . S
O433 Zn423 2.039 . S
O433 C437 1.251 . S
O434 Zn415 2.025 . S
O434 C437 1.254 . S
O435 C416 1.246 . S
O435 Zn423 2.034 . S
O436 Zn415 2.024 . S
O436 C416 1.249 . S
C437 O433 1.251 . S
C437 O434 1.254 . S
H438 C411 0.949 . S
H439 C413 0.950 . S
H440 C420 0.949 . S
H441 C422 0.950 . S
C442 O458 1.251 . S
C442 O460 1.254 . S
N443 C444 1.333 . S
N443 C448 1.307 . S
N443 Zn449 2.020 . S
C444 N443 1.333 . S
C444 C445 1.379 . S
C444 H462 0.952 . S
C445 C444 1.379 . S
C445 C446 1.390 . S
C445 H472 0.949 . S
C446 C445 1.390 . S
C446 C447 1.357 . S
C447 C446 1.357 . S
C447 C448 1.370 . S
C447 H473 0.950 . S
C448 N443 1.307 . S
C448 C447 1.370 . S
C448 H466 0.948 . S
Zn449 N443 2.020 . S
Zn449 O458 2.039 . S
Zn449 O464 2.034 . S
Zn449 O468 2.025 . S
Zn449 O470 2.024 . S
C450 O469 1.246 . S
C450 O470 1.249 . S
N451 C452 1.307 . S
N451 C453 1.333 . S
N451 Zn457 2.020 . S
C452 N451 1.307 . S
C452 C456 1.370 1_545 S
C452 H463 0.948 . S
C453 N451 1.333 . S
C453 C454 1.379 . S
C453 H461 0.952 . S
C454 C453 1.379 . S
C454 C455 1.390 1_545 S
C454 H474 0.949 . S
C455 C454 1.390 1_565 S
C455 C456 1.357 . S
C456 C452 1.370 1_565 S
C456 C455 1.357 . S
C456 H475 0.950 . S
Zn457 N451 2.020 . S
Zn457 O460 2.025 . S
Zn457 O465 2.024 . S
Zn457 O467 2.039 . S
Zn457 O469 2.034 . S
O458 C442 1.251 . S
O458 Zn449 2.039 . S
C459 O464 1.246 . S
C459 O465 1.249 . S
O460 C442 1.254 . S
O460 Zn457 2.025 . S
H461 C453 0.952 . S
H462 C444 0.952 . S
H463 C452 0.948 . S
O464 Zn449 2.034 . S
O464 C459 1.246 . S
O465 Zn457 2.024 . S
O465 C459 1.249 . S
H466 C448 0.948 . S
O467 Zn457 2.039 . S
O467 C471 1.251 . S
O468 Zn449 2.025 . S
O468 C471 1.254 . S
O469 C450 1.246 . S
O469 Zn457 2.034 . S
O470 Zn449 2.024 . S
O470 C450 1.249 . S
C471 O467 1.251 . S
C471 O468 1.254 . S
H472 C445 0.949 . S
H473 C447 0.950 . S
H474 C454 0.949 . S
H475 C456 0.950 . S
C476 O492 1.251 . S
C476 O494 1.254 . S
N477 C478 1.333 . S
N477 C482 1.307 . S
N477 Zn483 2.020 . S
C478 N477 1.333 . S
C478 C479 1.379 . S
C478 H496 0.952 . S
C479 C478 1.379 . S
C479 C480 1.390 . S
C479 H506 0.949 . S
C480 C479 1.390 . S
C480 C481 1.357 . S
C481 C480 1.357 . S
C481 C482 1.370 . S
C481 H507 0.950 . S
C482 N477 1.307 . S
C482 C481 1.370 . S
C482 H500 0.948 . S
Zn483 N477 2.020 . S
Zn483 O492 2.039 . S
Zn483 O498 2.034 . S
Zn483 O502 2.025 . S
Zn483 O504 2.024 . S
C484 O503 1.246 . S
C484 O504 1.249 . S
N485 C486 1.307 . S
N485 C487 1.333 . S
N485 Zn491 2.020 . S
C486 N485 1.307 . S
C486 C490 1.370 . S
C486 H497 0.948 . S
C487 N485 1.333 . S
C487 C488 1.379 . S
C487 H495 0.952 . S
C488 C487 1.379 . S
C488 C489 1.390 . S
C488 H508 0.949 . S
C489 C488 1.390 . S
C489 C490 1.357 . S
C490 C486 1.370 . S
C490 C489 1.357 . S
C490 H509 0.950 . S
Zn491 N485 2.020 . S
Zn491 O494 2.025 . S
Zn491 O499 2.024 . S
Zn491 O501 2.039 . S
Zn491 O503 2.034 . S
O492 C476 1.251 . S
O492 Zn483 2.039 . S
C493 O498 1.246 . S
C493 O499 1.249 . S
O494 C476 1.254 . S
O494 Zn491 2.025 . S
H495 C487 0.952 . S
H496 C478 0.952 . S
H497 C486 0.948 . S
O498 Zn483 2.034 . S
O498 C493 1.246 . S
O499 Zn491 2.024 . S
O499 C493 1.249 . S
H500 C482 0.948 . S
O501 Zn491 2.039 . S
O501 C505 1.251 . S
O502 Zn483 2.025 . S
O502 C505 1.254 . S
O503 C484 1.246 . S
O503 Zn491 2.034 . S
O504 Zn483 2.024 . S
O504 C484 1.249 . S
C505 O501 1.251 . S
C505 O502 1.254 . S
H506 C479 0.949 . S
H507 C481 0.950 . S
H508 C488 0.949 . S
H509 C490 0.950 . S
C510 O526 1.251 . S
C510 O528 1.254 . S
N511 C512 1.333 . S
N511 C516 1.307 . S
N511 Zn517 2.020 . S
C512 N511 1.333 . S
C512 C513 1.387 . S
C512 H530 0.952 . S
C513 C512 1.387 . S
C513 C514 1.395 1_554 S
C513 H540 0.936 1_655 S
C514 C513 1.395 1_556 S
C514 C515 1.357 . S
C515 C514 1.357 . S
C515 C516 1.370 1_556 S
C515 H541 0.950 . S
C516 N511 1.307 . S
C516 C515 1.370 1_554 S
C516 H534 0.948 . S
Zn517 N511 2.020 . S
Zn517 O526 2.039 . S
Zn517 O532 2.034 . S
Zn517 O536 2.025 . S
Zn517 O538 2.024 . S
C518 O537 1.246 . S
C518 O538 1.249 . S
N519 C520 1.307 . S
N519 C521 1.333 . S
N519 Zn525 2.020 . S
C520 N519 1.307 . S
C520 C524 1.370 1_565 S
C520 H531 0.948 . S
C521 N519 1.333 . S
C521 C522 1.379 . S
C521 H529 0.952 . S
C522 C521 1.379 . S
C522 C523 1.390 1_565 S
C522 H542 0.949 . S
C523 C522 1.390 1_545 S
C523 C524 1.357 . S
C524 C520 1.370 1_545 S
C524 C523 1.357 . S
C524 H543 0.950 . S
Zn525 N519 2.020 . S
Zn525 O528 2.025 . S
Zn525 O533 2.024 . S
Zn525 O535 2.039 . S
Zn525 O537 2.034 . S
O526 C510 1.251 . S
O526 Zn517 2.039 . S
C527 O532 1.246 . S
C527 O533 1.249 . S
O528 C510 1.254 . S
O528 Zn525 2.025 . S
H529 C521 0.952 . S
H530 C512 0.952 . S
H531 C520 0.948 . S
O532 Zn517 2.034 . S
O532 C527 1.246 . S
O533 Zn525 2.024 . S
O533 C527 1.249 . S
H534 C516 0.948 . S
O535 Zn525 2.039 . S
O535 C539 1.251 . S
O536 Zn517 2.025 . S
O536 C539 1.254 . S
O537 C518 1.246 . S
O537 Zn525 2.034 . S
O538 Zn517 2.024 . S
O538 C518 1.249 . S
C539 O535 1.251 . S
C539 O536 1.254 . S
H540 C513 0.936 1_455 S
H541 C515 0.950 . S
H542 C522 0.949 . S
H543 C524 0.950 . S
C544 O560 1.251 . S
C544 O562 1.254 . S
N545 C546 1.333 . S
N545 C550 1.307 . S
N545 Zn551 2.020 . S
C546 N545 1.333 . S
C546 C547 1.379 . S
C546 H564 0.952 . S
C547 C546 1.379 . S
C547 C548 1.390 . S
C547 H574 0.949 . S
C548 C547 1.390 . S
C548 C549 1.357 . S
C549 C548 1.357 . S
C549 C550 1.370 . S
C549 H575 0.950 . S
C550 N545 1.307 . S
C550 C549 1.370 . S
C550 H568 0.948 . S
Zn551 N545 2.020 . S
Zn551 O560 2.039 . S
Zn551 O566 2.034 . S
Zn551 O570 2.025 . S
Zn551 O572 2.024 . S
C552 O571 1.246 . S
C552 O572 1.249 . S
N553 C554 1.307 . S
N553 C555 1.333 . S
N553 Zn559 2.020 . S
C554 N553 1.307 . S
C554 C558 1.370 . S
C554 H565 0.948 . S
C555 N553 1.333 . S
C555 C556 1.379 . S
C555 H563 0.952 . S
C556 C555 1.379 . S
C556 C557 1.390 . S
C556 H576 0.949 . S
C557 C556 1.390 . S
C557 C558 1.357 . S
C558 C554 1.370 . S
C558 C557 1.357 . S
C558 H577 0.950 . S
Zn559 N553 2.020 . S
Zn559 O562 2.025 . S
Zn559 O567 2.024 . S
Zn559 O569 2.039 . S
Zn559 O571 2.034 . S
O560 C544 1.251 . S
O560 Zn551 2.039 . S
C561 O566 1.246 . S
C561 O567 1.249 . S
O562 C544 1.254 . S
O562 Zn559 2.025 . S
H563 C555 0.952 . S
H564 C546 0.952 . S
H565 C554 0.948 . S
O566 Zn551 2.034 . S
O566 C561 1.246 . S
O567 Zn559 2.024 . S
O567 C561 1.249 . S
H568 C550 0.948 . S
O569 Zn559 2.039 . S
O569 C573 1.251 . S
O570 Zn551 2.025 . S
O570 C573 1.254 . S
O571 C552 1.246 . S
O571 Zn559 2.034 . S
O572 Zn551 2.024 . S
O572 C552 1.249 . S
C573 O569 1.251 . S
C573 O570 1.254 . S
H574 C547 0.949 . S
H575 C549 0.950 . S
H576 C556 0.949 . S
H577 C558 0.950 . S
C578 O594 1.251 . S
C578 O596 1.254 . S
N579 C580 1.333 . S
N579 C584 1.307 . S
N579 Zn585 2.020 . S
C580 N579 1.333 . S
C580 C581 1.379 . S
C580 H598 0.952 . S
C581 C580 1.379 . S
C581 C582 1.390 . S
C581 H608 0.949 . S
C582 C581 1.390 . S
C582 C583 1.357 . S
C583 C582 1.357 . S
C583 C584 1.370 . S
C583 H609 0.950 . S
C584 N579 1.307 . S
C584 C583 1.370 . S
C584 H602 0.948 . S
Zn585 N579 2.020 . S
Zn585 O594 2.039 . S
Zn585 O600 2.034 . S
Zn585 O604 2.025 . S
Zn585 O606 2.024 . S
C586 O605 1.246 . S
C586 O606 1.249 . S
N587 C588 1.307 . S
N587 C589 1.333 . S
N587 Zn593 2.020 . S
C588 N587 1.307 . S
C588 C592 1.370 1_554 S
C588 H599 0.948 . S
C589 N587 1.333 . S
C589 C590 1.379 . S
C589 H597 0.952 . S
C590 C589 1.379 . S
C590 C591 1.390 1_554 S
C590 H610 0.949 . S
C591 C590 1.390 1_556 S
C591 C592 1.357 . S
C592 C588 1.370 1_556 S
C592 C591 1.357 . S
C592 H611 0.950 . S
Zn593 N587 2.020 . S
Zn593 O596 2.025 . S
Zn593 O601 2.024 . S
Zn593 O603 2.039 . S
Zn593 O605 2.034 . S
O594 C578 1.251 . S
O594 Zn585 2.039 . S
C595 O600 1.246 . S
C595 O601 1.249 . S
O596 C578 1.254 . S
O596 Zn593 2.025 . S
H597 C589 0.952 . S
H598 C580 0.952 . S
H599 C588 0.948 . S
O600 Zn585 2.034 . S
O600 C595 1.246 . S
O601 Zn593 2.024 . S
O601 C595 1.249 . S
H602 C584 0.948 . S
O603 Zn593 2.039 . S
O603 C607 1.251 . S
O604 Zn585 2.025 . S
O604 C607 1.254 . S
O605 C586 1.246 . S
O605 Zn593 2.034 . S
O606 Zn585 2.024 . S
O606 C586 1.249 . S
C607 O603 1.251 . S
C607 O604 1.254 . S
H608 C581 0.949 . S
H609 C583 0.950 . S
H610 C590 0.949 . S
H611 C592 0.950 . S
C612 O628 1.251 . S
C612 O630 1.254 . S
N613 C614 1.333 . S
N613 C618 1.307 . S
N613 Zn619 2.020 . S
C614 N613 1.333 . S
C614 C615 1.379 . S
C614 H632 0.952 . S
C615 C614 1.379 . S
C615 C616 1.390 . S
C615 H642 0.949 . S
C616 C615 1.390 . S
C616 C617 1.357 . S
C617 C616 1.357 . S
C617 C618 1.370 . S
C617 H643 0.950 . S
C618 N613 1.307 . S
C618 C617 1.370 . S
C618 H636 0.948 . S
Zn619 N613 2.020 . S
Zn619 O628 2.039 . S
Zn619 O634 2.034 . S
Zn619 O638 2.025 . S
Zn619 O640 2.024 . S
C620 O639 1.246 . S
C620 O640 1.249 . S
N621 C622 1.307 . S
N621 C623 1.333 . S
N621 Zn627 2.020 . S
C622 N621 1.307 . S
C622 C626 1.370 . S
C622 H633 0.948 . S
C623 N621 1.333 . S
C623 C624 1.379 . S
C623 H631 0.952 . S
C624 C623 1.379 . S
C624 C625 1.390 . S
C624 H644 0.949 . S
C625 C624 1.390 . S
C625 C626 1.357 . S
C626 C622 1.370 . S
C626 C625 1.357 . S
C626 H645 0.950 . S
Zn627 N621 2.020 . S
Zn627 O630 2.025 . S
Zn627 O635 2.024 . S
Zn627 O637 2.039 . S
Zn627 O639 2.034 . S
O628 C612 1.251 . S
O628 Zn619 2.039 . S
C629 O634 1.246 . S
C629 O635 1.249 . S
O630 C612 1.254 . S
O630 Zn627 2.025 . S
H631 C623 0.952 . S
H632 C614 0.952 . S
H633 C622 0.948 . S
O634 Zn619 2.034 . S
O634 C629 1.246 . S
O635 Zn627 2.024 . S
O635 C629 1.249 . S
H636 C618 0.948 . S
O637 Zn627 2.039 . S
O637 C641 1.251 . S
O638 Zn619 2.025 . S
O638 C641 1.254 . S
O639 C620 1.246 . S
O639 Zn627 2.034 . S
O640 Zn619 2.024 . S
O640 C620 1.249 . S
C641 O637 1.251 . S
C641 O638 1.254 . S
H642 C615 0.949 . S
H643 C617 0.950 . S
H644 C624 0.949 . S
H645 C626 0.950 . S
C646 O662 1.251 . S
C646 O664 1.254 . S
N647 C648 1.333 . S
N647 C652 1.307 . S
N647 Zn653 2.020 . S
C648 N647 1.333 . S
C648 C649 1.379 . S
C648 H666 0.952 . S
C649 C648 1.379 . S
C649 C650 1.390 . S
C649 H676 0.949 . S
C650 C649 1.390 . S
C650 C651 1.357 . S
C651 C650 1.357 . S
C651 C652 1.370 . S
C651 H677 0.950 . S
C652 N647 1.307 . S
C652 C651 1.370 . S
C652 H670 0.948 . S
Zn653 N647 2.020 . S
Zn653 O662 2.039 . S
Zn653 O668 2.034 . S
Zn653 O672 2.025 . S
Zn653 O674 2.024 . S
C654 O673 1.246 . S
C654 O674 1.249 . S
N655 C656 1.307 . S
N655 C657 1.333 . S
N655 Zn661 2.020 . S
C656 N655 1.307 . S
C656 C660 1.370 . S
C656 H667 0.948 . S
C657 N655 1.333 . S
C657 C658 1.387 . S
C657 H665 0.952 . S
C658 C657 1.387 . S
C658 C659 1.395 . S
C658 H678 0.936 1_655 S
C659 C658 1.395 . S
C659 C660 1.357 . S
C660 C656 1.370 . S
C660 C659 1.357 . S
C660 H679 0.950 . S
Zn661 N655 2.020 . S
Zn661 O664 2.025 . S
Zn661 O669 2.024 . S
Zn661 O671 2.039 . S
Zn661 O673 2.034 . S
O662 C646 1.251 . S
O662 Zn653 2.039 . S
C663 O668 1.246 . S
C663 O669 1.249 . S
O664 C646 1.254 . S
O664 Zn661 2.025 . S
H665 C657 0.952 . S
H666 C648 0.952 . S
H667 C656 0.948 . S
O668 Zn653 2.034 . S
O668 C663 1.246 . S
O669 Zn661 2.024 . S
O669 C663 1.249 . S
H670 C652 0.948 . S
O671 Zn661 2.039 . S
O671 C675 1.251 . S
O672 Zn653 2.025 . S
O672 C675 1.254 . S
O673 C654 1.246 . S
O673 Zn661 2.034 . S
O674 Zn653 2.024 . S
O674 C654 1.249 . S
C675 O671 1.251 . S
C675 O672 1.254 . S
H676 C649 0.949 . S
H677 C651 0.950 . S
H678 C658 0.936 1_455 S
H679 C660 0.950 . S
C680 O696 1.251 . S
C680 O698 1.254 . S
N681 C682 1.333 . S
N681 C686 1.307 . S
N681 Zn687 2.020 . S
C682 N681 1.333 . S
C682 C683 1.379 . S
C682 H700 0.952 . S
C683 C682 1.379 . S
C683 C684 1.390 . S
C683 H710 0.949 . S
C684 C683 1.390 . S
C684 C685 1.357 . S
C685 C684 1.357 . S
C685 C686 1.370 . S
C685 H711 0.950 . S
C686 N681 1.307 . S
C686 C685 1.370 . S
C686 H704 0.948 . S
Zn687 N681 2.020 . S
Zn687 O696 2.039 . S
Zn687 O702 2.034 . S
Zn687 O706 2.025 . S
Zn687 O708 2.024 . S
C688 O707 1.246 . S
C688 O708 1.249 . S
N689 C690 1.307 . S
N689 C691 1.333 . S
N689 Zn695 2.020 . S
C690 N689 1.307 . S
C690 C694 1.370 . S
C690 H701 0.948 . S
C691 N689 1.333 . S
C691 C692 1.379 . S
C691 H699 0.952 . S
C692 C691 1.379 . S
C692 C693 1.390 . S
C692 H712 0.949 . S
C693 C692 1.390 . S
C693 C694 1.357 . S
C694 C690 1.370 . S
C694 C693 1.357 . S
C694 H713 0.950 . S
Zn695 N689 2.020 . S
Zn695 O698 2.025 . S
Zn695 O703 2.024 . S
Zn695 O705 2.039 . S
Zn695 O707 2.034 . S
O696 C680 1.251 . S
O696 Zn687 2.039 . S
C697 O702 1.246 . S
C697 O703 1.249 . S
O698 C680 1.254 . S
O698 Zn695 2.025 . S
H699 C691 0.952 . S
H700 C682 0.952 . S
H701 C690 0.948 . S
O702 Zn687 2.034 . S
O702 C697 1.246 . S
O703 Zn695 2.024 . S
O703 C697 1.249 . S
H704 C686 0.948 . S
O705 Zn695 2.039 . S
O705 C709 1.251 . S
O706 Zn687 2.025 . S
O706 C709 1.254 . S
O707 C688 1.246 . S
O707 Zn695 2.034 . S
O708 Zn687 2.024 . S
O708 C688 1.249 . S
C709 O705 1.251 . S
C709 O706 1.254 . S
H710 C683 0.949 . S
H711 C685 0.950 . S
H712 C692 0.949 . S
H713 C694 0.950 . S
C714 O730 1.251 . S
C714 O732 1.254 . S
N715 C716 1.333 . S
N715 C720 1.307 . S
N715 Zn721 2.020 . S
C716 N715 1.333 . S
C716 C717 1.379 . S
C716 H734 0.952 . S
C717 C716 1.379 . S
C717 C718 1.390 . S
C717 H744 0.949 . S
C718 C717 1.390 . S
C718 C719 1.357 . S
C719 C718 1.357 . S
C719 C720 1.370 . S
C719 H745 0.950 . S
C720 N715 1.307 . S
C720 C719 1.370 . S
C720 H738 0.948 . S
Zn721 N715 2.020 . S
Zn721 O730 2.039 . S
Zn721 O736 2.034 . S
Zn721 O740 2.025 . S
Zn721 O742 2.024 . S
C722 O741 1.246 . S
C722 O742 1.249 . S
N723 C724 1.307 . S
N723 C725 1.333 . S
N723 Zn729 2.020 . S
C724 N723 1.307 . S
C724 C728 1.370 1_556 S
C724 H735 0.948 . S
C725 N723 1.333 . S
C725 C726 1.387 . S
C725 H733 0.952 . S
C726 C725 1.387 . S
C726 C727 1.395 1_556 S
C726 H746 0.936 1_655 S
C727 C726 1.395 1_554 S
C727 C728 1.357 . S
C728 C724 1.370 1_554 S
C728 C727 1.357 . S
C728 H747 0.950 . S
Zn729 N723 2.020 . S
Zn729 O732 2.025 . S
Zn729 O737 2.024 . S
Zn729 O739 2.039 . S
Zn729 O741 2.034 . S
O730 C714 1.251 . S
O730 Zn721 2.039 . S
C731 O736 1.246 . S
C731 O737 1.249 . S
O732 C714 1.254 . S
O732 Zn729 2.025 . S
H733 C725 0.952 . S
H734 C716 0.952 . S
H735 C724 0.948 . S
O736 Zn721 2.034 . S
O736 C731 1.246 . S
O737 Zn729 2.024 . S
O737 C731 1.249 . S
H738 C720 0.948 . S
O739 Zn729 2.039 . S
O739 C743 1.251 . S
O740 Zn721 2.025 . S
O740 C743 1.254 . S
O741 C722 1.246 . S
O741 Zn729 2.034 . S
O742 Zn721 2.024 . S
O742 C722 1.249 . S
C743 O739 1.251 . S
C743 O740 1.254 . S
H744 C717 0.949 . S
H745 C719 0.950 . S
H746 C726 0.936 1_455 S
H747 C728 0.950 . S
C748 O764 1.251 . S
C748 O766 1.254 . S
N749 C750 1.333 . S
N749 C754 1.307 . S
N749 Zn755 2.020 . S
C750 N749 1.333 . S
C750 C751 1.379 . S
C750 H768 0.952 . S
C751 C750 1.379 . S
C751 C752 1.390 . S
C751 H778 0.949 . S
C752 C751 1.390 . S
C752 C753 1.357 . S
C753 C752 1.357 . S
C753 C754 1.370 . S
C753 H779 0.950 . S
C754 N749 1.307 . S
C754 C753 1.370 . S
C754 H772 0.948 . S
Zn755 N749 2.020 . S
Zn755 O764 2.039 . S
Zn755 O770 2.034 . S
Zn755 O774 2.025 . S
Zn755 O776 2.024 . S
C756 O775 1.246 . S
C756 O776 1.249 . S
N757 C758 1.307 . S
N757 C759 1.333 . S
N757 Zn763 2.020 . S
C758 N757 1.307 . S
C758 C762 1.370 . S
C758 H769 0.948 . S
C759 N757 1.333 . S
C759 C760 1.379 . S
C759 H767 0.952 . S
C760 C759 1.379 . S
C760 C761 1.390 . S
C760 H780 0.949 . S
C761 C760 1.390 . S
C761 C762 1.357 . S
C762 C758 1.370 . S
C762 C761 1.357 . S
C762 H781 0.950 . S
Zn763 N757 2.020 . S
Zn763 O766 2.025 . S
Zn763 O771 2.024 . S
Zn763 O773 2.039 . S
Zn763 O775 2.034 . S
O764 C748 1.251 . S
O764 Zn755 2.039 . S
C765 O770 1.246 . S
C765 O771 1.249 . S
O766 C748 1.254 . S
O766 Zn763 2.025 . S
H767 C759 0.952 . S
H768 C750 0.952 . S
H769 C758 0.948 . S
O770 Zn755 2.034 . S
O770 C765 1.246 . S
O771 Zn763 2.024 . S
O771 C765 1.249 . S
H772 C754 0.948 . S
O773 Zn763 2.039 . S
O773 C777 1.251 . S
O774 Zn755 2.025 . S
O774 C777 1.254 . S
O775 C756 1.246 . S
O775 Zn763 2.034 . S
O776 Zn755 2.024 . S
O776 C756 1.249 . S
C777 O773 1.251 . S
C777 O774 1.254 . S
H778 C751 0.949 . S
H779 C753 0.950 . S
H780 C760 0.949 . S
H781 C762 0.950 . S
C782 O798 1.251 . S
C782 O800 1.254 . S
N783 C784 1.333 . S
N783 C788 1.307 . S
N783 Zn789 2.020 . S
C784 N783 1.333 . S
C784 C785 1.379 . S
C784 H802 0.952 . S
C785 C784 1.379 . S
C785 C786 1.390 . S
C785 H812 0.949 . S
C786 C785 1.390 . S
C786 C787 1.357 . S
C787 C786 1.357 . S
C787 C788 1.370 . S
C787 H813 0.950 . S
C788 N783 1.307 . S
C788 C787 1.370 . S
C788 H806 0.948 . S
Zn789 N783 2.020 . S
Zn789 O798 2.039 . S
Zn789 O804 2.034 . S
Zn789 O808 2.025 . S
Zn789 O810 2.024 . S
C790 O809 1.246 . S
C790 O810 1.249 . S
N791 C792 1.307 . S
N791 C793 1.333 . S
N791 Zn797 2.020 . S
C792 N791 1.307 . S
C792 C796 1.370 . S
C792 H803 0.948 . S
C793 N791 1.333 . S
C793 C794 1.379 . S
C793 H801 0.952 . S
C794 C793 1.379 . S
C794 C795 1.390 . S
C794 H814 0.949 . S
C795 C794 1.390 . S
C795 C796 1.357 . S
C796 C792 1.370 . S
C796 C795 1.357 . S
C796 H815 0.950 . S
Zn797 N791 2.020 . S
Zn797 O800 2.025 . S
Zn797 O805 2.024 . S
Zn797 O807 2.039 . S
Zn797 O809 2.034 . S
O798 C782 1.251 . S
O798 Zn789 2.039 . S
C799 O804 1.246 . S
C799 O805 1.249 . S
O800 C782 1.254 . S
O800 Zn797 2.025 . S
H801 C793 0.952 . S
H802 C784 0.952 . S
H803 C792 0.948 . S
O804 Zn789 2.034 . S
O804 C799 1.246 . S
O805 Zn797 2.024 . S
O805 C799 1.249 . S
H806 C788 0.948 . S
O807 Zn797 2.039 . S
O807 C811 1.251 . S
O808 Zn789 2.025 . S
O808 C811 1.254 . S
O809 C790 1.246 . S
O809 Zn797 2.034 . S
O810 Zn789 2.024 . S
O810 C790 1.249 . S
C811 O807 1.251 . S
C811 O808 1.254 . S
H812 C785 0.949 . S
H813 C787 0.950 . S
H814 C794 0.949 . S
H815 C796 0.950 . S
C816 O832 1.251 . S
C816 O834 1.254 . S
N817 C818 1.333 . S
N817 C822 1.307 . S
N817 Zn823 2.020 . S
C818 N817 1.333 . S
C818 C819 1.379 . S
C818 H836 0.952 . S
C819 C818 1.379 . S
C819 C820 1.390 . S
C819 H846 0.949 . S
C820 C819 1.390 . S
C820 C821 1.357 . S
C821 C820 1.357 . S
C821 C822 1.370 . S
C821 H847 0.950 . S
C822 N817 1.307 . S
C822 C821 1.370 . S
C822 H840 0.948 . S
Zn823 N817 2.020 . S
Zn823 O832 2.039 . S
Zn823 O838 2.034 . S
Zn823 O842 2.025 . S
Zn823 O844 2.024 . S
C824 O843 1.246 . S
C824 O844 1.249 . S
N825 C826 1.307 . S
N825 C827 1.333 . S
N825 Zn831 2.020 . S
C826 N825 1.307 . S
C826 C830 1.370 . S
C826 H837 0.948 . S
C827 N825 1.333 . S
C827 C828 1.379 . S
C827 H835 0.952 . S
C828 C827 1.379 . S
C828 C829 1.390 . S
C828 H848 0.949 . S
C829 C828 1.390 . S
C829 C830 1.357 . S
C830 C826 1.370 . S
C830 C829 1.357 . S
C830 H849 0.950 . S
Zn831 N825 2.020 . S
Zn831 O834 2.025 . S
Zn831 O839 2.024 . S
Zn831 O841 2.039 . S
Zn831 O843 2.034 . S
O832 C816 1.251 . S
O832 Zn823 2.039 . S
C833 O838 1.246 . S
C833 O839 1.249 . S
O834 C816 1.254 . S
O834 Zn831 2.025 . S
H835 C827 0.952 . S
H836 C818 0.952 . S
H837 C826 0.948 . S
O838 Zn823 2.034 . S
O838 C833 1.246 . S
O839 Zn831 2.024 . S
O839 C833 1.249 . S
H840 C822 0.948 . S
O841 Zn831 2.039 . S
O841 C845 1.251 . S
O842 Zn823 2.025 . S
O842 C845 1.254 . S
O843 C824 1.246 . S
O843 Zn831 2.034 . S
O844 Zn823 2.024 . S
O844 C824 1.249 . S
C845 O841 1.251 . S
C845 O842 1.254 . S
H846 C819 0.949 . S
H847 C821 0.950 . S
H848 C828 0.949 . S
H849 C830 0.950 . S
C850 O866 1.251 . S
C850 O868 1.254 . S
N851 C852 1.333 . S
N851 C856 1.307 . S
N851 Zn857 2.020 . S
C852 N851 1.333 . S
C852 C853 1.379 . S
C852 H870 0.952 . S
C853 C852 1.379 . S
C853 C854 1.390 1_556 S
C853 H880 0.949 . S
C854 C853 1.390 1_554 S
C854 C855 1.357 . S
C855 C854 1.357 . S
C855 C856 1.370 1_554 S
C855 H881 0.950 . S
C856 N851 1.307 . S
C856 C855 1.370 1_556 S
C856 H874 0.948 . S
Zn857 N851 2.020 . S
Zn857 O866 2.039 . S
Zn857 O872 2.034 . S
Zn857 O876 2.025 . S
Zn857 O878 2.024 . S
C858 O877 1.246 . S
C858 O878 1.249 . S
N859 C860 1.307 . S
N859 C861 1.333 . S
N859 Zn865 2.020 . S
C860 N859 1.307 . S
C860 C864 1.370 . S
C860 H871 0.948 . S
C861 N859 1.333 . S
C861 C862 1.379 . S
C861 H869 0.952 . S
C862 C861 1.379 . S
C862 C863 1.390 . S
C862 H882 0.949 . S
C863 C862 1.390 . S
C863 C864 1.357 . S
C864 C860 1.370 . S
C864 C863 1.357 . S
C864 H883 0.950 . S
Zn865 N859 2.020 . S
Zn865 O868 2.025 . S
Zn865 O873 2.024 . S
Zn865 O875 2.039 . S
Zn865 O877 2.034 . S
O866 C850 1.251 . S
O866 Zn857 2.039 . S
C867 O872 1.246 . S
C867 O873 1.249 . S
O868 C850 1.254 . S
O868 Zn865 2.025 . S
H869 C861 0.952 . S
H870 C852 0.952 . S
H871 C860 0.948 . S
O872 Zn857 2.034 . S
O872 C867 1.246 . S
O873 Zn865 2.024 . S
O873 C867 1.249 . S
H874 C856 0.948 . S
O875 Zn865 2.039 . S
O875 C879 1.251 . S
O876 Zn857 2.025 . S
O876 C879 1.254 . S
O877 C858 1.246 . S
O877 Zn865 2.034 . S
O878 Zn857 2.024 . S
O878 C858 1.249 . S
C879 O875 1.251 . S
C879 O876 1.254 . S
H880 C853 0.949 . S
H881 C855 0.950 . S
H882 C862 0.949 . S
H883 C864 0.950 . S
C884 O900 1.251 . S
C884 O902 1.254 . S
N885 C886 1.333 . S
N885 C890 1.307 . S
N885 Zn891 2.020 . S
C886 N885 1.333 . S
C886 C887 1.379 . S
C886 H904 0.952 . S
C887 C886 1.379 . S
C887 C888 1.390 . S
C887 H914 0.949 . S
C888 C887 1.390 . S
C888 C889 1.357 . S
C889 C888 1.357 . S
C889 C890 1.370 . S
C889 H915 0.950 . S
C890 N885 1.307 . S
C890 C889 1.370 . S
C890 H908 0.948 . S
Zn891 N885 2.020 . S
Zn891 O900 2.039 . S
Zn891 O906 2.034 . S
Zn891 O910 2.025 . S
Zn891 O912 2.024 . S
C892 O911 1.246 . S
C892 O912 1.249 . S
N893 C894 1.307 . S
N893 C895 1.333 . S
N893 Zn899 2.020 . S
C894 N893 1.307 . S
C894 C898 1.370 . S
C894 H905 0.948 . S
C895 N893 1.333 . S
C895 C896 1.379 . S
C895 H903 0.952 . S
C896 C895 1.379 . S
C896 C897 1.390 . S
C896 H916 0.949 . S
C897 C896 1.390 . S
C897 C898 1.357 . S
C898 C894 1.370 . S
C898 C897 1.357 . S
C898 H917 0.950 . S
Zn899 N893 2.020 . S
Zn899 O902 2.025 . S
Zn899 O907 2.024 . S
Zn899 O909 2.039 . S
Zn899 O911 2.034 . S
O900 C884 1.251 . S
O900 Zn891 2.039 . S
C901 O906 1.246 . S
C901 O907 1.249 . S
O902 C884 1.254 . S
O902 Zn899 2.025 . S
H903 C895 0.952 . S
H904 C886 0.952 . S
H905 C894 0.948 . S
O906 Zn891 2.034 . S
O906 C901 1.246 . S
O907 Zn899 2.024 . S
O907 C901 1.249 . S
H908 C890 0.948 . S
O909 Zn899 2.039 . S
O909 C913 1.251 . S
O910 Zn891 2.025 . S
O910 C913 1.254 . S
O911 C892 1.246 . S
O911 Zn899 2.034 . S
O912 Zn891 2.024 . S
O912 C892 1.249 . S
C913 O909 1.251 . S
C913 O910 1.254 . S
H914 C887 0.949 . S
H915 C889 0.950 . S
H916 C896 0.949 . S
H917 C898 0.950 . S
C918 O934 1.251 . S
C918 O936 1.254 . S
N919 C920 1.333 . S
N919 C924 1.307 . S
N919 Zn925 2.020 . S
C920 N919 1.333 . S
C920 C921 1.387 . S
C920 H938 0.952 . S
C921 C920 1.387 . S
C921 C922 1.395 . S
C921 H948 0.936 1_455 S
C922 C921 1.395 . S
C922 C923 1.357 . S
C923 C922 1.357 . S
C923 C924 1.370 . S
C923 H949 0.950 . S
C924 N919 1.307 . S
C924 C923 1.370 . S
C924 H942 0.948 . S
Zn925 N919 2.020 . S
Zn925 O934 2.039 . S
Zn925 O940 2.034 . S
Zn925 O944 2.025 . S
Zn925 O946 2.024 . S
C926 O945 1.246 . S
C926 O946 1.249 . S
N927 C928 1.307 . S
N927 C929 1.333 . S
N927 Zn933 2.020 . S
C928 N927 1.307 . S
C928 C932 1.370 . S
C928 H939 0.948 . S
C929 N927 1.333 . S
C929 C930 1.379 . S
C929 H937 0.952 . S
C930 C929 1.379 . S
C930 C931 1.390 . S
C930 H950 0.949 . S
C931 C930 1.390 . S
C931 C932 1.357 . S
C932 C928 1.370 . S
C932 C931 1.357 . S
C932 H951 0.950 . S
Zn933 N927 2.020 . S
Zn933 O936 2.025 . S
Zn933 O941 2.024 . S
Zn933 O943 2.039 . S
Zn933 O945 2.034 . S
O934 C918 1.251 . S
O934 Zn925 2.039 . S
C935 O940 1.246 . S
C935 O941 1.249 . S
O936 C918 1.254 . S
O936 Zn933 2.025 . S
H937 C929 0.952 . S
H938 C920 0.952 . S
H939 C928 0.948 . S
O940 Zn925 2.034 . S
O940 C935 1.246 . S
O941 Zn933 2.024 . S
O941 C935 1.249 . S
H942 C924 0.948 . S
O943 Zn933 2.039 . S
O943 C947 1.251 . S
O944 Zn925 2.025 . S
O944 C947 1.254 . S
O945 C926 1.246 . S
O945 Zn933 2.034 . S
O946 Zn925 2.024 . S
O946 C926 1.249 . S
C947 O943 1.251 . S
C947 O944 1.254 . S
H948 C921 0.936 1_655 S
H949 C923 0.950 . S
H950 C930 0.949 . S
H951 C932 0.950 . S
C952 O968 1.251 . S
C952 O970 1.254 . S
N953 C954 1.333 . S
N953 C958 1.307 . S
N953 Zn959 2.020 . S
C954 N953 1.333 . S
C954 C955 1.379 . S
C954 H972 0.952 . S
C955 C954 1.379 . S
C955 C956 1.390 . S
C955 H982 0.949 . S
C956 C955 1.390 . S
C956 C957 1.357 . S
C957 C956 1.357 . S
C957 C958 1.370 . S
C957 H983 0.950 . S
C958 N953 1.307 . S
C958 C957 1.370 . S
C958 H976 0.948 . S
Zn959 N953 2.020 . S
Zn959 O968 2.039 . S
Zn959 O974 2.034 . S
Zn959 O978 2.025 . S
Zn959 O980 2.024 . S
C960 O979 1.246 . S
C960 O980 1.249 . S
N961 C962 1.307 . S
N961 C963 1.333 . S
N961 Zn967 2.020 . S
C962 N961 1.307 . S
C962 C966 1.370 . S
C962 H973 0.948 . S
C963 N961 1.333 . S
C963 C964 1.379 . S
C963 H971 0.952 . S
C964 C963 1.379 . S
C964 C965 1.390 . S
C964 H984 0.949 . S
C965 C964 1.390 . S
C965 C966 1.357 . S
C966 C962 1.370 . S
C966 C965 1.357 . S
C966 H985 0.950 . S
Zn967 N961 2.020 . S
Zn967 O970 2.025 . S
Zn967 O975 2.024 . S
Zn967 O977 2.039 . S
Zn967 O979 2.034 . S
O968 C952 1.251 . S
O968 Zn959 2.039 . S
C969 O974 1.246 . S
C969 O975 1.249 . S
O970 C952 1.254 . S
O970 Zn967 2.025 . S
H971 C963 0.952 . S
H972 C954 0.952 . S
H973 C962 0.948 . S
O974 Zn959 2.034 . S
O974 C969 1.246 . S
O975 Zn967 2.024 . S
O975 C969 1.249 . S
H976 C958 0.948 . S
O977 Zn967 2.039 . S
O977 C981 1.251 . S
O978 Zn959 2.025 . S
O978 C981 1.254 . S
O979 C960 1.246 . S
O979 Zn967 2.034 . S
O980 Zn959 2.024 . S
O980 C960 1.249 . S
C981 O977 1.251 . S
C981 O978 1.254 . S
H982 C955 0.949 . S
H983 C957 0.950 . S
H984 C964 0.949 . S
H985 C966 0.950 . S
C986 O1002 1.251 . S
C986 O1004 1.254 . S
N987 C988 1.333 . S
N987 C992 1.307 . S
N987 Zn993 2.020 . S
C988 N987 1.333 . S
C988 C989 1.387 . S
C988 H1006 0.952 . S
C989 C988 1.387 . S
C989 C990 1.395 1_554 S
C989 H1016 0.936 1_455 S
C990 C989 1.395 1_556 S
C990 C991 1.357 . S
C991 C990 1.357 . S
C991 C992 1.370 1_556 S
C991 H1017 0.950 . S
C992 N987 1.307 . S
C992 C991 1.370 1_554 S
C992 H1010 0.948 . S
Zn993 N987 2.020 . S
Zn993 O1002 2.039 . S
Zn993 O1008 2.034 . S
Zn993 O1012 2.025 . S
Zn993 O1014 2.024 . S
C994 O1013 1.246 . S
C994 O1014 1.249 . S
N995 C996 1.307 . S
N995 C997 1.333 . S
N995 Zn1001 2.020 . S
C996 N995 1.307 . S
C996 C1000 1.370 . S
C996 H1007 0.948 . S
C997 N995 1.333 . S
C997 C998 1.379 . S
C997 H1005 0.952 . S
C998 C997 1.379 . S
C998 C999 1.390 . S
C998 H1018 0.949 . S
C999 C998 1.390 . S
C999 C1000 1.357 . S
C1000 C996 1.370 . S
C1000 C999 1.357 . S
C1000 H1019 0.950 . S
Zn1001 N995 2.020 . S
Zn1001 O1004 2.025 . S
Zn1001 O1009 2.024 . S
Zn1001 O1011 2.039 . S
Zn1001 O1013 2.034 . S
O1002 C986 1.251 . S
O1002 Zn993 2.039 . S
C1003 O1008 1.246 . S
C1003 O1009 1.249 . S
O1004 C986 1.254 . S
O1004 Zn1001 2.025 . S
H1005 C997 0.952 . S
H1006 C988 0.952 . S
H1007 C996 0.948 . S
O1008 Zn993 2.034 . S
O1008 C1003 1.246 . S
O1009 Zn1001 2.024 . S
O1009 C1003 1.249 . S
H1010 C992 0.948 . S
O1011 Zn1001 2.039 . S
O1011 C1015 1.251 . S
O1012 Zn993 2.025 . S
O1012 C1015 1.254 . S
O1013 C994 1.246 . S
O1013 Zn1001 2.034 . S
O1014 Zn993 2.024 . S
O1014 C994 1.249 . S
C1015 O1011 1.251 . S
C1015 O1012 1.254 . S
H1016 C989 0.936 1_655 S
H1017 C991 0.950 . S
H1018 C998 0.949 . S
H1019 C1000 0.950 . S
C1020 O1036 1.251 . S
C1020 O1038 1.254 . S
N1021 C1022 1.333 . S
N1021 C1026 1.307 . S
N1021 Zn1027 2.020 . S
C1022 N1021 1.333 . S
C1022 C1023 1.379 . S
C1022 H1040 0.952 . S
C1023 C1022 1.379 . S
C1023 C1024 1.390 . S
C1023 H1050 0.949 . S
C1024 C1023 1.390 . S
C1024 C1025 1.357 . S
C1025 C1024 1.357 . S
C1025 C1026 1.370 . S
C1025 H1051 0.950 . S
C1026 N1021 1.307 . S
C1026 C1025 1.370 . S
C1026 H1044 0.948 . S
Zn1027 N1021 2.020 . S
Zn1027 O1036 2.039 . S
Zn1027 O1042 2.034 . S
Zn1027 O1046 2.025 . S
Zn1027 O1048 2.024 . S
C1028 O1047 1.246 . S
C1028 O1048 1.249 . S
N1029 C1030 1.307 . S
N1029 C1031 1.333 . S
N1029 Zn1035 2.020 . S
C1030 N1029 1.307 . S
C1030 C1034 1.370 . S
C1030 H1041 0.948 . S
C1031 N1029 1.333 . S
C1031 C1032 1.379 . S
C1031 H1039 0.952 . S
C1032 C1031 1.379 . S
C1032 C1033 1.390 . S
C1032 H1052 0.949 . S
C1033 C1032 1.390 . S
C1033 C1034 1.357 . S
C1034 C1030 1.370 . S
C1034 C1033 1.357 . S
C1034 H1053 0.950 . S
Zn1035 N1029 2.020 . S
Zn1035 O1038 2.025 . S
Zn1035 O1043 2.024 . S
Zn1035 O1045 2.039 . S
Zn1035 O1047 2.034 . S
O1036 C1020 1.251 . S
O1036 Zn1027 2.039 . S
C1037 O1042 1.246 . S
C1037 O1043 1.249 . S
O1038 C1020 1.254 . S
O1038 Zn1035 2.025 . S
H1039 C1031 0.952 . S
H1040 C1022 0.952 . S
H1041 C1030 0.948 . S
O1042 Zn1027 2.034 . S
O1042 C1037 1.246 . S
O1043 Zn1035 2.024 . S
O1043 C1037 1.249 . S
H1044 C1026 0.948 . S
O1045 Zn1035 2.039 . S
O1045 C1049 1.251 . S
O1046 Zn1027 2.025 . S
O1046 C1049 1.254 . S
O1047 C1028 1.246 . S
O1047 Zn1035 2.034 . S
O1048 Zn1027 2.024 . S
O1048 C1028 1.249 . S
C1049 O1045 1.251 . S
C1049 O1046 1.254 . S
H1050 C1023 0.949 . S
H1051 C1025 0.950 . S
H1052 C1032 0.949 . S
H1053 C1034 0.950 . S
C1054 O1070 1.251 . S
C1054 O1072 1.254 . S
N1055 C1056 1.333 . S
N1055 C1060 1.307 . S
N1055 Zn1061 2.020 . S
C1056 N1055 1.333 . S
C1056 C1057 1.379 . S
C1056 H1074 0.952 . S
C1057 C1056 1.379 . S
C1057 C1058 1.390 . S
C1057 H1084 0.949 . S
C1058 C1057 1.390 . S
C1058 C1059 1.357 . S
C1059 C1058 1.357 . S
C1059 C1060 1.370 . S
C1059 H1085 0.950 . S
C1060 N1055 1.307 . S
C1060 C1059 1.370 . S
C1060 H1078 0.948 . S
Zn1061 N1055 2.020 . S
Zn1061 O1070 2.039 . S
Zn1061 O1076 2.034 . S
Zn1061 O1080 2.025 . S
Zn1061 O1082 2.024 . S
C1062 O1081 1.246 . S
C1062 O1082 1.249 . S
N1063 C1064 1.307 . S
N1063 C1065 1.333 . S
N1063 Zn1069 2.020 . S
C1064 N1063 1.307 . S
C1064 C1068 1.370 . S
C1064 H1075 0.948 . S
C1065 N1063 1.333 . S
C1065 C1066 1.379 . S
C1065 H1073 0.952 . S
C1066 C1065 1.379 . S
C1066 C1067 1.390 . S
C1066 H1086 0.949 . S
C1067 C1066 1.390 . S
C1067 C1068 1.357 . S
C1068 C1064 1.370 . S
C1068 C1067 1.357 . S
C1068 H1087 0.950 . S
Zn1069 N1063 2.020 . S
Zn1069 O1072 2.025 . S
Zn1069 O1077 2.024 . S
Zn1069 O1079 2.039 . S
Zn1069 O1081 2.034 . S
O1070 C1054 1.251 . S
O1070 Zn1061 2.039 . S
C1071 O1076 1.246 . S
C1071 O1077 1.249 . S
O1072 C1054 1.254 . S
O1072 Zn1069 2.025 . S
H1073 C1065 0.952 . S
H1074 C1056 0.952 . S
H1075 C1064 0.948 . S
O1076 Zn1061 2.034 . S
O1076 C1071 1.246 . S
O1077 Zn1069 2.024 . S
O1077 C1071 1.249 . S
H1078 C1060 0.948 . S
O1079 Zn1069 2.039 . S
O1079 C1083 1.251 . S
O1080 Zn1061 2.025 . S
O1080 C1083 1.254 . S
O1081 C1062 1.246 . S
O1081 Zn1069 2.034 . S
O1082 Zn1061 2.024 . S
O1082 C1062 1.249 . S
C1083 O1079 1.251 . S
C1083 O1080 1.254 . S
H1084 C1057 0.949 . S
H1085 C1059 0.950 . S
H1086 C1066 0.949 . S
H1087 C1068 0.950 . S
C1088 C1089 1.387 . S
C1088 H1092 0.950 . S
C1088 C1097 1.390 . S
C1089 C1088 1.387 . S
C1089 C1091 1.387 . S
H1090 C1097 0.950 . S
C1091 C1089 1.387 . S
C1091 C1093 1.390 . S
C1091 H1095 0.950 . S
H1092 C1088 0.950 . S
C1093 C1091 1.390 . S
C1093 C1094 1.387 . S
C1093 H1096 0.950 . S
C1094 C1093 1.387 . S
C1094 C1097 1.387 . S
H1095 C1091 0.950 . S
H1096 C1093 0.950 . S
C1097 C1088 1.390 . S
C1097 H1090 0.950 . S
C1097 C1094 1.387 . S
C1098 C1099 1.387 1_655 S
C1098 H1102 0.950 1_655 S
C1098 C1107 1.390 . S
C1099 C1098 1.387 1_455 S
C1099 C1101 1.387 1_455 S
H1100 C1107 0.950 . S
C1101 C1099 1.387 1_655 S
C1101 C1103 1.390 . S
C1101 H1105 0.950 . S
H1102 C1098 0.950 1_455 S
C1103 C1101 1.390 . S
C1103 C1104 1.387 . S
C1103 H1106 0.950 . S
C1104 C1103 1.387 . S
C1104 C1107 1.387 . S
H1105 C1101 0.950 . S
H1106 C1103 0.950 . S
C1107 C1098 1.390 . S
C1107 H1100 0.950 . S
C1107 C1104 1.387 . S
C1108 C1109 1.387 . S
C1108 H1112 0.950 . S
C1108 C1117 1.390 . S
C1109 C1108 1.387 . S
C1109 C1111 1.387 . S
H1110 C1117 0.950 . S
C1111 C1109 1.387 . S
C1111 C1113 1.390 . S
C1111 H1115 0.950 . S
H1112 C1108 0.950 . S
C1113 C1111 1.390 . S
C1113 C1114 1.387 . S
C1113 H1116 0.950 . S
C1114 C1113 1.387 . S
C1114 C1117 1.387 . S
H1115 C1111 0.950 . S
H1116 C1113 0.950 . S
C1117 C1108 1.390 . S
C1117 H1110 0.950 . S
C1117 C1114 1.387 . S
C1118 C1119 1.387 . S
C1118 H1122 0.950 . S
C1118 C1127 1.390 . S
C1119 C1118 1.387 . S
C1119 C1121 1.387 . S
H1120 C1127 0.950 . S
C1121 C1119 1.387 . S
C1121 C1123 1.390 . S
C1121 H1125 0.950 . S
H1122 C1118 0.950 . S
C1123 C1121 1.390 . S
C1123 C1124 1.387 . S
C1123 H1126 0.950 . S
C1124 C1123 1.387 . S
C1124 C1127 1.387 . S
H1125 C1121 0.950 . S
H1126 C1123 0.950 . S
C1127 C1118 1.390 . S
C1127 H1120 0.950 . S
C1127 C1124 1.387 . S
C1128 C1129 1.387 . S
C1128 H1132 0.950 . S
C1128 C1137 1.390 . S
C1129 C1128 1.387 . S
C1129 C1131 1.387 . S
H1130 C1137 0.950 . S
C1131 C1129 1.387 . S
C1131 C1133 1.390 . S
C1131 H1135 0.950 . S
H1132 C1128 0.950 . S
C1133 C1131 1.390 . S
C1133 C1134 1.387 . S
C1133 H1136 0.950 . S
C1134 C1133 1.387 . S
C1134 C1137 1.387 . S
H1135 C1131 0.950 . S
H1136 C1133 0.950 . S
C1137 C1128 1.390 . S
C1137 H1130 0.950 . S
C1137 C1134 1.387 . S
C1138 C1139 1.387 . S
C1138 H1142 0.950 . S
C1138 C1147 1.390 . S
C1139 C1138 1.387 . S
C1139 C1141 1.387 . S
H1140 C1147 0.950 . S
C1141 C1139 1.387 . S
C1141 C1143 1.390 . S
C1141 H1145 0.950 . S
H1142 C1138 0.950 . S
C1143 C1141 1.390 . S
C1143 C1144 1.387 . S
C1143 H1146 0.950 . S
C1144 C1143 1.387 . S
C1144 C1147 1.387 . S
H1145 C1141 0.950 . S
H1146 C1143 0.950 . S
C1147 C1138 1.390 . S
C1147 H1140 0.950 . S
C1147 C1144 1.387 . S
C1148 C1149 1.387 . S
C1148 H1152 0.950 . S
C1148 C1157 1.390 . S
C1149 C1148 1.387 . S
C1149 C1151 1.387 . S
H1150 C1157 0.950 . S
C1151 C1149 1.387 . S
C1151 C1153 1.390 . S
C1151 H1155 0.950 . S
H1152 C1148 0.950 . S
C1153 C1151 1.390 . S
C1153 C1154 1.387 . S
C1153 H1156 0.950 . S
C1154 C1153 1.387 . S
C1154 C1157 1.387 . S
H1155 C1151 0.950 . S
H1156 C1153 0.950 . S
C1157 C1148 1.390 . S
C1157 H1150 0.950 . S
C1157 C1154 1.387 . S
C1158 C1159 1.387 1_655 S
C1158 H1162 0.950 1_655 S
C1158 C1167 1.390 . S
C1159 C1158 1.387 1_455 S
C1159 C1161 1.387 1_455 S
H1160 C1167 0.950 . S
C1161 C1159 1.387 1_655 S
C1161 C1163 1.390 . S
C1161 H1165 0.950 . S
H1162 C1158 0.950 1_455 S
C1163 C1161 1.390 . S
C1163 C1164 1.387 . S
C1163 H1166 0.950 . S
C1164 C1163 1.387 . S
C1164 C1167 1.387 . S
H1165 C1161 0.950 . S
H1166 C1163 0.950 . S
C1167 C1158 1.390 . S
C1167 H1160 0.950 . S
C1167 C1164 1.387 . S
C1168 C1169 1.387 . S
C1168 H1172 0.950 . S
C1168 C1177 1.390 . S
C1169 C1168 1.387 . S
C1169 C1171 1.387 . S
H1170 C1177 0.950 . S
C1171 C1169 1.387 . S
C1171 C1173 1.390 . S
C1171 H1175 0.950 . S
H1172 C1168 0.950 . S
C1173 C1171 1.390 . S
C1173 C1174 1.387 . S
C1173 H1176 0.950 . S
C1174 C1173 1.387 . S
C1174 C1177 1.387 . S
H1175 C1171 0.950 . S
H1176 C1173 0.950 . S
C1177 C1168 1.390 . S
C1177 H1170 0.950 . S
C1177 C1174 1.387 . S
C1178 C1179 1.387 1_455 S
C1178 H1182 0.950 . S
C1178 C1187 1.390 . S
C1179 C1178 1.387 1_655 S
C1179 C1181 1.387 1_655 S
H1180 C1187 0.950 . S
C1181 C1179 1.387 1_455 S
C1181 C1183 1.390 . S
C1181 H1185 0.950 . S
H1182 C1178 0.950 . S
C1183 C1181 1.390 . S
C1183 C1184 1.387 . S
C1183 H1186 0.950 . S
C1184 C1183 1.387 . S
C1184 C1187 1.387 . S
H1185 C1181 0.950 . S
H1186 C1183 0.950 . S
C1187 C1178 1.390 . S
C1187 H1180 0.950 . S
C1187 C1184 1.387 . S
C1188 C1189 1.387 . S
C1188 H1192 0.950 . S
C1188 C1197 1.390 . S
C1189 C1188 1.387 . S
C1189 C1191 1.387 . S
H1190 C1197 0.950 . S
C1191 C1189 1.387 . S
C1191 C1193 1.390 . S
C1191 H1195 0.950 . S
H1192 C1188 0.950 . S
C1193 C1191 1.390 . S
C1193 C1194 1.387 . S
C1193 H1196 0.950 . S
C1194 C1193 1.387 . S
C1194 C1197 1.387 . S
H1195 C1191 0.950 . S
H1196 C1193 0.950 . S
C1197 C1188 1.390 . S
C1197 H1190 0.950 . S
C1197 C1194 1.387 . S
C1198 C1199 1.387 . S
C1198 H1202 0.950 . S
C1198 C1207 1.390 . S
C1199 C1198 1.387 . S
C1199 C1201 1.387 . S
H1200 C1207 0.950 . S
C1201 C1199 1.387 . S
C1201 C1203 1.390 . S
C1201 H1205 0.950 . S
H1202 C1198 0.950 . S
C1203 C1201 1.390 . S
C1203 C1204 1.387 . S
C1203 H1206 0.950 . S
C1204 C1203 1.387 . S
C1204 C1207 1.387 . S
H1205 C1201 0.950 . S
H1206 C1203 0.950 . S
C1207 C1198 1.390 . S
C1207 H1200 0.950 . S
C1207 C1204 1.387 . S
C1208 C1209 1.387 . S
C1208 H1212 0.950 . S
C1208 C1217 1.390 . S
C1209 C1208 1.387 . S
C1209 C1211 1.387 . S
H1210 C1217 0.950 . S
C1211 C1209 1.387 . S
C1211 C1213 1.390 . S
C1211 H1215 0.950 . S
H1212 C1208 0.950 . S
C1213 C1211 1.390 . S
C1213 C1214 1.387 . S
C1213 H1216 0.950 . S
C1214 C1213 1.387 . S
C1214 C1217 1.387 . S
H1215 C1211 0.950 . S
H1216 C1213 0.950 . S
C1217 C1208 1.390 . S
C1217 H1210 0.950 . S
C1217 C1214 1.387 . S
C1218 C1219 1.387 . S
C1218 H1222 0.950 . S
C1218 C1227 1.390 . S
C1219 C1218 1.387 . S
C1219 C1221 1.387 . S
H1220 C1227 0.950 . S
C1221 C1219 1.387 . S
C1221 C1223 1.390 . S
C1221 H1225 0.950 . S
H1222 C1218 0.950 . S
C1223 C1221 1.390 . S
C1223 C1224 1.387 . S
C1223 H1226 0.950 . S
C1224 C1223 1.387 . S
C1224 C1227 1.387 . S
H1225 C1221 0.950 . S
H1226 C1223 0.950 . S
C1227 C1218 1.390 . S
C1227 H1220 0.950 . S
C1227 C1224 1.387 . S
C1228 C1229 1.387 . S
C1228 H1232 0.950 . S
C1228 C1237 1.390 . S
C1229 C1228 1.387 . S
C1229 C1231 1.387 . S
H1230 C1237 0.950 . S
C1231 C1229 1.387 . S
C1231 C1233 1.390 . S
C1231 H1235 0.950 . S
H1232 C1228 0.950 . S
C1233 C1231 1.390 . S
C1233 C1234 1.387 . S
C1233 H1236 0.950 . S
C1234 C1233 1.387 . S
C1234 C1237 1.387 . S
H1235 C1231 0.950 . S
H1236 C1233 0.950 . S
C1237 C1228 1.390 . S
C1237 H1230 0.950 . S
C1237 C1234 1.387 . S
C1238 C1239 1.387 . S
C1238 H1242 0.950 . S
C1238 C1247 1.390 . S
C1239 C1238 1.387 . S
C1239 C1241 1.387 . S
H1240 C1247 0.950 1_655 S
C1241 C1239 1.387 . S
C1241 C1243 1.390 . S
C1241 H1245 0.950 . S
H1242 C1238 0.950 . S
C1243 C1241 1.390 . S
C1243 C1244 1.387 1_455 S
C1243 H1246 0.950 . S
C1244 C1243 1.387 1_655 S
C1244 C1247 1.387 1_655 S
H1245 C1241 0.950 . S
H1246 C1243 0.950 . S
C1247 C1238 1.390 . S
C1247 H1240 0.950 1_455 S
C1247 C1244 1.387 1_455 S
C1248 C1249 1.387 . S
C1248 H1252 0.950 . S
C1248 C1257 1.390 . S
C1249 C1248 1.387 . S
C1249 C1251 1.387 . S
H1250 C1257 0.950 . S
C1251 C1249 1.387 . S
C1251 C1253 1.390 . S
C1251 H1255 0.950 . S
H1252 C1248 0.950 . S
C1253 C1251 1.390 . S
C1253 C1254 1.387 . S
C1253 H1256 0.950 . S
C1254 C1253 1.387 . S
C1254 C1257 1.387 . S
H1255 C1251 0.950 . S
H1256 C1253 0.950 . S
C1257 C1248 1.390 . S
C1257 H1250 0.950 . S
C1257 C1254 1.387 . S
C1258 C1259 1.387 . S
C1258 H1262 0.950 . S
C1258 C1267 1.390 . S
C1259 C1258 1.387 . S
C1259 C1261 1.387 . S
H1260 C1267 0.950 . S
C1261 C1259 1.387 . S
C1261 C1263 1.390 . S
C1261 H1265 0.950 . S
H1262 C1258 0.950 . S
C1263 C1261 1.390 . S
C1263 C1264 1.387 . S
C1263 H1266 0.950 . S
C1264 C1263 1.387 . S
C1264 C1267 1.387 . S
H1265 C1261 0.950 . S
H1266 C1263 0.950 . S
C1267 C1258 1.390 . S
C1267 H1260 0.950 . S
C1267 C1264 1.387 . S
C1268 C1269 1.387 . S
C1268 H1272 0.950 . S
C1268 C1277 1.390 . S
C1269 C1268 1.387 . S
C1269 C1271 1.387 . S
H1270 C1277 0.950 . S
C1271 C1269 1.387 . S
C1271 C1273 1.390 . S
C1271 H1275 0.950 . S
H1272 C1268 0.950 . S
C1273 C1271 1.390 . S
C1273 C1274 1.387 . S
C1273 H1276 0.950 . S
C1274 C1273 1.387 . S
C1274 C1277 1.387 . S
H1275 C1271 0.950 . S
H1276 C1273 0.950 . S
C1277 C1268 1.390 . S
C1277 H1270 0.950 . S
C1277 C1274 1.387 . S
C1278 C1279 1.387 1_455 S
C1278 H1282 0.936 1_455 S
C1278 C1287 1.390 . S
C1279 C1278 1.387 1_655 S
C1279 C1281 1.387 1_655 S
H1280 C1287 0.950 . S
C1281 C1279 1.387 1_455 S
C1281 C1283 1.390 . S
C1281 H1285 0.950 . S
H1282 C1278 0.936 1_655 S
C1283 C1281 1.390 . S
C1283 C1284 1.387 . S
C1283 H1286 0.950 . S
C1284 C1283 1.387 . S
C1284 C1287 1.387 . S
H1285 C1281 0.950 . S
H1286 C1283 0.950 . S
C1287 C1278 1.390 . S
C1287 H1280 0.950 . S
C1287 C1284 1.387 . S
C1288 C1289 1.387 . S
C1288 H1292 0.950 . S
C1288 C1297 1.390 . S
C1289 C1288 1.387 . S
C1289 C1291 1.387 . S
H1290 C1297 0.950 . S
C1291 C1289 1.387 . S
C1291 C1293 1.390 . S
C1291 H1295 0.950 . S
H1292 C1288 0.950 . S
C1293 C1291 1.390 . S
C1293 C1294 1.387 . S
C1293 H1296 0.950 . S
C1294 C1293 1.387 . S
C1294 C1297 1.387 . S
H1295 C1291 0.950 . S
H1296 C1293 0.950 . S
C1297 C1288 1.390 . S
C1297 H1290 0.950 . S
C1297 C1294 1.387 . S
C1298 C1299 1.387 . S
C1298 H1302 0.950 . S
C1298 C1307 1.390 . S
C1299 C1298 1.387 . S
C1299 C1301 1.387 . S
H1300 C1307 0.950 . S
C1301 C1299 1.387 . S
C1301 C1303 1.390 . S
C1301 H1305 0.950 . S
H1302 C1298 0.950 . S
C1303 C1301 1.390 . S
C1303 C1304 1.387 1_455 S
C1303 H1306 0.940 1_455 S
C1304 C1303 1.387 1_655 S
C1304 C1307 1.387 1_655 S
H1305 C1301 0.950 . S
H1306 C1303 0.940 1_655 S
C1307 C1298 1.390 . S
C1307 H1300 0.950 . S
C1307 C1304 1.387 1_455 S
C1308 C1309 1.387 . S
C1308 H1312 0.950 . S
C1308 C1317 1.390 . S
C1309 C1308 1.387 . S
C1309 C1311 1.387 . S
H1310 C1317 0.950 . S
C1311 C1309 1.387 . S
C1311 C1313 1.390 . S
C1311 H1315 0.950 . S
H1312 C1308 0.950 . S
C1313 C1311 1.390 . S
C1313 C1314 1.387 . S
C1313 H1316 0.950 . S
C1314 C1313 1.387 . S
C1314 C1317 1.387 . S
H1315 C1311 0.950 . S
H1316 C1313 0.950 . S
C1317 C1308 1.390 . S
C1317 H1310 0.950 . S
C1317 C1314 1.387 . S
C1318 C1319 1.387 . S
C1318 H1322 0.950 . S
C1318 C1327 1.390 . S
C1319 C1318 1.387 . S
C1319 C1321 1.387 . S
H1320 C1327 0.950 . S
C1321 C1319 1.387 . S
C1321 C1323 1.390 . S
C1321 H1325 0.950 . S
H1322 C1318 0.950 . S
C1323 C1321 1.390 . S
C1323 C1324 1.387 . S
C1323 H1326 0.950 . S
C1324 C1323 1.387 . S
C1324 C1327 1.387 . S
H1325 C1321 0.950 . S
H1326 C1323 0.950 . S
C1327 C1318 1.390 . S
C1327 H1320 0.950 . S
C1327 C1324 1.387 . S
C1328 C1329 1.387 . S
C1328 H1332 0.950 . S
C1328 C1337 1.390 . S
C1329 C1328 1.387 . S
C1329 C1331 1.387 . S
H1330 C1337 0.950 . S
C1331 C1329 1.387 . S
C1331 C1333 1.390 . S
C1331 H1335 0.950 . S
H1332 C1328 0.950 . S
C1333 C1331 1.390 . S
C1333 C1334 1.387 . S
C1333 H1336 0.950 . S
C1334 C1333 1.387 . S
C1334 C1337 1.387 . S
H1335 C1331 0.950 . S
H1336 C1333 0.950 . S
C1337 C1328 1.390 . S
C1337 H1330 0.950 . S
C1337 C1334 1.387 . S
C1338 C1339 1.387 . S
C1338 H1342 0.950 . S
C1338 C1347 1.390 . S
C1339 C1338 1.387 . S
C1339 C1341 1.387 . S
H1340 C1347 0.950 . S
C1341 C1339 1.387 . S
C1341 C1343 1.390 . S
C1341 H1345 0.950 . S
H1342 C1338 0.950 . S
C1343 C1341 1.390 . S
C1343 C1344 1.387 . S
C1343 H1346 0.950 . S
C1344 C1343 1.387 . S
C1344 C1347 1.387 . S
H1345 C1341 0.950 . S
H1346 C1343 0.950 . S
C1347 C1338 1.390 . S
C1347 H1340 0.950 . S
C1347 C1344 1.387 . S
C1348 C1349 1.387 . S
C1348 H1352 0.950 . S
C1348 C1357 1.390 . S
C1349 C1348 1.387 . S
C1349 C1351 1.387 . S
H1350 C1357 0.950 . S
C1351 C1349 1.387 . S
C1351 C1353 1.390 . S
C1351 H1355 0.950 . S
H1352 C1348 0.950 . S
C1353 C1351 1.390 . S
C1353 C1354 1.387 . S
C1353 H1356 0.950 . S
C1354 C1353 1.387 . S
C1354 C1357 1.387 . S
H1355 C1351 0.950 . S
H1356 C1353 0.950 . S
C1357 C1348 1.390 . S
C1357 H1350 0.950 . S
C1357 C1354 1.387 . S
C1358 C1359 1.387 1_655 S
C1358 H1362 0.950 . S
C1358 C1367 1.390 . S
C1359 C1358 1.387 1_455 S
C1359 C1361 1.387 1_455 S
H1360 C1367 0.950 . S
C1361 C1359 1.387 1_655 S
C1361 C1363 1.390 . S
C1361 H1365 0.955 . S
H1362 C1358 0.950 . S
C1363 C1361 1.390 . S
C1363 C1364 1.387 . S
C1363 H1366 0.950 . S
C1364 C1363 1.387 . S
C1364 C1367 1.387 . S
H1365 C1361 0.955 . S
H1366 C1363 0.950 . S
C1367 C1358 1.390 . S
C1367 H1360 0.950 . S
C1367 C1364 1.387 . S
C1368 C1369 1.387 . S
C1368 H1372 0.950 . S
C1368 C1377 1.390 . S
C1369 C1368 1.387 . S
C1369 C1371 1.387 . S
H1370 C1377 0.950 . S
C1371 C1369 1.387 . S
C1371 C1373 1.390 . S
C1371 H1375 0.950 . S
H1372 C1368 0.950 . S
C1373 C1371 1.390 . S
C1373 C1374 1.387 . S
C1373 H1376 0.950 . S
C1374 C1373 1.387 . S
C1374 C1377 1.387 . S
H1375 C1371 0.950 . S
H1376 C1373 0.950 . S
C1377 C1368 1.390 . S
C1377 H1370 0.950 . S
C1377 C1374 1.387 . S
C1378 C1379 1.387 . S
C1378 H1382 0.950 . S
C1378 C1387 1.390 . S
C1379 C1378 1.387 . S
C1379 C1381 1.387 . S
H1380 C1387 0.950 1_455 S
C1381 C1379 1.387 . S
C1381 C1383 1.390 . S
C1381 H1385 0.950 . S
H1382 C1378 0.950 . S
C1383 C1381 1.390 . S
C1383 C1384 1.387 1_655 S
C1383 H1386 0.950 . S
C1384 C1383 1.387 1_455 S
C1384 C1387 1.387 1_455 S
H1385 C1381 0.950 . S
H1386 C1383 0.950 . S
C1387 C1378 1.390 . S
C1387 H1380 0.950 1_655 S
C1387 C1384 1.387 1_655 S
C1388 C1389 1.387 . S
C1388 H1392 0.950 . S
C1388 C1397 1.390 . S
C1389 C1388 1.387 . S
C1389 C1391 1.387 . S
H1390 C1397 0.950 . S
C1391 C1389 1.387 . S
C1391 C1393 1.390 . S
C1391 H1395 0.950 . S
H1392 C1388 0.950 . S
C1393 C1391 1.390 . S
C1393 C1394 1.387 . S
C1393 H1396 0.950 . S
C1394 C1393 1.387 . S
C1394 C1397 1.387 . S
H1395 C1391 0.950 . S
H1396 C1393 0.950 . S
C1397 C1388 1.390 . S
C1397 H1390 0.950 . S
C1397 C1394 1.387 . S
C1398 C1399 1.387 . S
C1398 H1402 0.950 . S
C1398 C1407 1.390 . S
C1399 C1398 1.387 . S
C1399 C1401 1.387 . S
H1400 C1407 0.950 . S
C1401 C1399 1.387 . S
C1401 C1403 1.390 . S
C1401 H1405 0.950 . S
H1402 C1398 0.950 . S
C1403 C1401 1.390 . S
C1403 C1404 1.387 . S
C1403 H1406 0.950 . S
C1404 C1403 1.387 . S
C1404 C1407 1.387 . S
H1405 C1401 0.950 . S
H1406 C1403 0.950 . S
C1407 C1398 1.390 . S
C1407 H1400 0.950 . S
C1407 C1404 1.387 . S
C1408 C1409 1.387 . S
C1408 H1412 0.950 . S
C1408 C1417 1.390 1_455 S
C1409 C1408 1.387 . S
C1409 C1411 1.387 . S
H1410 C1417 0.950 . S
C1411 C1409 1.387 . S
C1411 C1413 1.390 1_455 S
C1411 H1415 0.950 . S
H1412 C1408 0.950 . S
C1413 C1411 1.390 1_655 S
C1413 C1414 1.387 . S
C1413 H1416 0.950 . S
C1414 C1413 1.387 . S
C1414 C1417 1.387 . S
H1415 C1411 0.950 . S
H1416 C1413 0.950 . S
C1417 C1408 1.390 1_655 S
C1417 H1410 0.950 . S
C1417 C1414 1.387 . S
C1418 C1419 1.387 . S
C1418 H1422 0.950 . S
C1418 C1427 1.390 1_655 S
C1419 C1418 1.387 . S
C1419 C1421 1.387 . S
H1420 C1427 0.950 . S
C1421 C1419 1.387 . S
C1421 C1423 1.390 1_655 S
C1421 H1425 0.950 . S
H1422 C1418 0.950 . S
C1423 C1421 1.390 1_455 S
C1423 C1424 1.387 . S
C1423 H1426 0.950 . S
C1424 C1423 1.387 . S
C1424 C1427 1.387 . S
H1425 C1421 0.950 . S
H1426 C1423 0.950 . S
C1427 C1418 1.390 1_455 S
C1427 H1420 0.950 . S
C1427 C1424 1.387 . S
C1428 C1429 1.387 . S
C1428 H1432 0.950 . S
C1428 C1437 1.390 . S
C1429 C1428 1.387 . S
C1429 C1431 1.387 . S
H1430 C1437 0.950 . S
C1431 C1429 1.387 . S
C1431 C1433 1.390 . S
C1431 H1435 0.950 . S
H1432 C1428 0.950 . S
C1433 C1431 1.390 . S
C1433 C1434 1.387 . S
C1433 H1436 0.950 . S
C1434 C1433 1.387 . S
C1434 C1437 1.387 . S
H1435 C1431 0.950 . S
H1436 C1433 0.950 . S
C1437 C1428 1.390 . S
C1437 H1430 0.950 . S
C1437 C1434 1.387 . S
C1438 C1439 1.387 . S
C1438 H1442 0.950 . S
C1438 C1447 1.390 . S
C1439 C1438 1.387 . S
C1439 C1441 1.387 1_556 S
H1440 C1447 0.950 . S
C1441 C1439 1.387 1_554 S
C1441 C1443 1.390 . S
C1441 H1445 0.950 . S
H1442 C1438 0.950 . S
C1443 C1441 1.390 . S
C1443 C1444 1.387 1_554 S
C1443 H1446 0.950 . S
C1444 C1443 1.387 1_556 S
C1444 C1447 1.387 . S
H1445 C1441 0.950 . S
H1446 C1443 0.950 . S
C1447 C1438 1.390 . S
C1447 H1440 0.950 . S
C1447 C1444 1.387 . S
C1448 C1449 1.387 . S
C1448 H1452 0.950 . S
C1448 C1457 1.390 1_655 S
C1449 C1448 1.387 . S
C1449 C1451 1.387 . S
H1450 C1457 0.950 . S
C1451 C1449 1.387 . S
C1451 C1453 1.390 1_655 S
C1451 H1455 0.950 . S
H1452 C1448 0.950 . S
C1453 C1451 1.390 1_455 S
C1453 C1454 1.387 . S
C1453 H1456 0.950 . S
C1454 C1453 1.387 . S
C1454 C1457 1.387 . S
H1455 C1451 0.950 . S
H1456 C1453 0.950 . S
C1457 C1448 1.390 1_455 S
C1457 H1450 0.950 . S
C1457 C1454 1.387 . S
C1458 C1459 1.387 . S
C1458 H1462 0.950 . S
C1458 C1467 1.390 . S
C1459 C1458 1.387 . S
C1459 C1461 1.387 . S
H1460 C1467 0.950 . S
C1461 C1459 1.387 . S
C1461 C1463 1.390 . S
C1461 H1465 0.950 . S
H1462 C1458 0.950 . S
C1463 C1461 1.390 . S
C1463 C1464 1.387 . S
C1463 H1466 0.950 . S
C1464 C1463 1.387 . S
C1464 C1467 1.387 . S
H1465 C1461 0.950 . S
H1466 C1463 0.950 . S
C1467 C1458 1.390 . S
C1467 H1460 0.950 . S
C1467 C1464 1.387 . S
C1468 C1469 1.387 . S
C1468 H1472 0.950 . S
C1468 C1477 1.390 . S
C1469 C1468 1.387 . S
C1469 C1471 1.387 . S
H1470 C1477 0.950 . S
C1471 C1469 1.387 . S
C1471 C1473 1.390 . S
C1471 H1475 0.950 . S
H1472 C1468 0.950 . S
C1473 C1471 1.390 . S
C1473 C1474 1.387 . S
C1473 H1476 0.950 . S
C1474 C1473 1.387 . S
C1474 C1477 1.387 . S
H1475 C1471 0.950 . S
H1476 C1473 0.950 . S
C1477 C1468 1.390 . S
C1477 H1470 0.950 . S
C1477 C1474 1.387 . S
C1478 C1479 1.387 . S
C1478 H1482 0.950 . S
C1478 C1487 1.390 1_455 S
C1479 C1478 1.387 . S
C1479 C1481 1.387 1_554 S
H1480 C1487 0.950 . S
C1481 C1479 1.387 1_556 S
C1481 C1483 1.390 1_455 S
C1481 H1485 0.950 . S
H1482 C1478 0.950 . S
C1483 C1481 1.390 1_655 S
C1483 C1484 1.387 1_556 S
C1483 H1486 0.950 . S
C1484 C1483 1.387 1_554 S
C1484 C1487 1.387 . S
H1485 C1481 0.950 . S
H1486 C1483 0.950 . S
C1487 C1478 1.390 1_655 S
C1487 H1480 0.950 . S
C1487 C1484 1.387 . S
C1488 C1489 1.387 . S
C1488 H1492 0.950 . S
C1488 C1497 1.390 1_455 S
C1489 C1488 1.387 . S
C1489 C1491 1.387 . S
H1490 C1497 0.950 . S
C1491 C1489 1.387 . S
C1491 C1493 1.390 1_455 S
C1491 H1495 0.950 . S
H1492 C1488 0.950 . S
C1493 C1491 1.390 1_655 S
C1493 C1494 1.387 . S
C1493 H1496 0.950 . S
C1494 C1493 1.387 . S
C1494 C1497 1.387 . S
H1495 C1491 0.950 . S
H1496 C1493 0.950 . S
C1497 C1488 1.390 1_655 S
C1497 H1490 0.950 . S
C1497 C1494 1.387 . S
C1498 C1499 1.387 . S
C1498 H1502 0.950 . S
C1498 C1507 1.390 1_655 S
C1499 C1498 1.387 . S
C1499 C1501 1.387 . S
H1500 C1507 0.950 . S
C1501 C1499 1.387 . S
C1501 C1503 1.390 1_655 S
C1501 H1505 0.950 . S
H1502 C1498 0.950 . S
C1503 C1501 1.390 1_455 S
C1503 C1504 1.387 . S
C1503 H1506 0.950 . S
C1504 C1503 1.387 . S
C1504 C1507 1.387 . S
H1505 C1501 0.950 . S
H1506 C1503 0.950 . S
C1507 C1498 1.390 1_455 S
C1507 H1500 0.950 . S
C1507 C1504 1.387 . S
C1508 C1509 1.387 . S
C1508 H1512 0.950 . S
C1508 C1517 1.390 . S
C1509 C1508 1.387 . S
C1509 C1511 1.387 . S
H1510 C1517 0.950 . S
C1511 C1509 1.387 . S
C1511 C1513 1.390 . S
C1511 H1515 0.950 . S
H1512 C1508 0.950 . S
C1513 C1511 1.390 . S
C1513 C1514 1.387 . S
C1513 H1516 0.950 . S
C1514 C1513 1.387 . S
C1514 C1517 1.387 . S
H1515 C1511 0.950 . S
H1516 C1513 0.950 . S
C1517 C1508 1.390 . S
C1517 H1510 0.950 . S
C1517 C1514 1.387 . S
C1518 C1519 1.387 . S
C1518 H1522 0.950 . S
C1518 C1527 1.390 . S
C1519 C1518 1.387 . S
C1519 C1521 1.387 1_554 S
H1520 C1527 0.950 . S
C1521 C1519 1.387 1_556 S
C1521 C1523 1.390 . S
C1521 H1525 0.950 . S
H1522 C1518 0.950 . S
C1523 C1521 1.390 . S
C1523 C1524 1.387 1_556 S
C1523 H1526 0.950 . S
C1524 C1523 1.387 1_554 S
C1524 C1527 1.387 . S
H1525 C1521 0.950 . S
H1526 C1523 0.950 . S
C1527 C1518 1.390 . S
C1527 H1520 0.950 . S
C1527 C1524 1.387 . S
C1528 C1529 1.387 . S
C1528 H1532 0.950 . S
C1528 C1537 1.390 1_455 S
C1529 C1528 1.387 . S
C1529 C1531 1.387 . S
H1530 C1537 0.950 . S
C1531 C1529 1.387 . S
C1531 C1533 1.390 1_455 S
C1531 H1535 0.950 . S
H1532 C1528 0.950 . S
C1533 C1531 1.390 1_655 S
C1533 C1534 1.387 . S
C1533 H1536 0.950 . S
C1534 C1533 1.387 . S
C1534 C1537 1.387 . S
H1535 C1531 0.950 . S
H1536 C1533 0.950 . S
C1537 C1528 1.390 1_655 S
C1537 H1530 0.950 . S
C1537 C1534 1.387 . S
C1538 C1539 1.387 . S
C1538 H1542 0.950 . S
C1538 C1547 1.390 . S
C1539 C1538 1.387 . S
C1539 C1541 1.387 . S
H1540 C1547 0.950 . S
C1541 C1539 1.387 . S
C1541 C1543 1.390 . S
C1541 H1545 0.950 . S
H1542 C1538 0.950 . S
C1543 C1541 1.390 . S
C1543 C1544 1.387 . S
C1543 H1546 0.950 . S
C1544 C1543 1.387 . S
C1544 C1547 1.387 . S
H1545 C1541 0.950 . S
H1546 C1543 0.950 . S
C1547 C1538 1.390 . S
C1547 H1540 0.950 . S
C1547 C1544 1.387 . S
C1548 C1549 1.387 . S
C1548 H1552 0.950 . S
C1548 C1557 1.390 . S
C1549 C1548 1.387 . S
C1549 C1551 1.387 . S
H1550 C1557 0.950 . S
C1551 C1549 1.387 . S
C1551 C1553 1.390 . S
C1551 H1555 0.950 . S
H1552 C1548 0.950 . S
C1553 C1551 1.390 . S
C1553 C1554 1.387 . S
C1553 H1556 0.950 . S
C1554 C1553 1.387 . S
C1554 C1557 1.387 . S
H1555 C1551 0.950 . S
H1556 C1553 0.950 . S
C1557 C1548 1.390 . S
C1557 H1550 0.950 . S
C1557 C1554 1.387 . S
C1558 C1559 1.387 . S
C1558 H1562 0.950 . S
C1558 C1567 1.390 1_655 S
C1559 C1558 1.387 . S
C1559 C1561 1.387 1_556 S
H1560 C1567 0.950 . S
C1561 C1559 1.387 1_554 S
C1561 C1563 1.390 1_655 S
C1561 H1565 0.950 . S
H1562 C1558 0.950 . S
C1563 C1561 1.390 1_455 S
C1563 C1564 1.387 1_554 S
C1563 H1566 0.950 . S
C1564 C1563 1.387 1_556 S
C1564 C1567 1.387 . S
H1565 C1561 0.950 . S
H1566 C1563 0.950 . S
C1567 C1558 1.390 1_455 S
C1567 H1560 0.950 . S
C1567 C1564 1.387 . S
C1568 C1569 1.387 . S
C1568 H1572 0.950 . S
C1568 C1577 1.390 . S
C1569 C1568 1.387 . S
C1569 C1571 1.387 . S
H1570 C1577 0.950 . S
C1571 C1569 1.387 . S
C1571 C1573 1.390 . S
C1571 H1575 0.950 . S
H1572 C1568 0.950 . S
C1573 C1571 1.390 . S
C1573 C1574 1.387 . S
C1573 H1576 0.950 . S
C1574 C1573 1.387 . S
C1574 C1577 1.387 . S
H1575 C1571 0.950 . S
H1576 C1573 0.950 . S
C1577 C1568 1.390 . S
C1577 H1570 0.950 . S
C1577 C1574 1.387 . S
C1578 C1579 1.387 1_565 S
C1578 H1582 0.950 . S
C1578 C1587 1.390 1_655 S
C1579 C1578 1.387 1_545 S
C1579 C1581 1.387 . S
H1580 C1587 0.950 . S
C1581 C1579 1.387 . S
C1581 C1583 1.390 1_655 S
C1581 H1585 0.950 . S
H1582 C1578 0.950 . S
C1583 C1581 1.390 1_455 S
C1583 C1584 1.387 1_545 S
C1583 H1586 0.950 . S
C1584 C1583 1.387 1_565 S
C1584 C1587 1.387 . S
H1585 C1581 0.950 . S
H1586 C1583 0.950 . S
C1587 C1578 1.390 1_455 S
C1587 H1580 0.950 . S
C1587 C1584 1.387 . S
C1588 C1589 1.387 . S
C1588 H1592 0.950 . S
C1588 C1597 1.390 . S
C1589 C1588 1.387 . S
C1589 C1591 1.387 . S
H1590 C1597 0.950 . S
C1591 C1589 1.387 . S
C1591 C1593 1.390 . S
C1591 H1595 0.950 . S
H1592 C1588 0.950 . S
C1593 C1591 1.390 . S
C1593 C1594 1.387 . S
C1593 H1596 0.950 . S
C1594 C1593 1.387 . S
C1594 C1597 1.387 . S
H1595 C1591 0.950 . S
H1596 C1593 0.950 . S
C1597 C1588 1.390 . S
C1597 H1590 0.950 . S
C1597 C1594 1.387 . S
C1598 C1599 1.387 1_556 S
C1598 H1602 0.950 . S
C1598 C1607 1.390 . S
C1599 C1598 1.387 1_554 S
C1599 C1601 1.387 1_545 S
H1600 C1607 0.950 . S
C1601 C1599 1.387 1_565 S
C1601 C1603 1.390 . S
C1601 H1605 0.950 . S
H1602 C1598 0.950 . S
C1603 C1601 1.390 . S
C1603 C1604 1.387 1_554 S
C1603 H1606 0.950 . S
C1604 C1603 1.387 1_556 S
C1604 C1607 1.387 1_565 S
H1605 C1601 0.950 . S
H1606 C1603 0.950 . S
C1607 C1598 1.390 . S
C1607 H1600 0.950 . S
C1607 C1604 1.387 1_545 S
C1608 C1609 1.387 . S
C1608 H1612 0.950 . S
C1608 C1617 1.390 . S
C1609 C1608 1.387 . S
C1609 C1611 1.387 . S
H1610 C1617 0.950 . S
C1611 C1609 1.387 . S
C1611 C1613 1.390 . S
C1611 H1615 0.950 . S
H1612 C1608 0.950 . S
C1613 C1611 1.390 . S
C1613 C1614 1.387 . S
C1613 H1616 0.950 . S
C1614 C1613 1.387 . S
C1614 C1617 1.387 . S
H1615 C1611 0.950 . S
H1616 C1613 0.950 . S
C1617 C1608 1.390 . S
C1617 H1610 0.950 . S
C1617 C1614 1.387 . S
C1618 C1619 1.387 . S
C1618 H1622 0.950 . S
C1618 C1627 1.390 1_545 S
C1619 C1618 1.387 . S
C1619 C1621 1.387 . S
H1620 C1627 0.950 . S
C1621 C1619 1.387 . S
C1621 C1623 1.390 1_545 S
C1621 H1625 0.950 . S
H1622 C1618 0.950 . S
C1623 C1621 1.390 1_565 S
C1623 C1624 1.387 . S
C1623 H1626 0.950 . S
C1624 C1623 1.387 . S
C1624 C1627 1.387 . S
H1625 C1621 0.950 . S
H1626 C1623 0.950 . S
C1627 C1618 1.390 1_565 S
C1627 H1620 0.950 . S
C1627 C1624 1.387 . S
C1628 C1629 1.387 . S
C1628 H1632 0.950 . S
C1628 C1637 1.390 . S
C1629 C1628 1.387 . S
C1629 C1631 1.387 . S
H1630 C1637 0.950 . S
C1631 C1629 1.387 . S
C1631 C1633 1.390 . S
C1631 H1635 0.950 . S
H1632 C1628 0.950 . S
C1633 C1631 1.390 . S
C1633 C1634 1.387 . S
C1633 H1636 0.950 . S
C1634 C1633 1.387 . S
C1634 C1637 1.387 . S
H1635 C1631 0.950 . S
H1636 C1633 0.950 . S
C1637 C1628 1.390 . S
C1637 H1630 0.950 . S
C1637 C1634 1.387 . S
C1638 C1639 1.387 . S
C1638 H1642 0.950 . S
C1638 C1647 1.390 1_445 S
C1639 C1638 1.387 . S
C1639 C1641 1.387 1_556 S
H1640 C1647 0.950 . S
C1641 C1639 1.387 1_554 S
C1641 C1643 1.390 1_445 S
C1641 H1645 0.950 . S
H1642 C1638 0.950 . S
C1643 C1641 1.390 1_665 S
C1643 C1644 1.387 . S
C1643 H1646 0.950 . S
C1644 C1643 1.387 . S
C1644 C1647 1.387 1_554 S
H1645 C1641 0.950 . S
H1646 C1643 0.950 . S
C1647 C1638 1.390 1_665 S
C1647 H1640 0.950 . S
C1647 C1644 1.387 1_556 S
C1648 C1649 1.387 . S
C1648 H1652 0.950 . S
C1648 C1657 1.390 . S
C1649 C1648 1.387 . S
C1649 C1651 1.387 . S
H1650 C1657 0.950 . S
C1651 C1649 1.387 . S
C1651 C1653 1.390 . S
C1651 H1655 0.950 . S
H1652 C1648 0.950 . S
C1653 C1651 1.390 . S
C1653 C1654 1.387 . S
C1653 H1656 0.950 . S
C1654 C1653 1.387 . S
C1654 C1657 1.387 . S
H1655 C1651 0.950 . S
H1656 C1653 0.950 . S
C1657 C1648 1.390 . S
C1657 H1650 0.950 . S
C1657 C1654 1.387 . S
C1658 C1659 1.387 . S
C1658 H1662 0.950 . S
C1658 C1667 1.390 . S
C1659 C1658 1.387 . S
C1659 C1661 1.387 . S
H1660 C1667 0.950 . S
C1661 C1659 1.387 . S
C1661 C1663 1.390 . S
C1661 H1665 0.950 . S
H1662 C1658 0.950 . S
C1663 C1661 1.390 . S
C1663 C1664 1.387 . S
C1663 H1666 0.950 . S
C1664 C1663 1.387 . S
C1664 C1667 1.387 . S
H1665 C1661 0.950 . S
H1666 C1663 0.950 . S
C1667 C1658 1.390 . S
C1667 H1660 0.950 . S
C1667 C1664 1.387 . S
C1668 C1669 1.387 . S
C1668 H1672 0.950 . S
C1668 C1677 1.390 . S
C1669 C1668 1.387 . S
C1669 C1671 1.387 . S
H1670 C1677 0.950 . S
C1671 C1669 1.387 . S
C1671 C1673 1.390 . S
C1671 H1675 0.950 . S
H1672 C1668 0.950 . S
C1673 C1671 1.390 . S
C1673 C1674 1.387 . S
C1673 H1676 0.950 . S
C1674 C1673 1.387 . S
C1674 C1677 1.387 . S
H1675 C1671 0.950 . S
H1676 C1673 0.950 . S
C1677 C1668 1.390 . S
C1677 H1670 0.950 . S
C1677 C1674 1.387 . S
C1678 C1679 1.387 . S
C1678 H1682 0.950 . S
C1678 C1687 1.390 . S
C1679 C1678 1.387 . S
C1679 C1681 1.387 . S
H1680 C1687 0.950 . S
C1681 C1679 1.387 . S
C1681 C1683 1.390 . S
C1681 H1685 0.950 . S
H1682 C1678 0.950 . S
C1683 C1681 1.390 . S
C1683 C1684 1.387 . S
C1683 H1686 0.950 . S
C1684 C1683 1.387 . S
C1684 C1687 1.387 . S
H1685 C1681 0.950 . S
H1686 C1683 0.950 . S
C1687 C1678 1.390 . S
C1687 H1680 0.950 . S
C1687 C1684 1.387 . S
C1688 C1689 1.387 1_556 S
C1688 H1692 0.950 . S
C1688 C1697 1.390 . S
C1689 C1688 1.387 1_554 S
C1689 C1691 1.387 . S
H1690 C1697 0.950 . S
C1691 C1689 1.387 . S
C1691 C1693 1.390 . S
C1691 H1695 0.950 . S
H1692 C1688 0.950 . S
C1693 C1691 1.390 . S
C1693 C1694 1.387 1_554 S
C1693 H1696 0.950 . S
C1694 C1693 1.387 1_556 S
C1694 C1697 1.387 . S
H1695 C1691 0.950 . S
H1696 C1693 0.950 . S
C1697 C1688 1.390 . S
C1697 H1690 0.950 . S
C1697 C1694 1.387 . S
C1698 C1699 1.387 . S
C1698 H1702 0.950 . S
C1698 C1707 1.390 1_655 S
C1699 C1698 1.387 . S
C1699 C1701 1.387 . S
H1700 C1707 0.950 . S
C1701 C1699 1.387 . S
C1701 C1703 1.390 1_655 S
C1701 H1705 0.950 . S
H1702 C1698 0.950 . S
C1703 C1701 1.390 1_455 S
C1703 C1704 1.387 . S
C1703 H1706 0.950 . S
C1704 C1703 1.387 . S
C1704 C1707 1.387 . S
H1705 C1701 0.950 . S
H1706 C1703 0.950 . S
C1707 C1698 1.390 1_455 S
C1707 H1700 0.950 . S
C1707 C1704 1.387 . S
C1708 C1709 1.387 1_556 S
C1708 H1712 0.950 . S
C1708 C1717 1.390 1_455 S
C1709 C1708 1.387 1_554 S
C1709 C1711 1.387 . S
H1710 C1717 0.950 . S
C1711 C1709 1.387 . S
C1711 C1713 1.390 1_455 S
C1711 H1715 0.950 . S
H1712 C1708 0.950 . S
C1713 C1711 1.390 1_655 S
C1713 C1714 1.387 1_554 S
C1713 H1716 0.950 . S
C1714 C1713 1.387 1_556 S
C1714 C1717 1.387 . S
H1715 C1711 0.950 . S
H1716 C1713 0.950 . S
C1717 C1708 1.390 1_655 S
C1717 H1710 0.950 . S
C1717 C1714 1.387 . S
C1718 C1719 1.387 . S
C1718 H1722 0.950 . S
C1718 C1727 1.390 . S
C1719 C1718 1.387 . S
C1719 C1721 1.387 . S
H1720 C1727 0.950 . S
C1721 C1719 1.387 . S
C1721 C1723 1.390 . S
C1721 H1725 0.950 . S
H1722 C1718 0.950 . S
C1723 C1721 1.390 . S
C1723 C1724 1.387 . S
C1723 H1726 0.950 . S
C1724 C1723 1.387 . S
C1724 C1727 1.387 . S
H1725 C1721 0.950 . S
H1726 C1723 0.950 . S
C1727 C1718 1.390 . S
C1727 H1720 0.950 . S
C1727 C1724 1.387 . S
C1728 C1729 1.387 . S
C1728 H1732 0.950 . S
C1728 C1737 1.390 . S
C1729 C1728 1.387 . S
C1729 C1731 1.387 . S
H1730 C1737 0.950 1_565 S
C1731 C1729 1.387 . S
C1731 C1733 1.390 . S
C1731 H1735 0.950 . S
H1732 C1728 0.950 . S
C1733 C1731 1.390 . S
C1733 C1734 1.387 . S
C1733 H1736 0.950 . S
C1734 C1733 1.387 . S
C1734 C1737 1.387 . S
H1735 C1731 0.950 . S
H1736 C1733 0.950 . S
C1737 C1728 1.390 . S
C1737 H1730 0.950 1_545 S
C1737 C1734 1.387 . S
C1738 C1739 1.387 . S
C1738 H1742 0.950 . S
C1738 C1747 1.390 . S
C1739 C1738 1.387 . S
C1739 C1741 1.387 . S
H1740 C1747 0.950 1_565 S
C1741 C1739 1.387 . S
C1741 C1743 1.390 . S
C1741 H1745 0.950 . S
H1742 C1738 0.950 . S
C1743 C1741 1.390 . S
C1743 C1744 1.387 . S
C1743 H1746 0.950 . S
C1744 C1743 1.387 . S
C1744 C1747 1.387 . S
H1745 C1741 0.950 . S
H1746 C1743 0.950 . S
C1747 C1738 1.390 . S
C1747 H1740 0.950 1_545 S
C1747 C1744 1.387 . S
C1748 C1749 1.387 . S
C1748 H1752 0.950 . S
C1748 C1757 1.390 . S
C1749 C1748 1.387 . S
C1749 C1751 1.387 . S
H1750 C1757 0.950 . S
C1751 C1749 1.387 . S
C1751 C1753 1.390 . S
C1751 H1755 0.950 1_565 S
H1752 C1748 0.950 . S
C1753 C1751 1.390 . S
C1753 C1754 1.387 . S
C1753 H1756 0.950 . S
C1754 C1753 1.387 . S
C1754 C1757 1.387 . S
H1755 C1751 0.950 1_545 S
H1756 C1753 0.950 . S
C1757 C1748 1.390 . S
C1757 H1750 0.950 . S
C1757 C1754 1.387 . S
C1758 C1759 1.387 . S
C1758 H1762 0.950 . S
C1758 C1767 1.390 . S
C1759 C1758 1.387 . S
C1759 C1761 1.387 . S
H1760 C1767 0.950 . S
C1761 C1759 1.387 . S
C1761 C1763 1.390 . S
C1761 H1765 0.950 . S
H1762 C1758 0.950 . S
C1763 C1761 1.390 . S
C1763 C1764 1.387 . S
C1763 H1766 0.950 1_565 S
C1764 C1763 1.387 . S
C1764 C1767 1.387 . S
H1765 C1761 0.950 . S
H1766 C1763 0.950 1_545 S
C1767 C1758 1.390 . S
C1767 H1760 0.950 . S
C1767 C1764 1.387 . S
C1768 C1769 1.387 . S
C1768 H1772 0.950 . S
C1768 C1777 1.390 . S
C1769 C1768 1.387 . S
C1769 C1771 1.387 . S
H1770 C1777 0.950 1_545 S
C1771 C1769 1.387 . S
C1771 C1773 1.390 . S
C1771 H1775 0.950 . S
H1772 C1768 0.950 . S
C1773 C1771 1.390 . S
C1773 C1774 1.387 . S
C1773 H1776 0.950 . S
C1774 C1773 1.387 . S
C1774 C1777 1.387 . S
H1775 C1771 0.950 . S
H1776 C1773 0.950 . S
C1777 C1768 1.390 . S
C1777 H1770 0.950 1_565 S
C1777 C1774 1.387 . S
C1778 C1779 1.387 . S
C1778 H1782 0.950 1_565 S
C1778 C1787 1.390 . S
C1779 C1778 1.387 . S
C1779 C1781 1.387 . S
H1780 C1787 0.950 . S
C1781 C1779 1.387 . S
C1781 C1783 1.390 . S
C1781 H1785 0.950 . S
H1782 C1778 0.950 1_545 S
C1783 C1781 1.390 . S
C1783 C1784 1.387 . S
C1783 H1786 0.950 . S
C1784 C1783 1.387 . S
C1784 C1787 1.387 . S
H1785 C1781 0.950 . S
H1786 C1783 0.950 . S
C1787 C1778 1.390 . S
C1787 H1780 0.950 . S
C1787 C1784 1.387 . S
C1788 C1789 1.387 . S
C1788 H1792 0.950 . S
C1788 C1797 1.390 . S
C1789 C1788 1.387 . S
C1789 C1791 1.387 . S
H1790 C1797 0.950 . S
C1791 C1789 1.387 . S
C1791 C1793 1.390 . S
C1791 H1795 0.950 1_545 S
H1792 C1788 0.950 . S
C1793 C1791 1.390 . S
C1793 C1794 1.387 . S
C1793 H1796 0.950 . S
C1794 C1793 1.387 . S
C1794 C1797 1.387 . S
H1795 C1791 0.950 1_565 S
H1796 C1793 0.950 . S
C1797 C1788 1.390 . S
C1797 H1790 0.950 . S
C1797 C1794 1.387 . S
C1798 C1799 1.387 . S
C1798 H1802 0.950 . S
C1798 C1807 1.390 . S
C1799 C1798 1.387 . S
C1799 C1801 1.387 . S
H1800 C1807 0.950 . S
C1801 C1799 1.387 . S
C1801 C1803 1.390 . S
C1801 H1805 0.950 . S
H1802 C1798 0.950 . S
C1803 C1801 1.390 . S
C1803 C1804 1.387 . S
C1803 H1806 0.950 . S
C1804 C1803 1.387 . S
C1804 C1807 1.387 . S
H1805 C1801 0.950 . S
H1806 C1803 0.950 . S
C1807 C1798 1.390 . S
C1807 H1800 0.950 . S
C1807 C1804 1.387 . S
C1808 C1809 1.387 . S
C1808 H1812 0.950 . S
C1808 C1817 1.390 . S
C1809 C1808 1.387 . S
C1809 C1811 1.387 . S
H1810 C1817 0.950 . S
C1811 C1809 1.387 . S
C1811 C1813 1.390 . S
C1811 H1815 0.950 . S
H1812 C1808 0.950 . S
C1813 C1811 1.390 . S
C1813 C1814 1.387 . S
C1813 H1816 0.950 . S
C1814 C1813 1.387 . S
C1814 C1817 1.387 . S
H1815 C1811 0.950 . S
H1816 C1813 0.950 . S
C1817 C1808 1.390 . S
C1817 H1810 0.950 . S
C1817 C1814 1.387 . S
C1818 C1819 1.387 . S
C1818 H1822 0.950 . S
C1818 C1827 1.390 . S
C1819 C1818 1.387 . S
C1819 C1821 1.387 . S
H1820 C1827 0.950 . S
C1821 C1819 1.387 . S
C1821 C1823 1.390 . S
C1821 H1825 0.950 . S
H1822 C1818 0.950 . S
C1823 C1821 1.390 . S
C1823 C1824 1.387 . S
C1823 H1826 0.950 . S
C1824 C1823 1.387 . S
C1824 C1827 1.387 . S
H1825 C1821 0.950 . S
H1826 C1823 0.950 . S
C1827 C1818 1.390 . S
C1827 H1820 0.950 . S
C1827 C1824 1.387 . S
C1828 C1829 1.387 . S
C1828 H1832 0.950 . S
C1828 C1837 1.390 . S
C1829 C1828 1.387 . S
C1829 C1831 1.387 . S
H1830 C1837 0.950 . S
C1831 C1829 1.387 . S
C1831 C1833 1.390 . S
C1831 H1835 0.950 . S
H1832 C1828 0.950 . S
C1833 C1831 1.390 . S
C1833 C1834 1.387 . S
C1833 H1836 0.950 . S
C1834 C1833 1.387 . S
C1834 C1837 1.387 . S
H1835 C1831 0.950 . S
H1836 C1833 0.950 . S
C1837 C1828 1.390 . S
C1837 H1830 0.950 . S
C1837 C1834 1.387 . S
C1838 C1839 1.387 . S
C1838 H1842 0.950 . S
C1838 C1847 1.390 . S
C1839 C1838 1.387 . S
C1839 C1841 1.387 . S
H1840 C1847 0.950 . S
C1841 C1839 1.387 . S
C1841 C1843 1.390 . S
C1841 H1845 0.950 . S
H1842 C1838 0.950 . S
C1843 C1841 1.390 . S
C1843 C1844 1.387 . S
C1843 H1846 0.950 . S
C1844 C1843 1.387 . S
C1844 C1847 1.387 . S
H1845 C1841 0.950 . S
H1846 C1843 0.950 . S
C1847 C1838 1.390 . S
C1847 H1840 0.950 . S
C1847 C1844 1.387 . S
C1848 C1849 1.387 . S
C1848 H1852 0.950 . S
C1848 C1857 1.390 . S
C1849 C1848 1.387 . S
C1849 C1851 1.387 . S
H1850 C1857 0.950 . S
C1851 C1849 1.387 . S
C1851 C1853 1.390 . S
C1851 H1855 0.950 . S
H1852 C1848 0.950 . S
C1853 C1851 1.390 . S
C1853 C1854 1.387 . S
C1853 H1856 0.950 . S
C1854 C1853 1.387 . S
C1854 C1857 1.387 . S
H1855 C1851 0.950 . S
H1856 C1853 0.950 . S
C1857 C1848 1.390 . S
C1857 H1850 0.950 . S
C1857 C1854 1.387 . S
C1858 C1859 1.387 . S
C1858 H1862 0.950 . S
C1858 C1867 1.390 . S
C1859 C1858 1.387 . S
C1859 C1861 1.387 . S
H1860 C1867 0.950 . S
C1861 C1859 1.387 . S
C1861 C1863 1.390 . S
C1861 H1865 0.950 . S
H1862 C1858 0.950 . S
C1863 C1861 1.390 . S
C1863 C1864 1.387 . S
C1863 H1866 0.950 . S
C1864 C1863 1.387 . S
C1864 C1867 1.387 . S
H1865 C1861 0.950 . S
H1866 C1863 0.950 . S
C1867 C1858 1.390 . S
C1867 H1860 0.950 . S
C1867 C1864 1.387 . S
C1868 C1869 1.387 . S
C1868 H1872 0.950 . S
C1868 C1877 1.390 . S
C1869 C1868 1.387 . S
C1869 C1871 1.387 . S
H1870 C1877 0.950 . S
C1871 C1869 1.387 . S
C1871 C1873 1.390 . S
C1871 H1875 0.950 . S
H1872 C1868 0.950 . S
C1873 C1871 1.390 . S
C1873 C1874 1.387 . S
C1873 H1876 0.950 . S
C1874 C1873 1.387 . S
C1874 C1877 1.387 . S
H1875 C1871 0.950 . S
H1876 C1873 0.950 . S
C1877 C1868 1.390 . S
C1877 H1870 0.950 . S
C1877 C1874 1.387 . S
C1878 C1879 1.387 . S
C1878 H1882 0.950 . S
C1878 C1887 1.390 . S
C1879 C1878 1.387 . S
C1879 C1881 1.387 . S
H1880 C1887 0.950 . S
C1881 C1879 1.387 . S
C1881 C1883 1.390 . S
C1881 H1885 0.950 . S
H1882 C1878 0.950 . S
C1883 C1881 1.390 . S
C1883 C1884 1.387 . S
C1883 H1886 0.950 . S
C1884 C1883 1.387 . S
C1884 C1887 1.387 . S
H1885 C1881 0.950 . S
H1886 C1883 0.950 . S
C1887 C1878 1.390 . S
C1887 H1880 0.950 . S
C1887 C1884 1.387 . S
C1888 C1889 1.387 . S
C1888 H1892 0.950 . S
C1888 C1897 1.390 1_545 S
C1889 C1888 1.387 . S
C1889 C1891 1.387 . S
H1890 C1897 0.950 . S
C1891 C1889 1.387 . S
C1891 C1893 1.390 1_545 S
C1891 H1895 0.950 . S
H1892 C1888 0.950 . S
C1893 C1891 1.390 1_565 S
C1893 C1894 1.387 . S
C1893 H1896 0.950 . S
C1894 C1893 1.387 . S
C1894 C1897 1.387 . S
H1895 C1891 0.950 . S
H1896 C1893 0.950 . S
C1897 C1888 1.390 1_565 S
C1897 H1890 0.950 . S
C1897 C1894 1.387 . S
C1898 C1899 1.387 . S
C1898 H1902 0.950 . S
C1898 C1907 1.390 . S
C1899 C1898 1.387 . S
C1899 C1901 1.387 . S
H1900 C1907 0.950 . S
C1901 C1899 1.387 . S
C1901 C1903 1.390 . S
C1901 H1905 0.950 . S
H1902 C1898 0.950 . S
C1903 C1901 1.390 . S
C1903 C1904 1.387 . S
C1903 H1906 0.950 . S
C1904 C1903 1.387 . S
C1904 C1907 1.387 . S
H1905 C1901 0.950 . S
H1906 C1903 0.950 . S
C1907 C1898 1.390 . S
C1907 H1900 0.950 . S
C1907 C1904 1.387 . S
C1908 C1909 1.387 . S
C1908 H1912 0.950 . S
C1908 C1917 1.390 1_545 S
C1909 C1908 1.387 . S
C1909 C1911 1.387 . S
H1910 C1917 0.950 . S
C1911 C1909 1.387 . S
C1911 C1913 1.390 1_545 S
C1911 H1915 0.950 . S
H1912 C1908 0.950 . S
C1913 C1911 1.390 1_565 S
C1913 C1914 1.387 . S
C1913 H1916 0.950 . S
C1914 C1913 1.387 . S
C1914 C1917 1.387 . S
H1915 C1911 0.950 . S
H1916 C1913 0.950 . S
C1917 C1908 1.390 1_565 S
C1917 H1910 0.950 . S
C1917 C1914 1.387 . S
C1918 C1919 1.387 . S
C1918 H1922 0.950 . S
C1918 C1927 1.390 1_556 S
C1919 C1918 1.387 . S
C1919 C1921 1.387 . S
H1920 C1927 0.950 . S
C1921 C1919 1.387 . S
C1921 C1923 1.390 1_556 S
C1921 H1925 0.950 . S
H1922 C1918 0.950 . S
C1923 C1921 1.390 1_554 S
C1923 C1924 1.387 . S
C1923 H1926 0.950 . S
C1924 C1923 1.387 . S
C1924 C1927 1.387 . S
H1925 C1921 0.950 . S
H1926 C1923 0.950 . S
C1927 C1918 1.390 1_554 S
C1927 H1920 0.950 . S
C1927 C1924 1.387 . S
C1928 C1929 1.387 . S
C1928 H1932 0.950 . S
C1928 C1937 1.390 1_565 S
C1929 C1928 1.387 . S
C1929 C1931 1.387 . S
H1930 C1937 0.950 . S
C1931 C1929 1.387 . S
C1931 C1933 1.390 1_565 S
C1931 H1935 0.950 . S
H1932 C1928 0.950 . S
C1933 C1931 1.390 1_545 S
C1933 C1934 1.387 . S
C1933 H1936 0.950 . S
C1934 C1933 1.387 . S
C1934 C1937 1.387 . S
H1935 C1931 0.950 . S
H1936 C1933 0.950 . S
C1937 C1928 1.390 1_545 S
C1937 H1930 0.950 . S
C1937 C1934 1.387 . S
C1938 C1939 1.387 . S
C1938 H1942 0.950 . S
C1938 C1947 1.390 . S
C1939 C1938 1.387 . S
C1939 C1941 1.387 . S
H1940 C1947 0.950 . S
C1941 C1939 1.387 . S
C1941 C1943 1.390 . S
C1941 H1945 0.950 . S
H1942 C1938 0.950 . S
C1943 C1941 1.390 . S
C1943 C1944 1.387 . S
C1943 H1946 0.950 . S
C1944 C1943 1.387 . S
C1944 C1947 1.387 . S
H1945 C1941 0.950 . S
H1946 C1943 0.950 . S
C1947 C1938 1.390 . S
C1947 H1940 0.950 . S
C1947 C1944 1.387 . S
C1948 C1949 1.387 . S
C1948 H1952 0.950 . S
C1948 C1957 1.390 1_565 S
C1949 C1948 1.387 . S
C1949 C1951 1.387 . S
H1950 C1957 0.950 . S
C1951 C1949 1.387 . S
C1951 C1953 1.390 1_565 S
C1951 H1955 0.950 . S
H1952 C1948 0.950 . S
C1953 C1951 1.390 1_545 S
C1953 C1954 1.387 . S
C1953 H1956 0.950 . S
C1954 C1953 1.387 . S
C1954 C1957 1.387 . S
H1955 C1951 0.950 . S
H1956 C1953 0.950 . S
C1957 C1948 1.390 1_545 S
C1957 H1950 0.950 . S
C1957 C1954 1.387 . S
C1958 C1959 1.387 . S
C1958 H1962 0.950 . S
C1958 C1967 1.390 1_554 S
C1959 C1958 1.387 . S
C1959 C1961 1.387 . S
H1960 C1967 0.950 . S
C1961 C1959 1.387 . S
C1961 C1963 1.390 1_554 S
C1961 H1965 0.950 . S
H1962 C1958 0.950 . S
C1963 C1961 1.390 1_556 S
C1963 C1964 1.387 . S
C1963 H1966 0.950 . S
C1964 C1963 1.387 . S
C1964 C1967 1.387 . S
H1965 C1961 0.950 . S
H1966 C1963 0.950 . S
C1967 C1958 1.390 1_556 S
C1967 H1960 0.950 . S
C1967 C1964 1.387 . S
C1968 C1969 1.387 . S
C1968 H1972 0.950 . S
C1968 C1977 1.390 . S
C1969 C1968 1.387 . S
C1969 C1971 1.387 . S
H1970 C1977 0.950 . S
C1971 C1969 1.387 . S
C1971 C1973 1.390 . S
C1971 H1975 0.950 . S
H1972 C1968 0.950 . S
C1973 C1971 1.390 . S
C1973 C1974 1.387 . S
C1973 H1976 0.950 . S
C1974 C1973 1.387 . S
C1974 C1977 1.387 . S
H1975 C1971 0.950 . S
H1976 C1973 0.950 . S
C1977 C1968 1.390 . S
C1977 H1970 0.950 . S
C1977 C1974 1.387 . S
C1978 C1979 1.387 . S
C1978 H1982 0.950 . S
C1978 C1987 1.390 1_556 S
C1979 C1978 1.387 . S
C1979 C1981 1.387 . S
H1980 C1987 0.950 . S
C1981 C1979 1.387 . S
C1981 C1983 1.390 1_556 S
C1981 H1985 0.950 . S
H1982 C1978 0.950 . S
C1983 C1981 1.390 1_554 S
C1983 C1984 1.387 . S
C1983 H1986 0.950 . S
C1984 C1983 1.387 . S
C1984 C1987 1.387 . S
H1985 C1981 0.950 . S
H1986 C1983 0.950 . S
C1987 C1978 1.390 1_554 S
C1987 H1980 0.950 . S
C1987 C1984 1.387 . S
C1988 C1989 1.387 . S
C1988 H1992 0.950 . S
C1988 C1997 1.390 . S
C1989 C1988 1.387 . S
C1989 C1991 1.387 . S
H1990 C1997 0.950 . S
C1991 C1989 1.387 . S
C1991 C1993 1.390 . S
C1991 H1995 0.950 . S
H1992 C1988 0.950 . S
C1993 C1991 1.390 . S
C1993 C1994 1.387 . S
C1993 H1996 0.950 . S
C1994 C1993 1.387 . S
C1994 C1997 1.387 . S
H1995 C1991 0.950 . S
H1996 C1993 0.950 . S
C1997 C1988 1.390 . S
C1997 H1990 0.950 . S
C1997 C1994 1.387 . S
C1998 C1999 1.387 . S
C1998 H2002 0.950 . S
C1998 C2007 1.390 . S
C1999 C1998 1.387 . S
C1999 C2001 1.387 . S
H2000 C2007 0.950 . S
C2001 C1999 1.387 . S
C2001 C2003 1.390 . S
C2001 H2005 0.950 . S
H2002 C1998 0.950 . S
C2003 C2001 1.390 . S
C2003 C2004 1.387 . S
C2003 H2006 0.950 . S
C2004 C2003 1.387 . S
C2004 C2007 1.387 . S
H2005 C2001 0.950 . S
H2006 C2003 0.950 . S
C2007 C1998 1.390 . S
C2007 H2000 0.950 . S
C2007 C2004 1.387 . S
C2008 C2009 1.387 . S
C2008 H2012 0.950 . S
C2008 C2017 1.390 . S
C2009 C2008 1.387 . S
C2009 C2011 1.387 . S
H2010 C2017 0.950 . S
C2011 C2009 1.387 . S
C2011 C2013 1.390 . S
C2011 H2015 0.950 . S
H2012 C2008 0.950 . S
C2013 C2011 1.390 . S
C2013 C2014 1.387 . S
C2013 H2016 0.950 . S
C2014 C2013 1.387 . S
C2014 C2017 1.387 . S
H2015 C2011 0.950 . S
H2016 C2013 0.950 . S
C2017 C2008 1.390 . S
C2017 H2010 0.950 . S
C2017 C2014 1.387 . S
C2018 C2019 1.387 . S
C2018 H2022 0.950 . S
C2018 C2027 1.390 1_556 S
C2019 C2018 1.387 . S
C2019 C2021 1.387 . S
H2020 C2027 0.950 . S
C2021 C2019 1.387 . S
C2021 C2023 1.390 1_556 S
C2021 H2025 0.950 . S
H2022 C2018 0.950 . S
C2023 C2021 1.390 1_554 S
C2023 C2024 1.387 . S
C2023 H2026 0.950 . S
C2024 C2023 1.387 . S
C2024 C2027 1.387 . S
H2025 C2021 0.950 . S
H2026 C2023 0.950 . S
C2027 C2018 1.390 1_554 S
C2027 H2020 0.950 . S
C2027 C2024 1.387 . S
C2028 C2029 1.387 . S
C2028 H2032 0.950 . S
C2028 C2037 1.390 . S
C2029 C2028 1.387 . S
C2029 C2031 1.387 . S
H2030 C2037 0.950 . S
C2031 C2029 1.387 . S
C2031 C2033 1.390 . S
C2031 H2035 0.950 . S
H2032 C2028 0.950 . S
C2033 C2031 1.390 . S
C2033 C2034 1.387 . S
C2033 H2036 0.950 . S
C2034 C2033 1.387 . S
C2034 C2037 1.387 . S
H2035 C2031 0.950 . S
H2036 C2033 0.950 . S
C2037 C2028 1.390 . S
C2037 H2030 0.950 . S
C2037 C2034 1.387 . S
C2038 C2039 1.387 . S
C2038 H2042 0.950 . S
C2038 C2047 1.390 . S
C2039 C2038 1.387 . S
C2039 C2041 1.387 . S
H2040 C2047 0.950 . S
C2041 C2039 1.387 . S
C2041 C2043 1.390 . S
C2041 H2045 0.950 . S
H2042 C2038 0.950 . S
C2043 C2041 1.390 . S
C2043 C2044 1.387 . S
C2043 H2046 0.950 . S
C2044 C2043 1.387 . S
C2044 C2047 1.387 . S
H2045 C2041 0.950 . S
H2046 C2043 0.950 . S
C2047 C2038 1.390 . S
C2047 H2040 0.950 . S
C2047 C2044 1.387 . S
C1089 C29 2.347 . S
C1094 C926 2.327 . S
C1099 C63 2.347 . S
C1104 C280 2.328 . S
C1109 C97 2.347 . S
C1114 C858 2.328 . S
C1119 C348 2.328 . S
C1124 C131 2.347 . S
C1129 C165 2.347 . S
C1134 C994 2.329 . S
C1139 C484 2.327 . S
C1144 C199 2.346 . S
C1149 C1062 2.328 . S
C1154 C233 2.347 . S
C1159 C267 2.346 . S
C1164 C416 2.327 . S
C1169 C272 2.347 . S
C1174 C663 2.327 . S
C1179 C306 2.347 . S
C1184 C17 2.328 . S
C1189 C595 2.329 . S
C1194 C340 2.347 . S
C1199 C85 2.327 . S
C1204 C374 2.346 . S
C1209 C408 2.347 . S
C1214 C731 2.328 . S
C1219 C442 2.346 . S
C1224 C221 2.328 . S
C1229 C476 2.347 . S
C1234 C799 2.327 . S
C1239 C153 2.327 . S
C1244 C510 2.347 . S
C1249 C382 2.328 . S
C1254 C573 2.347 . S
C1259 C824 2.327 . S
C1264 C607 2.346 . S
C1269 C314 2.327 . S
C1274 C641 2.346 . S
C1279 C675 2.347 . S
C1284 C892 2.328 . S
C1289 C450 2.328 . S
C1294 C709 2.347 . S
C1299 C1028 2.328 . S
C1304 C743 2.347 . S
C1309 C518 2.328 . S
C1314 C777 2.347 . S
C1319 C811 2.346 . S
C1324 C960 2.327 . S
C1329 C816 2.347 . S
C1334 C119 2.328 . S
C1339 C850 2.347 . S
C1344 C561 2.328 . S
C1349 C884 2.346 . S
C1354 C51 2.328 . S
C1359 C918 2.346 . S
C1364 C629 2.327 . S
C1369 C187 2.327 . S
C1374 C952 2.346 . S
C1379 C765 2.328 . S
C1384 C986 2.347 . S
C1389 C1020 2.347 . S
C1394 C255 2.328 . S
C1399 C1054 2.347 . S
C1404 C697 2.328 . S
C1409 C13 0.459 . S
C1414 C625 0.459 . S
C1419 C659 0.451 . S
C1424 C47 0.451 . S
C1429 C81 0.459 . S
C1434 C557 0.459 . S
C1439 C115 0.459 . S
C1444 C591 0.459 . S
C1449 C761 0.451 . S
C1454 C149 0.451 . S
C1459 C183 0.459 . S
C1464 C795 0.459 . S
C1469 C693 0.451 . S
C1474 C217 0.451 . S
C1479 C251 0.459 . S
C1484 C727 0.459 . S
C1489 C888 0.451 . S
C1494 C276 0.451 . S
C1499 C310 0.459 . S
C1504 C922 0.459 . S
C1509 C344 0.451 . S
C1514 C820 0.451 . S
C1519 C378 0.451 . S
C1524 C854 0.451 . S
C1529 C1024 0.459 . S
C1534 C412 0.459 . S
C1539 C1058 0.459 . S
C1544 C446 0.459 . S
C1549 C480 0.451 . S
C1554 C956 0.451 . S
C1559 C514 0.451 . S
C1564 C990 0.451 . S
C1569 C8 2.494 . S
C1574 C833 2.494 . S
C1579 C323 2.495 . S
C1584 C42 2.495 . S
C1589 C76 2.494 . S
C1594 C901 2.494 . S
C1599 C110 2.495 . S
C1604 C391 2.495 . S
C1609 C969 2.494 . S
C1614 C144 2.494 . S
C1619 C459 2.494 . S
C1624 C178 2.494 . S
C1629 C212 2.494 . S
C1634 C1037 2.494 . S
C1639 C246 2.493 . S
C1644 C527 2.493 . S
C1649 C552 2.494 . S
C1654 C289 2.494 . S
C1659 C620 2.495 . S
C1664 C357 2.495 . S
C1669 C688 2.494 . S
C1674 C425 2.494 . S
C1679 C493 2.493 . S
C1684 C756 2.493 . S
C1689 C586 2.495 . S
C1694 C867 2.495 . S
C1699 C654 2.495 . S
C1704 C935 2.495 . S
C1709 C1003 2.493 . S
C1714 C722 2.493 . S
C1719 C1071 2.494 . S
C1724 C790 2.494 . S
C1729 C4 0.607 . S
C1734 C174 0.608 . S
C1739 C208 0.607 . S
C1744 C38 0.608 . S
C1749 C242 0.608 . S
C1754 C72 0.609 . S
C1759 C140 0.609 . S
C1764 C106 0.609 . S
C1769 C285 0.609 . S
C1774 C455 0.609 . S
C1779 C319 0.608 . S
C1784 C489 0.609 . S
C1789 C523 0.608 . S
C1794 C353 0.607 . S
C1799 C387 0.609 . S
C1804 C421 0.608 . S
C1809 C548 0.609 . S
C1814 C718 0.609 . S
C1819 C582 0.607 . S
C1824 C752 0.607 . S
C1829 C616 0.609 . S
C1834 C786 0.609 . S
C1839 C684 0.608 . S
C1844 C650 0.607 . S
C1849 C829 0.609 . S
C1854 C999 0.608 . S
C1859 C863 0.609 . S
C1864 C1033 0.609 . S
C1869 C1067 0.607 . S
C1874 C897 0.606 . S
C1879 C931 0.608 . S
C1884 C965 0.609 . S
C1889 C0 2.668 . S
C1894 C136 2.668 . S
C1899 C34 2.668 . S
C1904 C170 2.668 . S
C1909 C204 2.668 . S
C1914 C68 2.668 . S
C1919 C238 2.668 . S
C1924 C102 2.668 . S
C1929 C301 2.668 . S
C1934 C437 2.668 . S
C1939 C471 2.670 . S
C1944 C335 2.670 . S
C1949 C505 2.670 . S
C1954 C369 2.670 . S
C1959 C539 2.668 . S
C1964 C403 2.668 . S
C1969 C544 2.670 . S
C1974 C680 2.670 . S
C1979 C714 2.668 . S
C1984 C578 2.668 . S
C1989 C612 2.668 . S
C1994 C748 2.668 . S
C1999 C782 2.670 . S
C2004 C646 2.670 . S
C2009 C981 2.668 . S
C2014 C845 2.668 . S
C2019 C879 2.668 . S
C2024 C1015 2.668 . S
C2029 C913 2.670 . S
C2034 C1049 2.670 . S
C2039 C947 2.668 . S
C2044 C1083 2.668 . S
