# Generated by pormake.
# Topology unn, (4)-cn, num edge types: 1
# Building blocks:
#     Node 0, Type 0, BuildingBlock: CEKHIL_clean_sbu_0, # of connection points: 4
#     Node 1, Type 0, BuildingBlock: CEKHIL_clean_sbu_0, # of connection points: 4
#     Node 2, Type 0, BuildingBlock: CEKHIL_clean_sbu_0, # of connection points: 4
#     Node 3, Type 0, BuildingBlock: CEKHIL_clean_sbu_0, # of connection points: 4
#     Node 4, Type 0, BuildingBlock: CEKHIL_clean_sbu_0, # of connection points: 4
#     Node 5, Type 0, BuildingBlock: CEKHIL_clean_sbu_0, # of connection points: 4
#     Node 6, Type 0, BuildingBlock: CEKHIL_clean_sbu_0, # of connection points: 4
#     Node 7, Type 0, BuildingBlock: CEKHIL_clean_sbu_0, # of connection points: 4
#     Node 8, Type 0, BuildingBlock: CEKHIL_clean_sbu_0, # of connection points: 4
#     Node 9, Type 0, BuildingBlock: CEKHIL_clean_sbu_0, # of connection points: 4
#     Node 10, Type 0, BuildingBlock: CEKHIL_clean_sbu_0, # of connection points: 4
#     Node 11, Type 0, BuildingBlock: CEKHIL_clean_sbu_0, # of connection points: 4
#     Node 12, Type 0, BuildingBlock: CEKHIL_clean_sbu_0, # of connection points: 4
#     Node 13, Type 0, BuildingBlock: CEKHIL_clean_sbu_0, # of connection points: 4
#     Node 14, Type 0, BuildingBlock: CEKHIL_clean_sbu_0, # of connection points: 4
#     Node 15, Type 0, BuildingBlock: CEKHIL_clean_sbu_0, # of connection points: 4
#     Node 16, Type 0, BuildingBlock: CEKHIL_clean_sbu_0, # of connection points: 4
#     Node 17, Type 0, BuildingBlock: CEKHIL_clean_sbu_0, # of connection points: 4
#     Edge 18, Type (0, 0), BuildingBlock: CIFDUS_clean_linker_0, # of connection points: 2
#     Edge 19, Type (0, 0), BuildingBlock: CIFDUS_clean_linker_0, # of connection points: 2
#     Edge 20, Type (0, 0), BuildingBlock: CIFDUS_clean_linker_0, # of connection points: 2
#     Edge 21, Type (0, 0), BuildingBlock: CIFDUS_clean_linker_0, # of connection points: 2
#     Edge 22, Type (0, 0), BuildingBlock: CIFDUS_clean_linker_0, # of connection points: 2
#     Edge 23, Type (0, 0), BuildingBlock: CIFDUS_clean_linker_0, # of connection points: 2
#     Edge 24, Type (0, 0), BuildingBlock: CIFDUS_clean_linker_0, # of connection points: 2
#     Edge 25, Type (0, 0), BuildingBlock: CIFDUS_clean_linker_0, # of connection points: 2
#     Edge 26, Type (0, 0), BuildingBlock: CIFDUS_clean_linker_0, # of connection points: 2
#     Edge 27, Type (0, 0), BuildingBlock: CIFDUS_clean_linker_0, # of connection points: 2
#     Edge 28, Type (0, 0), BuildingBlock: CIFDUS_clean_linker_0, # of connection points: 2
#     Edge 29, Type (0, 0), BuildingBlock: CIFDUS_clean_linker_0, # of connection points: 2
#     Edge 30, Type (0, 0), BuildingBlock: CIFDUS_clean_linker_0, # of connection points: 2
#     Edge 31, Type (0, 0), BuildingBlock: CIFDUS_clean_linker_0, # of connection points: 2
#     Edge 32, Type (0, 0), BuildingBlock: CIFDUS_clean_linker_0, # of connection points: 2
#     Edge 33, Type (0, 0), BuildingBlock: CIFDUS_clean_linker_0, # of connection points: 2
#     Edge 34, Type (0, 0), BuildingBlock: CIFDUS_clean_linker_0, # of connection points: 2
#     Edge 35, Type (0, 0), BuildingBlock: CIFDUS_clean_linker_0, # of connection points: 2
#     Edge 36, Type (0, 0), BuildingBlock: CIFDUS_clean_linker_0, # of connection points: 2
#     Edge 37, Type (0, 0), BuildingBlock: CIFDUS_clean_linker_0, # of connection points: 2
#     Edge 38, Type (0, 0), BuildingBlock: CIFDUS_clean_linker_0, # of connection points: 2
#     Edge 39, Type (0, 0), BuildingBlock: CIFDUS_clean_linker_0, # of connection points: 2
#     Edge 40, Type (0, 0), BuildingBlock: CIFDUS_clean_linker_0, # of connection points: 2
#     Edge 41, Type (0, 0), BuildingBlock: CIFDUS_clean_linker_0, # of connection points: 2
#     Edge 42, Type (0, 0), BuildingBlock: CIFDUS_clean_linker_0, # of connection points: 2
#     Edge 43, Type (0, 0), BuildingBlock: CIFDUS_clean_linker_0, # of connection points: 2
#     Edge 44, Type (0, 0), BuildingBlock: CIFDUS_clean_linker_0, # of connection points: 2
#     Edge 45, Type (0, 0), BuildingBlock: CIFDUS_clean_linker_0, # of connection points: 2
#     Edge 46, Type (0, 0), BuildingBlock: CIFDUS_clean_linker_0, # of connection points: 2
#     Edge 47, Type (0, 0), BuildingBlock: CIFDUS_clean_linker_0, # of connection points: 2
#     Edge 48, Type (0, 0), BuildingBlock: CIFDUS_clean_linker_0, # of connection points: 2
#     Edge 49, Type (0, 0), BuildingBlock: CIFDUS_clean_linker_0, # of connection points: 2
#     Edge 50, Type (0, 0), BuildingBlock: CIFDUS_clean_linker_0, # of connection points: 2
#     Edge 51, Type (0, 0), BuildingBlock: CIFDUS_clean_linker_0, # of connection points: 2
#     Edge 52, Type (0, 0), BuildingBlock: CIFDUS_clean_linker_0, # of connection points: 2
#     Edge 53, Type (0, 0), BuildingBlock: CIFDUS_clean_linker_0, # of connection points: 2
# Relax obj value: 0.129
# Max RMSD: 0.232
# Mean RMSD: 0.223
data_MOF--net-unn--node1-CEKHIL_clean_sbu_0--edge1-CIFDUS_clean_linker_0
_symmetry_space_group_name_H-M    P1
_symmetry_Int_Tables_number       1
_symmetry_cell_setting            triclinic
loop_
_symmetry_equiv_pos_as_xyz
'x, y, z'
_cell_length_a     40.601596
_cell_length_b     40.508752
_cell_length_c     33.061321
_cell_angle_alpha  90.33572
_cell_angle_beta   89.86352
_cell_angle_gamma 120.25305
loop_
_atom_site_label
_atom_site_type_symbol
_atom_site_fract_x
_atom_site_fract_y
_atom_site_fract_z
_atom_type_partial_charge
Co0 Co 0.08865 0.75016 0.23532 0.0
O1 O 0.03529 0.72165 0.22144 0.0
O2 O 0.07567 0.77765 0.19536 0.0
C3 C 0.08072 0.74278 0.30232 0.0
O4 O 0.1464 0.78685 0.24559 0.0
Co5 Co 0.12117 0.70276 0.27097 0.0
O6 O 0.1671 0.75341 0.28113 0.0
C7 C 0.09522 0.69047 0.1879 0.0
C8 C 0.04104 0.74828 0.19633 0.0
C9 C 0.17255 0.78472 0.26613 0.0
O10 O 0.09878 0.72365 0.19019 0.0
O11 O 0.10035 0.6742 0.21828 0.0
O12 O 0.07834 0.76982 0.28409 0.0
O13 O 0.08325 0.71836 0.27889 0.0
Co14 Co 0.2715 0.35659 0.23893 0.0
O15 O 0.25448 0.3911 0.25659 0.0
O16 O 0.22048 0.32861 0.26311 0.0
C17 C 0.29268 0.38165 0.17763 0.0
O18 O 0.28193 0.31325 0.22095 0.0
Co19 Co 0.35893 0.39288 0.22465 0.0
O20 O 0.34227 0.34346 0.19696 0.0
C21 C 0.32948 0.37744 0.30768 0.0
C22 C 0.22311 0.36182 0.26861 0.0
C23 C 0.31001 0.3132 0.20179 0.0
O24 O 0.29525 0.36038 0.29367 0.0
O25 O 0.35895 0.39516 0.28516 0.0
O26 O 0.25651 0.35857 0.18354 0.0
O27 O 0.31325 0.39342 0.21 0.0
Co28 Co 0.71303 0.94011 0.22656 0.0
O29 O 0.67719 0.88897 0.24418 0.0
O30 O 0.73957 0.91547 0.24951 0.0
C31 C 0.68745 0.93798 0.16592 0.0
O32 O 0.7576 0.99312 0.20877 0.0
Co33 Co 0.68069 0.99473 0.2166 0.0
O34 O 0.72942 0.02585 0.18746 0.0
C35 C 0.69683 0.97854 0.29805 0.0
C36 C 0.70583 0.8859 0.25605 0.0
C37 C 0.75868 0.0221 0.19065 0.0
O38 O 0.71203 0.96047 0.28202 0.0
O39 O 0.67977 0.992 0.27723 0.0
O40 O 0.70884 0.92293 0.17083 0.0
O41 O 0.67707 0.9474 0.19898 0.0
Co42 Co 0.12149 0.35423 0.73003 0.0
O43 O 0.17321 0.38799 0.74763 0.0
O44 O 0.14608 0.32522 0.74549 0.0
C45 C 0.12435 0.38777 0.67539 0.0
O46 O 0.06801 0.3113 0.71101 0.0
Co47 Co 0.06631 0.38667 0.72842 0.0
O48 O 0.03351 0.33946 0.69694 0.0
C49 C 0.08808 0.36812 0.80608 0.0
C50 C 0.17611 0.35814 0.75417 0.0
C51 C 0.03802 0.31049 0.69598 0.0
O52 O 0.10316 0.3512 0.7872 0.0
O53 O 0.07501 0.38704 0.78809 0.0
O54 O 0.13689 0.36395 0.67336 0.0
O55 O 0.11455 0.39325 0.71071 0.0
Co56 Co 0.72641 0.77857 0.74853 0.0
O57 O 0.75208 0.75099 0.73401 0.0
O58 O 0.76465 0.80537 0.70613 0.0
C59 C 0.73037 0.77369 0.8157 0.0
O60 O 0.70455 0.81455 0.75849 0.0
Co61 Co 0.64867 0.73265 0.79124 0.0
O62 O 0.6534 0.78335 0.79925 0.0
C63 C 0.65575 0.71706 0.70664 0.0
C64 C 0.77115 0.77693 0.70736 0.0
C65 C 0.67761 0.81349 0.78081 0.0
O66 O 0.6876 0.74863 0.70601 0.0
O67 O 0.63591 0.70334 0.73873 0.0
O68 O 0.75861 0.80083 0.79585 0.0
O69 O 0.70254 0.74845 0.79386 0.0
Co70 Co 0.27996 0.97256 0.73781 0.0
O71 O 0.30876 0.02565 0.72288 0.0
O72 O 0.25072 0.98609 0.70074 0.0
C73 C 0.29222 0.98119 0.8041 0.0
O74 O 0.2432 0.91518 0.74984 0.0
Co75 Co 0.32915 0.9395 0.7672 0.0
O76 O 0.27891 0.89415 0.78029 0.0
C77 C 0.33539 0.9654 0.68476 0.0
C78 C 0.28082 0.02031 0.69996 0.0
C79 C 0.24665 0.88901 0.76878 0.0
O80 O 0.30189 0.96009 0.6902 0.0
O81 O 0.35423 0.96126 0.71325 0.0
O82 O 0.26478 0.98473 0.78861 0.0
O83 O 0.31433 0.97762 0.77829 0.0
Co84 Co 0.76061 0.09958 0.56918 0.0
O85 O 0.70777 0.06743 0.55561 0.0
O86 O 0.74474 0.12328 0.5274 0.0
C87 C 0.75205 0.09402 0.63623 0.0
O88 O 0.81745 0.13963 0.57969 0.0
Co89 Co 0.79648 0.05688 0.60547 0.0
O90 O 0.84057 0.10867 0.61568 0.0
C91 C 0.76998 0.04103 0.52334 0.0
C92 C 0.71125 0.09227 0.52926 0.0
C93 C 0.84429 0.13932 0.60076 0.0
O94 O 0.77369 0.07424 0.52516 0.0
O95 O 0.77558 0.02562 0.55415 0.0
O96 O 0.74806 0.11912 0.616 0.0
O97 O 0.75645 0.0696 0.61464 0.0
Co98 Co 0.94288 0.66699 0.5694 0.0
O99 O 0.96929 0.64021 0.55499 0.0
O100 O 0.91382 0.62648 0.52929 0.0
C101 C 0.95088 0.66572 0.63624 0.0
O102 O 0.9077 0.68963 0.58043 0.0
Co103 Co 0.99151 0.74634 0.60747 0.0
O104 O 0.9424 0.74448 0.61561 0.0
C105 C 1.00383 0.73408 0.52372 0.0
C106 C 0.94202 0.61964 0.53012 0.0
C107 C 0.9109 0.71882 0.6005 0.0
O108 O 0.971 0.70364 0.52464 0.0
O109 O 0.01949 0.75489 0.55491 0.0
O110 O 0.92258 0.63706 0.61795 0.0
O111 O 0.97558 0.69245 0.6131 0.0
Co112 Co 0.40178 0.30397 0.56738 0.0
O113 O 0.4306 0.35805 0.55696 0.0
O114 O 0.43857 0.31548 0.52331 0.0
C115 C 0.40693 0.30694 0.63476 0.0
O116 O 0.37558 0.24508 0.57372 0.0
Co117 Co 0.32505 0.27763 0.61072 0.0
O118 O 0.32398 0.22826 0.61328 0.0
C119 C 0.33466 0.30484 0.52844 0.0
C120 C 0.44779 0.35117 0.5281 0.0
C121 C 0.3466 0.22013 0.59474 0.0
O122 O 0.36347 0.29998 0.52664 0.0
O123 O 0.31569 0.30015 0.56091 0.0
O124 O 0.43423 0.30882 0.61251 0.0
O125 O 0.38037 0.30915 0.61536 0.0
Co126 Co 0.75466 0.63229 0.07045 0.0
O127 O 0.70074 0.60564 0.05938 0.0
O128 O 0.74111 0.5922 0.0293 0.0
C129 C 0.75044 0.63165 0.13802 0.0
O130 O 0.81305 0.65552 0.07761 0.0
Co131 Co 0.7862 0.71246 0.1089 0.0
O132 O 0.83389 0.71062 0.11277 0.0
C133 C 0.75866 0.69924 0.02619 0.0
C134 C 0.70623 0.58561 0.03258 0.0
C135 C 0.8396 0.68527 0.09658 0.0
O136 O 0.7613 0.66901 0.02656 0.0
O137 O 0.76465 0.72022 0.05747 0.0
O138 O 0.74742 0.60222 0.11869 0.0
O139 O 0.75089 0.65798 0.11561 0.0
Co140 Co 0.38451 0.10651 0.07866 0.0
O141 O 0.40829 0.07702 0.06511 0.0
O142 O 0.42598 0.13323 0.0389 0.0
C143 C 0.38497 0.09815 0.14548 0.0
O144 O 0.36501 0.14452 0.0893 0.0
Co145 Co 0.3049 0.06201 0.11632 0.0
O146 O 0.31288 0.11327 0.12869 0.0
C147 C 0.31472 0.04966 0.03163 0.0
C148 C 0.43041 0.10345 0.04038 0.0
C149 C 0.3385 0.14385 0.11214 0.0
O150 O 0.34761 0.07999 0.03344 0.0
O151 O 0.29307 0.03538 0.0624 0.0
O152 O 0.41444 0.12551 0.12746 0.0
O153 O 0.35763 0.0745 0.12206 0.0
Co154 Co 0.96729 0.30224 0.07184 0.0
O155 O 0.99718 0.35587 0.05934 0.0
O156 O 0.94245 0.31645 0.02997 0.0
C157 C 0.9714 0.3085 0.13894 0.0
O158 O 0.92941 0.24453 0.08054 0.0
Co159 Co 1.01213 0.26781 0.11132 0.0
O160 O 0.96034 0.22322 0.11958 0.0
C161 C 0.02787 0.29396 0.02851 0.0
C162 C 0.972 0.35094 0.03255 0.0
C163 C 0.93004 0.2183 0.10247 0.0
O164 O 0.99535 0.29187 0.02872 0.0
O165 O 0.04247 0.28809 0.0599 0.0
O166 O 0.94597 0.31256 0.11931 0.0
O167 O 0.9964 0.30582 0.11695 0.0
Co168 Co 0.41778 0.41892 0.91036 0.0
O169 O 0.36407 0.39398 0.89933 0.0
O170 O 0.40663 0.4466 0.86888 0.0
C171 C 0.41235 0.41588 0.97775 0.0
O172 O 0.47638 0.45196 0.91758 0.0
Co173 Co 0.44493 0.36812 0.94759 0.0
O174 O 0.49466 0.41601 0.95219 0.0
C175 C 0.4168 0.35342 0.8658 0.0
C176 C 0.37105 0.4194 0.87219 0.0
C177 C 0.50201 0.4476 0.93632 0.0
O178 O 0.42207 0.38729 0.86646 0.0
O179 O 0.42161 0.33763 0.89674 0.0
O180 O 0.41255 0.44355 0.95796 0.0
O181 O 0.41077 0.38843 0.95591 0.0
Co182 Co 0.61098 0.02943 0.8987 0.0
O183 O 0.59678 0.06519 0.92 0.0
O184 O 0.55875 1.00279 0.91982 0.0
C185 C 0.63672 0.05988 0.84036 0.0
O186 O 0.61775 0.98477 0.87685 0.0
Co187 Co 0.69819 0.05999 0.88769 0.0
O188 O 0.6792 1.01183 0.85683 0.0
C189 C 0.66354 0.03467 0.96797 0.0
C190 C 0.56372 0.03642 0.92885 0.0
C191 C 0.64553 0.98315 0.85892 0.0
O192 O 0.63072 0.02555 0.95333 0.0
O193 O 0.69438 0.05064 0.94732 0.0
O194 O 0.60001 0.03848 0.84393 0.0
O195 O 0.65576 0.06651 0.87359 0.0
Co196 Co 0.04414 0.60193 0.88821 0.0
O197 O 1.01066 0.54943 0.90329 0.0
O198 O 0.07316 0.57869 0.90866 0.0
C199 C 1.01696 0.60015 0.82891 0.0
O200 O 0.08624 0.65714 0.87262 0.0
Co201 Co 1.00598 0.65198 0.88279 0.0
O202 O 0.05415 0.68691 0.85441 0.0
C203 C 0.02342 0.63334 0.96242 0.0
C204 C 0.04023 0.54765 0.91415 0.0
C205 C 0.08493 0.68574 0.85647 0.0
O206 O 0.04138 0.6187 0.94491 0.0
O207 O 1.00444 0.64549 0.94295 0.0
O208 O 0.04091 0.58784 0.83133 0.0
O209 O 1.00611 0.60711 0.86302 0.0
Co210 Co 0.45609 0.99811 0.3862 0.0
O211 O 0.50708 0.03499 0.40268 0.0
O212 O 0.48406 0.9728 0.40381 0.0
C213 C 0.45582 0.02739 0.32929 0.0
O214 O 0.40297 0.95309 0.36842 0.0
Co215 Co 0.39924 0.02866 0.38371 0.0
O216 O 0.36879 0.98115 0.35194 0.0
C217 C 0.4201 1.01018 0.46188 0.0
C218 C 0.5127 1.00714 0.41092 0.0
C219 C 0.37322 0.95212 0.35227 0.0
O220 O 0.43775 0.99577 0.44329 0.0
O221 O 0.40552 0.02761 0.44366 0.0
O222 O 0.47109 1.00588 0.32948 0.0
O223 O 0.44663 0.03456 0.36423 0.0
Co224 Co 0.03908 0.43012 0.41024 0.0
O225 O 0.06287 0.4004 0.39802 0.0
O226 O 0.08098 0.45641 0.37097 0.0
C227 C 0.03898 0.42174 0.47721 0.0
O228 O 0.01981 0.46843 0.41911 0.0
Co229 Co 0.95888 0.3861 0.44659 0.0
O230 O 0.96378 0.43692 0.45242 0.0
C231 C 0.971 0.37174 0.36356 0.0
C232 C 0.08538 0.42666 0.37333 0.0
C233 C 0.99093 0.46745 0.43739 0.0
O234 O 1.00271 0.40337 0.36499 0.0
O235 O 0.94924 0.35726 0.39419 0.0
O236 O 0.06838 0.44934 0.45925 0.0
O237 O 1.01153 0.39843 0.45362 0.0
Co238 Co 0.63083 0.64088 0.4143 0.0
O239 O 0.66 0.6949 0.40407 0.0
O240 O 0.60438 0.65632 0.37579 0.0
C241 C 0.63775 0.64505 0.48169 0.0
O242 O 0.59325 0.58274 0.42076 0.0
Co243 Co 0.6766 0.60498 0.4468 0.0
O244 O 0.62584 0.55838 0.45171 0.0
C245 C 0.68842 0.63188 0.36415 0.0
C246 C 0.63406 0.69069 0.37865 0.0
C247 C 0.59499 0.55472 0.43754 0.0
O248 O 0.65759 0.63298 0.3677 0.0
O249 O 0.7035 0.62374 0.39347 0.0
O250 O 0.6112 0.64902 0.46449 0.0
O251 O 0.66181 0.64316 0.45734 0.0
H252 H 0.04211 0.6909 0.14162 0.0
H253 H 0.11734 0.64501 0.14727 0.0
H254 H 0.09869 0.61965 0.078 0.0
H255 H 0.06555 0.61667 0.01414 0.0
H256 H 0.99069 0.6637 0.01075 0.0
H257 H 1.00432 0.68211 0.08152 0.0
C258 C 0.05421 0.67506 0.12783 0.0
C259 C 0.08151 0.67035 0.14894 0.0
C260 C 0.04349 0.66097 0.08855 0.0
C261 C 0.09642 0.6491 0.1313 0.0
C262 C 0.08586 0.63483 0.09177 0.0
C263 C 0.05184 0.63055 0.02896 0.0
C264 C 0.02762 0.63939 0.00678 0.0
C265 C 0.06012 0.6415 0.06977 0.0
C266 C 1.00978 0.65694 0.02674 0.0
C267 C 1.01759 0.66756 0.06726 0.0
H268 H 0.34155 0.36688 0.00092 0.0
H269 H 0.45125 0.45327 0.04549 0.0
H270 H 0.42355 0.45072 0.11239 0.0
H271 H 0.36707 0.4261 0.1565 0.0
H272 H 0.2566 0.3432 0.10909 0.0
H273 H 0.28538 0.34277 0.04451 0.0
C274 C 0.35941 0.38434 0.02574 0.0
C275 C 0.39834 0.40937 0.01925 0.0
C276 C 0.34294 0.38405 0.06304 0.0
C277 C 0.4213 0.43313 0.05064 0.0
C278 C 0.40539 0.43198 0.08852 0.0
C279 C 0.34933 0.40815 0.13192 0.0
C280 C 0.3098 0.38484 0.13748 0.0
C281 C 0.36607 0.40807 0.09479 0.0
C282 C 0.28708 0.36168 0.10545 0.0
C283 C 0.30353 0.36112 0.06862 0.0
H284 H 0.64315 0.9681 0.14443 0.0
H285 H 0.72762 0.94264 0.09851 0.0
H286 H 0.72999 0.97359 0.03493 0.0
H287 H 0.70836 1.00762 -0.00784 0.0
H288 H 0.62028 0.02913 0.03419 0.0
H289 H 0.61934 1.00049 0.09977 0.0
C290 C 0.66175 0.96906 0.1203 0.0
C291 C 0.68508 0.95301 0.12616 0.0
C292 C 0.66274 0.98665 0.08341 0.0
C293 C 0.70911 0.95445 0.09471 0.0
C294 C 0.71075 0.97243 0.0584 0.0
C295 C 0.68938 1.0066 0.01591 0.0
C296 C 0.66496 0.02106 0.00881 0.0
C297 C 0.68791 0.98879 0.05254 0.0
C298 C 0.63964 0.01851 0.0393 0.0
C299 C 0.63897 1.00197 0.0766 0.0
H300 H 0.71927 0.04355 0.47462 0.0
H301 H 0.78929 0.99205 0.48507 0.0
H302 H 0.77005 0.96507 0.41641 0.0
H303 H 0.73749 0.96149 0.35172 0.0
H304 H 0.66778 0.01413 0.34389 0.0
H305 H 0.68245 0.03502 0.41393 0.0
C306 C 0.73021 0.02624 0.46208 0.0
C307 C 0.75618 0.02037 0.48447 0.0
C308 C 0.71911 1.01118 0.42316 0.0
C309 C 0.76944 0.99713 0.46822 0.0
C310 C 0.75853 0.98191 0.429 0.0
C311 C 0.72514 0.97718 0.36542 0.0
C312 C 0.70198 0.98672 0.34214 0.0
C313 C 0.73401 0.98953 0.40587 0.0
C314 C 0.68599 1.00672 0.36069 0.0
C315 C 0.6944 0.01875 0.4008 0.0
H316 H 1.00841 0.6847 0.47307 0.0
H317 H 0.0468 0.8044 0.48934 0.0
H318 H 0.07779 0.81826 0.42281 0.0
H319 H 0.08902 0.7951 0.3582 0.0
H320 H 0.05247 0.6756 0.34331 0.0
H321 H 0.02637 0.6628 0.41195 0.0
C322 C 0.02369 0.71383 0.46199 0.0
C323 C 0.02478 0.74348 0.48531 0.0
C324 C 0.04186 0.7215 0.42436 0.0
C325 C 0.04542 0.78122 0.47148 0.0
C326 C 0.06306 0.78907 0.43359 0.0
C327 C 0.07586 0.76637 0.37028 0.0
C328 C 0.07214 0.73621 0.34575 0.0
C329 C 0.06082 0.75929 0.40952 0.0
C330 C 0.05559 0.69922 0.36172 0.0
C331 C 0.0404 0.69186 0.40077 0.0
H332 H 0.38495 0.35635 0.47735 0.0
H333 H 0.26415 0.28464 0.4969 0.0
H334 H 0.2514 0.30372 0.43089 0.0
H335 H 0.27556 0.33648 0.3653 0.0
H336 H 0.39716 0.40881 0.34823 0.0
H337 H 0.40858 0.39424 0.41614 0.0
C338 C 0.35579 0.34507 0.46726 0.0
C339 C 0.32551 0.31863 0.49136 0.0
C340 C 0.34889 0.35628 0.42982 0.0
C341 C 0.28785 0.30486 0.47857 0.0
C342 C 0.28066 0.31569 0.44087 0.0
C343 C 0.30454 0.3495 0.37659 0.0
C344 C 0.33546 0.37322 0.3512 0.0
C345 C 0.31106 0.34077 0.41584 0.0
C346 C 0.37277 0.39011 0.36668 0.0
C347 C 0.37942 0.38173 0.40556 0.0
H348 H 0.09757 0.3189 0.85437 0.0
H349 H 0.06767 0.40737 0.8576 0.0
H350 H 0.05124 0.39475 0.92873 0.0
H351 H 0.03847 0.35428 0.98729 0.0
H352 H 0.06545 0.2642 0.98574 0.0
H353 H 0.09085 0.28225 0.9166 0.0
C354 C 0.08797 0.33577 0.87077 0.0
C355 C 0.08318 0.36357 0.8504 0.0
C356 C 0.07799 0.328 0.91176 0.0
C357 C 0.07102 0.38539 0.87224 0.0
C358 C 0.06166 0.37826 0.91297 0.0
C359 C 0.05038 0.33891 0.97193 0.0
C360 C 0.04972 0.30772 -0.00912 0.0
C361 C 0.06394 0.34894 0.93255 0.0
C362 C 0.06575 0.28832 0.97139 0.0
C363 C 0.07992 0.29848 0.93191 0.0
H364 H 0.78096 0.76961 -0.00542 0.0
H365 H 0.7085 0.64872 0.97258 0.0
H366 H 0.68904 0.66153 0.90772 0.0
H367 H 0.6965 0.70646 0.85484 0.0
H368 H 0.77379 0.82704 0.87247 0.0
H369 H 0.78709 0.81525 0.94151 0.0
C370 C 0.7607 0.74624 0.97562 0.0
C371 C 0.74637 0.70834 -0.01193 0.0
C372 C 0.75051 0.75377 0.93759 0.0
C373 C 0.72025 0.67816 0.9633 0.0
C374 C 0.70899 0.68542 0.92629 0.0
C375 C 0.7157 0.73021 0.87408 0.0
C376 C 0.73408 0.7675 0.85885 0.0
C377 C 0.72446 0.72304 0.9128 0.0
C378 C 0.75935 0.79803 0.88376 0.0
C379 C 0.76706 0.79129 0.92309 0.0
H380 H 0.35961 0.04291 0.97642 0.0
H381 H 0.24299 0.01231 -0.00075 0.0
H382 H 0.22497 0.98472 0.9311 0.0
H383 H 0.24385 0.97453 0.86359 0.0
H384 H 0.36022 1.00371 0.84157 0.0
H385 H 0.37693 0.02607 0.91152 0.0
C386 C 0.33021 0.03007 0.96643 0.0
C387 C 0.3027 0.03023 -0.00779 0.0
C388 C 0.32014 0.01399 0.92767 0.0
C389 C 0.26457 0.01269 0.97961 0.0
C390 C 0.25435 0.99702 0.94075 0.0
C391 C 0.27275 0.98532 0.87432 0.0
C392 C 0.30095 0.98805 0.84752 0.0
C393 C 0.28208 0.99823 0.91432 0.0
C394 C 0.33812 1.00146 0.86174 0.0
C395 C 0.3477 0.01448 0.90157 0.0
H396 H 0.38847 0.95439 0.64379 0.0
H397 H 0.32047 1.00861 0.63554 0.0
H398 H 0.34428 0.03101 0.56829 0.0
H399 H 0.37981 0.03122 0.50976 0.0
H400 H 0.44515 0.97396 0.51314 0.0
H401 H 0.42727 0.95704 0.584 0.0
C402 C 0.37921 0.9713 0.62722 0.0
C403 C 0.35247 0.97951 0.64458 0.0
C404 C 0.3923 0.98338 0.58748 0.0
C405 C 0.34068 1.00149 0.62283 0.0
C406 C 0.35432 0.01443 0.58425 0.0
C407 C 0.39055 0.01534 0.52591 0.0
C408 C 0.41347 1.00363 0.50593 0.0
C409 C 0.37945 1.0049 0.56599 0.0
C410 C 0.42721 0.98321 0.52768 0.0
C411 C 0.41691 0.9734 0.5682 0.0
H412 H 0.07137 0.34328 0.62102 0.0
H413 H 0.15093 0.46058 0.65191 0.0
H414 H 0.12823 0.48226 0.59485 0.0
H415 H 0.08706 0.46715 0.53524 0.0
H416 H 1.0034 0.34978 0.5084 0.0
H417 H 0.02464 0.3286 0.56671 0.0
C418 C 0.08361 0.37353 0.61509 0.0
C419 C 0.11319 0.40048 0.63952 0.0
C420 C 0.06897 0.3856 0.58392 0.0
C421 C 0.12861 0.43959 0.63253 0.0
C422 C 0.11539 0.45188 0.60037 0.0
C423 C 0.07299 0.43701 0.54273 0.0
C424 C 0.0441 0.41002 0.51751 0.0
C425 C 0.0856 0.42509 0.57588 0.0
C426 C 0.02569 0.37109 0.52753 0.0
C427 C 0.03819 0.35891 0.56045 0.0
H428 H 0.58757 0.63999 0.53876 0.0
H429 H 0.70311 0.66397 0.52269 0.0
H430 H 0.71783 0.68597 0.59281 0.0
H431 H 0.69987 0.70523 0.65557 0.0
H432 H 0.58434 0.68029 0.67305 0.0
H433 H 0.56728 0.6515 0.60517 0.0
C434 C 0.61579 0.64947 0.55086 0.0
C435 C 0.64443 0.651 0.52555 0.0
C436 C 0.62405 0.66224 0.59106 0.0
C437 C 0.68068 0.66272 0.5416 0.0
C438 C 0.68917 0.67552 0.58155 0.0
C439 C 0.67086 0.69312 0.64456 0.0
C440 C 0.64345 0.69536 0.66856 0.0
C441 C 0.66142 0.67654 0.60602 0.0
C442 C 0.6058 0.67896 0.65473 0.0
C443 C 0.59618 0.66268 0.61602 0.0
H444 H 0.45233 0.32606 0.81835 0.0
H445 H 0.3526 0.33729 0.82694 0.0
H446 H 0.33742 0.31896 0.75597 0.0
H447 H 0.35802 0.30934 0.68935 0.0
H448 H 0.45996 0.30167 0.67976 0.0
H449 H 0.46866 0.30859 0.75284 0.0
C450 C 0.42667 0.32315 0.80482 0.0
C451 C 0.40346 0.33273 0.8274 0.0
C452 C 0.41898 0.31402 0.76357 0.0
C453 C 0.37064 0.32977 0.80976 0.0
C454 C 0.36215 0.31961 0.7692 0.0
C455 C 0.38177 0.3086 0.70337 0.0
C456 C 0.40865 0.30576 0.67921 0.0
C457 C 0.38698 0.31323 0.74539 0.0
C458 C 0.43912 0.30443 0.69773 0.0
C459 C 0.44415 0.30835 0.73955 0.0
H460 H 0.68254 0.07811 0.65697 0.0
H461 H 0.78671 0.09164 0.70633 0.0
H462 H 0.76119 0.08551 0.77532 0.0
H463 H 0.70953 0.07832 0.82081 0.0
H464 H 0.604 0.06032 0.76948 0.0
H465 H 0.63035 0.06776 0.70161 0.0
C466 C 0.69944 0.07931 0.68295 0.0
C467 C 0.7362 0.08515 0.67713 0.0
C468 C 0.68465 0.07582 0.72186 0.0
C469 C 0.7581 0.08669 0.71052 0.0
C470 C 0.74366 0.0836 0.74974 0.0
C471 C 0.69229 0.07592 0.79481 0.0
C472 C 0.65477 0.06858 0.80012 0.0
C473 C 0.70708 0.07859 0.75573 0.0
C474 C 0.63292 0.06592 0.76612 0.0
C475 C 0.64785 0.06992 0.72734 0.0
H476 H 0.95918 0.61284 0.81168 0.0
H477 H 0.06019 0.61914 0.76094 0.0
H478 H 0.05144 0.64581 0.69862 0.0
H479 H 1.01355 0.66454 0.65745 0.0
H480 H 0.90875 0.6516 0.70455 0.0
H481 H 0.92073 0.63114 0.76996 0.0
C482 C 0.97911 0.61995 0.78685 0.0
C483 C 1.01002 0.61377 0.79057 0.0
C484 C 0.97349 0.63459 0.75085 0.0
C485 C 0.03581 0.6231 0.75841 0.0
C486 C 0.03104 0.63866 0.72295 0.0
C487 C 0.99393 0.65811 0.68249 0.0
C488 C 0.9609 0.66031 0.67706 0.0
C489 C 0.99992 0.64435 0.7188 0.0
C490 C 0.93473 0.65067 0.70879 0.0
C491 C 0.9414 0.63866 0.74584 0.0
H492 H 0.72158 0.59716 0.32401 0.0
H493 H 0.69533 0.6876 0.31483 0.0
H494 H 0.71722 0.69909 0.24488 0.0
H495 H 0.73686 0.67875 0.18429 0.0
H496 H 0.75849 0.58505 0.19111 0.0
H497 H 0.74589 0.57973 0.26383 0.0
C498 C 0.7214 0.61976 0.30677 0.0
C499 C 0.70669 0.6413 0.32417 0.0
C500 C 0.73285 0.62539 0.26602 0.0
C501 C 0.70621 0.6704 0.30169 0.0
C502 C 0.7187 0.677 0.26175 0.0
C503 C 0.73941 0.6576 0.20184 0.0
C504 C 0.74819 0.63213 0.18246 0.0
C505 C 0.731 0.65394 0.24325 0.0
C506 C 0.75139 0.60479 0.20544 0.0
C507 C 0.74415 0.60168 0.24699 0.0
H508 H 0.39597 0.04004 0.15857 0.0
H509 H 0.38968 0.13127 0.21865 0.0
H510 H 0.41047 0.11648 0.28239 0.0
H511 H 0.43424 0.07991 0.31913 0.0
H512 H 0.44635 0.99299 0.25612 0.0
H513 H 0.41998 1.00403 0.19485 0.0
C514 C 0.39835 0.05597 0.18601 0.0
C515 C 0.39057 0.0859 0.18485 0.0
C516 C 0.41213 0.04861 0.22143 0.0
C517 C 0.39488 0.10755 0.21966 0.0
C518 C 0.40708 0.09934 0.25574 0.0
C519 C 0.43117 0.06354 0.29189 0.0
C520 C 0.44238 0.03593 0.29184 0.0
C521 C 0.41652 0.07042 0.25669 0.0
C522 C 0.43835 0.01478 0.25657 0.0
C523 C 0.423 0.02083 0.22169 0.0
H524 H 0.01849 0.36033 0.3179 0.0
H525 H 0.90251 0.33665 0.3238 0.0
H526 H 0.89104 0.31042 0.25472 0.0
H527 H 0.91682 0.30155 0.1907 0.0
H528 H 0.03292 0.32503 0.18585 0.0
H529 H 0.04156 0.34352 0.25725 0.0
C530 C 0.99058 0.349 0.30409 0.0
C531 C 0.96149 0.3509 0.32508 0.0
C532 C 0.98441 0.33413 0.26487 0.0
C533 C 0.92522 0.33552 0.30774 0.0
C534 C 0.9188 0.32075 0.26837 0.0
C535 C 0.94381 0.31019 0.2055 0.0
C536 C 0.97446 0.31268 0.18312 0.0
C537 C 0.94857 0.32099 0.24632 0.0
C538 C 1.00907 0.32317 0.20255 0.0
C539 C 1.01406 0.33392 0.24322 0.0
H540 H 0.31793 0.94665 0.3017 0.0
H541 H 0.3549 0.87679 0.36235 0.0
H542 H 0.29704 0.81909 0.33893 0.0
H543 H 0.23407 0.78895 0.3054 0.0
H544 H 0.19697 0.85964 0.24663 0.0
H545 H 0.25701 0.9167 0.26546 0.0
C546 C 0.31364 0.91885 0.30986 0.0
C547 C 0.34091 0.91633 0.33436 0.0
C548 C 0.28009 0.88597 0.29684 0.0
C549 C 0.33472 0.87985 0.3437 0.0
C550 C 0.30143 0.84683 0.33046 0.0
C551 C 0.239 0.81676 0.29637 0.0
C552 C 0.21045 0.81968 0.27464 0.0
C553 C 0.27359 0.84959 0.30767 0.0
C554 C 0.21799 0.85621 0.26327 0.0
C555 C 0.2524 0.88893 0.27414 0.0
H556 H 0.21985 0.42743 0.27373 0.0
H557 H 0.15791 0.30835 0.30697 0.0
H558 H 0.10984 0.31816 0.34103 0.0
H559 H 0.08647 0.36075 0.36309 0.0
H560 H 0.14736 0.47965 0.32929 0.0
H561 H 0.19472 0.46965 0.29342 0.0
C562 C 0.19579 0.40352 0.28834 0.0
C563 C 0.19273 0.36711 0.28791 0.0
C564 C 0.16813 0.4094 0.30778 0.0
C565 C 0.16113 0.33657 0.30678 0.0
C566 C 0.13364 0.34223 0.32633 0.0
C567 C 0.11008 0.38462 0.34789 0.0
C568 C 0.11347 0.42113 0.3493 0.0
C569 C 0.13703 0.37856 0.32731 0.0
C570 C 0.14401 0.45138 0.32885 0.0
C571 C 0.17115 0.44562 0.30842 0.0
H572 H 0.63884 0.81864 0.26462 0.0
H573 H 0.75785 0.87475 0.29752 0.0
H574 H 0.74569 0.81934 0.3381 0.0
H575 H 0.7011 0.75605 0.36589 0.0
H576 H 0.58236 0.69876 0.33194 0.0
H577 H 0.59457 0.75367 0.29006 0.0
C578 C 0.66224 0.81873 0.28047 0.0
C579 C 0.69931 0.85106 0.27806 0.0
C580 C 0.65498 0.78668 0.30376 0.0
C581 C 0.72917 0.85041 0.29868 0.0
C582 C 0.72215 0.81874 0.32205 0.0
C583 C 0.67773 0.75551 0.34948 0.0
C584 C 0.64063 0.72338 0.35256 0.0
C585 C 0.68513 0.78693 0.32514 0.0
C586 C 0.61103 0.72307 0.33038 0.0
C587 C 0.61807 0.7545 0.30642 0.0
H588 H 0.76597 0.07745 0.13887 0.0
H589 H 0.83295 0.03882 0.20272 0.0
H590 H 0.89151 0.09487 0.17855 0.0
H591 H 0.92333 0.1566 0.14321 0.0
H592 H 0.85598 0.19585 0.08107 0.0
H593 H 0.79771 0.13738 0.10076 0.0
C594 C 0.79331 0.08103 0.14762 0.0
C595 C 0.79482 0.05386 0.17322 0.0
C596 C 0.82677 0.11352 0.134 0.0
C597 C 0.83071 0.05904 0.1833 0.0
C598 C 0.86423 0.09124 0.16956 0.0
C599 C 0.896 0.15248 0.1336 0.0
C600 C 0.89434 0.18113 0.1107 0.0
C601 C 0.86256 0.11897 0.14549 0.0
C602 C 0.85841 0.17465 0.09856 0.0
C603 C 0.82502 0.14119 0.10999 0.0
H604 H 0.90733 0.75182 0.1023 0.0
H605 H 0.85794 0.62965 0.11032 0.0
H606 H 0.91733 0.63878 0.13992 0.0
H607 H 0.98 0.68159 0.17129 0.0
H608 H 0.03028 0.80375 0.16163 0.0
H609 H 0.97368 0.79458 0.12502 0.0
C610 C 0.90982 0.72712 0.10969 0.0
C611 C 0.87798 0.68999 0.10424 0.0
C612 C 0.94393 0.73267 0.12714 0.0
C613 C 0.88189 0.65841 0.11377 0.0
C614 C 0.91575 0.6637 0.13121 0.0
C615 C 0.97881 0.70628 0.1608 0.0
C616 C 1.0092 0.74344 0.16981 0.0
C617 C 0.94641 0.70069 0.13931 0.0
C618 C 1.00737 0.77497 0.15535 0.0
C619 C 0.97493 0.76966 0.13448 0.0
H620 H 0.35953 0.3071 0.15056 0.0
H621 H 0.25377 0.23801 0.21452 0.0
H622 H 0.25271 0.18008 0.19041 0.0
H623 H 0.28345 0.14944 0.15439 0.0
H624 H 0.39001 0.21874 0.09179 0.0
H625 H 0.38891 0.27642 0.11231 0.0
C626 C 0.33604 0.27944 0.15939 0.0
C627 C 0.30684 0.27722 0.18493 0.0
C628 C 0.33588 0.24633 0.14573 0.0
C629 C 0.2766 0.24087 0.19516 0.0
C630 C 0.27611 0.20771 0.18143 0.0
C631 C 0.30653 0.17707 0.1449 0.0
C632 C 0.33703 0.17942 0.12152 0.0
C633 C 0.30587 0.21014 0.15718 0.0
C634 C 0.36625 0.21575 0.10962 0.0
C635 C 0.36564 0.2488 0.12151 0.0
H636 H 0.90778 0.14662 0.63787 0.0
H637 H 0.86306 0.21401 0.58685 0.0
H638 H 0.91997 0.2725 0.60994 0.0
H639 H 0.98029 0.30413 0.64814 0.0
H640 H 0.02437 0.23659 0.70013 0.0
H641 H 0.9697 0.17844 0.67281 0.0
C642 C 0.91035 0.17403 0.63143 0.0
C643 C 0.88061 0.17557 0.61068 0.0
C644 C 0.94298 0.20753 0.64525 0.0
C645 C 0.88514 0.21165 0.60259 0.0
C646 C 0.9177 0.24516 0.61601 0.0
C647 C 0.97813 0.27674 0.65361 0.0
C648 C 1.00649 0.27494 0.67685 0.0
C649 C 0.94645 0.24339 0.63798 0.0
C650 C 1.00319 0.23906 0.68267 0.0
C651 C 0.97179 0.20575 0.66709 0.0
H652 H 0.90854 0.78442 0.60896 0.0
H653 H 0.83748 0.66191 0.61617 0.0
H654 H 0.78691 0.66933 0.64798 0.0
H655 H 0.7661 0.71089 0.68088 0.0
H656 H 0.83641 0.83334 0.6718 0.0
H657 H 0.88411 0.82577 0.63357 0.0
C658 C 0.88165 0.75926 0.61671 0.0
C659 C 0.87697 0.72256 0.6103 0.0
C660 C 0.85287 0.76383 0.6353 0.0
C661 C 0.84184 0.69038 0.62034 0.0
C662 C 0.81307 0.69469 0.63901 0.0
C663 C 0.79173 0.73595 0.67019 0.0
C664 C 0.798 0.77276 0.67982 0.0
C665 C 0.81878 0.73128 0.6478 0.0
C666 C 0.83095 0.80482 0.66504 0.0
C667 C 0.85826 0.80043 0.64327 0.0
H668 H 0.34676 0.07787 0.66943 0.0
H669 H 0.22543 0.03379 0.66997 0.0
H670 H 0.23504 0.0901 0.63232 0.0
H671 H 0.27866 0.15477 0.60567 0.0
H672 H 0.39984 0.19797 0.60392 0.0
H673 H 0.38951 0.13851 0.6346 0.0
C674 C 0.3223 0.08037 0.66102 0.0
C675 C 0.28535 0.05187 0.67317 0.0
C676 C 0.32811 0.11256 0.63895 0.0
C677 C 0.25405 0.05527 0.66127 0.0
C678 C 0.25963 0.08754 0.6398 0.0
C679 C 0.3028 0.15083 0.6111 0.0
C680 C 0.3401 0.18101 0.60252 0.0
C681 C 0.2966 0.11674 0.62928 0.0
C682 C 0.37092 0.17527 0.60967 0.0
C683 C 0.365 0.14141 0.62777 0.0
H684 H 0.24485 0.82816 0.80699 0.0
H685 H 0.17075 0.8644 0.75492 0.0
H686 H 0.11513 0.80419 0.77581 0.0
H687 H 0.08758 0.74282 0.81079 0.0
H688 H 0.161 0.70647 0.86421 0.0
H689 H 0.21701 0.76532 0.8403 0.0
C690 C 0.21659 0.82305 0.79992 0.0
C691 C 0.21231 0.85133 0.77931 0.0
C692 C 0.18463 0.78835 0.81233 0.0
C693 C 0.17522 0.84357 0.77059 0.0
C694 C 0.14333 0.80906 0.78265 0.0
C695 C 0.11576 0.74747 0.81739 0.0
C696 C 0.11978 0.71996 0.83985 0.0
C697 C 0.14771 0.78148 0.80387 0.0
C698 C 0.15678 0.72681 0.84722 0.0
C699 C 0.18884 0.76062 0.83361 0.0
H700 H 0.24563 0.42293 0.761 0.0
H701 H 0.18551 0.3031 0.79119 0.0
H702 H 0.24093 0.31189 0.82951 0.0
H703 H 0.30468 0.35412 0.85759 0.0
H704 H 0.36648 0.47348 0.82578 0.0
H705 H 0.31202 0.46441 0.78485 0.0
C706 C 0.24473 0.39862 0.77567 0.0
C707 C 0.2112 0.36233 0.77339 0.0
C708 C 0.27684 0.40393 0.7976 0.0
C709 C 0.21079 0.3312 0.79231 0.0
C710 C 0.24245 0.33631 0.81443 0.0
C711 C 0.30642 0.37826 0.84164 0.0
C712 C 0.33956 0.41466 0.84524 0.0
C713 C 0.27532 0.37263 0.81781 0.0
C714 C 0.34138 0.44531 0.82375 0.0
C715 C 0.31019 0.44007 0.80039 0.0
H716 H 0.62174 0.81895 0.82183 0.0
H717 H 0.72546 0.88696 0.75413 0.0
H718 H 0.72182 0.94428 0.76907 0.0
H719 H 0.69194 0.97557 0.80493 0.0
H720 H 0.58959 0.90847 0.87481 0.0
H721 H 0.58958 0.85004 0.85453 0.0
C722 C 0.64359 0.84621 0.81002 0.0
C723 C 0.67417 0.84837 0.78699 0.0
C724 C 0.64147 0.87919 0.81907 0.0
C725 C 0.70176 0.88415 0.77191 0.0
C726 C 0.69967 0.91701 0.78053 0.0
C727 C 0.66931 0.94819 0.81566 0.0
C728 C 0.64091 0.94668 0.84189 0.0
C729 C 0.67004 0.91494 0.80462 0.0
C730 C 0.6117 0.9107 0.85467 0.0
C731 C 0.61193 0.8773 0.84329 0.0
H732 H 0.446 0.415 0.508 0.0
H733 H 0.51189 0.35953 0.49021 0.0
H734 H 0.5617 0.41679 0.45613 0.0
H735 H 0.58929 0.48489 0.43826 0.0
H736 H 0.52245 0.5396 0.45427 0.0
H737 H 0.46972 0.48001 0.48127 0.0
C738 C 0.47107 0.41524 0.4962 0.0
C739 C 0.47553 0.38318 0.5022 0.0
C740 C 0.49931 0.44812 0.47631 0.0
C741 C 0.50782 0.38375 0.48613 0.0
C742 C 0.53634 0.41658 0.46679 0.0
C743 C 0.56286 0.48358 0.44688 0.0
C744 C 0.55999 0.51691 0.44447 0.0
C745 C 0.53281 0.44926 0.46264 0.0
C746 C 0.52543 0.51452 0.45548 0.0
C747 C 0.49542 0.4805 0.47136 0.0
H748 H 0.65002 0.02235 0.5151 0.0
H749 H 0.69907 0.14057 0.48096 0.0
H750 H 0.6427 0.12374 0.4392 0.0
H751 H 0.57812 0.07595 0.41581 0.0
H752 H 0.52987 0.95767 0.44947 0.0
H753 H 0.58784 0.97401 0.48775 0.0
C754 C 0.64851 0.0446 0.49857 0.0
C755 C 0.6786 0.08294 0.50176 0.0
C756 C 0.61625 0.03459 0.47451 0.0
C757 C 0.67635 0.11103 0.47934 0.0
C758 C 0.64408 0.10133 0.4555 0.0
C759 C 0.58031 0.05358 0.43124 0.0
C760 C 0.54938 0.01553 0.42999 0.0
C761 C 0.61366 0.06329 0.45334 0.0
C762 C 0.55306 0.98703 0.44984 0.0
C763 C 0.58616 0.99647 0.47192 0.0
H764 H 0.92723 0.47323 0.44357 0.0
H765 H 0.04991 0.54104 0.44919 0.0
H766 H 0.04526 0.59523 0.47581 0.0
H767 H 1.00611 0.62053 0.50482 0.0
H768 H 0.88348 0.55308 0.49811 0.0
H769 H 0.88828 0.5015 0.46444 0.0
C770 C 0.95305 0.5001 0.44992 0.0
C771 C 0.98897 0.50287 0.44464 0.0
C772 C 0.95007 0.53096 0.46557 0.0
C773 C 0.022 0.53806 0.45267 0.0
C774 C 0.01928 0.56894 0.46832 0.0
C775 C 0.98038 0.59468 0.4956 0.0
C776 C 0.94436 0.59042 0.50458 0.0
C777 C 0.98346 0.56528 0.47607 0.0
C778 C 0.91144 0.55707 0.49175 0.0
C779 C 0.91424 0.52752 0.47263 0.0
H780 H 0.56814 0.44623 0.94342 0.0
H781 H 0.5235 0.52283 0.94839 0.0
H782 H 0.58408 0.57314 0.97656 0.0
H783 H 0.64679 0.59264 0.00705 0.0
H784 H 0.69261 0.51717 4e-05 0.0
H785 H 0.6345 0.46902 0.96532 0.0
C786 C 0.57192 0.47421 0.94987 0.0
C787 C 0.54107 0.48062 0.94396 0.0
C788 C 0.60683 0.50293 0.96628 0.0
C789 C 0.54666 0.51713 0.95226 0.0
C790 C 0.58121 0.54578 0.96882 0.0
C791 C 0.64426 0.5658 -0.00251 0.0
C792 C 0.67381 0.55824 0.00668 0.0
C793 C 0.61101 0.53858 0.97713 0.0
C794 C 0.67035 0.52365 -0.00651 0.0
C795 C 0.63703 0.4961 0.97376 0.0
H796 H 0.56368 0.10359 0.93852 0.0
H797 H 0.49679 0.98301 0.96413 0.0
H798 H 0.44981 0.99344 -0.00034 0.0
H799 H 0.42868 0.03679 0.02531 0.0
H800 H 0.49394 0.15717 -0.00137 0.0
H801 H 0.54048 0.14681 0.96137 0.0
C802 C 0.53877 0.07952 0.95177 0.0
C803 C 0.53402 0.04246 0.94878 0.0
C804 C 0.51161 0.08575 0.97198 0.0
C805 C 0.50131 1.01172 0.96589 0.0
C806 C 0.47444 0.01772 0.9863 0.0
C807 C 0.45306 0.0609 0.01133 0.0
C808 C 0.45793 0.09791 0.01521 0.0
C809 C 0.47945 0.05462 -0.01016 0.0
C810 C 0.48943 0.12851 -0.00373 0.0
C811 C 0.5161 0.12253 0.97506 0.0
H812 H 0.97527 0.47828 0.91888 0.0
H813 H 0.0934 0.53773 0.95542 0.0
H814 H 0.08252 0.48174 -0.0057 0.0
H815 H 0.03871 0.41735 0.02079 0.0
H816 H 0.92085 0.35736 0.98336 0.0
H817 H 0.93238 0.41224 0.94191 0.0
C818 C 0.99881 0.479 0.93509 0.0
C819 C 0.03519 0.51248 0.93432 0.0
C820 C 0.99225 0.4467 0.9575 0.0
C821 C 0.06524 0.51254 0.95533 0.0
C822 C 0.05893 0.48054 0.97776 0.0
C823 C 1.01543 0.41617 0.00359 0.0
C824 C 0.97869 0.38328 0.00571 0.0
C825 C 0.02242 0.44772 0.97958 0.0
C826 C 0.94923 0.38221 0.98256 0.0
C827 C 0.95587 0.41365 0.95886 0.0
loop_
_geom_bond_atom_site_label_1
_geom_bond_atom_site_label_2
_geom_bond_distance
_geom_bond_site_symmetry_2
_ccdc_geom_bond_type
Co0 O1 2.216 1_455 S
Co0 O2 2.091 1_455 S
Co0 O4 2.004 . S
Co0 O10 2.021 . S
Co0 O12 2.137 1_455 S
Co0 O13 2.244 . S
O1 Co0 2.216 1_655 S
O1 C8 1.247 . S
O2 Co0 2.091 1_655 S
O2 C8 1.261 . S
C3 O12 1.247 . S
C3 O13 1.272 1_655 S
O4 Co0 2.004 . S
O4 C9 1.259 . S
Co5 O6 2.061 . S
Co5 O11 2.052 . S
Co5 O13 2.135 . S
O6 Co5 2.061 . S
O6 C9 1.235 . S
C7 O10 1.238 . S
C7 O11 1.241 . S
C8 O1 1.247 . S
C8 O2 1.261 . S
C9 O4 1.259 . S
C9 O6 1.235 . S
O10 Co0 2.021 . S
O10 C7 1.238 . S
O11 Co5 2.052 . S
O11 C7 1.241 . S
O12 Co0 2.137 1_655 S
O12 C3 1.247 . S
O13 Co0 2.244 . S
O13 C3 1.272 1_455 S
O13 Co5 2.135 . S
Co14 O15 2.216 . S
Co14 O16 2.091 . S
Co14 O18 2.004 . S
Co14 O24 2.021 . S
Co14 O26 2.137 . S
Co14 O27 2.244 . S
O15 Co14 2.216 . S
O15 C22 1.247 . S
O16 Co14 2.091 . S
O16 C22 1.261 . S
C17 O26 1.247 . S
C17 O27 1.272 . S
O18 Co14 2.004 . S
O18 C23 1.259 . S
Co19 O20 2.061 . S
Co19 O25 2.052 . S
Co19 O27 2.135 . S
O20 Co19 2.061 . S
O20 C23 1.235 . S
C21 O24 1.238 . S
C21 O25 1.241 . S
C22 O15 1.247 . S
C22 O16 1.261 . S
C23 O18 1.259 . S
C23 O20 1.235 . S
O24 Co14 2.021 . S
O24 C21 1.238 . S
O25 Co19 2.052 . S
O25 C21 1.241 . S
O26 Co14 2.137 . S
O26 C17 1.247 . S
O27 Co14 2.244 . S
O27 C17 1.272 . S
O27 Co19 2.135 . S
Co28 O29 2.216 1_545 S
Co28 O30 2.091 1_545 S
Co28 O32 2.004 . S
Co28 O38 2.021 . S
Co28 O40 2.137 1_545 S
Co28 O41 2.244 . S
O29 Co28 2.216 1_565 S
O29 C36 1.247 . S
O30 Co28 2.091 1_565 S
O30 C36 1.261 . S
C31 O40 1.247 . S
C31 O41 1.272 1_565 S
O32 Co28 2.004 . S
O32 C37 1.259 . S
Co33 O34 2.061 . S
Co33 O39 2.052 . S
Co33 O41 2.135 . S
O34 Co33 2.061 . S
O34 C37 1.235 . S
C35 O38 1.238 . S
C35 O39 1.241 . S
C36 O29 1.247 . S
C36 O30 1.261 . S
C37 O32 1.259 . S
C37 O34 1.235 . S
O38 Co28 2.021 . S
O38 C35 1.238 . S
O39 Co33 2.052 . S
O39 C35 1.241 . S
O40 Co28 2.137 1_565 S
O40 C31 1.247 . S
O41 Co28 2.244 . S
O41 C31 1.272 1_545 S
O41 Co33 2.135 . S
Co42 O43 2.216 . S
Co42 O44 2.091 . S
Co42 O46 2.004 1_455 S
Co42 O52 2.021 1_455 S
Co42 O54 2.137 . S
Co42 O55 2.244 . S
O43 Co42 2.216 . S
O43 C50 1.247 . S
O44 Co42 2.091 . S
O44 C50 1.261 . S
C45 O54 1.247 . S
C45 O55 1.272 . S
O46 Co42 2.004 1_655 S
O46 C51 1.259 . S
Co47 O48 2.061 . S
Co47 O53 2.052 . S
Co47 O55 2.135 1_655 S
O48 Co47 2.061 . S
O48 C51 1.235 . S
C49 O52 1.238 . S
C49 O53 1.241 . S
C50 O43 1.247 . S
C50 O44 1.261 . S
C51 O46 1.259 . S
C51 O48 1.235 . S
O52 Co42 2.021 1_655 S
O52 C49 1.238 . S
O53 Co47 2.052 . S
O53 C49 1.241 . S
O54 Co42 2.137 . S
O54 C45 1.247 . S
O55 Co42 2.244 . S
O55 C45 1.272 . S
O55 Co47 2.135 1_455 S
Co56 O57 2.216 . S
Co56 O58 2.091 . S
Co56 O60 2.004 . S
Co56 O66 2.021 . S
Co56 O68 2.137 . S
Co56 O69 2.244 . S
O57 Co56 2.216 . S
O57 C64 1.247 . S
O58 Co56 2.091 . S
O58 C64 1.261 . S
C59 O68 1.247 . S
C59 O69 1.272 . S
O60 Co56 2.004 . S
O60 C65 1.259 . S
Co61 O62 2.061 . S
Co61 O67 2.052 . S
Co61 O69 2.135 . S
O62 Co61 2.061 . S
O62 C65 1.235 . S
C63 O66 1.238 . S
C63 O67 1.241 . S
C64 O57 1.247 . S
C64 O58 1.261 . S
C65 O60 1.259 . S
C65 O62 1.235 . S
O66 Co56 2.021 . S
O66 C63 1.238 . S
O67 Co61 2.052 . S
O67 C63 1.241 . S
O68 Co56 2.137 . S
O68 C59 1.247 . S
O69 Co56 2.244 . S
O69 C59 1.272 . S
O69 Co61 2.135 . S
Co70 O71 2.216 . S
Co70 O72 2.091 . S
Co70 O74 2.004 1_545 S
Co70 O80 2.021 1_545 S
Co70 O82 2.137 . S
Co70 O83 2.244 . S
O71 Co70 2.216 . S
O71 C78 1.247 . S
O72 Co70 2.091 . S
O72 C78 1.261 . S
C73 O82 1.247 . S
C73 O83 1.272 . S
O74 Co70 2.004 1_565 S
O74 C79 1.259 . S
Co75 O76 2.061 . S
Co75 O81 2.052 . S
Co75 O83 2.135 1_565 S
O76 Co75 2.061 . S
O76 C79 1.235 . S
C77 O80 1.238 . S
C77 O81 1.241 . S
C78 O71 1.247 . S
C78 O72 1.261 . S
C79 O74 1.259 . S
C79 O76 1.235 . S
O80 Co70 2.021 1_565 S
O80 C77 1.238 . S
O81 Co75 2.052 . S
O81 C77 1.241 . S
O82 Co70 2.137 . S
O82 C73 1.247 . S
O83 Co70 2.244 . S
O83 C73 1.272 . S
O83 Co75 2.135 1_545 S
Co84 O85 2.216 . S
Co84 O86 2.091 . S
Co84 O88 2.004 . S
Co84 O94 2.021 . S
Co84 O96 2.137 . S
Co84 O97 2.244 . S
O85 Co84 2.216 . S
O85 C92 1.247 . S
O86 Co84 2.091 . S
O86 C92 1.261 . S
C87 O96 1.247 . S
C87 O97 1.272 . S
O88 Co84 2.004 . S
O88 C93 1.259 . S
Co89 O90 2.061 . S
Co89 O95 2.052 . S
Co89 O97 2.135 . S
O90 Co89 2.061 . S
O90 C93 1.235 . S
C91 O94 1.238 . S
C91 O95 1.241 . S
C92 O85 1.247 . S
C92 O86 1.261 . S
C93 O88 1.259 . S
C93 O90 1.235 . S
O94 Co84 2.021 . S
O94 C91 1.238 . S
O95 Co89 2.052 . S
O95 C91 1.241 . S
O96 Co84 2.137 . S
O96 C87 1.247 . S
O97 Co84 2.244 . S
O97 C87 1.272 . S
O97 Co89 2.135 . S
Co98 O99 2.216 . S
Co98 O100 2.091 . S
Co98 O102 2.004 . S
Co98 O108 2.021 . S
Co98 O110 2.137 . S
Co98 O111 2.244 . S
O99 Co98 2.216 . S
O99 C106 1.247 . S
O100 Co98 2.091 . S
O100 C106 1.261 . S
C101 O110 1.247 . S
C101 O111 1.272 . S
O102 Co98 2.004 . S
O102 C107 1.259 . S
Co103 O104 2.061 . S
Co103 O109 2.052 . S
Co103 O111 2.135 . S
O104 Co103 2.061 . S
O104 C107 1.235 . S
C105 O108 1.238 . S
C105 O109 1.241 . S
C106 O99 1.247 . S
C106 O100 1.261 . S
C107 O102 1.259 . S
C107 O104 1.235 . S
O108 Co98 2.021 . S
O108 C105 1.238 . S
O109 Co103 2.052 . S
O109 C105 1.241 . S
O110 Co98 2.137 . S
O110 C101 1.247 . S
O111 Co98 2.244 . S
O111 C101 1.272 . S
O111 Co103 2.135 . S
Co112 O113 2.216 . S
Co112 O114 2.091 . S
Co112 O116 2.004 . S
Co112 O122 2.021 . S
Co112 O124 2.137 . S
Co112 O125 2.244 . S
O113 Co112 2.216 . S
O113 C120 1.247 . S
O114 Co112 2.091 . S
O114 C120 1.261 . S
C115 O124 1.247 . S
C115 O125 1.272 . S
O116 Co112 2.004 . S
O116 C121 1.259 . S
Co117 O118 2.061 . S
Co117 O123 2.052 . S
Co117 O125 2.135 . S
O118 Co117 2.061 . S
O118 C121 1.235 . S
C119 O122 1.238 . S
C119 O123 1.241 . S
C120 O113 1.247 . S
C120 O114 1.261 . S
C121 O116 1.259 . S
C121 O118 1.235 . S
O122 Co112 2.021 . S
O122 C119 1.238 . S
O123 Co117 2.052 . S
O123 C119 1.241 . S
O124 Co112 2.137 . S
O124 C115 1.247 . S
O125 Co112 2.244 . S
O125 C115 1.272 . S
O125 Co117 2.135 . S
Co126 O127 2.216 . S
Co126 O128 2.091 . S
Co126 O130 2.004 . S
Co126 O136 2.021 . S
Co126 O138 2.137 . S
Co126 O139 2.244 . S
O127 Co126 2.216 . S
O127 C134 1.247 . S
O128 Co126 2.091 . S
O128 C134 1.261 . S
C129 O138 1.247 . S
C129 O139 1.272 . S
O130 Co126 2.004 . S
O130 C135 1.259 . S
Co131 O132 2.061 . S
Co131 O137 2.052 . S
Co131 O139 2.135 . S
O132 Co131 2.061 . S
O132 C135 1.235 . S
C133 O136 1.238 . S
C133 O137 1.241 . S
C134 O127 1.247 . S
C134 O128 1.261 . S
C135 O130 1.259 . S
C135 O132 1.235 . S
O136 Co126 2.021 . S
O136 C133 1.238 . S
O137 Co131 2.052 . S
O137 C133 1.241 . S
O138 Co126 2.137 . S
O138 C129 1.247 . S
O139 Co126 2.244 . S
O139 C129 1.272 . S
O139 Co131 2.135 . S
Co140 O141 2.216 . S
Co140 O142 2.091 . S
Co140 O144 2.004 . S
Co140 O150 2.021 . S
Co140 O152 2.137 . S
Co140 O153 2.244 . S
O141 Co140 2.216 . S
O141 C148 1.247 . S
O142 Co140 2.091 . S
O142 C148 1.261 . S
C143 O152 1.247 . S
C143 O153 1.272 . S
O144 Co140 2.004 . S
O144 C149 1.259 . S
Co145 O146 2.061 . S
Co145 O151 2.052 . S
Co145 O153 2.135 . S
O146 Co145 2.061 . S
O146 C149 1.235 . S
C147 O150 1.238 . S
C147 O151 1.241 . S
C148 O141 1.247 . S
C148 O142 1.261 . S
C149 O144 1.259 . S
C149 O146 1.235 . S
O150 Co140 2.021 . S
O150 C147 1.238 . S
O151 Co145 2.052 . S
O151 C147 1.241 . S
O152 Co140 2.137 . S
O152 C143 1.247 . S
O153 Co140 2.244 . S
O153 C143 1.272 . S
O153 Co145 2.135 . S
Co154 O155 2.216 . S
Co154 O156 2.091 . S
Co154 O158 2.004 . S
Co154 O164 2.021 . S
Co154 O166 2.137 . S
Co154 O167 2.244 . S
O155 Co154 2.216 . S
O155 C162 1.247 . S
O156 Co154 2.091 . S
O156 C162 1.261 . S
C157 O166 1.247 . S
C157 O167 1.272 . S
O158 Co154 2.004 . S
O158 C163 1.259 . S
Co159 O160 2.061 . S
Co159 O165 2.052 . S
Co159 O167 2.135 . S
O160 Co159 2.061 . S
O160 C163 1.235 . S
C161 O164 1.238 . S
C161 O165 1.241 . S
C162 O155 1.247 . S
C162 O156 1.261 . S
C163 O158 1.259 . S
C163 O160 1.235 . S
O164 Co154 2.021 . S
O164 C161 1.238 . S
O165 Co159 2.052 . S
O165 C161 1.241 . S
O166 Co154 2.137 . S
O166 C157 1.247 . S
O167 Co154 2.244 . S
O167 C157 1.272 . S
O167 Co159 2.135 . S
Co168 O169 2.216 . S
Co168 O170 2.091 . S
Co168 O172 2.004 . S
Co168 O178 2.021 . S
Co168 O180 2.137 . S
Co168 O181 2.244 . S
O169 Co168 2.216 . S
O169 C176 1.247 . S
O170 Co168 2.091 . S
O170 C176 1.261 . S
C171 O180 1.247 . S
C171 O181 1.272 . S
O172 Co168 2.004 . S
O172 C177 1.259 . S
Co173 O174 2.061 . S
Co173 O179 2.052 . S
Co173 O181 2.135 . S
O174 Co173 2.061 . S
O174 C177 1.235 . S
C175 O178 1.238 . S
C175 O179 1.241 . S
C176 O169 1.247 . S
C176 O170 1.261 . S
C177 O172 1.259 . S
C177 O174 1.235 . S
O178 Co168 2.021 . S
O178 C175 1.238 . S
O179 Co173 2.052 . S
O179 C175 1.241 . S
O180 Co168 2.137 . S
O180 C171 1.247 . S
O181 Co168 2.244 . S
O181 C171 1.272 . S
O181 Co173 2.135 . S
Co182 O183 2.216 . S
Co182 O184 2.091 . S
Co182 O186 2.004 . S
Co182 O192 2.021 . S
Co182 O194 2.137 . S
Co182 O195 2.244 . S
O183 Co182 2.216 . S
O183 C190 1.247 . S
O184 Co182 2.091 . S
O184 C190 1.261 . S
C185 O194 1.247 . S
C185 O195 1.272 . S
O186 Co182 2.004 . S
O186 C191 1.259 . S
Co187 O188 2.061 . S
Co187 O193 2.052 . S
Co187 O195 2.135 . S
O188 Co187 2.061 . S
O188 C191 1.235 . S
C189 O192 1.238 . S
C189 O193 1.241 . S
C190 O183 1.247 . S
C190 O184 1.261 . S
C191 O186 1.259 . S
C191 O188 1.235 . S
O192 Co182 2.021 . S
O192 C189 1.238 . S
O193 Co187 2.052 . S
O193 C189 1.241 . S
O194 Co182 2.137 . S
O194 C185 1.247 . S
O195 Co182 2.244 . S
O195 C185 1.272 . S
O195 Co187 2.135 . S
Co196 O197 2.216 . S
Co196 O198 2.091 . S
Co196 O200 2.004 . S
Co196 O206 2.021 . S
Co196 O208 2.137 . S
Co196 O209 2.244 . S
O197 Co196 2.216 . S
O197 C204 1.247 . S
O198 Co196 2.091 . S
O198 C204 1.261 . S
C199 O208 1.247 . S
C199 O209 1.272 . S
O200 Co196 2.004 . S
O200 C205 1.259 . S
Co201 O202 2.061 . S
Co201 O207 2.052 . S
Co201 O209 2.135 . S
O202 Co201 2.061 . S
O202 C205 1.235 . S
C203 O206 1.238 . S
C203 O207 1.241 . S
C204 O197 1.247 . S
C204 O198 1.261 . S
C205 O200 1.259 . S
C205 O202 1.235 . S
O206 Co196 2.021 . S
O206 C203 1.238 . S
O207 Co201 2.052 . S
O207 C203 1.241 . S
O208 Co196 2.137 . S
O208 C199 1.247 . S
O209 Co196 2.244 . S
O209 C199 1.272 . S
O209 Co201 2.135 . S
Co210 O211 2.216 . S
Co210 O212 2.091 . S
Co210 O214 2.004 . S
Co210 O220 2.021 . S
Co210 O222 2.137 . S
Co210 O223 2.244 . S
O211 Co210 2.216 . S
O211 C218 1.247 . S
O212 Co210 2.091 . S
O212 C218 1.261 . S
C213 O222 1.247 . S
C213 O223 1.272 . S
O214 Co210 2.004 . S
O214 C219 1.259 . S
Co215 O216 2.061 . S
Co215 O221 2.052 . S
Co215 O223 2.135 . S
O216 Co215 2.061 . S
O216 C219 1.235 . S
C217 O220 1.238 . S
C217 O221 1.241 . S
C218 O211 1.247 . S
C218 O212 1.261 . S
C219 O214 1.259 . S
C219 O216 1.235 . S
O220 Co210 2.021 . S
O220 C217 1.238 . S
O221 Co215 2.052 . S
O221 C217 1.241 . S
O222 Co210 2.137 . S
O222 C213 1.247 . S
O223 Co210 2.244 . S
O223 C213 1.272 . S
O223 Co215 2.135 . S
Co224 O225 2.216 . S
Co224 O226 2.091 . S
Co224 O228 2.004 . S
Co224 O234 2.021 . S
Co224 O236 2.137 . S
Co224 O237 2.244 . S
O225 Co224 2.216 . S
O225 C232 1.247 . S
O226 Co224 2.091 . S
O226 C232 1.261 . S
C227 O236 1.247 . S
C227 O237 1.272 . S
O228 Co224 2.004 . S
O228 C233 1.259 . S
Co229 O230 2.061 . S
Co229 O235 2.052 . S
Co229 O237 2.135 . S
O230 Co229 2.061 . S
O230 C233 1.235 . S
C231 O234 1.238 . S
C231 O235 1.241 . S
C232 O225 1.247 . S
C232 O226 1.261 . S
C233 O228 1.259 . S
C233 O230 1.235 . S
O234 Co224 2.021 . S
O234 C231 1.238 . S
O235 Co229 2.052 . S
O235 C231 1.241 . S
O236 Co224 2.137 . S
O236 C227 1.247 . S
O237 Co224 2.244 . S
O237 C227 1.272 . S
O237 Co229 2.135 . S
Co238 O239 2.216 . S
Co238 O240 2.091 . S
Co238 O242 2.004 . S
Co238 O248 2.021 . S
Co238 O250 2.137 . S
Co238 O251 2.244 . S
O239 Co238 2.216 . S
O239 C246 1.247 . S
O240 Co238 2.091 . S
O240 C246 1.261 . S
C241 O250 1.247 . S
C241 O251 1.272 . S
O242 Co238 2.004 . S
O242 C247 1.259 . S
Co243 O244 2.061 . S
Co243 O249 2.052 . S
Co243 O251 2.135 . S
O244 Co243 2.061 . S
O244 C247 1.235 . S
C245 O248 1.238 . S
C245 O249 1.241 . S
C246 O239 1.247 . S
C246 O240 1.261 . S
C247 O242 1.259 . S
C247 O244 1.235 . S
O248 Co238 2.021 . S
O248 C245 1.238 . S
O249 Co243 2.052 . S
O249 C245 1.241 . S
O250 Co238 2.137 . S
O250 C241 1.247 . S
O251 Co238 2.244 . S
O251 C241 1.272 . S
O251 Co243 2.135 . S
H252 C258 0.930 . S
H253 C261 0.930 . S
H254 C262 0.930 . S
H255 C263 0.930 . S
H256 C266 0.930 1_556 S
H257 C267 0.930 . S
C258 H252 0.930 . S
C258 C259 1.355 . S
C258 C260 1.415 . S
C259 C258 1.355 . S
C259 C261 1.419 . S
C260 C258 1.415 . S
C260 C265 1.425 . S
C260 C267 1.409 . S
C261 H253 0.930 . S
C261 C259 1.419 . S
C261 C262 1.362 . S
C262 H254 0.930 . S
C262 C261 1.362 . S
C262 C265 1.409 . S
C263 H255 0.930 . S
C263 C264 1.355 . S
C263 C265 1.415 . S
C264 C263 1.355 . S
C264 C266 1.419 . S
C265 C260 1.425 . S
C265 C262 1.409 . S
C265 C263 1.415 . S
C266 H256 0.930 1_554 S
C266 C264 1.419 . S
C266 C267 1.362 . S
C267 H257 0.930 . S
C267 C260 1.409 . S
C267 C266 1.362 . S
H268 C274 0.930 . S
H269 C277 0.930 . S
H270 C278 0.930 . S
H271 C279 0.930 . S
H272 C282 0.930 . S
H273 C283 0.930 . S
C274 H268 0.930 . S
C274 C275 1.355 . S
C274 C276 1.415 . S
C275 C274 1.355 . S
C275 C277 1.419 . S
C276 C274 1.415 . S
C276 C281 1.425 . S
C276 C283 1.409 . S
C277 H269 0.930 . S
C277 C275 1.419 . S
C277 C278 1.362 . S
C278 H270 0.930 . S
C278 C277 1.362 . S
C278 C281 1.409 . S
C279 H271 0.930 . S
C279 C280 1.355 . S
C279 C281 1.415 . S
C280 C279 1.355 . S
C280 C282 1.419 . S
C281 C276 1.425 . S
C281 C278 1.409 . S
C281 C279 1.415 . S
C282 H272 0.930 . S
C282 C280 1.419 . S
C282 C283 1.362 . S
C283 H273 0.930 . S
C283 C276 1.409 . S
C283 C282 1.362 . S
H284 C290 0.930 . S
H285 C293 0.930 . S
H286 C294 0.930 . S
H287 C295 0.930 . S
H288 C298 0.930 . S
H289 C299 0.930 . S
C290 H284 0.930 . S
C290 C291 1.355 . S
C290 C292 1.415 . S
C291 C290 1.355 . S
C291 C293 1.419 1_565 S
C292 C290 1.415 . S
C292 C297 1.425 . S
C292 C299 1.409 . S
C293 H285 0.930 . S
C293 C291 1.419 1_545 S
C293 C294 1.362 . S
C294 H286 0.930 . S
C294 C293 1.362 . S
C294 C297 1.409 1_545 S
C295 H287 0.930 . S
C295 C296 1.355 . S
C295 C297 1.415 . S
C296 C295 1.355 . S
C296 C298 1.419 . S
C297 C292 1.425 . S
C297 C294 1.409 1_565 S
C297 C295 1.415 . S
C298 H288 0.930 . S
C298 C296 1.419 . S
C298 C299 1.362 . S
C299 H289 0.930 . S
C299 C292 1.409 . S
C299 C298 1.362 . S
H300 C306 0.930 . S
H301 C309 0.930 . S
H302 C310 0.930 . S
H303 C311 0.930 . S
H304 C314 0.930 . S
H305 C315 0.930 . S
C306 H300 0.930 . S
C306 C307 1.355 . S
C306 C308 1.415 . S
C307 C306 1.355 . S
C307 C309 1.419 . S
C308 C306 1.415 . S
C308 C313 1.425 . S
C308 C315 1.409 . S
C309 H301 0.930 . S
C309 C307 1.419 . S
C309 C310 1.362 . S
C310 H302 0.930 . S
C310 C309 1.362 . S
C310 C313 1.409 . S
C311 H303 0.930 . S
C311 C312 1.355 . S
C311 C313 1.415 . S
C312 C311 1.355 . S
C312 C314 1.419 . S
C313 C308 1.425 . S
C313 C310 1.409 . S
C313 C311 1.415 . S
C314 H304 0.930 . S
C314 C312 1.419 . S
C314 C315 1.362 . S
C315 H305 0.930 . S
C315 C308 1.409 . S
C315 C314 1.362 . S
H316 C322 0.930 1_455 S
H317 C325 0.930 . S
H318 C326 0.930 . S
H319 C327 0.930 . S
H320 C330 0.930 . S
H321 C331 0.930 . S
C322 H316 0.930 1_655 S
C322 C323 1.355 . S
C322 C324 1.415 . S
C323 C322 1.355 . S
C323 C325 1.419 . S
C324 C322 1.415 . S
C324 C329 1.425 . S
C324 C331 1.409 1_655 S
C325 H317 0.930 . S
C325 C323 1.419 . S
C325 C326 1.362 . S
C326 H318 0.930 . S
C326 C325 1.362 . S
C326 C329 1.409 . S
C327 H319 0.930 . S
C327 C328 1.355 . S
C327 C329 1.415 . S
C328 C327 1.355 . S
C328 C330 1.419 1_655 S
C329 C324 1.425 . S
C329 C326 1.409 . S
C329 C327 1.415 . S
C330 H320 0.930 . S
C330 C328 1.419 1_455 S
C330 C331 1.362 . S
C331 H321 0.930 . S
C331 C324 1.409 1_455 S
C331 C330 1.362 . S
H332 C338 0.930 . S
H333 C341 0.930 . S
H334 C342 0.930 . S
H335 C343 0.930 . S
H336 C346 0.930 . S
H337 C347 0.930 . S
C338 H332 0.930 . S
C338 C339 1.355 . S
C338 C340 1.415 . S
C339 C338 1.355 . S
C339 C341 1.419 . S
C340 C338 1.415 . S
C340 C345 1.425 . S
C340 C347 1.409 . S
C341 H333 0.930 . S
C341 C339 1.419 . S
C341 C342 1.362 . S
C342 H334 0.930 . S
C342 C341 1.362 . S
C342 C345 1.409 . S
C343 H335 0.930 . S
C343 C344 1.355 . S
C343 C345 1.415 . S
C344 C343 1.355 . S
C344 C346 1.419 . S
C345 C340 1.425 . S
C345 C342 1.409 . S
C345 C343 1.415 . S
C346 H336 0.930 . S
C346 C344 1.419 . S
C346 C347 1.362 . S
C347 H337 0.930 . S
C347 C340 1.409 . S
C347 C346 1.362 . S
H348 C354 0.930 . S
H349 C357 0.930 . S
H350 C358 0.930 . S
H351 C359 0.930 . S
H352 C362 0.930 1_554 S
H353 C363 0.930 . S
C354 H348 0.930 . S
C354 C355 1.355 . S
C354 C356 1.415 . S
C355 C354 1.355 . S
C355 C357 1.419 . S
C356 C354 1.415 . S
C356 C361 1.425 . S
C356 C363 1.409 . S
C357 H349 0.930 . S
C357 C355 1.419 . S
C357 C358 1.362 . S
C358 H350 0.930 . S
C358 C357 1.362 . S
C358 C361 1.409 . S
C359 H351 0.930 . S
C359 C360 1.355 . S
C359 C361 1.415 . S
C360 C359 1.355 . S
C360 C362 1.419 . S
C361 C356 1.425 . S
C361 C358 1.409 . S
C361 C359 1.415 . S
C362 H352 0.930 1_556 S
C362 C360 1.419 . S
C362 C363 1.362 . S
C363 H353 0.930 . S
C363 C356 1.409 . S
C363 C362 1.362 . S
H364 C370 0.930 . S
H365 C373 0.930 . S
H366 C374 0.930 . S
H367 C375 0.930 . S
H368 C378 0.930 . S
H369 C379 0.930 . S
C370 H364 0.930 . S
C370 C371 1.355 . S
C370 C372 1.415 . S
C371 C370 1.355 . S
C371 C373 1.419 . S
C372 C370 1.415 . S
C372 C377 1.425 . S
C372 C379 1.409 . S
C373 H365 0.930 . S
C373 C371 1.419 . S
C373 C374 1.362 . S
C374 H366 0.930 . S
C374 C373 1.362 . S
C374 C377 1.409 . S
C375 H367 0.930 . S
C375 C376 1.355 . S
C375 C377 1.415 . S
C376 C375 1.355 . S
C376 C378 1.419 . S
C377 C372 1.425 . S
C377 C374 1.409 . S
C377 C375 1.415 . S
C378 H368 0.930 . S
C378 C376 1.419 . S
C378 C379 1.362 . S
C379 H369 0.930 . S
C379 C372 1.409 . S
C379 C378 1.362 . S
H380 C386 0.930 . S
H381 C389 0.930 . S
H382 C390 0.930 . S
H383 C391 0.930 . S
H384 C394 0.930 1_565 S
H385 C395 0.930 1_565 S
C386 H380 0.930 . S
C386 C387 1.355 . S
C386 C388 1.415 . S
C387 C386 1.355 . S
C387 C389 1.419 . S
C388 C386 1.415 . S
C388 C393 1.425 . S
C388 C395 1.409 . S
C389 H381 0.930 . S
C389 C387 1.419 . S
C389 C390 1.362 . S
C390 H382 0.930 . S
C390 C389 1.362 . S
C390 C393 1.409 . S
C391 H383 0.930 . S
C391 C392 1.355 . S
C391 C393 1.415 . S
C392 C391 1.355 . S
C392 C394 1.419 . S
C393 C388 1.425 . S
C393 C390 1.409 . S
C393 C391 1.415 . S
C394 H384 0.930 1_545 S
C394 C392 1.419 . S
C394 C395 1.362 . S
C395 H385 0.930 1_545 S
C395 C388 1.409 . S
C395 C394 1.362 . S
H396 C402 0.930 . S
H397 C405 0.930 . S
H398 C406 0.930 . S
H399 C407 0.930 . S
H400 C410 0.930 . S
H401 C411 0.930 . S
C402 H396 0.930 . S
C402 C403 1.355 . S
C402 C404 1.415 . S
C403 C402 1.355 . S
C403 C405 1.419 . S
C404 C402 1.415 . S
C404 C409 1.425 . S
C404 C411 1.409 . S
C405 H397 0.930 . S
C405 C403 1.419 . S
C405 C406 1.362 . S
C406 H398 0.930 . S
C406 C405 1.362 . S
C406 C409 1.409 . S
C407 H399 0.930 . S
C407 C408 1.355 . S
C407 C409 1.415 . S
C408 C407 1.355 . S
C408 C410 1.419 . S
C409 C404 1.425 . S
C409 C406 1.409 . S
C409 C407 1.415 . S
C410 H400 0.930 . S
C410 C408 1.419 . S
C410 C411 1.362 . S
C411 H401 0.930 . S
C411 C404 1.409 . S
C411 C410 1.362 . S
H412 C418 0.930 . S
H413 C421 0.930 . S
H414 C422 0.930 . S
H415 C423 0.930 . S
H416 C426 0.930 . S
H417 C427 0.930 . S
C418 H412 0.930 . S
C418 C419 1.355 . S
C418 C420 1.415 . S
C419 C418 1.355 . S
C419 C421 1.419 . S
C420 C418 1.415 . S
C420 C425 1.425 . S
C420 C427 1.409 . S
C421 H413 0.930 . S
C421 C419 1.419 . S
C421 C422 1.362 . S
C422 H414 0.930 . S
C422 C421 1.362 . S
C422 C425 1.409 . S
C423 H415 0.930 . S
C423 C424 1.355 . S
C423 C425 1.415 . S
C424 C423 1.355 . S
C424 C426 1.419 . S
C425 C420 1.425 . S
C425 C422 1.409 . S
C425 C423 1.415 . S
C426 H416 0.930 . S
C426 C424 1.419 . S
C426 C427 1.362 . S
C427 H417 0.930 . S
C427 C420 1.409 . S
C427 C426 1.362 . S
H428 C434 0.930 . S
H429 C437 0.930 . S
H430 C438 0.930 . S
H431 C439 0.930 . S
H432 C442 0.930 . S
H433 C443 0.930 . S
C434 H428 0.930 . S
C434 C435 1.355 . S
C434 C436 1.415 . S
C435 C434 1.355 . S
C435 C437 1.419 . S
C436 C434 1.415 . S
C436 C441 1.425 . S
C436 C443 1.409 . S
C437 H429 0.930 . S
C437 C435 1.419 . S
C437 C438 1.362 . S
C438 H430 0.930 . S
C438 C437 1.362 . S
C438 C441 1.409 . S
C439 H431 0.930 . S
C439 C440 1.355 . S
C439 C441 1.415 . S
C440 C439 1.355 . S
C440 C442 1.419 . S
C441 C436 1.425 . S
C441 C438 1.409 . S
C441 C439 1.415 . S
C442 H432 0.930 . S
C442 C440 1.419 . S
C442 C443 1.362 . S
C443 H433 0.930 . S
C443 C436 1.409 . S
C443 C442 1.362 . S
H444 C450 0.930 . S
H445 C453 0.930 . S
H446 C454 0.930 . S
H447 C455 0.930 . S
H448 C458 0.930 . S
H449 C459 0.930 . S
C450 H444 0.930 . S
C450 C451 1.355 . S
C450 C452 1.415 . S
C451 C450 1.355 . S
C451 C453 1.419 . S
C452 C450 1.415 . S
C452 C457 1.425 . S
C452 C459 1.409 . S
C453 H445 0.930 . S
C453 C451 1.419 . S
C453 C454 1.362 . S
C454 H446 0.930 . S
C454 C453 1.362 . S
C454 C457 1.409 . S
C455 H447 0.930 . S
C455 C456 1.355 . S
C455 C457 1.415 . S
C456 C455 1.355 . S
C456 C458 1.419 . S
C457 C452 1.425 . S
C457 C454 1.409 . S
C457 C455 1.415 . S
C458 H448 0.930 . S
C458 C456 1.419 . S
C458 C459 1.362 . S
C459 H449 0.930 . S
C459 C452 1.409 . S
C459 C458 1.362 . S
H460 C466 0.930 1_565 S
H461 C469 0.930 . S
H462 C470 0.930 . S
H463 C471 0.930 . S
H464 C474 0.930 . S
H465 C475 0.930 . S
C466 H460 0.930 1_545 S
C466 C467 1.355 . S
C466 C468 1.415 1_545 S
C467 C466 1.355 . S
C467 C469 1.419 . S
C468 C466 1.415 1_565 S
C468 C473 1.425 1_565 S
C468 C475 1.409 . S
C469 H461 0.930 . S
C469 C467 1.419 . S
C469 C470 1.362 . S
C470 H462 0.930 . S
C470 C469 1.362 . S
C470 C473 1.409 . S
C471 H463 0.930 . S
C471 C472 1.355 1_545 S
C471 C473 1.415 . S
C472 C471 1.355 1_565 S
C472 C474 1.419 . S
C473 C468 1.425 1_545 S
C473 C470 1.409 . S
C473 C471 1.415 . S
C474 H464 0.930 . S
C474 C472 1.419 . S
C474 C475 1.362 . S
C475 H465 0.930 . S
C475 C468 1.409 . S
C475 C474 1.362 . S
H476 C482 0.930 . S
H477 C485 0.942 . S
H478 C486 0.930 . S
H479 C487 0.930 . S
H480 C490 0.930 . S
H481 C491 0.930 . S
C482 H476 0.930 . S
C482 C483 1.355 . S
C482 C484 1.415 . S
C483 C482 1.355 . S
C483 C485 1.419 . S
C484 C482 1.415 . S
C484 C489 1.445 . S
C484 C491 1.409 . S
C485 H477 0.942 . S
C485 C483 1.419 . S
C485 C486 1.362 1_455 S
C486 H478 0.930 . S
C486 C485 1.362 1_655 S
C486 C489 1.401 1_655 S
C487 H479 0.930 . S
C487 C488 1.355 . S
C487 C489 1.404 1_655 S
C488 C487 1.355 . S
C488 C490 1.419 1_655 S
C489 C484 1.445 . S
C489 C486 1.401 1_455 S
C489 C487 1.404 1_455 S
C490 H480 0.930 . S
C490 C488 1.419 1_455 S
C490 C491 1.362 . S
C491 H481 0.930 . S
C491 C484 1.409 . S
C491 C490 1.362 . S
H492 C498 0.930 . S
H493 C501 0.930 . S
H494 C502 0.930 . S
H495 C503 0.930 . S
H496 C506 0.930 . S
H497 C507 0.930 . S
C498 H492 0.930 . S
C498 C499 1.355 . S
C498 C500 1.415 . S
C499 C498 1.355 . S
C499 C501 1.419 . S
C500 C498 1.415 . S
C500 C505 1.425 . S
C500 C507 1.409 . S
C501 H493 0.930 . S
C501 C499 1.419 . S
C501 C502 1.362 . S
C502 H494 0.930 . S
C502 C501 1.362 . S
C502 C505 1.409 . S
C503 H495 0.930 . S
C503 C504 1.355 . S
C503 C505 1.415 . S
C504 C503 1.355 . S
C504 C506 1.419 . S
C505 C500 1.425 . S
C505 C502 1.409 . S
C505 C503 1.415 . S
C506 H496 0.930 . S
C506 C504 1.419 . S
C506 C507 1.362 . S
C507 H497 0.930 . S
C507 C500 1.409 . S
C507 C506 1.362 . S
H508 C514 0.930 1_565 S
H509 C517 0.930 . S
H510 C518 0.930 . S
H511 C519 0.930 . S
H512 C522 0.930 . S
H513 C523 0.930 . S
C514 H508 0.930 1_545 S
C514 C515 1.355 . S
C514 C516 1.415 1_545 S
C515 C514 1.355 . S
C515 C517 1.419 . S
C516 C514 1.415 1_565 S
C516 C521 1.425 1_565 S
C516 C523 1.409 . S
C517 H509 0.930 . S
C517 C515 1.419 . S
C517 C518 1.362 . S
C518 H510 0.930 . S
C518 C517 1.362 . S
C518 C521 1.409 . S
C519 H511 0.930 . S
C519 C520 1.355 1_545 S
C519 C521 1.415 . S
C520 C519 1.355 1_565 S
C520 C522 1.419 . S
C521 C516 1.425 1_545 S
C521 C518 1.409 . S
C521 C519 1.415 . S
C522 H512 0.930 . S
C522 C520 1.419 . S
C522 C523 1.362 . S
C523 H513 0.930 . S
C523 C516 1.409 . S
C523 C522 1.362 . S
H524 C530 0.930 . S
H525 C533 0.919 1_655 S
H526 C534 0.930 . S
H527 C535 0.930 . S
H528 C538 0.930 . S
H529 C539 0.930 . S
C530 H524 0.930 . S
C530 C531 1.355 . S
C530 C532 1.415 . S
C531 C530 1.355 . S
C531 C533 1.448 . S
C532 C530 1.415 . S
C532 C537 1.425 1_455 S
C532 C539 1.409 . S
C533 H525 0.919 1_455 S
C533 C531 1.448 . S
C533 C534 1.345 1_455 S
C534 H526 0.930 . S
C534 C533 1.345 1_655 S
C534 C537 1.409 . S
C535 H527 0.930 . S
C535 C536 1.355 . S
C535 C537 1.415 . S
C536 C535 1.355 . S
C536 C538 1.419 1_655 S
C537 C532 1.425 1_655 S
C537 C534 1.409 . S
C537 C535 1.415 . S
C538 H528 0.930 . S
C538 C536 1.419 1_455 S
C538 C539 1.362 . S
C539 H529 0.930 . S
C539 C532 1.409 . S
C539 C538 1.362 . S
H540 C546 0.930 . S
H541 C549 0.930 . S
H542 C550 0.930 . S
H543 C551 0.930 . S
H544 C554 0.930 . S
H545 C555 0.930 . S
C546 H540 0.930 . S
C546 C547 1.355 . S
C546 C548 1.415 . S
C547 C546 1.355 . S
C547 C549 1.419 . S
C548 C546 1.415 . S
C548 C553 1.425 . S
C548 C555 1.409 . S
C549 H541 0.930 . S
C549 C547 1.419 . S
C549 C550 1.362 . S
C550 H542 0.930 . S
C550 C549 1.362 . S
C550 C553 1.409 . S
C551 H543 0.930 . S
C551 C552 1.355 . S
C551 C553 1.415 . S
C552 C551 1.355 . S
C552 C554 1.419 . S
C553 C548 1.425 . S
C553 C550 1.409 . S
C553 C551 1.415 . S
C554 H544 0.930 . S
C554 C552 1.419 . S
C554 C555 1.362 . S
C555 H545 0.930 . S
C555 C548 1.409 . S
C555 C554 1.362 . S
H556 C562 0.930 . S
H557 C565 0.930 . S
H558 C566 0.930 . S
H559 C567 0.930 . S
H560 C570 0.930 . S
H561 C571 0.930 . S
C562 H556 0.930 . S
C562 C563 1.355 . S
C562 C564 1.415 . S
C563 C562 1.355 . S
C563 C565 1.419 . S
C564 C562 1.415 . S
C564 C569 1.425 . S
C564 C571 1.409 . S
C565 H557 0.930 . S
C565 C563 1.419 . S
C565 C566 1.362 . S
C566 H558 0.930 . S
C566 C565 1.362 . S
C566 C569 1.409 . S
C567 H559 0.930 . S
C567 C568 1.355 . S
C567 C569 1.415 . S
C568 C567 1.355 . S
C568 C570 1.419 . S
C569 C564 1.425 . S
C569 C566 1.409 . S
C569 C567 1.415 . S
C570 H560 0.930 . S
C570 C568 1.419 . S
C570 C571 1.362 . S
C571 H561 0.930 . S
C571 C564 1.409 . S
C571 C570 1.362 . S
H572 C578 0.930 . S
H573 C581 0.930 . S
H574 C582 0.930 . S
H575 C583 0.930 . S
H576 C586 0.930 . S
H577 C587 0.930 . S
C578 H572 0.930 . S
C578 C579 1.355 . S
C578 C580 1.415 . S
C579 C578 1.355 . S
C579 C581 1.419 . S
C580 C578 1.415 . S
C580 C585 1.425 . S
C580 C587 1.409 . S
C581 H573 0.930 . S
C581 C579 1.419 . S
C581 C582 1.362 . S
C582 H574 0.930 . S
C582 C581 1.362 . S
C582 C585 1.409 . S
C583 H575 0.930 . S
C583 C584 1.355 . S
C583 C585 1.415 . S
C584 C583 1.355 . S
C584 C586 1.419 . S
C585 C580 1.425 . S
C585 C582 1.409 . S
C585 C583 1.415 . S
C586 H576 0.930 . S
C586 C584 1.419 . S
C586 C587 1.362 . S
C587 H577 0.930 . S
C587 C580 1.409 . S
C587 C586 1.362 . S
H588 C594 0.930 . S
H589 C597 0.930 . S
H590 C598 0.930 . S
H591 C599 0.930 . S
H592 C602 0.930 . S
H593 C603 0.930 . S
C594 H588 0.930 . S
C594 C595 1.355 . S
C594 C596 1.415 . S
C595 C594 1.355 . S
C595 C597 1.419 . S
C596 C594 1.415 . S
C596 C601 1.425 . S
C596 C603 1.409 . S
C597 H589 0.930 . S
C597 C595 1.419 . S
C597 C598 1.362 . S
C598 H590 0.930 . S
C598 C597 1.362 . S
C598 C601 1.409 . S
C599 H591 0.930 . S
C599 C600 1.355 . S
C599 C601 1.415 . S
C600 C599 1.355 . S
C600 C602 1.419 . S
C601 C596 1.425 . S
C601 C598 1.409 . S
C601 C599 1.415 . S
C602 H592 0.930 . S
C602 C600 1.419 . S
C602 C603 1.362 . S
C603 H593 0.930 . S
C603 C596 1.409 . S
C603 C602 1.362 . S
H604 C610 0.930 . S
H605 C613 0.930 . S
H606 C614 0.930 . S
H607 C615 0.930 . S
H608 C618 0.930 . S
H609 C619 0.930 . S
C610 H604 0.930 . S
C610 C611 1.355 . S
C610 C612 1.415 . S
C611 C610 1.355 . S
C611 C613 1.419 . S
C612 C610 1.415 . S
C612 C617 1.425 . S
C612 C619 1.409 . S
C613 H605 0.930 . S
C613 C611 1.419 . S
C613 C614 1.362 . S
C614 H606 0.930 . S
C614 C613 1.362 . S
C614 C617 1.409 . S
C615 H607 0.930 . S
C615 C616 1.355 . S
C615 C617 1.415 . S
C616 C615 1.355 . S
C616 C618 1.419 . S
C617 C612 1.425 . S
C617 C614 1.409 . S
C617 C615 1.415 . S
C618 H608 0.930 . S
C618 C616 1.419 . S
C618 C619 1.362 . S
C619 H609 0.930 . S
C619 C612 1.409 . S
C619 C618 1.362 . S
H620 C626 0.930 . S
H621 C629 0.930 . S
H622 C630 0.930 . S
H623 C631 0.930 . S
H624 C634 0.930 . S
H625 C635 0.930 . S
C626 H620 0.930 . S
C626 C627 1.355 . S
C626 C628 1.415 . S
C627 C626 1.355 . S
C627 C629 1.419 . S
C628 C626 1.415 . S
C628 C633 1.425 . S
C628 C635 1.409 . S
C629 H621 0.930 . S
C629 C627 1.419 . S
C629 C630 1.362 . S
C630 H622 0.930 . S
C630 C629 1.362 . S
C630 C633 1.409 . S
C631 H623 0.930 . S
C631 C632 1.355 . S
C631 C633 1.415 . S
C632 C631 1.355 . S
C632 C634 1.419 . S
C633 C628 1.425 . S
C633 C630 1.409 . S
C633 C631 1.415 . S
C634 H624 0.930 . S
C634 C632 1.419 . S
C634 C635 1.362 . S
C635 H625 0.930 . S
C635 C628 1.409 . S
C635 C634 1.362 . S
H636 C642 0.930 . S
H637 C645 0.930 . S
H638 C646 0.930 . S
H639 C647 0.930 . S
H640 C650 0.930 . S
H641 C651 0.930 . S
C642 H636 0.930 . S
C642 C643 1.355 . S
C642 C644 1.415 . S
C643 C642 1.355 . S
C643 C645 1.419 . S
C644 C642 1.415 . S
C644 C649 1.425 . S
C644 C651 1.409 . S
C645 H637 0.930 . S
C645 C643 1.419 . S
C645 C646 1.362 . S
C646 H638 0.930 . S
C646 C645 1.362 . S
C646 C649 1.409 . S
C647 H639 0.930 . S
C647 C648 1.355 . S
C647 C649 1.415 . S
C648 C647 1.355 . S
C648 C650 1.419 . S
C649 C644 1.425 . S
C649 C646 1.409 . S
C649 C647 1.415 . S
C650 H640 0.930 . S
C650 C648 1.419 . S
C650 C651 1.362 . S
C651 H641 0.930 . S
C651 C644 1.409 . S
C651 C650 1.362 . S
H652 C658 0.930 . S
H653 C661 0.930 . S
H654 C662 0.930 . S
H655 C663 0.930 . S
H656 C666 0.930 . S
H657 C667 0.930 . S
C658 H652 0.930 . S
C658 C659 1.355 . S
C658 C660 1.415 . S
C659 C658 1.355 . S
C659 C661 1.419 . S
C660 C658 1.415 . S
C660 C665 1.425 . S
C660 C667 1.409 . S
C661 H653 0.930 . S
C661 C659 1.419 . S
C661 C662 1.362 . S
C662 H654 0.930 . S
C662 C661 1.362 . S
C662 C665 1.409 . S
C663 H655 0.930 . S
C663 C664 1.355 . S
C663 C665 1.415 . S
C664 C663 1.355 . S
C664 C666 1.419 . S
C665 C660 1.425 . S
C665 C662 1.409 . S
C665 C663 1.415 . S
C666 H656 0.930 . S
C666 C664 1.419 . S
C666 C667 1.362 . S
C667 H657 0.930 . S
C667 C660 1.409 . S
C667 C666 1.362 . S
H668 C674 0.930 . S
H669 C677 0.930 . S
H670 C678 0.930 . S
H671 C679 0.930 . S
H672 C682 0.930 . S
H673 C683 0.930 . S
C674 H668 0.930 . S
C674 C675 1.355 . S
C674 C676 1.415 . S
C675 C674 1.355 . S
C675 C677 1.419 . S
C676 C674 1.415 . S
C676 C681 1.425 . S
C676 C683 1.409 . S
C677 H669 0.930 . S
C677 C675 1.419 . S
C677 C678 1.362 . S
C678 H670 0.930 . S
C678 C677 1.362 . S
C678 C681 1.409 . S
C679 H671 0.930 . S
C679 C680 1.355 . S
C679 C681 1.415 . S
C680 C679 1.355 . S
C680 C682 1.419 . S
C681 C676 1.425 . S
C681 C678 1.409 . S
C681 C679 1.415 . S
C682 H672 0.930 . S
C682 C680 1.419 . S
C682 C683 1.362 . S
C683 H673 0.930 . S
C683 C676 1.409 . S
C683 C682 1.362 . S
H684 C690 0.930 . S
H685 C693 0.930 . S
H686 C694 0.930 . S
H687 C695 0.930 . S
H688 C698 0.930 . S
H689 C699 0.930 . S
C690 H684 0.930 . S
C690 C691 1.355 . S
C690 C692 1.415 . S
C691 C690 1.355 . S
C691 C693 1.419 . S
C692 C690 1.415 . S
C692 C697 1.425 . S
C692 C699 1.409 . S
C693 H685 0.930 . S
C693 C691 1.419 . S
C693 C694 1.362 . S
C694 H686 0.930 . S
C694 C693 1.362 . S
C694 C697 1.409 . S
C695 H687 0.930 . S
C695 C696 1.355 . S
C695 C697 1.415 . S
C696 C695 1.355 . S
C696 C698 1.419 . S
C697 C692 1.425 . S
C697 C694 1.409 . S
C697 C695 1.415 . S
C698 H688 0.930 . S
C698 C696 1.419 . S
C698 C699 1.362 . S
C699 H689 0.930 . S
C699 C692 1.409 . S
C699 C698 1.362 . S
H700 C706 0.930 . S
H701 C709 0.930 . S
H702 C710 0.930 . S
H703 C711 0.930 . S
H704 C714 0.930 . S
H705 C715 0.930 . S
C706 H700 0.930 . S
C706 C707 1.355 . S
C706 C708 1.415 . S
C707 C706 1.355 . S
C707 C709 1.419 . S
C708 C706 1.415 . S
C708 C713 1.425 . S
C708 C715 1.409 . S
C709 H701 0.930 . S
C709 C707 1.419 . S
C709 C710 1.362 . S
C710 H702 0.930 . S
C710 C709 1.362 . S
C710 C713 1.409 . S
C711 H703 0.930 . S
C711 C712 1.355 . S
C711 C713 1.415 . S
C712 C711 1.355 . S
C712 C714 1.419 . S
C713 C708 1.425 . S
C713 C710 1.409 . S
C713 C711 1.415 . S
C714 H704 0.930 . S
C714 C712 1.419 . S
C714 C715 1.362 . S
C715 H705 0.930 . S
C715 C708 1.409 . S
C715 C714 1.362 . S
H716 C722 0.930 . S
H717 C725 0.930 . S
H718 C726 0.930 . S
H719 C727 0.930 . S
H720 C730 0.930 . S
H721 C731 0.930 . S
C722 H716 0.930 . S
C722 C723 1.355 . S
C722 C724 1.415 . S
C723 C722 1.355 . S
C723 C725 1.419 . S
C724 C722 1.415 . S
C724 C729 1.425 . S
C724 C731 1.409 . S
C725 H717 0.930 . S
C725 C723 1.419 . S
C725 C726 1.362 . S
C726 H718 0.930 . S
C726 C725 1.362 . S
C726 C729 1.409 . S
C727 H719 0.930 . S
C727 C728 1.355 . S
C727 C729 1.415 . S
C728 C727 1.355 . S
C728 C730 1.419 . S
C729 C724 1.425 . S
C729 C726 1.409 . S
C729 C727 1.415 . S
C730 H720 0.930 . S
C730 C728 1.419 . S
C730 C731 1.362 . S
C731 H721 0.930 . S
C731 C724 1.409 . S
C731 C730 1.362 . S
H732 C738 0.930 . S
H733 C741 0.930 . S
H734 C742 0.930 . S
H735 C743 0.930 . S
H736 C746 0.930 . S
H737 C747 0.930 . S
C738 H732 0.930 . S
C738 C739 1.355 . S
C738 C740 1.415 . S
C739 C738 1.355 . S
C739 C741 1.419 . S
C740 C738 1.415 . S
C740 C745 1.425 . S
C740 C747 1.409 . S
C741 H733 0.930 . S
C741 C739 1.419 . S
C741 C742 1.362 . S
C742 H734 0.930 . S
C742 C741 1.362 . S
C742 C745 1.409 . S
C743 H735 0.930 . S
C743 C744 1.355 . S
C743 C745 1.415 . S
C744 C743 1.355 . S
C744 C746 1.419 . S
C745 C740 1.425 . S
C745 C742 1.409 . S
C745 C743 1.415 . S
C746 H736 0.930 . S
C746 C744 1.419 . S
C746 C747 1.362 . S
C747 H737 0.930 . S
C747 C740 1.409 . S
C747 C746 1.362 . S
H748 C754 0.930 . S
H749 C757 0.930 . S
H750 C758 0.930 . S
H751 C759 0.930 . S
H752 C762 0.930 . S
H753 C763 0.930 . S
C754 H748 0.930 . S
C754 C755 1.355 . S
C754 C756 1.415 . S
C755 C754 1.355 . S
C755 C757 1.419 . S
C756 C754 1.415 . S
C756 C761 1.425 . S
C756 C763 1.409 1_545 S
C757 H749 0.930 . S
C757 C755 1.419 . S
C757 C758 1.362 . S
C758 H750 0.930 . S
C758 C757 1.362 . S
C758 C761 1.409 . S
C759 H751 0.930 . S
C759 C760 1.355 . S
C759 C761 1.415 1_565 S
C760 C759 1.355 . S
C760 C762 1.419 . S
C761 C756 1.425 . S
C761 C758 1.409 . S
C761 C759 1.415 1_545 S
C762 H752 0.930 . S
C762 C760 1.419 . S
C762 C763 1.362 . S
C763 H753 0.930 . S
C763 C756 1.409 1_565 S
C763 C762 1.362 . S
H764 C770 0.930 . S
H765 C773 0.930 . S
H766 C774 0.930 . S
H767 C775 0.930 . S
H768 C778 0.930 . S
H769 C779 0.929 . S
C770 H764 0.930 . S
C770 C771 1.355 . S
C770 C772 1.415 . S
C771 C770 1.355 . S
C771 C773 1.419 . S
C772 C770 1.415 . S
C772 C777 1.425 . S
C772 C779 1.409 1_455 S
C773 H765 0.930 . S
C773 C771 1.419 . S
C773 C774 1.362 . S
C774 H766 0.930 . S
C774 C773 1.362 . S
C774 C777 1.409 . S
C775 H767 0.930 . S
C775 C776 1.355 . S
C775 C777 1.415 1_655 S
C776 C775 1.355 . S
C776 C778 1.419 . S
C777 C772 1.425 . S
C777 C774 1.409 . S
C777 C775 1.415 1_455 S
C778 H768 0.930 . S
C778 C776 1.419 . S
C778 C779 1.362 . S
C779 H769 0.929 . S
C779 C772 1.409 1_655 S
C779 C778 1.362 . S
H780 C786 0.930 . S
H781 C789 0.930 . S
H782 C790 0.930 . S
H783 C791 0.930 . S
H784 C794 0.930 . S
H785 C795 0.930 . S
C786 H780 0.930 . S
C786 C787 1.355 1_554 S
C786 C788 1.415 . S
C787 C786 1.355 1_556 S
C787 C789 1.419 . S
C788 C786 1.415 . S
C788 C793 1.425 1_554 S
C788 C795 1.409 . S
C789 H781 0.930 . S
C789 C787 1.419 . S
C789 C790 1.362 . S
C790 H782 0.930 . S
C790 C789 1.362 . S
C790 C793 1.409 . S
C791 H783 0.930 . S
C791 C792 1.355 1_556 S
C791 C793 1.415 . S
C792 C791 1.355 1_554 S
C792 C794 1.419 . S
C793 C788 1.425 1_556 S
C793 C790 1.409 . S
C793 C791 1.415 . S
C794 H784 0.930 . S
C794 C792 1.419 . S
C794 C795 1.362 . S
C795 H785 0.930 . S
C795 C788 1.409 . S
C795 C794 1.362 . S
H796 C802 0.930 . S
H797 C805 0.930 . S
H798 C806 0.930 . S
H799 C807 0.930 . S
H800 C810 0.930 . S
H801 C811 0.930 . S
C802 H796 0.930 . S
C802 C803 1.355 . S
C802 C804 1.415 1_565 S
C803 C802 1.355 . S
C803 C805 1.419 1_556 S
C804 C802 1.415 1_545 S
C804 C809 1.425 1_556 S
C804 C811 1.409 . S
C805 H797 0.930 . S
C805 C803 1.419 1_554 S
C805 C806 1.362 . S
C806 H798 0.930 . S
C806 C805 1.362 . S
C806 C809 1.409 1_565 S
C807 H799 0.930 . S
C807 C808 1.355 . S
C807 C809 1.415 . S
C808 C807 1.355 . S
C808 C810 1.419 1_554 S
C809 C804 1.425 1_554 S
C809 C806 1.409 1_545 S
C809 C807 1.415 . S
C810 H800 0.930 . S
C810 C808 1.419 1_556 S
C810 C811 1.362 . S
C811 H801 0.930 . S
C811 C804 1.409 . S
C811 C810 1.362 . S
H812 C818 0.930 . S
H813 C821 0.930 . S
H814 C822 0.932 . S
H815 C823 0.930 . S
H816 C826 0.930 . S
H817 C827 0.930 . S
C818 H812 0.930 . S
C818 C819 1.355 . S
C818 C820 1.415 1_556 S
C819 C818 1.355 . S
C819 C821 1.419 . S
C820 C818 1.415 1_554 S
C820 C825 1.425 1_454 S
C820 C827 1.409 . S
C821 H813 0.930 . S
C821 C819 1.419 . S
C821 C822 1.361 1_455 S
C822 H814 0.932 . S
C822 C821 1.361 1_655 S
C822 C825 1.408 . S
C823 H815 0.930 . S
C823 C824 1.355 . S
C823 C825 1.415 1_554 S
C824 C823 1.355 . S
C824 C826 1.419 . S
C825 C820 1.425 1_656 S
C825 C822 1.408 . S
C825 C823 1.415 1_556 S
C826 H816 0.930 . S
C826 C824 1.419 . S
C826 C827 1.362 1_655 S
C827 H817 0.930 . S
C827 C820 1.409 . S
C827 C826 1.362 1_455 S
C259 C7 1.184 . S
C264 C203 1.178 1_554 S
C275 C171 1.152 1_554 S
C280 C17 1.155 . S
C291 C31 1.178 . S
C296 C189 1.199 1_554 S
C307 C91 1.168 . S
C312 C35 1.170 . S
C323 C105 1.166 . S
C328 C3 1.197 . S
C339 C119 1.208 . S
C344 C21 1.198 . S
C355 C49 1.173 . S
C360 C161 1.173 1_556 S
C371 C133 1.208 1_556 S
C376 C59 1.186 . S
C387 C147 1.178 1_556 S
C392 C73 1.194 . S
C403 C77 1.223 . S
C408 C217 1.222 . S
C419 C45 1.174 . S
C424 C227 1.179 . S
C435 C241 1.198 . S
C440 C63 1.154 . S
C451 C175 1.195 . S
C456 C115 1.174 . S
C467 C87 1.159 . S
C472 C185 1.165 . S
C483 C199 1.181 . S
C488 C101 1.176 . S
C499 C245 1.184 . S
C504 C129 1.174 . S
C515 C143 1.154 . S
C520 C213 1.154 . S
C531 C231 1.148 . S
C536 C157 1.194 . S
C547 C219 1.640 . S
C552 C9 1.637 . S
C563 C22 1.696 . S
C568 C232 1.699 . S
C579 C36 1.794 . S
C584 C246 1.797 . S
C595 C37 1.622 . S
C600 C163 1.619 . S
C611 C135 1.656 . S
C616 C8 1.785 . S
C627 C23 1.626 . S
C632 C149 1.627 . S
C643 C93 1.644 . S
C648 C51 1.648 . S
C659 C107 1.604 . S
C664 C64 1.729 . S
C675 C78 1.773 . S
C680 C121 1.620 . S
C691 C79 1.684 . S
C696 C205 1.687 . S
C707 C50 1.713 . S
C712 C176 1.715 . S
C723 C65 1.658 . S
C728 C191 1.661 . S
C739 C120 1.818 . S
C744 C247 1.693 . S
C755 C92 1.811 . S
C760 C218 1.808 . S
C771 C233 1.599 . S
C776 C106 1.722 . S
C787 C177 1.627 . S
C792 C134 1.747 . S
C803 C190 1.699 . S
C808 C148 1.702 . S
C819 C204 1.762 . S
C824 C162 1.761 . S
