# Generated by pormake.
# Topology uou, (4)-cn, num edge types: 1
# Building blocks:
#     Node 0, Type 0, BuildingBlock: AZAVOO_clean_sbu_0, # of connection points: 4
#     Node 1, Type 0, BuildingBlock: AZAVOO_clean_sbu_0, # of connection points: 4
#     Node 2, Type 0, BuildingBlock: AZAVOO_clean_sbu_0, # of connection points: 4
#     Node 3, Type 0, BuildingBlock: AZAVOO_clean_sbu_0, # of connection points: 4
#     Node 4, Type 0, BuildingBlock: AZAVOO_clean_sbu_0, # of connection points: 4
#     Node 5, Type 0, BuildingBlock: AZAVOO_clean_sbu_0, # of connection points: 4
#     Node 6, Type 0, BuildingBlock: AZAVOO_clean_sbu_0, # of connection points: 4
#     Node 7, Type 0, BuildingBlock: AZAVOO_clean_sbu_0, # of connection points: 4
#     Node 8, Type 0, BuildingBlock: AZAVOO_clean_sbu_0, # of connection points: 4
#     Node 9, Type 0, BuildingBlock: AZAVOO_clean_sbu_0, # of connection points: 4
#     Node 10, Type 0, BuildingBlock: AZAVOO_clean_sbu_0, # of connection points: 4
#     Node 11, Type 0, BuildingBlock: AZAVOO_clean_sbu_0, # of connection points: 4
#     Node 12, Type 0, BuildingBlock: AZAVOO_clean_sbu_0, # of connection points: 4
#     Node 13, Type 0, BuildingBlock: AZAVOO_clean_sbu_0, # of connection points: 4
#     Node 14, Type 0, BuildingBlock: AZAVOO_clean_sbu_0, # of connection points: 4
#     Node 15, Type 0, BuildingBlock: AZAVOO_clean_sbu_0, # of connection points: 4
#     Edge 16, Type (0, 0), BuildingBlock: UVAHIK_clean_linker_0, # of connection points: 2
#     Edge 17, Type (0, 0), BuildingBlock: UVAHIK_clean_linker_0, # of connection points: 2
#     Edge 18, Type (0, 0), BuildingBlock: UVAHIK_clean_linker_0, # of connection points: 2
#     Edge 19, Type (0, 0), BuildingBlock: UVAHIK_clean_linker_0, # of connection points: 2
#     Edge 20, Type (0, 0), BuildingBlock: UVAHIK_clean_linker_0, # of connection points: 2
#     Edge 21, Type (0, 0), BuildingBlock: UVAHIK_clean_linker_0, # of connection points: 2
#     Edge 22, Type (0, 0), BuildingBlock: UVAHIK_clean_linker_0, # of connection points: 2
#     Edge 23, Type (0, 0), BuildingBlock: UVAHIK_clean_linker_0, # of connection points: 2
#     Edge 24, Type (0, 0), BuildingBlock: UVAHIK_clean_linker_0, # of connection points: 2
#     Edge 25, Type (0, 0), BuildingBlock: UVAHIK_clean_linker_0, # of connection points: 2
#     Edge 26, Type (0, 0), BuildingBlock: UVAHIK_clean_linker_0, # of connection points: 2
#     Edge 27, Type (0, 0), BuildingBlock: UVAHIK_clean_linker_0, # of connection points: 2
#     Edge 28, Type (0, 0), BuildingBlock: UVAHIK_clean_linker_0, # of connection points: 2
#     Edge 29, Type (0, 0), BuildingBlock: UVAHIK_clean_linker_0, # of connection points: 2
#     Edge 30, Type (0, 0), BuildingBlock: UVAHIK_clean_linker_0, # of connection points: 2
#     Edge 31, Type (0, 0), BuildingBlock: UVAHIK_clean_linker_0, # of connection points: 2
#     Edge 32, Type (0, 0), BuildingBlock: UVAHIK_clean_linker_0, # of connection points: 2
#     Edge 33, Type (0, 0), BuildingBlock: UVAHIK_clean_linker_0, # of connection points: 2
#     Edge 34, Type (0, 0), BuildingBlock: UVAHIK_clean_linker_0, # of connection points: 2
#     Edge 35, Type (0, 0), BuildingBlock: UVAHIK_clean_linker_0, # of connection points: 2
#     Edge 36, Type (0, 0), BuildingBlock: UVAHIK_clean_linker_0, # of connection points: 2
#     Edge 37, Type (0, 0), BuildingBlock: UVAHIK_clean_linker_0, # of connection points: 2
#     Edge 38, Type (0, 0), BuildingBlock: UVAHIK_clean_linker_0, # of connection points: 2
#     Edge 39, Type (0, 0), BuildingBlock: UVAHIK_clean_linker_0, # of connection points: 2
#     Edge 40, Type (0, 0), BuildingBlock: UVAHIK_clean_linker_0, # of connection points: 2
#     Edge 41, Type (0, 0), BuildingBlock: UVAHIK_clean_linker_0, # of connection points: 2
#     Edge 42, Type (0, 0), BuildingBlock: UVAHIK_clean_linker_0, # of connection points: 2
#     Edge 43, Type (0, 0), BuildingBlock: UVAHIK_clean_linker_0, # of connection points: 2
#     Edge 44, Type (0, 0), BuildingBlock: UVAHIK_clean_linker_0, # of connection points: 2
#     Edge 45, Type (0, 0), BuildingBlock: UVAHIK_clean_linker_0, # of connection points: 2
#     Edge 46, Type (0, 0), BuildingBlock: UVAHIK_clean_linker_0, # of connection points: 2
#     Edge 47, Type (0, 0), BuildingBlock: UVAHIK_clean_linker_0, # of connection points: 2
# Relax obj value: 0.173
# Max RMSD: 0.202
# Mean RMSD: 0.189
data_MOF--net-uou--node1-AZAVOO_clean_sbu_0--edge1-UVAHIK_clean_linker_0
_symmetry_space_group_name_H-M    P1
_symmetry_Int_Tables_number       1
_symmetry_cell_setting            triclinic
loop_
_symmetry_equiv_pos_as_xyz
'x, y, z'
_cell_length_a     50.65948
_cell_length_b     47.834672
_cell_length_c     68.112093
_cell_angle_alpha  89.810743
_cell_angle_beta   89.97137
_cell_angle_gamma 90.000856
loop_
_atom_site_label
_atom_site_type_symbol
_atom_site_fract_x
_atom_site_fract_y
_atom_site_fract_z
_atom_type_partial_charge
Mg0 Mg 0.07864 0.05109 0.09853 0.0
O1 O 0.0582 0.04222 0.12803 0.0
O2 O 0.05644 0.99577 0.13157 0.0
Mg3 Mg 0.07425 0.97509 0.10473 0.0
C4 C 0.05196 0.02041 0.13788 0.0
C5 C 0.0724 0.11301 0.11314 0.0
O6 O 0.08756 0.10358 0.12734 0.0
O7 O 0.04154 0.03894 0.08206 0.0
O8 O 0.04036 0.99254 0.08602 0.0
O9 O 0.11741 0.05001 0.11374 0.0
O10 O 0.09822 0.01301 0.10057 0.0
C11 C 0.03074 0.01522 0.07916 0.0
C12 C 0.11707 0.02322 0.11102 0.0
O13 O 0.06532 0.09648 0.09956 0.0
Mg14 Mg 0.39989 0.90829 0.11371 0.0
O15 O 0.41625 0.92569 0.14248 0.0
O16 O 0.39552 0.9661 0.14857 0.0
Mg17 Mg 0.36457 0.97335 0.12475 0.0
C18 C 0.41256 0.94742 0.15298 0.0
C19 C 0.43743 0.8604 0.12543 0.0
O20 O 0.42246 0.86252 0.14111 0.0
O21 O 0.42237 0.9419 0.09672 0.0
O22 O 0.39787 0.97988 0.10251 0.0
O23 O 0.36869 0.88453 0.12999 0.0
O24 O 0.36458 0.92815 0.11953 0.0
C25 C 0.41727 0.96781 0.09408 0.0
C26 C 0.35509 0.90741 0.12933 0.0
O27 O 0.43388 0.8774 0.1113 0.0
Mg28 Mg 0.57145 0.95455 0.37637 0.0
O29 O 0.55485 0.96337 0.34591 0.0
O30 O 0.57001 0.00471 0.33547 0.0
Mg31 Mg 0.59796 0.02142 0.35898 0.0
C32 C 0.55611 0.98274 0.33304 0.0
C33 C 0.54958 0.89592 0.38517 0.0
O34 O 0.5749 0.89264 0.38867 0.0
O35 O 0.544 0.98713 0.38951 0.0
O36 O 0.56309 0.02714 0.38011 0.0
O37 O 0.60578 0.93317 0.36279 0.0
O38 O 0.60455 0.97834 0.36958 0.0
C39 C 0.54528 0.01379 0.38955 0.0
C40 C 0.61682 0.95755 0.36177 0.0
O41 O 0.54116 0.91997 0.38029 0.0
Mg42 Mg 0.91796 0.04951 0.37115 0.0
O43 O 0.93724 0.03964 0.34163 0.0
O44 O 0.9307 0.99436 0.33531 0.0
Mg45 Mg 0.90698 0.97546 0.36048 0.0
C46 C 0.94006 0.01826 0.33067 0.0
C47 C 0.9419 0.10514 0.38745 0.0
O48 O 0.93131 0.09565 0.40377 0.0
O49 O 0.95115 0.02715 0.38717 0.0
O50 O 0.94211 0.98228 0.38115 0.0
O51 O 0.88047 0.05963 0.35593 0.0
O52 O 0.89098 0.01737 0.36669 0.0
C53 C 0.95613 1.00116 0.38929 0.0
C54 C 0.87492 0.03325 0.3571 0.0
O55 O 0.94006 0.09071 0.37189 0.0
Mg56 Mg 0.89136 0.95007 0.86696 0.0
O57 O 0.9064 0.90512 0.87005 0.0
O58 O 0.88394 0.88466 0.89433 0.0
Mg59 Mg 0.85637 0.91739 0.90785 0.0
C60 C 0.90136 0.88387 0.88079 0.0
C61 C 0.90085 0.96859 0.82374 0.0
O62 O 0.88016 0.98413 0.82773 0.0
O63 O 0.85278 0.93572 0.85372 0.0
O64 O 0.83067 0.9202 0.87993 0.0
O65 O 0.92203 0.96503 0.88748 0.0
O66 O 0.88221 0.95115 0.89672 0.0
C67 C 0.83172 0.92647 0.86167 0.0
C68 C 0.90536 0.95999 0.90148 0.0
O69 O 0.91012 0.95256 0.83693 0.0
Mg70 Mg 0.53764 0.05111 0.87943 0.0
O71 O 0.53608 0.09873 0.87779 0.0
O72 O 0.56268 0.11645 0.90064 0.0
Mg73 Mg 0.58205 0.07921 0.91642 0.0
C74 C 0.54606 0.11959 0.88672 0.0
C75 C 0.52217 0.02789 0.83903 0.0
O76 O 0.53567 0.00678 0.84624 0.0
O77 O 0.57766 0.04976 0.86503 0.0
O78 O 0.6046 0.06519 0.88852 0.0
O79 O 0.50528 0.05246 0.90117 0.0
O80 O 0.5478 0.05248 0.90895 0.0
C81 C 0.60072 0.05531 0.87133 0.0
C82 C 0.52352 0.05397 0.91447 0.0
O83 O 0.51839 0.04932 0.84962 0.0
Mg84 Mg 0.42029 0.08232 0.6022 0.0
O85 O 0.42173 0.12983 0.60538 0.0
O86 O 0.39388 0.14866 0.58372 0.0
Mg87 Mg 0.37421 0.11253 0.56711 0.0
C88 C 0.41111 0.15112 0.59728 0.0
C89 C 0.44908 0.0539 0.63673 0.0
O90 O 0.44571 0.03247 0.62497 0.0
O91 O 0.38083 0.07939 0.61753 0.0
O92 O 0.353 0.09593 0.59492 0.0
O93 O 0.45178 0.08565 0.5799 0.0
O94 O 0.40899 0.08581 0.57295 0.0
C95 C 0.35749 0.08493 0.61174 0.0
C96 C 0.43307 0.08803 0.56704 0.0
O97 O 0.44123 0.07789 0.63127 0.0
Mg98 Mg 0.07683 0.94462 0.60818 0.0
O99 O 0.06864 0.89764 0.60935 0.0
O100 O 0.0948 0.8764 0.5877 0.0
Mg101 Mg 0.11932 0.9104 0.57233 0.0
C102 C 0.07679 0.87557 0.60081 0.0
C103 C 0.03596 0.96642 0.6385 0.0
O104 O 0.02931 0.98187 0.62331 0.0
O105 O 0.11584 0.93994 0.62406 0.0
O106 O 0.1417 0.9221 0.6007 0.0
O107 O 0.04619 0.94879 0.58525 0.0
O108 O 0.08854 0.94172 0.57896 0.0
C109 C 0.13843 0.93201 0.61795 0.0
C110 C 0.06475 0.9443 0.57255 0.0
O111 O 0.05499 0.94931 0.63691 0.0
Mg112 Mg 0.58841 0.53851 0.11199 0.0
O113 O 0.57347 0.52835 0.14288 0.0
O114 O 0.58021 0.48294 0.14881 0.0
Mg115 Mg 0.59906 0.46396 0.12156 0.0
C116 C 0.57213 0.50701 0.15415 0.0
C117 C 0.57171 0.59914 0.10053 0.0
O118 O 0.58782 0.59365 0.08592 0.0
O119 O 0.55255 0.51741 0.09863 0.0
O120 O 0.56114 0.4722 0.10397 0.0
O121 O 0.62802 0.54707 0.12433 0.0
O122 O 0.61502 0.50549 0.11395 0.0
C123 C 0.54655 0.4916 0.09696 0.0
C124 C 0.63261 0.52055 0.12257 0.0
O125 O 0.5674 0.58041 0.1134 0.0
Mg126 Mg 0.93749 0.44144 0.12461 0.0
O127 O 0.95337 0.45371 0.15472 0.0
O128 O 0.93593 0.49506 0.16283 0.0
Mg129 Mg 0.90726 0.50802 0.13859 0.0
C130 C 0.95089 0.47422 0.16653 0.0
C131 C 0.96613 0.39048 0.10786 0.0
O132 O 0.9467 0.39421 0.09534 0.0
O133 O 0.96324 0.47434 0.10974 0.0
O134 O 0.94145 0.51364 0.11688 0.0
O135 O 0.90403 0.41902 0.13872 0.0
O136 O 0.90318 0.46373 0.13034 0.0
C137 C 0.96007 0.50074 0.10808 0.0
C138 C 0.89171 0.44273 0.13864 0.0
O139 O 0.96892 0.4078 0.1218 0.0
Mg140 Mg 0.1187 0.4144 0.38149 0.0
O141 O 0.09234 0.43401 0.35797 0.0
O142 O 0.10616 0.4778 0.35249 0.0
Mg143 Mg 0.14187 0.48575 0.37228 0.0
C144 C 0.09052 0.45744 0.34902 0.0
C145 C 0.08211 0.36491 0.37136 0.0
O146 O 0.09152 0.37144 0.35395 0.0
O147 O 0.09827 0.44077 0.40463 0.0
O148 O 0.11518 0.48331 0.39943 0.0
O149 O 0.14516 0.39856 0.35797 0.0
O150 O 0.14891 0.44026 0.37174 0.0
C151 C 0.10048 0.46653 0.4091 0.0
C152 C 0.15581 0.42314 0.35804 0.0
O153 O 0.08929 0.37913 0.38614 0.0
Mg154 Mg 0.38181 0.58544 0.35244 0.0
O155 O 0.41489 0.56617 0.33388 0.0
O156 O 0.40689 0.52024 0.33177 0.0
Mg157 Mg 0.36861 0.51037 0.34799 0.0
C158 C 0.42096 0.54171 0.32786 0.0
C159 C 0.39406 0.64852 0.35643 0.0
O160 O 0.36855 0.64928 0.35297 0.0
O161 O 0.39953 0.56615 0.38001 0.0
O162 O 0.38934 0.52092 0.37695 0.0
O163 O 0.35804 0.59264 0.32511 0.0
O164 O 0.35719 0.55404 0.34319 0.0
C165 C 0.39962 0.54109 0.38652 0.0
C166 C 0.35029 0.56706 0.32747 0.0
O167 O 0.40572 0.62502 0.35685 0.0
Mg168 Mg 0.40814 0.44908 0.88404 0.0
O169 O 0.41603 0.40209 0.88166 0.0
O170 O 0.39073 0.38023 0.9037 0.0
Mg171 Mg 0.3671 0.41351 0.92033 0.0
C172 C 0.40806 0.37976 0.89008 0.0
C173 C 0.421 0.47652 0.84427 0.0
O174 O 0.40282 0.49356 0.85104 0.0
O175 O 0.36843 0.44502 0.86917 0.0
O176 O 0.34338 0.42603 0.89264 0.0
O177 O 0.43998 0.45206 0.90611 0.0
O178 O 0.39797 0.44465 0.91347 0.0
C179 C 0.3461 0.43663 0.87549 0.0
C180 C 0.42211 0.4468 0.91924 0.0
O181 O 0.42803 0.45575 0.85467 0.0
Mg182 Mg 0.05672 0.56699 0.88417 0.0
O183 O 0.05144 0.61412 0.88102 0.0
O184 O 0.07831 0.63588 0.90186 0.0
Mg185 Mg 0.10171 0.60166 0.91799 0.0
C186 C 0.06043 0.63646 0.88866 0.0
C187 C 0.0262 0.53777 0.8502 0.0
O188 O 0.03117 0.51571 0.86113 0.0
O189 O 0.09556 0.56769 0.86768 0.0
O190 O 0.12263 0.58698 0.88967 0.0
O191 O 0.02648 0.56729 0.90769 0.0
O192 O 0.06947 0.57133 0.91305 0.0
C193 C 0.11853 0.57552 0.873 0.0
C194 C 0.04577 0.57112 0.91988 0.0
O195 O 0.03406 0.56163 0.85585 0.0
Mg196 Mg 0.92858 0.55177 0.61013 0.0
O197 O 0.9356 0.59904 0.60902 0.0
O198 O 0.92003 0.61526 0.58055 0.0
Mg199 Mg 0.90289 0.57801 0.56366 0.0
C200 C 0.93153 0.61911 0.597 0.0
C201 C 0.93398 0.52931 0.65229 0.0
O202 O 0.9265 0.50668 0.64292 0.0
O203 O 0.8849 0.55713 0.61572 0.0
O204 O 0.86968 0.57107 0.58652 0.0
O205 O 0.96744 0.54571 0.59595 0.0
O206 O 0.9297 0.54948 0.57969 0.0
C207 C 0.86588 0.56385 0.6044 0.0
C208 C 0.95505 0.5472 0.57934 0.0
O209 O 0.93684 0.55194 0.64273 0.0
Mg210 Mg 0.5413 0.48486 0.60698 0.0
O211 O 0.53369 0.43764 0.6058 0.0
O212 O 0.5515 0.42103 0.57825 0.0
Mg213 Mg 0.56981 0.45797 0.56161 0.0
C214 C 0.5387 0.41742 0.59421 0.0
C215 C 0.51515 0.50291 0.64608 0.0
O216 O 0.50598 0.52247 0.63433 0.0
O217 O 0.58456 0.47868 0.61423 0.0
O218 O 0.60139 0.46473 0.58557 0.0
O219 O 0.50366 0.49219 0.59116 0.0
O220 O 0.54234 0.48689 0.57652 0.0
C221 C 0.60417 0.47181 0.60353 0.0
C222 C 0.51716 0.49013 0.57507 0.0
O223 O 0.53046 0.48437 0.63918 0.0
C224 C 0.32132 0.93543 0.1469 0.0
C225 C 0.32928 0.90976 0.13901 0.0
C226 C 0.29506 0.9398 0.1521 0.0
C227 C 0.23257 0.9187 0.13278 0.0
H228 H 0.20592 0.97258 0.1703 0.0
C229 C 0.1357 0.97571 0.11777 0.0
C230 C 0.13675 0.00479 0.12047 0.0
C231 C 0.15494 0.95838 0.12593 0.0
C232 C 0.21303 0.95745 0.15975 0.0
H233 H 0.31705 0.86748 0.13235 0.0
H234 H 0.27074 0.87518 0.14124 0.0
H235 H 0.24873 0.95038 0.1759 0.0
H236 H 0.15848 0.03845 0.1343 0.0
H237 H 0.19279 0.00841 0.14774 0.0
H238 H 0.19816 0.92712 0.11583 0.0
C239 C 0.2848 0.89198 0.14328 0.0
C240 C 0.23742 0.94461 0.16304 0.0
C241 C 0.31123 0.88756 0.13825 0.0
C242 C 0.15713 0.01612 0.13192 0.0
C243 C 0.17662 0.99881 0.13986 0.0
C244 C 0.20835 0.93164 0.12943 0.0
C245 C 0.27626 0.91857 0.14937 0.0
C246 C 0.24791 0.92603 0.14914 0.0
C247 C 0.17602 0.96976 0.13665 0.0
C248 C 0.19882 0.95205 0.14244 0.0
H249 H 0.33508 0.95259 0.14822 0.0
H250 H 0.28916 0.96054 0.1567 0.0
H251 H 0.24023 0.90478 0.12164 0.0
H252 H 0.12042 0.96623 0.10896 0.0
H253 H 0.15366 0.93608 0.12338 0.0
C254 C 0.65705 0.93829 0.34528 0.0
C255 C 0.64246 0.96146 0.35185 0.0
C256 C 0.68254 0.94187 0.33781 0.0
C257 C 0.73052 0.99454 0.32004 0.0
H258 H 0.78071 0.95362 0.352 0.0
C259 C 0.83005 0.03982 0.34275 0.0
C260 C 0.85087 0.02188 0.34789 0.0
C261 C 0.80599 0.02893 0.33636 0.0
C262 C 0.76722 0.96475 0.34244 0.0
H263 H 0.6428 0.00661 0.35486 0.0
H264 H 0.6868 0.01282 0.34164 0.0
H265 H 0.73464 0.94009 0.35233 0.0
H266 H 0.86348 0.97858 0.34871 0.0
H267 H 0.82202 0.95966 0.33696 0.0
H268 H 0.76299 0.01988 0.31067 0.0
C269 C 0.67854 0.99193 0.34212 0.0
C270 C 0.74073 0.95694 0.34268 0.0
C271 C 0.6533 0.98833 0.34983 0.0
C272 C 0.84777 0.99298 0.34522 0.0
C273 C 0.82389 0.9821 0.33851 0.0
C274 C 0.75712 0.00218 0.31961 0.0
C275 C 0.69366 0.96871 0.33653 0.0
C276 C 0.72199 0.97254 0.33217 0.0
C277 C 0.80239 0.99985 0.3347 0.0
C278 C 0.77557 0.98817 0.33152 0.0
H279 H 0.64921 0.9173 0.3466 0.0
H280 H 0.69386 0.92364 0.33361 0.0
H281 H 0.71641 0.00668 0.31163 0.0
H282 H 0.83185 0.06222 0.34462 0.0
H283 H 0.78982 0.04329 0.33383 0.0
C284 C 0.80577 0.94442 0.83302 0.0
C285 C 0.80664 0.9289 0.85061 0.0
C286 C 0.78176 0.9547 0.82593 0.0
C287 C 0.70901 0.9551 0.83411 0.0
H288 H 0.71762 0.03568 0.83248 0.0
C289 C 0.64951 0.05252 0.86563 0.0
C290 C 0.62371 0.04621 0.85952 0.0
C291 C 0.67114 0.03941 0.85688 0.0
C292 C 0.71487 0.01322 0.83262 0.0
H293 H 0.78264 0.90855 0.87285 0.0
H294 H 0.74095 0.92639 0.86051 0.0
H295 H 0.75626 0.00561 0.83004 0.0
H296 H 0.60057 0.02281 0.83832 0.0
H297 H 0.6384 0.99977 0.82325 0.0
H298 H 0.66776 0.96287 0.83805 0.0
C299 C 0.75875 0.93093 0.85228 0.0
C300 C 0.73697 0.99594 0.83101 0.0
C301 C 0.78274 0.92079 0.85944 0.0
C302 C 0.62016 0.02806 0.84349 0.0
C303 C 0.64179 0.01474 0.83488 0.0
C304 C 0.68687 0.97241 0.83558 0.0
C305 C 0.75821 0.94938 0.83617 0.0
C306 C 0.73439 0.96673 0.83261 0.0
C307 C 0.66741 0.01958 0.84193 0.0
C308 C 0.68975 0.00165 0.83572 0.0
H309 H 0.82376 0.95077 0.82566 0.0
H310 H 0.78186 0.96844 0.81326 0.0
H311 H 0.70641 0.93267 0.83525 0.0
H312 H 0.65297 0.0665 0.87784 0.0
H313 H 0.69064 0.04344 0.86273 0.0
C314 C 0.18745 0.93321 0.62241 0.0
C315 C 0.16213 0.93952 0.62958 0.0
C316 C 0.20963 0.94679 0.62991 0.0
C317 C 0.22414 0.01554 0.64942 0.0
H318 H 0.29609 0.98843 0.64623 0.0
C319 C 0.33918 0.05653 0.63964 0.0
C320 C 0.3349 0.07449 0.62352 0.0
C321 C 0.31818 0.0418 0.64808 0.0
C322 C 0.27617 0.9964 0.64765 0.0
H323 H 0.14071 0.96238 0.65202 0.0
H324 H 0.1795 0.9859 0.66516 0.0
H325 H 0.25982 0.95512 0.64844 0.0
H326 H 0.30481 0.09301 0.60493 0.0
H327 H 0.26836 0.06736 0.61954 0.0
H328 H 0.24042 0.05679 0.64782 0.0
C329 C 0.18208 0.97093 0.65341 0.0
C330 C 0.25536 0.97726 0.64872 0.0
C331 C 0.15986 0.95729 0.64593 0.0
C332 C 0.30888 0.07921 0.6172 0.0
C333 C 0.2879 0.0646 0.62569 0.0
C334 C 0.24493 0.03466 0.64834 0.0
C335 C 0.207 0.96693 0.64478 0.0
C336 C 0.22907 0.98661 0.64874 0.0
C337 C 0.29245 0.0449 0.64069 0.0
C338 C 0.27109 0.02528 0.64656 0.0
H339 H 0.19 0.9194 0.60998 0.0
H340 H 0.22849 0.9432 0.62287 0.0
H341 H 0.20414 0.02353 0.64931 0.0
H342 H 0.35894 0.05254 0.64502 0.0
H343 H 0.32224 0.02708 0.65981 0.0
C344 C 0.85425 0.47182 0.15082 0.0
C345 C 0.86496 0.44535 0.14696 0.0
C346 C 0.82766 0.47466 0.15565 0.0
C347 C 0.76684 0.44244 0.14218 0.0
H348 H 0.73608 0.4983 0.1764 0.0
C349 C 0.66049 0.47877 0.13034 0.0
C350 C 0.65654 0.50781 0.13113 0.0
C351 C 0.68353 0.46685 0.13779 0.0
C352 C 0.74436 0.48265 0.16674 0.0
H353 H 0.85675 0.40084 0.14654 0.0
H354 H 0.80992 0.40593 0.15455 0.0
H355 H 0.7821 0.48437 0.18093 0.0
H356 H 0.67351 0.5471 0.14068 0.0
H357 H 0.71428 0.52654 0.15278 0.0
H358 H 0.73013 0.44207 0.12698 0.0
C359 C 0.82224 0.42442 0.15391 0.0
C360 C 0.7706 0.47454 0.16946 0.0
C361 C 0.84899 0.42155 0.14934 0.0
C362 C 0.67594 0.52464 0.13986 0.0
C363 C 0.69921 0.51277 0.14703 0.0
C364 C 0.74077 0.45076 0.13932 0.0
C365 C 0.8112 0.4511 0.15647 0.0
C366 C 0.78228 0.45503 0.15678 0.0
C367 C 0.70344 0.48375 0.14583 0.0
C368 C 0.72948 0.47165 0.15113 0.0
H369 H 0.86602 0.49051 0.14937 0.0
H370 H 0.81964 0.49551 0.15737 0.0
H371 H 0.77546 0.42766 0.13201 0.0
H372 H 0.64609 0.46516 0.12364 0.0
H373 H 0.68594 0.4444 0.13688 0.0
C374 C 0.30892 0.56183 0.30852 0.0
C375 C 0.33447 0.55252 0.31271 0.0
C376 C 0.29076 0.54366 0.29987 0.0
C377 C 0.25256 0.50046 0.28524 0.0
H378 H 0.26145 0.43461 0.31789 0.0
C379 C 0.18994 0.41247 0.33259 0.0
C380 C 0.1735 0.43193 0.34198 0.0
C381 C 0.20831 0.4214 0.31856 0.0
C382 C 0.25868 0.45228 0.30813 0.0
H383 H 0.36263 0.51904 0.30871 0.0
H384 H 0.33142 0.4877 0.29272 0.0
H385 H 0.29923 0.46304 0.31013 0.0
H386 H 0.16119 0.47528 0.34232 0.0
H387 H 0.19339 0.49098 0.31854 0.0
H388 H 0.2113 0.49069 0.28498 0.0
C389 C 0.32486 0.50844 0.29678 0.0
C390 C 0.28052 0.46876 0.30359 0.0
C391 C 0.34277 0.52637 0.30586 0.0
C392 C 0.17427 0.45998 0.33599 0.0
C393 C 0.19236 0.46886 0.32191 0.0
C394 C 0.23063 0.48399 0.2899 0.0
C395 C 0.29813 0.51605 0.29512 0.0
C396 C 0.27743 0.49414 0.2933 0.0
C397 C 0.2102 0.44987 0.3135 0.0
C398 C 0.23328 0.46087 0.30256 0.0
H399 H 0.3022 0.58198 0.31376 0.0
H400 H 0.2704 0.55039 0.29891 0.0
H401 H 0.24962 0.51939 0.27676 0.0
H402 H 0.18941 0.39059 0.33673 0.0
H403 H 0.22174 0.40626 0.31225 0.0
C404 C 0.16723 0.57471 0.86688 0.0
C405 C 0.14165 0.56684 0.86114 0.0
C406 C 0.18929 0.56128 0.85903 0.0
C407 C 0.20577 0.49187 0.84141 0.0
H408 H 0.27602 0.52379 0.83937 0.0
C409 C 0.32397 0.46034 0.847 0.0
C410 C 0.32213 0.44351 0.86395 0.0
C411 C 0.30135 0.47239 0.8388 0.0
C412 C 0.25657 0.51442 0.8394 0.0
H413 H 0.11937 0.54074 0.84105 0.0
H414 H 0.15796 0.51741 0.82732 0.0
H415 H 0.23772 0.55444 0.83805 0.0
H416 H 0.29478 0.42381 0.88424 0.0
H417 H 0.25558 0.44492 0.87012 0.0
H418 H 0.22464 0.45192 0.8435 0.0
C419 C 0.16088 0.53363 0.83816 0.0
C420 C 0.2346 0.53206 0.83886 0.0
C421 C 0.13877 0.54715 0.84597 0.0
C422 C 0.29698 0.43686 0.87132 0.0
C423 C 0.27441 0.44887 0.8631 0.0
C424 C 0.22774 0.47422 0.84193 0.0
C425 C 0.18629 0.53967 0.84525 0.0
C426 C 0.209 0.52108 0.84077 0.0
C427 C 0.27645 0.46776 0.8473 0.0
C428 C 0.2534 0.48539 0.84184 0.0
H429 H 0.17022 0.58997 0.87838 0.0
H430 H 0.20853 0.56641 0.86493 0.0
H431 H 0.18636 0.48266 0.84299 0.0
H432 H 0.34299 0.46568 0.84077 0.0
H433 H 0.30352 0.48645 0.8264 0.0
C434 C 0.65311 0.46518 0.60113 0.0
C435 C 0.63121 0.47613 0.61119 0.0
C436 C 0.67867 0.47358 0.60603 0.0
C437 C 0.71227 0.53511 0.62344 0.0
H438 H 0.77412 0.48737 0.62454 0.0
C439 C 0.83355 0.5423 0.6278 0.0
C440 C 0.83848 0.55942 0.61135 0.0
C441 C 0.80788 0.53371 0.63226 0.0
C442 C 0.75702 0.50096 0.62455 0.0
H443 H 0.61914 0.50317 0.63511 0.0
H444 H 0.66383 0.51812 0.64341 0.0
H445 H 0.73009 0.46636 0.6247 0.0
H446 H 0.82006 0.58265 0.58762 0.0
H447 H 0.77517 0.56803 0.59568 0.0
H448 H 0.73921 0.56966 0.62233 0.0
C449 C 0.66111 0.50304 0.63176 0.0
C450 C 0.73188 0.48893 0.62452 0.0
C451 C 0.63556 0.49432 0.62706 0.0
C452 C 0.81696 0.56936 0.60033 0.0
C453 C 0.79125 0.56109 0.60498 0.0
C454 C 0.73742 0.54712 0.62318 0.0
C455 C 0.68282 0.49335 0.62092 0.0
C456 C 0.70929 0.50588 0.62362 0.0
C457 C 0.78658 0.54245 0.62059 0.0
C458 C 0.76001 0.53014 0.62339 0.0
H459 H 0.65044 0.45105 0.58889 0.0
H460 H 0.69507 0.46588 0.59738 0.0
H461 H 0.69518 0.54865 0.62255 0.0
H462 H 0.84965 0.53425 0.63662 0.0
H463 H 0.80475 0.51953 0.64448 0.0
C464 C 0.96007 0.99759 0.30048 0.0
C465 C 0.95418 0.02131 0.31178 0.0
C466 C 0.97274 1.00034 0.28242 0.0
C467 C 0.98353 0.04936 0.24198 0.0
H468 H 0.03778 0.99613 0.22737 0.0
C469 C 0.03747 0.04994 0.16641 0.0
C470 C 0.04038 0.02349 0.15769 0.0
C471 C 0.02816 0.05226 0.18569 0.0
C472 C 0.02257 0.01107 0.23122 0.0
H473 H 0.95718 0.06657 0.31298 0.0
H474 H 0.97935 0.07128 0.28127 0.0
H475 H 0.02005 0.99554 0.26062 0.0
H476 H 0.03489 0.97886 0.16219 0.0
H477 H 0.01857 0.98302 0.1955 0.0
H478 H 0.98574 0.06447 0.21236 0.0
C479 C 0.97401 0.05061 0.28646 0.0
C480 C 0.01246 0.01074 0.25024 0.0
C481 C 0.96145 0.04786 0.30465 0.0
C482 C 0.03315 0.99956 0.16846 0.0
C483 C 0.02395 0.0019 0.18763 0.0
C484 C -0.00633 0.04968 0.22289 0.0
C485 C 0.97975 0.02685 0.27519 0.0
C486 C -0.00759 0.02943 0.25568 0.0
C487 C 0.02173 0.02819 0.19656 0.0
C488 C 0.01283 0.03007 0.21722 0.0
H489 H 0.95477 0.97683 0.30551 0.0
H490 H 0.97657 0.98168 0.27391 0.0
H491 H 0.96797 0.06391 0.24577 0.0
H492 H 0.04286 0.06879 0.15852 0.0
H493 H 0.02663 0.0728 0.19224 0.0
C494 C 0.43108 0.97758 0.17951 0.0
C495 C 0.42834 0.95101 0.17099 0.0
C496 C 0.44568 0.98095 0.1967 0.0
C497 C 0.46615 0.94439 0.24068 0.0
H498 H 0.52101 1.00069 0.2442 0.0
C499 C 0.53341 0.95254 0.30844 0.0
C500 C 0.5414 0.97925 0.31452 0.0
C501 C 0.51999 0.94904 0.29074 0.0
C502 C 0.50548 0.98517 0.24359 0.0
H503 H 0.4387 0.90715 0.1738 0.0
H504 H 0.46379 0.91307 0.20416 0.0
H505 H 0.49682 0.99482 0.21353 0.0
H506 H 0.54121 0.02334 0.30702 0.0
H507 H 0.51688 0.01743 0.27649 0.0
H508 H 0.47398 0.93524 0.27082 0.0
C509 C 0.45475 0.93122 0.19738 0.0
C510 C 0.49178 0.98174 0.22599 0.0
C511 C 0.44052 0.92789 0.18 0.0
C512 C 0.53547 0.00246 0.30264 0.0
C513 C 0.52167 0.99902 0.28507 0.0
C514 C 0.47954 0.9481 0.25838 0.0
C515 C 0.45743 0.95777 0.20585 0.0
C516 C 0.47208 0.96127 0.22439 0.0
C517 C 0.51387 0.97224 0.27885 0.0
C518 C 0.49945 0.96848 0.26005 0.0
H519 H 0.42202 0.9958 0.17286 0.0
H520 H 0.44738 0.00161 0.20306 0.0
H521 H 0.45077 0.9287 0.23983 0.0
H522 H 0.53793 0.9342 0.31719 0.0
H523 H 0.51478 0.92805 0.28627 0.0
C524 C 0.0279 0.9509 0.67302 0.0
C525 C 0.02099 0.96809 0.65707 0.0
C526 C 0.01339 0.9517 0.6904 0.0
C527 C 0.96804 0.99529 0.71917 0.0
H528 H 0.95202 0.92495 0.74505 0.0
C529 C 0.90351 0.98725 0.78934 0.0
C530 C 0.91317 0.96935 0.80409 0.0
C531 C 0.91521 0.98764 0.77075 0.0
C532 C 0.9565 0.94477 0.73806 0.0
H533 H -0.00639 0.9999 0.64693 0.0
H534 H 0.96813 1.00119 0.67739 0.0
H535 H 0.97523 0.92481 0.71373 0.0
H536 H 0.94275 0.93796 0.81093 0.0
H537 H 0.96317 0.9388 0.77865 0.0
H538 H 0.94947 0.01521 0.74368 0.0
C539 C 0.98491 0.98722 0.67641 0.0
C540 C 0.96979 0.94469 0.72014 0.0
C541 C -0.00057 0.98639 0.65897 0.0
C542 C 0.93476 0.95193 0.79989 0.0
C543 C 0.94637 0.95227 0.78134 0.0
C544 C 0.95471 0.99536 0.73714 0.0
C545 C -0.00837 0.9697 0.69224 0.0
C546 C 0.97607 0.96995 0.71065 0.0
C547 C 0.93668 0.97003 0.76655 0.0
C548 C 0.94917 0.9701 0.74689 0.0
H549 H 0.04447 0.93665 0.67209 0.0
H550 H 0.01933 0.93831 0.70246 0.0
H551 H 0.97279 0.01508 0.71225 0.0
H552 H 0.88688 1.00091 0.79213 0.0
H553 H 0.90723 1.0014 0.75958 0.0
C554 C 0.46111 0.07248 0.66973 0.0
C555 C 0.46006 0.04992 0.65662 0.0
C556 C 0.46987 0.06854 0.68893 0.0
C557 C 0.47756 0.01403 0.72672 0.0
H558 H 0.51807 0.07168 0.75294 0.0
C559 C 0.51779 0.00444 0.80637 0.0
C560 C 0.51397 0.02808 0.81824 0.0
C561 C 0.51195 0.00551 0.78633 0.0
C562 C 0.50664 0.05548 0.74581 0.0
H563 H 0.46807 0.00565 0.65317 0.0
H564 H 0.48384 0.99885 0.68672 0.0
H565 H 0.50821 0.07642 0.71809 0.0
H566 H 0.50037 0.07113 0.81853 0.0
H567 H 0.49028 0.07293 0.78362 0.0
H568 H 0.47611 0.99314 0.75459 0.0
C569 C 0.47743 0.01949 0.68221 0.0
C570 C 0.50097 0.05819 0.72588 0.0
C571 C 0.46855 0.02343 0.66297 0.0
C572 C 0.50361 0.05257 0.80979 0.0
C573 C 0.498 0.05369 0.78978 0.0
C574 C 0.48341 0.01123 0.74667 0.0
C575 C 0.47794 0.04197 0.69545 0.0
C576 C 0.48596 0.03776 0.71618 0.0
C577 C 0.50244 0.03031 0.77782 0.0
C578 C 0.49759 0.03219 0.75646 0.0
H579 H 0.45462 0.09315 0.66533 0.0
H580 H 0.46962 0.08621 0.69883 0.0
H581 H 0.4657 0.99807 0.71973 0.0
H582 H 0.52572 0.98526 0.81247 0.0
H583 H 0.51559 0.98722 0.77739 0.0
C584 C 0.5531 0.53673 0.18092 0.0
C585 C 0.56099 0.5103 0.1741 0.0
C586 C 0.54219 0.53968 0.19963 0.0
C587 C 0.50597 0.49982 0.23667 0.0
H588 H 0.52263 0.56222 0.27073 0.0
C589 C 0.4536 0.51153 0.31041 0.0
C590 C 0.44363 0.53832 0.31443 0.0
C591 C 0.47229 0.50769 0.29563 0.0
C592 C 0.5177 0.54474 0.26133 0.0
H593 H 0.5641 0.46633 0.18182 0.0
H594 H 0.54502 0.47155 0.21442 0.0
H595 H 0.54672 0.55636 0.23989 0.0
H596 H 0.4466 0.58231 0.30689 0.0
H597 H 0.47874 0.57552 0.28076 0.0
H598 H 0.47644 0.48862 0.25758 0.0
C599 C 0.54711 0.48993 0.2052 0.0
C600 C 0.53149 0.54141 0.24371 0.0
C601 C 0.5581 0.48697 0.18653 0.0
C602 C 0.4539 0.56139 0.30414 0.0
C603 C 0.47243 0.55751 0.2892 0.0
C604 C 0.49214 0.50322 0.25419 0.0
C605 C 0.53885 0.51626 0.21187 0.0
C606 C 0.52555 0.51905 0.23113 0.0
C607 C 0.48122 0.5305 0.28439 0.0
C608 C 0.49765 0.52585 0.26665 0.0
H609 H 0.55511 0.55517 0.17175 0.0
H610 H 0.53572 0.56018 0.2043 0.0
H611 H 0.50066 0.48265 0.22712 0.0
H612 H 0.44638 0.49337 0.31829 0.0
H613 H 0.47916 0.48669 0.29261 0.0
C614 C 0.05999 0.4361 0.32447 0.0
C615 C 0.07142 0.46013 0.33273 0.0
C616 C 0.04491 0.43808 0.3074 0.0
C617 C 0.00666 0.48482 0.27598 0.0
H618 H 0.03108 0.43724 0.2337 0.0
C619 C 0.96853 0.49759 0.19663 0.0
C620 C 0.96489 0.4732 0.18552 0.0
C621 C 0.98102 0.49637 0.21489 0.0
C622 C 0.02366 0.45035 0.2454 0.0
H623 H 0.07458 0.50526 0.33025 0.0
H624 H 0.04775 0.50866 0.30053 0.0
H625 H 0.05179 0.434 0.26584 0.0
H626 H 0.97121 0.42836 0.18492 0.0
H627 H -0.00786 0.42605 0.21695 0.0
H628 H 0.97811 0.50079 0.25574 0.0
C629 C 0.05076 0.48834 0.30724 0.0
C630 C 0.03561 0.44853 0.26378 0.0
C631 C 0.06617 0.48635 0.32418 0.0
C632 C 0.97399 0.44758 0.19302 0.0
C633 C 0.98611 0.4463 0.21138 0.0
C634 C -0.00561 0.48638 0.25764 0.0
C635 C 0.04063 0.46413 0.29843 0.0
C636 C 0.02724 0.46575 0.27921 0.0
C637 C 0.98982 0.47067 0.22255 0.0
C638 C 0.00279 0.46918 0.2421 0.0
H639 H 0.06359 0.41558 0.33068 0.0
H640 H 0.03705 0.41915 0.30095 0.0
H641 H -0.00017 0.49824 0.28772 0.0
H642 H 0.96186 0.51768 0.19117 0.0
H643 H 0.98397 0.51564 0.22289 0.0
C644 C 0.51699 0.48078 0.67935 0.0
C645 C 0.50715 0.50185 0.66693 0.0
C646 C 0.50879 0.47909 0.69887 0.0
C647 C 0.47801 0.51964 0.73877 0.0
H648 H 0.46071 0.44629 0.75953 0.0
C649 C 0.42378 0.50305 0.81259 0.0
C650 C 0.43241 0.48085 0.82453 0.0
C651 C 0.43389 0.50648 0.79365 0.0
C652 C 0.46578 0.46688 0.75403 0.0
H653 H 0.48129 0.53795 0.66533 0.0
H654 H 0.46677 0.53481 0.69943 0.0
H655 H 0.47656 0.45078 0.72592 0.0
H656 H 0.45881 0.44517 0.82612 0.0
H657 H 0.47658 0.45134 0.79316 0.0
H658 H 0.46705 0.53572 0.76692 0.0
C659 C 0.48104 0.51978 0.69409 0.0
C660 C 0.47486 0.46945 0.73478 0.0
C661 C 0.48925 0.52147 0.67453 0.0
C662 C 0.45165 0.46242 0.81726 0.0
C663 C 0.46174 0.46585 0.79834 0.0
C664 C 0.46892 0.51706 0.75806 0.0
C665 C 0.49056 0.49842 0.70641 0.0
C666 C 0.48109 0.49584 0.72693 0.0
C667 C 0.4528 0.48777 0.78627 0.0
C668 C 0.46272 0.49064 0.76589 0.0
H669 H 0.53092 0.46542 0.67398 0.0
H670 H 0.51679 0.46266 0.70809 0.0
H671 H 0.48296 0.54022 0.7332 0.0
H672 H 0.40896 0.51759 0.81776 0.0
H673 H 0.42643 0.52341 0.78463 0.0
C674 C 0.00737 0.55877 0.81965 0.0
C675 C 0.01241 0.53497 0.8312 0.0
C676 C -0.00472 0.55626 0.80137 0.0
C677 C 0.985 0.50618 0.76148 0.0
H678 H 0.9353 0.56212 0.74311 0.0
C679 C 0.93879 0.50293 0.68391 0.0
C680 C 0.93941 0.52841 0.67358 0.0
C681 C 0.94469 0.50208 0.70394 0.0
C682 C 0.94922 0.5464 0.74803 0.0
H683 H 0.00821 0.48988 0.83278 0.0
H684 H 0.98688 0.48552 0.80078 0.0
H685 H 0.95069 0.56336 0.77702 0.0
H686 H 0.94625 0.57304 0.67622 0.0
H687 H 0.9566 0.5715 0.7111 0.0
H688 H 0.98384 0.48952 0.73236 0.0
C689 C -0.00743 0.50609 0.80585 0.0
C690 C 0.95804 0.5471 0.76742 0.0
C691 C 0.00468 0.50861 0.8242 0.0
C692 C 0.94562 0.55306 0.68374 0.0
C693 C 0.95136 0.55222 0.70376 0.0
C694 C 0.97612 0.50543 0.74208 0.0
C695 C 0.9879 0.52989 0.79419 0.0
C696 C 0.97644 0.52735 0.77425 0.0
C697 C 0.95112 0.52671 0.71404 0.0
C698 C 0.95854 0.52587 0.73507 0.0
H699 H 0.01309 0.5794 0.8246 0.0
H700 H -0.00765 0.57495 0.79262 0.0
H701 H -0.00059 0.49085 0.76622 0.0
H702 H 0.93402 0.48358 0.6765 0.0
H703 H 0.94416 0.48216 0.71154 0.0
C704 C 0.07216 0.16133 0.12737 0.0
C705 C 0.06413 0.14269 0.11263 0.0
C706 C 0.06453 0.18942 0.12668 0.0
C707 C 0.03983 0.24388 0.09259 0.0
H708 H 0.01503 0.27981 0.14009 0.0
C709 C 0.97836 0.34519 0.09201 0.0
C710 C 0.98236 0.36477 0.10705 0.0
C711 C -0.00842 0.31958 0.09227 0.0
C712 C 0.02232 0.27026 0.12675 0.0
H713 H 0.04169 0.13893 0.08562 0.0
H714 H 0.0282 0.18773 0.08455 0.0
H715 H 0.03157 0.23201 0.14161 0.0
H716 H 0.00424 0.37328 0.13375 0.0
H717 H 0.02748 0.32857 0.13411 0.0
H718 H 0.03016 0.28198 0.07767 0.0
C719 C 0.04071 0.18078 0.0965 0.0
C720 C 0.03177 0.24284 0.12762 0.0
C721 C 0.04829 0.15273 0.0972 0.0
C722 C 0.00063 0.3586 0.12198 0.0
C723 C 0.01382 0.33292 0.12226 0.0
C724 C 0.03039 0.2713 0.09172 0.0
C725 C 0.04877 0.19947 0.11121 0.0
C726 C 0.04029 0.2292 0.1105 0.0
C727 C 0.0091 0.31293 0.10759 0.0
C728 C 0.02119 0.28468 0.10874 0.0
H729 H 0.08441 0.15428 0.13944 0.0
H730 H 0.07125 0.20335 0.13815 0.0
H731 H 0.04672 0.23414 0.0792 0.0
H732 H 0.96444 0.34928 0.08028 0.0
H733 H 0.98728 0.30455 0.08085 0.0
C734 C 0.47098 0.83323 0.10623 0.0
C735 C 0.45602 0.83672 0.12344 0.0
C736 C 0.48657 0.80939 0.10368 0.0
C737 C 0.51604 0.74915 0.13043 0.0
H738 H 0.51178 0.71264 0.07977 0.0
C739 C 0.54494 0.63395 0.11934 0.0
C740 C 0.5597 0.62719 0.10254 0.0
C741 C 0.53429 0.66067 0.1216 0.0
C742 C 0.51345 0.72276 0.09391 0.0
H743 H 0.44645 0.81839 0.15174 0.0
H744 H 0.47323 0.77678 0.14718 0.0
H745 H 0.49052 0.75785 0.08447 0.0
H746 H 0.57465 0.64315 0.07483 0.0
H747 H 0.5559 0.68984 0.07876 0.0
H748 H 0.53843 0.71367 0.13997 0.0
C749 C 0.47323 0.79254 0.13573 0.0
C750 C 0.50133 0.74871 0.09661 0.0
C751 C 0.45772 0.81637 0.13831 0.0
C752 C 0.56336 0.64768 0.08794 0.0
C753 C 0.55255 0.67439 0.09015 0.0
C754 C 0.52803 0.72315 0.12775 0.0
C755 C 0.48752 0.78854 0.11826 0.0
C756 C 0.5022 0.76206 0.11497 0.0
C757 C 0.53804 0.6812 0.10706 0.0
C758 C 0.52658 0.70951 0.10954 0.0
H759 H 0.47023 0.84861 0.09454 0.0
H760 H 0.49767 0.80716 0.09018 0.0
H761 H 0.51749 0.75907 0.14465 0.0
H762 H 0.54172 0.61866 0.13086 0.0
H763 H 0.52287 0.66517 0.13466 0.0
C764 C 0.39629 0.7007 0.35902 0.0
C765 C 0.40886 0.67457 0.36033 0.0
C766 C 0.41021 0.72527 0.36297 0.0
C767 C 0.46924 0.75167 0.3885 0.0
H768 H 0.46201 0.81519 0.3534 0.0
C769 C 0.54166 0.84456 0.38882 0.0
C770 C 0.53168 0.87149 0.3852 0.0
C771 C 0.52531 0.82117 0.38734 0.0
C772 C 0.46394 0.79782 0.36354 0.0
H773 H 0.44592 0.65373 0.36681 0.0
H774 H 0.4702 0.69661 0.3736 0.0
H775 H 0.43611 0.77309 0.34756 0.0
H776 H 0.49645 0.89509 0.37784 0.0
H777 H 0.46779 0.85425 0.37553 0.0
H778 H 0.49717 0.77631 0.40444 0.0
C779 C 0.44951 0.69807 0.3697 0.0
C780 C 0.44913 0.77368 0.36016 0.0
C781 C 0.43564 0.67352 0.36568 0.0
C782 C 0.50479 0.8746 0.38063 0.0
C783 C 0.4884 0.85119 0.37918 0.0
C784 C 0.48398 0.77584 0.39193 0.0
C785 C 0.43695 0.7242 0.3684 0.0
C786 C 0.45183 0.75025 0.37249 0.0
C787 C 0.49856 0.82417 0.38225 0.0
C788 C 0.4817 0.7991 0.37937 0.0
H789 H 0.37566 0.70222 0.35498 0.0
H790 H 0.39994 0.74509 0.362 0.0
H791 H 0.47142 0.7341 0.39845 0.0
H792 H 0.5623 0.84141 0.39235 0.0
H793 H 0.53386 0.80066 0.38957 0.0
C794 C 0.055 0.3328 0.39243 0.0
C795 C 0.06456 0.34044 0.37379 0.0
C796 C 0.03952 0.30883 0.39478 0.0
C797 C -0.00109 0.25794 0.36717 0.0
H798 H 0.01514 0.20825 0.41063 0.0
C799 C 0.96464 0.14351 0.36903 0.0
C800 C 0.955 0.13277 0.38688 0.0
C801 C 0.97643 0.16984 0.36826 0.0
C802 C 0.01013 0.22209 0.39858 0.0
H803 H 0.06492 0.32923 0.34295 0.0
H804 H 0.03826 0.28733 0.34708 0.0
H805 H 0.03807 0.25293 0.40776 0.0
H806 H 0.95035 0.14122 0.41796 0.0
H807 H 0.97104 0.18733 0.4166 0.0
H808 H 0.97133 0.22686 0.35779 0.0
C809 C 0.04242 0.30001 0.35986 0.0
C810 C 0.02323 0.2477 0.39694 0.0
C811 C 0.05786 0.32395 0.35751 0.0
C812 C 0.95761 0.14888 0.40399 0.0
C813 C 0.96952 0.17524 0.40323 0.0
C814 C 0.98588 0.23233 0.36878 0.0
C815 C 0.03326 0.29203 0.37854 0.0
C816 C 0.01801 0.26575 0.38107 0.0
C817 C 0.97893 0.18604 0.38533 0.0
C818 C -0.0084 0.21396 0.38435 0.0
H819 H 0.0597 0.34515 0.40526 0.0
H820 H 0.03247 0.30345 0.40932 0.0
H821 H -0.00592 0.2716 0.35498 0.0
H822 H 0.96302 0.13162 0.35557 0.0
H823 H 0.98387 0.1774 0.35431 0.0
C824 C 0.02732 0.66429 0.86944 0.0
C825 C 0.04772 0.66346 0.88345 0.0
C826 C 0.01279 0.68874 0.86637 0.0
C827 C 0.97334 0.73476 0.87489 0.0
H828 H 0.00377 0.80913 0.87529 0.0
C829 C 0.91154 0.8339 0.88928 0.0
C830 C 0.91725 0.85805 0.87824 0.0
C831 C 0.92754 0.81018 0.88786 0.0
C832 C -0.00502 0.7885 0.87496 0.0
H833 H 0.06966 0.68828 0.90448 0.0
H834 H 0.04421 0.73091 0.89916 0.0
H835 H 0.03273 0.76828 0.87579 0.0
H836 H 0.94408 0.87586 0.8567 0.0
H837 H 0.97191 0.83441 0.85422 0.0
H838 H 0.93562 0.7549 0.87415 0.0
C839 C 0.03954 0.71262 0.89049 0.0
C840 C 0.01157 0.76511 0.87543 0.0
C841 C 0.05409 0.68812 0.89359 0.0
C842 C 0.93907 0.85767 0.86545 0.0
C843 C 0.95516 0.83398 0.86411 0.0
C844 C 0.95678 0.75811 0.87452 0.0
C845 C 0.0183 0.713 0.8772 0.0
C846 C 0.00093 0.73797 0.87555 0.0
C847 C 0.9497 0.81004 0.87543 0.0
C848 C 0.96738 0.78525 0.87472 0.0
H849 H 0.02196 0.64579 0.86122 0.0
H850 H -0.00313 0.68849 0.85576 0.0
H851 H 0.96447 0.71417 0.8752 0.0
H852 H 0.89493 0.8334 0.89929 0.0
H853 H 0.92294 0.79219 0.89693 0.0
C854 C 0.41269 0.32778 0.89407 0.0
C855 C 0.42097 0.35282 0.88511 0.0
C856 C 0.42655 0.3029 0.89098 0.0
C857 C 0.4525 0.25039 0.87494 0.0
H858 H 0.52883 0.25417 0.87872 0.0
C859 C 0.51646 0.15166 0.86755 0.0
C860 C 0.5358 0.14796 0.88216 0.0
C861 C 0.50395 0.17746 0.86507 0.0
C862 C 0.50754 0.25278 0.87763 0.0
H863 H 0.44989 0.371 0.86528 0.0
H864 H 0.47394 0.32755 0.85987 0.0
H865 H 0.50287 0.29716 0.87975 0.0
H866 H 0.55811 0.16912 0.90489 0.0
H867 H 0.5362 0.21408 0.90059 0.0
H868 H 0.45705 0.20601 0.87347 0.0
C869 C 0.45688 0.32729 0.86946 0.0
C870 C 0.49267 0.27742 0.87801 0.0
C871 C 0.44295 0.35215 0.87247 0.0
C872 C 0.5433 0.17115 0.89351 0.0
C873 C 0.53079 0.197 0.891 0.0
C874 C 0.46736 0.22579 0.87447 0.0
C875 C 0.44907 0.30247 0.87891 0.0
C876 C 0.46495 0.27648 0.87695 0.0
C877 C 0.51049 0.20024 0.87709 0.0
C878 C 0.49503 0.22665 0.87606 0.0
H879 H 0.39587 0.32746 0.90389 0.0
H880 H 0.42014 0.28421 0.89862 0.0
H881 H 0.43121 0.24897 0.87391 0.0
H882 H 0.51029 0.13436 0.85841 0.0
H883 H 0.48874 0.17942 0.85398 0.0
C884 C 0.44311 0.1823 0.61487 0.0
C885 C 0.42133 0.17934 0.60222 0.0
C886 C 0.45524 0.2083 0.61734 0.0
C887 C 0.48811 0.25926 0.60645 0.0
H888 H 0.44967 0.32917 0.60982 0.0
C889 C 0.5342 0.3662 0.58695 0.0
C890 C 0.5276 0.38936 0.59863 0.0
C891 C 0.52196 0.34035 0.58998 0.0
C892 C 0.46071 0.30981 0.6091 0.0
H893 H 0.39439 0.20188 0.58311 0.0
H894 H 0.41554 0.2472 0.58748 0.0
H895 H 0.42563 0.2849 0.61115 0.0
H896 H 0.50341 0.40315 0.62308 0.0
H897 H 0.48207 0.358 0.6283 0.0
H898 H 0.52314 0.28413 0.60414 0.0
C899 C 0.42321 0.22937 0.59549 0.0
C900 C 0.44692 0.28448 0.60968 0.0
C901 C 0.41114 0.20333 0.59293 0.0
C902 C 0.50899 0.3858 0.61378 0.0
C903 C 0.4966 0.35998 0.61671 0.0
C904 C 0.50187 0.28457 0.60573 0.0
C905 C 0.4458 0.232 0.60733 0.0
C906 C 0.46044 0.25892 0.60817 0.0
C907 C 0.50271 0.33706 0.60468 0.0
C908 C 0.48831 0.31014 0.60683 0.0
H909 H 0.45146 0.16435 0.62235 0.0
H910 H 0.47236 0.20975 0.6268 0.0
H911 H 0.4991 0.23994 0.60504 0.0
H912 H 0.54845 0.36813 0.57516 0.0
H913 H 0.52695 0.32316 0.58035 0.0
C914 C 0.07192 0.82371 0.59619 0.0
C915 C 0.06316 0.84868 0.60489 0.0
C916 C 0.05739 0.79901 0.5983 0.0
C917 C 0.02861 0.74671 0.61274 0.0
H918 H 0.95321 0.75253 0.60362 0.0
C919 C 0.96012 0.65055 0.6174 0.0
C920 C 0.94287 0.64703 0.6014 0.0
C921 C 0.9735 0.67581 0.62013 0.0
C922 C 0.97422 0.75058 0.60621 0.0
H923 H 0.03262 0.86688 0.62324 0.0
H924 H 0.00736 0.8238 0.62685 0.0
H925 H 0.98023 0.79482 0.60428 0.0
H926 H 0.92527 0.66793 0.57629 0.0
H927 H 0.9485 0.712 0.58116 0.0
H928 H 0.0227 0.70243 0.61422 0.0
C929 C 0.02537 0.82344 0.61827 0.0
C930 C 0.98966 0.77481 0.60677 0.0
C931 C 0.03998 0.84809 0.61629 0.0
C932 C 0.93842 0.66985 0.58875 0.0
C933 C 0.95166 0.69518 0.59157 0.0
C934 C 0.01313 0.72251 0.61234 0.0
C935 C 0.03368 0.79874 0.60904 0.0
C936 C 0.01708 0.77312 0.6098 0.0
C937 C 0.96979 0.69823 0.60704 0.0
C938 C 0.98581 0.72414 0.60884 0.0
H939 H 0.08966 0.82335 0.58732 0.0
H940 H 0.06423 0.78036 0.5909 0.0
H941 H 0.04964 0.74475 0.61524 0.0
H942 H 0.96402 0.6335 0.62749 0.0
H943 H 0.98706 0.67767 0.63235 0.0
C944 C 0.93231 0.98477 0.92645 0.0
C945 C 0.91243 0.9653 0.9221 0.0
C946 C 0.93821 0.99128 0.94589 0.0
C947 C 0.94165 0.96289 -0.0061 0.0
H948 H 0.94284 0.03994 0.01148 0.0
C949 C -0.00903 0.99012 0.06666 0.0
C950 C 0.00789 0.01334 0.06584 0.0
C951 C 0.97209 0.98591 0.05205 0.0
C952 C 0.94274 0.01832 0.00681 0.0
H953 H 0.88348 0.937 0.93462 0.0
H954 H 0.8947 0.94763 0.96879 0.0
H955 H 0.92452 0.02863 0.97931 0.0
H956 H 0.01732 0.05127 0.04982 0.0
H957 H 0.98541 0.0434 0.02391 0.0
H958 H 0.96171 0.95254 0.02043 0.0
C959 C 0.90518 0.95818 0.95705 0.0
C960 C 0.93209 0.0119 0.98847 0.0
C961 C 0.89884 0.95212 0.93755 0.0
C962 C 0.0045 0.0332 0.05085 0.0
C963 C 0.98601 0.02871 0.03602 0.0
C964 C 0.95279 0.96933 0.01206 0.0
C965 C 0.92471 0.97803 0.9613 0.0
C966 C 0.9321 0.98424 0.98173 0.0
C967 C 0.97015 0.00452 0.03608 0.0
C968 C 0.95418 0.99726 0.01851 0.0
H969 H 0.94298 0.99539 0.91483 0.0
H970 H 0.9536 0.0064 0.9489 0.0
H971 H 0.94197 0.94142 0.98886 0.0
H972 H -0.00711 0.9747 0.07826 0.0
H973 H 0.95973 0.96748 0.05289 0.0
C974 C 0.49247 0.06719 0.94128 0.0
C975 C 0.51666 0.05574 0.9354 0.0
C976 C 0.48445 0.06536 0.96085 0.0
C977 C 0.50615 0.04137 0.01101 0.0
H978 H 0.43165 0.02422 0.01605 0.0
C979 C 0.45618 0.97316 0.07147 0.0
C980 C 0.43297 0.98413 0.07976 0.0
C981 C 0.4691 0.98747 0.05632 0.0
C982 C 0.45244 0.02932 0.01491 0.0
H983 H 0.55209 0.03465 0.94532 0.0
H984 H 0.53754 0.02982 0.97912 0.0
H985 H 0.44879 0.03982 0.98469 0.0
H986 H 0.40601 0.0195 0.07936 0.0
H987 H 0.42825 0.04389 0.05266 0.0
H988 H 0.50964 0.0286 0.04119 0.0
C989 C 0.52499 0.04112 0.96899 0.0
C990 C 0.46232 0.03853 -0.00306 0.0
C991 C 0.53331 0.04369 0.94953 0.0
C992 C 0.42375 0.01033 0.07326 0.0
C993 C 0.43643 0.02436 0.05799 0.0
C994 C 0.49628 0.0315 0.02893 0.0
C995 C 0.50008 0.0512 0.9748 0.0
C996 C 0.48938 0.0444 -0.00537 0.0
C997 C 0.45882 0.01275 0.04911 0.0
C998 C 0.46938 0.02521 0.03091 0.0
H999 H 0.47949 0.07701 0.93067 0.0
H1000 H 0.46556 0.07426 0.96486 0.0
H1001 H 0.52699 0.04615 0.00996 0.0
H1002 H 0.46389 0.95314 0.07624 0.0
H1003 H 0.4863 0.97808 0.04955 0.0
C1004 C 0.42333 0.0789 0.53189 0.0
C1005 C 0.43923 0.09167 0.54611 0.0
C1006 C 0.43145 0.07814 0.51231 0.0
C1007 C 0.49368 0.08308 0.4838 0.0
H1008 H 0.44665 0.06868 0.44006 0.0
C1009 C 0.53359 0.05741 0.40764 0.0
C1010 C 0.52733 0.02973 0.40247 0.0
C1011 C 0.51944 0.07105 0.42233 0.0
C1012 C 0.45991 0.07296 0.45216 0.0
H1013 H 0.4746 0.116 0.55102 0.0
H1014 H 0.48794 0.11654 0.51666 0.0
H1015 H 0.42837 0.08405 0.47147 0.0
H1016 H 0.49988 0.99561 0.40744 0.0
H1017 H 0.47484 0.01983 0.43299 0.0
H1018 H 0.52515 0.07227 0.46434 0.0
C1019 C 0.46997 0.10566 0.52062 0.0
C1020 C 0.44953 0.08152 0.4702 0.0
C1021 C 0.46226 0.10562 0.54029 0.0
C1022 C 0.50531 0.01682 0.41122 0.0
C1023 C 0.49087 0.03071 0.42571 0.0
C1024 C 0.50401 0.07525 0.4657 0.0
C1025 C 0.45532 0.0908 0.50649 0.0
C1026 C 0.46624 0.08594 0.48645 0.0
C1027 C 0.49846 0.05751 0.43183 0.0
C1028 C 0.48721 0.06947 0.4499 0.0
H1029 H 0.40548 0.06793 0.53609 0.0
H1030 H 0.41969 0.0662 0.50207 0.0
H1031 H 0.50729 0.08551 0.49591 0.0
H1032 H 0.55037 0.06803 0.40117 0.0
H1033 H 0.52557 0.09175 0.42686 0.0
C1034 C 0.03258 0.94206 0.5449 0.0
C1035 C 0.05886 0.94271 0.55139 0.0
C1036 C 0.02684 0.94325 0.5249 0.0
C1037 C 0.02041 0.93422 0.48124 0.0
H1038 H 0.05322 0.99544 0.45278 0.0
C1039 C 0.98379 0.96389 0.40486 0.0
C1040 C 0.97711 0.99232 0.40307 0.0
C1041 C 0.00011 0.95475 0.42007 0.0
C1042 C 0.04405 0.97813 0.46049 0.0
H1043 H 0.0998 0.94418 0.54205 0.0
H1044 H 0.08967 0.94645 0.50699 0.0
H1045 H 0.06872 0.98344 0.48572 0.0
H1046 H 0.9841 0.03374 0.41491 0.0
H1047 H 0.01222 0.01772 0.44162 0.0
H1048 H -0.00521 0.9298 0.45658 0.0
C1049 C 0.07358 0.94507 0.51743 0.0
C1050 C 0.05307 0.9711 0.47925 0.0
C1051 C 0.07934 0.94363 0.53747 0.0
C1052 C 0.98873 0.01167 0.41592 0.0
C1053 C 0.005 0.0025 0.43118 0.0
C1054 C 0.01147 0.94116 0.46249 0.0
C1055 C 0.04725 0.94528 0.51099 0.0
C1056 C 0.04076 0.94964 0.49002 0.0
C1057 C 0.01005 0.97383 0.43383 0.0
C1058 C 0.02268 0.96371 0.45215 0.0
H1059 H 0.01639 0.94132 0.55528 0.0
H1060 H 0.00635 0.94372 0.52038 0.0
H1061 H 0.01076 0.91739 0.48915 0.0
H1062 H 0.97553 0.94846 0.39501 0.0
H1063 H 0.00408 0.93259 0.42152 0.0
C1064 C 0.51629 0.45533 0.08308 0.0
C1065 C 0.52364 0.48359 0.08474 0.0
C1066 C 0.49811 0.44699 0.06887 0.0
C1067 C 0.45058 0.47265 0.03123 0.0
H1068 H 0.48048 0.41292 -0.00011 0.0
C1069 C 0.4558 0.44198 0.94571 0.0
C1070 C 0.42919 0.44364 0.94013 0.0
C1071 C 0.46275 0.44157 0.96551 0.0
C1072 C 0.47175 0.42945 0.00857 0.0
H1073 H 0.51583 0.52552 0.07394 0.0
H1074 H 0.48448 0.51091 0.04898 0.0
H1075 H 0.4992 0.42326 0.03193 0.0
H1076 H 0.38888 0.44526 0.95086 0.0
H1077 H 0.40113 0.44479 0.98559 0.0
H1078 H 0.42412 0.47981 0.00722 0.0
C1079 C 0.49263 0.4952 0.05873 0.0
C1080 C 0.48227 0.43521 0.02703 0.0
C1081 C 0.51077 0.50357 0.07298 0.0
C1082 C 0.40957 0.44397 0.95474 0.0
C1083 C 0.41655 0.44382 0.97459 0.0
C1084 C 0.44 0.46681 0.01274 0.0
C1085 C 0.48692 0.4667 0.05601 0.0
C1086 C 0.47237 0.45747 0.03829 0.0
C1087 C 0.44324 0.443 0.98015 0.0
C1088 C 0.45111 0.44578 0.00098 0.0
H1089 H 0.5255 0.43943 0.09212 0.0
H1090 H 0.49369 0.42494 0.06738 0.0
H1091 H 0.44238 0.48973 0.03966 0.0
H1092 H 0.47135 0.44165 0.93479 0.0
H1093 H 0.4835 0.44129 0.96934 0.0
C1094 C 0.96791 0.54324 0.0875 0.0
C1095 C 0.97604 0.51642 0.09354 0.0
C1096 C 0.97928 0.55592 0.07109 0.0
C1097 C 0.03338 0.55921 0.03671 0.0
H1098 H 0.97986 0.56068 -0.00396 0.0
C1099 C 0.05967 0.56399 0.95454 0.0
C1100 C 0.04091 0.57389 0.94107 0.0
C1101 C 0.05377 0.56284 0.97454 0.0
C1102 C -0.00496 0.5613 0.0072 0.0
H1103 H 0.00425 0.48314 0.08823 0.0
H1104 H 0.02449 0.50579 0.05965 0.0
H1105 H 0.96756 0.54893 0.02943 0.0
H1106 H 0.00224 0.59255 0.93788 0.0
H1107 H -0.00751 0.59244 0.9729 0.0
H1108 H 0.06089 0.57213 0.01468 0.0
C1109 C 0.00909 0.51666 0.0676 0.0
C1110 C 0.98793 0.55429 0.02634 0.0
C1111 C -0.00259 0.50369 0.08387 0.0
C1112 C 0.01686 0.58442 0.948 0.0
C1113 C 0.01124 0.58408 0.96808 0.0
C1114 C 0.04046 0.56697 0.01759 0.0
C1115 C -0.00065 0.54233 0.06069 0.0
C1116 C 0.00708 0.55268 0.04113 0.0
C1117 C 0.0292 0.57228 0.98157 0.0
C1118 C 0.02146 0.56751 0.00245 0.0
H1119 H 0.9516 0.55377 0.09463 0.0
H1120 H 0.97153 0.57575 0.06595 0.0
H1121 H 0.0484 0.55814 0.048 0.0
H1122 H 0.07837 0.55565 0.94951 0.0
H1123 H 0.06804 0.55325 0.98426 0.0
C1124 C 0.95658 0.53555 0.54376 0.0
C1125 C 0.96942 0.54544 0.5606 0.0
C1126 C 0.9708 0.5306 0.52656 0.0
C1127 C 0.03972 0.51824 0.50995 0.0
H1128 H 0.00719 0.52068 0.45843 0.0
C1129 C 0.09497 0.50076 0.43637 0.0
C1130 C 0.08547 0.47755 0.42593 0.0
C1131 C 0.08089 0.51123 0.45236 0.0
C1132 C 0.01642 0.51998 0.47277 0.0
H1133 H 0.0067 0.55974 0.57243 0.0
H1134 H 0.03133 0.55268 0.54212 0.0
H1135 H 0.98267 0.53755 0.4869 0.0
H1136 H 0.05359 0.44747 0.42368 0.0
H1137 H 0.02852 0.46646 0.45141 0.0
H1138 H 0.07376 0.50144 0.49546 0.0
C1139 C 0.01055 0.54745 0.54234 0.0
C1140 C 0.0024 0.52944 0.48911 0.0
C1141 C -0.00358 0.55176 0.55968 0.0
C1142 C 0.06143 0.46526 0.43157 0.0
C1143 C 0.04704 0.47618 0.44728 0.0
C1144 C 0.0539 0.50941 0.49354 0.0
C1145 C -0.00191 0.53604 0.5257 0.0
C1146 C 0.0137 0.52828 0.508 0.0
C1147 C 0.0568 0.49909 0.45784 0.0
C1148 C 0.0422 0.50983 0.47491 0.0
H1149 H 0.93576 0.53037 0.54412 0.0
H1150 H 0.9605 0.52142 0.51425 0.0
H1151 H 0.04898 0.51637 0.5242 0.0
H1152 H 0.11349 0.51058 0.43237 0.0
H1153 H 0.0887 0.52892 0.46038 0.0
C1154 C 0.5193 0.49058 0.5384 0.0
C1155 C 0.50421 0.49175 0.55569 0.0
C1156 C 0.50736 0.49415 0.52011 0.0
C1157 C 0.44975 0.52679 0.49714 0.0
H1158 H 0.46943 0.48188 0.45214 0.0
C1159 C 0.41392 0.50726 0.41253 0.0
C1160 C 0.41181 0.53501 0.40581 0.0
C1161 C 0.42504 0.50136 0.43081 0.0
C1162 C 0.46363 0.49449 0.4646 0.0
H1163 H 0.46465 0.49693 0.56734 0.0
H1164 H 0.44378 0.50312 0.53533 0.0
H1165 H 0.48832 0.47131 0.48429 0.0
H1166 H 0.4199 0.57833 0.41306 0.0
H1167 H 0.43941 0.56794 0.44501 0.0
H1168 H 0.42496 0.54987 0.47748 0.0
C1169 C 0.46489 0.49968 0.53598 0.0
C1170 C 0.47459 0.48858 0.48295 0.0
C1171 C 0.47682 0.49597 0.55429 0.0
C1172 C 0.42119 0.55673 0.41779 0.0
C1173 C 0.43222 0.55081 0.43614 0.0
C1174 C 0.43889 0.53279 0.47877 0.0
C1175 C 0.4801 0.49911 0.51873 0.0
C1176 C 0.4678 0.50471 0.49939 0.0
C1177 C 0.43422 0.52307 0.44283 0.0
C1178 C 0.44576 0.51673 0.46231 0.0
H1179 H 0.54046 0.48758 0.53897 0.0
H1180 H 0.51963 0.49392 0.50708 0.0
H1181 H 0.44438 0.53977 0.50951 0.0
H1182 H 0.40691 0.48998 0.40371 0.0
H1183 H 0.42608 0.47981 0.43567 0.0
loop_
_geom_bond_atom_site_label_1
_geom_bond_atom_site_label_2
_geom_bond_distance
_geom_bond_site_symmetry_2
_ccdc_geom_bond_type
Mg0 O1 2.028 . S
Mg0 O7 1.986 . S
Mg0 O9 2.114 . S
Mg0 O10 2.251 . S
Mg0 O13 2.010 . S
O1 Mg0 2.028 . S
O1 C4 1.250 . S
O2 Mg3 2.028 1_545 S
O2 C4 1.248 . S
Mg3 O2 2.028 1_565 S
Mg3 O8 2.032 . S
Mg3 O10 2.079 1_565 S
C4 O1 1.250 . S
C4 O2 1.248 . S
C5 O6 1.264 . S
C5 O13 1.249 . S
O6 C5 1.264 . S
O7 Mg0 1.986 . S
O7 C11 1.246 . S
O8 Mg3 2.032 . S
O8 C11 1.259 1_565 S
O9 Mg0 2.114 . S
O9 C12 1.252 . S
O10 Mg0 2.251 . S
O10 Mg3 2.079 1_545 S
O10 C12 1.273 . S
C11 O7 1.246 . S
C11 O8 1.259 1_545 S
C12 O9 1.252 . S
C12 O10 1.273 . S
O13 Mg0 2.010 . S
O13 C5 1.249 . S
Mg14 O15 2.028 . S
Mg14 O21 1.986 . S
Mg14 O23 2.114 . S
Mg14 O24 2.251 . S
Mg14 O27 2.010 . S
O15 Mg14 2.028 . S
O15 C18 1.250 . S
O16 Mg17 2.028 1_565 S
O16 C18 1.248 . S
Mg17 O16 2.028 1_545 S
Mg17 O22 2.032 . S
Mg17 O24 2.079 1_545 S
C18 O15 1.250 . S
C18 O16 1.248 . S
C19 O20 1.264 . S
C19 O27 1.249 . S
O20 C19 1.264 . S
O21 Mg14 1.986 . S
O21 C25 1.246 . S
O22 Mg17 2.032 . S
O22 C25 1.259 1_545 S
O23 Mg14 2.114 . S
O23 C26 1.252 . S
O24 Mg14 2.251 . S
O24 Mg17 2.079 1_565 S
O24 C26 1.273 . S
C25 O21 1.246 . S
C25 O22 1.259 1_565 S
C26 O23 1.252 . S
C26 O24 1.273 . S
O27 Mg14 2.010 . S
O27 C19 1.249 . S
Mg28 O29 2.028 . S
Mg28 O35 1.986 . S
Mg28 O37 2.114 . S
Mg28 O38 2.251 . S
Mg28 O41 2.010 . S
O29 Mg28 2.028 . S
O29 C32 1.250 . S
O30 Mg31 2.028 1_565 S
O30 C32 1.248 . S
Mg31 O30 2.028 1_545 S
Mg31 O36 2.032 . S
Mg31 O38 2.079 1_545 S
C32 O29 1.250 . S
C32 O30 1.248 . S
C33 O34 1.264 . S
C33 O41 1.249 . S
O34 C33 1.264 . S
O35 Mg28 1.986 . S
O35 C39 1.246 . S
O36 Mg31 2.032 . S
O36 C39 1.259 1_545 S
O37 Mg28 2.114 . S
O37 C40 1.252 . S
O38 Mg28 2.251 . S
O38 Mg31 2.079 1_565 S
O38 C40 1.273 . S
C39 O35 1.246 . S
C39 O36 1.259 1_565 S
C40 O37 1.252 . S
C40 O38 1.273 . S
O41 Mg28 2.010 . S
O41 C33 1.249 . S
Mg42 O43 2.028 . S
Mg42 O49 1.986 . S
Mg42 O51 2.114 . S
Mg42 O52 2.251 . S
Mg42 O55 2.010 . S
O43 Mg42 2.028 . S
O43 C46 1.250 . S
O44 Mg45 2.028 1_545 S
O44 C46 1.248 . S
Mg45 O44 2.028 1_565 S
Mg45 O50 2.032 . S
Mg45 O52 2.079 1_565 S
C46 O43 1.250 . S
C46 O44 1.248 . S
C47 O48 1.264 . S
C47 O55 1.249 . S
O48 C47 1.264 . S
O49 Mg42 1.986 . S
O49 C53 1.246 . S
O50 Mg45 2.032 . S
O50 C53 1.259 1_565 S
O51 Mg42 2.114 . S
O51 C54 1.252 . S
O52 Mg42 2.251 . S
O52 Mg45 2.079 1_545 S
O52 C54 1.273 . S
C53 O49 1.246 . S
C53 O50 1.259 1_545 S
C54 O51 1.252 . S
C54 O52 1.273 . S
O55 Mg42 2.010 . S
O55 C47 1.249 . S
Mg56 O57 2.028 . S
Mg56 O63 1.986 . S
Mg56 O65 2.114 . S
Mg56 O66 2.251 . S
Mg56 O69 2.010 . S
O57 Mg56 2.028 . S
O57 C60 1.250 . S
O58 Mg59 2.028 . S
O58 C60 1.248 . S
Mg59 O58 2.028 . S
Mg59 O64 2.032 . S
Mg59 O66 2.079 . S
C60 O57 1.250 . S
C60 O58 1.248 . S
C61 O62 1.264 . S
C61 O69 1.249 . S
O62 C61 1.264 . S
O63 Mg56 1.986 . S
O63 C67 1.246 . S
O64 Mg59 2.032 . S
O64 C67 1.259 . S
O65 Mg56 2.114 . S
O65 C68 1.252 . S
O66 Mg56 2.251 . S
O66 Mg59 2.079 . S
O66 C68 1.273 . S
C67 O63 1.246 . S
C67 O64 1.259 . S
C68 O65 1.252 . S
C68 O66 1.273 . S
O69 Mg56 2.010 . S
O69 C61 1.249 . S
Mg70 O71 2.028 . S
Mg70 O77 1.986 . S
Mg70 O79 2.114 . S
Mg70 O80 2.251 . S
Mg70 O83 2.010 . S
O71 Mg70 2.028 . S
O71 C74 1.250 . S
O72 Mg73 2.028 . S
O72 C74 1.248 . S
Mg73 O72 2.028 . S
Mg73 O78 2.032 . S
Mg73 O80 2.079 . S
C74 O71 1.250 . S
C74 O72 1.248 . S
C75 O76 1.264 . S
C75 O83 1.249 . S
O76 C75 1.264 . S
O77 Mg70 1.986 . S
O77 C81 1.246 . S
O78 Mg73 2.032 . S
O78 C81 1.259 . S
O79 Mg70 2.114 . S
O79 C82 1.252 . S
O80 Mg70 2.251 . S
O80 Mg73 2.079 . S
O80 C82 1.273 . S
C81 O77 1.246 . S
C81 O78 1.259 . S
C82 O79 1.252 . S
C82 O80 1.273 . S
O83 Mg70 2.010 . S
O83 C75 1.249 . S
Mg84 O85 2.028 . S
Mg84 O91 1.986 . S
Mg84 O93 2.114 . S
Mg84 O94 2.251 . S
Mg84 O97 2.010 . S
O85 Mg84 2.028 . S
O85 C88 1.250 . S
O86 Mg87 2.028 . S
O86 C88 1.248 . S
Mg87 O86 2.028 . S
Mg87 O92 2.032 . S
Mg87 O94 2.079 . S
C88 O85 1.250 . S
C88 O86 1.248 . S
C89 O90 1.264 . S
C89 O97 1.249 . S
O90 C89 1.264 . S
O91 Mg84 1.986 . S
O91 C95 1.246 . S
O92 Mg87 2.032 . S
O92 C95 1.259 . S
O93 Mg84 2.114 . S
O93 C96 1.252 . S
O94 Mg84 2.251 . S
O94 Mg87 2.079 . S
O94 C96 1.273 . S
C95 O91 1.246 . S
C95 O92 1.259 . S
C96 O93 1.252 . S
C96 O94 1.273 . S
O97 Mg84 2.010 . S
O97 C89 1.249 . S
Mg98 O99 2.028 . S
Mg98 O105 1.986 . S
Mg98 O107 2.114 . S
Mg98 O108 2.251 . S
Mg98 O111 2.010 . S
O99 Mg98 2.028 . S
O99 C102 1.250 . S
O100 Mg101 2.028 . S
O100 C102 1.248 . S
Mg101 O100 2.028 . S
Mg101 O106 2.032 . S
Mg101 O108 2.079 . S
C102 O99 1.250 . S
C102 O100 1.248 . S
C103 O104 1.264 . S
C103 O111 1.249 . S
O104 C103 1.264 . S
O105 Mg98 1.986 . S
O105 C109 1.246 . S
O106 Mg101 2.032 . S
O106 C109 1.259 . S
O107 Mg98 2.114 . S
O107 C110 1.252 . S
O108 Mg98 2.251 . S
O108 Mg101 2.079 . S
O108 C110 1.273 . S
C109 O105 1.246 . S
C109 O106 1.259 . S
C110 O107 1.252 . S
C110 O108 1.273 . S
O111 Mg98 2.010 . S
O111 C103 1.249 . S
Mg112 O113 2.028 . S
Mg112 O119 1.986 . S
Mg112 O121 2.114 . S
Mg112 O122 2.251 . S
Mg112 O125 2.010 . S
O113 Mg112 2.028 . S
O113 C116 1.250 . S
O114 Mg115 2.028 . S
O114 C116 1.248 . S
Mg115 O114 2.028 . S
Mg115 O120 2.032 . S
Mg115 O122 2.079 . S
C116 O113 1.250 . S
C116 O114 1.248 . S
C117 O118 1.264 . S
C117 O125 1.249 . S
O118 C117 1.264 . S
O119 Mg112 1.986 . S
O119 C123 1.246 . S
O120 Mg115 2.032 . S
O120 C123 1.259 . S
O121 Mg112 2.114 . S
O121 C124 1.252 . S
O122 Mg112 2.251 . S
O122 Mg115 2.079 . S
O122 C124 1.273 . S
C123 O119 1.246 . S
C123 O120 1.259 . S
C124 O121 1.252 . S
C124 O122 1.273 . S
O125 Mg112 2.010 . S
O125 C117 1.249 . S
Mg126 O127 2.028 . S
Mg126 O133 1.986 . S
Mg126 O135 2.114 . S
Mg126 O136 2.251 . S
Mg126 O139 2.010 . S
O127 Mg126 2.028 . S
O127 C130 1.250 . S
O128 Mg129 2.028 . S
O128 C130 1.248 . S
Mg129 O128 2.028 . S
Mg129 O134 2.032 . S
Mg129 O136 2.079 . S
C130 O127 1.250 . S
C130 O128 1.248 . S
C131 O132 1.264 . S
C131 O139 1.249 . S
O132 C131 1.264 . S
O133 Mg126 1.986 . S
O133 C137 1.246 . S
O134 Mg129 2.032 . S
O134 C137 1.259 . S
O135 Mg126 2.114 . S
O135 C138 1.252 . S
O136 Mg126 2.251 . S
O136 Mg129 2.079 . S
O136 C138 1.273 . S
C137 O133 1.246 . S
C137 O134 1.259 . S
C138 O135 1.252 . S
C138 O136 1.273 . S
O139 Mg126 2.010 . S
O139 C131 1.249 . S
Mg140 O141 2.028 . S
Mg140 O147 1.986 . S
Mg140 O149 2.114 . S
Mg140 O150 2.251 . S
Mg140 O153 2.010 . S
O141 Mg140 2.028 . S
O141 C144 1.250 . S
O142 Mg143 2.028 . S
O142 C144 1.248 . S
Mg143 O142 2.028 . S
Mg143 O148 2.032 . S
Mg143 O150 2.079 . S
C144 O141 1.250 . S
C144 O142 1.248 . S
C145 O146 1.264 . S
C145 O153 1.249 . S
O146 C145 1.264 . S
O147 Mg140 1.986 . S
O147 C151 1.246 . S
O148 Mg143 2.032 . S
O148 C151 1.259 . S
O149 Mg140 2.114 . S
O149 C152 1.252 . S
O150 Mg140 2.251 . S
O150 Mg143 2.079 . S
O150 C152 1.273 . S
C151 O147 1.246 . S
C151 O148 1.259 . S
C152 O149 1.252 . S
C152 O150 1.273 . S
O153 Mg140 2.010 . S
O153 C145 1.249 . S
Mg154 O155 2.028 . S
Mg154 O161 1.986 . S
Mg154 O163 2.114 . S
Mg154 O164 2.251 . S
Mg154 O167 2.010 . S
O155 Mg154 2.028 . S
O155 C158 1.250 . S
O156 Mg157 2.028 . S
O156 C158 1.248 . S
Mg157 O156 2.028 . S
Mg157 O162 2.032 . S
Mg157 O164 2.079 . S
C158 O155 1.250 . S
C158 O156 1.248 . S
C159 O160 1.264 . S
C159 O167 1.249 . S
O160 C159 1.264 . S
O161 Mg154 1.986 . S
O161 C165 1.246 . S
O162 Mg157 2.032 . S
O162 C165 1.259 . S
O163 Mg154 2.114 . S
O163 C166 1.252 . S
O164 Mg154 2.251 . S
O164 Mg157 2.079 . S
O164 C166 1.273 . S
C165 O161 1.246 . S
C165 O162 1.259 . S
C166 O163 1.252 . S
C166 O164 1.273 . S
O167 Mg154 2.010 . S
O167 C159 1.249 . S
Mg168 O169 2.028 . S
Mg168 O175 1.986 . S
Mg168 O177 2.114 . S
Mg168 O178 2.251 . S
Mg168 O181 2.010 . S
O169 Mg168 2.028 . S
O169 C172 1.250 . S
O170 Mg171 2.028 . S
O170 C172 1.248 . S
Mg171 O170 2.028 . S
Mg171 O176 2.032 . S
Mg171 O178 2.079 . S
C172 O169 1.250 . S
C172 O170 1.248 . S
C173 O174 1.264 . S
C173 O181 1.249 . S
O174 C173 1.264 . S
O175 Mg168 1.986 . S
O175 C179 1.246 . S
O176 Mg171 2.032 . S
O176 C179 1.259 . S
O177 Mg168 2.114 . S
O177 C180 1.252 . S
O178 Mg168 2.251 . S
O178 Mg171 2.079 . S
O178 C180 1.273 . S
C179 O175 1.246 . S
C179 O176 1.259 . S
C180 O177 1.252 . S
C180 O178 1.273 . S
O181 Mg168 2.010 . S
O181 C173 1.249 . S
Mg182 O183 2.028 . S
Mg182 O189 1.986 . S
Mg182 O191 2.114 . S
Mg182 O192 2.251 . S
Mg182 O195 2.010 . S
O183 Mg182 2.028 . S
O183 C186 1.250 . S
O184 Mg185 2.028 . S
O184 C186 1.248 . S
Mg185 O184 2.028 . S
Mg185 O190 2.032 . S
Mg185 O192 2.079 . S
C186 O183 1.250 . S
C186 O184 1.248 . S
C187 O188 1.264 . S
C187 O195 1.249 . S
O188 C187 1.264 . S
O189 Mg182 1.986 . S
O189 C193 1.246 . S
O190 Mg185 2.032 . S
O190 C193 1.259 . S
O191 Mg182 2.114 . S
O191 C194 1.252 . S
O192 Mg182 2.251 . S
O192 Mg185 2.079 . S
O192 C194 1.273 . S
C193 O189 1.246 . S
C193 O190 1.259 . S
C194 O191 1.252 . S
C194 O192 1.273 . S
O195 Mg182 2.010 . S
O195 C187 1.249 . S
Mg196 O197 2.028 . S
Mg196 O203 1.986 . S
Mg196 O205 2.114 . S
Mg196 O206 2.251 . S
Mg196 O209 2.010 . S
O197 Mg196 2.028 . S
O197 C200 1.250 . S
O198 Mg199 2.028 . S
O198 C200 1.248 . S
Mg199 O198 2.028 . S
Mg199 O204 2.032 . S
Mg199 O206 2.079 . S
C200 O197 1.250 . S
C200 O198 1.248 . S
C201 O202 1.264 . S
C201 O209 1.249 . S
O202 C201 1.264 . S
O203 Mg196 1.986 . S
O203 C207 1.246 . S
O204 Mg199 2.032 . S
O204 C207 1.259 . S
O205 Mg196 2.114 . S
O205 C208 1.252 . S
O206 Mg196 2.251 . S
O206 Mg199 2.079 . S
O206 C208 1.273 . S
C207 O203 1.246 . S
C207 O204 1.259 . S
C208 O205 1.252 . S
C208 O206 1.273 . S
O209 Mg196 2.010 . S
O209 C201 1.249 . S
Mg210 O211 2.028 . S
Mg210 O217 1.986 . S
Mg210 O219 2.114 . S
Mg210 O220 2.251 . S
Mg210 O223 2.010 . S
O211 Mg210 2.028 . S
O211 C214 1.250 . S
O212 Mg213 2.028 . S
O212 C214 1.248 . S
Mg213 O212 2.028 . S
Mg213 O218 2.032 . S
Mg213 O220 2.079 . S
C214 O211 1.250 . S
C214 O212 1.248 . S
C215 O216 1.264 . S
C215 O223 1.249 . S
O216 C215 1.264 . S
O217 Mg210 1.986 . S
O217 C221 1.246 . S
O218 Mg213 2.032 . S
O218 C221 1.259 . S
O219 Mg210 2.114 . S
O219 C222 1.252 . S
O220 Mg210 2.251 . S
O220 Mg213 2.079 . S
O220 C222 1.273 . S
C221 O217 1.246 . S
C221 O218 1.259 . S
C222 O219 1.252 . S
C222 O220 1.273 . S
O223 Mg210 2.010 . S
O223 C215 1.249 . S
C224 C225 1.349 . S
C224 C226 1.327 . S
C224 H249 0.950 . S
C225 C224 1.349 . S
C225 C241 1.349 . S
C226 C224 1.327 . S
C226 C245 1.429 . S
C226 H250 0.950 1_565 S
C227 C244 1.574 . S
C227 C246 1.368 . S
C227 H251 0.949 . S
H228 C232 0.949 . S
C229 C230 1.349 . S
C229 C231 1.327 . S
C229 H252 0.950 . S
C230 C229 1.349 . S
C230 C242 1.349 . S
C231 C229 1.327 . S
C231 C247 1.429 . S
C231 H253 0.950 1_545 S
C232 H228 0.949 . S
C232 C240 1.574 . S
C232 C248 1.368 . S
H233 C241 0.950 . S
H234 C239 0.950 . S
H235 C240 0.949 . S
H236 C242 0.950 . S
H237 C243 0.950 . S
H238 C244 0.949 . S
C239 H234 0.950 . S
C239 C241 1.327 . S
C239 C245 1.429 . S
C240 C232 1.574 . S
C240 H235 0.949 . S
C240 C246 1.368 1_545 S
C241 C225 1.349 . S
C241 H233 0.950 . S
C241 C239 1.327 . S
C242 C230 1.349 . S
C242 H236 0.950 . S
C242 C243 1.327 . S
C243 H237 0.950 . S
C243 C242 1.327 . S
C243 C247 1.429 . S
C244 C227 1.574 . S
C244 H238 0.949 . S
C244 C248 1.368 1_565 S
C245 C226 1.429 . S
C245 C239 1.429 . S
C245 C246 1.523 . S
C246 C227 1.368 . S
C246 C240 1.368 1_565 S
C246 C245 1.523 . S
C247 C231 1.429 . S
C247 C243 1.429 . S
C247 C248 1.523 . S
C248 C232 1.368 . S
C248 C244 1.368 1_545 S
C248 C247 1.523 . S
H249 C224 0.950 . S
H250 C226 0.950 1_545 S
H251 C227 0.949 . S
H252 C229 0.950 . S
H253 C231 0.950 1_565 S
C254 C255 1.349 . S
C254 C256 1.327 . S
C254 H279 0.950 . S
C255 C254 1.349 . S
C255 C271 1.349 . S
C256 C254 1.327 . S
C256 C275 1.429 . S
C256 H280 0.950 . S
C257 C274 1.574 . S
C257 C276 1.368 1_545 S
C257 H281 0.949 . S
H258 C262 0.949 . S
C259 C260 1.349 . S
C259 C261 1.327 . S
C259 H282 0.950 . S
C260 C259 1.349 . S
C260 C272 1.349 . S
C261 C259 1.327 . S
C261 C277 1.429 . S
C261 H283 0.950 . S
C262 H258 0.949 . S
C262 C270 1.574 . S
C262 C278 1.368 1_565 S
H263 C271 0.950 . S
H264 C269 0.950 1_545 S
H265 C270 0.949 . S
H266 C272 0.950 . S
H267 C273 0.950 1_565 S
H268 C274 0.949 . S
C269 H264 0.950 1_565 S
C269 C271 1.327 . S
C269 C275 1.429 . S
C270 C262 1.574 . S
C270 H265 0.949 . S
C270 C276 1.368 . S
C271 C255 1.349 . S
C271 H263 0.950 . S
C271 C269 1.327 . S
C272 C260 1.349 . S
C272 H266 0.950 . S
C272 C273 1.327 . S
C273 H267 0.950 1_545 S
C273 C272 1.327 . S
C273 C277 1.429 . S
C274 C257 1.574 . S
C274 H268 0.949 . S
C274 C278 1.368 . S
C275 C256 1.429 . S
C275 C269 1.429 . S
C275 C276 1.523 . S
C276 C257 1.368 1_565 S
C276 C270 1.368 . S
C276 C275 1.523 . S
C277 C261 1.429 . S
C277 C273 1.429 . S
C277 C278 1.523 . S
C278 C262 1.368 1_545 S
C278 C274 1.368 . S
C278 C277 1.523 . S
H279 C254 0.950 . S
H280 C256 0.950 . S
H281 C257 0.949 . S
H282 C259 0.950 . S
H283 C261 0.950 . S
C284 C285 1.349 . S
C284 C286 1.327 . S
C284 H309 0.950 . S
C285 C284 1.349 . S
C285 C301 1.349 . S
C286 C284 1.327 . S
C286 C305 1.429 . S
C286 H310 0.950 . S
C287 C304 1.574 . S
C287 C306 1.368 1_545 S
C287 H311 0.949 . S
H288 C292 0.949 . S
C289 C290 1.349 . S
C289 C291 1.327 . S
C289 H312 0.950 . S
C290 C289 1.349 . S
C290 C302 1.349 . S
C291 C289 1.327 . S
C291 C307 1.429 . S
C291 H313 0.950 . S
C292 H288 0.949 . S
C292 C300 1.574 . S
C292 C308 1.368 1_565 S
H293 C301 0.950 . S
H294 C299 0.950 . S
H295 C300 0.949 . S
H296 C302 0.950 . S
H297 C303 0.950 . S
H298 C304 0.949 . S
C299 H294 0.950 . S
C299 C301 1.327 . S
C299 C305 1.429 . S
C300 C292 1.574 . S
C300 H295 0.949 . S
C300 C306 1.368 . S
C301 C285 1.349 . S
C301 H293 0.950 . S
C301 C299 1.327 . S
C302 C290 1.349 . S
C302 H296 0.950 . S
C302 C303 1.327 . S
C303 H297 0.950 . S
C303 C302 1.327 . S
C303 C307 1.429 . S
C304 C287 1.574 . S
C304 H298 0.949 . S
C304 C308 1.368 . S
C305 C286 1.429 . S
C305 C299 1.429 . S
C305 C306 1.523 . S
C306 C287 1.368 1_565 S
C306 C300 1.368 . S
C306 C305 1.523 . S
C307 C291 1.429 . S
C307 C303 1.429 . S
C307 C308 1.523 . S
C308 C292 1.368 1_545 S
C308 C304 1.368 . S
C308 C307 1.523 . S
H309 C284 0.950 . S
H310 C286 0.950 . S
H311 C287 0.949 . S
H312 C289 0.950 . S
H313 C291 0.950 . S
C314 C315 1.349 . S
C314 C316 1.327 . S
C314 H339 0.950 . S
C315 C314 1.349 . S
C315 C331 1.349 . S
C316 C314 1.327 . S
C316 C335 1.429 . S
C316 H340 0.950 . S
C317 C334 1.574 . S
C317 C336 1.368 . S
C317 H341 0.949 . S
H318 C322 0.949 . S
C319 C320 1.349 . S
C319 C321 1.327 . S
C319 H342 0.950 . S
C320 C319 1.349 . S
C320 C332 1.349 . S
C321 C319 1.327 . S
C321 C337 1.429 . S
C321 H343 0.950 . S
C322 H318 0.949 . S
C322 C330 1.574 . S
C322 C338 1.368 . S
H323 C331 0.950 . S
H324 C329 0.950 . S
H325 C330 0.949 . S
H326 C332 0.950 . S
H327 C333 0.950 . S
H328 C334 0.949 . S
C329 H324 0.950 . S
C329 C331 1.327 . S
C329 C335 1.429 . S
C330 C322 1.574 . S
C330 H325 0.949 . S
C330 C336 1.368 1_545 S
C331 C315 1.349 . S
C331 H323 0.950 . S
C331 C329 1.327 . S
C332 C320 1.349 . S
C332 H326 0.950 . S
C332 C333 1.327 . S
C333 H327 0.950 . S
C333 C332 1.327 . S
C333 C337 1.429 . S
C334 C317 1.574 . S
C334 H328 0.949 . S
C334 C338 1.368 1_565 S
C335 C316 1.429 . S
C335 C329 1.429 . S
C335 C336 1.523 . S
C336 C317 1.368 . S
C336 C330 1.368 1_565 S
C336 C335 1.523 . S
C337 C321 1.429 . S
C337 C333 1.429 . S
C337 C338 1.523 . S
C338 C322 1.368 . S
C338 C334 1.368 1_545 S
C338 C337 1.523 . S
H339 C314 0.950 . S
H340 C316 0.950 . S
H341 C317 0.949 . S
H342 C319 0.950 . S
H343 C321 0.950 . S
C344 C345 1.349 . S
C344 C346 1.327 . S
C344 H369 0.950 . S
C345 C344 1.349 . S
C345 C361 1.349 . S
C346 C344 1.327 . S
C346 C365 1.429 . S
C346 H370 0.950 . S
C347 C364 1.574 . S
C347 C366 1.368 . S
C347 H371 0.949 . S
H348 C352 0.949 . S
C349 C350 1.349 . S
C349 C351 1.327 . S
C349 H372 0.950 . S
C350 C349 1.349 . S
C350 C362 1.349 . S
C351 C349 1.327 . S
C351 C367 1.429 . S
C351 H373 0.950 . S
C352 H348 0.949 . S
C352 C360 1.574 . S
C352 C368 1.368 . S
H353 C361 0.950 . S
H354 C359 0.950 . S
H355 C360 0.949 . S
H356 C362 0.950 . S
H357 C363 0.950 . S
H358 C364 0.949 . S
C359 H354 0.950 . S
C359 C361 1.327 . S
C359 C365 1.429 . S
C360 C352 1.574 . S
C360 H355 0.949 . S
C360 C366 1.368 . S
C361 C345 1.349 . S
C361 H353 0.950 . S
C361 C359 1.327 . S
C362 C350 1.349 . S
C362 H356 0.950 . S
C362 C363 1.327 . S
C363 H357 0.950 . S
C363 C362 1.327 . S
C363 C367 1.429 . S
C364 C347 1.574 . S
C364 H358 0.949 . S
C364 C368 1.368 . S
C365 C346 1.429 . S
C365 C359 1.429 . S
C365 C366 1.523 . S
C366 C347 1.368 . S
C366 C360 1.368 . S
C366 C365 1.523 . S
C367 C351 1.429 . S
C367 C363 1.429 . S
C367 C368 1.523 . S
C368 C352 1.368 . S
C368 C364 1.368 . S
C368 C367 1.523 . S
H369 C344 0.950 . S
H370 C346 0.950 . S
H371 C347 0.949 . S
H372 C349 0.950 . S
H373 C351 0.950 . S
C374 C375 1.349 . S
C374 C376 1.327 . S
C374 H399 0.950 . S
C375 C374 1.349 . S
C375 C391 1.349 . S
C376 C374 1.327 . S
C376 C395 1.429 . S
C376 H400 0.950 . S
C377 C394 1.574 . S
C377 C396 1.368 . S
C377 H401 0.949 . S
H378 C382 0.949 . S
C379 C380 1.349 . S
C379 C381 1.327 . S
C379 H402 0.950 . S
C380 C379 1.349 . S
C380 C392 1.349 . S
C381 C379 1.327 . S
C381 C397 1.429 . S
C381 H403 0.950 . S
C382 H378 0.949 . S
C382 C390 1.574 . S
C382 C398 1.368 . S
H383 C391 0.950 . S
H384 C389 0.950 . S
H385 C390 0.949 . S
H386 C392 0.950 . S
H387 C393 0.950 . S
H388 C394 0.949 . S
C389 H384 0.950 . S
C389 C391 1.327 . S
C389 C395 1.429 . S
C390 C382 1.574 . S
C390 H385 0.949 . S
C390 C396 1.368 . S
C391 C375 1.349 . S
C391 H383 0.950 . S
C391 C389 1.327 . S
C392 C380 1.349 . S
C392 H386 0.950 . S
C392 C393 1.327 . S
C393 H387 0.950 . S
C393 C392 1.327 . S
C393 C397 1.429 . S
C394 C377 1.574 . S
C394 H388 0.949 . S
C394 C398 1.368 . S
C395 C376 1.429 . S
C395 C389 1.429 . S
C395 C396 1.523 . S
C396 C377 1.368 . S
C396 C390 1.368 . S
C396 C395 1.523 . S
C397 C381 1.429 . S
C397 C393 1.429 . S
C397 C398 1.523 . S
C398 C382 1.368 . S
C398 C394 1.368 . S
C398 C397 1.523 . S
H399 C374 0.950 . S
H400 C376 0.950 . S
H401 C377 0.949 . S
H402 C379 0.950 . S
H403 C381 0.950 . S
C404 C405 1.349 . S
C404 C406 1.327 . S
C404 H429 0.950 . S
C405 C404 1.349 . S
C405 C421 1.349 . S
C406 C404 1.327 . S
C406 C425 1.429 . S
C406 H430 0.950 . S
C407 C424 1.574 . S
C407 C426 1.368 . S
C407 H431 0.949 . S
H408 C412 0.949 . S
C409 C410 1.349 . S
C409 C411 1.327 . S
C409 H432 0.950 . S
C410 C409 1.349 . S
C410 C422 1.349 . S
C411 C409 1.327 . S
C411 C427 1.429 . S
C411 H433 0.950 . S
C412 H408 0.949 . S
C412 C420 1.574 . S
C412 C428 1.368 . S
H413 C421 0.950 . S
H414 C419 0.950 . S
H415 C420 0.949 . S
H416 C422 0.950 . S
H417 C423 0.950 . S
H418 C424 0.949 . S
C419 H414 0.950 . S
C419 C421 1.327 . S
C419 C425 1.429 . S
C420 C412 1.574 . S
C420 H415 0.949 . S
C420 C426 1.368 . S
C421 C405 1.349 . S
C421 H413 0.950 . S
C421 C419 1.327 . S
C422 C410 1.349 . S
C422 H416 0.950 . S
C422 C423 1.327 . S
C423 H417 0.950 . S
C423 C422 1.327 . S
C423 C427 1.429 . S
C424 C407 1.574 . S
C424 H418 0.949 . S
C424 C428 1.368 . S
C425 C406 1.429 . S
C425 C419 1.429 . S
C425 C426 1.523 . S
C426 C407 1.368 . S
C426 C420 1.368 . S
C426 C425 1.523 . S
C427 C411 1.429 . S
C427 C423 1.429 . S
C427 C428 1.523 . S
C428 C412 1.368 . S
C428 C424 1.368 . S
C428 C427 1.523 . S
H429 C404 0.950 . S
H430 C406 0.950 . S
H431 C407 0.949 . S
H432 C409 0.950 . S
H433 C411 0.950 . S
C434 C435 1.349 . S
C434 C436 1.327 . S
C434 H459 0.950 . S
C435 C434 1.349 . S
C435 C451 1.349 . S
C436 C434 1.327 . S
C436 C455 1.429 . S
C436 H460 0.950 . S
C437 C454 1.574 . S
C437 C456 1.368 . S
C437 H461 0.949 . S
H438 C442 0.949 . S
C439 C440 1.349 . S
C439 C441 1.327 . S
C439 H462 0.950 . S
C440 C439 1.349 . S
C440 C452 1.349 . S
C441 C439 1.327 . S
C441 C457 1.429 . S
C441 H463 0.950 . S
C442 H438 0.949 . S
C442 C450 1.574 . S
C442 C458 1.368 . S
H443 C451 0.950 . S
H444 C449 0.950 . S
H445 C450 0.949 . S
H446 C452 0.950 . S
H447 C453 0.950 . S
H448 C454 0.949 . S
C449 H444 0.950 . S
C449 C451 1.327 . S
C449 C455 1.429 . S
C450 C442 1.574 . S
C450 H445 0.949 . S
C450 C456 1.368 . S
C451 C435 1.349 . S
C451 H443 0.950 . S
C451 C449 1.327 . S
C452 C440 1.349 . S
C452 H446 0.950 . S
C452 C453 1.327 . S
C453 H447 0.950 . S
C453 C452 1.327 . S
C453 C457 1.429 . S
C454 C437 1.574 . S
C454 H448 0.949 . S
C454 C458 1.368 . S
C455 C436 1.429 . S
C455 C449 1.429 . S
C455 C456 1.523 . S
C456 C437 1.368 . S
C456 C450 1.368 . S
C456 C455 1.523 . S
C457 C441 1.429 . S
C457 C453 1.429 . S
C457 C458 1.523 . S
C458 C442 1.368 . S
C458 C454 1.368 . S
C458 C457 1.523 . S
H459 C434 0.950 . S
H460 C436 0.950 . S
H461 C437 0.949 . S
H462 C439 0.950 . S
H463 C441 0.950 . S
C464 C465 1.349 . S
C464 C466 1.327 . S
C464 H489 0.950 1_545 S
C465 C464 1.349 . S
C465 C481 1.349 . S
C466 C464 1.327 . S
C466 C485 1.429 . S
C466 H490 0.950 1_545 S
C467 C484 1.574 . S
C467 C486 1.368 1_455 S
C467 H491 0.949 . S
H468 C472 0.949 1_565 S
C469 C470 1.349 . S
C469 C471 1.327 . S
C469 H492 0.950 . S
C470 C469 1.349 . S
C470 C482 1.349 . S
C471 C469 1.327 . S
C471 C487 1.429 . S
C471 H493 0.950 . S
C472 H468 0.949 1_545 S
C472 C480 1.574 . S
C472 C488 1.368 1_655 S
H473 C481 0.950 . S
H474 C479 0.950 1_455 S
H475 C480 0.949 1_565 S
H476 C482 0.950 1_565 S
H477 C483 0.950 1_665 S
H478 C484 0.949 . S
C479 H474 0.950 1_655 S
C479 C481 1.327 . S
C479 C485 1.429 . S
C480 C472 1.574 . S
C480 H475 0.949 1_545 S
C480 C486 1.368 . S
C481 C465 1.349 . S
C481 H473 0.950 . S
C481 C479 1.327 . S
C482 C470 1.349 . S
C482 H476 0.950 1_545 S
C482 C483 1.327 . S
C483 H477 0.950 1_445 S
C483 C482 1.327 . S
C483 C487 1.429 . S
C484 C467 1.574 . S
C484 H478 0.949 . S
C484 C488 1.368 . S
C485 C466 1.429 . S
C485 C479 1.429 . S
C485 C486 1.523 . S
C486 C467 1.368 1_655 S
C486 C480 1.368 . S
C486 C485 1.523 . S
C487 C471 1.429 . S
C487 C483 1.429 . S
C487 C488 1.523 . S
C488 C472 1.368 1_455 S
C488 C484 1.368 . S
C488 C487 1.523 . S
H489 C464 0.950 1_565 S
H490 C466 0.950 1_565 S
H491 C467 0.949 . S
H492 C469 0.950 . S
H493 C471 0.950 . S
C494 C495 1.349 . S
C494 C496 1.327 . S
C494 H519 0.950 1_565 S
C495 C494 1.349 . S
C495 C511 1.349 . S
C496 C494 1.327 . S
C496 C515 1.429 . S
C496 H520 0.950 1_565 S
C497 C514 1.574 . S
C497 C516 1.368 . S
C497 H521 0.949 . S
H498 C502 0.949 1_545 S
C499 C500 1.349 . S
C499 C501 1.327 . S
C499 H522 0.950 . S
C500 C499 1.349 . S
C500 C512 1.349 . S
C501 C499 1.327 . S
C501 C517 1.429 . S
C501 H523 0.950 . S
C502 H498 0.949 1_565 S
C502 C510 1.574 . S
C502 C518 1.368 . S
H503 C511 0.950 . S
H504 C509 0.950 . S
H505 C510 0.949 1_545 S
H506 C512 0.950 1_545 S
H507 C513 0.950 1_545 S
H508 C514 0.949 . S
C509 H504 0.950 . S
C509 C511 1.327 . S
C509 C515 1.429 . S
C510 C502 1.574 . S
C510 H505 0.949 1_565 S
C510 C516 1.368 . S
C511 C495 1.349 . S
C511 H503 0.950 . S
C511 C509 1.327 . S
C512 C500 1.349 . S
C512 H506 0.950 1_565 S
C512 C513 1.327 . S
C513 H507 0.950 1_565 S
C513 C512 1.327 . S
C513 C517 1.429 . S
C514 C497 1.574 . S
C514 H508 0.949 . S
C514 C518 1.368 . S
C515 C496 1.429 . S
C515 C509 1.429 . S
C515 C516 1.523 . S
C516 C497 1.368 . S
C516 C510 1.368 . S
C516 C515 1.523 . S
C517 C501 1.429 . S
C517 C513 1.429 . S
C517 C518 1.523 . S
C518 C502 1.368 . S
C518 C514 1.368 . S
C518 C517 1.523 . S
H519 C494 0.950 1_545 S
H520 C496 0.950 1_545 S
H521 C497 0.949 . S
H522 C499 0.950 . S
H523 C501 0.950 . S
C524 C525 1.349 . S
C524 C526 1.327 . S
C524 H549 0.950 . S
C525 C524 1.349 . S
C525 C541 1.349 . S
C526 C524 1.327 . S
C526 C545 1.429 . S
C526 H550 0.950 . S
C527 C544 1.574 . S
C527 C546 1.368 1_655 S
C527 H551 0.949 . S
H528 C532 0.949 . S
C529 C530 1.349 . S
C529 C531 1.327 . S
C529 H552 0.950 . S
C530 C529 1.349 . S
C530 C542 1.349 . S
C531 C529 1.327 . S
C531 C547 1.429 . S
C531 H553 0.950 . S
C532 H528 0.949 . S
C532 C540 1.574 . S
C532 C548 1.368 1_455 S
H533 C541 0.950 . S
H534 C539 0.950 1_655 S
H535 C540 0.949 . S
H536 C542 0.950 . S
H537 C543 0.950 1_455 S
H538 C544 0.949 . S
C539 H534 0.950 1_455 S
C539 C541 1.327 . S
C539 C545 1.429 . S
C540 C532 1.574 . S
C540 H535 0.949 . S
C540 C546 1.368 . S
C541 C525 1.349 . S
C541 H533 0.950 . S
C541 C539 1.327 . S
C542 C530 1.349 . S
C542 H536 0.950 . S
C542 C543 1.327 . S
C543 H537 0.950 1_655 S
C543 C542 1.327 . S
C543 C547 1.429 . S
C544 C527 1.574 . S
C544 H538 0.949 . S
C544 C548 1.368 . S
C545 C526 1.429 . S
C545 C539 1.429 . S
C545 C546 1.523 . S
C546 C527 1.368 1_455 S
C546 C540 1.368 . S
C546 C545 1.523 . S
C547 C531 1.429 . S
C547 C543 1.429 . S
C547 C548 1.523 . S
C548 C532 1.368 1_655 S
C548 C544 1.368 . S
C548 C547 1.523 . S
H549 C524 0.950 . S
H550 C526 0.950 . S
H551 C527 0.949 . S
H552 C529 0.950 . S
H553 C531 0.950 . S
C554 C555 1.349 . S
C554 C556 1.327 . S
C554 H579 0.950 . S
C555 C554 1.349 . S
C555 C571 1.349 . S
C556 C554 1.327 . S
C556 C575 1.429 . S
C556 H580 0.950 . S
C557 C574 1.574 . S
C557 C576 1.368 . S
C557 H581 0.949 . S
H558 C562 0.949 . S
C559 C560 1.349 . S
C559 C561 1.327 . S
C559 H582 0.950 . S
C560 C559 1.349 . S
C560 C572 1.349 . S
C561 C559 1.327 . S
C561 C577 1.429 . S
C561 H583 0.950 . S
C562 H558 0.949 . S
C562 C570 1.574 . S
C562 C578 1.368 . S
H563 C571 0.950 . S
H564 C569 0.950 . S
H565 C570 0.949 . S
H566 C572 0.950 . S
H567 C573 0.950 . S
H568 C574 0.949 . S
C569 H564 0.950 . S
C569 C571 1.327 . S
C569 C575 1.429 . S
C570 C562 1.574 . S
C570 H565 0.949 . S
C570 C576 1.368 . S
C571 C555 1.349 . S
C571 H563 0.950 . S
C571 C569 1.327 . S
C572 C560 1.349 . S
C572 H566 0.950 . S
C572 C573 1.327 . S
C573 H567 0.950 . S
C573 C572 1.327 . S
C573 C577 1.429 . S
C574 C557 1.574 . S
C574 H568 0.949 . S
C574 C578 1.368 . S
C575 C556 1.429 . S
C575 C569 1.429 . S
C575 C576 1.523 . S
C576 C557 1.368 . S
C576 C570 1.368 . S
C576 C575 1.523 . S
C577 C561 1.429 . S
C577 C573 1.429 . S
C577 C578 1.523 . S
C578 C562 1.368 . S
C578 C574 1.368 . S
C578 C577 1.523 . S
H579 C554 0.950 . S
H580 C556 0.950 . S
H581 C557 0.949 . S
H582 C559 0.950 . S
H583 C561 0.950 . S
C584 C585 1.349 . S
C584 C586 1.327 . S
C584 H609 0.950 . S
C585 C584 1.349 . S
C585 C601 1.349 . S
C586 C584 1.327 . S
C586 C605 1.429 . S
C586 H610 0.950 . S
C587 C604 1.574 . S
C587 C606 1.368 . S
C587 H611 0.949 . S
H588 C592 0.949 . S
C589 C590 1.349 . S
C589 C591 1.327 . S
C589 H612 0.950 . S
C590 C589 1.349 . S
C590 C602 1.349 . S
C591 C589 1.327 . S
C591 C607 1.429 . S
C591 H613 0.950 . S
C592 H588 0.949 . S
C592 C600 1.574 . S
C592 C608 1.368 . S
H593 C601 0.950 . S
H594 C599 0.950 . S
H595 C600 0.949 . S
H596 C602 0.950 . S
H597 C603 0.950 . S
H598 C604 0.949 . S
C599 H594 0.950 . S
C599 C601 1.327 . S
C599 C605 1.429 . S
C600 C592 1.574 . S
C600 H595 0.949 . S
C600 C606 1.368 . S
C601 C585 1.349 . S
C601 H593 0.950 . S
C601 C599 1.327 . S
C602 C590 1.349 . S
C602 H596 0.950 . S
C602 C603 1.327 . S
C603 H597 0.950 . S
C603 C602 1.327 . S
C603 C607 1.429 . S
C604 C587 1.574 . S
C604 H598 0.949 . S
C604 C608 1.368 . S
C605 C586 1.429 . S
C605 C599 1.429 . S
C605 C606 1.523 . S
C606 C587 1.368 . S
C606 C600 1.368 . S
C606 C605 1.523 . S
C607 C591 1.429 . S
C607 C603 1.429 . S
C607 C608 1.523 . S
C608 C592 1.368 . S
C608 C604 1.368 . S
C608 C607 1.523 . S
H609 C584 0.950 . S
H610 C586 0.950 . S
H611 C587 0.949 . S
H612 C589 0.950 . S
H613 C591 0.950 . S
C614 C615 1.349 . S
C614 C616 1.327 . S
C614 H639 0.950 . S
C615 C614 1.349 . S
C615 C631 1.349 . S
C616 C614 1.327 . S
C616 C635 1.429 . S
C616 H640 0.950 1_455 S
C617 C634 1.574 . S
C617 C636 1.368 . S
C617 H641 0.949 . S
H618 C622 0.949 . S
C619 C620 1.349 . S
C619 C621 1.327 . S
C619 H642 0.950 . S
C620 C619 1.349 . S
C620 C632 1.349 . S
C621 C619 1.327 . S
C621 C637 1.429 . S
C621 H643 0.950 1_655 S
C622 H618 0.949 . S
C622 C630 1.574 . S
C622 C638 1.368 . S
H623 C631 0.950 . S
H624 C629 0.950 . S
H625 C630 0.949 . S
H626 C632 0.950 . S
H627 C633 0.950 . S
H628 C634 0.949 . S
C629 H624 0.950 . S
C629 C631 1.327 . S
C629 C635 1.429 . S
C630 C622 1.574 . S
C630 H625 0.949 . S
C630 C636 1.368 1_655 S
C631 C615 1.349 . S
C631 H623 0.950 . S
C631 C629 1.327 . S
C632 C620 1.349 . S
C632 H626 0.950 . S
C632 C633 1.327 . S
C633 H627 0.950 . S
C633 C632 1.327 . S
C633 C637 1.429 . S
C634 C617 1.574 . S
C634 H628 0.949 . S
C634 C638 1.368 1_455 S
C635 C616 1.429 . S
C635 C629 1.429 . S
C635 C636 1.523 . S
C636 C617 1.368 . S
C636 C630 1.368 1_455 S
C636 C635 1.523 . S
C637 C621 1.429 . S
C637 C633 1.429 . S
C637 C638 1.523 . S
C638 C622 1.368 . S
C638 C634 1.368 1_655 S
C638 C637 1.523 . S
H639 C614 0.950 . S
H640 C616 0.950 1_655 S
H641 C617 0.949 . S
H642 C619 0.950 . S
H643 C621 0.950 1_455 S
C644 C645 1.349 . S
C644 C646 1.327 . S
C644 H669 0.950 . S
C645 C644 1.349 . S
C645 C661 1.349 . S
C646 C644 1.327 . S
C646 C665 1.429 . S
C646 H670 0.950 . S
C647 C664 1.574 . S
C647 C666 1.368 . S
C647 H671 0.949 . S
H648 C652 0.949 . S
C649 C650 1.349 . S
C649 C651 1.327 . S
C649 H672 0.950 . S
C650 C649 1.349 . S
C650 C662 1.349 . S
C651 C649 1.327 . S
C651 C667 1.429 . S
C651 H673 0.950 . S
C652 H648 0.949 . S
C652 C660 1.574 . S
C652 C668 1.368 . S
H653 C661 0.950 . S
H654 C659 0.950 . S
H655 C660 0.949 . S
H656 C662 0.950 . S
H657 C663 0.950 . S
H658 C664 0.949 . S
C659 H654 0.950 . S
C659 C661 1.327 . S
C659 C665 1.429 . S
C660 C652 1.574 . S
C660 H655 0.949 . S
C660 C666 1.368 . S
C661 C645 1.349 . S
C661 H653 0.950 . S
C661 C659 1.327 . S
C662 C650 1.349 . S
C662 H656 0.950 . S
C662 C663 1.327 . S
C663 H657 0.950 . S
C663 C662 1.327 . S
C663 C667 1.429 . S
C664 C647 1.574 . S
C664 H658 0.949 . S
C664 C668 1.368 . S
C665 C646 1.429 . S
C665 C659 1.429 . S
C665 C666 1.523 . S
C666 C647 1.368 . S
C666 C660 1.368 . S
C666 C665 1.523 . S
C667 C651 1.429 . S
C667 C663 1.429 . S
C667 C668 1.523 . S
C668 C652 1.368 . S
C668 C664 1.368 . S
C668 C667 1.523 . S
H669 C644 0.950 . S
H670 C646 0.950 . S
H671 C647 0.949 . S
H672 C649 0.950 . S
H673 C651 0.950 . S
C674 C675 1.349 . S
C674 C676 1.327 . S
C674 H699 0.950 . S
C675 C674 1.349 . S
C675 C691 1.349 . S
C676 C674 1.327 . S
C676 C695 1.429 . S
C676 H700 0.950 . S
C677 C694 1.574 . S
C677 C696 1.368 1_655 S
C677 H701 0.949 . S
H678 C682 0.949 . S
C679 C680 1.349 . S
C679 C681 1.327 . S
C679 H702 0.950 . S
C680 C679 1.349 . S
C680 C692 1.349 . S
C681 C679 1.327 . S
C681 C697 1.429 . S
C681 H703 0.950 . S
C682 H678 0.949 . S
C682 C690 1.574 . S
C682 C698 1.368 1_455 S
H683 C691 0.950 . S
H684 C689 0.950 1_655 S
H685 C690 0.949 . S
H686 C692 0.950 . S
H687 C693 0.950 1_455 S
H688 C694 0.949 . S
C689 H684 0.950 1_455 S
C689 C691 1.327 . S
C689 C695 1.429 . S
C690 C682 1.574 . S
C690 H685 0.949 . S
C690 C696 1.368 . S
C691 C675 1.349 . S
C691 H683 0.950 . S
C691 C689 1.327 . S
C692 C680 1.349 . S
C692 H686 0.950 . S
C692 C693 1.327 . S
C693 H687 0.950 1_655 S
C693 C692 1.327 . S
C693 C697 1.429 . S
C694 C677 1.574 . S
C694 H688 0.949 . S
C694 C698 1.368 . S
C695 C676 1.429 . S
C695 C689 1.429 . S
C695 C696 1.523 . S
C696 C677 1.368 1_455 S
C696 C690 1.368 . S
C696 C695 1.523 . S
C697 C681 1.429 . S
C697 C693 1.429 . S
C697 C698 1.523 . S
C698 C682 1.368 1_655 S
C698 C694 1.368 . S
C698 C697 1.523 . S
H699 C674 0.950 . S
H700 C676 0.950 . S
H701 C677 0.949 . S
H702 C679 0.950 . S
H703 C681 0.950 . S
C704 C705 1.349 . S
C704 C706 1.327 . S
C704 H729 0.950 . S
C705 C704 1.349 . S
C705 C721 1.349 . S
C706 C704 1.327 . S
C706 C725 1.429 . S
C706 H730 0.950 . S
C707 C724 1.574 . S
C707 C726 1.368 1_655 S
C707 H731 0.949 . S
H708 C712 0.949 . S
C709 C710 1.349 . S
C709 C711 1.327 . S
C709 H732 0.950 . S
C710 C709 1.349 . S
C710 C722 1.349 . S
C711 C709 1.327 . S
C711 C727 1.429 . S
C711 H733 0.950 . S
C712 H708 0.949 . S
C712 C720 1.574 . S
C712 C728 1.368 1_455 S
H713 C721 0.950 . S
H714 C719 0.967 . S
H715 C720 0.949 . S
H716 C722 0.950 . S
H717 C723 0.967 . S
H718 C724 0.949 . S
C719 H714 0.967 . S
C719 C721 1.327 . S
C719 C725 1.429 . S
C720 C712 1.574 . S
C720 H715 0.949 . S
C720 C726 1.368 . S
C721 C705 1.349 . S
C721 H713 0.950 . S
C721 C719 1.327 . S
C722 C710 1.349 . S
C722 H716 0.950 . S
C722 C723 1.327 . S
C723 H717 0.967 . S
C723 C722 1.327 . S
C723 C727 1.429 . S
C724 C707 1.574 . S
C724 H718 0.949 . S
C724 C728 1.368 . S
C725 C706 1.429 . S
C725 C719 1.429 . S
C725 C726 1.523 . S
C726 C707 1.368 1_455 S
C726 C720 1.368 . S
C726 C725 1.523 . S
C727 C711 1.429 . S
C727 C723 1.429 . S
C727 C728 1.523 . S
C728 C712 1.368 1_655 S
C728 C724 1.368 . S
C728 C727 1.523 . S
H729 C704 0.950 . S
H730 C706 0.950 . S
H731 C707 0.949 . S
H732 C709 0.950 . S
H733 C711 0.950 . S
C734 C735 1.349 . S
C734 C736 1.327 . S
C734 H759 0.950 . S
C735 C734 1.349 . S
C735 C751 1.349 . S
C736 C734 1.327 . S
C736 C755 1.429 . S
C736 H760 0.950 . S
C737 C754 1.574 . S
C737 C756 1.368 . S
C737 H761 0.949 . S
H738 C742 0.949 . S
C739 C740 1.349 . S
C739 C741 1.327 . S
C739 H762 0.950 . S
C740 C739 1.349 . S
C740 C752 1.349 . S
C741 C739 1.327 . S
C741 C757 1.429 . S
C741 H763 0.950 . S
C742 H738 0.949 . S
C742 C750 1.574 . S
C742 C758 1.368 . S
H743 C751 0.950 . S
H744 C749 0.950 . S
H745 C750 0.949 . S
H746 C752 0.950 . S
H747 C753 0.950 . S
H748 C754 0.949 . S
C749 H744 0.950 . S
C749 C751 1.327 . S
C749 C755 1.429 . S
C750 C742 1.574 . S
C750 H745 0.949 . S
C750 C756 1.368 . S
C751 C735 1.349 . S
C751 H743 0.950 . S
C751 C749 1.327 . S
C752 C740 1.349 . S
C752 H746 0.950 . S
C752 C753 1.327 . S
C753 H747 0.950 . S
C753 C752 1.327 . S
C753 C757 1.429 . S
C754 C737 1.574 . S
C754 H748 0.949 . S
C754 C758 1.368 . S
C755 C736 1.429 . S
C755 C749 1.429 . S
C755 C756 1.523 . S
C756 C737 1.368 . S
C756 C750 1.368 . S
C756 C755 1.523 . S
C757 C741 1.429 . S
C757 C753 1.429 . S
C757 C758 1.523 . S
C758 C742 1.368 . S
C758 C754 1.368 . S
C758 C757 1.523 . S
H759 C734 0.950 . S
H760 C736 0.950 . S
H761 C737 0.949 . S
H762 C739 0.950 . S
H763 C741 0.950 . S
C764 C765 1.349 . S
C764 C766 1.327 . S
C764 H789 0.950 . S
C765 C764 1.349 . S
C765 C781 1.349 . S
C766 C764 1.327 . S
C766 C785 1.429 . S
C766 H790 0.950 . S
C767 C784 1.574 . S
C767 C786 1.368 . S
C767 H791 0.949 . S
H768 C772 0.949 . S
C769 C770 1.349 . S
C769 C771 1.327 . S
C769 H792 0.950 . S
C770 C769 1.349 . S
C770 C782 1.349 . S
C771 C769 1.327 . S
C771 C787 1.429 . S
C771 H793 0.950 . S
C772 H768 0.949 . S
C772 C780 1.574 . S
C772 C788 1.368 . S
H773 C781 0.950 . S
H774 C779 0.950 . S
H775 C780 0.949 . S
H776 C782 0.950 . S
H777 C783 0.950 . S
H778 C784 0.949 . S
C779 H774 0.950 . S
C779 C781 1.327 . S
C779 C785 1.429 . S
C780 C772 1.574 . S
C780 H775 0.949 . S
C780 C786 1.368 . S
C781 C765 1.349 . S
C781 H773 0.950 . S
C781 C779 1.327 . S
C782 C770 1.349 . S
C782 H776 0.950 . S
C782 C783 1.327 . S
C783 H777 0.950 . S
C783 C782 1.327 . S
C783 C787 1.429 . S
C784 C767 1.574 . S
C784 H778 0.949 . S
C784 C788 1.368 . S
C785 C766 1.429 . S
C785 C779 1.429 . S
C785 C786 1.523 . S
C786 C767 1.368 . S
C786 C780 1.368 . S
C786 C785 1.523 . S
C787 C771 1.429 . S
C787 C783 1.429 . S
C787 C788 1.523 . S
C788 C772 1.368 . S
C788 C784 1.368 . S
C788 C787 1.523 . S
H789 C764 0.950 . S
H790 C766 0.950 . S
H791 C767 0.949 . S
H792 C769 0.950 . S
H793 C771 0.950 . S
C794 C795 1.349 . S
C794 C796 1.327 . S
C794 H819 0.950 . S
C795 C794 1.349 . S
C795 C811 1.349 . S
C796 C794 1.327 . S
C796 C815 1.429 . S
C796 H820 0.967 . S
C797 C814 1.574 . S
C797 C816 1.368 . S
C797 H821 0.949 . S
H798 C802 0.949 . S
C799 C800 1.349 . S
C799 C801 1.327 . S
C799 H822 0.950 . S
C800 C799 1.349 . S
C800 C812 1.349 . S
C801 C799 1.327 . S
C801 C817 1.429 . S
C801 H823 0.967 . S
C802 H798 0.949 . S
C802 C810 1.574 . S
C802 C818 1.368 . S
H803 C811 0.950 . S
H804 C809 0.950 . S
H805 C810 0.949 . S
H806 C812 0.950 . S
H807 C813 0.950 . S
H808 C814 0.949 . S
C809 H804 0.950 . S
C809 C811 1.327 . S
C809 C815 1.429 . S
C810 C802 1.574 . S
C810 H805 0.949 . S
C810 C816 1.368 1_655 S
C811 C795 1.349 . S
C811 H803 0.950 . S
C811 C809 1.327 . S
C812 C800 1.349 . S
C812 H806 0.950 . S
C812 C813 1.327 . S
C813 H807 0.950 . S
C813 C812 1.327 . S
C813 C817 1.429 . S
C814 C797 1.574 . S
C814 H808 0.949 . S
C814 C818 1.368 1_455 S
C815 C796 1.429 . S
C815 C809 1.429 . S
C815 C816 1.523 . S
C816 C797 1.368 . S
C816 C810 1.368 1_455 S
C816 C815 1.523 . S
C817 C801 1.429 . S
C817 C813 1.429 . S
C817 C818 1.523 . S
C818 C802 1.368 . S
C818 C814 1.368 1_655 S
C818 C817 1.523 . S
H819 C794 0.950 . S
H820 C796 0.967 . S
H821 C797 0.949 . S
H822 C799 0.950 . S
H823 C801 0.967 . S
C824 C825 1.349 . S
C824 C826 1.327 . S
C824 H849 0.950 . S
C825 C824 1.349 . S
C825 C841 1.349 . S
C826 C824 1.327 . S
C826 C845 1.429 . S
C826 H850 0.950 . S
C827 C844 1.574 . S
C827 C846 1.368 . S
C827 H851 0.949 . S
H828 C832 0.949 . S
C829 C830 1.349 . S
C829 C831 1.327 . S
C829 H852 0.950 . S
C830 C829 1.349 . S
C830 C842 1.349 . S
C831 C829 1.327 . S
C831 C847 1.429 . S
C831 H853 0.950 . S
C832 H828 0.949 . S
C832 C840 1.574 . S
C832 C848 1.368 . S
H833 C841 0.950 . S
H834 C839 0.950 . S
H835 C840 0.949 . S
H836 C842 0.950 . S
H837 C843 0.950 . S
H838 C844 0.949 . S
C839 H834 0.950 . S
C839 C841 1.327 . S
C839 C845 1.429 . S
C840 C832 1.574 . S
C840 H835 0.949 . S
C840 C846 1.368 1_655 S
C841 C825 1.349 . S
C841 H833 0.950 . S
C841 C839 1.327 . S
C842 C830 1.349 . S
C842 H836 0.950 . S
C842 C843 1.327 . S
C843 H837 0.950 . S
C843 C842 1.327 . S
C843 C847 1.429 . S
C844 C827 1.574 . S
C844 H838 0.949 . S
C844 C848 1.368 1_455 S
C845 C826 1.429 . S
C845 C839 1.429 . S
C845 C846 1.523 . S
C846 C827 1.368 . S
C846 C840 1.368 1_455 S
C846 C845 1.523 . S
C847 C831 1.429 . S
C847 C843 1.429 . S
C847 C848 1.523 . S
C848 C832 1.368 . S
C848 C844 1.368 1_655 S
C848 C847 1.523 . S
H849 C824 0.950 . S
H850 C826 0.950 . S
H851 C827 0.949 . S
H852 C829 0.950 . S
H853 C831 0.950 . S
C854 C855 1.349 . S
C854 C856 1.327 . S
C854 H879 0.950 . S
C855 C854 1.349 . S
C855 C871 1.349 . S
C856 C854 1.327 . S
C856 C875 1.429 . S
C856 H880 0.950 . S
C857 C874 1.574 . S
C857 C876 1.368 . S
C857 H881 0.949 . S
H858 C862 0.949 . S
C859 C860 1.349 . S
C859 C861 1.327 . S
C859 H882 0.950 . S
C860 C859 1.349 . S
C860 C872 1.349 . S
C861 C859 1.327 . S
C861 C877 1.429 . S
C861 H883 0.950 . S
C862 H858 0.949 . S
C862 C870 1.574 . S
C862 C878 1.368 . S
H863 C871 0.950 . S
H864 C869 0.950 . S
H865 C870 0.949 . S
H866 C872 0.950 . S
H867 C873 0.950 . S
H868 C874 0.949 . S
C869 H864 0.950 . S
C869 C871 1.327 . S
C869 C875 1.429 . S
C870 C862 1.574 . S
C870 H865 0.949 . S
C870 C876 1.368 . S
C871 C855 1.349 . S
C871 H863 0.950 . S
C871 C869 1.327 . S
C872 C860 1.349 . S
C872 H866 0.950 . S
C872 C873 1.327 . S
C873 H867 0.950 . S
C873 C872 1.327 . S
C873 C877 1.429 . S
C874 C857 1.574 . S
C874 H868 0.949 . S
C874 C878 1.368 . S
C875 C856 1.429 . S
C875 C869 1.429 . S
C875 C876 1.523 . S
C876 C857 1.368 . S
C876 C870 1.368 . S
C876 C875 1.523 . S
C877 C861 1.429 . S
C877 C873 1.429 . S
C877 C878 1.523 . S
C878 C862 1.368 . S
C878 C874 1.368 . S
C878 C877 1.523 . S
H879 C854 0.950 . S
H880 C856 0.950 . S
H881 C857 0.949 . S
H882 C859 0.950 . S
H883 C861 0.950 . S
C884 C885 1.349 . S
C884 C886 1.327 . S
C884 H909 0.950 . S
C885 C884 1.349 . S
C885 C901 1.349 . S
C886 C884 1.327 . S
C886 C905 1.429 . S
C886 H910 0.950 . S
C887 C904 1.574 . S
C887 C906 1.368 . S
C887 H911 0.949 . S
H888 C892 0.949 . S
C889 C890 1.349 . S
C889 C891 1.327 . S
C889 H912 0.950 . S
C890 C889 1.349 . S
C890 C902 1.349 . S
C891 C889 1.327 . S
C891 C907 1.429 . S
C891 H913 0.950 . S
C892 H888 0.949 . S
C892 C900 1.574 . S
C892 C908 1.368 . S
H893 C901 0.950 . S
H894 C899 0.950 . S
H895 C900 0.949 . S
H896 C902 0.950 . S
H897 C903 0.950 . S
H898 C904 0.949 . S
C899 H894 0.950 . S
C899 C901 1.327 . S
C899 C905 1.429 . S
C900 C892 1.574 . S
C900 H895 0.949 . S
C900 C906 1.368 . S
C901 C885 1.349 . S
C901 H893 0.950 . S
C901 C899 1.327 . S
C902 C890 1.349 . S
C902 H896 0.950 . S
C902 C903 1.327 . S
C903 H897 0.950 . S
C903 C902 1.327 . S
C903 C907 1.429 . S
C904 C887 1.574 . S
C904 H898 0.949 . S
C904 C908 1.368 . S
C905 C886 1.429 . S
C905 C899 1.429 . S
C905 C906 1.523 . S
C906 C887 1.368 . S
C906 C900 1.368 . S
C906 C905 1.523 . S
C907 C891 1.429 . S
C907 C903 1.429 . S
C907 C908 1.523 . S
C908 C892 1.368 . S
C908 C904 1.368 . S
C908 C907 1.523 . S
H909 C884 0.950 . S
H910 C886 0.950 . S
H911 C887 0.949 . S
H912 C889 0.950 . S
H913 C891 0.950 . S
C914 C915 1.349 . S
C914 C916 1.327 . S
C914 H939 0.950 . S
C915 C914 1.349 . S
C915 C931 1.349 . S
C916 C914 1.327 . S
C916 C935 1.429 . S
C916 H940 0.950 . S
C917 C934 1.574 . S
C917 C936 1.368 1_655 S
C917 H941 0.949 . S
H918 C922 0.949 . S
C919 C920 1.349 . S
C919 C921 1.327 . S
C919 H942 0.950 . S
C920 C919 1.349 . S
C920 C932 1.349 . S
C921 C919 1.327 . S
C921 C937 1.429 . S
C921 H943 0.950 . S
C922 H918 0.949 . S
C922 C930 1.574 . S
C922 C938 1.368 1_455 S
H923 C931 0.950 . S
H924 C929 0.950 . S
H925 C930 0.949 . S
H926 C932 0.950 . S
H927 C933 0.950 . S
H928 C934 0.949 . S
C929 H924 0.950 . S
C929 C931 1.327 . S
C929 C935 1.429 . S
C930 C922 1.574 . S
C930 H925 0.949 . S
C930 C936 1.368 . S
C931 C915 1.349 . S
C931 H923 0.950 . S
C931 C929 1.327 . S
C932 C920 1.349 . S
C932 H926 0.950 . S
C932 C933 1.327 . S
C933 H927 0.950 . S
C933 C932 1.327 . S
C933 C937 1.429 . S
C934 C917 1.574 . S
C934 H928 0.949 . S
C934 C938 1.368 . S
C935 C916 1.429 . S
C935 C929 1.429 . S
C935 C936 1.523 . S
C936 C917 1.368 1_455 S
C936 C930 1.368 . S
C936 C935 1.523 . S
C937 C921 1.429 . S
C937 C933 1.429 . S
C937 C938 1.523 . S
C938 C922 1.368 1_655 S
C938 C934 1.368 . S
C938 C937 1.523 . S
H939 C914 0.950 . S
H940 C916 0.950 . S
H941 C917 0.949 . S
H942 C919 0.950 . S
H943 C921 0.950 . S
C944 C945 1.349 . S
C944 C946 1.327 . S
C944 H969 0.937 1_565 S
C945 C944 1.349 . S
C945 C961 1.349 . S
C946 C944 1.327 . S
C946 C965 1.429 . S
C946 H970 0.950 1_565 S
C947 C964 1.574 1_556 S
C947 C966 1.368 1_455 S
C947 H971 0.949 . S
H948 C952 0.949 . S
C949 C950 1.349 1_565 S
C949 C951 1.327 . S
C949 H972 0.950 . S
C950 C949 1.349 1_545 S
C950 C962 1.349 . S
C951 C949 1.327 . S
C951 C967 1.454 . S
C951 H973 0.950 . S
C952 H948 0.949 . S
C952 C960 1.574 1_554 S
C952 C968 1.368 1_645 S
H953 C961 0.950 . S
H954 C959 0.950 1_455 S
H955 C960 0.949 . S
H956 C962 0.950 . S
H957 C963 0.950 1_655 S
H958 C964 0.949 . S
C959 H954 0.950 1_655 S
C959 C961 1.327 . S
C959 C965 1.429 . S
C960 C952 1.574 1_556 S
C960 H955 0.949 . S
C960 C966 1.368 1_545 S
C961 C945 1.349 . S
C961 H953 0.950 . S
C961 C959 1.327 . S
C962 C950 1.349 . S
C962 H956 0.950 . S
C962 C963 1.327 . S
C963 H957 0.950 1_455 S
C963 C962 1.327 . S
C963 C967 1.395 1_545 S
C964 C947 1.574 1_554 S
C964 H958 0.949 . S
C964 C968 1.368 . S
C965 C946 1.429 . S
C965 C959 1.429 . S
C965 C966 1.523 . S
C966 C947 1.368 1_655 S
C966 C960 1.368 1_565 S
C966 C965 1.523 . S
C967 C951 1.454 . S
C967 C963 1.395 1_565 S
C967 C968 1.531 . S
C968 C952 1.368 1_465 S
C968 C964 1.368 . S
C968 C967 1.531 . S
H969 C944 0.937 1_545 S
H970 C946 0.950 1_545 S
H971 C947 0.949 . S
H972 C949 0.950 . S
H973 C951 0.950 . S
C974 C975 1.349 . S
C974 C976 1.327 . S
C974 H999 0.950 . S
C975 C974 1.349 . S
C975 C991 1.349 . S
C976 C974 1.327 . S
C976 C995 1.429 . S
C976 H1000 0.950 . S
C977 C994 1.574 1_556 S
C977 C996 1.368 1_565 S
C977 H1001 0.949 . S
H978 C982 0.949 . S
C979 C980 1.349 . S
C979 C981 1.327 . S
C979 H1002 0.950 . S
C980 C979 1.349 . S
C980 C992 1.349 1_565 S
C981 C979 1.327 . S
C981 C997 1.396 1_565 S
C981 H1003 0.950 . S
C982 H978 0.949 . S
C982 C990 1.574 1_554 S
C982 C998 1.368 . S
H983 C991 0.959 . S
H984 C989 0.950 1_565 S
H985 C990 0.949 . S
H986 C992 0.950 . S
H987 C993 0.950 . S
H988 C994 0.949 . S
C989 H984 0.950 1_545 S
C989 C991 1.327 . S
C989 C995 1.429 . S
C990 C982 1.574 1_556 S
C990 H985 0.949 . S
C990 C996 1.368 . S
C991 C975 1.349 . S
C991 H983 0.959 . S
C991 C989 1.327 . S
C992 C980 1.349 1_545 S
C992 H986 0.950 . S
C992 C993 1.327 . S
C993 H987 0.950 . S
C993 C992 1.327 . S
C993 C997 1.453 . S
C994 C977 1.574 1_554 S
C994 H988 0.949 . S
C994 C998 1.368 1_565 S
C995 C976 1.429 . S
C995 C989 1.429 . S
C995 C996 1.523 . S
C996 C977 1.368 1_545 S
C996 C990 1.368 . S
C996 C995 1.523 . S
C997 C981 1.396 1_545 S
C997 C993 1.453 . S
C997 C998 1.531 . S
C998 C982 1.368 . S
C998 C994 1.368 1_545 S
C998 C997 1.531 . S
H999 C974 0.950 . S
H1000 C976 0.950 . S
H1001 C977 0.949 . S
H1002 C979 0.950 . S
H1003 C981 0.950 . S
C1004 C1005 1.349 . S
C1004 C1006 1.327 . S
C1004 H1029 0.950 1_545 S
C1005 C1004 1.349 . S
C1005 C1021 1.349 . S
C1006 C1004 1.327 . S
C1006 C1025 1.429 . S
C1006 H1030 0.950 1_545 S
C1007 C1024 1.574 . S
C1007 C1026 1.368 . S
C1007 H1031 0.949 . S
H1008 C1012 0.949 . S
C1009 C1010 1.349 1_545 S
C1009 C1011 1.327 . S
C1009 H1032 0.950 . S
C1010 C1009 1.349 1_565 S
C1010 C1022 1.349 . S
C1011 C1009 1.327 . S
C1011 C1027 1.456 . S
C1011 H1033 0.950 . S
C1012 H1008 0.949 . S
C1012 C1020 1.574 . S
C1012 C1028 1.368 1_565 S
H1013 C1021 0.950 . S
H1014 C1019 0.950 . S
H1015 C1020 0.949 . S
H1016 C1022 0.950 . S
H1017 C1023 0.950 . S
H1018 C1024 0.949 . S
C1019 H1014 0.950 . S
C1019 C1021 1.327 . S
C1019 C1025 1.429 . S
C1020 C1012 1.574 . S
C1020 H1015 0.949 . S
C1020 C1026 1.368 1_565 S
C1021 C1005 1.349 . S
C1021 H1013 0.950 . S
C1021 C1019 1.327 . S
C1022 C1010 1.349 . S
C1022 H1016 0.950 . S
C1022 C1023 1.327 . S
C1023 H1017 0.950 . S
C1023 C1022 1.327 . S
C1023 C1027 1.392 1_565 S
C1024 C1007 1.574 . S
C1024 H1018 0.949 . S
C1024 C1028 1.368 . S
C1025 C1006 1.429 . S
C1025 C1019 1.429 . S
C1025 C1026 1.523 . S
C1026 C1007 1.368 . S
C1026 C1020 1.368 1_545 S
C1026 C1025 1.523 . S
C1027 C1011 1.456 . S
C1027 C1023 1.392 1_545 S
C1027 C1028 1.531 . S
C1028 C1012 1.368 1_545 S
C1028 C1024 1.368 . S
C1028 C1027 1.531 . S
H1029 C1004 0.950 1_565 S
H1030 C1006 0.950 1_565 S
H1031 C1007 0.949 . S
H1032 C1009 0.950 . S
H1033 C1011 0.950 . S
C1034 C1035 1.349 . S
C1034 C1036 1.327 . S
C1034 H1059 0.950 1_565 S
C1035 C1034 1.349 . S
C1035 C1051 1.349 . S
C1036 C1034 1.327 . S
C1036 C1055 1.429 . S
C1036 H1060 0.950 1_565 S
C1037 C1054 1.574 . S
C1037 C1056 1.368 1_655 S
C1037 H1061 0.949 . S
H1038 C1042 0.949 . S
C1039 C1040 1.349 1_565 S
C1039 C1041 1.327 . S
C1039 H1062 0.950 . S
C1040 C1039 1.349 1_545 S
C1040 C1052 1.349 . S
C1041 C1039 1.327 . S
C1041 C1057 1.454 . S
C1041 H1063 0.950 . S
C1042 H1038 0.949 . S
C1042 C1050 1.574 . S
C1042 C1058 1.368 1_445 S
H1043 C1051 0.950 . S
H1044 C1049 0.950 1_655 S
H1045 C1050 0.949 . S
H1046 C1052 0.950 . S
H1047 C1053 0.950 1_455 S
H1048 C1054 0.949 . S
C1049 H1044 0.950 1_455 S
C1049 C1051 1.327 . S
C1049 C1055 1.429 . S
C1050 C1042 1.574 . S
C1050 H1045 0.949 . S
C1050 C1056 1.368 1_545 S
C1051 C1035 1.349 . S
C1051 H1043 0.950 . S
C1051 C1049 1.327 . S
C1052 C1040 1.349 . S
C1052 H1046 0.950 . S
C1052 C1053 1.327 . S
C1053 H1047 0.950 1_655 S
C1053 C1052 1.327 . S
C1053 C1057 1.395 1_545 S
C1054 C1037 1.574 . S
C1054 H1048 0.949 . S
C1054 C1058 1.368 . S
C1055 C1036 1.429 . S
C1055 C1049 1.429 . S
C1055 C1056 1.523 . S
C1056 C1037 1.368 1_455 S
C1056 C1050 1.368 1_565 S
C1056 C1055 1.523 . S
C1057 C1041 1.454 . S
C1057 C1053 1.395 1_565 S
C1057 C1058 1.531 . S
C1058 C1042 1.368 1_665 S
C1058 C1054 1.368 . S
C1058 C1057 1.531 . S
H1059 C1034 0.950 1_545 S
H1060 C1036 0.950 1_545 S
H1061 C1037 0.949 . S
H1062 C1039 0.950 . S
H1063 C1041 0.950 . S
C1064 C1065 1.349 . S
C1064 C1066 1.327 . S
C1064 H1089 0.950 . S
C1065 C1064 1.349 . S
C1065 C1081 1.349 . S
C1066 C1064 1.327 . S
C1066 C1085 1.429 . S
C1066 H1090 0.950 . S
C1067 C1084 1.574 1_554 S
C1067 C1086 1.368 . S
C1067 H1091 0.949 . S
H1068 C1072 0.949 . S
C1069 C1070 1.349 . S
C1069 C1071 1.327 . S
C1069 H1092 0.950 . S
C1070 C1069 1.349 . S
C1070 C1082 1.349 . S
C1071 C1069 1.327 . S
C1071 C1087 1.429 . S
C1071 H1093 0.950 . S
C1072 H1068 0.949 . S
C1072 C1080 1.574 1_556 S
C1072 C1088 1.368 . S
H1073 C1081 0.950 . S
H1074 C1079 0.950 . S
H1075 C1080 0.949 . S
H1076 C1082 0.950 . S
H1077 C1083 0.950 . S
H1078 C1084 0.949 . S
C1079 H1074 0.950 . S
C1079 C1081 1.327 . S
C1079 C1085 1.429 . S
C1080 C1072 1.574 1_554 S
C1080 H1075 0.949 . S
C1080 C1086 1.368 . S
C1081 C1065 1.349 . S
C1081 H1073 0.950 . S
C1081 C1079 1.327 . S
C1082 C1070 1.349 . S
C1082 H1076 0.950 . S
C1082 C1083 1.327 . S
C1083 H1077 0.950 . S
C1083 C1082 1.327 . S
C1083 C1087 1.429 . S
C1084 C1067 1.574 1_556 S
C1084 H1078 0.949 . S
C1084 C1088 1.368 . S
C1085 C1066 1.429 . S
C1085 C1079 1.429 . S
C1085 C1086 1.523 . S
C1086 C1067 1.368 . S
C1086 C1080 1.368 . S
C1086 C1085 1.523 . S
C1087 C1071 1.429 . S
C1087 C1083 1.429 . S
C1087 C1088 1.523 . S
C1088 C1072 1.368 . S
C1088 C1084 1.368 . S
C1088 C1087 1.523 . S
H1089 C1064 0.950 . S
H1090 C1066 0.950 . S
H1091 C1067 0.949 . S
H1092 C1069 0.950 . S
H1093 C1071 0.950 . S
C1094 C1095 1.349 . S
C1094 C1096 1.327 . S
C1094 H1119 0.950 . S
C1095 C1094 1.349 . S
C1095 C1111 1.349 . S
C1096 C1094 1.327 . S
C1096 C1115 1.429 . S
C1096 H1120 0.950 . S
C1097 C1114 1.574 1_554 S
C1097 C1116 1.368 1_455 S
C1097 H1121 0.949 . S
H1098 C1102 0.948 1_556 S
C1099 C1100 1.349 . S
C1099 C1101 1.327 . S
C1099 H1122 0.950 . S
C1100 C1099 1.349 . S
C1100 C1112 1.349 . S
C1101 C1099 1.327 . S
C1101 C1117 1.429 . S
C1101 H1123 0.950 . S
C1102 H1098 0.948 1_554 S
C1102 C1110 1.577 . S
C1102 C1118 1.367 1_654 S
H1103 C1111 0.950 . S
H1104 C1109 0.950 . S
H1105 C1110 0.949 . S
H1106 C1112 0.950 . S
H1107 C1113 0.950 . S
H1108 C1114 0.949 . S
C1109 H1104 0.950 . S
C1109 C1111 1.327 . S
C1109 C1115 1.429 . S
C1110 C1102 1.577 . S
C1110 H1105 0.949 . S
C1110 C1116 1.368 . S
C1111 C1095 1.349 . S
C1111 H1103 0.950 . S
C1111 C1109 1.327 . S
C1112 C1100 1.349 . S
C1112 H1106 0.950 . S
C1112 C1113 1.327 . S
C1113 H1107 0.950 . S
C1113 C1112 1.327 . S
C1113 C1117 1.429 . S
C1114 C1097 1.574 1_556 S
C1114 H1108 0.949 . S
C1114 C1118 1.368 . S
C1115 C1096 1.429 . S
C1115 C1109 1.429 . S
C1115 C1116 1.523 . S
C1116 C1097 1.368 1_655 S
C1116 C1110 1.368 . S
C1116 C1115 1.523 . S
C1117 C1101 1.429 . S
C1117 C1113 1.429 . S
C1117 C1118 1.523 . S
C1118 C1102 1.367 1_456 S
C1118 C1114 1.368 . S
C1118 C1117 1.523 . S
H1119 C1094 0.950 . S
H1120 C1096 0.950 . S
H1121 C1097 0.949 . S
H1122 C1099 0.950 . S
H1123 C1101 0.950 . S
C1124 C1125 1.349 . S
C1124 C1126 1.327 . S
C1124 H1149 0.950 . S
C1125 C1124 1.349 . S
C1125 C1141 1.349 . S
C1126 C1124 1.327 . S
C1126 C1145 1.429 . S
C1126 H1150 0.950 . S
C1127 C1144 1.574 . S
C1127 C1146 1.368 1_455 S
C1127 H1151 0.949 . S
H1128 C1132 0.949 . S
C1129 C1130 1.349 . S
C1129 C1131 1.327 . S
C1129 H1152 0.950 . S
C1130 C1129 1.349 . S
C1130 C1142 1.349 . S
C1131 C1129 1.327 . S
C1131 C1147 1.429 . S
C1131 H1153 0.950 . S
C1132 H1128 0.949 . S
C1132 C1140 1.574 . S
C1132 C1148 1.368 1_655 S
H1133 C1141 0.950 1_455 S
H1134 C1139 0.950 . S
H1135 C1140 0.949 . S
H1136 C1142 0.950 1_655 S
H1137 C1143 0.950 . S
H1138 C1144 0.949 . S
C1139 H1134 0.950 . S
C1139 C1141 1.327 1_455 S
C1139 C1145 1.429 1_455 S
C1140 C1132 1.574 . S
C1140 H1135 0.949 . S
C1140 C1146 1.368 . S
C1141 C1125 1.349 . S
C1141 H1133 0.950 1_655 S
C1141 C1139 1.327 1_655 S
C1142 C1130 1.349 . S
C1142 H1136 0.950 1_455 S
C1142 C1143 1.327 1_455 S
C1143 H1137 0.950 . S
C1143 C1142 1.327 1_655 S
C1143 C1147 1.429 1_655 S
C1144 C1127 1.574 . S
C1144 H1138 0.949 . S
C1144 C1148 1.368 . S
C1145 C1126 1.429 . S
C1145 C1139 1.429 1_655 S
C1145 C1146 1.523 . S
C1146 C1127 1.368 1_655 S
C1146 C1140 1.368 . S
C1146 C1145 1.523 . S
C1147 C1131 1.429 . S
C1147 C1143 1.429 1_455 S
C1147 C1148 1.523 . S
C1148 C1132 1.368 1_455 S
C1148 C1144 1.368 . S
C1148 C1147 1.523 . S
H1149 C1124 0.950 . S
H1150 C1126 0.950 . S
H1151 C1127 0.949 . S
H1152 C1129 0.950 . S
H1153 C1131 0.950 . S
C1154 C1155 1.349 . S
C1154 C1156 1.327 . S
C1154 H1179 0.950 . S
C1155 C1154 1.349 . S
C1155 C1171 1.349 . S
C1156 C1154 1.327 . S
C1156 C1175 1.429 . S
C1156 H1180 0.950 . S
C1157 C1174 1.574 . S
C1157 C1176 1.368 . S
C1157 H1181 0.949 . S
H1158 C1162 0.949 . S
C1159 C1160 1.349 . S
C1159 C1161 1.327 . S
C1159 H1182 0.950 . S
C1160 C1159 1.349 . S
C1160 C1172 1.349 . S
C1161 C1159 1.327 . S
C1161 C1177 1.429 . S
C1161 H1183 0.950 . S
C1162 H1158 0.949 . S
C1162 C1170 1.574 . S
C1162 C1178 1.368 . S
H1163 C1171 0.950 . S
H1164 C1169 0.950 . S
H1165 C1170 0.949 . S
H1166 C1172 0.950 . S
H1167 C1173 0.950 . S
H1168 C1174 0.949 . S
C1169 H1164 0.950 . S
C1169 C1171 1.327 . S
C1169 C1175 1.429 . S
C1170 C1162 1.574 . S
C1170 H1165 0.949 . S
C1170 C1176 1.368 . S
C1171 C1155 1.349 . S
C1171 H1163 0.950 . S
C1171 C1169 1.327 . S
C1172 C1160 1.349 . S
C1172 H1166 0.950 . S
C1172 C1173 1.327 . S
C1173 H1167 0.950 . S
C1173 C1172 1.327 . S
C1173 C1177 1.429 . S
C1174 C1157 1.574 . S
C1174 H1168 0.949 . S
C1174 C1178 1.368 . S
C1175 C1156 1.429 . S
C1175 C1169 1.429 . S
C1175 C1176 1.523 . S
C1176 C1157 1.368 . S
C1176 C1170 1.368 . S
C1176 C1175 1.523 . S
C1177 C1161 1.429 . S
C1177 C1173 1.429 . S
C1177 C1178 1.523 . S
C1178 C1162 1.368 . S
C1178 C1174 1.368 . S
C1178 C1177 1.523 . S
H1179 C1154 0.950 . S
H1180 C1156 0.950 . S
H1181 C1157 0.949 . S
H1182 C1159 0.950 . S
H1183 C1161 0.950 . S
C225 C26 1.484 . S
C230 C12 1.484 . S
C255 C40 1.484 . S
C260 C54 1.484 . S
C285 C67 1.523 . S
C290 C81 1.523 . S
C315 C109 1.523 . S
C320 C95 1.523 . S
C345 C138 1.484 . S
C350 C124 1.484 . S
C375 C166 1.484 . S
C380 C152 1.484 . S
C405 C193 1.523 . S
C410 C179 1.523 . S
C435 C221 1.523 . S
C440 C207 1.523 . S
C465 C46 0.831 . S
C470 C4 0.831 . S
C495 C18 0.831 . S
C500 C32 0.831 . S
C525 C103 0.989 . S
C530 C61 0.989 . S
C555 C89 0.989 . S
C560 C75 0.989 . S
C585 C116 0.831 . S
C590 C158 0.831 . S
C615 C144 0.831 . S
C620 C130 0.831 . S
C645 C215 0.989 . S
C650 C173 0.989 . S
C675 C187 0.989 . S
C680 C201 0.989 . S
C705 C5 1.262 . S
C710 C131 1.262 . S
C735 C19 1.262 . S
C740 C117 1.262 . S
C765 C159 1.262 . S
C770 C33 1.262 . S
C795 C145 1.262 . S
C800 C47 1.262 . S
C825 C186 1.620 . S
C830 C60 1.620 . S
C855 C172 1.620 . S
C860 C74 1.620 . S
C885 C88 1.620 . S
C890 C214 1.620 . S
C915 C102 1.620 . S
C920 C200 1.620 . S
C945 C68 0.941 . S
C950 C11 0.942 . S
C975 C82 0.941 . S
C980 C25 0.942 . S
C1005 C96 0.941 . S
C1010 C39 0.942 . S
C1035 C110 0.941 . S
C1040 C53 0.942 . S
C1065 C123 0.942 . S
C1070 C180 0.941 . S
C1095 C137 0.942 . S
C1100 C194 0.941 . S
C1125 C208 0.941 . S
C1130 C151 0.942 . S
C1155 C222 0.941 . S
C1160 C165 0.942 . S
