# Generated by pormake.
# Topology vby, (6)-cn, num edge types: 1
# Building blocks:
#     Node 0, Type 0, BuildingBlock: INOVEN_clean_sbu_0, # of connection points: 6
#     Node 1, Type 0, BuildingBlock: INOVEN_clean_sbu_0, # of connection points: 6
#     Node 2, Type 0, BuildingBlock: INOVEN_clean_sbu_0, # of connection points: 6
#     Node 3, Type 0, BuildingBlock: INOVEN_clean_sbu_0, # of connection points: 6
#     Node 4, Type 0, BuildingBlock: INOVEN_clean_sbu_0, # of connection points: 6
#     Node 5, Type 0, BuildingBlock: INOVEN_clean_sbu_0, # of connection points: 6
#     Node 6, Type 0, BuildingBlock: INOVEN_clean_sbu_0, # of connection points: 6
#     Node 7, Type 0, BuildingBlock: INOVEN_clean_sbu_0, # of connection points: 6
#     Edge 8, Type (0, 0), BuildingBlock: CIFDUS_clean_linker_0, # of connection points: 2
#     Edge 9, Type (0, 0), BuildingBlock: CIFDUS_clean_linker_0, # of connection points: 2
#     Edge 10, Type (0, 0), BuildingBlock: CIFDUS_clean_linker_0, # of connection points: 2
#     Edge 11, Type (0, 0), BuildingBlock: CIFDUS_clean_linker_0, # of connection points: 2
#     Edge 12, Type (0, 0), BuildingBlock: CIFDUS_clean_linker_0, # of connection points: 2
#     Edge 13, Type (0, 0), BuildingBlock: CIFDUS_clean_linker_0, # of connection points: 2
#     Edge 14, Type (0, 0), BuildingBlock: CIFDUS_clean_linker_0, # of connection points: 2
#     Edge 15, Type (0, 0), BuildingBlock: CIFDUS_clean_linker_0, # of connection points: 2
#     Edge 16, Type (0, 0), BuildingBlock: CIFDUS_clean_linker_0, # of connection points: 2
#     Edge 17, Type (0, 0), BuildingBlock: CIFDUS_clean_linker_0, # of connection points: 2
#     Edge 18, Type (0, 0), BuildingBlock: CIFDUS_clean_linker_0, # of connection points: 2
#     Edge 19, Type (0, 0), BuildingBlock: CIFDUS_clean_linker_0, # of connection points: 2
#     Edge 20, Type (0, 0), BuildingBlock: CIFDUS_clean_linker_0, # of connection points: 2
#     Edge 21, Type (0, 0), BuildingBlock: CIFDUS_clean_linker_0, # of connection points: 2
#     Edge 22, Type (0, 0), BuildingBlock: CIFDUS_clean_linker_0, # of connection points: 2
#     Edge 23, Type (0, 0), BuildingBlock: CIFDUS_clean_linker_0, # of connection points: 2
#     Edge 24, Type (0, 0), BuildingBlock: CIFDUS_clean_linker_0, # of connection points: 2
#     Edge 25, Type (0, 0), BuildingBlock: CIFDUS_clean_linker_0, # of connection points: 2
#     Edge 26, Type (0, 0), BuildingBlock: CIFDUS_clean_linker_0, # of connection points: 2
#     Edge 27, Type (0, 0), BuildingBlock: CIFDUS_clean_linker_0, # of connection points: 2
#     Edge 28, Type (0, 0), BuildingBlock: CIFDUS_clean_linker_0, # of connection points: 2
#     Edge 29, Type (0, 0), BuildingBlock: CIFDUS_clean_linker_0, # of connection points: 2
#     Edge 30, Type (0, 0), BuildingBlock: CIFDUS_clean_linker_0, # of connection points: 2
#     Edge 31, Type (0, 0), BuildingBlock: CIFDUS_clean_linker_0, # of connection points: 2
# Relax obj value: 0.203
# Max RMSD: 0.223
# Mean RMSD: 0.223
data_MOF--net-vby--node1-INOVEN_clean_sbu_0--edge1-CIFDUS_clean_linker_0
_symmetry_space_group_name_H-M    P1
_symmetry_Int_Tables_number       1
_symmetry_cell_setting            triclinic
loop_
_symmetry_equiv_pos_as_xyz
'x, y, z'
_cell_length_a     13.728662
_cell_length_b     96.547826
_cell_length_c     25.70354
_cell_angle_alpha  90.069083
_cell_angle_beta   84.139109
_cell_angle_gamma 89.932993
loop_
_atom_site_label
_atom_site_type_symbol
_atom_site_fract_x
_atom_site_fract_y
_atom_site_fract_z
_atom_type_partial_charge
Gd0 Gd 0.05924 0.40333 0.02696 0.0
Gd1 Gd 0.06516 0.37287 0.03085 0.0
C2 C 0.85577 0.38645 0.03513 0.0
C3 C 1.03808 0.42985 0.01704 0.0
C4 C 1.02477 0.44511 0.01288 0.0
C5 C 0.98476 0.45282 0.05642 0.0
C6 C 0.05911 0.45228 0.96708 0.0
C7 C 1.01724 0.47457 0.00922 0.0
C8 C 0.05531 0.46681 0.96525 0.0
C9 C 0.98101 0.46733 0.05463 0.0
C10 C 0.07245 0.39259 0.12444 0.0
C11 C 0.27234 0.39006 0.01855 0.0
C12 C 0.08567 0.34676 0.05319 0.0
C13 C 0.14413 0.33382 0.04504 0.0
C14 C 0.18308 0.32938 0.99507 0.0
C15 C 0.15199 0.32499 0.08781 0.0
C16 C 0.23257 0.30722 0.03074 0.0
C17 C 0.19553 0.31188 0.08082 0.0
C18 C 0.22702 0.31626 0.98804 0.0
C19 C 0.04644 0.38268 0.93322 0.0
O20 O 0.9029 0.39733 0.01367 0.0
O21 O 0.90534 0.37645 0.05555 0.0
O22 O 1.00827 0.42309 0.05966 0.0
O23 O 0.0755 0.42203 0.97837 0.0
O24 O 0.12463 0.40277 0.10433 0.0
O25 O 1.01742 0.38833 0.09142 0.0
O26 O 0.22759 0.37814 0.03035 0.0
O27 O 0.22183 0.4013 0.00986 0.0
O28 O 1.03966 0.35125 0.01449 0.0
O29 O 0.11886 0.3568 0.08067 0.0
O30 O 1.00477 0.37164 0.95328 0.0
O31 O 0.10197 0.38782 0.96472 0.0
H32 H 0.95782 0.44767 0.09243 0.0
H33 H 0.09121 0.44668 0.93299 0.0
H34 H 0.08484 0.47197 0.92972 0.0
H35 H 0.9496 0.47288 0.08897 0.0
H36 H 0.17741 0.3359 0.96124 0.0
H37 H 0.122 0.3281 0.1267 0.0
H38 H 0.1998 0.30537 0.11479 0.0
H39 H 0.25392 0.31304 0.94882 0.0
Gd40 Gd 0.99088 0.65835 0.01416 0.0
Gd41 Gd 0.99277 0.62868 0.02492 0.0
C42 C 0.78073 0.64222 0.03514 0.0
C43 C 0.97262 0.68437 0.98868 0.0
C44 C 0.92067 0.69782 0.99807 0.0
C45 C 0.8791 0.70193 0.04795 0.0
C46 C 0.92093 0.70729 0.95663 0.0
C47 C 0.84214 0.72499 0.01478 0.0
C48 C 0.88239 0.72067 0.96479 0.0
C49 C 0.83994 0.71534 0.05616 0.0
C50 C 1.01555 0.65014 0.11416 0.0
C51 C 0.19851 0.6447 0.00945 0.0
C52 C 1.01401 0.60224 0.03685 0.0
C53 C 1.02775 0.58699 0.04157 0.0
C54 C 0.06862 0.57923 0.99832 0.0
C55 C 0.99266 0.57988 0.08735 0.0
C56 C 1.03527 0.55754 0.04569 0.0
C57 C 0.99652 0.56535 0.08943 0.0
C58 C 0.07233 0.56473 1.00035 0.0
C59 C 0.96169 0.63691 0.92616 0.0
O60 O 0.82682 0.6537 0.01872 0.0
O61 O 0.83094 0.63118 0.04678 0.0
O62 O 1.02664 0.67999 0.02419 0.0
O63 O 0.92894 0.67426 0.9665 0.0
O64 O 0.05876 0.66056 0.0903 0.0
O65 O 0.95668 0.64479 0.08513 0.0
O66 O 0.15038 0.63459 0.03535 0.0
O67 O 0.14885 0.65415 0.98612 0.0
O68 O 0.04754 0.60891 0.99466 0.0
O69 O 0.97294 0.61012 0.07437 0.0
O70 O 0.91084 0.62794 0.95446 0.0
O71 O 1.02548 0.64211 0.95303 0.0
H72 H 0.87869 0.69489 0.08076 0.0
H73 H 0.95308 0.70442 0.91784 0.0
H74 H 0.88413 0.72765 0.93176 0.0
H75 H 0.81033 0.71826 0.09529 0.0
H76 H 0.09608 0.58435 0.96231 0.0
H77 H 0.95992 0.58551 0.12119 0.0
H78 H 0.96645 0.56021 0.12491 0.0
H79 H 0.10426 0.55915 0.9662 0.0
Gd80 Gd 0.05371 0.65878 0.51785 0.0
Gd81 Gd 0.07039 0.62641 0.50666 0.0
C82 C 0.26555 0.64515 0.51617 0.0
C83 C 1.0207 0.68467 0.54185 0.0
C84 C 0.06454 0.69865 0.53436 0.0
C85 C 0.15259 0.70087 0.50263 0.0
C86 C 1.01567 0.71007 0.55871 0.0
C87 C 0.14122 0.72589 0.51928 0.0
C88 C 0.05331 0.7235 0.55131 0.0
C89 C 0.19052 0.71434 0.49518 0.0
C90 C 0.10801 0.64951 0.41844 0.0
C91 C 0.85384 0.63993 0.51614 0.0
C92 C 0.09499 0.60129 0.47009 0.0
C93 C 0.0797 0.58619 0.4798 0.0
C94 C 0.08791 0.57999 0.52873 0.0
C95 C 0.0636 0.57761 0.43739 0.0
C96 C 0.06984 0.55683 0.49137 0.0
C97 C 0.05884 0.56318 0.44301 0.0
C98 C 0.08246 0.56547 0.53451 0.0
C99 C 0.04434 0.63361 0.61088 0.0
O100 O 0.20885 0.65541 0.53539 0.0
O101 O 0.22833 0.63411 0.49446 0.0
O102 O 0.99101 0.67868 0.50056 0.0
O103 O 0.06297 0.676 0.5717 0.0
O104 O 0.1414 0.66055 0.43932 0.0
O105 O 0.04597 0.6438 0.45157 0.0
O106 O 0.90791 0.62875 0.50489 0.0
O107 O 0.89331 0.65208 0.52652 0.0
O108 O 0.15907 0.60778 0.49555 0.0
O109 O 1.01892 0.60896 0.46287 0.0
O110 O 0.04852 0.62096 0.59385 0.0
O111 O 0.05036 0.64135 0.57141 0.0
H112 H 0.19173 0.69222 0.48348 0.0
H113 H 0.94738 0.70861 0.58318 0.0
H114 H 1.01211 0.73204 0.56991 0.0
H115 H 0.25893 0.71568 0.47078 0.0
H116 H 0.10065 0.58633 0.56216 0.0
H117 H 0.05706 0.58208 0.39925 0.0
H118 H 0.04746 0.55696 0.40908 0.0
H119 H 0.09165 0.56098 0.5723 0.0
Gd120 Gd 0.0459 0.40439 0.53647 0.0
Gd121 Gd 1.03264 0.37187 0.52197 0.0
C122 C 0.24498 0.38559 0.53024 0.0
C123 C 0.08032 0.42997 0.56122 0.0
C124 C 0.057 0.44498 0.55618 0.0
C125 C 0.05102 0.45136 0.5074 0.0
C126 C 0.05138 0.45339 0.601 0.0
C127 C 1.03795 0.47436 0.54853 0.0
C128 C 0.04206 0.46783 0.59731 0.0
C129 C 0.04142 0.46585 0.50365 0.0
C130 C 1.0334 0.39497 0.43721 0.0
C131 C 0.8321 0.39065 0.53698 0.0
C132 C 1.02218 0.34718 0.48227 0.0
C133 C 0.97472 0.33342 0.49105 0.0
C134 C 0.94039 0.32874 0.54132 0.0
C135 C 0.96982 0.32441 0.44847 0.0
C136 C 0.9012 0.30596 0.50634 0.0
C137 C 0.93361 0.31088 0.45593 0.0
C138 C 0.90399 0.31519 0.54886 0.0
C139 C 1.01403 0.3782 0.62637 0.0
O140 O 0.19964 0.39699 0.54872 0.0
O141 O 0.1962 0.37521 0.51122 0.0
O142 O 0.12465 0.42359 0.52045 0.0
O143 O 1.01855 0.42199 0.58962 0.0
O144 O 0.99269 0.4063 0.45606 0.0
O145 O 0.08169 0.38956 0.47112 0.0
O146 O 0.87557 0.37911 0.51821 0.0
O147 O 0.8827 0.40133 0.55259 0.0
O148 O 0.08611 0.35079 0.51434 0.0
O149 O 0.96784 0.35759 0.46944 0.0
O150 O 1.00755 0.36581 0.60762 0.0
O151 O 1.02703 0.38646 0.58839 0.0
H152 H 0.05563 0.4452 0.47199 0.0
H153 H 0.05735 0.44882 0.63902 0.0
H154 H 0.04131 0.4739 0.63279 0.0
H155 H 1.03703 0.47037 0.46544 0.0
H156 H 0.94318 0.33547 0.57488 0.0
H157 H 0.99645 0.32773 0.40934 0.0
H158 H 0.9341 0.30414 0.42221 0.0
H159 H 0.87835 0.31195 0.58818 0.0
Gd160 Gd 0.58794 0.90328 0.02292 0.0
Gd161 Gd 0.56159 0.87335 0.02828 0.0
C162 C 0.36849 0.89059 0.03044 0.0
C163 C 0.58291 0.92999 0.01268 0.0
C164 C 0.57843 0.9454 0.00914 0.0
C165 C 0.54418 0.95333 0.05326 0.0
C166 C 0.61107 0.95239 0.96268 0.0
C167 C 0.57762 0.97492 0.00506 0.0
C168 C 0.61054 0.96694 0.96064 0.0
C169 C 0.54385 0.96785 0.05129 0.0
C170 C 0.60424 0.89287 0.11989 0.0
C171 C 0.78513 0.88608 0.01596 0.0
C172 C 0.56127 0.8468 0.04832 0.0
C173 C 0.61543 0.83342 0.04169 0.0
C174 C 0.6623 0.82914 0.9931 0.0
C175 C 0.61172 0.82412 0.08386 0.0
C176 C 0.69727 0.8063 0.02876 0.0
C177 C 0.65203 0.81077 0.07757 0.0
C178 C 0.70276 0.81578 0.98676 0.0
C179 C 0.55312 0.88384 0.93008 0.0
O180 O 0.42802 0.90033 0.00983 0.0
O181 O 0.40484 0.87942 0.05072 0.0
O182 O 0.54645 0.92346 0.05467 0.0
O183 O 0.62095 0.92189 0.97496 0.0
O184 O 0.66177 0.90192 0.09591 0.0
O185 O 0.53872 0.88932 0.09094 0.0
O186 O 0.72732 0.87528 0.02727 0.0
O187 O 0.74797 0.89833 0.00644 0.0
O188 O 0.52819 0.85226 0.00716 0.0
O189 O 0.59136 0.85615 0.07983 0.0
O190 O 0.49674 0.87421 0.95098 0.0
O191 O 0.61448 0.88724 0.96133 0.0
H192 H 0.51897 0.94832 0.08985 0.0
H193 H 0.63771 0.94662 0.92794 0.0
H194 H 0.63579 0.97194 0.92405 0.0
H195 H 0.51933 0.97352 0.08657 0.0
H196 H 0.66574 0.83601 0.95966 0.0
H197 H 0.57549 0.82709 0.12167 0.0
H198 H 0.64756 0.80395 0.11112 0.0
H199 H 0.73591 0.81276 0.94839 0.0
Gd200 Gd 0.54678 0.16055 0.02031 0.0
Gd201 Gd 0.5219 0.1299 0.01842 0.0
C202 C 0.3249 0.14719 0.02434 0.0
C203 C 0.546 0.18717 0.00322 0.0
C204 C 0.48822 0.20023 0.0099 0.0
C205 C 0.44587 0.20473 0.05918 0.0
C206 C 0.48366 0.20906 0.96678 0.0
C207 C 0.39915 0.22687 0.02224 0.0
C208 C 0.4397 0.22218 0.97278 0.0
C209 C 0.40187 0.21786 0.06524 0.0
C210 C 0.547 0.14853 0.11541 0.0
C211 C 0.7401 0.14304 0.01839 0.0
C212 C 0.52532 0.10312 0.02558 0.0
C213 C 0.52847 0.08768 0.02794 0.0
C214 C 0.56088 0.0799 0.98314 0.0
C215 C 0.49676 0.08054 0.07419 0.0
C216 C 0.52759 0.05816 0.03037 0.0
C217 C 0.49637 0.06599 0.07542 0.0
C218 C 0.56047 0.06537 0.98432 0.0
C219 C 0.52651 0.14253 0.92375 0.0
O220 O 0.3822 0.15821 0.01661 0.0
O221 O 0.36182 0.13479 0.03162 0.0
O222 O 0.57586 0.18148 0.04491 0.0
O223 O 0.52135 0.178 0.96936 0.0
O224 O 0.60194 0.15886 0.09926 0.0
O225 O 0.48987 0.1454 0.08159 0.0
O226 O 0.68067 0.13278 0.03482 0.0
O227 O 0.7044 0.15463 1.00068 0.0
O228 O 0.55678 0.10985 0.98314 0.0
O229 O 0.49291 0.11103 0.06508 0.0
O230 O 0.46486 0.13294 0.93989 0.0
O231 O 0.58253 0.14503 0.95852 0.0
H232 H 0.44871 0.19825 0.09336 0.0
H233 H 0.51623 0.20592 0.92839 0.0
H234 H 0.43775 0.22865 0.93854 0.0
H235 H 0.37254 0.22109 0.10406 0.0
H236 H 0.58547 0.08503 0.94671 0.0
H237 H 0.47154 0.08619 0.10945 0.0
H238 H 0.47186 0.06087 0.11187 0.0
H239 H 0.5838 0.05979 0.94863 0.0
Gd240 Gd 0.56008 0.16015 0.51603 0.0
Gd241 Gd 0.5852 0.12949 0.51936 0.0
C242 C 0.78204 0.14672 0.51196 0.0
C243 C 0.56099 0.18687 0.53175 0.0
C244 C 0.61665 0.20011 0.52401 0.0
C245 C 0.65473 0.20468 0.47409 0.0
C246 C 0.62189 0.20909 0.56672 0.0
C247 C 0.69614 0.2273 0.50949 0.0
C248 C 0.6612 0.22247 0.55966 0.0
C249 C 0.69404 0.21807 0.46697 0.0
C250 C 0.55961 0.14778 0.42144 0.0
C251 C 0.36672 0.14261 0.51919 0.0
C252 C 0.58207 0.10261 0.51557 0.0
C253 C 0.57974 0.08713 0.51689 0.0
C254 C 0.56764 0.08021 0.56525 0.0
C255 C 0.59176 0.07909 0.47092 0.0
C256 C 0.58287 0.05761 0.52207 0.0
C257 C 0.59272 0.0645 0.47346 0.0
C258 C 0.56937 0.06572 0.5678 0.0
C259 C 0.58059 0.14259 0.61336 0.0
O260 O 0.72465 0.15776 0.51974 0.0
O261 O 0.74516 0.13433 0.50479 0.0
O262 O 0.52961 0.18098 0.49081 0.0
O263 O 0.58776 0.17786 0.56559 0.0
O264 O 0.50472 0.15816 0.43735 0.0
O265 O 0.61699 0.14474 0.45529 0.0
O266 O 0.4261 0.13226 0.5034 0.0
O267 O 0.40245 0.15429 0.53616 0.0
O268 O 0.55584 0.10983 0.55765 0.0
O269 O 0.60894 0.11009 0.47404 0.0
O270 O 0.64307 0.13306 0.5974 0.0
O271 O 0.52429 0.14489 0.57855 0.0
H272 H 0.65187 0.19806 0.44024 0.0
H273 H 0.59214 0.20594 0.60557 0.0
H274 H 0.66034 0.22922 0.59336 0.0
H275 H 0.7217 0.22125 0.42786 0.0
H276 H 0.55802 0.086 0.60153 0.0
H277 H 0.60122 0.08408 0.43302 0.0
H278 H 0.60369 0.05862 0.43743 0.0
H279 H 0.55997 0.06084 0.60591 0.0
Gd280 Gd 0.48707 0.90491 0.53174 0.0
Gd281 Gd 0.47724 0.87227 0.53011 0.0
C282 C 0.68899 0.88673 0.51918 0.0
C283 C 0.48678 0.93071 0.56137 0.0
C284 C 0.51427 0.94525 0.54771 0.0
C285 C 0.52052 0.95018 0.49604 0.0
C286 C 0.52348 0.95477 0.58823 0.0
C287 C 0.53916 0.97409 0.52627 0.0
C288 C 0.53562 0.96896 0.57777 0.0
C289 C 0.53314 0.96441 0.48544 0.0
C290 C 0.49998 0.89563 0.43033 0.0
C291 C 0.27426 0.88994 0.53511 0.0
C292 C 0.45701 0.84565 0.52083 0.0
C293 C 0.40001 0.83281 0.51352 0.0
C294 C 0.30736 0.83062 0.54092 0.0
C295 C 0.44612 0.82167 0.48564 0.0
C296 C 0.31296 0.80602 0.51705 0.0
C297 C 0.40323 0.80846 0.48727 0.0
C298 C 0.26431 0.81742 0.54252 0.0
C299 C 0.509 0.8844 0.62302 0.0
O300 O 0.64556 0.8984 0.53672 0.0
O301 O 0.63775 0.87588 0.50563 0.0
O302 O 0.41819 0.92507 0.53653 0.0
O303 O 0.55523 0.92188 0.57134 0.0
O304 O 0.50737 0.90853 0.44341 0.0
O305 O 0.49001 0.88865 0.47174 0.0
O306 O 0.31818 0.87793 0.52329 0.0
O307 O 0.32432 0.90109 0.54631 0.0
O308 O 0.43743 0.8525 0.56462 0.0
O309 O 0.48711 0.85358 0.48095 0.0
O310 O 0.55158 0.87322 0.60442 0.0
O311 O 0.44983 0.88861 0.59175 0.0
H312 H 0.51322 0.94308 0.46399 0.0
H313 H 0.51763 0.95128 0.62849 0.0
H314 H 0.53827 0.97596 0.61052 0.0
H315 H 0.5371 0.96782 0.44518 0.0
H316 H 0.26995 0.83898 0.56295 0.0
H317 H 0.51815 0.82301 0.46478 0.0
H318 H 0.44358 0.80001 0.46745 0.0
H319 H 0.19384 0.81607 0.56496 0.0
H320 H 0.40274 0.37131 0.05265 0.0
H321 H 0.38871 0.41133 0.97917 0.0
H322 H 0.56571 0.41381 0.97769 0.0
H323 H 0.72597 0.40484 0.99812 0.0
H324 H 0.73956 0.36501 0.07311 0.0
H325 H 0.563 0.36235 0.07315 0.0
C326 C 0.43835 0.38054 0.03601 0.0
C327 C 0.38154 0.39108 0.01598 0.0
C328 C 0.5409 0.38202 0.03576 0.0
C329 C 0.42972 0.40302 0.99499 0.0
C330 C 0.53141 0.40447 0.99413 0.0
C331 C 0.69044 0.39558 0.01457 0.0
C332 C 0.74698 0.38518 0.03565 0.0
C333 C 0.58793 0.39409 0.01464 0.0
C334 C 0.69877 0.37325 0.05668 0.0
C335 C 0.59732 0.37168 0.05667 0.0
H336 H 0.32588 0.62774 0.05594 0.0
H337 H 0.31794 0.66485 0.96309 0.0
H338 H 0.49421 0.66775 0.9647 0.0
H339 H 0.65274 0.65973 0.99175 0.0
H340 H 0.6611 0.62235 0.083 0.0
H341 H 0.48427 0.61972 0.08294 0.0
C342 C 0.36256 0.63645 0.03587 0.0
C343 C 0.30757 0.64602 0.00926 0.0
C344 C 0.4649 0.63809 0.03688 0.0
C345 C 0.3574 0.65725 0.98375 0.0
C346 C 0.45871 0.65896 0.98475 0.0
C347 C 0.61591 0.65106 0.01203 0.0
C348 C 0.6712 0.6413 0.03755 0.0
C349 C 0.51347 0.64946 0.01123 0.0
C350 C 0.62137 0.63007 0.06304 0.0
C351 C 0.51977 0.62852 0.06295 0.0
H352 H 0.7117 0.65996 0.53798 0.0
H353 H 0.74898 0.61712 0.49182 0.0
H354 H 0.57342 0.61496 0.48703 0.0
H355 H 0.40741 0.62514 0.49514 0.0
H356 H 0.36935 0.66785 0.54267 0.0
H357 H 0.54516 0.67005 0.54748 0.0
C358 C 0.68163 0.65013 0.52702 0.0
C359 C 0.74489 0.63874 0.51531 0.0
C360 C 0.57944 0.64889 0.52434 0.0
C361 C 0.70329 0.62611 0.50119 0.0
C362 C 0.60228 0.62484 0.4983 0.0
C363 C 0.43741 0.63495 0.50643 0.0
C364 C 0.37408 0.6463 0.51835 0.0
C365 C 0.53942 0.63616 0.50959 0.0
C366 C 0.41529 0.65888 0.53326 0.0
C367 C 0.51638 0.66018 0.53604 0.0
H368 H 0.70056 0.37146 0.50693 0.0
H369 H 0.71495 0.41234 0.57386 0.0
H370 H 0.53703 0.41437 0.57832 0.0
H371 H 0.37569 0.40469 0.56266 0.0
H372 H 0.3623 0.36381 0.49547 0.0
H373 H 0.53978 0.36174 0.4919 0.0
C374 C 0.6651 0.38083 0.52259 0.0
C375 C 0.72244 0.39172 0.53997 0.0
C376 C 0.56193 0.38197 0.52505 0.0
C377 C 0.67387 0.40375 0.56007 0.0
C378 C 0.57155 0.40494 0.56268 0.0
C379 C 0.41134 0.3953 0.54732 0.0
C380 C 0.35431 0.38444 0.52939 0.0
C381 C 0.51458 0.39413 0.5452 0.0
C382 C 0.40306 0.37239 0.50963 0.0
C383 C 0.50518 0.37117 0.50751 0.0
H384 H 0.9277 0.90603 1.00047 0.0
H385 H 0.88704 0.86266 0.03689 0.0
H386 H 0.06142 0.86027 0.04611 0.0
H387 H 0.22668 0.87049 0.04496 0.0
H388 H 0.26737 0.91376 0.00701 0.0
H389 H 0.093 0.91613 0.99771 0.0
C390 C 0.95684 0.89602 0.01008 0.0
C391 C 0.8933 0.88455 0.01784 0.0
C392 C 0.05784 0.89469 0.01553 0.0
C393 C 0.93336 0.87169 0.03048 0.0
C394 C 1.03347 0.87031 0.03598 0.0
C395 C 0.19739 0.88046 0.03497 0.0
C396 C 0.26076 0.89194 0.02705 0.0
C397 C 0.0965 0.88175 0.02896 0.0
C398 C 0.22098 0.90473 0.01348 0.0
C399 C 0.12092 0.90611 0.00804 0.0
H400 H 0.18281 0.12728 0.04102 0.0
H401 H 0.22267 0.17066 0.00425 0.0
H402 H 0.04717 0.17316 0.99846 0.0
H403 H 0.88159 0.16305 0.0029 0.0
H404 H 0.84157 0.11977 0.04099 0.0
H405 H 1.01705 0.11728 0.04697 0.0
C406 C 0.15333 0.13731 0.03189 0.0
C407 C 0.2168 0.14875 0.02308 0.0
C408 C 0.05177 0.13871 0.0286 0.0
C409 C 0.17633 0.16164 0.01135 0.0
C410 C 0.07563 0.16309 0.00788 0.0
C411 C 0.91113 0.15305 0.01235 0.0
C412 C 0.84777 0.14161 0.02123 0.0
C413 C 1.01257 0.15169 0.0162 0.0
C414 C 0.88796 0.12878 0.03387 0.0
C415 C 0.98864 0.12733 0.03734 0.0
H416 H 0.22501 0.16269 0.5333 0.0
H417 H 0.26539 0.11921 0.49818 0.0
H418 H 0.09005 0.11669 0.49201 0.0
H419 H 0.92428 0.12672 0.49682 0.0
H420 H 0.88406 0.17029 0.53071 0.0
H421 H 0.05939 0.17282 0.53677 0.0
C422 C 0.19557 0.15264 0.52447 0.0
C423 C 0.25903 0.14116 0.51646 0.0
C424 C 0.0942 0.15126 0.52049 0.0
C425 C 0.21895 0.12826 0.50462 0.0
C426 C 0.11835 0.12679 0.50102 0.0
C427 C 0.95366 0.1368 0.50535 0.0
C428 C 0.89013 0.14829 0.51325 0.0
C429 C 0.05514 0.13822 0.50883 0.0
C430 C 0.93045 0.16124 0.52429 0.0
C431 C 1.03106 0.1627 0.52791 0.0
H432 H 0.82168 0.90563 0.55006 0.0
H433 H 0.80409 0.86465 0.48444 0.0
H434 H 0.98079 0.86186 0.48428 0.0
H435 H 0.14221 0.87092 0.50321 0.0
H436 H 0.15878 0.91199 0.56833 0.0
H437 H 0.98246 0.91473 0.56826 0.0
C438 C 0.85626 0.8961 0.53546 0.0
C439 C 0.79835 0.8854 0.51723 0.0
C440 C 0.95875 0.8945 0.53556 0.0
C441 C 0.84569 0.87312 0.49871 0.0
C442 C 0.94729 0.87148 0.49867 0.0
C443 C 0.1074 0.88046 0.51757 0.0
C444 C 0.16503 0.89119 0.53585 0.0
C445 C 1.00482 0.88207 0.51718 0.0
C446 C 0.1175 0.9035 0.55396 0.0
C447 C 1.01605 0.90511 0.55393 0.0
H448 H 0.99666 0.53938 0.96822 0.0
H449 H 0.07548 0.54057 0.12646 0.0
H450 H 0.07553 0.51529 0.1294 0.0
H451 H 0.05574 0.49274 0.08678 0.0
H452 H 0.97655 0.49156 0.92859 0.0
H453 H 0.97659 0.51683 0.92566 0.0
C454 C 1.01484 0.53414 0.00324 0.0
C455 C 1.03602 0.542 0.04707 0.0
C456 C 1.01519 0.51953 0.00465 0.0
C457 C 0.05764 0.5349 0.09232 0.0
C458 C 0.05825 0.5204 0.09395 0.0
C459 C 1.03746 0.49797 0.05178 0.0
C460 C 1.01625 0.49012 0.00794 0.0
C461 C 1.03703 0.51259 0.05039 0.0
C462 C 0.99449 0.49722 0.96273 0.0
C463 C 0.99391 0.51172 0.9611 0.0
H464 H 0.1247 0.49151 0.47164 0.0
H465 H 0.93798 0.4926 0.61726 0.0
H466 H 0.93387 0.51784 0.61381 0.0
H467 H 0.98226 0.53992 0.56918 0.0
H468 H 0.16523 0.53859 0.42248 0.0
H469 H 0.17003 0.51337 0.42639 0.0
C470 C 0.08191 0.4972 0.50239 0.0
C471 C 1.03217 0.48994 0.5448 0.0
C472 C 0.0789 0.51183 0.5 0.0
C473 C 0.97863 0.49773 0.58448 0.0
C474 C 0.97568 0.51225 0.58244 0.0
C475 C 1.0236 0.53412 0.5382 0.0
C476 C 0.07283 0.54129 0.49542 0.0
C477 C 1.02583 0.51946 0.54049 0.0
C478 C 0.12531 0.53347 0.45552 0.0
C479 C 0.12854 0.51899 0.45782 0.0
H480 H 0.44548 0.9935 0.05339 0.0
H481 H 0.71848 0.99162 0.95411 0.0
H482 H 0.72671 0.01686 0.95274 0.0
H483 H 0.65882 0.03961 0.98115 0.0
H484 H 0.38623 0.04146 0.08075 0.0
H485 H 0.37755 0.01623 0.08173 0.0
C486 C 0.50735 0.99856 0.03175 0.0
C487 C 0.58106 0.99049 0.00376 0.0
C488 C 0.51239 1.01317 0.03155 0.0
C489 C 0.65961 0.99742 0.97534 0.0
C490 C 0.66489 1.01191 0.97487 0.0
C491 C 0.59697 0.03453 0.00277 0.0
C492 C 0.52353 0.04259 0.03101 0.0
C493 C 0.59182 0.01992 0.00287 0.0
C494 C 0.44488 0.03567 0.05933 0.0
C495 C 0.43937 0.02118 0.0596 0.0
H496 H 0.4988 0.03767 0.46392 0.0
H497 H 0.68245 0.04252 0.58925 0.0
H498 H 0.68808 0.01747 0.6003 0.0
H499 H 0.63858 0.99408 0.57615 0.0
H500 H 0.45021 0.98902 0.4529 0.0
H501 H 0.45128 1.014 0.4386 0.0
C502 C 0.54081 0.03324 0.49331 0.0
C503 C 0.58937 0.04211 0.52598 0.0
C504 C 0.54339 0.01868 0.49982 0.0
C505 C 0.64288 0.03607 0.56407 0.0
C506 C 0.64659 0.02169 0.57031 0.0
C507 C 0.59705 0.99838 0.54633 0.0
C508 C 0.54433 0.98946 0.51582 0.0
C509 C 0.59631 1.01287 0.53884 0.0
C510 C 0.49288 0.99543 0.47667 0.0
C511 C 0.49267 1.00981 0.46868 0.0
H512 H 0.16769 0.28297 0.07796 0.0
H513 H 0.39443 0.2992 0.96598 0.0
H514 H 0.46428 0.27602 0.95291 0.0
H515 H 0.46339 0.25112 0.97431 0.0
H516 H 0.23566 0.2349 0.08581 0.0
H517 H 0.16589 0.25805 0.09874 0.0
C518 C 0.23296 0.2815 0.05102 0.0
C519 C 0.27545 0.29295 0.02308 0.0
C520 C 0.2732 0.26808 0.04373 0.0
C521 C 0.35912 0.29065 0.98766 0.0
C522 C 0.39959 0.27737 0.98033 0.0
C523 C 0.39784 0.25258 0.00105 0.0
C524 C 0.35543 0.24113 0.02909 0.0
C525 C 0.35731 0.26599 0.00812 0.0
C526 C 0.27125 0.24343 0.06418 0.0
C527 C 0.23073 0.2567 0.07141 0.0
H528 H 0.62188 0.78195 0.07181 0.0
H529 H 0.86475 0.79785 0.96935 0.0
H530 H 0.92954 0.77443 0.9558 0.0
H531 H 0.91882 0.74934 0.97321 0.0
H532 H 0.67711 0.73342 0.07628 0.0
H533 H 0.61243 0.75687 0.09022 0.0
C534 C 0.6896 0.78037 0.04693 0.0
C535 C 0.7377 0.79183 0.02155 0.0
C536 C 0.7273 0.76679 0.0395 0.0
C537 C 0.82472 0.78935 0.98883 0.0
C538 C 0.86241 0.77591 0.98128 0.0
C539 C 0.85152 0.75095 0.99843 0.0
C540 C 0.8032 0.73948 0.02354 0.0
C541 C 0.81425 0.76453 0.00623 0.0
C542 C 0.7169 0.74195 0.05681 0.0
C543 C 0.67938 0.7554 0.0646 0.0
H544 H 0.13807 0.74739 0.58963 0.0
H545 H 0.23129 0.73723 0.42865 0.0
H546 H 0.29174 0.76081 0.41359 0.0
H547 H 0.3163 0.7846 0.44558 0.0
H548 H 0.22204 0.79458 0.60666 0.0
H549 H 0.16164 0.77106 0.62136 0.0
C550 C 0.1707 0.75032 0.55103 0.0
C551 C 0.17981 0.74037 0.51046 0.0
C552 C 0.20454 0.76401 0.54235 0.0
C553 C 0.22427 0.74447 0.46103 0.0
C554 C 0.25832 0.75804 0.4522 0.0
C555 C 0.28293 0.78164 0.484 0.0
C556 C 0.27338 0.79156 0.52473 0.0
C557 C 0.24882 0.76793 0.49253 0.0
C558 C 0.22888 0.78741 0.57407 0.0
C559 C 0.19494 0.77385 0.58276 0.0
H560 H 0.79555 0.2897 0.44398 0.0
H561 H 0.93361 0.28857 0.58746 0.0
H562 H 0.88318 0.26453 0.60113 0.0
H563 H 0.80198 0.2435 0.57201 0.0
H564 H 0.6647 0.24464 0.4283 0.0
H565 H 0.71512 0.26868 0.41468 0.0
C566 C 0.81546 0.28421 0.4781 0.0
C567 C 0.86826 0.29116 0.51468 0.0
C568 C 0.78703 0.27022 0.48559 0.0
C569 C 0.89164 0.28375 0.55896 0.0
C570 C 0.86345 0.26988 0.56666 0.0
C571 C 0.78244 0.249 0.53781 0.0
C572 C 0.72975 0.24206 0.50116 0.0
C573 C 0.81109 0.26298 0.53028 0.0
C574 C 0.7066 0.24947 0.45683 0.0
C575 C 0.73479 0.26333 0.44915 0.0
H576 H 0.19781 0.38904 0.19886 0.0
H577 H 0.89197 0.3938 0.17865 0.0
H578 H 0.85172 0.3949 0.27366 0.0
H579 H 0.90517 0.39587 0.36299 0.0
H580 H 0.20852 0.38856 0.38344 0.0
H581 H 0.24818 0.38698 0.28853 0.0
C582 C 0.12231 0.39012 0.21545 0.0
C583 C 0.048 0.39139 0.18187 0.0
C584 C 0.0994 0.39035 0.2703 0.0
C585 C 0.95035 0.39272 0.20373 0.0
C586 C 0.92738 0.39343 0.25808 0.0
C587 C 0.97964 0.39378 0.34653 0.0
C588 C 0.05394 0.39245 0.38011 0.0
C589 C 1.00143 0.39246 0.29181 0.0
C590 C 0.15002 0.38959 0.35841 0.0
C591 C 0.17282 0.38875 0.30409 0.0
H592 H 0.15554 0.65877 0.17367 0.0
H593 H 0.89151 0.63449 0.18222 0.0
H594 H 0.89927 0.63108 0.27656 0.0
H595 H 0.97697 0.63639 0.35858 0.0
H596 H 0.24253 0.66053 0.34671 0.0
H597 H 0.23897 0.66242 0.25245 0.0
C598 C 0.09979 0.65267 0.19606 0.0
C599 C 1.02239 0.64704 0.17078 0.0
C600 C 0.10519 0.6507 0.25013 0.0
C601 C 0.95167 0.639 0.20051 0.0
C602 C 0.95613 0.63707 0.25461 0.0
C603 C 1.03488 0.64184 0.33519 0.0
C604 C 0.10991 0.64837 0.36017 0.0
C605 C 1.03199 0.64303 0.28018 0.0
C606 C 0.18382 0.65545 0.32894 0.0
C607 C 0.18169 0.65659 0.27483 0.0
H608 H 0.05057 0.65435 0.84728 0.0
H609 H 0.88692 0.61629 0.87209 0.0
H610 H 0.89674 0.6123 0.77906 0.0
H611 H 0.95433 0.61875 0.68982 0.0
H612 H 0.10695 0.65723 0.65912 0.0
H613 H 0.09837 0.66192 0.75385 0.0
C614 C 1.01707 0.64523 0.83219 0.0
C615 C 0.96898 0.6356 0.86759 0.0
C616 C 1.0207 0.64302 0.7771 0.0
C617 C 0.92493 0.62392 0.84673 0.0
C618 C 0.93035 0.62156 0.79305 0.0
C619 C 0.98508 0.62824 0.70376 0.0
C620 C 1.03133 0.63759 0.66738 0.0
C621 C 0.97837 0.63093 0.75789 0.0
C622 C 0.07018 0.64989 0.68623 0.0
C623 C 0.06577 0.65251 0.74053 0.0
H624 H 0.12274 0.39434 0.68853 0.0
H625 H 0.86841 0.36808 0.69195 0.0
H626 H 0.85164 0.36822 0.78715 0.0
H627 H 0.91789 0.37358 0.86908 0.0
H628 H 0.17535 0.39899 0.86967 0.0
H629 H 0.18214 0.40154 0.77401 0.0
C630 C 0.06226 0.38902 0.71035 0.0
C631 C 0.99613 0.3813 0.68316 0.0
C632 C 0.05465 0.38879 0.7659 0.0
C633 C 0.9196 0.37416 0.7119 0.0
C634 C 0.91031 0.37416 0.76642 0.0
C635 C 0.97514 0.3798 0.84844 0.0
C636 C 0.04665 0.38594 0.87649 0.0
C637 C 0.97891 0.38107 0.79377 0.0
C638 C 0.11955 0.3941 0.84907 0.0
C639 C 0.12351 0.39552 0.79428 0.0
H640 H 0.45959 0.88163 0.19255 0.0
H641 H 0.74658 0.90037 0.17805 0.0
H642 H 0.74307 0.9018 0.27232 0.0
H643 H 0.65307 0.9002 0.35912 0.0
H644 H 0.37102 0.8805 0.37826 0.0
H645 H 0.37807 0.87685 0.28304 0.0
C646 C 0.52183 0.88579 0.21015 0.0
C647 C 0.60242 0.89115 0.17777 0.0
C648 C 0.5201 0.88651 0.26554 0.0
C649 C 0.68275 0.89639 0.20156 0.0
C650 C 0.68108 0.89723 0.25575 0.0
C651 C 0.59424 0.8948 0.34249 0.0
C652 C 0.51198 0.89058 0.3755 0.0
C653 C 0.59932 0.89269 0.28808 0.0
C654 C 0.43583 0.88367 0.35358 0.0
C655 C 0.43956 0.88171 0.29905 0.0
H656 H 0.68772 0.14518 0.18024 0.0
H657 H 0.37505 0.14369 0.17568 0.0
H658 H 0.35143 0.14205 0.27136 0.0
H659 H 0.41997 0.14397 0.35644 0.0
H660 H 0.73282 0.14393 0.36095 0.0
H661 H 0.75681 0.14301 0.26512 0.0
C662 C 0.6146 0.1442 0.2003 0.0
C663 C 0.53309 0.1447 0.17129 0.0
C664 C 0.6019 0.14307 0.25516 0.0
C665 C 0.43871 0.1433 0.19732 0.0
C666 C 0.42529 0.14245 0.25199 0.0
C667 C 0.4933 0.14343 0.3363 0.0
C668 C 0.57462 0.14412 0.36539 0.0
C669 C 0.50625 0.14275 0.28134 0.0
C670 C 0.6693 0.14334 0.33925 0.0
C671 C 0.68291 0.14293 0.2845 0.0
H672 H 0.40219 0.14486 0.84885 0.0
H673 H 0.70822 0.14627 0.87273 0.0
H674 H 0.75263 0.14718 0.77812 0.0
H675 H 0.70436 0.14534 0.68827 0.0
H676 H 0.3982 0.14583 0.66436 0.0
H677 H 0.3536 0.14658 0.75901 0.0
C678 C 0.47844 0.1456 0.83319 0.0
C679 C 0.5519 0.14535 0.86749 0.0
C680 C 0.5033 0.14638 0.77875 0.0
C681 C 0.65043 0.14645 0.84701 0.0
C682 C 0.67586 0.1469 0.79292 0.0
C683 C 0.628 0.14585 0.70393 0.0
C684 C 0.55464 0.14539 0.66962 0.0
C685 C 0.603 0.14653 0.75838 0.0
C686 C 0.45593 0.14619 0.6901 0.0
C687 C 0.43041 0.14654 0.74421 0.0
H688 H 0.65813 0.885 0.68472 0.0
H689 H 0.34601 0.89056 0.6891 0.0
H690 H 0.33217 0.89141 0.78494 0.0
H691 H 0.40771 0.88835 0.86797 0.0
H692 H 0.72132 0.88495 0.86358 0.0
H693 H 0.73627 0.8856 0.76767 0.0
C694 C 0.58741 0.88669 0.70674 0.0
C695 C 0.50309 0.88766 0.67985 0.0
C696 C 0.58038 0.88743 0.76191 0.0
C697 C 0.41197 0.88989 0.70878 0.0
C698 C 0.40403 0.89026 0.76365 0.0
C699 C 0.47938 0.88799 0.8459 0.0
C700 C 0.56333 0.88649 0.87278 0.0
C701 C 0.48743 0.88872 0.79071 0.0
C702 C 0.65577 0.88615 0.84384 0.0
C703 C 0.66419 0.88645 0.78896 0.0
loop_
_geom_bond_atom_site_label_1
_geom_bond_atom_site_label_2
_geom_bond_distance
_geom_bond_site_symmetry_2
_ccdc_geom_bond_type
Gd0 C3 2.818 1_455 S
Gd0 O20 2.377 1_455 S
Gd0 O22 2.448 . S
Gd0 O23 2.506 1_554 S
Gd0 O24 2.435 . S
Gd0 O25 2.717 . S
Gd0 O27 2.395 . S
Gd0 O31 2.327 1_554 S
Gd1 C12 2.818 . S
Gd1 O21 2.395 1_455 S
Gd1 O25 2.327 . S
Gd1 O26 2.377 1_554 S
Gd1 O28 2.448 1_554 S
Gd1 O29 2.506 . S
Gd1 O30 2.435 1_554 S
Gd1 O31 2.717 1_554 S
C2 O20 1.240 . S
C2 O21 1.240 . S
C3 Gd0 2.818 1_655 S
C3 C4 1.510 . S
C3 O22 1.249 1_655 S
C3 O23 1.252 1_654 S
C4 C3 1.510 . S
C4 C5 1.404 . S
C4 C6 1.352 1_554 S
C5 C4 1.404 . S
C5 C9 1.389 . S
C5 H32 0.930 . S
C6 C4 1.352 1_556 S
C6 C8 1.374 . S
C6 H33 0.931 . S
C7 C8 1.359 1_554 S
C7 C9 1.364 . S
C8 C6 1.374 . S
C8 C7 1.359 1_556 S
C8 H34 0.931 . S
C9 C5 1.389 . S
C9 C7 1.364 . S
C9 H35 0.931 . S
C10 O24 1.256 . S
C10 O25 1.257 . S
C11 O26 1.240 1_554 S
C11 O27 1.240 . S
C12 Gd1 2.818 . S
C12 C13 1.510 . S
C12 O28 1.249 1_554 S
C12 O29 1.252 . S
C13 C12 1.510 . S
C13 C14 1.404 1_554 S
C13 C15 1.352 . S
C14 C13 1.404 1_556 S
C14 C18 1.389 . S
C14 H36 0.930 . S
C15 C13 1.352 . S
C15 C17 1.374 . S
C15 H37 0.931 . S
C16 C17 1.359 . S
C16 C18 1.364 1_554 S
C17 C15 1.374 . S
C17 C16 1.359 . S
C17 H38 0.931 . S
C18 C14 1.389 . S
C18 C16 1.364 1_556 S
C18 H39 0.931 . S
C19 O30 1.256 . S
C19 O31 1.257 . S
O20 Gd0 2.377 1_655 S
O20 C2 1.240 . S
O21 Gd1 2.395 1_655 S
O21 C2 1.240 . S
O22 Gd0 2.448 . S
O22 C3 1.249 1_455 S
O23 Gd0 2.506 1_556 S
O23 C3 1.252 1_456 S
O24 Gd0 2.435 . S
O24 C10 1.256 . S
O25 Gd0 2.717 . S
O25 Gd1 2.327 . S
O25 C10 1.257 . S
O26 Gd1 2.377 1_556 S
O26 C11 1.240 1_556 S
O27 Gd0 2.395 . S
O27 C11 1.240 . S
O28 Gd1 2.448 1_556 S
O28 C12 1.249 1_556 S
O29 Gd1 2.506 . S
O29 C12 1.252 . S
O30 Gd1 2.435 1_556 S
O30 C19 1.256 . S
O31 Gd0 2.327 1_556 S
O31 Gd1 2.717 1_556 S
O31 C19 1.257 . S
H32 C5 0.930 . S
H33 C6 0.931 . S
H34 C8 0.931 . S
H35 C9 0.931 . S
H36 C14 0.930 . S
H37 C15 0.931 . S
H38 C17 0.931 . S
H39 C18 0.931 . S
Gd40 C43 2.818 . S
Gd40 O60 2.377 . S
Gd40 O62 2.448 . S
Gd40 O63 2.506 1_554 S
Gd40 O64 2.435 . S
Gd40 O65 2.717 . S
Gd40 O67 2.395 1_655 S
Gd40 O71 2.327 1_554 S
Gd41 C52 2.818 1_655 S
Gd41 O61 2.395 . S
Gd41 O65 2.327 . S
Gd41 O66 2.377 1_655 S
Gd41 O68 2.448 1_554 S
Gd41 O69 2.506 . S
Gd41 O70 2.435 1_554 S
Gd41 O71 2.717 1_554 S
C42 O60 1.240 . S
C42 O61 1.240 . S
C43 Gd40 2.818 . S
C43 C44 1.510 . S
C43 O62 1.249 . S
C43 O63 1.252 1_554 S
C44 C43 1.510 . S
C44 C45 1.404 . S
C44 C46 1.352 1_554 S
C45 C44 1.404 . S
C45 C49 1.389 . S
C45 H72 0.930 . S
C46 C44 1.352 1_556 S
C46 C48 1.374 . S
C46 H73 0.931 . S
C47 C48 1.359 1_554 S
C47 C49 1.364 . S
C48 C46 1.374 . S
C48 C47 1.359 1_556 S
C48 H74 0.931 . S
C49 C45 1.389 . S
C49 C47 1.364 . S
C49 H75 0.931 . S
C50 O64 1.256 . S
C50 O65 1.257 . S
C51 O66 1.242 . S
C51 O67 1.240 . S
C52 Gd41 2.818 1_455 S
C52 C53 1.510 . S
C52 O68 1.249 1_454 S
C52 O69 1.252 1_455 S
C53 C52 1.510 . S
C53 C54 1.404 1_554 S
C53 C55 1.352 . S
C54 C53 1.404 1_556 S
C54 C58 1.389 . S
C54 H76 0.930 . S
C55 C53 1.352 . S
C55 C57 1.374 . S
C55 H77 0.931 . S
C56 C57 1.359 . S
C56 C58 1.364 1_554 S
C57 C55 1.374 . S
C57 C56 1.359 . S
C57 H78 0.931 . S
C58 C54 1.389 . S
C58 C56 1.364 1_556 S
C58 H79 0.931 . S
C59 O70 1.256 . S
C59 O71 1.257 . S
O60 Gd40 2.377 . S
O60 C42 1.240 . S
O61 Gd41 2.395 . S
O61 C42 1.240 . S
O62 Gd40 2.448 . S
O62 C43 1.249 . S
O63 Gd40 2.506 1_556 S
O63 C43 1.252 1_556 S
O64 Gd40 2.435 . S
O64 C50 1.256 . S
O65 Gd40 2.717 . S
O65 Gd41 2.327 . S
O65 C50 1.257 . S
O66 Gd41 2.377 1_455 S
O66 C51 1.242 . S
O67 Gd40 2.395 1_455 S
O67 C51 1.240 . S
O68 Gd41 2.448 1_556 S
O68 C52 1.249 1_656 S
O69 Gd41 2.506 . S
O69 C52 1.252 1_655 S
O70 Gd41 2.435 1_556 S
O70 C59 1.256 . S
O71 Gd40 2.327 1_556 S
O71 Gd41 2.717 1_556 S
O71 C59 1.257 . S
H72 C45 0.930 . S
H73 C46 0.931 . S
H74 C48 0.931 . S
H75 C49 0.931 . S
H76 C54 0.930 . S
H77 C55 0.931 . S
H78 C57 0.931 . S
H79 C58 0.931 . S
Gd80 C83 2.818 . S
Gd80 O100 2.377 . S
Gd80 O102 2.448 . S
Gd80 O103 2.506 . S
Gd80 O104 2.435 . S
Gd80 O105 2.717 . S
Gd80 O107 2.395 1_455 S
Gd80 O111 2.327 . S
Gd81 C92 2.818 1_455 S
Gd81 O101 2.395 . S
Gd81 O105 2.327 . S
Gd81 O106 2.377 1_455 S
Gd81 O108 2.448 . S
Gd81 O109 2.506 . S
Gd81 O110 2.435 . S
Gd81 O111 2.717 . S
C82 O100 1.240 . S
C82 O101 1.240 . S
C83 Gd80 2.818 . S
C83 C84 1.510 . S
C83 O102 1.249 . S
C83 O103 1.252 . S
C84 C83 1.510 . S
C84 C85 1.404 . S
C84 C86 1.352 . S
C85 C84 1.404 . S
C85 C89 1.389 . S
C85 H112 0.930 . S
C86 C84 1.352 . S
C86 C88 1.374 . S
C86 H113 0.931 . S
C87 C88 1.359 . S
C87 C89 1.364 . S
C88 C86 1.374 . S
C88 C87 1.359 . S
C88 H114 0.931 . S
C89 C85 1.389 . S
C89 C87 1.364 . S
C89 H115 0.931 . S
C90 O104 1.256 . S
C90 O105 1.257 . S
C91 O106 1.240 . S
C91 O107 1.240 . S
C92 Gd81 2.818 1_655 S
C92 C93 1.510 . S
C92 O108 1.249 1_655 S
C92 O109 1.252 1_655 S
C93 C92 1.510 . S
C93 C94 1.404 . S
C93 C95 1.352 . S
C94 C93 1.404 . S
C94 C98 1.389 . S
C94 H116 0.930 . S
C95 C93 1.352 . S
C95 C97 1.374 . S
C95 H117 0.931 . S
C96 C97 1.359 . S
C96 C98 1.364 . S
C97 C95 1.374 . S
C97 C96 1.359 . S
C97 H118 0.931 . S
C98 C94 1.389 . S
C98 C96 1.364 . S
C98 H119 0.931 . S
C99 O110 1.256 . S
C99 O111 1.257 . S
O100 Gd80 2.377 . S
O100 C82 1.240 . S
O101 Gd81 2.395 . S
O101 C82 1.240 . S
O102 Gd80 2.448 . S
O102 C83 1.249 . S
O103 Gd80 2.506 . S
O103 C83 1.252 . S
O104 Gd80 2.435 . S
O104 C90 1.256 . S
O105 Gd80 2.717 . S
O105 Gd81 2.327 . S
O105 C90 1.257 . S
O106 Gd81 2.377 1_655 S
O106 C91 1.240 . S
O107 Gd80 2.395 1_655 S
O107 C91 1.240 . S
O108 Gd81 2.448 . S
O108 C92 1.249 1_455 S
O109 Gd81 2.506 . S
O109 C92 1.252 1_455 S
O110 Gd81 2.435 . S
O110 C99 1.256 . S
O111 Gd80 2.327 . S
O111 Gd81 2.717 . S
O111 C99 1.257 . S
H112 C85 0.930 . S
H113 C86 0.931 . S
H114 C88 0.931 . S
H115 C89 0.931 . S
H116 C94 0.930 . S
H117 C95 0.931 . S
H118 C97 0.931 . S
H119 C98 0.931 . S
Gd120 C123 2.818 1_655 S
Gd120 O140 2.377 1_655 S
Gd120 O142 2.448 . S
Gd120 O143 2.506 . S
Gd120 O144 2.435 . S
Gd120 O145 2.717 . S
Gd120 O147 2.395 . S
Gd120 O151 2.327 . S
Gd121 C132 2.818 . S
Gd121 O141 2.395 1_655 S
Gd121 O145 2.327 . S
Gd121 O146 2.377 . S
Gd121 O148 2.448 . S
Gd121 O149 2.506 . S
Gd121 O150 2.435 . S
Gd121 O151 2.717 . S
C122 O140 1.240 . S
C122 O141 1.240 . S
C123 Gd120 2.818 1_455 S
C123 C124 1.510 . S
C123 O142 1.249 1_455 S
C123 O143 1.252 1_455 S
C124 C123 1.510 . S
C124 C125 1.404 . S
C124 C126 1.352 . S
C125 C124 1.404 . S
C125 C129 1.389 . S
C125 H152 0.930 . S
C126 C124 1.352 . S
C126 C128 1.374 . S
C126 H153 0.931 . S
C127 C128 1.359 . S
C127 C129 1.364 . S
C128 C126 1.374 . S
C128 C127 1.359 . S
C128 H154 0.931 . S
C129 C125 1.389 . S
C129 C127 1.364 . S
C129 H155 0.931 . S
C130 O144 1.256 . S
C130 O145 1.257 . S
C131 O146 1.240 . S
C131 O147 1.240 . S
C132 Gd121 2.818 . S
C132 C133 1.510 . S
C132 O148 1.249 . S
C132 O149 1.252 . S
C133 C132 1.510 . S
C133 C134 1.404 . S
C133 C135 1.352 . S
C134 C133 1.404 . S
C134 C138 1.389 . S
C134 H156 0.930 . S
C135 C133 1.352 . S
C135 C137 1.374 . S
C135 H157 0.931 . S
C136 C137 1.359 . S
C136 C138 1.364 . S
C137 C135 1.374 . S
C137 C136 1.359 . S
C137 H158 0.931 . S
C138 C134 1.389 . S
C138 C136 1.364 . S
C138 H159 0.931 . S
C139 O150 1.256 . S
C139 O151 1.257 . S
O140 Gd120 2.377 1_455 S
O140 C122 1.240 . S
O141 Gd121 2.395 1_455 S
O141 C122 1.240 . S
O142 Gd120 2.448 . S
O142 C123 1.249 1_655 S
O143 Gd120 2.506 . S
O143 C123 1.252 1_655 S
O144 Gd120 2.435 . S
O144 C130 1.256 . S
O145 Gd120 2.717 . S
O145 Gd121 2.327 . S
O145 C130 1.257 . S
O146 Gd121 2.377 . S
O146 C131 1.240 . S
O147 Gd120 2.395 . S
O147 C131 1.240 . S
O148 Gd121 2.448 . S
O148 C132 1.249 . S
O149 Gd121 2.506 . S
O149 C132 1.252 . S
O150 Gd121 2.435 . S
O150 C139 1.256 . S
O151 Gd120 2.327 . S
O151 Gd121 2.717 . S
O151 C139 1.257 . S
H152 C125 0.930 . S
H153 C126 0.931 . S
H154 C128 0.931 . S
H155 C129 0.931 . S
H156 C134 0.930 . S
H157 C135 0.931 . S
H158 C137 0.931 . S
H159 C138 0.931 . S
Gd160 C163 2.818 . S
Gd160 O180 2.377 . S
Gd160 O182 2.448 . S
Gd160 O183 2.506 1_554 S
Gd160 O184 2.435 . S
Gd160 O185 2.717 . S
Gd160 O187 2.395 . S
Gd160 O191 2.327 1_554 S
Gd161 C172 2.818 . S
Gd161 O181 2.395 . S
Gd161 O185 2.327 . S
Gd161 O186 2.377 1_554 S
Gd161 O188 2.448 1_554 S
Gd161 O189 2.506 . S
Gd161 O190 2.435 1_554 S
Gd161 O191 2.717 1_554 S
C162 O180 1.240 . S
C162 O181 1.240 . S
C163 Gd160 2.818 . S
C163 C164 1.510 . S
C163 O182 1.249 . S
C163 O183 1.252 1_554 S
C164 C163 1.510 . S
C164 C165 1.404 . S
C164 C166 1.352 1_554 S
C165 C164 1.404 . S
C165 C169 1.389 . S
C165 H192 0.930 . S
C166 C164 1.352 1_556 S
C166 C168 1.374 . S
C166 H193 0.931 . S
C167 C168 1.359 1_554 S
C167 C169 1.364 . S
C168 C166 1.374 . S
C168 C167 1.359 1_556 S
C168 H194 0.931 . S
C169 C165 1.389 . S
C169 C167 1.364 . S
C169 H195 0.931 . S
C170 O184 1.256 . S
C170 O185 1.257 . S
C171 O186 1.240 1_554 S
C171 O187 1.240 . S
C172 Gd161 2.818 . S
C172 C173 1.510 . S
C172 O188 1.249 1_554 S
C172 O189 1.252 . S
C173 C172 1.510 . S
C173 C174 1.404 1_554 S
C173 C175 1.352 . S
C174 C173 1.404 1_556 S
C174 C178 1.389 . S
C174 H196 0.930 . S
C175 C173 1.352 . S
C175 C177 1.374 . S
C175 H197 0.931 . S
C176 C177 1.359 . S
C176 C178 1.364 1_554 S
C177 C175 1.374 . S
C177 C176 1.359 . S
C177 H198 0.931 . S
C178 C174 1.389 . S
C178 C176 1.364 1_556 S
C178 H199 0.931 . S
C179 O190 1.256 . S
C179 O191 1.257 . S
O180 Gd160 2.377 . S
O180 C162 1.240 . S
O181 Gd161 2.395 . S
O181 C162 1.240 . S
O182 Gd160 2.448 . S
O182 C163 1.249 . S
O183 Gd160 2.506 1_556 S
O183 C163 1.252 1_556 S
O184 Gd160 2.435 . S
O184 C170 1.256 . S
O185 Gd160 2.717 . S
O185 Gd161 2.327 . S
O185 C170 1.257 . S
O186 Gd161 2.377 1_556 S
O186 C171 1.240 1_556 S
O187 Gd160 2.395 . S
O187 C171 1.240 . S
O188 Gd161 2.448 1_556 S
O188 C172 1.249 1_556 S
O189 Gd161 2.506 . S
O189 C172 1.252 . S
O190 Gd161 2.435 1_556 S
O190 C179 1.256 . S
O191 Gd160 2.327 1_556 S
O191 Gd161 2.717 1_556 S
O191 C179 1.257 . S
H192 C165 0.930 . S
H193 C166 0.931 . S
H194 C168 0.931 . S
H195 C169 0.931 . S
H196 C174 0.930 . S
H197 C175 0.931 . S
H198 C177 0.931 . S
H199 C178 0.931 . S
Gd200 C203 2.818 . S
Gd200 O220 2.377 . S
Gd200 O222 2.448 . S
Gd200 O223 2.506 1_554 S
Gd200 O224 2.435 . S
Gd200 O225 2.717 . S
Gd200 O227 2.395 . S
Gd200 O231 2.327 1_554 S
Gd201 C212 2.818 . S
Gd201 O221 2.395 . S
Gd201 O225 2.327 . S
Gd201 O226 2.377 . S
Gd201 O228 2.448 1_554 S
Gd201 O229 2.506 . S
Gd201 O230 2.435 1_554 S
Gd201 O231 2.717 1_554 S
C202 O220 1.240 . S
C202 O221 1.240 . S
C203 Gd200 2.818 . S
C203 C204 1.510 . S
C203 O222 1.249 . S
C203 O223 1.252 1_554 S
C204 C203 1.510 . S
C204 C205 1.404 . S
C204 C206 1.352 1_554 S
C205 C204 1.404 . S
C205 C209 1.389 . S
C205 H232 0.930 . S
C206 C204 1.352 1_556 S
C206 C208 1.374 . S
C206 H233 0.931 . S
C207 C208 1.359 1_554 S
C207 C209 1.364 . S
C208 C206 1.374 . S
C208 C207 1.359 1_556 S
C208 H234 0.931 . S
C209 C205 1.389 . S
C209 C207 1.364 . S
C209 H235 0.931 . S
C210 O224 1.256 . S
C210 O225 1.257 . S
C211 O226 1.243 . S
C211 O227 1.240 . S
C212 Gd201 2.818 . S
C212 C213 1.510 . S
C212 O228 1.249 1_554 S
C212 O229 1.252 . S
C213 C212 1.510 . S
C213 C214 1.404 1_554 S
C213 C215 1.352 . S
C214 C213 1.404 1_556 S
C214 C218 1.389 . S
C214 H236 0.930 . S
C215 C213 1.352 . S
C215 C217 1.374 . S
C215 H237 0.931 . S
C216 C217 1.359 . S
C216 C218 1.364 1_554 S
C217 C215 1.374 . S
C217 C216 1.359 . S
C217 H238 0.931 . S
C218 C214 1.389 . S
C218 C216 1.364 1_556 S
C218 H239 0.931 . S
C219 O230 1.256 . S
C219 O231 1.257 . S
O220 Gd200 2.377 . S
O220 C202 1.240 . S
O221 Gd201 2.395 . S
O221 C202 1.240 . S
O222 Gd200 2.448 . S
O222 C203 1.249 . S
O223 Gd200 2.506 1_556 S
O223 C203 1.252 1_556 S
O224 Gd200 2.435 . S
O224 C210 1.256 . S
O225 Gd200 2.717 . S
O225 Gd201 2.327 . S
O225 C210 1.257 . S
O226 Gd201 2.377 . S
O226 C211 1.243 . S
O227 Gd200 2.395 . S
O227 C211 1.240 . S
O228 Gd201 2.448 1_556 S
O228 C212 1.249 1_556 S
O229 Gd201 2.506 . S
O229 C212 1.252 . S
O230 Gd201 2.435 1_556 S
O230 C219 1.256 . S
O231 Gd200 2.327 1_556 S
O231 Gd201 2.717 1_556 S
O231 C219 1.257 . S
H232 C205 0.930 . S
H233 C206 0.931 . S
H234 C208 0.931 . S
H235 C209 0.931 . S
H236 C214 0.930 . S
H237 C215 0.931 . S
H238 C217 0.931 . S
H239 C218 0.931 . S
Gd240 C243 2.818 . S
Gd240 O260 2.377 . S
Gd240 O262 2.448 . S
Gd240 O263 2.506 . S
Gd240 O264 2.435 . S
Gd240 O265 2.717 . S
Gd240 O267 2.395 . S
Gd240 O271 2.327 . S
Gd241 C252 2.818 . S
Gd241 O261 2.395 . S
Gd241 O265 2.327 . S
Gd241 O266 2.377 . S
Gd241 O268 2.448 . S
Gd241 O269 2.506 . S
Gd241 O270 2.435 . S
Gd241 O271 2.717 . S
C242 O260 1.240 . S
C242 O261 1.240 . S
C243 Gd240 2.818 . S
C243 C244 1.510 . S
C243 O262 1.249 . S
C243 O263 1.252 . S
C244 C243 1.510 . S
C244 C245 1.404 . S
C244 C246 1.352 . S
C245 C244 1.404 . S
C245 C249 1.389 . S
C245 H272 0.930 . S
C246 C244 1.352 . S
C246 C248 1.374 . S
C246 H273 0.931 . S
C247 C248 1.359 . S
C247 C249 1.364 . S
C248 C246 1.374 . S
C248 C247 1.359 . S
C248 H274 0.931 . S
C249 C245 1.389 . S
C249 C247 1.364 . S
C249 H275 0.931 . S
C250 O264 1.256 . S
C250 O265 1.257 . S
C251 O266 1.240 . S
C251 O267 1.240 . S
C252 Gd241 2.818 . S
C252 C253 1.510 . S
C252 O268 1.249 . S
C252 O269 1.252 . S
C253 C252 1.510 . S
C253 C254 1.404 . S
C253 C255 1.352 . S
C254 C253 1.404 . S
C254 C258 1.389 . S
C254 H276 0.930 . S
C255 C253 1.352 . S
C255 C257 1.374 . S
C255 H277 0.931 . S
C256 C257 1.359 . S
C256 C258 1.364 . S
C257 C255 1.374 . S
C257 C256 1.359 . S
C257 H278 0.931 . S
C258 C254 1.389 . S
C258 C256 1.364 . S
C258 H279 0.931 . S
C259 O270 1.256 . S
C259 O271 1.257 . S
O260 Gd240 2.377 . S
O260 C242 1.240 . S
O261 Gd241 2.395 . S
O261 C242 1.240 . S
O262 Gd240 2.448 . S
O262 C243 1.249 . S
O263 Gd240 2.506 . S
O263 C243 1.252 . S
O264 Gd240 2.435 . S
O264 C250 1.256 . S
O265 Gd240 2.717 . S
O265 Gd241 2.327 . S
O265 C250 1.257 . S
O266 Gd241 2.377 . S
O266 C251 1.240 . S
O267 Gd240 2.395 . S
O267 C251 1.240 . S
O268 Gd241 2.448 . S
O268 C252 1.249 . S
O269 Gd241 2.506 . S
O269 C252 1.252 . S
O270 Gd241 2.435 . S
O270 C259 1.256 . S
O271 Gd240 2.327 . S
O271 Gd241 2.717 . S
O271 C259 1.257 . S
H272 C245 0.930 . S
H273 C246 0.931 . S
H274 C248 0.931 . S
H275 C249 0.931 . S
H276 C254 0.930 . S
H277 C255 0.931 . S
H278 C257 0.931 . S
H279 C258 0.931 . S
Gd280 C283 2.818 . S
Gd280 O300 2.377 . S
Gd280 O302 2.448 . S
Gd280 O303 2.506 . S
Gd280 O304 2.435 . S
Gd280 O305 2.717 . S
Gd280 O307 2.395 . S
Gd280 O311 2.327 . S
Gd281 C292 2.818 . S
Gd281 O301 2.395 . S
Gd281 O305 2.327 . S
Gd281 O306 2.377 . S
Gd281 O308 2.448 . S
Gd281 O309 2.506 . S
Gd281 O310 2.435 . S
Gd281 O311 2.717 . S
C282 O300 1.240 . S
C282 O301 1.240 . S
C283 Gd280 2.818 . S
C283 C284 1.510 . S
C283 O302 1.249 . S
C283 O303 1.252 . S
C284 C283 1.510 . S
C284 C285 1.404 . S
C284 C286 1.352 . S
C285 C284 1.404 . S
C285 C289 1.389 . S
C285 H312 0.930 . S
C286 C284 1.352 . S
C286 C288 1.374 . S
C286 H313 0.931 . S
C287 C288 1.359 . S
C287 C289 1.364 . S
C288 C286 1.374 . S
C288 C287 1.359 . S
C288 H314 0.931 . S
C289 C285 1.389 . S
C289 C287 1.364 . S
C289 H315 0.931 . S
C290 O304 1.256 . S
C290 O305 1.257 . S
C291 O306 1.240 . S
C291 O307 1.240 . S
C292 Gd281 2.818 . S
C292 C293 1.510 . S
C292 O308 1.249 . S
C292 O309 1.252 . S
C293 C292 1.510 . S
C293 C294 1.404 . S
C293 C295 1.352 . S
C294 C293 1.404 . S
C294 C298 1.389 . S
C294 H316 0.930 . S
C295 C293 1.352 . S
C295 C297 1.374 . S
C295 H317 0.931 . S
C296 C297 1.359 . S
C296 C298 1.364 . S
C297 C295 1.374 . S
C297 C296 1.359 . S
C297 H318 0.931 . S
C298 C294 1.389 . S
C298 C296 1.364 . S
C298 H319 0.931 . S
C299 O310 1.256 . S
C299 O311 1.257 . S
O300 Gd280 2.377 . S
O300 C282 1.240 . S
O301 Gd281 2.395 . S
O301 C282 1.240 . S
O302 Gd280 2.448 . S
O302 C283 1.249 . S
O303 Gd280 2.506 . S
O303 C283 1.252 . S
O304 Gd280 2.435 . S
O304 C290 1.256 . S
O305 Gd280 2.717 . S
O305 Gd281 2.327 . S
O305 C290 1.257 . S
O306 Gd281 2.377 . S
O306 C291 1.240 . S
O307 Gd280 2.395 . S
O307 C291 1.240 . S
O308 Gd281 2.448 . S
O308 C292 1.249 . S
O309 Gd281 2.506 . S
O309 C292 1.252 . S
O310 Gd281 2.435 . S
O310 C299 1.256 . S
O311 Gd280 2.327 . S
O311 Gd281 2.717 . S
O311 C299 1.257 . S
H312 C285 0.930 . S
H313 C286 0.931 . S
H314 C288 0.931 . S
H315 C289 0.931 . S
H316 C294 0.930 . S
H317 C295 0.931 . S
H318 C297 0.931 . S
H319 C298 0.931 . S
H320 C326 0.930 1_556 S
H321 C329 0.930 . S
H322 C330 0.930 . S
H323 C331 0.930 . S
H324 C334 0.930 . S
H325 C335 0.930 . S
C326 H320 0.930 1_554 S
C326 C327 1.355 . S
C326 C328 1.415 . S
C327 C326 1.355 . S
C327 C329 1.419 . S
C328 C326 1.415 . S
C328 C333 1.425 . S
C328 C335 1.409 1_554 S
C329 H321 0.930 . S
C329 C327 1.419 . S
C329 C330 1.362 . S
C330 H322 0.930 . S
C330 C329 1.362 . S
C330 C333 1.409 . S
C331 H323 0.930 . S
C331 C332 1.355 . S
C331 C333 1.415 . S
C332 C331 1.355 . S
C332 C334 1.419 1_554 S
C333 C328 1.425 . S
C333 C330 1.409 . S
C333 C331 1.415 . S
C334 H324 0.930 . S
C334 C332 1.419 1_556 S
C334 C335 1.362 . S
C335 H325 0.930 . S
C335 C328 1.409 1_556 S
C335 C334 1.362 . S
H336 C342 0.930 . S
H337 C345 0.930 . S
H338 C346 0.930 . S
H339 C347 0.930 . S
H340 C350 0.930 . S
H341 C351 0.930 . S
C342 H336 0.930 . S
C342 C343 1.355 1_556 S
C342 C344 1.415 . S
C343 C342 1.355 1_554 S
C343 C345 1.419 . S
C344 C342 1.415 . S
C344 C349 1.425 1_556 S
C344 C351 1.409 . S
C345 H337 0.930 . S
C345 C343 1.419 . S
C345 C346 1.362 . S
C346 H338 0.930 . S
C346 C345 1.362 . S
C346 C349 1.409 . S
C347 H339 0.930 . S
C347 C348 1.355 . S
C347 C349 1.415 . S
C348 C347 1.355 . S
C348 C350 1.419 1_554 S
C349 C344 1.425 1_554 S
C349 C346 1.409 . S
C349 C347 1.415 . S
C350 H340 0.930 . S
C350 C348 1.419 1_556 S
C350 C351 1.362 . S
C351 H341 0.930 . S
C351 C344 1.409 . S
C351 C350 1.362 . S
H352 C358 0.930 . S
H353 C361 0.930 . S
H354 C362 0.930 . S
H355 C363 0.930 . S
H356 C366 0.930 . S
H357 C367 0.930 . S
C358 H352 0.930 . S
C358 C359 1.355 . S
C358 C360 1.415 . S
C359 C358 1.355 . S
C359 C361 1.419 . S
C360 C358 1.415 . S
C360 C365 1.425 . S
C360 C367 1.409 . S
C361 H353 0.930 . S
C361 C359 1.419 . S
C361 C362 1.362 . S
C362 H354 0.930 . S
C362 C361 1.362 . S
C362 C365 1.409 . S
C363 H355 0.930 . S
C363 C364 1.355 . S
C363 C365 1.415 . S
C364 C363 1.355 . S
C364 C366 1.419 . S
C365 C360 1.425 . S
C365 C362 1.409 . S
C365 C363 1.415 . S
C366 H356 0.930 . S
C366 C364 1.419 . S
C366 C367 1.362 . S
C367 H357 0.930 . S
C367 C360 1.409 . S
C367 C366 1.362 . S
H368 C374 0.930 . S
H369 C377 0.930 . S
H370 C378 0.930 . S
H371 C379 0.930 . S
H372 C382 0.930 . S
H373 C383 0.930 . S
C374 H368 0.930 . S
C374 C375 1.355 . S
C374 C376 1.415 . S
C375 C374 1.355 . S
C375 C377 1.419 . S
C376 C374 1.415 . S
C376 C381 1.425 . S
C376 C383 1.409 . S
C377 H369 0.930 . S
C377 C375 1.419 . S
C377 C378 1.362 . S
C378 H370 0.930 . S
C378 C377 1.362 . S
C378 C381 1.409 . S
C379 H371 0.930 . S
C379 C380 1.355 . S
C379 C381 1.415 . S
C380 C379 1.355 . S
C380 C382 1.419 . S
C381 C376 1.425 . S
C381 C378 1.409 . S
C381 C379 1.415 . S
C382 H372 0.930 . S
C382 C380 1.419 . S
C382 C383 1.362 . S
C383 H373 0.930 . S
C383 C376 1.409 . S
C383 C382 1.362 . S
H384 C390 0.930 . S
H385 C393 0.930 . S
H386 C394 0.930 . S
H387 C395 0.930 . S
H388 C398 0.930 . S
H389 C399 0.930 . S
C390 H384 0.930 . S
C390 C391 1.355 . S
C390 C392 1.415 1_655 S
C391 C390 1.355 . S
C391 C393 1.419 . S
C392 C390 1.415 1_455 S
C392 C397 1.425 . S
C392 C399 1.409 . S
C393 H385 0.930 . S
C393 C391 1.419 . S
C393 C394 1.362 1_655 S
C394 H386 0.930 . S
C394 C393 1.362 1_455 S
C394 C397 1.409 . S
C395 H387 0.930 . S
C395 C396 1.355 . S
C395 C397 1.415 . S
C396 C395 1.355 . S
C396 C398 1.419 . S
C397 C392 1.425 . S
C397 C394 1.409 . S
C397 C395 1.415 . S
C398 H388 0.930 . S
C398 C396 1.419 . S
C398 C399 1.362 . S
C399 H389 0.930 . S
C399 C392 1.409 . S
C399 C398 1.362 . S
H400 C406 0.930 . S
H401 C409 0.930 . S
H402 C410 0.930 . S
H403 C411 0.930 . S
H404 C414 0.930 . S
H405 C415 0.930 . S
C406 H400 0.930 . S
C406 C407 1.355 . S
C406 C408 1.415 1_455 S
C407 C406 1.355 . S
C407 C409 1.419 . S
C408 C406 1.415 1_655 S
C408 C413 1.425 . S
C408 C415 1.409 . S
C409 H401 0.930 . S
C409 C407 1.419 . S
C409 C410 1.362 1_455 S
C410 H402 0.930 . S
C410 C409 1.362 1_655 S
C410 C413 1.409 . S
C411 H403 0.930 . S
C411 C412 1.355 . S
C411 C413 1.415 . S
C412 C411 1.355 . S
C412 C414 1.419 . S
C413 C408 1.425 . S
C413 C410 1.409 . S
C413 C411 1.415 . S
C414 H404 0.930 . S
C414 C412 1.419 . S
C414 C415 1.362 . S
C415 H405 0.930 . S
C415 C408 1.409 . S
C415 C414 1.362 . S
H416 C422 0.930 . S
H417 C425 0.930 . S
H418 C426 0.930 . S
H419 C427 0.930 . S
H420 C430 0.930 . S
H421 C431 0.930 . S
C422 H416 0.930 . S
C422 C423 1.355 . S
C422 C424 1.415 . S
C423 C422 1.355 . S
C423 C425 1.419 . S
C424 C422 1.415 . S
C424 C429 1.425 . S
C424 C431 1.409 . S
C425 H417 0.930 . S
C425 C423 1.419 . S
C425 C426 1.362 . S
C426 H418 0.930 . S
C426 C425 1.362 . S
C426 C429 1.409 . S
C427 H419 0.930 . S
C427 C428 1.355 . S
C427 C429 1.415 1_655 S
C428 C427 1.355 . S
C428 C430 1.419 . S
C429 C424 1.425 . S
C429 C426 1.409 . S
C429 C427 1.415 1_455 S
C430 H420 0.930 . S
C430 C428 1.419 . S
C430 C431 1.362 1_655 S
C431 H421 0.930 . S
C431 C424 1.409 . S
C431 C430 1.362 1_455 S
H432 C438 0.930 . S
H433 C441 0.930 . S
H434 C442 0.930 . S
H435 C443 0.930 . S
H436 C446 0.930 . S
H437 C447 0.930 1_655 S
C438 H432 0.930 . S
C438 C439 1.355 . S
C438 C440 1.415 . S
C439 C438 1.355 . S
C439 C441 1.419 . S
C440 C438 1.415 . S
C440 C445 1.425 . S
C440 C447 1.409 1_655 S
C441 H433 0.930 . S
C441 C439 1.419 . S
C441 C442 1.362 . S
C442 H434 0.930 . S
C442 C441 1.362 . S
C442 C445 1.409 . S
C443 H435 0.930 . S
C443 C444 1.355 . S
C443 C445 1.415 1_455 S
C444 C443 1.355 . S
C444 C446 1.419 . S
C445 C440 1.425 . S
C445 C442 1.409 . S
C445 C443 1.415 1_655 S
C446 H436 0.930 . S
C446 C444 1.419 . S
C446 C447 1.362 . S
C447 H437 0.930 1_455 S
C447 C440 1.409 1_455 S
C447 C446 1.362 . S
H448 C454 0.930 1_656 S
H449 C457 0.930 . S
H450 C458 0.930 . S
H451 C459 0.930 1_455 S
H452 C462 0.930 . S
H453 C463 0.930 . S
C454 H448 0.930 1_454 S
C454 C455 1.355 . S
C454 C456 1.415 1_455 S
C455 C454 1.355 . S
C455 C457 1.419 . S
C456 C454 1.415 1_655 S
C456 C461 1.425 1_655 S
C456 C463 1.409 1_554 S
C457 H449 0.930 . S
C457 C455 1.419 . S
C457 C458 1.362 . S
C458 H450 0.930 . S
C458 C457 1.362 . S
C458 C461 1.409 . S
C459 H451 0.930 1_655 S
C459 C460 1.355 . S
C459 C461 1.415 1_655 S
C460 C459 1.355 . S
C460 C462 1.419 1_554 S
C461 C456 1.425 1_455 S
C461 C458 1.409 . S
C461 C459 1.415 1_455 S
C462 H452 0.930 . S
C462 C460 1.419 1_556 S
C462 C463 1.362 . S
C463 H453 0.930 . S
C463 C456 1.409 1_556 S
C463 C462 1.362 . S
H464 C470 0.930 . S
H465 C473 0.930 . S
H466 C474 0.930 . S
H467 C475 0.930 . S
H468 C478 0.930 . S
H469 C479 0.930 . S
C470 H464 0.930 . S
C470 C471 1.355 . S
C470 C472 1.415 . S
C471 C470 1.355 . S
C471 C473 1.419 . S
C472 C470 1.415 . S
C472 C477 1.425 1_455 S
C472 C479 1.409 . S
C473 H465 0.930 . S
C473 C471 1.419 . S
C473 C474 1.362 1_455 S
C474 H466 0.930 . S
C474 C473 1.362 1_655 S
C474 C477 1.409 . S
C475 H467 0.930 . S
C475 C476 1.355 . S
C475 C477 1.415 . S
C476 C475 1.355 . S
C476 C478 1.419 . S
C477 C472 1.425 1_655 S
C477 C474 1.409 . S
C477 C475 1.415 . S
C478 H468 0.930 . S
C478 C476 1.419 . S
C478 C479 1.362 1_655 S
C479 H469 0.930 . S
C479 C472 1.409 . S
C479 C478 1.362 1_455 S
H480 C486 0.930 . S
H481 C489 0.930 . S
H482 C490 0.930 . S
H483 C491 0.930 . S
H484 C494 0.930 . S
H485 C495 0.930 . S
C486 H480 0.930 . S
C486 C487 1.355 . S
C486 C488 1.415 1_565 S
C487 C486 1.355 . S
C487 C489 1.419 1_554 S
C488 C486 1.415 1_545 S
C488 C493 1.425 1_545 S
C488 C495 1.409 . S
C489 H481 0.930 . S
C489 C487 1.419 1_556 S
C489 C490 1.362 . S
C490 H482 0.930 . S
C490 C489 1.362 . S
C490 C493 1.409 1_556 S
C491 H483 0.930 . S
C491 C492 1.355 . S
C491 C493 1.415 1_545 S
C492 C491 1.355 . S
C492 C494 1.419 . S
C493 C488 1.425 1_565 S
C493 C490 1.409 1_554 S
C493 C491 1.415 1_565 S
C494 H484 0.930 . S
C494 C492 1.419 . S
C494 C495 1.362 . S
C495 H485 0.930 . S
C495 C488 1.409 . S
C495 C494 1.362 . S
H496 C502 0.930 . S
H497 C505 0.930 . S
H498 C506 0.930 . S
H499 C507 0.930 . S
H500 C510 0.930 . S
H501 C511 0.930 . S
C502 H496 0.930 . S
C502 C503 1.355 . S
C502 C504 1.415 1_545 S
C503 C502 1.355 . S
C503 C505 1.419 . S
C504 C502 1.415 1_565 S
C504 C509 1.425 1_565 S
C504 C511 1.409 . S
C505 H497 0.930 . S
C505 C503 1.419 . S
C505 C506 1.362 . S
C506 H498 0.930 . S
C506 C505 1.362 . S
C506 C509 1.409 . S
C507 H499 0.930 . S
C507 C508 1.355 . S
C507 C509 1.415 1_565 S
C508 C507 1.355 . S
C508 C510 1.419 . S
C509 C504 1.425 1_545 S
C509 C506 1.409 . S
C509 C507 1.415 1_545 S
C510 H500 0.930 . S
C510 C508 1.419 . S
C510 C511 1.362 . S
C511 H501 0.930 . S
C511 C504 1.409 . S
C511 C510 1.362 . S
H512 C518 0.930 . S
H513 C521 0.930 . S
H514 C522 0.930 . S
H515 C523 0.930 . S
H516 C526 0.930 . S
H517 C527 0.930 . S
C518 H512 0.930 . S
C518 C519 1.355 . S
C518 C520 1.415 . S
C519 C518 1.355 . S
C519 C521 1.419 1_554 S
C520 C518 1.415 . S
C520 C525 1.425 1_554 S
C520 C527 1.409 . S
C521 H513 0.930 . S
C521 C519 1.419 1_556 S
C521 C522 1.362 . S
C522 H514 0.930 . S
C522 C521 1.362 . S
C522 C525 1.409 . S
C523 H515 0.930 . S
C523 C524 1.355 1_556 S
C523 C525 1.415 . S
C524 C523 1.355 1_554 S
C524 C526 1.419 . S
C525 C520 1.425 1_556 S
C525 C522 1.409 . S
C525 C523 1.415 . S
C526 H516 0.930 . S
C526 C524 1.419 . S
C526 C527 1.362 . S
C527 H517 0.930 . S
C527 C520 1.409 . S
C527 C526 1.362 . S
H528 C534 0.930 . S
H529 C537 0.930 . S
H530 C538 0.930 . S
H531 C539 0.930 . S
H532 C542 0.930 . S
H533 C543 0.930 . S
C534 H528 0.930 . S
C534 C535 1.355 . S
C534 C536 1.415 . S
C535 C534 1.355 . S
C535 C537 1.419 1_554 S
C536 C534 1.415 . S
C536 C541 1.425 . S
C536 C543 1.409 . S
C537 H529 0.930 . S
C537 C535 1.419 1_556 S
C537 C538 1.362 . S
C538 H530 0.930 . S
C538 C537 1.362 . S
C538 C541 1.409 1_556 S
C539 H531 0.930 . S
C539 C540 1.355 1_556 S
C539 C541 1.415 1_556 S
C540 C539 1.355 1_554 S
C540 C542 1.419 . S
C541 C536 1.425 . S
C541 C538 1.409 1_554 S
C541 C539 1.415 1_554 S
C542 H532 0.930 . S
C542 C540 1.419 . S
C542 C543 1.362 . S
C543 H533 0.930 . S
C543 C536 1.409 . S
C543 C542 1.362 . S
H544 C550 0.930 . S
H545 C553 0.930 . S
H546 C554 0.930 . S
H547 C555 0.930 . S
H548 C558 0.930 . S
H549 C559 0.930 . S
C550 H544 0.930 . S
C550 C551 1.355 . S
C550 C552 1.415 . S
C551 C550 1.355 . S
C551 C553 1.419 . S
C552 C550 1.415 . S
C552 C557 1.425 . S
C552 C559 1.409 . S
C553 H545 0.930 . S
C553 C551 1.419 . S
C553 C554 1.362 . S
C554 H546 0.930 . S
C554 C553 1.362 . S
C554 C557 1.409 . S
C555 H547 0.930 . S
C555 C556 1.355 . S
C555 C557 1.415 . S
C556 C555 1.355 . S
C556 C558 1.419 . S
C557 C552 1.425 . S
C557 C554 1.409 . S
C557 C555 1.415 . S
C558 H548 0.930 . S
C558 C556 1.419 . S
C558 C559 1.362 . S
C559 H549 0.930 . S
C559 C552 1.409 . S
C559 C558 1.362 . S
H560 C566 0.930 . S
H561 C569 0.930 . S
H562 C570 0.930 . S
H563 C571 0.930 . S
H564 C574 0.930 . S
H565 C575 0.930 . S
C566 H560 0.930 . S
C566 C567 1.355 . S
C566 C568 1.415 . S
C567 C566 1.355 . S
C567 C569 1.419 . S
C568 C566 1.415 . S
C568 C573 1.425 . S
C568 C575 1.409 . S
C569 H561 0.930 . S
C569 C567 1.419 . S
C569 C570 1.362 . S
C570 H562 0.930 . S
C570 C569 1.362 . S
C570 C573 1.409 . S
C571 H563 0.930 . S
C571 C572 1.355 . S
C571 C573 1.415 . S
C572 C571 1.355 . S
C572 C574 1.419 . S
C573 C568 1.425 . S
C573 C570 1.409 . S
C573 C571 1.415 . S
C574 H564 0.930 . S
C574 C572 1.419 . S
C574 C575 1.362 . S
C575 H565 0.930 . S
C575 C568 1.409 . S
C575 C574 1.362 . S
H576 C582 0.930 . S
H577 C585 0.930 . S
H578 C586 0.930 . S
H579 C587 0.930 . S
H580 C590 0.930 . S
H581 C591 0.930 . S
C582 H576 0.930 . S
C582 C583 1.355 . S
C582 C584 1.415 . S
C583 C582 1.355 . S
C583 C585 1.419 1_455 S
C584 C582 1.415 . S
C584 C589 1.425 1_455 S
C584 C591 1.409 . S
C585 H577 0.930 . S
C585 C583 1.419 1_655 S
C585 C586 1.362 . S
C586 H578 0.930 . S
C586 C585 1.362 . S
C586 C589 1.409 . S
C587 H579 0.930 . S
C587 C588 1.355 . S
C587 C589 1.415 . S
C588 C587 1.355 . S
C588 C590 1.419 1_655 S
C589 C584 1.425 1_655 S
C589 C586 1.409 . S
C589 C587 1.415 . S
C590 H580 0.930 . S
C590 C588 1.419 1_455 S
C590 C591 1.362 . S
C591 H581 0.930 . S
C591 C584 1.409 . S
C591 C590 1.362 . S
H592 C598 0.930 . S
H593 C601 0.930 . S
H594 C602 0.930 . S
H595 C603 0.930 . S
H596 C606 0.930 . S
H597 C607 0.930 . S
C598 H592 0.930 . S
C598 C599 1.355 . S
C598 C600 1.415 . S
C599 C598 1.355 . S
C599 C601 1.419 1_655 S
C600 C598 1.415 . S
C600 C605 1.425 1_655 S
C600 C607 1.409 . S
C601 H593 0.930 . S
C601 C599 1.419 1_455 S
C601 C602 1.362 . S
C602 H594 0.930 . S
C602 C601 1.362 . S
C602 C605 1.409 . S
C603 H595 0.930 . S
C603 C604 1.355 . S
C603 C605 1.415 . S
C604 C603 1.355 . S
C604 C606 1.419 1_455 S
C605 C600 1.425 1_455 S
C605 C602 1.409 . S
C605 C603 1.415 . S
C606 H596 0.930 . S
C606 C604 1.419 1_655 S
C606 C607 1.362 . S
C607 H597 0.930 . S
C607 C600 1.409 . S
C607 C606 1.362 . S
H608 C614 0.930 . S
H609 C617 0.930 . S
H610 C618 0.930 . S
H611 C619 0.930 . S
H612 C622 0.930 . S
H613 C623 0.930 . S
C614 H608 0.930 . S
C614 C615 1.355 1_455 S
C614 C616 1.415 . S
C615 C614 1.355 1_655 S
C615 C617 1.419 . S
C616 C614 1.415 . S
C616 C621 1.425 1_455 S
C616 C623 1.409 . S
C617 H609 0.930 . S
C617 C615 1.419 . S
C617 C618 1.362 . S
C618 H610 0.930 . S
C618 C617 1.362 . S
C618 C621 1.409 . S
C619 H611 0.930 . S
C619 C620 1.355 1_655 S
C619 C621 1.415 . S
C620 C619 1.355 1_455 S
C620 C622 1.419 . S
C621 C616 1.425 1_655 S
C621 C618 1.409 . S
C621 C619 1.415 . S
C622 H612 0.930 . S
C622 C620 1.419 . S
C622 C623 1.362 . S
C623 H613 0.930 . S
C623 C616 1.409 . S
C623 C622 1.362 . S
H624 C630 0.930 . S
H625 C633 0.930 . S
H626 C634 0.930 . S
H627 C635 0.930 . S
H628 C638 0.930 . S
H629 C639 0.930 . S
C630 H624 0.930 . S
C630 C631 1.355 . S
C630 C632 1.415 . S
C631 C630 1.355 . S
C631 C633 1.419 . S
C632 C630 1.415 . S
C632 C637 1.425 1_655 S
C632 C639 1.409 1_655 S
C633 H625 0.930 . S
C633 C631 1.419 . S
C633 C634 1.362 . S
C634 H626 0.930 . S
C634 C633 1.362 . S
C634 C637 1.409 1_655 S
C635 H627 0.930 . S
C635 C636 1.355 . S
C635 C637 1.415 . S
C636 C635 1.355 . S
C636 C638 1.419 . S
C637 C632 1.425 1_455 S
C637 C634 1.409 1_455 S
C637 C635 1.415 . S
C638 H628 0.930 . S
C638 C636 1.419 . S
C638 C639 1.362 . S
C639 H629 0.930 . S
C639 C632 1.409 1_455 S
C639 C638 1.362 . S
H640 C646 0.930 . S
H641 C649 0.930 . S
H642 C650 0.930 . S
H643 C651 0.930 . S
H644 C654 0.930 . S
H645 C655 0.930 . S
C646 H640 0.930 . S
C646 C647 1.355 . S
C646 C648 1.415 . S
C647 C646 1.355 . S
C647 C649 1.419 . S
C648 C646 1.415 . S
C648 C653 1.425 . S
C648 C655 1.409 . S
C649 H641 0.930 . S
C649 C647 1.419 . S
C649 C650 1.362 . S
C650 H642 0.930 . S
C650 C649 1.362 . S
C650 C653 1.409 . S
C651 H643 0.930 . S
C651 C652 1.355 . S
C651 C653 1.415 . S
C652 C651 1.355 . S
C652 C654 1.419 . S
C653 C648 1.425 . S
C653 C650 1.409 . S
C653 C651 1.415 . S
C654 H644 0.930 . S
C654 C652 1.419 . S
C654 C655 1.362 . S
C655 H645 0.930 . S
C655 C648 1.409 . S
C655 C654 1.362 . S
H656 C662 0.930 . S
H657 C665 0.930 . S
H658 C666 0.930 . S
H659 C667 0.930 . S
H660 C670 0.930 . S
H661 C671 0.930 . S
C662 H656 0.930 . S
C662 C663 1.355 . S
C662 C664 1.415 . S
C663 C662 1.355 . S
C663 C665 1.419 . S
C664 C662 1.415 . S
C664 C669 1.425 . S
C664 C671 1.409 . S
C665 H657 0.930 . S
C665 C663 1.419 . S
C665 C666 1.362 . S
C666 H658 0.930 . S
C666 C665 1.362 . S
C666 C669 1.409 . S
C667 H659 0.930 . S
C667 C668 1.355 . S
C667 C669 1.415 . S
C668 C667 1.355 . S
C668 C670 1.419 . S
C669 C664 1.425 . S
C669 C666 1.409 . S
C669 C667 1.415 . S
C670 H660 0.930 . S
C670 C668 1.419 . S
C670 C671 1.362 . S
C671 H661 0.930 . S
C671 C664 1.409 . S
C671 C670 1.362 . S
H672 C678 0.930 . S
H673 C681 0.930 . S
H674 C682 0.930 . S
H675 C683 0.930 . S
H676 C686 0.930 . S
H677 C687 0.930 . S
C678 H672 0.930 . S
C678 C679 1.355 . S
C678 C680 1.415 . S
C679 C678 1.355 . S
C679 C681 1.419 . S
C680 C678 1.415 . S
C680 C685 1.425 . S
C680 C687 1.409 . S
C681 H673 0.930 . S
C681 C679 1.419 . S
C681 C682 1.362 . S
C682 H674 0.930 . S
C682 C681 1.362 . S
C682 C685 1.409 . S
C683 H675 0.930 . S
C683 C684 1.355 . S
C683 C685 1.415 . S
C684 C683 1.355 . S
C684 C686 1.419 . S
C685 C680 1.425 . S
C685 C682 1.409 . S
C685 C683 1.415 . S
C686 H676 0.930 . S
C686 C684 1.419 . S
C686 C687 1.362 . S
C687 H677 0.930 . S
C687 C680 1.409 . S
C687 C686 1.362 . S
H688 C694 0.930 . S
H689 C697 0.930 . S
H690 C698 0.930 . S
H691 C699 0.930 . S
H692 C702 0.930 . S
H693 C703 0.930 . S
C694 H688 0.930 . S
C694 C695 1.355 . S
C694 C696 1.415 . S
C695 C694 1.355 . S
C695 C697 1.419 . S
C696 C694 1.415 . S
C696 C701 1.425 . S
C696 C703 1.409 . S
C697 H689 0.930 . S
C697 C695 1.419 . S
C697 C698 1.362 . S
C698 H690 0.930 . S
C698 C697 1.362 . S
C698 C701 1.409 . S
C699 H691 0.930 . S
C699 C700 1.355 . S
C699 C701 1.415 . S
C700 C699 1.355 . S
C700 C702 1.419 . S
C701 C696 1.425 . S
C701 C698 1.409 . S
C701 C699 1.415 . S
C702 H692 0.930 . S
C702 C700 1.419 . S
C702 C703 1.362 . S
C703 H693 0.930 . S
C703 C696 1.409 . S
C703 C702 1.362 . S
C327 C11 2.284 . S
C332 C2 2.284 . S
C343 C51 2.304 . S
C348 C42 2.304 . S
C359 C91 2.308 . S
C364 C82 2.308 . S
C375 C131 2.275 . S
C380 C122 2.275 . S
C391 C171 2.315 . S
C396 C162 2.315 . S
C407 C202 2.319 . S
C412 C211 2.319 . S
C423 C251 2.301 . S
C428 C242 2.301 . S
C439 C282 2.275 . S
C444 C291 2.275 . S
C455 C56 2.780 . S
C460 C7 2.780 . S
C471 C127 2.756 . S
C476 C96 2.756 . S
C487 C167 2.738 . S
C492 C216 2.738 . S
C503 C256 2.744 . S
C508 C287 2.744 . S
C519 C16 1.946 . S
C524 C207 1.946 . S
C535 C176 1.958 . S
C540 C47 1.958 . S
C551 C87 1.899 . S
C556 C296 1.899 . S
C567 C136 1.896 . S
C572 C247 1.896 . S
C583 C10 1.440 . S
C588 C130 1.451 . S
C599 C50 1.618 . S
C604 C90 1.574 . S
C615 C59 1.481 . S
C620 C99 1.450 . S
C631 C139 1.573 . S
C636 C19 1.632 . S
C647 C170 1.487 . S
C652 C290 1.440 . S
C663 C210 1.643 . S
C668 C250 1.607 . S
C679 C219 1.472 . S
C684 C259 1.424 . S
C695 C299 1.592 . S
C700 C179 1.646 . S
