# Generated by pormake.
# Topology wjx, (5)-cn, num edge types: 1
# Building blocks:
#     Node 0, Type 0, BuildingBlock: BEQFEK_clean_sbu_0, # of connection points: 5
#     Node 1, Type 0, BuildingBlock: BEQFEK_clean_sbu_0, # of connection points: 5
#     Node 2, Type 0, BuildingBlock: BEQFEK_clean_sbu_0, # of connection points: 5
#     Node 3, Type 0, BuildingBlock: BEQFEK_clean_sbu_0, # of connection points: 5
#     Node 4, Type 0, BuildingBlock: BEQFEK_clean_sbu_0, # of connection points: 5
#     Node 5, Type 0, BuildingBlock: BEQFEK_clean_sbu_0, # of connection points: 5
#     Node 6, Type 0, BuildingBlock: BEQFEK_clean_sbu_0, # of connection points: 5
#     Node 7, Type 0, BuildingBlock: BEQFEK_clean_sbu_0, # of connection points: 5
#     Node 8, Type 0, BuildingBlock: BEQFEK_clean_sbu_0, # of connection points: 5
#     Node 9, Type 0, BuildingBlock: BEQFEK_clean_sbu_0, # of connection points: 5
#     Node 10, Type 0, BuildingBlock: BEQFEK_clean_sbu_0, # of connection points: 5
#     Node 11, Type 0, BuildingBlock: BEQFEK_clean_sbu_0, # of connection points: 5
#     Edge 12, Type (0, 0), BuildingBlock: EZIPEK_clean_linker_0, # of connection points: 2
#     Edge 13, Type (0, 0), BuildingBlock: EZIPEK_clean_linker_0, # of connection points: 2
#     Edge 14, Type (0, 0), BuildingBlock: EZIPEK_clean_linker_0, # of connection points: 2
#     Edge 15, Type (0, 0), BuildingBlock: EZIPEK_clean_linker_0, # of connection points: 2
#     Edge 16, Type (0, 0), BuildingBlock: EZIPEK_clean_linker_0, # of connection points: 2
#     Edge 17, Type (0, 0), BuildingBlock: EZIPEK_clean_linker_0, # of connection points: 2
#     Edge 18, Type (0, 0), BuildingBlock: EZIPEK_clean_linker_0, # of connection points: 2
#     Edge 19, Type (0, 0), BuildingBlock: EZIPEK_clean_linker_0, # of connection points: 2
#     Edge 20, Type (0, 0), BuildingBlock: EZIPEK_clean_linker_0, # of connection points: 2
#     Edge 21, Type (0, 0), BuildingBlock: EZIPEK_clean_linker_0, # of connection points: 2
#     Edge 22, Type (0, 0), BuildingBlock: EZIPEK_clean_linker_0, # of connection points: 2
#     Edge 23, Type (0, 0), BuildingBlock: EZIPEK_clean_linker_0, # of connection points: 2
#     Edge 24, Type (0, 0), BuildingBlock: EZIPEK_clean_linker_0, # of connection points: 2
#     Edge 25, Type (0, 0), BuildingBlock: EZIPEK_clean_linker_0, # of connection points: 2
#     Edge 26, Type (0, 0), BuildingBlock: EZIPEK_clean_linker_0, # of connection points: 2
#     Edge 27, Type (0, 0), BuildingBlock: EZIPEK_clean_linker_0, # of connection points: 2
#     Edge 28, Type (0, 0), BuildingBlock: EZIPEK_clean_linker_0, # of connection points: 2
#     Edge 29, Type (0, 0), BuildingBlock: EZIPEK_clean_linker_0, # of connection points: 2
#     Edge 30, Type (0, 0), BuildingBlock: EZIPEK_clean_linker_0, # of connection points: 2
#     Edge 31, Type (0, 0), BuildingBlock: EZIPEK_clean_linker_0, # of connection points: 2
#     Edge 32, Type (0, 0), BuildingBlock: EZIPEK_clean_linker_0, # of connection points: 2
#     Edge 33, Type (0, 0), BuildingBlock: EZIPEK_clean_linker_0, # of connection points: 2
#     Edge 34, Type (0, 0), BuildingBlock: EZIPEK_clean_linker_0, # of connection points: 2
#     Edge 35, Type (0, 0), BuildingBlock: EZIPEK_clean_linker_0, # of connection points: 2
#     Edge 36, Type (0, 0), BuildingBlock: EZIPEK_clean_linker_0, # of connection points: 2
#     Edge 37, Type (0, 0), BuildingBlock: EZIPEK_clean_linker_0, # of connection points: 2
#     Edge 38, Type (0, 0), BuildingBlock: EZIPEK_clean_linker_0, # of connection points: 2
#     Edge 39, Type (0, 0), BuildingBlock: EZIPEK_clean_linker_0, # of connection points: 2
#     Edge 40, Type (0, 0), BuildingBlock: EZIPEK_clean_linker_0, # of connection points: 2
#     Edge 41, Type (0, 0), BuildingBlock: EZIPEK_clean_linker_0, # of connection points: 2
# Relax obj value: 0.091
# Max RMSD: 0.107
# Mean RMSD: 0.107
data_MOF--net-wjx--node1-BEQFEK_clean_sbu_0--edge1-EZIPEK_clean_linker_0
_symmetry_space_group_name_H-M    P1
_symmetry_Int_Tables_number       1
_symmetry_cell_setting            triclinic
loop_
_symmetry_equiv_pos_as_xyz
'x, y, z'
_cell_length_a     54.649854
_cell_length_b     54.639807
_cell_length_c     15.239727
_cell_angle_alpha  90.017131
_cell_angle_beta   89.995351
_cell_angle_gamma 120.01184
loop_
_atom_site_label
_atom_site_type_symbol
_atom_site_fract_x
_atom_site_fract_y
_atom_site_fract_z
_atom_type_partial_charge
Co0 Co 0.11551 0.45356 0.20225 0.0
Co1 Co 0.10765 0.46015 0.00089 0.0
C2 C 0.05891 0.42165 0.11238 0.0
O3 O 0.07494 0.4289 0.17898 0.0
O4 O 0.06848 0.43107 0.03605 0.0
C5 C 0.10269 0.42732 0.36964 0.0
O6 O 0.08142 0.40654 0.32802 0.0
C7 C 0.09693 0.44375 0.81426 0.0
C8 C 0.12536 0.48437 0.74891 0.0
C9 C 0.10723 0.45592 0.7328 0.0
N10 N 0.10922 0.46398 0.87595 0.0
N11 N 0.12587 0.48825 0.83624 0.0
C12 C 0.07645 0.41341 0.83392 0.0
H13 H 0.05666 0.41161 0.85995 0.0
H14 H 0.08531 0.40581 0.88579 0.0
H15 H 0.0715 0.40003 0.77441 0.0
C16 C 0.16104 0.44409 0.13446 0.0
N17 N 0.13858 0.44772 0.123 0.0
N18 N 0.1357 0.45118 0.03886 0.0
C19 C 0.1565 0.45012 0.99459 0.0
C20 C 0.17301 0.44537 0.05302 0.0
C21 C 0.17216 0.44205 0.22206 0.0
H22 H 0.1548 0.42516 0.2612 0.0
H23 H 0.18977 0.43755 0.21537 0.0
H24 H 0.17972 0.46227 0.25785 0.0
O25 O 0.1231 0.49262 0.19334 0.0
O26 O 0.11519 0.49694 0.05243 0.0
H27 H 0.16774 0.4785 0.88637 0.0
H28 H 0.18012 0.45352 0.87634 0.0
C29 C 0.16248 0.45644 0.89933 0.0
H30 H 0.14332 0.44202 0.86278 0.0
H31 H 0.13823 0.50735 0.86903 0.0
O32 O 0.12149 0.44829 0.32689 0.0
C33 C 0.12136 0.50685 0.13014 0.0
Co34 Co 0.66029 0.11739 0.54663 0.0
Co35 Co 0.64879 0.10873 0.34412 0.0
C36 C 0.63833 0.06062 0.45738 0.0
O37 O 0.64483 0.07653 0.52446 0.0
O38 O 0.64091 0.07045 0.37995 0.0
C39 C 0.67982 0.1095 0.71334 0.0
O40 O 0.68821 0.09428 0.66972 0.0
C41 C 0.65713 0.10168 0.1557 0.0
C42 C 0.6382 0.12495 0.09406 0.0
C43 C 0.65253 0.11068 0.07555 0.0
N44 N 0.64629 0.11057 0.21922 0.0
N45 N 0.63467 0.12412 0.18166 0.0
C46 C 0.67285 0.08625 0.17179 0.0
H47 H 0.67995 0.08875 0.24111 0.0
H48 H 0.69124 0.09408 0.12685 0.0
H49 H 0.65862 0.06345 0.15807 0.0
C50 C 0.7161 0.16346 0.48175 0.0
N51 N 0.69013 0.14089 0.46893 0.0
N52 N 0.68497 0.13745 0.38402 0.0
C53 C 0.70748 0.15774 0.34064 0.0
C54 C 0.72791 0.17473 0.40062 0.0
C55 C 0.72846 0.17501 0.56979 0.0
H56 H 0.71245 0.17628 0.61135 0.0
H57 H 0.73411 0.16028 0.60187 0.0
H58 H 0.74767 0.19618 0.56437 0.0
O59 O 0.62856 0.12449 0.53427 0.0
O60 O 0.61815 0.1146 0.39301 0.0
H61 H 0.69015 0.16325 0.22187 0.0
H62 H 0.72825 0.18193 0.2238 0.0
C63 C 0.70894 0.16221 0.24378 0.0
H64 H 0.70918 0.14426 0.21107 0.0
H65 H 0.62514 0.13363 0.21613 0.0
O66 O 0.67044 0.12333 0.67222 0.0
C67 C 0.61307 0.12129 0.46819 0.0
Co68 Co 0.54588 0.66242 0.8724 0.0
Co69 Co 0.54059 0.64825 0.67046 0.0
C70 C 0.57919 0.63899 0.78871 0.0
O71 O 0.57283 0.64925 0.85374 0.0
O72 O 0.56861 0.63725 0.71271 0.0
C73 C 0.57216 0.68192 0.04002 0.0
O74 O 0.59601 0.69053 0.99755 0.0
C75 C 0.5569 0.65722 0.48227 0.0
C76 C 0.51487 0.63563 0.41901 0.0
C77 C 0.54345 0.65181 0.40151 0.0
N78 N 0.53706 0.64513 0.54511 0.0
N79 N 0.51204 0.63191 0.50651 0.0
C80 C 0.5879 0.67472 0.49958 0.0
H81 H 0.5919 0.68073 0.56993 0.0
H82 H 0.59733 0.6939 0.4576 0.0
H83 H 0.59818 0.66225 0.48234 0.0
C84 C 0.55586 0.71766 0.80271 0.0
N85 N 0.55168 0.69132 0.79209 0.0
N86 N 0.54925 0.68523 0.70769 0.0
C87 C 0.55134 0.70742 0.66256 0.0
C88 C 0.5559 0.72869 0.72064 0.0
C89 C 0.55807 0.73115 0.88979 0.0
H90 H 0.5392 0.71717 0.92982 0.0
H91 H 0.5769 0.73345 0.9249 0.0
H92 H 0.55987 0.75221 0.88254 0.0
O93 O 0.50762 0.62892 0.86047 0.0
O94 O 0.5033 0.61972 0.7175 0.0
H95 H 0.52717 0.68727 0.54791 0.0
H96 H 0.54258 0.72511 0.54765 0.0
C97 C 0.54606 0.70747 0.56657 0.0
H98 H 0.56472 0.71001 0.53024 0.0
H99 H 0.49289 0.6212 0.54018 0.0
O100 O 0.54922 0.67289 0.99761 0.0
C101 C 0.49348 0.61408 0.79519 0.0
Co102 Co 0.88352 0.54528 0.20865 0.0
Co103 Co 0.89399 0.54109 0.00726 0.0
C104 C 0.9409 0.57937 0.12685 0.0
O105 O 0.9238 0.57215 0.1908 0.0
O106 O 0.93267 0.56952 0.04983 0.0
C107 C 0.89224 0.57128 0.37647 0.0
O108 O 0.91081 0.59415 0.33493 0.0
C109 C 0.90181 0.55683 0.81885 0.0
C110 C 0.88225 0.51462 0.75688 0.0
C111 C 0.89435 0.54312 0.73846 0.0
N112 N 0.89399 0.53722 0.88237 0.0
N113 N 0.88271 0.51209 0.8446 0.0
C114 C 0.9151 0.58789 0.83508 0.0
H115 H 0.93801 0.59816 0.82031 0.0
H116 H 0.91239 0.59205 0.90471 0.0
H117 H 0.90578 0.5972 0.7908 0.0
C118 C 0.83806 0.55423 0.13685 0.0
N119 N 0.86079 0.55099 0.12699 0.0
N120 N 0.86516 0.54925 0.04272 0.0
C121 C 0.84505 0.55108 0.99667 0.0
C122 C 0.82745 0.5545 0.05435 0.0
C123 C 0.82577 0.55506 0.22363 0.0
H124 H 0.82113 0.53594 0.26193 0.0
H125 H 0.84162 0.57371 0.26106 0.0
H126 H 0.80619 0.55624 0.21575 0.0
O127 O 0.87851 0.50688 0.1975 0.0
O128 O 0.88576 0.50404 0.05531 0.0
H129 H 0.8415 0.52741 0.88125 0.0
H130 H 0.81999 0.54387 0.87899 0.0
C131 C 0.84061 0.54653 0.90004 0.0
H132 H 0.85743 0.56512 0.86535 0.0
H133 H 0.87439 0.49306 0.87892 0.0
O134 O 0.87589 0.54908 0.33334 0.0
C135 C 0.88045 0.49347 0.13208 0.0
Co136 Co 0.33847 0.88234 0.54502 0.0
Co137 Co 0.35546 0.89295 0.34476 0.0
C138 C 0.3627 0.93973 0.46539 0.0
O139 O 0.35133 0.92254 0.52849 0.0
O140 O 0.36558 0.93149 0.38966 0.0
C141 C 0.32089 0.89004 0.71442 0.0
O142 O 0.3158 0.90828 0.67414 0.0
C143 C 0.3467 0.9004 0.15661 0.0
C144 C 0.37243 0.88452 0.0932 0.0
C145 C 0.35392 0.89423 0.07562 0.0
N146 N 0.35994 0.89408 0.21955 0.0
N147 N 0.37561 0.88502 0.18089 0.0
C148 C 0.32672 0.91105 0.17394 0.0
H149 H 0.31959 0.90724 0.24335 0.0
H150 H 0.30832 0.90077 0.12892 0.0
H151 H 0.33773 0.93412 0.16115 0.0
C152 C 0.28466 0.83716 0.46856 0.0
N153 N 0.31086 0.85973 0.46092 0.0
N154 N 0.31815 0.86374 0.3774 0.0
C155 C 0.29692 0.84332 0.32983 0.0
C156 C 0.27497 0.82616 0.38548 0.0
C157 C 0.27027 0.82529 0.55419 0.0
H158 H 0.28272 0.81799 0.59225 0.0
H159 H 0.26969 0.84221 0.59287 0.0
H160 H 0.24846 0.8074 0.54443 0.0
O161 O 0.37216 0.87772 0.53552 0.0
O162 O 0.38392 0.88442 0.39425 0.0
H163 H 0.28257 0.81607 0.21554 0.0
H164 H 0.29457 0.85256 0.19531 0.0
C165 C 0.29861 0.83791 0.23454 0.0
H166 H 0.31985 0.84125 0.21909 0.0
H167 H 0.38771 0.87816 0.21455 0.0
O168 O 0.3268 0.87399 0.66977 0.0
C169 C 0.388 0.87905 0.47237 0.0
Co170 Co 0.45574 0.33956 0.87226 0.0
Co171 Co 0.46086 0.35379 0.67043 0.0
C172 C 0.42271 0.36345 0.78824 0.0
O173 O 0.42929 0.35325 0.85272 0.0
O174 O 0.43283 0.36484 0.71182 0.0
C175 C 0.42927 0.32314 0.03885 0.0
O176 O 0.40708 0.31991 0.99565 0.0
C177 C 0.44248 0.34637 0.48468 0.0
C178 C 0.48313 0.36074 0.41657 0.0
C179 C 0.45437 0.3487 0.40232 0.0
N180 N 0.46325 0.35569 0.545 0.0
N181 N 0.48751 0.36461 0.50356 0.0
C182 C 0.41198 0.33486 0.50648 0.0
H183 H 0.40929 0.35181 0.537 0.0
H184 H 0.4053 0.31769 0.55563 0.0
H185 H 0.39847 0.32681 0.44713 0.0
C186 C 0.44588 0.28443 0.80308 0.0
N187 N 0.4498 0.31067 0.7925 0.0
N188 N 0.45291 0.31707 0.70838 0.0
C189 C 0.45199 0.29537 0.66347 0.0
C190 C 0.44705 0.27392 0.72123 0.0
C191 C 0.4434 0.27084 0.89017 0.0
H192 H 0.42667 0.27156 0.92943 0.0
H193 H 0.43847 0.24862 0.88262 0.0
H194 H 0.46362 0.28304 0.92633 0.0
O195 O 0.49429 0.37281 0.85953 0.0
O196 O 0.49804 0.38284 0.71686 0.0
H197 H 0.45761 0.27627 0.54593 0.0
H198 H 0.44312 0.29907 0.53126 0.0
C199 C 0.45863 0.29608 0.56832 0.0
H200 H 0.48004 0.31414 0.55515 0.0
H201 H 0.50699 0.37258 0.53498 0.0
O202 O 0.45165 0.32865 0.99738 0.0
C203 C 0.50813 0.38804 0.79435 0.0
Co204 Co 0.54122 0.88396 0.45743 0.0
Co205 Co 0.54369 0.89378 0.6558 0.0
C206 C 0.57839 0.94168 0.54626 0.0
O207 O 0.56802 0.92455 0.48204 0.0
O208 O 0.57177 0.93344 0.62554 0.0
C209 C 0.56026 0.87468 0.28554 0.0
O210 O 0.57918 0.86979 0.32193 0.0
C211 C 0.55043 0.89694 0.85037 0.0
C212 C 0.51665 0.85309 0.87892 0.0
C213 C 0.53831 0.87712 0.91728 0.0
N214 N 0.53692 0.88459 0.7755 0.0
N215 N 0.51645 0.8587 0.79355 0.0
C216 C 0.57464 0.92657 0.85613 0.0
H217 H 0.56938 0.94089 0.81946 0.0
H218 H 0.59345 0.92775 0.8242 0.0
H219 H 0.5797 0.93363 0.92537 0.0
C220 C 0.54926 0.83568 0.5174 0.0
N221 N 0.54839 0.85981 0.52777 0.0
N222 N 0.55445 0.86808 0.60969 0.0
C223 C 0.56177 0.851 0.65169 0.0
C224 C 0.55797 0.82954 0.5959 0.0
C225 C 0.53931 0.81729 0.43779 0.0
H226 H 0.55778 0.81851 0.4034 0.0
H227 H 0.52529 0.79492 0.45736 0.0
H228 H 0.52781 0.82401 0.39299 0.0
O229 O 0.50294 0.87711 0.47343 0.0
O230 O 0.50557 0.88629 0.61543 0.0
H231 H 0.55487 0.84127 0.78846 0.0
H232 H 0.58855 0.84822 0.74935 0.0
C233 C 0.57245 0.85487 0.7437 0.0
H234 H 0.58208 0.87735 0.76285 0.0
H235 H 0.50314 0.84436 0.74637 0.0
O236 O 0.54427 0.87979 0.33265 0.0
C237 C 0.49212 0.88004 0.54323 0.0
Co238 Co 0.66008 0.54401 0.78874 0.0
Co239 Co 0.6464 0.53964 0.99093 0.0
C240 C 0.63741 0.57822 0.87456 0.0
O241 O 0.64569 0.57016 0.80844 0.0
O242 O 0.6374 0.56913 0.95171 0.0
C243 C 0.67965 0.57083 0.62149 0.0
O244 O 0.68831 0.59461 0.66442 0.0
C245 C 0.65497 0.55536 0.17951 0.0
C246 C 0.63441 0.51318 0.24174 0.0
C247 C 0.6499 0.54179 0.25994 0.0
N248 N 0.64336 0.53561 0.1162 0.0
N249 N 0.63074 0.51048 0.15418 0.0
C250 C 0.67188 0.58646 0.16294 0.0
H251 H 0.67835 0.59071 0.09301 0.0
H252 H 0.69075 0.59628 0.20621 0.0
H253 H 0.65876 0.59613 0.17883 0.0
C254 C 0.71519 0.55365 0.85759 0.0
N255 N 0.68907 0.54997 0.86868 0.0
N256 N 0.68314 0.54768 0.95317 0.0
C257 C 0.70535 0.5497 0.998 0.0
C258 C 0.72634 0.55373 0.93945 0.0
C259 C 0.72828 0.55517 0.77028 0.0
H260 H 0.71355 0.53668 0.73005 0.0
H261 H 0.73166 0.57449 0.73568 0.0
H262 H 0.74879 0.55574 0.77711 0.0
O263 O 0.62779 0.5054 0.80051 0.0
O264 O 0.61654 0.50291 0.94173 0.0
H265 H 0.72415 0.54317 0.11451 0.0
H266 H 0.70717 0.56368 0.12927 0.0
C267 C 0.70578 0.54527 0.09444 0.0
H268 H 0.68612 0.52586 0.11384 0.0
H269 H 0.6205 0.49138 0.12001 0.0
O270 O 0.67053 0.54779 0.66346 0.0
C271 C 0.61203 0.49214 0.86521 0.0
Co272 Co 0.11604 0.65772 0.12512 0.0
Co273 Co 0.10827 0.64638 0.32801 0.0
C274 C 0.05997 0.63707 0.21259 0.0
O275 O 0.07598 0.64526 0.14574 0.0
O276 O 0.0694 0.63666 0.28893 0.0
C277 C 0.10904 0.67762 0.9589 0.0
O278 O 0.09425 0.68642 0.00296 0.0
C279 C 0.10059 0.655 0.51609 0.0
C280 C 0.12406 0.63645 0.57882 0.0
C281 C 0.10957 0.6506 0.5966 0.0
N282 N 0.10973 0.64423 0.45309 0.0
N283 N 0.12337 0.63282 0.49134 0.0
C284 C 0.08499 0.6705 0.4992 0.0
H285 H 0.08677 0.67672 0.42912 0.0
H286 H 0.09328 0.68945 0.54196 0.0
H287 H 0.06235 0.65648 0.51558 0.0
C288 C 0.16332 0.71307 0.18938 0.0
N289 N 0.1404 0.68734 0.20252 0.0
N290 N 0.13656 0.68264 0.28758 0.0
C291 C 0.1568 0.70527 0.3307 0.0
C292 C 0.1743 0.72525 0.2704 0.0
C293 C 0.17522 0.72502 0.10129 0.0
H294 H 0.17523 0.70841 0.05942 0.0
H295 H 0.16147 0.73203 0.06968 0.0
H296 H 0.19697 0.74337 0.10669 0.0
O297 O 0.1201 0.62388 0.13894 0.0
O298 O 0.11639 0.61701 0.28288 0.0
H299 H 0.16228 0.68859 0.45077 0.0
H300 H 0.18035 0.72668 0.44786 0.0
C301 C 0.16091 0.70709 0.42773 0.0
H302 H 0.14264 0.70703 0.45921 0.0
H303 H 0.13307 0.62337 0.45742 0.0
O304 O 0.12249 0.66771 -0.00044 0.0
C305 C 0.11952 0.6098 0.20615 0.0
Co306 Co 0.45635 0.1162 0.455 0.0
Co307 Co 0.4613 0.1078 0.65732 0.0
C308 C 0.4226 0.0596 0.54296 0.0
O309 O 0.43053 0.07555 0.47588 0.0
O310 O 0.43165 0.06926 0.61966 0.0
C311 C 0.42938 0.10848 0.28747 0.0
O312 O 0.40563 0.093 0.33018 0.0
C313 C 0.4456 0.1006 0.84555 0.0
C314 C 0.48771 0.12252 0.90822 0.0
C315 C 0.45907 0.1091 0.9261 0.0
N316 N 0.46542 0.109 0.78245 0.0
N317 N 0.49052 0.12172 0.82065 0.0
C318 C 0.41452 0.08614 0.82866 0.0
H319 H 0.41028 0.08854 0.75887 0.0
H320 H 0.40446 0.09485 0.87235 0.0
H321 H 0.40508 0.06331 0.84371 0.0
C322 C 0.44652 0.16182 0.52326 0.0
N323 N 0.45043 0.13951 0.5346 0.0
N324 N 0.45317 0.13629 0.6191 0.0
C325 C 0.45133 0.15663 0.6636 0.0
C326 C 0.44687 0.17326 0.60494 0.0
C327 C 0.44448 0.17299 0.43582 0.0
H328 H 0.46284 0.17675 0.39491 0.0
H329 H 0.42507 0.15681 0.40215 0.0
H330 H 0.44376 0.19286 0.44234 0.0
O331 O 0.49512 0.12281 0.46608 0.0
O332 O 0.49794 0.11469 0.60766 0.0
H333 H 0.47534 0.16159 0.77941 0.0
H334 H 0.45777 0.18206 0.77991 0.0
C335 C 0.45585 0.16164 0.75998 0.0
H336 H 0.43753 0.14455 0.79496 0.0
H337 H 0.50965 0.13077 0.78664 0.0
O338 O 0.45234 0.12262 0.32963 0.0
C339 C 0.50857 0.12075 0.53097 0.0
Co340 Co 0.34168 0.45818 0.78856 0.0
Co341 Co 0.35498 0.46269 0.99092 0.0
C342 C 0.36464 0.42435 0.87573 0.0
O343 O 0.35652 0.43242 0.80921 0.0
O344 O 0.36407 0.43317 0.95284 0.0
C345 C 0.32253 0.43112 0.62134 0.0
O346 O 0.31439 0.40743 0.66427 0.0
C347 C 0.34686 0.4471 0.17948 0.0
C348 C 0.36616 0.48927 0.24158 0.0
C349 C 0.35151 0.46064 0.25985 0.0
N350 N 0.35789 0.46687 0.11612 0.0
N351 N 0.36977 0.49202 0.15401 0.0
C352 C 0.33084 0.41596 0.163 0.0
H353 H 0.32414 0.4115 0.09329 0.0
H354 H 0.31216 0.40557 0.20691 0.0
H355 H 0.34469 0.40705 0.178 0.0
C356 C 0.28627 0.4482 0.85682 0.0
N357 N 0.31247 0.45209 0.86816 0.0
N358 N 0.31823 0.45424 0.95275 0.0
C359 C 0.29581 0.45178 0.9974 0.0
C360 C 0.27489 0.44774 0.93863 0.0
C361 C 0.27325 0.44668 0.7694 0.0
H362 H 0.28824 0.46485 0.72853 0.0
H363 H 0.26933 0.42705 0.73565 0.0
H364 H 0.25301 0.44667 0.77601 0.0
O365 O 0.37378 0.49686 0.79979 0.0
O366 O 0.38461 0.49959 0.94144 0.0
H367 H 0.31419 0.47538 0.11425 0.0
H368 H 0.27611 0.45662 0.11462 0.0
C369 C 0.29505 0.4556 0.09409 0.0
H370 H 0.29451 0.43743 0.12787 0.0
H371 H 0.37946 0.51111 0.11977 0.0
O372 O 0.33122 0.45411 0.66326 0.0
C373 C 0.38918 0.51032 0.86486 0.0
Co374 Co 0.88382 0.34024 0.12819 0.0
Co375 Co 0.89455 0.35656 0.32874 0.0
C376 C 0.9413 0.36416 0.21039 0.0
O377 O 0.9245 0.3552 0.14554 0.0
O378 O 0.93286 0.36519 0.28763 0.0
C379 C 0.89257 0.32324 0.95923 0.0
O380 O 0.91137 0.31907 -0.00013 0.0
C381 C 0.9014 0.34785 0.51691 0.0
C382 C 0.8852 0.37339 0.57971 0.0
C383 C 0.89514 0.35509 0.59764 0.0
N384 N 0.89501 0.36094 0.45371 0.0
N385 N 0.88569 0.37646 0.49194 0.0
C386 C 0.91224 0.328 0.50009 0.0
H387 H 0.90866 0.32092 0.43062 0.0
H388 H 0.90187 0.30954 0.54486 0.0
H389 H 0.93526 0.33908 0.51371 0.0
C390 C 0.83967 0.28565 0.2039 0.0
N391 N 0.86174 0.31214 0.21189 0.0
N392 N 0.86527 0.31946 0.2954 0.0
C393 C 0.84491 0.29804 0.34249 0.0
C394 C 0.82842 0.27588 0.28668 0.0
C395 C 0.82833 0.27109 0.11812 0.0
H396 H 0.84571 0.27142 0.07953 0.0
H397 H 0.81109 0.24895 0.1277 0.0
H398 H 0.82022 0.28287 0.0801 0.0
O399 O 0.87726 0.37256 0.13761 0.0
O400 O 0.88735 0.38581 0.27711 0.0
H401 H 0.81706 0.28351 0.45517 0.0
H402 H 0.85344 0.29533 0.47748 0.0
C403 C 0.83905 0.29955 0.43749 0.0
H404 H 0.84236 0.32078 0.4532 0.0
H405 H 0.87876 0.38844 0.45795 0.0
O406 O 0.87598 0.32847 0.00352 0.0
C407 C 0.88042 0.38927 0.2003 0.0
C408 C 0.01352 0.42107 0.13549 0.0
C409 C 0.02809 0.40574 0.1286 0.0
C410 C 0.98547 0.36248 0.17639 0.0
C411 C 0.97188 0.37847 0.19073 0.0
N412 N 0.97403 0.42363 0.19738 0.0
N413 N 0.0295 0.3628 0.15015 0.0
C414 C 0.98625 0.40797 0.17422 0.0
C415 C 0.01449 0.37666 0.1513 0.0
N416 N 0.02564 0.44812 0.10412 0.0
N417 N 0.97048 0.33376 0.18544 0.0
H418 H 0.05031 0.3722 0.12773 0.0
H419 H 0.02191 0.34257 0.17541 0.0
H420 H 0.9496 0.32297 0.20744 0.0
H421 H 0.97812 0.32049 0.1667 0.0
H422 H 0.0149 0.45928 0.09832 0.0
H423 H 0.0458 0.45876 0.07666 0.0
H424 H 0.98461 0.44562 0.1961 0.0
H425 H 0.95398 0.41484 0.22537 0.0
C426 C 0.59569 0.01212 0.4463 0.0
C427 C 0.62435 0.0296 0.47214 0.0
C428 C 0.62349 0.9889 0.5451 0.0
C429 C 0.59434 0.97226 0.52511 0.0
N430 N 0.55138 0.96891 0.46991 0.0
N431 N 0.66555 0.03543 0.54881 0.0
C432 C 0.58016 0.98408 0.47882 0.0
C433 C 0.63823 0.01819 0.52258 0.0
N434 N 0.58302 0.02215 0.39086 0.0
N435 N 0.63726 0.97641 0.58246 0.0
H436 H 0.67785 0.05615 0.52646 0.0
H437 H 0.67579 0.02967 0.59491 0.0
H438 H 0.62695 0.95515 0.60065 0.0
H439 H 0.65906 0.98643 0.59057 0.0
H440 H 0.56375 0.00922 0.36007 0.0
H441 H 0.59226 0.043 0.36985 0.0
H442 H 0.53927 0.97753 0.44798 0.0
H443 H 0.53905 0.94819 0.49179 0.0
C444 C 0.59378 0.58225 0.87398 0.0
C445 C 0.62322 0.59483 0.8576 0.0
C446 C 0.62302 0.63482 0.78404 0.0
C447 C 0.5943 0.62346 0.80798 0.0
N448 N 0.55292 0.58812 0.88512 0.0
N449 N 0.66682 0.63432 0.80626 0.0
C450 C 0.57993 0.59778 0.85611 0.0
C451 C 0.63812 0.62146 0.8148 0.0
N452 N 0.57855 0.5547 0.90109 0.0
N453 N 0.63572 0.65821 0.73155 0.0
H454 H 0.67847 0.62525 0.8293 0.0
H455 H 0.6794 0.65483 0.78311 0.0
H456 H 0.62538 0.66881 0.71014 0.0
H457 H 0.65569 0.66595 0.70413 0.0
H458 H 0.55656 0.54332 0.90298 0.0
H459 H 0.58748 0.54212 0.91408 0.0
H460 H 0.54293 0.57185 0.93068 0.0
H461 H 0.54091 0.59739 0.86828 0.0
C462 C 0.01196 0.59382 0.21371 0.0
C463 C 0.02907 0.62321 0.19696 0.0
C464 C 0.98895 0.62332 0.12402 0.0
C465 C 0.97142 0.59462 0.14811 0.0
N466 N 0.96509 0.55338 0.22712 0.0
N467 N 0.03348 0.66696 0.14601 0.0
C468 C 0.98255 0.58023 0.19693 0.0
C469 C 0.01745 0.63826 0.15457 0.0
N470 N 0.02405 0.57829 0.23933 0.0
N471 N 0.97839 0.63615 0.07163 0.0
H472 H 0.05422 0.67846 0.16894 0.0
H473 H 0.02566 0.67965 0.12305 0.0
H474 H 0.9574 0.626 0.05071 0.0
H475 H 0.99074 0.65608 0.04404 0.0
H476 H 0.01318 0.55629 0.24184 0.0
H477 H 0.04564 0.58703 0.24951 0.0
H478 H 0.9714 0.54358 0.27329 0.0
H479 H 0.94377 0.54138 0.21089 0.0
C480 C 0.41724 0.01142 0.55552 0.0
C481 C 0.40592 0.0286 0.52843 0.0
C482 C 0.36742 0.98792 0.45169 0.0
C483 C 0.3773 0.97034 0.4862 0.0
N484 N 0.40894 0.9645 0.58446 0.0
N485 N 0.36803 0.03259 0.46211 0.0
C486 C 0.40122 0.98179 0.54279 0.0
C487 C 0.38038 0.01668 0.47938 0.0
N488 N 0.44423 0.02345 0.5875 0.0
N489 N 0.34571 0.97716 0.39254 0.0
H490 H 0.37658 0.05343 0.4835 0.0
H491 H 0.34813 0.0245 0.43379 0.0
H492 H 0.33497 0.95594 0.37394 0.0
H493 H 0.33958 0.98957 0.35755 0.0
H494 H 0.45468 0.01214 0.59769 0.0
H495 H 0.45749 0.04514 0.59523 0.0
H496 H 0.42371 0.97145 0.63515 0.0
H497 H 0.39932 0.94283 0.57371 0.0
C498 C 0.36424 0.38178 0.81152 0.0
C499 C 0.37864 0.40747 0.85965 0.0
C500 C 0.42142 0.40356 0.86229 0.0
C501 C 0.40768 0.37904 0.80846 0.0
N502 N 0.36746 0.34651 0.72265 0.0
N503 N 0.42266 0.44576 0.91585 0.0
C504 C 0.37952 0.36871 0.77996 0.0
C505 C 0.40762 0.41905 0.88172 0.0
N506 N 0.33571 0.36938 0.79896 0.0
N507 N 0.44785 0.41225 0.89504 0.0
H508 H 0.41383 0.45821 0.9318 0.0
H509 H 0.44459 0.45677 0.92149 0.0
H510 H 0.4602 0.40353 0.87644 0.0
H511 H 0.45699 0.42715 0.94503 0.0
H512 H 0.32338 0.34942 0.77157 0.0
H513 H 0.32383 0.37804 0.82323 0.0
H514 H 0.34814 0.33986 0.6918 0.0
H515 H 0.37775 0.3359 0.70093 0.0
C516 C 0.08637 0.45127 0.58437 0.0
C517 C 0.10058 0.44283 0.64417 0.0
C518 C 0.11009 0.41829 0.52536 0.0
C519 C 0.10006 0.4307 0.46443 0.0
N520 N 0.07852 0.45902 0.4329 0.0
N521 N 0.12574 0.41785 0.6734 0.0
C522 C 0.0879 0.447 0.49311 0.0
C523 C 0.11199 0.4258 0.61546 0.0
N524 N 0.07089 0.46279 0.61553 0.0
N525 N 0.11761 0.39922 0.49695 0.0
H526 H 0.12555 0.42089 0.74044 0.0
H527 H 0.13802 0.40904 0.65503 0.0
H528 H 0.11701 0.39384 0.43095 0.0
H529 H 0.12234 0.38711 0.53884 0.0
H530 H 0.05784 0.46705 0.5765 0.0
H531 H 0.06893 0.46556 0.68243 0.0
H532 H 0.07275 0.47397 0.44884 0.0
H533 H 0.07791 0.45525 0.3656 0.0
C534 C 0.69281 0.13288 0.86021 0.0
C535 C 0.67732 0.10785 0.81023 0.0
C536 C 0.64819 0.08321 0.93878 0.0
C537 C 0.66301 0.1086 0.98764 0.0
N538 N 0.70252 0.15586 0.00227 0.0
N539 N 0.64382 0.05773 0.80382 0.0
C540 C 0.68636 0.13289 0.95054 0.0
C541 C 0.65634 0.08245 0.85047 0.0
N542 N 0.71325 0.15684 0.82021 0.0
N543 N 0.62524 0.06039 0.97528 0.0
H544 H 0.64769 0.05643 0.73759 0.0
H545 H 0.63084 0.03799 0.83168 0.0
H546 H 0.61907 0.06 0.04026 0.0
H547 H 0.61125 0.04235 0.94058 0.0
H548 H 0.72287 0.17684 0.84852 0.0
H549 H 0.72014 0.15682 0.75646 0.0
H550 H 0.72156 0.17317 0.98272 0.0
H551 H 0.6978 0.15689 0.06777 0.0
C552 C 0.56777 0.64964 0.26457 0.0
C553 C 0.55584 0.6631 0.31387 0.0
C554 C 0.55996 0.69282 0.18737 0.0
C555 C 0.57072 0.67854 0.13677 0.0
N556 N 0.58872 0.64617 0.12804 0.0
N557 N 0.54428 0.70006 0.32896 0.0
C558 C 0.57618 0.65807 0.17601 0.0
C559 C 0.55318 0.68558 0.27724 0.0
N560 N 0.56937 0.62758 0.30099 0.0
N561 N 0.55555 0.71284 0.14825 0.0
H562 H 0.5378 0.69438 0.39349 0.0
H563 H 0.54458 0.71851 0.31037 0.0
H564 H 0.56249 0.72026 0.08488 0.0
H565 H 0.54451 0.72172 0.17678 0.0
H566 H 0.57463 0.61443 0.26655 0.0
H567 H 0.56404 0.62132 0.36612 0.0
H568 H 0.59635 0.63377 0.15477 0.0
H569 H 0.593 0.64967 0.06125 0.0
C570 C 0.92034 0.56555 0.59965 0.0
C571 C 0.89538 0.55508 0.65034 0.0
C572 C 0.87111 0.56249 0.52645 0.0
C573 C 0.8946 0.56888 0.47238 0.0
N574 N 0.94048 0.57292 0.45407 0.0
N575 N 0.84606 0.54132 0.66129 0.0
C576 C 0.91915 0.5699 0.50815 0.0
C577 C 0.87053 0.55313 0.61378 0.0
N578 N 0.94507 0.57096 0.63867 0.0
N579 N 0.84954 0.56575 0.49441 0.0
H580 H 0.84487 0.53464 0.72583 0.0
H581 H 0.82651 0.53628 0.63498 0.0
H582 H 0.84949 0.57266 0.43061 0.0
H583 H 0.83309 0.56417 0.53301 0.0
H584 H 0.96459 0.58146 0.60724 0.0
H585 H 0.94647 0.56709 0.70498 0.0
H586 H 0.95724 0.57044 0.47513 0.0
H587 H 0.9404 0.57547 0.38634 0.0
C588 C 0.35438 0.91939 0.93776 0.0
C589 C 0.34216 0.89418 0.98776 0.0
C590 C 0.31115 0.86822 0.86396 0.0
C591 C 0.32626 0.89239 0.8103 0.0
N592 N 0.36556 0.94003 0.79269 0.0
N593 N 0.31057 0.84376 0.99701 0.0
C594 C 0.34852 0.91791 0.84638 0.0
C595 C 0.32084 0.86836 0.95066 0.0
N596 N 0.37195 0.9447 0.97723 0.0
N597 N 0.28727 0.84529 0.83231 0.0
H598 H 0.31675 0.84301 0.06104 0.0
H599 H 0.2975 0.82387 0.97 0.0
H600 H 0.2796 0.84466 0.76915 0.0
H601 H 0.27368 0.82807 0.8709 0.0
H602 H 0.37905 0.96411 0.94639 0.0
H603 H 0.3775 0.94645 0.04336 0.0
H604 H 0.38401 0.95778 0.8141 0.0
H605 H 0.363 0.93975 0.72491 0.0
C606 C 0.44463 0.35762 0.16268 0.0
C607 C 0.43126 0.32908 0.13378 0.0
C608 C 0.42615 0.31263 0.28547 0.0
C609 C 0.44092 0.34124 0.31418 0.0
N610 N 0.45677 0.39014 0.28523 0.0
N611 N 0.40348 0.27943 0.1655 0.0
C612 C 0.44777 0.36349 0.25409 0.0
C613 C 0.42005 0.30655 0.19468 0.0
N614 N 0.45494 0.3791 0.10255 0.0
N615 N 0.41895 0.29134 0.34446 0.0
H616 H 0.39927 0.27438 0.09911 0.0
H617 H 0.39226 0.26216 0.2067 0.0
H618 H 0.42034 0.29478 0.41162 0.0
H619 H 0.41203 0.27045 0.32724 0.0
H620 H 0.46788 0.4003 0.11864 0.0
H621 H 0.45172 0.37568 0.03516 0.0
H622 H 0.45983 0.40703 0.24605 0.0
H623 H 0.4586 0.39473 0.35222 0.0
C624 C 0.57326 0.88575 0.03908 0.0
C625 C 0.54573 0.8789 0.01119 0.0
C626 C 0.52793 0.86209 0.15799 0.0
C627 C 0.55599 0.87363 0.18958 0.0
N628 N 0.60617 0.90252 0.15998 0.0
N629 N 0.49848 0.86766 0.05194 0.0
C630 C 0.57902 0.8872 0.13029 0.0
C631 C 0.52355 0.86931 0.07315 0.0
N632 N 0.59351 0.88947 0.97968 0.0
N633 N 0.50543 0.84348 0.20762 0.0
H634 H 0.495 0.87443 0.99159 0.0
H635 H 0.48256 0.86278 0.09795 0.0
H636 H 0.5078 0.83584 0.26784 0.0
H637 H 0.48477 0.83304 0.18379 0.0
H638 H 0.61299 0.89193 0.99816 0.0
H639 H 0.58978 0.88701 0.91252 0.0
H640 H 0.62312 0.91481 0.11846 0.0
H641 H 0.61151 0.90542 0.22623 0.0
C642 C 0.69071 0.55847 0.47455 0.0
C643 C 0.67659 0.56956 0.52458 0.0
C644 C 0.64769 0.56632 0.39653 0.0
C645 C 0.66107 0.55421 0.34769 0.0
N646 N 0.69831 0.54303 0.33311 0.0
N647 N 0.645 0.58853 0.53129 0.0
C648 C 0.68358 0.55169 0.38463 0.0
C649 C 0.65638 0.57523 0.4846 0.0
N650 N 0.71046 0.55379 0.51419 0.0
N651 N 0.62543 0.56761 0.36034 0.0
H652 H 0.64884 0.59343 0.59766 0.0
H653 H 0.63292 0.59635 0.50344 0.0
H654 H 0.61888 0.56182 0.29563 0.0
H655 H 0.61232 0.57287 0.39499 0.0
H656 H 0.71897 0.54234 0.48616 0.0
H657 H 0.71793 0.56084 0.57745 0.0
H658 H 0.71683 0.54355 0.35213 0.0
H659 H 0.69289 0.53676 0.26828 0.0
C660 C 0.1319 0.68454 0.72117 0.0
C661 C 0.10751 0.66125 0.68418 0.0
C662 C 0.08168 0.65448 0.82198 0.0
C663 C 0.10722 0.67526 0.86206 0.0
N664 N 0.15623 0.71105 0.85162 0.0
N665 N 0.05927 0.62361 0.69689 0.0
C666 C 0.13214 0.6908 0.81174 0.0
C667 C 0.08221 0.64645 0.73337 0.0
N668 N 0.15472 0.70082 0.66908 0.0
N669 N 0.05706 0.64201 0.86908 0.0
H670 H 0.05872 0.61755 0.63169 0.0
H671 H 0.04126 0.60963 0.73172 0.0
H672 H 0.05594 0.64585 0.93546 0.0
H673 H 0.03725 0.62915 0.84149 0.0
H674 H 0.17209 0.71981 0.68873 0.0
H675 H 0.1555 0.69629 0.60325 0.0
H676 H 0.17616 0.72065 0.82283 0.0
H677 H 0.15641 0.71778 0.91572 0.0
C678 C 0.42573 0.08127 0.15021 0.0
C679 C 0.43074 0.1069 0.19055 0.0
C680 C 0.44828 0.13211 0.051 0.0
C681 C 0.44646 0.10741 0.01377 0.0
N682 N 0.43417 0.05865 0.02559 0.0
N683 N 0.44527 0.15626 0.18085 0.0
C684 C 0.43483 0.08186 0.06218 0.0
C685 C 0.44129 0.13211 0.14088 0.0
N686 N 0.41286 0.0565 0.19651 0.0
N687 N 0.45646 0.15547 -0.00021 0.0
H688 H 0.43804 0.15636 0.24409 0.0
H689 H 0.45628 0.17631 0.1531 0.0
H690 H 0.46285 0.15656 0.93498 0.0
H691 H 0.45543 0.17319 0.01903 0.0
H692 H 0.40555 0.03669 0.16842 0.0
H693 H 0.40778 0.05523 0.26278 0.0
H694 H 0.42928 0.04031 0.05992 0.0
H695 H 0.44007 0.05813 0.96084 0.0
C696 C 0.34622 0.42756 0.48432 0.0
C697 C 0.32548 0.4324 0.52444 0.0
C698 C 0.31762 0.44963 0.38461 0.0
C699 C 0.34065 0.44805 0.3476 0.0
N700 N 0.3775 0.43633 0.36014 0.0
N701 N 0.29046 0.44667 0.51435 0.0
C702 C 0.35476 0.43669 0.39633 0.0
C703 C 0.31069 0.44276 0.47455 0.0
N704 N 0.35823 0.41482 0.53077 0.0
N705 N 0.30222 0.45746 0.33314 0.0
H706 H 0.28317 0.43951 0.57766 0.0
H707 H 0.28139 0.45761 0.48639 0.0
H708 H 0.30743 0.46373 0.26822 0.0
H709 H 0.28335 0.4562 0.35227 0.0
H710 H 0.37081 0.40761 0.50274 0.0
H711 H 0.35438 0.40972 0.59701 0.0
H712 H 0.39107 0.43169 0.39483 0.0
H713 H 0.38399 0.4423 0.29548 0.0
C714 C 0.92091 0.35667 0.73524 0.0
C715 C 0.89561 0.34374 0.68571 0.0
C716 C 0.87051 0.31258 0.80997 0.0
C717 C 0.89466 0.32835 0.86323 0.0
N718 N 0.94179 0.36863 0.8799 0.0
N719 N 0.84545 0.31094 0.6771 0.0
C720 C 0.91978 0.35102 0.82666 0.0
C721 C 0.87017 0.32197 0.72319 0.0
N722 N 0.94597 0.3747 0.69525 0.0
N723 N 0.84808 0.28838 0.84209 0.0
H724 H 0.84439 0.3169 0.61299 0.0
H725 H 0.82572 0.29743 0.70435 0.0
H726 H 0.84784 0.28091 0.90527 0.0
H727 H 0.83096 0.27439 0.80384 0.0
H728 H 0.96552 0.38235 0.72576 0.0
H729 H 0.94744 0.38008 0.62903 0.0
H730 H 0.95916 0.3873 0.85803 0.0
H731 H 0.94172 0.36626 0.94773 0.0
C732 C 0.09903 0.53194 0.20109 0.0
C733 C 0.12174 0.53347 0.15148 0.0
C734 C 0.14439 0.5852 0.14549 0.0
C735 C 0.1213 0.5837 0.19334 0.0
N736 N 0.07887 0.55607 0.27956 0.0
N737 N 0.16467 0.56034 0.06923 0.0
C738 C 0.09935 0.55722 0.22519 0.0
C739 C 0.14408 0.55979 0.12165 0.0
N740 N 0.07608 0.50608 0.21999 0.0
N741 N 0.16741 0.61106 0.12788 0.0
H742 H 0.16574 0.54228 0.05415 0.0
H743 H 0.17984 0.57825 0.03656 0.0
H744 H 0.16893 0.63003 0.14794 0.0
H745 H 0.18609 0.61398 0.10029 0.0
H746 H 0.05705 0.50321 0.2445 0.0
H747 H 0.0749 0.48693 0.20473 0.0
H748 H 0.06509 0.53827 0.31562 0.0
H749 H 0.07644 0.57327 0.2942 0.0
C750 C 0.56035 0.09604 0.47567 0.0
C751 C 0.58649 0.12172 0.48211 0.0
C752 C 0.56164 0.14659 0.52808 0.0
C753 C 0.53551 0.12143 0.51407 0.0
N754 N 0.50948 0.07328 0.46191 0.0
N755 N 0.6124 0.17215 0.50383 0.0
C756 C 0.53473 0.0965 0.48376 0.0
C757 C 0.58727 0.14724 0.50565 0.0
N758 N 0.56 0.07095 0.46678 0.0
N759 N 0.56188 0.16966 0.56384 0.0
H760 H 0.6315 0.17329 0.48764 0.0
H761 H 0.61413 0.19188 0.51169 0.0
H762 H 0.54343 0.17006 0.57848 0.0
H763 H 0.58019 0.18769 0.58439 0.0
H764 H 0.54171 0.05128 0.47142 0.0
H765 H 0.57832 0.06958 0.46334 0.0
H766 H 0.50789 0.05571 0.42986 0.0
H767 H 0.49007 0.07235 0.46952 0.0
C768 C 0.44301 0.58895 0.84752 0.0
C769 C 0.46637 0.5877 0.8115 0.0
C770 C 0.4393 0.53581 0.81504 0.0
C771 C 0.41564 0.53709 0.84764 0.0
N772 N 0.39319 0.56373 0.88764 0.0
N773 N 0.48681 0.5604 0.75587 0.0
C774 C 0.41703 0.56337 0.86229 0.0
C775 C 0.46448 0.56124 0.79357 0.0
N776 N 0.44578 0.61462 0.86759 0.0
N777 N 0.43789 0.51015 0.80747 0.0
H778 H 0.50661 0.57818 0.74632 0.0
H779 H 0.48561 0.54222 0.73006 0.0
H780 H 0.41943 0.49096 0.81826 0.0
H781 H 0.45522 0.5076 0.79544 0.0
H782 H 0.43091 0.61717 0.9028 0.0
H783 H 0.46373 0.63378 0.852 0.0
H784 H 0.39165 0.58191 0.89136 0.0
H785 H 0.37409 0.54534 0.90054 0.0
C786 C 0.90215 0.43728 0.13269 0.0
C787 C 0.87954 0.41533 0.18056 0.0
C788 C 0.85579 0.44333 0.1877 0.0
C789 C 0.87966 0.46627 0.14724 0.0
N790 N 0.9281 0.48708 0.09793 0.0
N791 N 0.83629 0.39813 0.26246 0.0
C792 C 0.90349 0.46376 0.12374 0.0
C793 C 0.85681 0.41859 0.21102 0.0
N794 N 0.92247 0.43293 0.09562 0.0
N795 N 0.83175 0.44473 0.20037 0.0
H796 H 0.83567 0.37918 0.27728 0.0
H797 H 0.82094 0.40063 0.29501 0.0
H798 H 0.83009 0.46227 0.18251 0.0
H799 H 0.8127 0.42769 0.22134 0.0
H800 H 0.93737 0.44688 0.05101 0.0
H801 H 0.92331 0.41444 0.10381 0.0
H802 H 0.94711 0.48721 0.09059 0.0
H803 H 0.9305 0.50716 0.09198 0.0
C804 C 0.43976 0.85281 0.51532 0.0
C805 C 0.4644 0.87869 0.53732 0.0
C806 C 0.43925 0.90449 0.50971 0.0
C807 C 0.41418 0.87855 0.49285 0.0
N808 N 0.38896 0.82768 0.49082 0.0
N809 N 0.48566 0.92811 0.57585 0.0
C810 C 0.41392 0.85254 0.49927 0.0
C811 C 0.46349 0.90418 0.54131 0.0
N812 N 0.44123 0.82862 0.50885 0.0
N813 N 0.44026 0.92954 0.4923 0.0
H814 H 0.50387 0.92896 0.6001 0.0
H815 H 0.48488 0.94643 0.58863 0.0
H816 H 0.42309 0.93072 0.46759 0.0
H817 H 0.45881 0.94906 0.49412 0.0
H818 H 0.42509 0.80976 0.48324 0.0
H819 H 0.45929 0.82776 0.52574 0.0
H820 H 0.38671 0.80795 0.5036 0.0
H821 H 0.36992 0.82689 0.4762 0.0
C822 C 0.58291 0.43918 0.87394 0.0
C823 C 0.5856 0.46533 0.84789 0.0
C824 C 0.53702 0.44087 0.79207 0.0
C825 C 0.53512 0.4145 0.81096 0.0
N826 N 0.55712 0.38805 0.85891 0.0
N827 N 0.56679 0.4914 0.77342 0.0
C828 C 0.55828 0.41349 0.84936 0.0
C829 C 0.56315 0.46624 0.80402 0.0
N830 N 0.60381 0.43894 0.92254 0.0
N831 N 0.51343 0.44184 0.76737 0.0
H832 H 0.58484 0.51084 0.78551 0.0
H833 H 0.55267 0.49291 0.73099 0.0
H834 H 0.49373 0.42391 0.75778 0.0
H835 H 0.51265 0.46046 0.76372 0.0
H836 H 0.60187 0.42085 0.95186 0.0
H837 H 0.62256 0.45731 0.93869 0.0
H838 H 0.57427 0.38598 0.87813 0.0
H839 H 0.53956 0.36892 0.84058 0.0
C840 C 0.24911 0.47309 0.98137 0.0
C841 C 0.24821 0.44729 0.96102 0.0
C842 C 0.19945 0.42035 0.01504 0.0
C843 C 0.19986 0.4461 0.03131 0.0
N844 N 0.22374 0.49698 0.02604 0.0
N845 N 0.22238 0.39662 0.94813 0.0
C846 C 0.2244 0.4725 0.01366 0.0
C847 C 0.22329 0.42096 0.97489 0.0
N848 N 0.2739 0.49811 0.97178 0.0
N849 N 0.17634 0.39536 0.03936 0.0
H850 H 0.23959 0.39641 0.9193 0.0
H851 H 0.20418 0.37685 0.94835 0.0
H852 H 0.15848 0.39425 0.06802 0.0
H853 H 0.17546 0.37591 0.03732 0.0
H854 H 0.27725 0.5174 0.9955 0.0
H855 H 0.29188 0.49952 0.94296 0.0
H856 H 0.23938 0.51671 0.00424 0.0
H857 H 0.20676 0.49749 0.0554 0.0
C858 C 0.80478 0.22593 0.34179 0.0
C859 C 0.8025 0.2493 0.31176 0.0
C860 C 0.75284 0.22568 0.3572 0.0
C861 C 0.75442 0.20133 0.3799 0.0
N862 N 0.78059 0.17668 0.38657 0.0
N863 N 0.77409 0.27062 0.28065 0.0
C864 C 0.78009 0.20104 0.37055 0.0
C865 C 0.7764 0.24892 0.31643 0.0
N866 N 0.83067 0.22781 0.34452 0.0
N867 N 0.72892 0.2267 0.37641 0.0
H868 H 0.79105 0.28821 0.25159 0.0
H869 H 0.75499 0.27029 0.27342 0.0
H870 H 0.71132 0.21004 0.40652 0.0
H871 H 0.72729 0.24479 0.3697 0.0
H872 H 0.83438 0.21295 0.37522 0.0
H873 H 0.84899 0.2452 0.32043 0.0
H874 H 0.79763 0.17396 0.3711 0.0
H875 H 0.7632 0.15843 0.41102 0.0
C876 C 0.5815 0.80069 0.61785 0.0
C877 C 0.55683 0.80295 0.6237 0.0
C878 C 0.53172 0.75697 0.69802 0.0
C879 C 0.55695 0.75557 0.69708 0.0
N880 N 0.60676 0.77718 0.66765 0.0
N881 N 0.50942 0.78536 0.67787 0.0
C882 C 0.58214 0.7778 0.66028 0.0
C883 C 0.5322 0.78167 0.66629 0.0
N884 N 0.60411 0.82024 0.57042 0.0
N885 N 0.50704 0.73418 0.72592 0.0
H886 H 0.50817 0.80225 0.65103 0.0
H887 H 0.49237 0.77258 0.71824 0.0
H888 H 0.50598 0.71608 0.75242 0.0
H889 H 0.48728 0.73238 0.71792 0.0
H890 H 0.62177 0.81846 0.55604 0.0
H891 H 0.60431 0.83736 0.5394 0.0
H892 H 0.62646 0.79385 0.64978 0.0
H893 H 0.60784 0.76071 0.69859 0.0
C894 C 0.77643 0.52796 0.01003 0.0
C895 C 0.80088 0.5541 0.03079 0.0
C896 C 0.77773 0.57997 0.97846 0.0
C897 C 0.75284 0.55384 0.9618 0.0
N898 N 0.72703 0.50293 0.96696 0.0
N899 N 0.82433 0.6047 0.04549 0.0
C900 C 0.75183 0.52779 0.97872 0.0
C901 C 0.80138 0.58006 0.01809 0.0
N902 N 0.77705 0.50334 0.01849 0.0
N903 N 0.7788 0.60463 0.95487 0.0
H904 H 0.84209 0.60547 0.07373 0.0
H905 H 0.82515 0.62413 0.04638 0.0
H906 H 0.76173 0.60522 0.92649 0.0
H907 H 0.79704 0.62436 0.95717 0.0
H908 H 0.76148 0.48394 0.99426 0.0
H909 H 0.79398 0.50243 0.04658 0.0
H910 H 0.7236 0.48338 0.98825 0.0
H911 H 0.7091 0.50189 0.93911 0.0
C912 C 0.24963 0.77455 0.34769 0.0
C913 C 0.24876 0.79985 0.36014 0.0
C914 C 0.20085 0.77743 0.29849 0.0
C915 C 0.20105 0.75166 0.29114 0.0
N916 N 0.22433 0.72452 0.312 0.0
N917 N 0.22332 0.82525 0.35669 0.0
C918 C 0.22517 0.74995 0.31627 0.0
C919 C 0.22428 0.80126 0.33802 0.0
N920 N 0.27415 0.77434 0.36394 0.0
N921 N 0.17834 0.77909 0.26648 0.0
H922 H 0.24023 0.84315 0.3847 0.0
H923 H 0.20527 0.82695 0.35049 0.0
H924 H 0.16077 0.7619 0.23818 0.0
H925 H 0.17779 0.79779 0.26177 0.0
H926 H 0.27753 0.75788 0.34631 0.0
H927 H 0.29195 0.79144 0.39164 0.0
H928 H 0.23953 0.72072 0.33955 0.0
H929 H 0.20759 0.70655 0.28371 0.0
C930 C 0.47248 0.24766 0.68702 0.0
C931 C 0.44652 0.24727 0.69805 0.0
C932 C 0.42053 0.19847 0.64362 0.0
C933 C 0.44661 0.19959 0.62716 0.0
N934 N 0.49743 0.22614 0.61987 0.0
N935 N 0.3961 0.22415 0.67757 0.0
C936 C 0.47262 0.22452 0.64489 0.0
C937 C 0.42058 0.22315 0.67383 0.0
N938 N 0.49691 0.27003 0.71827 0.0
N939 N 0.39576 0.17356 0.63271 0.0
H940 H 0.39516 0.2414 0.703 0.0
H941 H 0.37703 0.20867 0.65103 0.0
H942 H 0.3949 0.15543 0.60716 0.0
H943 H 0.37621 0.17033 0.6534 0.0
H944 H 0.51614 0.27044 0.7205 0.0
H945 H 0.49753 0.2874 0.74895 0.0
H946 H 0.51698 0.24459 0.62284 0.0
H947 H 0.49824 0.20953 0.5889 0.0
loop_
_geom_bond_atom_site_label_1
_geom_bond_atom_site_label_2
_geom_bond_distance
_geom_bond_site_symmetry_2
_ccdc_geom_bond_type
Co0 O3 1.970 . S
Co0 N17 1.989 . S
Co0 O25 1.967 . S
Co0 O32 1.920 . S
Co1 O4 1.966 . S
Co1 N10 2.022 1_554 S
Co1 N18 1.993 . S
Co1 O26 1.941 . S
C2 O3 1.258 . S
C2 O4 1.263 . S
O3 Co0 1.970 . S
O3 C2 1.258 . S
O4 Co1 1.966 . S
O4 C2 1.263 . S
C5 O6 1.235 . S
C5 O32 1.289 . S
O6 C5 1.235 . S
C7 C9 1.400 . S
C7 N10 1.351 . S
C7 C12 1.501 . S
C8 C9 1.387 . S
C8 N11 1.341 . S
C9 C7 1.400 . S
C9 C8 1.387 . S
N10 Co1 2.022 1_556 S
N10 C7 1.351 . S
N10 N11 1.365 . S
N11 C8 1.341 . S
N11 N10 1.365 . S
N11 H31 0.862 . S
C12 C7 1.501 . S
C12 H13 0.961 . S
C12 H14 0.961 . S
C12 H15 0.960 . S
H13 C12 0.961 . S
H14 C12 0.961 . S
H15 C12 0.960 . S
C16 N17 1.342 . S
C16 C20 1.401 . S
C16 C21 1.499 . S
N17 Co0 1.989 . S
N17 C16 1.342 . S
N17 N18 1.388 . S
N18 Co1 1.993 . S
N18 N17 1.388 . S
N18 C19 1.346 . S
C19 N18 1.346 . S
C19 C20 1.396 . S
C19 C29 1.510 1_554 S
C20 C16 1.401 . S
C20 C19 1.396 . S
C21 C16 1.499 . S
C21 H22 0.959 . S
C21 H23 0.960 . S
C21 H24 0.961 . S
H22 C21 0.959 . S
H23 C21 0.960 . S
H24 C21 0.961 . S
O25 Co0 1.967 . S
O25 C33 1.258 . S
O26 Co1 1.941 . S
O26 C33 1.266 . S
H27 C29 0.959 . S
H28 C29 0.961 . S
C29 C19 1.510 1_556 S
C29 H27 0.959 . S
C29 H28 0.961 . S
C29 H30 0.960 . S
H30 C29 0.960 . S
H31 N11 0.862 . S
O32 Co0 1.920 . S
O32 C5 1.289 . S
C33 O25 1.258 . S
C33 O26 1.266 . S
Co34 O37 1.970 . S
Co34 N51 1.989 . S
Co34 O59 1.967 . S
Co34 O66 1.920 . S
Co35 O38 1.966 . S
Co35 N44 2.022 . S
Co35 N52 1.993 . S
Co35 O60 1.941 . S
C36 O37 1.258 . S
C36 O38 1.263 . S
O37 Co34 1.970 . S
O37 C36 1.258 . S
O38 Co35 1.966 . S
O38 C36 1.263 . S
C39 O40 1.235 . S
C39 O66 1.289 . S
O40 C39 1.235 . S
C41 C43 1.400 . S
C41 N44 1.351 . S
C41 C46 1.501 . S
C42 C43 1.387 . S
C42 N45 1.341 . S
C43 C41 1.400 . S
C43 C42 1.387 . S
N44 Co35 2.022 . S
N44 C41 1.351 . S
N44 N45 1.365 . S
N45 C42 1.341 . S
N45 N44 1.365 . S
N45 H65 0.862 . S
C46 C41 1.501 . S
C46 H47 0.961 . S
C46 H48 0.961 . S
C46 H49 0.960 . S
H47 C46 0.961 . S
H48 C46 0.961 . S
H49 C46 0.960 . S
C50 N51 1.342 . S
C50 C54 1.401 . S
C50 C55 1.499 . S
N51 Co34 1.989 . S
N51 C50 1.342 . S
N51 N52 1.388 . S
N52 Co35 1.993 . S
N52 N51 1.388 . S
N52 C53 1.346 . S
C53 N52 1.346 . S
C53 C54 1.396 . S
C53 C63 1.510 . S
C54 C50 1.401 . S
C54 C53 1.396 . S
C55 C50 1.499 . S
C55 H56 0.959 . S
C55 H57 0.960 . S
C55 H58 0.961 . S
H56 C55 0.959 . S
H57 C55 0.960 . S
H58 C55 0.961 . S
O59 Co34 1.967 . S
O59 C67 1.258 . S
O60 Co35 1.941 . S
O60 C67 1.266 . S
H61 C63 0.959 . S
H62 C63 0.961 . S
C63 C53 1.510 . S
C63 H61 0.959 . S
C63 H62 0.961 . S
C63 H64 0.960 . S
H64 C63 0.960 . S
H65 N45 0.862 . S
O66 Co34 1.920 . S
O66 C39 1.289 . S
C67 O59 1.258 . S
C67 O60 1.266 . S
Co68 O71 1.970 . S
Co68 N85 1.989 . S
Co68 O93 1.967 . S
Co68 O100 1.919 1_556 S
Co69 O72 1.966 . S
Co69 N78 2.022 . S
Co69 N86 1.993 . S
Co69 O94 1.941 . S
C70 O71 1.258 . S
C70 O72 1.263 . S
O71 Co68 1.970 . S
O71 C70 1.258 . S
O72 Co69 1.966 . S
O72 C70 1.263 . S
C73 O74 1.235 . S
C73 O100 1.290 . S
O74 C73 1.235 . S
C75 C77 1.400 . S
C75 N78 1.351 . S
C75 C80 1.501 . S
C76 C77 1.387 . S
C76 N79 1.341 . S
C77 C75 1.400 . S
C77 C76 1.387 . S
N78 Co69 2.022 . S
N78 C75 1.351 . S
N78 N79 1.365 . S
N79 C76 1.341 . S
N79 N78 1.365 . S
N79 H99 0.862 . S
C80 C75 1.501 . S
C80 H81 0.961 . S
C80 H82 0.961 . S
C80 H83 0.960 . S
H81 C80 0.961 . S
H82 C80 0.961 . S
H83 C80 0.960 . S
C84 N85 1.342 . S
C84 C88 1.401 . S
C84 C89 1.499 . S
N85 Co68 1.989 . S
N85 C84 1.342 . S
N85 N86 1.388 . S
N86 Co69 1.993 . S
N86 N85 1.388 . S
N86 C87 1.346 . S
C87 N86 1.346 . S
C87 C88 1.396 . S
C87 C97 1.510 . S
C88 C84 1.401 . S
C88 C87 1.396 . S
C89 C84 1.499 . S
C89 H90 0.959 . S
C89 H91 0.960 . S
C89 H92 0.961 . S
H90 C89 0.959 . S
H91 C89 0.960 . S
H92 C89 0.961 . S
O93 Co68 1.967 . S
O93 C101 1.258 . S
O94 Co69 1.941 . S
O94 C101 1.266 . S
H95 C97 0.959 . S
H96 C97 0.961 . S
C97 C87 1.510 . S
C97 H95 0.959 . S
C97 H96 0.961 . S
C97 H98 0.960 . S
H98 C97 0.960 . S
H99 N79 0.862 . S
O100 Co68 1.919 1_554 S
O100 C73 1.290 . S
C101 O93 1.258 . S
C101 O94 1.266 . S
Co102 O105 1.970 . S
Co102 N119 1.989 . S
Co102 O127 1.967 . S
Co102 O134 1.920 . S
Co103 O106 1.966 . S
Co103 N112 2.022 1_554 S
Co103 N120 1.993 . S
Co103 O128 1.941 . S
C104 O105 1.258 . S
C104 O106 1.263 . S
O105 Co102 1.970 . S
O105 C104 1.258 . S
O106 Co103 1.966 . S
O106 C104 1.263 . S
C107 O108 1.235 . S
C107 O134 1.289 . S
O108 C107 1.235 . S
C109 C111 1.400 . S
C109 N112 1.351 . S
C109 C114 1.501 . S
C110 C111 1.387 . S
C110 N113 1.341 . S
C111 C109 1.400 . S
C111 C110 1.387 . S
N112 Co103 2.022 1_556 S
N112 C109 1.351 . S
N112 N113 1.365 . S
N113 C110 1.341 . S
N113 N112 1.365 . S
N113 H133 0.862 . S
C114 C109 1.501 . S
C114 H115 0.961 . S
C114 H116 0.961 . S
C114 H117 0.960 . S
H115 C114 0.961 . S
H116 C114 0.961 . S
H117 C114 0.960 . S
C118 N119 1.342 . S
C118 C122 1.401 . S
C118 C123 1.499 . S
N119 Co102 1.989 . S
N119 C118 1.342 . S
N119 N120 1.388 . S
N120 Co103 1.993 . S
N120 N119 1.388 . S
N120 C121 1.346 . S
C121 N120 1.346 . S
C121 C122 1.396 . S
C121 C131 1.510 1_554 S
C122 C118 1.401 . S
C122 C121 1.396 . S
C123 C118 1.499 . S
C123 H124 0.959 . S
C123 H125 0.960 . S
C123 H126 0.961 . S
H124 C123 0.959 . S
H125 C123 0.960 . S
H126 C123 0.961 . S
O127 Co102 1.967 . S
O127 C135 1.258 . S
O128 Co103 1.941 . S
O128 C135 1.266 . S
H129 C131 0.959 . S
H130 C131 0.961 . S
C131 C121 1.510 1_556 S
C131 H129 0.959 . S
C131 H130 0.961 . S
C131 H132 0.960 . S
H132 C131 0.960 . S
H133 N113 0.862 . S
O134 Co102 1.920 . S
O134 C107 1.289 . S
C135 O127 1.258 . S
C135 O128 1.266 . S
Co136 O139 1.970 . S
Co136 N153 1.989 . S
Co136 O161 1.967 . S
Co136 O168 1.920 . S
Co137 O140 1.966 . S
Co137 N146 2.022 . S
Co137 N154 1.993 . S
Co137 O162 1.941 . S
C138 O139 1.258 . S
C138 O140 1.263 . S
O139 Co136 1.970 . S
O139 C138 1.258 . S
O140 Co137 1.966 . S
O140 C138 1.263 . S
C141 O142 1.235 . S
C141 O168 1.289 . S
O142 C141 1.235 . S
C143 C145 1.400 . S
C143 N146 1.351 . S
C143 C148 1.501 . S
C144 C145 1.387 . S
C144 N147 1.341 . S
C145 C143 1.400 . S
C145 C144 1.387 . S
N146 Co137 2.022 . S
N146 C143 1.351 . S
N146 N147 1.365 . S
N147 C144 1.341 . S
N147 N146 1.365 . S
N147 H167 0.862 . S
C148 C143 1.501 . S
C148 H149 0.961 . S
C148 H150 0.961 . S
C148 H151 0.960 . S
H149 C148 0.961 . S
H150 C148 0.961 . S
H151 C148 0.960 . S
C152 N153 1.342 . S
C152 C156 1.401 . S
C152 C157 1.499 . S
N153 Co136 1.989 . S
N153 C152 1.342 . S
N153 N154 1.388 . S
N154 Co137 1.993 . S
N154 N153 1.388 . S
N154 C155 1.346 . S
C155 N154 1.346 . S
C155 C156 1.396 . S
C155 C165 1.510 . S
C156 C152 1.401 . S
C156 C155 1.396 . S
C157 C152 1.499 . S
C157 H158 0.959 . S
C157 H159 0.960 . S
C157 H160 0.961 . S
H158 C157 0.959 . S
H159 C157 0.960 . S
H160 C157 0.961 . S
O161 Co136 1.967 . S
O161 C169 1.258 . S
O162 Co137 1.941 . S
O162 C169 1.266 . S
H163 C165 0.959 . S
H164 C165 0.961 . S
C165 C155 1.510 . S
C165 H163 0.959 . S
C165 H164 0.961 . S
C165 H166 0.960 . S
H166 C165 0.960 . S
H167 N147 0.862 . S
O168 Co136 1.920 . S
O168 C141 1.289 . S
C169 O161 1.258 . S
C169 O162 1.266 . S
Co170 O173 1.970 . S
Co170 N187 1.989 . S
Co170 O195 1.967 . S
Co170 O202 1.919 1_556 S
Co171 O174 1.966 . S
Co171 N180 2.022 . S
Co171 N188 1.993 . S
Co171 O196 1.941 . S
C172 O173 1.258 . S
C172 O174 1.263 . S
O173 Co170 1.970 . S
O173 C172 1.258 . S
O174 Co171 1.966 . S
O174 C172 1.263 . S
C175 O176 1.235 . S
C175 O202 1.290 . S
O176 C175 1.235 . S
C177 C179 1.400 . S
C177 N180 1.351 . S
C177 C182 1.501 . S
C178 C179 1.387 . S
C178 N181 1.341 . S
C179 C177 1.400 . S
C179 C178 1.387 . S
N180 Co171 2.022 . S
N180 C177 1.351 . S
N180 N181 1.365 . S
N181 C178 1.341 . S
N181 N180 1.365 . S
N181 H201 0.862 . S
C182 C177 1.501 . S
C182 H183 0.961 . S
C182 H184 0.961 . S
C182 H185 0.960 . S
H183 C182 0.961 . S
H184 C182 0.961 . S
H185 C182 0.960 . S
C186 N187 1.342 . S
C186 C190 1.401 . S
C186 C191 1.499 . S
N187 Co170 1.989 . S
N187 C186 1.342 . S
N187 N188 1.388 . S
N188 Co171 1.993 . S
N188 N187 1.388 . S
N188 C189 1.346 . S
C189 N188 1.346 . S
C189 C190 1.396 . S
C189 C199 1.510 . S
C190 C186 1.401 . S
C190 C189 1.396 . S
C191 C186 1.499 . S
C191 H192 0.959 . S
C191 H193 0.960 . S
C191 H194 0.961 . S
H192 C191 0.959 . S
H193 C191 0.960 . S
H194 C191 0.961 . S
O195 Co170 1.967 . S
O195 C203 1.258 . S
O196 Co171 1.941 . S
O196 C203 1.266 . S
H197 C199 0.959 . S
H198 C199 0.961 . S
C199 C189 1.510 . S
C199 H197 0.959 . S
C199 H198 0.961 . S
C199 H200 0.960 . S
H200 C199 0.960 . S
H201 N181 0.862 . S
O202 Co170 1.919 1_554 S
O202 C175 1.290 . S
C203 O195 1.258 . S
C203 O196 1.266 . S
Co204 O207 1.970 . S
Co204 N221 1.989 . S
Co204 O229 1.967 . S
Co204 O236 1.920 . S
Co205 O208 1.966 . S
Co205 N214 2.022 . S
Co205 N222 1.993 . S
Co205 O230 1.941 . S
C206 O207 1.258 . S
C206 O208 1.263 . S
O207 Co204 1.970 . S
O207 C206 1.258 . S
O208 Co205 1.966 . S
O208 C206 1.263 . S
C209 O210 1.235 . S
C209 O236 1.289 . S
O210 C209 1.235 . S
C211 C213 1.400 . S
C211 N214 1.351 . S
C211 C216 1.501 . S
C212 C213 1.387 . S
C212 N215 1.341 . S
C213 C211 1.400 . S
C213 C212 1.387 . S
N214 Co205 2.022 . S
N214 C211 1.351 . S
N214 N215 1.365 . S
N215 C212 1.341 . S
N215 N214 1.365 . S
N215 H235 0.862 . S
C216 C211 1.501 . S
C216 H217 0.961 . S
C216 H218 0.961 . S
C216 H219 0.960 . S
H217 C216 0.961 . S
H218 C216 0.961 . S
H219 C216 0.960 . S
C220 N221 1.342 . S
C220 C224 1.401 . S
C220 C225 1.499 . S
N221 Co204 1.989 . S
N221 C220 1.342 . S
N221 N222 1.388 . S
N222 Co205 1.993 . S
N222 N221 1.388 . S
N222 C223 1.346 . S
C223 N222 1.346 . S
C223 C224 1.396 . S
C223 C233 1.510 . S
C224 C220 1.401 . S
C224 C223 1.396 . S
C225 C220 1.499 . S
C225 H226 0.959 . S
C225 H227 0.960 . S
C225 H228 0.961 . S
H226 C225 0.959 . S
H227 C225 0.960 . S
H228 C225 0.961 . S
O229 Co204 1.967 . S
O229 C237 1.258 . S
O230 Co205 1.941 . S
O230 C237 1.266 . S
H231 C233 0.959 . S
H232 C233 0.961 . S
C233 C223 1.510 . S
C233 H231 0.959 . S
C233 H232 0.961 . S
C233 H234 0.960 . S
H234 C233 0.960 . S
H235 N215 0.862 . S
O236 Co204 1.920 . S
O236 C209 1.289 . S
C237 O229 1.258 . S
C237 O230 1.266 . S
Co238 O241 1.970 . S
Co238 N255 1.989 . S
Co238 O263 1.967 . S
Co238 O270 1.920 . S
Co239 O242 1.966 . S
Co239 N248 2.022 1_556 S
Co239 N256 1.993 . S
Co239 O264 1.941 . S
C240 O241 1.258 . S
C240 O242 1.263 . S
O241 Co238 1.970 . S
O241 C240 1.258 . S
O242 Co239 1.966 . S
O242 C240 1.263 . S
C243 O244 1.235 . S
C243 O270 1.289 . S
O244 C243 1.235 . S
C245 C247 1.400 . S
C245 N248 1.351 . S
C245 C250 1.501 . S
C246 C247 1.387 . S
C246 N249 1.341 . S
C247 C245 1.400 . S
C247 C246 1.387 . S
N248 Co239 2.022 1_554 S
N248 C245 1.351 . S
N248 N249 1.365 . S
N249 C246 1.341 . S
N249 N248 1.365 . S
N249 H269 0.862 . S
C250 C245 1.501 . S
C250 H251 0.961 . S
C250 H252 0.961 . S
C250 H253 0.960 . S
H251 C250 0.961 . S
H252 C250 0.961 . S
H253 C250 0.960 . S
C254 N255 1.342 . S
C254 C258 1.401 . S
C254 C259 1.499 . S
N255 Co238 1.989 . S
N255 C254 1.342 . S
N255 N256 1.388 . S
N256 Co239 1.993 . S
N256 N255 1.388 . S
N256 C257 1.346 . S
C257 N256 1.346 . S
C257 C258 1.396 . S
C257 C267 1.510 1_556 S
C258 C254 1.401 . S
C258 C257 1.396 . S
C259 C254 1.499 . S
C259 H260 0.959 . S
C259 H261 0.960 . S
C259 H262 0.961 . S
H260 C259 0.959 . S
H261 C259 0.960 . S
H262 C259 0.961 . S
O263 Co238 1.967 . S
O263 C271 1.258 . S
O264 Co239 1.941 . S
O264 C271 1.266 . S
H265 C267 0.959 . S
H266 C267 0.961 . S
C267 C257 1.510 1_554 S
C267 H265 0.959 . S
C267 H266 0.961 . S
C267 H268 0.960 . S
H268 C267 0.960 . S
H269 N249 0.862 . S
O270 Co238 1.920 . S
O270 C243 1.289 . S
C271 O263 1.258 . S
C271 O264 1.266 . S
Co272 O275 1.970 . S
Co272 N289 1.989 . S
Co272 O297 1.967 . S
Co272 O304 1.918 1_554 S
Co273 O276 1.966 . S
Co273 N282 2.022 . S
Co273 N290 1.993 . S
Co273 O298 1.941 . S
C274 O275 1.258 . S
C274 O276 1.263 . S
O275 Co272 1.970 . S
O275 C274 1.258 . S
O276 Co273 1.966 . S
O276 C274 1.263 . S
C277 O278 1.235 . S
C277 O304 1.290 . S
O278 C277 1.235 . S
C279 C281 1.400 . S
C279 N282 1.351 . S
C279 C284 1.501 . S
C280 C281 1.387 . S
C280 N283 1.341 . S
C281 C279 1.400 . S
C281 C280 1.387 . S
N282 Co273 2.022 . S
N282 C279 1.351 . S
N282 N283 1.365 . S
N283 C280 1.341 . S
N283 N282 1.365 . S
N283 H303 0.862 . S
C284 C279 1.501 . S
C284 H285 0.961 . S
C284 H286 0.961 . S
C284 H287 0.960 . S
H285 C284 0.961 . S
H286 C284 0.961 . S
H287 C284 0.960 . S
C288 N289 1.342 . S
C288 C292 1.401 . S
C288 C293 1.499 . S
N289 Co272 1.989 . S
N289 C288 1.342 . S
N289 N290 1.388 . S
N290 Co273 1.993 . S
N290 N289 1.388 . S
N290 C291 1.346 . S
C291 N290 1.346 . S
C291 C292 1.396 . S
C291 C301 1.510 . S
C292 C288 1.401 . S
C292 C291 1.396 . S
C293 C288 1.499 . S
C293 H294 0.959 . S
C293 H295 0.960 . S
C293 H296 0.961 . S
H294 C293 0.959 . S
H295 C293 0.960 . S
H296 C293 0.961 . S
O297 Co272 1.967 . S
O297 C305 1.258 . S
O298 Co273 1.941 . S
O298 C305 1.266 . S
H299 C301 0.959 . S
H300 C301 0.961 . S
C301 C291 1.510 . S
C301 H299 0.959 . S
C301 H300 0.961 . S
C301 H302 0.960 . S
H302 C301 0.960 . S
H303 N283 0.862 . S
O304 Co272 1.918 1_556 S
O304 C277 1.290 . S
C305 O297 1.258 . S
C305 O298 1.266 . S
Co306 O309 1.970 . S
Co306 N323 1.989 . S
Co306 O331 1.967 . S
Co306 O338 1.920 . S
Co307 O310 1.966 . S
Co307 N316 2.022 . S
Co307 N324 1.993 . S
Co307 O332 1.941 . S
C308 O309 1.258 . S
C308 O310 1.263 . S
O309 Co306 1.970 . S
O309 C308 1.258 . S
O310 Co307 1.966 . S
O310 C308 1.263 . S
C311 O312 1.235 . S
C311 O338 1.289 . S
O312 C311 1.235 . S
C313 C315 1.400 . S
C313 N316 1.351 . S
C313 C318 1.501 . S
C314 C315 1.387 . S
C314 N317 1.341 . S
C315 C313 1.400 . S
C315 C314 1.387 . S
N316 Co307 2.022 . S
N316 C313 1.351 . S
N316 N317 1.365 . S
N317 C314 1.341 . S
N317 N316 1.365 . S
N317 H337 0.862 . S
C318 C313 1.501 . S
C318 H319 0.961 . S
C318 H320 0.961 . S
C318 H321 0.960 . S
H319 C318 0.961 . S
H320 C318 0.961 . S
H321 C318 0.960 . S
C322 N323 1.342 . S
C322 C326 1.401 . S
C322 C327 1.499 . S
N323 Co306 1.989 . S
N323 C322 1.342 . S
N323 N324 1.388 . S
N324 Co307 1.993 . S
N324 N323 1.388 . S
N324 C325 1.346 . S
C325 N324 1.346 . S
C325 C326 1.396 . S
C325 C335 1.510 . S
C326 C322 1.401 . S
C326 C325 1.396 . S
C327 C322 1.499 . S
C327 H328 0.959 . S
C327 H329 0.960 . S
C327 H330 0.961 . S
H328 C327 0.959 . S
H329 C327 0.960 . S
H330 C327 0.961 . S
O331 Co306 1.967 . S
O331 C339 1.258 . S
O332 Co307 1.941 . S
O332 C339 1.266 . S
H333 C335 0.959 . S
H334 C335 0.961 . S
C335 C325 1.510 . S
C335 H333 0.959 . S
C335 H334 0.961 . S
C335 H336 0.960 . S
H336 C335 0.960 . S
H337 N317 0.862 . S
O338 Co306 1.920 . S
O338 C311 1.289 . S
C339 O331 1.258 . S
C339 O332 1.266 . S
Co340 O343 1.970 . S
Co340 N357 1.989 . S
Co340 O365 1.967 . S
Co340 O372 1.920 . S
Co341 O344 1.966 . S
Co341 N350 2.022 1_556 S
Co341 N358 1.993 . S
Co341 O366 1.941 . S
C342 O343 1.258 . S
C342 O344 1.263 . S
O343 Co340 1.970 . S
O343 C342 1.258 . S
O344 Co341 1.966 . S
O344 C342 1.263 . S
C345 O346 1.235 . S
C345 O372 1.289 . S
O346 C345 1.235 . S
C347 C349 1.400 . S
C347 N350 1.351 . S
C347 C352 1.501 . S
C348 C349 1.387 . S
C348 N351 1.341 . S
C349 C347 1.400 . S
C349 C348 1.387 . S
N350 Co341 2.022 1_554 S
N350 C347 1.351 . S
N350 N351 1.365 . S
N351 C348 1.341 . S
N351 N350 1.365 . S
N351 H371 0.862 . S
C352 C347 1.501 . S
C352 H353 0.961 . S
C352 H354 0.961 . S
C352 H355 0.960 . S
H353 C352 0.961 . S
H354 C352 0.961 . S
H355 C352 0.960 . S
C356 N357 1.342 . S
C356 C360 1.401 . S
C356 C361 1.499 . S
N357 Co340 1.989 . S
N357 C356 1.342 . S
N357 N358 1.388 . S
N358 Co341 1.993 . S
N358 N357 1.388 . S
N358 C359 1.346 . S
C359 N358 1.346 . S
C359 C360 1.396 . S
C359 C369 1.510 1_556 S
C360 C356 1.401 . S
C360 C359 1.396 . S
C361 C356 1.499 . S
C361 H362 0.959 . S
C361 H363 0.960 . S
C361 H364 0.961 . S
H362 C361 0.959 . S
H363 C361 0.960 . S
H364 C361 0.961 . S
O365 Co340 1.967 . S
O365 C373 1.258 . S
O366 Co341 1.941 . S
O366 C373 1.266 . S
H367 C369 0.959 . S
H368 C369 0.961 . S
C369 C359 1.510 1_554 S
C369 H367 0.959 . S
C369 H368 0.961 . S
C369 H370 0.960 . S
H370 C369 0.960 . S
H371 N351 0.862 . S
O372 Co340 1.920 . S
O372 C345 1.289 . S
C373 O365 1.258 . S
C373 O366 1.266 . S
Co374 O377 1.970 . S
Co374 N391 1.989 . S
Co374 O399 1.967 . S
Co374 O406 1.918 1_554 S
Co375 O378 1.966 . S
Co375 N384 2.022 . S
Co375 N392 1.993 . S
Co375 O400 1.941 . S
C376 O377 1.258 . S
C376 O378 1.263 . S
O377 Co374 1.970 . S
O377 C376 1.258 . S
O378 Co375 1.966 . S
O378 C376 1.263 . S
C379 O380 1.235 . S
C379 O406 1.290 . S
O380 C379 1.235 . S
C381 C383 1.400 . S
C381 N384 1.351 . S
C381 C386 1.501 . S
C382 C383 1.387 . S
C382 N385 1.341 . S
C383 C381 1.400 . S
C383 C382 1.387 . S
N384 Co375 2.022 . S
N384 C381 1.351 . S
N384 N385 1.365 . S
N385 C382 1.341 . S
N385 N384 1.365 . S
N385 H405 0.862 . S
C386 C381 1.501 . S
C386 H387 0.961 . S
C386 H388 0.961 . S
C386 H389 0.960 . S
H387 C386 0.961 . S
H388 C386 0.961 . S
H389 C386 0.960 . S
C390 N391 1.342 . S
C390 C394 1.401 . S
C390 C395 1.499 . S
N391 Co374 1.989 . S
N391 C390 1.342 . S
N391 N392 1.388 . S
N392 Co375 1.993 . S
N392 N391 1.388 . S
N392 C393 1.346 . S
C393 N392 1.346 . S
C393 C394 1.396 . S
C393 C403 1.510 . S
C394 C390 1.401 . S
C394 C393 1.396 . S
C395 C390 1.499 . S
C395 H396 0.959 . S
C395 H397 0.960 . S
C395 H398 0.961 . S
H396 C395 0.959 . S
H397 C395 0.960 . S
H398 C395 0.961 . S
O399 Co374 1.967 . S
O399 C407 1.258 . S
O400 Co375 1.941 . S
O400 C407 1.266 . S
H401 C403 0.959 . S
H402 C403 0.961 . S
C403 C393 1.510 . S
C403 H401 0.959 . S
C403 H402 0.961 . S
C403 H404 0.960 . S
H404 C403 0.960 . S
H405 N385 0.862 . S
O406 Co374 1.918 1_556 S
O406 C379 1.290 . S
C407 O399 1.258 . S
C407 O400 1.266 . S
C408 C409 1.363 . S
C408 C414 1.379 1_455 S
C408 N416 1.356 . S
C409 C408 1.363 . S
C409 C415 1.363 . S
C410 C411 1.363 . S
C410 C415 1.379 1_655 S
C410 N417 1.356 . S
C411 C410 1.363 . S
C411 C414 1.363 . S
N412 C414 1.356 . S
N412 H424 0.984 . S
N412 H425 0.985 . S
N413 C415 1.356 . S
N413 H418 0.984 . S
N413 H419 0.985 . S
C414 C408 1.379 1_655 S
C414 C411 1.363 . S
C414 N412 1.356 . S
C415 C409 1.363 . S
C415 C410 1.379 1_455 S
C415 N413 1.356 . S
N416 C408 1.356 . S
N416 H422 0.984 1_554 S
N416 H423 0.984 . S
N417 C410 1.356 . S
N417 H420 0.984 . S
N417 H421 0.985 . S
H418 N413 0.984 . S
H419 N413 0.985 . S
H420 N417 0.984 . S
H421 N417 0.985 . S
H422 N416 0.984 1_556 S
H423 N416 0.984 . S
H424 N412 0.984 . S
H425 N412 0.985 . S
C426 C427 1.363 . S
C426 C432 1.379 1_545 S
C426 N434 1.356 . S
C427 C426 1.363 . S
C427 C433 1.363 . S
C428 C429 1.363 . S
C428 C433 1.379 1_565 S
C428 N435 1.356 . S
C429 C428 1.363 . S
C429 C432 1.363 . S
N430 C432 1.356 . S
N430 H442 0.984 . S
N430 H443 0.985 . S
N431 C433 1.356 . S
N431 H436 0.984 . S
N431 H437 0.985 . S
C432 C426 1.379 1_565 S
C432 C429 1.363 . S
C432 N430 1.356 . S
C433 C427 1.363 . S
C433 C428 1.379 1_545 S
C433 N431 1.356 . S
N434 C426 1.356 . S
N434 H440 0.984 . S
N434 H441 0.984 . S
N435 C428 1.356 . S
N435 H438 0.984 . S
N435 H439 0.985 . S
H436 N431 0.984 . S
H437 N431 0.985 . S
H438 N435 0.984 . S
H439 N435 0.985 . S
H440 N434 0.984 . S
H441 N434 0.984 . S
H442 N430 0.984 . S
H443 N430 0.985 . S
C444 C445 1.363 . S
C444 C450 1.379 . S
C444 N452 1.356 . S
C445 C444 1.363 . S
C445 C451 1.363 . S
C446 C447 1.363 . S
C446 C451 1.379 . S
C446 N453 1.356 . S
C447 C446 1.363 . S
C447 C450 1.363 . S
N448 C450 1.356 . S
N448 H460 0.984 . S
N448 H461 0.985 . S
N449 C451 1.356 . S
N449 H454 0.984 . S
N449 H455 0.985 . S
C450 C444 1.379 . S
C450 C447 1.363 . S
C450 N448 1.356 . S
C451 C445 1.363 . S
C451 C446 1.379 . S
C451 N449 1.356 . S
N452 C444 1.356 . S
N452 H458 0.984 1_556 S
N452 H459 0.984 . S
N453 C446 1.356 . S
N453 H456 0.984 . S
N453 H457 0.985 . S
H454 N449 0.984 . S
H455 N449 0.985 . S
H456 N453 0.984 . S
H457 N453 0.985 . S
H458 N452 0.984 1_554 S
H459 N452 0.984 . S
H460 N448 0.984 . S
H461 N448 0.985 . S
C462 C463 1.363 . S
C462 C468 1.379 1_455 S
C462 N470 1.356 . S
C463 C462 1.363 . S
C463 C469 1.363 . S
C464 C465 1.363 . S
C464 C469 1.379 1_655 S
C464 N471 1.356 . S
C465 C464 1.363 . S
C465 C468 1.363 . S
N466 C468 1.356 . S
N466 H478 0.984 . S
N466 H479 0.985 . S
N467 C469 1.356 . S
N467 H472 0.984 . S
N467 H473 0.985 . S
C468 C462 1.379 1_655 S
C468 C465 1.363 . S
C468 N466 1.356 . S
C469 C463 1.363 . S
C469 C464 1.379 1_455 S
C469 N467 1.356 . S
N470 C462 1.356 . S
N470 H476 0.984 . S
N470 H477 0.984 . S
N471 C464 1.356 . S
N471 H474 0.984 . S
N471 H475 0.985 . S
H472 N467 0.984 . S
H473 N467 0.985 . S
H474 N471 0.984 . S
H475 N471 0.985 . S
H476 N470 0.984 . S
H477 N470 0.984 . S
H478 N466 0.984 . S
H479 N466 0.985 . S
C480 C481 1.363 . S
C480 C486 1.379 1_545 S
C480 N488 1.356 . S
C481 C480 1.363 . S
C481 C487 1.363 . S
C482 C483 1.363 . S
C482 C487 1.379 1_565 S
C482 N489 1.356 . S
C483 C482 1.363 . S
C483 C486 1.363 . S
N484 C486 1.356 . S
N484 H496 0.984 . S
N484 H497 0.985 . S
N485 C487 1.356 . S
N485 H490 0.984 . S
N485 H491 0.985 . S
C486 C480 1.379 1_565 S
C486 C483 1.363 . S
C486 N484 1.356 . S
C487 C481 1.363 . S
C487 C482 1.379 1_545 S
C487 N485 1.356 . S
N488 C480 1.356 . S
N488 H494 0.984 . S
N488 H495 0.984 . S
N489 C482 1.356 . S
N489 H492 0.984 . S
N489 H493 0.985 . S
H490 N485 0.984 . S
H491 N485 0.985 . S
H492 N489 0.984 . S
H493 N489 0.985 . S
H494 N488 0.984 . S
H495 N488 0.984 . S
H496 N484 0.984 . S
H497 N484 0.985 . S
C498 C499 1.363 . S
C498 C504 1.379 . S
C498 N506 1.356 . S
C499 C498 1.363 . S
C499 C505 1.363 . S
C500 C501 1.363 . S
C500 C505 1.379 . S
C500 N507 1.356 . S
C501 C500 1.363 . S
C501 C504 1.363 . S
N502 C504 1.356 . S
N502 H514 0.984 . S
N502 H515 0.985 . S
N503 C505 1.356 . S
N503 H508 0.984 . S
N503 H509 0.985 . S
C504 C498 1.379 . S
C504 C501 1.363 . S
C504 N502 1.356 . S
C505 C499 1.363 . S
C505 C500 1.379 . S
C505 N503 1.356 . S
N506 C498 1.356 . S
N506 H512 0.984 . S
N506 H513 0.984 . S
N507 C500 1.356 . S
N507 H510 0.984 . S
N507 H511 0.985 . S
H508 N503 0.984 . S
H509 N503 0.985 . S
H510 N507 0.984 . S
H511 N507 0.985 . S
H512 N506 0.984 . S
H513 N506 0.984 . S
H514 N502 0.984 . S
H515 N502 0.985 . S
C516 C517 1.363 . S
C516 C522 1.379 . S
C516 N524 1.356 . S
C517 C516 1.363 . S
C517 C523 1.363 . S
C518 C519 1.363 . S
C518 C523 1.379 . S
C518 N525 1.356 . S
C519 C518 1.363 . S
C519 C522 1.363 . S
N520 C522 1.356 . S
N520 H532 0.984 . S
N520 H533 0.985 . S
N521 C523 1.356 . S
N521 H526 0.984 . S
N521 H527 0.985 . S
C522 C516 1.379 . S
C522 C519 1.363 . S
C522 N520 1.356 . S
C523 C517 1.363 . S
C523 C518 1.379 . S
C523 N521 1.356 . S
N524 C516 1.356 . S
N524 H530 0.984 . S
N524 H531 0.984 . S
N525 C518 1.356 . S
N525 H528 0.984 . S
N525 H529 0.985 . S
H526 N521 0.984 . S
H527 N521 0.985 . S
H528 N525 0.984 . S
H529 N525 0.985 . S
H530 N524 0.984 . S
H531 N524 0.984 . S
H532 N520 0.984 . S
H533 N520 0.985 . S
C534 C535 1.363 . S
C534 C540 1.379 . S
C534 N542 1.356 . S
C535 C534 1.363 . S
C535 C541 1.363 . S
C536 C537 1.363 . S
C536 C541 1.379 . S
C536 N543 1.356 . S
C537 C536 1.363 . S
C537 C540 1.363 . S
N538 C540 1.356 1_554 S
N538 H550 0.984 . S
N538 H551 0.985 . S
N539 C541 1.356 . S
N539 H544 0.984 . S
N539 H545 0.985 . S
C540 C534 1.379 . S
C540 C537 1.363 . S
C540 N538 1.356 1_556 S
C541 C535 1.363 . S
C541 C536 1.379 . S
C541 N539 1.356 . S
N542 C534 1.356 . S
N542 H548 0.984 . S
N542 H549 0.984 . S
N543 C536 1.356 . S
N543 H546 0.984 1_556 S
N543 H547 0.985 . S
H544 N539 0.984 . S
H545 N539 0.985 . S
H546 N543 0.984 1_554 S
H547 N543 0.985 . S
H548 N542 0.984 . S
H549 N542 0.984 . S
H550 N538 0.984 . S
H551 N538 0.985 . S
C552 C553 1.363 . S
C552 C558 1.379 . S
C552 N560 1.356 . S
C553 C552 1.363 . S
C553 C559 1.363 . S
C554 C555 1.363 . S
C554 C559 1.379 . S
C554 N561 1.356 . S
C555 C554 1.363 . S
C555 C558 1.363 . S
N556 C558 1.356 . S
N556 H568 0.984 . S
N556 H569 0.985 . S
N557 C559 1.356 . S
N557 H562 0.984 . S
N557 H563 0.985 . S
C558 C552 1.379 . S
C558 C555 1.363 . S
C558 N556 1.356 . S
C559 C553 1.363 . S
C559 C554 1.379 . S
C559 N557 1.356 . S
N560 C552 1.356 . S
N560 H566 0.984 . S
N560 H567 0.984 . S
N561 C554 1.356 . S
N561 H564 0.984 . S
N561 H565 0.985 . S
H562 N557 0.984 . S
H563 N557 0.985 . S
H564 N561 0.984 . S
H565 N561 0.985 . S
H566 N560 0.984 . S
H567 N560 0.984 . S
H568 N556 0.984 . S
H569 N556 0.985 . S
C570 C571 1.363 . S
C570 C576 1.379 . S
C570 N578 1.356 . S
C571 C570 1.363 . S
C571 C577 1.363 . S
C572 C573 1.363 . S
C572 C577 1.379 . S
C572 N579 1.356 . S
C573 C572 1.363 . S
C573 C576 1.363 . S
N574 C576 1.356 . S
N574 H586 0.984 . S
N574 H587 0.985 . S
N575 C577 1.356 . S
N575 H580 0.984 . S
N575 H581 0.985 . S
C576 C570 1.379 . S
C576 C573 1.363 . S
C576 N574 1.356 . S
C577 C571 1.363 . S
C577 C572 1.379 . S
C577 N575 1.356 . S
N578 C570 1.356 . S
N578 H584 0.984 . S
N578 H585 0.984 . S
N579 C572 1.356 . S
N579 H582 0.984 . S
N579 H583 0.985 . S
H580 N575 0.984 . S
H581 N575 0.985 . S
H582 N579 0.984 . S
H583 N579 0.985 . S
H584 N578 0.984 . S
H585 N578 0.984 . S
H586 N574 0.984 . S
H587 N574 0.985 . S
C588 C589 1.363 . S
C588 C594 1.379 . S
C588 N596 1.356 . S
C589 C588 1.363 . S
C589 C595 1.363 . S
C590 C591 1.363 . S
C590 C595 1.379 . S
C590 N597 1.356 . S
C591 C590 1.363 . S
C591 C594 1.363 . S
N592 C594 1.356 . S
N592 H604 0.984 . S
N592 H605 0.985 . S
N593 C595 1.356 1_554 S
N593 H598 0.984 . S
N593 H599 0.985 . S
C594 C588 1.379 . S
C594 C591 1.363 . S
C594 N592 1.356 . S
C595 C589 1.363 . S
C595 C590 1.379 . S
C595 N593 1.356 1_556 S
N596 C588 1.356 . S
N596 H602 0.984 . S
N596 H603 0.984 1_556 S
N597 C590 1.356 . S
N597 H600 0.984 . S
N597 H601 0.985 . S
H598 N593 0.984 . S
H599 N593 0.985 . S
H600 N597 0.984 . S
H601 N597 0.985 . S
H602 N596 0.984 . S
H603 N596 0.984 1_554 S
H604 N592 0.984 . S
H605 N592 0.985 . S
C606 C607 1.363 . S
C606 C612 1.379 . S
C606 N614 1.356 . S
C607 C606 1.363 . S
C607 C613 1.363 . S
C608 C609 1.363 . S
C608 C613 1.379 . S
C608 N615 1.356 . S
C609 C608 1.363 . S
C609 C612 1.363 . S
N610 C612 1.356 . S
N610 H622 0.984 . S
N610 H623 0.985 . S
N611 C613 1.356 . S
N611 H616 0.984 . S
N611 H617 0.985 . S
C612 C606 1.379 . S
C612 C609 1.363 . S
C612 N610 1.356 . S
C613 C607 1.363 . S
C613 C608 1.379 . S
C613 N611 1.356 . S
N614 C606 1.356 . S
N614 H620 0.984 . S
N614 H621 0.984 . S
N615 C608 1.356 . S
N615 H618 0.984 . S
N615 H619 0.985 . S
H616 N611 0.984 . S
H617 N611 0.985 . S
H618 N615 0.984 . S
H619 N615 0.985 . S
H620 N614 0.984 . S
H621 N614 0.984 . S
H622 N610 0.984 . S
H623 N610 0.985 . S
C624 C625 1.363 . S
C624 C630 1.379 . S
C624 N632 1.356 . S
C625 C624 1.363 . S
C625 C631 1.363 . S
C626 C627 1.363 . S
C626 C631 1.379 . S
C626 N633 1.356 . S
C627 C626 1.363 . S
C627 C630 1.363 . S
N628 C630 1.356 . S
N628 H640 0.984 . S
N628 H641 0.985 . S
N629 C631 1.356 1_556 S
N629 H634 0.984 . S
N629 H635 0.985 . S
C630 C624 1.379 . S
C630 C627 1.363 . S
C630 N628 1.356 . S
C631 C625 1.363 . S
C631 C626 1.379 . S
C631 N629 1.356 1_554 S
N632 C624 1.356 . S
N632 H638 0.984 . S
N632 H639 0.984 1_554 S
N633 C626 1.356 . S
N633 H636 0.984 . S
N633 H637 0.985 . S
H634 N629 0.984 . S
H635 N629 0.985 . S
H636 N633 0.984 . S
H637 N633 0.985 . S
H638 N632 0.984 . S
H639 N632 0.984 1_556 S
H640 N628 0.984 . S
H641 N628 0.985 . S
C642 C643 1.363 . S
C642 C648 1.379 . S
C642 N650 1.356 . S
C643 C642 1.363 . S
C643 C649 1.363 . S
C644 C645 1.363 . S
C644 C649 1.379 . S
C644 N651 1.356 . S
C645 C644 1.363 . S
C645 C648 1.363 . S
N646 C648 1.356 . S
N646 H658 0.984 . S
N646 H659 0.985 . S
N647 C649 1.356 . S
N647 H652 0.984 . S
N647 H653 0.985 . S
C648 C642 1.379 . S
C648 C645 1.363 . S
C648 N646 1.356 . S
C649 C643 1.363 . S
C649 C644 1.379 . S
C649 N647 1.356 . S
N650 C642 1.356 . S
N650 H656 0.984 . S
N650 H657 0.984 . S
N651 C644 1.356 . S
N651 H654 0.984 . S
N651 H655 0.985 . S
H652 N647 0.984 . S
H653 N647 0.985 . S
H654 N651 0.984 . S
H655 N651 0.985 . S
H656 N650 0.984 . S
H657 N650 0.984 . S
H658 N646 0.984 . S
H659 N646 0.985 . S
C660 C661 1.363 . S
C660 C666 1.379 . S
C660 N668 1.356 . S
C661 C660 1.363 . S
C661 C667 1.363 . S
C662 C663 1.363 . S
C662 C667 1.379 . S
C662 N669 1.356 . S
C663 C662 1.363 . S
C663 C666 1.363 . S
N664 C666 1.356 . S
N664 H676 0.984 . S
N664 H677 0.985 . S
N665 C667 1.356 . S
N665 H670 0.984 . S
N665 H671 0.985 . S
C666 C660 1.379 . S
C666 C663 1.363 . S
C666 N664 1.356 . S
C667 C661 1.363 . S
C667 C662 1.379 . S
C667 N665 1.356 . S
N668 C660 1.356 . S
N668 H674 0.984 . S
N668 H675 0.984 . S
N669 C662 1.356 . S
N669 H672 0.984 . S
N669 H673 0.985 . S
H670 N665 0.984 . S
H671 N665 0.985 . S
H672 N669 0.984 . S
H673 N669 0.985 . S
H674 N668 0.984 . S
H675 N668 0.984 . S
H676 N664 0.984 . S
H677 N664 0.985 . S
C678 C679 1.363 . S
C678 C684 1.379 . S
C678 N686 1.356 . S
C679 C678 1.363 . S
C679 C685 1.363 . S
C680 C681 1.363 . S
C680 C685 1.379 . S
C680 N687 1.356 1_554 S
C681 C680 1.363 . S
C681 C684 1.363 . S
N682 C684 1.356 . S
N682 H694 0.984 . S
N682 H695 0.985 1_554 S
N683 C685 1.356 . S
N683 H688 0.984 . S
N683 H689 0.985 . S
C684 C678 1.379 . S
C684 C681 1.363 . S
C684 N682 1.356 . S
C685 C679 1.363 . S
C685 C680 1.379 . S
C685 N683 1.356 . S
N686 C678 1.356 . S
N686 H692 0.984 . S
N686 H693 0.984 . S
N687 C680 1.356 1_556 S
N687 H690 0.984 . S
N687 H691 0.985 . S
H688 N683 0.984 . S
H689 N683 0.985 . S
H690 N687 0.984 . S
H691 N687 0.985 . S
H692 N686 0.984 . S
H693 N686 0.984 . S
H694 N682 0.984 . S
H695 N682 0.985 1_556 S
C696 C697 1.363 . S
C696 C702 1.379 . S
C696 N704 1.356 . S
C697 C696 1.363 . S
C697 C703 1.363 . S
C698 C699 1.363 . S
C698 C703 1.379 . S
C698 N705 1.356 . S
C699 C698 1.363 . S
C699 C702 1.363 . S
N700 C702 1.356 . S
N700 H712 0.984 . S
N700 H713 0.985 . S
N701 C703 1.356 . S
N701 H706 0.984 . S
N701 H707 0.985 . S
C702 C696 1.379 . S
C702 C699 1.363 . S
C702 N700 1.356 . S
C703 C697 1.363 . S
C703 C698 1.379 . S
C703 N701 1.356 . S
N704 C696 1.356 . S
N704 H710 0.984 . S
N704 H711 0.984 . S
N705 C698 1.356 . S
N705 H708 0.984 . S
N705 H709 0.985 . S
H706 N701 0.984 . S
H707 N701 0.985 . S
H708 N705 0.984 . S
H709 N705 0.985 . S
H710 N704 0.984 . S
H711 N704 0.984 . S
H712 N700 0.984 . S
H713 N700 0.985 . S
C714 C715 1.363 . S
C714 C720 1.379 . S
C714 N722 1.356 . S
C715 C714 1.363 . S
C715 C721 1.363 . S
C716 C717 1.363 . S
C716 C721 1.379 . S
C716 N723 1.356 . S
C717 C716 1.363 . S
C717 C720 1.363 . S
N718 C720 1.356 . S
N718 H730 0.984 . S
N718 H731 0.985 . S
N719 C721 1.356 . S
N719 H724 0.984 . S
N719 H725 0.985 . S
C720 C714 1.379 . S
C720 C717 1.363 . S
C720 N718 1.356 . S
C721 C715 1.363 . S
C721 C716 1.379 . S
C721 N719 1.356 . S
N722 C714 1.356 . S
N722 H728 0.984 . S
N722 H729 0.984 . S
N723 C716 1.356 . S
N723 H726 0.984 . S
N723 H727 0.985 . S
H724 N719 0.984 . S
H725 N719 0.985 . S
H726 N723 0.984 . S
H727 N723 0.985 . S
H728 N722 0.984 . S
H729 N722 0.984 . S
H730 N718 0.984 . S
H731 N718 0.985 . S
C732 C733 1.363 . S
C732 C738 1.379 . S
C732 N740 1.356 . S
C733 C732 1.363 . S
C733 C739 1.363 . S
C734 C735 1.363 . S
C734 C739 1.379 . S
C734 N741 1.356 . S
C735 C734 1.363 . S
C735 C738 1.363 . S
N736 C738 1.356 . S
N736 H748 0.984 . S
N736 H749 0.985 . S
N737 C739 1.356 . S
N737 H742 0.984 . S
N737 H743 0.985 1_554 S
C738 C732 1.379 . S
C738 C735 1.363 . S
C738 N736 1.356 . S
C739 C733 1.363 . S
C739 C734 1.379 . S
C739 N737 1.356 . S
N740 C732 1.356 . S
N740 H746 0.984 . S
N740 H747 0.984 . S
N741 C734 1.356 . S
N741 H744 0.984 . S
N741 H745 0.985 . S
H742 N737 0.984 . S
H743 N737 0.985 1_556 S
H744 N741 0.984 . S
H745 N741 0.985 . S
H746 N740 0.984 . S
H747 N740 0.984 . S
H748 N736 0.984 . S
H749 N736 0.985 . S
C750 C751 1.363 . S
C750 C756 1.379 . S
C750 N758 1.356 . S
C751 C750 1.363 . S
C751 C757 1.363 . S
C752 C753 1.363 . S
C752 C757 1.379 . S
C752 N759 1.356 . S
C753 C752 1.363 . S
C753 C756 1.363 . S
N754 C756 1.356 . S
N754 H766 0.984 . S
N754 H767 0.985 . S
N755 C757 1.356 . S
N755 H760 0.984 . S
N755 H761 0.985 . S
C756 C750 1.379 . S
C756 C753 1.363 . S
C756 N754 1.356 . S
C757 C751 1.363 . S
C757 C752 1.379 . S
C757 N755 1.356 . S
N758 C750 1.356 . S
N758 H764 0.984 . S
N758 H765 0.984 . S
N759 C752 1.356 . S
N759 H762 0.984 . S
N759 H763 0.985 . S
H760 N755 0.984 . S
H761 N755 0.985 . S
H762 N759 0.984 . S
H763 N759 0.985 . S
H764 N758 0.984 . S
H765 N758 0.984 . S
H766 N754 0.984 . S
H767 N754 0.985 . S
C768 C769 1.363 . S
C768 C774 1.379 . S
C768 N776 1.356 . S
C769 C768 1.363 . S
C769 C775 1.363 . S
C770 C771 1.363 . S
C770 C775 1.379 . S
C770 N777 1.356 . S
C771 C770 1.363 . S
C771 C774 1.363 . S
N772 C774 1.356 . S
N772 H784 0.984 . S
N772 H785 0.985 . S
N773 C775 1.356 . S
N773 H778 0.984 . S
N773 H779 0.985 . S
C774 C768 1.379 . S
C774 C771 1.363 . S
C774 N772 1.356 . S
C775 C769 1.363 . S
C775 C770 1.379 . S
C775 N773 1.356 . S
N776 C768 1.356 . S
N776 H782 0.984 . S
N776 H783 0.984 . S
N777 C770 1.356 . S
N777 H780 0.984 . S
N777 H781 0.985 1_556 S
H778 N773 0.984 . S
H779 N773 0.985 . S
H780 N777 0.984 . S
H781 N777 0.985 1_554 S
H782 N776 0.984 . S
H783 N776 0.984 . S
H784 N772 0.984 . S
H785 N772 0.985 . S
C786 C787 1.363 . S
C786 C792 1.379 . S
C786 N794 1.356 . S
C787 C786 1.363 . S
C787 C793 1.363 . S
C788 C789 1.363 . S
C788 C793 1.379 . S
C788 N795 1.356 . S
C789 C788 1.363 . S
C789 C792 1.363 . S
N790 C792 1.356 . S
N790 H802 0.984 1_554 S
N790 H803 0.985 . S
N791 C793 1.356 . S
N791 H796 0.984 . S
N791 H797 0.985 . S
C792 C786 1.379 . S
C792 C789 1.363 . S
C792 N790 1.356 . S
C793 C787 1.363 . S
C793 C788 1.379 . S
C793 N791 1.356 . S
N794 C786 1.356 . S
N794 H800 0.984 . S
N794 H801 0.984 . S
N795 C788 1.356 . S
N795 H798 0.984 . S
N795 H799 0.985 . S
H796 N791 0.984 . S
H797 N791 0.985 . S
H798 N795 0.984 . S
H799 N795 0.985 . S
H800 N794 0.984 . S
H801 N794 0.984 . S
H802 N790 0.984 1_556 S
H803 N790 0.985 . S
C804 C805 1.363 . S
C804 C810 1.379 . S
C804 N812 1.356 . S
C805 C804 1.363 . S
C805 C811 1.363 . S
C806 C807 1.363 . S
C806 C811 1.379 . S
C806 N813 1.356 . S
C807 C806 1.363 . S
C807 C810 1.363 . S
N808 C810 1.356 . S
N808 H820 0.984 . S
N808 H821 0.985 . S
N809 C811 1.356 . S
N809 H814 0.984 . S
N809 H815 0.985 . S
C810 C804 1.379 . S
C810 C807 1.363 . S
C810 N808 1.356 . S
C811 C805 1.363 . S
C811 C806 1.379 . S
C811 N809 1.356 . S
N812 C804 1.356 . S
N812 H818 0.984 . S
N812 H819 0.984 . S
N813 C806 1.356 . S
N813 H816 0.984 . S
N813 H817 0.985 . S
H814 N809 0.984 . S
H815 N809 0.985 . S
H816 N813 0.984 . S
H817 N813 0.985 . S
H818 N812 0.984 . S
H819 N812 0.984 . S
H820 N808 0.984 . S
H821 N808 0.985 . S
C822 C823 1.363 . S
C822 C828 1.379 . S
C822 N830 1.356 . S
C823 C822 1.363 . S
C823 C829 1.363 . S
C824 C825 1.363 . S
C824 C829 1.379 . S
C824 N831 1.356 . S
C825 C824 1.363 . S
C825 C828 1.363 . S
N826 C828 1.356 . S
N826 H838 0.984 . S
N826 H839 0.985 . S
N827 C829 1.356 . S
N827 H832 0.984 . S
N827 H833 0.985 . S
C828 C822 1.379 . S
C828 C825 1.363 . S
C828 N826 1.356 . S
C829 C823 1.363 . S
C829 C824 1.379 . S
C829 N827 1.356 . S
N830 C822 1.356 . S
N830 H836 0.984 1_556 S
N830 H837 0.984 . S
N831 C824 1.356 . S
N831 H834 0.984 . S
N831 H835 0.985 . S
H832 N827 0.984 . S
H833 N827 0.985 . S
H834 N831 0.984 . S
H835 N831 0.985 . S
H836 N830 0.984 1_554 S
H837 N830 0.984 . S
H838 N826 0.984 . S
H839 N826 0.985 . S
C840 C841 1.363 1_554 S
C840 C846 1.379 . S
C840 N848 1.356 . S
C841 C840 1.363 1_556 S
C841 C847 1.363 . S
C842 C843 1.363 1_556 S
C842 C847 1.379 . S
C842 N849 1.356 . S
C843 C842 1.363 1_554 S
C843 C846 1.363 . S
N844 C846 1.356 . S
N844 H856 0.984 . S
N844 H857 0.985 . S
N845 C847 1.356 . S
N845 H850 0.984 . S
N845 H851 0.985 . S
C846 C840 1.379 . S
C846 C843 1.363 . S
C846 N844 1.356 . S
C847 C841 1.363 . S
C847 C842 1.379 . S
C847 N845 1.356 . S
N848 C840 1.356 . S
N848 H854 0.984 . S
N848 H855 0.984 1_554 S
N849 C842 1.356 . S
N849 H852 0.984 1_556 S
N849 H853 0.985 . S
H850 N845 0.984 . S
H851 N845 0.985 . S
H852 N849 0.984 1_554 S
H853 N849 0.985 . S
H854 N848 0.984 . S
H855 N848 0.984 1_556 S
H856 N844 0.984 . S
H857 N844 0.985 . S
C858 C859 1.363 . S
C858 C864 1.379 . S
C858 N866 1.356 . S
C859 C858 1.363 . S
C859 C865 1.363 . S
C860 C861 1.363 . S
C860 C865 1.379 . S
C860 N867 1.356 . S
C861 C860 1.363 . S
C861 C864 1.363 . S
N862 C864 1.356 . S
N862 H874 0.984 . S
N862 H875 0.985 . S
N863 C865 1.356 . S
N863 H868 0.984 . S
N863 H869 0.985 . S
C864 C858 1.379 . S
C864 C861 1.363 . S
C864 N862 1.356 . S
C865 C859 1.363 . S
C865 C860 1.379 . S
C865 N863 1.356 . S
N866 C858 1.356 . S
N866 H872 0.984 . S
N866 H873 0.984 . S
N867 C860 1.356 . S
N867 H870 0.984 . S
N867 H871 0.985 . S
H868 N863 0.984 . S
H869 N863 0.985 . S
H870 N867 0.984 . S
H871 N867 0.985 . S
H872 N866 0.984 . S
H873 N866 0.984 . S
H874 N862 0.984 . S
H875 N862 0.985 . S
C876 C877 1.363 . S
C876 C882 1.379 . S
C876 N884 1.356 . S
C877 C876 1.363 . S
C877 C883 1.363 . S
C878 C879 1.363 . S
C878 C883 1.379 . S
C878 N885 1.356 . S
C879 C878 1.363 . S
C879 C882 1.363 . S
N880 C882 1.356 . S
N880 H892 0.984 . S
N880 H893 0.985 . S
N881 C883 1.356 . S
N881 H886 0.984 . S
N881 H887 0.985 . S
C882 C876 1.379 . S
C882 C879 1.363 . S
C882 N880 1.356 . S
C883 C877 1.363 . S
C883 C878 1.379 . S
C883 N881 1.356 . S
N884 C876 1.356 . S
N884 H890 0.984 . S
N884 H891 0.984 . S
N885 C878 1.356 . S
N885 H888 0.984 . S
N885 H889 0.985 . S
H886 N881 0.984 . S
H887 N881 0.985 . S
H888 N885 0.984 . S
H889 N885 0.985 . S
H890 N884 0.984 . S
H891 N884 0.984 . S
H892 N880 0.984 . S
H893 N880 0.985 . S
C894 C895 1.363 1_556 S
C894 C900 1.379 . S
C894 N902 1.356 . S
C895 C894 1.363 1_554 S
C895 C901 1.363 . S
C896 C897 1.363 1_554 S
C896 C901 1.379 . S
C896 N903 1.356 . S
C897 C896 1.363 1_556 S
C897 C900 1.363 . S
N898 C900 1.356 . S
N898 H910 0.984 . S
N898 H911 0.985 . S
N899 C901 1.356 . S
N899 H904 0.984 . S
N899 H905 0.985 . S
C900 C894 1.379 . S
C900 C897 1.363 . S
C900 N898 1.356 . S
C901 C895 1.363 . S
C901 C896 1.379 . S
C901 N899 1.356 . S
N902 C894 1.356 . S
N902 H908 0.984 . S
N902 H909 0.984 1_556 S
N903 C896 1.356 . S
N903 H906 0.984 1_554 S
N903 H907 0.985 . S
H904 N899 0.984 . S
H905 N899 0.985 . S
H906 N903 0.984 1_556 S
H907 N903 0.985 . S
H908 N902 0.984 . S
H909 N902 0.984 1_554 S
H910 N898 0.984 . S
H911 N898 0.985 . S
C912 C913 1.363 . S
C912 C918 1.379 . S
C912 N920 1.356 . S
C913 C912 1.363 . S
C913 C919 1.363 . S
C914 C915 1.363 . S
C914 C919 1.379 . S
C914 N921 1.356 . S
C915 C914 1.363 . S
C915 C918 1.363 . S
N916 C918 1.356 . S
N916 H928 0.984 . S
N916 H929 0.985 . S
N917 C919 1.356 . S
N917 H922 0.984 . S
N917 H923 0.985 . S
C918 C912 1.379 . S
C918 C915 1.363 . S
C918 N916 1.356 . S
C919 C913 1.363 . S
C919 C914 1.379 . S
C919 N917 1.356 . S
N920 C912 1.356 . S
N920 H926 0.984 . S
N920 H927 0.984 . S
N921 C914 1.356 . S
N921 H924 0.984 . S
N921 H925 0.985 . S
H922 N917 0.984 . S
H923 N917 0.985 . S
H924 N921 0.984 . S
H925 N921 0.985 . S
H926 N920 0.984 . S
H927 N920 0.984 . S
H928 N916 0.984 . S
H929 N916 0.985 . S
C930 C931 1.363 . S
C930 C936 1.379 . S
C930 N938 1.356 . S
C931 C930 1.363 . S
C931 C937 1.363 . S
C932 C933 1.363 . S
C932 C937 1.379 . S
C932 N939 1.356 . S
C933 C932 1.363 . S
C933 C936 1.363 . S
N934 C936 1.356 . S
N934 H946 0.984 . S
N934 H947 0.985 . S
N935 C937 1.356 . S
N935 H940 0.984 . S
N935 H941 0.985 . S
C936 C930 1.379 . S
C936 C933 1.363 . S
C936 N934 1.356 . S
C937 C931 1.363 . S
C937 C932 1.379 . S
C937 N935 1.356 . S
N938 C930 1.356 . S
N938 H944 0.984 . S
N938 H945 0.984 . S
N939 C932 1.356 . S
N939 H942 0.984 . S
N939 H943 0.985 . S
H940 N935 0.984 . S
H941 N935 0.985 . S
H942 N939 0.984 . S
H943 N939 0.985 . S
H944 N938 0.984 . S
H945 N938 0.984 . S
H946 N934 0.984 . S
H947 N934 0.985 . S
C409 C2 1.482 . S
C411 C376 1.482 . S
C427 C36 1.482 . S
C429 C206 1.482 . S
C445 C240 1.482 . S
C447 C70 1.482 . S
C463 C274 1.482 . S
C465 C104 1.482 . S
C481 C308 1.482 . S
C483 C138 1.482 . S
C499 C342 1.482 . S
C501 C172 1.482 . S
C517 C9 1.339 . S
C519 C5 1.417 . S
C535 C39 1.417 . S
C537 C43 1.339 1_556 S
C553 C77 1.339 . S
C555 C73 1.417 . S
C571 C111 1.339 . S
C573 C107 1.417 . S
C589 C145 1.339 1_556 S
C591 C141 1.417 . S
C607 C175 1.417 . S
C609 C179 1.339 . S
C625 C213 1.339 1_554 S
C627 C209 1.417 . S
C643 C243 1.417 . S
C645 C247 1.339 . S
C661 C281 1.339 . S
C663 C277 1.417 . S
C679 C311 1.417 . S
C681 C315 1.339 1_554 S
C697 C345 1.417 . S
C699 C349 1.339 . S
C715 C383 1.339 . S
C717 C379 1.417 . S
C733 C33 1.475 . S
C735 C305 1.475 . S
C751 C67 1.475 . S
C753 C339 1.475 . S
C769 C101 1.475 . S
C771 C373 1.475 . S
C787 C407 1.475 . S
C789 C135 1.475 . S
C805 C237 1.475 . S
C807 C169 1.475 . S
C823 C271 1.475 . S
C825 C203 1.475 . S
C841 C360 1.534 . S
C843 C20 1.534 . S
C859 C394 1.534 . S
C861 C54 1.534 . S
C877 C224 1.534 . S
C879 C88 1.534 . S
C895 C122 1.534 . S
C897 C258 1.534 . S
C913 C156 1.534 . S
C915 C292 1.534 . S
C931 C190 1.534 . S
C933 C326 1.534 . S
