# Generated by pormake.
# Topology gis, (4)-cn, num edge types: 1
# Building blocks:
#     Node 0, Type 0, BuildingBlock: QUQFOY_clean_sbu_1, # of connection points: 4
#     Node 1, Type 0, BuildingBlock: QUQFOY_clean_sbu_1, # of connection points: 4
#     Node 2, Type 0, BuildingBlock: QUQFOY_clean_sbu_1, # of connection points: 4
#     Node 3, Type 0, BuildingBlock: QUQFOY_clean_sbu_1, # of connection points: 4
#     Node 4, Type 0, BuildingBlock: QUQFOY_clean_sbu_1, # of connection points: 4
#     Node 5, Type 0, BuildingBlock: QUQFOY_clean_sbu_1, # of connection points: 4
#     Node 6, Type 0, BuildingBlock: QUQFOY_clean_sbu_1, # of connection points: 4
#     Node 7, Type 0, BuildingBlock: QUQFOY_clean_sbu_1, # of connection points: 4
#     Node 8, Type 0, BuildingBlock: QUQFOY_clean_sbu_1, # of connection points: 4
#     Node 9, Type 0, BuildingBlock: QUQFOY_clean_sbu_1, # of connection points: 4
#     Node 10, Type 0, BuildingBlock: QUQFOY_clean_sbu_1, # of connection points: 4
#     Node 11, Type 0, BuildingBlock: QUQFOY_clean_sbu_1, # of connection points: 4
#     Node 12, Type 0, BuildingBlock: QUQFOY_clean_sbu_1, # of connection points: 4
#     Node 13, Type 0, BuildingBlock: QUQFOY_clean_sbu_1, # of connection points: 4
#     Node 14, Type 0, BuildingBlock: QUQFOY_clean_sbu_1, # of connection points: 4
#     Node 15, Type 0, BuildingBlock: QUQFOY_clean_sbu_1, # of connection points: 4
#     Edge 16, Type (0, 0), BuildingBlock: XUDNAN_clean_linker_2, # of connection points: 2
#     Edge 17, Type (0, 0), BuildingBlock: XUDNAN_clean_linker_2, # of connection points: 2
#     Edge 18, Type (0, 0), BuildingBlock: XUDNAN_clean_linker_2, # of connection points: 2
#     Edge 19, Type (0, 0), BuildingBlock: XUDNAN_clean_linker_2, # of connection points: 2
#     Edge 20, Type (0, 0), BuildingBlock: XUDNAN_clean_linker_2, # of connection points: 2
#     Edge 21, Type (0, 0), BuildingBlock: XUDNAN_clean_linker_2, # of connection points: 2
#     Edge 22, Type (0, 0), BuildingBlock: XUDNAN_clean_linker_2, # of connection points: 2
#     Edge 23, Type (0, 0), BuildingBlock: XUDNAN_clean_linker_2, # of connection points: 2
#     Edge 24, Type (0, 0), BuildingBlock: XUDNAN_clean_linker_2, # of connection points: 2
#     Edge 25, Type (0, 0), BuildingBlock: XUDNAN_clean_linker_2, # of connection points: 2
#     Edge 26, Type (0, 0), BuildingBlock: XUDNAN_clean_linker_2, # of connection points: 2
#     Edge 27, Type (0, 0), BuildingBlock: XUDNAN_clean_linker_2, # of connection points: 2
#     Edge 28, Type (0, 0), BuildingBlock: XUDNAN_clean_linker_2, # of connection points: 2
#     Edge 29, Type (0, 0), BuildingBlock: XUDNAN_clean_linker_2, # of connection points: 2
#     Edge 30, Type (0, 0), BuildingBlock: XUDNAN_clean_linker_2, # of connection points: 2
#     Edge 31, Type (0, 0), BuildingBlock: XUDNAN_clean_linker_2, # of connection points: 2
#     Edge 32, Type (0, 0), BuildingBlock: XUDNAN_clean_linker_2, # of connection points: 2
#     Edge 33, Type (0, 0), BuildingBlock: XUDNAN_clean_linker_2, # of connection points: 2
#     Edge 34, Type (0, 0), BuildingBlock: XUDNAN_clean_linker_2, # of connection points: 2
#     Edge 35, Type (0, 0), BuildingBlock: XUDNAN_clean_linker_2, # of connection points: 2
#     Edge 36, Type (0, 0), BuildingBlock: XUDNAN_clean_linker_2, # of connection points: 2
#     Edge 37, Type (0, 0), BuildingBlock: XUDNAN_clean_linker_2, # of connection points: 2
#     Edge 38, Type (0, 0), BuildingBlock: XUDNAN_clean_linker_2, # of connection points: 2
#     Edge 39, Type (0, 0), BuildingBlock: XUDNAN_clean_linker_2, # of connection points: 2
#     Edge 40, Type (0, 0), BuildingBlock: XUDNAN_clean_linker_2, # of connection points: 2
#     Edge 41, Type (0, 0), BuildingBlock: XUDNAN_clean_linker_2, # of connection points: 2
#     Edge 42, Type (0, 0), BuildingBlock: XUDNAN_clean_linker_2, # of connection points: 2
#     Edge 43, Type (0, 0), BuildingBlock: XUDNAN_clean_linker_2, # of connection points: 2
#     Edge 44, Type (0, 0), BuildingBlock: XUDNAN_clean_linker_2, # of connection points: 2
#     Edge 45, Type (0, 0), BuildingBlock: XUDNAN_clean_linker_2, # of connection points: 2
#     Edge 46, Type (0, 0), BuildingBlock: XUDNAN_clean_linker_2, # of connection points: 2
#     Edge 47, Type (0, 0), BuildingBlock: XUDNAN_clean_linker_2, # of connection points: 2
# Relax obj value: 0.009
# Max RMSD: 0.058
# Mean RMSD: 0.058
data_MOF--net-gis--node1-QUQFOY_clean_sbu_1--edge1-XUDNAN_clean_linker_2
_symmetry_space_group_name_H-M    P1
_symmetry_Int_Tables_number       1
_symmetry_cell_setting            triclinic
loop_
_symmetry_equiv_pos_as_xyz
'x, y, z'
_cell_length_a     53.545145
_cell_length_b     53.70892
_cell_length_c     42.025055
_cell_angle_alpha  90.050005
_cell_angle_beta   90.001485
_cell_angle_gamma 89.942488
loop_
_atom_site_label
_atom_site_type_symbol
_atom_site_fract_x
_atom_site_fract_y
_atom_site_fract_z
_atom_type_partial_charge
O0 O 0.16169 0.66359 0.15069 0.0
Cd1 Cd 0.15657 0.62755 0.16638 0.0
Cd2 Cd 0.14719 0.61976 0.104 0.0
O3 O 0.16008 0.65597 0.09927 0.0
O4 O 0.1749 0.62714 0.20771 0.0
O5 O 0.18565 0.60358 0.1666 0.0
C6 C 0.19009 0.6113 0.19516 0.0
C7 C 0.16164 0.58886 0.06935 0.0
C8 C 0.16343 0.67111 0.12214 0.0
C9 C 0.10424 0.61335 0.15026 0.0
O10 O 0.11132 0.6151 0.12143 0.0
O11 O 0.11991 0.61609 0.17281 0.0
O12 O 0.14707 0.60638 0.05965 0.0
O13 O 0.16852 0.58897 0.09881 0.0
O14 O 0.6646 0.86365 0.366 0.0
Cd15 Cd 0.65695 0.90068 0.35713 0.0
Cd16 Cd 0.64877 0.89865 0.42085 0.0
O17 O 0.66336 0.86292 0.41852 0.0
O18 O 0.66779 0.90543 0.31191 0.0
O19 O 0.68744 0.92264 0.35258 0.0
C20 C 0.6862 0.91847 0.32238 0.0
C21 C 0.66718 0.93254 0.44627 0.0
C22 C 0.6674 0.85202 0.39212 0.0
C23 C 0.60433 0.90986 0.38061 0.0
O24 O 0.61193 0.90303 0.40791 0.0
O25 O 0.61974 0.91212 0.35769 0.0
O26 O 0.65493 0.91603 0.46229 0.0
O27 O 0.67009 0.9289 0.41607 0.0
O28 O 0.35769 0.3608 0.6387 0.0
Cd29 Cd 0.3666 0.39692 0.65088 0.0
Cd30 Cd 0.37768 0.39672 0.58734 0.0
O31 O 0.3643 0.36043 0.58696 0.0
O32 O 0.35247 0.39755 0.69478 0.0
O33 O 0.3384 0.4218 0.65623 0.0
C34 C 0.33642 0.41368 0.68503 0.0
C35 C 0.3607 0.4283 0.556 0.0
C36 C 0.35747 0.3494 0.61222 0.0
C37 C 0.42028 0.40633 0.63228 0.0
O38 O 0.4136 0.40204 0.60374 0.0
O39 O 0.4042 0.40635 0.65465 0.0
O40 O 0.37451 0.41107 0.54372 0.0
O41 O 0.35582 0.42721 0.5861 0.0
O42 O 0.91011 0.11403 0.90503 0.0
Cd43 Cd 0.87332 0.12077 0.9165 0.0
Cd44 Cd 0.87077 0.12494 0.85129 0.0
O45 O 0.90821 0.11389 0.85243 0.0
O46 O 0.86893 0.10838 0.96093 0.0
O47 O 0.8516 0.09018 0.91909 0.0
C48 C 0.85584 0.09039 0.94935 0.0
C49 C 0.83994 0.10778 0.81875 0.0
C50 C 0.92059 0.11118 0.8781 0.0
C51 C 0.85808 0.17038 0.89127 0.0
O52 O 0.86218 0.16096 0.86405 0.0
O53 O 0.8606 0.15736 0.91631 0.0
O54 O 0.8565 0.12281 0.80748 0.0
O55 O 0.84195 0.10087 0.84808 0.0
O56 O 0.16249 0.35979 0.87051 0.0
Cd57 Cd 0.15589 0.39518 0.85317 0.0
Cd58 Cd 0.14744 0.40304 0.91553 0.0
O59 O 0.16124 0.36735 0.92201 0.0
O60 O 0.17177 0.39366 0.81022 0.0
O61 O 0.18427 0.41965 0.84786 0.0
C62 C 0.18721 0.41049 0.81969 0.0
C63 C 0.16349 0.43798 0.94143 0.0
C64 C 0.16469 0.35229 0.89905 0.0
C65 C 0.10341 0.40763 0.87095 0.0
O66 O 0.11105 0.40608 0.89956 0.0
O67 O 0.11877 0.40548 0.84796 0.0
O68 O 0.14976 0.42206 0.95635 0.0
O69 O 0.16903 0.43339 0.91205 0.0
O70 O 0.86457 0.85987 0.14678 0.0
Cd71 Cd 0.86928 0.89587 0.16325 0.0
Cd72 Cd 0.87813 0.90431 0.10059 0.0
O73 O 0.86561 0.86795 0.0953 0.0
O74 O 0.85116 0.89852 0.20503 0.0
O75 O 0.83945 0.91849 0.16154 0.0
C76 C 0.83536 0.91297 0.19097 0.0
C77 C 0.86061 0.93841 0.07403 0.0
C78 C 0.86268 0.85257 0.11806 0.0
C79 C 0.92135 0.91116 0.14575 0.0
O80 O 0.91423 0.90902 0.11699 0.0
O81 O 0.90576 0.90846 0.1684 0.0
O82 O 0.87506 0.92295 0.05933 0.0
O83 O 0.8553 0.93382 0.10342 0.0
O84 O 0.40989 0.61568 0.41256 0.0
Cd85 Cd 0.37244 0.62086 0.42127 0.0
Cd86 Cd 0.37254 0.62453 0.35622 0.0
O87 O 0.41002 0.61422 0.35996 0.0
O88 O 0.36473 0.60235 0.46151 0.0
O89 O 0.35119 0.59076 0.41398 0.0
C90 C 0.35335 0.58612 0.44403 0.0
C91 C 0.34414 0.60747 0.3201 0.0
C92 C 0.42148 0.61249 0.38644 0.0
C93 C 0.35715 0.66987 0.39588 0.0
O94 O 0.3626 0.66019 0.36917 0.0
O95 O 0.35874 0.65715 0.42134 0.0
O96 O 0.36084 0.62324 0.31107 0.0
O97 O 0.34473 0.59981 0.3492 0.0
O98 O 0.65687 0.16294 0.64843 0.0
Cd99 Cd 0.65108 0.12769 0.66628 0.0
Cd100 Cd 0.65005 0.1155 0.60316 0.0
O101 O 0.66106 0.15244 0.59802 0.0
O102 O 0.66791 0.1276 0.70871 0.0
O103 O 0.68021 0.10395 0.66834 0.0
C104 C 0.6837 0.11186 0.69706 0.0
C105 C 0.66746 0.08481 0.5702 0.0
C106 C 0.66139 0.16894 0.61977 0.0
C107 C 0.60252 0.10864 0.64285 0.0
O108 O 0.61344 0.10829 0.61594 0.0
O109 O 0.6143 0.11523 0.6678 0.0
O110 O 0.65297 0.10184 0.55905 0.0
O111 O 0.67291 0.08551 0.60011 0.0
O112 O 0.85667 0.36222 0.86992 0.0
Cd113 Cd 0.86608 0.3981 0.85729 0.0
Cd114 Cd 0.87773 0.39801 0.92107 0.0
O115 O 0.86338 0.36215 0.92164 0.0
O116 O 0.85183 0.3985 0.81346 0.0
O117 O 0.83822 0.42332 0.85173 0.0
C118 C 0.83606 0.41496 0.82305 0.0
C119 C 0.86288 0.42934 0.95448 0.0
C120 C 0.85626 0.35106 0.89652 0.0
C121 C 0.92002 0.40645 0.87513 0.0
O122 O 0.91348 0.40239 0.90377 0.0
O123 O 0.90379 0.40678 0.85295 0.0
O124 O 0.87642 0.41136 0.96534 0.0
O125 O 0.85705 0.4292 0.92463 0.0
O126 O 0.36282 0.15997 0.6511 0.0
Cd127 Cd 0.37018 0.12415 0.66586 0.0
Cd128 Cd 0.37452 0.11802 0.60031 0.0
O129 O 0.36229 0.15488 0.59881 0.0
O130 O 0.35279 0.11989 0.70802 0.0
O131 O 0.34075 0.10124 0.6637 0.0
C132 C 0.33663 0.10623 0.6933 0.0
C133 C 0.35597 0.08461 0.57338 0.0
C134 C 0.3595 0.16865 0.62326 0.0
C135 C 0.42043 0.10868 0.64143 0.0
O136 O 0.41082 0.11109 0.61392 0.0
O137 O 0.40735 0.1121 0.6664 0.0
O138 O 0.36969 0.10051 0.55839 0.0
O139 O 0.35144 0.08876 0.6031 0.0
O140 O 0.66059 0.661 0.36249 0.0
Cd141 Cd 0.65238 0.6244 0.35239 0.0
Cd142 Cd 0.65334 0.62208 0.41724 0.0
O143 O 0.66667 0.65838 0.41446 0.0
O144 O 0.66257 0.6189 0.30703 0.0
O145 O 0.68276 0.60259 0.348 0.0
C146 C 0.6813 0.60631 0.31771 0.0
C147 C 0.67301 0.58846 0.44188 0.0
C148 C 0.66688 0.67095 0.38878 0.0
C149 C 0.60418 0.61187 0.38468 0.0
O150 O 0.61578 0.61646 0.41041 0.0
O151 O 0.61554 0.61256 0.35807 0.0
O152 O 0.6619 0.60541 0.45851 0.0
O153 O 0.6746 0.59178 0.41149 0.0
O154 O 0.11219 0.9105 0.11893 0.0
Cd155 Cd 0.14855 0.90523 0.10348 0.0
Cd156 Cd 0.15637 0.89761 0.16618 0.0
O157 O 0.11987 0.91016 0.17052 0.0
O158 O 0.14997 0.91775 0.05874 0.0
O159 O 0.17035 0.93567 0.0984 0.0
C160 C 0.16446 0.93526 0.06861 0.0
C161 C 0.19012 0.91551 0.19305 0.0
C162 C 0.10462 0.91278 0.1475 0.0
C163 C 0.16373 0.8536 0.1234 0.0
O164 O 0.16125 0.86108 0.15193 0.0
O165 O 0.16121 0.86882 0.10044 0.0
O166 O 0.17422 0.90158 0.20772 0.0
O167 O 0.18616 0.92021 0.1633 0.0
O168 O 0.86402 0.66309 0.14869 0.0
Cd169 Cd 0.86855 0.6273 0.16586 0.0
Cd170 Cd 0.87809 0.61814 0.10364 0.0
O171 O 0.86494 0.65422 0.0974 0.0
O172 O 0.84935 0.62485 0.20688 0.0
O173 O 0.83881 0.6047 0.16301 0.0
C174 C 0.83389 0.61043 0.19218 0.0
C175 C 0.86214 0.58314 0.07738 0.0
C176 C 0.86204 0.66995 0.11982 0.0
C177 C 0.92094 0.61254 0.14973 0.0
O178 O 0.91403 0.61445 0.12086 0.0
O179 O 0.90509 0.61503 0.17213 0.0
O180 O 0.8762 0.59889 0.06265 0.0
O181 O 0.85618 0.588 0.1065 0.0
O182 O 0.1572 0.16387 0.86522 0.0
Cd183 Cd 0.15101 0.12824 0.84856 0.0
Cd184 Cd 0.15204 0.11703 0.91137 0.0
O185 O 0.16394 0.15371 0.91541 0.0
O186 O 0.16398 0.12557 0.80398 0.0
O187 O 0.18173 0.10673 0.84508 0.0
C188 C 0.18186 0.11198 0.81508 0.0
C189 C 0.17094 0.08376 0.93807 0.0
C190 C 0.16318 0.17004 0.89346 0.0
C191 C 0.1031 0.11001 0.87608 0.0
O192 O 0.11471 0.1108 0.90245 0.0
O193 O 0.11437 0.11516 0.85025 0.0
O194 O 0.15797 0.10019 0.95319 0.0
O195 O 0.1746 0.08716 0.908 0.0
O196 O 0.61151 0.40725 0.60775 0.0
Cd197 Cd 0.64803 0.40259 0.5926 0.0
Cd198 Cd 0.6556 0.39539 0.6553 0.0
O199 O 0.6187 0.40662 0.65948 0.0
O200 O 0.65052 0.41719 0.54903 0.0
O201 O 0.66996 0.43315 0.59083 0.0
C202 C 0.66472 0.43421 0.56085 0.0
C203 C 0.68708 0.4112 0.68809 0.0
C204 C 0.60363 0.40911 0.63624 0.0
C205 C 0.66368 0.35138 0.61156 0.0
O206 O 0.66151 0.35933 0.6399 0.0
O207 O 0.66073 0.36622 0.5883 0.0
O208 O 0.6712 0.3951 0.69839 0.0
O209 O 0.68449 0.4194 0.65939 0.0
O210 O 0.36016 0.86228 0.36768 0.0
Cd211 Cd 0.36799 0.89932 0.35889 0.0
Cd212 Cd 0.37651 0.89813 0.42259 0.0
O213 O 0.36223 0.86226 0.42013 0.0
O214 O 0.35701 0.90441 0.31386 0.0
O215 O 0.33781 0.92182 0.35479 0.0
C216 C 0.33891 0.91782 0.32452 0.0
C217 C 0.35933 0.92961 0.45398 0.0
C218 C 0.35783 0.85099 0.39411 0.0
C219 C 0.42075 0.90899 0.38197 0.0
O220 O 0.41332 0.90274 0.40957 0.0
O221 O 0.40523 0.91057 0.35908 0.0
O222 O 0.37169 0.91146 0.46654 0.0
O223 O 0.35584 0.92944 0.42354 0.0
H224 H 0.16637 0.81522 0.16645 0.0
H225 H 0.17033 0.8311 0.06529 0.0
H226 H 0.17401 0.78611 0.05406 0.0
H227 H 0.20987 0.76206 0.16618 0.0
H228 H 0.19198 0.74526 0.19545 0.0
H229 H 0.19203 0.77882 0.19562 0.0
H230 H 0.14369 0.77897 0.19221 0.0
H231 H 0.1435 0.74548 0.19195 0.0
H232 H 0.12851 0.76245 0.16026 0.0
H233 H 0.17377 0.73906 0.05364 0.0
H234 H 0.16987 0.69396 0.06418 0.0
H235 H 0.16631 0.70913 0.16559 0.0
C236 C 0.16844 0.80933 0.14195 0.0
C237 C 0.16813 0.82678 0.11677 0.0
C238 C 0.1706 0.81815 0.08502 0.0
C239 C 0.17273 0.79261 0.07839 0.0
C240 C 0.17252 0.7759 0.10374 0.0
C241 C 0.17058 0.78393 0.1349 0.0
C242 C 0.16944 0.76216 0.15773 0.0
C243 C 0.19219 0.76207 0.18006 0.0
C244 C 0.14482 0.76228 0.17664 0.0
C245 C 0.17046 0.74061 0.13451 0.0
C246 C 0.17244 0.74888 0.1035 0.0
C247 C 0.17251 0.73237 0.07786 0.0
C248 C 0.17025 0.70677 0.08409 0.0
C249 C 0.16789 0.69792 0.11572 0.0
C250 C 0.16833 0.71518 0.14116 0.0
H251 H 0.45949 0.90371 0.42433 0.0
H252 H 0.44333 0.92368 0.32636 0.0
H253 H 0.48849 0.92846 0.31604 0.0
H254 H 0.51253 0.94571 0.43517 0.0
H255 H 0.52955 0.92367 0.45917 0.0
H256 H 0.4959 0.9235 0.45932 0.0
H257 H 0.49608 0.87689 0.44333 0.0
H258 H 0.52969 0.87692 0.44308 0.0
H259 H 0.51275 0.86725 0.40813 0.0
H260 H 0.53576 0.92878 0.3157 0.0
H261 H 0.58108 0.92446 0.32535 0.0
H262 H 0.56604 0.90423 0.42351 0.0
C263 C 0.46536 0.9094 0.40078 0.0
C264 C 0.44776 0.91339 0.37618 0.0
C265 C 0.45638 0.92058 0.34564 0.0
C266 C 0.48202 0.92337 0.33954 0.0
C267 C 0.49885 0.91899 0.36424 0.0
C268 C 0.49085 0.91224 0.39427 0.0
C269 C 0.51273 0.9076 0.41634 0.0
C270 C 0.51267 0.92624 0.44414 0.0
C271 C 0.51281 0.88056 0.42841 0.0
C272 C 0.53433 0.91241 0.39391 0.0
C273 C 0.52596 0.91912 0.36402 0.0
C274 C 0.54251 0.92372 0.33909 0.0
C275 C 0.56824 0.92121 0.34481 0.0
C276 C 0.57722 0.91407 0.37521 0.0
C277 C 0.55989 0.90987 0.40005 0.0
H278 H 0.37477 0.31128 0.57384 0.0
H279 H 0.32373 0.32768 0.65126 0.0
H280 H 0.31481 0.28299 0.65727 0.0
H281 H 0.33992 0.2557 0.54146 0.0
H282 H 0.3684 0.23905 0.53303 0.0
H283 H 0.3678 0.27258 0.53092 0.0
H284 H 0.40457 0.27473 0.57083 0.0
H285 H 0.4052 0.2413 0.57323 0.0
H286 H 0.4017 0.25959 0.60894 0.0
H287 H 0.31591 0.2374 0.66072 0.0
H288 H 0.32621 0.19268 0.66047 0.0
H289 H 0.37603 0.204 0.58044 0.0
C290 C 0.3611 0.30543 0.59128 0.0
C291 C 0.34974 0.32294 0.6119 0.0
C292 C 0.33256 0.31459 0.63516 0.0
C293 C 0.32729 0.28924 0.63868 0.0
C294 C 0.33934 0.27236 0.61876 0.0
C295 C 0.35577 0.27999 0.59533 0.0
C296 C 0.36798 0.25765 0.57937 0.0
C297 C 0.36058 0.25616 0.5441 0.0
C298 C 0.39655 0.25837 0.58335 0.0
C299 C 0.3565 0.23644 0.59828 0.0
C300 C 0.33983 0.24548 0.62062 0.0
C301 C 0.32848 0.23 0.64289 0.0
C302 C 0.33452 0.20466 0.64266 0.0
C303 C 0.35162 0.19491 0.6202 0.0
C304 C 0.3624 0.21092 0.59731 0.0
H305 H 0.06563 0.12533 0.83502 0.0
H306 H 0.07984 0.08015 0.91867 0.0
H307 H 0.03484 0.07195 0.92395 0.0
H308 H 1.01219 0.15454 0.86493 0.0
H309 H 0.99511 0.15534 0.82798 0.0
H310 H 0.02871 0.15499 0.82755 0.0
H311 H 0.02825 0.11576 0.7917 0.0
H312 H 0.99458 0.11604 0.79194 0.0
H313 H 1.01126 0.08855 0.80437 0.0
H314 H 0.98899 0.07236 0.9245 0.0
H315 H 0.94402 0.08122 0.92017 0.0
H316 H 0.95761 0.12595 0.83602 0.0
C317 C 0.05925 0.11318 0.85388 0.0
C318 C 0.07627 0.10321 0.87632 0.0
C319 C 0.06717 0.08795 0.90121 0.0
C320 C 0.04163 0.08309 0.90433 0.0
C321 C 0.02527 0.09363 0.88241 0.0
C322 C 0.03358 0.1083 0.85757 0.0
C323 C 1.01162 0.11903 0.83911 0.0
C324 C 1.01193 0.14767 0.83996 0.0
C325 C 1.01142 0.10926 0.80474 0.0
C326 C 0.98979 0.10864 0.85805 0.0
C327 C 0.99826 0.09384 0.88271 0.0
C328 C 0.98208 0.08356 0.90501 0.0
C329 C 0.95657 0.08878 0.90241 0.0
C330 C 0.94732 0.10407 0.87763 0.0
C331 C 0.96413 0.11376 0.85478 0.0
H332 H 0.16736 0.31482 0.85507 0.0
H333 H 0.17172 0.32878 0.95668 0.0
H334 H 0.17539 0.28346 0.96628 0.0
H335 H 0.12892 0.26276 0.85987 0.0
H336 H 0.14335 0.2463 0.82729 0.0
H337 H 0.14405 0.27977 0.82833 0.0
H338 H 0.19235 0.27902 0.82419 0.0
H339 H 0.1918 0.24548 0.82299 0.0
H340 H 0.21022 0.26131 0.85265 0.0
H341 H 0.17536 0.2361 0.96469 0.0
H342 H 0.17091 0.19132 0.95223 0.0
H343 H 0.16577 0.20913 0.85169 0.0
C344 C 0.16958 0.30849 0.87936 0.0
C345 C 0.1694 0.32545 0.90512 0.0
C346 C 0.17195 0.3162 0.93653 0.0
C347 C 0.17407 0.29048 0.94221 0.0
C348 C 0.17367 0.27427 0.91624 0.0
C349 C 0.17157 0.28298 0.88543 0.0
C350 C 0.16988 0.2618 0.86174 0.0
C351 C 0.14508 0.26272 0.84324 0.0
C352 C 0.19241 0.26191 0.83906 0.0
C353 C 0.17079 0.23973 0.88404 0.0
C354 C 0.17329 0.24722 0.91535 0.0
C355 C 0.17363 0.23005 0.94022 0.0
C356 C 0.17109 0.20463 0.93289 0.0
C357 C 0.168 0.19663 0.90097 0.0
C358 C 0.16818 0.21453 0.87634 0.0
H359 H 0.96002 0.91416 0.10308 0.0
H360 H 0.94372 0.91726 0.2042 0.0
H361 H 0.98883 0.92121 0.21563 0.0
H362 H 0.01347 0.87675 0.10907 0.0
H363 H 0.03028 0.89205 0.07751 0.0
H364 H 0.99669 0.89182 0.07725 0.0
H365 H 0.99614 0.94001 0.07422 0.0
H366 H 0.02979 0.9404 0.07441 0.0
H367 H 0.01265 0.95789 0.10382 0.0
H368 H 0.03619 0.9218 0.21604 0.0
H369 H 0.08149 0.91876 0.20545 0.0
H370 H 0.06641 0.91524 0.10403 0.0
C371 C 0.96582 0.91606 0.12764 0.0
C372 C 0.94821 0.91549 0.15274 0.0
C373 C 0.95677 0.91773 0.18454 0.0
C374 C 0.98238 0.92002 0.19127 0.0
C375 C 0.99923 0.92013 0.16595 0.0
C376 C 0.99126 0.9183 0.13477 0.0
C377 C 0.01315 0.91755 0.11194 0.0
C378 C 0.0134 0.89309 0.09283 0.0
C379 C 0.01291 0.94032 0.08979 0.0
C380 C 0.03473 0.91874 0.13516 0.0
C381 C 0.02637 0.92042 0.1662 0.0
C382 C 0.04293 0.92072 0.1918 0.0
C383 C 0.06866 0.91898 0.18554 0.0
C384 C 0.07762 0.91685 0.1539 0.0
C385 C 0.06029 0.91707 0.12848 0.0
H386 H 0.36954 0.70685 0.4388 0.0
H387 H 0.3277 0.69237 0.35241 0.0
H388 H 0.31901 0.73717 0.34676 0.0
H389 H 0.33111 0.76156 0.46702 0.0
H390 H 0.3583 0.77803 0.481 0.0
H391 H 0.35772 0.74446 0.48163 0.0
H392 H 0.39845 0.74338 0.44843 0.0
H393 H 0.39906 0.77686 0.4475 0.0
H394 H 0.39956 0.75945 0.41081 0.0
H395 H 0.31979 0.78295 0.34565 0.0
H396 H 0.3292 0.82772 0.34988 0.0
H397 H 0.37045 0.81418 0.43706 0.0
C398 C 0.35781 0.71314 0.41941 0.0
C399 C 0.34899 0.69617 0.39624 0.0
C400 C 0.33447 0.70507 0.3705 0.0
C401 C 0.32938 0.73048 0.36713 0.0
C402 C 0.33898 0.74687 0.38968 0.0
C403 C 0.35277 0.73867 0.41547 0.0
C404 C 0.36298 0.7606 0.43429 0.0
C405 C 0.35186 0.76119 0.46799 0.0
C406 C 0.39171 0.76003 0.4353 0.0
C407 C 0.35347 0.78225 0.41442 0.0
C408 C 0.33944 0.7738 0.38901 0.0
C409 C 0.33032 0.78988 0.36577 0.0
C410 C 0.33587 0.81527 0.36829 0.0
C411 C 0.35034 0.82445 0.39392 0.0
C412 C 0.35888 0.80774 0.41759 0.0
H413 H 0.5652 0.12678 0.68224 0.0
H414 H 0.57948 0.0748 0.60525 0.0
H415 H 0.53456 0.06557 0.60175 0.0
H416 H 0.51119 0.09228 0.71844 0.0
H417 H 0.49434 0.12057 0.72704 0.0
H418 H 0.52802 0.12054 0.72713 0.0
H419 H 0.52809 0.15641 0.68601 0.0
H420 H 0.49449 0.1565 0.68571 0.0
H421 H 0.51148 0.15259 0.64901 0.0
H422 H 0.48871 0.06565 0.60134 0.0
H423 H 0.44373 0.07496 0.60421 0.0
H424 H 0.45721 0.12662 0.68168 0.0
C425 C 0.55885 0.11292 0.66535 0.0
C426 C 0.57586 0.10132 0.64418 0.0
C427 C 0.56681 0.08385 0.62172 0.0
C428 C 0.54133 0.0784 0.61964 0.0
C429 C 0.52496 0.09057 0.64016 0.0
C430 C 0.53323 0.10742 0.66269 0.0
C431 C 0.51123 0.11954 0.67964 0.0
C432 C 0.5112 0.11283 0.71518 0.0
C433 C 0.51134 0.14794 0.67479 0.0
C434 C 0.48943 0.10741 0.6624 0.0
C435 C 0.49793 0.09056 0.63998 0.0
C436 C 0.48177 0.07842 0.6192 0.0
C437 C 0.45625 0.08389 0.62094 0.0
C438 C 0.447 0.10123 0.64341 0.0
C439 C 0.46376 0.1128 0.66485 0.0
H440 H 0.87281 0.20649 0.93397 0.0
H441 H 0.82619 0.19357 0.85123 0.0
H442 H 0.81591 0.23828 0.84904 0.0
H443 H 0.83532 0.2591 0.96908 0.0
H444 H 0.86294 0.2759 0.98089 0.0
H445 H 0.86327 0.24233 0.97975 0.0
H446 H 0.90153 0.24339 0.94209 0.0
H447 H 0.90129 0.27687 0.94306 0.0
H448 H 0.89967 0.26076 0.90547 0.0
H449 H 0.81475 0.28397 0.8511 0.0
H450 H 0.82375 0.32872 0.85618 0.0
H451 H 0.87179 0.31367 0.93709 0.0
C452 C 0.85982 0.21307 0.9161 0.0
C453 C 0.84998 0.19663 0.893 0.0
C454 C 0.83377 0.2059 0.86922 0.0
C455 C 0.82773 0.23123 0.86789 0.0
C456 C 0.83818 0.24713 0.89042 0.0
C457 C 0.8539 0.23853 0.91411 0.0
C458 C 0.86483 0.2601 0.93294 0.0
C459 C 0.85606 0.2593 0.96773 0.0
C460 C 0.89353 0.26028 0.93074 0.0
C461 C 0.85344 0.28208 0.91541 0.0
C462 C 0.8378 0.27404 0.89134 0.0
C463 C 0.8266 0.29055 0.87018 0.0
C464 C 0.83191 0.31594 0.8732 0.0
C465 C 0.8483 0.32468 0.89717 0.0
C466 C 0.85874 0.30756 0.91902 0.0
H467 H 0.65645 0.70733 0.43321 0.0
H468 H 0.69352 0.69417 0.34298 0.0
H469 H 0.70246 0.73899 0.33816 0.0
H470 H 0.62562 0.76102 0.40921 0.0
H471 H 0.62808 0.77749 0.44647 0.0
H472 H 0.62824 0.744 0.44602 0.0
H473 H 0.67044 0.74372 0.47615 0.0
H474 H 0.67036 0.77729 0.4768 0.0
H475 H 0.6966 0.76072 0.46018 0.0
H476 H 0.70291 0.78471 0.33924 0.0
H477 H 0.69436 0.82946 0.34571 0.0
H478 H 0.65646 0.8146 0.43499 0.0
C479 C 0.66712 0.7139 0.41301 0.0
C480 C 0.67458 0.69733 0.38861 0.0
C481 C 0.68776 0.70659 0.36196 0.0
C482 C 0.69303 0.73198 0.35909 0.0
C483 C 0.68488 0.74798 0.38302 0.0
C484 C 0.67223 0.73942 0.40952 0.0
C485 C 0.66324 0.76103 0.42991 0.0
C486 C 0.6346 0.76087 0.43307 0.0
C487 C 0.67592 0.76066 0.46271 0.0
C488 C 0.67215 0.78297 0.41016 0.0
C489 C 0.6849 0.77489 0.38347 0.0
C490 C 0.69333 0.79133 0.36029 0.0
C491 C 0.68828 0.81671 0.36412 0.0
C492 C 0.6749 0.82551 0.39093 0.0
C493 C 0.66718 0.80844 0.41459 0.0
H494 H 0.85777 0.70859 0.16217 0.0
H495 H 0.85779 0.69215 0.061 0.0
H496 H 0.85472 0.73716 0.04931 0.0
H497 H 0.81462 0.76178 0.15902 0.0
H498 H 0.83144 0.77857 0.18935 0.0
H499 H 0.83126 0.74502 0.18955 0.0
H500 H 0.87966 0.7447 0.18916 0.0
H501 H 0.88 0.77819 0.18886 0.0
H502 H 0.89612 0.76108 0.15817 0.0
H503 H 0.85494 0.78449 0.04886 0.0
H504 H 0.85839 0.82962 0.05969 0.0
H505 H 0.85825 0.81451 0.16117 0.0
C506 C 0.85671 0.71434 0.13752 0.0
C507 C 0.85793 0.69672 0.11251 0.0
C508 C 0.85677 0.70521 0.08061 0.0
C509 C 0.85501 0.73077 0.07372 0.0
C510 C 0.8543 0.74763 0.09898 0.0
C511 C 0.85498 0.7397 0.13025 0.0
C512 C 0.85533 0.76152 0.15309 0.0
C513 C 0.83176 0.76173 0.17398 0.0
C514 C 0.8792 0.76135 0.17351 0.0
C515 C 0.85528 0.78301 0.12983 0.0
C516 C 0.85447 0.77469 0.09872 0.0
C517 C 0.85532 0.7912 0.07314 0.0
C518 C 0.85729 0.81683 0.07954 0.0
C519 C 0.85851 0.82572 0.11129 0.0
C520 C 0.85717 0.80845 0.13662 0.0
H521 H 0.66618 0.31426 0.65612 0.0
H522 H 0.6698 0.32716 0.55427 0.0
H523 H 0.67282 0.28174 0.54521 0.0
H524 H 0.70867 0.26052 0.65845 0.0
H525 H 0.69053 0.24503 0.68864 0.0
H526 H 0.69118 0.27855 0.68701 0.0
H527 H 0.64285 0.27945 0.68372 0.0
H528 H 0.64204 0.24599 0.68521 0.0
H529 H 0.6273 0.26221 0.65269 0.0
H530 H 0.67232 0.2344 0.54737 0.0
H531 H 0.66806 0.18972 0.5605 0.0
H532 H 0.66431 0.20849 0.66089 0.0
C533 C 0.66806 0.30766 0.63189 0.0
C534 C 0.66787 0.32438 0.60591 0.0
C535 C 0.67002 0.31478 0.57459 0.0
C536 C 0.67177 0.28899 0.56921 0.0
C537 C 0.67142 0.27303 0.59539 0.0
C538 C 0.66972 0.28205 0.62612 0.0
C539 C 0.66823 0.26108 0.65009 0.0
C540 C 0.69101 0.26132 0.67236 0.0
C541 C 0.64364 0.26226 0.66903 0.0
C542 C 0.66881 0.23879 0.62805 0.0
C543 C 0.67091 0.24599 0.5966 0.0
C544 C 0.6709 0.22858 0.57195 0.0
C545 C 0.66846 0.20322 0.57965 0.0
C546 C 0.66588 0.1955 0.61174 0.0
C547 C 0.66636 0.21366 0.63613 0.0
H548 H 0.06543 0.40883 0.91461 0.0
H549 H 0.07986 0.41295 0.81309 0.0
H550 H 0.03442 0.41552 0.80299 0.0
H551 H 0.01282 0.36985 0.90963 0.0
H552 H 0.99629 0.38458 0.94193 0.0
H553 H 0.02988 0.38503 0.94114 0.0
H554 H 0.02942 0.43321 0.94487 0.0
H555 H 0.99578 0.43291 0.94575 0.0
H556 H 1.01194 0.45095 0.91606 0.0
H557 H 0.98692 0.41547 0.80411 0.0
H558 H 0.94185 0.41233 0.81629 0.0
H559 H 0.95923 0.40787 0.91705 0.0
C560 C 0.05915 0.4106 0.89023 0.0
C561 C 0.0763 0.41078 0.86465 0.0
C562 C 0.06713 0.41285 0.83311 0.0
C563 C 0.04134 0.41435 0.82714 0.0
C564 C 0.02496 0.4138 0.85294 0.0
C565 C 0.03355 0.41203 0.88386 0.0
C566 C 1.01218 0.41067 0.90736 0.0
C567 C 0.01284 0.38607 0.9261 0.0
C568 C 0.01234 0.43329 0.92983 0.0
C569 C 0.99015 0.41158 0.88484 0.0
C570 C 0.99784 0.41358 0.85356 0.0
C571 C 0.98072 0.41407 0.82855 0.0
C572 C 0.95514 0.41227 0.83571 0.0
C573 C 0.94691 0.40987 0.86763 0.0
C574 C 0.96479 0.40976 0.89239 0.0
H575 H 0.56668 0.6223 0.34133 0.0
H576 H 0.58101 0.58802 0.43301 0.0
H577 H 0.536 0.58076 0.44013 0.0
H578 H 0.51327 0.65506 0.36544 0.0
H579 H 0.49612 0.65138 0.32883 0.0
H580 H 0.52973 0.65098 0.32837 0.0
H581 H 0.52923 0.60789 0.3007 0.0
H582 H 0.49556 0.60819 0.30097 0.0
H583 H 0.51227 0.58254 0.31865 0.0
H584 H 0.49022 0.58091 0.44051 0.0
H585 H 0.44522 0.58852 0.43429 0.0
H586 H 0.45866 0.62296 0.34244 0.0
C587 C 0.5603 0.6127 0.36246 0.0
C588 C 0.57734 0.60554 0.38655 0.0
C589 C 0.5683 0.59364 0.41429 0.0
C590 C 0.54276 0.58933 0.41849 0.0
C591 C 0.52639 0.59709 0.39478 0.0
C592 C 0.53465 0.60849 0.36725 0.0
C593 C 0.51267 0.61686 0.34694 0.0
C594 C 0.51297 0.64525 0.34213 0.0
C595 C 0.51242 0.60304 0.31491 0.0
C596 C 0.4909 0.60889 0.36779 0.0
C597 C 0.49941 0.59731 0.39508 0.0
C598 C 0.48327 0.58964 0.41907 0.0
C599 C 0.45773 0.59417 0.41536 0.0
C600 C 0.44841 0.60624 0.38785 0.0
C601 C 0.46522 0.61332 0.36347 0.0
H602 H 0.56572 0.4098 0.59233 0.0
H603 H 0.58 0.41578 0.69375 0.0
H604 H 0.53457 0.4184 0.70371 0.0
H605 H 0.51162 0.45161 0.58982 0.0
H606 H 0.49566 0.43287 0.56061 0.0
H607 H 0.5293 0.4336 0.56144 0.0
H608 H 0.53034 0.38551 0.56637 0.0
H609 H 0.49675 0.38463 0.56567 0.0
H610 H 0.51352 0.37066 0.5983 0.0
H611 H 0.4872 0.41774 0.70269 0.0
H612 H 0.44218 0.41363 0.69079 0.0
H613 H 0.45938 0.40769 0.59009 0.0
C614 C 0.55939 0.41206 0.61664 0.0
C615 C 0.57652 0.4127 0.64225 0.0
C616 C 0.5673 0.41534 0.6737 0.0
C617 C 0.54151 0.41687 0.6796 0.0
C618 C 0.52515 0.41578 0.65382 0.0
C619 C 0.53377 0.41352 0.62295 0.0
C620 C 0.51237 0.41149 0.59953 0.0
C621 C 0.51223 0.43372 0.5765 0.0
C622 C 0.51331 0.38659 0.58142 0.0
C623 C 0.49033 0.41252 0.62206 0.0
C624 C 0.49804 0.41521 0.65325 0.0
C625 C 0.48097 0.41583 0.67832 0.0
C626 C 0.45541 0.41347 0.67131 0.0
C627 C 0.44714 0.41037 0.6395 0.0
C628 C 0.46497 0.41014 0.61466 0.0
H629 H 0.06579 0.60886 0.10756 0.0
H630 H 0.08152 0.60974 0.2089 0.0
H631 H 0.03628 0.60662 0.22013 0.0
H632 H 0.01264 0.64684 0.11055 0.0
H633 H 0.99594 0.63037 0.07982 0.0
H634 H 0.02954 0.63038 0.07995 0.0
H635 H 0.02979 0.58212 0.08007 0.0
H636 H 0.99614 0.58195 0.07986 0.0
H637 H 0.01295 0.56559 0.11058 0.0
H638 H 0.98872 0.60637 0.22001 0.0
H639 H 0.94348 0.60908 0.20853 0.0
H640 H 0.95959 0.60836 0.10728 0.0
C641 C 0.05984 0.60803 0.13217 0.0
C642 C 0.07732 0.60947 0.15734 0.0
C643 C 0.06856 0.60856 0.18917 0.0
C644 C 0.04288 0.60677 0.19579 0.0
C645 C 0.02617 0.60578 0.17035 0.0
C646 C 0.03436 0.60627 0.13917 0.0
C647 C 0.01266 0.60621 0.11607 0.0
C648 C 0.01271 0.62986 0.09539 0.0
C649 C 0.01291 0.58256 0.09543 0.0
C650 C 0.99092 0.60612 0.13907 0.0
C651 C 0.99901 0.60568 0.17029 0.0
C652 C 0.9822 0.60648 0.19564 0.0
C653 C 0.95651 0.60803 0.18887 0.0
C654 C 0.94787 0.60886 0.157 0.0
C655 C 0.96545 0.60759 0.13192 0.0
H656 H 0.16147 0.53877 0.08051 0.0
H657 H 0.17693 0.59398 1.00809 0.0
H658 H 0.18491 0.56046 0.96895 0.0
H659 H 0.20515 0.48928 0.05212 0.0
H660 H 0.18313 0.46482 0.06068 0.0
H661 H 0.18323 0.49282 0.08438 0.0
H662 H 0.13632 0.49954 0.07188 0.0
H663 H 0.13609 0.47167 0.04815 0.0
H664 H 0.1262 0.50081 0.031 0.0
H665 H 0.18788 0.52126 0.93676 0.0
H666 H 0.18162 0.47984 0.91255 0.0
H667 H 0.16085 0.45015 1.00483 0.0
C668 C 0.16735 0.54367 0.05666 0.0
C669 C 0.1692 0.56884 0.04734 0.0
C670 C 0.17582 0.57474 0.01566 0.0
C671 C 0.18046 0.55584 0.99336 0.0
C672 C 0.178 0.53114 1.00303 0.0
C673 C 0.17138 0.525 0.03387 0.0
C674 C 0.16676 0.49726 0.03704 0.0
C675 C 0.1857 0.48534 0.05991 0.0
C676 C 0.13974 0.49203 0.04763 0.0
C677 C 0.17122 0.48887 1.00305 0.0
C678 C 0.17828 0.5086 0.984 0.0
C679 C 0.18256 0.50563 0.9515 0.0
C680 C 0.17899 0.482 0.93795 0.0
C681 C 0.17076 0.46175 0.95677 0.0
C682 C 0.16727 0.46523 0.98984 0.0
H683 H 0.73633 0.91488 0.33244 0.0
H684 H 0.68129 0.93694 0.26238 0.0
H685 H 0.71491 0.94353 0.22285 0.0
H686 H 0.78911 0.95514 0.30481 0.0
H687 H 0.81177 0.93091 0.31173 0.0
H688 H 0.78416 0.93281 0.33618 0.0
H689 H 0.7733 0.88716 0.32183 0.0
H690 H 0.80071 0.88516 0.29725 0.0
H691 H 0.77046 0.87837 0.28058 0.0
H692 H 0.75386 0.94391 0.18969 0.0
H693 H 0.79436 0.93489 0.1641 0.0
H694 H 0.82375 0.9092 0.25456 0.0
C695 C 0.73155 0.92203 0.30912 0.0
C696 C 0.70637 0.9261 0.30057 0.0
C697 C 0.70056 0.93421 0.26944 0.0
C698 C 0.71953 0.93802 0.24691 0.0
C699 C 0.74417 0.93323 0.25577 0.0
C700 C 0.75023 0.92526 0.2861 0.0
C701 C 0.7776 0.91815 0.28828 0.0
C702 C 0.79148 0.93528 0.31164 0.0
C703 C 0.78068 0.89058 0.29752 0.0
C704 C 0.78585 0.92279 0.25429 0.0
C705 C 0.76644 0.93204 0.23613 0.0
C706 C 0.76926 0.93688 0.20375 0.0
C707 C 0.79237 0.93171 0.18942 0.0
C708 C 0.81226 0.92135 0.2073 0.0
C709 C 0.80897 0.91723 0.24028 0.0
H710 H 0.35879 0.47753 0.5724 0.0
H711 H 0.34491 0.42651 0.49449 0.0
H712 H 0.33505 0.46207 0.45925 0.0
H713 H 0.31261 0.52675 0.54992 0.0
H714 H 0.33364 0.55151 0.56084 0.0
H715 H 0.33494 0.52211 0.58148 0.0
H716 H 0.38197 0.51821 0.56785 0.0
H717 H 0.38081 0.54751 0.54724 0.0
H718 H 0.39178 0.52004 0.52687 0.0
H719 H 0.33048 0.50297 0.43133 0.0
H720 H 0.3356 0.5458 0.41131 0.0
H721 H 0.35534 0.57058 0.50638 0.0
C722 C 0.35285 0.4739 0.5482 0.0
C723 C 0.35203 0.44933 0.53623 0.0
C724 C 0.34529 0.44523 0.50411 0.0
C725 C 0.33957 0.46529 0.48401 0.0
C726 C 0.34102 0.48938 0.49628 0.0
C727 C 0.3477 0.4938 0.52758 0.0
C728 C 0.35116 0.52143 0.53366 0.0
C729 C 0.33193 0.53101 0.55792 0.0
C730 C 0.37802 0.52712 0.54453 0.0
C731 C 0.34604 0.5318 0.50073 0.0
C732 C 0.33963 0.51304 0.47973 0.0
C733 C 0.33524 0.51784 0.44763 0.0
C734 C 0.33815 0.54229 0.43648 0.0
C735 C 0.34581 0.56163 0.45725 0.0
C736 C 0.34921 0.5563 0.48994 0.0
H737 H 0.7141 0.14325 0.7293 0.0
H738 H 0.70496 0.06559 0.70414 0.0
H739 H 0.74374 0.0552 0.7339 0.0
H740 H 0.78039 0.14369 0.71753 0.0
H741 H 0.78617 0.16559 0.7492 0.0
H742 H 0.75686 0.16622 0.72823 0.0
H743 H 0.73307 0.16138 0.78159 0.0
H744 H 0.76232 0.16079 0.80273 0.0
H745 H 0.74041 0.1356 0.80741 0.0
H746 H 0.78315 0.05371 0.76937 0.0
H747 H 0.8217 0.06195 0.80081 0.0
H748 H 0.8069 0.14111 0.79593 0.0
C749 C 0.72013 0.124 0.73044 0.0
C750 C 0.70639 0.10508 0.71511 0.0
C751 C 0.71518 0.08025 0.71612 0.0
C752 C 0.73712 0.07422 0.73297 0.0
C753 C 0.75033 0.0934 0.74786 0.0
C754 C 0.74232 0.11786 0.74616 0.0
C755 C 0.76064 0.13536 0.76201 0.0
C756 C 0.77167 0.15379 0.73779 0.0
C757 C 0.74837 0.14908 0.7901 0.0
C758 C 0.78012 0.11698 0.77333 0.0
C759 C 0.77375 0.09279 0.76552 0.0
C760 C 0.78846 0.07262 0.77514 0.0
C761 C 0.81025 0.0774 0.79296 0.0
C762 C 0.81733 0.10213 0.80011 0.0
C763 C 0.80208 0.12205 0.79011 0.0
H764 H 0.86532 0.47913 0.94182 0.0
H765 H 0.84582 0.42605 0.01526 0.0
H766 H 0.83807 0.46068 0.05291 0.0
H767 H 0.9006 0.51698 0.99179 0.0
H768 H 0.89223 0.54603 0.97318 0.0
H769 H 0.89174 0.51767 0.95041 0.0
H770 H 0.8455 0.52567 0.93538 0.0
H771 H 0.84587 0.55416 0.9581 0.0
H772 H 0.82278 0.53064 0.96641 0.0
H773 H 0.83545 0.50064 0.08352 0.0
H774 H 0.84207 0.54237 0.10656 0.0
H775 H 0.86675 0.56944 0.0145 0.0
C776 C 0.85864 0.47495 0.96555 0.0
C777 C 0.85555 0.45005 0.97558 0.0
C778 C 0.84789 0.44508 1.00713 0.0
C779 C 0.84339 0.46461 0.02858 0.0
C780 C 0.84705 0.48899 0.01822 0.0
C781 C 0.85473 0.49424 0.98752 0.0
C782 C 0.8604 0.52174 0.98364 0.0
C783 C 0.88787 0.52583 0.97421 0.0
C784 C 0.84257 0.53376 0.95945 0.0
C785 C 0.85523 0.53104 0.01708 0.0
C786 C 0.84698 0.51195 0.03643 0.0
C787 C 0.84173 0.51577 0.06855 0.0
C788 C 0.84553 0.53958 0.08141 0.0
C789 C 0.85493 0.5592 0.06236 0.0
C790 C 0.85943 0.55487 0.02965 0.0
H791 H 0.23184 0.11368 0.82797 0.0
H792 H 0.17855 0.09419 0.75453 0.0
H793 H 0.21333 0.0849 0.71752 0.0
H794 H 0.27109 0.14692 0.77718 0.0
H795 H 0.29985 0.13824 0.79653 0.0
H796 H 0.27121 0.13899 0.81886 0.0
H797 H 0.27794 0.09306 0.8356 0.0
H798 H 0.30667 0.09216 0.81325 0.0
H799 H 0.28253 0.0696 0.80544 0.0
H800 H 0.25361 0.08048 0.68753 0.0
H801 H 0.29567 0.08577 0.6647 0.0
H802 H 0.32291 0.11161 0.75623 0.0
C803 C 0.2276 0.10671 0.80439 0.0
C804 C 0.2026 0.10403 0.79421 0.0
C805 C 0.19763 0.09597 0.76281 0.0
C806 C 0.21725 0.09058 0.74172 0.0
C807 C 0.24175 0.09378 0.75225 0.0
C808 C 0.247 0.10193 0.78275 0.0
C809 C 0.27472 0.10693 0.78679 0.0
C810 C 0.27948 0.1344 0.79533 0.0
C811 C 0.28614 0.08939 0.81175 0.0
C812 C 0.28417 0.1008 0.75366 0.0
C813 C 0.26493 0.09267 0.73436 0.0
C814 C 0.26884 0.08667 0.70248 0.0
C815 C 0.29288 0.08969 0.68974 0.0
C816 C 0.31268 0.09907 0.70863 0.0
C817 C 0.30826 0.10421 0.7412 0.0
H818 H 0.67052 0.57496 0.50495 0.0
H819 H 0.6918 0.54739 0.41168 0.0
H820 H 0.69704 0.50528 0.43398 0.0
H821 H 0.71289 0.53246 0.55189 0.0
H822 H 0.68997 0.52893 0.58297 0.0
H823 H 0.69169 0.55762 0.56083 0.0
H824 H 0.64491 0.55341 0.54617 0.0
H825 H 0.64307 0.52467 0.56794 0.0
H826 H 0.63417 0.52552 0.52659 0.0
H827 H 0.69221 0.46532 0.46362 0.0
H828 H 0.68165 0.43078 0.50009 0.0
H829 H 0.66631 0.48388 0.57526 0.0
C830 C 0.67708 0.56024 0.48943 0.0
C831 C 0.68082 0.56455 0.45655 0.0
C832 C 0.68897 0.54466 0.43696 0.0
C833 C 0.69198 0.52062 0.44942 0.0
C834 C 0.68721 0.5168 0.48164 0.0
C835 C 0.68041 0.53614 0.50157 0.0
C836 C 0.67463 0.52668 0.53479 0.0
C837 C 0.69342 0.53704 0.55906 0.0
C838 C 0.6476 0.53294 0.54441 0.0
C839 C 0.67817 0.49891 0.53005 0.0
C840 C 0.68551 0.49363 0.49921 0.0
C841 C 0.68721 0.46923 0.48807 0.0
C842 C 0.6811 0.44974 0.50886 0.0
C843 C 0.67375 0.45473 0.54056 0.0
C844 C 0.6727 0.4796 0.55142 0.0
H845 H 0.28863 0.91644 0.33471 0.0
H846 H 0.34445 0.93581 0.2644 0.0
H847 H 0.31112 0.94339 0.22478 0.0
H848 H 0.2533 0.88087 0.28356 0.0
H849 H 0.22328 0.88897 0.30002 0.0
H850 H 0.2507 0.89026 0.32463 0.0
H851 H 0.2414 0.93644 0.33805 0.0
H852 H 0.21379 0.93525 0.31355 0.0
H853 H 0.23729 0.95856 0.30624 0.0
H854 H 0.27227 0.94458 0.19138 0.0
H855 H 0.23164 0.9362 0.16576 0.0
H856 H 0.2013 0.91298 0.25676 0.0
C857 C 0.29368 0.92324 0.31132 0.0
C858 C 0.31899 0.92621 0.30273 0.0
C859 C 0.32509 0.9339 0.2715 0.0
C860 C 0.30629 0.93828 0.2489 0.0
C861 C 0.28148 0.93454 0.2578 0.0
C862 C 0.27513 0.92706 0.28824 0.0
C863 C 0.24753 0.92098 0.29046 0.0
C864 C 0.24348 0.89365 0.30023 0.0
C865 C 0.23422 0.93888 0.31344 0.0
C866 C 0.2395 0.92552 0.25636 0.0
C867 C 0.25922 0.93391 0.23809 0.0
C868 C 0.25663 0.93828 0.20555 0.0
C869 C 0.23344 0.93349 0.19119 0.0
C870 C 0.21325 0.92397 0.20922 0.0
C871 C 0.21631 0.92041 0.24235 0.0
H872 H 0.66698 0.03502 0.58311 0.0
H873 H 0.68479 0.08864 0.50965 0.0
H874 H 0.69296 0.05431 0.47178 0.0
H875 H 0.71029 0.98388 0.55694 0.0
H876 H 0.68751 0.96015 0.56567 0.0
H877 H 0.68814 0.98848 0.58872 0.0
H878 H 0.64156 0.99623 0.57525 0.0
H879 H 0.64082 0.96806 0.55213 0.0
H880 H 0.63191 0.99721 0.53417 0.0
H881 H 0.69486 0.01473 0.44054 0.0
H882 H 0.68711 0.9734 0.41697 0.0
H883 H 0.66507 0.94535 0.50964 0.0
C884 C 0.67355 0.03939 0.55939 0.0
C885 C 0.67593 0.06436 0.54939 0.0
C886 C 0.68333 0.06957 0.51779 0.0
C887 C 0.68806 0.05019 0.49619 0.0
C888 C 0.68494 0.02571 0.50647 0.0
C889 C 0.67771 0.02023 0.53729 0.0
C890 C 0.67229 0.99266 0.541 0.0
C891 C 0.69066 0.98058 0.56448 0.0
C892 C 0.64503 0.9883 0.55122 0.0
C893 C 0.67689 0.98364 0.50729 0.0
C894 C 0.68476 1.0029 0.48796 0.0
C895 C 0.68899 0.99945 0.45553 0.0
C896 C 0.68453 0.97585 0.44234 0.0
C897 C 0.67552 0.95607 0.46143 0.0
C898 C 0.67216 0.96 0.49446 0.0
H899 H 0.30551 0.38061 0.7124 0.0
H900 H 0.31773 0.4598 0.7013 0.0
H901 H 0.28077 0.46836 0.73564 0.0
H902 H 0.23857 0.38417 0.70652 0.0
H903 H 0.23351 0.35913 0.7343 0.0
H904 H 0.26151 0.35979 0.71059 0.0
H905 H 0.28841 0.35752 0.76181 0.0
H906 H 0.2605 0.35686 0.78568 0.0
H907 H 0.28387 0.38036 0.79273 0.0
H908 H 0.24354 0.46727 0.77487 0.0
H909 H 0.20676 0.45702 0.80857 0.0
H910 H 0.21692 0.37877 0.78714 0.0
C911 C 0.30046 0.39976 0.71742 0.0
C912 C 0.31454 0.4196 0.70487 0.0
C913 C 0.30715 0.44442 0.71106 0.0
C914 C 0.28629 0.44938 0.73053 0.0
C915 C 0.27277 0.42927 0.74272 0.0
C916 C 0.27937 0.40496 0.73579 0.0
C917 C 0.26116 0.38657 0.74998 0.0
C918 C 0.2479 0.37154 0.72378 0.0
C919 C 0.27427 0.36932 0.77397 0.0
C920 C 0.24335 0.40421 0.76644 0.0
C921 C 0.25049 0.42876 0.76258 0.0
C922 C 0.23758 0.44814 0.77752 0.0
C923 C 0.21681 0.4422 0.79663 0.0
C924 C 0.20887 0.4172 0.7998 0.0
C925 C 0.2223 0.3981 0.78443 0.0
H926 H 0.85966 0.04072 0.93699 0.0
H927 H 0.83666 0.09358 0.00917 0.0
H928 H 0.82961 0.05898 0.04698 0.0
H929 H 0.81899 0.98731 0.96152 0.0
H930 H 0.8434 0.96494 0.95397 0.0
H931 H 0.84171 0.9931 0.93075 0.0
H932 H 0.88732 1.0036 0.94632 0.0
H933 H 0.88911 0.97562 0.96966 0.0
H934 H 0.89571 1.00531 0.98781 0.0
H935 H 0.829 0.01934 0.07832 0.0
H936 H 0.83804 0.9784 0.10229 0.0
H937 H 0.86474 0.95153 0.01097 0.0
C938 C 0.85222 0.04482 0.96038 0.0
C939 C 0.84801 0.06966 0.97005 0.0
C940 C 0.8395 0.07458 1.00127 0.0
C941 C 0.83542 0.05506 0.02282 0.0
C942 C 0.84034 0.03075 0.0129 0.0
C943 C 0.8487 0.02557 0.98245 0.0
C944 C 0.8559 0.99836 0.97915 0.0
C945 C 0.83898 0.98515 0.95491 0.0
C946 C 0.88365 0.99558 0.97022 0.0
C947 C 0.8509 0.98921 0.01267 0.0
C948 C 0.84136 1.00805 0.03153 0.0
C949 C 0.83623 1.00439 0.0637 0.0
C950 C 0.84143 0.98103 0.07711 0.0
C951 C 0.85209 0.96172 0.05854 0.0
C952 C 0.85646 0.96585 0.02576 0.0
H953 H 0.22534 0.64284 0.21698 0.0
H954 H 0.20694 0.56452 0.2106 0.0
H955 H 0.24543 0.55406 0.24102 0.0
H956 H 0.29211 0.63436 0.20519 0.0
H957 H 0.30022 0.65954 0.23163 0.0
H958 H 0.27116 0.66039 0.21006 0.0
H959 H 0.24695 0.66564 0.26307 0.0
H960 H 0.27591 0.66483 0.28477 0.0
H961 H 0.25136 0.64318 0.29444 0.0
H962 H 0.28428 0.55336 0.27731 0.0
H963 H 0.32219 0.56188 0.30976 0.0
H964 H 0.31716 0.64004 0.28536 0.0
C965 C 0.2295 0.62349 0.222 0.0
C966 C 0.21322 0.60443 0.21198 0.0
C967 C 0.21928 0.5793 0.21833 0.0
C968 C 0.24102 0.57326 0.23557 0.0
C969 C 0.25672 0.59259 0.24537 0.0
C970 C 0.25141 0.61716 0.23818 0.0
C971 C 0.27151 0.63449 0.25032 0.0
C972 C 0.28452 0.64798 0.22264 0.0
C973 C 0.26079 0.65312 0.27459 0.0
C974 C 0.28882 0.61597 0.26607 0.0
C975 C 0.27989 0.5919 0.26348 0.0
C976 C 0.29174 0.57205 0.27878 0.0
C977 C 0.3132 0.577 0.29713 0.0
C978 C 0.32286 0.60144 0.29919 0.0
C979 C 0.3106 0.62103 0.28322 0.0
H980 H 0.3617 0.07046 0.51078 0.0
H981 H 0.33338 0.04479 0.60178 0.0
H982 H 0.32666 1.00301 0.57902 0.0
H983 H 0.31899 0.03136 0.46038 0.0
H984 H 0.34303 0.02597 0.43115 0.0
H985 H 0.34252 0.0547 0.45335 0.0
H986 H 0.388 0.0467 0.47173 0.0
H987 H 0.3886 0.01793 0.44983 0.0
H988 H 0.3955 0.018 0.49182 0.0
H989 H 0.32999 0.96264 0.54951 0.0
H990 H 0.33933 0.92739 0.51344 0.0
H991 H 0.36237 0.97922 0.4402 0.0
C992 C 0.35342 0.05625 0.52567 0.0
C993 C 0.34803 0.06097 0.55809 0.0
C994 C 0.33753 0.04173 0.57686 0.0
C995 C 0.33366 0.01789 0.56414 0.0
C996 C 0.33993 0.01362 0.53242 0.0
C997 C 0.34913 0.03237 0.51321 0.0
C998 C 0.35575 0.02248 0.48043 0.0
C999 C 0.33907 0.03433 0.45481 0.0
C1000 C 0.38361 0.02652 0.47304 0.0
C1001 C 0.34978 0.99507 0.48463 0.0
C1002 C 0.34065 0.99037 0.51482 0.0
C1003 C 0.33642 0.96616 0.52552 0.0
C1004 C 0.34183 0.94626 0.50496 0.0
C1005 C 0.35096 0.95069 0.4739 0.0
C1006 C 0.35457 0.97542 0.46347 0.0
H1007 H 0.82062 0.61408 0.25526 0.0
H1008 H 0.79328 0.58944 0.16328 0.0
H1009 H 0.7519 0.58125 0.18691 0.0
H1010 H 0.78383 0.56866 0.30343 0.0
H1011 H 0.77862 0.59098 0.33478 0.0
H1012 H 0.8068 0.59238 0.31138 0.0
H1013 H 0.79709 0.63829 0.29699 0.0
H1014 H 0.76892 0.63701 0.32022 0.0
H1015 H 0.76752 0.64591 0.27892 0.0
H1016 H 0.71197 0.58225 0.21844 0.0
H1017 H 0.67749 0.58889 0.25684 0.0
H1018 H 0.73121 0.60934 0.32936 0.0
C1019 C 0.80609 0.60643 0.24025 0.0
C1020 C 0.81022 0.6024 0.2074 0.0
C1021 C 0.79064 0.59255 0.18853 0.0
C1022 C 0.76704 0.58785 0.20174 0.0
C1023 C 0.7634 0.5926 0.23402 0.0
C1024 C 0.78251 0.60125 0.25317 0.0
C1025 C 0.77339 0.60594 0.28681 0.0
C1026 C 0.78644 0.58844 0.3105 0.0
C1027 C 0.77694 0.63341 0.29627 0.0
C1028 C 0.74598 0.59945 0.28331 0.0
C1029 C 0.74057 0.59181 0.25264 0.0
C1030 C 0.71607 0.58749 0.24275 0.0
C1031 C 0.69662 0.59133 0.26464 0.0
C1032 C 0.70181 0.59895 0.29617 0.0
C1033 C 0.72684 0.6026 0.3057 0.0
H1034 H 0.1665 0.98544 0.07902 0.0
H1035 H 0.17996 0.92882 1.00758 0.0
H1036 H 0.18977 0.96151 0.9681 0.0
H1037 H 0.13331 0.02432 0.02878 0.0
H1038 H 0.14432 0.05318 0.04558 0.0
H1039 H 0.14333 0.02558 0.06971 0.0
H1040 H 0.19043 0.03048 0.0824 0.0
H1041 H 0.19156 0.05817 0.05822 0.0
H1042 H 0.21259 0.03269 0.05023 0.0
H1043 H 0.19428 1.00013 0.93525 0.0
H1044 H 0.18883 0.04129 0.91012 0.0
H1045 H 0.16939 0.07296 1.00188 0.0
C1046 C 0.17235 0.98002 0.05533 0.0
C1047 C 0.17306 0.95469 0.04638 0.0
C1048 C 0.17967 0.94816 0.01488 0.0
C1049 C 0.18537 0.96659 0.99239 0.0
C1050 C 0.18402 0.99149 1.00169 0.0
C1051 C 0.17746 0.99824 0.03235 0.0
C1052 C 0.17396 0.02619 0.03503 0.0
C1053 C 0.14714 0.03268 0.04537 0.0
C1054 C 0.19329 0.03755 0.05783 0.0
C1055 C 0.17889 0.034 1.00094 0.0
C1056 C 0.1853 0.01378 0.98229 0.0
C1057 C 0.18953 0.01615 0.94969 0.0
C1058 C 0.18644 0.03964 0.93562 0.0
C1059 C 0.17874 0.06038 0.95401 0.0
C1060 C 0.17551 0.05753 0.98722 0.0
H1061 H 0.71516 0.38008 0.72368 0.0
H1062 H 0.70844 0.45741 0.69581 0.0
H1063 H 0.74536 0.46785 0.72921 0.0
H1064 H 0.73633 0.38877 0.80399 0.0
H1065 H 0.75814 0.36322 0.80225 0.0
H1066 H 0.73034 0.36263 0.77815 0.0
H1067 H 0.75735 0.35657 0.72753 0.0
H1068 H 0.78523 0.35712 0.75146 0.0
H1069 H 0.78181 0.37856 0.71878 0.0
H1070 H 0.78255 0.46938 0.76854 0.0
H1071 H 0.81922 0.46098 0.80343 0.0
H1072 H 0.80343 0.38201 0.79895 0.0
C1073 C 0.72131 0.39927 0.72493 0.0
C1074 C 0.70881 0.41807 0.7078 0.0
C1075 C 0.71775 0.44283 0.7091 0.0
C1076 C 0.73861 0.44889 0.72803 0.0
C1077 C 0.75057 0.42981 0.74474 0.0
C1078 C 0.74243 0.40542 0.74277 0.0
C1079 C 0.7594 0.38794 0.76085 0.0
C1080 C 0.7452 0.37488 0.78792 0.0
C1081 C 0.77168 0.36894 0.73831 0.0
C1082 C 0.7783 0.40624 0.77368 0.0
C1083 C 0.77277 0.4304 0.76475 0.0
C1084 C 0.78719 0.45049 0.77526 0.0
C1085 C 0.80789 0.44562 0.79506 0.0
C1086 C 0.81417 0.42088 0.80327 0.0
C1087 C 0.79917 0.40107 0.79245 0.0
loop_
_geom_bond_atom_site_label_1
_geom_bond_atom_site_label_2
_geom_bond_distance
_geom_bond_site_symmetry_2
_ccdc_geom_bond_type
O0 Cd1 2.223 . S
O0 C8 1.315 . S
Cd1 O0 2.223 . S
Cd1 O4 2.297 . S
Cd1 O5 2.439 . S
Cd1 O11 2.240 . S
Cd2 O3 2.240 . S
Cd2 O10 2.223 . S
Cd2 O12 2.297 . S
Cd2 O13 2.439 . S
O3 Cd2 2.240 . S
O3 C8 1.279 . S
O4 Cd1 2.297 . S
O4 C6 1.247 . S
O5 Cd1 2.439 . S
O5 C6 1.208 . S
C6 O4 1.247 . S
C6 O5 1.208 . S
C7 O12 1.247 . S
C7 O13 1.208 . S
C8 O0 1.315 . S
C8 O3 1.279 . S
C9 O10 1.315 . S
C9 O11 1.279 . S
O10 Cd2 2.223 . S
O10 C9 1.315 . S
O11 Cd1 2.240 . S
O11 C9 1.279 . S
O12 Cd2 2.297 . S
O12 C7 1.247 . S
O13 Cd2 2.439 . S
O13 C7 1.208 . S
O14 Cd15 2.223 . S
O14 C22 1.315 . S
Cd15 O14 2.223 . S
Cd15 O18 2.297 . S
Cd15 O19 2.439 . S
Cd15 O25 2.240 . S
Cd16 O17 2.240 . S
Cd16 O24 2.223 . S
Cd16 O26 2.297 . S
Cd16 O27 2.439 . S
O17 Cd16 2.240 . S
O17 C22 1.279 . S
O18 Cd15 2.297 . S
O18 C20 1.247 . S
O19 Cd15 2.439 . S
O19 C20 1.208 . S
C20 O18 1.247 . S
C20 O19 1.208 . S
C21 O26 1.247 . S
C21 O27 1.208 . S
C22 O14 1.315 . S
C22 O17 1.279 . S
C23 O24 1.315 . S
C23 O25 1.279 . S
O24 Cd16 2.223 . S
O24 C23 1.315 . S
O25 Cd15 2.240 . S
O25 C23 1.279 . S
O26 Cd16 2.297 . S
O26 C21 1.247 . S
O27 Cd16 2.439 . S
O27 C21 1.208 . S
O28 Cd29 2.223 . S
O28 C36 1.315 . S
Cd29 O28 2.223 . S
Cd29 O32 2.297 . S
Cd29 O33 2.439 . S
Cd29 O39 2.240 . S
Cd30 O31 2.240 . S
Cd30 O38 2.223 . S
Cd30 O40 2.297 . S
Cd30 O41 2.439 . S
O31 Cd30 2.240 . S
O31 C36 1.279 . S
O32 Cd29 2.297 . S
O32 C34 1.247 . S
O33 Cd29 2.439 . S
O33 C34 1.208 . S
C34 O32 1.247 . S
C34 O33 1.208 . S
C35 O40 1.247 . S
C35 O41 1.208 . S
C36 O28 1.315 . S
C36 O31 1.279 . S
C37 O38 1.315 . S
C37 O39 1.279 . S
O38 Cd30 2.223 . S
O38 C37 1.315 . S
O39 Cd29 2.240 . S
O39 C37 1.279 . S
O40 Cd30 2.297 . S
O40 C35 1.247 . S
O41 Cd30 2.439 . S
O41 C35 1.208 . S
O42 Cd43 2.223 . S
O42 C50 1.315 . S
Cd43 O42 2.223 . S
Cd43 O46 2.297 . S
Cd43 O47 2.439 . S
Cd43 O53 2.240 . S
Cd44 O45 2.240 . S
Cd44 O52 2.223 . S
Cd44 O54 2.297 . S
Cd44 O55 2.439 . S
O45 Cd44 2.240 . S
O45 C50 1.279 . S
O46 Cd43 2.297 . S
O46 C48 1.247 . S
O47 Cd43 2.439 . S
O47 C48 1.208 . S
C48 O46 1.247 . S
C48 O47 1.208 . S
C49 O54 1.247 . S
C49 O55 1.208 . S
C50 O42 1.315 . S
C50 O45 1.279 . S
C51 O52 1.315 . S
C51 O53 1.279 . S
O52 Cd44 2.223 . S
O52 C51 1.315 . S
O53 Cd43 2.240 . S
O53 C51 1.279 . S
O54 Cd44 2.297 . S
O54 C49 1.247 . S
O55 Cd44 2.439 . S
O55 C49 1.208 . S
O56 Cd57 2.223 . S
O56 C64 1.315 . S
Cd57 O56 2.223 . S
Cd57 O60 2.297 . S
Cd57 O61 2.439 . S
Cd57 O67 2.240 . S
Cd58 O59 2.240 . S
Cd58 O66 2.223 . S
Cd58 O68 2.297 . S
Cd58 O69 2.439 . S
O59 Cd58 2.240 . S
O59 C64 1.279 . S
O60 Cd57 2.297 . S
O60 C62 1.247 . S
O61 Cd57 2.439 . S
O61 C62 1.208 . S
C62 O60 1.247 . S
C62 O61 1.208 . S
C63 O68 1.247 . S
C63 O69 1.208 . S
C64 O56 1.315 . S
C64 O59 1.279 . S
C65 O66 1.315 . S
C65 O67 1.279 . S
O66 Cd58 2.223 . S
O66 C65 1.315 . S
O67 Cd57 2.240 . S
O67 C65 1.279 . S
O68 Cd58 2.297 . S
O68 C63 1.247 . S
O69 Cd58 2.439 . S
O69 C63 1.208 . S
O70 Cd71 2.223 . S
O70 C78 1.315 . S
Cd71 O70 2.223 . S
Cd71 O74 2.297 . S
Cd71 O75 2.439 . S
Cd71 O81 2.240 . S
Cd72 O73 2.240 . S
Cd72 O80 2.223 . S
Cd72 O82 2.297 . S
Cd72 O83 2.439 . S
O73 Cd72 2.240 . S
O73 C78 1.279 . S
O74 Cd71 2.297 . S
O74 C76 1.247 . S
O75 Cd71 2.439 . S
O75 C76 1.208 . S
C76 O74 1.247 . S
C76 O75 1.208 . S
C77 O82 1.247 . S
C77 O83 1.208 . S
C78 O70 1.315 . S
C78 O73 1.279 . S
C79 O80 1.315 . S
C79 O81 1.279 . S
O80 Cd72 2.223 . S
O80 C79 1.315 . S
O81 Cd71 2.240 . S
O81 C79 1.279 . S
O82 Cd72 2.297 . S
O82 C77 1.247 . S
O83 Cd72 2.439 . S
O83 C77 1.208 . S
O84 Cd85 2.223 . S
O84 C92 1.315 . S
Cd85 O84 2.223 . S
Cd85 O88 2.297 . S
Cd85 O89 2.439 . S
Cd85 O95 2.240 . S
Cd86 O87 2.240 . S
Cd86 O94 2.223 . S
Cd86 O96 2.297 . S
Cd86 O97 2.439 . S
O87 Cd86 2.240 . S
O87 C92 1.279 . S
O88 Cd85 2.297 . S
O88 C90 1.247 . S
O89 Cd85 2.439 . S
O89 C90 1.208 . S
C90 O88 1.247 . S
C90 O89 1.208 . S
C91 O96 1.247 . S
C91 O97 1.208 . S
C92 O84 1.315 . S
C92 O87 1.279 . S
C93 O94 1.315 . S
C93 O95 1.279 . S
O94 Cd86 2.223 . S
O94 C93 1.315 . S
O95 Cd85 2.240 . S
O95 C93 1.279 . S
O96 Cd86 2.297 . S
O96 C91 1.247 . S
O97 Cd86 2.439 . S
O97 C91 1.208 . S
O98 Cd99 2.223 . S
O98 C106 1.315 . S
Cd99 O98 2.223 . S
Cd99 O102 2.297 . S
Cd99 O103 2.439 . S
Cd99 O109 2.240 . S
Cd100 O101 2.240 . S
Cd100 O108 2.223 . S
Cd100 O110 2.297 . S
Cd100 O111 2.439 . S
O101 Cd100 2.240 . S
O101 C106 1.279 . S
O102 Cd99 2.297 . S
O102 C104 1.247 . S
O103 Cd99 2.439 . S
O103 C104 1.208 . S
C104 O102 1.247 . S
C104 O103 1.208 . S
C105 O110 1.247 . S
C105 O111 1.208 . S
C106 O98 1.315 . S
C106 O101 1.279 . S
C107 O108 1.315 . S
C107 O109 1.279 . S
O108 Cd100 2.223 . S
O108 C107 1.315 . S
O109 Cd99 2.240 . S
O109 C107 1.279 . S
O110 Cd100 2.297 . S
O110 C105 1.247 . S
O111 Cd100 2.439 . S
O111 C105 1.208 . S
O112 Cd113 2.223 . S
O112 C120 1.315 . S
Cd113 O112 2.223 . S
Cd113 O116 2.297 . S
Cd113 O117 2.439 . S
Cd113 O123 2.240 . S
Cd114 O115 2.240 . S
Cd114 O122 2.223 . S
Cd114 O124 2.297 . S
Cd114 O125 2.439 . S
O115 Cd114 2.240 . S
O115 C120 1.279 . S
O116 Cd113 2.297 . S
O116 C118 1.247 . S
O117 Cd113 2.439 . S
O117 C118 1.208 . S
C118 O116 1.247 . S
C118 O117 1.208 . S
C119 O124 1.247 . S
C119 O125 1.208 . S
C120 O112 1.315 . S
C120 O115 1.279 . S
C121 O122 1.315 . S
C121 O123 1.279 . S
O122 Cd114 2.223 . S
O122 C121 1.315 . S
O123 Cd113 2.240 . S
O123 C121 1.279 . S
O124 Cd114 2.297 . S
O124 C119 1.247 . S
O125 Cd114 2.439 . S
O125 C119 1.208 . S
O126 Cd127 2.223 . S
O126 C134 1.315 . S
Cd127 O126 2.223 . S
Cd127 O130 2.297 . S
Cd127 O131 2.439 . S
Cd127 O137 2.240 . S
Cd128 O129 2.240 . S
Cd128 O136 2.223 . S
Cd128 O138 2.297 . S
Cd128 O139 2.439 . S
O129 Cd128 2.240 . S
O129 C134 1.279 . S
O130 Cd127 2.297 . S
O130 C132 1.247 . S
O131 Cd127 2.439 . S
O131 C132 1.208 . S
C132 O130 1.247 . S
C132 O131 1.208 . S
C133 O138 1.247 . S
C133 O139 1.208 . S
C134 O126 1.315 . S
C134 O129 1.279 . S
C135 O136 1.315 . S
C135 O137 1.279 . S
O136 Cd128 2.223 . S
O136 C135 1.315 . S
O137 Cd127 2.240 . S
O137 C135 1.279 . S
O138 Cd128 2.297 . S
O138 C133 1.247 . S
O139 Cd128 2.439 . S
O139 C133 1.208 . S
O140 Cd141 2.223 . S
O140 C148 1.315 . S
Cd141 O140 2.223 . S
Cd141 O144 2.297 . S
Cd141 O145 2.439 . S
Cd141 O151 2.240 . S
Cd142 O143 2.240 . S
Cd142 O150 2.223 . S
Cd142 O152 2.297 . S
Cd142 O153 2.439 . S
O143 Cd142 2.240 . S
O143 C148 1.279 . S
O144 Cd141 2.297 . S
O144 C146 1.247 . S
O145 Cd141 2.439 . S
O145 C146 1.208 . S
C146 O144 1.247 . S
C146 O145 1.208 . S
C147 O152 1.247 . S
C147 O153 1.208 . S
C148 O140 1.315 . S
C148 O143 1.279 . S
C149 O150 1.315 . S
C149 O151 1.279 . S
O150 Cd142 2.223 . S
O150 C149 1.315 . S
O151 Cd141 2.240 . S
O151 C149 1.279 . S
O152 Cd142 2.297 . S
O152 C147 1.247 . S
O153 Cd142 2.439 . S
O153 C147 1.208 . S
O154 Cd155 2.223 . S
O154 C162 1.315 . S
Cd155 O154 2.223 . S
Cd155 O158 2.297 . S
Cd155 O159 2.439 . S
Cd155 O165 2.240 . S
Cd156 O157 2.240 . S
Cd156 O164 2.223 . S
Cd156 O166 2.297 . S
Cd156 O167 2.439 . S
O157 Cd156 2.240 . S
O157 C162 1.279 . S
O158 Cd155 2.297 . S
O158 C160 1.247 . S
O159 Cd155 2.439 . S
O159 C160 1.208 . S
C160 O158 1.247 . S
C160 O159 1.208 . S
C161 O166 1.247 . S
C161 O167 1.208 . S
C162 O154 1.315 . S
C162 O157 1.279 . S
C163 O164 1.315 . S
C163 O165 1.279 . S
O164 Cd156 2.223 . S
O164 C163 1.315 . S
O165 Cd155 2.240 . S
O165 C163 1.279 . S
O166 Cd156 2.297 . S
O166 C161 1.247 . S
O167 Cd156 2.439 . S
O167 C161 1.208 . S
O168 Cd169 2.223 . S
O168 C176 1.315 . S
Cd169 O168 2.223 . S
Cd169 O172 2.297 . S
Cd169 O173 2.439 . S
Cd169 O179 2.240 . S
Cd170 O171 2.240 . S
Cd170 O178 2.223 . S
Cd170 O180 2.297 . S
Cd170 O181 2.439 . S
O171 Cd170 2.240 . S
O171 C176 1.279 . S
O172 Cd169 2.297 . S
O172 C174 1.247 . S
O173 Cd169 2.439 . S
O173 C174 1.208 . S
C174 O172 1.247 . S
C174 O173 1.208 . S
C175 O180 1.247 . S
C175 O181 1.208 . S
C176 O168 1.315 . S
C176 O171 1.279 . S
C177 O178 1.315 . S
C177 O179 1.279 . S
O178 Cd170 2.223 . S
O178 C177 1.315 . S
O179 Cd169 2.240 . S
O179 C177 1.279 . S
O180 Cd170 2.297 . S
O180 C175 1.247 . S
O181 Cd170 2.439 . S
O181 C175 1.208 . S
O182 Cd183 2.223 . S
O182 C190 1.315 . S
Cd183 O182 2.223 . S
Cd183 O186 2.297 . S
Cd183 O187 2.439 . S
Cd183 O193 2.240 . S
Cd184 O185 2.240 . S
Cd184 O192 2.223 . S
Cd184 O194 2.297 . S
Cd184 O195 2.439 . S
O185 Cd184 2.240 . S
O185 C190 1.279 . S
O186 Cd183 2.297 . S
O186 C188 1.247 . S
O187 Cd183 2.439 . S
O187 C188 1.208 . S
C188 O186 1.247 . S
C188 O187 1.208 . S
C189 O194 1.247 . S
C189 O195 1.208 . S
C190 O182 1.315 . S
C190 O185 1.279 . S
C191 O192 1.315 . S
C191 O193 1.279 . S
O192 Cd184 2.223 . S
O192 C191 1.315 . S
O193 Cd183 2.240 . S
O193 C191 1.279 . S
O194 Cd184 2.297 . S
O194 C189 1.247 . S
O195 Cd184 2.439 . S
O195 C189 1.208 . S
O196 Cd197 2.223 . S
O196 C204 1.315 . S
Cd197 O196 2.223 . S
Cd197 O200 2.297 . S
Cd197 O201 2.439 . S
Cd197 O207 2.240 . S
Cd198 O199 2.240 . S
Cd198 O206 2.223 . S
Cd198 O208 2.297 . S
Cd198 O209 2.439 . S
O199 Cd198 2.240 . S
O199 C204 1.279 . S
O200 Cd197 2.297 . S
O200 C202 1.247 . S
O201 Cd197 2.439 . S
O201 C202 1.208 . S
C202 O200 1.247 . S
C202 O201 1.208 . S
C203 O208 1.247 . S
C203 O209 1.208 . S
C204 O196 1.315 . S
C204 O199 1.279 . S
C205 O206 1.315 . S
C205 O207 1.279 . S
O206 Cd198 2.223 . S
O206 C205 1.315 . S
O207 Cd197 2.240 . S
O207 C205 1.279 . S
O208 Cd198 2.297 . S
O208 C203 1.247 . S
O209 Cd198 2.439 . S
O209 C203 1.208 . S
O210 Cd211 2.223 . S
O210 C218 1.315 . S
Cd211 O210 2.223 . S
Cd211 O214 2.297 . S
Cd211 O215 2.439 . S
Cd211 O221 2.240 . S
Cd212 O213 2.240 . S
Cd212 O220 2.223 . S
Cd212 O222 2.297 . S
Cd212 O223 2.439 . S
O213 Cd212 2.240 . S
O213 C218 1.279 . S
O214 Cd211 2.297 . S
O214 C216 1.247 . S
O215 Cd211 2.439 . S
O215 C216 1.208 . S
C216 O214 1.247 . S
C216 O215 1.208 . S
C217 O222 1.247 . S
C217 O223 1.208 . S
C218 O210 1.315 . S
C218 O213 1.279 . S
C219 O220 1.315 . S
C219 O221 1.279 . S
O220 Cd212 2.223 . S
O220 C219 1.315 . S
O221 Cd211 2.240 . S
O221 C219 1.279 . S
O222 Cd212 2.297 . S
O222 C217 1.247 . S
O223 Cd212 2.439 . S
O223 C217 1.208 . S
H224 C236 0.930 . S
H225 C238 0.930 . S
H226 C239 0.930 . S
H227 C243 0.959 . S
H228 C243 0.959 . S
H229 C243 0.961 . S
H230 C244 0.960 . S
H231 C244 0.961 . S
H232 C244 0.959 . S
H233 C247 0.929 . S
H234 C248 0.931 . S
H235 C250 0.930 . S
C236 H224 0.930 . S
C236 C237 1.399 . S
C236 C241 1.399 . S
C237 C236 1.399 . S
C237 C238 1.376 . S
C238 H225 0.930 . S
C238 C237 1.376 . S
C238 C239 1.388 . S
C239 H226 0.930 . S
C239 C238 1.388 . S
C239 C240 1.390 . S
C240 C239 1.390 . S
C240 C241 1.394 . S
C240 C246 1.465 . S
C241 C236 1.399 . S
C241 C240 1.394 . S
C241 C242 1.516 . S
C242 C241 1.516 . S
C242 C243 1.502 . S
C242 C244 1.561 . S
C242 C245 1.526 . S
C243 H227 0.959 . S
C243 H228 0.959 . S
C243 H229 0.961 . S
C243 C242 1.502 . S
C244 H230 0.960 . S
C244 H231 0.961 . S
C244 H232 0.959 . S
C244 C242 1.561 . S
C245 C242 1.526 . S
C245 C246 1.396 . S
C245 C250 1.390 . S
C246 C240 1.465 . S
C246 C245 1.396 . S
C246 C247 1.399 . S
C247 H233 0.929 . S
C247 C246 1.399 . S
C247 C248 1.385 . S
C248 H234 0.931 . S
C248 C247 1.385 . S
C248 C249 1.389 . S
C249 C248 1.389 . S
C249 C250 1.387 . S
C250 H235 0.930 . S
C250 C245 1.390 . S
C250 C249 1.387 . S
H251 C263 0.930 . S
H252 C265 0.930 . S
H253 C266 0.930 . S
H254 C270 0.959 . S
H255 C270 0.959 . S
H256 C270 0.961 . S
H257 C271 0.960 . S
H258 C271 0.961 . S
H259 C271 0.959 . S
H260 C274 0.929 . S
H261 C275 0.931 . S
H262 C277 0.930 . S
C263 H251 0.930 . S
C263 C264 1.399 . S
C263 C268 1.399 . S
C264 C263 1.399 . S
C264 C265 1.376 . S
C265 H252 0.930 . S
C265 C264 1.376 . S
C265 C266 1.388 . S
C266 H253 0.930 . S
C266 C265 1.388 . S
C266 C267 1.390 . S
C267 C266 1.390 . S
C267 C268 1.394 . S
C267 C273 1.465 . S
C268 C263 1.399 . S
C268 C267 1.394 . S
C268 C269 1.516 . S
C269 C268 1.516 . S
C269 C270 1.502 . S
C269 C271 1.561 . S
C269 C272 1.526 . S
C270 H254 0.959 . S
C270 H255 0.959 . S
C270 H256 0.961 . S
C270 C269 1.502 . S
C271 H257 0.960 . S
C271 H258 0.961 . S
C271 H259 0.959 . S
C271 C269 1.561 . S
C272 C269 1.526 . S
C272 C273 1.396 . S
C272 C277 1.390 . S
C273 C267 1.465 . S
C273 C272 1.396 . S
C273 C274 1.399 . S
C274 H260 0.929 . S
C274 C273 1.399 . S
C274 C275 1.385 . S
C275 H261 0.931 . S
C275 C274 1.385 . S
C275 C276 1.389 . S
C276 C275 1.389 . S
C276 C277 1.387 . S
C277 H262 0.930 . S
C277 C272 1.390 . S
C277 C276 1.387 . S
H278 C290 0.930 . S
H279 C292 0.930 . S
H280 C293 0.930 . S
H281 C297 0.959 . S
H282 C297 0.959 . S
H283 C297 0.961 . S
H284 C298 0.960 . S
H285 C298 0.961 . S
H286 C298 0.959 . S
H287 C301 0.929 . S
H288 C302 0.931 . S
H289 C304 0.930 . S
C290 H278 0.930 . S
C290 C291 1.399 . S
C290 C295 1.399 . S
C291 C290 1.399 . S
C291 C292 1.376 . S
C292 H279 0.930 . S
C292 C291 1.376 . S
C292 C293 1.388 . S
C293 H280 0.930 . S
C293 C292 1.388 . S
C293 C294 1.390 . S
C294 C293 1.390 . S
C294 C295 1.394 . S
C294 C300 1.465 . S
C295 C290 1.399 . S
C295 C294 1.394 . S
C295 C296 1.516 . S
C296 C295 1.516 . S
C296 C297 1.502 . S
C296 C298 1.561 . S
C296 C299 1.526 . S
C297 H281 0.959 . S
C297 H282 0.959 . S
C297 H283 0.961 . S
C297 C296 1.502 . S
C298 H284 0.960 . S
C298 H285 0.961 . S
C298 H286 0.959 . S
C298 C296 1.561 . S
C299 C296 1.526 . S
C299 C300 1.396 . S
C299 C304 1.390 . S
C300 C294 1.465 . S
C300 C299 1.396 . S
C300 C301 1.399 . S
C301 H287 0.929 . S
C301 C300 1.399 . S
C301 C302 1.385 . S
C302 H288 0.931 . S
C302 C301 1.385 . S
C302 C303 1.389 . S
C303 C302 1.389 . S
C303 C304 1.387 . S
C304 H289 0.930 . S
C304 C299 1.390 . S
C304 C303 1.387 . S
H305 C317 0.930 . S
H306 C319 0.930 . S
H307 C320 0.930 . S
H308 C324 0.962 . S
H309 C324 0.979 . S
H310 C324 0.939 1_455 S
H311 C325 0.957 1_455 S
H312 C325 0.963 . S
H313 C325 0.959 . S
H314 C328 0.929 . S
H315 C329 0.931 . S
H316 C331 0.930 . S
C317 H305 0.930 . S
C317 C318 1.399 . S
C317 C322 1.399 . S
C318 C317 1.399 . S
C318 C319 1.376 . S
C319 H306 0.930 . S
C319 C318 1.376 . S
C319 C320 1.388 . S
C320 H307 0.930 . S
C320 C319 1.388 . S
C320 C321 1.390 . S
C321 C320 1.390 . S
C321 C322 1.394 . S
C321 C327 1.465 1_455 S
C322 C317 1.399 . S
C322 C321 1.394 . S
C322 C323 1.517 1_455 S
C323 C322 1.517 1_655 S
C323 C324 1.502 . S
C323 C325 1.561 . S
C323 C326 1.525 . S
C324 H308 0.962 . S
C324 H309 0.979 . S
C324 H310 0.939 1_655 S
C324 C323 1.502 . S
C325 H311 0.957 1_655 S
C325 H312 0.963 . S
C325 H313 0.959 . S
C325 C323 1.561 . S
C326 C323 1.525 . S
C326 C327 1.396 . S
C326 C331 1.390 . S
C327 C321 1.465 1_655 S
C327 C326 1.396 . S
C327 C328 1.399 . S
C328 H314 0.929 . S
C328 C327 1.399 . S
C328 C329 1.385 . S
C329 H315 0.931 . S
C329 C328 1.385 . S
C329 C330 1.389 . S
C330 C329 1.389 . S
C330 C331 1.387 . S
C331 H316 0.930 . S
C331 C326 1.390 . S
C331 C330 1.387 . S
H332 C344 0.930 . S
H333 C346 0.930 . S
H334 C347 0.930 . S
H335 C351 0.959 . S
H336 C351 0.959 . S
H337 C351 0.961 . S
H338 C352 0.960 . S
H339 C352 0.961 . S
H340 C352 0.959 . S
H341 C355 0.929 . S
H342 C356 0.931 . S
H343 C358 0.930 . S
C344 H332 0.930 . S
C344 C345 1.399 . S
C344 C349 1.399 . S
C345 C344 1.399 . S
C345 C346 1.376 . S
C346 H333 0.930 . S
C346 C345 1.376 . S
C346 C347 1.388 . S
C347 H334 0.930 . S
C347 C346 1.388 . S
C347 C348 1.390 . S
C348 C347 1.390 . S
C348 C349 1.394 . S
C348 C354 1.465 . S
C349 C344 1.399 . S
C349 C348 1.394 . S
C349 C350 1.516 . S
C350 C349 1.516 . S
C350 C351 1.502 . S
C350 C352 1.561 . S
C350 C353 1.526 . S
C351 H335 0.959 . S
C351 H336 0.959 . S
C351 H337 0.961 . S
C351 C350 1.502 . S
C352 H338 0.960 . S
C352 H339 0.961 . S
C352 H340 0.959 . S
C352 C350 1.561 . S
C353 C350 1.526 . S
C353 C354 1.396 . S
C353 C358 1.390 . S
C354 C348 1.465 . S
C354 C353 1.396 . S
C354 C355 1.399 . S
C355 H341 0.929 . S
C355 C354 1.399 . S
C355 C356 1.385 . S
C356 H342 0.931 . S
C356 C355 1.385 . S
C356 C357 1.389 . S
C357 C356 1.389 . S
C357 C358 1.387 . S
C358 H343 0.930 . S
C358 C353 1.390 . S
C358 C357 1.387 . S
H359 C371 0.930 . S
H360 C373 0.930 . S
H361 C374 0.930 . S
H362 C378 0.962 . S
H363 C378 0.979 . S
H364 C378 0.939 1_655 S
H365 C379 0.957 1_655 S
H366 C379 0.963 . S
H367 C379 0.959 . S
H368 C382 0.929 . S
H369 C383 0.931 . S
H370 C385 0.930 . S
C371 H359 0.930 . S
C371 C372 1.399 . S
C371 C376 1.399 . S
C372 C371 1.399 . S
C372 C373 1.376 . S
C373 H360 0.930 . S
C373 C372 1.376 . S
C373 C374 1.388 . S
C374 H361 0.930 . S
C374 C373 1.388 . S
C374 C375 1.390 . S
C375 C374 1.390 . S
C375 C376 1.394 . S
C375 C381 1.465 1_655 S
C376 C371 1.399 . S
C376 C375 1.394 . S
C376 C377 1.517 1_655 S
C377 C376 1.517 1_455 S
C377 C378 1.502 . S
C377 C379 1.561 . S
C377 C380 1.525 . S
C378 H362 0.962 . S
C378 H363 0.979 . S
C378 H364 0.939 1_455 S
C378 C377 1.502 . S
C379 H365 0.957 1_455 S
C379 H366 0.963 . S
C379 H367 0.959 . S
C379 C377 1.561 . S
C380 C377 1.525 . S
C380 C381 1.396 . S
C380 C385 1.390 . S
C381 C375 1.465 1_455 S
C381 C380 1.396 . S
C381 C382 1.399 . S
C382 H368 0.929 . S
C382 C381 1.399 . S
C382 C383 1.385 . S
C383 H369 0.931 . S
C383 C382 1.385 . S
C383 C384 1.389 . S
C384 C383 1.389 . S
C384 C385 1.387 . S
C385 H370 0.930 . S
C385 C380 1.390 . S
C385 C384 1.387 . S
H386 C398 0.930 . S
H387 C400 0.930 . S
H388 C401 0.930 . S
H389 C405 0.959 . S
H390 C405 0.959 . S
H391 C405 0.961 . S
H392 C406 0.960 . S
H393 C406 0.961 . S
H394 C406 0.959 . S
H395 C409 0.929 . S
H396 C410 0.931 . S
H397 C412 0.930 . S
C398 H386 0.930 . S
C398 C399 1.399 . S
C398 C403 1.399 . S
C399 C398 1.399 . S
C399 C400 1.376 . S
C400 H387 0.930 . S
C400 C399 1.376 . S
C400 C401 1.388 . S
C401 H388 0.930 . S
C401 C400 1.388 . S
C401 C402 1.390 . S
C402 C401 1.390 . S
C402 C403 1.394 . S
C402 C408 1.465 . S
C403 C398 1.399 . S
C403 C402 1.394 . S
C403 C404 1.516 . S
C404 C403 1.516 . S
C404 C405 1.502 . S
C404 C406 1.561 . S
C404 C407 1.526 . S
C405 H389 0.959 . S
C405 H390 0.959 . S
C405 H391 0.961 . S
C405 C404 1.502 . S
C406 H392 0.960 . S
C406 H393 0.961 . S
C406 H394 0.959 . S
C406 C404 1.561 . S
C407 C404 1.526 . S
C407 C408 1.396 . S
C407 C412 1.390 . S
C408 C402 1.465 . S
C408 C407 1.396 . S
C408 C409 1.399 . S
C409 H395 0.929 . S
C409 C408 1.399 . S
C409 C410 1.385 . S
C410 H396 0.931 . S
C410 C409 1.385 . S
C410 C411 1.389 . S
C411 C410 1.389 . S
C411 C412 1.387 . S
C412 H397 0.930 . S
C412 C407 1.390 . S
C412 C411 1.387 . S
H413 C425 0.930 . S
H414 C427 0.930 . S
H415 C428 0.930 . S
H416 C432 0.959 . S
H417 C432 0.959 . S
H418 C432 0.961 . S
H419 C433 0.960 . S
H420 C433 0.961 . S
H421 C433 0.959 . S
H422 C436 0.929 . S
H423 C437 0.931 . S
H424 C439 0.930 . S
C425 H413 0.930 . S
C425 C426 1.399 . S
C425 C430 1.399 . S
C426 C425 1.399 . S
C426 C427 1.376 . S
C427 H414 0.930 . S
C427 C426 1.376 . S
C427 C428 1.388 . S
C428 H415 0.930 . S
C428 C427 1.388 . S
C428 C429 1.390 . S
C429 C428 1.390 . S
C429 C430 1.394 . S
C429 C435 1.465 . S
C430 C425 1.399 . S
C430 C429 1.394 . S
C430 C431 1.516 . S
C431 C430 1.516 . S
C431 C432 1.502 . S
C431 C433 1.561 . S
C431 C434 1.526 . S
C432 H416 0.959 . S
C432 H417 0.959 . S
C432 H418 0.961 . S
C432 C431 1.502 . S
C433 H419 0.960 . S
C433 H420 0.961 . S
C433 H421 0.959 . S
C433 C431 1.561 . S
C434 C431 1.526 . S
C434 C435 1.396 . S
C434 C439 1.390 . S
C435 C429 1.465 . S
C435 C434 1.396 . S
C435 C436 1.399 . S
C436 H422 0.929 . S
C436 C435 1.399 . S
C436 C437 1.385 . S
C437 H423 0.931 . S
C437 C436 1.385 . S
C437 C438 1.389 . S
C438 C437 1.389 . S
C438 C439 1.387 . S
C439 H424 0.930 . S
C439 C434 1.390 . S
C439 C438 1.387 . S
H440 C452 0.930 . S
H441 C454 0.930 . S
H442 C455 0.930 . S
H443 C459 0.959 . S
H444 C459 0.959 . S
H445 C459 0.961 . S
H446 C460 0.960 . S
H447 C460 0.961 . S
H448 C460 0.959 . S
H449 C463 0.929 . S
H450 C464 0.931 . S
H451 C466 0.930 . S
C452 H440 0.930 . S
C452 C453 1.399 . S
C452 C457 1.399 . S
C453 C452 1.399 . S
C453 C454 1.376 . S
C454 H441 0.930 . S
C454 C453 1.376 . S
C454 C455 1.388 . S
C455 H442 0.930 . S
C455 C454 1.388 . S
C455 C456 1.390 . S
C456 C455 1.390 . S
C456 C457 1.394 . S
C456 C462 1.465 . S
C457 C452 1.399 . S
C457 C456 1.394 . S
C457 C458 1.516 . S
C458 C457 1.516 . S
C458 C459 1.502 . S
C458 C460 1.561 . S
C458 C461 1.526 . S
C459 H443 0.959 . S
C459 H444 0.959 . S
C459 H445 0.961 . S
C459 C458 1.502 . S
C460 H446 0.960 . S
C460 H447 0.961 . S
C460 H448 0.959 . S
C460 C458 1.561 . S
C461 C458 1.526 . S
C461 C462 1.396 . S
C461 C466 1.390 . S
C462 C456 1.465 . S
C462 C461 1.396 . S
C462 C463 1.399 . S
C463 H449 0.929 . S
C463 C462 1.399 . S
C463 C464 1.385 . S
C464 H450 0.931 . S
C464 C463 1.385 . S
C464 C465 1.389 . S
C465 C464 1.389 . S
C465 C466 1.387 . S
C466 H451 0.930 . S
C466 C461 1.390 . S
C466 C465 1.387 . S
H467 C479 0.930 . S
H468 C481 0.930 . S
H469 C482 0.930 . S
H470 C486 0.959 . S
H471 C486 0.959 . S
H472 C486 0.961 . S
H473 C487 0.960 . S
H474 C487 0.961 . S
H475 C487 0.959 . S
H476 C490 0.929 . S
H477 C491 0.931 . S
H478 C493 0.930 . S
C479 H467 0.930 . S
C479 C480 1.399 . S
C479 C484 1.399 . S
C480 C479 1.399 . S
C480 C481 1.376 . S
C481 H468 0.930 . S
C481 C480 1.376 . S
C481 C482 1.388 . S
C482 H469 0.930 . S
C482 C481 1.388 . S
C482 C483 1.390 . S
C483 C482 1.390 . S
C483 C484 1.394 . S
C483 C489 1.465 . S
C484 C479 1.399 . S
C484 C483 1.394 . S
C484 C485 1.516 . S
C485 C484 1.516 . S
C485 C486 1.502 . S
C485 C487 1.561 . S
C485 C488 1.526 . S
C486 H470 0.959 . S
C486 H471 0.959 . S
C486 H472 0.961 . S
C486 C485 1.502 . S
C487 H473 0.960 . S
C487 H474 0.961 . S
C487 H475 0.959 . S
C487 C485 1.561 . S
C488 C485 1.526 . S
C488 C489 1.396 . S
C488 C493 1.390 . S
C489 C483 1.465 . S
C489 C488 1.396 . S
C489 C490 1.399 . S
C490 H476 0.929 . S
C490 C489 1.399 . S
C490 C491 1.385 . S
C491 H477 0.931 . S
C491 C490 1.385 . S
C491 C492 1.389 . S
C492 C491 1.389 . S
C492 C493 1.387 . S
C493 H478 0.930 . S
C493 C488 1.390 . S
C493 C492 1.387 . S
H494 C506 0.930 . S
H495 C508 0.930 . S
H496 C509 0.930 . S
H497 C513 0.959 . S
H498 C513 0.959 . S
H499 C513 0.961 . S
H500 C514 0.960 . S
H501 C514 0.961 . S
H502 C514 0.959 . S
H503 C517 0.929 . S
H504 C518 0.931 . S
H505 C520 0.930 . S
C506 H494 0.930 . S
C506 C507 1.399 . S
C506 C511 1.399 . S
C507 C506 1.399 . S
C507 C508 1.376 . S
C508 H495 0.930 . S
C508 C507 1.376 . S
C508 C509 1.388 . S
C509 H496 0.930 . S
C509 C508 1.388 . S
C509 C510 1.390 . S
C510 C509 1.390 . S
C510 C511 1.394 . S
C510 C516 1.465 . S
C511 C506 1.399 . S
C511 C510 1.394 . S
C511 C512 1.516 . S
C512 C511 1.516 . S
C512 C513 1.502 . S
C512 C514 1.561 . S
C512 C515 1.526 . S
C513 H497 0.959 . S
C513 H498 0.959 . S
C513 H499 0.961 . S
C513 C512 1.502 . S
C514 H500 0.960 . S
C514 H501 0.961 . S
C514 H502 0.959 . S
C514 C512 1.561 . S
C515 C512 1.526 . S
C515 C516 1.396 . S
C515 C520 1.390 . S
C516 C510 1.465 . S
C516 C515 1.396 . S
C516 C517 1.399 . S
C517 H503 0.929 . S
C517 C516 1.399 . S
C517 C518 1.385 . S
C518 H504 0.931 . S
C518 C517 1.385 . S
C518 C519 1.389 . S
C519 C518 1.389 . S
C519 C520 1.387 . S
C520 H505 0.930 . S
C520 C515 1.390 . S
C520 C519 1.387 . S
H521 C533 0.930 . S
H522 C535 0.930 . S
H523 C536 0.930 . S
H524 C540 0.959 . S
H525 C540 0.959 . S
H526 C540 0.961 . S
H527 C541 0.960 . S
H528 C541 0.961 . S
H529 C541 0.959 . S
H530 C544 0.929 . S
H531 C545 0.931 . S
H532 C547 0.930 . S
C533 H521 0.930 . S
C533 C534 1.399 . S
C533 C538 1.399 . S
C534 C533 1.399 . S
C534 C535 1.376 . S
C535 H522 0.930 . S
C535 C534 1.376 . S
C535 C536 1.388 . S
C536 H523 0.930 . S
C536 C535 1.388 . S
C536 C537 1.390 . S
C537 C536 1.390 . S
C537 C538 1.394 . S
C537 C543 1.465 . S
C538 C533 1.399 . S
C538 C537 1.394 . S
C538 C539 1.516 . S
C539 C538 1.516 . S
C539 C540 1.502 . S
C539 C541 1.561 . S
C539 C542 1.526 . S
C540 H524 0.959 . S
C540 H525 0.959 . S
C540 H526 0.961 . S
C540 C539 1.502 . S
C541 H527 0.960 . S
C541 H528 0.961 . S
C541 H529 0.959 . S
C541 C539 1.561 . S
C542 C539 1.526 . S
C542 C543 1.396 . S
C542 C547 1.390 . S
C543 C537 1.465 . S
C543 C542 1.396 . S
C543 C544 1.399 . S
C544 H530 0.929 . S
C544 C543 1.399 . S
C544 C545 1.385 . S
C545 H531 0.931 . S
C545 C544 1.385 . S
C545 C546 1.389 . S
C546 C545 1.389 . S
C546 C547 1.387 . S
C547 H532 0.930 . S
C547 C542 1.390 . S
C547 C546 1.387 . S
H548 C560 0.930 . S
H549 C562 0.930 . S
H550 C563 0.930 . S
H551 C567 0.962 . S
H552 C567 0.979 . S
H553 C567 0.939 1_455 S
H554 C568 0.957 1_455 S
H555 C568 0.963 . S
H556 C568 0.959 . S
H557 C571 0.929 . S
H558 C572 0.931 . S
H559 C574 0.930 . S
C560 H548 0.930 . S
C560 C561 1.399 . S
C560 C565 1.399 . S
C561 C560 1.399 . S
C561 C562 1.376 . S
C562 H549 0.930 . S
C562 C561 1.376 . S
C562 C563 1.388 . S
C563 H550 0.930 . S
C563 C562 1.388 . S
C563 C564 1.390 . S
C564 C563 1.390 . S
C564 C565 1.394 . S
C564 C570 1.465 1_455 S
C565 C560 1.399 . S
C565 C564 1.394 . S
C565 C566 1.517 1_455 S
C566 C565 1.517 1_655 S
C566 C567 1.502 . S
C566 C568 1.561 . S
C566 C569 1.525 . S
C567 H551 0.962 . S
C567 H552 0.979 . S
C567 H553 0.939 1_655 S
C567 C566 1.502 . S
C568 H554 0.957 1_655 S
C568 H555 0.963 . S
C568 H556 0.959 . S
C568 C566 1.561 . S
C569 C566 1.525 . S
C569 C570 1.396 . S
C569 C574 1.390 . S
C570 C564 1.465 1_655 S
C570 C569 1.396 . S
C570 C571 1.399 . S
C571 H557 0.929 . S
C571 C570 1.399 . S
C571 C572 1.385 . S
C572 H558 0.931 . S
C572 C571 1.385 . S
C572 C573 1.389 . S
C573 C572 1.389 . S
C573 C574 1.387 . S
C574 H559 0.930 . S
C574 C569 1.390 . S
C574 C573 1.387 . S
H575 C587 0.930 . S
H576 C589 0.930 . S
H577 C590 0.930 . S
H578 C594 0.959 . S
H579 C594 0.959 . S
H580 C594 0.961 . S
H581 C595 0.960 . S
H582 C595 0.961 . S
H583 C595 0.959 . S
H584 C598 0.929 . S
H585 C599 0.931 . S
H586 C601 0.930 . S
C587 H575 0.930 . S
C587 C588 1.399 . S
C587 C592 1.399 . S
C588 C587 1.399 . S
C588 C589 1.376 . S
C589 H576 0.930 . S
C589 C588 1.376 . S
C589 C590 1.388 . S
C590 H577 0.930 . S
C590 C589 1.388 . S
C590 C591 1.390 . S
C591 C590 1.390 . S
C591 C592 1.394 . S
C591 C597 1.465 . S
C592 C587 1.399 . S
C592 C591 1.394 . S
C592 C593 1.516 . S
C593 C592 1.516 . S
C593 C594 1.502 . S
C593 C595 1.561 . S
C593 C596 1.526 . S
C594 H578 0.959 . S
C594 H579 0.959 . S
C594 H580 0.961 . S
C594 C593 1.502 . S
C595 H581 0.960 . S
C595 H582 0.961 . S
C595 H583 0.959 . S
C595 C593 1.561 . S
C596 C593 1.526 . S
C596 C597 1.396 . S
C596 C601 1.390 . S
C597 C591 1.465 . S
C597 C596 1.396 . S
C597 C598 1.399 . S
C598 H584 0.929 . S
C598 C597 1.399 . S
C598 C599 1.385 . S
C599 H585 0.931 . S
C599 C598 1.385 . S
C599 C600 1.389 . S
C600 C599 1.389 . S
C600 C601 1.387 . S
C601 H586 0.930 . S
C601 C596 1.390 . S
C601 C600 1.387 . S
H602 C614 0.930 . S
H603 C616 0.930 . S
H604 C617 0.930 . S
H605 C621 0.959 . S
H606 C621 0.959 . S
H607 C621 0.961 . S
H608 C622 0.960 . S
H609 C622 0.961 . S
H610 C622 0.959 . S
H611 C625 0.929 . S
H612 C626 0.931 . S
H613 C628 0.930 . S
C614 H602 0.930 . S
C614 C615 1.399 . S
C614 C619 1.399 . S
C615 C614 1.399 . S
C615 C616 1.376 . S
C616 H603 0.930 . S
C616 C615 1.376 . S
C616 C617 1.388 . S
C617 H604 0.930 . S
C617 C616 1.388 . S
C617 C618 1.390 . S
C618 C617 1.390 . S
C618 C619 1.394 . S
C618 C624 1.465 . S
C619 C614 1.399 . S
C619 C618 1.394 . S
C619 C620 1.516 . S
C620 C619 1.516 . S
C620 C621 1.502 . S
C620 C622 1.561 . S
C620 C623 1.526 . S
C621 H605 0.959 . S
C621 H606 0.959 . S
C621 H607 0.961 . S
C621 C620 1.502 . S
C622 H608 0.960 . S
C622 H609 0.961 . S
C622 H610 0.959 . S
C622 C620 1.561 . S
C623 C620 1.526 . S
C623 C624 1.396 . S
C623 C628 1.390 . S
C624 C618 1.465 . S
C624 C623 1.396 . S
C624 C625 1.399 . S
C625 H611 0.929 . S
C625 C624 1.399 . S
C625 C626 1.385 . S
C626 H612 0.931 . S
C626 C625 1.385 . S
C626 C627 1.389 . S
C627 C626 1.389 . S
C627 C628 1.387 . S
C628 H613 0.930 . S
C628 C623 1.390 . S
C628 C627 1.387 . S
H629 C641 0.930 . S
H630 C643 0.930 . S
H631 C644 0.930 . S
H632 C648 0.962 . S
H633 C648 0.979 . S
H634 C648 0.939 1_455 S
H635 C649 0.957 1_455 S
H636 C649 0.963 . S
H637 C649 0.959 . S
H638 C652 0.929 . S
H639 C653 0.931 . S
H640 C655 0.930 . S
C641 H629 0.930 . S
C641 C642 1.399 . S
C641 C646 1.399 . S
C642 C641 1.399 . S
C642 C643 1.376 . S
C643 H630 0.930 . S
C643 C642 1.376 . S
C643 C644 1.388 . S
C644 H631 0.930 . S
C644 C643 1.388 . S
C644 C645 1.390 . S
C645 C644 1.390 . S
C645 C646 1.394 . S
C645 C651 1.465 1_455 S
C646 C641 1.399 . S
C646 C645 1.394 . S
C646 C647 1.517 1_455 S
C647 C646 1.517 1_655 S
C647 C648 1.502 . S
C647 C649 1.561 . S
C647 C650 1.525 . S
C648 H632 0.962 . S
C648 H633 0.979 . S
C648 H634 0.939 1_655 S
C648 C647 1.502 . S
C649 H635 0.957 1_655 S
C649 H636 0.963 . S
C649 H637 0.959 . S
C649 C647 1.561 . S
C650 C647 1.525 . S
C650 C651 1.396 . S
C650 C655 1.390 . S
C651 C645 1.465 1_655 S
C651 C650 1.396 . S
C651 C652 1.399 . S
C652 H638 0.929 . S
C652 C651 1.399 . S
C652 C653 1.385 . S
C653 H639 0.931 . S
C653 C652 1.385 . S
C653 C654 1.389 . S
C654 C653 1.389 . S
C654 C655 1.387 . S
C655 H640 0.930 . S
C655 C650 1.390 . S
C655 C654 1.387 . S
H656 C668 0.930 . S
H657 C670 0.930 . S
H658 C671 0.930 . S
H659 C675 0.959 . S
H660 C675 0.959 . S
H661 C675 0.961 1_554 S
H662 C676 0.960 . S
H663 C676 0.961 . S
H664 C676 0.959 . S
H665 C679 0.929 . S
H666 C680 0.931 . S
H667 C682 0.930 . S
C668 H656 0.930 . S
C668 C669 1.399 . S
C668 C673 1.399 . S
C669 C668 1.399 . S
C669 C670 1.376 . S
C670 H657 0.930 . S
C670 C669 1.376 . S
C670 C671 1.388 . S
C671 H658 0.930 . S
C671 C670 1.388 . S
C671 C672 1.390 . S
C672 C671 1.390 . S
C672 C673 1.394 . S
C672 C678 1.465 1_554 S
C673 C668 1.399 . S
C673 C672 1.394 . S
C673 C674 1.516 . S
C674 C673 1.516 . S
C674 C675 1.502 1_554 S
C674 C676 1.561 . S
C674 C677 1.526 1_554 S
C675 H659 0.959 . S
C675 H660 0.959 . S
C675 H661 0.961 1_556 S
C675 C674 1.502 1_556 S
C676 H662 0.960 . S
C676 H663 0.961 . S
C676 H664 0.959 . S
C676 C674 1.561 . S
C677 C674 1.526 1_556 S
C677 C678 1.396 . S
C677 C682 1.390 . S
C678 C672 1.465 1_556 S
C678 C677 1.396 . S
C678 C679 1.399 . S
C679 H665 0.929 . S
C679 C678 1.399 . S
C679 C680 1.385 . S
C680 H666 0.931 . S
C680 C679 1.385 . S
C680 C681 1.389 . S
C681 C680 1.389 . S
C681 C682 1.387 . S
C682 H667 0.930 . S
C682 C677 1.390 . S
C682 C681 1.387 . S
H683 C695 0.930 . S
H684 C697 0.930 . S
H685 C698 0.930 . S
H686 C702 0.959 . S
H687 C702 0.959 . S
H688 C702 0.961 . S
H689 C703 0.960 . S
H690 C703 0.961 . S
H691 C703 0.959 . S
H692 C706 0.929 . S
H693 C707 0.931 . S
H694 C709 0.930 . S
C695 H683 0.930 . S
C695 C696 1.399 . S
C695 C700 1.399 . S
C696 C695 1.399 . S
C696 C697 1.376 . S
C697 H684 0.930 . S
C697 C696 1.376 . S
C697 C698 1.388 . S
C698 H685 0.930 . S
C698 C697 1.388 . S
C698 C699 1.390 . S
C699 C698 1.390 . S
C699 C700 1.394 . S
C699 C705 1.465 . S
C700 C695 1.399 . S
C700 C699 1.394 . S
C700 C701 1.516 . S
C701 C700 1.516 . S
C701 C702 1.502 . S
C701 C703 1.561 . S
C701 C704 1.526 . S
C702 H686 0.959 . S
C702 H687 0.959 . S
C702 H688 0.961 . S
C702 C701 1.502 . S
C703 H689 0.960 . S
C703 H690 0.961 . S
C703 H691 0.959 . S
C703 C701 1.561 . S
C704 C701 1.526 . S
C704 C705 1.396 . S
C704 C709 1.390 . S
C705 C699 1.465 . S
C705 C704 1.396 . S
C705 C706 1.399 . S
C706 H692 0.929 . S
C706 C705 1.399 . S
C706 C707 1.385 . S
C707 H693 0.931 . S
C707 C706 1.385 . S
C707 C708 1.389 . S
C708 C707 1.389 . S
C708 C709 1.387 . S
C709 H694 0.930 . S
C709 C704 1.390 . S
C709 C708 1.387 . S
H710 C722 0.930 . S
H711 C724 0.930 . S
H712 C725 0.930 . S
H713 C729 0.959 . S
H714 C729 0.959 . S
H715 C729 0.961 . S
H716 C730 0.960 . S
H717 C730 0.961 . S
H718 C730 0.959 . S
H719 C733 0.929 . S
H720 C734 0.931 . S
H721 C736 0.930 . S
C722 H710 0.930 . S
C722 C723 1.399 . S
C722 C727 1.399 . S
C723 C722 1.399 . S
C723 C724 1.376 . S
C724 H711 0.930 . S
C724 C723 1.376 . S
C724 C725 1.388 . S
C725 H712 0.930 . S
C725 C724 1.388 . S
C725 C726 1.390 . S
C726 C725 1.390 . S
C726 C727 1.394 . S
C726 C732 1.465 . S
C727 C722 1.399 . S
C727 C726 1.394 . S
C727 C728 1.516 . S
C728 C727 1.516 . S
C728 C729 1.502 . S
C728 C730 1.561 . S
C728 C731 1.526 . S
C729 H713 0.959 . S
C729 H714 0.959 . S
C729 H715 0.961 . S
C729 C728 1.502 . S
C730 H716 0.960 . S
C730 H717 0.961 . S
C730 H718 0.959 . S
C730 C728 1.561 . S
C731 C728 1.526 . S
C731 C732 1.396 . S
C731 C736 1.390 . S
C732 C726 1.465 . S
C732 C731 1.396 . S
C732 C733 1.399 . S
C733 H719 0.929 . S
C733 C732 1.399 . S
C733 C734 1.385 . S
C734 H720 0.931 . S
C734 C733 1.385 . S
C734 C735 1.389 . S
C735 C734 1.389 . S
C735 C736 1.387 . S
C736 H721 0.930 . S
C736 C731 1.390 . S
C736 C735 1.387 . S
H737 C749 0.930 . S
H738 C751 0.930 . S
H739 C752 0.930 . S
H740 C756 0.959 . S
H741 C756 0.959 . S
H742 C756 0.961 . S
H743 C757 0.960 . S
H744 C757 0.961 . S
H745 C757 0.959 . S
H746 C760 0.929 . S
H747 C761 0.931 . S
H748 C763 0.930 . S
C749 H737 0.930 . S
C749 C750 1.399 . S
C749 C754 1.399 . S
C750 C749 1.399 . S
C750 C751 1.376 . S
C751 H738 0.930 . S
C751 C750 1.376 . S
C751 C752 1.388 . S
C752 H739 0.930 . S
C752 C751 1.388 . S
C752 C753 1.390 . S
C753 C752 1.390 . S
C753 C754 1.394 . S
C753 C759 1.465 . S
C754 C749 1.399 . S
C754 C753 1.394 . S
C754 C755 1.516 . S
C755 C754 1.516 . S
C755 C756 1.502 . S
C755 C757 1.561 . S
C755 C758 1.526 . S
C756 H740 0.959 . S
C756 H741 0.959 . S
C756 H742 0.961 . S
C756 C755 1.502 . S
C757 H743 0.960 . S
C757 H744 0.961 . S
C757 H745 0.959 . S
C757 C755 1.561 . S
C758 C755 1.526 . S
C758 C759 1.396 . S
C758 C763 1.390 . S
C759 C753 1.465 . S
C759 C758 1.396 . S
C759 C760 1.399 . S
C760 H746 0.929 . S
C760 C759 1.399 . S
C760 C761 1.385 . S
C761 H747 0.931 . S
C761 C760 1.385 . S
C761 C762 1.389 . S
C762 C761 1.389 . S
C762 C763 1.387 . S
C763 H748 0.930 . S
C763 C758 1.390 . S
C763 C762 1.387 . S
H764 C776 0.930 . S
H765 C778 0.930 . S
H766 C779 0.930 . S
H767 C783 0.959 . S
H768 C783 0.959 . S
H769 C783 0.961 . S
H770 C784 0.960 . S
H771 C784 0.961 . S
H772 C784 0.959 . S
H773 C787 0.929 . S
H774 C788 0.931 . S
H775 C790 0.930 . S
C776 H764 0.930 . S
C776 C777 1.399 . S
C776 C781 1.399 . S
C777 C776 1.399 . S
C777 C778 1.376 . S
C778 H765 0.930 . S
C778 C777 1.376 . S
C778 C779 1.388 1_556 S
C779 H766 0.930 . S
C779 C778 1.388 1_554 S
C779 C780 1.390 1_554 S
C780 C779 1.390 1_556 S
C780 C781 1.394 . S
C780 C786 1.465 1_556 S
C781 C776 1.399 . S
C781 C780 1.394 . S
C781 C782 1.516 . S
C782 C781 1.516 . S
C782 C783 1.502 . S
C782 C784 1.561 . S
C782 C785 1.526 1_556 S
C783 H767 0.959 . S
C783 H768 0.959 . S
C783 H769 0.961 . S
C783 C782 1.502 . S
C784 H770 0.960 . S
C784 H771 0.961 . S
C784 H772 0.959 . S
C784 C782 1.561 . S
C785 C782 1.526 1_554 S
C785 C786 1.396 . S
C785 C790 1.390 . S
C786 C780 1.465 1_554 S
C786 C785 1.396 . S
C786 C787 1.399 . S
C787 H773 0.929 . S
C787 C786 1.399 . S
C787 C788 1.385 . S
C788 H774 0.931 . S
C788 C787 1.385 . S
C788 C789 1.389 . S
C789 C788 1.389 . S
C789 C790 1.387 . S
C790 H775 0.930 . S
C790 C785 1.390 . S
C790 C789 1.387 . S
H791 C803 0.930 . S
H792 C805 0.930 . S
H793 C806 0.930 . S
H794 C810 0.959 . S
H795 C810 0.959 . S
H796 C810 0.961 . S
H797 C811 0.960 . S
H798 C811 0.961 . S
H799 C811 0.959 . S
H800 C814 0.929 . S
H801 C815 0.931 . S
H802 C817 0.930 . S
C803 H791 0.930 . S
C803 C804 1.399 . S
C803 C808 1.399 . S
C804 C803 1.399 . S
C804 C805 1.376 . S
C805 H792 0.930 . S
C805 C804 1.376 . S
C805 C806 1.388 . S
C806 H793 0.930 . S
C806 C805 1.388 . S
C806 C807 1.390 . S
C807 C806 1.390 . S
C807 C808 1.394 . S
C807 C813 1.465 . S
C808 C803 1.399 . S
C808 C807 1.394 . S
C808 C809 1.516 . S
C809 C808 1.516 . S
C809 C810 1.502 . S
C809 C811 1.561 . S
C809 C812 1.526 . S
C810 H794 0.959 . S
C810 H795 0.959 . S
C810 H796 0.961 . S
C810 C809 1.502 . S
C811 H797 0.960 . S
C811 H798 0.961 . S
C811 H799 0.959 . S
C811 C809 1.561 . S
C812 C809 1.526 . S
C812 C813 1.396 . S
C812 C817 1.390 . S
C813 C807 1.465 . S
C813 C812 1.396 . S
C813 C814 1.399 . S
C814 H800 0.929 . S
C814 C813 1.399 . S
C814 C815 1.385 . S
C815 H801 0.931 . S
C815 C814 1.385 . S
C815 C816 1.389 . S
C816 C815 1.389 . S
C816 C817 1.387 . S
C817 H802 0.930 . S
C817 C812 1.390 . S
C817 C816 1.387 . S
H818 C830 0.930 . S
H819 C832 0.930 . S
H820 C833 0.930 . S
H821 C837 0.959 . S
H822 C837 0.959 . S
H823 C837 0.961 . S
H824 C838 0.960 . S
H825 C838 0.961 . S
H826 C838 0.959 . S
H827 C841 0.929 . S
H828 C842 0.931 . S
H829 C844 0.930 . S
C830 H818 0.930 . S
C830 C831 1.399 . S
C830 C835 1.399 . S
C831 C830 1.399 . S
C831 C832 1.376 . S
C832 H819 0.930 . S
C832 C831 1.376 . S
C832 C833 1.388 . S
C833 H820 0.930 . S
C833 C832 1.388 . S
C833 C834 1.390 . S
C834 C833 1.390 . S
C834 C835 1.394 . S
C834 C840 1.465 . S
C835 C830 1.399 . S
C835 C834 1.394 . S
C835 C836 1.516 . S
C836 C835 1.516 . S
C836 C837 1.502 . S
C836 C838 1.561 . S
C836 C839 1.526 . S
C837 H821 0.959 . S
C837 H822 0.959 . S
C837 H823 0.961 . S
C837 C836 1.502 . S
C838 H824 0.960 . S
C838 H825 0.961 . S
C838 H826 0.959 . S
C838 C836 1.561 . S
C839 C836 1.526 . S
C839 C840 1.396 . S
C839 C844 1.390 . S
C840 C834 1.465 . S
C840 C839 1.396 . S
C840 C841 1.399 . S
C841 H827 0.929 . S
C841 C840 1.399 . S
C841 C842 1.385 . S
C842 H828 0.931 . S
C842 C841 1.385 . S
C842 C843 1.389 . S
C843 C842 1.389 . S
C843 C844 1.387 . S
C844 H829 0.930 . S
C844 C839 1.390 . S
C844 C843 1.387 . S
H845 C857 0.930 . S
H846 C859 0.930 . S
H847 C860 0.930 . S
H848 C864 0.959 . S
H849 C864 0.959 . S
H850 C864 0.961 . S
H851 C865 0.960 . S
H852 C865 0.961 . S
H853 C865 0.959 . S
H854 C868 0.929 . S
H855 C869 0.931 . S
H856 C871 0.930 . S
C857 H845 0.930 . S
C857 C858 1.399 . S
C857 C862 1.399 . S
C858 C857 1.399 . S
C858 C859 1.376 . S
C859 H846 0.930 . S
C859 C858 1.376 . S
C859 C860 1.388 . S
C860 H847 0.930 . S
C860 C859 1.388 . S
C860 C861 1.390 . S
C861 C860 1.390 . S
C861 C862 1.394 . S
C861 C867 1.465 . S
C862 C857 1.399 . S
C862 C861 1.394 . S
C862 C863 1.516 . S
C863 C862 1.516 . S
C863 C864 1.502 . S
C863 C865 1.561 . S
C863 C866 1.526 . S
C864 H848 0.959 . S
C864 H849 0.959 . S
C864 H850 0.961 . S
C864 C863 1.502 . S
C865 H851 0.960 . S
C865 H852 0.961 . S
C865 H853 0.959 . S
C865 C863 1.561 . S
C866 C863 1.526 . S
C866 C867 1.396 . S
C866 C871 1.390 . S
C867 C861 1.465 . S
C867 C866 1.396 . S
C867 C868 1.399 . S
C868 H854 0.929 . S
C868 C867 1.399 . S
C868 C869 1.385 . S
C869 H855 0.931 . S
C869 C868 1.385 . S
C869 C870 1.389 . S
C870 C869 1.389 . S
C870 C871 1.387 . S
C871 H856 0.930 . S
C871 C866 1.390 . S
C871 C870 1.387 . S
H872 C884 0.930 . S
H873 C886 0.930 . S
H874 C887 0.930 . S
H875 C891 0.959 1_545 S
H876 C891 0.959 . S
H877 C891 0.961 1_545 S
H878 C892 0.960 . S
H879 C892 0.961 . S
H880 C892 0.959 . S
H881 C895 0.929 . S
H882 C896 0.931 . S
H883 C898 0.930 . S
C884 H872 0.930 . S
C884 C885 1.399 . S
C884 C889 1.399 . S
C885 C884 1.399 . S
C885 C886 1.376 . S
C886 H873 0.930 . S
C886 C885 1.376 . S
C886 C887 1.388 . S
C887 H874 0.930 . S
C887 C886 1.388 . S
C887 C888 1.390 . S
C888 C887 1.390 . S
C888 C889 1.394 . S
C888 C894 1.465 1_545 S
C889 C884 1.399 . S
C889 C888 1.394 . S
C889 C890 1.516 1_545 S
C890 C889 1.516 1_565 S
C890 C891 1.502 . S
C890 C892 1.561 . S
C890 C893 1.526 . S
C891 H875 0.959 1_565 S
C891 H876 0.959 . S
C891 H877 0.961 1_565 S
C891 C890 1.502 . S
C892 H878 0.960 . S
C892 H879 0.961 . S
C892 H880 0.959 . S
C892 C890 1.561 . S
C893 C890 1.526 . S
C893 C894 1.396 . S
C893 C898 1.390 . S
C894 C888 1.465 1_565 S
C894 C893 1.396 . S
C894 C895 1.399 . S
C895 H881 0.929 . S
C895 C894 1.399 . S
C895 C896 1.385 . S
C896 H882 0.931 . S
C896 C895 1.385 . S
C896 C897 1.389 . S
C897 C896 1.389 . S
C897 C898 1.387 . S
C898 H883 0.930 . S
C898 C893 1.390 . S
C898 C897 1.387 . S
H899 C911 0.930 . S
H900 C913 0.930 . S
H901 C914 0.930 . S
H902 C918 0.959 . S
H903 C918 0.959 . S
H904 C918 0.961 . S
H905 C919 0.960 . S
H906 C919 0.961 . S
H907 C919 0.959 . S
H908 C922 0.929 . S
H909 C923 0.931 . S
H910 C925 0.930 . S
C911 H899 0.930 . S
C911 C912 1.399 . S
C911 C916 1.399 . S
C912 C911 1.399 . S
C912 C913 1.376 . S
C913 H900 0.930 . S
C913 C912 1.376 . S
C913 C914 1.388 . S
C914 H901 0.930 . S
C914 C913 1.388 . S
C914 C915 1.390 . S
C915 C914 1.390 . S
C915 C916 1.394 . S
C915 C921 1.465 . S
C916 C911 1.399 . S
C916 C915 1.394 . S
C916 C917 1.516 . S
C917 C916 1.516 . S
C917 C918 1.502 . S
C917 C919 1.561 . S
C917 C920 1.526 . S
C918 H902 0.959 . S
C918 H903 0.959 . S
C918 H904 0.961 . S
C918 C917 1.502 . S
C919 H905 0.960 . S
C919 H906 0.961 . S
C919 H907 0.959 . S
C919 C917 1.561 . S
C920 C917 1.526 . S
C920 C921 1.396 . S
C920 C925 1.390 . S
C921 C915 1.465 . S
C921 C920 1.396 . S
C921 C922 1.399 . S
C922 H908 0.929 . S
C922 C921 1.399 . S
C922 C923 1.385 . S
C923 H909 0.931 . S
C923 C922 1.385 . S
C923 C924 1.389 . S
C924 C923 1.389 . S
C924 C925 1.387 . S
C925 H910 0.930 . S
C925 C920 1.390 . S
C925 C924 1.387 . S
H926 C938 0.930 . S
H927 C940 0.930 . S
H928 C941 0.930 . S
H929 C945 0.959 . S
H930 C945 0.959 . S
H931 C945 0.961 . S
H932 C946 0.960 . S
H933 C946 0.961 . S
H934 C946 0.959 . S
H935 C949 0.929 1_545 S
H936 C950 0.931 . S
H937 C952 0.930 . S
C938 H926 0.930 . S
C938 C939 1.399 . S
C938 C943 1.399 . S
C939 C938 1.399 . S
C939 C940 1.376 . S
C940 H927 0.930 . S
C940 C939 1.376 . S
C940 C941 1.388 1_556 S
C941 H928 0.930 . S
C941 C940 1.388 1_554 S
C941 C942 1.390 . S
C942 C941 1.390 . S
C942 C943 1.394 1_554 S
C942 C948 1.465 1_545 S
C943 C938 1.399 . S
C943 C942 1.394 1_556 S
C943 C944 1.516 1_545 S
C944 C943 1.516 1_565 S
C944 C945 1.502 . S
C944 C946 1.561 . S
C944 C947 1.526 1_556 S
C945 H929 0.959 . S
C945 H930 0.959 . S
C945 H931 0.961 . S
C945 C944 1.502 . S
C946 H932 0.960 . S
C946 H933 0.961 . S
C946 H934 0.959 . S
C946 C944 1.561 . S
C947 C944 1.526 1_554 S
C947 C948 1.396 . S
C947 C952 1.390 . S
C948 C942 1.465 1_565 S
C948 C947 1.396 . S
C948 C949 1.399 . S
C949 H935 0.929 1_565 S
C949 C948 1.399 . S
C949 C950 1.385 . S
C950 H936 0.931 . S
C950 C949 1.385 . S
C950 C951 1.389 . S
C951 C950 1.389 . S
C951 C952 1.387 . S
C952 H937 0.930 . S
C952 C947 1.390 . S
C952 C951 1.387 . S
H953 C965 0.930 . S
H954 C967 0.930 . S
H955 C968 0.930 . S
H956 C972 0.959 . S
H957 C972 0.959 . S
H958 C972 0.961 . S
H959 C973 0.960 . S
H960 C973 0.961 . S
H961 C973 0.959 . S
H962 C976 0.929 . S
H963 C977 0.931 . S
H964 C979 0.930 . S
C965 H953 0.930 . S
C965 C966 1.399 . S
C965 C970 1.399 . S
C966 C965 1.399 . S
C966 C967 1.376 . S
C967 H954 0.930 . S
C967 C966 1.376 . S
C967 C968 1.388 . S
C968 H955 0.930 . S
C968 C967 1.388 . S
C968 C969 1.390 . S
C969 C968 1.390 . S
C969 C970 1.394 . S
C969 C975 1.465 . S
C970 C965 1.399 . S
C970 C969 1.394 . S
C970 C971 1.516 . S
C971 C970 1.516 . S
C971 C972 1.502 . S
C971 C973 1.561 . S
C971 C974 1.526 . S
C972 H956 0.959 . S
C972 H957 0.959 . S
C972 H958 0.961 . S
C972 C971 1.502 . S
C973 H959 0.960 . S
C973 H960 0.961 . S
C973 H961 0.959 . S
C973 C971 1.561 . S
C974 C971 1.526 . S
C974 C975 1.396 . S
C974 C979 1.390 . S
C975 C969 1.465 . S
C975 C974 1.396 . S
C975 C976 1.399 . S
C976 H962 0.929 . S
C976 C975 1.399 . S
C976 C977 1.385 . S
C977 H963 0.931 . S
C977 C976 1.385 . S
C977 C978 1.389 . S
C978 C977 1.389 . S
C978 C979 1.387 . S
C979 H964 0.930 . S
C979 C974 1.390 . S
C979 C978 1.387 . S
H980 C992 0.930 . S
H981 C994 0.930 . S
H982 C995 0.930 1_565 S
H983 C999 0.959 . S
H984 C999 0.959 . S
H985 C999 0.961 . S
H986 C1000 0.960 . S
H987 C1000 0.961 . S
H988 C1000 0.959 . S
H989 C1003 0.929 . S
H990 C1004 0.931 . S
H991 C1006 0.930 . S
C992 H980 0.930 . S
C992 C993 1.399 . S
C992 C997 1.399 . S
C993 C992 1.399 . S
C993 C994 1.376 . S
C994 H981 0.930 . S
C994 C993 1.376 . S
C994 C995 1.388 . S
C995 H982 0.930 1_545 S
C995 C994 1.388 . S
C995 C996 1.390 . S
C996 C995 1.390 . S
C996 C997 1.394 . S
C996 C1002 1.465 1_545 S
C997 C992 1.399 . S
C997 C996 1.394 . S
C997 C998 1.516 . S
C998 C997 1.516 . S
C998 C999 1.502 . S
C998 C1000 1.561 . S
C998 C1001 1.526 1_545 S
C999 H983 0.959 . S
C999 H984 0.959 . S
C999 H985 0.961 . S
C999 C998 1.502 . S
C1000 H986 0.960 . S
C1000 H987 0.961 . S
C1000 H988 0.959 . S
C1000 C998 1.561 . S
C1001 C998 1.526 1_565 S
C1001 C1002 1.396 . S
C1001 C1006 1.390 . S
C1002 C996 1.465 1_565 S
C1002 C1001 1.396 . S
C1002 C1003 1.399 . S
C1003 H989 0.929 . S
C1003 C1002 1.399 . S
C1003 C1004 1.385 . S
C1004 H990 0.931 . S
C1004 C1003 1.385 . S
C1004 C1005 1.389 . S
C1005 C1004 1.389 . S
C1005 C1006 1.387 . S
C1006 H991 0.930 . S
C1006 C1001 1.390 . S
C1006 C1005 1.387 . S
H1007 C1019 0.930 . S
H1008 C1021 0.930 . S
H1009 C1022 0.930 . S
H1010 C1026 0.959 . S
H1011 C1026 0.959 . S
H1012 C1026 0.961 . S
H1013 C1027 0.960 . S
H1014 C1027 0.961 . S
H1015 C1027 0.959 . S
H1016 C1030 0.929 . S
H1017 C1031 0.931 . S
H1018 C1033 0.930 . S
C1019 H1007 0.930 . S
C1019 C1020 1.399 . S
C1019 C1024 1.399 . S
C1020 C1019 1.399 . S
C1020 C1021 1.376 . S
C1021 H1008 0.930 . S
C1021 C1020 1.376 . S
C1021 C1022 1.388 . S
C1022 H1009 0.930 . S
C1022 C1021 1.388 . S
C1022 C1023 1.390 . S
C1023 C1022 1.390 . S
C1023 C1024 1.394 . S
C1023 C1029 1.465 . S
C1024 C1019 1.399 . S
C1024 C1023 1.394 . S
C1024 C1025 1.516 . S
C1025 C1024 1.516 . S
C1025 C1026 1.502 . S
C1025 C1027 1.561 . S
C1025 C1028 1.526 . S
C1026 H1010 0.959 . S
C1026 H1011 0.959 . S
C1026 H1012 0.961 . S
C1026 C1025 1.502 . S
C1027 H1013 0.960 . S
C1027 H1014 0.961 . S
C1027 H1015 0.959 . S
C1027 C1025 1.561 . S
C1028 C1025 1.526 . S
C1028 C1029 1.396 . S
C1028 C1033 1.390 . S
C1029 C1023 1.465 . S
C1029 C1028 1.396 . S
C1029 C1030 1.399 . S
C1030 H1016 0.929 . S
C1030 C1029 1.399 . S
C1030 C1031 1.385 . S
C1031 H1017 0.931 . S
C1031 C1030 1.385 . S
C1031 C1032 1.389 . S
C1032 C1031 1.389 . S
C1032 C1033 1.387 . S
C1033 H1018 0.930 . S
C1033 C1028 1.390 . S
C1033 C1032 1.387 . S
H1034 C1046 0.930 . S
H1035 C1048 0.930 . S
H1036 C1049 0.930 . S
H1037 C1053 0.959 . S
H1038 C1053 0.959 . S
H1039 C1053 0.961 . S
H1040 C1054 0.960 . S
H1041 C1054 0.961 . S
H1042 C1054 0.959 . S
H1043 C1057 0.929 1_565 S
H1044 C1058 0.931 . S
H1045 C1060 0.930 . S
C1046 H1034 0.930 . S
C1046 C1047 1.399 . S
C1046 C1051 1.399 . S
C1047 C1046 1.399 . S
C1047 C1048 1.376 . S
C1048 H1035 0.930 . S
C1048 C1047 1.376 . S
C1048 C1049 1.388 1_554 S
C1049 H1036 0.930 . S
C1049 C1048 1.388 1_556 S
C1049 C1050 1.390 1_556 S
C1050 C1049 1.390 1_554 S
C1050 C1051 1.394 . S
C1050 C1056 1.465 1_564 S
C1051 C1046 1.399 . S
C1051 C1050 1.394 . S
C1051 C1052 1.516 1_565 S
C1052 C1051 1.516 1_545 S
C1052 C1053 1.502 . S
C1052 C1054 1.561 . S
C1052 C1055 1.526 1_554 S
C1053 H1037 0.959 . S
C1053 H1038 0.959 . S
C1053 H1039 0.961 . S
C1053 C1052 1.502 . S
C1054 H1040 0.960 . S
C1054 H1041 0.961 . S
C1054 H1042 0.959 . S
C1054 C1052 1.561 . S
C1055 C1052 1.526 1_556 S
C1055 C1056 1.396 . S
C1055 C1060 1.390 . S
C1056 C1050 1.465 1_546 S
C1056 C1055 1.396 . S
C1056 C1057 1.399 . S
C1057 H1043 0.929 1_545 S
C1057 C1056 1.399 . S
C1057 C1058 1.385 . S
C1058 H1044 0.931 . S
C1058 C1057 1.385 . S
C1058 C1059 1.389 . S
C1059 C1058 1.389 . S
C1059 C1060 1.387 . S
C1060 H1045 0.930 . S
C1060 C1055 1.390 . S
C1060 C1059 1.387 . S
H1061 C1073 0.930 . S
H1062 C1075 0.930 . S
H1063 C1076 0.930 . S
H1064 C1080 0.959 . S
H1065 C1080 0.959 . S
H1066 C1080 0.961 . S
H1067 C1081 0.960 . S
H1068 C1081 0.961 . S
H1069 C1081 0.959 . S
H1070 C1084 0.929 . S
H1071 C1085 0.931 . S
H1072 C1087 0.930 . S
C1073 H1061 0.930 . S
C1073 C1074 1.399 . S
C1073 C1078 1.399 . S
C1074 C1073 1.399 . S
C1074 C1075 1.376 . S
C1075 H1062 0.930 . S
C1075 C1074 1.376 . S
C1075 C1076 1.388 . S
C1076 H1063 0.930 . S
C1076 C1075 1.388 . S
C1076 C1077 1.390 . S
C1077 C1076 1.390 . S
C1077 C1078 1.394 . S
C1077 C1083 1.465 . S
C1078 C1073 1.399 . S
C1078 C1077 1.394 . S
C1078 C1079 1.516 . S
C1079 C1078 1.516 . S
C1079 C1080 1.502 . S
C1079 C1081 1.561 . S
C1079 C1082 1.526 . S
C1080 H1064 0.959 . S
C1080 H1065 0.959 . S
C1080 H1066 0.961 . S
C1080 C1079 1.502 . S
C1081 H1067 0.960 . S
C1081 H1068 0.961 . S
C1081 H1069 0.959 . S
C1081 C1079 1.561 . S
C1082 C1079 1.526 . S
C1082 C1083 1.396 . S
C1082 C1087 1.390 . S
C1083 C1077 1.465 . S
C1083 C1082 1.396 . S
C1083 C1084 1.399 . S
C1084 H1070 0.929 . S
C1084 C1083 1.399 . S
C1084 C1085 1.385 . S
C1085 H1071 0.931 . S
C1085 C1084 1.385 . S
C1085 C1086 1.389 . S
C1086 C1085 1.389 . S
C1086 C1087 1.387 . S
C1087 H1072 0.930 . S
C1087 C1082 1.390 . S
C1087 C1086 1.387 . S
C237 C163 1.450 . S
C249 C8 1.450 . S
C264 C219 1.443 . S
C276 C23 1.436 . S
C291 C36 1.404 . S
C303 C134 1.397 . S
C318 C191 1.405 . S
C330 C50 1.398 . S
C345 C64 1.437 . S
C357 C190 1.444 . S
C372 C79 1.443 . S
C384 C162 1.448 . S
C399 C93 1.406 . S
C411 C218 1.399 . S
C426 C107 1.392 . S
C438 C135 1.397 . S
C453 C51 1.402 . S
C465 C120 1.396 . S
C480 C148 1.396 . S
C492 C22 1.392 . S
C507 C176 1.448 . S
C519 C78 1.450 . S
C534 C205 1.446 . S
C546 C106 1.450 . S
C561 C65 1.395 . S
C573 C121 1.402 . S
C588 C149 1.401 . S
C600 C92 1.395 . S
C615 C204 1.445 . S
C627 C37 1.449 . S
C642 C9 1.439 . S
C654 C177 1.430 . S
C669 C7 1.413 . S
C681 C63 1.410 . S
C696 C20 1.393 . S
C708 C76 1.445 . S
C723 C35 1.396 . S
C735 C90 1.429 . S
C750 C104 1.418 . S
C762 C49 1.434 . S
C777 C119 1.415 . S
C789 C175 1.445 . S
C804 C188 1.395 . S
C816 C132 1.414 . S
C831 C147 1.434 . S
C843 C202 1.392 . S
C858 C216 1.392 . S
C870 C161 1.424 . S
C885 C105 1.407 . S
C897 C21 1.415 . S
C912 C34 1.411 . S
C924 C62 1.439 . S
C939 C48 1.394 . S
C951 C77 1.445 . S
C966 C6 1.410 . S
C978 C91 1.440 . S
C993 C133 1.418 . S
C1005 C217 1.394 . S
C1020 C174 1.445 . S
C1032 C146 1.414 . S
C1047 C160 1.414 . S
C1059 C189 1.445 . S
C1074 C203 1.443 . S
C1086 C118 1.421 . S
