# Generated by pormake.
# Topology ukd, (4)-cn, num edge types: 1
# Building blocks:
#     Node 0, Type 0, BuildingBlock: KUFVIS_clean_sbu_0, # of connection points: 4
#     Node 1, Type 0, BuildingBlock: KUFVIS_clean_sbu_0, # of connection points: 4
#     Node 2, Type 0, BuildingBlock: KUFVIS_clean_sbu_0, # of connection points: 4
#     Node 3, Type 0, BuildingBlock: KUFVIS_clean_sbu_0, # of connection points: 4
#     Node 4, Type 0, BuildingBlock: KUFVIS_clean_sbu_0, # of connection points: 4
#     Node 5, Type 0, BuildingBlock: KUFVIS_clean_sbu_0, # of connection points: 4
#     Node 6, Type 0, BuildingBlock: KUFVIS_clean_sbu_0, # of connection points: 4
#     Node 7, Type 0, BuildingBlock: KUFVIS_clean_sbu_0, # of connection points: 4
#     Node 8, Type 0, BuildingBlock: KUFVIS_clean_sbu_0, # of connection points: 4
#     Node 9, Type 0, BuildingBlock: KUFVIS_clean_sbu_0, # of connection points: 4
#     Node 10, Type 0, BuildingBlock: KUFVIS_clean_sbu_0, # of connection points: 4
#     Node 11, Type 0, BuildingBlock: KUFVIS_clean_sbu_0, # of connection points: 4
#     Node 12, Type 0, BuildingBlock: KUFVIS_clean_sbu_0, # of connection points: 4
#     Node 13, Type 0, BuildingBlock: KUFVIS_clean_sbu_0, # of connection points: 4
#     Node 14, Type 0, BuildingBlock: KUFVIS_clean_sbu_0, # of connection points: 4
#     Node 15, Type 0, BuildingBlock: KUFVIS_clean_sbu_0, # of connection points: 4
#     Node 16, Type 0, BuildingBlock: KUFVIS_clean_sbu_0, # of connection points: 4
#     Node 17, Type 0, BuildingBlock: KUFVIS_clean_sbu_0, # of connection points: 4
#     Node 18, Type 0, BuildingBlock: KUFVIS_clean_sbu_0, # of connection points: 4
#     Node 19, Type 0, BuildingBlock: KUFVIS_clean_sbu_0, # of connection points: 4
#     Node 20, Type 0, BuildingBlock: KUFVIS_clean_sbu_0, # of connection points: 4
#     Node 21, Type 0, BuildingBlock: KUFVIS_clean_sbu_0, # of connection points: 4
#     Node 22, Type 0, BuildingBlock: KUFVIS_clean_sbu_0, # of connection points: 4
#     Node 23, Type 0, BuildingBlock: KUFVIS_clean_sbu_0, # of connection points: 4
#     Node 24, Type 0, BuildingBlock: KUFVIS_clean_sbu_0, # of connection points: 4
#     Node 25, Type 0, BuildingBlock: KUFVIS_clean_sbu_0, # of connection points: 4
#     Node 26, Type 0, BuildingBlock: KUFVIS_clean_sbu_0, # of connection points: 4
#     Node 27, Type 0, BuildingBlock: KUFVIS_clean_sbu_0, # of connection points: 4
#     Node 28, Type 0, BuildingBlock: KUFVIS_clean_sbu_0, # of connection points: 4
#     Node 29, Type 0, BuildingBlock: KUFVIS_clean_sbu_0, # of connection points: 4
#     Node 30, Type 0, BuildingBlock: KUFVIS_clean_sbu_0, # of connection points: 4
#     Node 31, Type 0, BuildingBlock: KUFVIS_clean_sbu_0, # of connection points: 4
#     Edge 32, Type (0, 0), BuildingBlock: XUDNAN_clean_linker_2, # of connection points: 2
#     Edge 33, Type (0, 0), BuildingBlock: XUDNAN_clean_linker_2, # of connection points: 2
#     Edge 34, Type (0, 0), BuildingBlock: XUDNAN_clean_linker_2, # of connection points: 2
#     Edge 35, Type (0, 0), BuildingBlock: XUDNAN_clean_linker_2, # of connection points: 2
#     Edge 36, Type (0, 0), BuildingBlock: XUDNAN_clean_linker_2, # of connection points: 2
#     Edge 37, Type (0, 0), BuildingBlock: XUDNAN_clean_linker_2, # of connection points: 2
#     Edge 38, Type (0, 0), BuildingBlock: XUDNAN_clean_linker_2, # of connection points: 2
#     Edge 39, Type (0, 0), BuildingBlock: XUDNAN_clean_linker_2, # of connection points: 2
#     Edge 40, Type (0, 0), BuildingBlock: XUDNAN_clean_linker_2, # of connection points: 2
#     Edge 41, Type (0, 0), BuildingBlock: XUDNAN_clean_linker_2, # of connection points: 2
#     Edge 42, Type (0, 0), BuildingBlock: XUDNAN_clean_linker_2, # of connection points: 2
#     Edge 43, Type (0, 0), BuildingBlock: XUDNAN_clean_linker_2, # of connection points: 2
#     Edge 44, Type (0, 0), BuildingBlock: XUDNAN_clean_linker_2, # of connection points: 2
#     Edge 45, Type (0, 0), BuildingBlock: XUDNAN_clean_linker_2, # of connection points: 2
#     Edge 46, Type (0, 0), BuildingBlock: XUDNAN_clean_linker_2, # of connection points: 2
#     Edge 47, Type (0, 0), BuildingBlock: XUDNAN_clean_linker_2, # of connection points: 2
#     Edge 48, Type (0, 0), BuildingBlock: XUDNAN_clean_linker_2, # of connection points: 2
#     Edge 49, Type (0, 0), BuildingBlock: XUDNAN_clean_linker_2, # of connection points: 2
#     Edge 50, Type (0, 0), BuildingBlock: XUDNAN_clean_linker_2, # of connection points: 2
#     Edge 51, Type (0, 0), BuildingBlock: XUDNAN_clean_linker_2, # of connection points: 2
#     Edge 52, Type (0, 0), BuildingBlock: XUDNAN_clean_linker_2, # of connection points: 2
#     Edge 53, Type (0, 0), BuildingBlock: XUDNAN_clean_linker_2, # of connection points: 2
#     Edge 54, Type (0, 0), BuildingBlock: XUDNAN_clean_linker_2, # of connection points: 2
#     Edge 55, Type (0, 0), BuildingBlock: XUDNAN_clean_linker_2, # of connection points: 2
#     Edge 56, Type (0, 0), BuildingBlock: XUDNAN_clean_linker_2, # of connection points: 2
#     Edge 57, Type (0, 0), BuildingBlock: XUDNAN_clean_linker_2, # of connection points: 2
#     Edge 58, Type (0, 0), BuildingBlock: XUDNAN_clean_linker_2, # of connection points: 2
#     Edge 59, Type (0, 0), BuildingBlock: XUDNAN_clean_linker_2, # of connection points: 2
#     Edge 60, Type (0, 0), BuildingBlock: XUDNAN_clean_linker_2, # of connection points: 2
#     Edge 61, Type (0, 0), BuildingBlock: XUDNAN_clean_linker_2, # of connection points: 2
#     Edge 62, Type (0, 0), BuildingBlock: XUDNAN_clean_linker_2, # of connection points: 2
#     Edge 63, Type (0, 0), BuildingBlock: XUDNAN_clean_linker_2, # of connection points: 2
#     Edge 64, Type (0, 0), BuildingBlock: XUDNAN_clean_linker_2, # of connection points: 2
#     Edge 65, Type (0, 0), BuildingBlock: XUDNAN_clean_linker_2, # of connection points: 2
#     Edge 66, Type (0, 0), BuildingBlock: XUDNAN_clean_linker_2, # of connection points: 2
#     Edge 67, Type (0, 0), BuildingBlock: XUDNAN_clean_linker_2, # of connection points: 2
#     Edge 68, Type (0, 0), BuildingBlock: XUDNAN_clean_linker_2, # of connection points: 2
#     Edge 69, Type (0, 0), BuildingBlock: XUDNAN_clean_linker_2, # of connection points: 2
#     Edge 70, Type (0, 0), BuildingBlock: XUDNAN_clean_linker_2, # of connection points: 2
#     Edge 71, Type (0, 0), BuildingBlock: XUDNAN_clean_linker_2, # of connection points: 2
#     Edge 72, Type (0, 0), BuildingBlock: XUDNAN_clean_linker_2, # of connection points: 2
#     Edge 73, Type (0, 0), BuildingBlock: XUDNAN_clean_linker_2, # of connection points: 2
#     Edge 74, Type (0, 0), BuildingBlock: XUDNAN_clean_linker_2, # of connection points: 2
#     Edge 75, Type (0, 0), BuildingBlock: XUDNAN_clean_linker_2, # of connection points: 2
#     Edge 76, Type (0, 0), BuildingBlock: XUDNAN_clean_linker_2, # of connection points: 2
#     Edge 77, Type (0, 0), BuildingBlock: XUDNAN_clean_linker_2, # of connection points: 2
#     Edge 78, Type (0, 0), BuildingBlock: XUDNAN_clean_linker_2, # of connection points: 2
#     Edge 79, Type (0, 0), BuildingBlock: XUDNAN_clean_linker_2, # of connection points: 2
#     Edge 80, Type (0, 0), BuildingBlock: XUDNAN_clean_linker_2, # of connection points: 2
#     Edge 81, Type (0, 0), BuildingBlock: XUDNAN_clean_linker_2, # of connection points: 2
#     Edge 82, Type (0, 0), BuildingBlock: XUDNAN_clean_linker_2, # of connection points: 2
#     Edge 83, Type (0, 0), BuildingBlock: XUDNAN_clean_linker_2, # of connection points: 2
#     Edge 84, Type (0, 0), BuildingBlock: XUDNAN_clean_linker_2, # of connection points: 2
#     Edge 85, Type (0, 0), BuildingBlock: XUDNAN_clean_linker_2, # of connection points: 2
#     Edge 86, Type (0, 0), BuildingBlock: XUDNAN_clean_linker_2, # of connection points: 2
#     Edge 87, Type (0, 0), BuildingBlock: XUDNAN_clean_linker_2, # of connection points: 2
#     Edge 88, Type (0, 0), BuildingBlock: XUDNAN_clean_linker_2, # of connection points: 2
#     Edge 89, Type (0, 0), BuildingBlock: XUDNAN_clean_linker_2, # of connection points: 2
#     Edge 90, Type (0, 0), BuildingBlock: XUDNAN_clean_linker_2, # of connection points: 2
#     Edge 91, Type (0, 0), BuildingBlock: XUDNAN_clean_linker_2, # of connection points: 2
#     Edge 92, Type (0, 0), BuildingBlock: XUDNAN_clean_linker_2, # of connection points: 2
#     Edge 93, Type (0, 0), BuildingBlock: XUDNAN_clean_linker_2, # of connection points: 2
#     Edge 94, Type (0, 0), BuildingBlock: XUDNAN_clean_linker_2, # of connection points: 2
#     Edge 95, Type (0, 0), BuildingBlock: XUDNAN_clean_linker_2, # of connection points: 2
# Relax obj value: 0.060
# Max RMSD: 0.102
# Mean RMSD: 0.100
data_MOF--net-ukd--node1-KUFVIS_clean_sbu_0--edge1-XUDNAN_clean_linker_2
_symmetry_space_group_name_H-M    P1
_symmetry_Int_Tables_number       1
_symmetry_cell_setting            triclinic
loop_
_symmetry_equiv_pos_as_xyz
'x, y, z'
_cell_length_a     44.600697
_cell_length_b     44.601262
_cell_length_c     72.485331
_cell_angle_alpha  90.015473
_cell_angle_beta   89.974109
_cell_angle_gamma 90.007275
loop_
_atom_site_label
_atom_site_type_symbol
_atom_site_fract_x
_atom_site_fract_y
_atom_site_fract_z
_atom_type_partial_charge
Mn0 Mn 0.22251 0.18375 0.34833 0.0
Mn1 Mn 0.16186 0.2117 0.32626 0.0
C2 C 0.17497 0.16587 0.35508 0.0
C3 C 0.26092 0.1481 0.35055 0.0
C4 C 0.19349 0.24432 0.35727 0.0
O5 O 0.24106 0.20465 0.32589 0.0
O6 O 0.19872 0.22133 0.31223 0.0
C7 C 0.16407 0.17258 0.29329 0.0
N8 N 0.14888 0.18332 0.3082 0.0
C9 C 0.10549 0.15364 0.30073 0.0
C10 C 0.1206 0.14239 0.28524 0.0
C11 C 0.15004 0.15186 0.28153 0.0
C12 C 0.1206 0.17428 0.31193 0.0
H13 H 0.18674 0.17972 0.29043 0.0
C14 C 0.22724 0.21845 0.31296 0.0
O15 O 0.26281 0.17365 0.35909 0.0
O16 O 0.23777 0.14425 0.34002 0.0
N17 N 0.12444 0.20393 0.33825 0.0
C18 C 0.11339 0.21617 0.35408 0.0
C19 C 0.08419 0.20894 0.35978 0.0
C20 C 0.06666 0.18928 0.34914 0.0
C21 C 0.07849 0.17701 0.33291 0.0
C22 C 0.10755 0.18541 0.32776 0.0
H23 H 0.12675 0.23136 0.36226 0.0
O24 O 0.19662 0.16281 0.36686 0.0
O25 O 0.18179 0.1793 0.33973 0.0
O26 O 0.21337 0.2244 0.36056 0.0
O27 O 0.17344 0.24188 0.34479 0.0
C28 C 0.06268 0.1566 0.32171 0.0
C29 C 0.07622 0.14483 0.30566 0.0
H30 H 0.1099 0.12632 0.27617 0.0
H31 H 0.1619 0.14318 0.26965 0.0
H32 H 0.0752 0.21848 0.37235 0.0
H33 H 0.04415 0.18371 0.35359 0.0
H34 H 0.04023 0.14956 0.32541 0.0
H35 H 0.06398 0.12888 0.29728 0.0
Mn36 Mn 0.07194 0.96253 0.58944 0.0
Mn37 Mn 0.05421 0.89592 0.56982 0.0
C38 C 0.08599 0.91823 0.60369 0.0
C39 C 0.10547 0.00276 0.59206 0.0
C40 C 0.00991 0.93402 0.59138 0.0
O41 O 0.05907 0.97435 0.56337 0.0
O42 O 0.05321 0.92827 0.55106 0.0
C43 C 0.10732 0.88967 0.54564 0.0
N44 N 0.08925 0.8785 0.55913 0.0
C45 C 0.1162 0.83182 0.55946 0.0
C46 C 0.13493 0.84268 0.54543 0.0
C47 C 0.13067 0.87187 0.53863 0.0
C48 C 0.09389 0.85092 0.56627 0.0
H49 H 0.10386 0.91194 0.54025 0.0
C50 C 0.05386 0.95685 0.54981 0.0
O51 O 0.07754 0.00558 0.59689 0.0
O52 O 0.1133 0.97719 0.58506 0.0
N53 N 0.05415 0.86192 0.58595 0.0
C54 C 0.0334 0.85425 0.59893 0.0
C55 C 0.03514 0.82614 0.60757 0.0
C56 C 0.05741 0.80566 0.60223 0.0
C57 C 0.07758 0.81343 0.58819 0.0
C58 C 0.07523 0.84208 0.58042 0.0
H59 H 0.01562 0.86942 0.60267 0.0
O60 O 0.08549 0.9432 0.61282 0.0
O61 O 0.07942 0.91994 0.58625 0.0
O62 O 0.02798 0.9547 0.59639 0.0
O63 O 0.01713 0.91195 0.58105 0.0
C64 C 0.09934 0.79354 0.58122 0.0
C65 C 0.11858 0.80271 0.56682 0.0
H66 H 0.15267 0.82884 0.5398 0.0
H67 H 0.14511 0.88049 0.52786 0.0
H68 H 0.01907 0.82011 0.61813 0.0
H69 H 0.05844 0.78383 0.60875 0.0
H70 H 0.10154 0.77116 0.58686 0.0
H71 H 0.1354 0.78729 0.56169 0.0
Mn72 Mn 0.28155 0.81888 0.85057 0.0
Mn73 Mn 0.34761 0.80718 0.82885 0.0
C74 C 0.3257 0.83508 0.86382 0.0
C75 C 0.23813 0.84633 0.85693 0.0
C76 C 0.31817 0.76026 0.85199 0.0
O77 O 0.26786 0.80931 0.82453 0.0
O78 O 0.31285 0.79626 0.81307 0.0
C79 C 0.33867 0.85528 0.80121 0.0
N80 N 0.35578 0.84223 0.81455 0.0
C81 C 0.39676 0.87577 0.80835 0.0
C82 C 0.37962 0.88956 0.79453 0.0
C83 C 0.35033 0.87945 0.79108 0.0
C84 C 0.38352 0.85253 0.81846 0.0
H85 H 0.31641 0.84718 0.79822 0.0
C86 C 0.28438 0.79849 0.81187 0.0
O87 O 0.23936 0.8176 0.8596 0.0
O88 O 0.26178 0.85902 0.84999 0.0
N89 N 0.38427 0.81606 0.84143 0.0
C90 C 0.39857 0.79923 0.85443 0.0
C91 C 0.42799 0.80659 0.85962 0.0
C92 C 0.44307 0.83004 0.85065 0.0
C93 C 0.42855 0.84592 0.83656 0.0
C94 C 0.39877 0.83842 0.83252 0.0
H95 H 0.38757 0.78037 0.86083 0.0
O96 O 0.30202 0.83034 0.87378 0.0
O97 O 0.32304 0.83103 0.84607 0.0
O98 O 0.29368 0.7746 0.85442 0.0
O99 O 0.34094 0.77087 0.84358 0.0
C100 C 0.44275 0.86833 0.82599 0.0
C101 C 0.42669 0.88367 0.81215 0.0
H102 H 0.38879 0.90778 0.78642 0.0
H103 H 0.33695 0.88994 0.78043 0.0
H104 H 0.43924 0.79378 0.87024 0.0
H105 H 0.46598 0.83527 0.85442 0.0
H106 H 0.46589 0.87434 0.82864 0.0
H107 H 0.4377 0.90125 0.80438 0.0
Mn108 Mn 0.43218 0.03716 0.09884 0.0
Mn109 Mn 0.44783 0.10207 0.07638 0.0
C110 C 0.41314 0.08196 0.11004 0.0
C111 C 0.40425 0.99341 0.10307 0.0
C112 C 0.4914 0.07131 0.10213 0.0
O113 O 0.44867 0.02283 0.07398 0.0
O114 O 0.45405 0.0674 0.05973 0.0
C115 C 0.39798 0.10017 0.04947 0.0
N116 N 0.41321 0.11481 0.06303 0.0
C117 C 0.38315 0.15907 0.05905 0.0
C118 C 0.36718 0.14454 0.04499 0.0
C119 C 0.37445 0.11484 0.0403 0.0
C120 C 0.40568 0.14295 0.06811 0.0
H121 H 0.40388 0.07755 0.04564 0.0
C122 C 0.45523 0.03881 0.05995 0.0
O123 O 0.43194 0.99538 0.10832 0.0
O124 O 0.39283 0.01654 0.09474 0.0
N125 N 0.44327 0.13835 0.0902 0.0
C126 C 0.46197 0.14985 0.10329 0.0
C127 C 0.45756 0.17926 0.10966 0.0
C128 C 0.43487 0.19705 0.1019 0.0
C129 C 0.41694 0.1853 0.08776 0.0
C130 C 0.4218 0.15555 0.08236 0.0
H131 H 0.48006 0.13666 0.10894 0.0
O132 O 0.41456 0.05837 0.12045 0.0
O133 O 0.42173 0.07854 0.09297 0.0
O134 O 0.47402 0.05013 0.10708 0.0
O135 O 0.4845 0.09113 0.09016 0.0
C136 C 0.39512 0.20229 0.0784 0.0
C137 C 0.378 0.18909 0.06418 0.0
H138 H 0.3494 0.15599 0.03765 0.0
H139 H 0.36223 0.10344 0.02947 0.0
H140 H 0.4719 0.18834 0.12032 0.0
H141 H 0.43181 0.21987 0.10665 0.0
H142 H 0.39106 0.22545 0.08216 0.0
H143 H 0.36098 0.20227 0.05727 0.0
Mn144 Mn 0.21652 0.81858 0.15647 0.0
Mn145 Mn 0.15615 0.80566 0.1836 0.0
C146 C 0.17176 0.84285 0.15043 0.0
C147 C 0.2606 0.84442 0.14941 0.0
C148 C 0.17721 0.76251 0.154 0.0
O149 O 0.23459 0.79825 0.17923 0.0
O150 O 0.19322 0.79413 0.19694 0.0
C151 C 0.16837 0.85134 0.21227 0.0
N152 N 0.14974 0.83948 0.1993 0.0
C153 C 0.1117 0.87619 0.20595 0.0
C154 C 0.13039 0.88866 0.21948 0.0
C155 C 0.15888 0.87622 0.22261 0.0
C156 C 0.12236 0.85138 0.1961 0.0
H157 H 0.19032 0.84191 0.21467 0.0
C158 C 0.22143 0.79105 0.19427 0.0
O159 O 0.25572 0.8175 0.14331 0.0
O160 O 0.24055 0.85584 0.16033 0.0
N161 N 0.11849 0.8159 0.17268 0.0
C162 C 0.1035 0.80161 0.15886 0.0
C163 C 0.07461 0.81124 0.15402 0.0
C164 C 0.06145 0.83549 0.16338 0.0
C165 C 0.07718 0.84964 0.17767 0.0
C166 C 0.10568 0.83867 0.18213 0.0
H167 H 0.11344 0.78292 0.15163 0.0
O168 O 0.19201 0.84025 0.13768 0.0
O169 O 0.17851 0.83165 0.16649 0.0
O170 O 0.1986 0.77875 0.14802 0.0
O171 O 0.16047 0.76979 0.16759 0.0
C172 C 0.06579 0.87432 0.18759 0.0
C173 C 0.08309 0.88766 0.20167 0.0
H174 H 0.12319 0.90792 0.22744 0.0
H175 H 0.1735 0.88582 0.23296 0.0
H176 H 0.06252 0.8 0.14309 0.0
H177 H 0.03926 0.84306 0.15948 0.0
H178 H 0.04389 0.88341 0.18436 0.0
H179 H 0.07425 0.90684 0.20905 0.0
Mn180 Mn 0.4316 0.95597 0.4059 0.0
Mn181 Mn 0.44917 0.89263 0.42893 0.0
C182 C 0.41274 0.90993 0.39647 0.0
C183 C 0.39986 0.99646 0.39971 0.0
C184 C 0.49111 0.9219 0.4018 0.0
O185 O 0.44662 0.97251 0.43054 0.0
O186 O 0.46023 0.92871 0.44362 0.0
C187 C 0.40464 0.90002 0.45892 0.0
N188 N 0.41627 0.88339 0.44487 0.0
C189 C 0.38002 0.84424 0.44987 0.0
C190 C 0.36778 0.86088 0.46446 0.0
C191 C 0.38012 0.88891 0.46898 0.0
C192 C 0.40447 0.85646 0.44036 0.0
H193 H 0.41395 0.92163 0.46241 0.0
C194 C 0.45834 0.95739 0.44369 0.0
O195 O 0.42783 0.99699 0.39475 0.0
O196 O 0.39109 0.97362 0.40934 0.0
N197 N 0.4396 0.8559 0.41661 0.0
C198 C 0.45393 0.84274 0.40212 0.0
C199 C 0.44457 0.81438 0.39601 0.0
C200 C 0.4206 0.79985 0.40487 0.0
C201 C 0.40637 0.81372 0.41984 0.0
C202 C 0.41705 0.84175 0.42554 0.0
H203 H 0.47242 0.85376 0.3953 0.0
O204 O 0.41518 0.93188 0.38485 0.0
O205 O 0.42186 0.91541 0.41316 0.0
O206 O 0.47482 0.94487 0.39868 0.0
O207 O 0.48348 0.90032 0.41238 0.0
C208 C 0.38197 0.80086 0.42932 0.0
C209 C 0.36872 0.81617 0.44428 0.0
H210 H 0.34881 0.85243 0.47222 0.0
H211 H 0.37072 0.90195 0.48017 0.0
H212 H 0.4558 0.80375 0.3845 0.0
H213 H 0.41333 0.77803 0.40008 0.0
H214 H 0.37309 0.77929 0.42514 0.0
H215 H 0.3498 0.80618 0.45136 0.0
Mn216 Mn 0.28162 0.18314 0.6542 0.0
Mn217 Mn 0.3414 0.19666 0.68162 0.0
C218 C 0.32826 0.16341 0.647 0.0
C219 C 0.24153 0.1526 0.64526 0.0
C220 C 0.31697 0.24198 0.65444 0.0
O221 O 0.26186 0.19836 0.67786 0.0
O222 O 0.30353 0.20569 0.69498 0.0
C223 C 0.33052 0.1483 0.70879 0.0
N224 N 0.34884 0.16182 0.69627 0.0
C225 C 0.38789 0.12566 0.70171 0.0
C226 C 0.36952 0.11147 0.71477 0.0
C227 C 0.34069 0.12282 0.71829 0.0
C228 C 0.37657 0.15102 0.69272 0.0
H229 H 0.30829 0.15684 0.71147 0.0
C230 C 0.27503 0.20634 0.69276 0.0
O231 O 0.24246 0.18071 0.64059 0.0
O232 O 0.26243 0.14312 0.65619 0.0
N233 N 0.3796 0.18876 0.67064 0.0
C234 C 0.3942 0.20463 0.65732 0.0
C235 C 0.42332 0.19616 0.65214 0.0
C236 C 0.43713 0.17152 0.66071 0.0
C237 C 0.42176 0.15568 0.67447 0.0
C238 C 0.39297 0.16547 0.67927 0.0
H239 H 0.38374 0.22363 0.65073 0.0
O240 O 0.3081 0.16677 0.63432 0.0
O241 O 0.32059 0.17174 0.66352 0.0
O242 O 0.29528 0.22608 0.64841 0.0
O243 O 0.33566 0.23323 0.66665 0.0
C244 C 0.43377 0.13044 0.68351 0.0
C245 C 0.41681 0.11538 0.69708 0.0
H246 H 0.37724 0.09175 0.72207 0.0
H247 H 0.32632 0.1119 0.72828 0.0
H248 H 0.43509 0.20858 0.64155 0.0
H249 H 0.45954 0.16493 0.65661 0.0
H250 H 0.45592 0.12225 0.68 0.0
H251 H 0.42615 0.0958 0.70379 0.0
Mn252 Mn 0.06934 0.03919 0.91038 0.0
Mn253 Mn 0.06655 0.10545 0.93298 0.0
C254 C 0.09138 0.08179 0.8978 0.0
C255 C 0.09355 0.99394 0.90392 0.0
C256 C 0.01403 0.07968 0.91163 0.0
O257 O 0.05732 0.02642 0.93649 0.0
O258 O 0.05815 0.07186 0.95021 0.0
C259 C 0.12062 0.09518 0.95583 0.0
N260 N 0.10495 0.11268 0.94384 0.0
C261 C 0.14428 0.14963 0.94343 0.0
C262 C 0.16046 0.13237 0.95616 0.0
C263 C 0.14867 0.10492 0.96228 0.0
C264 C 0.11644 0.13874 0.93751 0.0
H265 H 0.11196 0.07379 0.96021 0.0
C266 C 0.05449 0.0434 0.9506 0.0
O267 O 0.06504 0.99731 0.90087 0.0
O268 O 0.1075 0.01624 0.91151 0.0
N269 N 0.07459 0.14029 0.91837 0.0
C270 C 0.05663 0.15377 0.90566 0.0
C271 C 0.06517 0.18147 0.89812 0.0
C272 C 0.0921 0.19502 0.90372 0.0
C273 C 0.11022 0.18078 0.91682 0.0
C274 C 0.10017 0.15356 0.92418 0.0
H275 H 0.03577 0.14367 0.90148 0.0
O276 O 0.08416 0.05938 0.88731 0.0
O277 O 0.08554 0.07854 0.91522 0.0
O278 O 0.02704 0.0557 0.90638 0.0
O279 O 0.02649 0.09991 0.92154 0.0
C280 C 0.13783 0.19253 0.92288 0.0
C281 C 0.15496 0.17686 0.93608 0.0
H282 H 0.18216 0.13976 0.9611 0.0
H283 H 0.16124 0.0912 0.97186 0.0
H284 H 0.05098 0.19238 0.88805 0.0
H285 H 0.09867 0.21638 0.89787 0.0
H286 H 0.14627 0.21343 0.9173 0.0
H287 H 0.1764 0.18585 0.94041 0.0
Mn288 Mn 0.79877 0.81761 0.65817 0.0
Mn289 Mn 0.80819 0.88282 0.68112 0.0
C290 C 0.82838 0.85529 0.64567 0.0
C291 C 0.81171 0.76805 0.65152 0.0
C292 C 0.75198 0.86782 0.65931 0.0
O293 O 0.78491 0.80715 0.6843 0.0
O294 O 0.79621 0.85055 0.69865 0.0
C295 C 0.86087 0.86588 0.70373 0.0
N296 N 0.84761 0.88467 0.69138 0.0
C297 C 0.89045 0.91743 0.69145 0.0
C298 C 0.90429 0.89879 0.70449 0.0
C299 C 0.88957 0.87272 0.71049 0.0
C300 C 0.86204 0.90921 0.68501 0.0
H301 H 0.84967 0.84579 0.70834 0.0
C302 C 0.78746 0.82315 0.69885 0.0
O303 O 0.78505 0.77842 0.64836 0.0
O304 O 0.83075 0.78614 0.65927 0.0
N305 N 0.82046 0.91594 0.66608 0.0
C306 C 0.80447 0.93107 0.65304 0.0
C307 C 0.81685 0.95674 0.6448 0.0
C308 C 0.84525 0.96696 0.65033 0.0
C309 C 0.86099 0.95141 0.66406 0.0
C310 C 0.84768 0.92577 0.67161 0.0
H311 H 0.78254 0.92355 0.64882 0.0
O312 O 0.81731 0.83439 0.63526 0.0
O313 O 0.82254 0.85316 0.66319 0.0
O314 O 0.76106 0.84245 0.65351 0.0
O315 O 0.76715 0.88397 0.6705 0.0
C316 C 0.88924 0.96053 0.67068 0.0
C317 C 0.90383 0.9437 0.68449 0.0
H318 H 0.92637 0.90409 0.7098 0.0
H319 H 0.90026 0.858 0.72037 0.0
H320 H 0.80447 0.9687 0.63429 0.0
H321 H 0.85467 0.98684 0.64401 0.0
H322 H 0.90002 0.98039 0.66519 0.0
H323 H 0.92568 0.95079 0.68935 0.0
Mn324 Mn 0.94377 0.044 0.39897 0.0
Mn325 Mn 0.88789 0.04603 0.43025 0.0
C326 C 0.90583 0.07862 0.39566 0.0
C327 C 0.99152 0.05845 0.38952 0.0
C328 C 0.89386 0.99791 0.40081 0.0
O329 O 0.96034 0.02062 0.42085 0.0
O330 O 0.92449 0.02928 0.44219 0.0
C331 C 0.91117 0.09023 0.45714 0.0
N332 N 0.88945 0.08139 0.4451 0.0
C333 C 0.85941 0.12473 0.45215 0.0
C334 C 0.88135 0.13417 0.46473 0.0
C335 C 0.90735 0.11686 0.46722 0.0
C336 C 0.86422 0.09775 0.44272 0.0
H337 H 0.93128 0.07711 0.45901 0.0
C338 C 0.95041 0.0195 0.43738 0.0
O339 O 0.97914 0.03403 0.38344 0.0
O340 O 0.97651 0.07407 0.40147 0.0
N341 N 0.85176 0.06259 0.42025 0.0
C342 C 0.83441 0.0521 0.40618 0.0
C343 C 0.80855 0.06797 0.40103 0.0
C344 C 0.80073 0.09438 0.41043 0.0
C345 C 0.81889 0.10473 0.42488 0.0
C346 C 0.84433 0.08789 0.42946 0.0
H347 H 0.84039 0.03196 0.39881 0.0
O348 O 0.92225 0.07106 0.38162 0.0
O349 O 0.91236 0.06583 0.41129 0.0
O350 O 0.91568 0.00955 0.39207 0.0
O351 O 0.88317 0.00866 0.41574 0.0
C352 C 0.81326 0.13158 0.43451 0.0
C353 C 0.83346 0.14153 0.44818 0.0
H354 H 0.87867 0.15488 0.47236 0.0
H355 H 0.92447 0.1241 0.47681 0.0
H356 H 0.79477 0.05996 0.38978 0.0
H357 H 0.78094 0.10674 0.40628 0.0
H358 H 0.79376 0.14506 0.43126 0.0
H359 H 0.82917 0.1625 0.45524 0.0
Mn360 Mn 0.70687 0.19962 0.15432 0.0
Mn361 Mn 0.70554 0.14021 0.18318 0.0
C362 C 0.6735 0.16112 0.14905 0.0
C363 C 0.69217 0.24778 0.14581 0.0
C364 C 0.75368 0.14944 0.15415 0.0
O365 O 0.72788 0.21516 0.1772 0.0
O366 O 0.72298 0.17553 0.19636 0.0
C367 C 0.66217 0.16162 0.2112 0.0
N368 N 0.67054 0.14086 0.19841 0.0
C369 C 0.627 0.11071 0.20483 0.0
C370 C 0.61805 0.13166 0.21816 0.0
C371 C 0.6357 0.15724 0.22134 0.0
C372 C 0.65384 0.11604 0.19533 0.0
H373 H 0.67557 0.18139 0.21365 0.0
C374 C 0.73046 0.20279 0.193 0.0
O375 O 0.71726 0.23621 0.1402 0.0
O376 O 0.67577 0.23159 0.15677 0.0
N377 N 0.68836 0.10513 0.17219 0.0
C378 C 0.69842 0.08881 0.15754 0.0
C379 C 0.68222 0.06351 0.15176 0.0
C380 C 0.65595 0.05516 0.16113 0.0
C381 C 0.64607 0.07224 0.17619 0.0
C382 C 0.66322 0.09717 0.18139 0.0
H383 H 0.71846 0.09522 0.15018 0.0
O384 O 0.68162 0.17875 0.1357 0.0
O385 O 0.6853 0.16649 0.16517 0.0
O386 O 0.74263 0.17331 0.14736 0.0
O387 O 0.74231 0.13612 0.16807 0.0
C388 C 0.61937 0.06607 0.18586 0.0
C389 C 0.60988 0.08525 0.20019 0.0
H390 H 0.59747 0.12855 0.22587 0.0
H391 H 0.62884 0.1736 0.23153 0.0
H392 H 0.68988 0.05057 0.14004 0.0
H393 H 0.64334 0.03583 0.15648 0.0
H394 H 0.60565 0.04696 0.18214 0.0
H395 H 0.58902 0.08058 0.20729 0.0
Mn396 Mn 0.558 0.95133 0.90853 0.0
Mn397 Mn 0.62017 0.95971 0.93415 0.0
C398 C 0.59824 0.92029 0.90295 0.0
C399 C 0.51034 0.93014 0.90631 0.0
C400 C 0.60311 0.00152 0.90258 0.0
O401 O 0.54457 0.97689 0.93001 0.0
O402 O 0.58491 0.97504 0.94857 0.0
C403 C 0.6075 0.91821 0.96506 0.0
N404 N 0.62537 0.92688 0.95077 0.0
C405 C 0.66039 0.88711 0.95703 0.0
C406 C 0.64247 0.87792 0.97189 0.0
C407 C 0.6159 0.89353 0.9759 0.0
C408 C 0.65111 0.91216 0.94687 0.0
H409 H 0.58694 0.92999 0.96814 0.0
C410 C 0.55731 0.98151 0.94547 0.0
O411 O 0.5172 0.95418 0.89705 0.0
O412 O 0.53101 0.91888 0.91674 0.0
N413 N 0.65533 0.94488 0.92198 0.0
C414 C 0.66861 0.95482 0.90618 0.0
C415 C 0.69451 0.94045 0.89963 0.0
C416 C 0.70657 0.91609 0.90939 0.0
C417 C 0.69259 0.9063 0.92563 0.0
C418 C 0.66691 0.92161 0.93157 0.0
H419 H 0.65941 0.9734 0.89852 0.0
O420 O 0.57734 0.92369 0.89068 0.0
O421 O 0.59444 0.93473 0.91844 0.0
O422 O 0.58031 0.98684 0.89689 0.0
O423 O 0.61775 0.99448 0.91712 0.0
C424 C 0.70266 0.88142 0.93587 0.0
C425 C 0.6866 0.87187 0.95158 0.0
H426 H 0.64869 0.85868 0.98016 0.0
H427 H 0.60186 0.88645 0.98728 0.0
H428 H 0.70508 0.94805 0.88702 0.0
H429 H 0.72638 0.90487 0.90418 0.0
H430 H 0.72244 0.86915 0.93161 0.0
H431 H 0.6943 0.85241 0.95916 0.0
Mn432 Mn 0.79168 0.18353 0.84827 0.0
Mn433 Mn 0.80894 0.12125 0.82441 0.0
C434 C 0.82256 0.1477 0.86142 0.0
C435 C 0.80189 0.2335 0.8553 0.0
C436 C 0.7484 0.13175 0.84262 0.0
O437 O 0.77983 0.19379 0.8217 0.0
O438 O 0.79986 0.15419 0.80675 0.0
C439 C 0.86565 0.14092 0.80693 0.0
N440 N 0.8505 0.12135 0.81793 0.0
C441 C 0.89513 0.09226 0.82315 0.0
C442 C 0.9111 0.11183 0.81163 0.0
C443 C 0.89634 0.13639 0.8036 0.0
C444 C 0.86463 0.09801 0.82604 0.0
H445 H 0.85444 0.1599 0.8008 0.0
C446 C 0.78758 0.1802 0.8069 0.0
O447 O 0.77537 0.22217 0.85784 0.0
O448 O 0.82209 0.2161 0.84816 0.0
N449 N 0.81872 0.08797 0.84 0.0
C450 C 0.80025 0.07142 0.851 0.0
C451 C 0.81177 0.04647 0.86045 0.0
C452 C 0.84207 0.03861 0.85836 0.0
C453 C 0.86054 0.05568 0.84676 0.0
C454 C 0.84778 0.08024 0.83764 0.0
H455 H 0.7769 0.07715 0.8526 0.0
O456 O 0.80918 0.16737 0.87171 0.0
O457 O 0.81796 0.1502 0.84382 0.0
O458 O 0.75549 0.15574 0.85114 0.0
O459 O 0.76571 0.11858 0.8311 0.0
C460 C 0.8911 0.04926 0.84389 0.0
C461 C 0.90834 0.06745 0.83202 0.0
H462 H 0.93478 0.10841 0.80904 0.0
H463 H 0.90859 0.15178 0.79486 0.0
H464 H 0.79733 0.03335 0.86933 0.0
H465 H 0.85091 0.01942 0.86573 0.0
H466 H 0.9016 0.03043 0.85076 0.0
H467 H 0.93184 0.06233 0.82996 0.0
Mn468 Mn 0.55708 0.04378 0.59788 0.0
Mn469 Mn 0.61724 0.05031 0.56989 0.0
C470 C 0.594 0.07828 0.60469 0.0
C471 C 0.50841 0.05664 0.60635 0.0
C472 C 0.60897 0.99916 0.59702 0.0
O473 O 0.54296 0.02435 0.57399 0.0
O474 O 0.58317 0.0325 0.55565 0.0
C475 C 0.59468 0.09518 0.54317 0.0
N476 N 0.61536 0.08667 0.55596 0.0
C477 C 0.64301 0.13256 0.55193 0.0
C478 C 0.62214 0.14169 0.53861 0.0
C479 C 0.59786 0.12293 0.53423 0.0
C480 C 0.63895 0.10446 0.56019 0.0
H481 H 0.57586 0.08097 0.53983 0.0
C482 C 0.55621 0.02343 0.55838 0.0
O483 O 0.52028 0.0313 0.61127 0.0
O484 O 0.52447 0.07411 0.59599 0.0
N485 N 0.65105 0.06812 0.58199 0.0
C486 C 0.66746 0.05739 0.5964 0.0
C487 C 0.69147 0.07438 0.60329 0.0
C488 C 0.69847 0.10215 0.59526 0.0
C489 C 0.68137 0.11269 0.58039 0.0
C490 C 0.65777 0.0947 0.57404 0.0
H491 H 0.66212 0.03618 0.60271 0.0
O492 O 0.57649 0.06817 0.61758 0.0
O493 O 0.58957 0.06756 0.5882 0.0
O494 O 0.58449 0.00836 0.60402 0.0
O495 O 0.62244 0.01243 0.58382 0.0
C496 C 0.68624 0.14076 0.57199 0.0
C497 C 0.66713 0.15065 0.55774 0.0
H498 H 0.6243 0.16323 0.53184 0.0
H499 H 0.58154 0.12991 0.52406 0.0
H500 H 0.70445 0.06616 0.61485 0.0
H501 H 0.7168 0.11535 0.60075 0.0
H502 H 0.70429 0.15516 0.57663 0.0
H503 H 0.67079 0.1725 0.55162 0.0
Mn504 Mn 0.70883 0.8057 0.34734 0.0
Mn505 Mn 0.70285 0.86281 0.31712 0.0
C506 C 0.67739 0.84518 0.35394 0.0
C507 C 0.69506 0.75803 0.35715 0.0
C508 C 0.755 0.85621 0.34378 0.0
O509 O 0.72749 0.78896 0.32406 0.0
O510 O 0.71956 0.8268 0.30413 0.0
C511 C 0.65568 0.8365 0.29334 0.0
N512 N 0.6653 0.85899 0.3046 0.0
C513 C 0.61854 0.88535 0.3013 0.0
C514 C 0.60821 0.86257 0.28958 0.0
C515 C 0.62685 0.838 0.28562 0.0
C516 C 0.64742 0.88256 0.30866 0.0
H517 H 0.66984 0.81749 0.29032 0.0
C518 C 0.72859 0.80018 0.30791 0.0
O519 O 0.72084 0.76955 0.36149 0.0
O520 O 0.67744 0.77403 0.34685 0.0
N521 N 0.68651 0.89882 0.32742 0.0
C522 C 0.70006 0.91928 0.33864 0.0
C523 C 0.68442 0.94525 0.34387 0.0
C524 C 0.65516 0.9501 0.33737 0.0
C525 C 0.64199 0.92914 0.32544 0.0
C526 C 0.65875 0.90378 0.32059 0.0
H527 H 0.72253 0.91574 0.34371 0.0
O528 O 0.68652 0.82744 0.36695 0.0
O529 O 0.68609 0.83857 0.33726 0.0
O530 O 0.7452 0.83251 0.35155 0.0
O531 O 0.74164 0.86892 0.33023 0.0
C532 C 0.61295 0.93251 0.3181 0.0
C533 C 0.60125 0.91064 0.30602 0.0
H534 H 0.58599 0.86365 0.2836 0.0
H535 H 0.619 0.82026 0.27666 0.0
H536 H 0.69484 0.96144 0.35296 0.0
H537 H 0.64309 0.97006 0.34153 0.0
H538 H 0.59941 0.95182 0.32166 0.0
H539 H 0.57885 0.91342 0.30052 0.0
Mn540 Mn 0.94151 0.96019 0.10189 0.0
Mn541 Mn 0.88652 0.95337 0.07038 0.0
C542 C 0.90478 0.92451 0.10624 0.0
C543 C 0.98972 0.94812 0.11181 0.0
C544 C 0.89056 0.0047 0.09789 0.0
O545 O 0.95761 0.98196 0.07926 0.0
O546 O 0.92284 0.96986 0.05791 0.0
C547 C 0.91109 0.90724 0.04521 0.0
N548 N 0.88915 0.9166 0.05695 0.0
C549 C 0.86046 0.87171 0.05167 0.0
C550 C 0.88268 0.86167 0.03945 0.0
C551 C 0.90811 0.87951 0.03622 0.0
C552 C 0.86441 0.89977 0.06 0.0
H553 H 0.93075 0.92081 0.04275 0.0
C554 C 0.94824 0.98107 0.0626 0.0
O555 O 0.97658 0.97265 0.1171 0.0
O556 O 0.97509 0.93099 0.10049 0.0
N557 N 0.85078 0.93689 0.08097 0.0
C558 C 0.83313 0.94827 0.09464 0.0
C559 C 0.80781 0.93215 0.10047 0.0
C560 C 0.80085 0.90454 0.09219 0.0
C561 C 0.81933 0.89326 0.07817 0.0
C562 C 0.84421 0.91039 0.07285 0.0
H563 H 0.83848 0.96934 0.10118 0.0
O564 O 0.92059 0.93403 0.12009 0.0
O565 O 0.91113 0.9362 0.09024 0.0
O566 O 0.91222 0.99438 0.10739 0.0
O567 O 0.8807 0.99211 0.08329 0.0
C568 C 0.81458 0.86525 0.06966 0.0
C569 C 0.83506 0.85453 0.05638 0.0
H570 H 0.88066 0.84011 0.03268 0.0
H571 H 0.92543 0.87183 0.02689 0.0
H572 H 0.79378 0.94089 0.11141 0.0
H573 H 0.78148 0.89202 0.09688 0.0
H574 H 0.79554 0.85152 0.0735 0.0
H575 H 0.83145 0.83272 0.05019 0.0
Mn576 Mn 0.7225 0.68297 0.84722 0.0
Mn577 Mn 0.66155 0.70009 0.82157 0.0
C578 C 0.67713 0.65952 0.85321 0.0
C579 C 0.76636 0.65556 0.85216 0.0
C580 C 0.6855 0.73994 0.85217 0.0
O581 O 0.7401 0.70514 0.82492 0.0
O582 O 0.69836 0.71092 0.80774 0.0
C583 C 0.67038 0.65584 0.7916 0.0
N584 N 0.65286 0.66772 0.80515 0.0
C585 C 0.61273 0.63351 0.79814 0.0
C586 C 0.63024 0.62109 0.784 0.0
C587 C 0.65923 0.63224 0.78076 0.0
C588 C 0.62506 0.65698 0.80849 0.0
H589 H 0.69273 0.66426 0.78913 0.0
C590 C 0.72666 0.71334 0.81017 0.0
O591 O 0.76245 0.6818 0.85949 0.0
O592 O 0.74531 0.64561 0.84142 0.0
N593 N 0.624 0.69077 0.83295 0.0
C594 C 0.61026 0.70483 0.84735 0.0
C595 C 0.58102 0.69646 0.85231 0.0
C596 C 0.56622 0.67371 0.84247 0.0
C597 C 0.58071 0.65972 0.82763 0.0
C598 C 0.60963 0.66943 0.82308 0.0
H599 H 0.62143 0.72244 0.8549 0.0
O600 O 0.69808 0.66004 0.86562 0.0
O601 O 0.68363 0.67206 0.8375 0.0
O602 O 0.70621 0.7223 0.85749 0.0
O603 O 0.66833 0.73458 0.83843 0.0
C604 C 0.56765 0.63645 0.81723 0.0
C605 C 0.5837 0.62325 0.80255 0.0
H606 H 0.62174 0.60284 0.77564 0.0
H607 H 0.67295 0.62265 0.76995 0.0
H608 H 0.56991 0.70755 0.8637 0.0
H609 H 0.54373 0.66716 0.84641 0.0
H610 H 0.54539 0.62833 0.82052 0.0
H611 H 0.57358 0.60513 0.79479 0.0
Mn612 Mn 0.56274 0.47177 0.09584 0.0
Mn613 Mn 0.55082 0.40879 0.0709 0.0
C614 C 0.58266 0.42631 0.10529 0.0
C615 C 0.5903 0.51444 0.10361 0.0
C616 C 0.50422 0.43557 0.09608 0.0
O617 O 0.54986 0.48856 0.0708 0.0
O618 O 0.54127 0.44483 0.05597 0.0
C619 C 0.5997 0.41791 0.04382 0.0
N620 N 0.58619 0.40061 0.05688 0.0
C621 C 0.62311 0.36173 0.05316 0.0
C622 C 0.63732 0.37905 0.03958 0.0
C623 C 0.6256 0.40729 0.03493 0.0
C624 C 0.59737 0.37349 0.06153 0.0
H625 H 0.59083 0.43966 0.04023 0.0
C626 C 0.54156 0.47349 0.05669 0.0
O627 O 0.56195 0.51227 0.1074 0.0
O628 O 0.60237 0.49243 0.09455 0.0
N629 N 0.55925 0.37203 0.08345 0.0
C630 C 0.54327 0.35848 0.09713 0.0
C631 C 0.55192 0.32994 0.1033 0.0
C632 C 0.57688 0.31566 0.09537 0.0
C633 C 0.59292 0.33003 0.08129 0.0
C634 C 0.5829 0.35821 0.07546 0.0
H635 H 0.524 0.3693 0.10321 0.0
O636 O 0.57808 0.4476 0.11716 0.0
O637 O 0.57509 0.43211 0.08835 0.0
O638 O 0.51965 0.45821 0.10104 0.0
O639 O 0.51366 0.4152 0.08517 0.0
C640 C 0.61853 0.31755 0.07289 0.0
C641 C 0.63369 0.33345 0.05888 0.0
H642 H 0.65734 0.37098 0.03273 0.0
H643 H 0.63652 0.42085 0.02453 0.0
H644 H 0.53938 0.31897 0.11416 0.0
H645 H 0.58357 0.29369 0.1002 0.0
H646 H 0.62692 0.29587 0.07721 0.0
H647 H 0.65356 0.32379 0.05266 0.0
Mn648 Mn 0.7847 0.32217 0.34833 0.0
Mn649 Mn 0.84946 0.30577 0.32603 0.0
C650 C 0.82971 0.33891 0.36017 0.0
C651 C 0.7415 0.35043 0.35347 0.0
C652 C 0.81966 0.26288 0.35207 0.0
O653 O 0.76985 0.30868 0.3231 0.0
O654 O 0.81406 0.29516 0.31083 0.0
C655 C 0.84182 0.35199 0.29709 0.0
N656 N 0.85867 0.33939 0.31071 0.0
C657 C 0.90024 0.37185 0.30388 0.0
C658 C 0.88339 0.38515 0.28975 0.0
C659 C 0.85394 0.37534 0.28646 0.0
C660 C 0.88661 0.34935 0.31442 0.0
H661 H 0.81938 0.34418 0.29429 0.0
C662 C 0.78556 0.29727 0.31023 0.0
O663 O 0.74299 0.3223 0.35782 0.0
O664 O 0.76492 0.36223 0.34563 0.0
N665 N 0.88668 0.31408 0.3381 0.0
C666 C 0.90073 0.29749 0.35132 0.0
C667 C 0.93034 0.30446 0.35631 0.0
C668 C 0.94579 0.3273 0.34696 0.0
C669 C 0.93149 0.34287 0.33266 0.0
C670 C 0.9016 0.33568 0.32875 0.0
H671 H 0.88934 0.27917 0.35809 0.0
O672 O 0.80601 0.337 0.37048 0.0
O673 O 0.82636 0.3323 0.34271 0.0
O674 O 0.7966 0.27906 0.35516 0.0
O675 O 0.84153 0.27077 0.34181 0.0
C676 C 0.94602 0.36467 0.32177 0.0
C677 C 0.93025 0.37954 0.30762 0.0
H678 H 0.89289 0.40277 0.28128 0.0
H679 H 0.84079 0.38547 0.27558 0.0
H680 H 0.94141 0.29189 0.3671 0.0
H681 H 0.9688 0.33227 0.35063 0.0
H682 H 0.96925 0.37042 0.32432 0.0
H683 H 0.94154 0.39657 0.29955 0.0
Mn684 Mn 0.93356 0.53835 0.6026 0.0
Mn685 Mn 0.9505 0.60134 0.5787 0.0
C686 C 0.91278 0.58395 0.61114 0.0
C687 C 0.90584 0.49479 0.60786 0.0
C688 C 0.99199 0.57393 0.60685 0.0
O689 O 0.95107 0.52187 0.57851 0.0
O690 O 0.96154 0.56545 0.56409 0.0
C691 C 0.90547 0.59356 0.54908 0.0
N692 N 0.91746 0.61045 0.56289 0.0
C693 C 0.88205 0.65017 0.55743 0.0
C694 C 0.86943 0.63328 0.54307 0.0
C695 C 0.88114 0.60482 0.53892 0.0
C696 C 0.9062 0.63774 0.5671 0.0
H697 H 0.91436 0.57165 0.54588 0.0
C698 C 0.96135 0.53682 0.56486 0.0
O699 O 0.93316 0.49763 0.61368 0.0
O700 O 0.89462 0.51699 0.59853 0.0
N701 N 0.94124 0.63821 0.59087 0.0
C702 C 0.95609 0.65164 0.60507 0.0
C703 C 0.94763 0.68054 0.61067 0.0
C704 C 0.92392 0.69529 0.60169 0.0
C705 C 0.90919 0.68115 0.58701 0.0
C706 C 0.91908 0.65262 0.58175 0.0
H707 H 0.97442 0.64048 0.61195 0.0
O708 O 0.91448 0.56208 0.62291 0.0
O709 O 0.92296 0.57839 0.59465 0.0
O710 O 0.97497 0.55209 0.61109 0.0
O711 O 0.98536 0.59387 0.5949 0.0
C712 C 0.88512 0.69427 0.57735 0.0
C713 C 0.87145 0.67871 0.56263 0.0
H714 H 0.85066 0.64188 0.53521 0.0
H715 H 0.87145 0.5916 0.52792 0.0
H716 H 0.95938 0.69143 0.62187 0.0
H717 H 0.91729 0.71751 0.60614 0.0
H718 H 0.87682 0.71622 0.58121 0.0
H719 H 0.85279 0.6889 0.55542 0.0
Mn720 Mn 0.71813 0.3179 0.65869 0.0
Mn721 Mn 0.65808 0.30364 0.68585 0.0
C722 C 0.67295 0.34151 0.65285 0.0
C723 C 0.76194 0.34435 0.65198 0.0
C724 C 0.67935 0.26164 0.6557 0.0
O725 O 0.7366 0.29717 0.6812 0.0
O726 O 0.6954 0.29227 0.69895 0.0
C727 C 0.67023 0.34897 0.71475 0.0
N728 N 0.65151 0.33709 0.70183 0.0
C729 C 0.61316 0.37324 0.70894 0.0
C730 C 0.63193 0.38573 0.72242 0.0
C731 C 0.66062 0.37358 0.7253 0.0
C732 C 0.62398 0.34875 0.69885 0.0
H733 H 0.69233 0.33977 0.71695 0.0
C734 C 0.72361 0.28954 0.69621 0.0
O735 O 0.75734 0.3176 0.64555 0.0
O736 O 0.7417 0.35531 0.66296 0.0
N737 N 0.62011 0.31356 0.67526 0.0
C738 C 0.60485 0.29898 0.66167 0.0
C739 C 0.57562 0.30807 0.65724 0.0
C740 C 0.56239 0.33213 0.66676 0.0
C741 C 0.57836 0.34652 0.68085 0.0
C742 C 0.60719 0.33603 0.68494 0.0
H743 H 0.61481 0.28041 0.65434 0.0
O744 O 0.69329 0.33971 0.64011 0.0
O745 O 0.67993 0.33018 0.66883 0.0
O746 O 0.70059 0.27817 0.64984 0.0
O747 O 0.66268 0.26831 0.66945 0.0
C748 C 0.56685 0.37091 0.69099 0.0
C749 C 0.5843 0.38435 0.70496 0.0
H750 H 0.62463 0.40475 0.73056 0.0
H751 H 0.6753 0.38319 0.73561 0.0
H752 H 0.5633 0.29653 0.64652 0.0
H753 H 0.53994 0.33929 0.66316 0.0
H754 H 0.5447 0.37965 0.68804 0.0
H755 H 0.57533 0.40328 0.71253 0.0
Mn756 Mn 0.93036 0.45784 0.90525 0.0
Mn757 Mn 0.93545 0.39776 0.93355 0.0
C758 C 0.90601 0.41371 0.89769 0.0
C759 C 0.90709 0.5026 0.89658 0.0
C760 C 0.98492 0.41635 0.90738 0.0
O761 O 0.9469 0.47576 0.92901 0.0
O762 O 0.94755 0.43467 0.94711 0.0
C763 C 0.88616 0.41432 0.95893 0.0
N764 N 0.89881 0.39434 0.94704 0.0
C765 C 0.85848 0.35927 0.95162 0.0
C766 C 0.84509 0.3794 0.964 0.0
C767 C 0.85897 0.40707 0.96764 0.0
C768 C 0.88556 0.36775 0.94336 0.0
H769 H 0.89674 0.43563 0.96171 0.0
C770 C 0.95228 0.46263 0.94431 0.0
O771 O 0.93479 0.49708 0.89223 0.0
O772 O 0.89326 0.48265 0.90643 0.0
N773 N 0.92469 0.36026 0.92263 0.0
C774 C 0.94057 0.34343 0.91036 0.0
C775 C 0.93003 0.31489 0.90544 0.0
C776 C 0.90323 0.30398 0.91312 0.0
C777 C 0.88752 0.32153 0.92593 0.0
C778 C 0.89948 0.34953 0.93061 0.0
H779 H 0.96123 0.35163 0.90446 0.0
O780 O 0.91188 0.43352 0.88509 0.0
O781 O 0.91413 0.42054 0.91443 0.0
O782 O 0.97146 0.43891 0.90043 0.0
O783 O 0.97376 0.39937 0.91981 0.0
C784 C 0.86044 0.31236 0.93422 0.0
C785 C 0.84586 0.33129 0.94699 0.0
H786 H 0.8241 0.37391 0.97072 0.0
H787 H 0.84872 0.42277 0.97712 0.0
H788 H 0.94257 0.30132 0.89577 0.0
H789 H 0.89498 0.28207 0.90913 0.0
H790 H 0.85053 0.29091 0.93077 0.0
H791 H 0.82492 0.32412 0.95315 0.0
Mn792 Mn 0.78689 0.67935 0.155 0.0
Mn793 Mn 0.85476 0.69047 0.17477 0.0
C794 C 0.82936 0.65911 0.1413 0.0
C795 C 0.74182 0.65326 0.152 0.0
C796 C 0.82281 0.73729 0.15174 0.0
O797 O 0.77625 0.69498 0.1808 0.0
O798 O 0.82247 0.69603 0.1933 0.0
C799 C 0.8545 0.63798 0.19976 0.0
N800 N 0.8681 0.6544 0.18633 0.0
C801 C 0.91232 0.62368 0.18769 0.0
C802 C 0.899 0.60667 0.20175 0.0
C803 C 0.8698 0.61362 0.20765 0.0
C804 C 0.89559 0.64704 0.17996 0.0
H805 H 0.83219 0.64347 0.20439 0.0
C806 C 0.794 0.69888 0.19441 0.0
O807 O 0.74417 0.68123 0.14737 0.0
O808 O 0.76533 0.64063 0.15919 0.0
N809 N 0.88894 0.68602 0.15902 0.0
C810 C 0.89882 0.70487 0.14551 0.0
C811 C 0.92717 0.70022 0.13757 0.0
C812 C 0.94565 0.67712 0.14417 0.0
C813 C 0.93559 0.65887 0.15864 0.0
C814 C 0.90673 0.66393 0.16559 0.0
H815 H 0.88517 0.72328 0.14076 0.0
O816 O 0.80468 0.66227 0.13206 0.0
O817 O 0.82831 0.66667 0.15866 0.0
O818 O 0.8006 0.72105 0.14709 0.0
O819 O 0.84346 0.72873 0.16274 0.0
C820 C 0.95336 0.63637 0.16676 0.0
C821 C 0.94165 0.6186 0.18118 0.0
H822 H 0.91095 0.5882 0.20808 0.0
H823 H 0.85926 0.60048 0.21839 0.0
H824 H 0.93494 0.71473 0.1266 0.0
H825 H 0.9677 0.6739 0.13821 0.0
H826 H 0.9759 0.63218 0.16183 0.0
H827 H 0.95532 0.60097 0.18707 0.0
Mn828 Mn 0.56618 0.53571 0.40972 0.0
Mn829 Mn 0.55566 0.59865 0.43482 0.0
C830 C 0.58673 0.58078 0.4003 0.0
C831 C 0.59287 0.49269 0.40161 0.0
C832 C 0.5087 0.57378 0.40941 0.0
O833 O 0.55353 0.51879 0.43464 0.0
O834 O 0.5438 0.56251 0.44916 0.0
C835 C 0.60306 0.58634 0.46242 0.0
N836 N 0.59087 0.60467 0.4494 0.0
C837 C 0.6298 0.64135 0.45384 0.0
C838 C 0.64266 0.62294 0.46737 0.0
C839 C 0.62925 0.59529 0.47164 0.0
C840 C 0.60369 0.63124 0.4451 0.0
H841 H 0.59291 0.56504 0.46572 0.0
C842 C 0.54415 0.53382 0.44847 0.0
O843 O 0.56449 0.49535 0.398 0.0
O844 O 0.60546 0.51445 0.41063 0.0
N845 N 0.56616 0.63549 0.42298 0.0
C846 C 0.55092 0.65059 0.40961 0.0
C847 C 0.56112 0.67888 0.40393 0.0
C848 C 0.58691 0.69133 0.41199 0.0
C849 C 0.60197 0.67557 0.42591 0.0
C850 C 0.59038 0.64773 0.43128 0.0
H851 H 0.53105 0.6412 0.40339 0.0
O852 O 0.58139 0.55974 0.38838 0.0
O853 O 0.5795 0.57502 0.41731 0.0
O854 O 0.52309 0.55009 0.40509 0.0
O855 O 0.51904 0.59439 0.41982 0.0
C856 C 0.62806 0.68634 0.43463 0.0
C857 C 0.64204 0.66918 0.44853 0.0
H858 H 0.6629 0.62973 0.47449 0.0
H859 H 0.63911 0.5809 0.48202 0.0
H860 H 0.5491 0.69105 0.39335 0.0
H861 H 0.5949 0.71304 0.40744 0.0
H862 H 0.63768 0.70769 0.43066 0.0
H863 H 0.66224 0.67757 0.45503 0.0
Mn864 Mn 0.29553 0.31533 0.15623 0.0
Mn865 Mn 0.29342 0.3786 0.18154 0.0
C866 C 0.32011 0.35756 0.14588 0.0
C867 C 0.31882 0.26907 0.15125 0.0
C868 C 0.24191 0.35829 0.157 0.0
O869 O 0.28111 0.30102 0.1812 0.0
O870 O 0.28408 0.34358 0.19784 0.0
C871 C 0.34546 0.36675 0.20585 0.0
N872 N 0.33155 0.38431 0.19308 0.0
C873 C 0.37253 0.4194 0.19312 0.0
C874 C 0.38717 0.40182 0.20637 0.0
C875 C 0.37362 0.37532 0.21271 0.0
C876 C 0.34455 0.40967 0.18673 0.0
H877 H 0.33519 0.34632 0.21075 0.0
C878 C 0.27976 0.31525 0.19641 0.0
O879 O 0.29142 0.2737 0.14579 0.0
O880 O 0.33227 0.29118 0.1593 0.0
N881 N 0.30276 0.41397 0.16769 0.0
C882 C 0.28595 0.4282 0.15466 0.0
C883 C 0.2967 0.45475 0.14662 0.0
C884 C 0.32448 0.46653 0.15215 0.0
C885 C 0.34116 0.45176 0.16579 0.0
C886 C 0.32926 0.42544 0.17336 0.0
H887 H 0.26458 0.41933 0.15032 0.0
O888 O 0.31356 0.33602 0.13455 0.0
O889 O 0.31273 0.35326 0.16303 0.0
O890 O 0.25466 0.33482 0.15049 0.0
O891 O 0.25382 0.3749 0.1694 0.0
C892 C 0.36914 0.46214 0.17215 0.0
C893 C 0.38473 0.44605 0.18588 0.0
H894 H 0.40892 0.40834 0.21168 0.0
H895 H 0.38486 0.36154 0.22286 0.0
H896 H 0.28362 0.46608 0.13615 0.0
H897 H 0.33276 0.48694 0.14585 0.0
H898 H 0.37891 0.48242 0.16655 0.0
H899 H 0.40628 0.45418 0.19061 0.0
Mn900 Mn 0.4439 0.54187 0.89857 0.0
Mn901 Mn 0.38591 0.54746 0.92843 0.0
C902 C 0.4035 0.57217 0.89161 0.0
C903 C 0.49142 0.55661 0.88864 0.0
C904 C 0.39422 0.4949 0.90239 0.0
O905 O 0.46119 0.52514 0.92241 0.0
O906 O 0.42204 0.53208 0.94158 0.0
C907 C 0.41049 0.5956 0.9522 0.0
N908 N 0.38848 0.58522 0.94084 0.0
C909 C 0.35966 0.63033 0.94491 0.0
C910 C 0.38194 0.64143 0.95672 0.0
C911 C 0.40753 0.62404 0.9603 0.0
C912 C 0.36403 0.60201 0.93704 0.0
H913 H 0.43016 0.5823 0.95507 0.0
C914 C 0.44925 0.52442 0.9384 0.0
O915 O 0.48053 0.53045 0.88457 0.0
O916 O 0.47487 0.57415 0.89867 0.0
N917 N 0.34955 0.56263 0.91793 0.0
C918 C 0.32961 0.54834 0.90671 0.0
C919 C 0.30293 0.56286 0.90164 0.0
C920 C 0.2967 0.59167 0.90847 0.0
C921 C 0.31705 0.60552 0.92049 0.0
C922 C 0.34333 0.58998 0.92501 0.0
H923 H 0.334 0.52605 0.90164 0.0
O924 O 0.42143 0.56303 0.87868 0.0
O925 O 0.41029 0.56415 0.90834 0.0
O926 O 0.41796 0.50448 0.89457 0.0
O927 O 0.38096 0.50851 0.91559 0.0
C928 C 0.31208 0.63395 0.92838 0.0
C929 C 0.33329 0.64627 0.94066 0.0
H930 H 0.37966 0.6633 0.96307 0.0
H931 H 0.42487 0.63249 0.96936 0.0
H932 H 0.28717 0.55184 0.89254 0.0
H933 H 0.27609 0.6028 0.90453 0.0
H934 H 0.29197 0.6465 0.92514 0.0
H935 H 0.32923 0.66816 0.94663 0.0
Mn936 Mn 0.20709 0.69329 0.65811 0.0
Mn937 Mn 0.21622 0.63315 0.68556 0.0
C938 C 0.17845 0.65116 0.65293 0.0
C939 C 0.18359 0.73928 0.65335 0.0
C940 C 0.26015 0.65099 0.6554 0.0
O941 O 0.22929 0.70975 0.68026 0.0
O942 O 0.22881 0.66989 0.69936 0.0
C943 C 0.17205 0.6455 0.7151 0.0
N944 N 0.18245 0.62735 0.7014 0.0
C945 C 0.14381 0.59093 0.70733 0.0
C946 C 0.1328 0.60916 0.72156 0.0
C947 C 0.14698 0.63656 0.72545 0.0
C948 C 0.16917 0.60077 0.69767 0.0
H949 H 0.18275 0.66667 0.71808 0.0
C950 C 0.23357 0.69775 0.696 0.0
O951 O 0.20896 0.73307 0.64536 0.0
O952 O 0.17237 0.719 0.6641 0.0
N953 N 0.20385 0.59673 0.67378 0.0
C954 C 0.2155 0.58313 0.65855 0.0
C955 C 0.20274 0.55633 0.65212 0.0
C956 C 0.17816 0.54374 0.66143 0.0
C957 C 0.16657 0.55809 0.6771 0.0
C958 C 0.18035 0.58467 0.68294 0.0
H959 H 0.23426 0.59273 0.65126 0.0
O960 O 0.18241 0.67086 0.63998 0.0
O961 O 0.19146 0.65691 0.66863 0.0
O962 O 0.24502 0.67248 0.64851 0.0
O963 O 0.25215 0.63626 0.66967 0.0
C964 C 0.14138 0.54748 0.68685 0.0
C965 C 0.13005 0.56385 0.70198 0.0
H966 H 0.11324 0.60253 0.72943 0.0
H967 H 0.13851 0.65084 0.73635 0.0
H968 H 0.21174 0.54547 0.63997 0.0
H969 H 0.16818 0.5232 0.65633 0.0
H970 H 0.13026 0.527 0.68265 0.0
H971 H 0.11038 0.55571 0.70918 0.0
Mn972 Mn 0.06223 0.45031 0.4116 0.0
Mn973 Mn 0.12356 0.46114 0.43793 0.0
C974 C 0.10424 0.42126 0.40663 0.0
C975 C 0.0156 0.42765 0.40731 0.0
C976 C 0.10581 0.5025 0.40641 0.0
O977 O 0.04641 0.47364 0.43355 0.0
O978 O 0.08738 0.47543 0.45175 0.0
C979 C 0.11098 0.41944 0.46877 0.0
N980 N 0.12912 0.42858 0.45473 0.0
C981 C 0.165 0.38982 0.46152 0.0
C982 C 0.1468 0.38016 0.47614 0.0
C983 C 0.11967 0.39503 0.47976 0.0
C984 C 0.15539 0.41457 0.4512 0.0
H985 H 0.08999 0.43064 0.47155 0.0
C986 C 0.05925 0.47936 0.44888 0.0
O987 O 0.02246 0.45254 0.399 0.0
O988 O 0.03569 0.41625 0.41816 0.0
N989 N 0.15959 0.44729 0.42631 0.0
C990 C 0.17318 0.45757 0.41069 0.0
C991 C 0.19972 0.44393 0.40453 0.0
C992 C 0.2121 0.41996 0.4145 0.0
C993 C 0.19781 0.40983 0.43056 0.0
C994 C 0.17149 0.42441 0.43611 0.0
H995 H 0.16372 0.47583 0.40286 0.0
O996 O 0.08414 0.42436 0.39381 0.0
O997 O 0.09894 0.43513 0.42211 0.0
O998 O 0.08324 0.48736 0.40093 0.0
O999 O 0.1209 0.49569 0.42079 0.0
C1000 C 0.2082 0.38528 0.44098 0.0
C1001 C 0.19184 0.37532 0.45646 0.0
H1002 H 0.15325 0.36112 0.48452 0.0
H1003 H 0.10541 0.38758 0.49094 0.0
H1004 H 0.21053 0.45177 0.39206 0.0
H1005 H 0.2324 0.40928 0.40958 0.0
H1006 H 0.22847 0.37356 0.43701 0.0
H1007 H 0.19979 0.35611 0.46418 0.0
Mn1008 Mn 0.2901 0.68405 0.34629 0.0
Mn1009 Mn 0.30425 0.62133 0.32205 0.0
C1010 C 0.32023 0.64709 0.35885 0.0
C1011 C 0.30226 0.73355 0.35347 0.0
C1012 C 0.24512 0.63341 0.34155 0.0
O1013 O 0.27737 0.69494 0.31995 0.0
O1014 O 0.2953 0.65467 0.30469 0.0
C1015 C 0.36076 0.63992 0.30386 0.0
N1016 N 0.3455 0.6204 0.31485 0.0
C1017 C 0.38961 0.59018 0.31925 0.0
C1018 C 0.40565 0.60964 0.3077 0.0
C1019 C 0.39121 0.63474 0.30009 0.0
C1020 C 0.35937 0.59659 0.3226 0.0
H1021 H 0.34984 0.65937 0.29813 0.0
C1022 C 0.28399 0.6811 0.30503 0.0
O1023 O 0.27551 0.72302 0.35634 0.0
O1024 O 0.32154 0.71573 0.34579 0.0
N1025 N 0.31383 0.58752 0.33726 0.0
C1026 C 0.29534 0.5711 0.34833 0.0
C1027 C 0.30656 0.54559 0.35734 0.0
C1028 C 0.33656 0.53702 0.35474 0.0
C1029 C 0.35502 0.55393 0.34304 0.0
C1030 C 0.34256 0.57905 0.33435 0.0
H1031 H 0.27221 0.57734 0.35031 0.0
O1032 O 0.30809 0.66719 0.36939 0.0
O1033 O 0.31502 0.64987 0.34134 0.0
O1034 O 0.25327 0.65731 0.34979 0.0
O1035 O 0.26134 0.6198 0.32962 0.0
C1036 C 0.38529 0.54682 0.33966 0.0
C1037 C 0.40254 0.56487 0.32773 0.0
H1038 H 0.42915 0.60574 0.30477 0.0
H1039 H 0.40353 0.65008 0.29135 0.0
H1040 H 0.29211 0.53258 0.36627 0.0
H1041 H 0.34517 0.51741 0.36178 0.0
H1042 H 0.39556 0.52756 0.34622 0.0
H1043 H 0.42583 0.55924 0.3253 0.0
Mn1044 Mn 0.05868 0.54372 0.09248 0.0
Mn1045 Mn 0.12618 0.54579 0.0719 0.0
C1046 C 0.0951 0.57649 0.10331 0.0
C1047 C 0.0096 0.56214 0.09345 0.0
C1048 C 0.10518 0.49461 0.09656 0.0
O1049 O 0.05156 0.52324 0.06758 0.0
O1050 O 0.0955 0.53341 0.05337 0.0
C1051 C 0.11805 0.59517 0.04505 0.0
N1052 N 0.1331 0.5831 0.0596 0.0
C1053 C 0.16643 0.6255 0.06099 0.0
C1054 C 0.1516 0.63811 0.04581 0.0
C1055 C 0.12725 0.62291 0.03784 0.0
C1056 C 0.1566 0.59752 0.06737 0.0
H1057 H 0.09895 0.58392 0.03913 0.0
C1058 C 0.06819 0.52418 0.0532 0.0
O1059 O 0.01625 0.53634 0.10075 0.0
O1060 O 0.03114 0.57642 0.08534 0.0
N1061 N 0.15688 0.55849 0.08868 0.0
C1062 C 0.1666 0.54494 0.10443 0.0
C1063 C 0.18934 0.55845 0.11492 0.0
C1064 C 0.2019 0.58574 0.10912 0.0
C1065 C 0.19156 0.59928 0.09287 0.0
C1066 C 0.16897 0.58466 0.0829 0.0
H1067 H 0.15695 0.5241 0.10906 0.0
O1068 O 0.07301 0.56852 0.11388 0.0
O1069 O 0.09518 0.56458 0.08697 0.0
O1070 O 0.08103 0.50673 0.10236 0.0
O1071 O 0.12219 0.50646 0.0844 0.0
C1072 C 0.20223 0.62713 0.08646 0.0
C1073 C 0.18975 0.64018 0.0705 0.0
H1074 H 0.15832 0.65972 0.04039 0.0
H1075 H 0.11542 0.63269 0.02629 0.0
H1076 H 0.19707 0.54793 0.1275 0.0
H1077 H 0.21922 0.59625 0.11735 0.0
H1078 H 0.21965 0.63897 0.09391 0.0
H1079 H 0.19773 0.66188 0.06592 0.0
Mn1080 Mn 0.20671 0.30711 0.84522 0.0
Mn1081 Mn 0.19214 0.37227 0.82353 0.0
C1082 C 0.17526 0.34202 0.85881 0.0
C1083 C 0.1965 0.25672 0.85062 0.0
C1084 C 0.25062 0.35956 0.84368 0.0
O1085 O 0.22011 0.29892 0.81879 0.0
O1086 O 0.20409 0.34133 0.80504 0.0
C1087 C 0.13831 0.3536 0.80251 0.0
N1088 N 0.15167 0.37241 0.81482 0.0
C1089 C 0.10644 0.40132 0.81808 0.0
C1090 C 0.09237 0.38261 0.80517 0.0
C1091 C 0.1083 0.35848 0.79748 0.0
C1092 C 0.13626 0.39513 0.82272 0.0
H1093 H 0.1504 0.33495 0.79665 0.0
C1094 C 0.21502 0.31473 0.80443 0.0
O1095 O 0.22276 0.2681 0.85385 0.0
O1096 O 0.17637 0.27439 0.84363 0.0
N1097 N 0.17966 0.40393 0.83968 0.0
C1098 C 0.19627 0.41969 0.85215 0.0
C1099 C 0.18328 0.44399 0.86152 0.0
C1100 C 0.15346 0.45211 0.85783 0.0
C1101 C 0.13697 0.43593 0.84472 0.0
C1102 C 0.15111 0.41191 0.83581 0.0
H1103 H 0.21921 0.41373 0.85504 0.0
O1104 O 0.18795 0.32142 0.86872 0.0
O1105 O 0.18088 0.34116 0.84125 0.0
O1106 O 0.24302 0.33389 0.84979 0.0
O1107 O 0.2341 0.37493 0.83278 0.0
C1108 C 0.10713 0.44288 0.84003 0.0
C1109 C 0.09196 0.42573 0.82662 0.0
H1110 H 0.06925 0.38635 0.80122 0.0
H1111 H 0.09749 0.34371 0.78768 0.0
H1112 H 0.19623 0.45645 0.87155 0.0
H1113 H 0.1435 0.47084 0.8651 0.0
H1114 H 0.09563 0.46136 0.84666 0.0
H1115 H 0.06899 0.43124 0.82317 0.0
Mn1116 Mn 0.44172 0.45877 0.60407 0.0
Mn1117 Mn 0.38341 0.45322 0.5746 0.0
C1118 C 0.40051 0.43012 0.61183 0.0
C1119 C 0.48856 0.44357 0.61467 0.0
C1120 C 0.39389 0.50756 0.59888 0.0
O1121 O 0.45959 0.47276 0.57982 0.0
O1122 O 0.4198 0.46701 0.56094 0.0
C1123 C 0.40621 0.40312 0.55173 0.0
N1124 N 0.38472 0.41473 0.56302 0.0
C1125 C 0.35468 0.37015 0.56023 0.0
C1126 C 0.3764 0.35779 0.54849 0.0
C1127 C 0.40234 0.3743 0.5443 0.0
C1128 C 0.3599 0.39884 0.56738 0.0
H1129 H 0.42616 0.41573 0.54841 0.0
C1130 C 0.44737 0.47361 0.56393 0.0
O1131 O 0.47847 0.47039 0.61775 0.0
O1132 O 0.47159 0.42557 0.60522 0.0
N1133 N 0.34695 0.43961 0.58577 0.0
C1134 C 0.32807 0.45475 0.59726 0.0
C1135 C 0.30127 0.44111 0.60302 0.0
C1136 C 0.29398 0.41223 0.59673 0.0
C1137 C 0.31345 0.39735 0.5846 0.0
C1138 C 0.33983 0.41207 0.57933 0.0
H1139 H 0.33347 0.47697 0.60212 0.0
O1140 O 0.41841 0.44011 0.62453 0.0
O1141 O 0.40753 0.43682 0.5949 0.0
O1142 O 0.41748 0.49746 0.60662 0.0
O1143 O 0.37964 0.49318 0.58641 0.0
C1144 C 0.30758 0.3686 0.57743 0.0
C1145 C 0.3281 0.35509 0.56516 0.0
H1146 H 0.37345 0.3356 0.54269 0.0
H1147 H 0.41927 0.36486 0.5353 0.0
H1148 H 0.28629 0.45283 0.61229 0.0
H1149 H 0.27333 0.40175 0.60123 0.0
H1150 H 0.28735 0.35666 0.58124 0.0
H1151 H 0.32337 0.33294 0.55976 0.0
H1152 H 0.13746 0.40827 0.37635 0.0
H1153 H 0.11692 0.37739 0.43144 0.0
H1154 H 0.14866 0.33272 0.42658 0.0
H1155 H 0.12575 0.34057 0.35661 0.0
H1156 H 0.15408 0.34359 0.33895 0.0
H1157 H 0.13761 0.37689 0.34847 0.0
H1158 H 0.19035 0.39658 0.35734 0.0
H1159 H 0.20712 0.36318 0.34782 0.0
H1160 H 0.21463 0.37375 0.37138 0.0
H1161 H 0.17682 0.28838 0.41437 0.0
H1162 H 0.19204 0.24544 0.3948 0.0
H1163 H 0.18848 0.30238 0.34648 0.0
C1164 C 0.14084 0.39267 0.38761 0.0
C1165 C 0.12662 0.39721 0.40474 0.0
C1166 C 0.12953 0.37535 0.41874 0.0
C1167 C 0.14729 0.34979 0.41601 0.0
C1168 C 0.16117 0.34592 0.39893 0.0
C1169 C 0.15776 0.36663 0.38487 0.0
C1170 C 0.16991 0.35469 0.3668 0.0
C1171 C 0.14537 0.35387 0.35184 0.0
C1172 C 0.19713 0.37314 0.36046 0.0
C1173 C 0.17918 0.32345 0.37264 0.0
C1174 C 0.17515 0.31923 0.39138 0.0
C1175 C 0.18051 0.29156 0.39974 0.0
C1176 C 0.18924 0.26735 0.38857 0.0
C1177 C 0.19162 0.27088 0.36925 0.0
C1178 C 0.1872 0.29939 0.36129 0.0
H1179 H 0.99418 0.90649 0.623 0.0
H1180 H 0.95822 0.95712 0.57714 0.0
H1181 H 0.90652 0.94728 0.58842 0.0
H1182 H 0.93969 0.84899 0.62019 0.0
H1183 H 0.93888 0.84235 0.64472 0.0
H1184 H 0.97234 0.85671 0.63403 0.0
H1185 H 0.97172 0.89983 0.6569 0.0
H1186 H 0.93657 0.88903 0.66718 0.0
H1187 H 0.94114 0.92592 0.65712 0.0
H1188 H 0.85951 0.92471 0.60177 0.0
H1189 H 0.82049 0.89433 0.61737 0.0
H1190 H 0.88695 0.86035 0.65548 0.0
C1191 C 0.97536 0.91613 0.61566 0.0
C1192 C 0.97983 0.93308 0.59951 0.0
C1193 C 0.95495 0.94469 0.58983 0.0
C1194 C 0.92564 0.93906 0.59608 0.0
C1195 C 0.92186 0.92155 0.61189 0.0
C1196 C 0.9461 0.91025 0.62152 0.0
C1197 C 0.93621 0.88981 0.63702 0.0
C1198 C 0.94744 0.85757 0.63379 0.0
C1199 C 0.94696 0.90185 0.65571 0.0
C1200 C 0.90245 0.89175 0.63492 0.0
C1201 C 0.89465 0.90974 0.62011 0.0
C1202 C 0.8652 0.9114 0.61374 0.0
C1203 C 0.84323 0.8941 0.62262 0.0
C1204 C 0.85065 0.87621 0.63804 0.0
C1205 C 0.88057 0.87514 0.64431 0.0
H1206 H 0.40617 0.62998 0.90249 0.0
H1207 H 0.3544 0.56788 0.86953 0.0
H1208 H 0.3212 0.60941 0.85955 0.0
H1209 H 0.34667 0.68805 0.91394 0.0
H1210 H 0.37418 0.71684 0.9104 0.0
H1211 H 0.38576 0.68049 0.91861 0.0
H1212 H 0.42332 0.68033 0.89053 0.0
H1213 H 0.40842 0.71521 0.88211 0.0
H1214 H 0.40837 0.68257 0.86746 0.0
H1215 H 0.29558 0.65838 0.85181 0.0
H1216 H 0.28512 0.71108 0.84277 0.0
H1217 H 0.35851 0.74118 0.8772 0.0
C1218 C 0.38705 0.62513 0.89376 0.0
C1219 C 0.3816 0.59575 0.88748 0.0
C1220 C 0.35796 0.59022 0.87499 0.0
C1221 C 0.33905 0.61361 0.86932 0.0
C1222 C 0.34496 0.64252 0.87572 0.0
C1223 C 0.36882 0.64843 0.88738 0.0
C1224 C 0.37419 0.68182 0.88926 0.0
C1225 C 0.36998 0.69235 0.90927 0.0
C1226 C 0.40541 0.69047 0.88189 0.0
C1227 C 0.34954 0.69374 0.87699 0.0
C1228 C 0.33241 0.67082 0.86966 0.0
C1229 C 0.30872 0.67651 0.85757 0.0
C1230 C 0.30283 0.70638 0.85258 0.0
C1231 C 0.321 0.72983 0.85941 0.0
C1232 C 0.34431 0.72347 0.8719 0.0
H1233 H 0.54946 0.07742 0.09007 0.0
H1234 H 0.49332 0.07914 0.13886 0.0
H1235 H 0.5359 0.09806 0.15727 0.0
H1236 H 0.62009 0.05391 0.11607 0.0
H1237 H 0.64356 0.07591 0.10103 0.0
H1238 H 0.60971 0.05904 0.09224 0.0
H1239 H 0.59169 0.11127 0.0811 0.0
H1240 H 0.62519 0.1283 0.09008 0.0
H1241 H 0.58896 0.14159 0.09748 0.0
H1242 H 0.57961 0.12788 0.16793 0.0
H1243 H 0.62625 0.1567 0.17239 0.0
H1244 H 0.65807 0.128 0.11884 0.0
C1245 C 0.54661 0.08086 0.10476 0.0
C1246 C 0.51842 0.07668 0.11319 0.0
C1247 C 0.51502 0.0818 0.13232 0.0
C1248 C 0.53899 0.09264 0.14284 0.0
C1249 C 0.56639 0.0973 0.13408 0.0
C1250 C 0.5707 0.09062 0.11564 0.0
C1251 C 0.60229 0.09852 0.10959 0.0
C1252 C 0.61995 0.07015 0.10443 0.0
C1253 C 0.60199 0.12127 0.09362 0.0
C1254 C 0.61432 0.11238 0.12718 0.0
C1255 C 0.59313 0.11157 0.1411 0.0
C1256 C 0.59711 0.12706 0.1576 0.0
C1257 C 0.62379 0.14307 0.16013 0.0
C1258 C 0.64668 0.14231 0.14666 0.0
C1259 C 0.64162 0.12725 0.12983 0.0
H1260 H 0.166 0.70523 0.16651 0.0
H1261 H 0.16965 0.76 0.11715 0.0
H1262 H 0.15158 0.71722 0.09859 0.0
H1263 H 0.19206 0.63546 0.14276 0.0
H1264 H 0.16869 0.61148 0.15667 0.0
H1265 H 0.18319 0.64593 0.16616 0.0
H1266 H 0.12918 0.66293 0.17424 0.0
H1267 H 0.11451 0.62861 0.16479 0.0
H1268 H 0.10119 0.6642 0.15632 0.0
H1269 H 0.12552 0.6722 0.08662 0.0
H1270 H 0.10111 0.62371 0.08043 0.0
H1271 H 0.12083 0.59435 0.13603 0.0
C1272 C 0.16333 0.70792 0.15176 0.0
C1273 C 0.1691 0.73578 0.14317 0.0
C1274 C 0.16551 0.7387 0.12388 0.0
C1275 C 0.1552 0.71461 0.11326 0.0
C1276 C 0.14937 0.68752 0.1221 0.0
C1277 C 0.15399 0.68369 0.1408 0.0
C1278 C 0.14617 0.65194 0.14667 0.0
C1279 C 0.1742 0.63522 0.15347 0.0
C1280 C 0.12128 0.65194 0.16137 0.0
C1281 C 0.13513 0.63908 0.12853 0.0
C1282 C 0.13706 0.66016 0.1146 0.0
C1283 C 0.1252 0.655 0.09715 0.0
C1284 C 0.11171 0.62727 0.09368 0.0
C1285 C 0.11123 0.60459 0.10728 0.0
C1286 C 0.12247 0.6108 0.12509 0.0
H1287 H 0.50862 0.88382 0.37454 0.0
H1288 H 0.54017 0.95519 0.41008 0.0
H1289 H 0.59189 0.94776 0.39837 0.0
H1290 H 0.56893 0.83578 0.3798 0.0
H1291 H 0.5698 0.82294 0.35622 0.0
H1292 H 0.53524 0.83616 0.36607 0.0
H1293 H 0.5303 0.87372 0.3394 0.0
H1294 H 0.56572 0.86249 0.32957 0.0
H1295 H 0.55912 0.90123 0.33555 0.0
H1296 H 0.64044 0.92544 0.38773 0.0
H1297 H 0.68203 0.89414 0.37586 0.0
H1298 H 0.61903 0.84199 0.3438 0.0
C1299 C 0.52641 0.89829 0.37946 0.0
C1300 C 0.52075 0.92016 0.39307 0.0
C1301 C 0.5443 0.93857 0.39948 0.0
C1302 C 0.57363 0.93447 0.39291 0.0
C1303 C 0.57871 0.91234 0.37967 0.0
C1304 C 0.55565 0.89494 0.37273 0.0
C1305 C 0.5673 0.87181 0.3592 0.0
C1306 C 0.55988 0.83979 0.36572 0.0
C1307 C 0.5549 0.87765 0.33976 0.0
C1308 C 0.60067 0.87804 0.36017 0.0
C1309 C 0.60679 0.9014 0.37216 0.0
C1310 C 0.63599 0.90805 0.37768 0.0
C1311 C 0.65945 0.89025 0.37089 0.0
C1312 C 0.65371 0.86697 0.35817 0.0
C1313 C 0.62401 0.86094 0.35264 0.0
H1314 H 0.35674 0.26055 0.62843 0.0
H1315 H 0.28647 0.29169 0.66494 0.0
H1316 H 0.29667 0.34418 0.65547 0.0
H1317 H 0.40757 0.31938 0.6368 0.0
H1318 H 0.4211 0.32133 0.61339 0.0
H1319 H 0.40659 0.28658 0.62228 0.0
H1320 H 0.37043 0.28451 0.59502 0.0
H1321 H 0.38181 0.32055 0.5862 0.0
H1322 H 0.34299 0.31352 0.59188 0.0
H1323 H 0.32059 0.39293 0.64614 0.0
H1324 H 0.3525 0.43451 0.63478 0.0
H1325 H 0.40288 0.37192 0.60131 0.0
C1326 C 0.34317 0.27848 0.63408 0.0
C1327 C 0.32068 0.27245 0.64722 0.0
C1328 C 0.30354 0.29617 0.65466 0.0
C1329 C 0.30923 0.32592 0.64939 0.0
C1330 C 0.33187 0.33132 0.63652 0.0
C1331 C 0.34832 0.30822 0.62879 0.0
C1332 C 0.37212 0.32008 0.6158 0.0
C1333 C 0.4037 0.31133 0.62247 0.0
C1334 C 0.36652 0.30906 0.59603 0.0
C1335 C 0.36685 0.35352 0.61764 0.0
C1336 C 0.34381 0.35955 0.62988 0.0
C1337 C 0.33787 0.38861 0.63599 0.0
C1338 C 0.35602 0.41205 0.62951 0.0
C1339 C 0.37896 0.40641 0.61654 0.0
C1340 C 0.38432 0.37686 0.61046 0.0
H1341 H 0.99327 0.12188 0.88768 0.0
H1342 H 0.96511 0.04749 0.92196 0.0
H1343 H 0.91241 0.05536 0.91203 0.0
H1344 H 0.92779 0.16858 0.89531 0.0
H1345 H 0.9276 0.18256 0.87198 0.0
H1346 H 0.96239 0.17145 0.88258 0.0
H1347 H 0.972 0.13663 0.85524 0.0
H1348 H 0.93636 0.14475 0.84469 0.0
H1349 H 0.94645 0.10662 0.85026 0.0
H1350 H 0.86236 0.07539 0.90083 0.0
H1351 H 0.81957 0.10152 0.88597 0.0
H1352 H 0.88154 0.15767 0.85569 0.0
C1353 C 0.97593 0.10749 0.8932 0.0
C1354 C 0.98287 0.0844 0.90576 0.0
C1355 C 0.9599 0.06541 0.91239 0.0
C1356 C 0.93004 0.06975 0.90685 0.0
C1357 C 0.92381 0.09283 0.89444 0.0
C1358 C 0.94617 0.11119 0.88757 0.0
C1359 C 0.93373 0.13393 0.87411 0.0
C1360 C 0.93813 0.16602 0.88144 0.0
C1361 C 0.94792 0.13025 0.85492 0.0
C1362 C 0.90091 0.1252 0.87421 0.0
C1363 C 0.89548 0.10204 0.88646 0.0
C1364 C 0.8664 0.09283 0.89075 0.0
C1365 C 0.84229 0.10764 0.88226 0.0
C1366 C 0.84756 0.13032 0.86907 0.0
C1367 C 0.87717 0.13924 0.86505 0.0
H1368 H 0.91582 0.62238 0.64082 0.0
H1369 H 0.86543 0.60281 0.59115 0.0
H1370 H 0.83221 0.64595 0.59738 0.0
H1371 H 0.84932 0.64576 0.66745 0.0
H1372 H 0.86887 0.6745 0.68011 0.0
H1373 H 0.88873 0.64161 0.67237 0.0
H1374 H 0.92766 0.67466 0.65364 0.0
H1375 H 0.90869 0.70577 0.66433 0.0
H1376 H 0.91274 0.70484 0.63977 0.0
H1377 H 0.8057 0.69156 0.60812 0.0
H1378 H 0.78807 0.73862 0.62226 0.0
H1379 H 0.85591 0.73047 0.66486 0.0
C1380 C 0.89783 0.62743 0.63129 0.0
C1381 C 0.89362 0.61006 0.61517 0.0
C1382 C 0.86943 0.61652 0.60324 0.0
C1383 C 0.85035 0.64078 0.60676 0.0
C1384 C 0.85553 0.65809 0.62243 0.0
C1385 C 0.87861 0.65182 0.63456 0.0
C1386 C 0.87875 0.674 0.65051 0.0
C1387 C 0.87095 0.65801 0.66868 0.0
C1388 C 0.90878 0.69072 0.65211 0.0
C1389 C 0.85362 0.69488 0.64465 0.0
C1390 C 0.83999 0.68464 0.62873 0.0
C1391 C 0.81613 0.6998 0.62061 0.0
C1392 C 0.80625 0.72649 0.62877 0.0
C1393 C 0.82067 0.73818 0.64461 0.0
C1394 C 0.84454 0.72203 0.65273 0.0
H1395 H 0.13709 0.163 0.38481 0.0
H1396 H 0.15339 0.12584 0.3305 0.0
H1397 H 0.10911 0.09295 0.33387 0.0
H1398 H 0.11355 0.09236 0.40513 0.0
H1399 H 0.08568 0.10904 0.41992 0.0
H1400 H 0.11841 0.1302 0.41336 0.0
H1401 H 0.08493 0.17303 0.3994 0.0
H1402 H 0.0533 0.15207 0.40791 0.0
H1403 H 0.05487 0.16255 0.38404 0.0
H1404 H 0.06343 0.06431 0.34302 0.0
H1405 H 0.01764 0.04287 0.35692 0.0
H1406 H 0.03031 0.0987 0.40534 0.0
C1407 C 0.131 0.14811 0.37362 0.0
C1408 C 0.14775 0.14758 0.3571 0.0
C1409 C 0.14002 0.1272 0.34295 0.0
C1410 C 0.11514 0.1083 0.34482 0.0
C1411 C 0.09859 0.10975 0.36109 0.0
C1412 C 0.1061 0.1291 0.37527 0.0
C1413 C 0.08486 0.12558 0.39148 0.0
C1414 C 0.10163 0.11357 0.40847 0.0
C1415 C 0.06858 0.15509 0.39594 0.0
C1416 C 0.0635 0.10225 0.38382 0.0
C1417 C 0.07224 0.09299 0.36644 0.0
C1418 C 0.05631 0.07138 0.35662 0.0
C1419 C 0.03041 0.05926 0.36465 0.0
C1420 C 0.02044 0.0692 0.38215 0.0
C1421 C 0.03739 0.09078 0.3919 0.0
H1422 H 0.58064 0.38739 0.13479 0.0
H1423 H 0.63261 0.41167 0.08652 0.0
H1424 H 0.66802 0.37049 0.09292 0.0
H1425 H 0.64767 0.36745 0.16252 0.0
H1426 H 0.62913 0.33735 0.17455 0.0
H1427 H 0.60789 0.36935 0.16681 0.0
H1428 H 0.57167 0.33474 0.14741 0.0
H1429 H 0.592 0.30408 0.15761 0.0
H1430 H 0.58848 0.30627 0.13304 0.0
H1431 H 0.69562 0.32544 0.10303 0.0
H1432 H 0.71493 0.27877 0.11671 0.0
H1433 H 0.64607 0.28297 0.15901 0.0
C1434 C 0.5995 0.38383 0.12564 0.0
C1435 C 0.60345 0.40177 0.10976 0.0
C1436 C 0.62877 0.39735 0.09836 0.0
C1437 C 0.6491 0.37425 0.10198 0.0
C1438 C 0.6441 0.35617 0.11732 0.0
C1439 C 0.62014 0.36074 0.12911 0.0
C1440 C 0.62056 0.33817 0.14481 0.0
C1441 C 0.62668 0.35403 0.16326 0.0
C1442 C 0.59142 0.3198 0.14573 0.0
C1443 C 0.64707 0.31893 0.13911 0.0
C1444 C 0.66072 0.33029 0.12349 0.0
C1445 C 0.68533 0.3164 0.11535 0.0
C1446 C 0.69612 0.28989 0.12323 0.0
C1447 C 0.68199 0.27723 0.1389 0.0
C1448 C 0.65732 0.29216 0.14704 0.0
H1449 H 0.46175 0.94627 0.88487 0.0
H1450 H 0.49303 0.87903 0.92367 0.0
H1451 H 0.44725 0.84964 0.91848 0.0
H1452 H 0.37775 0.93524 0.89709 0.0
H1453 H 0.36745 0.9424 0.87345 0.0
H1454 H 0.39943 0.9611 0.88343 0.0
H1455 H 0.42845 0.94288 0.85608 0.0
H1456 H 0.40134 0.91722 0.8466 0.0
H1457 H 0.43778 0.90409 0.8541 0.0
H1458 H 0.39994 0.82606 0.90822 0.0
H1459 H 0.35495 0.80796 0.89168 0.0
H1460 H 0.35624 0.88732 0.8572 0.0
C1461 C 0.45851 0.92581 0.89266 0.0
C1462 C 0.48101 0.91495 0.90465 0.0
C1463 C 0.47616 0.88785 0.91441 0.0
C1464 C 0.4501 0.87102 0.91166 0.0
C1465 C 0.4288 0.8818 0.89934 0.0
C1466 C 0.43232 0.90882 0.89024 0.0
C1467 C 0.40702 0.91384 0.8766 0.0
C1468 C 0.38671 0.93968 0.88303 0.0
C1469 C 0.41924 0.91979 0.85714 0.0
C1470 C 0.39069 0.88405 0.87811 0.0
C1471 C 0.40271 0.86673 0.89208 0.0
C1472 C 0.39039 0.83925 0.89716 0.0
C1473 C 0.36501 0.82911 0.8877 0.0
C1474 C 0.35316 0.84575 0.87281 0.0
C1475 C 0.36587 0.87371 0.86807 0.0
H1476 H 0.91187 0.3722 0.8702 0.0
H1477 H 0.85333 0.40075 0.91453 0.0
H1478 H 0.81792 0.3598 0.90692 0.0
H1479 H 0.85063 0.35223 0.83882 0.0
H1480 H 0.87023 0.32079 0.82891 0.0
H1481 H 0.891 0.35256 0.83746 0.0
H1482 H 0.92191 0.31818 0.86037 0.0
H1483 H 0.90281 0.28765 0.84916 0.0
H1484 H 0.90122 0.29099 0.87378 0.0
H1485 H 0.79025 0.31442 0.89541 0.0
H1486 H 0.77287 0.26698 0.88135 0.0
H1487 H 0.84934 0.26807 0.84434 0.0
C1488 C 0.89165 0.36956 0.87832 0.0
C1489 C 0.88568 0.38869 0.89338 0.0
C1490 C 0.85864 0.38548 0.90337 0.0
C1491 C 0.83833 0.36255 0.89902 0.0
C1492 C 0.8452 0.34342 0.8844 0.0
C1493 C 0.87118 0.34669 0.87416 0.0
C1494 C 0.87302 0.32326 0.85903 0.0
C1495 C 0.8711 0.3381 0.83992 0.0
C1496 C 0.90146 0.30396 0.86072 0.0
C1497 C 0.84503 0.30521 0.86315 0.0
C1498 C 0.82892 0.31765 0.87753 0.0
C1499 C 0.80257 0.30458 0.88405 0.0
C1500 C 0.79283 0.27769 0.87596 0.0
C1501 C 0.80976 0.26391 0.86178 0.0
C1502 C 0.83591 0.27817 0.85514 0.0
H1503 H 0.36912 0.16749 0.61894 0.0
H1504 H 0.34367 0.11392 0.66627 0.0
H1505 H 0.38575 0.07925 0.6601 0.0
H1506 H 0.39017 0.10362 0.5904 0.0
H1507 H 0.42085 0.12273 0.57929 0.0
H1508 H 0.38885 0.14371 0.58729 0.0
H1509 H 0.42323 0.17789 0.60793 0.0
H1510 H 0.45437 0.1579 0.59798 0.0
H1511 H 0.45055 0.15991 0.62259 0.0
H1512 H 0.43082 0.05122 0.64927 0.0
H1513 H 0.47717 0.032 0.63492 0.0
H1514 H 0.4736 0.10348 0.59433 0.0
C1515 C 0.37273 0.14856 0.62802 0.0
C1516 C 0.3541 0.14381 0.64349 0.0
C1517 C 0.35856 0.11838 0.65478 0.0
C1518 C 0.38215 0.09847 0.65127 0.0
C1519 C 0.40067 0.1041 0.63619 0.0
C1520 C 0.39627 0.12847 0.6247 0.0
C1521 C 0.41918 0.12893 0.60924 0.0
C1522 C 0.40384 0.12448 0.59044 0.0
C1523 C 0.43788 0.1579 0.60948 0.0
C1524 C 0.43794 0.10187 0.61437 0.0
C1525 C 0.42649 0.08756 0.62974 0.0
C1526 C 0.43998 0.06215 0.63719 0.0
C1527 C 0.46625 0.05136 0.62891 0.0
C1528 C 0.47896 0.06626 0.61354 0.0
C1529 C 0.46436 0.09162 0.60607 0.0
H1530 H 0.64836 0.72297 0.34526 0.0
H1531 H 0.71978 0.72726 0.38585 0.0
H1532 H 0.70103 0.6807 0.40016 0.0
H1533 H 0.59302 0.70121 0.37272 0.0
H1534 H 0.57443 0.67301 0.35898 0.0
H1535 H 0.5947 0.70305 0.34805 0.0
H1536 H 0.63004 0.6692 0.33025 0.0
H1537 H 0.60868 0.63758 0.33846 0.0
H1538 H 0.64873 0.63867 0.34177 0.0
H1539 H 0.67331 0.63576 0.4111 0.0
H1540 H 0.63765 0.59504 0.41831 0.0
H1541 H 0.58367 0.61966 0.37099 0.0
C1542 C 0.66034 0.7138 0.35697 0.0
C1543 C 0.6855 0.72869 0.36448 0.0
C1544 C 0.70056 0.71611 0.37982 0.0
C1545 C 0.6901 0.68967 0.38803 0.0
C1546 C 0.66494 0.67583 0.3805 0.0
C1547 C 0.65051 0.68712 0.36513 0.0
C1548 C 0.62333 0.66834 0.36019 0.0
C1549 C 0.59464 0.68747 0.36001 0.0
C1550 C 0.62798 0.65251 0.34156 0.0
C1551 C 0.62364 0.64592 0.37592 0.0
C1552 C 0.64833 0.65022 0.38715 0.0
C1553 C 0.65388 0.63218 0.40244 0.0
C1554 C 0.63344 0.60934 0.40652 0.0
C1555 C 0.60755 0.60513 0.39557 0.0
C1556 C 0.603 0.62305 0.37978 0.0
H1557 H 0.13195 0.841 0.12189 0.0
H1558 H 0.15527 0.89068 0.17118 0.0
H1559 H 0.11255 0.92506 0.16582 0.0
H1560 H 0.11036 0.90747 0.09556 0.0
H1561 H 0.08062 0.8887 0.08333 0.0
H1562 H 0.11298 0.86785 0.09087 0.0
H1563 H 0.07902 0.8305 0.10993 0.0
H1564 H 0.04792 0.85049 0.09998 0.0
H1565 H 0.05032 0.84642 0.12454 0.0
H1566 H 0.06594 0.95235 0.15586 0.0
H1567 H 0.01901 0.97104 0.14182 0.0
H1568 H 0.02676 0.90419 0.09857 0.0
C1569 C 0.12778 0.85903 0.13158 0.0
C1570 C 0.14588 0.86263 0.14737 0.0
C1571 C 0.14074 0.88701 0.15942 0.0
C1572 C 0.11678 0.90675 0.15638 0.0
C1573 C 0.09865 0.90209 0.14099 0.0
C1574 C 0.10396 0.87894 0.1287 0.0
C1575 C 0.08155 0.87938 0.11299 0.0
C1576 C 0.09732 0.88626 0.0946 0.0
C1577 C 0.06372 0.84992 0.11183 0.0
C1578 C 0.06182 0.90525 0.11895 0.0
C1579 C 0.07238 0.91841 0.13494 0.0
C1580 C 0.05755 0.94236 0.14327 0.0
C1581 C 0.03095 0.95285 0.13519 0.0
C1582 C 0.01927 0.93905 0.11913 0.0
C1583 C 0.03517 0.9152 0.11084 0.0
H1584 H 0.67342 0.79713 0.84042 0.0
H1585 H 0.68308 0.7425 0.88949 0.0
H1586 H 0.66769 0.78548 0.90885 0.0
H1587 H 0.70142 0.86818 0.86282 0.0
H1588 H 0.67587 0.89104 0.84967 0.0
H1589 H 0.69052 0.85685 0.8399 0.0
H1590 H 0.63629 0.83801 0.83407 0.0
H1591 H 0.62161 0.87205 0.8438 0.0
H1592 H 0.61027 0.83632 0.85309 0.0
H1593 H 0.64143 0.83047 0.92173 0.0
H1594 H 0.61219 0.8765 0.92761 0.0
H1595 H 0.62731 0.90543 0.87146 0.0
C1596 C 0.67283 0.79453 0.85527 0.0
C1597 C 0.67937 0.76665 0.86354 0.0
C1598 C 0.67837 0.76384 0.88297 0.0
C1599 C 0.66966 0.78809 0.89405 0.0
C1600 C 0.66296 0.81524 0.8855 0.0
C1601 C 0.66516 0.81884 0.86659 0.0
C1602 C 0.65579 0.85012 0.86085 0.0
C1603 C 0.6825 0.86757 0.85283 0.0
C1604 C 0.62942 0.84904 0.84716 0.0
C1605 C 0.64633 0.86291 0.87932 0.0
C1606 C 0.65068 0.84245 0.89339 0.0
C1607 C 0.63942 0.84736 0.91108 0.0
C1608 C 0.62328 0.87379 0.91444 0.0
C1609 C 0.61971 0.89555 0.90045 0.0
C1610 C 0.6314 0.88994 0.88269 0.0
H1611 H 0.48666 0.40584 0.12691 0.0
H1612 H 0.45347 0.45789 0.08084 0.0
H1613 H 0.40125 0.44979 0.09156 0.0
H1614 H 0.43104 0.3507 0.12568 0.0
H1615 H 0.42875 0.34607 0.15035 0.0
H1616 H 0.46305 0.35892 0.13999 0.0
H1617 H 0.46198 0.40497 0.16129 0.0
H1618 H 0.4267 0.39384 0.1713 0.0
H1619 H 0.43057 0.43024 0.16064 0.0
H1620 H 0.35339 0.42921 0.10432 0.0
H1621 H 0.3132 0.39894 0.11878 0.0
H1622 H 0.37693 0.36377 0.1582 0.0
C1623 C 0.4683 0.416 0.11939 0.0
C1624 C 0.47366 0.4327 0.10324 0.0
C1625 C 0.44945 0.44528 0.09338 0.0
C1626 C 0.41987 0.44085 0.09939 0.0
C1627 C 0.41512 0.42403 0.11536 0.0
C1628 C 0.43868 0.41191 0.12527 0.0
C1629 C 0.42749 0.39289 0.14114 0.0
C1630 C 0.43821 0.36022 0.13916 0.0
C1631 C 0.43723 0.40629 0.15971 0.0
C1632 C 0.39393 0.39549 0.13833 0.0
C1633 C 0.38725 0.41358 0.12337 0.0
C1634 C 0.35817 0.41588 0.11644 0.0
C1635 C 0.3355 0.39871 0.1247 0.0
C1636 C 0.34191 0.38027 0.14003 0.0
C1637 C 0.37133 0.37904 0.1471 0.0
H1638 H 0.86894 0.09443 0.36738 0.0
H1639 H 0.905 0.12554 0.41934 0.0
H1640 H 0.87689 0.17287 0.41621 0.0
H1641 H 0.88231 0.16147 0.34542 0.0
H1642 H 0.85013 0.16026 0.33039 0.0
H1643 H 0.86613 0.12597 0.33889 0.0
H1644 H 0.81454 0.11053 0.35236 0.0
H1645 H 0.7983 0.14495 0.34394 0.0
H1646 H 0.79544 0.1354 0.36805 0.0
H1647 H 0.84827 0.21781 0.40658 0.0
H1648 H 0.83038 0.26124 0.3885 0.0
H1649 H 0.82009 0.20453 0.34042 0.0
C1650 C 0.86985 0.11085 0.37838 0.0
C1651 C 0.88699 0.10553 0.39438 0.0
C1652 C 0.88988 0.12832 0.40779 0.0
C1653 C 0.87423 0.15534 0.40601 0.0
C1654 C 0.85681 0.1597 0.3903 0.0
C1655 C 0.85519 0.13841 0.37646 0.0
C1656 C 0.83997 0.15092 0.35944 0.0
C1657 C 0.86089 0.14958 0.34255 0.0
C1658 C 0.8103 0.13447 0.35573 0.0
C1659 C 0.83445 0.1829 0.3656 0.0
C1660 C 0.84314 0.18704 0.38374 0.0
C1661 C 0.84118 0.21483 0.39242 0.0
C1662 C 0.83099 0.23931 0.3821 0.0
C1663 C 0.82381 0.23589 0.36325 0.0
C1664 C 0.82509 0.20736 0.35494 0.0
H1665 H 0.16152 0.62089 0.62219 0.0
H1666 H 0.13515 0.64028 0.6783 0.0
H1667 H 0.08817 0.61231 0.67384 0.0
H1668 H 0.09378 0.64122 0.60514 0.0
H1669 H 0.09244 0.61486 0.5863 0.0
H1670 H 0.12801 0.62697 0.59522 0.0
H1671 H 0.14333 0.57184 0.60133 0.0
H1672 H 0.10783 0.5594 0.5922 0.0
H1673 H 0.11931 0.54814 0.61502 0.0
H1674 H 0.04169 0.58811 0.66237 0.0
H1675 H 0.99657 0.57607 0.64397 0.0
H1676 H 0.04905 0.5812 0.59375 0.0
C1677 C 0.14642 0.61781 0.63374 0.0
C1678 C 0.15311 0.63026 0.65115 0.0
C1679 C 0.13177 0.62829 0.6655 0.0
C1680 C 0.10475 0.61289 0.66294 0.0
C1681 C 0.09871 0.60092 0.64559 0.0
C1682 C 0.11871 0.60374 0.6311 0.0
C1683 C 0.10432 0.59486 0.61296 0.0
C1684 C 0.10466 0.62104 0.5991 0.0
C1685 C 0.1196 0.56689 0.6049 0.0
C1686 C 0.0728 0.58785 0.61941 0.0
C1687 C 0.07042 0.59033 0.63837 0.0
C1688 C 0.04333 0.58583 0.64754 0.0
C1689 C 0.01788 0.57905 0.63702 0.0
C1690 C 0.01961 0.57782 0.61757 0.0
C1691 C 0.04738 0.58201 0.60865 0.0
H1692 H 0.62682 0.09371 0.63512 0.0
H1693 H 0.59406 0.12755 0.58293 0.0
H1694 H 0.61857 0.17618 0.58887 0.0
H1695 H 0.60942 0.15948 0.65933 0.0
H1696 H 0.6409 0.15776 0.67489 0.0
H1697 H 0.62597 0.12382 0.66511 0.0
H1698 H 0.67842 0.11031 0.65212 0.0
H1699 H 0.69361 0.14425 0.6619 0.0
H1700 H 0.69779 0.13677 0.63759 0.0
H1701 H 0.64517 0.22124 0.60069 0.0
H1702 H 0.6648 0.26286 0.61971 0.0
H1703 H 0.67389 0.20267 0.6663 0.0
C1704 C 0.62568 0.11117 0.62476 0.0
C1705 C 0.61058 0.10633 0.60791 0.0
C1706 C 0.60755 0.1302 0.59524 0.0
C1707 C 0.6211 0.15797 0.5986 0.0
C1708 C 0.63658 0.16185 0.6151 0.0
C1709 C 0.63837 0.13937 0.62818 0.0
C1710 C 0.65259 0.1508 0.64583 0.0
C1711 C 0.63092 0.14779 0.66225 0.0
C1712 C 0.68237 0.13457 0.64958 0.0
C1713 C 0.6578 0.18337 0.64078 0.0
C1714 C 0.64927 0.18893 0.62276 0.0
C1715 C 0.65194 0.21722 0.61481 0.0
C1716 C 0.66315 0.24063 0.62566 0.0
C1717 C 0.67078 0.23575 0.64434 0.0
C1718 C 0.66819 0.20678 0.65201 0.0
H1719 H 0.11614 0.33578 0.85129 0.0
H1720 H 0.17882 0.3849 0.8854 0.0
H1721 H 0.13656 0.41201 0.90011 0.0
H1722 H 0.05408 0.39095 0.84636 0.0
H1723 H 0.0273 0.36138 0.84927 0.0
H1724 H 0.06353 0.35317 0.83948 0.0
H1725 H 0.06761 0.31217 0.86559 0.0
H1726 H 0.03277 0.32423 0.87575 0.0
H1727 H 0.06655 0.32398 0.88937 0.0
H1728 H 0.08746 0.43389 0.91074 0.0
H1729 H 0.0348 0.44415 0.91979 0.0
H1730 H 0.00409 0.37544 0.88201 0.0
C1731 C 0.12081 0.35291 0.86149 0.0
C1732 C 0.15056 0.35965 0.86663 0.0
C1733 C 0.1561 0.38051 0.88087 0.0
C1734 C 0.13229 0.39588 0.88927 0.0
C1735 C 0.1031 0.38896 0.88382 0.0
C1736 C 0.09722 0.36744 0.87057 0.0
C1737 C 0.06392 0.3608 0.86935 0.0
C1738 C 0.05156 0.36693 0.84994 0.0
C1739 C 0.05734 0.32837 0.87538 0.0
C1740 C 0.05189 0.38311 0.88325 0.0
C1741 C 0.07486 0.39923 0.89138 0.0
C1742 C 0.06931 0.42134 0.90454 0.0
C1743 C 0.03948 0.42706 0.90955 0.0
C1744 C 0.01582 0.41053 0.90154 0.0
C1745 C 0.02202 0.38829 0.88827 0.0
H1746 H 0.8691 0.9077 0.13509 0.0
H1747 H 0.90708 0.87622 0.0837 0.0
H1748 H 0.88183 0.82751 0.08773 0.0
H1749 H 0.8859 0.8414 0.15825 0.0
H1750 H 0.85359 0.84176 0.1732 0.0
H1751 H 0.8683 0.87643 0.16434 0.0
H1752 H 0.81627 0.88942 0.1506 0.0
H1753 H 0.80131 0.85467 0.1594 0.0
H1754 H 0.79827 0.86333 0.13518 0.0
H1755 H 0.85459 0.78196 0.09773 0.0
H1756 H 0.83635 0.73872 0.1158 0.0
H1757 H 0.82363 0.79612 0.1634 0.0
C1758 C 0.87107 0.89081 0.12442 0.0
C1759 C 0.88774 0.89645 0.10823 0.0
C1760 C 0.89212 0.87315 0.09531 0.0
C1761 C 0.87818 0.84531 0.09763 0.0
C1762 C 0.86108 0.84067 0.11344 0.0
C1763 C 0.8582 0.86243 0.1269 0.0
C1764 C 0.8433 0.84984 0.14405 0.0
C1765 C 0.86402 0.85251 0.16095 0.0
C1766 C 0.81298 0.86523 0.14751 0.0
C1767 C 0.83907 0.81742 0.13829 0.0
C1768 C 0.84844 0.81304 0.1203 0.0
C1769 C 0.84712 0.78508 0.11181 0.0
C1770 C 0.83668 0.76073 0.12212 0.0
C1771 C 0.82857 0.76436 0.14083 0.0
C1772 C 0.82949 0.79304 0.14902 0.0
H1773 H 0.48985 0.61578 0.38489 0.0
H1774 H 0.45953 0.5406 0.41778 0.0
H1775 H 0.40732 0.54934 0.40719 0.0
H1776 H 0.42619 0.66284 0.39225 0.0
H1777 H 0.42621 0.67771 0.36912 0.0
H1778 H 0.46074 0.6652 0.37942 0.0
H1779 H 0.46916 0.63094 0.35163 0.0
H1780 H 0.43377 0.64072 0.34127 0.0
H1781 H 0.44253 0.60206 0.34624 0.0
H1782 H 0.358 0.57165 0.39672 0.0
H1783 H 0.31595 0.60022 0.38281 0.0
H1784 H 0.37935 0.6552 0.35285 0.0
C1785 C 0.47216 0.60109 0.38969 0.0
C1786 C 0.4783 0.57762 0.40212 0.0
C1787 C 0.45494 0.55861 0.40816 0.0
C1788 C 0.42536 0.56348 0.40227 0.0
C1789 C 0.41986 0.58704 0.39008 0.0
C1790 C 0.4427 0.6052 0.38361 0.0
C1791 C 0.43091 0.62885 0.37053 0.0
C1792 C 0.43633 0.66051 0.3783 0.0
C1793 C 0.44487 0.62543 0.35126 0.0
C1794 C 0.39785 0.6211 0.37058 0.0
C1795 C 0.3918 0.5975 0.38238 0.0
C1796 C 0.36248 0.58933 0.38688 0.0
C1797 C 0.33879 0.60554 0.37894 0.0
C1798 C 0.34467 0.62854 0.36607 0.0
C1799 C 0.37449 0.63649 0.3619 0.0
H1800 H 0.36137 0.11314 0.1025 0.0
H1801 H 0.44056 0.11258 0.13708 0.0
H1802 H 0.42366 0.15927 0.15221 0.0
H1803 H 0.34541 0.19458 0.09732 0.0
H1804 H 0.30655 0.18627 0.10009 0.0
H1805 H 0.33131 0.15793 0.09107 0.0
H1806 H 0.30699 0.12604 0.11873 0.0
H1807 H 0.28855 0.15862 0.12813 0.0
H1808 H 0.31459 0.1377 0.14208 0.0
H1809 H 0.40133 0.20763 0.16123 0.0
H1810 H 0.37158 0.25299 0.16686 0.0
H1811 H 0.30265 0.22029 0.12959 0.0
C1812 C 0.37526 0.12338 0.11301 0.0
C1813 C 0.40303 0.11047 0.11806 0.0
C1814 C 0.41977 0.12294 0.13269 0.0
C1815 C 0.41031 0.1493 0.14136 0.0
C1816 C 0.38322 0.16197 0.13587 0.0
C1817 C 0.36543 0.14916 0.1224 0.0
C1818 C 0.33568 0.16574 0.12084 0.0
C1819 C 0.32946 0.17664 0.10112 0.0
C1820 C 0.30993 0.14584 0.12786 0.0
C1821 C 0.34125 0.19178 0.13392 0.0
C1822 C 0.3686 0.18864 0.14267 0.0
C1823 C 0.37968 0.21022 0.15469 0.0
C1824 C 0.36263 0.23603 0.15769 0.0
C1825 C 0.33477 0.24026 0.14865 0.0
C1826 C 0.32371 0.21756 0.13683 0.0
H1827 H 0.52893 0.5994 0.90309 0.0
H1828 H 0.52005 0.53618 0.85792 0.0
H1829 H 0.56743 0.55482 0.84449 0.0
H1830 H 0.55499 0.65852 0.87986 0.0
H1831 H 0.58462 0.6718 0.89474 0.0
H1832 H 0.55301 0.65195 0.90421 0.0
H1833 H 0.58368 0.61063 0.91891 0.0
H1834 H 0.61699 0.63085 0.9123 0.0
H1835 H 0.61266 0.59204 0.90589 0.0
H1836 H 0.61466 0.58119 0.83545 0.0
H1837 H 0.65874 0.61416 0.83118 0.0
H1838 H 0.63744 0.66041 0.88208 0.0
C1839 C 0.53717 0.58931 0.89047 0.0
C1840 C 0.52083 0.56644 0.88147 0.0
C1841 C 0.53232 0.55363 0.86506 0.0
C1842 C 0.55919 0.56407 0.85734 0.0
C1843 C 0.57463 0.58685 0.86643 0.0
C1844 C 0.56436 0.59898 0.88281 0.0
C1845 C 0.58527 0.62333 0.88972 0.0
C1846 C 0.56855 0.6532 0.89225 0.0
C1847 C 0.60055 0.61362 0.90777 0.0
C1848 C 0.60775 0.62441 0.874 0.0
C1849 C 0.60159 0.60259 0.86098 0.0
C1850 C 0.61962 0.59845 0.84548 0.0
C1851 C 0.6444 0.61738 0.84308 0.0
C1852 C 0.65056 0.64042 0.8559 0.0
C1853 C 0.63254 0.64344 0.87182 0.0
H1854 H 0.19808 0.78522 0.62945 0.0
H1855 H 0.13106 0.75643 0.66917 0.0
H1856 H 0.09995 0.80011 0.66138 0.0
H1857 H 0.1847 0.86892 0.63758 0.0
H1858 H 0.19185 0.87696 0.61361 0.0
H1859 H 0.21096 0.84633 0.62478 0.0
H1860 H 0.19314 0.81386 0.59871 0.0
H1861 H 0.16793 0.84027 0.58812 0.0
H1862 H 0.15431 0.80464 0.59664 0.0
H1863 H 0.07572 0.84615 0.64933 0.0
H1864 H 0.05806 0.89042 0.63188 0.0
H1865 H 0.13746 0.88666 0.59753 0.0
C1866 C 0.17719 0.78852 0.63679 0.0
C1867 C 0.167 0.76739 0.6499 0.0
C1868 C 0.13936 0.77229 0.65907 0.0
C1869 C 0.12154 0.79712 0.65481 0.0
C1870 C 0.13178 0.81707 0.64149 0.0
C1871 C 0.15912 0.81341 0.63279 0.0
C1872 C 0.16385 0.83734 0.61821 0.0
C1873 C 0.18935 0.85865 0.62389 0.0
C1874 C 0.1701 0.8233 0.59925 0.0
C1875 C 0.13379 0.85328 0.61904 0.0
C1876 C 0.11634 0.84211 0.63322 0.0
C1877 C 0.0889 0.85485 0.638 0.0
C1878 C 0.07899 0.8798 0.62802 0.0
C1879 C 0.09577 0.89071 0.61293 0.0
C1880 C 0.12364 0.87757 0.60847 0.0
H1881 H 0.97006 0.44375 0.38363 0.0
H1882 H 0.99638 0.37588 0.42339 0.0
H1883 H 0.95081 0.34699 0.41615 0.0
H1884 H 0.88636 0.43582 0.39221 0.0
H1885 H 0.87834 0.44259 0.36819 0.0
H1886 H 0.9104 0.46002 0.37888 0.0
H1887 H 0.94136 0.43892 0.35292 0.0
H1888 H 0.91287 0.41545 0.34284 0.0
H1889 H 0.9475 0.39936 0.35134 0.0
H1890 H 0.90292 0.32534 0.40474 0.0
H1891 H 0.85721 0.31005 0.38794 0.0
H1892 H 0.86426 0.38864 0.35312 0.0
C1893 C 0.96589 0.42314 0.3911 0.0
C1894 C 0.98679 0.41208 0.40409 0.0
C1895 C 0.98071 0.38483 0.4134 0.0
C1896 C 0.95481 0.3683 0.40945 0.0
C1897 C 0.93504 0.37943 0.39627 0.0
C1898 C 0.93998 0.40638 0.38739 0.0
C1899 C 0.91607 0.41218 0.37293 0.0
C1900 C 0.89664 0.43926 0.37838 0.0
C1901 C 0.93018 0.4167 0.35382 0.0
C1902 C 0.89817 0.38327 0.37422 0.0
C1903 C 0.90881 0.3654 0.38837 0.0
C1904 C 0.89462 0.33886 0.39345 0.0
C1905 C 0.86882 0.3303 0.38383 0.0
C1906 C 0.85826 0.34747 0.36879 0.0
C1907 C 0.8729 0.37446 0.36401 0.0
H1908 H 0.3478 0.76941 0.34076 0.0
H1909 H 0.27834 0.76387 0.38253 0.0
H1910 H 0.29852 0.80934 0.39751 0.0
H1911 H 0.40533 0.79016 0.36712 0.0
H1912 H 0.42265 0.81887 0.35317 0.0
H1913 H 0.40147 0.78921 0.3425 0.0
H1914 H 0.36507 0.82433 0.32637 0.0
H1915 H 0.38708 0.85544 0.33467 0.0
H1916 H 0.34732 0.85419 0.33908 0.0
H1917 H 0.32859 0.85228 0.40947 0.0
H1918 H 0.36459 0.89285 0.41642 0.0
H1919 H 0.41395 0.87209 0.36652 0.0
C1920 C 0.33649 0.7782 0.35283 0.0
C1921 C 0.31152 0.76319 0.36052 0.0
C1922 C 0.29731 0.77522 0.37633 0.0
C1923 C 0.30868 0.80095 0.38497 0.0
C1924 C 0.33379 0.81479 0.37733 0.0
C1925 C 0.34706 0.80437 0.36133 0.0
C1926 C 0.37395 0.82342 0.35609 0.0
C1927 C 0.40257 0.80433 0.35467 0.0
C1928 C 0.36799 0.84035 0.33798 0.0
C1929 C 0.37489 0.8449 0.37232 0.0
C1930 C 0.35119 0.83978 0.38422 0.0
C1931 C 0.34714 0.85661 0.40021 0.0
C1932 C 0.36781 0.87937 0.40414 0.0
C1933 C 0.39238 0.88484 0.39228 0.0
C1934 C 0.39561 0.86784 0.37596 0.0
H1935 H 0.96231 0.54562 0.11607 0.0
H1936 H 0.99017 0.61198 0.07572 0.0
H1937 H 0.94525 0.64181 0.08246 0.0
H1938 H 0.87684 0.55812 0.1068 0.0
H1939 H 0.86868 0.55107 0.13077 0.0
H1940 H 0.8992 0.53171 0.1196 0.0
H1941 H 0.93128 0.54909 0.1458 0.0
H1942 H 0.90549 0.57504 0.15631 0.0
H1943 H 0.94144 0.58766 0.14771 0.0
H1944 H 0.89982 0.66627 0.09455 0.0
H1945 H 0.85677 0.68525 0.11252 0.0
H1946 H 0.86009 0.6065 0.14744 0.0
C1947 C 0.95834 0.56586 0.1082 0.0
C1948 C 0.97981 0.57645 0.09538 0.0
C1949 C 0.97413 0.60339 0.08562 0.0
C1950 C 0.94855 0.62048 0.08927 0.0
C1951 C 0.92851 0.61018 0.10252 0.0
C1952 C 0.93258 0.5832 0.11157 0.0
C1953 C 0.90853 0.57874 0.1262 0.0
C1954 C 0.88704 0.55341 0.1205 0.0
C1955 C 0.9224 0.57234 0.14518 0.0
C1956 C 0.89268 0.60893 0.12532 0.0
C1957 C 0.90356 0.62583 0.11081 0.0
C1958 C 0.89123 0.65344 0.10606 0.0
C1959 C 0.86697 0.66412 0.11637 0.0
C1960 C 0.85627 0.64799 0.13178 0.0
C1961 C 0.86898 0.61984 0.13622 0.0
H1962 H 0.14971 0.2212 0.83902 0.0
H1963 H 0.22559 0.22368 0.87645 0.0
H1964 H 0.20881 0.17634 0.89054 0.0
H1965 H 0.0979 0.19959 0.86607 0.0
H1966 H 0.07792 0.17032 0.85405 0.0
H1967 H 0.09744 0.19903 0.84142 0.0
H1968 H 0.1317 0.16459 0.82375 0.0
H1969 H 0.11048 0.13364 0.83303 0.0
H1970 H 0.15071 0.13436 0.83535 0.0
H1971 H 0.18155 0.1327 0.90285 0.0
H1972 H 0.1452 0.09416 0.91262 0.0
H1973 H 0.08637 0.11886 0.86755 0.0
C1974 C 0.16322 0.21124 0.84981 0.0
C1975 C 0.18895 0.22605 0.85667 0.0
C1976 C 0.20598 0.21257 0.87089 0.0
C1977 C 0.19665 0.18566 0.87897 0.0
C1978 C 0.17075 0.17206 0.87229 0.0
C1979 C 0.15466 0.18385 0.85771 0.0
C1980 C 0.12685 0.16523 0.85383 0.0
C1981 C 0.09832 0.18461 0.8539 0.0
C1982 C 0.13014 0.14845 0.8354 0.0
C1983 C 0.1281 0.14337 0.86988 0.0
C1984 C 0.15434 0.14699 0.87981 0.0
C1985 C 0.16101 0.12951 0.89516 0.0
C1986 C 0.14016 0.10793 0.90071 0.0
C1987 C 0.11274 0.10448 0.8912 0.0
C1988 C 0.10698 0.12171 0.87524 0.0
H1989 H 0.5247 0.39828 0.60201 0.0
H1990 H 0.51781 0.46656 0.64444 0.0
H1991 H 0.56492 0.44838 0.65842 0.0
H1992 H 0.54979 0.34145 0.62792 0.0
H1993 H 0.57873 0.32568 0.61341 0.0
H1994 H 0.54729 0.34499 0.60334 0.0
H1995 H 0.57842 0.38373 0.58643 0.0
H1996 H 0.61147 0.36366 0.59364 0.0
H1997 H 0.60812 0.40324 0.59826 0.0
H1998 H 0.61182 0.42216 0.66826 0.0
H1999 H 0.6556 0.3891 0.67342 0.0
H2000 H 0.63237 0.33785 0.62471 0.0
C2001 C 0.5333 0.40953 0.61415 0.0
C2002 C 0.51764 0.43372 0.62222 0.0
C2003 C 0.52958 0.44805 0.63802 0.0
C2004 C 0.55629 0.4379 0.64605 0.0
C2005 C 0.57108 0.41382 0.63787 0.0
C2006 C 0.56032 0.40013 0.62209 0.0
C2007 C 0.58054 0.3746 0.61611 0.0
C2008 C 0.56313 0.34489 0.61517 0.0
C2009 C 0.59553 0.38175 0.59751 0.0
C2010 C 0.60335 0.37497 0.63163 0.0
C2011 C 0.59783 0.39823 0.64378 0.0
C2012 C 0.61628 0.40377 0.65891 0.0
C2013 C 0.64087 0.38481 0.66183 0.0
C2014 C 0.64641 0.36042 0.64987 0.0
C2015 C 0.62793 0.35591 0.63432 0.0
H2016 H 0.24757 0.32893 0.22774 0.0
H2017 H 0.30517 0.26123 0.20347 0.0
H2018 H 0.30264 0.23166 0.23224 0.0
H2019 H 0.27438 0.32343 0.27505 0.0
H2020 H 0.23755 0.32728 0.28502 0.0
H2021 H 0.2459 0.34459 0.26314 0.0
H2022 H 0.20122 0.31662 0.24806 0.0
H2023 H 0.19254 0.29962 0.26993 0.0
H2024 H 0.19893 0.27638 0.24996 0.0
H2025 H 0.29399 0.20938 0.2638 0.0
H2026 H 0.27309 0.19225 0.29373 0.0
H2027 H 0.21805 0.27222 0.29633 0.0
C2028 C 0.25973 0.30796 0.22858 0.0
C2029 C 0.27664 0.29737 0.21346 0.0
C2030 C 0.29193 0.26962 0.2149 0.0
C2031 C 0.29088 0.25282 0.23123 0.0
C2032 C 0.27409 0.26384 0.24594 0.0
C2033 C 0.2583 0.29048 0.24465 0.0
C2034 C 0.23976 0.2959 0.26184 0.0
C2035 C 0.25002 0.3245 0.27185 0.0
C2036 C 0.20612 0.29719 0.25716 0.0
C2037 C 0.24741 0.26809 0.27289 0.0
C2038 C 0.26782 0.25022 0.2637 0.0
C2039 C 0.27801 0.2232 0.27115 0.0
C2040 C 0.26626 0.21374 0.28819 0.0
C2041 C 0.24414 0.23099 0.29727 0.0
C2042 C 0.23509 0.25872 0.28966 0.0
H2043 H 0.0074 0.99384 0.54086 0.0
H2044 H 0.08296 0.94579 0.5177 0.0
H2045 H 0.06588 0.95853 0.48625 0.0
H2046 H 0.95528 0.96807 0.50887 0.0
H2047 H 0.93389 0.00227 0.50736 0.0
H2048 H 0.95427 0.99366 0.52812 0.0
H2049 H 0.98267 0.04421 0.52591 0.0
H2050 H 0.962 0.05323 0.50528 0.0
H2051 H 0.00241 0.05357 0.50498 0.0
H2052 H 0.03854 0.97289 0.45743 0.0
H2053 H 0.00336 0.98887 0.43308 0.0
H2054 H 0.94391 0.02535 0.47496 0.0
C2055 C 0.02086 0.98705 0.52913 0.0
C2056 C 0.04686 0.9695 0.53158 0.0
C2057 C 0.06328 0.95971 0.51601 0.0
C2058 C 0.0537 0.96678 0.49813 0.0
C2059 C 0.02744 0.98333 0.49608 0.0
C2060 C 0.01128 0.9935 0.51114 0.0
C2061 C 0.98247 0.00861 0.50509 0.0
C2062 C 0.95486 0.99216 0.51282 0.0
C2063 C 0.9824 0.04188 0.51064 0.0
C2064 C 0.98479 0.00494 0.48435 0.0
C2065 C 0.01103 0.99057 0.47944 0.0
C2066 C 0.01799 0.98433 0.46109 0.0
C2067 C 0.99779 0.9934 0.44736 0.0
C2068 C 0.97075 0.00828 0.45204 0.0
C2069 C 0.96423 0.01387 0.47085 0.0
H2070 H 0.25546 0.68261 0.73036 0.0
H2071 H 0.22768 0.75871 0.69709 0.0
H2072 H 0.23452 0.79209 0.72379 0.0
H2073 H 0.22094 0.70592 0.77263 0.0
H2074 H 0.25123 0.69324 0.78711 0.0
H2075 H 0.24398 0.67484 0.76543 0.0
H2076 H 0.29872 0.68464 0.755 0.0
H2077 H 0.30624 0.7026 0.77676 0.0
H2078 H 0.31329 0.72234 0.75549 0.0
H2079 H 0.24195 0.81711 0.75449 0.0
H2080 H 0.25706 0.83297 0.78597 0.0
H2081 H 0.28292 0.74166 0.79864 0.0
C2082 C 0.25105 0.70632 0.72864 0.0
C2083 C 0.24103 0.71794 0.71158 0.0
C2084 C 0.23559 0.74919 0.70994 0.0
C2085 C 0.23914 0.76837 0.72509 0.0
C2086 C 0.24845 0.7561 0.74177 0.0
C2087 C 0.25491 0.72592 0.74356 0.0
C2088 C 0.26571 0.71872 0.76287 0.0
C2089 C 0.24418 0.69688 0.77258 0.0
C2090 C 0.2979 0.70636 0.7625 0.0
C2091 C 0.26445 0.74958 0.77157 0.0
C2092 C 0.25385 0.77074 0.75928 0.0
C2093 C 0.25035 0.80078 0.76424 0.0
C2094 C 0.25869 0.80955 0.78211 0.0
C2095 C 0.27075 0.7884 0.79456 0.0
C2096 C 0.27343 0.75808 0.7893 0.0
H2097 H 0.51044 0.01707 0.0504 0.0
H2098 H 0.42025 0.03107 0.03 0.0
H2099 H 0.43691 0.01795 0.99849 0.0
H2100 H 0.54794 0.049 0.01291 0.0
H2101 H 0.57864 0.02273 0.01224 0.0
H2102 H 0.55943 0.02987 0.03365 0.0
H2103 H 0.54793 0.97328 0.03734 0.0
H2104 H 0.56765 0.96585 0.01612 0.0
H2105 H 0.52945 0.95345 0.01889 0.0
H2106 H 0.46388 0.00857 0.96914 0.0
H2107 H 0.49822 0.99747 0.9436 0.0
H2108 H 0.57184 0.98835 0.98251 0.0
C2109 C 0.49411 0.01623 0.03935 0.0
C2110 C 0.46393 0.02435 0.04254 0.0
C2111 C 0.44328 0.02429 0.02777 0.0
C2112 C 0.45261 0.01707 0.00986 0.0
C2113 C 0.48269 0.01 0.00699 0.0
C2114 C 0.50309 0.00898 0.02132 0.0
C2115 C 0.53434 0.00178 0.01421 0.0
C2116 C 0.55638 0.02738 0.01851 0.0
C2117 C 0.5455 0.9718 0.02211 0.0
C2118 C 0.52834 0.99946 0.99364 0.0
C2119 C 0.49838 0.00439 0.98986 0.0
C2120 C 0.48732 0.00428 0.97194 0.0
C2121 C 0.50718 0.99809 0.95748 0.0
C2122 C 0.5379 0.9919 0.96092 0.0
C2123 C 0.54859 0.99303 0.97932 0.0
H2124 H 0.24418 0.72628 0.29599 0.0
H2125 H 0.31512 0.67082 0.27325 0.0
H2126 H 0.3102 0.69656 0.24339 0.0
H2127 H 0.19853 0.72383 0.2557 0.0
H2128 H 0.18499 0.76172 0.25801 0.0
H2129 H 0.19603 0.74096 0.27818 0.0
H2130 H 0.23321 0.7833 0.28692 0.0
H2131 H 0.22242 0.80408 0.26666 0.0
H2132 H 0.26128 0.79492 0.2705 0.0
H2133 H 0.29735 0.72784 0.21568 0.0
H2134 H 0.27302 0.75792 0.19122 0.0
H2135 H 0.20833 0.79066 0.23118 0.0
C2136 C 0.25887 0.7198 0.28478 0.0
C2137 C 0.28027 0.69672 0.28709 0.0
C2138 C 0.29864 0.68849 0.27192 0.0
C2139 C 0.29614 0.7031 0.25488 0.0
C2140 C 0.27489 0.72573 0.25305 0.0
C2141 C 0.25625 0.73377 0.26749 0.0
C2142 C 0.2336 0.75707 0.26137 0.0
C2143 C 0.20139 0.74517 0.26343 0.0
C2144 C 0.2379 0.78659 0.272 0.0
C2145 C 0.24225 0.76056 0.24124 0.0
C2146 C 0.26651 0.74275 0.23681 0.0
C2147 C 0.27834 0.74193 0.21898 0.0
C2148 C 0.2645 0.75921 0.2052 0.0
C2149 C 0.23878 0.77659 0.20926 0.0
C2150 C 0.22795 0.77757 0.22762 0.0
H2151 H 0.50091 0.93716 0.46785 0.0
H2152 H 0.44278 0.01313 0.4569 0.0
H2153 H 0.46087 0.03755 0.48551 0.0
H2154 H 0.49249 0.93592 0.51691 0.0
H2155 H 0.53106 0.92626 0.52133 0.0
H2156 H 0.51349 0.91476 0.50011 0.0
H2157 H 0.55537 0.94107 0.48136 0.0
H2158 H 0.5732 0.95247 0.50251 0.0
H2159 H 0.56324 0.98016 0.48547 0.0
H2160 H 0.48332 0.0522 0.51625 0.0
H2161 H 0.51259 0.05882 0.54498 0.0
H2162 H 0.55869 0.97496 0.53476 0.0
C2163 C 0.49196 0.95897 0.47144 0.0
C2164 C 0.47023 0.97318 0.46018 0.0
C2165 C 0.45943 0.00186 0.46527 0.0
C2166 C 0.46948 0.0158 0.48154 0.0
C2167 C 0.49061 1.00095 0.49242 0.0
C2168 C 0.50206 0.97337 0.48743 0.0
C2169 C 0.52517 0.96246 0.50125 0.0
C2170 C 0.51493 0.93311 0.51044 0.0
C2171 C 0.55608 0.95884 0.4921 0.0
C2172 C 0.52499 0.98823 0.51487 0.0
C2173 C 0.50453 0.00998 0.50965 0.0
C2174 C 0.49952 0.03543 0.52037 0.0
C2175 C 0.51608 0.03892 0.53668 0.0
C2176 C 0.53768 0.01736 0.54198 0.0
C2177 C 0.54225 0.99171 0.53094 0.0
H2178 H 0.25315 0.26853 0.79492 0.0
H2179 H 0.18703 0.3296 0.77216 0.0
H2180 H 0.19119 0.3045 0.742 0.0
H2181 H 0.3002 0.26906 0.75475 0.0
H2182 H 0.31107 0.23031 0.75702 0.0
H2183 H 0.30109 0.25164 0.77719 0.0
H2184 H 0.26104 0.21174 0.7855 0.0
H2185 H 0.27063 0.19052 0.76517 0.0
H2186 H 0.23246 0.20232 0.7689 0.0
H2187 H 0.20189 0.27225 0.71424 0.0
H2188 H 0.22482 0.24115 0.68972 0.0
H2189 H 0.28666 0.20382 0.72976 0.0
C2190 C 0.23948 0.27654 0.78361 0.0
C2191 C 0.21946 0.30081 0.78603 0.0
C2192 C 0.20239 0.31096 0.77075 0.0
C2193 C 0.20444 0.29671 0.75355 0.0
C2194 C 0.22403 0.2726 0.75169 0.0
C2195 C 0.24175 0.26301 0.76618 0.0
C2196 C 0.26282 0.23826 0.76009 0.0
C2197 C 0.29574 0.24791 0.76239 0.0
C2198 C 0.25634 0.20898 0.77054 0.0
C2199 C 0.25428 0.2356 0.73991 0.0
C2200 C 0.23138 0.25513 0.73543 0.0
C2201 C 0.21985 0.25687 0.71757 0.0
C2202 C 0.23281 0.23895 0.70376 0.0
C2203 C 0.2574 0.22004 0.70785 0.0
C2204 C 0.26777 0.21798 0.72625 0.0
H2205 H 0.00543 0.00875 0.95892 0.0
H2206 H 0.08355 0.05124 0.98302 0.0
H2207 H 0.06575 0.038 0.0141 0.0
H2208 H 0.95463 0.03547 0.99183 0.0
H2209 H 0.93155 0.00233 0.99274 0.0
H2210 H 0.95214 0.01105 0.97206 0.0
H2211 H 0.9779 0.95904 0.97307 0.0
H2212 H 0.95703 0.94995 0.99362 0.0
H2213 H 0.99737 0.94755 0.99369 0.0
H2214 H 0.03793 0.02436 0.04251 0.0
H2215 H 0.00246 0.00919 0.06679 0.0
H2216 H 0.9408 0.97679 0.02484 0.0
C2217 C 0.0192 0.01424 0.97076 0.0
C2218 C 0.04621 0.03043 0.9686 0.0
C2219 C 0.06308 0.03844 0.98437 0.0
C2220 C 0.0531 0.03108 1.0021 0.0
C2221 C 0.02597 0.01597 0.00386 0.0
C2222 C 0.00926 0.00743 0.98867 0.0
C2223 C 0.97975 0.99343 0.99461 0.0
C2224 C 0.95294 0.01167 0.98738 0.0
C2225 C 0.97792 0.96053 0.98838 0.0
C2226 C 0.98244 0.99585 0.01544 0.0
C2227 C 0.00937 0.00876 0.02043 0.0
C2228 C 0.01684 0.01398 0.0388 0.0
C2229 C 0.99642 0.00539 0.05251 0.0
C2230 C 0.96871 0.9918 0.04782 0.0
C2231 C 0.96169 0.98719 0.02896 0.0
H2232 H 0.75143 0.77468 0.70773 0.0
H2233 H 0.81233 0.83991 0.73166 0.0
H2234 H 0.8074 0.81543 0.76189 0.0
H2235 H 0.7015 0.77413 0.74662 0.0
H2236 H 0.6927 0.73481 0.74468 0.0
H2237 H 0.70309 0.75582 0.72446 0.0
H2238 H 0.74562 0.71771 0.71784 0.0
H2239 H 0.73555 0.69679 0.73819 0.0
H2240 H 0.77335 0.71033 0.73535 0.0
H2241 H 0.79672 0.78346 0.78966 0.0
H2242 H 0.77417 0.75162 0.81396 0.0
H2243 H 0.71665 0.71025 0.77297 0.0
C2244 C 0.76385 0.78367 0.71931 0.0
C2245 C 0.78268 0.80896 0.71717 0.0
C2246 C 0.79801 0.82042 0.73281 0.0
C2247 C 0.79549 0.80657 0.75009 0.0
C2248 C 0.77706 0.78155 0.75171 0.0
C2249 C 0.76096 0.77058 0.73686 0.0
C2250 C 0.74067 0.74503 0.74278 0.0
C2251 C 0.70753 0.75293 0.73944 0.0
C2252 C 0.74932 0.71573 0.73295 0.0
C2253 C 0.74783 0.74354 0.76322 0.0
C2254 C 0.76941 0.76432 0.76801 0.0
C2255 C 0.77974 0.76713 0.7861 0.0
C2256 C 0.767 0.74882 0.79979 0.0
C2257 C 0.74374 0.72851 0.79535 0.0
C2258 C 0.73445 0.72558 0.77676 0.0
H2259 H 0.76092 0.18759 0.2247 0.0
H2260 H 0.71631 0.26164 0.19727 0.0
H2261 H 0.72267 0.29284 0.22511 0.0
H2262 H 0.73227 0.19994 0.26995 0.0
H2263 H 0.76686 0.19125 0.28163 0.0
H2264 H 0.75868 0.17432 0.25964 0.0
H2265 H 0.80853 0.19482 0.24626 0.0
H2266 H 0.81711 0.21133 0.26831 0.0
H2267 H 0.81655 0.23436 0.24788 0.0
H2268 H 0.73058 0.31485 0.25677 0.0
H2269 H 0.74811 0.32924 0.28803 0.0
H2270 H 0.79157 0.24287 0.29375 0.0
C2271 C 0.75282 0.21048 0.22452 0.0
C2272 C 0.73818 0.22222 0.20883 0.0
C2273 C 0.72792 0.2523 0.20907 0.0
C2274 C 0.73113 0.27011 0.22488 0.0
C2275 C 0.74514 0.25771 0.24025 0.0
C2276 C 0.75654 0.22887 0.24004 0.0
C2277 C 0.77203 0.22154 0.25808 0.0
C2278 C 0.75653 0.1952 0.2679 0.0
C2279 C 0.80554 0.21515 0.25494 0.0
C2280 C 0.76735 0.25065 0.26847 0.0
C2281 C 0.75123 0.27102 0.25809 0.0
C2282 C 0.74343 0.29919 0.26498 0.0
C2283 C 0.75318 0.30709 0.28276 0.0
C2284 C 0.77097 0.28708 0.29316 0.0
C2285 C 0.77787 0.25847 0.286 0.0
H2286 H 0.74702 0.22448 0.7977 0.0
H2287 H 0.81929 0.1705 0.7752 0.0
H2288 H 0.81398 0.19611 0.74528 0.0
H2289 H 0.70165 0.22135 0.75735 0.0
H2290 H 0.68747 0.259 0.75971 0.0
H2291 H 0.69876 0.23832 0.77986 0.0
H2292 H 0.73519 0.28124 0.78876 0.0
H2293 H 0.72414 0.30194 0.76852 0.0
H2294 H 0.76313 0.29341 0.77241 0.0
H2295 H 0.80049 0.22723 0.71746 0.0
H2296 H 0.77572 0.25713 0.69306 0.0
H2297 H 0.7105 0.28857 0.73308 0.0
C2298 C 0.76191 0.21828 0.78653 0.0
C2299 C 0.78376 0.19565 0.7889 0.0
C2300 C 0.80242 0.18779 0.7738 0.0
C2301 C 0.79971 0.20234 0.75673 0.0
C2302 C 0.77799 0.22454 0.75485 0.0
C2303 C 0.75914 0.23221 0.76925 0.0
C2304 C 0.73614 0.25515 0.76315 0.0
C2305 C 0.70412 0.2427 0.76513 0.0
C2306 C 0.73989 0.28469 0.77385 0.0
C2307 C 0.74483 0.25889 0.74306 0.0
C2308 C 0.76938 0.24149 0.73861 0.0
C2309 C 0.78125 0.24099 0.72078 0.0
C2310 C 0.76716 0.25816 0.70703 0.0
C2311 C 0.74118 0.27513 0.71113 0.0
C2312 C 0.73031 0.2758 0.72948 0.0
H2313 H 0.72242 0.80797 0.27017 0.0
H2314 H 0.7602 0.74804 0.31131 0.0
H2315 H 0.7775 0.7143 0.28667 0.0
H2316 H 0.69672 0.74955 0.239 0.0
H2317 H 0.70595 0.77017 0.21838 0.0
H2318 H 0.69603 0.78996 0.2392 0.0
H2319 H 0.74604 0.81941 0.23784 0.0
H2320 H 0.75597 0.79992 0.21695 0.0
H2321 H 0.78094 0.79911 0.23649 0.0
H2322 H 0.79278 0.68813 0.25807 0.0
H2323 H 0.80589 0.6712 0.22676 0.0
H2324 H 0.75679 0.74599 0.20341 0.0
C2325 C 0.73444 0.78782 0.27399 0.0
C2326 C 0.73996 0.78077 0.29276 0.0
C2327 C 0.75559 0.75401 0.29711 0.0
C2328 C 0.76548 0.7346 0.2832 0.0
C2329 C 0.75943 0.74203 0.26493 0.0
C2330 C 0.74431 0.76794 0.26023 0.0
C2331 C 0.74116 0.77058 0.23941 0.0
C2332 C 0.70799 0.77003 0.23366 0.0
C2333 C 0.75698 0.79894 0.23225 0.0
C2334 C 0.75728 0.74232 0.23319 0.0
C2335 C 0.76754 0.72623 0.24822 0.0
C2336 C 0.78454 0.70028 0.24619 0.0
C2337 C 0.79183 0.6908 0.22834 0.0
C2338 C 0.78187 0.70694 0.21271 0.0
C2339 C 0.76393 0.73278 0.21515 0.0
H2340 H 0.48591 0.47397 0.04174 0.0
H2341 H 0.57665 0.50551 0.03315 0.0
H2342 H 0.56307 0.52179 1.00148 0.0
H2343 H 0.4736 0.44471 0.99794 0.0
H2344 H 0.43508 0.4565 0.99599 0.0
H2345 H 0.4511 0.44966 0.01838 0.0
H2346 H 0.43692 0.50332 0.02893 0.0
H2347 H 0.4202 0.51013 0.0067 0.0
H2348 H 0.44877 0.53503 0.01533 0.0
H2349 H 0.54073 0.52879 0.9696 0.0
H2350 H 0.50957 0.53398 0.94159 0.0
H2351 H 0.43244 0.50065 0.97179 0.0
C2352 C 0.50258 0.48519 0.03333 0.0
C2353 C 0.53213 0.4891 0.03982 0.0
C2354 C 0.55372 0.50309 0.02845 0.0
C2355 C 0.54626 0.51207 0.01043 0.0
C2356 C 0.51703 0.50718 0.00421 0.0
C2357 C 0.49533 0.49477 0.0155 0.0
C2358 C 0.46567 0.49169 0.00549 0.0
C2359 C 0.4558 0.45868 0.00439 0.0
C2360 C 0.44146 0.51121 0.01466 0.0
C2361 C 0.47418 0.50368 0.98666 0.0
C2362 C 0.50397 0.5122 0.98613 0.0
C2363 C 0.51728 0.5226 0.96995 0.0
C2364 C 0.49947 0.52516 0.95405 0.0
C2365 C 0.46858 0.51771 0.9545 0.0
C2366 C 0.45595 0.50664 0.97104 0.0
H2367 H 0.07206 0.51413 0.47945 0.0
H2368 H 0.00262 0.45908 0.45472 0.0
H2369 H 0.97169 0.46464 0.48271 0.0
H2370 H 0.06375 0.489 0.52608 0.0
H2371 H 0.06884 0.52553 0.53625 0.0
H2372 H 0.0862 0.51681 0.51445 0.0
H2373 H 0.06021 0.56259 0.49933 0.0
H2374 H 0.04323 0.57174 0.52115 0.0
H2375 H 0.02007 0.56646 0.50104 0.0
H2376 H 0.94942 0.47361 0.51423 0.0
H2377 H 0.93345 0.49329 0.54471 0.0
H2378 H 0.01484 0.54611 0.5478 0.0
C2379 C 0.05023 0.5035 0.4799 0.0
C2380 C 0.03975 0.48622 0.46489 0.0
C2381 C 0.011 0.47272 0.46596 0.0
C2382 C 0.99337 0.47547 0.48189 0.0
C2383 C 0.00451 0.49223 0.49656 0.0
C2384 C 0.03193 0.50667 0.49555 0.0
C2385 C 0.03779 0.5248 0.51287 0.0
C2386 C 0.06581 0.51334 0.52301 0.0
C2387 C 0.04047 0.55839 0.50832 0.0
C2388 C 0.00951 0.51816 0.52375 0.0
C2389 C 0.99088 0.49879 0.51428 0.0
C2390 C 0.96372 0.48895 0.52173 0.0
C2391 C 0.95494 0.49996 0.53908 0.0
C2392 C 0.973 0.521 0.54851 0.0
C2393 C 1.00073 0.5299 0.54082 0.0
H2394 H 0.01831 0.48932 0.04565 0.0
H2395 H 0.08697 0.5436 0.01937 0.0
H2396 H 0.06167 0.53755 0.98949 0.0
H2397 H 0.01319 0.43615 0.00789 0.0
H2398 H 0.97343 0.43044 0.01061 0.0
H2399 H 0.99601 0.44047 0.03025 0.0
H2400 H 0.96134 0.48603 0.03635 0.0
H2401 H 0.93894 0.47638 0.01653 0.0
H2402 H 0.95536 0.5132 0.01831 0.0
H2403 H 0.02786 0.52795 0.96266 0.0
H2404 H 0.99343 0.50694 0.93935 0.0
H2405 H 0.94936 0.45458 0.98191 0.0
C2406 C 0.02803 0.49988 0.0336 0.0
C2407 C 0.05441 0.51741 0.03501 0.0
C2408 C 0.06667 0.53036 0.0188 0.0
C2409 C 0.05236 0.52719 1.00172 0.0
C2410 C 0.02611 0.51041 1.00089 0.0
C2411 C 0.01447 0.49625 0.01626 0.0
C2412 C 0.98723 0.47758 0.01119 0.0
C2413 C 0.99281 0.44418 0.01522 0.0
C2414 C 0.95905 0.48899 0.0212 0.0
C2415 C 0.98543 0.48357 0.9906 0.0
C2416 C 0.00768 0.50315 0.98506 0.0
C2417 C 0.01044 0.51246 0.96679 0.0
C2418 C 0.99059 0.50063 0.95368 0.0
C2419 C 0.96869 0.47922 0.95882 0.0
C2420 C 0.96584 0.47098 0.9776 0.0
H2421 H 0.49032 0.54089 0.46533 0.0
H2422 H 0.57412 0.49216 0.46891 0.0
H2423 H 0.55853 0.47139 0.49922 0.0
H2424 H 0.4832 0.56059 0.51192 0.0
H2425 H 0.44324 0.55488 0.51321 0.0
H2426 H 0.46038 0.56481 0.49156 0.0
H2427 H 0.43748 0.51768 0.47613 0.0
H2428 H 0.41985 0.50783 0.49766 0.0
H2429 H 0.44399 0.4813 0.4862 0.0
H2430 H 0.53586 0.46092 0.53059 0.0
H2431 H 0.50457 0.45441 0.5585 0.0
H2432 H 0.43352 0.50623 0.53302 0.0
C2433 C 0.50508 0.5254 0.4724 0.0
C2434 C 0.53333 0.51792 0.46494 0.0
C2435 C 0.55225 0.49775 0.47443 0.0
C2436 C 0.54366 0.48609 0.49165 0.0
C2437 C 0.51584 0.49442 0.49887 0.0
C2438 C 0.49651 0.51299 0.48932 0.0
C2439 C 0.46771 0.51815 0.49994 0.0
C2440 C 0.4634 0.55159 0.50442 0.0
C2441 C 0.44066 0.50547 0.48935 0.0
C2442 C 0.47407 0.50014 0.51719 0.0
C2443 C 0.50212 0.48696 0.51642 0.0
C2444 C 0.51369 0.47072 0.53121 0.0
C2445 C 0.49589 0.46737 0.54705 0.0
C2446 C 0.46668 0.47975 0.54783 0.0
C2447 C 0.4557 0.49633 0.53269 0.0
H2448 H 0.31446 0.14821 0.37025 0.0
H2449 H 0.2538 0.09036 0.3397 0.0
H2450 H 0.28344 0.04644 0.34878 0.0
H2451 H 0.38321 0.10508 0.3585 0.0
H2452 H 0.40004 0.11112 0.3808 0.0
H2453 H 0.37488 0.13872 0.37131 0.0
H2454 H 0.34209 0.13536 0.40072 0.0
H2455 H 0.36693 0.10752 0.41021 0.0
H2456 H 0.32751 0.09948 0.40785 0.0
H2457 H 0.31497 0.00843 0.36381 0.0
H2458 H 0.35235 0.97796 0.38037 0.0
H2459 H 0.39688 0.05884 0.39917 0.0
C2460 C 0.30778 0.12634 0.36523 0.0
C2461 C 0.28169 0.12281 0.35427 0.0
C2462 C 0.27366 0.09378 0.34804 0.0
C2463 C 0.29031 0.06858 0.35318 0.0
C2464 C 0.31535 0.07267 0.36432 0.0
C2465 C 0.32461 0.10077 0.36996 0.0
C2466 C 0.35266 0.09843 0.38185 0.0
C2467 C 0.37928 0.11428 0.37256 0.0
C2468 C 0.34694 0.11095 0.40131 0.0
C2469 C 0.35715 0.06462 0.38228 0.0
C2470 C 0.33501 0.05037 0.37222 0.0
C2471 C 0.33276 0.01929 0.37146 0.0
C2472 C 0.35393 0.00219 0.38101 0.0
C2473 C 0.37744 0.01609 0.39091 0.0
C2474 C 0.37924 0.04775 0.39151 0.0
H2475 H 0.09945 0.05579 0.61182 0.0
H2476 H 0.16367 0.00213 0.58114 0.0
H2477 H 0.20399 0.03661 0.59018 0.0
H2478 H 0.13512 0.12968 0.6014 0.0
H2479 H 0.12725 0.14448 0.62404 0.0
H2480 H 0.10244 0.11717 0.61387 0.0
H2481 H 0.10897 0.08317 0.64252 0.0
H2482 H 0.13398 0.11019 0.6527 0.0
H2483 H 0.14613 0.072 0.6495 0.0
H2484 H 0.23817 0.07221 0.60509 0.0
H2485 H 0.26459 0.11075 0.62322 0.0
H2486 H 0.17958 0.14456 0.6435 0.0
C2487 C 0.12188 0.05174 0.60668 0.0
C2488 C 0.12834 0.02619 0.59572 0.0
C2489 C 0.15807 0.02147 0.5895 0.0
C2490 C 0.18121 0.04096 0.59457 0.0
C2491 C 0.17433 0.06537 0.60574 0.0
C2492 C 0.14542 0.07123 0.61155 0.0
C2493 C 0.14474 0.09863 0.62408 0.0
C2494 C 0.12629 0.124 0.61532 0.0
C2495 C 0.13275 0.09049 0.64334 0.0
C2496 C 0.17788 0.10662 0.62476 0.0
C2497 C 0.19438 0.08697 0.61403 0.0
C2498 C 0.22552 0.08809 0.61326 0.0
C2499 C 0.24031 0.10993 0.62366 0.0
C2500 C 0.22407 0.13063 0.63454 0.0
C2501 C 0.1924 0.12921 0.63503 0.0
H2502 H 0.23648 0.90565 0.86633 0.0
H2503 H 0.18045 0.82662 0.86126 0.0
H2504 H 0.13686 0.85563 0.87265 0.0
H2505 H 0.20454 0.93085 0.90874 0.0
H2506 H 0.20751 0.9701 0.90311 0.0
H2507 H 0.23366 0.9437 0.89339 0.0
H2508 H 0.21965 0.96135 0.86044 0.0
H2509 H 0.19363 0.98798 0.87006 0.0
H2510 H 0.18092 0.96091 0.85333 0.0
H2511 H 0.0991 0.89406 0.88426 0.0
H2512 H 0.07118 0.93784 0.8965 0.0
H2513 H 0.15322 0.99005 0.89618 0.0
C2514 C 0.21493 0.89458 0.86737 0.0
C2515 C 0.21169 0.86401 0.8627 0.0
C2516 C 0.18333 0.85009 0.86467 0.0
C2517 C 0.15847 0.86638 0.87112 0.0
C2518 C 0.1625 0.89644 0.87582 0.0
C2519 C 0.1901 0.91032 0.87415 0.0
C2520 C 0.1889 0.9424 0.88094 0.0
C2521 C 0.20989 0.94701 0.89753 0.0
C2522 C 0.1962 0.96445 0.86526 0.0
C2523 C 0.1563 0.94449 0.88663 0.0
C2524 C 0.14131 0.91788 0.88341 0.0
C2525 C 0.11069 0.91491 0.88699 0.0
C2526 C 0.09502 0.93984 0.89394 0.0
C2527 C 0.11012 0.96714 0.89753 0.0
C2528 C 0.14118 0.96928 0.89391 0.0
H2529 H 0.26348 0.90508 0.14417 0.0
H2530 H 0.31556 0.82343 0.13903 0.0
H2531 H 0.35783 0.85258 0.12603 0.0
H2532 H 0.28765 0.93669 0.10113 0.0
H2533 H 0.28816 0.97477 0.10947 0.0
H2534 H 0.26274 0.94791 0.11947 0.0
H2535 H 0.28442 0.95878 0.15195 0.0
H2536 H 0.30968 0.9859 0.14207 0.0
H2537 H 0.32423 0.95545 0.15574 0.0
H2538 H 0.39492 0.891 0.11457 0.0
H2539 H 0.42329 0.9355 0.10399 0.0
H2540 H 0.34531 0.99135 0.11363 0.0
C2541 C 0.28398 0.89345 0.14056 0.0
C2542 C 0.28654 0.86209 0.14286 0.0
C2543 C 0.31333 0.84748 0.13751 0.0
C2544 C 0.33739 0.86384 0.1301 0.0
C2545 C 0.33403 0.8947 0.12777 0.0
C2546 C 0.30791 0.90934 0.1327 0.0
C2547 C 0.30956 0.94244 0.12799 0.0
C2548 C 0.2856 0.95094 0.11366 0.0
C2549 C 0.30682 0.96178 0.14548 0.0
C2550 C 0.34081 0.94421 0.11983 0.0
C2551 C 0.35464 0.91646 0.12 0.0
C2552 C 0.38418 0.91274 0.11414 0.0
C2553 C 0.40009 0.93808 0.10813 0.0
C2554 C 0.38627 0.96663 0.10768 0.0
C2555 C 0.35613 0.96961 0.11339 0.0
H2556 H 0.72823 0.92443 0.6641 0.0
H2557 H 0.7135 0.84066 0.63489 0.0
H2558 H 0.67252 0.86418 0.6173 0.0
H2559 H 0.64856 0.94815 0.66591 0.0
H2560 H 0.65804 0.98701 0.66231 0.0
H2561 H 0.6839 0.96258 0.6741 0.0
H2562 H 0.72533 0.97663 0.65056 0.0
H2563 H 0.69957 1.00083 0.6386 0.0
H2564 H 0.71851 0.97127 0.62627 0.0
H2565 H 0.63727 0.89853 0.60006 0.0
H2566 H 0.60845 0.94054 0.58621 0.0
H2567 H 0.64484 1.00112 0.62717 0.0
C2568 C 0.71594 0.91073 0.65436 0.0
C2569 C 0.72422 0.88057 0.65099 0.0
C2570 C 0.70768 0.86374 0.63785 0.0
C2571 C 0.68431 0.87692 0.62773 0.0
C2572 C 0.67745 0.90694 0.63096 0.0
C2573 C 0.69252 0.92354 0.64413 0.0
C2574 C 0.68195 0.95584 0.6442 0.0
C2575 C 0.66723 0.96386 0.66273 0.0
C2576 C 0.70788 0.9774 0.63963 0.0
C2577 C 0.65905 0.95496 0.62877 0.0
C2578 C 0.65672 0.92654 0.6213 0.0
C2579 C 0.63847 0.92073 0.60604 0.0
C2580 C 0.62224 0.94461 0.59825 0.0
C2581 C 0.62428 0.97371 0.60582 0.0
C2582 C 0.64267 0.97886 0.62134 0.0
H2583 H 0.86198 0.99428 0.36883 0.0
H2584 H 0.89125 0.94241 0.416 0.0
H2585 H 0.86317 0.89838 0.40432 0.0
H2586 H 0.78802 0.96673 0.36924 0.0
H2587 H 0.78334 0.96665 0.34454 0.0
H2588 H 0.809 0.99259 0.35514 0.0
H2589 H 0.85203 0.97253 0.33451 0.0
H2590 H 0.82646 0.94646 0.32384 0.0
H2591 H 0.86041 0.93298 0.33446 0.0
H2592 H 0.82987 0.86137 0.38864 0.0
H2593 H 0.79025 0.83473 0.37172 0.0
H2594 H 0.77988 0.9114 0.33528 0.0
C2595 C 0.863 0.97333 0.37637 0.0
C2596 C 0.8792 0.97122 0.39304 0.0
C2597 C 0.87926 0.94406 0.40304 0.0
C2598 C 0.86348 0.91903 0.39648 0.0
C2599 C 0.84743 0.92179 0.38005 0.0
C2600 C 0.84682 0.94831 0.37019 0.0
C2601 C 0.82531 0.94623 0.35402 0.0
C2602 C 0.79992 0.96942 0.35585 0.0
C2603 C 0.84206 0.94976 0.33562 0.0
C2604 C 0.81367 0.91452 0.35645 0.0
C2605 C 0.82711 0.90073 0.37138 0.0
C2606 C 0.81931 0.87187 0.37686 0.0
C2607 C 0.79669 0.85691 0.36711 0.0
C2608 C 0.78175 0.87087 0.3521 0.0
C2609 C 0.79092 0.89991 0.34654 0.0
H2610 H 0.78654 0.10009 0.16504 0.0
H2611 H 0.77772 0.16491 0.12065 0.0
H2612 H 0.81496 0.13688 0.10242 0.0
H2613 H 0.86807 0.08654 0.15891 0.0
H2614 H 0.86455 0.04721 0.16422 0.0
H2615 H 0.83925 0.07391 0.17453 0.0
H2616 H 0.79398 0.04396 0.1618 0.0
H2617 H 0.81908 0.01731 0.15136 0.0
H2618 H 0.79166 0.03644 0.1374 0.0
H2619 H 0.84753 0.09827 0.08729 0.0
H2620 H 0.87702 0.05398 0.07753 0.0
H2621 H 0.86778 0.01591 0.13222 0.0
C2622 C 0.79288 0.10881 0.15166 0.0
C2623 C 0.77911 0.13484 0.14435 0.0
C2624 C 0.78796 0.1452 0.12667 0.0
C2625 C 0.80911 0.12938 0.11616 0.0
C2626 C 0.82163 0.10344 0.12358 0.0
C2627 C 0.81424 0.09347 0.14104 0.0
C2628 C 0.83009 0.06424 0.14546 0.0
C2629 C 0.85178 0.06823 0.16175 0.0
C2630 C 0.80734 0.03901 0.14922 0.0
C2631 C 0.84693 0.05897 0.12758 0.0
C2632 C 0.84164 0.08182 0.11511 0.0
C2633 C 0.85246 0.08063 0.09707 0.0
C2634 C 0.86908 0.05542 0.09163 0.0
C2635 C 0.87514 0.03204 0.10426 0.0
C2636 C 0.86419 0.03401 0.1225 0.0
H2637 H 0.64217 0.0462 0.91261 0.0
H2638 H 0.59453 0.00992 0.86544 0.0
H2639 H 0.62338 0.04327 0.84481 0.0
H2640 H 0.64862 0.12449 0.8947 0.0
H2641 H 0.68547 0.129 0.90452 0.0
H2642 H 0.65842 0.10502 0.91564 0.0
H2643 H 0.69626 0.06097 0.91434 0.0
H2644 H 0.72328 0.08466 0.90309 0.0
H2645 H 0.7119 0.04996 0.89243 0.0
H2646 H 0.66369 0.07406 0.829 0.0
H2647 H 0.70805 0.10409 0.81978 0.0
H2648 H 0.72664 0.12307 0.87726 0.0
C2649 C 0.63716 0.04585 0.898 0.0
C2650 C 0.61592 0.02548 0.89069 0.0
C2651 C 0.61035 0.02555 0.87144 0.0
C2652 C 0.62677 0.04433 0.85958 0.0
C2653 C 0.64828 0.06338 0.86719 0.0
C2654 C 0.65301 0.06474 0.88602 0.0
C2655 C 0.67846 0.08595 0.89067 0.0
C2656 C 0.66705 0.11271 0.90205 0.0
C2657 C 0.70397 0.06939 0.90072 0.0
C2658 C 0.68795 0.09564 0.87152 0.0
C2659 C 0.67038 0.0823 0.85812 0.0
C2660 C 0.67702 0.08532 0.83938 0.0
C2661 C 0.70224 0.10233 0.83425 0.0
C2662 C 0.72017 0.11651 0.84778 0.0
C2663 C 0.71262 0.11337 0.86661 0.0
H2664 H 0.76716 0.59534 0.85848 0.0
H2665 H 0.82394 0.67417 0.85795 0.0
H2666 H 0.86703 0.64331 0.86827 0.0
H2667 H 0.79705 0.5659 0.90019 0.0
H2668 H 0.79383 0.52722 0.89326 0.0
H2669 H 0.76847 0.55477 0.884 0.0
H2670 H 0.78373 0.53971 0.85076 0.0
H2671 H 0.80901 0.51196 0.85993 0.0
H2672 H 0.82276 0.54022 0.84429 0.0
H2673 H 0.90409 0.60314 0.87831 0.0
H2674 H 0.93078 0.55821 0.89001 0.0
H2675 H 0.84807 0.50735 0.88727 0.0
C2676 C 0.78884 0.60593 0.8602 0.0
C2677 C 0.79253 0.63694 0.85708 0.0
C2678 C 0.82088 0.65033 0.86008 0.0
C2679 C 0.84541 0.63299 0.86592 0.0
C2680 C 0.84099 0.60245 0.86909 0.0
C2681 C 0.81328 0.58913 0.86655 0.0
C2682 C 0.81379 0.55649 0.87232 0.0
C2683 C 0.79199 0.55078 0.8884 0.0
C2684 C 0.80692 0.53588 0.85584 0.0
C2685 C 0.84611 0.55345 0.87845 0.0
C2686 C 0.8616 0.58004 0.87619 0.0
C2687 C 0.89209 0.5823 0.88029 0.0
C2688 C 0.90706 0.55673 0.88691 0.0
C2689 C 0.89135 0.52956 0.88976 0.0
C2690 C 0.86049 0.52803 0.88552 0.0
H2691 H 0.73788 0.59407 0.14243 0.0
H2692 H 0.68456 0.67436 0.15021 0.0
H2693 H 0.63957 0.64734 0.13913 0.0
H2694 H 0.70407 0.57319 0.1002 0.0
H2695 H 0.70559 0.5334 0.10444 0.0
H2696 H 0.7329 0.55784 0.11485 0.0
H2697 H 0.71875 0.53791 0.14727 0.0
H2698 H 0.69166 0.51309 0.13695 0.0
H2699 H 0.68016 0.53903 0.15466 0.0
H2700 H 0.6006 0.61169 0.1267 0.0
H2701 H 0.57082 0.5705 0.113 0.0
H2702 H 0.65052 0.51487 0.11086 0.0
C2703 C 0.71656 0.60569 0.14221 0.0
C2704 C 0.71447 0.63612 0.14747 0.0
C2705 C 0.68647 0.65094 0.14642 0.0
C2706 C 0.66085 0.6358 0.14012 0.0
C2707 C 0.66375 0.60598 0.13464 0.0
C2708 C 0.69091 0.5911 0.13555 0.0
C2709 C 0.68841 0.55971 0.12767 0.0
C2710 C 0.70896 0.55582 0.11079 0.0
C2711 C 0.69514 0.53604 0.14253 0.0
C2712 C 0.65564 0.55928 0.12216 0.0
C2713 C 0.64173 0.58606 0.1265 0.0
C2714 C 0.61129 0.59069 0.12316 0.0
C2715 C 0.59458 0.56722 0.11535 0.0
C2716 C 0.60845 0.5397 0.11066 0.0
C2717 C 0.63943 0.53587 0.114 0.0
H2718 H 0.73921 0.40962 0.36357 0.0
H2719 H 0.68387 0.33083 0.35531 0.0
H2720 H 0.63949 0.35886 0.3663 0.0
H2721 H 0.70497 0.43127 0.40578 0.0
H2722 H 0.70764 0.47101 0.40157 0.0
H2723 H 0.73454 0.44586 0.39138 0.0
H2724 H 0.7217 0.46623 0.35886 0.0
H2725 H 0.69498 0.4917 0.36897 0.0
H2726 H 0.68328 0.46606 0.35114 0.0
H2727 H 0.60125 0.39534 0.37843 0.0
H2728 H 0.57218 0.43722 0.39192 0.0
H2729 H 0.65317 0.49091 0.39468 0.0
C2730 C 0.7176 0.39854 0.36372 0.0
C2731 C 0.71476 0.36824 0.35834 0.0
C2732 C 0.68637 0.35413 0.35925 0.0
C2733 C 0.66108 0.36985 0.36547 0.0
C2734 C 0.66468 0.39954 0.37102 0.0
C2735 C 0.69223 0.41373 0.37031 0.0
C2736 C 0.69034 0.44517 0.37818 0.0
C2737 C 0.71057 0.44851 0.39524 0.0
C2738 C 0.69802 0.46868 0.3634 0.0
C2739 C 0.65745 0.44641 0.38341 0.0
C2740 C 0.64298 0.41998 0.37898 0.0
C2741 C 0.61237 0.41609 0.38206 0.0
C2742 C 0.59606 0.43994 0.38974 0.0
C2743 C 0.6105 0.4671 0.39454 0.0
C2744 C 0.64164 0.4702 0.39144 0.0
H2745 H 0.84645 0.49207 0.61734 0.0
H2746 H 0.92587 0.43735 0.60999 0.0
H2747 H 0.89761 0.39259 0.62024 0.0
H2748 H 0.82336 0.45667 0.65917 0.0
H2749 H 0.7838 0.4594 0.65439 0.0
H2750 H 0.80932 0.48662 0.64489 0.0
H2751 H 0.79024 0.47466 0.61194 0.0
H2752 H 0.76444 0.44761 0.62136 0.0
H2753 H 0.7908 0.43647 0.6038 0.0
H2754 H 0.86036 0.35369 0.63082 0.0
H2755 H 0.8177 0.32403 0.64288 0.0
H2756 H 0.76416 0.40495 0.64649 0.0
C2757 C 0.85764 0.47052 0.61758 0.0
C2758 C 0.88814 0.46791 0.61259 0.0
C2759 C 0.90241 0.43963 0.61361 0.0
C2760 C 0.88656 0.41414 0.61941 0.0
C2761 C 0.85661 0.41747 0.62452 0.0
C2762 C 0.84235 0.44499 0.62384 0.0
C2763 C 0.81061 0.44279 0.63122 0.0
C2764 C 0.80655 0.46254 0.64844 0.0
C2765 C 0.78767 0.45085 0.61618 0.0
C2766 C 0.80921 0.40976 0.63607 0.0
C2767 C 0.83585 0.39548 0.63186 0.0
C2768 C 0.83951 0.36469 0.63435 0.0
C2769 C 0.81523 0.34803 0.64121 0.0
C2770 C 0.78793 0.36231 0.64588 0.0
C2771 C 0.78504 0.3936 0.64341 0.0
H2772 H 0.12749 0.48786 0.13117 0.0
H2773 H 0.1102 0.43979 0.08043 0.0
H2774 H 0.13729 0.39557 0.09272 0.0
H2775 H 0.20107 0.46489 0.13459 0.0
H2776 H 0.20207 0.4626 0.15941 0.0
H2777 H 0.17623 0.48771 0.1483 0.0
H2778 H 0.13189 0.46254 0.16552 0.0
H2779 H 0.15769 0.43734 0.17673 0.0
H2780 H 0.12659 0.42257 0.16372 0.0
H2781 H 0.17164 0.35915 0.10902 0.0
H2782 H 0.21219 0.33507 0.12684 0.0
H2783 H 0.20881 0.40798 0.1665 0.0
C2784 C 0.12836 0.4675 0.12304 0.0
C2785 C 0.11595 0.46666 0.10515 0.0
C2786 C 0.11888 0.44038 0.09438 0.0
C2787 C 0.13426 0.41525 0.10126 0.0
C2788 C 0.14695 0.41695 0.11883 0.0
C2789 C 0.14421 0.44248 0.12956 0.0
C2790 C 0.16332 0.44026 0.1468 0.0
C2791 C 0.18707 0.46534 0.14729 0.0
C2792 C 0.14369 0.44069 0.16422 0.0
C2793 C 0.17764 0.40977 0.14396 0.0
C2794 C 0.1676 0.39645 0.1279 0.0
C2795 C 0.17931 0.36919 0.12177 0.0
C2796 C 0.20236 0.3556 0.13204 0.0
C2797 C 0.21378 0.3694 0.1482 0.0
C2798 C 0.20049 0.39648 0.15439 0.0
H2799 H 0.35359 0.49673 0.8748 0.0
H2800 H 0.3996 0.43562 0.91155 0.0
H2801 H 0.37102 0.39296 0.89817 0.0
H2802 H 0.28231 0.46259 0.87861 0.0
H2803 H 0.27179 0.4693 0.85497 0.0
H2804 H 0.29784 0.49406 0.86627 0.0
H2805 H 0.33666 0.48458 0.84028 0.0
H2806 H 0.31075 0.45965 0.82894 0.0
H2807 H 0.34777 0.44669 0.83493 0.0
H2808 H 0.33501 0.35783 0.88197 0.0
H2809 H 0.29332 0.33315 0.86561 0.0
H2810 H 0.27044 0.41781 0.83957 0.0
C2811 C 0.3578 0.47425 0.87984 0.0
C2812 C 0.37878 0.46913 0.89405 0.0
C2813 C 0.38369 0.4397 0.90054 0.0
C2814 C 0.36762 0.41547 0.89301 0.0
C2815 C 0.34679 0.42125 0.87905 0.0
C2816 C 0.34183 0.44997 0.87257 0.0
C2817 C 0.3169 0.45056 0.85837 0.0
C2818 C 0.29067 0.47029 0.86495 0.0
C2819 C 0.32874 0.46098 0.83951 0.0
C2820 C 0.30828 0.41771 0.85798 0.0
C2821 C 0.32594 0.40114 0.86988 0.0
C2822 C 0.32122 0.37056 0.87251 0.0
C2823 C 0.29743 0.35673 0.86311 0.0
C2824 C 0.27844 0.37342 0.85121 0.0
C2825 C 0.28457 0.40422 0.84837 0.0
H2826 H 0.3387 0.5324 0.59114 0.0
H2827 H 0.41976 0.54719 0.62306 0.0
H2828 H 0.39622 0.59089 0.63794 0.0
H2829 H 0.31751 0.61289 0.58564 0.0
H2830 H 0.27816 0.60472 0.58827 0.0
H2831 H 0.30281 0.57728 0.5781 0.0
H2832 H 0.28583 0.53814 0.6024 0.0
H2833 H 0.26118 0.5654 0.6126 0.0
H2834 H 0.28906 0.54703 0.62658 0.0
H2835 H 0.3615 0.6275 0.65301 0.0
H2836 H 0.31835 0.65525 0.66617 0.0
H2837 H 0.26066 0.61887 0.62372 0.0
C2838 C 0.35185 0.54527 0.60088 0.0
C2839 C 0.38119 0.53625 0.60585 0.0
C2840 C 0.39731 0.55354 0.61894 0.0
C2841 C 0.38415 0.57853 0.62746 0.0
C2842 C 0.35492 0.58624 0.62266 0.0
C2843 C 0.33903 0.57029 0.60954 0.0
C2844 C 0.30706 0.58159 0.60807 0.0
C2845 C 0.30104 0.59492 0.58888 0.0
C2846 C 0.28447 0.55656 0.61269 0.0
C2847 C 0.3072 0.60577 0.62277 0.0
C2848 C 0.33509 0.60821 0.63097 0.0
C2849 C 0.33982 0.6265 0.64633 0.0
C2850 C 0.31531 0.64223 0.65369 0.0
C2851 C 0.28668 0.63988 0.64551 0.0
C2852 C 0.28272 0.62192 0.62968 0.0
H2853 H 0.14716 0.54604 0.41518 0.0
H2854 H 0.09287 0.51271 0.36992 0.0
H2855 H 0.11952 0.54647 0.3485 0.0
H2856 H 0.15252 0.62492 0.39837 0.0
H2857 H 0.19064 0.6285 0.40632 0.0
H2858 H 0.16485 0.6043 0.41837 0.0
H2859 H 0.20171 0.55986 0.41432 0.0
H2860 H 0.22746 0.58379 0.40215 0.0
H2861 H 0.21419 0.54979 0.39148 0.0
H2862 H 0.15804 0.57744 0.33123 0.0
H2863 H 0.20144 0.6074 0.3203 0.0
H2864 H 0.22782 0.62351 0.37694 0.0
C2865 C 0.14026 0.5464 0.40086 0.0
C2866 C 0.11775 0.52671 0.39431 0.0
C2867 C 0.10974 0.52774 0.37538 0.0
C2868 C 0.12487 0.54679 0.36306 0.0
C2869 C 0.14762 0.56515 0.36988 0.0
C2870 C 0.15484 0.56557 0.38842 0.0
C2871 C 0.18114 0.58624 0.39212 0.0
C2872 C 0.17171 0.61256 0.40453 0.0
C2873 C 0.20768 0.56888 0.40051 0.0
C2874 C 0.18814 0.59677 0.37272 0.0
C2875 C 0.16868 0.58425 0.36003 0.0
C2876 C 0.17283 0.58809 0.34108 0.0
C2877 C 0.19751 0.60507 0.33498 0.0
C2878 C 0.21732 0.61845 0.34779 0.0
C2879 C 0.21228 0.61449 0.36688 0.0
loop_
_geom_bond_atom_site_label_1
_geom_bond_atom_site_label_2
_geom_bond_distance
_geom_bond_site_symmetry_2
_ccdc_geom_bond_type
Mn0 O5 2.095 . S
Mn0 O15 2.162 . S
Mn0 O16 2.297 . S
Mn0 O24 2.385 . S
Mn0 O25 2.209 . S
Mn0 O26 2.094 . S
Mn1 O6 2.121 . S
Mn1 N8 2.257 . S
Mn1 N17 2.282 . S
Mn1 O25 2.215 . S
Mn1 O27 2.117 . S
C2 O24 1.234 . S
C2 O25 1.283 . S
C3 O15 1.281 . S
C3 O16 1.236 . S
C4 O26 1.240 . S
C4 O27 1.264 . S
O5 Mn0 2.095 . S
O5 C14 1.250 . S
O6 Mn1 2.121 . S
O6 C14 1.258 . S
C7 N8 1.326 . S
C7 C11 1.460 . S
C7 H13 0.929 . S
N8 Mn1 2.257 . S
N8 C7 1.326 . S
N8 C12 1.362 . S
C9 C10 1.258 . S
C9 C12 1.431 . S
C9 C29 1.449 . S
C10 C9 1.258 . S
C10 C11 1.477 . S
C10 H30 0.931 . S
C11 C7 1.460 . S
C11 C10 1.477 . S
C11 H31 0.930 . S
C12 N8 1.362 . S
C12 C9 1.431 . S
C12 C22 1.476 . S
H13 C7 0.929 . S
C14 O5 1.250 . S
C14 O6 1.258 . S
O15 Mn0 2.162 . S
O15 C3 1.281 . S
O16 Mn0 2.297 . S
O16 C3 1.236 . S
N17 Mn1 2.282 . S
N17 C18 1.328 . S
N17 C22 1.318 . S
C18 N17 1.328 . S
C18 C19 1.457 . S
C18 H23 0.929 . S
C19 C18 1.457 . S
C19 C20 1.291 . S
C19 H32 0.931 . S
C20 C19 1.291 . S
C20 C21 1.373 . S
C20 H33 0.929 . S
C21 C20 1.373 . S
C21 C22 1.396 . S
C21 C28 1.403 . S
C22 C12 1.476 . S
C22 N17 1.318 . S
C22 C21 1.396 . S
H23 C18 0.929 . S
O24 Mn0 2.385 . S
O24 C2 1.234 . S
O25 Mn0 2.209 . S
O25 Mn1 2.215 . S
O25 C2 1.283 . S
O26 Mn0 2.094 . S
O26 C4 1.240 . S
O27 Mn1 2.117 . S
O27 C4 1.264 . S
C28 C21 1.403 . S
C28 C29 1.399 . S
C28 H34 0.929 . S
C29 C9 1.449 . S
C29 C28 1.399 . S
C29 H35 0.930 . S
H30 C10 0.931 . S
H31 C11 0.930 . S
H32 C19 0.931 . S
H33 C20 0.929 . S
H34 C28 0.929 . S
H35 C29 0.930 . S
Mn36 O41 2.095 . S
Mn36 O51 2.162 1_565 S
Mn36 O52 2.297 . S
Mn36 O60 2.385 . S
Mn36 O61 2.209 . S
Mn36 O62 2.094 . S
Mn37 O42 2.121 . S
Mn37 N44 2.257 . S
Mn37 N53 2.282 . S
Mn37 O61 2.215 . S
Mn37 O63 2.117 1_455 S
C38 O60 1.234 . S
C38 O61 1.283 . S
C39 O51 1.281 . S
C39 O52 1.236 1_545 S
C40 O62 1.240 1_655 S
C40 O63 1.264 . S
O41 Mn36 2.095 . S
O41 C50 1.250 . S
O42 Mn37 2.121 . S
O42 C50 1.258 . S
C43 N44 1.326 . S
C43 C47 1.460 . S
C43 H49 0.929 . S
N44 Mn37 2.257 . S
N44 C43 1.326 . S
N44 C48 1.362 . S
C45 C46 1.258 . S
C45 C48 1.431 . S
C45 C65 1.449 . S
C46 C45 1.258 . S
C46 C47 1.477 . S
C46 H66 0.931 . S
C47 C43 1.460 . S
C47 C46 1.477 . S
C47 H67 0.930 . S
C48 N44 1.362 . S
C48 C45 1.431 . S
C48 C58 1.476 . S
H49 C43 0.929 . S
C50 O41 1.250 . S
C50 O42 1.258 . S
O51 Mn36 2.162 1_545 S
O51 C39 1.281 . S
O52 Mn36 2.297 . S
O52 C39 1.236 1_565 S
N53 Mn37 2.282 . S
N53 C54 1.328 . S
N53 C58 1.318 . S
C54 N53 1.328 . S
C54 C55 1.457 . S
C54 H59 0.929 . S
C55 C54 1.457 . S
C55 C56 1.291 . S
C55 H68 0.931 . S
C56 C55 1.291 . S
C56 C57 1.373 . S
C56 H69 0.929 . S
C57 C56 1.373 . S
C57 C58 1.396 . S
C57 C64 1.403 . S
C58 C48 1.476 . S
C58 N53 1.318 . S
C58 C57 1.396 . S
H59 C54 0.929 . S
O60 Mn36 2.385 . S
O60 C38 1.234 . S
O61 Mn36 2.209 . S
O61 Mn37 2.215 . S
O61 C38 1.283 . S
O62 Mn36 2.094 . S
O62 C40 1.240 1_455 S
O63 Mn37 2.117 1_655 S
O63 C40 1.264 . S
C64 C57 1.403 . S
C64 C65 1.399 . S
C64 H70 0.929 . S
C65 C45 1.449 . S
C65 C64 1.399 . S
C65 H71 0.930 . S
H66 C46 0.931 . S
H67 C47 0.930 . S
H68 C55 0.931 . S
H69 C56 0.929 . S
H70 C64 0.929 . S
H71 C65 0.930 . S
Mn72 O77 2.095 . S
Mn72 O87 2.162 . S
Mn72 O88 2.297 . S
Mn72 O96 2.385 . S
Mn72 O97 2.209 . S
Mn72 O98 2.094 . S
Mn73 O78 2.121 . S
Mn73 N80 2.257 . S
Mn73 N89 2.282 . S
Mn73 O97 2.215 . S
Mn73 O99 2.117 . S
C74 O96 1.234 . S
C74 O97 1.283 . S
C75 O87 1.281 . S
C75 O88 1.236 . S
C76 O98 1.240 . S
C76 O99 1.264 . S
O77 Mn72 2.095 . S
O77 C86 1.250 . S
O78 Mn73 2.121 . S
O78 C86 1.258 . S
C79 N80 1.326 . S
C79 C83 1.460 . S
C79 H85 0.929 . S
N80 Mn73 2.257 . S
N80 C79 1.326 . S
N80 C84 1.362 . S
C81 C82 1.258 . S
C81 C84 1.431 . S
C81 C101 1.449 . S
C82 C81 1.258 . S
C82 C83 1.477 . S
C82 H102 0.931 . S
C83 C79 1.460 . S
C83 C82 1.477 . S
C83 H103 0.930 . S
C84 N80 1.362 . S
C84 C81 1.431 . S
C84 C94 1.476 . S
H85 C79 0.929 . S
C86 O77 1.250 . S
C86 O78 1.258 . S
O87 Mn72 2.162 . S
O87 C75 1.281 . S
O88 Mn72 2.297 . S
O88 C75 1.236 . S
N89 Mn73 2.282 . S
N89 C90 1.328 . S
N89 C94 1.318 . S
C90 N89 1.328 . S
C90 C91 1.457 . S
C90 H95 0.929 . S
C91 C90 1.457 . S
C91 C92 1.291 . S
C91 H104 0.931 . S
C92 C91 1.291 . S
C92 C93 1.373 . S
C92 H105 0.929 . S
C93 C92 1.373 . S
C93 C94 1.396 . S
C93 C100 1.403 . S
C94 C84 1.476 . S
C94 N89 1.318 . S
C94 C93 1.396 . S
H95 C90 0.929 . S
O96 Mn72 2.385 . S
O96 C74 1.234 . S
O97 Mn72 2.209 . S
O97 Mn73 2.215 . S
O97 C74 1.283 . S
O98 Mn72 2.094 . S
O98 C76 1.240 . S
O99 Mn73 2.117 . S
O99 C76 1.264 . S
C100 C93 1.403 . S
C100 C101 1.399 . S
C100 H106 0.929 . S
C101 C81 1.449 . S
C101 C100 1.399 . S
C101 H107 0.930 . S
H102 C82 0.931 . S
H103 C83 0.930 . S
H104 C91 0.931 . S
H105 C92 0.929 . S
H106 C100 0.929 . S
H107 C101 0.930 . S
Mn108 O113 2.095 . S
Mn108 O123 2.162 1_545 S
Mn108 O124 2.315 . S
Mn108 O132 2.385 . S
Mn108 O133 2.209 . S
Mn108 O134 2.094 . S
Mn109 O114 2.121 . S
Mn109 N116 2.257 . S
Mn109 N125 2.282 . S
Mn109 O133 2.215 . S
Mn109 O135 2.117 . S
C110 O132 1.234 . S
C110 O133 1.283 . S
C111 O123 1.281 . S
C111 O124 1.211 1_565 S
C112 O134 1.240 . S
C112 O135 1.264 . S
O113 Mn108 2.095 . S
O113 C122 1.250 . S
O114 Mn109 2.121 . S
O114 C122 1.258 . S
C115 N116 1.326 . S
C115 C119 1.460 . S
C115 H121 0.929 . S
N116 Mn109 2.257 . S
N116 C115 1.326 . S
N116 C120 1.362 . S
C117 C118 1.258 . S
C117 C120 1.431 . S
C117 C137 1.449 . S
C118 C117 1.258 . S
C118 C119 1.477 . S
C118 H138 0.931 . S
C119 C115 1.460 . S
C119 C118 1.477 . S
C119 H139 0.930 . S
C120 N116 1.362 . S
C120 C117 1.431 . S
C120 C130 1.476 . S
H121 C115 0.929 . S
C122 O113 1.250 . S
C122 O114 1.258 . S
O123 Mn108 2.162 1_565 S
O123 C111 1.281 . S
O124 Mn108 2.315 . S
O124 C111 1.211 1_545 S
N125 Mn109 2.282 . S
N125 C126 1.328 . S
N125 C130 1.318 . S
C126 N125 1.328 . S
C126 C127 1.457 . S
C126 H131 0.929 . S
C127 C126 1.457 . S
C127 C128 1.291 . S
C127 H140 0.931 . S
C128 C127 1.291 . S
C128 C129 1.373 . S
C128 H141 0.929 . S
C129 C128 1.373 . S
C129 C130 1.396 . S
C129 C136 1.403 . S
C130 C120 1.476 . S
C130 N125 1.318 . S
C130 C129 1.396 . S
H131 C126 0.929 . S
O132 Mn108 2.385 . S
O132 C110 1.234 . S
O133 Mn108 2.209 . S
O133 Mn109 2.215 . S
O133 C110 1.283 . S
O134 Mn108 2.094 . S
O134 C112 1.240 . S
O135 Mn109 2.117 . S
O135 C112 1.264 . S
C136 C129 1.403 . S
C136 C137 1.399 . S
C136 H142 0.929 . S
C137 C117 1.449 . S
C137 C136 1.399 . S
C137 H143 0.930 . S
H138 C118 0.931 . S
H139 C119 0.930 . S
H140 C127 0.931 . S
H141 C128 0.929 . S
H142 C136 0.929 . S
H143 C137 0.930 . S
Mn144 O149 2.095 . S
Mn144 O159 2.162 . S
Mn144 O160 2.297 . S
Mn144 O168 2.385 . S
Mn144 O169 2.209 . S
Mn144 O170 2.094 . S
Mn145 O150 2.121 . S
Mn145 N152 2.257 . S
Mn145 N161 2.282 . S
Mn145 O169 2.215 . S
Mn145 O171 2.117 . S
C146 O168 1.234 . S
C146 O169 1.283 . S
C147 O159 1.281 . S
C147 O160 1.236 . S
C148 O170 1.240 . S
C148 O171 1.264 . S
O149 Mn144 2.095 . S
O149 C158 1.250 . S
O150 Mn145 2.121 . S
O150 C158 1.258 . S
C151 N152 1.326 . S
C151 C155 1.460 . S
C151 H157 0.929 . S
N152 Mn145 2.257 . S
N152 C151 1.326 . S
N152 C156 1.362 . S
C153 C154 1.258 . S
C153 C156 1.431 . S
C153 C173 1.449 . S
C154 C153 1.258 . S
C154 C155 1.477 . S
C154 H174 0.931 . S
C155 C151 1.460 . S
C155 C154 1.477 . S
C155 H175 0.930 . S
C156 N152 1.362 . S
C156 C153 1.431 . S
C156 C166 1.476 . S
H157 C151 0.929 . S
C158 O149 1.250 . S
C158 O150 1.258 . S
O159 Mn144 2.162 . S
O159 C147 1.281 . S
O160 Mn144 2.297 . S
O160 C147 1.236 . S
N161 Mn145 2.282 . S
N161 C162 1.328 . S
N161 C166 1.318 . S
C162 N161 1.328 . S
C162 C163 1.457 . S
C162 H167 0.929 . S
C163 C162 1.457 . S
C163 C164 1.291 . S
C163 H176 0.931 . S
C164 C163 1.291 . S
C164 C165 1.373 . S
C164 H177 0.929 . S
C165 C164 1.373 . S
C165 C166 1.396 . S
C165 C172 1.403 . S
C166 C156 1.476 . S
C166 N161 1.318 . S
C166 C165 1.396 . S
H167 C162 0.929 . S
O168 Mn144 2.385 . S
O168 C146 1.234 . S
O169 Mn144 2.209 . S
O169 Mn145 2.215 . S
O169 C146 1.283 . S
O170 Mn144 2.094 . S
O170 C148 1.240 . S
O171 Mn145 2.117 . S
O171 C148 1.264 . S
C172 C165 1.403 . S
C172 C173 1.399 . S
C172 H178 0.929 . S
C173 C153 1.449 . S
C173 C172 1.399 . S
C173 H179 0.930 . S
H174 C154 0.931 . S
H175 C155 0.930 . S
H176 C163 0.931 . S
H177 C164 0.929 . S
H178 C172 0.929 . S
H179 C173 0.930 . S
Mn180 O185 2.095 . S
Mn180 O195 2.162 1_565 S
Mn180 O196 2.297 . S
Mn180 O204 2.385 . S
Mn180 O205 2.209 . S
Mn180 O206 2.094 . S
Mn181 O186 2.121 . S
Mn181 N188 2.257 . S
Mn181 N197 2.282 . S
Mn181 O205 2.215 . S
Mn181 O207 2.117 . S
C182 O204 1.234 . S
C182 O205 1.283 . S
C183 O195 1.281 . S
C183 O196 1.236 1_545 S
C184 O206 1.240 . S
C184 O207 1.264 . S
O185 Mn180 2.095 . S
O185 C194 1.250 . S
O186 Mn181 2.121 . S
O186 C194 1.258 . S
C187 N188 1.326 . S
C187 C191 1.460 . S
C187 H193 0.929 . S
N188 Mn181 2.257 . S
N188 C187 1.326 . S
N188 C192 1.362 . S
C189 C190 1.258 . S
C189 C192 1.431 . S
C189 C209 1.449 . S
C190 C189 1.258 . S
C190 C191 1.477 . S
C190 H210 0.931 . S
C191 C187 1.460 . S
C191 C190 1.477 . S
C191 H211 0.930 . S
C192 N188 1.362 . S
C192 C189 1.431 . S
C192 C202 1.476 . S
H193 C187 0.929 . S
C194 O185 1.250 . S
C194 O186 1.258 . S
O195 Mn180 2.162 1_545 S
O195 C183 1.281 . S
O196 Mn180 2.297 . S
O196 C183 1.236 1_565 S
N197 Mn181 2.282 . S
N197 C198 1.328 . S
N197 C202 1.318 . S
C198 N197 1.328 . S
C198 C199 1.457 . S
C198 H203 0.929 . S
C199 C198 1.457 . S
C199 C200 1.291 . S
C199 H212 0.931 . S
C200 C199 1.291 . S
C200 C201 1.373 . S
C200 H213 0.929 . S
C201 C200 1.373 . S
C201 C202 1.396 . S
C201 C208 1.403 . S
C202 C192 1.476 . S
C202 N197 1.318 . S
C202 C201 1.396 . S
H203 C198 0.929 . S
O204 Mn180 2.385 . S
O204 C182 1.234 . S
O205 Mn180 2.209 . S
O205 Mn181 2.215 . S
O205 C182 1.283 . S
O206 Mn180 2.094 . S
O206 C184 1.240 . S
O207 Mn181 2.117 . S
O207 C184 1.264 . S
C208 C201 1.403 . S
C208 C209 1.399 . S
C208 H214 0.929 . S
C209 C189 1.449 . S
C209 C208 1.399 . S
C209 H215 0.930 . S
H210 C190 0.931 . S
H211 C191 0.930 . S
H212 C199 0.931 . S
H213 C200 0.929 . S
H214 C208 0.929 . S
H215 C209 0.930 . S
Mn216 O221 2.095 . S
Mn216 O231 2.162 . S
Mn216 O232 2.297 . S
Mn216 O240 2.385 . S
Mn216 O241 2.209 . S
Mn216 O242 2.094 . S
Mn217 O222 2.121 . S
Mn217 N224 2.257 . S
Mn217 N233 2.282 . S
Mn217 O241 2.215 . S
Mn217 O243 2.117 . S
C218 O240 1.234 . S
C218 O241 1.283 . S
C219 O231 1.281 . S
C219 O232 1.236 . S
C220 O242 1.240 . S
C220 O243 1.264 . S
O221 Mn216 2.095 . S
O221 C230 1.250 . S
O222 Mn217 2.121 . S
O222 C230 1.258 . S
C223 N224 1.326 . S
C223 C227 1.460 . S
C223 H229 0.929 . S
N224 Mn217 2.257 . S
N224 C223 1.326 . S
N224 C228 1.362 . S
C225 C226 1.258 . S
C225 C228 1.431 . S
C225 C245 1.449 . S
C226 C225 1.258 . S
C226 C227 1.477 . S
C226 H246 0.931 . S
C227 C223 1.460 . S
C227 C226 1.477 . S
C227 H247 0.930 . S
C228 N224 1.362 . S
C228 C225 1.431 . S
C228 C238 1.476 . S
H229 C223 0.929 . S
C230 O221 1.250 . S
C230 O222 1.258 . S
O231 Mn216 2.162 . S
O231 C219 1.281 . S
O232 Mn216 2.297 . S
O232 C219 1.236 . S
N233 Mn217 2.282 . S
N233 C234 1.328 . S
N233 C238 1.318 . S
C234 N233 1.328 . S
C234 C235 1.457 . S
C234 H239 0.929 . S
C235 C234 1.457 . S
C235 C236 1.291 . S
C235 H248 0.931 . S
C236 C235 1.291 . S
C236 C237 1.373 . S
C236 H249 0.929 . S
C237 C236 1.373 . S
C237 C238 1.396 . S
C237 C244 1.403 . S
C238 C228 1.476 . S
C238 N233 1.318 . S
C238 C237 1.396 . S
H239 C234 0.929 . S
O240 Mn216 2.385 . S
O240 C218 1.234 . S
O241 Mn216 2.209 . S
O241 Mn217 2.215 . S
O241 C218 1.283 . S
O242 Mn216 2.094 . S
O242 C220 1.240 . S
O243 Mn217 2.117 . S
O243 C220 1.264 . S
C244 C237 1.403 . S
C244 C245 1.399 . S
C244 H250 0.929 . S
C245 C225 1.449 . S
C245 C244 1.399 . S
C245 H251 0.930 . S
H246 C226 0.931 . S
H247 C227 0.930 . S
H248 C235 0.931 . S
H249 C236 0.929 . S
H250 C244 0.929 . S
H251 C245 0.930 . S
Mn252 O257 2.095 . S
Mn252 O267 2.162 1_545 S
Mn252 O268 2.316 . S
Mn252 O276 2.385 . S
Mn252 O277 2.209 . S
Mn252 O278 2.094 . S
Mn253 O258 2.121 . S
Mn253 N260 2.257 . S
Mn253 N269 2.282 . S
Mn253 O277 2.215 . S
Mn253 O279 2.117 1_455 S
C254 O276 1.234 . S
C254 O277 1.283 . S
C255 O267 1.281 . S
C255 O268 1.211 1_565 S
C256 O278 1.240 1_655 S
C256 O279 1.264 . S
O257 Mn252 2.095 . S
O257 C266 1.250 . S
O258 Mn253 2.121 . S
O258 C266 1.258 . S
C259 N260 1.326 . S
C259 C263 1.460 . S
C259 H265 0.929 . S
N260 Mn253 2.257 . S
N260 C259 1.326 . S
N260 C264 1.362 . S
C261 C262 1.258 . S
C261 C264 1.431 . S
C261 C281 1.449 . S
C262 C261 1.258 . S
C262 C263 1.477 . S
C262 H282 0.931 . S
C263 C259 1.460 . S
C263 C262 1.477 . S
C263 H283 0.930 . S
C264 N260 1.362 . S
C264 C261 1.431 . S
C264 C274 1.476 . S
H265 C259 0.929 . S
C266 O257 1.250 . S
C266 O258 1.258 . S
O267 Mn252 2.162 1_565 S
O267 C255 1.281 . S
O268 Mn252 2.316 . S
O268 C255 1.211 1_545 S
N269 Mn253 2.282 . S
N269 C270 1.328 . S
N269 C274 1.318 . S
C270 N269 1.328 . S
C270 C271 1.457 . S
C270 H275 0.929 . S
C271 C270 1.457 . S
C271 C272 1.291 . S
C271 H284 0.931 . S
C272 C271 1.291 . S
C272 C273 1.373 . S
C272 H285 0.929 . S
C273 C272 1.373 . S
C273 C274 1.396 . S
C273 C280 1.403 . S
C274 C264 1.476 . S
C274 N269 1.318 . S
C274 C273 1.396 . S
H275 C270 0.929 . S
O276 Mn252 2.385 . S
O276 C254 1.234 . S
O277 Mn252 2.209 . S
O277 Mn253 2.215 . S
O277 C254 1.283 . S
O278 Mn252 2.094 . S
O278 C256 1.240 1_455 S
O279 Mn253 2.117 1_655 S
O279 C256 1.264 . S
C280 C273 1.403 . S
C280 C281 1.399 . S
C280 H286 0.929 . S
C281 C261 1.449 . S
C281 C280 1.399 . S
C281 H287 0.930 . S
H282 C262 0.931 . S
H283 C263 0.930 . S
H284 C271 0.931 . S
H285 C272 0.929 . S
H286 C280 0.929 . S
H287 C281 0.930 . S
Mn288 O293 2.095 . S
Mn288 O303 2.162 . S
Mn288 O304 2.297 . S
Mn288 O312 2.385 . S
Mn288 O313 2.209 . S
Mn288 O314 2.094 . S
Mn289 O294 2.121 . S
Mn289 N296 2.257 . S
Mn289 N305 2.282 . S
Mn289 O313 2.215 . S
Mn289 O315 2.117 . S
C290 O312 1.234 . S
C290 O313 1.283 . S
C291 O303 1.281 . S
C291 O304 1.236 . S
C292 O314 1.240 . S
C292 O315 1.264 . S
O293 Mn288 2.095 . S
O293 C302 1.250 . S
O294 Mn289 2.121 . S
O294 C302 1.258 . S
C295 N296 1.326 . S
C295 C299 1.460 . S
C295 H301 0.929 . S
N296 Mn289 2.257 . S
N296 C295 1.326 . S
N296 C300 1.362 . S
C297 C298 1.258 . S
C297 C300 1.431 . S
C297 C317 1.449 . S
C298 C297 1.258 . S
C298 C299 1.477 . S
C298 H318 0.931 . S
C299 C295 1.460 . S
C299 C298 1.477 . S
C299 H319 0.930 . S
C300 N296 1.362 . S
C300 C297 1.431 . S
C300 C310 1.476 . S
H301 C295 0.929 . S
C302 O293 1.250 . S
C302 O294 1.258 . S
O303 Mn288 2.162 . S
O303 C291 1.281 . S
O304 Mn288 2.297 . S
O304 C291 1.236 . S
N305 Mn289 2.282 . S
N305 C306 1.328 . S
N305 C310 1.318 . S
C306 N305 1.328 . S
C306 C307 1.457 . S
C306 H311 0.929 . S
C307 C306 1.457 . S
C307 C308 1.291 . S
C307 H320 0.931 . S
C308 C307 1.291 . S
C308 C309 1.373 . S
C308 H321 0.929 . S
C309 C308 1.373 . S
C309 C310 1.396 . S
C309 C316 1.403 . S
C310 C300 1.476 . S
C310 N305 1.318 . S
C310 C309 1.396 . S
H311 C306 0.929 . S
O312 Mn288 2.385 . S
O312 C290 1.234 . S
O313 Mn288 2.209 . S
O313 Mn289 2.215 . S
O313 C290 1.283 . S
O314 Mn288 2.094 . S
O314 C292 1.240 . S
O315 Mn289 2.117 . S
O315 C292 1.264 . S
C316 C309 1.403 . S
C316 C317 1.399 . S
C316 H322 0.929 . S
C317 C297 1.449 . S
C317 C316 1.399 . S
C317 H323 0.930 . S
H318 C298 0.931 . S
H319 C299 0.930 . S
H320 C307 0.931 . S
H321 C308 0.929 . S
H322 C316 0.929 . S
H323 C317 0.930 . S
Mn324 O329 2.095 . S
Mn324 O339 2.162 1_655 S
Mn324 O340 2.297 . S
Mn324 O348 2.385 . S
Mn324 O349 2.209 . S
Mn324 O350 2.094 1_545 S
Mn325 O330 2.121 . S
Mn325 N332 2.257 . S
Mn325 N341 2.282 . S
Mn325 O349 2.215 . S
Mn325 O351 2.117 1_545 S
C326 O348 1.234 . S
C326 O349 1.283 . S
C327 O339 1.281 . S
C327 O340 1.236 1_455 S
C328 O350 1.240 . S
C328 O351 1.264 . S
O329 Mn324 2.095 . S
O329 C338 1.250 . S
O330 Mn325 2.121 . S
O330 C338 1.258 . S
C331 N332 1.326 . S
C331 C335 1.460 . S
C331 H337 0.929 . S
N332 Mn325 2.257 . S
N332 C331 1.326 . S
N332 C336 1.362 . S
C333 C334 1.258 . S
C333 C336 1.431 . S
C333 C353 1.449 . S
C334 C333 1.258 . S
C334 C335 1.477 . S
C334 H354 0.931 . S
C335 C331 1.460 . S
C335 C334 1.477 . S
C335 H355 0.930 . S
C336 N332 1.362 . S
C336 C333 1.431 . S
C336 C346 1.476 . S
H337 C331 0.929 . S
C338 O329 1.250 . S
C338 O330 1.258 . S
O339 Mn324 2.162 1_455 S
O339 C327 1.281 . S
O340 Mn324 2.297 . S
O340 C327 1.236 1_655 S
N341 Mn325 2.282 . S
N341 C342 1.328 . S
N341 C346 1.318 . S
C342 N341 1.328 . S
C342 C343 1.457 . S
C342 H347 0.929 . S
C343 C342 1.457 . S
C343 C344 1.291 . S
C343 H356 0.931 . S
C344 C343 1.291 . S
C344 C345 1.373 . S
C344 H357 0.929 . S
C345 C344 1.373 . S
C345 C346 1.396 . S
C345 C352 1.403 . S
C346 C336 1.476 . S
C346 N341 1.318 . S
C346 C345 1.396 . S
H347 C342 0.929 . S
O348 Mn324 2.385 . S
O348 C326 1.234 . S
O349 Mn324 2.209 . S
O349 Mn325 2.215 . S
O349 C326 1.283 . S
O350 Mn324 2.094 1_565 S
O350 C328 1.240 . S
O351 Mn325 2.117 1_565 S
O351 C328 1.264 . S
C352 C345 1.403 . S
C352 C353 1.399 . S
C352 H358 0.929 . S
C353 C333 1.449 . S
C353 C352 1.399 . S
C353 H359 0.930 . S
H354 C334 0.931 . S
H355 C335 0.930 . S
H356 C343 0.931 . S
H357 C344 0.929 . S
H358 C352 0.929 . S
H359 C353 0.930 . S
Mn360 O365 2.095 . S
Mn360 O375 2.162 . S
Mn360 O376 2.297 . S
Mn360 O384 2.385 . S
Mn360 O385 2.209 . S
Mn360 O386 2.094 . S
Mn361 O366 2.121 . S
Mn361 N368 2.257 . S
Mn361 N377 2.282 . S
Mn361 O385 2.215 . S
Mn361 O387 2.117 . S
C362 O384 1.234 . S
C362 O385 1.283 . S
C363 O375 1.281 . S
C363 O376 1.236 . S
C364 O386 1.240 . S
C364 O387 1.264 . S
O365 Mn360 2.095 . S
O365 C374 1.250 . S
O366 Mn361 2.121 . S
O366 C374 1.258 . S
C367 N368 1.326 . S
C367 C371 1.460 . S
C367 H373 0.929 . S
N368 Mn361 2.257 . S
N368 C367 1.326 . S
N368 C372 1.362 . S
C369 C370 1.258 . S
C369 C372 1.431 . S
C369 C389 1.449 . S
C370 C369 1.258 . S
C370 C371 1.477 . S
C370 H390 0.931 . S
C371 C367 1.460 . S
C371 C370 1.477 . S
C371 H391 0.930 . S
C372 N368 1.362 . S
C372 C369 1.431 . S
C372 C382 1.476 . S
H373 C367 0.929 . S
C374 O365 1.250 . S
C374 O366 1.258 . S
O375 Mn360 2.162 . S
O375 C363 1.281 . S
O376 Mn360 2.297 . S
O376 C363 1.236 . S
N377 Mn361 2.282 . S
N377 C378 1.328 . S
N377 C382 1.318 . S
C378 N377 1.328 . S
C378 C379 1.457 . S
C378 H383 0.929 . S
C379 C378 1.457 . S
C379 C380 1.291 . S
C379 H392 0.931 . S
C380 C379 1.291 . S
C380 C381 1.373 . S
C380 H393 0.929 . S
C381 C380 1.373 . S
C381 C382 1.396 . S
C381 C388 1.403 . S
C382 C372 1.476 . S
C382 N377 1.318 . S
C382 C381 1.396 . S
H383 C378 0.929 . S
O384 Mn360 2.385 . S
O384 C362 1.234 . S
O385 Mn360 2.209 . S
O385 Mn361 2.215 . S
O385 C362 1.283 . S
O386 Mn360 2.094 . S
O386 C364 1.240 . S
O387 Mn361 2.117 . S
O387 C364 1.264 . S
C388 C381 1.403 . S
C388 C389 1.399 . S
C388 H394 0.929 . S
C389 C369 1.449 . S
C389 C388 1.399 . S
C389 H395 0.930 . S
H390 C370 0.931 . S
H391 C371 0.930 . S
H392 C379 0.931 . S
H393 C380 0.929 . S
H394 C388 0.929 . S
H395 C389 0.930 . S
Mn396 O401 2.095 . S
Mn396 O411 2.162 . S
Mn396 O412 2.297 . S
Mn396 O420 2.385 . S
Mn396 O421 2.209 . S
Mn396 O422 2.094 1_565 S
Mn397 O402 2.121 . S
Mn397 N404 2.257 . S
Mn397 N413 2.282 . S
Mn397 O421 2.215 . S
Mn397 O423 2.117 1_565 S
C398 O420 1.234 . S
C398 O421 1.283 . S
C399 O411 1.281 . S
C399 O412 1.236 . S
C400 O422 1.240 . S
C400 O423 1.264 . S
O401 Mn396 2.095 . S
O401 C410 1.250 . S
O402 Mn397 2.121 . S
O402 C410 1.258 . S
C403 N404 1.326 . S
C403 C407 1.460 . S
C403 H409 0.929 . S
N404 Mn397 2.257 . S
N404 C403 1.326 . S
N404 C408 1.362 . S
C405 C406 1.258 . S
C405 C408 1.431 . S
C405 C425 1.449 . S
C406 C405 1.258 . S
C406 C407 1.477 . S
C406 H426 0.931 . S
C407 C403 1.460 . S
C407 C406 1.477 . S
C407 H427 0.930 . S
C408 N404 1.362 . S
C408 C405 1.431 . S
C408 C418 1.476 . S
H409 C403 0.929 . S
C410 O401 1.250 . S
C410 O402 1.258 . S
O411 Mn396 2.162 . S
O411 C399 1.281 . S
O412 Mn396 2.297 . S
O412 C399 1.236 . S
N413 Mn397 2.282 . S
N413 C414 1.328 . S
N413 C418 1.318 . S
C414 N413 1.328 . S
C414 C415 1.457 . S
C414 H419 0.929 . S
C415 C414 1.457 . S
C415 C416 1.291 . S
C415 H428 0.931 . S
C416 C415 1.291 . S
C416 C417 1.373 . S
C416 H429 0.929 . S
C417 C416 1.373 . S
C417 C418 1.396 . S
C417 C424 1.403 . S
C418 C408 1.476 . S
C418 N413 1.318 . S
C418 C417 1.396 . S
H419 C414 0.929 . S
O420 Mn396 2.385 . S
O420 C398 1.234 . S
O421 Mn396 2.209 . S
O421 Mn397 2.215 . S
O421 C398 1.283 . S
O422 Mn396 2.094 1_545 S
O422 C400 1.240 . S
O423 Mn397 2.117 1_545 S
O423 C400 1.264 . S
C424 C417 1.403 . S
C424 C425 1.399 . S
C424 H430 0.929 . S
C425 C405 1.449 . S
C425 C424 1.399 . S
C425 H431 0.930 . S
H426 C406 0.931 . S
H427 C407 0.930 . S
H428 C415 0.931 . S
H429 C416 0.929 . S
H430 C424 0.929 . S
H431 C425 0.930 . S
Mn432 O437 2.095 . S
Mn432 O447 2.162 . S
Mn432 O448 2.297 . S
Mn432 O456 2.385 . S
Mn432 O457 2.209 . S
Mn432 O458 2.094 . S
Mn433 O438 2.121 . S
Mn433 N440 2.257 . S
Mn433 N449 2.282 . S
Mn433 O457 2.215 . S
Mn433 O459 2.117 . S
C434 O456 1.234 . S
C434 O457 1.283 . S
C435 O447 1.281 . S
C435 O448 1.236 . S
C436 O458 1.240 . S
C436 O459 1.264 . S
O437 Mn432 2.095 . S
O437 C446 1.250 . S
O438 Mn433 2.121 . S
O438 C446 1.258 . S
C439 N440 1.326 . S
C439 C443 1.460 . S
C439 H445 0.929 . S
N440 Mn433 2.257 . S
N440 C439 1.326 . S
N440 C444 1.362 . S
C441 C442 1.258 . S
C441 C444 1.431 . S
C441 C461 1.449 . S
C442 C441 1.258 . S
C442 C443 1.477 . S
C442 H462 0.931 . S
C443 C439 1.460 . S
C443 C442 1.477 . S
C443 H463 0.930 . S
C444 N440 1.362 . S
C444 C441 1.431 . S
C444 C454 1.476 . S
H445 C439 0.929 . S
C446 O437 1.250 . S
C446 O438 1.258 . S
O447 Mn432 2.162 . S
O447 C435 1.281 . S
O448 Mn432 2.297 . S
O448 C435 1.236 . S
N449 Mn433 2.282 . S
N449 C450 1.328 . S
N449 C454 1.318 . S
C450 N449 1.328 . S
C450 C451 1.457 . S
C450 H455 0.929 . S
C451 C450 1.457 . S
C451 C452 1.291 . S
C451 H464 0.931 . S
C452 C451 1.291 . S
C452 C453 1.373 . S
C452 H465 0.929 . S
C453 C452 1.373 . S
C453 C454 1.396 . S
C453 C460 1.403 . S
C454 C444 1.476 . S
C454 N449 1.318 . S
C454 C453 1.396 . S
H455 C450 0.929 . S
O456 Mn432 2.385 . S
O456 C434 1.234 . S
O457 Mn432 2.209 . S
O457 Mn433 2.215 . S
O457 C434 1.283 . S
O458 Mn432 2.094 . S
O458 C436 1.240 . S
O459 Mn433 2.117 . S
O459 C436 1.264 . S
C460 C453 1.403 . S
C460 C461 1.399 . S
C460 H466 0.929 . S
C461 C441 1.449 . S
C461 C460 1.399 . S
C461 H467 0.930 . S
H462 C442 0.931 . S
H463 C443 0.930 . S
H464 C451 0.931 . S
H465 C452 0.929 . S
H466 C460 0.929 . S
H467 C461 0.930 . S
Mn468 O473 2.095 . S
Mn468 O483 2.162 . S
Mn468 O484 2.297 . S
Mn468 O492 2.385 . S
Mn468 O493 2.209 . S
Mn468 O494 2.094 1_545 S
Mn469 O474 2.121 . S
Mn469 N476 2.257 . S
Mn469 N485 2.282 . S
Mn469 O493 2.215 . S
Mn469 O495 2.117 1_545 S
C470 O492 1.234 . S
C470 O493 1.283 . S
C471 O483 1.281 . S
C471 O484 1.236 . S
C472 O494 1.240 . S
C472 O495 1.264 . S
O473 Mn468 2.095 . S
O473 C482 1.250 . S
O474 Mn469 2.121 . S
O474 C482 1.258 . S
C475 N476 1.326 . S
C475 C479 1.460 . S
C475 H481 0.929 . S
N476 Mn469 2.257 . S
N476 C475 1.326 . S
N476 C480 1.362 . S
C477 C478 1.258 . S
C477 C480 1.431 . S
C477 C497 1.449 . S
C478 C477 1.258 . S
C478 C479 1.477 . S
C478 H498 0.931 . S
C479 C475 1.460 . S
C479 C478 1.477 . S
C479 H499 0.930 . S
C480 N476 1.362 . S
C480 C477 1.431 . S
C480 C490 1.476 . S
H481 C475 0.929 . S
C482 O473 1.250 . S
C482 O474 1.258 . S
O483 Mn468 2.162 . S
O483 C471 1.281 . S
O484 Mn468 2.297 . S
O484 C471 1.236 . S
N485 Mn469 2.282 . S
N485 C486 1.328 . S
N485 C490 1.318 . S
C486 N485 1.328 . S
C486 C487 1.457 . S
C486 H491 0.929 . S
C487 C486 1.457 . S
C487 C488 1.291 . S
C487 H500 0.931 . S
C488 C487 1.291 . S
C488 C489 1.373 . S
C488 H501 0.929 . S
C489 C488 1.373 . S
C489 C490 1.396 . S
C489 C496 1.403 . S
C490 C480 1.476 . S
C490 N485 1.318 . S
C490 C489 1.396 . S
H491 C486 0.929 . S
O492 Mn468 2.385 . S
O492 C470 1.234 . S
O493 Mn468 2.209 . S
O493 Mn469 2.215 . S
O493 C470 1.283 . S
O494 Mn468 2.094 1_565 S
O494 C472 1.240 . S
O495 Mn469 2.117 1_565 S
O495 C472 1.264 . S
C496 C489 1.403 . S
C496 C497 1.399 . S
C496 H502 0.929 . S
C497 C477 1.449 . S
C497 C496 1.399 . S
C497 H503 0.930 . S
H498 C478 0.931 . S
H499 C479 0.930 . S
H500 C487 0.931 . S
H501 C488 0.929 . S
H502 C496 0.929 . S
H503 C497 0.930 . S
Mn504 O509 2.095 . S
Mn504 O519 2.162 . S
Mn504 O520 2.297 . S
Mn504 O528 2.385 . S
Mn504 O529 2.209 . S
Mn504 O530 2.094 . S
Mn505 O510 2.121 . S
Mn505 N512 2.257 . S
Mn505 N521 2.282 . S
Mn505 O529 2.215 . S
Mn505 O531 2.117 . S
C506 O528 1.234 . S
C506 O529 1.283 . S
C507 O519 1.281 . S
C507 O520 1.236 . S
C508 O530 1.240 . S
C508 O531 1.264 . S
O509 Mn504 2.095 . S
O509 C518 1.250 . S
O510 Mn505 2.121 . S
O510 C518 1.258 . S
C511 N512 1.326 . S
C511 C515 1.460 . S
C511 H517 0.929 . S
N512 Mn505 2.257 . S
N512 C511 1.326 . S
N512 C516 1.362 . S
C513 C514 1.258 . S
C513 C516 1.431 . S
C513 C533 1.449 . S
C514 C513 1.258 . S
C514 C515 1.477 . S
C514 H534 0.931 . S
C515 C511 1.460 . S
C515 C514 1.477 . S
C515 H535 0.930 . S
C516 N512 1.362 . S
C516 C513 1.431 . S
C516 C526 1.476 . S
H517 C511 0.929 . S
C518 O509 1.250 . S
C518 O510 1.258 . S
O519 Mn504 2.162 . S
O519 C507 1.281 . S
O520 Mn504 2.297 . S
O520 C507 1.236 . S
N521 Mn505 2.282 . S
N521 C522 1.328 . S
N521 C526 1.318 . S
C522 N521 1.328 . S
C522 C523 1.457 . S
C522 H527 0.929 . S
C523 C522 1.457 . S
C523 C524 1.291 . S
C523 H536 0.931 . S
C524 C523 1.291 . S
C524 C525 1.373 . S
C524 H537 0.929 . S
C525 C524 1.373 . S
C525 C526 1.396 . S
C525 C532 1.403 . S
C526 C516 1.476 . S
C526 N521 1.318 . S
C526 C525 1.396 . S
H527 C522 0.929 . S
O528 Mn504 2.385 . S
O528 C506 1.234 . S
O529 Mn504 2.209 . S
O529 Mn505 2.215 . S
O529 C506 1.283 . S
O530 Mn504 2.094 . S
O530 C508 1.240 . S
O531 Mn505 2.117 . S
O531 C508 1.264 . S
C532 C525 1.403 . S
C532 C533 1.399 . S
C532 H538 0.929 . S
C533 C513 1.449 . S
C533 C532 1.399 . S
C533 H539 0.930 . S
H534 C514 0.931 . S
H535 C515 0.930 . S
H536 C523 0.931 . S
H537 C524 0.929 . S
H538 C532 0.929 . S
H539 C533 0.930 . S
Mn540 O545 2.095 . S
Mn540 O555 2.162 1_655 S
Mn540 O556 2.297 . S
Mn540 O564 2.385 . S
Mn540 O565 2.209 . S
Mn540 O566 2.094 1_565 S
Mn541 O546 2.121 . S
Mn541 N548 2.257 . S
Mn541 N557 2.282 . S
Mn541 O565 2.215 . S
Mn541 O567 2.117 1_565 S
C542 O564 1.234 . S
C542 O565 1.283 . S
C543 O555 1.281 . S
C543 O556 1.236 1_455 S
C544 O566 1.240 . S
C544 O567 1.264 . S
O545 Mn540 2.095 . S
O545 C554 1.250 . S
O546 Mn541 2.121 . S
O546 C554 1.258 . S
C547 N548 1.326 . S
C547 C551 1.460 . S
C547 H553 0.929 . S
N548 Mn541 2.257 . S
N548 C547 1.326 . S
N548 C552 1.362 . S
C549 C550 1.258 . S
C549 C552 1.431 . S
C549 C569 1.449 . S
C550 C549 1.258 . S
C550 C551 1.477 . S
C550 H570 0.931 . S
C551 C547 1.460 . S
C551 C550 1.477 . S
C551 H571 0.930 . S
C552 N548 1.362 . S
C552 C549 1.431 . S
C552 C562 1.476 . S
H553 C547 0.929 . S
C554 O545 1.250 . S
C554 O546 1.258 . S
O555 Mn540 2.162 1_455 S
O555 C543 1.281 . S
O556 Mn540 2.297 . S
O556 C543 1.236 1_655 S
N557 Mn541 2.282 . S
N557 C558 1.328 . S
N557 C562 1.318 . S
C558 N557 1.328 . S
C558 C559 1.457 . S
C558 H563 0.929 . S
C559 C558 1.457 . S
C559 C560 1.291 . S
C559 H572 0.931 . S
C560 C559 1.291 . S
C560 C561 1.373 . S
C560 H573 0.929 . S
C561 C560 1.373 . S
C561 C562 1.396 . S
C561 C568 1.403 . S
C562 C552 1.476 . S
C562 N557 1.318 . S
C562 C561 1.396 . S
H563 C558 0.929 . S
O564 Mn540 2.385 . S
O564 C542 1.234 . S
O565 Mn540 2.209 . S
O565 Mn541 2.215 . S
O565 C542 1.283 . S
O566 Mn540 2.094 1_545 S
O566 C544 1.240 . S
O567 Mn541 2.117 1_545 S
O567 C544 1.264 . S
C568 C561 1.403 . S
C568 C569 1.399 . S
C568 H574 0.929 . S
C569 C549 1.449 . S
C569 C568 1.399 . S
C569 H575 0.930 . S
H570 C550 0.931 . S
H571 C551 0.930 . S
H572 C559 0.931 . S
H573 C560 0.929 . S
H574 C568 0.929 . S
H575 C569 0.930 . S
Mn576 O581 2.095 . S
Mn576 O591 2.162 . S
Mn576 O592 2.297 . S
Mn576 O600 2.385 . S
Mn576 O601 2.209 . S
Mn576 O602 2.094 . S
Mn577 O582 2.121 . S
Mn577 N584 2.257 . S
Mn577 N593 2.282 . S
Mn577 O601 2.215 . S
Mn577 O603 2.117 . S
C578 O600 1.234 . S
C578 O601 1.283 . S
C579 O591 1.281 . S
C579 O592 1.236 . S
C580 O602 1.240 . S
C580 O603 1.264 . S
O581 Mn576 2.095 . S
O581 C590 1.250 . S
O582 Mn577 2.121 . S
O582 C590 1.258 . S
C583 N584 1.326 . S
C583 C587 1.460 . S
C583 H589 0.929 . S
N584 Mn577 2.257 . S
N584 C583 1.326 . S
N584 C588 1.362 . S
C585 C586 1.258 . S
C585 C588 1.431 . S
C585 C605 1.449 . S
C586 C585 1.258 . S
C586 C587 1.477 . S
C586 H606 0.931 . S
C587 C583 1.460 . S
C587 C586 1.477 . S
C587 H607 0.930 . S
C588 N584 1.362 . S
C588 C585 1.431 . S
C588 C598 1.476 . S
H589 C583 0.929 . S
C590 O581 1.250 . S
C590 O582 1.258 . S
O591 Mn576 2.162 . S
O591 C579 1.281 . S
O592 Mn576 2.297 . S
O592 C579 1.236 . S
N593 Mn577 2.282 . S
N593 C594 1.328 . S
N593 C598 1.318 . S
C594 N593 1.328 . S
C594 C595 1.457 . S
C594 H599 0.929 . S
C595 C594 1.457 . S
C595 C596 1.291 . S
C595 H608 0.931 . S
C596 C595 1.291 . S
C596 C597 1.373 . S
C596 H609 0.929 . S
C597 C596 1.373 . S
C597 C598 1.396 . S
C597 C604 1.403 . S
C598 C588 1.476 . S
C598 N593 1.318 . S
C598 C597 1.396 . S
H599 C594 0.929 . S
O600 Mn576 2.385 . S
O600 C578 1.234 . S
O601 Mn576 2.209 . S
O601 Mn577 2.215 . S
O601 C578 1.283 . S
O602 Mn576 2.094 . S
O602 C580 1.240 . S
O603 Mn577 2.117 . S
O603 C580 1.264 . S
C604 C597 1.403 . S
C604 C605 1.399 . S
C604 H610 0.929 . S
C605 C585 1.449 . S
C605 C604 1.399 . S
C605 H611 0.930 . S
H606 C586 0.931 . S
H607 C587 0.930 . S
H608 C595 0.931 . S
H609 C596 0.929 . S
H610 C604 0.929 . S
H611 C605 0.930 . S
Mn612 O617 2.095 . S
Mn612 O627 2.162 . S
Mn612 O628 2.297 . S
Mn612 O636 2.385 . S
Mn612 O637 2.209 . S
Mn612 O638 2.094 . S
Mn613 O618 2.121 . S
Mn613 N620 2.257 . S
Mn613 N629 2.282 . S
Mn613 O637 2.215 . S
Mn613 O639 2.117 . S
C614 O636 1.234 . S
C614 O637 1.283 . S
C615 O627 1.281 . S
C615 O628 1.236 . S
C616 O638 1.240 . S
C616 O639 1.264 . S
O617 Mn612 2.095 . S
O617 C626 1.250 . S
O618 Mn613 2.121 . S
O618 C626 1.258 . S
C619 N620 1.326 . S
C619 C623 1.460 . S
C619 H625 0.929 . S
N620 Mn613 2.257 . S
N620 C619 1.326 . S
N620 C624 1.362 . S
C621 C622 1.258 . S
C621 C624 1.431 . S
C621 C641 1.449 . S
C622 C621 1.258 . S
C622 C623 1.477 . S
C622 H642 0.931 . S
C623 C619 1.460 . S
C623 C622 1.477 . S
C623 H643 0.930 . S
C624 N620 1.362 . S
C624 C621 1.431 . S
C624 C634 1.476 . S
H625 C619 0.929 . S
C626 O617 1.250 . S
C626 O618 1.258 . S
O627 Mn612 2.162 . S
O627 C615 1.281 . S
O628 Mn612 2.297 . S
O628 C615 1.236 . S
N629 Mn613 2.282 . S
N629 C630 1.328 . S
N629 C634 1.318 . S
C630 N629 1.328 . S
C630 C631 1.457 . S
C630 H635 0.929 . S
C631 C630 1.457 . S
C631 C632 1.291 . S
C631 H644 0.931 . S
C632 C631 1.291 . S
C632 C633 1.373 . S
C632 H645 0.929 . S
C633 C632 1.373 . S
C633 C634 1.396 . S
C633 C640 1.403 . S
C634 C624 1.476 . S
C634 N629 1.318 . S
C634 C633 1.396 . S
H635 C630 0.929 . S
O636 Mn612 2.385 . S
O636 C614 1.234 . S
O637 Mn612 2.209 . S
O637 Mn613 2.215 . S
O637 C614 1.283 . S
O638 Mn612 2.094 . S
O638 C616 1.240 . S
O639 Mn613 2.117 . S
O639 C616 1.264 . S
C640 C633 1.403 . S
C640 C641 1.399 . S
C640 H646 0.929 . S
C641 C621 1.449 . S
C641 C640 1.399 . S
C641 H647 0.930 . S
H642 C622 0.931 . S
H643 C623 0.930 . S
H644 C631 0.931 . S
H645 C632 0.929 . S
H646 C640 0.929 . S
H647 C641 0.930 . S
Mn648 O653 2.095 . S
Mn648 O663 2.162 . S
Mn648 O664 2.297 . S
Mn648 O672 2.385 . S
Mn648 O673 2.209 . S
Mn648 O674 2.094 . S
Mn649 O654 2.121 . S
Mn649 N656 2.257 . S
Mn649 N665 2.282 . S
Mn649 O673 2.215 . S
Mn649 O675 2.117 . S
C650 O672 1.234 . S
C650 O673 1.283 . S
C651 O663 1.281 . S
C651 O664 1.236 . S
C652 O674 1.240 . S
C652 O675 1.264 . S
O653 Mn648 2.095 . S
O653 C662 1.250 . S
O654 Mn649 2.121 . S
O654 C662 1.258 . S
C655 N656 1.326 . S
C655 C659 1.460 . S
C655 H661 0.929 . S
N656 Mn649 2.257 . S
N656 C655 1.326 . S
N656 C660 1.362 . S
C657 C658 1.258 . S
C657 C660 1.431 . S
C657 C677 1.449 . S
C658 C657 1.258 . S
C658 C659 1.477 . S
C658 H678 0.931 . S
C659 C655 1.460 . S
C659 C658 1.477 . S
C659 H679 0.930 . S
C660 N656 1.362 . S
C660 C657 1.431 . S
C660 C670 1.476 . S
H661 C655 0.929 . S
C662 O653 1.250 . S
C662 O654 1.258 . S
O663 Mn648 2.162 . S
O663 C651 1.281 . S
O664 Mn648 2.297 . S
O664 C651 1.236 . S
N665 Mn649 2.282 . S
N665 C666 1.328 . S
N665 C670 1.318 . S
C666 N665 1.328 . S
C666 C667 1.457 . S
C666 H671 0.929 . S
C667 C666 1.457 . S
C667 C668 1.291 . S
C667 H680 0.931 . S
C668 C667 1.291 . S
C668 C669 1.373 . S
C668 H681 0.929 . S
C669 C668 1.373 . S
C669 C670 1.396 . S
C669 C676 1.403 . S
C670 C660 1.476 . S
C670 N665 1.318 . S
C670 C669 1.396 . S
H671 C666 0.929 . S
O672 Mn648 2.385 . S
O672 C650 1.234 . S
O673 Mn648 2.209 . S
O673 Mn649 2.215 . S
O673 C650 1.283 . S
O674 Mn648 2.094 . S
O674 C652 1.240 . S
O675 Mn649 2.117 . S
O675 C652 1.264 . S
C676 C669 1.403 . S
C676 C677 1.399 . S
C676 H682 0.929 . S
C677 C657 1.449 . S
C677 C676 1.399 . S
C677 H683 0.930 . S
H678 C658 0.931 . S
H679 C659 0.930 . S
H680 C667 0.931 . S
H681 C668 0.929 . S
H682 C676 0.929 . S
H683 C677 0.930 . S
Mn684 O689 2.095 . S
Mn684 O699 2.162 . S
Mn684 O700 2.297 . S
Mn684 O708 2.385 . S
Mn684 O709 2.209 . S
Mn684 O710 2.094 . S
Mn685 O690 2.121 . S
Mn685 N692 2.257 . S
Mn685 N701 2.282 . S
Mn685 O709 2.215 . S
Mn685 O711 2.117 1_655 S
C686 O708 1.234 . S
C686 O709 1.283 . S
C687 O699 1.281 . S
C687 O700 1.236 . S
C688 O710 1.240 1_455 S
C688 O711 1.264 . S
O689 Mn684 2.095 . S
O689 C698 1.250 . S
O690 Mn685 2.121 . S
O690 C698 1.258 . S
C691 N692 1.326 . S
C691 C695 1.460 . S
C691 H697 0.929 . S
N692 Mn685 2.257 . S
N692 C691 1.326 . S
N692 C696 1.362 . S
C693 C694 1.258 . S
C693 C696 1.431 . S
C693 C713 1.449 . S
C694 C693 1.258 . S
C694 C695 1.477 . S
C694 H714 0.931 . S
C695 C691 1.460 . S
C695 C694 1.477 . S
C695 H715 0.930 . S
C696 N692 1.362 . S
C696 C693 1.431 . S
C696 C706 1.476 . S
H697 C691 0.929 . S
C698 O689 1.250 . S
C698 O690 1.258 . S
O699 Mn684 2.162 . S
O699 C687 1.281 . S
O700 Mn684 2.297 . S
O700 C687 1.236 . S
N701 Mn685 2.282 . S
N701 C702 1.328 . S
N701 C706 1.318 . S
C702 N701 1.328 . S
C702 C703 1.457 . S
C702 H707 0.929 . S
C703 C702 1.457 . S
C703 C704 1.291 . S
C703 H716 0.931 . S
C704 C703 1.291 . S
C704 C705 1.373 . S
C704 H717 0.929 . S
C705 C704 1.373 . S
C705 C706 1.396 . S
C705 C712 1.403 . S
C706 C696 1.476 . S
C706 N701 1.318 . S
C706 C705 1.396 . S
H707 C702 0.929 . S
O708 Mn684 2.385 . S
O708 C686 1.234 . S
O709 Mn684 2.209 . S
O709 Mn685 2.215 . S
O709 C686 1.283 . S
O710 Mn684 2.094 . S
O710 C688 1.240 1_655 S
O711 Mn685 2.117 1_455 S
O711 C688 1.264 . S
C712 C705 1.403 . S
C712 C713 1.399 . S
C712 H718 0.929 . S
C713 C693 1.449 . S
C713 C712 1.399 . S
C713 H719 0.930 . S
H714 C694 0.931 . S
H715 C695 0.930 . S
H716 C703 0.931 . S
H717 C704 0.929 . S
H718 C712 0.929 . S
H719 C713 0.930 . S
Mn720 O725 2.095 . S
Mn720 O735 2.162 . S
Mn720 O736 2.297 . S
Mn720 O744 2.385 . S
Mn720 O745 2.209 . S
Mn720 O746 2.094 . S
Mn721 O726 2.121 . S
Mn721 N728 2.257 . S
Mn721 N737 2.282 . S
Mn721 O745 2.215 . S
Mn721 O747 2.117 . S
C722 O744 1.234 . S
C722 O745 1.283 . S
C723 O735 1.281 . S
C723 O736 1.236 . S
C724 O746 1.240 . S
C724 O747 1.264 . S
O725 Mn720 2.095 . S
O725 C734 1.250 . S
O726 Mn721 2.121 . S
O726 C734 1.258 . S
C727 N728 1.326 . S
C727 C731 1.460 . S
C727 H733 0.929 . S
N728 Mn721 2.257 . S
N728 C727 1.326 . S
N728 C732 1.362 . S
C729 C730 1.258 . S
C729 C732 1.431 . S
C729 C749 1.449 . S
C730 C729 1.258 . S
C730 C731 1.477 . S
C730 H750 0.931 . S
C731 C727 1.460 . S
C731 C730 1.477 . S
C731 H751 0.930 . S
C732 N728 1.362 . S
C732 C729 1.431 . S
C732 C742 1.476 . S
H733 C727 0.929 . S
C734 O725 1.250 . S
C734 O726 1.258 . S
O735 Mn720 2.162 . S
O735 C723 1.281 . S
O736 Mn720 2.297 . S
O736 C723 1.236 . S
N737 Mn721 2.282 . S
N737 C738 1.328 . S
N737 C742 1.318 . S
C738 N737 1.328 . S
C738 C739 1.457 . S
C738 H743 0.929 . S
C739 C738 1.457 . S
C739 C740 1.291 . S
C739 H752 0.931 . S
C740 C739 1.291 . S
C740 C741 1.373 . S
C740 H753 0.929 . S
C741 C740 1.373 . S
C741 C742 1.396 . S
C741 C748 1.403 . S
C742 C732 1.476 . S
C742 N737 1.318 . S
C742 C741 1.396 . S
H743 C738 0.929 . S
O744 Mn720 2.385 . S
O744 C722 1.234 . S
O745 Mn720 2.209 . S
O745 Mn721 2.215 . S
O745 C722 1.283 . S
O746 Mn720 2.094 . S
O746 C724 1.240 . S
O747 Mn721 2.117 . S
O747 C724 1.264 . S
C748 C741 1.403 . S
C748 C749 1.399 . S
C748 H754 0.929 . S
C749 C729 1.449 . S
C749 C748 1.399 . S
C749 H755 0.930 . S
H750 C730 0.931 . S
H751 C731 0.930 . S
H752 C739 0.931 . S
H753 C740 0.929 . S
H754 C748 0.929 . S
H755 C749 0.930 . S
Mn756 O761 2.095 . S
Mn756 O771 2.162 . S
Mn756 O772 2.297 . S
Mn756 O780 2.385 . S
Mn756 O781 2.209 . S
Mn756 O782 2.094 . S
Mn757 O762 2.121 . S
Mn757 N764 2.257 . S
Mn757 N773 2.282 . S
Mn757 O781 2.215 . S
Mn757 O783 2.117 1_655 S
C758 O780 1.234 . S
C758 O781 1.283 . S
C759 O771 1.281 . S
C759 O772 1.236 . S
C760 O782 1.240 1_455 S
C760 O783 1.264 . S
O761 Mn756 2.095 . S
O761 C770 1.250 . S
O762 Mn757 2.121 . S
O762 C770 1.258 . S
C763 N764 1.326 . S
C763 C767 1.460 . S
C763 H769 0.929 . S
N764 Mn757 2.257 . S
N764 C763 1.326 . S
N764 C768 1.362 . S
C765 C766 1.258 . S
C765 C768 1.431 . S
C765 C785 1.449 . S
C766 C765 1.258 . S
C766 C767 1.477 . S
C766 H786 0.931 . S
C767 C763 1.460 . S
C767 C766 1.477 . S
C767 H787 0.930 . S
C768 N764 1.362 . S
C768 C765 1.431 . S
C768 C778 1.476 . S
H769 C763 0.929 . S
C770 O761 1.250 . S
C770 O762 1.258 . S
O771 Mn756 2.162 . S
O771 C759 1.281 . S
O772 Mn756 2.297 . S
O772 C759 1.236 . S
N773 Mn757 2.282 . S
N773 C774 1.328 . S
N773 C778 1.318 . S
C774 N773 1.328 . S
C774 C775 1.457 . S
C774 H779 0.929 . S
C775 C774 1.457 . S
C775 C776 1.291 . S
C775 H788 0.931 . S
C776 C775 1.291 . S
C776 C777 1.373 . S
C776 H789 0.929 . S
C777 C776 1.373 . S
C777 C778 1.396 . S
C777 C784 1.403 . S
C778 C768 1.476 . S
C778 N773 1.318 . S
C778 C777 1.396 . S
H779 C774 0.929 . S
O780 Mn756 2.385 . S
O780 C758 1.234 . S
O781 Mn756 2.209 . S
O781 Mn757 2.215 . S
O781 C758 1.283 . S
O782 Mn756 2.094 . S
O782 C760 1.240 1_655 S
O783 Mn757 2.117 1_455 S
O783 C760 1.264 . S
C784 C777 1.403 . S
C784 C785 1.399 . S
C784 H790 0.929 . S
C785 C765 1.449 . S
C785 C784 1.399 . S
C785 H791 0.930 . S
H786 C766 0.931 . S
H787 C767 0.930 . S
H788 C775 0.931 . S
H789 C776 0.929 . S
H790 C784 0.929 . S
H791 C785 0.930 . S
Mn792 O797 2.095 . S
Mn792 O807 2.162 . S
Mn792 O808 2.297 . S
Mn792 O816 2.385 . S
Mn792 O817 2.209 . S
Mn792 O818 2.094 . S
Mn793 O798 2.121 . S
Mn793 N800 2.257 . S
Mn793 N809 2.282 . S
Mn793 O817 2.215 . S
Mn793 O819 2.117 . S
C794 O816 1.234 . S
C794 O817 1.283 . S
C795 O807 1.281 . S
C795 O808 1.236 . S
C796 O818 1.240 . S
C796 O819 1.264 . S
O797 Mn792 2.095 . S
O797 C806 1.250 . S
O798 Mn793 2.121 . S
O798 C806 1.258 . S
C799 N800 1.326 . S
C799 C803 1.460 . S
C799 H805 0.929 . S
N800 Mn793 2.257 . S
N800 C799 1.326 . S
N800 C804 1.362 . S
C801 C802 1.258 . S
C801 C804 1.431 . S
C801 C821 1.449 . S
C802 C801 1.258 . S
C802 C803 1.477 . S
C802 H822 0.931 . S
C803 C799 1.460 . S
C803 C802 1.477 . S
C803 H823 0.930 . S
C804 N800 1.362 . S
C804 C801 1.431 . S
C804 C814 1.476 . S
H805 C799 0.929 . S
C806 O797 1.250 . S
C806 O798 1.258 . S
O807 Mn792 2.162 . S
O807 C795 1.281 . S
O808 Mn792 2.297 . S
O808 C795 1.236 . S
N809 Mn793 2.282 . S
N809 C810 1.328 . S
N809 C814 1.318 . S
C810 N809 1.328 . S
C810 C811 1.457 . S
C810 H815 0.929 . S
C811 C810 1.457 . S
C811 C812 1.291 . S
C811 H824 0.931 . S
C812 C811 1.291 . S
C812 C813 1.373 . S
C812 H825 0.929 . S
C813 C812 1.373 . S
C813 C814 1.396 . S
C813 C820 1.403 . S
C814 C804 1.476 . S
C814 N809 1.318 . S
C814 C813 1.396 . S
H815 C810 0.929 . S
O816 Mn792 2.385 . S
O816 C794 1.234 . S
O817 Mn792 2.209 . S
O817 Mn793 2.215 . S
O817 C794 1.283 . S
O818 Mn792 2.094 . S
O818 C796 1.240 . S
O819 Mn793 2.117 . S
O819 C796 1.264 . S
C820 C813 1.403 . S
C820 C821 1.399 . S
C820 H826 0.929 . S
C821 C801 1.449 . S
C821 C820 1.399 . S
C821 H827 0.930 . S
H822 C802 0.931 . S
H823 C803 0.930 . S
H824 C811 0.931 . S
H825 C812 0.929 . S
H826 C820 0.929 . S
H827 C821 0.930 . S
Mn828 O833 2.095 . S
Mn828 O843 2.162 . S
Mn828 O844 2.297 . S
Mn828 O852 2.385 . S
Mn828 O853 2.209 . S
Mn828 O854 2.094 . S
Mn829 O834 2.121 . S
Mn829 N836 2.257 . S
Mn829 N845 2.282 . S
Mn829 O853 2.215 . S
Mn829 O855 2.117 . S
C830 O852 1.234 . S
C830 O853 1.283 . S
C831 O843 1.281 . S
C831 O844 1.236 . S
C832 O854 1.240 . S
C832 O855 1.264 . S
O833 Mn828 2.095 . S
O833 C842 1.250 . S
O834 Mn829 2.121 . S
O834 C842 1.258 . S
C835 N836 1.326 . S
C835 C839 1.460 . S
C835 H841 0.929 . S
N836 Mn829 2.257 . S
N836 C835 1.326 . S
N836 C840 1.362 . S
C837 C838 1.258 . S
C837 C840 1.431 . S
C837 C857 1.449 . S
C838 C837 1.258 . S
C838 C839 1.477 . S
C838 H858 0.931 . S
C839 C835 1.460 . S
C839 C838 1.477 . S
C839 H859 0.930 . S
C840 N836 1.362 . S
C840 C837 1.431 . S
C840 C850 1.476 . S
H841 C835 0.929 . S
C842 O833 1.250 . S
C842 O834 1.258 . S
O843 Mn828 2.162 . S
O843 C831 1.281 . S
O844 Mn828 2.297 . S
O844 C831 1.236 . S
N845 Mn829 2.282 . S
N845 C846 1.328 . S
N845 C850 1.318 . S
C846 N845 1.328 . S
C846 C847 1.457 . S
C846 H851 0.929 . S
C847 C846 1.457 . S
C847 C848 1.291 . S
C847 H860 0.931 . S
C848 C847 1.291 . S
C848 C849 1.373 . S
C848 H861 0.929 . S
C849 C848 1.373 . S
C849 C850 1.396 . S
C849 C856 1.403 . S
C850 C840 1.476 . S
C850 N845 1.318 . S
C850 C849 1.396 . S
H851 C846 0.929 . S
O852 Mn828 2.385 . S
O852 C830 1.234 . S
O853 Mn828 2.209 . S
O853 Mn829 2.215 . S
O853 C830 1.283 . S
O854 Mn828 2.094 . S
O854 C832 1.240 . S
O855 Mn829 2.117 . S
O855 C832 1.264 . S
C856 C849 1.403 . S
C856 C857 1.399 . S
C856 H862 0.929 . S
C857 C837 1.449 . S
C857 C856 1.399 . S
C857 H863 0.930 . S
H858 C838 0.931 . S
H859 C839 0.930 . S
H860 C847 0.931 . S
H861 C848 0.929 . S
H862 C856 0.929 . S
H863 C857 0.930 . S
Mn864 O869 2.095 . S
Mn864 O879 2.162 . S
Mn864 O880 2.297 . S
Mn864 O888 2.385 . S
Mn864 O889 2.209 . S
Mn864 O890 2.094 . S
Mn865 O870 2.121 . S
Mn865 N872 2.257 . S
Mn865 N881 2.282 . S
Mn865 O889 2.215 . S
Mn865 O891 2.117 . S
C866 O888 1.234 . S
C866 O889 1.283 . S
C867 O879 1.281 . S
C867 O880 1.236 . S
C868 O890 1.240 . S
C868 O891 1.264 . S
O869 Mn864 2.095 . S
O869 C878 1.250 . S
O870 Mn865 2.121 . S
O870 C878 1.258 . S
C871 N872 1.326 . S
C871 C875 1.460 . S
C871 H877 0.929 . S
N872 Mn865 2.257 . S
N872 C871 1.326 . S
N872 C876 1.362 . S
C873 C874 1.258 . S
C873 C876 1.431 . S
C873 C893 1.449 . S
C874 C873 1.258 . S
C874 C875 1.477 . S
C874 H894 0.931 . S
C875 C871 1.460 . S
C875 C874 1.477 . S
C875 H895 0.930 . S
C876 N872 1.362 . S
C876 C873 1.431 . S
C876 C886 1.476 . S
H877 C871 0.929 . S
C878 O869 1.250 . S
C878 O870 1.258 . S
O879 Mn864 2.162 . S
O879 C867 1.281 . S
O880 Mn864 2.297 . S
O880 C867 1.236 . S
N881 Mn865 2.282 . S
N881 C882 1.328 . S
N881 C886 1.318 . S
C882 N881 1.328 . S
C882 C883 1.457 . S
C882 H887 0.929 . S
C883 C882 1.457 . S
C883 C884 1.291 . S
C883 H896 0.931 . S
C884 C883 1.291 . S
C884 C885 1.373 . S
C884 H897 0.929 . S
C885 C884 1.373 . S
C885 C886 1.396 . S
C885 C892 1.403 . S
C886 C876 1.476 . S
C886 N881 1.318 . S
C886 C885 1.396 . S
H887 C882 0.929 . S
O888 Mn864 2.385 . S
O888 C866 1.234 . S
O889 Mn864 2.209 . S
O889 Mn865 2.215 . S
O889 C866 1.283 . S
O890 Mn864 2.094 . S
O890 C868 1.240 . S
O891 Mn865 2.117 . S
O891 C868 1.264 . S
C892 C885 1.403 . S
C892 C893 1.399 . S
C892 H898 0.929 . S
C893 C873 1.449 . S
C893 C892 1.399 . S
C893 H899 0.930 . S
H894 C874 0.931 . S
H895 C875 0.930 . S
H896 C883 0.931 . S
H897 C884 0.929 . S
H898 C892 0.929 . S
H899 C893 0.930 . S
Mn900 O905 2.095 . S
Mn900 O915 2.162 . S
Mn900 O916 2.297 . S
Mn900 O924 2.385 . S
Mn900 O925 2.209 . S
Mn900 O926 2.094 . S
Mn901 O906 2.121 . S
Mn901 N908 2.257 . S
Mn901 N917 2.282 . S
Mn901 O925 2.215 . S
Mn901 O927 2.117 . S
C902 O924 1.234 . S
C902 O925 1.283 . S
C903 O915 1.281 . S
C903 O916 1.236 . S
C904 O926 1.240 . S
C904 O927 1.264 . S
O905 Mn900 2.095 . S
O905 C914 1.250 . S
O906 Mn901 2.121 . S
O906 C914 1.258 . S
C907 N908 1.326 . S
C907 C911 1.460 . S
C907 H913 0.929 . S
N908 Mn901 2.257 . S
N908 C907 1.326 . S
N908 C912 1.362 . S
C909 C910 1.258 . S
C909 C912 1.431 . S
C909 C929 1.449 . S
C910 C909 1.258 . S
C910 C911 1.477 . S
C910 H930 0.931 . S
C911 C907 1.460 . S
C911 C910 1.477 . S
C911 H931 0.930 . S
C912 N908 1.362 . S
C912 C909 1.431 . S
C912 C922 1.476 . S
H913 C907 0.929 . S
C914 O905 1.250 . S
C914 O906 1.258 . S
O915 Mn900 2.162 . S
O915 C903 1.281 . S
O916 Mn900 2.297 . S
O916 C903 1.236 . S
N917 Mn901 2.282 . S
N917 C918 1.328 . S
N917 C922 1.318 . S
C918 N917 1.328 . S
C918 C919 1.457 . S
C918 H923 0.929 . S
C919 C918 1.457 . S
C919 C920 1.291 . S
C919 H932 0.931 . S
C920 C919 1.291 . S
C920 C921 1.373 . S
C920 H933 0.929 . S
C921 C920 1.373 . S
C921 C922 1.396 . S
C921 C928 1.403 . S
C922 C912 1.476 . S
C922 N917 1.318 . S
C922 C921 1.396 . S
H923 C918 0.929 . S
O924 Mn900 2.385 . S
O924 C902 1.234 . S
O925 Mn900 2.209 . S
O925 Mn901 2.215 . S
O925 C902 1.283 . S
O926 Mn900 2.094 . S
O926 C904 1.240 . S
O927 Mn901 2.117 . S
O927 C904 1.264 . S
C928 C921 1.403 . S
C928 C929 1.399 . S
C928 H934 0.929 . S
C929 C909 1.449 . S
C929 C928 1.399 . S
C929 H935 0.930 . S
H930 C910 0.931 . S
H931 C911 0.930 . S
H932 C919 0.931 . S
H933 C920 0.929 . S
H934 C928 0.929 . S
H935 C929 0.930 . S
Mn936 O941 2.095 . S
Mn936 O951 2.162 . S
Mn936 O952 2.297 . S
Mn936 O960 2.385 . S
Mn936 O961 2.209 . S
Mn936 O962 2.094 . S
Mn937 O942 2.121 . S
Mn937 N944 2.257 . S
Mn937 N953 2.282 . S
Mn937 O961 2.215 . S
Mn937 O963 2.117 . S
C938 O960 1.234 . S
C938 O961 1.283 . S
C939 O951 1.281 . S
C939 O952 1.236 . S
C940 O962 1.240 . S
C940 O963 1.264 . S
O941 Mn936 2.095 . S
O941 C950 1.250 . S
O942 Mn937 2.121 . S
O942 C950 1.258 . S
C943 N944 1.326 . S
C943 C947 1.460 . S
C943 H949 0.929 . S
N944 Mn937 2.257 . S
N944 C943 1.326 . S
N944 C948 1.362 . S
C945 C946 1.258 . S
C945 C948 1.431 . S
C945 C965 1.449 . S
C946 C945 1.258 . S
C946 C947 1.477 . S
C946 H966 0.931 . S
C947 C943 1.460 . S
C947 C946 1.477 . S
C947 H967 0.930 . S
C948 N944 1.362 . S
C948 C945 1.431 . S
C948 C958 1.476 . S
H949 C943 0.929 . S
C950 O941 1.250 . S
C950 O942 1.258 . S
O951 Mn936 2.162 . S
O951 C939 1.281 . S
O952 Mn936 2.297 . S
O952 C939 1.236 . S
N953 Mn937 2.282 . S
N953 C954 1.328 . S
N953 C958 1.318 . S
C954 N953 1.328 . S
C954 C955 1.457 . S
C954 H959 0.929 . S
C955 C954 1.457 . S
C955 C956 1.291 . S
C955 H968 0.931 . S
C956 C955 1.291 . S
C956 C957 1.373 . S
C956 H969 0.929 . S
C957 C956 1.373 . S
C957 C958 1.396 . S
C957 C964 1.403 . S
C958 C948 1.476 . S
C958 N953 1.318 . S
C958 C957 1.396 . S
H959 C954 0.929 . S
O960 Mn936 2.385 . S
O960 C938 1.234 . S
O961 Mn936 2.209 . S
O961 Mn937 2.215 . S
O961 C938 1.283 . S
O962 Mn936 2.094 . S
O962 C940 1.240 . S
O963 Mn937 2.117 . S
O963 C940 1.264 . S
C964 C957 1.403 . S
C964 C965 1.399 . S
C964 H970 0.929 . S
C965 C945 1.449 . S
C965 C964 1.399 . S
C965 H971 0.930 . S
H966 C946 0.931 . S
H967 C947 0.930 . S
H968 C955 0.931 . S
H969 C956 0.929 . S
H970 C964 0.929 . S
H971 C965 0.930 . S
Mn972 O977 2.095 . S
Mn972 O987 2.162 1_455 S
Mn972 O988 2.297 . S
Mn972 O996 2.385 . S
Mn972 O997 2.209 . S
Mn972 O998 2.094 . S
Mn973 O978 2.121 . S
Mn973 N980 2.257 . S
Mn973 N989 2.282 . S
Mn973 O997 2.215 . S
Mn973 O999 2.117 . S
C974 O996 1.234 . S
C974 O997 1.283 . S
C975 O987 1.281 . S
C975 O988 1.236 1_655 S
C976 O998 1.240 . S
C976 O999 1.264 . S
O977 Mn972 2.095 . S
O977 C986 1.250 . S
O978 Mn973 2.121 . S
O978 C986 1.258 . S
C979 N980 1.326 . S
C979 C983 1.460 . S
C979 H985 0.929 . S
N980 Mn973 2.257 . S
N980 C979 1.326 . S
N980 C984 1.362 . S
C981 C982 1.258 . S
C981 C984 1.431 . S
C981 C1001 1.449 . S
C982 C981 1.258 . S
C982 C983 1.477 . S
C982 H1002 0.931 . S
C983 C979 1.460 . S
C983 C982 1.477 . S
C983 H1003 0.930 . S
C984 N980 1.362 . S
C984 C981 1.431 . S
C984 C994 1.476 . S
H985 C979 0.929 . S
C986 O977 1.250 . S
C986 O978 1.258 . S
O987 Mn972 2.162 1_655 S
O987 C975 1.281 . S
O988 Mn972 2.297 . S
O988 C975 1.236 1_455 S
N989 Mn973 2.282 . S
N989 C990 1.328 . S
N989 C994 1.318 . S
C990 N989 1.328 . S
C990 C991 1.457 . S
C990 H995 0.929 . S
C991 C990 1.457 . S
C991 C992 1.291 . S
C991 H1004 0.931 . S
C992 C991 1.291 . S
C992 C993 1.373 . S
C992 H1005 0.929 . S
C993 C992 1.373 . S
C993 C994 1.396 . S
C993 C1000 1.403 . S
C994 C984 1.476 . S
C994 N989 1.318 . S
C994 C993 1.396 . S
H995 C990 0.929 . S
O996 Mn972 2.385 . S
O996 C974 1.234 . S
O997 Mn972 2.209 . S
O997 Mn973 2.215 . S
O997 C974 1.283 . S
O998 Mn972 2.094 . S
O998 C976 1.240 . S
O999 Mn973 2.117 . S
O999 C976 1.264 . S
C1000 C993 1.403 . S
C1000 C1001 1.399 . S
C1000 H1006 0.929 . S
C1001 C981 1.449 . S
C1001 C1000 1.399 . S
C1001 H1007 0.930 . S
H1002 C982 0.931 . S
H1003 C983 0.930 . S
H1004 C991 0.931 . S
H1005 C992 0.929 . S
H1006 C1000 0.929 . S
H1007 C1001 0.930 . S
Mn1008 O1013 2.095 . S
Mn1008 O1023 2.162 . S
Mn1008 O1024 2.297 . S
Mn1008 O1032 2.385 . S
Mn1008 O1033 2.209 . S
Mn1008 O1034 2.094 . S
Mn1009 O1014 2.121 . S
Mn1009 N1016 2.257 . S
Mn1009 N1025 2.282 . S
Mn1009 O1033 2.215 . S
Mn1009 O1035 2.117 . S
C1010 O1032 1.234 . S
C1010 O1033 1.283 . S
C1011 O1023 1.281 . S
C1011 O1024 1.236 . S
C1012 O1034 1.240 . S
C1012 O1035 1.264 . S
O1013 Mn1008 2.095 . S
O1013 C1022 1.250 . S
O1014 Mn1009 2.121 . S
O1014 C1022 1.258 . S
C1015 N1016 1.326 . S
C1015 C1019 1.460 . S
C1015 H1021 0.929 . S
N1016 Mn1009 2.257 . S
N1016 C1015 1.326 . S
N1016 C1020 1.362 . S
C1017 C1018 1.258 . S
C1017 C1020 1.431 . S
C1017 C1037 1.449 . S
C1018 C1017 1.258 . S
C1018 C1019 1.477 . S
C1018 H1038 0.931 . S
C1019 C1015 1.460 . S
C1019 C1018 1.477 . S
C1019 H1039 0.930 . S
C1020 N1016 1.362 . S
C1020 C1017 1.431 . S
C1020 C1030 1.476 . S
H1021 C1015 0.929 . S
C1022 O1013 1.250 . S
C1022 O1014 1.258 . S
O1023 Mn1008 2.162 . S
O1023 C1011 1.281 . S
O1024 Mn1008 2.297 . S
O1024 C1011 1.236 . S
N1025 Mn1009 2.282 . S
N1025 C1026 1.328 . S
N1025 C1030 1.318 . S
C1026 N1025 1.328 . S
C1026 C1027 1.457 . S
C1026 H1031 0.929 . S
C1027 C1026 1.457 . S
C1027 C1028 1.291 . S
C1027 H1040 0.931 . S
C1028 C1027 1.291 . S
C1028 C1029 1.373 . S
C1028 H1041 0.929 . S
C1029 C1028 1.373 . S
C1029 C1030 1.396 . S
C1029 C1036 1.403 . S
C1030 C1020 1.476 . S
C1030 N1025 1.318 . S
C1030 C1029 1.396 . S
H1031 C1026 0.929 . S
O1032 Mn1008 2.385 . S
O1032 C1010 1.234 . S
O1033 Mn1008 2.209 . S
O1033 Mn1009 2.215 . S
O1033 C1010 1.283 . S
O1034 Mn1008 2.094 . S
O1034 C1012 1.240 . S
O1035 Mn1009 2.117 . S
O1035 C1012 1.264 . S
C1036 C1029 1.403 . S
C1036 C1037 1.399 . S
C1036 H1042 0.929 . S
C1037 C1017 1.449 . S
C1037 C1036 1.399 . S
C1037 H1043 0.930 . S
H1038 C1018 0.931 . S
H1039 C1019 0.930 . S
H1040 C1027 0.931 . S
H1041 C1028 0.929 . S
H1042 C1036 0.929 . S
H1043 C1037 0.930 . S
Mn1044 O1049 2.095 . S
Mn1044 O1059 2.162 1_455 S
Mn1044 O1060 2.297 . S
Mn1044 O1068 2.385 . S
Mn1044 O1069 2.209 . S
Mn1044 O1070 2.094 . S
Mn1045 O1050 2.121 . S
Mn1045 N1052 2.257 . S
Mn1045 N1061 2.282 . S
Mn1045 O1069 2.215 . S
Mn1045 O1071 2.117 . S
C1046 O1068 1.234 . S
C1046 O1069 1.283 . S
C1047 O1059 1.281 . S
C1047 O1060 1.236 1_655 S
C1048 O1070 1.240 . S
C1048 O1071 1.264 . S
O1049 Mn1044 2.095 . S
O1049 C1058 1.250 . S
O1050 Mn1045 2.121 . S
O1050 C1058 1.258 . S
C1051 N1052 1.326 . S
C1051 C1055 1.460 . S
C1051 H1057 0.929 . S
N1052 Mn1045 2.257 . S
N1052 C1051 1.326 . S
N1052 C1056 1.362 . S
C1053 C1054 1.258 . S
C1053 C1056 1.431 . S
C1053 C1073 1.449 . S
C1054 C1053 1.258 . S
C1054 C1055 1.477 . S
C1054 H1074 0.931 . S
C1055 C1051 1.460 . S
C1055 C1054 1.477 . S
C1055 H1075 0.930 . S
C1056 N1052 1.362 . S
C1056 C1053 1.431 . S
C1056 C1066 1.476 . S
H1057 C1051 0.929 . S
C1058 O1049 1.250 . S
C1058 O1050 1.258 . S
O1059 Mn1044 2.162 1_655 S
O1059 C1047 1.281 . S
O1060 Mn1044 2.297 . S
O1060 C1047 1.236 1_455 S
N1061 Mn1045 2.282 . S
N1061 C1062 1.328 . S
N1061 C1066 1.318 . S
C1062 N1061 1.328 . S
C1062 C1063 1.457 . S
C1062 H1067 0.929 . S
C1063 C1062 1.457 . S
C1063 C1064 1.291 . S
C1063 H1076 0.931 . S
C1064 C1063 1.291 . S
C1064 C1065 1.373 . S
C1064 H1077 0.929 . S
C1065 C1064 1.373 . S
C1065 C1066 1.396 . S
C1065 C1072 1.403 . S
C1066 C1056 1.476 . S
C1066 N1061 1.318 . S
C1066 C1065 1.396 . S
H1067 C1062 0.929 . S
O1068 Mn1044 2.385 . S
O1068 C1046 1.234 . S
O1069 Mn1044 2.209 . S
O1069 Mn1045 2.215 . S
O1069 C1046 1.283 . S
O1070 Mn1044 2.094 . S
O1070 C1048 1.240 . S
O1071 Mn1045 2.117 . S
O1071 C1048 1.264 . S
C1072 C1065 1.403 . S
C1072 C1073 1.399 . S
C1072 H1078 0.929 . S
C1073 C1053 1.449 . S
C1073 C1072 1.399 . S
C1073 H1079 0.930 . S
H1074 C1054 0.931 . S
H1075 C1055 0.930 . S
H1076 C1063 0.931 . S
H1077 C1064 0.929 . S
H1078 C1072 0.929 . S
H1079 C1073 0.930 . S
Mn1080 O1085 2.095 . S
Mn1080 O1095 2.162 . S
Mn1080 O1096 2.297 . S
Mn1080 O1104 2.385 . S
Mn1080 O1105 2.209 . S
Mn1080 O1106 2.094 . S
Mn1081 O1086 2.121 . S
Mn1081 N1088 2.257 . S
Mn1081 N1097 2.282 . S
Mn1081 O1105 2.215 . S
Mn1081 O1107 2.117 . S
C1082 O1104 1.234 . S
C1082 O1105 1.283 . S
C1083 O1095 1.281 . S
C1083 O1096 1.236 . S
C1084 O1106 1.240 . S
C1084 O1107 1.264 . S
O1085 Mn1080 2.095 . S
O1085 C1094 1.250 . S
O1086 Mn1081 2.121 . S
O1086 C1094 1.258 . S
C1087 N1088 1.326 . S
C1087 C1091 1.460 . S
C1087 H1093 0.929 . S
N1088 Mn1081 2.257 . S
N1088 C1087 1.326 . S
N1088 C1092 1.362 . S
C1089 C1090 1.258 . S
C1089 C1092 1.431 . S
C1089 C1109 1.449 . S
C1090 C1089 1.258 . S
C1090 C1091 1.477 . S
C1090 H1110 0.931 . S
C1091 C1087 1.460 . S
C1091 C1090 1.477 . S
C1091 H1111 0.930 . S
C1092 N1088 1.362 . S
C1092 C1089 1.431 . S
C1092 C1102 1.476 . S
H1093 C1087 0.929 . S
C1094 O1085 1.250 . S
C1094 O1086 1.258 . S
O1095 Mn1080 2.162 . S
O1095 C1083 1.281 . S
O1096 Mn1080 2.297 . S
O1096 C1083 1.236 . S
N1097 Mn1081 2.282 . S
N1097 C1098 1.328 . S
N1097 C1102 1.318 . S
C1098 N1097 1.328 . S
C1098 C1099 1.457 . S
C1098 H1103 0.929 . S
C1099 C1098 1.457 . S
C1099 C1100 1.291 . S
C1099 H1112 0.931 . S
C1100 C1099 1.291 . S
C1100 C1101 1.373 . S
C1100 H1113 0.929 . S
C1101 C1100 1.373 . S
C1101 C1102 1.396 . S
C1101 C1108 1.403 . S
C1102 C1092 1.476 . S
C1102 N1097 1.318 . S
C1102 C1101 1.396 . S
H1103 C1098 0.929 . S
O1104 Mn1080 2.385 . S
O1104 C1082 1.234 . S
O1105 Mn1080 2.209 . S
O1105 Mn1081 2.215 . S
O1105 C1082 1.283 . S
O1106 Mn1080 2.094 . S
O1106 C1084 1.240 . S
O1107 Mn1081 2.117 . S
O1107 C1084 1.264 . S
C1108 C1101 1.403 . S
C1108 C1109 1.399 . S
C1108 H1114 0.929 . S
C1109 C1089 1.449 . S
C1109 C1108 1.399 . S
C1109 H1115 0.930 . S
H1110 C1090 0.931 . S
H1111 C1091 0.930 . S
H1112 C1099 0.931 . S
H1113 C1100 0.929 . S
H1114 C1108 0.929 . S
H1115 C1109 0.930 . S
Mn1116 O1121 2.095 . S
Mn1116 O1131 2.162 . S
Mn1116 O1132 2.297 . S
Mn1116 O1140 2.385 . S
Mn1116 O1141 2.209 . S
Mn1116 O1142 2.094 . S
Mn1117 O1122 2.121 . S
Mn1117 N1124 2.257 . S
Mn1117 N1133 2.282 . S
Mn1117 O1141 2.215 . S
Mn1117 O1143 2.117 . S
C1118 O1140 1.234 . S
C1118 O1141 1.283 . S
C1119 O1131 1.281 . S
C1119 O1132 1.236 . S
C1120 O1142 1.240 . S
C1120 O1143 1.264 . S
O1121 Mn1116 2.095 . S
O1121 C1130 1.250 . S
O1122 Mn1117 2.121 . S
O1122 C1130 1.258 . S
C1123 N1124 1.326 . S
C1123 C1127 1.460 . S
C1123 H1129 0.929 . S
N1124 Mn1117 2.257 . S
N1124 C1123 1.326 . S
N1124 C1128 1.362 . S
C1125 C1126 1.258 . S
C1125 C1128 1.431 . S
C1125 C1145 1.449 . S
C1126 C1125 1.258 . S
C1126 C1127 1.477 . S
C1126 H1146 0.931 . S
C1127 C1123 1.460 . S
C1127 C1126 1.477 . S
C1127 H1147 0.930 . S
C1128 N1124 1.362 . S
C1128 C1125 1.431 . S
C1128 C1138 1.476 . S
H1129 C1123 0.929 . S
C1130 O1121 1.250 . S
C1130 O1122 1.258 . S
O1131 Mn1116 2.162 . S
O1131 C1119 1.281 . S
O1132 Mn1116 2.297 . S
O1132 C1119 1.236 . S
N1133 Mn1117 2.282 . S
N1133 C1134 1.328 . S
N1133 C1138 1.318 . S
C1134 N1133 1.328 . S
C1134 C1135 1.457 . S
C1134 H1139 0.929 . S
C1135 C1134 1.457 . S
C1135 C1136 1.291 . S
C1135 H1148 0.931 . S
C1136 C1135 1.291 . S
C1136 C1137 1.373 . S
C1136 H1149 0.929 . S
C1137 C1136 1.373 . S
C1137 C1138 1.396 . S
C1137 C1144 1.403 . S
C1138 C1128 1.476 . S
C1138 N1133 1.318 . S
C1138 C1137 1.396 . S
H1139 C1134 0.929 . S
O1140 Mn1116 2.385 . S
O1140 C1118 1.234 . S
O1141 Mn1116 2.209 . S
O1141 Mn1117 2.215 . S
O1141 C1118 1.283 . S
O1142 Mn1116 2.094 . S
O1142 C1120 1.240 . S
O1143 Mn1117 2.117 . S
O1143 C1120 1.264 . S
C1144 C1137 1.403 . S
C1144 C1145 1.399 . S
C1144 H1150 0.929 . S
C1145 C1125 1.449 . S
C1145 C1144 1.399 . S
C1145 H1151 0.930 . S
H1146 C1126 0.931 . S
H1147 C1127 0.930 . S
H1148 C1135 0.931 . S
H1149 C1136 0.929 . S
H1150 C1144 0.929 . S
H1151 C1145 0.930 . S
H1152 C1164 0.930 . S
H1153 C1166 0.930 . S
H1154 C1167 0.930 . S
H1155 C1171 0.959 . S
H1156 C1171 0.959 . S
H1157 C1171 0.961 . S
H1158 C1172 0.960 . S
H1159 C1172 0.961 . S
H1160 C1172 0.959 . S
H1161 C1175 0.929 . S
H1162 C1176 0.931 . S
H1163 C1178 0.930 . S
C1164 H1152 0.930 . S
C1164 C1165 1.399 . S
C1164 C1169 1.399 . S
C1165 C1164 1.399 . S
C1165 C1166 1.376 . S
C1166 H1153 0.930 . S
C1166 C1165 1.376 . S
C1166 C1167 1.388 . S
C1167 H1154 0.930 . S
C1167 C1166 1.388 . S
C1167 C1168 1.390 . S
C1168 C1167 1.390 . S
C1168 C1169 1.394 . S
C1168 C1174 1.465 . S
C1169 C1164 1.399 . S
C1169 C1168 1.394 . S
C1169 C1170 1.516 . S
C1170 C1169 1.516 . S
C1170 C1171 1.502 . S
C1170 C1172 1.561 . S
C1170 C1173 1.526 . S
C1171 H1155 0.959 . S
C1171 H1156 0.959 . S
C1171 H1157 0.961 . S
C1171 C1170 1.502 . S
C1172 H1158 0.960 . S
C1172 H1159 0.961 . S
C1172 H1160 0.959 . S
C1172 C1170 1.561 . S
C1173 C1170 1.526 . S
C1173 C1174 1.396 . S
C1173 C1178 1.390 . S
C1174 C1168 1.465 . S
C1174 C1173 1.396 . S
C1174 C1175 1.399 . S
C1175 H1161 0.929 . S
C1175 C1174 1.399 . S
C1175 C1176 1.385 . S
C1176 H1162 0.931 . S
C1176 C1175 1.385 . S
C1176 C1177 1.389 . S
C1177 C1176 1.389 . S
C1177 C1178 1.387 . S
C1178 H1163 0.930 . S
C1178 C1173 1.390 . S
C1178 C1177 1.387 . S
H1179 C1191 0.930 . S
H1180 C1193 0.930 . S
H1181 C1194 0.930 . S
H1182 C1198 0.959 . S
H1183 C1198 0.959 . S
H1184 C1198 0.961 . S
H1185 C1199 0.960 . S
H1186 C1199 0.961 . S
H1187 C1199 0.959 . S
H1188 C1202 0.929 . S
H1189 C1203 0.931 . S
H1190 C1205 0.930 . S
C1191 H1179 0.930 . S
C1191 C1192 1.399 . S
C1191 C1196 1.399 . S
C1192 C1191 1.399 . S
C1192 C1193 1.376 . S
C1193 H1180 0.930 . S
C1193 C1192 1.376 . S
C1193 C1194 1.388 . S
C1194 H1181 0.930 . S
C1194 C1193 1.388 . S
C1194 C1195 1.390 . S
C1195 C1194 1.390 . S
C1195 C1196 1.394 . S
C1195 C1201 1.465 . S
C1196 C1191 1.399 . S
C1196 C1195 1.394 . S
C1196 C1197 1.516 . S
C1197 C1196 1.516 . S
C1197 C1198 1.502 . S
C1197 C1199 1.561 . S
C1197 C1200 1.526 . S
C1198 H1182 0.959 . S
C1198 H1183 0.959 . S
C1198 H1184 0.961 . S
C1198 C1197 1.502 . S
C1199 H1185 0.960 . S
C1199 H1186 0.961 . S
C1199 H1187 0.959 . S
C1199 C1197 1.561 . S
C1200 C1197 1.526 . S
C1200 C1201 1.396 . S
C1200 C1205 1.390 . S
C1201 C1195 1.465 . S
C1201 C1200 1.396 . S
C1201 C1202 1.399 . S
C1202 H1188 0.929 . S
C1202 C1201 1.399 . S
C1202 C1203 1.385 . S
C1203 H1189 0.931 . S
C1203 C1202 1.385 . S
C1203 C1204 1.389 . S
C1204 C1203 1.389 . S
C1204 C1205 1.387 . S
C1205 H1190 0.930 . S
C1205 C1200 1.390 . S
C1205 C1204 1.387 . S
H1206 C1218 0.930 . S
H1207 C1220 0.930 . S
H1208 C1221 0.930 . S
H1209 C1225 0.959 . S
H1210 C1225 0.959 . S
H1211 C1225 0.961 . S
H1212 C1226 0.960 . S
H1213 C1226 0.961 . S
H1214 C1226 0.959 . S
H1215 C1229 0.929 . S
H1216 C1230 0.931 . S
H1217 C1232 0.930 . S
C1218 H1206 0.930 . S
C1218 C1219 1.399 . S
C1218 C1223 1.399 . S
C1219 C1218 1.399 . S
C1219 C1220 1.376 . S
C1220 H1207 0.930 . S
C1220 C1219 1.376 . S
C1220 C1221 1.388 . S
C1221 H1208 0.930 . S
C1221 C1220 1.388 . S
C1221 C1222 1.390 . S
C1222 C1221 1.390 . S
C1222 C1223 1.394 . S
C1222 C1228 1.465 . S
C1223 C1218 1.399 . S
C1223 C1222 1.394 . S
C1223 C1224 1.516 . S
C1224 C1223 1.516 . S
C1224 C1225 1.502 . S
C1224 C1226 1.561 . S
C1224 C1227 1.526 . S
C1225 H1209 0.959 . S
C1225 H1210 0.959 . S
C1225 H1211 0.961 . S
C1225 C1224 1.502 . S
C1226 H1212 0.960 . S
C1226 H1213 0.961 . S
C1226 H1214 0.959 . S
C1226 C1224 1.561 . S
C1227 C1224 1.526 . S
C1227 C1228 1.396 . S
C1227 C1232 1.390 . S
C1228 C1222 1.465 . S
C1228 C1227 1.396 . S
C1228 C1229 1.399 . S
C1229 H1215 0.929 . S
C1229 C1228 1.399 . S
C1229 C1230 1.385 . S
C1230 H1216 0.931 . S
C1230 C1229 1.385 . S
C1230 C1231 1.389 . S
C1231 C1230 1.389 . S
C1231 C1232 1.387 . S
C1232 H1217 0.930 . S
C1232 C1227 1.390 . S
C1232 C1231 1.387 . S
H1233 C1245 0.930 . S
H1234 C1247 0.930 . S
H1235 C1248 0.930 . S
H1236 C1252 0.959 . S
H1237 C1252 0.959 . S
H1238 C1252 0.961 . S
H1239 C1253 0.960 . S
H1240 C1253 0.961 . S
H1241 C1253 0.959 . S
H1242 C1256 0.929 . S
H1243 C1257 0.931 . S
H1244 C1259 0.930 . S
C1245 H1233 0.930 . S
C1245 C1246 1.399 . S
C1245 C1250 1.399 . S
C1246 C1245 1.399 . S
C1246 C1247 1.376 . S
C1247 H1234 0.930 . S
C1247 C1246 1.376 . S
C1247 C1248 1.388 . S
C1248 H1235 0.930 . S
C1248 C1247 1.388 . S
C1248 C1249 1.390 . S
C1249 C1248 1.390 . S
C1249 C1250 1.394 . S
C1249 C1255 1.465 . S
C1250 C1245 1.399 . S
C1250 C1249 1.394 . S
C1250 C1251 1.516 . S
C1251 C1250 1.516 . S
C1251 C1252 1.502 . S
C1251 C1253 1.561 . S
C1251 C1254 1.526 . S
C1252 H1236 0.959 . S
C1252 H1237 0.959 . S
C1252 H1238 0.961 . S
C1252 C1251 1.502 . S
C1253 H1239 0.960 . S
C1253 H1240 0.961 . S
C1253 H1241 0.959 . S
C1253 C1251 1.561 . S
C1254 C1251 1.526 . S
C1254 C1255 1.396 . S
C1254 C1259 1.390 . S
C1255 C1249 1.465 . S
C1255 C1254 1.396 . S
C1255 C1256 1.399 . S
C1256 H1242 0.929 . S
C1256 C1255 1.399 . S
C1256 C1257 1.385 . S
C1257 H1243 0.931 . S
C1257 C1256 1.385 . S
C1257 C1258 1.389 . S
C1258 C1257 1.389 . S
C1258 C1259 1.387 . S
C1259 H1244 0.930 . S
C1259 C1254 1.390 . S
C1259 C1258 1.387 . S
H1260 C1272 0.930 . S
H1261 C1274 0.930 . S
H1262 C1275 0.930 . S
H1263 C1279 0.959 . S
H1264 C1279 0.959 . S
H1265 C1279 0.961 . S
H1266 C1280 0.960 . S
H1267 C1280 0.961 . S
H1268 C1280 0.959 . S
H1269 C1283 0.929 . S
H1270 C1284 0.931 . S
H1271 C1286 0.930 . S
C1272 H1260 0.930 . S
C1272 C1273 1.399 . S
C1272 C1277 1.399 . S
C1273 C1272 1.399 . S
C1273 C1274 1.376 . S
C1274 H1261 0.930 . S
C1274 C1273 1.376 . S
C1274 C1275 1.388 . S
C1275 H1262 0.930 . S
C1275 C1274 1.388 . S
C1275 C1276 1.390 . S
C1276 C1275 1.390 . S
C1276 C1277 1.394 . S
C1276 C1282 1.465 . S
C1277 C1272 1.399 . S
C1277 C1276 1.394 . S
C1277 C1278 1.516 . S
C1278 C1277 1.516 . S
C1278 C1279 1.502 . S
C1278 C1280 1.561 . S
C1278 C1281 1.526 . S
C1279 H1263 0.959 . S
C1279 H1264 0.959 . S
C1279 H1265 0.961 . S
C1279 C1278 1.502 . S
C1280 H1266 0.960 . S
C1280 H1267 0.961 . S
C1280 H1268 0.959 . S
C1280 C1278 1.561 . S
C1281 C1278 1.526 . S
C1281 C1282 1.396 . S
C1281 C1286 1.390 . S
C1282 C1276 1.465 . S
C1282 C1281 1.396 . S
C1282 C1283 1.399 . S
C1283 H1269 0.929 . S
C1283 C1282 1.399 . S
C1283 C1284 1.385 . S
C1284 H1270 0.931 . S
C1284 C1283 1.385 . S
C1284 C1285 1.389 . S
C1285 C1284 1.389 . S
C1285 C1286 1.387 . S
C1286 H1271 0.930 . S
C1286 C1281 1.390 . S
C1286 C1285 1.387 . S
H1287 C1299 0.930 . S
H1288 C1301 0.930 . S
H1289 C1302 0.930 . S
H1290 C1306 0.959 . S
H1291 C1306 0.959 . S
H1292 C1306 0.961 . S
H1293 C1307 0.960 . S
H1294 C1307 0.961 . S
H1295 C1307 0.959 . S
H1296 C1310 0.929 . S
H1297 C1311 0.931 . S
H1298 C1313 0.930 . S
C1299 H1287 0.930 . S
C1299 C1300 1.399 . S
C1299 C1304 1.399 . S
C1300 C1299 1.399 . S
C1300 C1301 1.376 . S
C1301 H1288 0.930 . S
C1301 C1300 1.376 . S
C1301 C1302 1.388 . S
C1302 H1289 0.930 . S
C1302 C1301 1.388 . S
C1302 C1303 1.390 . S
C1303 C1302 1.390 . S
C1303 C1304 1.394 . S
C1303 C1309 1.465 . S
C1304 C1299 1.399 . S
C1304 C1303 1.394 . S
C1304 C1305 1.516 . S
C1305 C1304 1.516 . S
C1305 C1306 1.502 . S
C1305 C1307 1.561 . S
C1305 C1308 1.526 . S
C1306 H1290 0.959 . S
C1306 H1291 0.959 . S
C1306 H1292 0.961 . S
C1306 C1305 1.502 . S
C1307 H1293 0.960 . S
C1307 H1294 0.961 . S
C1307 H1295 0.959 . S
C1307 C1305 1.561 . S
C1308 C1305 1.526 . S
C1308 C1309 1.396 . S
C1308 C1313 1.390 . S
C1309 C1303 1.465 . S
C1309 C1308 1.396 . S
C1309 C1310 1.399 . S
C1310 H1296 0.929 . S
C1310 C1309 1.399 . S
C1310 C1311 1.385 . S
C1311 H1297 0.931 . S
C1311 C1310 1.385 . S
C1311 C1312 1.389 . S
C1312 C1311 1.389 . S
C1312 C1313 1.387 . S
C1313 H1298 0.930 . S
C1313 C1308 1.390 . S
C1313 C1312 1.387 . S
H1314 C1326 0.930 . S
H1315 C1328 0.930 . S
H1316 C1329 0.930 . S
H1317 C1333 0.959 . S
H1318 C1333 0.959 . S
H1319 C1333 0.961 . S
H1320 C1334 0.960 . S
H1321 C1334 0.961 . S
H1322 C1334 0.959 . S
H1323 C1337 0.929 . S
H1324 C1338 0.931 . S
H1325 C1340 0.930 . S
C1326 H1314 0.930 . S
C1326 C1327 1.399 . S
C1326 C1331 1.399 . S
C1327 C1326 1.399 . S
C1327 C1328 1.376 . S
C1328 H1315 0.930 . S
C1328 C1327 1.376 . S
C1328 C1329 1.388 . S
C1329 H1316 0.930 . S
C1329 C1328 1.388 . S
C1329 C1330 1.390 . S
C1330 C1329 1.390 . S
C1330 C1331 1.394 . S
C1330 C1336 1.465 . S
C1331 C1326 1.399 . S
C1331 C1330 1.394 . S
C1331 C1332 1.516 . S
C1332 C1331 1.516 . S
C1332 C1333 1.502 . S
C1332 C1334 1.561 . S
C1332 C1335 1.526 . S
C1333 H1317 0.959 . S
C1333 H1318 0.959 . S
C1333 H1319 0.961 . S
C1333 C1332 1.502 . S
C1334 H1320 0.960 . S
C1334 H1321 0.961 . S
C1334 H1322 0.959 . S
C1334 C1332 1.561 . S
C1335 C1332 1.526 . S
C1335 C1336 1.396 . S
C1335 C1340 1.390 . S
C1336 C1330 1.465 . S
C1336 C1335 1.396 . S
C1336 C1337 1.399 . S
C1337 H1323 0.929 . S
C1337 C1336 1.399 . S
C1337 C1338 1.385 . S
C1338 H1324 0.931 . S
C1338 C1337 1.385 . S
C1338 C1339 1.389 . S
C1339 C1338 1.389 . S
C1339 C1340 1.387 . S
C1340 H1325 0.930 . S
C1340 C1335 1.390 . S
C1340 C1339 1.387 . S
H1341 C1353 0.930 . S
H1342 C1355 0.930 . S
H1343 C1356 0.930 . S
H1344 C1360 0.959 . S
H1345 C1360 0.959 . S
H1346 C1360 0.961 . S
H1347 C1361 0.960 . S
H1348 C1361 0.961 . S
H1349 C1361 0.959 . S
H1350 C1364 0.929 . S
H1351 C1365 0.931 . S
H1352 C1367 0.930 . S
C1353 H1341 0.930 . S
C1353 C1354 1.399 . S
C1353 C1358 1.399 . S
C1354 C1353 1.399 . S
C1354 C1355 1.376 . S
C1355 H1342 0.930 . S
C1355 C1354 1.376 . S
C1355 C1356 1.388 . S
C1356 H1343 0.930 . S
C1356 C1355 1.388 . S
C1356 C1357 1.390 . S
C1357 C1356 1.390 . S
C1357 C1358 1.394 . S
C1357 C1363 1.465 . S
C1358 C1353 1.399 . S
C1358 C1357 1.394 . S
C1358 C1359 1.516 . S
C1359 C1358 1.516 . S
C1359 C1360 1.502 . S
C1359 C1361 1.561 . S
C1359 C1362 1.526 . S
C1360 H1344 0.959 . S
C1360 H1345 0.959 . S
C1360 H1346 0.961 . S
C1360 C1359 1.502 . S
C1361 H1347 0.960 . S
C1361 H1348 0.961 . S
C1361 H1349 0.959 . S
C1361 C1359 1.561 . S
C1362 C1359 1.526 . S
C1362 C1363 1.396 . S
C1362 C1367 1.390 . S
C1363 C1357 1.465 . S
C1363 C1362 1.396 . S
C1363 C1364 1.399 . S
C1364 H1350 0.929 . S
C1364 C1363 1.399 . S
C1364 C1365 1.385 . S
C1365 H1351 0.931 . S
C1365 C1364 1.385 . S
C1365 C1366 1.389 . S
C1366 C1365 1.389 . S
C1366 C1367 1.387 . S
C1367 H1352 0.930 . S
C1367 C1362 1.390 . S
C1367 C1366 1.387 . S
H1368 C1380 0.930 . S
H1369 C1382 0.930 . S
H1370 C1383 0.930 . S
H1371 C1387 0.959 . S
H1372 C1387 0.959 . S
H1373 C1387 0.961 . S
H1374 C1388 0.960 . S
H1375 C1388 0.961 . S
H1376 C1388 0.959 . S
H1377 C1391 0.929 . S
H1378 C1392 0.931 . S
H1379 C1394 0.930 . S
C1380 H1368 0.930 . S
C1380 C1381 1.399 . S
C1380 C1385 1.399 . S
C1381 C1380 1.399 . S
C1381 C1382 1.376 . S
C1382 H1369 0.930 . S
C1382 C1381 1.376 . S
C1382 C1383 1.388 . S
C1383 H1370 0.930 . S
C1383 C1382 1.388 . S
C1383 C1384 1.390 . S
C1384 C1383 1.390 . S
C1384 C1385 1.394 . S
C1384 C1390 1.465 . S
C1385 C1380 1.399 . S
C1385 C1384 1.394 . S
C1385 C1386 1.516 . S
C1386 C1385 1.516 . S
C1386 C1387 1.502 . S
C1386 C1388 1.561 . S
C1386 C1389 1.526 . S
C1387 H1371 0.959 . S
C1387 H1372 0.959 . S
C1387 H1373 0.961 . S
C1387 C1386 1.502 . S
C1388 H1374 0.960 . S
C1388 H1375 0.961 . S
C1388 H1376 0.959 . S
C1388 C1386 1.561 . S
C1389 C1386 1.526 . S
C1389 C1390 1.396 . S
C1389 C1394 1.390 . S
C1390 C1384 1.465 . S
C1390 C1389 1.396 . S
C1390 C1391 1.399 . S
C1391 H1377 0.929 . S
C1391 C1390 1.399 . S
C1391 C1392 1.385 . S
C1392 H1378 0.931 . S
C1392 C1391 1.385 . S
C1392 C1393 1.389 . S
C1393 C1392 1.389 . S
C1393 C1394 1.387 . S
C1394 H1379 0.930 . S
C1394 C1389 1.390 . S
C1394 C1393 1.387 . S
H1395 C1407 0.930 . S
H1396 C1409 0.930 . S
H1397 C1410 0.930 . S
H1398 C1414 0.959 . S
H1399 C1414 0.959 . S
H1400 C1414 0.961 . S
H1401 C1415 0.960 . S
H1402 C1415 0.961 . S
H1403 C1415 0.959 . S
H1404 C1418 0.929 . S
H1405 C1419 0.931 . S
H1406 C1421 0.930 . S
C1407 H1395 0.930 . S
C1407 C1408 1.399 . S
C1407 C1412 1.399 . S
C1408 C1407 1.399 . S
C1408 C1409 1.376 . S
C1409 H1396 0.930 . S
C1409 C1408 1.376 . S
C1409 C1410 1.388 . S
C1410 H1397 0.930 . S
C1410 C1409 1.388 . S
C1410 C1411 1.390 . S
C1411 C1410 1.390 . S
C1411 C1412 1.394 . S
C1411 C1417 1.465 . S
C1412 C1407 1.399 . S
C1412 C1411 1.394 . S
C1412 C1413 1.516 . S
C1413 C1412 1.516 . S
C1413 C1414 1.502 . S
C1413 C1415 1.561 . S
C1413 C1416 1.526 . S
C1414 H1398 0.959 . S
C1414 H1399 0.959 . S
C1414 H1400 0.961 . S
C1414 C1413 1.502 . S
C1415 H1401 0.960 . S
C1415 H1402 0.961 . S
C1415 H1403 0.959 . S
C1415 C1413 1.561 . S
C1416 C1413 1.526 . S
C1416 C1417 1.396 . S
C1416 C1421 1.390 . S
C1417 C1411 1.465 . S
C1417 C1416 1.396 . S
C1417 C1418 1.399 . S
C1418 H1404 0.929 . S
C1418 C1417 1.399 . S
C1418 C1419 1.385 . S
C1419 H1405 0.931 . S
C1419 C1418 1.385 . S
C1419 C1420 1.389 . S
C1420 C1419 1.389 . S
C1420 C1421 1.387 . S
C1421 H1406 0.930 . S
C1421 C1416 1.390 . S
C1421 C1420 1.387 . S
H1422 C1434 0.930 . S
H1423 C1436 0.930 . S
H1424 C1437 0.930 . S
H1425 C1441 0.959 . S
H1426 C1441 0.959 . S
H1427 C1441 0.961 . S
H1428 C1442 0.960 . S
H1429 C1442 0.961 . S
H1430 C1442 0.959 . S
H1431 C1445 0.929 . S
H1432 C1446 0.931 . S
H1433 C1448 0.930 . S
C1434 H1422 0.930 . S
C1434 C1435 1.399 . S
C1434 C1439 1.399 . S
C1435 C1434 1.399 . S
C1435 C1436 1.376 . S
C1436 H1423 0.930 . S
C1436 C1435 1.376 . S
C1436 C1437 1.388 . S
C1437 H1424 0.930 . S
C1437 C1436 1.388 . S
C1437 C1438 1.390 . S
C1438 C1437 1.390 . S
C1438 C1439 1.394 . S
C1438 C1444 1.465 . S
C1439 C1434 1.399 . S
C1439 C1438 1.394 . S
C1439 C1440 1.516 . S
C1440 C1439 1.516 . S
C1440 C1441 1.502 . S
C1440 C1442 1.561 . S
C1440 C1443 1.526 . S
C1441 H1425 0.959 . S
C1441 H1426 0.959 . S
C1441 H1427 0.961 . S
C1441 C1440 1.502 . S
C1442 H1428 0.960 . S
C1442 H1429 0.961 . S
C1442 H1430 0.959 . S
C1442 C1440 1.561 . S
C1443 C1440 1.526 . S
C1443 C1444 1.396 . S
C1443 C1448 1.390 . S
C1444 C1438 1.465 . S
C1444 C1443 1.396 . S
C1444 C1445 1.399 . S
C1445 H1431 0.929 . S
C1445 C1444 1.399 . S
C1445 C1446 1.385 . S
C1446 H1432 0.931 . S
C1446 C1445 1.385 . S
C1446 C1447 1.389 . S
C1447 C1446 1.389 . S
C1447 C1448 1.387 . S
C1448 H1433 0.930 . S
C1448 C1443 1.390 . S
C1448 C1447 1.387 . S
H1449 C1461 0.930 . S
H1450 C1463 0.930 . S
H1451 C1464 0.930 . S
H1452 C1468 0.959 . S
H1453 C1468 0.959 . S
H1454 C1468 0.961 . S
H1455 C1469 0.960 . S
H1456 C1469 0.961 . S
H1457 C1469 0.959 . S
H1458 C1472 0.929 . S
H1459 C1473 0.931 . S
H1460 C1475 0.930 . S
C1461 H1449 0.930 . S
C1461 C1462 1.399 . S
C1461 C1466 1.399 . S
C1462 C1461 1.399 . S
C1462 C1463 1.376 . S
C1463 H1450 0.930 . S
C1463 C1462 1.376 . S
C1463 C1464 1.388 . S
C1464 H1451 0.930 . S
C1464 C1463 1.388 . S
C1464 C1465 1.390 . S
C1465 C1464 1.390 . S
C1465 C1466 1.394 . S
C1465 C1471 1.465 . S
C1466 C1461 1.399 . S
C1466 C1465 1.394 . S
C1466 C1467 1.516 . S
C1467 C1466 1.516 . S
C1467 C1468 1.502 . S
C1467 C1469 1.561 . S
C1467 C1470 1.526 . S
C1468 H1452 0.959 . S
C1468 H1453 0.959 . S
C1468 H1454 0.961 . S
C1468 C1467 1.502 . S
C1469 H1455 0.960 . S
C1469 H1456 0.961 . S
C1469 H1457 0.959 . S
C1469 C1467 1.561 . S
C1470 C1467 1.526 . S
C1470 C1471 1.396 . S
C1470 C1475 1.390 . S
C1471 C1465 1.465 . S
C1471 C1470 1.396 . S
C1471 C1472 1.399 . S
C1472 H1458 0.929 . S
C1472 C1471 1.399 . S
C1472 C1473 1.385 . S
C1473 H1459 0.931 . S
C1473 C1472 1.385 . S
C1473 C1474 1.389 . S
C1474 C1473 1.389 . S
C1474 C1475 1.387 . S
C1475 H1460 0.930 . S
C1475 C1470 1.390 . S
C1475 C1474 1.387 . S
H1476 C1488 0.930 . S
H1477 C1490 0.930 . S
H1478 C1491 0.930 . S
H1479 C1495 0.959 . S
H1480 C1495 0.959 . S
H1481 C1495 0.961 . S
H1482 C1496 0.960 . S
H1483 C1496 0.961 . S
H1484 C1496 0.959 . S
H1485 C1499 0.929 . S
H1486 C1500 0.931 . S
H1487 C1502 0.930 . S
C1488 H1476 0.930 . S
C1488 C1489 1.399 . S
C1488 C1493 1.399 . S
C1489 C1488 1.399 . S
C1489 C1490 1.376 . S
C1490 H1477 0.930 . S
C1490 C1489 1.376 . S
C1490 C1491 1.388 . S
C1491 H1478 0.930 . S
C1491 C1490 1.388 . S
C1491 C1492 1.390 . S
C1492 C1491 1.390 . S
C1492 C1493 1.394 . S
C1492 C1498 1.465 . S
C1493 C1488 1.399 . S
C1493 C1492 1.394 . S
C1493 C1494 1.516 . S
C1494 C1493 1.516 . S
C1494 C1495 1.502 . S
C1494 C1496 1.561 . S
C1494 C1497 1.526 . S
C1495 H1479 0.959 . S
C1495 H1480 0.959 . S
C1495 H1481 0.961 . S
C1495 C1494 1.502 . S
C1496 H1482 0.960 . S
C1496 H1483 0.961 . S
C1496 H1484 0.959 . S
C1496 C1494 1.561 . S
C1497 C1494 1.526 . S
C1497 C1498 1.396 . S
C1497 C1502 1.390 . S
C1498 C1492 1.465 . S
C1498 C1497 1.396 . S
C1498 C1499 1.399 . S
C1499 H1485 0.929 . S
C1499 C1498 1.399 . S
C1499 C1500 1.385 . S
C1500 H1486 0.931 . S
C1500 C1499 1.385 . S
C1500 C1501 1.389 . S
C1501 C1500 1.389 . S
C1501 C1502 1.387 . S
C1502 H1487 0.930 . S
C1502 C1497 1.390 . S
C1502 C1501 1.387 . S
H1503 C1515 0.930 . S
H1504 C1517 0.930 . S
H1505 C1518 0.930 . S
H1506 C1522 0.959 . S
H1507 C1522 0.959 . S
H1508 C1522 0.961 . S
H1509 C1523 0.960 . S
H1510 C1523 0.961 . S
H1511 C1523 0.959 . S
H1512 C1526 0.929 . S
H1513 C1527 0.931 . S
H1514 C1529 0.930 . S
C1515 H1503 0.930 . S
C1515 C1516 1.399 . S
C1515 C1520 1.399 . S
C1516 C1515 1.399 . S
C1516 C1517 1.376 . S
C1517 H1504 0.930 . S
C1517 C1516 1.376 . S
C1517 C1518 1.388 . S
C1518 H1505 0.930 . S
C1518 C1517 1.388 . S
C1518 C1519 1.390 . S
C1519 C1518 1.390 . S
C1519 C1520 1.394 . S
C1519 C1525 1.465 . S
C1520 C1515 1.399 . S
C1520 C1519 1.394 . S
C1520 C1521 1.516 . S
C1521 C1520 1.516 . S
C1521 C1522 1.502 . S
C1521 C1523 1.561 . S
C1521 C1524 1.526 . S
C1522 H1506 0.959 . S
C1522 H1507 0.959 . S
C1522 H1508 0.961 . S
C1522 C1521 1.502 . S
C1523 H1509 0.960 . S
C1523 H1510 0.961 . S
C1523 H1511 0.959 . S
C1523 C1521 1.561 . S
C1524 C1521 1.526 . S
C1524 C1525 1.396 . S
C1524 C1529 1.390 . S
C1525 C1519 1.465 . S
C1525 C1524 1.396 . S
C1525 C1526 1.399 . S
C1526 H1512 0.929 . S
C1526 C1525 1.399 . S
C1526 C1527 1.385 . S
C1527 H1513 0.931 . S
C1527 C1526 1.385 . S
C1527 C1528 1.389 . S
C1528 C1527 1.389 . S
C1528 C1529 1.387 . S
C1529 H1514 0.930 . S
C1529 C1524 1.390 . S
C1529 C1528 1.387 . S
H1530 C1542 0.930 . S
H1531 C1544 0.930 . S
H1532 C1545 0.930 . S
H1533 C1549 0.959 . S
H1534 C1549 0.959 . S
H1535 C1549 0.961 . S
H1536 C1550 0.960 . S
H1537 C1550 0.961 . S
H1538 C1550 0.959 . S
H1539 C1553 0.929 . S
H1540 C1554 0.931 . S
H1541 C1556 0.930 . S
C1542 H1530 0.930 . S
C1542 C1543 1.399 . S
C1542 C1547 1.399 . S
C1543 C1542 1.399 . S
C1543 C1544 1.376 . S
C1544 H1531 0.930 . S
C1544 C1543 1.376 . S
C1544 C1545 1.388 . S
C1545 H1532 0.930 . S
C1545 C1544 1.388 . S
C1545 C1546 1.390 . S
C1546 C1545 1.390 . S
C1546 C1547 1.394 . S
C1546 C1552 1.465 . S
C1547 C1542 1.399 . S
C1547 C1546 1.394 . S
C1547 C1548 1.516 . S
C1548 C1547 1.516 . S
C1548 C1549 1.502 . S
C1548 C1550 1.561 . S
C1548 C1551 1.526 . S
C1549 H1533 0.959 . S
C1549 H1534 0.959 . S
C1549 H1535 0.961 . S
C1549 C1548 1.502 . S
C1550 H1536 0.960 . S
C1550 H1537 0.961 . S
C1550 H1538 0.959 . S
C1550 C1548 1.561 . S
C1551 C1548 1.526 . S
C1551 C1552 1.396 . S
C1551 C1556 1.390 . S
C1552 C1546 1.465 . S
C1552 C1551 1.396 . S
C1552 C1553 1.399 . S
C1553 H1539 0.929 . S
C1553 C1552 1.399 . S
C1553 C1554 1.385 . S
C1554 H1540 0.931 . S
C1554 C1553 1.385 . S
C1554 C1555 1.389 . S
C1555 C1554 1.389 . S
C1555 C1556 1.387 . S
C1556 H1541 0.930 . S
C1556 C1551 1.390 . S
C1556 C1555 1.387 . S
H1557 C1569 0.930 . S
H1558 C1571 0.930 . S
H1559 C1572 0.930 . S
H1560 C1576 0.959 . S
H1561 C1576 0.959 . S
H1562 C1576 0.961 . S
H1563 C1577 0.960 . S
H1564 C1577 0.961 . S
H1565 C1577 0.959 . S
H1566 C1580 0.929 . S
H1567 C1581 0.931 . S
H1568 C1583 0.930 . S
C1569 H1557 0.930 . S
C1569 C1570 1.399 . S
C1569 C1574 1.399 . S
C1570 C1569 1.399 . S
C1570 C1571 1.376 . S
C1571 H1558 0.930 . S
C1571 C1570 1.376 . S
C1571 C1572 1.388 . S
C1572 H1559 0.930 . S
C1572 C1571 1.388 . S
C1572 C1573 1.390 . S
C1573 C1572 1.390 . S
C1573 C1574 1.394 . S
C1573 C1579 1.465 . S
C1574 C1569 1.399 . S
C1574 C1573 1.394 . S
C1574 C1575 1.516 . S
C1575 C1574 1.516 . S
C1575 C1576 1.502 . S
C1575 C1577 1.561 . S
C1575 C1578 1.526 . S
C1576 H1560 0.959 . S
C1576 H1561 0.959 . S
C1576 H1562 0.961 . S
C1576 C1575 1.502 . S
C1577 H1563 0.960 . S
C1577 H1564 0.961 . S
C1577 H1565 0.959 . S
C1577 C1575 1.561 . S
C1578 C1575 1.526 . S
C1578 C1579 1.396 . S
C1578 C1583 1.390 . S
C1579 C1573 1.465 . S
C1579 C1578 1.396 . S
C1579 C1580 1.399 . S
C1580 H1566 0.929 . S
C1580 C1579 1.399 . S
C1580 C1581 1.385 . S
C1581 H1567 0.931 . S
C1581 C1580 1.385 . S
C1581 C1582 1.389 . S
C1582 C1581 1.389 . S
C1582 C1583 1.387 . S
C1583 H1568 0.930 . S
C1583 C1578 1.390 . S
C1583 C1582 1.387 . S
H1584 C1596 0.930 . S
H1585 C1598 0.930 . S
H1586 C1599 0.930 . S
H1587 C1603 0.959 . S
H1588 C1603 0.959 . S
H1589 C1603 0.961 . S
H1590 C1604 0.960 . S
H1591 C1604 0.961 . S
H1592 C1604 0.959 . S
H1593 C1607 0.929 . S
H1594 C1608 0.931 . S
H1595 C1610 0.930 . S
C1596 H1584 0.930 . S
C1596 C1597 1.399 . S
C1596 C1601 1.399 . S
C1597 C1596 1.399 . S
C1597 C1598 1.376 . S
C1598 H1585 0.930 . S
C1598 C1597 1.376 . S
C1598 C1599 1.388 . S
C1599 H1586 0.930 . S
C1599 C1598 1.388 . S
C1599 C1600 1.390 . S
C1600 C1599 1.390 . S
C1600 C1601 1.394 . S
C1600 C1606 1.465 . S
C1601 C1596 1.399 . S
C1601 C1600 1.394 . S
C1601 C1602 1.516 . S
C1602 C1601 1.516 . S
C1602 C1603 1.502 . S
C1602 C1604 1.561 . S
C1602 C1605 1.526 . S
C1603 H1587 0.959 . S
C1603 H1588 0.959 . S
C1603 H1589 0.961 . S
C1603 C1602 1.502 . S
C1604 H1590 0.960 . S
C1604 H1591 0.961 . S
C1604 H1592 0.959 . S
C1604 C1602 1.561 . S
C1605 C1602 1.526 . S
C1605 C1606 1.396 . S
C1605 C1610 1.390 . S
C1606 C1600 1.465 . S
C1606 C1605 1.396 . S
C1606 C1607 1.399 . S
C1607 H1593 0.929 . S
C1607 C1606 1.399 . S
C1607 C1608 1.385 . S
C1608 H1594 0.931 . S
C1608 C1607 1.385 . S
C1608 C1609 1.389 . S
C1609 C1608 1.389 . S
C1609 C1610 1.387 . S
C1610 H1595 0.930 . S
C1610 C1605 1.390 . S
C1610 C1609 1.387 . S
H1611 C1623 0.930 . S
H1612 C1625 0.930 . S
H1613 C1626 0.930 . S
H1614 C1630 0.959 . S
H1615 C1630 0.959 . S
H1616 C1630 0.961 . S
H1617 C1631 0.960 . S
H1618 C1631 0.961 . S
H1619 C1631 0.959 . S
H1620 C1634 0.929 . S
H1621 C1635 0.931 . S
H1622 C1637 0.930 . S
C1623 H1611 0.930 . S
C1623 C1624 1.399 . S
C1623 C1628 1.399 . S
C1624 C1623 1.399 . S
C1624 C1625 1.376 . S
C1625 H1612 0.930 . S
C1625 C1624 1.376 . S
C1625 C1626 1.388 . S
C1626 H1613 0.930 . S
C1626 C1625 1.388 . S
C1626 C1627 1.390 . S
C1627 C1626 1.390 . S
C1627 C1628 1.394 . S
C1627 C1633 1.465 . S
C1628 C1623 1.399 . S
C1628 C1627 1.394 . S
C1628 C1629 1.516 . S
C1629 C1628 1.516 . S
C1629 C1630 1.502 . S
C1629 C1631 1.561 . S
C1629 C1632 1.526 . S
C1630 H1614 0.959 . S
C1630 H1615 0.959 . S
C1630 H1616 0.961 . S
C1630 C1629 1.502 . S
C1631 H1617 0.960 . S
C1631 H1618 0.961 . S
C1631 H1619 0.959 . S
C1631 C1629 1.561 . S
C1632 C1629 1.526 . S
C1632 C1633 1.396 . S
C1632 C1637 1.390 . S
C1633 C1627 1.465 . S
C1633 C1632 1.396 . S
C1633 C1634 1.399 . S
C1634 H1620 0.929 . S
C1634 C1633 1.399 . S
C1634 C1635 1.385 . S
C1635 H1621 0.931 . S
C1635 C1634 1.385 . S
C1635 C1636 1.389 . S
C1636 C1635 1.389 . S
C1636 C1637 1.387 . S
C1637 H1622 0.930 . S
C1637 C1632 1.390 . S
C1637 C1636 1.387 . S
H1638 C1650 0.930 . S
H1639 C1652 0.930 . S
H1640 C1653 0.930 . S
H1641 C1657 0.959 . S
H1642 C1657 0.959 . S
H1643 C1657 0.961 . S
H1644 C1658 0.960 . S
H1645 C1658 0.961 . S
H1646 C1658 0.959 . S
H1647 C1661 0.929 . S
H1648 C1662 0.931 . S
H1649 C1664 0.930 . S
C1650 H1638 0.930 . S
C1650 C1651 1.399 . S
C1650 C1655 1.399 . S
C1651 C1650 1.399 . S
C1651 C1652 1.376 . S
C1652 H1639 0.930 . S
C1652 C1651 1.376 . S
C1652 C1653 1.388 . S
C1653 H1640 0.930 . S
C1653 C1652 1.388 . S
C1653 C1654 1.390 . S
C1654 C1653 1.390 . S
C1654 C1655 1.394 . S
C1654 C1660 1.465 . S
C1655 C1650 1.399 . S
C1655 C1654 1.394 . S
C1655 C1656 1.516 . S
C1656 C1655 1.516 . S
C1656 C1657 1.502 . S
C1656 C1658 1.561 . S
C1656 C1659 1.526 . S
C1657 H1641 0.959 . S
C1657 H1642 0.959 . S
C1657 H1643 0.961 . S
C1657 C1656 1.502 . S
C1658 H1644 0.960 . S
C1658 H1645 0.961 . S
C1658 H1646 0.959 . S
C1658 C1656 1.561 . S
C1659 C1656 1.526 . S
C1659 C1660 1.396 . S
C1659 C1664 1.390 . S
C1660 C1654 1.465 . S
C1660 C1659 1.396 . S
C1660 C1661 1.399 . S
C1661 H1647 0.929 . S
C1661 C1660 1.399 . S
C1661 C1662 1.385 . S
C1662 H1648 0.931 . S
C1662 C1661 1.385 . S
C1662 C1663 1.389 . S
C1663 C1662 1.389 . S
C1663 C1664 1.387 . S
C1664 H1649 0.930 . S
C1664 C1659 1.390 . S
C1664 C1663 1.387 . S
H1665 C1677 0.930 . S
H1666 C1679 0.930 . S
H1667 C1680 0.930 . S
H1668 C1684 0.959 . S
H1669 C1684 0.959 . S
H1670 C1684 0.961 . S
H1671 C1685 0.960 . S
H1672 C1685 0.961 . S
H1673 C1685 0.959 . S
H1674 C1688 0.929 . S
H1675 C1689 0.931 . S
H1676 C1691 0.930 . S
C1677 H1665 0.930 . S
C1677 C1678 1.399 . S
C1677 C1682 1.399 . S
C1678 C1677 1.399 . S
C1678 C1679 1.376 . S
C1679 H1666 0.930 . S
C1679 C1678 1.376 . S
C1679 C1680 1.388 . S
C1680 H1667 0.930 . S
C1680 C1679 1.388 . S
C1680 C1681 1.390 . S
C1681 C1680 1.390 . S
C1681 C1682 1.394 . S
C1681 C1687 1.465 . S
C1682 C1677 1.399 . S
C1682 C1681 1.394 . S
C1682 C1683 1.516 . S
C1683 C1682 1.516 . S
C1683 C1684 1.502 . S
C1683 C1685 1.561 . S
C1683 C1686 1.526 . S
C1684 H1668 0.959 . S
C1684 H1669 0.959 . S
C1684 H1670 0.961 . S
C1684 C1683 1.502 . S
C1685 H1671 0.960 . S
C1685 H1672 0.961 . S
C1685 H1673 0.959 . S
C1685 C1683 1.561 . S
C1686 C1683 1.526 . S
C1686 C1687 1.396 . S
C1686 C1691 1.390 . S
C1687 C1681 1.465 . S
C1687 C1686 1.396 . S
C1687 C1688 1.399 . S
C1688 H1674 0.929 . S
C1688 C1687 1.399 . S
C1688 C1689 1.385 . S
C1689 H1675 0.931 . S
C1689 C1688 1.385 . S
C1689 C1690 1.389 . S
C1690 C1689 1.389 . S
C1690 C1691 1.387 . S
C1691 H1676 0.930 . S
C1691 C1686 1.390 . S
C1691 C1690 1.387 . S
H1692 C1704 0.930 . S
H1693 C1706 0.930 . S
H1694 C1707 0.930 . S
H1695 C1711 0.959 . S
H1696 C1711 0.959 . S
H1697 C1711 0.961 . S
H1698 C1712 0.960 . S
H1699 C1712 0.961 . S
H1700 C1712 0.959 . S
H1701 C1715 0.929 . S
H1702 C1716 0.931 . S
H1703 C1718 0.930 . S
C1704 H1692 0.930 . S
C1704 C1705 1.399 . S
C1704 C1709 1.399 . S
C1705 C1704 1.399 . S
C1705 C1706 1.376 . S
C1706 H1693 0.930 . S
C1706 C1705 1.376 . S
C1706 C1707 1.388 . S
C1707 H1694 0.930 . S
C1707 C1706 1.388 . S
C1707 C1708 1.390 . S
C1708 C1707 1.390 . S
C1708 C1709 1.394 . S
C1708 C1714 1.465 . S
C1709 C1704 1.399 . S
C1709 C1708 1.394 . S
C1709 C1710 1.516 . S
C1710 C1709 1.516 . S
C1710 C1711 1.502 . S
C1710 C1712 1.561 . S
C1710 C1713 1.526 . S
C1711 H1695 0.959 . S
C1711 H1696 0.959 . S
C1711 H1697 0.961 . S
C1711 C1710 1.502 . S
C1712 H1698 0.960 . S
C1712 H1699 0.961 . S
C1712 H1700 0.959 . S
C1712 C1710 1.561 . S
C1713 C1710 1.526 . S
C1713 C1714 1.396 . S
C1713 C1718 1.390 . S
C1714 C1708 1.465 . S
C1714 C1713 1.396 . S
C1714 C1715 1.399 . S
C1715 H1701 0.929 . S
C1715 C1714 1.399 . S
C1715 C1716 1.385 . S
C1716 H1702 0.931 . S
C1716 C1715 1.385 . S
C1716 C1717 1.389 . S
C1717 C1716 1.389 . S
C1717 C1718 1.387 . S
C1718 H1703 0.930 . S
C1718 C1713 1.390 . S
C1718 C1717 1.387 . S
H1719 C1731 0.930 . S
H1720 C1733 0.930 . S
H1721 C1734 0.930 . S
H1722 C1738 0.959 . S
H1723 C1738 0.959 . S
H1724 C1738 0.961 . S
H1725 C1739 0.960 . S
H1726 C1739 0.961 . S
H1727 C1739 0.959 . S
H1728 C1742 0.929 . S
H1729 C1743 0.931 . S
H1730 C1745 0.930 . S
C1731 H1719 0.930 . S
C1731 C1732 1.399 . S
C1731 C1736 1.399 . S
C1732 C1731 1.399 . S
C1732 C1733 1.376 . S
C1733 H1720 0.930 . S
C1733 C1732 1.376 . S
C1733 C1734 1.388 . S
C1734 H1721 0.930 . S
C1734 C1733 1.388 . S
C1734 C1735 1.390 . S
C1735 C1734 1.390 . S
C1735 C1736 1.394 . S
C1735 C1741 1.465 . S
C1736 C1731 1.399 . S
C1736 C1735 1.394 . S
C1736 C1737 1.516 . S
C1737 C1736 1.516 . S
C1737 C1738 1.502 . S
C1737 C1739 1.561 . S
C1737 C1740 1.526 . S
C1738 H1722 0.959 . S
C1738 H1723 0.959 . S
C1738 H1724 0.961 . S
C1738 C1737 1.502 . S
C1739 H1725 0.960 . S
C1739 H1726 0.961 . S
C1739 H1727 0.959 . S
C1739 C1737 1.561 . S
C1740 C1737 1.526 . S
C1740 C1741 1.396 . S
C1740 C1745 1.390 . S
C1741 C1735 1.465 . S
C1741 C1740 1.396 . S
C1741 C1742 1.399 . S
C1742 H1728 0.929 . S
C1742 C1741 1.399 . S
C1742 C1743 1.385 . S
C1743 H1729 0.931 . S
C1743 C1742 1.385 . S
C1743 C1744 1.389 . S
C1744 C1743 1.389 . S
C1744 C1745 1.387 . S
C1745 H1730 0.930 . S
C1745 C1740 1.390 . S
C1745 C1744 1.387 . S
H1746 C1758 0.930 . S
H1747 C1760 0.930 . S
H1748 C1761 0.930 . S
H1749 C1765 0.959 . S
H1750 C1765 0.959 . S
H1751 C1765 0.961 . S
H1752 C1766 0.960 . S
H1753 C1766 0.961 . S
H1754 C1766 0.959 . S
H1755 C1769 0.929 . S
H1756 C1770 0.931 . S
H1757 C1772 0.930 . S
C1758 H1746 0.930 . S
C1758 C1759 1.399 . S
C1758 C1763 1.399 . S
C1759 C1758 1.399 . S
C1759 C1760 1.376 . S
C1760 H1747 0.930 . S
C1760 C1759 1.376 . S
C1760 C1761 1.388 . S
C1761 H1748 0.930 . S
C1761 C1760 1.388 . S
C1761 C1762 1.390 . S
C1762 C1761 1.390 . S
C1762 C1763 1.394 . S
C1762 C1768 1.465 . S
C1763 C1758 1.399 . S
C1763 C1762 1.394 . S
C1763 C1764 1.516 . S
C1764 C1763 1.516 . S
C1764 C1765 1.502 . S
C1764 C1766 1.561 . S
C1764 C1767 1.526 . S
C1765 H1749 0.959 . S
C1765 H1750 0.959 . S
C1765 H1751 0.961 . S
C1765 C1764 1.502 . S
C1766 H1752 0.960 . S
C1766 H1753 0.961 . S
C1766 H1754 0.959 . S
C1766 C1764 1.561 . S
C1767 C1764 1.526 . S
C1767 C1768 1.396 . S
C1767 C1772 1.390 . S
C1768 C1762 1.465 . S
C1768 C1767 1.396 . S
C1768 C1769 1.399 . S
C1769 H1755 0.929 . S
C1769 C1768 1.399 . S
C1769 C1770 1.385 . S
C1770 H1756 0.931 . S
C1770 C1769 1.385 . S
C1770 C1771 1.389 . S
C1771 C1770 1.389 . S
C1771 C1772 1.387 . S
C1772 H1757 0.930 . S
C1772 C1767 1.390 . S
C1772 C1771 1.387 . S
H1773 C1785 0.930 . S
H1774 C1787 0.930 . S
H1775 C1788 0.930 . S
H1776 C1792 0.959 . S
H1777 C1792 0.959 . S
H1778 C1792 0.961 . S
H1779 C1793 0.960 . S
H1780 C1793 0.961 . S
H1781 C1793 0.959 . S
H1782 C1796 0.929 . S
H1783 C1797 0.931 . S
H1784 C1799 0.930 . S
C1785 H1773 0.930 . S
C1785 C1786 1.399 . S
C1785 C1790 1.399 . S
C1786 C1785 1.399 . S
C1786 C1787 1.376 . S
C1787 H1774 0.930 . S
C1787 C1786 1.376 . S
C1787 C1788 1.388 . S
C1788 H1775 0.930 . S
C1788 C1787 1.388 . S
C1788 C1789 1.390 . S
C1789 C1788 1.390 . S
C1789 C1790 1.394 . S
C1789 C1795 1.465 . S
C1790 C1785 1.399 . S
C1790 C1789 1.394 . S
C1790 C1791 1.516 . S
C1791 C1790 1.516 . S
C1791 C1792 1.502 . S
C1791 C1793 1.561 . S
C1791 C1794 1.526 . S
C1792 H1776 0.959 . S
C1792 H1777 0.959 . S
C1792 H1778 0.961 . S
C1792 C1791 1.502 . S
C1793 H1779 0.960 . S
C1793 H1780 0.961 . S
C1793 H1781 0.959 . S
C1793 C1791 1.561 . S
C1794 C1791 1.526 . S
C1794 C1795 1.396 . S
C1794 C1799 1.390 . S
C1795 C1789 1.465 . S
C1795 C1794 1.396 . S
C1795 C1796 1.399 . S
C1796 H1782 0.929 . S
C1796 C1795 1.399 . S
C1796 C1797 1.385 . S
C1797 H1783 0.931 . S
C1797 C1796 1.385 . S
C1797 C1798 1.389 . S
C1798 C1797 1.389 . S
C1798 C1799 1.387 . S
C1799 H1784 0.930 . S
C1799 C1794 1.390 . S
C1799 C1798 1.387 . S
H1800 C1812 0.930 . S
H1801 C1814 0.930 . S
H1802 C1815 0.930 . S
H1803 C1819 0.959 . S
H1804 C1819 0.959 . S
H1805 C1819 0.961 . S
H1806 C1820 0.960 . S
H1807 C1820 0.961 . S
H1808 C1820 0.959 . S
H1809 C1823 0.929 . S
H1810 C1824 0.931 . S
H1811 C1826 0.930 . S
C1812 H1800 0.930 . S
C1812 C1813 1.399 . S
C1812 C1817 1.399 . S
C1813 C1812 1.399 . S
C1813 C1814 1.376 . S
C1814 H1801 0.930 . S
C1814 C1813 1.376 . S
C1814 C1815 1.388 . S
C1815 H1802 0.930 . S
C1815 C1814 1.388 . S
C1815 C1816 1.390 . S
C1816 C1815 1.390 . S
C1816 C1817 1.394 . S
C1816 C1822 1.465 . S
C1817 C1812 1.399 . S
C1817 C1816 1.394 . S
C1817 C1818 1.516 . S
C1818 C1817 1.516 . S
C1818 C1819 1.502 . S
C1818 C1820 1.561 . S
C1818 C1821 1.526 . S
C1819 H1803 0.959 . S
C1819 H1804 0.959 . S
C1819 H1805 0.961 . S
C1819 C1818 1.502 . S
C1820 H1806 0.960 . S
C1820 H1807 0.961 . S
C1820 H1808 0.959 . S
C1820 C1818 1.561 . S
C1821 C1818 1.526 . S
C1821 C1822 1.396 . S
C1821 C1826 1.390 . S
C1822 C1816 1.465 . S
C1822 C1821 1.396 . S
C1822 C1823 1.399 . S
C1823 H1809 0.929 . S
C1823 C1822 1.399 . S
C1823 C1824 1.385 . S
C1824 H1810 0.931 . S
C1824 C1823 1.385 . S
C1824 C1825 1.389 . S
C1825 C1824 1.389 . S
C1825 C1826 1.387 . S
C1826 H1811 0.930 . S
C1826 C1821 1.390 . S
C1826 C1825 1.387 . S
H1827 C1839 0.930 . S
H1828 C1841 0.930 . S
H1829 C1842 0.930 . S
H1830 C1846 0.959 . S
H1831 C1846 0.959 . S
H1832 C1846 0.961 . S
H1833 C1847 0.960 . S
H1834 C1847 0.961 . S
H1835 C1847 0.959 . S
H1836 C1850 0.929 . S
H1837 C1851 0.931 . S
H1838 C1853 0.930 . S
C1839 H1827 0.930 . S
C1839 C1840 1.399 . S
C1839 C1844 1.399 . S
C1840 C1839 1.399 . S
C1840 C1841 1.376 . S
C1841 H1828 0.930 . S
C1841 C1840 1.376 . S
C1841 C1842 1.388 . S
C1842 H1829 0.930 . S
C1842 C1841 1.388 . S
C1842 C1843 1.390 . S
C1843 C1842 1.390 . S
C1843 C1844 1.394 . S
C1843 C1849 1.465 . S
C1844 C1839 1.399 . S
C1844 C1843 1.394 . S
C1844 C1845 1.516 . S
C1845 C1844 1.516 . S
C1845 C1846 1.502 . S
C1845 C1847 1.561 . S
C1845 C1848 1.526 . S
C1846 H1830 0.959 . S
C1846 H1831 0.959 . S
C1846 H1832 0.961 . S
C1846 C1845 1.502 . S
C1847 H1833 0.960 . S
C1847 H1834 0.961 . S
C1847 H1835 0.959 . S
C1847 C1845 1.561 . S
C1848 C1845 1.526 . S
C1848 C1849 1.396 . S
C1848 C1853 1.390 . S
C1849 C1843 1.465 . S
C1849 C1848 1.396 . S
C1849 C1850 1.399 . S
C1850 H1836 0.929 . S
C1850 C1849 1.399 . S
C1850 C1851 1.385 . S
C1851 H1837 0.931 . S
C1851 C1850 1.385 . S
C1851 C1852 1.389 . S
C1852 C1851 1.389 . S
C1852 C1853 1.387 . S
C1853 H1838 0.930 . S
C1853 C1848 1.390 . S
C1853 C1852 1.387 . S
H1854 C1866 0.930 . S
H1855 C1868 0.930 . S
H1856 C1869 0.930 . S
H1857 C1873 0.959 . S
H1858 C1873 0.959 . S
H1859 C1873 0.961 . S
H1860 C1874 0.960 . S
H1861 C1874 0.961 . S
H1862 C1874 0.959 . S
H1863 C1877 0.929 . S
H1864 C1878 0.931 . S
H1865 C1880 0.930 . S
C1866 H1854 0.930 . S
C1866 C1867 1.399 . S
C1866 C1871 1.399 . S
C1867 C1866 1.399 . S
C1867 C1868 1.376 . S
C1868 H1855 0.930 . S
C1868 C1867 1.376 . S
C1868 C1869 1.388 . S
C1869 H1856 0.930 . S
C1869 C1868 1.388 . S
C1869 C1870 1.390 . S
C1870 C1869 1.390 . S
C1870 C1871 1.394 . S
C1870 C1876 1.465 . S
C1871 C1866 1.399 . S
C1871 C1870 1.394 . S
C1871 C1872 1.516 . S
C1872 C1871 1.516 . S
C1872 C1873 1.502 . S
C1872 C1874 1.561 . S
C1872 C1875 1.526 . S
C1873 H1857 0.959 . S
C1873 H1858 0.959 . S
C1873 H1859 0.961 . S
C1873 C1872 1.502 . S
C1874 H1860 0.960 . S
C1874 H1861 0.961 . S
C1874 H1862 0.959 . S
C1874 C1872 1.561 . S
C1875 C1872 1.526 . S
C1875 C1876 1.396 . S
C1875 C1880 1.390 . S
C1876 C1870 1.465 . S
C1876 C1875 1.396 . S
C1876 C1877 1.399 . S
C1877 H1863 0.929 . S
C1877 C1876 1.399 . S
C1877 C1878 1.385 . S
C1878 H1864 0.931 . S
C1878 C1877 1.385 . S
C1878 C1879 1.389 . S
C1879 C1878 1.389 . S
C1879 C1880 1.387 . S
C1880 H1865 0.930 . S
C1880 C1875 1.390 . S
C1880 C1879 1.387 . S
H1881 C1893 0.930 . S
H1882 C1895 0.930 . S
H1883 C1896 0.930 . S
H1884 C1900 0.959 . S
H1885 C1900 0.959 . S
H1886 C1900 0.961 . S
H1887 C1901 0.960 . S
H1888 C1901 0.961 . S
H1889 C1901 0.959 . S
H1890 C1904 0.929 . S
H1891 C1905 0.931 . S
H1892 C1907 0.930 . S
C1893 H1881 0.930 . S
C1893 C1894 1.399 . S
C1893 C1898 1.399 . S
C1894 C1893 1.399 . S
C1894 C1895 1.376 . S
C1895 H1882 0.930 . S
C1895 C1894 1.376 . S
C1895 C1896 1.388 . S
C1896 H1883 0.930 . S
C1896 C1895 1.388 . S
C1896 C1897 1.390 . S
C1897 C1896 1.390 . S
C1897 C1898 1.394 . S
C1897 C1903 1.465 . S
C1898 C1893 1.399 . S
C1898 C1897 1.394 . S
C1898 C1899 1.516 . S
C1899 C1898 1.516 . S
C1899 C1900 1.502 . S
C1899 C1901 1.561 . S
C1899 C1902 1.526 . S
C1900 H1884 0.959 . S
C1900 H1885 0.959 . S
C1900 H1886 0.961 . S
C1900 C1899 1.502 . S
C1901 H1887 0.960 . S
C1901 H1888 0.961 . S
C1901 H1889 0.959 . S
C1901 C1899 1.561 . S
C1902 C1899 1.526 . S
C1902 C1903 1.396 . S
C1902 C1907 1.390 . S
C1903 C1897 1.465 . S
C1903 C1902 1.396 . S
C1903 C1904 1.399 . S
C1904 H1890 0.929 . S
C1904 C1903 1.399 . S
C1904 C1905 1.385 . S
C1905 H1891 0.931 . S
C1905 C1904 1.385 . S
C1905 C1906 1.389 . S
C1906 C1905 1.389 . S
C1906 C1907 1.387 . S
C1907 H1892 0.930 . S
C1907 C1902 1.390 . S
C1907 C1906 1.387 . S
H1908 C1920 0.930 . S
H1909 C1922 0.930 . S
H1910 C1923 0.930 . S
H1911 C1927 0.959 . S
H1912 C1927 0.959 . S
H1913 C1927 0.961 . S
H1914 C1928 0.960 . S
H1915 C1928 0.961 . S
H1916 C1928 0.959 . S
H1917 C1931 0.929 . S
H1918 C1932 0.931 . S
H1919 C1934 0.930 . S
C1920 H1908 0.930 . S
C1920 C1921 1.399 . S
C1920 C1925 1.399 . S
C1921 C1920 1.399 . S
C1921 C1922 1.376 . S
C1922 H1909 0.930 . S
C1922 C1921 1.376 . S
C1922 C1923 1.388 . S
C1923 H1910 0.930 . S
C1923 C1922 1.388 . S
C1923 C1924 1.390 . S
C1924 C1923 1.390 . S
C1924 C1925 1.394 . S
C1924 C1930 1.465 . S
C1925 C1920 1.399 . S
C1925 C1924 1.394 . S
C1925 C1926 1.516 . S
C1926 C1925 1.516 . S
C1926 C1927 1.502 . S
C1926 C1928 1.561 . S
C1926 C1929 1.526 . S
C1927 H1911 0.959 . S
C1927 H1912 0.959 . S
C1927 H1913 0.961 . S
C1927 C1926 1.502 . S
C1928 H1914 0.960 . S
C1928 H1915 0.961 . S
C1928 H1916 0.959 . S
C1928 C1926 1.561 . S
C1929 C1926 1.526 . S
C1929 C1930 1.396 . S
C1929 C1934 1.390 . S
C1930 C1924 1.465 . S
C1930 C1929 1.396 . S
C1930 C1931 1.399 . S
C1931 H1917 0.929 . S
C1931 C1930 1.399 . S
C1931 C1932 1.385 . S
C1932 H1918 0.931 . S
C1932 C1931 1.385 . S
C1932 C1933 1.389 . S
C1933 C1932 1.389 . S
C1933 C1934 1.387 . S
C1934 H1919 0.930 . S
C1934 C1929 1.390 . S
C1934 C1933 1.387 . S
H1935 C1947 0.930 . S
H1936 C1949 0.930 . S
H1937 C1950 0.930 . S
H1938 C1954 0.959 . S
H1939 C1954 0.959 . S
H1940 C1954 0.961 . S
H1941 C1955 0.960 . S
H1942 C1955 0.961 . S
H1943 C1955 0.959 . S
H1944 C1958 0.929 . S
H1945 C1959 0.931 . S
H1946 C1961 0.930 . S
C1947 H1935 0.930 . S
C1947 C1948 1.399 . S
C1947 C1952 1.399 . S
C1948 C1947 1.399 . S
C1948 C1949 1.376 . S
C1949 H1936 0.930 . S
C1949 C1948 1.376 . S
C1949 C1950 1.388 . S
C1950 H1937 0.930 . S
C1950 C1949 1.388 . S
C1950 C1951 1.390 . S
C1951 C1950 1.390 . S
C1951 C1952 1.394 . S
C1951 C1957 1.465 . S
C1952 C1947 1.399 . S
C1952 C1951 1.394 . S
C1952 C1953 1.516 . S
C1953 C1952 1.516 . S
C1953 C1954 1.502 . S
C1953 C1955 1.561 . S
C1953 C1956 1.526 . S
C1954 H1938 0.959 . S
C1954 H1939 0.959 . S
C1954 H1940 0.961 . S
C1954 C1953 1.502 . S
C1955 H1941 0.960 . S
C1955 H1942 0.961 . S
C1955 H1943 0.959 . S
C1955 C1953 1.561 . S
C1956 C1953 1.526 . S
C1956 C1957 1.396 . S
C1956 C1961 1.390 . S
C1957 C1951 1.465 . S
C1957 C1956 1.396 . S
C1957 C1958 1.399 . S
C1958 H1944 0.929 . S
C1958 C1957 1.399 . S
C1958 C1959 1.385 . S
C1959 H1945 0.931 . S
C1959 C1958 1.385 . S
C1959 C1960 1.389 . S
C1960 C1959 1.389 . S
C1960 C1961 1.387 . S
C1961 H1946 0.930 . S
C1961 C1956 1.390 . S
C1961 C1960 1.387 . S
H1962 C1974 0.930 . S
H1963 C1976 0.930 . S
H1964 C1977 0.930 . S
H1965 C1981 0.959 . S
H1966 C1981 0.959 . S
H1967 C1981 0.961 . S
H1968 C1982 0.960 . S
H1969 C1982 0.961 . S
H1970 C1982 0.959 . S
H1971 C1985 0.929 . S
H1972 C1986 0.931 . S
H1973 C1988 0.930 . S
C1974 H1962 0.930 . S
C1974 C1975 1.399 . S
C1974 C1979 1.399 . S
C1975 C1974 1.399 . S
C1975 C1976 1.376 . S
C1976 H1963 0.930 . S
C1976 C1975 1.376 . S
C1976 C1977 1.388 . S
C1977 H1964 0.930 . S
C1977 C1976 1.388 . S
C1977 C1978 1.390 . S
C1978 C1977 1.390 . S
C1978 C1979 1.394 . S
C1978 C1984 1.465 . S
C1979 C1974 1.399 . S
C1979 C1978 1.394 . S
C1979 C1980 1.516 . S
C1980 C1979 1.516 . S
C1980 C1981 1.502 . S
C1980 C1982 1.561 . S
C1980 C1983 1.526 . S
C1981 H1965 0.959 . S
C1981 H1966 0.959 . S
C1981 H1967 0.961 . S
C1981 C1980 1.502 . S
C1982 H1968 0.960 . S
C1982 H1969 0.961 . S
C1982 H1970 0.959 . S
C1982 C1980 1.561 . S
C1983 C1980 1.526 . S
C1983 C1984 1.396 . S
C1983 C1988 1.390 . S
C1984 C1978 1.465 . S
C1984 C1983 1.396 . S
C1984 C1985 1.399 . S
C1985 H1971 0.929 . S
C1985 C1984 1.399 . S
C1985 C1986 1.385 . S
C1986 H1972 0.931 . S
C1986 C1985 1.385 . S
C1986 C1987 1.389 . S
C1987 C1986 1.389 . S
C1987 C1988 1.387 . S
C1988 H1973 0.930 . S
C1988 C1983 1.390 . S
C1988 C1987 1.387 . S
H1989 C2001 0.930 . S
H1990 C2003 0.930 . S
H1991 C2004 0.930 . S
H1992 C2008 0.959 . S
H1993 C2008 0.959 . S
H1994 C2008 0.961 . S
H1995 C2009 0.960 . S
H1996 C2009 0.961 . S
H1997 C2009 0.959 . S
H1998 C2012 0.929 . S
H1999 C2013 0.931 . S
H2000 C2015 0.930 . S
C2001 H1989 0.930 . S
C2001 C2002 1.399 . S
C2001 C2006 1.399 . S
C2002 C2001 1.399 . S
C2002 C2003 1.376 . S
C2003 H1990 0.930 . S
C2003 C2002 1.376 . S
C2003 C2004 1.388 . S
C2004 H1991 0.930 . S
C2004 C2003 1.388 . S
C2004 C2005 1.390 . S
C2005 C2004 1.390 . S
C2005 C2006 1.394 . S
C2005 C2011 1.465 . S
C2006 C2001 1.399 . S
C2006 C2005 1.394 . S
C2006 C2007 1.516 . S
C2007 C2006 1.516 . S
C2007 C2008 1.502 . S
C2007 C2009 1.561 . S
C2007 C2010 1.526 . S
C2008 H1992 0.959 . S
C2008 H1993 0.959 . S
C2008 H1994 0.961 . S
C2008 C2007 1.502 . S
C2009 H1995 0.960 . S
C2009 H1996 0.961 . S
C2009 H1997 0.959 . S
C2009 C2007 1.561 . S
C2010 C2007 1.526 . S
C2010 C2011 1.396 . S
C2010 C2015 1.390 . S
C2011 C2005 1.465 . S
C2011 C2010 1.396 . S
C2011 C2012 1.399 . S
C2012 H1998 0.929 . S
C2012 C2011 1.399 . S
C2012 C2013 1.385 . S
C2013 H1999 0.931 . S
C2013 C2012 1.385 . S
C2013 C2014 1.389 . S
C2014 C2013 1.389 . S
C2014 C2015 1.387 . S
C2015 H2000 0.930 . S
C2015 C2010 1.390 . S
C2015 C2014 1.387 . S
H2016 C2028 0.930 . S
H2017 C2030 0.930 . S
H2018 C2031 0.930 . S
H2019 C2035 0.959 . S
H2020 C2035 0.959 . S
H2021 C2035 0.961 . S
H2022 C2036 0.960 . S
H2023 C2036 0.961 . S
H2024 C2036 0.959 . S
H2025 C2039 0.929 . S
H2026 C2040 0.931 . S
H2027 C2042 0.930 . S
C2028 H2016 0.930 . S
C2028 C2029 1.399 . S
C2028 C2033 1.399 . S
C2029 C2028 1.399 . S
C2029 C2030 1.376 . S
C2030 H2017 0.930 . S
C2030 C2029 1.376 . S
C2030 C2031 1.388 . S
C2031 H2018 0.930 . S
C2031 C2030 1.388 . S
C2031 C2032 1.390 . S
C2032 C2031 1.390 . S
C2032 C2033 1.394 . S
C2032 C2038 1.465 . S
C2033 C2028 1.399 . S
C2033 C2032 1.394 . S
C2033 C2034 1.516 . S
C2034 C2033 1.516 . S
C2034 C2035 1.502 . S
C2034 C2036 1.561 . S
C2034 C2037 1.526 . S
C2035 H2019 0.959 . S
C2035 H2020 0.959 . S
C2035 H2021 0.961 . S
C2035 C2034 1.502 . S
C2036 H2022 0.960 . S
C2036 H2023 0.961 . S
C2036 H2024 0.959 . S
C2036 C2034 1.561 . S
C2037 C2034 1.526 . S
C2037 C2038 1.396 . S
C2037 C2042 1.390 . S
C2038 C2032 1.465 . S
C2038 C2037 1.396 . S
C2038 C2039 1.399 . S
C2039 H2025 0.929 . S
C2039 C2038 1.399 . S
C2039 C2040 1.385 . S
C2040 H2026 0.931 . S
C2040 C2039 1.385 . S
C2040 C2041 1.389 . S
C2041 C2040 1.389 . S
C2041 C2042 1.387 . S
C2042 H2027 0.930 . S
C2042 C2037 1.390 . S
C2042 C2041 1.387 . S
H2043 C2055 0.930 . S
H2044 C2057 0.930 . S
H2045 C2058 0.930 . S
H2046 C2062 0.959 . S
H2047 C2062 0.959 . S
H2048 C2062 0.961 . S
H2049 C2063 0.960 . S
H2050 C2063 0.961 . S
H2051 C2063 0.959 . S
H2052 C2066 0.929 . S
H2053 C2067 0.931 . S
H2054 C2069 0.930 . S
C2055 H2043 0.930 . S
C2055 C2056 1.399 1_545 S
C2055 C2060 1.399 . S
C2056 C2055 1.399 1_565 S
C2056 C2057 1.376 . S
C2057 H2044 0.930 . S
C2057 C2056 1.376 . S
C2057 C2058 1.388 . S
C2058 H2045 0.930 . S
C2058 C2057 1.388 . S
C2058 C2059 1.390 . S
C2059 C2058 1.390 . S
C2059 C2060 1.394 1_565 S
C2059 C2065 1.465 . S
C2060 C2055 1.399 . S
C2060 C2059 1.394 1_545 S
C2060 C2061 1.516 1_455 S
C2061 C2060 1.516 1_655 S
C2061 C2062 1.502 . S
C2061 C2063 1.561 1_655 S
C2061 C2064 1.526 . S
C2062 H2046 0.959 . S
C2062 H2047 0.959 . S
C2062 H2048 0.961 . S
C2062 C2061 1.502 . S
C2063 H2049 0.960 . S
C2063 H2050 0.961 . S
C2063 H2051 0.959 . S
C2063 C2061 1.561 1_455 S
C2064 C2061 1.526 . S
C2064 C2065 1.396 1_645 S
C2064 C2069 1.390 . S
C2065 C2059 1.465 . S
C2065 C2064 1.396 1_465 S
C2065 C2066 1.399 . S
C2066 H2052 0.929 . S
C2066 C2065 1.399 . S
C2066 C2067 1.385 1_455 S
C2067 H2053 0.931 . S
C2067 C2066 1.385 1_655 S
C2067 C2068 1.389 1_565 S
C2068 C2067 1.389 1_545 S
C2068 C2069 1.387 . S
C2069 H2054 0.930 . S
C2069 C2064 1.390 . S
C2069 C2068 1.387 . S
H2070 C2082 0.930 . S
H2071 C2084 0.930 . S
H2072 C2085 0.930 . S
H2073 C2089 0.959 . S
H2074 C2089 0.959 . S
H2075 C2089 0.961 . S
H2076 C2090 0.960 . S
H2077 C2090 0.961 . S
H2078 C2090 0.959 . S
H2079 C2093 0.929 . S
H2080 C2094 0.931 . S
H2081 C2096 0.930 . S
C2082 H2070 0.930 . S
C2082 C2083 1.399 . S
C2082 C2087 1.399 . S
C2083 C2082 1.399 . S
C2083 C2084 1.376 . S
C2084 H2071 0.930 . S
C2084 C2083 1.376 . S
C2084 C2085 1.388 . S
C2085 H2072 0.930 . S
C2085 C2084 1.388 . S
C2085 C2086 1.390 . S
C2086 C2085 1.390 . S
C2086 C2087 1.394 . S
C2086 C2092 1.465 . S
C2087 C2082 1.399 . S
C2087 C2086 1.394 . S
C2087 C2088 1.516 . S
C2088 C2087 1.516 . S
C2088 C2089 1.502 . S
C2088 C2090 1.561 . S
C2088 C2091 1.526 . S
C2089 H2073 0.959 . S
C2089 H2074 0.959 . S
C2089 H2075 0.961 . S
C2089 C2088 1.502 . S
C2090 H2076 0.960 . S
C2090 H2077 0.961 . S
C2090 H2078 0.959 . S
C2090 C2088 1.561 . S
C2091 C2088 1.526 . S
C2091 C2092 1.396 . S
C2091 C2096 1.390 . S
C2092 C2086 1.465 . S
C2092 C2091 1.396 . S
C2092 C2093 1.399 . S
C2093 H2079 0.929 . S
C2093 C2092 1.399 . S
C2093 C2094 1.385 . S
C2094 H2080 0.931 . S
C2094 C2093 1.385 . S
C2094 C2095 1.389 . S
C2095 C2094 1.389 . S
C2095 C2096 1.387 . S
C2096 H2081 0.930 . S
C2096 C2091 1.390 . S
C2096 C2095 1.387 . S
H2097 C2109 0.930 . S
H2098 C2111 0.930 . S
H2099 C2112 0.930 . S
H2100 C2116 0.959 . S
H2101 C2116 0.959 . S
H2102 C2116 0.961 . S
H2103 C2117 0.960 . S
H2104 C2117 0.961 1_556 S
H2105 C2117 0.956 1_556 S
H2106 C2120 0.929 . S
H2107 C2121 0.931 . S
H2108 C2123 0.930 . S
C2109 H2097 0.930 . S
C2109 C2110 1.399 1_565 S
C2109 C2114 1.399 . S
C2110 C2109 1.399 1_545 S
C2110 C2111 1.376 . S
C2111 H2098 0.930 . S
C2111 C2110 1.376 . S
C2111 C2112 1.388 . S
C2112 H2099 0.930 . S
C2112 C2111 1.388 . S
C2112 C2113 1.390 . S
C2113 C2112 1.390 . S
C2113 C2114 1.394 1_545 S
C2113 C2119 1.465 1_554 S
C2114 C2109 1.399 . S
C2114 C2113 1.394 1_565 S
C2114 C2115 1.516 . S
C2115 C2114 1.516 . S
C2115 C2116 1.502 . S
C2115 C2117 1.561 . S
C2115 C2118 1.526 1_554 S
C2116 H2100 0.959 . S
C2116 H2101 0.959 . S
C2116 H2102 0.961 . S
C2116 C2115 1.502 . S
C2117 H2103 0.960 . S
C2117 H2104 0.961 1_554 S
C2117 H2105 0.956 1_554 S
C2117 C2115 1.561 . S
C2118 C2115 1.526 1_556 S
C2118 C2119 1.396 1_565 S
C2118 C2123 1.390 . S
C2119 C2113 1.465 1_556 S
C2119 C2118 1.396 1_545 S
C2119 C2120 1.399 . S
C2120 H2106 0.929 . S
C2120 C2119 1.399 . S
C2120 C2121 1.385 . S
C2121 H2107 0.931 . S
C2121 C2120 1.385 . S
C2121 C2122 1.389 1_545 S
C2122 C2121 1.389 1_565 S
C2122 C2123 1.387 . S
C2123 H2108 0.930 . S
C2123 C2118 1.390 . S
C2123 C2122 1.387 . S
H2124 C2136 0.930 . S
H2125 C2138 0.930 . S
H2126 C2139 0.930 . S
H2127 C2143 0.959 . S
H2128 C2143 0.959 . S
H2129 C2143 0.961 . S
H2130 C2144 0.960 . S
H2131 C2144 0.961 . S
H2132 C2144 0.959 . S
H2133 C2147 0.929 . S
H2134 C2148 0.931 . S
H2135 C2150 0.930 . S
C2136 H2124 0.930 . S
C2136 C2137 1.399 . S
C2136 C2141 1.399 . S
C2137 C2136 1.399 . S
C2137 C2138 1.376 . S
C2138 H2125 0.930 . S
C2138 C2137 1.376 . S
C2138 C2139 1.388 . S
C2139 H2126 0.930 . S
C2139 C2138 1.388 . S
C2139 C2140 1.390 . S
C2140 C2139 1.390 . S
C2140 C2141 1.394 . S
C2140 C2146 1.465 . S
C2141 C2136 1.399 . S
C2141 C2140 1.394 . S
C2141 C2142 1.516 . S
C2142 C2141 1.516 . S
C2142 C2143 1.502 . S
C2142 C2144 1.561 . S
C2142 C2145 1.526 . S
C2143 H2127 0.959 . S
C2143 H2128 0.959 . S
C2143 H2129 0.961 . S
C2143 C2142 1.502 . S
C2144 H2130 0.960 . S
C2144 H2131 0.961 . S
C2144 H2132 0.959 . S
C2144 C2142 1.561 . S
C2145 C2142 1.526 . S
C2145 C2146 1.396 . S
C2145 C2150 1.390 . S
C2146 C2140 1.465 . S
C2146 C2145 1.396 . S
C2146 C2147 1.399 . S
C2147 H2133 0.929 . S
C2147 C2146 1.399 . S
C2147 C2148 1.385 . S
C2148 H2134 0.931 . S
C2148 C2147 1.385 . S
C2148 C2149 1.389 . S
C2149 C2148 1.389 . S
C2149 C2150 1.387 . S
C2150 H2135 0.930 . S
C2150 C2145 1.390 . S
C2150 C2149 1.387 . S
H2151 C2163 0.930 . S
H2152 C2165 0.930 . S
H2153 C2166 0.930 . S
H2154 C2170 0.959 . S
H2155 C2170 0.959 . S
H2156 C2170 0.961 . S
H2157 C2171 0.960 . S
H2158 C2171 0.961 . S
H2159 C2171 0.959 . S
H2160 C2174 0.929 . S
H2161 C2175 0.931 . S
H2162 C2177 0.930 . S
C2163 H2151 0.930 . S
C2163 C2164 1.399 . S
C2163 C2168 1.399 . S
C2164 C2163 1.399 . S
C2164 C2165 1.376 1_565 S
C2165 H2152 0.930 . S
C2165 C2164 1.376 1_545 S
C2165 C2166 1.388 . S
C2166 H2153 0.930 . S
C2166 C2165 1.388 . S
C2166 C2167 1.390 . S
C2167 C2166 1.390 . S
C2167 C2168 1.394 1_545 S
C2167 C2173 1.465 . S
C2168 C2163 1.399 . S
C2168 C2167 1.394 1_565 S
C2168 C2169 1.516 . S
C2169 C2168 1.516 . S
C2169 C2170 1.502 . S
C2169 C2171 1.561 . S
C2169 C2172 1.526 . S
C2170 H2154 0.959 . S
C2170 H2155 0.959 . S
C2170 H2156 0.961 . S
C2170 C2169 1.502 . S
C2171 H2157 0.960 . S
C2171 H2158 0.961 . S
C2171 H2159 0.959 . S
C2171 C2169 1.561 . S
C2172 C2169 1.526 . S
C2172 C2173 1.396 1_565 S
C2172 C2177 1.390 . S
C2173 C2167 1.465 . S
C2173 C2172 1.396 1_545 S
C2173 C2174 1.399 . S
C2174 H2160 0.929 . S
C2174 C2173 1.399 . S
C2174 C2175 1.385 . S
C2175 H2161 0.931 . S
C2175 C2174 1.385 . S
C2175 C2176 1.389 . S
C2176 C2175 1.389 . S
C2176 C2177 1.387 1_545 S
C2177 H2162 0.930 . S
C2177 C2172 1.390 . S
C2177 C2176 1.387 1_565 S
H2178 C2190 0.930 . S
H2179 C2192 0.930 . S
H2180 C2193 0.930 . S
H2181 C2197 0.959 . S
H2182 C2197 0.959 . S
H2183 C2197 0.961 . S
H2184 C2198 0.960 . S
H2185 C2198 0.961 . S
H2186 C2198 0.959 . S
H2187 C2201 0.929 . S
H2188 C2202 0.931 . S
H2189 C2204 0.930 . S
C2190 H2178 0.930 . S
C2190 C2191 1.399 . S
C2190 C2195 1.399 . S
C2191 C2190 1.399 . S
C2191 C2192 1.376 . S
C2192 H2179 0.930 . S
C2192 C2191 1.376 . S
C2192 C2193 1.388 . S
C2193 H2180 0.930 . S
C2193 C2192 1.388 . S
C2193 C2194 1.390 . S
C2194 C2193 1.390 . S
C2194 C2195 1.394 . S
C2194 C2200 1.465 . S
C2195 C2190 1.399 . S
C2195 C2194 1.394 . S
C2195 C2196 1.516 . S
C2196 C2195 1.516 . S
C2196 C2197 1.502 . S
C2196 C2198 1.561 . S
C2196 C2199 1.526 . S
C2197 H2181 0.959 . S
C2197 H2182 0.959 . S
C2197 H2183 0.961 . S
C2197 C2196 1.502 . S
C2198 H2184 0.960 . S
C2198 H2185 0.961 . S
C2198 H2186 0.959 . S
C2198 C2196 1.561 . S
C2199 C2196 1.526 . S
C2199 C2200 1.396 . S
C2199 C2204 1.390 . S
C2200 C2194 1.465 . S
C2200 C2199 1.396 . S
C2200 C2201 1.399 . S
C2201 H2187 0.929 . S
C2201 C2200 1.399 . S
C2201 C2202 1.385 . S
C2202 H2188 0.931 . S
C2202 C2201 1.385 . S
C2202 C2203 1.389 . S
C2203 C2202 1.389 . S
C2203 C2204 1.387 . S
C2204 H2189 0.930 . S
C2204 C2199 1.390 . S
C2204 C2203 1.387 . S
H2205 C2217 0.930 . S
H2206 C2219 0.930 . S
H2207 C2220 0.930 . S
H2208 C2224 0.959 . S
H2209 C2224 0.959 . S
H2210 C2224 0.961 . S
H2211 C2225 0.960 . S
H2212 C2225 0.961 1_654 S
H2213 C2225 0.959 1_554 S
H2214 C2228 0.929 . S
H2215 C2229 0.931 . S
H2216 C2231 0.930 . S
C2217 H2205 0.930 . S
C2217 C2218 1.399 1_565 S
C2217 C2222 1.399 . S
C2218 C2217 1.399 1_545 S
C2218 C2219 1.376 . S
C2219 H2206 0.930 . S
C2219 C2218 1.376 . S
C2219 C2220 1.388 . S
C2220 H2207 0.930 . S
C2220 C2219 1.388 . S
C2220 C2221 1.390 . S
C2221 C2220 1.390 . S
C2221 C2222 1.394 1_545 S
C2221 C2227 1.465 1_556 S
C2222 C2217 1.399 . S
C2222 C2221 1.394 1_565 S
C2222 C2223 1.516 1_455 S
C2223 C2222 1.516 1_655 S
C2223 C2224 1.502 . S
C2223 C2225 1.561 1_655 S
C2223 C2226 1.526 1_556 S
C2224 H2208 0.959 . S
C2224 H2209 0.959 . S
C2224 H2210 0.961 . S
C2224 C2223 1.502 . S
C2225 H2211 0.960 . S
C2225 H2212 0.961 1_456 S
C2225 H2213 0.959 1_556 S
C2225 C2223 1.561 1_455 S
C2226 C2223 1.526 1_554 S
C2226 C2227 1.396 1_665 S
C2226 C2231 1.390 . S
C2227 C2221 1.465 1_554 S
C2227 C2226 1.396 1_445 S
C2227 C2228 1.399 . S
C2228 H2214 0.929 . S
C2228 C2227 1.399 . S
C2228 C2229 1.385 1_455 S
C2229 H2215 0.931 . S
C2229 C2228 1.385 1_655 S
C2229 C2230 1.389 1_545 S
C2230 C2229 1.389 1_565 S
C2230 C2231 1.387 . S
C2231 H2216 0.930 . S
C2231 C2226 1.390 . S
C2231 C2230 1.387 . S
H2232 C2244 0.930 . S
H2233 C2246 0.930 . S
H2234 C2247 0.930 . S
H2235 C2251 0.959 . S
H2236 C2251 0.959 . S
H2237 C2251 0.961 . S
H2238 C2252 0.960 . S
H2239 C2252 0.961 . S
H2240 C2252 0.959 . S
H2241 C2255 0.929 . S
H2242 C2256 0.931 . S
H2243 C2258 0.930 . S
C2244 H2232 0.930 . S
C2244 C2245 1.399 . S
C2244 C2249 1.399 . S
C2245 C2244 1.399 . S
C2245 C2246 1.376 . S
C2246 H2233 0.930 . S
C2246 C2245 1.376 . S
C2246 C2247 1.388 . S
C2247 H2234 0.930 . S
C2247 C2246 1.388 . S
C2247 C2248 1.390 . S
C2248 C2247 1.390 . S
C2248 C2249 1.394 . S
C2248 C2254 1.465 . S
C2249 C2244 1.399 . S
C2249 C2248 1.394 . S
C2249 C2250 1.516 . S
C2250 C2249 1.516 . S
C2250 C2251 1.502 . S
C2250 C2252 1.561 . S
C2250 C2253 1.526 . S
C2251 H2235 0.959 . S
C2251 H2236 0.959 . S
C2251 H2237 0.961 . S
C2251 C2250 1.502 . S
C2252 H2238 0.960 . S
C2252 H2239 0.961 . S
C2252 H2240 0.959 . S
C2252 C2250 1.561 . S
C2253 C2250 1.526 . S
C2253 C2254 1.396 . S
C2253 C2258 1.390 . S
C2254 C2248 1.465 . S
C2254 C2253 1.396 . S
C2254 C2255 1.399 . S
C2255 H2241 0.929 . S
C2255 C2254 1.399 . S
C2255 C2256 1.385 . S
C2256 H2242 0.931 . S
C2256 C2255 1.385 . S
C2256 C2257 1.389 . S
C2257 C2256 1.389 . S
C2257 C2258 1.387 . S
C2258 H2243 0.930 . S
C2258 C2253 1.390 . S
C2258 C2257 1.387 . S
H2259 C2271 0.930 . S
H2260 C2273 0.930 . S
H2261 C2274 0.930 . S
H2262 C2278 0.959 . S
H2263 C2278 0.959 . S
H2264 C2278 0.961 . S
H2265 C2279 0.960 . S
H2266 C2279 0.961 . S
H2267 C2279 0.959 . S
H2268 C2282 0.929 . S
H2269 C2283 0.931 . S
H2270 C2285 0.930 . S
C2271 H2259 0.930 . S
C2271 C2272 1.399 . S
C2271 C2276 1.399 . S
C2272 C2271 1.399 . S
C2272 C2273 1.376 . S
C2273 H2260 0.930 . S
C2273 C2272 1.376 . S
C2273 C2274 1.388 . S
C2274 H2261 0.930 . S
C2274 C2273 1.388 . S
C2274 C2275 1.390 . S
C2275 C2274 1.390 . S
C2275 C2276 1.394 . S
C2275 C2281 1.465 . S
C2276 C2271 1.399 . S
C2276 C2275 1.394 . S
C2276 C2277 1.516 . S
C2277 C2276 1.516 . S
C2277 C2278 1.502 . S
C2277 C2279 1.561 . S
C2277 C2280 1.526 . S
C2278 H2262 0.959 . S
C2278 H2263 0.959 . S
C2278 H2264 0.961 . S
C2278 C2277 1.502 . S
C2279 H2265 0.960 . S
C2279 H2266 0.961 . S
C2279 H2267 0.959 . S
C2279 C2277 1.561 . S
C2280 C2277 1.526 . S
C2280 C2281 1.396 . S
C2280 C2285 1.390 . S
C2281 C2275 1.465 . S
C2281 C2280 1.396 . S
C2281 C2282 1.399 . S
C2282 H2268 0.929 . S
C2282 C2281 1.399 . S
C2282 C2283 1.385 . S
C2283 H2269 0.931 . S
C2283 C2282 1.385 . S
C2283 C2284 1.389 . S
C2284 C2283 1.389 . S
C2284 C2285 1.387 . S
C2285 H2270 0.930 . S
C2285 C2280 1.390 . S
C2285 C2284 1.387 . S
H2286 C2298 0.930 . S
H2287 C2300 0.930 . S
H2288 C2301 0.930 . S
H2289 C2305 0.959 . S
H2290 C2305 0.959 . S
H2291 C2305 0.961 . S
H2292 C2306 0.960 . S
H2293 C2306 0.961 . S
H2294 C2306 0.959 . S
H2295 C2309 0.929 . S
H2296 C2310 0.931 . S
H2297 C2312 0.930 . S
C2298 H2286 0.930 . S
C2298 C2299 1.399 . S
C2298 C2303 1.399 . S
C2299 C2298 1.399 . S
C2299 C2300 1.376 . S
C2300 H2287 0.930 . S
C2300 C2299 1.376 . S
C2300 C2301 1.388 . S
C2301 H2288 0.930 . S
C2301 C2300 1.388 . S
C2301 C2302 1.390 . S
C2302 C2301 1.390 . S
C2302 C2303 1.394 . S
C2302 C2308 1.465 . S
C2303 C2298 1.399 . S
C2303 C2302 1.394 . S
C2303 C2304 1.516 . S
C2304 C2303 1.516 . S
C2304 C2305 1.502 . S
C2304 C2306 1.561 . S
C2304 C2307 1.526 . S
C2305 H2289 0.959 . S
C2305 H2290 0.959 . S
C2305 H2291 0.961 . S
C2305 C2304 1.502 . S
C2306 H2292 0.960 . S
C2306 H2293 0.961 . S
C2306 H2294 0.959 . S
C2306 C2304 1.561 . S
C2307 C2304 1.526 . S
C2307 C2308 1.396 . S
C2307 C2312 1.390 . S
C2308 C2302 1.465 . S
C2308 C2307 1.396 . S
C2308 C2309 1.399 . S
C2309 H2295 0.929 . S
C2309 C2308 1.399 . S
C2309 C2310 1.385 . S
C2310 H2296 0.931 . S
C2310 C2309 1.385 . S
C2310 C2311 1.389 . S
C2311 C2310 1.389 . S
C2311 C2312 1.387 . S
C2312 H2297 0.930 . S
C2312 C2307 1.390 . S
C2312 C2311 1.387 . S
H2313 C2325 0.930 . S
H2314 C2327 0.930 . S
H2315 C2328 0.930 . S
H2316 C2332 0.959 . S
H2317 C2332 0.959 . S
H2318 C2332 0.961 . S
H2319 C2333 0.960 . S
H2320 C2333 0.961 . S
H2321 C2333 0.959 . S
H2322 C2336 0.929 . S
H2323 C2337 0.931 . S
H2324 C2339 0.930 . S
C2325 H2313 0.930 . S
C2325 C2326 1.399 . S
C2325 C2330 1.399 . S
C2326 C2325 1.399 . S
C2326 C2327 1.376 . S
C2327 H2314 0.930 . S
C2327 C2326 1.376 . S
C2327 C2328 1.388 . S
C2328 H2315 0.930 . S
C2328 C2327 1.388 . S
C2328 C2329 1.390 . S
C2329 C2328 1.390 . S
C2329 C2330 1.394 . S
C2329 C2335 1.465 . S
C2330 C2325 1.399 . S
C2330 C2329 1.394 . S
C2330 C2331 1.516 . S
C2331 C2330 1.516 . S
C2331 C2332 1.502 . S
C2331 C2333 1.561 . S
C2331 C2334 1.526 . S
C2332 H2316 0.959 . S
C2332 H2317 0.959 . S
C2332 H2318 0.961 . S
C2332 C2331 1.502 . S
C2333 H2319 0.960 . S
C2333 H2320 0.961 . S
C2333 H2321 0.959 . S
C2333 C2331 1.561 . S
C2334 C2331 1.526 . S
C2334 C2335 1.396 . S
C2334 C2339 1.390 . S
C2335 C2329 1.465 . S
C2335 C2334 1.396 . S
C2335 C2336 1.399 . S
C2336 H2322 0.929 . S
C2336 C2335 1.399 . S
C2336 C2337 1.385 . S
C2337 H2323 0.931 . S
C2337 C2336 1.385 . S
C2337 C2338 1.389 . S
C2338 C2337 1.389 . S
C2338 C2339 1.387 . S
C2339 H2324 0.930 . S
C2339 C2334 1.390 . S
C2339 C2338 1.387 . S
H2340 C2352 0.930 . S
H2341 C2354 0.930 . S
H2342 C2355 0.930 . S
H2343 C2359 0.959 . S
H2344 C2359 0.959 . S
H2345 C2359 0.961 . S
H2346 C2360 0.960 . S
H2347 C2360 0.961 . S
H2348 C2360 0.959 . S
H2349 C2363 0.929 . S
H2350 C2364 0.931 . S
H2351 C2366 0.930 . S
C2352 H2340 0.930 . S
C2352 C2353 1.399 . S
C2352 C2357 1.399 . S
C2353 C2352 1.399 . S
C2353 C2354 1.376 . S
C2354 H2341 0.930 . S
C2354 C2353 1.376 . S
C2354 C2355 1.388 . S
C2355 H2342 0.930 . S
C2355 C2354 1.388 . S
C2355 C2356 1.390 . S
C2356 C2355 1.390 . S
C2356 C2357 1.394 . S
C2356 C2362 1.465 1_554 S
C2357 C2352 1.399 . S
C2357 C2356 1.394 . S
C2357 C2358 1.516 . S
C2358 C2357 1.516 . S
C2358 C2359 1.502 . S
C2358 C2360 1.561 . S
C2358 C2361 1.526 1_554 S
C2359 H2343 0.959 . S
C2359 H2344 0.959 . S
C2359 H2345 0.961 . S
C2359 C2358 1.502 . S
C2360 H2346 0.960 . S
C2360 H2347 0.961 . S
C2360 H2348 0.959 . S
C2360 C2358 1.561 . S
C2361 C2358 1.526 1_556 S
C2361 C2362 1.396 . S
C2361 C2366 1.390 . S
C2362 C2356 1.465 1_556 S
C2362 C2361 1.396 . S
C2362 C2363 1.399 . S
C2363 H2349 0.929 . S
C2363 C2362 1.399 . S
C2363 C2364 1.385 . S
C2364 H2350 0.931 . S
C2364 C2363 1.385 . S
C2364 C2365 1.389 . S
C2365 C2364 1.389 . S
C2365 C2366 1.387 . S
C2366 H2351 0.930 . S
C2366 C2361 1.390 . S
C2366 C2365 1.387 . S
H2367 C2379 0.930 . S
H2368 C2381 0.924 1_655 S
H2369 C2382 0.930 . S
H2370 C2386 0.959 . S
H2371 C2386 0.959 . S
H2372 C2386 0.961 . S
H2373 C2387 0.960 1_455 S
H2374 C2387 0.961 . S
H2375 C2387 0.959 . S
H2376 C2390 0.929 . S
H2377 C2391 0.931 . S
H2378 C2393 0.930 . S
C2379 H2367 0.930 . S
C2379 C2380 1.399 . S
C2379 C2384 1.399 . S
C2380 C2379 1.399 . S
C2380 C2381 1.376 . S
C2381 H2368 0.924 1_455 S
C2381 C2380 1.376 . S
C2381 C2382 1.388 1_455 S
C2382 H2369 0.930 . S
C2382 C2381 1.388 1_655 S
C2382 C2383 1.390 . S
C2383 C2382 1.390 . S
C2383 C2384 1.394 1_655 S
C2383 C2389 1.465 . S
C2384 C2379 1.399 . S
C2384 C2383 1.394 1_455 S
C2384 C2385 1.516 . S
C2385 C2384 1.516 . S
C2385 C2386 1.502 . S
C2385 C2387 1.561 1_455 S
C2385 C2388 1.526 1_455 S
C2386 H2370 0.959 . S
C2386 H2371 0.959 . S
C2386 H2372 0.961 . S
C2386 C2385 1.502 . S
C2387 H2373 0.960 1_655 S
C2387 H2374 0.961 . S
C2387 H2375 0.959 . S
C2387 C2385 1.561 1_655 S
C2388 C2385 1.526 1_655 S
C2388 C2389 1.396 . S
C2388 C2393 1.390 . S
C2389 C2383 1.465 . S
C2389 C2388 1.396 . S
C2389 C2390 1.399 . S
C2390 H2376 0.929 . S
C2390 C2389 1.399 . S
C2390 C2391 1.385 . S
C2391 H2377 0.931 . S
C2391 C2390 1.385 . S
C2391 C2392 1.389 . S
C2392 C2391 1.389 . S
C2392 C2393 1.387 . S
C2393 H2378 0.930 . S
C2393 C2388 1.390 . S
C2393 C2392 1.387 . S
H2394 C2406 0.930 1_655 S
H2395 C2408 0.930 . S
H2396 C2409 0.930 . S
H2397 C2413 0.959 . S
H2398 C2413 0.959 . S
H2399 C2413 0.961 . S
H2400 C2414 0.977 . S
H2401 C2414 0.948 1_556 S
H2402 C2414 0.951 1_456 S
H2403 C2417 0.929 . S
H2404 C2418 0.931 . S
H2405 C2420 0.930 . S
C2406 H2394 0.930 1_455 S
C2406 C2407 1.399 . S
C2406 C2411 1.399 1_455 S
C2407 C2406 1.399 . S
C2407 C2408 1.376 . S
C2408 H2395 0.930 . S
C2408 C2407 1.376 . S
C2408 C2409 1.388 . S
C2409 H2396 0.930 . S
C2409 C2408 1.388 . S
C2409 C2410 1.390 . S
C2410 C2409 1.390 . S
C2410 C2411 1.394 1_455 S
C2410 C2416 1.465 1_554 S
C2411 C2406 1.399 1_655 S
C2411 C2410 1.394 1_655 S
C2411 C2412 1.516 . S
C2412 C2411 1.516 . S
C2412 C2413 1.502 . S
C2412 C2414 1.565 . S
C2412 C2415 1.526 1_554 S
C2413 H2397 0.959 . S
C2413 H2398 0.959 . S
C2413 H2399 0.961 . S
C2413 C2412 1.502 . S
C2414 H2400 0.977 . S
C2414 H2401 0.948 1_554 S
C2414 H2402 0.951 1_654 S
C2414 C2412 1.565 . S
C2415 C2412 1.526 1_556 S
C2415 C2416 1.396 1_655 S
C2415 C2420 1.390 . S
C2416 C2410 1.465 1_556 S
C2416 C2415 1.396 1_455 S
C2416 C2417 1.399 . S
C2417 H2403 0.929 . S
C2417 C2416 1.399 . S
C2417 C2418 1.385 . S
C2418 H2404 0.931 . S
C2418 C2417 1.385 . S
C2418 C2419 1.389 1_455 S
C2419 C2418 1.389 1_655 S
C2419 C2420 1.387 . S
C2420 H2405 0.930 . S
C2420 C2415 1.390 . S
C2420 C2419 1.387 . S
H2421 C2433 0.930 . S
H2422 C2435 0.930 . S
H2423 C2436 0.930 . S
H2424 C2440 0.959 . S
H2425 C2440 0.959 . S
H2426 C2440 0.961 . S
H2427 C2441 0.960 . S
H2428 C2441 0.961 . S
H2429 C2441 0.959 . S
H2430 C2444 0.929 . S
H2431 C2445 0.931 . S
H2432 C2447 0.930 . S
C2433 H2421 0.930 . S
C2433 C2434 1.399 . S
C2433 C2438 1.399 . S
C2434 C2433 1.399 . S
C2434 C2435 1.376 . S
C2435 H2422 0.930 . S
C2435 C2434 1.376 . S
C2435 C2436 1.388 . S
C2436 H2423 0.930 . S
C2436 C2435 1.388 . S
C2436 C2437 1.390 . S
C2437 C2436 1.390 . S
C2437 C2438 1.394 . S
C2437 C2443 1.465 . S
C2438 C2433 1.399 . S
C2438 C2437 1.394 . S
C2438 C2439 1.516 . S
C2439 C2438 1.516 . S
C2439 C2440 1.502 . S
C2439 C2441 1.561 . S
C2439 C2442 1.526 . S
C2440 H2424 0.959 . S
C2440 H2425 0.959 . S
C2440 H2426 0.961 . S
C2440 C2439 1.502 . S
C2441 H2427 0.960 . S
C2441 H2428 0.961 . S
C2441 H2429 0.959 . S
C2441 C2439 1.561 . S
C2442 C2439 1.526 . S
C2442 C2443 1.396 . S
C2442 C2447 1.390 . S
C2443 C2437 1.465 . S
C2443 C2442 1.396 . S
C2443 C2444 1.399 . S
C2444 H2430 0.929 . S
C2444 C2443 1.399 . S
C2444 C2445 1.385 . S
C2445 H2431 0.931 . S
C2445 C2444 1.385 . S
C2445 C2446 1.389 . S
C2446 C2445 1.389 . S
C2446 C2447 1.387 . S
C2447 H2432 0.930 . S
C2447 C2442 1.390 . S
C2447 C2446 1.387 . S
H2448 C2460 0.930 . S
H2449 C2462 0.930 . S
H2450 C2463 0.930 . S
H2451 C2467 0.959 . S
H2452 C2467 0.959 . S
H2453 C2467 0.961 . S
H2454 C2468 0.960 . S
H2455 C2468 0.961 . S
H2456 C2468 0.959 . S
H2457 C2471 0.929 . S
H2458 C2472 0.931 . S
H2459 C2474 0.930 . S
C2460 H2448 0.930 . S
C2460 C2461 1.399 . S
C2460 C2465 1.399 . S
C2461 C2460 1.399 . S
C2461 C2462 1.376 . S
C2462 H2449 0.930 . S
C2462 C2461 1.376 . S
C2462 C2463 1.388 . S
C2463 H2450 0.930 . S
C2463 C2462 1.388 . S
C2463 C2464 1.390 . S
C2464 C2463 1.390 . S
C2464 C2465 1.394 . S
C2464 C2470 1.465 . S
C2465 C2460 1.399 . S
C2465 C2464 1.394 . S
C2465 C2466 1.516 . S
C2466 C2465 1.516 . S
C2466 C2467 1.502 . S
C2466 C2468 1.561 . S
C2466 C2469 1.526 . S
C2467 H2451 0.959 . S
C2467 H2452 0.959 . S
C2467 H2453 0.961 . S
C2467 C2466 1.502 . S
C2468 H2454 0.960 . S
C2468 H2455 0.961 . S
C2468 H2456 0.959 . S
C2468 C2466 1.561 . S
C2469 C2466 1.526 . S
C2469 C2470 1.396 . S
C2469 C2474 1.390 . S
C2470 C2464 1.465 . S
C2470 C2469 1.396 . S
C2470 C2471 1.399 . S
C2471 H2457 0.929 . S
C2471 C2470 1.399 . S
C2471 C2472 1.385 . S
C2472 H2458 0.931 . S
C2472 C2471 1.385 . S
C2472 C2473 1.389 . S
C2473 C2472 1.389 . S
C2473 C2474 1.387 . S
C2474 H2459 0.930 . S
C2474 C2469 1.390 . S
C2474 C2473 1.387 . S
H2475 C2487 0.930 . S
H2476 C2489 0.930 . S
H2477 C2490 0.930 . S
H2478 C2494 0.959 . S
H2479 C2494 0.959 . S
H2480 C2494 0.961 . S
H2481 C2495 0.960 . S
H2482 C2495 0.961 . S
H2483 C2495 0.959 . S
H2484 C2498 0.929 . S
H2485 C2499 0.931 . S
H2486 C2501 0.930 . S
C2487 H2475 0.930 . S
C2487 C2488 1.399 . S
C2487 C2492 1.399 . S
C2488 C2487 1.399 . S
C2488 C2489 1.376 . S
C2489 H2476 0.930 . S
C2489 C2488 1.376 . S
C2489 C2490 1.388 . S
C2490 H2477 0.930 . S
C2490 C2489 1.388 . S
C2490 C2491 1.390 . S
C2491 C2490 1.390 . S
C2491 C2492 1.394 . S
C2491 C2497 1.465 . S
C2492 C2487 1.399 . S
C2492 C2491 1.394 . S
C2492 C2493 1.516 . S
C2493 C2492 1.516 . S
C2493 C2494 1.502 . S
C2493 C2495 1.561 . S
C2493 C2496 1.526 . S
C2494 H2478 0.959 . S
C2494 H2479 0.959 . S
C2494 H2480 0.961 . S
C2494 C2493 1.502 . S
C2495 H2481 0.960 . S
C2495 H2482 0.961 . S
C2495 H2483 0.959 . S
C2495 C2493 1.561 . S
C2496 C2493 1.526 . S
C2496 C2497 1.396 . S
C2496 C2501 1.390 . S
C2497 C2491 1.465 . S
C2497 C2496 1.396 . S
C2497 C2498 1.399 . S
C2498 H2484 0.929 . S
C2498 C2497 1.399 . S
C2498 C2499 1.385 . S
C2499 H2485 0.931 . S
C2499 C2498 1.385 . S
C2499 C2500 1.389 . S
C2500 C2499 1.389 . S
C2500 C2501 1.387 . S
C2501 H2486 0.930 . S
C2501 C2496 1.390 . S
C2501 C2500 1.387 . S
H2502 C2514 0.930 . S
H2503 C2516 0.930 . S
H2504 C2517 0.930 . S
H2505 C2521 0.959 . S
H2506 C2521 0.959 . S
H2507 C2521 0.961 . S
H2508 C2522 0.960 . S
H2509 C2522 0.961 . S
H2510 C2522 0.959 . S
H2511 C2525 0.929 . S
H2512 C2526 0.931 . S
H2513 C2528 0.930 . S
C2514 H2502 0.930 . S
C2514 C2515 1.399 . S
C2514 C2519 1.399 . S
C2515 C2514 1.399 . S
C2515 C2516 1.376 . S
C2516 H2503 0.930 . S
C2516 C2515 1.376 . S
C2516 C2517 1.388 . S
C2517 H2504 0.930 . S
C2517 C2516 1.388 . S
C2517 C2518 1.390 . S
C2518 C2517 1.390 . S
C2518 C2519 1.394 . S
C2518 C2524 1.465 . S
C2519 C2514 1.399 . S
C2519 C2518 1.394 . S
C2519 C2520 1.516 . S
C2520 C2519 1.516 . S
C2520 C2521 1.502 . S
C2520 C2522 1.561 . S
C2520 C2523 1.526 . S
C2521 H2505 0.959 . S
C2521 H2506 0.959 . S
C2521 H2507 0.961 . S
C2521 C2520 1.502 . S
C2522 H2508 0.960 . S
C2522 H2509 0.961 . S
C2522 H2510 0.959 . S
C2522 C2520 1.561 . S
C2523 C2520 1.526 . S
C2523 C2524 1.396 . S
C2523 C2528 1.390 . S
C2524 C2518 1.465 . S
C2524 C2523 1.396 . S
C2524 C2525 1.399 . S
C2525 H2511 0.929 . S
C2525 C2524 1.399 . S
C2525 C2526 1.385 . S
C2526 H2512 0.931 . S
C2526 C2525 1.385 . S
C2526 C2527 1.389 . S
C2527 C2526 1.389 . S
C2527 C2528 1.387 . S
C2528 H2513 0.930 . S
C2528 C2523 1.390 . S
C2528 C2527 1.387 . S
H2529 C2541 0.930 . S
H2530 C2543 0.930 . S
H2531 C2544 0.930 . S
H2532 C2548 0.959 . S
H2533 C2548 0.959 . S
H2534 C2548 0.961 . S
H2535 C2549 0.960 . S
H2536 C2549 0.961 . S
H2537 C2549 0.959 . S
H2538 C2552 0.929 . S
H2539 C2553 0.931 . S
H2540 C2555 0.930 . S
C2541 H2529 0.930 . S
C2541 C2542 1.399 . S
C2541 C2546 1.399 . S
C2542 C2541 1.399 . S
C2542 C2543 1.376 . S
C2543 H2530 0.930 . S
C2543 C2542 1.376 . S
C2543 C2544 1.388 . S
C2544 H2531 0.930 . S
C2544 C2543 1.388 . S
C2544 C2545 1.390 . S
C2545 C2544 1.390 . S
C2545 C2546 1.394 . S
C2545 C2551 1.465 . S
C2546 C2541 1.399 . S
C2546 C2545 1.394 . S
C2546 C2547 1.516 . S
C2547 C2546 1.516 . S
C2547 C2548 1.502 . S
C2547 C2549 1.561 . S
C2547 C2550 1.526 . S
C2548 H2532 0.959 . S
C2548 H2533 0.959 . S
C2548 H2534 0.961 . S
C2548 C2547 1.502 . S
C2549 H2535 0.960 . S
C2549 H2536 0.961 . S
C2549 H2537 0.959 . S
C2549 C2547 1.561 . S
C2550 C2547 1.526 . S
C2550 C2551 1.396 . S
C2550 C2555 1.390 . S
C2551 C2545 1.465 . S
C2551 C2550 1.396 . S
C2551 C2552 1.399 . S
C2552 H2538 0.929 . S
C2552 C2551 1.399 . S
C2552 C2553 1.385 . S
C2553 H2539 0.931 . S
C2553 C2552 1.385 . S
C2553 C2554 1.389 . S
C2554 C2553 1.389 . S
C2554 C2555 1.387 . S
C2555 H2540 0.930 . S
C2555 C2550 1.390 . S
C2555 C2554 1.387 . S
H2556 C2568 0.930 . S
H2557 C2570 0.930 . S
H2558 C2571 0.930 . S
H2559 C2575 0.959 . S
H2560 C2575 0.959 . S
H2561 C2575 0.961 . S
H2562 C2576 0.960 . S
H2563 C2576 0.961 . S
H2564 C2576 0.959 . S
H2565 C2579 0.929 . S
H2566 C2580 0.931 . S
H2567 C2582 0.930 . S
C2568 H2556 0.930 . S
C2568 C2569 1.399 . S
C2568 C2573 1.399 . S
C2569 C2568 1.399 . S
C2569 C2570 1.376 . S
C2570 H2557 0.930 . S
C2570 C2569 1.376 . S
C2570 C2571 1.388 . S
C2571 H2558 0.930 . S
C2571 C2570 1.388 . S
C2571 C2572 1.390 . S
C2572 C2571 1.390 . S
C2572 C2573 1.394 . S
C2572 C2578 1.465 . S
C2573 C2568 1.399 . S
C2573 C2572 1.394 . S
C2573 C2574 1.516 . S
C2574 C2573 1.516 . S
C2574 C2575 1.502 . S
C2574 C2576 1.561 . S
C2574 C2577 1.526 . S
C2575 H2559 0.959 . S
C2575 H2560 0.959 . S
C2575 H2561 0.961 . S
C2575 C2574 1.502 . S
C2576 H2562 0.960 . S
C2576 H2563 0.961 . S
C2576 H2564 0.959 . S
C2576 C2574 1.561 . S
C2577 C2574 1.526 . S
C2577 C2578 1.396 . S
C2577 C2582 1.390 . S
C2578 C2572 1.465 . S
C2578 C2577 1.396 . S
C2578 C2579 1.399 . S
C2579 H2565 0.929 . S
C2579 C2578 1.399 . S
C2579 C2580 1.385 . S
C2580 H2566 0.931 . S
C2580 C2579 1.385 . S
C2580 C2581 1.389 . S
C2581 C2580 1.389 . S
C2581 C2582 1.387 . S
C2582 H2567 0.930 . S
C2582 C2577 1.390 . S
C2582 C2581 1.387 . S
H2583 C2595 0.930 . S
H2584 C2597 0.930 . S
H2585 C2598 0.930 . S
H2586 C2602 0.959 . S
H2587 C2602 0.959 . S
H2588 C2602 0.961 . S
H2589 C2603 0.960 . S
H2590 C2603 0.961 . S
H2591 C2603 0.959 . S
H2592 C2606 0.929 . S
H2593 C2607 0.931 . S
H2594 C2609 0.930 . S
C2595 H2583 0.930 . S
C2595 C2596 1.399 . S
C2595 C2600 1.399 . S
C2596 C2595 1.399 . S
C2596 C2597 1.376 . S
C2597 H2584 0.930 . S
C2597 C2596 1.376 . S
C2597 C2598 1.388 . S
C2598 H2585 0.930 . S
C2598 C2597 1.388 . S
C2598 C2599 1.390 . S
C2599 C2598 1.390 . S
C2599 C2600 1.394 . S
C2599 C2605 1.465 . S
C2600 C2595 1.399 . S
C2600 C2599 1.394 . S
C2600 C2601 1.516 . S
C2601 C2600 1.516 . S
C2601 C2602 1.502 . S
C2601 C2603 1.561 . S
C2601 C2604 1.526 . S
C2602 H2586 0.959 . S
C2602 H2587 0.959 . S
C2602 H2588 0.961 . S
C2602 C2601 1.502 . S
C2603 H2589 0.960 . S
C2603 H2590 0.961 . S
C2603 H2591 0.959 . S
C2603 C2601 1.561 . S
C2604 C2601 1.526 . S
C2604 C2605 1.396 . S
C2604 C2609 1.390 . S
C2605 C2599 1.465 . S
C2605 C2604 1.396 . S
C2605 C2606 1.399 . S
C2606 H2592 0.929 . S
C2606 C2605 1.399 . S
C2606 C2607 1.385 . S
C2607 H2593 0.931 . S
C2607 C2606 1.385 . S
C2607 C2608 1.389 . S
C2608 C2607 1.389 . S
C2608 C2609 1.387 . S
C2609 H2594 0.930 . S
C2609 C2604 1.390 . S
C2609 C2608 1.387 . S
H2610 C2622 0.930 . S
H2611 C2624 0.930 . S
H2612 C2625 0.930 . S
H2613 C2629 0.959 . S
H2614 C2629 0.959 . S
H2615 C2629 0.961 . S
H2616 C2630 0.960 . S
H2617 C2630 0.961 . S
H2618 C2630 0.959 . S
H2619 C2633 0.929 . S
H2620 C2634 0.931 . S
H2621 C2636 0.930 . S
C2622 H2610 0.930 . S
C2622 C2623 1.399 . S
C2622 C2627 1.399 . S
C2623 C2622 1.399 . S
C2623 C2624 1.376 . S
C2624 H2611 0.930 . S
C2624 C2623 1.376 . S
C2624 C2625 1.388 . S
C2625 H2612 0.930 . S
C2625 C2624 1.388 . S
C2625 C2626 1.390 . S
C2626 C2625 1.390 . S
C2626 C2627 1.394 . S
C2626 C2632 1.465 . S
C2627 C2622 1.399 . S
C2627 C2626 1.394 . S
C2627 C2628 1.516 . S
C2628 C2627 1.516 . S
C2628 C2629 1.502 . S
C2628 C2630 1.561 . S
C2628 C2631 1.526 . S
C2629 H2613 0.959 . S
C2629 H2614 0.959 . S
C2629 H2615 0.961 . S
C2629 C2628 1.502 . S
C2630 H2616 0.960 . S
C2630 H2617 0.961 . S
C2630 H2618 0.959 . S
C2630 C2628 1.561 . S
C2631 C2628 1.526 . S
C2631 C2632 1.396 . S
C2631 C2636 1.390 . S
C2632 C2626 1.465 . S
C2632 C2631 1.396 . S
C2632 C2633 1.399 . S
C2633 H2619 0.929 . S
C2633 C2632 1.399 . S
C2633 C2634 1.385 . S
C2634 H2620 0.931 . S
C2634 C2633 1.385 . S
C2634 C2635 1.389 . S
C2635 C2634 1.389 . S
C2635 C2636 1.387 . S
C2636 H2621 0.930 . S
C2636 C2631 1.390 . S
C2636 C2635 1.387 . S
H2637 C2649 0.930 . S
H2638 C2651 0.930 . S
H2639 C2652 0.930 . S
H2640 C2656 0.959 . S
H2641 C2656 0.959 . S
H2642 C2656 0.961 . S
H2643 C2657 0.960 . S
H2644 C2657 0.961 . S
H2645 C2657 0.959 . S
H2646 C2660 0.929 . S
H2647 C2661 0.931 . S
H2648 C2663 0.930 . S
C2649 H2637 0.930 . S
C2649 C2650 1.399 . S
C2649 C2654 1.399 . S
C2650 C2649 1.399 . S
C2650 C2651 1.376 . S
C2651 H2638 0.930 . S
C2651 C2650 1.376 . S
C2651 C2652 1.388 . S
C2652 H2639 0.930 . S
C2652 C2651 1.388 . S
C2652 C2653 1.390 . S
C2653 C2652 1.390 . S
C2653 C2654 1.394 . S
C2653 C2659 1.465 . S
C2654 C2649 1.399 . S
C2654 C2653 1.394 . S
C2654 C2655 1.516 . S
C2655 C2654 1.516 . S
C2655 C2656 1.502 . S
C2655 C2657 1.561 . S
C2655 C2658 1.526 . S
C2656 H2640 0.959 . S
C2656 H2641 0.959 . S
C2656 H2642 0.961 . S
C2656 C2655 1.502 . S
C2657 H2643 0.960 . S
C2657 H2644 0.961 . S
C2657 H2645 0.959 . S
C2657 C2655 1.561 . S
C2658 C2655 1.526 . S
C2658 C2659 1.396 . S
C2658 C2663 1.390 . S
C2659 C2653 1.465 . S
C2659 C2658 1.396 . S
C2659 C2660 1.399 . S
C2660 H2646 0.929 . S
C2660 C2659 1.399 . S
C2660 C2661 1.385 . S
C2661 H2647 0.931 . S
C2661 C2660 1.385 . S
C2661 C2662 1.389 . S
C2662 C2661 1.389 . S
C2662 C2663 1.387 . S
C2663 H2648 0.930 . S
C2663 C2658 1.390 . S
C2663 C2662 1.387 . S
H2664 C2676 0.930 . S
H2665 C2678 0.930 . S
H2666 C2679 0.930 . S
H2667 C2683 0.959 . S
H2668 C2683 0.959 . S
H2669 C2683 0.961 . S
H2670 C2684 0.960 . S
H2671 C2684 0.961 . S
H2672 C2684 0.959 . S
H2673 C2687 0.929 . S
H2674 C2688 0.931 . S
H2675 C2690 0.930 . S
C2676 H2664 0.930 . S
C2676 C2677 1.399 . S
C2676 C2681 1.399 . S
C2677 C2676 1.399 . S
C2677 C2678 1.376 . S
C2678 H2665 0.930 . S
C2678 C2677 1.376 . S
C2678 C2679 1.388 . S
C2679 H2666 0.930 . S
C2679 C2678 1.388 . S
C2679 C2680 1.390 . S
C2680 C2679 1.390 . S
C2680 C2681 1.394 . S
C2680 C2686 1.465 . S
C2681 C2676 1.399 . S
C2681 C2680 1.394 . S
C2681 C2682 1.516 . S
C2682 C2681 1.516 . S
C2682 C2683 1.502 . S
C2682 C2684 1.561 . S
C2682 C2685 1.526 . S
C2683 H2667 0.959 . S
C2683 H2668 0.959 . S
C2683 H2669 0.961 . S
C2683 C2682 1.502 . S
C2684 H2670 0.960 . S
C2684 H2671 0.961 . S
C2684 H2672 0.959 . S
C2684 C2682 1.561 . S
C2685 C2682 1.526 . S
C2685 C2686 1.396 . S
C2685 C2690 1.390 . S
C2686 C2680 1.465 . S
C2686 C2685 1.396 . S
C2686 C2687 1.399 . S
C2687 H2673 0.929 . S
C2687 C2686 1.399 . S
C2687 C2688 1.385 . S
C2688 H2674 0.931 . S
C2688 C2687 1.385 . S
C2688 C2689 1.389 . S
C2689 C2688 1.389 . S
C2689 C2690 1.387 . S
C2690 H2675 0.930 . S
C2690 C2685 1.390 . S
C2690 C2689 1.387 . S
H2691 C2703 0.930 . S
H2692 C2705 0.930 . S
H2693 C2706 0.930 . S
H2694 C2710 0.959 . S
H2695 C2710 0.959 . S
H2696 C2710 0.961 . S
H2697 C2711 0.960 . S
H2698 C2711 0.961 . S
H2699 C2711 0.959 . S
H2700 C2714 0.929 . S
H2701 C2715 0.931 . S
H2702 C2717 0.930 . S
C2703 H2691 0.930 . S
C2703 C2704 1.399 . S
C2703 C2708 1.399 . S
C2704 C2703 1.399 . S
C2704 C2705 1.376 . S
C2705 H2692 0.930 . S
C2705 C2704 1.376 . S
C2705 C2706 1.388 . S
C2706 H2693 0.930 . S
C2706 C2705 1.388 . S
C2706 C2707 1.390 . S
C2707 C2706 1.390 . S
C2707 C2708 1.394 . S
C2707 C2713 1.465 . S
C2708 C2703 1.399 . S
C2708 C2707 1.394 . S
C2708 C2709 1.516 . S
C2709 C2708 1.516 . S
C2709 C2710 1.502 . S
C2709 C2711 1.561 . S
C2709 C2712 1.526 . S
C2710 H2694 0.959 . S
C2710 H2695 0.959 . S
C2710 H2696 0.961 . S
C2710 C2709 1.502 . S
C2711 H2697 0.960 . S
C2711 H2698 0.961 . S
C2711 H2699 0.959 . S
C2711 C2709 1.561 . S
C2712 C2709 1.526 . S
C2712 C2713 1.396 . S
C2712 C2717 1.390 . S
C2713 C2707 1.465 . S
C2713 C2712 1.396 . S
C2713 C2714 1.399 . S
C2714 H2700 0.929 . S
C2714 C2713 1.399 . S
C2714 C2715 1.385 . S
C2715 H2701 0.931 . S
C2715 C2714 1.385 . S
C2715 C2716 1.389 . S
C2716 C2715 1.389 . S
C2716 C2717 1.387 . S
C2717 H2702 0.930 . S
C2717 C2712 1.390 . S
C2717 C2716 1.387 . S
H2718 C2730 0.930 . S
H2719 C2732 0.930 . S
H2720 C2733 0.930 . S
H2721 C2737 0.959 . S
H2722 C2737 0.959 . S
H2723 C2737 0.961 . S
H2724 C2738 0.960 . S
H2725 C2738 0.961 . S
H2726 C2738 0.959 . S
H2727 C2741 0.929 . S
H2728 C2742 0.931 . S
H2729 C2744 0.930 . S
C2730 H2718 0.930 . S
C2730 C2731 1.399 . S
C2730 C2735 1.399 . S
C2731 C2730 1.399 . S
C2731 C2732 1.376 . S
C2732 H2719 0.930 . S
C2732 C2731 1.376 . S
C2732 C2733 1.388 . S
C2733 H2720 0.930 . S
C2733 C2732 1.388 . S
C2733 C2734 1.390 . S
C2734 C2733 1.390 . S
C2734 C2735 1.394 . S
C2734 C2740 1.465 . S
C2735 C2730 1.399 . S
C2735 C2734 1.394 . S
C2735 C2736 1.516 . S
C2736 C2735 1.516 . S
C2736 C2737 1.502 . S
C2736 C2738 1.561 . S
C2736 C2739 1.526 . S
C2737 H2721 0.959 . S
C2737 H2722 0.959 . S
C2737 H2723 0.961 . S
C2737 C2736 1.502 . S
C2738 H2724 0.960 . S
C2738 H2725 0.961 . S
C2738 H2726 0.959 . S
C2738 C2736 1.561 . S
C2739 C2736 1.526 . S
C2739 C2740 1.396 . S
C2739 C2744 1.390 . S
C2740 C2734 1.465 . S
C2740 C2739 1.396 . S
C2740 C2741 1.399 . S
C2741 H2727 0.929 . S
C2741 C2740 1.399 . S
C2741 C2742 1.385 . S
C2742 H2728 0.931 . S
C2742 C2741 1.385 . S
C2742 C2743 1.389 . S
C2743 C2742 1.389 . S
C2743 C2744 1.387 . S
C2744 H2729 0.930 . S
C2744 C2739 1.390 . S
C2744 C2743 1.387 . S
H2745 C2757 0.930 . S
H2746 C2759 0.930 . S
H2747 C2760 0.930 . S
H2748 C2764 0.959 . S
H2749 C2764 0.959 . S
H2750 C2764 0.961 . S
H2751 C2765 0.960 . S
H2752 C2765 0.961 . S
H2753 C2765 0.959 . S
H2754 C2768 0.929 . S
H2755 C2769 0.931 . S
H2756 C2771 0.930 . S
C2757 H2745 0.930 . S
C2757 C2758 1.399 . S
C2757 C2762 1.399 . S
C2758 C2757 1.399 . S
C2758 C2759 1.376 . S
C2759 H2746 0.930 . S
C2759 C2758 1.376 . S
C2759 C2760 1.388 . S
C2760 H2747 0.930 . S
C2760 C2759 1.388 . S
C2760 C2761 1.390 . S
C2761 C2760 1.390 . S
C2761 C2762 1.394 . S
C2761 C2767 1.465 . S
C2762 C2757 1.399 . S
C2762 C2761 1.394 . S
C2762 C2763 1.516 . S
C2763 C2762 1.516 . S
C2763 C2764 1.502 . S
C2763 C2765 1.561 . S
C2763 C2766 1.526 . S
C2764 H2748 0.959 . S
C2764 H2749 0.959 . S
C2764 H2750 0.961 . S
C2764 C2763 1.502 . S
C2765 H2751 0.960 . S
C2765 H2752 0.961 . S
C2765 H2753 0.959 . S
C2765 C2763 1.561 . S
C2766 C2763 1.526 . S
C2766 C2767 1.396 . S
C2766 C2771 1.390 . S
C2767 C2761 1.465 . S
C2767 C2766 1.396 . S
C2767 C2768 1.399 . S
C2768 H2754 0.929 . S
C2768 C2767 1.399 . S
C2768 C2769 1.385 . S
C2769 H2755 0.931 . S
C2769 C2768 1.385 . S
C2769 C2770 1.389 . S
C2770 C2769 1.389 . S
C2770 C2771 1.387 . S
C2771 H2756 0.930 . S
C2771 C2766 1.390 . S
C2771 C2770 1.387 . S
H2772 C2784 0.930 . S
H2773 C2786 0.930 . S
H2774 C2787 0.930 . S
H2775 C2791 0.959 . S
H2776 C2791 0.959 . S
H2777 C2791 0.961 . S
H2778 C2792 0.960 . S
H2779 C2792 0.961 . S
H2780 C2792 0.959 . S
H2781 C2795 0.929 . S
H2782 C2796 0.931 . S
H2783 C2798 0.930 . S
C2784 H2772 0.930 . S
C2784 C2785 1.399 . S
C2784 C2789 1.399 . S
C2785 C2784 1.399 . S
C2785 C2786 1.376 . S
C2786 H2773 0.930 . S
C2786 C2785 1.376 . S
C2786 C2787 1.388 . S
C2787 H2774 0.930 . S
C2787 C2786 1.388 . S
C2787 C2788 1.390 . S
C2788 C2787 1.390 . S
C2788 C2789 1.394 . S
C2788 C2794 1.465 . S
C2789 C2784 1.399 . S
C2789 C2788 1.394 . S
C2789 C2790 1.516 . S
C2790 C2789 1.516 . S
C2790 C2791 1.502 . S
C2790 C2792 1.561 . S
C2790 C2793 1.526 . S
C2791 H2775 0.959 . S
C2791 H2776 0.959 . S
C2791 H2777 0.961 . S
C2791 C2790 1.502 . S
C2792 H2778 0.960 . S
C2792 H2779 0.961 . S
C2792 H2780 0.959 . S
C2792 C2790 1.561 . S
C2793 C2790 1.526 . S
C2793 C2794 1.396 . S
C2793 C2798 1.390 . S
C2794 C2788 1.465 . S
C2794 C2793 1.396 . S
C2794 C2795 1.399 . S
C2795 H2781 0.929 . S
C2795 C2794 1.399 . S
C2795 C2796 1.385 . S
C2796 H2782 0.931 . S
C2796 C2795 1.385 . S
C2796 C2797 1.389 . S
C2797 C2796 1.389 . S
C2797 C2798 1.387 . S
C2798 H2783 0.930 . S
C2798 C2793 1.390 . S
C2798 C2797 1.387 . S
H2799 C2811 0.930 . S
H2800 C2813 0.930 . S
H2801 C2814 0.930 . S
H2802 C2818 0.959 . S
H2803 C2818 0.959 . S
H2804 C2818 0.961 . S
H2805 C2819 0.960 . S
H2806 C2819 0.961 . S
H2807 C2819 0.959 . S
H2808 C2822 0.929 . S
H2809 C2823 0.931 . S
H2810 C2825 0.930 . S
C2811 H2799 0.930 . S
C2811 C2812 1.399 . S
C2811 C2816 1.399 . S
C2812 C2811 1.399 . S
C2812 C2813 1.376 . S
C2813 H2800 0.930 . S
C2813 C2812 1.376 . S
C2813 C2814 1.388 . S
C2814 H2801 0.930 . S
C2814 C2813 1.388 . S
C2814 C2815 1.390 . S
C2815 C2814 1.390 . S
C2815 C2816 1.394 . S
C2815 C2821 1.465 . S
C2816 C2811 1.399 . S
C2816 C2815 1.394 . S
C2816 C2817 1.516 . S
C2817 C2816 1.516 . S
C2817 C2818 1.502 . S
C2817 C2819 1.561 . S
C2817 C2820 1.526 . S
C2818 H2802 0.959 . S
C2818 H2803 0.959 . S
C2818 H2804 0.961 . S
C2818 C2817 1.502 . S
C2819 H2805 0.960 . S
C2819 H2806 0.961 . S
C2819 H2807 0.959 . S
C2819 C2817 1.561 . S
C2820 C2817 1.526 . S
C2820 C2821 1.396 . S
C2820 C2825 1.390 . S
C2821 C2815 1.465 . S
C2821 C2820 1.396 . S
C2821 C2822 1.399 . S
C2822 H2808 0.929 . S
C2822 C2821 1.399 . S
C2822 C2823 1.385 . S
C2823 H2809 0.931 . S
C2823 C2822 1.385 . S
C2823 C2824 1.389 . S
C2824 C2823 1.389 . S
C2824 C2825 1.387 . S
C2825 H2810 0.930 . S
C2825 C2820 1.390 . S
C2825 C2824 1.387 . S
H2826 C2838 0.930 . S
H2827 C2840 0.930 . S
H2828 C2841 0.930 . S
H2829 C2845 0.959 . S
H2830 C2845 0.959 . S
H2831 C2845 0.961 . S
H2832 C2846 0.960 . S
H2833 C2846 0.961 . S
H2834 C2846 0.959 . S
H2835 C2849 0.929 . S
H2836 C2850 0.931 . S
H2837 C2852 0.930 . S
C2838 H2826 0.930 . S
C2838 C2839 1.399 . S
C2838 C2843 1.399 . S
C2839 C2838 1.399 . S
C2839 C2840 1.376 . S
C2840 H2827 0.930 . S
C2840 C2839 1.376 . S
C2840 C2841 1.388 . S
C2841 H2828 0.930 . S
C2841 C2840 1.388 . S
C2841 C2842 1.390 . S
C2842 C2841 1.390 . S
C2842 C2843 1.394 . S
C2842 C2848 1.465 . S
C2843 C2838 1.399 . S
C2843 C2842 1.394 . S
C2843 C2844 1.516 . S
C2844 C2843 1.516 . S
C2844 C2845 1.502 . S
C2844 C2846 1.561 . S
C2844 C2847 1.526 . S
C2845 H2829 0.959 . S
C2845 H2830 0.959 . S
C2845 H2831 0.961 . S
C2845 C2844 1.502 . S
C2846 H2832 0.960 . S
C2846 H2833 0.961 . S
C2846 H2834 0.959 . S
C2846 C2844 1.561 . S
C2847 C2844 1.526 . S
C2847 C2848 1.396 . S
C2847 C2852 1.390 . S
C2848 C2842 1.465 . S
C2848 C2847 1.396 . S
C2848 C2849 1.399 . S
C2849 H2835 0.929 . S
C2849 C2848 1.399 . S
C2849 C2850 1.385 . S
C2850 H2836 0.931 . S
C2850 C2849 1.385 . S
C2850 C2851 1.389 . S
C2851 C2850 1.389 . S
C2851 C2852 1.387 . S
C2852 H2837 0.930 . S
C2852 C2847 1.390 . S
C2852 C2851 1.387 . S
H2853 C2865 0.930 . S
H2854 C2867 0.930 . S
H2855 C2868 0.930 . S
H2856 C2872 0.959 . S
H2857 C2872 0.959 . S
H2858 C2872 0.961 . S
H2859 C2873 0.960 . S
H2860 C2873 0.961 . S
H2861 C2873 0.959 . S
H2862 C2876 0.929 . S
H2863 C2877 0.931 . S
H2864 C2879 0.930 . S
C2865 H2853 0.930 . S
C2865 C2866 1.399 . S
C2865 C2870 1.399 . S
C2866 C2865 1.399 . S
C2866 C2867 1.376 . S
C2867 H2854 0.930 . S
C2867 C2866 1.376 . S
C2867 C2868 1.388 . S
C2868 H2855 0.930 . S
C2868 C2867 1.388 . S
C2868 C2869 1.390 . S
C2869 C2868 1.390 . S
C2869 C2870 1.394 . S
C2869 C2875 1.465 . S
C2870 C2865 1.399 . S
C2870 C2869 1.394 . S
C2870 C2871 1.516 . S
C2871 C2870 1.516 . S
C2871 C2872 1.502 . S
C2871 C2873 1.561 . S
C2871 C2874 1.526 . S
C2872 H2856 0.959 . S
C2872 H2857 0.959 . S
C2872 H2858 0.961 . S
C2872 C2871 1.502 . S
C2873 H2859 0.960 . S
C2873 H2860 0.961 . S
C2873 H2861 0.959 . S
C2873 C2871 1.561 . S
C2874 C2871 1.526 . S
C2874 C2875 1.396 . S
C2874 C2879 1.390 . S
C2875 C2869 1.465 . S
C2875 C2874 1.396 . S
C2875 C2876 1.399 . S
C2876 H2862 0.929 . S
C2876 C2875 1.399 . S
C2876 C2877 1.385 . S
C2877 H2863 0.931 . S
C2877 C2876 1.385 . S
C2877 C2878 1.389 . S
C2878 C2877 1.389 . S
C2878 C2879 1.387 . S
C2879 H2864 0.930 . S
C2879 C2874 1.390 . S
C2879 C2878 1.387 . S
C1165 C974 1.337 . S
C1177 C4 1.271 . S
C1192 C40 1.296 . S
C1204 C290 1.303 . S
C1219 C902 1.313 . S
C1231 C76 1.262 . S
C1246 C112 1.264 . S
C1258 C362 1.311 . S
C1273 C148 1.282 . S
C1285 C1046 1.342 . S
C1300 C184 1.306 . S
C1312 C506 1.304 . S
C1327 C220 1.299 . S
C1339 C1118 1.304 . S
C1354 C256 1.335 . S
C1366 C434 1.321 . S
C1381 C686 1.281 . S
C1393 C291 1.276 . S
C1408 C2 1.269 . S
C1420 C327 1.261 . S
C1435 C614 1.274 . S
C1447 C363 1.266 . S
C1462 C399 1.244 . S
C1474 C74 1.246 . S
C1489 C758 1.283 . S
C1501 C435 1.281 . S
C1516 C218 1.272 . S
C1528 C471 1.279 . S
C1543 C507 1.277 . S
C1555 C830 1.282 . S
C1570 C146 1.277 . S
C1582 C543 1.269 . S
C1597 C580 1.286 . S
C1609 C398 1.343 . S
C1624 C616 1.313 . S
C1636 C866 1.306 . S
C1651 C326 1.329 . S
C1663 C652 1.261 . S
C1678 C938 1.343 . S
C1690 C688 1.286 . S
C1705 C470 1.344 . S
C1717 C724 1.297 . S
C1732 C1082 1.308 . S
C1744 C760 1.319 . S
C1759 C542 1.323 . S
C1771 C796 1.259 . S
C1786 C832 1.292 . S
C1798 C1010 1.303 . S
C1813 C110 1.245 . S
C1825 C867 1.256 . S
C1840 C903 1.281 . S
C1852 C578 1.283 . S
C1867 C939 1.245 . S
C1879 C38 1.240 . S
C1894 C975 1.248 . S
C1906 C650 1.241 . S
C1921 C1011 1.282 . S
C1933 C182 1.281 . S
C1948 C1047 1.244 . S
C1960 C794 1.240 . S
C1975 C1083 1.281 . S
C1987 C254 1.283 . S
C2002 C1119 1.283 . S
C2014 C722 1.281 . S
C2029 C878 1.502 . S
C2041 C14 1.433 . S
C2056 C50 1.423 . S
C2068 C338 1.496 . S
C2083 C950 1.498 . S
C2095 C86 1.427 . S
C2110 C122 1.441 . S
C2122 C410 1.505 . S
C2137 C1022 1.455 . S
C2149 C158 1.395 . S
C2164 C194 1.456 . S
C2176 C482 1.471 . S
C2191 C1094 1.463 . S
C2203 C230 1.441 . S
C2218 C266 1.431 . S
C2230 C554 1.500 . S
C2245 C302 1.464 . S
C2257 C590 1.445 . S
C2272 C374 1.498 . S
C2284 C662 1.426 . S
C2299 C446 1.470 . S
C2311 C734 1.454 . S
C2326 C518 1.496 . S
C2338 C806 1.423 . S
C2353 C626 1.467 . S
C2365 C914 1.512 . S
C2380 C986 1.507 . S
C2392 C698 1.482 . S
C2407 C1058 1.453 . S
C2419 C770 1.399 . S
C2434 C842 1.472 . S
C2446 C1130 1.485 . S
C2461 C3 1.472 . S
C2473 C183 1.477 . S
C2488 C39 1.475 . S
C2500 C219 1.474 . S
C2515 C75 1.486 . S
C2527 C255 1.476 . S
C2542 C147 1.486 . S
C2554 C111 1.476 . S
C2569 C292 1.349 . S
C2581 C472 1.329 . S
C2596 C328 1.349 . S
C2608 C508 1.368 . S
C2623 C364 1.336 . S
C2635 C544 1.321 . S
C2650 C400 1.324 . S
C2662 C436 1.317 . S
C2677 C579 1.486 . S
C2689 C759 1.478 . S
C2704 C795 1.474 . S
C2716 C615 1.486 . S
C2731 C651 1.472 . S
C2743 C831 1.479 . S
C2758 C687 1.476 . S
C2770 C723 1.486 . S
C2785 C1048 1.363 . S
C2797 C868 1.375 . S
C2812 C904 1.354 . S
C2824 C1084 1.371 . S
C2839 C1120 1.329 . S
C2851 C940 1.318 . S
C2866 C976 1.344 . S
C2878 C1012 1.325 . S
