# Generated by pormake.
# Topology umw, (4)-cn, num edge types: 1
# Building blocks:
#     Node 0, Type 0, BuildingBlock: QUQFOY_clean_sbu_1, # of connection points: 4
#     Node 1, Type 0, BuildingBlock: QUQFOY_clean_sbu_1, # of connection points: 4
#     Node 2, Type 0, BuildingBlock: QUQFOY_clean_sbu_1, # of connection points: 4
#     Node 3, Type 0, BuildingBlock: QUQFOY_clean_sbu_1, # of connection points: 4
#     Node 4, Type 0, BuildingBlock: QUQFOY_clean_sbu_1, # of connection points: 4
#     Node 5, Type 0, BuildingBlock: QUQFOY_clean_sbu_1, # of connection points: 4
#     Node 6, Type 0, BuildingBlock: QUQFOY_clean_sbu_1, # of connection points: 4
#     Node 7, Type 0, BuildingBlock: QUQFOY_clean_sbu_1, # of connection points: 4
#     Edge 8, Type (0, 0), BuildingBlock: OJICUG_clean_linker_0, # of connection points: 2
#     Edge 9, Type (0, 0), BuildingBlock: OJICUG_clean_linker_0, # of connection points: 2
#     Edge 10, Type (0, 0), BuildingBlock: OJICUG_clean_linker_0, # of connection points: 2
#     Edge 11, Type (0, 0), BuildingBlock: OJICUG_clean_linker_0, # of connection points: 2
#     Edge 12, Type (0, 0), BuildingBlock: OJICUG_clean_linker_0, # of connection points: 2
#     Edge 13, Type (0, 0), BuildingBlock: OJICUG_clean_linker_0, # of connection points: 2
#     Edge 14, Type (0, 0), BuildingBlock: OJICUG_clean_linker_0, # of connection points: 2
#     Edge 15, Type (0, 0), BuildingBlock: OJICUG_clean_linker_0, # of connection points: 2
#     Edge 16, Type (0, 0), BuildingBlock: OJICUG_clean_linker_0, # of connection points: 2
#     Edge 17, Type (0, 0), BuildingBlock: OJICUG_clean_linker_0, # of connection points: 2
#     Edge 18, Type (0, 0), BuildingBlock: OJICUG_clean_linker_0, # of connection points: 2
#     Edge 19, Type (0, 0), BuildingBlock: OJICUG_clean_linker_0, # of connection points: 2
#     Edge 20, Type (0, 0), BuildingBlock: OJICUG_clean_linker_0, # of connection points: 2
#     Edge 21, Type (0, 0), BuildingBlock: OJICUG_clean_linker_0, # of connection points: 2
#     Edge 22, Type (0, 0), BuildingBlock: OJICUG_clean_linker_0, # of connection points: 2
#     Edge 23, Type (0, 0), BuildingBlock: OJICUG_clean_linker_0, # of connection points: 2
# Relax obj value: 0.044
# Max RMSD: 0.091
# Mean RMSD: 0.091
data_MOF--net-umw--node1-QUQFOY_clean_sbu_1--edge1-OJICUG_clean_linker_0
_symmetry_space_group_name_H-M    P1
_symmetry_Int_Tables_number       1
_symmetry_cell_setting            triclinic
loop_
_symmetry_equiv_pos_as_xyz
'x, y, z'
_cell_length_a     32.34203
_cell_length_b     32.347331
_cell_length_c     20.439686
_cell_angle_alpha  90.519668
_cell_angle_beta   90.520751
_cell_angle_gamma 89.737328
loop_
_atom_site_label
_atom_site_type_symbol
_atom_site_fract_x
_atom_site_fract_y
_atom_site_fract_z
_atom_type_partial_charge
O0 O 0.41229 0.17889 0.46722 0.0
Cd1 Cd 0.37063 0.15873 0.39825 0.0
Cd2 Cd 0.44756 0.16304 0.32676 0.0
O3 O 0.46789 0.19344 0.41034 0.0
O4 O 0.32102 0.16019 0.45503 0.0
O5 O 0.32735 0.1992 0.36752 0.0
C6 C 0.30683 0.18946 0.419 0.0
C7 C 0.46721 0.18472 0.22237 0.0
C8 C 0.44851 0.19351 0.46418 0.0
C9 C 0.40619 0.07978 0.34681 0.0
O10 O 0.43861 0.09998 0.33318 0.0
O11 O 0.37396 0.09816 0.36744 0.0
O12 O 0.49345 0.16841 0.26242 0.0
O13 O 0.42989 0.1906 0.24267 0.0
O14 O 0.80098 0.41404 0.7055 0.0
Cd15 Cd 0.82122 0.37182 0.63766 0.0
Cd16 Cd 0.81835 0.44915 0.56644 0.0
O17 O 0.7876 0.47013 0.64846 0.0
O18 O 0.8206 0.32308 0.69631 0.0
O19 O 0.78144 0.32772 0.60756 0.0
C20 C 0.79165 0.30802 0.65997 0.0
C21 C 0.7975 0.46891 0.46097 0.0
C22 C 0.78702 0.45065 0.70217 0.0
C23 C 0.90089 0.4064 0.591 0.0
O24 O 0.88124 0.43933 0.57685 0.0
O25 O 0.88194 0.3743 0.60952 0.0
O26 O 0.81377 0.49496 0.5016 0.0
O27 O 0.79133 0.43171 0.48113 0.0
O28 O 0.56672 0.80392 0.94256 0.0
Cd29 Cd 0.60984 0.82342 0.87707 0.0
Cd30 Cd 0.53382 0.82108 0.80093 0.0
O31 O 0.51072 0.79299 0.88263 0.0
O32 O 0.65836 0.82158 0.93763 0.0
O33 O 0.65376 0.78309 0.84805 0.0
C34 C 0.67342 0.79273 0.90125 0.0
C35 C 0.51445 0.79791 0.69624 0.0
C36 C 0.52965 0.79171 0.93728 0.0
C37 C 0.57642 0.90333 0.82631 0.0
O38 O 0.54404 0.88386 0.80876 0.0
O39 O 0.60779 0.88427 0.84901 0.0
O40 O 0.48851 0.81613 0.73438 0.0
O41 O 0.55144 0.79141 0.71837 0.0
O42 O 0.16625 0.56944 0.23084 0.0
Cd43 Cd 0.15716 0.60704 0.15204 0.0
Cd44 Cd 0.16351 0.53316 0.09082 0.0
O45 O 0.19321 0.51688 0.17664 0.0
O46 O 0.16433 0.66299 0.1911 0.0
O47 O 0.20874 0.63432 0.12183 0.0
C48 C 0.19932 0.66413 0.16159 0.0
C49 C 0.18793 0.51383 0.98782 0.0
C50 C 0.18584 0.53537 0.23045 0.0
C51 C 0.08057 0.5745 0.09518 0.0
O52 O 0.10004 0.54028 0.09351 0.0
O53 O 0.09969 0.6078 0.10831 0.0
O54 O 0.1727 0.48703 0.02709 0.0
O55 O 0.19158 0.55151 1.00865 0.0
O56 O 0.41323 0.81628 0.18151 0.0
Cd57 Cd 0.37559 0.82537 0.26028 0.0
Cd58 Cd 0.4495 0.81908 0.32155 0.0
O59 O 0.46583 0.7894 0.23575 0.0
O60 O 0.31966 0.81821 0.22114 0.0
O61 O 0.34828 0.77381 0.29046 0.0
C62 C 0.31848 0.78323 0.25066 0.0
C63 C 0.46885 0.79467 0.42455 0.0
C64 C 0.44733 0.79674 0.18193 0.0
C65 C 0.40809 0.90198 0.31714 0.0
O66 O 0.44232 0.88254 0.31887 0.0
O67 O 0.3748 0.88285 0.30396 0.0
O68 O 0.49564 0.80993 0.3853 0.0
O69 O 0.43117 0.79099 0.40371 0.0
O70 O 0.17875 0.41599 0.46979 0.0
Cd71 Cd 0.15921 0.37284 0.53519 0.0
Cd72 Cd 0.1615 0.44886 0.61143 0.0
O73 O 0.18957 0.47199 0.52975 0.0
O74 O 0.16103 0.32438 0.47452 0.0
O75 O 0.19951 0.32886 0.56413 0.0
C76 C 0.18986 0.30926 0.51089 0.0
C77 C 0.18466 0.46823 0.71614 0.0
C78 C 0.19091 0.45308 0.4751 0.0
C79 C 0.07926 0.40621 0.58597 0.0
O80 O 0.09871 0.43858 0.6036 0.0
O81 O 0.09834 0.37488 0.56321 0.0
O82 O 0.1664 0.49416 0.678 0.0
O83 O 0.19119 0.43126 0.694 0.0
O84 O 0.56839 0.1816 0.7067 0.0
Cd85 Cd 0.61064 0.16135 0.7745 0.0
Cd86 Cd 0.53329 0.16418 0.84578 0.0
O87 O 0.51227 0.19489 0.76375 0.0
O88 O 0.65937 0.16197 0.71581 0.0
O89 O 0.65477 0.20112 0.80458 0.0
C90 C 0.67445 0.1909 0.75214 0.0
C91 C 0.51351 0.18501 0.95124 0.0
C92 C 0.53176 0.19551 0.71005 0.0
C93 C 0.5761 0.08167 0.8212 0.0
O94 O 0.54315 0.1013 0.83539 0.0
O95 O 0.60818 0.10064 0.80263 0.0
O96 O 0.48747 0.16872 0.91062 0.0
O97 O 0.55071 0.19122 0.93108 0.0
O98 O 0.80358 0.57012 0.94497 0.0
Cd99 Cd 0.82377 0.6118 1.01389 0.0
Cd100 Cd 0.8195 0.53486 0.08546 0.0
O101 O 0.78912 0.51451 1.00187 0.0
O102 O 0.82234 0.66137 0.95703 0.0
O103 O 0.78334 0.65512 0.04458 0.0
C104 C 0.79309 0.67561 0.99307 0.0
C105 C 0.79781 0.5152 0.18983 0.0
C106 C 0.789 0.53389 0.94803 0.0
C107 C 0.90275 0.57627 0.06538 0.0
O108 O 0.88256 0.54386 0.07906 0.0
O109 O 0.88436 0.60847 0.04468 0.0
O110 O 0.81416 0.48898 0.1498 0.0
O111 O 0.7919 0.5525 0.16953 0.0
C112 C 0.44682 0.20747 0.58453 0.0
C113 C 0.46952 0.20525 0.52609 0.0
H114 H 0.44878 0.2068 0.68918 0.0
C115 C 0.51273 0.20827 0.52928 0.0
H116 H 0.41337 0.20596 0.58367 0.0
C117 C 0.533 0.20882 0.58989 0.0
C118 C 0.5104 0.20648 0.64832 0.0
H119 H 0.53108 0.20709 0.48521 0.0
H120 H 0.5665 0.20829 0.59075 0.0
C121 C 0.46709 0.20815 0.64513 0.0
C122 C 0.77375 0.4494 0.82233 0.0
C123 C 0.77605 0.472 0.7639 0.0
H124 H 0.77551 0.45132 0.92701 0.0
C125 C 0.77433 0.5153 0.76709 0.0
H126 H 0.77432 0.4159 0.82148 0.0
C127 C 0.77499 0.53556 0.82769 0.0
C128 C 0.77726 0.51287 0.88613 0.0
H129 H 0.77564 0.5336 0.72304 0.0
H130 H 0.77646 0.56901 0.82854 0.0
C131 C 0.77429 0.46966 0.88294 0.0
C132 C 0.50934 0.77714 0.11637 0.0
C133 C 0.46693 0.78618 0.11904 0.0
H134 H 0.56257 0.77111 0.0558 0.0
C135 C 0.44415 0.7893 0.06031 0.0
H136 H 0.52762 0.7741 0.16076 0.0
C137 C 0.46408 0.78718 1.0001 0.0
C138 C 0.50717 0.78235 0.99776 0.0
H139 H 0.41121 0.79554 0.06087 0.0
H140 H 0.44616 0.79243 0.9559 0.0
C141 C 0.52933 0.77541 0.05621 0.0
C142 C 0.20727 0.45343 0.3562 0.0
C143 C 0.20027 0.47557 0.41464 0.0
H144 H 0.20862 0.45514 0.25165 0.0
C145 C 0.19536 0.51865 0.41229 0.0
H146 H 0.21164 0.4202 0.35663 0.0
C147 C 0.19323 0.53857 0.35207 0.0
C148 C 0.19641 0.5158 0.29335 0.0
H149 H 0.19005 0.53655 0.45649 0.0
H150 H 0.18692 0.57149 0.35151 0.0
C151 C 0.20554 0.47341 0.29603 0.0
C152 C 0.26449 0.21932 0.50895 0.0
C153 C 0.27167 0.21477 0.44146 0.0
H154 H 0.23318 0.25351 0.5842 0.0
C155 C 0.24836 0.23832 0.39715 0.0
H156 H 0.28231 0.20172 0.54426 0.0
C157 C 0.2195 0.26713 0.42008 0.0
C158 C 0.21445 0.27371 0.48769 0.0
H159 H 0.25338 0.23541 0.34498 0.0
H160 H 0.20298 0.286 0.38488 0.0
C161 C 0.23656 0.24901 0.53193 0.0
C162 C 0.74428 0.24855 0.63862 0.0
C163 C 0.76725 0.27276 0.68285 0.0
H164 H 0.69765 0.2024 0.62644 0.0
C165 C 0.76298 0.26629 0.75043 0.0
H166 H 0.74703 0.25298 0.58637 0.0
C167 C 0.73398 0.23822 0.77348 0.0
C168 C 0.70973 0.21528 0.72926 0.0
H169 H 0.78018 0.28479 0.78566 0.0
H170 H 0.72956 0.23545 0.82573 0.0
C171 C 0.71618 0.21956 0.66167 0.0
C172 C 0.76323 0.71795 0.90312 0.0
C173 C 0.76781 0.71079 0.97061 0.0
H174 H 0.72905 0.74928 0.82789 0.0
C175 C 0.74433 0.73416 1.01493 0.0
H176 H 0.78078 0.70008 0.8678 0.0
C177 C 0.71556 0.76307 0.99202 0.0
C178 C 0.70895 0.76809 0.92441 0.0
H179 H 0.74727 0.72916 0.06711 0.0
H180 H 0.69675 0.77964 0.02724 0.0
C181 C 0.73358 0.74592 0.88016 0.0
C182 C 0.27087 0.68348 0.19299 0.0
C183 C 0.22985 0.69554 0.1806 0.0
H184 H 0.33069 0.70176 0.22815 0.0
C185 C 0.21752 0.73637 0.19411 0.0
H186 H 0.28079 0.65189 0.18417 0.0
C187 C 0.24624 0.76507 0.21808 0.0
C188 C 0.28706 0.75273 0.23164 0.0
H189 H 0.18583 0.74608 0.1857 0.0
H190 H 0.23654 0.79677 0.22646 0.0
C191 C 0.2991 0.7117 0.2193 0.0
C192 C 0.36988 0.96869 0.33511 0.0
C193 C 0.40744 0.9473 0.32697 0.0
H194 H 0.33999 0.02735 0.34809 0.0
C195 C 0.44448 0.96981 0.32593 0.0
H196 H 0.34082 0.9522 0.33614 0.0
C197 C 0.44397 0.01281 0.33193 0.0
C198 C 0.40644 0.03425 0.3399 0.0
H199 H 0.47394 0.9543 0.31947 0.0
H200 H 0.47307 0.0292 0.33061 0.0
C201 C 0.36941 0.01172 0.34193 0.0
C202 C 0.96858 0.36858 0.5869 0.0
C203 C 0.9465 0.40609 0.58885 0.0
H204 H 0.02803 0.33918 0.58404 0.0
C205 C 0.96842 0.44347 0.5908 0.0
H206 H 0.95249 0.33929 0.58541 0.0
C207 C 0.01155 0.44338 0.59126 0.0
C208 C 0.03367 0.40593 0.58863 0.0
H209 H 0.95227 0.47286 0.59284 0.0
H210 H 0.02754 0.47273 0.59266 0.0
C211 C 0.01178 0.36851 0.58616 0.0
C212 C 0.61407 0.97082 0.82602 0.0
C213 C 0.57667 0.94891 0.82363 0.0
H214 H 0.64326 0.03013 0.82669 0.0
C215 C 0.53919 0.971 0.82106 0.0
H216 H 0.64343 0.95461 0.8281 0.0
C217 C 0.53907 0.01413 0.8215 0.0
C218 C 0.57644 0.03607 0.82337 0.0
H219 H 0.50985 0.95499 0.81971 0.0
H220 H 0.50966 0.03025 0.81951 0.0
C221 C 0.61397 0.01402 0.82527 0.0
C222 C 0.9708 0.61308 0.07024 0.0
C223 C 0.94829 0.57605 0.07231 0.0
H224 H 0.03031 0.64171 0.07602 0.0
C225 C 0.96975 0.53855 0.08037 0.0
H226 H 0.95515 0.64249 0.06402 0.0
C227 C 0.01276 0.53806 0.0864 0.0
C228 C 0.03524 0.57511 0.08532 0.0
H229 H 0.95337 0.50944 0.08173 0.0
H230 H 0.02829 0.50863 0.09294 0.0
C231 C 0.01384 0.61264 0.0771 0.0
C232 C 0.5321 0.19399 0.06984 0.0
C233 C 0.50174 0.19244 0.0203 0.0
H234 H 0.54493 0.19265 0.17286 0.0
C235 C 0.45982 0.19344 0.03811 0.0
H236 H 0.56463 0.19317 0.05775 0.0
C237 C 0.44851 0.1938 0.10408 0.0
C238 C 0.47889 0.19237 0.15358 0.0
H239 H 0.4357 0.19246 1.00103 0.0
H240 H 0.41599 0.19283 0.11614 0.0
C241 C 0.52079 0.19356 0.13581 0.0
C242 C 0.789 0.46162 0.2764 0.0
C243 C 0.79016 0.50351 0.25863 0.0
H244 H 0.78941 0.41779 0.35445 0.0
C245 C 0.78869 0.53389 0.30812 0.0
H246 H 0.78994 0.43749 0.23934 0.0
C247 C 0.78905 0.52258 0.37409 0.0
C248 C 0.79008 0.48067 0.3919 0.0
H249 H 0.78964 0.56641 0.29606 0.0
H250 H 0.79 0.5467 0.41118 0.0
C251 C 0.78857 0.45031 0.34236 0.0
C252 C 0.53328 0.78523 0.57914 0.0
C253 C 0.50283 0.78865 0.62745 0.0
H254 H 0.54633 0.78441 0.47654 0.0
C255 C 0.46095 0.78804 0.60835 0.0
H256 H 0.56579 0.78562 0.59233 0.0
C257 C 0.44977 0.78669 0.54209 0.0
C258 C 0.48027 0.78668 0.49362 0.0
H259 H 0.43677 0.79036 0.64455 0.0
H260 H 0.41729 0.78833 0.52893 0.0
C261 C 0.52211 0.78462 0.51281 0.0
C262 C 0.19586 0.53292 0.87027 0.0
C263 C 0.19591 0.50242 0.91875 0.0
H264 H 0.19214 0.54591 0.76782 0.0
C265 C 0.198 0.46059 0.89956 0.0
H266 H 0.19419 0.56539 0.88344 0.0
C267 C 0.19739 0.44942 0.83323 0.0
C268 C 0.19392 0.47986 0.78492 0.0
H269 H 0.19825 0.43638 0.93583 0.0
H270 H 0.19702 0.41691 0.82005 0.0
C271 C 0.1945 0.52174 0.80402 0.0
loop_
_geom_bond_atom_site_label_1
_geom_bond_atom_site_label_2
_geom_bond_distance
_geom_bond_site_symmetry_2
_ccdc_geom_bond_type
O0 Cd1 2.223 . S
O0 C8 1.315 . S
Cd1 O0 2.223 . S
Cd1 O4 2.297 . S
Cd1 O5 2.439 . S
Cd1 O11 2.240 . S
Cd2 O3 2.240 . S
Cd2 O10 2.223 . S
Cd2 O12 2.297 . S
Cd2 O13 2.439 . S
O3 Cd2 2.240 . S
O3 C8 1.279 . S
O4 Cd1 2.297 . S
O4 C6 1.247 . S
O5 Cd1 2.439 . S
O5 C6 1.208 . S
C6 O4 1.247 . S
C6 O5 1.208 . S
C7 O12 1.247 . S
C7 O13 1.208 . S
C8 O0 1.315 . S
C8 O3 1.279 . S
C9 O10 1.315 . S
C9 O11 1.279 . S
O10 Cd2 2.223 . S
O10 C9 1.315 . S
O11 Cd1 2.240 . S
O11 C9 1.279 . S
O12 Cd2 2.297 . S
O12 C7 1.247 . S
O13 Cd2 2.439 . S
O13 C7 1.208 . S
O14 Cd15 2.223 . S
O14 C22 1.315 . S
Cd15 O14 2.223 . S
Cd15 O18 2.297 . S
Cd15 O19 2.439 . S
Cd15 O25 2.240 . S
Cd16 O17 2.240 . S
Cd16 O24 2.223 . S
Cd16 O26 2.297 . S
Cd16 O27 2.439 . S
O17 Cd16 2.240 . S
O17 C22 1.279 . S
O18 Cd15 2.297 . S
O18 C20 1.247 . S
O19 Cd15 2.439 . S
O19 C20 1.208 . S
C20 O18 1.247 . S
C20 O19 1.208 . S
C21 O26 1.247 . S
C21 O27 1.208 . S
C22 O14 1.315 . S
C22 O17 1.279 . S
C23 O24 1.315 . S
C23 O25 1.279 . S
O24 Cd16 2.223 . S
O24 C23 1.315 . S
O25 Cd15 2.240 . S
O25 C23 1.279 . S
O26 Cd16 2.297 . S
O26 C21 1.247 . S
O27 Cd16 2.439 . S
O27 C21 1.208 . S
O28 Cd29 2.223 . S
O28 C36 1.315 . S
Cd29 O28 2.223 . S
Cd29 O32 2.297 . S
Cd29 O33 2.439 . S
Cd29 O39 2.240 . S
Cd30 O31 2.240 . S
Cd30 O38 2.223 . S
Cd30 O40 2.297 . S
Cd30 O41 2.439 . S
O31 Cd30 2.240 . S
O31 C36 1.279 . S
O32 Cd29 2.297 . S
O32 C34 1.247 . S
O33 Cd29 2.439 . S
O33 C34 1.208 . S
C34 O32 1.247 . S
C34 O33 1.208 . S
C35 O40 1.247 . S
C35 O41 1.208 . S
C36 O28 1.315 . S
C36 O31 1.279 . S
C37 O38 1.315 . S
C37 O39 1.279 . S
O38 Cd30 2.223 . S
O38 C37 1.315 . S
O39 Cd29 2.240 . S
O39 C37 1.279 . S
O40 Cd30 2.297 . S
O40 C35 1.247 . S
O41 Cd30 2.439 . S
O41 C35 1.208 . S
O42 Cd43 2.223 . S
O42 C50 1.315 . S
Cd43 O42 2.223 . S
Cd43 O46 2.297 . S
Cd43 O47 2.439 . S
Cd43 O53 2.240 . S
Cd44 O45 2.240 . S
Cd44 O52 2.223 . S
Cd44 O54 2.297 1_554 S
Cd44 O55 2.439 1_554 S
O45 Cd44 2.240 . S
O45 C50 1.279 . S
O46 Cd43 2.297 . S
O46 C48 1.247 . S
O47 Cd43 2.439 . S
O47 C48 1.208 . S
C48 O46 1.247 . S
C48 O47 1.208 . S
C49 O54 1.247 . S
C49 O55 1.208 . S
C50 O42 1.315 . S
C50 O45 1.279 . S
C51 O52 1.315 . S
C51 O53 1.279 . S
O52 Cd44 2.223 . S
O52 C51 1.315 . S
O53 Cd43 2.240 . S
O53 C51 1.279 . S
O54 Cd44 2.297 1_556 S
O54 C49 1.247 . S
O55 Cd44 2.439 1_556 S
O55 C49 1.208 . S
O56 Cd57 2.223 . S
O56 C64 1.315 . S
Cd57 O56 2.223 . S
Cd57 O60 2.297 . S
Cd57 O61 2.439 . S
Cd57 O67 2.240 . S
Cd58 O59 2.240 . S
Cd58 O66 2.223 . S
Cd58 O68 2.297 . S
Cd58 O69 2.439 . S
O59 Cd58 2.240 . S
O59 C64 1.279 . S
O60 Cd57 2.297 . S
O60 C62 1.247 . S
O61 Cd57 2.439 . S
O61 C62 1.208 . S
C62 O60 1.247 . S
C62 O61 1.208 . S
C63 O68 1.247 . S
C63 O69 1.208 . S
C64 O56 1.315 . S
C64 O59 1.279 . S
C65 O66 1.315 . S
C65 O67 1.279 . S
O66 Cd58 2.223 . S
O66 C65 1.315 . S
O67 Cd57 2.240 . S
O67 C65 1.279 . S
O68 Cd58 2.297 . S
O68 C63 1.247 . S
O69 Cd58 2.439 . S
O69 C63 1.208 . S
O70 Cd71 2.223 . S
O70 C78 1.315 . S
Cd71 O70 2.223 . S
Cd71 O74 2.297 . S
Cd71 O75 2.439 . S
Cd71 O81 2.240 . S
Cd72 O73 2.240 . S
Cd72 O80 2.223 . S
Cd72 O82 2.297 . S
Cd72 O83 2.439 . S
O73 Cd72 2.240 . S
O73 C78 1.279 . S
O74 Cd71 2.297 . S
O74 C76 1.247 . S
O75 Cd71 2.439 . S
O75 C76 1.208 . S
C76 O74 1.247 . S
C76 O75 1.208 . S
C77 O82 1.247 . S
C77 O83 1.208 . S
C78 O70 1.315 . S
C78 O73 1.279 . S
C79 O80 1.315 . S
C79 O81 1.279 . S
O80 Cd72 2.223 . S
O80 C79 1.315 . S
O81 Cd71 2.240 . S
O81 C79 1.279 . S
O82 Cd72 2.297 . S
O82 C77 1.247 . S
O83 Cd72 2.439 . S
O83 C77 1.208 . S
O84 Cd85 2.223 . S
O84 C92 1.315 . S
Cd85 O84 2.223 . S
Cd85 O88 2.297 . S
Cd85 O89 2.439 . S
Cd85 O95 2.240 . S
Cd86 O87 2.240 . S
Cd86 O94 2.223 . S
Cd86 O96 2.297 . S
Cd86 O97 2.439 . S
O87 Cd86 2.240 . S
O87 C92 1.279 . S
O88 Cd85 2.297 . S
O88 C90 1.247 . S
O89 Cd85 2.439 . S
O89 C90 1.208 . S
C90 O88 1.247 . S
C90 O89 1.208 . S
C91 O96 1.247 . S
C91 O97 1.208 . S
C92 O84 1.315 . S
C92 O87 1.279 . S
C93 O94 1.315 . S
C93 O95 1.279 . S
O94 Cd86 2.223 . S
O94 C93 1.315 . S
O95 Cd85 2.240 . S
O95 C93 1.279 . S
O96 Cd86 2.297 . S
O96 C91 1.247 . S
O97 Cd86 2.439 . S
O97 C91 1.208 . S
O98 Cd99 2.223 . S
O98 C106 1.315 . S
Cd99 O98 2.223 . S
Cd99 O102 2.297 . S
Cd99 O103 2.439 1_556 S
Cd99 O109 2.240 1_556 S
Cd100 O101 2.240 1_554 S
Cd100 O108 2.223 . S
Cd100 O110 2.297 . S
Cd100 O111 2.439 . S
O101 Cd100 2.240 1_556 S
O101 C106 1.279 . S
O102 Cd99 2.297 . S
O102 C104 1.247 . S
O103 Cd99 2.439 1_554 S
O103 C104 1.208 1_554 S
C104 O102 1.247 . S
C104 O103 1.208 1_556 S
C105 O110 1.247 . S
C105 O111 1.208 . S
C106 O98 1.315 . S
C106 O101 1.279 . S
C107 O108 1.315 . S
C107 O109 1.279 . S
O108 Cd100 2.223 . S
O108 C107 1.315 . S
O109 Cd99 2.240 1_554 S
O109 C107 1.279 . S
O110 Cd100 2.297 . S
O110 C105 1.247 . S
O111 Cd100 2.439 . S
O111 C105 1.208 . S
C112 C113 1.387 . S
C112 H116 0.950 . S
C112 C121 1.390 . S
C113 C112 1.387 . S
C113 C115 1.387 . S
H114 C121 0.950 . S
C115 C113 1.387 . S
C115 C117 1.390 . S
C115 H119 0.950 . S
H116 C112 0.950 . S
C117 C115 1.390 . S
C117 C118 1.387 . S
C117 H120 0.950 . S
C118 C117 1.387 . S
C118 C121 1.387 . S
H119 C115 0.950 . S
H120 C117 0.950 . S
C121 C112 1.390 . S
C121 H114 0.950 . S
C121 C118 1.387 . S
C122 C123 1.387 . S
C122 H126 0.950 . S
C122 C131 1.390 . S
C123 C122 1.387 . S
C123 C125 1.387 . S
H124 C131 0.950 . S
C125 C123 1.387 . S
C125 C127 1.390 . S
C125 H129 0.950 . S
H126 C122 0.950 . S
C127 C125 1.390 . S
C127 C128 1.387 . S
C127 H130 0.950 . S
C128 C127 1.387 . S
C128 C131 1.387 . S
H129 C125 0.950 . S
H130 C127 0.950 . S
C131 C122 1.390 . S
C131 H124 0.950 . S
C131 C128 1.387 . S
C132 C133 1.387 . S
C132 H136 0.950 . S
C132 C141 1.390 . S
C133 C132 1.387 . S
C133 C135 1.387 . S
H134 C141 0.950 . S
C135 C133 1.387 . S
C135 C137 1.390 . S
C135 H139 0.950 . S
H136 C132 0.950 . S
C137 C135 1.390 . S
C137 C138 1.387 . S
C137 H140 0.950 . S
C138 C137 1.387 . S
C138 C141 1.387 . S
H139 C135 0.950 . S
H140 C137 0.950 . S
C141 C132 1.390 . S
C141 H134 0.950 . S
C141 C138 1.387 . S
C142 C143 1.387 . S
C142 H146 0.950 . S
C142 C151 1.390 . S
C143 C142 1.387 . S
C143 C145 1.387 . S
H144 C151 0.950 . S
C145 C143 1.387 . S
C145 C147 1.390 . S
C145 H149 0.950 . S
H146 C142 0.950 . S
C147 C145 1.390 . S
C147 C148 1.387 . S
C147 H150 0.950 . S
C148 C147 1.387 . S
C148 C151 1.387 . S
H149 C145 0.950 . S
H150 C147 0.950 . S
C151 C142 1.390 . S
C151 H144 0.950 . S
C151 C148 1.387 . S
C152 C153 1.387 . S
C152 H156 0.950 . S
C152 C161 1.390 . S
C153 C152 1.387 . S
C153 C155 1.387 . S
H154 C161 0.950 . S
C155 C153 1.387 . S
C155 C157 1.390 . S
C155 H159 0.950 . S
H156 C152 0.950 . S
C157 C155 1.390 . S
C157 C158 1.387 . S
C157 H160 0.950 . S
C158 C157 1.387 . S
C158 C161 1.387 . S
H159 C155 0.950 . S
H160 C157 0.950 . S
C161 C152 1.390 . S
C161 H154 0.950 . S
C161 C158 1.387 . S
C162 C163 1.387 . S
C162 H166 0.950 . S
C162 C171 1.390 . S
C163 C162 1.387 . S
C163 C165 1.387 . S
H164 C171 0.950 . S
C165 C163 1.387 . S
C165 C167 1.390 . S
C165 H169 0.950 . S
H166 C162 0.950 . S
C167 C165 1.390 . S
C167 C168 1.387 . S
C167 H170 0.950 . S
C168 C167 1.387 . S
C168 C171 1.387 . S
H169 C165 0.950 . S
H170 C167 0.950 . S
C171 C162 1.390 . S
C171 H164 0.950 . S
C171 C168 1.387 . S
C172 C173 1.387 . S
C172 H176 0.950 . S
C172 C181 1.390 . S
C173 C172 1.387 . S
C173 C175 1.387 . S
H174 C181 0.950 . S
C175 C173 1.387 . S
C175 C177 1.390 . S
C175 H179 0.950 1_556 S
H176 C172 0.950 . S
C177 C175 1.390 . S
C177 C178 1.387 . S
C177 H180 0.950 . S
C178 C177 1.387 . S
C178 C181 1.387 . S
H179 C175 0.950 1_554 S
H180 C177 0.950 . S
C181 C172 1.390 . S
C181 H174 0.950 . S
C181 C178 1.387 . S
C182 C183 1.387 . S
C182 H186 0.950 . S
C182 C191 1.390 . S
C183 C182 1.387 . S
C183 C185 1.387 . S
H184 C191 0.950 . S
C185 C183 1.387 . S
C185 C187 1.390 . S
C185 H189 0.950 . S
H186 C182 0.950 . S
C187 C185 1.390 . S
C187 C188 1.387 . S
C187 H190 0.950 . S
C188 C187 1.387 . S
C188 C191 1.387 . S
H189 C185 0.950 . S
H190 C187 0.950 . S
C191 C182 1.390 . S
C191 H184 0.950 . S
C191 C188 1.387 . S
C192 C193 1.387 . S
C192 H196 0.950 . S
C192 C201 1.390 1_565 S
C193 C192 1.387 . S
C193 C195 1.387 . S
H194 C201 0.950 . S
C195 C193 1.387 . S
C195 C197 1.390 1_565 S
C195 H199 0.950 . S
H196 C192 0.950 . S
C197 C195 1.390 1_545 S
C197 C198 1.387 . S
C197 H200 0.950 . S
C198 C197 1.387 . S
C198 C201 1.387 . S
H199 C195 0.950 . S
H200 C197 0.950 . S
C201 C192 1.390 1_545 S
C201 H194 0.950 . S
C201 C198 1.387 . S
C202 C203 1.387 . S
C202 H206 0.950 . S
C202 C211 1.390 1_655 S
C203 C202 1.387 . S
C203 C205 1.387 . S
H204 C211 0.950 . S
C205 C203 1.387 . S
C205 C207 1.390 1_655 S
C205 H209 0.950 . S
H206 C202 0.950 . S
C207 C205 1.390 1_455 S
C207 C208 1.387 . S
C207 H210 0.950 . S
C208 C207 1.387 . S
C208 C211 1.387 . S
H209 C205 0.950 . S
H210 C207 0.950 . S
C211 C202 1.390 1_455 S
C211 H204 0.950 . S
C211 C208 1.387 . S
C212 C213 1.387 . S
C212 H216 0.950 . S
C212 C221 1.390 1_565 S
C213 C212 1.387 . S
C213 C215 1.387 . S
H214 C221 0.950 . S
C215 C213 1.387 . S
C215 C217 1.390 1_565 S
C215 H219 0.950 . S
H216 C212 0.950 . S
C217 C215 1.390 1_545 S
C217 C218 1.387 . S
C217 H220 0.950 . S
C218 C217 1.387 . S
C218 C221 1.387 . S
H219 C215 0.950 . S
H220 C217 0.950 . S
C221 C212 1.390 1_545 S
C221 H214 0.950 . S
C221 C218 1.387 . S
C222 C223 1.387 . S
C222 H226 0.950 . S
C222 C231 1.390 1_655 S
C223 C222 1.387 . S
C223 C225 1.387 . S
H224 C231 0.950 . S
C225 C223 1.387 . S
C225 C227 1.390 1_655 S
C225 H229 0.950 . S
H226 C222 0.950 . S
C227 C225 1.390 1_455 S
C227 C228 1.387 . S
C227 H230 0.950 . S
C228 C227 1.387 . S
C228 C231 1.387 . S
H229 C225 0.950 . S
H230 C227 0.950 . S
C231 C222 1.390 1_455 S
C231 H224 0.950 . S
C231 C228 1.387 . S
C232 C233 1.387 . S
C232 H236 0.950 . S
C232 C241 1.390 . S
C233 C232 1.387 . S
C233 C235 1.387 . S
H234 C241 0.950 . S
C235 C233 1.387 . S
C235 C237 1.390 . S
C235 H239 0.950 . S
H236 C232 0.950 . S
C237 C235 1.390 . S
C237 C238 1.387 . S
C237 H240 0.950 . S
C238 C237 1.387 . S
C238 C241 1.387 . S
H239 C235 0.950 . S
H240 C237 0.950 . S
C241 C232 1.390 . S
C241 H234 0.950 . S
C241 C238 1.387 . S
C242 C243 1.387 . S
C242 H246 0.950 . S
C242 C251 1.390 . S
C243 C242 1.387 . S
C243 C245 1.387 . S
H244 C251 0.950 . S
C245 C243 1.387 . S
C245 C247 1.390 . S
C245 H249 0.950 . S
H246 C242 0.950 . S
C247 C245 1.390 . S
C247 C248 1.387 . S
C247 H250 0.950 . S
C248 C247 1.387 . S
C248 C251 1.387 . S
H249 C245 0.950 . S
H250 C247 0.950 . S
C251 C242 1.390 . S
C251 H244 0.950 . S
C251 C248 1.387 . S
C252 C253 1.387 . S
C252 H256 0.950 . S
C252 C261 1.390 . S
C253 C252 1.387 . S
C253 C255 1.387 . S
H254 C261 0.950 . S
C255 C253 1.387 . S
C255 C257 1.390 . S
C255 H259 0.950 . S
H256 C252 0.950 . S
C257 C255 1.390 . S
C257 C258 1.387 . S
C257 H260 0.950 . S
C258 C257 1.387 . S
C258 C261 1.387 . S
H259 C255 0.950 . S
H260 C257 0.950 . S
C261 C252 1.390 . S
C261 H254 0.950 . S
C261 C258 1.387 . S
C262 C263 1.387 . S
C262 H266 0.950 . S
C262 C271 1.390 . S
C263 C262 1.387 . S
C263 C265 1.387 . S
H264 C271 0.950 . S
C265 C263 1.387 . S
C265 C267 1.390 . S
C265 H269 0.950 . S
H266 C262 0.950 . S
C267 C265 1.390 . S
C267 C268 1.387 . S
C267 H270 0.950 . S
C268 C267 1.387 . S
C268 C271 1.387 . S
H269 C265 0.950 . S
H270 C267 0.950 . S
C271 C262 1.390 . S
C271 H264 0.950 . S
C271 C268 1.387 . S
C113 C8 1.327 . S
C118 C92 1.327 . S
C123 C22 1.329 . S
C128 C106 1.329 . S
C133 C64 1.329 . S
C138 C36 1.329 1_554 S
C143 C78 1.329 . S
C148 C50 1.329 . S
C153 C6 1.482 . S
C158 C76 1.484 . S
C163 C20 1.483 . S
C168 C90 1.481 . S
C173 C104 1.481 . S
C178 C34 1.483 . S
C183 C48 1.481 . S
C188 C62 1.481 . S
C193 C65 1.525 . S
C198 C9 1.525 . S
C203 C23 1.525 . S
C208 C79 1.525 . S
C213 C37 1.525 . S
C218 C93 1.525 . S
C223 C107 1.525 . S
C228 C51 1.525 . S
C233 C91 1.336 1_554 S
C238 C7 1.336 . S
C243 C105 1.336 . S
C248 C21 1.336 . S
C253 C35 1.336 . S
C258 C63 1.336 . S
C263 C49 1.333 . S
C268 C77 1.333 . S
