# Generated by pormake.
# Topology afw, (4)-cn, num edge types: 1
# Building blocks:
#     Node 0, Type 0, BuildingBlock: AZAVOO_clean_sbu_0, # of connection points: 4
#     Node 1, Type 0, BuildingBlock: AZAVOO_clean_sbu_0, # of connection points: 4
#     Node 2, Type 0, BuildingBlock: AZAVOO_clean_sbu_0, # of connection points: 4
#     Node 3, Type 0, BuildingBlock: AZAVOO_clean_sbu_0, # of connection points: 4
#     Node 4, Type 0, BuildingBlock: AZAVOO_clean_sbu_0, # of connection points: 4
#     Node 5, Type 0, BuildingBlock: AZAVOO_clean_sbu_0, # of connection points: 4
#     Node 6, Type 0, BuildingBlock: AZAVOO_clean_sbu_0, # of connection points: 4
#     Node 7, Type 0, BuildingBlock: AZAVOO_clean_sbu_0, # of connection points: 4
#     Node 8, Type 0, BuildingBlock: AZAVOO_clean_sbu_0, # of connection points: 4
#     Edge 9, Type (0, 0), BuildingBlock: MIFKUJ_clean_linker_0, # of connection points: 2
#     Edge 10, Type (0, 0), BuildingBlock: MIFKUJ_clean_linker_0, # of connection points: 2
#     Edge 11, Type (0, 0), BuildingBlock: MIFKUJ_clean_linker_0, # of connection points: 2
#     Edge 12, Type (0, 0), BuildingBlock: MIFKUJ_clean_linker_0, # of connection points: 2
#     Edge 13, Type (0, 0), BuildingBlock: MIFKUJ_clean_linker_0, # of connection points: 2
#     Edge 14, Type (0, 0), BuildingBlock: MIFKUJ_clean_linker_0, # of connection points: 2
#     Edge 15, Type (0, 0), BuildingBlock: MIFKUJ_clean_linker_0, # of connection points: 2
#     Edge 16, Type (0, 0), BuildingBlock: MIFKUJ_clean_linker_0, # of connection points: 2
#     Edge 17, Type (0, 0), BuildingBlock: MIFKUJ_clean_linker_0, # of connection points: 2
#     Edge 18, Type (0, 0), BuildingBlock: MIFKUJ_clean_linker_0, # of connection points: 2
#     Edge 19, Type (0, 0), BuildingBlock: MIFKUJ_clean_linker_0, # of connection points: 2
#     Edge 20, Type (0, 0), BuildingBlock: MIFKUJ_clean_linker_0, # of connection points: 2
#     Edge 21, Type (0, 0), BuildingBlock: MIFKUJ_clean_linker_0, # of connection points: 2
#     Edge 22, Type (0, 0), BuildingBlock: MIFKUJ_clean_linker_0, # of connection points: 2
#     Edge 23, Type (0, 0), BuildingBlock: MIFKUJ_clean_linker_0, # of connection points: 2
#     Edge 24, Type (0, 0), BuildingBlock: MIFKUJ_clean_linker_0, # of connection points: 2
#     Edge 25, Type (0, 0), BuildingBlock: MIFKUJ_clean_linker_0, # of connection points: 2
#     Edge 26, Type (0, 0), BuildingBlock: MIFKUJ_clean_linker_0, # of connection points: 2
# Relax obj value: 0.307
# Max RMSD: 0.278
# Mean RMSD: 0.259
data_MOF--net-afw--node1-AZAVOO_clean_sbu_0--edge1-MIFKUJ_clean_linker_0
_symmetry_space_group_name_H-M    P1
_symmetry_Int_Tables_number       1
_symmetry_cell_setting            triclinic
loop_
_symmetry_equiv_pos_as_xyz
'x, y, z'
_cell_length_a     51.347768
_cell_length_b     49.246151
_cell_length_c     46.868697
_cell_angle_alpha  90.450065
_cell_angle_beta   90.680699
_cell_angle_gamma 119.92315
loop_
_atom_site_label
_atom_site_type_symbol
_atom_site_fract_x
_atom_site_fract_y
_atom_site_fract_z
_atom_type_partial_charge
Mg0 Mg 0.05331 0.28276 0.0378 0.0
O1 O 0.01167 0.23394 0.0349 0.0
O2 O 0.97044 0.23828 0.03205 0.0
Mg3 Mg 0.98582 0.29061 0.03259 0.0
C4 C 0.98317 0.22168 0.03305 0.0
C5 C 0.07956 0.23862 0.04484 0.0
O6 O 0.05969 0.22907 0.06522 0.0
O7 O 0.0486 0.28939 0.9902 0.0
O8 O 0.00846 0.29581 0.98968 0.0
O9 O 0.04952 0.28346 0.08555 0.0
O10 O 0.02712 0.29964 0.05509 0.0
C11 C 0.02977 0.29474 0.97692 0.0
C12 C 0.03101 0.29365 0.0809 0.0
O13 O 0.0829 0.26119 0.02934 0.0
Mg14 Mg 0.80385 0.82077 0.99359 0.0
O15 O 0.81623 0.87099 0.00529 0.0
O16 O 0.77429 0.87375 0.00855 0.0
Mg17 Mg 0.73477 0.82493 -0.00142 0.0
C18 C 0.80285 0.88651 0.00993 0.0
C19 C 0.86089 0.81364 0.00293 0.0
O20 O 0.84192 0.78454 -0.00485 0.0
O21 O 0.78777 0.8041 0.03853 0.0
O22 O 0.74488 0.80548 0.03886 0.0
O23 O 0.80478 0.83112 0.94723 0.0
O24 O 0.76441 0.81351 0.97383 0.0
C25 C 0.76384 0.79939 0.05081 0.0
C26 C 0.77673 0.82311 0.94945 0.0
O27 O 0.85162 0.83315 0.00483 0.0
Mg28 Mg 0.24499 0.01155 0.02952 0.0
O29 O 0.23699 0.05286 0.02665 0.0
O30 O 0.27806 0.09501 0.01117 0.0
Mg31 Mg 0.31413 0.0806 0.00736 0.0
C32 C 0.25086 0.08146 0.01931 0.0
C33 C 0.18061 0.95091 0.02497 0.0
O34 O 0.19605 0.9371 0.01839 0.0
O35 O 0.24406 0.00675 0.98127 0.0
O36 O 0.28839 0.04738 0.96954 0.0
O37 O 0.26035 0.02432 0.0746 0.0
O38 O 0.29056 0.04183 0.03772 0.0
C39 C 0.2638 0.02252 0.96278 0.0
C40 C 0.28712 0.0419 0.0649 0.0
O41 O 0.19444 0.98003 0.03091 0.0
Mg42 Mg 0.55883 0.5249 0.28152 0.0
O43 O 0.60841 0.54356 0.29201 0.0
O44 O 0.63516 0.59578 0.29028 0.0
Mg45 Mg 0.59986 0.61086 0.2845 0.0
C46 C 0.63337 0.56921 0.29368 0.0
C47 C 0.56672 0.46637 0.28482 0.0
O48 O 0.58932 0.48454 0.26854 0.0
O49 O 0.55292 0.536 0.32728 0.0
O50 O 0.58005 0.58833 0.32742 0.0
O51 O 0.56992 0.52873 0.23543 0.0
O52 O 0.57027 0.56674 0.26131 0.0
C53 C 0.56406 0.56248 0.3402 0.0
C54 C 0.57649 0.5577 0.2378 0.0
O55 O 0.54928 0.47596 0.29352 0.0
Mg56 Mg 0.53543 0.10391 0.31734 0.0
O57 O 0.52902 0.14638 0.32331 0.0
O58 O 0.48026 0.1312 0.3192 0.0
Mg59 Mg 0.45518 0.07823 0.31152 0.0
C60 C 0.50763 0.1525 0.32306 0.0
C61 C 0.60523 0.1341 0.32198 0.0
O62 O 0.5997 0.11359 0.30135 0.0
O63 O 0.51815 0.0865 0.36211 0.0
O64 O 0.46942 0.07086 0.35586 0.0
O65 O 0.53794 0.11247 0.27047 0.0
O66 O 0.49588 0.08151 0.29291 0.0
C67 C 0.49145 0.07441 0.37153 0.0
C68 C 0.50891 0.09546 0.26985 0.0
O69 O 0.58334 0.13459 0.3338 0.0
Mg70 Mg 0.92095 0.48522 0.29195 0.0
O71 O 0.8904 0.43499 0.30656 0.0
O72 O 0.91715 0.41062 0.3104 0.0
Mg73 Mg 0.96621 0.44723 0.30164 0.0
C74 C 0.89234 0.41066 0.31178 0.0
C75 C 0.88724 0.52263 0.29395 0.0
O76 O 0.91284 0.5436 0.28303 0.0
O77 O 0.93891 0.49899 0.33757 0.0
O78 O 0.96725 0.47625 0.34053 0.0
O79 O 0.91326 0.46717 0.24682 0.0
O80 O 0.95049 0.4725 0.27484 0.0
C81 C 0.95711 0.49303 0.35117 0.0
C82 C 0.93565 0.46248 0.25119 0.0
O83 O 0.88361 0.49596 0.30033 0.0
Mg84 Mg 0.37482 0.89598 0.6966 0.0
O85 O 0.3334 0.84891 0.6856 0.0
O86 O 0.29566 0.85611 0.67159 0.0
Mg87 Mg 0.31346 0.90904 0.67457 0.0
C88 C 0.30638 0.83816 0.67683 0.0
C89 C 0.43013 0.88446 0.69029 0.0
O90 O 0.44559 0.91496 0.68703 0.0
O91 O 0.38318 0.90802 0.64979 0.0
O92 O 0.34668 0.9183 0.63828 0.0
O93 O 0.35979 0.89193 0.74138 0.0
O94 O 0.34723 0.91434 0.70733 0.0
C95 C 0.37009 0.91682 0.63189 0.0
C96 C 0.34453 0.90508 0.73333 0.0
O97 O 0.40213 0.8713 0.69489 0.0
Mg98 Mg 0.09248 0.43587 0.63391 0.0
O99 O 0.11283 0.48737 0.64675 0.0
O100 O 0.07636 0.49719 0.65882 0.0
Mg101 Mg 0.03199 0.45085 0.65292 0.0
C102 C 0.10409 0.50616 0.65517 0.0
C103 C 0.15733 0.44682 0.62007 0.0
O104 O 0.14889 0.44598 0.59335 0.0
O105 O 0.08282 0.42142 0.67973 0.0
O106 O 0.04461 0.42896 0.69033 0.0
O107 O 0.08982 0.44909 0.58965 0.0
O108 O 0.05324 0.43516 0.62072 0.0
C109 C 0.06335 0.42006 0.69712 0.0
C110 C 0.06418 0.44642 0.59613 0.0
O111 O 0.13893 0.44211 0.63984 0.0
Mg112 Mg 0.53593 0.60694 0.70096 0.0
O113 O 0.53586 0.65179 0.68865 0.0
O114 O 0.58303 0.69094 0.68415 0.0
Mg115 Mg 0.61324 0.66952 0.69047 0.0
C116 C 0.55473 0.68049 0.68391 0.0
C117 C 0.46729 0.58383 0.7049 0.0
O118 O 0.47697 0.60349 0.72675 0.0
O119 O 0.5456 0.59999 0.65561 0.0
O120 O 0.59264 0.63894 0.64984 0.0
O121 O 0.5402 0.62233 0.74609 0.0
O122 O 0.57889 0.63394 0.71824 0.0
C123 C 0.56867 0.61504 0.64028 0.0
C124 C 0.5689 0.63819 0.74197 0.0
O125 O 0.48594 0.57955 0.69078 0.0
H126 H 0.20387 0.07 0.05304 0.0
H127 H 0.17598 0.09801 0.05472 0.0
H128 H 0.23219 0.16017 0.98934 0.0
H129 H 0.26128 0.133 0.98862 0.0
H130 H 0.22244 0.19225 0.02793 0.0
H131 H 0.15795 0.09682 0.97549 0.0
H132 H 0.13104 0.03942 0.96818 0.0
H133 H 0.0797 0.02788 0.0433 0.0
H134 H 0.1065 0.08513 0.05127 0.0
H135 H 0.1231 0.25267 0.00506 0.0
H136 H 0.15264 0.22674 -0.00243 0.0
H137 H 0.10636 0.16378 0.06625 0.0
H138 H 0.07653 0.18921 0.07362 0.0
H139 H 0.11106 0.13264 0.0212 0.0
H140 H 0.17722 0.22597 0.07587 0.0
H141 H 0.20542 0.28283 0.086 0.0
H142 H 0.25372 0.29781 0.00815 0.0
H143 H 0.2255 0.24103 -0.00262 0.0
C144 C 0.21032 0.08964 0.03901 0.0
C145 C 0.23461 0.09916 0.02051 0.0
C146 C 0.19422 0.10553 0.03985 0.0
C147 C 0.2014 0.13068 0.02158 0.0
C148 C 0.22606 0.14068 0.00348 0.0
C149 C 0.24265 0.12515 0.00306 0.0
C150 C 0.18328 0.14663 0.02171 0.0
C151 C 0.19812 0.17926 0.02588 0.0
C152 C 0.15146 0.12965 0.01961 0.0
C153 C 0.1344 0.09528 0.01408 0.0
C154 C 0.14095 0.08203 0.99047 0.0
C155 C 0.12573 0.04952 0.98622 0.0
C156 C 0.10379 0.03004 0.00535 0.0
C157 C 0.09674 0.04301 0.02854 0.0
C158 C 0.11189 0.07549 0.0329 0.0
C159 C 0.1192 0.2333 0.01856 0.0
C160 C 0.09754 0.2231 0.04003 0.0
C161 C 0.13617 0.21856 0.0143 0.0
C162 C 0.13189 0.19349 0.03152 0.0
C163 C 0.11002 0.18306 0.0527 0.0
C164 C 0.09307 0.19773 0.05696 0.0
C165 C 0.15023 0.17813 0.02775 0.0
C166 C 0.13541 0.14563 0.02284 0.0
C167 C 0.18202 0.19519 0.02921 0.0
C168 C 0.19901 0.22931 0.03566 0.0
C169 C 0.19367 0.24142 0.0608 0.0
C170 C 0.2097 0.27363 0.06667 0.0
C171 C 0.23128 0.29393 0.04768 0.0
C172 C 0.23695 0.28206 0.02281 0.0
C173 C 0.22097 0.24987 0.01682 0.0
H174 H 0.24367 0.31886 0.05228 0.0
H175 H 0.09228 0.00488 0.00227 0.0
H176 H 0.86422 0.92263 0.0125 0.0
H177 H 0.89416 0.97935 0.01912 0.0
H178 H 0.81317 0.98454 0.02739 0.0
H179 H 0.78293 0.92784 0.02038 0.0
H180 H 0.85124 0.02716 0.99075 0.0
H181 H 0.85798 0.99426 0.08543 0.0
H182 H 0.86821 0.96444 0.12153 0.0
H183 H 0.96016 0.00789 0.09569 0.0
H184 H 0.95039 0.03767 0.05916 0.0
H185 H 0.9218 0.18636 0.03479 0.0
H186 H 0.89096 0.12933 0.03317 0.0
H187 H 0.97081 0.12161 0.02721 0.0
H188 H 0.00192 0.1786 0.02944 0.0
H189 H 0.93268 0.08018 0.06367 0.0
H190 H 0.92634 0.11148 0.96834 0.0
H191 H 0.91688 0.14096 0.93129 0.0
H192 H 0.82511 0.1001 0.95717 0.0
H193 H 0.83414 0.07069 -0.00535 0.0
C194 C 0.8527 0.93575 0.01596 0.0
C195 C 0.82111 0.92063 0.01585 0.0
C196 C 0.86991 0.96819 0.01986 0.0
C197 C 0.85589 0.98612 0.02396 0.0
C198 C 0.82442 0.9711 0.02426 0.0
C199 C 0.80717 0.93867 0.02032 0.0
C200 C 0.87404 0.02069 0.02667 0.0
C201 C 0.86872 0.03879 0.00699 0.0
C202 C 0.89741 0.03576 0.04734 0.0
C203 C 0.90337 0.01799 0.06939 0.0
C204 C 0.88033 0.99728 0.0873 0.0
C205 C 0.88605 0.98042 0.10786 0.0
C206 C 0.9148 0.98421 0.11085 0.0
C207 C 0.9379 0.00495 0.09333 0.0
C208 C 0.93229 0.02185 0.07271 0.0
C209 C 0.93285 0.17257 0.03311 0.0
C210 C 0.96435 0.1871 0.03209 0.0
C211 C 0.91516 0.13996 0.03211 0.0
C212 C 0.92857 0.12124 0.0297 0.0
C213 C 0.96 0.13562 0.02905 0.0
C214 C 0.97773 0.16823 0.03022 0.0
C215 C 0.90984 0.08664 0.02777 0.0
C216 C 0.91509 0.06855 0.04752 0.0
C217 C 0.88651 0.07153 0.00705 0.0
C218 C 0.881 0.08913 0.98449 0.0
C219 C 0.9042 0.10897 0.96628 0.0
C220 C 0.89891 0.12564 0.94518 0.0
C221 C 0.87043 0.12247 0.94193 0.0
C222 C 0.84717 0.10257 0.95974 0.0
C223 C 0.85235 0.08588 0.9809 0.0
H224 H 0.86638 0.13539 0.92558 0.0
H225 H 0.91918 0.97113 0.12679 0.0
H226 H 0.8891 0.77885 0.00012 0.0
H227 H 0.94317 0.79801 0.00426 0.0
H228 H 0.95961 0.89181 0.01956 0.0
H229 H 0.9059 0.87304 0.01538 0.0
H230 H 0.99563 0.88952 0.9784 0.0
H231 H 0.96454 0.84996 0.07333 0.0
H232 H 0.93482 0.80966 0.10854 0.0
H233 H 0.96987 0.75218 0.07757 0.0
H234 H -0.00049 0.79199 0.04189 0.0
H235 H 0.14299 0.97451 0.03163 0.0
H236 H 0.08835 0.94656 0.02755 0.0
H237 H 0.08797 0.85996 0.01168 0.0
H238 H 0.143 0.88786 0.01579 0.0
H239 H 0.04369 0.85348 0.04955 0.0
H240 H 0.07853 0.89525 0.95768 0.0
H241 H 0.10859 0.93564 0.92271 0.0
H242 H 0.06608 0.9883 0.94682 0.0
H243 H 0.03624 0.9486 0.98244 0.0
C244 C 0.90422 0.80351 0.00459 0.0
C245 C 0.8932 0.82443 0.00733 0.0
C246 C 0.93507 0.81439 0.00701 0.0
C247 C 0.95534 0.84632 0.01222 0.0
C248 C 0.94433 0.8671 0.01542 0.0
C249 C 0.91359 0.85628 0.01311 0.0
C250 C 0.98817 0.85856 0.01342 0.0
C251 C 0.00618 0.88186 0.99412 0.0
C252 C 0.00173 0.8477 0.03328 0.0
C253 C 0.98395 0.82378 0.05472 0.0
C254 C 0.96569 0.8286 0.07385 0.0
C255 C 0.94891 0.80587 0.09394 0.0
C256 C 0.95038 0.77833 0.09523 0.0
C257 C 0.96871 0.7735 0.0765 0.0
C258 C 0.98552 0.79614 0.05636 0.0
C259 C 0.13138 0.94949 0.02742 0.0
C260 C 0.14738 0.93342 0.02388 0.0
C261 C 0.10013 0.93357 0.02501 0.0
C262 C 0.0842 0.90129 0.01898 0.0
C263 C 0.09993 0.88492 0.01625 0.0
C264 C 0.13133 0.9009 0.01852 0.0
C265 C 0.05115 0.88505 0.01503 0.0
C266 C 0.03311 0.86094 0.03367 0.0
C267 C 0.03749 0.89509 0.99449 0.0
C268 C 0.05533 0.91904 0.97297 0.0
C269 C 0.07579 0.91559 0.95575 0.0
C270 C 0.09278 0.93836 0.93578 0.0
C271 C 0.08931 0.96457 0.9326 0.0
C272 C 0.06874 0.96799 0.94931 0.0
C273 C 0.0518 0.94536 0.96941 0.0
H274 H 0.10249 0.98218 0.91715 0.0
H275 H 0.93738 0.76077 0.1108 0.0
H276 H 0.88646 0.576 0.2798 0.0
H277 H 0.84447 0.5859 0.28352 0.0
H278 H 0.79018 0.49476 0.32014 0.0
H279 H 0.83186 0.48446 0.31612 0.0
H280 H 0.76039 0.50478 0.2783 0.0
H281 H 0.81843 0.5615 0.36114 0.0
H282 H 0.86396 0.59984 0.38779 0.0
H283 H 0.86806 0.67431 0.33745 0.0
H284 H 0.82276 0.63634 0.31022 0.0
H285 H 0.6377 0.52104 0.3167 0.0
H286 H 0.6823 0.51572 0.32078 0.0
H287 H 0.73592 0.60743 0.28493 0.0
H288 H 0.69135 0.61336 0.28158 0.0
H289 H 0.76638 0.59771 0.32683 0.0
H290 H 0.70928 0.54083 0.24318 0.0
H291 H 0.66349 0.5026 0.21676 0.0
H292 H 0.65774 0.42844 0.26872 0.0
H293 H 0.70334 0.46631 0.29568 0.0
C294 C 0.86566 0.55814 0.28883 0.0
C295 C 0.86247 0.52941 0.2976 0.0
C296 C 0.84173 0.5639 0.29106 0.0
C297 C 0.81428 0.54116 0.30231 0.0
C298 C 0.81117 0.51262 0.31139 0.0
C299 C 0.83505 0.50681 0.30912 0.0
C300 C 0.78834 0.54648 0.3034 0.0
C301 C 0.76158 0.52486 0.28928 0.0
C302 C 0.79017 0.57313 0.31707 0.0
C303 C 0.81737 0.59602 0.33346 0.0
C304 C 0.82918 0.58602 0.35559 0.0
C305 C 0.85492 0.60769 0.37083 0.0
C306 C 0.86894 0.63948 0.36427 0.0
C307 C 0.8572 0.64967 0.34249 0.0
C308 C 0.83147 0.62809 0.32717 0.0
C309 C 0.65903 0.54023 0.3099 0.0
C310 C 0.66098 0.56749 0.29851 0.0
C311 C 0.68448 0.53711 0.31219 0.0
C312 C 0.71228 0.56087 0.30254 0.0
C313 C 0.71463 0.58874 0.29236 0.0
C314 C 0.68916 0.59208 0.29042 0.0
C315 C 0.73846 0.55592 0.30187 0.0
C316 C 0.76524 0.57762 0.31593 0.0
C317 C 0.73672 0.52935 0.28809 0.0
C318 C 0.70961 0.50644 0.27156 0.0
C319 C 0.69819 0.51639 0.24904 0.0
C320 C 0.67229 0.49478 0.23395 0.0
C321 C 0.65775 0.46311 0.24104 0.0
C322 C 0.66909 0.45297 0.26321 0.0
C323 C 0.69497 0.47449 0.27838 0.0
H324 H 0.63766 0.44643 0.22938 0.0
H325 H 0.88886 0.65622 0.37609 0.0
H326 H 0.56206 0.20503 0.31492 0.0
H327 H 0.57287 0.25914 0.3131 0.0
H328 H 0.48097 0.22921 0.33445 0.0
H329 H 0.46972 0.17483 0.33523 0.0
H330 H 0.49594 0.26613 0.29173 0.0
H331 H 0.54256 0.27139 0.38214 0.0
H332 H 0.57606 0.26493 0.41607 0.0
H333 H 0.65278 0.32835 0.36785 0.0
H334 H 0.61969 0.33469 0.33324 0.0
H335 H 0.51761 0.419 0.31048 0.0
H336 H 0.50871 0.36658 0.32152 0.0
H337 H 0.59543 0.39066 0.28813 0.0
H338 H 0.60455 0.44314 0.27716 0.0
H339 H 0.58291 0.35742 0.33886 0.0
H340 H 0.53535 0.34945 0.24749 0.0
H341 H 0.50156 0.35585 0.21388 0.0
H342 H 0.42595 0.29726 0.26563 0.0
H343 H 0.45939 0.29087 0.29978 0.0
C344 C 0.54423 0.20998 0.31963 0.0
C345 C 0.51498 0.18559 0.32516 0.0
C346 C 0.55049 0.24102 0.3187 0.0
C347 C 0.52781 0.24838 0.3239 0.0
C348 C 0.49883 0.22413 0.33029 0.0
C349 C 0.49244 0.19305 0.3308 0.0
C350 C 0.5337 0.28096 0.32076 0.0
C351 C 0.51464 0.28597 0.30253 0.0
C352 C 0.55859 0.30705 0.33417 0.0
C353 C 0.57859 0.30331 0.35494 0.0
C354 C 0.56655 0.28375 0.37861 0.0
C355 C 0.58547 0.28011 0.39797 0.0
C356 C 0.61651 0.29612 0.39404 0.0
C357 C 0.62871 0.31588 0.37079 0.0
C358 C 0.60989 0.31952 0.3513 0.0
C359 C 0.53484 0.4132 0.30562 0.0
C360 C 0.56165 0.43508 0.29264 0.0
C361 C 0.52971 0.38325 0.31191 0.0
C362 C 0.5513 0.37469 0.30539 0.0
C363 C 0.57847 0.3968 0.29329 0.0
C364 C 0.58354 0.42668 0.28684 0.0
C365 C 0.54502 0.34228 0.3101 0.0
C366 C 0.56407 0.33741 0.32841 0.0
C367 C 0.52006 0.31624 0.29691 0.0
C368 C 0.49991 0.31996 0.27634 0.0
C369 C 0.51156 0.33815 0.25182 0.0
C370 C 0.49246 0.34173 0.23265 0.0
C371 C 0.46164 0.32704 0.23766 0.0
C372 C 0.44984 0.30867 0.26181 0.0
C373 C 0.46884 0.30504 0.28107 0.0
H374 H 0.44689 0.32984 0.22278 0.0
H375 H 0.63112 0.29329 0.40907 0.0
H376 H 0.62349 0.18515 0.35722 0.0
H377 H 0.67393 0.23063 0.36198 0.0
H378 H 0.70789 0.18617 0.30582 0.0
H379 H 0.65744 0.14047 0.30085 0.0
H380 H 0.74738 0.22028 0.35296 0.0
H381 H 0.6886 0.2336 0.27811 0.0
H382 H 0.64381 0.23451 0.25982 0.0
H383 H 0.66034 0.30811 0.3196 0.0
H384 H 0.70485 0.30713 0.33876 0.0
H385 H 0.87959 0.35056 0.30152 0.0
H386 H 0.83202 0.30241 0.30905 0.0
H387 H 0.79525 0.35644 0.34595 0.0
H388 H 0.84225 0.4047 0.33698 0.0
H389 H 0.75642 0.31713 0.31193 0.0
H390 H 0.81538 0.30741 0.38618 0.0
H391 H 0.85872 0.30629 0.40811 0.0
H392 H 0.84155 0.22768 0.35462 0.0
H393 H 0.79834 0.22858 0.33209 0.0
C394 C 0.64174 0.18474 0.34626 0.0
C395 C 0.63637 0.15933 0.32835 0.0
C396 C 0.67054 0.21078 0.34901 0.0
C397 C 0.69448 0.21186 0.33396 0.0
C398 C 0.68965 0.18575 0.31756 0.0
C399 C 0.66078 0.15972 0.31466 0.0
C400 C 0.72381 0.24123 0.33317 0.0
C401 C 0.74954 0.24147 0.34383 0.0
C402 C 0.72628 0.269 0.32198 0.0
C403 C 0.69987 0.27004 0.31008 0.0
C404 C 0.68254 0.2498 0.28753 0.0
C405 C 0.65719 0.25032 0.27703 0.0
C406 C 0.64913 0.27123 0.28868 0.0
C407 C 0.66651 0.2918 0.31075 0.0
C408 C 0.6918 0.29127 0.32143 0.0
C409 C 0.86144 0.35209 0.31152 0.0
C410 C 0.86459 0.38135 0.31864 0.0
C411 C 0.83427 0.32452 0.31599 0.0
C412 C 0.81003 0.32561 0.32847 0.0
C413 C 0.81351 0.35488 0.33623 0.0
C414 C 0.84041 0.38246 0.33116 0.0
C415 C 0.78048 0.29655 0.33181 0.0
C416 C 0.75453 0.29622 0.32143 0.0
C417 C 0.7778 0.26891 0.34376 0.0
C418 C 0.80377 0.26825 0.35727 0.0
C419 C 0.82098 0.29003 0.37894 0.0
C420 C 0.8455 0.2894 0.39151 0.0
C421 C 0.85293 0.26697 0.38272 0.0
C422 C 0.83579 0.24506 0.36139 0.0
C423 C 0.81126 0.2456 0.34874 0.0
H424 H 0.87192 0.26653 0.39247 0.0
H425 H 0.62949 0.27159 0.28055 0.0
H426 H 0.4028 0.82078 0.68745 0.0
H427 H 0.42639 0.78856 0.68425 0.0
H428 H 0.51398 0.8717 0.68534 0.0
H429 H 0.49039 0.90437 0.68781 0.0
H430 H 0.51126 0.82959 0.64692 0.0
H431 H 0.48662 0.82757 0.74533 0.0
H432 H 0.45397 0.82077 0.78599 0.0
H433 H 0.39545 0.72463 0.76117 0.0
H434 H 0.42754 0.73096 0.72012 0.0
H435 H 0.58741 0.74456 0.68041 0.0
H436 H 0.56821 0.78103 0.67901 0.0
H437 H 0.47732 0.70324 0.67729 0.0
H438 H 0.49622 0.66663 0.67915 0.0
H439 H 0.48468 0.74536 0.71727 0.0
H440 H 0.50924 0.74808 0.61806 0.0
H441 H 0.54228 0.75527 0.57764 0.0
H442 H 0.60183 0.85046 0.6046 0.0
H443 H 0.56934 0.84371 0.64542 0.0
C444 C 0.4271 0.83231 0.68705 0.0
C445 C 0.44475 0.86517 0.68815 0.0
C446 C 0.44056 0.81381 0.68529 0.0
C447 C 0.47197 0.82769 0.68509 0.0
C448 C 0.4897 0.86051 0.6856 0.0
C449 C 0.4762 0.87912 0.6871 0.0
C450 C 0.48606 0.80772 0.68457 0.0
C451 C 0.50583 0.81147 0.66254 0.0
C452 C 0.47861 0.78377 0.70471 0.0
C453 C 0.45937 0.77982 0.72952 0.0
C454 C 0.46669 0.80503 0.74843 0.0
C455 C 0.44829 0.80126 0.77156 0.0
C456 C 0.42262 0.77231 0.77612 0.0
C457 C 0.41533 0.74704 0.7576 0.0
C458 C 0.43363 0.7507 0.73442 0.0
C459 C 0.56333 0.73516 0.67936 0.0
C460 C 0.54337 0.70263 0.68002 0.0
C461 C 0.5524 0.75608 0.67848 0.0
C462 C 0.52133 0.74486 0.67795 0.0
C463 C 0.50139 0.71241 0.67778 0.0
C464 C 0.51226 0.69151 0.67877 0.0
C465 C 0.50944 0.76678 0.67931 0.0
C466 C 0.49018 0.7635 0.70165 0.0
C467 C 0.5175 0.79118 0.65954 0.0
C468 C 0.53701 0.79528 0.63496 0.0
C469 C 0.52951 0.77047 0.6155 0.0
C470 C 0.54811 0.77448 0.59249 0.0
C471 C 0.57418 0.80328 0.5886 0.0
C472 C 0.58166 0.82816 0.60766 0.0
C473 C 0.56314 0.82426 0.63073 0.0
H474 H 0.58856 0.80634 0.57077 0.0
H475 H 0.4084 0.76943 0.79404 0.0
H476 H 0.31967 0.79262 0.69107 0.0
H477 H 0.28707 0.73594 0.68709 0.0
H478 H 0.21606 0.74869 0.6517 0.0
H479 H 0.24856 0.80558 0.6555 0.0
H480 H 0.2334 0.69805 0.7121 0.0
H481 H 0.17694 0.68914 0.6023 0.0
H482 H 0.18841 0.71765 0.55695 0.0
H483 H 0.28272 0.75354 0.57209 0.0
H484 H 0.27179 0.72491 0.61731 0.0
H485 H 0.09855 0.5511 0.68487 0.0
H486 H 0.13546 0.60714 0.68907 0.0
H487 H 0.19717 0.59324 0.63786 0.0
H488 H 0.16082 0.5372 0.63402 0.0
H489 H 0.18719 0.64356 0.62014 0.0
H490 H 0.21433 0.6052 0.70238 0.0
H491 H 0.20524 0.57613 0.74713 0.0
H492 H 0.17418 0.6338 0.78604 0.0
H493 H 0.18276 0.66299 0.74132 0.0
C494 C 0.29718 0.78348 0.68231 0.0
C495 C 0.28677 0.80374 0.67357 0.0
C496 C 0.27853 0.75103 0.68017 0.0
C497 C 0.24922 0.73813 0.66901 0.0
C498 C 0.23873 0.7582 0.66014 0.0
C499 C 0.25733 0.79071 0.66239 0.0
C500 C 0.22956 0.70365 0.66696 0.0
C501 C 0.22328 0.68616 0.692 0.0
C502 C 0.2167 0.6881 0.64066 0.0
C503 C 0.22353 0.70513 0.61334 0.0
C504 C 0.20011 0.70303 0.5959 0.0
C505 C 0.20652 0.71922 0.57022 0.0
C506 C 0.23628 0.73748 0.56169 0.0
C507 C 0.25969 0.73949 0.57878 0.0
C508 C 0.2534 0.72332 0.60445 0.0
C509 C 0.12006 0.55994 0.67468 0.0
C510 C 0.12675 0.53971 0.65913 0.0
C511 C 0.14109 0.5919 0.67713 0.0
C512 C 0.16893 0.60419 0.66373 0.0
C513 C 0.17575 0.58411 0.64831 0.0
C514 C 0.15499 0.5521 0.64627 0.0
C515 C 0.1907 0.63818 0.66533 0.0
C516 C 0.1973 0.65554 0.64022 0.0
C517 C 0.20411 0.65356 0.69149 0.0
C518 C 0.1989 0.63606 0.7184 0.0
C519 C 0.20531 0.6115 0.72038 0.0
C520 C 0.20031 0.59504 0.74577 0.0
C521 C 0.18905 0.60305 0.7694 0.0
C522 C 0.18285 0.6276 0.76771 0.0
C523 C 0.18781 0.64413 0.74235 0.0
H524 H 0.18519 0.59028 0.78905 0.0
H525 H 0.2412 0.75001 0.54182 0.0
H526 H 0.18375 0.46253 0.6729 0.0
H527 H 0.23678 0.48422 0.68517 0.0
H528 H 0.25582 0.47607 0.59717 0.0
H529 H 0.2025 0.45456 0.58444 0.0
H530 H 0.28463 0.4557 0.6405 0.0
H531 H 0.272 0.54332 0.61627 0.0
H532 H 0.24736 0.5753 0.61883 0.0
H533 H 0.26788 0.59097 0.70858 0.0
H534 H 0.29227 0.55866 0.70664 0.0
H535 H 0.44254 0.55264 0.65464 0.0
H536 H 0.39008 0.52809 0.63892 0.0
H537 H 0.3672 0.55413 0.71897 0.0
H538 H 0.41993 0.57973 0.73445 0.0
H539 H 0.34014 0.56538 0.67727 0.0
H540 H 0.3509 0.47753 0.70333 0.0
H541 H 0.37364 0.4437 0.70304 0.0
H542 H 0.35499 0.42645 0.61312 0.0
H543 H 0.33247 0.46053 0.6128 0.0
C544 C 0.19907 0.465 0.65611 0.0
C545 C 0.18894 0.45698 0.62762 0.0
C546 C 0.22937 0.47748 0.6632 0.0
C547 C 0.25009 0.48195 0.64202 0.0
C548 C 0.24002 0.47279 0.61375 0.0
C549 C 0.20964 0.4606 0.60653 0.0
C550 C 0.28241 0.49739 0.64951 0.0
C551 C 0.29701 0.47983 0.6481 0.0
C552 C 0.29806 0.52855 0.66015 0.0
C553 C 0.28375 0.54834 0.66134 0.0
C554 C 0.27106 0.55338 0.6366 0.0
C555 C 0.25718 0.5716 0.63793 0.0
C556 C 0.25604 0.58513 0.66385 0.0
C557 C 0.2688 0.58048 0.68851 0.0
C558 C 0.28268 0.56224 0.6873 0.0
C559 C 0.42632 0.55301 0.66897 0.0
C560 C 0.43533 0.56798 0.69586 0.0
C561 C 0.3963 0.53886 0.65999 0.0
C562 C 0.37459 0.53884 0.67792 0.0
C563 C 0.38355 0.55382 0.70477 0.0
C564 C 0.41367 0.56835 0.71364 0.0
C565 C 0.34261 0.52367 0.66851 0.0
C566 C 0.32796 0.54128 0.66956 0.0
C567 C 0.32682 0.49241 0.65785 0.0
C568 C 0.34027 0.47183 0.65799 0.0
C569 C 0.35185 0.46671 0.68345 0.0
C570 C 0.36466 0.44746 0.6834 0.0
C571 C 0.36583 0.433 0.65806 0.0
C572 C 0.35411 0.4377 0.63272 0.0
C573 C 0.34129 0.45696 0.63265 0.0
H574 H 0.37576 0.41811 0.65807 0.0
H575 H 0.24538 0.5993 0.66479 0.0
H576 H 0.07572 0.30237 0.94212 0.0
H577 H 0.08341 0.31959 0.89247 0.0
H578 H 0.00031 0.32147 0.89298 0.0
H579 H 0.9921 0.30373 0.94194 0.0
H580 H 0.00579 0.29841 0.84391 0.0
H581 H 0.06902 0.38822 0.90457 0.0
H582 H 0.10892 0.41799 0.94063 0.0
H583 H 0.17333 0.41137 0.88778 0.0
H584 H 0.13369 0.3812 0.85155 0.0
H585 H 0.02074 0.40561 0.73786 0.0
H586 H 0.01723 0.38097 0.7838 0.0
H587 H 0.09881 0.37935 0.76683 0.0
H588 H 0.1027 0.40414 0.72094 0.0
H589 H 0.09736 0.39876 0.82174 0.0
H590 H 0.03362 0.31357 0.7585 0.0
H591 H 0.99308 0.28547 0.72263 0.0
H592 H 0.92876 0.28478 0.78077 0.0
H593 H 0.969 0.31328 0.81686 0.0
C594 C 0.0589 0.30605 0.93151 0.0
C595 C 0.03344 0.30196 0.94613 0.0
C596 C 0.06341 0.31604 0.90321 0.0
C597 C 0.04264 0.32225 0.8892 0.0
C598 C 0.01665 0.31688 0.90337 0.0
C599 C 0.01208 0.30684 0.93148 0.0
C600 C 0.04818 0.33563 0.86024 0.0
C601 C 0.02575 0.32041 0.83911 0.0
C602 C 0.07453 0.36402 0.85379 0.0
C603 C 0.09834 0.38213 0.87554 0.0
C604 C 0.09165 0.3929 0.90076 0.0
C605 C 0.11421 0.40988 0.9212 0.0
C606 C 0.14362 0.41648 0.91654 0.0
C607 C 0.15053 0.40618 0.89139 0.0
C608 C 0.12803 0.38915 0.87089 0.0
C609 C 0.03804 0.40019 0.74392 0.0
C610 C 0.06189 0.40669 0.72562 0.0
C611 C 0.03591 0.38596 0.77011 0.0
C612 C 0.05754 0.37797 0.77846 0.0
C613 C 0.08182 0.38521 0.76067 0.0
C614 C 0.08393 0.39931 0.73443 0.0
C615 C 0.05465 0.36186 0.80572 0.0
C616 C 0.07759 0.37654 0.82646 0.0
C617 C 0.02867 0.33311 0.8119 0.0
C618 C 0.00438 0.31578 0.7903 0.0
C619 C 0.01087 0.30763 0.76356 0.0
C620 C 0.98794 0.2916 0.7432 0.0
C621 C 0.95838 0.2834 0.7494 0.0
C622 C 0.95167 0.29116 0.776 0.0
C623 C 0.97453 0.30722 0.79643 0.0
H624 H 0.94065 0.27099 0.73361 0.0
H625 H 0.16107 0.42964 0.93239 0.0
H626 H 0.78758 0.81716 0.89369 0.0
H627 H 0.75066 0.79868 0.85459 0.0
H628 H 0.6873 0.80599 0.90923 0.0
H629 H 0.72385 0.82372 0.94849 0.0
H630 H 0.66564 0.74865 0.89105 0.0
H631 H 0.7106 0.84736 0.84636 0.0
H632 H 0.75126 0.89663 0.82722 0.0
H633 H 0.77148 0.8447 0.76607 0.0
H634 H 0.73123 0.79507 0.7851 0.0
H635 H 0.5534 0.66512 0.78475 0.0
H636 H 0.58728 0.70807 0.81689 0.0
H637 H 0.66372 0.71108 0.77642 0.0
H638 H 0.63005 0.66865 0.7439 0.0
H639 H 0.67383 0.76947 0.78727 0.0
H640 H 0.63623 0.67216 0.83899 0.0
H641 H 0.59663 0.62261 0.85886 0.0
H642 H 0.56383 0.67318 0.90761 0.0
H643 H 0.60306 0.723 0.88774 0.0
C644 C 0.76617 0.8159 0.89708 0.0
C645 C 0.75831 0.82115 0.92432 0.0
C646 C 0.74508 0.80545 0.87464 0.0
C647 C 0.71609 0.80069 0.87906 0.0
C648 C 0.70944 0.80922 0.90544 0.0
C649 C 0.73035 0.81926 0.92792 0.0
C650 C 0.69146 0.78145 0.85842 0.0
C651 C 0.66706 0.75374 0.86845 0.0
C652 C 0.69366 0.78763 0.82887 0.0
C653 C 0.71795 0.81744 0.8173 0.0
C654 C 0.72386 0.84641 0.82898 0.0
C655 C 0.74682 0.87442 0.81812 0.0
C656 C 0.76397 0.87379 0.79547 0.0
C657 C 0.75817 0.84515 0.78361 0.0
C658 C 0.73524 0.81707 0.7944 0.0
C659 C 0.57743 0.67491 0.78276 0.0
C660 C 0.58912 0.6634 0.76198 0.0
C661 C 0.59673 0.69951 0.80103 0.0
C662 C 0.62799 0.71262 0.79912 0.0
C663 C 0.63967 0.70144 0.77812 0.0
C664 C 0.62041 0.67705 0.75969 0.0
C665 C 0.64863 0.73665 0.82001 0.0
C666 C 0.6722 0.76502 0.80999 0.0
C667 C 0.64583 0.73115 0.84966 0.0
C668 C 0.62231 0.70122 0.86163 0.0
C669 C 0.62042 0.67266 0.85378 0.0
C670 C 0.59808 0.64455 0.86507 0.0
C671 C 0.57766 0.64474 0.88441 0.0
C672 C 0.57961 0.67306 0.89258 0.0
C673 C 0.6019 0.70124 0.88132 0.0
H674 H 0.56038 0.62295 0.89313 0.0
H675 H 0.78173 0.8955 0.7871 0.0
H676 H 0.34643 0.90384 0.79128 0.0
H677 H 0.31839 0.91699 0.8248 0.0
H678 H 0.26993 0.92896 0.75466 0.0
H679 H 0.29917 0.91751 0.72103 0.0
H680 H 0.28582 0.97447 0.78774 0.0
H681 H 0.23507 0.86627 0.80397 0.0
H682 H 0.22802 0.81371 0.81255 0.0
H683 H 0.27477 0.84549 0.89317 0.0
H684 H 0.28252 0.89838 0.88492 0.0
H685 H 0.21624 0.96865 0.94018 0.0
H686 H 0.21451 0.94323 0.89459 0.0
H687 H 0.30157 0.02088 0.87417 0.0
H688 H 0.30307 0.04673 0.91892 0.0
H689 H 0.24847 0.92156 0.88008 0.0
H690 H 0.31456 0.03007 0.80607 0.0
H691 H 0.31509 0.07923 0.79521 0.0
H692 H 0.22502 0.04033 0.8255 0.0
H693 H 0.22374 0.99075 0.83615 0.0
C694 C 0.32952 0.90886 0.78299 0.0
C695 C 0.32509 0.9097 0.75347 0.0
C696 C 0.31326 0.91613 0.80222 0.0
C697 C 0.2916 0.92352 0.79236 0.0
C698 C 0.28648 0.92335 0.76285 0.0
C699 C 0.30321 0.91672 0.74359 0.0
C700 C 0.2765 0.93417 0.81282 0.0
C701 C 0.27731 0.96267 0.80778 0.0
C702 C 0.26414 0.91822 0.83852 0.0
C703 C 0.25946 0.88637 0.84375 0.0
C704 C 0.244 0.86212 0.82346 0.0
C705 C 0.23987 0.83225 0.82828 0.0
C706 C 0.25096 0.82627 0.85338 0.0
C707 C 0.26617 0.85015 0.87374 0.0
C708 C 0.27039 0.88007 0.86903 0.0
C709 C 0.23466 0.98069 0.92563 0.0
C710 C 0.25993 0.00964 0.93337 0.0
C711 C 0.23366 0.96606 0.89961 0.0
C712 C 0.25784 0.98013 0.88084 0.0
C713 C 0.28232 0.00975 0.88793 0.0
C714 C 0.28325 0.02446 0.91375 0.0
C715 C 0.25956 0.9627 0.85561 0.0
C716 C 0.25623 0.93292 0.85974 0.0
C717 C 0.26854 0.97691 0.82868 0.0
C718 C 0.26911 0.00667 0.82203 0.0
C719 C 0.29477 0.03189 0.81023 0.0
C720 C 0.29523 0.05987 0.80416 0.0
C721 C 0.27013 0.06292 0.8097 0.0
C722 C 0.24449 0.03797 0.82129 0.0
C723 C 0.2439 0.00993 0.82739 0.0
H724 H 0.27053 0.08461 0.805 0.0
H725 H 0.24774 0.80313 0.85706 0.0
H726 H 0.44849 0.05917 0.26172 0.0
H727 H 0.41748 0.06291 0.22403 0.0
H728 H 0.49676 0.13448 0.18344 0.0
H729 H 0.52826 0.13179 0.222 0.0
H730 H 0.41675 0.12045 0.20806 0.0
H731 H 0.47537 0.11432 0.10857 0.0
H732 H 0.51016 0.09649 0.09277 0.0
H733 H 0.47496 0.02399 0.15525 0.0
H734 H 0.43974 0.04114 0.17113 0.0
H735 H 0.34526 0.08351 0.05097 0.0
H736 H 0.38926 0.10679 0.08288 0.0
H737 H 0.3321 0.06179 0.15445 0.0
H738 H 0.28809 0.03961 0.12292 0.0
H739 H 0.41063 0.0777 0.11049 0.0
H740 H 0.36083 0.09636 0.21617 0.0
H741 H 0.32776 0.11675 0.23076 0.0
H742 H 0.34751 0.16968 0.15379 0.0
H743 H 0.38106 0.15002 0.1389 0.0
C744 C 0.45945 0.07599 0.24502 0.0
C745 C 0.49081 0.09562 0.24517 0.0
C746 C 0.44166 0.07803 0.22347 0.0
C747 C 0.45486 0.09923 0.20127 0.0
C748 C 0.48624 0.11813 0.2006 0.0
C749 C 0.50414 0.11642 0.22251 0.0
C750 C 0.43525 0.10086 0.17889 0.0
C751 C 0.41531 0.11119 0.18665 0.0
C752 C 0.43448 0.0901 0.15073 0.0
C753 C 0.45529 0.07932 0.14128 0.0
C754 C 0.47508 0.09456 0.1189 0.0
C755 C 0.49484 0.08456 0.10993 0.0
C756 C 0.49487 0.05921 0.12309 0.0
C757 C 0.47504 0.04372 0.14518 0.0
C758 C 0.45521 0.05361 0.15421 0.0
C759 C 0.34199 0.07927 0.0736 0.0
C760 C 0.31317 0.05968 0.08441 0.0
C761 C 0.3672 0.09251 0.09182 0.0
C762 C 0.36408 0.08629 0.12113 0.0
C763 C 0.33516 0.06764 0.13205 0.0
C764 C 0.30994 0.05474 0.11393 0.0
C765 C 0.39091 0.09606 0.13988 0.0
C766 C 0.41236 0.08789 0.13151 0.0
C767 C 0.39337 0.10938 0.16736 0.0
C768 C 0.37338 0.12155 0.17635 0.0
C769 C 0.3583 0.11251 0.20243 0.0
C770 C 0.33941 0.1239 0.21073 0.0
C771 C 0.33549 0.14444 0.19319 0.0
C772 C 0.35049 0.15369 0.16732 0.0
C773 C 0.36942 0.14238 0.15892 0.0
H774 H 0.32085 0.15322 0.19966 0.0
H775 H 0.5102 0.05152 0.11612 0.0
H776 H 0.05342 0.32324 0.13196 0.0
H777 H 0.02883 0.34226 0.16453 0.0
H778 H 0.94693 0.2937 0.11404 0.0
H779 H 0.97163 0.2751 0.08144 0.0
H780 H 0.96321 0.35272 0.11885 0.0
H781 H 0.95032 0.27405 0.1841 0.0
H782 H 0.96436 0.24179 0.21335 0.0
H783 H 0.02821 0.32369 0.2607 0.0
H784 H 0.01489 0.35654 0.23146 0.0
H785 H 0.89761 0.41922 0.21137 0.0
H786 H 0.90628 0.38156 0.18443 0.0
H787 H 0.99532 0.42217 0.22194 0.0
H788 H 0.98676 0.45941 0.24887 0.0
H789 H 0.96618 0.35911 0.22455 0.0
H790 H 0.98373 0.43765 0.15337 0.0
H791 H 0.96943 0.46945 0.12369 0.0
H792 H 0.89534 0.3857 0.0875 0.0
H793 H 0.90903 0.35341 0.11725 0.0
C794 C 0.02992 0.31591 0.12842 0.0
C795 C 0.01453 0.29836 0.10399 0.0
C796 C 0.01584 0.32671 0.14701 0.0
C797 C 0.98605 0.31956 0.1416 0.0
C798 C 0.97 0.2998 0.11844 0.0
C799 C 0.98416 0.28933 0.09976 0.0
C800 C 0.97316 0.33604 0.15762 0.0
C801 C 0.96319 0.35348 0.142 0.0
C802 C 0.97356 0.33745 0.18777 0.0
C803 C 0.98173 0.31781 0.20542 0.0
C804 C 0.96754 0.28524 0.20059 0.0
C805 C 0.97533 0.26683 0.2172 0.0
C806 C 0.9972 0.28069 0.23883 0.0
C807 C 0.01128 0.31298 0.24393 0.0
C808 C 0.00358 0.33151 0.22736 0.0
C809 C 0.91914 0.42031 0.21351 0.0
C810 C 0.94148 0.44214 0.23225 0.0
C811 C 0.92401 0.39874 0.19826 0.0
C812 C 0.95141 0.399 0.20134 0.0
C813 C 0.97391 0.42132 0.21951 0.0
C814 C 0.96902 0.44268 0.23477 0.0
C815 C 0.95711 0.37629 0.18572 0.0
C816 C 0.96568 0.35774 0.20142 0.0
C817 C 0.95535 0.37372 0.15563 0.0
C818 C 0.94717 0.39314 0.13777 0.0
C819 C 0.96425 0.42603 0.13925 0.0
C820 C 0.95628 0.44414 0.12239 0.0
C821 C 0.93143 0.42961 0.10379 0.0
C822 C 0.91455 0.39693 0.10196 0.0
C823 C 0.9224 0.37872 0.1188 0.0
H824 H 0.92531 0.44367 0.09074 0.0
H825 H 0.0032 0.26639 0.25168 0.0
H826 H 0.58289 0.61525 0.23039 0.0
H827 H 0.61859 0.65689 0.19996 0.0
H828 H 0.64941 0.59558 0.16805 0.0
H829 H 0.6136 0.55359 0.19867 0.0
H830 H 0.69638 0.65577 0.1854 0.0
H831 H 0.60794 0.61055 0.12554 0.0
H832 H 0.55438 0.59045 0.11394 0.0
H833 H 0.56488 0.68085 0.133 0.0
H834 H 0.61844 0.70139 0.14512 0.0
H835 H 0.77605 0.75403 0.06779 0.0
H836 H 0.74841 0.71411 0.10326 0.0
H837 H 0.70289 0.76381 0.129 0.0
H838 H 0.72959 0.80305 0.09277 0.0
H839 H 0.66386 0.70705 0.11393 0.0
H840 H 0.75219 0.75277 0.17423 0.0
H841 H 0.80564 0.77309 0.18653 0.0
H842 H 0.7959 0.68301 0.16754 0.0
H843 H 0.74247 0.66224 0.15473 0.0
C844 C 0.59705 0.61051 0.21668 0.0
C845 C 0.59544 0.58119 0.2168 0.0
C846 C 0.61741 0.6343 0.19933 0.0
C847 C 0.63657 0.62924 0.18179 0.0
C848 C 0.63479 0.59987 0.18151 0.0
C849 C 0.61416 0.57587 0.19875 0.0
C850 C 0.65863 0.65502 0.16411 0.0
C851 C 0.68941 0.66679 0.16943 0.0
C852 C 0.64935 0.66969 0.14385 0.0
C853 C 0.61716 0.65743 0.13647 0.0
C854 C 0.59878 0.62608 0.12748 0.0
C855 C 0.56843 0.61462 0.12077 0.0
C856 C 0.55622 0.63434 0.12279 0.0
C857 C 0.57436 0.66559 0.13147 0.0
C858 C 0.60473 0.67716 0.13823 0.0
C859 C 0.76096 0.75703 0.08173 0.0
C860 C 0.7547 0.78142 0.07739 0.0
C861 C 0.74513 0.73415 0.10202 0.0
C862 C 0.72335 0.73579 0.11866 0.0
C863 C 0.71933 0.76187 0.11618 0.0
C864 C 0.73471 0.78437 0.0956 0.0
C865 C 0.70192 0.70856 0.13555 0.0
C866 C 0.67108 0.69626 0.12993 0.0
C867 C 0.71125 0.69359 0.15556 0.0
C868 C 0.74338 0.70604 0.16324 0.0
C869 C 0.7615 0.73736 0.17243 0.0
C870 C 0.79179 0.74895 0.17955 0.0
C871 C 0.80418 0.72938 0.17774 0.0
C872 C 0.78629 0.69815 0.16889 0.0
C873 C 0.75599 0.68646 0.16173 0.0
H874 H 0.82763 0.73839 0.18327 0.0
H875 H 0.53272 0.62542 0.11759 0.0
H876 H 0.00981 0.44359 0.60256 0.0
H877 H 0.98607 0.46408 0.5703 0.0
H878 H 0.06154 0.49688 0.51412 0.0
H879 H 0.08563 0.47727 0.54643 0.0
H880 H 0.04321 0.53942 0.51908 0.0
H881 H 0.99661 0.42582 0.50315 0.0
H882 H 0.96775 0.37078 0.51821 0.0
H883 H 0.89419 0.38404 0.54163 0.0
H884 H 0.92282 0.43929 0.52697 0.0
H885 H 0.01175 0.51426 0.37573 0.0
H886 H 0.02397 0.52102 0.42652 0.0
H887 H 0.9342 0.50176 0.44484 0.0
H888 H 0.92193 0.4953 0.39343 0.0
H889 H 0.9485 0.46122 0.47043 0.0
H890 H 0.99182 0.57064 0.46817 0.0
H891 H 0.02151 0.62413 0.4497 0.0
H892 H 0.10213 0.61865 0.45782 0.0
H893 H 0.07293 0.56496 0.47592 0.0
C894 C 0.02148 0.45547 0.5835 0.0
C895 C 0.04957 0.45874 0.577 0.0
C896 C 0.00786 0.46713 0.56509 0.0
C897 C 0.02203 0.48196 0.53981 0.0
C898 C 0.05031 0.48574 0.53364 0.0
C899 C 0.06393 0.47424 0.552 0.0
C900 C 0.00692 0.49164 0.51844 0.0
C901 C 0.02239 0.52247 0.50849 0.0
C902 C 0.97908 0.46983 0.50551 0.0
C903 C 0.96198 0.43672 0.51438 0.0
C904 C 0.97438 0.41704 0.51173 0.0
C905 C 0.95805 0.38581 0.52015 0.0
C906 C 0.9292 0.37395 0.53098 0.0
C907 C 0.91658 0.39328 0.53333 0.0
C908 C 0.93283 0.42454 0.52498 0.0
C909 C 0.99492 0.51248 0.39052 0.0
C910 C 0.96589 0.50408 0.38083 0.0
C911 C 0.00198 0.51659 0.41955 0.0
C912 C 0.98004 0.51208 0.43947 0.0
C913 C 0.95149 0.50562 0.42975 0.0
C914 C 0.94455 0.50201 0.40048 0.0
C915 C 0.98583 0.5085 0.46982 0.0
C916 C 0.96861 0.47874 0.48165 0.0
C917 C 0.01223 0.53123 0.48423 0.0
C918 C 0.0301 0.56367 0.47347 0.0
C919 C 0.01586 0.58075 0.46589 0.0
C920 C 0.03262 0.61114 0.45549 0.0
C921 C 0.06368 0.62479 0.45261 0.0
C922 C 0.07807 0.60808 0.46013 0.0
C923 C 0.06142 0.57767 0.47054 0.0
H924 H 0.07661 0.64831 0.44454 0.0
H925 H 0.91659 0.34977 0.53747 0.0
H926 H 0.59415 0.61284 0.37605 0.0
H927 H 0.59138 0.61425 0.42779 0.0
H928 H 0.5232 0.51658 0.42715 0.0
H929 H 0.52598 0.51467 0.37495 0.0
H930 H 0.51269 0.55987 0.46365 0.0
H931 H 0.58565 0.52834 0.44617 0.0
H932 H 0.62998 0.53147 0.42316 0.0
H933 H 0.68557 0.62405 0.45834 0.0
H934 H 0.64146 0.62168 0.48118 0.0
H935 H 0.5263 0.56018 0.61479 0.0
H936 H 0.52292 0.54456 0.5647 0.0
H937 H 0.60384 0.63153 0.54766 0.0
H938 H 0.60789 0.64696 0.59783 0.0
H939 H 0.60442 0.58487 0.52043 0.0
H940 H 0.53277 0.62024 0.5324 0.0
H941 H 0.48934 0.62038 0.55415 0.0
H942 H 0.43231 0.52423 0.52845 0.0
H943 H 0.47553 0.52342 0.50685 0.0
C944 C 0.57832 0.59163 0.38675 0.0
C945 C 0.56034 0.56357 0.37134 0.0
C946 C 0.57688 0.59251 0.41634 0.0
C947 C 0.55732 0.56546 0.43114 0.0
C948 C 0.5385 0.53763 0.41595 0.0
C949 C 0.54017 0.53661 0.38621 0.0
C950 C 0.55741 0.56659 0.46258 0.0
C951 C 0.53243 0.56462 0.47624 0.0
C952 C 0.58351 0.5735 0.47867 0.0
C953 C 0.61018 0.5749 0.46522 0.0
C954 C 0.60728 0.54946 0.44882 0.0
C955 C 0.63238 0.55109 0.43583 0.0
C956 C 0.66057 0.57796 0.43924 0.0
C957 C 0.66372 0.60325 0.4557 0.0
C958 C 0.63868 0.60176 0.4687 0.0
C959 C 0.54347 0.57594 0.60042 0.0
C960 C 0.56728 0.60493 0.61026 0.0
C961 C 0.54144 0.56699 0.57178 0.0
C962 C 0.56287 0.58708 0.55239 0.0
C963 C 0.58705 0.61567 0.56228 0.0
C964 C 0.58928 0.62449 0.59096 0.0
C965 C 0.55989 0.57885 0.52161 0.0
C966 C 0.5844 0.57954 0.50802 0.0
C967 C 0.53347 0.57112 0.50555 0.0
C968 C 0.50743 0.57166 0.51831 0.0
C969 C 0.51101 0.59907 0.53157 0.0
C970 C 0.48643 0.59928 0.54384 0.0
C971 C 0.4581 0.5723 0.54277 0.0
C972 C 0.45428 0.54509 0.52932 0.0
C973 C 0.4788 0.54474 0.51704 0.0
H974 H 0.4391 0.5725 0.5523 0.0
H975 H 0.67997 0.57918 0.42917 0.0
H976 H 0.42311 0.92362 0.61209 0.0
H977 H 0.44793 0.94776 0.56754 0.0
H978 H 0.37339 0.96057 0.54376 0.0
H979 H 0.34826 0.93619 0.58785 0.0
H980 H 0.39237 0.94115 0.49897 0.0
H981 H 0.43782 0.0201 0.57433 0.0
H982 H 0.46492 0.04153 0.62012 0.0
H983 H 0.53975 0.03432 0.58943 0.0
H984 H 0.51289 0.01247 0.54356 0.0
H985 H 0.44235 0.06142 0.40259 0.0
H986 H 0.42674 0.0329 0.44705 0.0
H987 H 0.50877 0.02902 0.45096 0.0
H988 H 0.52491 0.05812 0.40623 0.0
H989 H 0.49114 0.03934 0.50433 0.0
H990 H 0.44769 0.96662 0.4264 0.0
H991 H 0.42051 0.94632 0.38049 0.0
H992 H 0.34174 0.94183 0.4159 0.0
H993 H 0.36859 0.96256 0.46192 0.0
C994 C 0.41181 0.93121 0.59722 0.0
C995 C 0.38376 0.92817 0.60368 0.0
C996 C 0.42612 0.94516 0.57185 0.0
C997 C 0.4127 0.95637 0.55257 0.0
C998 C 0.38419 0.95215 0.5584 0.0
C999 C 0.36988 0.93824 0.58368 0.0
C1000 C 0.42851 0.97352 0.52671 0.0
C1001 C 0.41391 0.96266 0.50015 0.0
C1002 C 0.45706 0.00108 0.52818 0.0
C1003 C 0.47322 0.01431 0.55568 0.0
C1004 C 0.45996 0.02286 0.57744 0.0
C1005 C 0.47529 0.03512 0.60339 0.0
C1006 C 0.504 0.03918 0.60772 0.0
C1007 C 0.51748 0.03109 0.58607 0.0
C1008 C 0.50223 0.01879 0.5601 0.0
C1009 C 0.45732 0.05487 0.41301 0.0
C1010 C 0.48469 0.06164 0.40067 0.0
C1011 C 0.44829 0.03848 0.4384 0.0
C1012 C 0.46625 0.02818 0.45187 0.0
C1013 C 0.49449 0.03655 0.44069 0.0
C1014 C 0.50368 0.05321 0.41521 0.0
C1015 C 0.4545 0.00744 0.47679 0.0
C1016 C 0.46986 0.01754 0.5031 0.0
C1017 C 0.4266 0.97913 0.47514 0.0
C1018 C 0.41023 0.96632 0.44757 0.0
C1019 C 0.42463 0.96149 0.42435 0.0
C1020 C 0.40928 0.94989 0.39831 0.0
C1021 C 0.37944 0.94284 0.39527 0.0
C1022 C 0.36486 0.94731 0.41829 0.0
C1023 C 0.38013 0.95894 0.44437 0.0
H1024 H 0.36759 0.93386 0.37509 0.0
H1025 H 0.51584 0.04868 0.62782 0.0
loop_
_geom_bond_atom_site_label_1
_geom_bond_atom_site_label_2
_geom_bond_distance
_geom_bond_site_symmetry_2
_ccdc_geom_bond_type
Mg0 O1 2.028 1_455 S
Mg0 O7 1.986 1_554 S
Mg0 O9 2.114 . S
Mg0 O10 2.251 1_455 S
Mg0 O13 2.010 . S
O1 Mg0 2.028 1_655 S
O1 C4 1.252 . S
O2 Mg3 2.028 . S
O2 C4 1.247 1_556 S
Mg3 O2 2.028 . S
Mg3 O8 2.032 . S
Mg3 O10 2.079 1_556 S
C4 O1 1.252 . S
C4 O2 1.247 1_554 S
C5 O6 1.264 . S
C5 O13 1.249 . S
O6 C5 1.264 . S
O7 Mg0 1.986 1_556 S
O7 C11 1.246 . S
O8 Mg3 2.032 . S
O8 C11 1.259 1_655 S
O9 Mg0 2.114 . S
O9 C12 1.252 . S
O10 Mg0 2.251 1_655 S
O10 Mg3 2.079 1_554 S
O10 C12 1.273 1_655 S
C11 O7 1.246 . S
C11 O8 1.259 1_455 S
C12 O9 1.252 . S
C12 O10 1.273 1_455 S
O13 Mg0 2.010 . S
O13 C5 1.249 . S
Mg14 O15 2.028 . S
Mg14 O21 1.986 . S
Mg14 O23 2.114 1_554 S
Mg14 O24 2.251 1_554 S
Mg14 O27 2.010 . S
O15 Mg14 2.028 . S
O15 C18 1.250 . S
O16 Mg17 2.028 . S
O16 C18 1.248 . S
Mg17 O16 2.028 . S
Mg17 O22 2.032 . S
Mg17 O24 2.079 1_554 S
C18 O15 1.250 . S
C18 O16 1.248 . S
C19 O20 1.264 . S
C19 O27 1.249 1_556 S
O20 C19 1.264 . S
O21 Mg14 1.986 . S
O21 C25 1.246 . S
O22 Mg17 2.032 . S
O22 C25 1.259 . S
O23 Mg14 2.114 1_556 S
O23 C26 1.252 . S
O24 Mg14 2.251 1_556 S
O24 Mg17 2.079 1_556 S
O24 C26 1.273 . S
C25 O21 1.246 . S
C25 O22 1.259 . S
C26 O23 1.252 . S
C26 O24 1.273 . S
O27 Mg14 2.010 . S
O27 C19 1.249 1_554 S
Mg28 O29 2.028 . S
Mg28 O35 1.986 1_544 S
Mg28 O37 2.114 . S
Mg28 O38 2.251 . S
Mg28 O41 2.010 1_545 S
O29 Mg28 2.028 . S
O29 C32 1.246 1_554 S
O30 Mg31 2.028 . S
O30 C32 1.250 . S
Mg31 O30 2.028 . S
Mg31 O36 2.032 . S
Mg31 O38 2.079 1_556 S
C32 O29 1.246 1_556 S
C32 O30 1.250 . S
C33 O34 1.264 . S
C33 O41 1.249 . S
O34 C33 1.264 . S
O35 Mg28 1.986 1_566 S
O35 C39 1.246 1_565 S
O36 Mg31 2.032 . S
O36 C39 1.259 . S
O37 Mg28 2.114 . S
O37 C40 1.252 . S
O38 Mg28 2.251 . S
O38 Mg31 2.079 1_554 S
O38 C40 1.273 . S
C39 O35 1.246 1_545 S
C39 O36 1.259 . S
C40 O37 1.252 . S
C40 O38 1.273 . S
O41 Mg28 2.010 1_565 S
O41 C33 1.249 . S
Mg42 O43 2.028 . S
Mg42 O49 1.986 . S
Mg42 O51 2.114 . S
Mg42 O52 2.251 . S
Mg42 O55 2.010 . S
O43 Mg42 2.028 . S
O43 C46 1.250 . S
O44 Mg45 2.028 . S
O44 C46 1.248 . S
Mg45 O44 2.028 . S
Mg45 O50 2.032 . S
Mg45 O52 2.079 . S
C46 O43 1.250 . S
C46 O44 1.248 . S
C47 O48 1.264 . S
C47 O55 1.249 . S
O48 C47 1.264 . S
O49 Mg42 1.986 . S
O49 C53 1.246 . S
O50 Mg45 2.032 . S
O50 C53 1.259 . S
O51 Mg42 2.114 . S
O51 C54 1.252 . S
O52 Mg42 2.251 . S
O52 Mg45 2.079 . S
O52 C54 1.273 . S
C53 O49 1.246 . S
C53 O50 1.259 . S
C54 O51 1.252 . S
C54 O52 1.273 . S
O55 Mg42 2.010 . S
O55 C47 1.249 . S
Mg56 O57 2.028 . S
Mg56 O63 1.986 . S
Mg56 O65 2.114 . S
Mg56 O66 2.251 . S
Mg56 O69 2.010 . S
O57 Mg56 2.028 . S
O57 C60 1.250 . S
O58 Mg59 2.028 . S
O58 C60 1.248 . S
Mg59 O58 2.028 . S
Mg59 O64 2.032 . S
Mg59 O66 2.079 . S
C60 O57 1.250 . S
C60 O58 1.248 . S
C61 O62 1.264 . S
C61 O69 1.249 . S
O62 C61 1.264 . S
O63 Mg56 1.986 . S
O63 C67 1.246 . S
O64 Mg59 2.032 . S
O64 C67 1.259 . S
O65 Mg56 2.114 . S
O65 C68 1.252 . S
O66 Mg56 2.251 . S
O66 Mg59 2.079 . S
O66 C68 1.273 . S
C67 O63 1.246 . S
C67 O64 1.259 . S
C68 O65 1.252 . S
C68 O66 1.273 . S
O69 Mg56 2.010 . S
O69 C61 1.249 . S
Mg70 O71 2.028 . S
Mg70 O77 1.986 . S
Mg70 O79 2.114 . S
Mg70 O80 2.251 . S
Mg70 O83 2.010 . S
O71 Mg70 2.028 . S
O71 C74 1.250 . S
O72 Mg73 2.028 . S
O72 C74 1.248 . S
Mg73 O72 2.028 . S
Mg73 O78 2.032 . S
Mg73 O80 2.079 . S
C74 O71 1.250 . S
C74 O72 1.248 . S
C75 O76 1.264 . S
C75 O83 1.249 . S
O76 C75 1.264 . S
O77 Mg70 1.986 . S
O77 C81 1.246 . S
O78 Mg73 2.032 . S
O78 C81 1.259 . S
O79 Mg70 2.114 . S
O79 C82 1.252 . S
O80 Mg70 2.251 . S
O80 Mg73 2.079 . S
O80 C82 1.273 . S
C81 O77 1.246 . S
C81 O78 1.259 . S
C82 O79 1.252 . S
C82 O80 1.273 . S
O83 Mg70 2.010 . S
O83 C75 1.249 . S
Mg84 O85 2.028 . S
Mg84 O91 1.986 . S
Mg84 O93 2.114 . S
Mg84 O94 2.251 . S
Mg84 O97 2.010 . S
O85 Mg84 2.028 . S
O85 C88 1.250 . S
O86 Mg87 2.028 . S
O86 C88 1.248 . S
Mg87 O86 2.028 . S
Mg87 O92 2.032 . S
Mg87 O94 2.079 . S
C88 O85 1.250 . S
C88 O86 1.248 . S
C89 O90 1.264 . S
C89 O97 1.249 . S
O90 C89 1.264 . S
O91 Mg84 1.986 . S
O91 C95 1.246 . S
O92 Mg87 2.032 . S
O92 C95 1.259 . S
O93 Mg84 2.114 . S
O93 C96 1.252 . S
O94 Mg84 2.251 . S
O94 Mg87 2.079 . S
O94 C96 1.273 . S
C95 O91 1.246 . S
C95 O92 1.259 . S
C96 O93 1.252 . S
C96 O94 1.273 . S
O97 Mg84 2.010 . S
O97 C89 1.249 . S
Mg98 O99 2.028 . S
Mg98 O105 1.986 . S
Mg98 O107 2.114 . S
Mg98 O108 2.251 . S
Mg98 O111 2.010 . S
O99 Mg98 2.028 . S
O99 C102 1.250 . S
O100 Mg101 2.028 . S
O100 C102 1.248 . S
Mg101 O100 2.028 . S
Mg101 O106 2.032 . S
Mg101 O108 2.079 . S
C102 O99 1.250 . S
C102 O100 1.248 . S
C103 O104 1.264 . S
C103 O111 1.249 . S
O104 C103 1.264 . S
O105 Mg98 1.986 . S
O105 C109 1.246 . S
O106 Mg101 2.032 . S
O106 C109 1.259 . S
O107 Mg98 2.114 . S
O107 C110 1.252 . S
O108 Mg98 2.251 . S
O108 Mg101 2.079 . S
O108 C110 1.273 . S
C109 O105 1.246 . S
C109 O106 1.259 . S
C110 O107 1.252 . S
C110 O108 1.273 . S
O111 Mg98 2.010 . S
O111 C103 1.249 . S
Mg112 O113 2.028 . S
Mg112 O119 1.986 . S
Mg112 O121 2.114 . S
Mg112 O122 2.251 . S
Mg112 O125 2.010 . S
O113 Mg112 2.028 . S
O113 C116 1.250 . S
O114 Mg115 2.028 . S
O114 C116 1.248 . S
Mg115 O114 2.028 . S
Mg115 O120 2.032 . S
Mg115 O122 2.079 . S
C116 O113 1.250 . S
C116 O114 1.248 . S
C117 O118 1.264 . S
C117 O125 1.249 . S
O118 C117 1.264 . S
O119 Mg112 1.986 . S
O119 C123 1.246 . S
O120 Mg115 2.032 . S
O120 C123 1.259 . S
O121 Mg112 2.114 . S
O121 C124 1.252 . S
O122 Mg112 2.251 . S
O122 Mg115 2.079 . S
O122 C124 1.273 . S
C123 O119 1.246 . S
C123 O120 1.259 . S
C124 O121 1.252 . S
C124 O122 1.273 . S
O125 Mg112 2.010 . S
O125 C117 1.249 . S
H126 C144 0.951 . S
H127 C146 0.951 . S
H128 C148 0.950 . S
H129 C149 0.950 . S
H130 C151 0.950 . S
H131 C154 0.950 1_556 S
H132 C155 0.950 . S
H133 C157 0.950 . S
H134 C158 0.950 . S
H135 C159 0.951 . S
H136 C161 0.951 . S
H137 C163 0.950 . S
H138 C164 0.950 . S
H139 C166 0.950 . S
H140 C169 0.950 . S
H141 C170 0.950 . S
H142 C172 0.950 . S
H143 C173 0.950 . S
C144 H126 0.951 . S
C144 C145 1.366 1_554 S
C144 C146 1.388 . S
C145 C144 1.366 1_556 S
C145 C149 1.385 . S
C146 H127 0.951 . S
C146 C144 1.388 . S
C146 C147 1.366 . S
C147 C146 1.366 . S
C147 C148 1.414 1_554 S
C147 C150 1.499 . S
C148 H128 0.950 . S
C148 C147 1.414 1_556 S
C148 C149 1.374 . S
C149 H129 0.950 . S
C149 C145 1.385 . S
C149 C148 1.374 . S
C150 C147 1.499 . S
C150 C151 1.373 1_554 S
C150 C152 1.389 . S
C151 H130 0.950 . S
C151 C150 1.373 1_556 S
C151 C167 1.381 . S
C152 C150 1.389 . S
C152 C153 1.524 . S
C152 C166 1.377 . S
C153 C152 1.524 . S
C153 C154 1.397 . S
C153 C158 1.363 . S
C154 H131 0.950 1_554 S
C154 C153 1.397 . S
C154 C155 1.334 . S
C155 H132 0.950 . S
C155 C154 1.334 . S
C155 C156 1.287 . S
C156 C155 1.287 . S
C156 C157 1.524 . S
C156 H175 0.913 1_545 S
C157 H133 0.950 . S
C157 C156 1.524 . S
C157 C158 1.415 . S
C158 H134 0.950 . S
C158 C153 1.363 . S
C158 C157 1.415 . S
C159 H135 0.951 . S
C159 C160 1.366 1_556 S
C159 C161 1.388 . S
C160 C159 1.366 1_554 S
C160 C164 1.385 . S
C161 H136 0.951 . S
C161 C159 1.388 . S
C161 C162 1.366 1_556 S
C162 C161 1.366 1_554 S
C162 C163 1.414 . S
C162 C165 1.499 . S
C163 H137 0.950 . S
C163 C162 1.414 . S
C163 C164 1.374 . S
C164 H138 0.950 . S
C164 C160 1.385 . S
C164 C163 1.374 . S
C165 C162 1.499 . S
C165 C166 1.373 . S
C165 C167 1.375 1_554 S
C166 H139 0.950 . S
C166 C152 1.377 . S
C166 C165 1.373 . S
C167 C151 1.381 . S
C167 C165 1.375 1_556 S
C167 C168 1.535 . S
C168 C167 1.535 . S
C168 C169 1.397 1_556 S
C168 C173 1.363 . S
C169 H140 0.950 . S
C169 C168 1.397 1_554 S
C169 C170 1.334 . S
C170 H141 0.950 . S
C170 C169 1.334 . S
C170 C171 1.287 1_554 S
C171 C170 1.287 1_556 S
C171 C172 1.524 . S
C171 H174 0.999 . S
C172 H142 0.950 . S
C172 C171 1.524 . S
C172 C173 1.415 . S
C173 H143 0.950 . S
C173 C168 1.363 . S
C173 C172 1.415 . S
H174 C171 0.999 . S
H175 C156 0.913 1_565 S
H176 C194 0.951 . S
H177 C196 0.951 . S
H178 C198 0.950 . S
H179 C199 0.950 . S
H180 C201 0.949 1_565 S
H181 C204 0.950 . S
H182 C205 0.950 . S
H183 C207 0.950 . S
H184 C208 0.950 . S
H185 C209 0.951 . S
H186 C211 0.951 . S
H187 C213 0.950 . S
H188 C214 0.950 . S
H189 C216 0.950 . S
H190 C219 0.950 . S
H191 C220 0.950 . S
H192 C222 0.950 . S
H193 C223 0.950 . S
C194 H176 0.951 . S
C194 C195 1.366 . S
C194 C196 1.388 . S
C195 C194 1.366 . S
C195 C199 1.385 . S
C196 H177 0.951 . S
C196 C194 1.388 . S
C196 C197 1.366 . S
C197 C196 1.366 . S
C197 C198 1.414 . S
C197 C200 1.499 . S
C198 H178 0.950 . S
C198 C197 1.414 . S
C198 C199 1.374 . S
C199 H179 0.950 . S
C199 C195 1.385 . S
C199 C198 1.374 . S
C200 C197 1.499 . S
C200 C201 1.373 1_564 S
C200 C202 1.389 1_565 S
C201 H180 0.949 1_545 S
C201 C200 1.373 1_546 S
C201 C217 1.377 . S
C202 C200 1.389 1_545 S
C202 C203 1.539 . S
C202 C216 1.377 . S
C203 C202 1.539 . S
C203 C204 1.392 1_545 S
C203 C208 1.355 . S
C204 H181 0.950 . S
C204 C203 1.392 1_565 S
C204 C205 1.334 . S
C205 H182 0.950 . S
C205 C204 1.334 . S
C205 C206 1.287 . S
C206 C205 1.287 . S
C206 C207 1.524 . S
C206 H225 0.913 . S
C207 H183 0.950 . S
C207 C206 1.524 . S
C207 C208 1.415 1_565 S
C208 H184 0.950 . S
C208 C203 1.355 . S
C208 C207 1.415 1_545 S
C209 H185 0.951 . S
C209 C210 1.366 1_554 S
C209 C211 1.388 . S
C210 C209 1.366 1_556 S
C210 C214 1.385 . S
C211 H186 0.951 . S
C211 C209 1.388 . S
C211 C212 1.366 . S
C212 C211 1.366 . S
C212 C213 1.414 1_554 S
C212 C215 1.499 . S
C213 H187 0.950 . S
C213 C212 1.414 1_556 S
C213 C214 1.374 . S
C214 H188 0.950 . S
C214 C210 1.385 . S
C214 C213 1.374 . S
C215 C212 1.499 . S
C215 C216 1.373 . S
C215 C217 1.389 1_554 S
C216 H189 0.950 . S
C216 C202 1.377 . S
C216 C215 1.373 . S
C217 C201 1.377 . S
C217 C215 1.389 1_556 S
C217 C218 1.524 . S
C218 C217 1.524 . S
C218 C219 1.397 . S
C218 C223 1.363 . S
C219 H190 0.950 . S
C219 C218 1.397 . S
C219 C220 1.334 . S
C220 H191 0.950 . S
C220 C219 1.334 . S
C220 C221 1.287 . S
C221 C220 1.287 . S
C221 C222 1.524 . S
C221 H224 0.999 . S
C222 H192 0.950 . S
C222 C221 1.524 . S
C222 C223 1.415 . S
C223 H193 0.950 . S
C223 C218 1.363 . S
C223 C222 1.415 . S
H224 C221 0.999 . S
H225 C206 0.913 . S
H226 C244 0.951 . S
H227 C246 0.951 . S
H228 C248 0.950 . S
H229 C249 0.950 . S
H230 C251 0.950 . S
H231 C254 0.950 . S
H232 C255 0.950 . S
H233 C257 0.950 . S
H234 C258 0.950 . S
H235 C259 0.951 . S
H236 C261 0.951 . S
H237 C263 0.950 . S
H238 C264 0.950 . S
H239 C266 0.950 . S
H240 C269 0.950 . S
H241 C270 0.950 . S
H242 C272 0.950 1_545 S
H243 C273 0.950 . S
C244 H226 0.951 . S
C244 C245 1.366 . S
C244 C246 1.388 1_556 S
C245 C244 1.366 . S
C245 C249 1.385 . S
C246 H227 0.951 . S
C246 C244 1.388 1_554 S
C246 C247 1.366 . S
C247 C246 1.366 . S
C247 C248 1.414 . S
C247 C250 1.499 . S
C248 H228 0.950 . S
C248 C247 1.414 . S
C248 C249 1.374 1_554 S
C249 H229 0.950 . S
C249 C245 1.385 . S
C249 C248 1.374 1_556 S
C250 C247 1.499 . S
C250 C251 1.373 1_554 S
C250 C252 1.389 . S
C251 H230 0.950 . S
C251 C250 1.373 1_556 S
C251 C267 1.377 1_655 S
C252 C250 1.389 . S
C252 C253 1.524 . S
C252 C266 1.377 1_655 S
C253 C252 1.524 . S
C253 C254 1.397 . S
C253 C258 1.363 . S
C254 H231 0.950 . S
C254 C253 1.397 . S
C254 C255 1.334 . S
C255 H232 0.950 . S
C255 C254 1.334 . S
C255 C256 1.287 . S
C256 C255 1.287 . S
C256 C257 1.524 . S
C256 H275 0.913 . S
C257 H233 0.950 . S
C257 C256 1.524 . S
C257 C258 1.415 . S
C258 H234 0.950 . S
C258 C253 1.363 . S
C258 C257 1.415 . S
C259 H235 0.951 . S
C259 C260 1.366 . S
C259 C261 1.388 . S
C260 C259 1.366 . S
C260 C264 1.385 . S
C261 H236 0.951 . S
C261 C259 1.388 . S
C261 C262 1.366 . S
C262 C261 1.366 . S
C262 C263 1.414 . S
C262 C265 1.499 . S
C263 H237 0.950 . S
C263 C262 1.414 . S
C263 C264 1.374 . S
C264 H238 0.950 . S
C264 C260 1.385 . S
C264 C263 1.374 . S
C265 C262 1.499 . S
C265 C266 1.373 . S
C265 C267 1.389 1_554 S
C266 H239 0.950 . S
C266 C252 1.377 1_455 S
C266 C265 1.373 . S
C267 C251 1.377 1_455 S
C267 C265 1.389 1_556 S
C267 C268 1.524 . S
C268 C267 1.524 . S
C268 C269 1.397 . S
C268 C273 1.363 . S
C269 H240 0.950 . S
C269 C268 1.397 . S
C269 C270 1.334 . S
C270 H241 0.950 . S
C270 C269 1.334 . S
C270 C271 1.287 . S
C271 C270 1.287 . S
C271 C272 1.524 . S
C271 H274 0.999 . S
C272 H242 0.950 1_565 S
C272 C271 1.524 . S
C272 C273 1.415 . S
C273 H243 0.950 . S
C273 C268 1.363 . S
C273 C272 1.415 . S
H274 C271 0.999 . S
H275 C256 0.913 . S
H276 C294 0.951 . S
H277 C296 0.951 . S
H278 C298 0.950 . S
H279 C299 0.950 . S
H280 C301 0.950 . S
H281 C304 0.950 . S
H282 C305 0.950 . S
H283 C307 0.950 . S
H284 C308 0.950 . S
H285 C309 0.951 . S
H286 C311 0.951 . S
H287 C313 0.950 . S
H288 C314 0.950 . S
H289 C316 0.950 . S
H290 C319 0.950 . S
H291 C320 0.950 . S
H292 C322 0.950 . S
H293 C323 0.950 . S
C294 H276 0.951 . S
C294 C295 1.366 . S
C294 C296 1.388 . S
C295 C294 1.366 . S
C295 C299 1.385 . S
C296 H277 0.951 . S
C296 C294 1.388 . S
C296 C297 1.366 . S
C297 C296 1.366 . S
C297 C298 1.414 . S
C297 C300 1.499 . S
C298 H278 0.950 . S
C298 C297 1.414 . S
C298 C299 1.374 . S
C299 H279 0.950 . S
C299 C295 1.385 . S
C299 C298 1.374 . S
C300 C297 1.499 . S
C300 C301 1.373 . S
C300 C302 1.389 . S
C301 H280 0.950 . S
C301 C300 1.373 . S
C301 C317 1.377 . S
C302 C300 1.389 . S
C302 C303 1.524 . S
C302 C316 1.377 . S
C303 C302 1.524 . S
C303 C304 1.397 . S
C303 C308 1.363 . S
C304 H281 0.950 . S
C304 C303 1.397 . S
C304 C305 1.334 . S
C305 H282 0.950 . S
C305 C304 1.334 . S
C305 C306 1.287 . S
C306 C305 1.287 . S
C306 C307 1.524 . S
C306 H325 0.913 . S
C307 H283 0.950 . S
C307 C306 1.524 . S
C307 C308 1.415 . S
C308 H284 0.950 . S
C308 C303 1.363 . S
C308 C307 1.415 . S
C309 H285 0.951 . S
C309 C310 1.366 . S
C309 C311 1.388 . S
C310 C309 1.366 . S
C310 C314 1.385 . S
C311 H286 0.951 . S
C311 C309 1.388 . S
C311 C312 1.366 . S
C312 C311 1.366 . S
C312 C313 1.414 . S
C312 C315 1.499 . S
C313 H287 0.950 . S
C313 C312 1.414 . S
C313 C314 1.374 . S
C314 H288 0.950 . S
C314 C310 1.385 . S
C314 C313 1.374 . S
C315 C312 1.499 . S
C315 C316 1.373 . S
C315 C317 1.389 . S
C316 H289 0.950 . S
C316 C302 1.377 . S
C316 C315 1.373 . S
C317 C301 1.377 . S
C317 C315 1.389 . S
C317 C318 1.524 . S
C318 C317 1.524 . S
C318 C319 1.397 . S
C318 C323 1.363 . S
C319 H290 0.950 . S
C319 C318 1.397 . S
C319 C320 1.334 . S
C320 H291 0.950 . S
C320 C319 1.334 . S
C320 C321 1.287 . S
C321 C320 1.287 . S
C321 C322 1.524 . S
C321 H324 0.999 . S
C322 H292 0.950 . S
C322 C321 1.524 . S
C322 C323 1.415 . S
C323 H293 0.950 . S
C323 C318 1.363 . S
C323 C322 1.415 . S
H324 C321 0.999 . S
H325 C306 0.913 . S
H326 C344 0.951 . S
H327 C346 0.951 . S
H328 C348 0.950 . S
H329 C349 0.950 . S
H330 C351 0.950 . S
H331 C354 0.950 . S
H332 C355 0.950 . S
H333 C357 0.950 . S
H334 C358 0.950 . S
H335 C359 0.951 . S
H336 C361 0.951 . S
H337 C363 0.950 . S
H338 C364 0.950 . S
H339 C366 0.950 . S
H340 C369 0.950 . S
H341 C370 0.950 . S
H342 C372 0.950 . S
H343 C373 0.950 . S
C344 H326 0.951 . S
C344 C345 1.366 . S
C344 C346 1.388 . S
C345 C344 1.366 . S
C345 C349 1.385 . S
C346 H327 0.951 . S
C346 C344 1.388 . S
C346 C347 1.366 . S
C347 C346 1.366 . S
C347 C348 1.414 . S
C347 C350 1.499 . S
C348 H328 0.950 . S
C348 C347 1.414 . S
C348 C349 1.374 . S
C349 H329 0.950 . S
C349 C345 1.385 . S
C349 C348 1.374 . S
C350 C347 1.499 . S
C350 C351 1.373 . S
C350 C352 1.389 . S
C351 H330 0.950 . S
C351 C350 1.373 . S
C351 C367 1.377 . S
C352 C350 1.389 . S
C352 C353 1.524 . S
C352 C366 1.377 . S
C353 C352 1.524 . S
C353 C354 1.397 . S
C353 C358 1.363 . S
C354 H331 0.950 . S
C354 C353 1.397 . S
C354 C355 1.334 . S
C355 H332 0.950 . S
C355 C354 1.334 . S
C355 C356 1.287 . S
C356 C355 1.287 . S
C356 C357 1.524 . S
C356 H375 0.913 . S
C357 H333 0.950 . S
C357 C356 1.524 . S
C357 C358 1.415 . S
C358 H334 0.950 . S
C358 C353 1.363 . S
C358 C357 1.415 . S
C359 H335 0.951 . S
C359 C360 1.366 . S
C359 C361 1.388 . S
C360 C359 1.366 . S
C360 C364 1.385 . S
C361 H336 0.951 . S
C361 C359 1.388 . S
C361 C362 1.366 . S
C362 C361 1.366 . S
C362 C363 1.414 . S
C362 C365 1.499 . S
C363 H337 0.950 . S
C363 C362 1.414 . S
C363 C364 1.374 . S
C364 H338 0.950 . S
C364 C360 1.385 . S
C364 C363 1.374 . S
C365 C362 1.499 . S
C365 C366 1.373 . S
C365 C367 1.389 . S
C366 H339 0.950 . S
C366 C352 1.377 . S
C366 C365 1.373 . S
C367 C351 1.377 . S
C367 C365 1.389 . S
C367 C368 1.524 . S
C368 C367 1.524 . S
C368 C369 1.397 . S
C368 C373 1.363 . S
C369 H340 0.950 . S
C369 C368 1.397 . S
C369 C370 1.334 . S
C370 H341 0.950 . S
C370 C369 1.334 . S
C370 C371 1.287 . S
C371 C370 1.287 . S
C371 C372 1.524 . S
C371 H374 0.999 . S
C372 H342 0.950 . S
C372 C371 1.524 . S
C372 C373 1.415 . S
C373 H343 0.950 . S
C373 C368 1.363 . S
C373 C372 1.415 . S
H374 C371 0.999 . S
H375 C356 0.913 . S
H376 C394 0.951 . S
H377 C396 0.951 . S
H378 C398 0.950 . S
H379 C399 0.950 . S
H380 C401 0.950 . S
H381 C404 0.950 . S
H382 C405 0.950 . S
H383 C407 0.950 . S
H384 C408 0.950 . S
H385 C409 0.951 . S
H386 C411 0.951 . S
H387 C413 0.950 . S
H388 C414 0.950 . S
H389 C416 0.950 . S
H390 C419 0.950 . S
H391 C420 0.950 . S
H392 C422 0.950 . S
H393 C423 0.950 . S
C394 H376 0.951 . S
C394 C395 1.366 . S
C394 C396 1.388 . S
C395 C394 1.366 . S
C395 C399 1.385 . S
C396 H377 0.951 . S
C396 C394 1.388 . S
C396 C397 1.366 . S
C397 C396 1.366 . S
C397 C398 1.414 . S
C397 C400 1.499 . S
C398 H378 0.950 . S
C398 C397 1.414 . S
C398 C399 1.374 . S
C399 H379 0.950 . S
C399 C395 1.385 . S
C399 C398 1.374 . S
C400 C397 1.499 . S
C400 C401 1.373 . S
C400 C402 1.389 . S
C401 H380 0.950 . S
C401 C400 1.373 . S
C401 C417 1.377 . S
C402 C400 1.389 . S
C402 C403 1.524 . S
C402 C416 1.377 . S
C403 C402 1.524 . S
C403 C404 1.397 . S
C403 C408 1.363 . S
C404 H381 0.950 . S
C404 C403 1.397 . S
C404 C405 1.334 . S
C405 H382 0.950 . S
C405 C404 1.334 . S
C405 C406 1.287 . S
C406 C405 1.287 . S
C406 C407 1.524 . S
C406 H425 0.913 . S
C407 H383 0.950 . S
C407 C406 1.524 . S
C407 C408 1.415 . S
C408 H384 0.950 . S
C408 C403 1.363 . S
C408 C407 1.415 . S
C409 H385 0.951 . S
C409 C410 1.366 . S
C409 C411 1.388 . S
C410 C409 1.366 . S
C410 C414 1.385 . S
C411 H386 0.951 . S
C411 C409 1.388 . S
C411 C412 1.366 . S
C412 C411 1.366 . S
C412 C413 1.414 . S
C412 C415 1.499 . S
C413 H387 0.950 . S
C413 C412 1.414 . S
C413 C414 1.374 . S
C414 H388 0.950 . S
C414 C410 1.385 . S
C414 C413 1.374 . S
C415 C412 1.499 . S
C415 C416 1.373 . S
C415 C417 1.389 . S
C416 H389 0.950 . S
C416 C402 1.377 . S
C416 C415 1.373 . S
C417 C401 1.377 . S
C417 C415 1.389 . S
C417 C418 1.524 . S
C418 C417 1.524 . S
C418 C419 1.397 . S
C418 C423 1.363 . S
C419 H390 0.950 . S
C419 C418 1.397 . S
C419 C420 1.334 . S
C420 H391 0.950 . S
C420 C419 1.334 . S
C420 C421 1.287 . S
C421 C420 1.287 . S
C421 C422 1.524 . S
C421 H424 0.999 . S
C422 H392 0.950 . S
C422 C421 1.524 . S
C422 C423 1.415 . S
C423 H393 0.950 . S
C423 C418 1.363 . S
C423 C422 1.415 . S
H424 C421 0.999 . S
H425 C406 0.913 . S
H426 C444 0.951 . S
H427 C446 0.951 . S
H428 C448 0.950 . S
H429 C449 0.950 . S
H430 C451 0.950 . S
H431 C454 0.950 . S
H432 C455 0.950 . S
H433 C457 0.950 . S
H434 C458 0.950 . S
H435 C459 0.951 . S
H436 C461 0.951 . S
H437 C463 0.950 . S
H438 C464 0.950 . S
H439 C466 0.950 . S
H440 C469 0.950 . S
H441 C470 0.950 . S
H442 C472 0.950 . S
H443 C473 0.950 . S
C444 H426 0.951 . S
C444 C445 1.366 . S
C444 C446 1.388 . S
C445 C444 1.366 . S
C445 C449 1.385 . S
C446 H427 0.951 . S
C446 C444 1.388 . S
C446 C447 1.366 . S
C447 C446 1.366 . S
C447 C448 1.414 . S
C447 C450 1.499 . S
C448 H428 0.950 . S
C448 C447 1.414 . S
C448 C449 1.374 . S
C449 H429 0.950 . S
C449 C445 1.385 . S
C449 C448 1.374 . S
C450 C447 1.499 . S
C450 C451 1.373 . S
C450 C452 1.389 . S
C451 H430 0.950 . S
C451 C450 1.373 . S
C451 C467 1.377 . S
C452 C450 1.389 . S
C452 C453 1.524 . S
C452 C466 1.377 . S
C453 C452 1.524 . S
C453 C454 1.397 . S
C453 C458 1.363 . S
C454 H431 0.950 . S
C454 C453 1.397 . S
C454 C455 1.334 . S
C455 H432 0.950 . S
C455 C454 1.334 . S
C455 C456 1.287 . S
C456 C455 1.287 . S
C456 C457 1.524 . S
C456 H475 0.913 . S
C457 H433 0.950 . S
C457 C456 1.524 . S
C457 C458 1.415 . S
C458 H434 0.950 . S
C458 C453 1.363 . S
C458 C457 1.415 . S
C459 H435 0.951 . S
C459 C460 1.366 . S
C459 C461 1.388 . S
C460 C459 1.366 . S
C460 C464 1.385 . S
C461 H436 0.951 . S
C461 C459 1.388 . S
C461 C462 1.366 . S
C462 C461 1.366 . S
C462 C463 1.414 . S
C462 C465 1.499 . S
C463 H437 0.950 . S
C463 C462 1.414 . S
C463 C464 1.374 . S
C464 H438 0.950 . S
C464 C460 1.385 . S
C464 C463 1.374 . S
C465 C462 1.499 . S
C465 C466 1.373 . S
C465 C467 1.389 . S
C466 H439 0.950 . S
C466 C452 1.377 . S
C466 C465 1.373 . S
C467 C451 1.377 . S
C467 C465 1.389 . S
C467 C468 1.524 . S
C468 C467 1.524 . S
C468 C469 1.397 . S
C468 C473 1.363 . S
C469 H440 0.950 . S
C469 C468 1.397 . S
C469 C470 1.334 . S
C470 H441 0.950 . S
C470 C469 1.334 . S
C470 C471 1.287 . S
C471 C470 1.287 . S
C471 C472 1.524 . S
C471 H474 0.999 . S
C472 H442 0.950 . S
C472 C471 1.524 . S
C472 C473 1.415 . S
C473 H443 0.950 . S
C473 C468 1.363 . S
C473 C472 1.415 . S
H474 C471 0.999 . S
H475 C456 0.913 . S
H476 C494 0.951 . S
H477 C496 0.951 . S
H478 C498 0.950 . S
H479 C499 0.950 . S
H480 C501 0.950 . S
H481 C504 0.950 . S
H482 C505 0.950 . S
H483 C507 0.950 . S
H484 C508 0.950 . S
H485 C509 0.951 . S
H486 C511 0.951 . S
H487 C513 0.950 . S
H488 C514 0.950 . S
H489 C516 0.950 . S
H490 C519 0.950 . S
H491 C520 0.950 . S
H492 C522 0.950 . S
H493 C523 0.950 . S
C494 H476 0.951 . S
C494 C495 1.366 . S
C494 C496 1.388 . S
C495 C494 1.366 . S
C495 C499 1.385 . S
C496 H477 0.951 . S
C496 C494 1.388 . S
C496 C497 1.366 . S
C497 C496 1.366 . S
C497 C498 1.414 . S
C497 C500 1.499 . S
C498 H478 0.950 . S
C498 C497 1.414 . S
C498 C499 1.374 . S
C499 H479 0.950 . S
C499 C495 1.385 . S
C499 C498 1.374 . S
C500 C497 1.499 . S
C500 C501 1.373 . S
C500 C502 1.389 . S
C501 H480 0.950 . S
C501 C500 1.373 . S
C501 C517 1.377 . S
C502 C500 1.389 . S
C502 C503 1.524 . S
C502 C516 1.377 . S
C503 C502 1.524 . S
C503 C504 1.397 . S
C503 C508 1.363 . S
C504 H481 0.950 . S
C504 C503 1.397 . S
C504 C505 1.334 . S
C505 H482 0.950 . S
C505 C504 1.334 . S
C505 C506 1.287 . S
C506 C505 1.287 . S
C506 C507 1.524 . S
C506 H525 0.913 . S
C507 H483 0.950 . S
C507 C506 1.524 . S
C507 C508 1.415 . S
C508 H484 0.950 . S
C508 C503 1.363 . S
C508 C507 1.415 . S
C509 H485 0.951 . S
C509 C510 1.366 . S
C509 C511 1.388 . S
C510 C509 1.366 . S
C510 C514 1.385 . S
C511 H486 0.951 . S
C511 C509 1.388 . S
C511 C512 1.366 . S
C512 C511 1.366 . S
C512 C513 1.414 . S
C512 C515 1.499 . S
C513 H487 0.950 . S
C513 C512 1.414 . S
C513 C514 1.374 . S
C514 H488 0.950 . S
C514 C510 1.385 . S
C514 C513 1.374 . S
C515 C512 1.499 . S
C515 C516 1.373 . S
C515 C517 1.389 . S
C516 H489 0.950 . S
C516 C502 1.377 . S
C516 C515 1.373 . S
C517 C501 1.377 . S
C517 C515 1.389 . S
C517 C518 1.524 . S
C518 C517 1.524 . S
C518 C519 1.397 . S
C518 C523 1.363 . S
C519 H490 0.950 . S
C519 C518 1.397 . S
C519 C520 1.334 . S
C520 H491 0.950 . S
C520 C519 1.334 . S
C520 C521 1.287 . S
C521 C520 1.287 . S
C521 C522 1.524 . S
C521 H524 0.999 . S
C522 H492 0.950 . S
C522 C521 1.524 . S
C522 C523 1.415 . S
C523 H493 0.950 . S
C523 C518 1.363 . S
C523 C522 1.415 . S
H524 C521 0.999 . S
H525 C506 0.913 . S
H526 C544 0.951 . S
H527 C546 0.951 . S
H528 C548 0.950 . S
H529 C549 0.950 . S
H530 C551 0.950 . S
H531 C554 0.950 . S
H532 C555 0.950 . S
H533 C557 0.950 . S
H534 C558 0.950 . S
H535 C559 0.951 . S
H536 C561 0.951 . S
H537 C563 0.950 . S
H538 C564 0.950 . S
H539 C566 0.950 . S
H540 C569 0.950 . S
H541 C570 0.950 . S
H542 C572 0.950 . S
H543 C573 0.950 . S
C544 H526 0.951 . S
C544 C545 1.366 . S
C544 C546 1.388 . S
C545 C544 1.366 . S
C545 C549 1.385 . S
C546 H527 0.951 . S
C546 C544 1.388 . S
C546 C547 1.366 . S
C547 C546 1.366 . S
C547 C548 1.414 . S
C547 C550 1.499 . S
C548 H528 0.950 . S
C548 C547 1.414 . S
C548 C549 1.374 . S
C549 H529 0.950 . S
C549 C545 1.385 . S
C549 C548 1.374 . S
C550 C547 1.499 . S
C550 C551 1.373 . S
C550 C552 1.389 . S
C551 H530 0.950 . S
C551 C550 1.373 . S
C551 C567 1.377 . S
C552 C550 1.389 . S
C552 C553 1.524 . S
C552 C566 1.377 . S
C553 C552 1.524 . S
C553 C554 1.397 . S
C553 C558 1.363 . S
C554 H531 0.950 . S
C554 C553 1.397 . S
C554 C555 1.334 . S
C555 H532 0.950 . S
C555 C554 1.334 . S
C555 C556 1.287 . S
C556 C555 1.287 . S
C556 C557 1.524 . S
C556 H575 0.913 . S
C557 H533 0.950 . S
C557 C556 1.524 . S
C557 C558 1.415 . S
C558 H534 0.950 . S
C558 C553 1.363 . S
C558 C557 1.415 . S
C559 H535 0.951 . S
C559 C560 1.366 . S
C559 C561 1.388 . S
C560 C559 1.366 . S
C560 C564 1.385 . S
C561 H536 0.951 . S
C561 C559 1.388 . S
C561 C562 1.366 . S
C562 C561 1.366 . S
C562 C563 1.414 . S
C562 C565 1.499 . S
C563 H537 0.950 . S
C563 C562 1.414 . S
C563 C564 1.374 . S
C564 H538 0.950 . S
C564 C560 1.385 . S
C564 C563 1.374 . S
C565 C562 1.499 . S
C565 C566 1.373 . S
C565 C567 1.389 . S
C566 H539 0.950 . S
C566 C552 1.377 . S
C566 C565 1.373 . S
C567 C551 1.377 . S
C567 C565 1.389 . S
C567 C568 1.524 . S
C568 C567 1.524 . S
C568 C569 1.397 . S
C568 C573 1.363 . S
C569 H540 0.950 . S
C569 C568 1.397 . S
C569 C570 1.334 . S
C570 H541 0.950 . S
C570 C569 1.334 . S
C570 C571 1.287 . S
C571 C570 1.287 . S
C571 C572 1.524 . S
C571 H574 0.999 . S
C572 H542 0.950 . S
C572 C571 1.524 . S
C572 C573 1.415 . S
C573 H543 0.950 . S
C573 C568 1.363 . S
C573 C572 1.415 . S
H574 C571 0.999 . S
H575 C556 0.913 . S
H576 C594 0.951 . S
H577 C596 0.951 . S
H578 C598 0.950 . S
H579 C599 0.950 . S
H580 C601 0.950 . S
H581 C604 0.950 . S
H582 C605 0.950 . S
H583 C607 0.950 . S
H584 C608 0.950 . S
H585 C609 0.951 . S
H586 C611 0.951 . S
H587 C613 0.950 . S
H588 C614 0.950 . S
H589 C616 0.950 . S
H590 C619 0.950 . S
H591 C620 0.950 . S
H592 C622 0.950 . S
H593 C623 0.951 . S
C594 H576 0.951 . S
C594 C595 1.366 . S
C594 C596 1.388 . S
C595 C594 1.366 . S
C595 C599 1.385 . S
C596 H577 0.951 . S
C596 C594 1.388 . S
C596 C597 1.366 . S
C597 C596 1.366 . S
C597 C598 1.414 . S
C597 C600 1.499 . S
C598 H578 0.950 . S
C598 C597 1.414 . S
C598 C599 1.374 . S
C599 H579 0.950 . S
C599 C595 1.385 . S
C599 C598 1.374 . S
C600 C597 1.499 . S
C600 C601 1.373 . S
C600 C602 1.389 . S
C601 H580 0.950 . S
C601 C600 1.373 . S
C601 C617 1.377 . S
C602 C600 1.389 . S
C602 C603 1.524 . S
C602 C616 1.377 . S
C603 C602 1.524 . S
C603 C604 1.397 . S
C603 C608 1.363 . S
C604 H581 0.950 . S
C604 C603 1.397 . S
C604 C605 1.334 . S
C605 H582 0.950 . S
C605 C604 1.334 . S
C605 C606 1.287 . S
C606 C605 1.287 . S
C606 C607 1.524 . S
C606 H625 0.913 . S
C607 H583 0.950 . S
C607 C606 1.524 . S
C607 C608 1.415 . S
C608 H584 0.950 . S
C608 C603 1.363 . S
C608 C607 1.415 . S
C609 H585 0.951 . S
C609 C610 1.366 . S
C609 C611 1.388 . S
C610 C609 1.366 . S
C610 C614 1.385 . S
C611 H586 0.951 . S
C611 C609 1.388 . S
C611 C612 1.366 . S
C612 C611 1.366 . S
C612 C613 1.414 . S
C612 C615 1.499 . S
C613 H587 0.950 . S
C613 C612 1.414 . S
C613 C614 1.374 . S
C614 H588 0.950 . S
C614 C610 1.385 . S
C614 C613 1.374 . S
C615 C612 1.499 . S
C615 C616 1.373 . S
C615 C617 1.389 . S
C616 H589 0.950 . S
C616 C602 1.377 . S
C616 C615 1.373 . S
C617 C601 1.377 . S
C617 C615 1.389 . S
C617 C618 1.524 . S
C618 C617 1.524 . S
C618 C619 1.397 . S
C618 C623 1.363 1_455 S
C619 H590 0.950 . S
C619 C618 1.397 . S
C619 C620 1.334 1_455 S
C620 H591 0.950 . S
C620 C619 1.334 1_655 S
C620 C621 1.287 . S
C621 C620 1.287 . S
C621 C622 1.524 . S
C621 H624 0.999 . S
C622 H592 0.950 . S
C622 C621 1.524 . S
C622 C623 1.415 . S
C623 H593 0.951 . S
C623 C618 1.363 1_655 S
C623 C622 1.415 . S
H624 C621 0.999 . S
H625 C606 0.913 . S
H626 C644 0.951 . S
H627 C646 0.951 . S
H628 C648 0.950 . S
H629 C649 0.950 . S
H630 C651 0.950 . S
H631 C654 0.950 . S
H632 C655 0.950 . S
H633 C657 0.950 . S
H634 C658 0.950 . S
H635 C659 0.951 . S
H636 C661 0.951 . S
H637 C663 0.950 . S
H638 C664 0.950 . S
H639 C666 0.950 . S
H640 C669 0.950 . S
H641 C670 0.950 . S
H642 C672 0.950 . S
H643 C673 0.950 . S
C644 H626 0.951 . S
C644 C645 1.366 . S
C644 C646 1.388 . S
C645 C644 1.366 . S
C645 C649 1.385 . S
C646 H627 0.951 . S
C646 C644 1.388 . S
C646 C647 1.366 . S
C647 C646 1.366 . S
C647 C648 1.414 . S
C647 C650 1.499 . S
C648 H628 0.950 . S
C648 C647 1.414 . S
C648 C649 1.374 . S
C649 H629 0.950 . S
C649 C645 1.385 . S
C649 C648 1.374 . S
C650 C647 1.499 . S
C650 C651 1.373 . S
C650 C652 1.389 . S
C651 H630 0.950 . S
C651 C650 1.373 . S
C651 C667 1.377 . S
C652 C650 1.389 . S
C652 C653 1.524 . S
C652 C666 1.377 . S
C653 C652 1.524 . S
C653 C654 1.397 . S
C653 C658 1.363 . S
C654 H631 0.950 . S
C654 C653 1.397 . S
C654 C655 1.334 . S
C655 H632 0.950 . S
C655 C654 1.334 . S
C655 C656 1.287 . S
C656 C655 1.287 . S
C656 C657 1.524 . S
C656 H675 0.913 . S
C657 H633 0.950 . S
C657 C656 1.524 . S
C657 C658 1.415 . S
C658 H634 0.950 . S
C658 C653 1.363 . S
C658 C657 1.415 . S
C659 H635 0.951 . S
C659 C660 1.366 . S
C659 C661 1.388 . S
C660 C659 1.366 . S
C660 C664 1.385 . S
C661 H636 0.951 . S
C661 C659 1.388 . S
C661 C662 1.366 . S
C662 C661 1.366 . S
C662 C663 1.414 . S
C662 C665 1.499 . S
C663 H637 0.950 . S
C663 C662 1.414 . S
C663 C664 1.374 . S
C664 H638 0.950 . S
C664 C660 1.385 . S
C664 C663 1.374 . S
C665 C662 1.499 . S
C665 C666 1.373 . S
C665 C667 1.389 . S
C666 H639 0.950 . S
C666 C652 1.377 . S
C666 C665 1.373 . S
C667 C651 1.377 . S
C667 C665 1.389 . S
C667 C668 1.524 . S
C668 C667 1.524 . S
C668 C669 1.397 . S
C668 C673 1.363 . S
C669 H640 0.950 . S
C669 C668 1.397 . S
C669 C670 1.334 . S
C670 H641 0.950 . S
C670 C669 1.334 . S
C670 C671 1.287 . S
C671 C670 1.287 . S
C671 C672 1.524 . S
C671 H674 0.999 . S
C672 H642 0.950 . S
C672 C671 1.524 . S
C672 C673 1.415 . S
C673 H643 0.950 . S
C673 C668 1.363 . S
C673 C672 1.415 . S
H674 C671 0.999 . S
H675 C656 0.913 . S
H676 C694 0.951 . S
H677 C696 0.951 . S
H678 C698 0.950 . S
H679 C699 0.950 . S
H680 C701 0.950 . S
H681 C704 0.950 . S
H682 C705 0.950 . S
H683 C707 0.950 . S
H684 C708 0.950 . S
H685 C709 0.951 . S
H686 C711 0.951 . S
H687 C713 0.950 . S
H688 C714 0.950 . S
H689 C716 0.950 . S
H690 C719 0.950 . S
H691 C720 0.950 . S
H692 C722 0.950 1_565 S
H693 C723 0.950 . S
C694 H676 0.951 . S
C694 C695 1.366 . S
C694 C696 1.388 . S
C695 C694 1.366 . S
C695 C699 1.385 . S
C696 H677 0.951 . S
C696 C694 1.388 . S
C696 C697 1.366 . S
C697 C696 1.366 . S
C697 C698 1.414 . S
C697 C700 1.499 . S
C698 H678 0.950 . S
C698 C697 1.414 . S
C698 C699 1.374 . S
C699 H679 0.950 . S
C699 C695 1.385 . S
C699 C698 1.374 . S
C700 C697 1.499 . S
C700 C701 1.373 . S
C700 C702 1.389 . S
C701 H680 0.950 . S
C701 C700 1.373 . S
C701 C717 1.377 . S
C702 C700 1.389 . S
C702 C703 1.524 . S
C702 C716 1.377 . S
C703 C702 1.524 . S
C703 C704 1.397 . S
C703 C708 1.363 . S
C704 H681 0.950 . S
C704 C703 1.397 . S
C704 C705 1.334 . S
C705 H682 0.950 . S
C705 C704 1.334 . S
C705 C706 1.287 . S
C706 C705 1.287 . S
C706 C707 1.524 . S
C706 H725 0.913 . S
C707 H683 0.950 . S
C707 C706 1.524 . S
C707 C708 1.415 . S
C708 H684 0.950 . S
C708 C703 1.363 . S
C708 C707 1.415 . S
C709 H685 0.951 . S
C709 C710 1.366 1_565 S
C709 C711 1.388 . S
C710 C709 1.366 1_545 S
C710 C714 1.385 . S
C711 H686 0.951 . S
C711 C709 1.388 . S
C711 C712 1.366 . S
C712 C711 1.366 . S
C712 C713 1.414 1_565 S
C712 C715 1.499 . S
C713 H687 0.950 . S
C713 C712 1.414 1_545 S
C713 C714 1.374 . S
C714 H688 0.950 . S
C714 C710 1.385 . S
C714 C713 1.374 . S
C715 C712 1.499 . S
C715 C716 1.373 . S
C715 C717 1.389 . S
C716 H689 0.950 . S
C716 C702 1.377 . S
C716 C715 1.373 . S
C717 C701 1.377 . S
C717 C715 1.389 . S
C717 C718 1.524 . S
C718 C717 1.524 . S
C718 C719 1.397 1_565 S
C718 C723 1.363 . S
C719 H690 0.950 . S
C719 C718 1.397 1_545 S
C719 C720 1.334 . S
C720 H691 0.950 . S
C720 C719 1.334 . S
C720 C721 1.287 . S
C721 C720 1.287 . S
C721 C722 1.524 . S
C721 H724 0.999 . S
C722 H692 0.950 1_545 S
C722 C721 1.524 . S
C722 C723 1.415 1_545 S
C723 H693 0.950 . S
C723 C718 1.363 . S
C723 C722 1.415 1_565 S
H724 C721 0.999 . S
H725 C706 0.913 . S
H726 C744 0.951 . S
H727 C746 0.951 . S
H728 C748 0.950 . S
H729 C749 0.950 . S
H730 C751 0.950 . S
H731 C754 0.950 . S
H732 C755 0.950 . S
H733 C757 0.950 . S
H734 C758 0.950 . S
H735 C759 0.951 . S
H736 C761 0.951 . S
H737 C763 0.950 . S
H738 C764 0.950 1_565 S
H739 C766 0.950 . S
H740 C769 0.950 . S
H741 C770 0.950 . S
H742 C772 0.950 . S
H743 C773 0.950 . S
C744 H726 0.951 . S
C744 C745 1.366 . S
C744 C746 1.388 . S
C745 C744 1.366 . S
C745 C749 1.385 . S
C746 H727 0.951 . S
C746 C744 1.388 . S
C746 C747 1.366 . S
C747 C746 1.366 . S
C747 C748 1.414 . S
C747 C750 1.499 . S
C748 H728 0.950 . S
C748 C747 1.414 . S
C748 C749 1.374 . S
C749 H729 0.950 . S
C749 C745 1.385 . S
C749 C748 1.374 . S
C750 C747 1.499 . S
C750 C751 1.373 . S
C750 C752 1.389 . S
C751 H730 0.950 . S
C751 C750 1.373 . S
C751 C767 1.377 . S
C752 C750 1.389 . S
C752 C753 1.524 . S
C752 C766 1.377 . S
C753 C752 1.524 . S
C753 C754 1.397 . S
C753 C758 1.363 . S
C754 H731 0.950 . S
C754 C753 1.397 . S
C754 C755 1.334 . S
C755 H732 0.950 . S
C755 C754 1.334 . S
C755 C756 1.287 . S
C756 C755 1.287 . S
C756 C757 1.524 . S
C756 H775 0.913 . S
C757 H733 0.950 . S
C757 C756 1.524 . S
C757 C758 1.415 . S
C758 H734 0.950 . S
C758 C753 1.363 . S
C758 C757 1.415 . S
C759 H735 0.951 . S
C759 C760 1.366 . S
C759 C761 1.388 . S
C760 C759 1.366 . S
C760 C764 1.385 . S
C761 H736 0.951 . S
C761 C759 1.388 . S
C761 C762 1.366 . S
C762 C761 1.366 . S
C762 C763 1.414 . S
C762 C765 1.499 . S
C763 H737 0.950 . S
C763 C762 1.414 . S
C763 C764 1.374 . S
C764 H738 0.950 1_545 S
C764 C760 1.385 . S
C764 C763 1.374 . S
C765 C762 1.499 . S
C765 C766 1.373 . S
C765 C767 1.389 . S
C766 H739 0.950 . S
C766 C752 1.377 . S
C766 C765 1.373 . S
C767 C751 1.377 . S
C767 C765 1.389 . S
C767 C768 1.524 . S
C768 C767 1.524 . S
C768 C769 1.397 . S
C768 C773 1.363 . S
C769 H740 0.950 . S
C769 C768 1.397 . S
C769 C770 1.334 . S
C770 H741 0.950 . S
C770 C769 1.334 . S
C770 C771 1.287 . S
C771 C770 1.287 . S
C771 C772 1.524 . S
C771 H774 0.999 . S
C772 H742 0.950 . S
C772 C771 1.524 . S
C772 C773 1.415 . S
C773 H743 0.950 . S
C773 C768 1.363 . S
C773 C772 1.415 . S
H774 C771 0.999 . S
H775 C756 0.913 . S
H776 C794 0.951 . S
H777 C796 0.951 . S
H778 C798 0.950 . S
H779 C799 0.950 . S
H780 C801 0.950 . S
H781 C804 0.950 . S
H782 C805 0.950 . S
H783 C807 0.950 . S
H784 C808 0.950 . S
H785 C809 0.951 . S
H786 C811 0.951 . S
H787 C813 0.950 . S
H788 C814 0.950 . S
H789 C816 0.950 . S
H790 C819 0.950 . S
H791 C820 0.950 . S
H792 C822 0.950 . S
H793 C823 0.950 . S
C794 H776 0.951 . S
C794 C795 1.366 1_455 S
C794 C796 1.388 . S
C795 C794 1.366 1_655 S
C795 C799 1.385 . S
C796 H777 0.951 . S
C796 C794 1.388 . S
C796 C797 1.366 1_455 S
C797 C796 1.366 1_655 S
C797 C798 1.414 . S
C797 C800 1.499 . S
C798 H778 0.950 . S
C798 C797 1.414 . S
C798 C799 1.374 . S
C799 H779 0.950 . S
C799 C795 1.385 . S
C799 C798 1.374 . S
C800 C797 1.499 . S
C800 C801 1.373 . S
C800 C802 1.389 . S
C801 H780 0.950 . S
C801 C800 1.373 . S
C801 C817 1.377 . S
C802 C800 1.389 . S
C802 C803 1.524 1_655 S
C802 C816 1.377 . S
C803 C802 1.524 1_455 S
C803 C804 1.397 1_455 S
C803 C808 1.363 . S
C804 H781 0.950 . S
C804 C803 1.397 1_655 S
C804 C805 1.334 1_655 S
C805 H782 0.950 . S
C805 C804 1.334 1_455 S
C805 C806 1.287 . S
C806 C805 1.287 . S
C806 C807 1.524 . S
C806 H825 0.913 . S
C807 H783 0.950 . S
C807 C806 1.524 . S
C807 C808 1.415 . S
C808 H784 0.950 . S
C808 C803 1.363 . S
C808 C807 1.415 . S
C809 H785 0.951 . S
C809 C810 1.366 . S
C809 C811 1.388 . S
C810 C809 1.366 . S
C810 C814 1.385 . S
C811 H786 0.951 . S
C811 C809 1.388 . S
C811 C812 1.366 . S
C812 C811 1.366 . S
C812 C813 1.414 . S
C812 C815 1.499 . S
C813 H787 0.950 . S
C813 C812 1.414 . S
C813 C814 1.374 . S
C814 H788 0.950 . S
C814 C810 1.385 . S
C814 C813 1.374 . S
C815 C812 1.499 . S
C815 C816 1.373 . S
C815 C817 1.389 . S
C816 H789 0.950 . S
C816 C802 1.377 . S
C816 C815 1.373 . S
C817 C801 1.377 . S
C817 C815 1.389 . S
C817 C818 1.524 . S
C818 C817 1.524 . S
C818 C819 1.397 . S
C818 C823 1.363 . S
C819 H790 0.950 . S
C819 C818 1.397 . S
C819 C820 1.334 . S
C820 H791 0.950 . S
C820 C819 1.334 . S
C820 C821 1.287 . S
C821 C820 1.287 . S
C821 C822 1.524 . S
C821 H824 0.999 . S
C822 H792 0.950 . S
C822 C821 1.524 . S
C822 C823 1.415 . S
C823 H793 0.950 . S
C823 C818 1.363 . S
C823 C822 1.415 . S
H824 C821 0.999 . S
H825 C806 0.913 . S
H826 C844 0.951 . S
H827 C846 0.951 . S
H828 C848 0.950 . S
H829 C849 0.950 . S
H830 C851 0.950 . S
H831 C854 0.950 . S
H832 C855 0.950 . S
H833 C857 0.950 . S
H834 C858 0.950 . S
H835 C859 0.951 . S
H836 C861 0.951 . S
H837 C863 0.950 . S
H838 C864 0.950 . S
H839 C866 0.950 . S
H840 C869 0.950 . S
H841 C870 0.950 . S
H842 C872 0.950 . S
H843 C873 0.950 . S
C844 H826 0.951 . S
C844 C845 1.366 . S
C844 C846 1.388 . S
C845 C844 1.366 . S
C845 C849 1.385 . S
C846 H827 0.951 . S
C846 C844 1.388 . S
C846 C847 1.366 . S
C847 C846 1.366 . S
C847 C848 1.414 . S
C847 C850 1.499 . S
C848 H828 0.950 . S
C848 C847 1.414 . S
C848 C849 1.374 . S
C849 H829 0.950 . S
C849 C845 1.385 . S
C849 C848 1.374 . S
C850 C847 1.499 . S
C850 C851 1.373 . S
C850 C852 1.389 . S
C851 H830 0.950 . S
C851 C850 1.373 . S
C851 C867 1.377 . S
C852 C850 1.389 . S
C852 C853 1.524 . S
C852 C866 1.377 . S
C853 C852 1.524 . S
C853 C854 1.397 . S
C853 C858 1.363 . S
C854 H831 0.950 . S
C854 C853 1.397 . S
C854 C855 1.334 . S
C855 H832 0.950 . S
C855 C854 1.334 . S
C855 C856 1.287 . S
C856 C855 1.287 . S
C856 C857 1.524 . S
C856 H875 0.913 . S
C857 H833 0.950 . S
C857 C856 1.524 . S
C857 C858 1.415 . S
C858 H834 0.950 . S
C858 C853 1.363 . S
C858 C857 1.415 . S
C859 H835 0.951 . S
C859 C860 1.366 . S
C859 C861 1.388 . S
C860 C859 1.366 . S
C860 C864 1.385 . S
C861 H836 0.951 . S
C861 C859 1.388 . S
C861 C862 1.366 . S
C862 C861 1.366 . S
C862 C863 1.414 . S
C862 C865 1.499 . S
C863 H837 0.950 . S
C863 C862 1.414 . S
C863 C864 1.374 . S
C864 H838 0.950 . S
C864 C860 1.385 . S
C864 C863 1.374 . S
C865 C862 1.499 . S
C865 C866 1.373 . S
C865 C867 1.389 . S
C866 H839 0.950 . S
C866 C852 1.377 . S
C866 C865 1.373 . S
C867 C851 1.377 . S
C867 C865 1.389 . S
C867 C868 1.524 . S
C868 C867 1.524 . S
C868 C869 1.397 . S
C868 C873 1.363 . S
C869 H840 0.950 . S
C869 C868 1.397 . S
C869 C870 1.334 . S
C870 H841 0.950 . S
C870 C869 1.334 . S
C870 C871 1.287 . S
C871 C870 1.287 . S
C871 C872 1.524 . S
C871 H874 0.999 . S
C872 H842 0.950 . S
C872 C871 1.524 . S
C872 C873 1.415 . S
C873 H843 0.950 . S
C873 C868 1.363 . S
C873 C872 1.415 . S
H874 C871 0.999 . S
H875 C856 0.913 . S
H876 C894 0.951 . S
H877 C896 0.951 . S
H878 C898 0.950 . S
H879 C899 0.950 . S
H880 C901 0.950 . S
H881 C904 0.950 1_455 S
H882 C905 0.950 . S
H883 C907 0.950 . S
H884 C908 0.950 . S
H885 C909 0.951 . S
H886 C911 0.951 . S
H887 C913 0.950 . S
H888 C914 0.950 . S
H889 C916 0.950 . S
H890 C919 0.950 . S
H891 C920 0.950 . S
H892 C922 0.950 . S
H893 C923 0.950 . S
C894 H876 0.951 . S
C894 C895 1.366 . S
C894 C896 1.388 . S
C895 C894 1.366 . S
C895 C899 1.385 . S
C896 H877 0.951 . S
C896 C894 1.388 . S
C896 C897 1.366 . S
C897 C896 1.366 . S
C897 C898 1.414 . S
C897 C900 1.499 . S
C898 H878 0.950 . S
C898 C897 1.414 . S
C898 C899 1.374 . S
C899 H879 0.950 . S
C899 C895 1.385 . S
C899 C898 1.374 . S
C900 C897 1.499 . S
C900 C901 1.373 . S
C900 C902 1.389 1_455 S
C901 H880 0.950 . S
C901 C900 1.373 . S
C901 C917 1.377 . S
C902 C900 1.389 1_655 S
C902 C903 1.524 . S
C902 C916 1.377 . S
C903 C902 1.524 . S
C903 C904 1.397 . S
C903 C908 1.363 . S
C904 H881 0.950 1_655 S
C904 C903 1.397 . S
C904 C905 1.334 . S
C905 H882 0.950 . S
C905 C904 1.334 . S
C905 C906 1.287 . S
C906 C905 1.287 . S
C906 C907 1.524 . S
C906 H925 0.913 . S
C907 H883 0.950 . S
C907 C906 1.524 . S
C907 C908 1.415 . S
C908 H884 0.950 . S
C908 C903 1.363 . S
C908 C907 1.415 . S
C909 H885 0.951 . S
C909 C910 1.366 . S
C909 C911 1.388 . S
C910 C909 1.366 . S
C910 C914 1.385 . S
C911 H886 0.951 . S
C911 C909 1.388 . S
C911 C912 1.366 . S
C912 C911 1.366 . S
C912 C913 1.414 . S
C912 C915 1.499 . S
C913 H887 0.950 . S
C913 C912 1.414 . S
C913 C914 1.374 . S
C914 H888 0.950 . S
C914 C910 1.385 . S
C914 C913 1.374 . S
C915 C912 1.499 . S
C915 C916 1.373 . S
C915 C917 1.389 1_655 S
C916 H889 0.950 . S
C916 C902 1.377 . S
C916 C915 1.373 . S
C917 C901 1.377 . S
C917 C915 1.389 1_455 S
C917 C918 1.524 . S
C918 C917 1.524 . S
C918 C919 1.397 . S
C918 C923 1.363 . S
C919 H890 0.950 . S
C919 C918 1.397 . S
C919 C920 1.334 . S
C920 H891 0.950 . S
C920 C919 1.334 . S
C920 C921 1.287 . S
C921 C920 1.287 . S
C921 C922 1.524 . S
C921 H924 0.999 . S
C922 H892 0.950 . S
C922 C921 1.524 . S
C922 C923 1.415 . S
C923 H893 0.950 . S
C923 C918 1.363 . S
C923 C922 1.415 . S
H924 C921 0.999 . S
H925 C906 0.913 . S
H926 C944 0.951 . S
H927 C946 0.951 . S
H928 C948 0.950 . S
H929 C949 0.950 . S
H930 C951 0.950 . S
H931 C954 0.950 . S
H932 C955 0.950 . S
H933 C957 0.950 . S
H934 C958 0.950 . S
H935 C959 0.951 . S
H936 C961 0.951 . S
H937 C963 0.950 . S
H938 C964 0.950 . S
H939 C966 0.950 . S
H940 C969 0.950 . S
H941 C970 0.950 . S
H942 C972 0.950 . S
H943 C973 0.950 . S
C944 H926 0.951 . S
C944 C945 1.366 . S
C944 C946 1.388 . S
C945 C944 1.366 . S
C945 C949 1.385 . S
C946 H927 0.951 . S
C946 C944 1.388 . S
C946 C947 1.366 . S
C947 C946 1.366 . S
C947 C948 1.414 . S
C947 C950 1.499 . S
C948 H928 0.950 . S
C948 C947 1.414 . S
C948 C949 1.374 . S
C949 H929 0.950 . S
C949 C945 1.385 . S
C949 C948 1.374 . S
C950 C947 1.499 . S
C950 C951 1.373 . S
C950 C952 1.389 . S
C951 H930 0.950 . S
C951 C950 1.373 . S
C951 C967 1.377 . S
C952 C950 1.389 . S
C952 C953 1.524 . S
C952 C966 1.377 . S
C953 C952 1.524 . S
C953 C954 1.397 . S
C953 C958 1.363 . S
C954 H931 0.950 . S
C954 C953 1.397 . S
C954 C955 1.334 . S
C955 H932 0.950 . S
C955 C954 1.334 . S
C955 C956 1.287 . S
C956 C955 1.287 . S
C956 C957 1.524 . S
C956 H975 0.913 . S
C957 H933 0.950 . S
C957 C956 1.524 . S
C957 C958 1.415 . S
C958 H934 0.950 . S
C958 C953 1.363 . S
C958 C957 1.415 . S
C959 H935 0.951 . S
C959 C960 1.366 . S
C959 C961 1.388 . S
C960 C959 1.366 . S
C960 C964 1.385 . S
C961 H936 0.951 . S
C961 C959 1.388 . S
C961 C962 1.366 . S
C962 C961 1.366 . S
C962 C963 1.414 . S
C962 C965 1.499 . S
C963 H937 0.950 . S
C963 C962 1.414 . S
C963 C964 1.374 . S
C964 H938 0.950 . S
C964 C960 1.385 . S
C964 C963 1.374 . S
C965 C962 1.499 . S
C965 C966 1.373 . S
C965 C967 1.389 . S
C966 H939 0.950 . S
C966 C952 1.377 . S
C966 C965 1.373 . S
C967 C951 1.377 . S
C967 C965 1.389 . S
C967 C968 1.524 . S
C968 C967 1.524 . S
C968 C969 1.397 . S
C968 C973 1.363 . S
C969 H940 0.950 . S
C969 C968 1.397 . S
C969 C970 1.334 . S
C970 H941 0.950 . S
C970 C969 1.334 . S
C970 C971 1.287 . S
C971 C970 1.287 . S
C971 C972 1.524 . S
C971 H974 0.999 . S
C972 H942 0.950 . S
C972 C971 1.524 . S
C972 C973 1.415 . S
C973 H943 0.950 . S
C973 C968 1.363 . S
C973 C972 1.415 . S
H974 C971 0.999 . S
H975 C956 0.913 . S
H976 C994 0.951 . S
H977 C996 0.951 . S
H978 C998 0.950 1_545 S
H979 C999 0.950 . S
H980 C1001 0.950 . S
H981 C1004 0.950 1_545 S
H982 C1005 0.950 . S
H983 C1007 0.950 . S
H984 C1008 0.950 . S
H985 C1009 0.951 . S
H986 C1011 0.951 . S
H987 C1013 0.950 . S
H988 C1014 0.950 . S
H989 C1016 0.950 . S
H990 C1019 0.950 . S
H991 C1020 0.950 . S
H992 C1022 0.950 . S
H993 C1023 0.950 . S
C994 H976 0.951 . S
C994 C995 1.366 . S
C994 C996 1.388 . S
C995 C994 1.366 . S
C995 C999 1.385 . S
C996 H977 0.951 . S
C996 C994 1.388 . S
C996 C997 1.366 . S
C997 C996 1.366 . S
C997 C998 1.414 . S
C997 C1000 1.499 1_565 S
C998 H978 0.950 1_565 S
C998 C997 1.414 . S
C998 C999 1.374 . S
C999 H979 0.950 . S
C999 C995 1.385 . S
C999 C998 1.374 . S
C1000 C997 1.499 1_545 S
C1000 C1001 1.373 . S
C1000 C1002 1.387 1_545 S
C1001 H980 0.950 . S
C1001 C1000 1.373 . S
C1001 C1017 1.377 . S
C1002 C1000 1.387 1_565 S
C1002 C1003 1.530 . S
C1002 C1016 1.374 1_565 S
C1003 C1002 1.530 . S
C1003 C1004 1.397 . S
C1003 C1008 1.363 . S
C1004 H981 0.950 1_565 S
C1004 C1003 1.397 . S
C1004 C1005 1.334 . S
C1005 H982 0.950 . S
C1005 C1004 1.334 . S
C1005 C1006 1.287 . S
C1006 C1005 1.287 . S
C1006 C1007 1.524 . S
C1006 H1025 0.913 . S
C1007 H983 0.950 . S
C1007 C1006 1.524 . S
C1007 C1008 1.415 . S
C1008 H984 0.950 . S
C1008 C1003 1.363 . S
C1008 C1007 1.415 . S
C1009 H985 0.951 . S
C1009 C1010 1.366 . S
C1009 C1011 1.388 . S
C1010 C1009 1.366 . S
C1010 C1014 1.385 . S
C1011 H986 0.951 . S
C1011 C1009 1.388 . S
C1011 C1012 1.366 . S
C1012 C1011 1.366 . S
C1012 C1013 1.414 . S
C1012 C1015 1.499 . S
C1013 H987 0.950 . S
C1013 C1012 1.414 . S
C1013 C1014 1.374 . S
C1014 H988 0.950 . S
C1014 C1010 1.385 . S
C1014 C1013 1.374 . S
C1015 C1012 1.499 . S
C1015 C1016 1.373 . S
C1015 C1017 1.389 . S
C1016 H989 0.950 . S
C1016 C1002 1.374 1_545 S
C1016 C1015 1.373 . S
C1017 C1001 1.377 . S
C1017 C1015 1.389 . S
C1017 C1018 1.524 . S
C1018 C1017 1.524 . S
C1018 C1019 1.397 . S
C1018 C1023 1.363 . S
C1019 H990 0.950 . S
C1019 C1018 1.397 . S
C1019 C1020 1.334 . S
C1020 H991 0.950 . S
C1020 C1019 1.334 . S
C1020 C1021 1.287 . S
C1021 C1020 1.287 . S
C1021 C1022 1.524 . S
C1021 H1024 0.999 . S
C1022 H992 0.950 . S
C1022 C1021 1.524 . S
C1022 C1023 1.415 . S
C1023 H993 0.950 . S
C1023 C1018 1.363 . S
C1023 C1022 1.415 . S
H1024 C1021 0.999 . S
H1025 C1006 0.913 . S
C145 C32 0.851 . S
C160 C5 0.826 . S
C195 C18 0.834 . S
C210 C4 0.834 1_556 S
C245 C19 0.658 . S
C260 C33 0.644 . S
C295 C75 0.766 . S
C310 C46 0.768 . S
C345 C60 0.697 . S
C360 C47 0.711 . S
C395 C61 0.811 . S
C410 C74 0.828 . S
C445 C89 0.673 . S
C460 C116 0.635 . S
C495 C88 0.905 . S
C510 C102 0.905 . S
C545 C103 0.681 . S
C560 C117 0.680 . S
C595 C11 1.267 . S
C610 C109 1.272 . S
C645 C26 1.233 . S
C660 C124 1.232 . S
C695 C96 1.239 . S
C710 C39 1.234 . S
C745 C68 1.252 . S
C760 C40 1.255 . S
C795 C12 1.397 1_655 S
C810 C82 1.395 . S
C845 C54 1.242 . S
C860 C25 1.239 . S
C895 C110 1.270 . S
C910 C81 1.264 . S
C945 C53 1.118 . S
C960 C123 1.121 . S
C995 C95 1.253 . S
C1010 C67 1.247 . S
