# Generated by pormake.
# Topology ung, (4)-cn, num edge types: 1
# Building blocks:
#     Node 0, Type 0, BuildingBlock: GALJAG_clean_sbu_0, # of connection points: 4
#     Node 1, Type 0, BuildingBlock: GALJAG_clean_sbu_0, # of connection points: 4
#     Node 2, Type 0, BuildingBlock: GALJAG_clean_sbu_0, # of connection points: 4
#     Node 3, Type 0, BuildingBlock: GALJAG_clean_sbu_0, # of connection points: 4
#     Node 4, Type 0, BuildingBlock: GALJAG_clean_sbu_0, # of connection points: 4
#     Node 5, Type 0, BuildingBlock: GALJAG_clean_sbu_0, # of connection points: 4
#     Node 6, Type 0, BuildingBlock: GALJAG_clean_sbu_0, # of connection points: 4
#     Node 7, Type 0, BuildingBlock: GALJAG_clean_sbu_0, # of connection points: 4
#     Node 8, Type 0, BuildingBlock: GALJAG_clean_sbu_0, # of connection points: 4
#     Node 9, Type 0, BuildingBlock: GALJAG_clean_sbu_0, # of connection points: 4
#     Node 10, Type 0, BuildingBlock: GALJAG_clean_sbu_0, # of connection points: 4
#     Node 11, Type 0, BuildingBlock: GALJAG_clean_sbu_0, # of connection points: 4
#     Node 12, Type 0, BuildingBlock: GALJAG_clean_sbu_0, # of connection points: 4
#     Node 13, Type 0, BuildingBlock: GALJAG_clean_sbu_0, # of connection points: 4
#     Node 14, Type 0, BuildingBlock: GALJAG_clean_sbu_0, # of connection points: 4
#     Node 15, Type 0, BuildingBlock: GALJAG_clean_sbu_0, # of connection points: 4
#     Node 16, Type 0, BuildingBlock: GALJAG_clean_sbu_0, # of connection points: 4
#     Node 17, Type 0, BuildingBlock: GALJAG_clean_sbu_0, # of connection points: 4
#     Edge 18, Type (0, 0), BuildingBlock: OJICUG_clean_linker_0, # of connection points: 2
#     Edge 19, Type (0, 0), BuildingBlock: OJICUG_clean_linker_0, # of connection points: 2
#     Edge 20, Type (0, 0), BuildingBlock: OJICUG_clean_linker_0, # of connection points: 2
#     Edge 21, Type (0, 0), BuildingBlock: OJICUG_clean_linker_0, # of connection points: 2
#     Edge 22, Type (0, 0), BuildingBlock: OJICUG_clean_linker_0, # of connection points: 2
#     Edge 23, Type (0, 0), BuildingBlock: OJICUG_clean_linker_0, # of connection points: 2
#     Edge 24, Type (0, 0), BuildingBlock: OJICUG_clean_linker_0, # of connection points: 2
#     Edge 25, Type (0, 0), BuildingBlock: OJICUG_clean_linker_0, # of connection points: 2
#     Edge 26, Type (0, 0), BuildingBlock: OJICUG_clean_linker_0, # of connection points: 2
#     Edge 27, Type (0, 0), BuildingBlock: OJICUG_clean_linker_0, # of connection points: 2
#     Edge 28, Type (0, 0), BuildingBlock: OJICUG_clean_linker_0, # of connection points: 2
#     Edge 29, Type (0, 0), BuildingBlock: OJICUG_clean_linker_0, # of connection points: 2
#     Edge 30, Type (0, 0), BuildingBlock: OJICUG_clean_linker_0, # of connection points: 2
#     Edge 31, Type (0, 0), BuildingBlock: OJICUG_clean_linker_0, # of connection points: 2
#     Edge 32, Type (0, 0), BuildingBlock: OJICUG_clean_linker_0, # of connection points: 2
#     Edge 33, Type (0, 0), BuildingBlock: OJICUG_clean_linker_0, # of connection points: 2
#     Edge 34, Type (0, 0), BuildingBlock: OJICUG_clean_linker_0, # of connection points: 2
#     Edge 35, Type (0, 0), BuildingBlock: OJICUG_clean_linker_0, # of connection points: 2
#     Edge 36, Type (0, 0), BuildingBlock: OJICUG_clean_linker_0, # of connection points: 2
#     Edge 37, Type (0, 0), BuildingBlock: OJICUG_clean_linker_0, # of connection points: 2
#     Edge 38, Type (0, 0), BuildingBlock: OJICUG_clean_linker_0, # of connection points: 2
#     Edge 39, Type (0, 0), BuildingBlock: OJICUG_clean_linker_0, # of connection points: 2
#     Edge 40, Type (0, 0), BuildingBlock: OJICUG_clean_linker_0, # of connection points: 2
#     Edge 41, Type (0, 0), BuildingBlock: OJICUG_clean_linker_0, # of connection points: 2
#     Edge 42, Type (0, 0), BuildingBlock: OJICUG_clean_linker_0, # of connection points: 2
#     Edge 43, Type (0, 0), BuildingBlock: OJICUG_clean_linker_0, # of connection points: 2
#     Edge 44, Type (0, 0), BuildingBlock: OJICUG_clean_linker_0, # of connection points: 2
#     Edge 45, Type (0, 0), BuildingBlock: OJICUG_clean_linker_0, # of connection points: 2
#     Edge 46, Type (0, 0), BuildingBlock: OJICUG_clean_linker_0, # of connection points: 2
#     Edge 47, Type (0, 0), BuildingBlock: OJICUG_clean_linker_0, # of connection points: 2
#     Edge 48, Type (0, 0), BuildingBlock: OJICUG_clean_linker_0, # of connection points: 2
#     Edge 49, Type (0, 0), BuildingBlock: OJICUG_clean_linker_0, # of connection points: 2
#     Edge 50, Type (0, 0), BuildingBlock: OJICUG_clean_linker_0, # of connection points: 2
#     Edge 51, Type (0, 0), BuildingBlock: OJICUG_clean_linker_0, # of connection points: 2
#     Edge 52, Type (0, 0), BuildingBlock: OJICUG_clean_linker_0, # of connection points: 2
#     Edge 53, Type (0, 0), BuildingBlock: OJICUG_clean_linker_0, # of connection points: 2
# Relax obj value: 0.030
# Max RMSD: 0.133
# Mean RMSD: 0.133
data_MOF--net-ung--node1-GALJAG_clean_sbu_0--edge1-OJICUG_clean_linker_0
_symmetry_space_group_name_H-M    P1
_symmetry_Int_Tables_number       1
_symmetry_cell_setting            triclinic
loop_
_symmetry_equiv_pos_as_xyz
'x, y, z'
_cell_length_a     58.056428
_cell_length_b     57.8412
_cell_length_c     15.079405
_cell_angle_alpha  90.074597
_cell_angle_beta   90.003964
_cell_angle_gamma 120.0841
loop_
_atom_site_label
_atom_site_type_symbol
_atom_site_fract_x
_atom_site_fract_y
_atom_site_fract_z
_atom_type_partial_charge
In0 In 0.07104 0.64894 0.24616 0.0
O1 O 0.09262 0.64024 0.13691 0.0
O2 O 0.05318 0.60992 0.17404 0.0
C3 C 0.09978 0.69741 0.31908 0.0
C4 C 0.072 0.61926 0.37969 0.0
C5 C 0.0377 0.6589 0.15384 0.0
O6 O 0.11027 0.68844 0.26541 0.0
O7 O 0.07534 0.68204 0.33459 0.0
O8 O 0.03159 0.64815 0.23004 0.0
O9 O 0.06036 0.6644 0.12529 0.0
C10 C 0.0733 0.61661 0.12553 0.0
O11 O 0.05063 0.61868 0.35726 0.0
O12 O 0.09253 0.63554 0.33724 0.0
In13 In 0.50355 0.51336 0.24363 0.0
O14 O 0.516 0.54555 0.13782 0.0
O15 O 0.53993 0.52747 0.15933 0.0
C16 C 0.45915 0.50269 0.33006 0.0
C17 C 0.53662 0.5435 0.37068 0.0
C18 C 0.48409 0.46617 0.16197 0.0
O19 O 0.46504 0.51463 0.2558 0.0
O20 O 0.47566 0.49643 0.35973 0.0
O21 O 0.50217 0.47349 0.22044 0.0
O22 O 0.47628 0.48257 0.14596 0.0
C23 C 0.5369 0.54479 0.11835 0.0
O24 O 0.53209 0.51989 0.3566 0.0
O25 O 0.52401 0.55116 0.32191 0.0
In26 In 0.6425 0.07495 0.23141 0.0
O27 O 0.61232 0.05439 0.12031 0.0
O28 O 0.62552 0.09536 0.15078 0.0
C29 C 0.65404 0.03969 0.30474 0.0
C30 C 0.61012 0.07579 0.35491 0.0
C31 C 0.68989 0.11049 0.16294 0.0
O32 O 0.64563 0.03688 0.22567 0.0
O33 O 0.65661 0.05998 0.34478 0.0
O34 O 0.68327 0.11322 0.24061 0.0
O35 O 0.6729 0.09 0.12177 0.0
C36 C 0.61072 0.07509 0.10415 0.0
O37 O 0.63289 0.09598 0.3403 0.0
O38 O 0.6043 0.05536 0.30856 0.0
In39 In 0.07669 0.51192 0.74544 0.0
O40 O 0.09701 0.54391 0.63969 0.0
O41 O 0.05512 0.52698 0.66139 0.0
C42 C 0.10932 0.4998 0.83203 0.0
C43 C 0.07504 0.54278 0.87278 0.0
C44 C 0.04901 0.46511 0.66145 0.0
O45 O 0.11595 0.51228 0.75878 0.0
O46 O 0.08651 0.49374 0.86079 0.0
O47 O 0.03815 0.47217 0.7205 0.0
O48 O 0.07321 0.48162 0.64595 0.0
C49 C 0.07567 0.54383 0.62014 0.0
O50 O 0.0553 0.51959 0.85802 0.0
O51 O 0.09524 0.54965 0.82444 0.0
In52 In 0.6485 0.64716 0.74437 0.0
O53 O 0.63804 0.61752 0.85818 0.0
O54 O 0.61429 0.63572 0.83753 0.0
C55 C 0.69181 0.6535 0.65998 0.0
C56 C 0.61348 0.61543 0.6235 0.0
C57 C 0.66843 0.69732 0.80317 0.0
O58 O 0.68692 0.64537 0.73956 0.0
O59 O 0.6749 0.65819 0.6242 0.0
O60 O 0.64829 0.68668 0.75259 0.0
O61 O 0.67814 0.68277 0.82288 0.0
C62 C 0.61783 0.61912 0.8808 0.0
O63 O 0.61947 0.63966 0.63207 0.0
O64 O 0.62548 0.60775 0.67493 0.0
In65 In 0.50422 0.07799 0.73118 0.0
O66 O 0.53514 0.09825 0.84 0.0
O67 O 0.52173 0.05732 0.80824 0.0
C68 C 0.49348 0.11431 0.662 0.0
C69 C 0.53545 0.07683 0.60394 0.0
C70 C 0.45727 0.04347 0.80488 0.0
O71 O 0.50276 0.1169 0.73974 0.0
O72 O 0.4895 0.0936 0.62118 0.0
O73 O 0.46277 0.04037 0.726 0.0
O74 O 0.47512 0.06378 0.84446 0.0
C75 C 0.53685 0.07754 0.85461 0.0
O76 O 0.51275 0.05669 0.61988 0.0
O77 O 0.54167 0.09727 0.65075 0.0
In78 In 0.73795 0.98059 0.57738 0.0
O79 O 0.71785 0.95111 0.69056 0.0
O80 O 0.75965 0.96758 0.66932 0.0
C81 C 0.70411 0.98993 0.48532 0.0
C82 C 0.74008 0.94776 0.45848 0.0
C83 C 0.76653 0.02937 0.64812 0.0
O84 O 0.69823 0.9792 0.56154 0.0
O85 O 0.72683 -0.0043 0.4564 0.0
O86 O 0.77706 0.02034 0.59484 0.0
O87 O 0.74215 0.01392 0.66425 0.0
C88 C 0.73923 0.95171 0.71304 0.0
O89 O 0.75948 0.97138 0.46923 0.0
O90 O 0.71995 0.94135 0.50663 0.0
In91 In 0.17101 0.84656 0.57804 0.0
O92 O 0.18292 0.87858 0.47215 0.0
O93 O 0.20757 0.8613 0.49396 0.0
C94 C 0.12609 0.83469 0.66314 0.0
C95 C 0.20354 0.87722 0.70566 0.0
C96 C 0.15181 0.79959 0.49497 0.0
O97 O 0.13218 0.84713 0.5898 0.0
O98 O 0.14274 0.82862 0.69288 0.0
O99 O 0.1696 0.80664 0.55445 0.0
O100 O 0.1443 0.8162 0.47854 0.0
C101 C 0.20404 0.87825 0.4526 0.0
O102 O 0.19991 0.85396 0.6908 0.0
O103 O 0.19032 0.88425 0.65734 0.0
In104 In 0.31068 0.41327 0.56847 0.0
O105 O 0.2807 0.39211 0.45755 0.0
O106 O 0.29252 0.43273 0.48859 0.0
C107 C 0.32302 0.37841 0.64019 0.0
C108 C 0.27787 0.41298 0.69263 0.0
C109 C 0.35771 0.44943 0.49917 0.0
O110 O 0.31435 0.37556 0.5615 0.0
O111 O 0.32555 0.39862 0.68072 0.0
O112 O 0.35123 0.4519 0.57734 0.0
O113 O 0.34076 0.42894 0.45795 0.0
C114 C 0.27822 0.41232 0.44182 0.0
O115 O 0.30028 0.43365 0.67774 0.0
O116 O 0.27267 0.39273 0.64627 0.0
In117 In 0.74196 0.84301 0.07677 0.0
O118 O 0.76317 0.87558 0.97362 0.0
O119 O 0.72154 0.86029 -0.00123 0.0
C120 C 0.76783 0.82355 0.167 0.0
C121 C 0.74113 0.87304 0.2082 0.0
C122 C 0.71607 0.79947 0.97667 0.0
O123 O 0.77984 0.84209 0.11029 0.0
O124 O 0.74334 0.81561 0.17792 0.0
O125 O 0.70414 0.80478 0.03715 0.0
O126 O 0.74055 0.81637 0.96682 0.0
C127 C 0.74223 0.87667 0.95686 0.0
O128 O 0.72045 0.85108 0.18757 0.0
O129 O 0.76189 0.87896 0.16403 0.0
In130 In 0.31431 0.98267 0.0786 0.0
O131 O 0.30404 0.95219 0.18922 0.0
O132 O 0.2794 0.96954 0.16933 0.0
C133 C 0.35761 0.99262 0.98642 0.0
C134 C 0.27965 0.95065 0.95775 0.0
C135 C 0.33458 0.031 0.15283 0.0
O136 O 0.35274 0.9815 0.06203 0.0
O137 O 0.34061 -0.00159 0.9582 0.0
O138 O 0.31535 0.02253 0.09835 0.0
O139 O 0.3431 0.01517 0.16862 0.0
C140 C 0.28339 0.95304 0.21162 0.0
O141 O 0.28403 0.9743 0.96971 0.0
O142 O 0.29309 0.94381 0.0057 0.0
In143 In 0.16959 0.41068 0.06854 0.0
O144 O 0.17933 0.39017 0.95768 0.0
O145 O 0.20703 0.43114 0.9882 0.0
C146 C 0.12285 0.37509 0.14105 0.0
C147 C 0.20273 0.41157 0.19245 0.0
C148 C 0.15733 0.44595 2e-05 0.0
O149 O 0.12862 0.37242 0.06206 0.0
O150 O 0.14037 0.39541 0.18144 0.0
O151 O 0.16655 0.44868 0.07788 0.0
O152 O 0.15421 0.42563 0.95864 0.0
C153 C 0.20162 0.41087 0.94165 0.0
O154 O 0.20016 0.43177 0.17765 0.0
O155 O 0.18817 0.39114 0.14608 0.0
In156 In 0.40586 0.31671 0.90535 0.0
O157 O 0.38593 0.28566 0.01451 0.0
O158 O 0.42791 0.30327 -0.00614 0.0
C159 C 0.3723 0.32697 0.8157 0.0
C160 C 0.40859 0.28537 0.78199 0.0
C161 C 0.43364 0.36462 0.98233 0.0
O162 O 0.36616 0.31544 0.89068 0.0
O163 O 0.39509 0.33299 0.7868 0.0
O164 O 0.44449 0.35659 0.9266 0.0
O165 O 0.40934 0.34859 -0.00204 0.0
C166 C 0.40751 0.28651 0.0359 0.0
O167 O 0.42778 0.30899 0.7948 0.0
O168 O 0.38834 0.27825 0.83028 0.0
In169 In 0.83643 0.17823 0.90833 0.0
O170 O 0.86557 0.18599 0.02057 0.0
O171 O 0.85556 0.216 0.98721 0.0
C172 C 0.81769 0.13149 0.82423 0.0
C173 C 0.86921 0.2101 0.78289 0.0
C174 C 0.79161 0.16572 -0.00499 0.0
O175 O 0.83548 0.13858 0.88372 0.0
O176 O 0.80991 0.14792 0.80842 0.0
O177 O 0.79733 0.1782 0.92177 0.0
O178 O 0.80853 0.15989 0.02376 0.0
C179 C 0.86899 0.20918 0.03533 0.0
O180 O 0.84798 0.2102 0.80253 0.0
O181 O 0.87297 0.19328 0.82419 0.0
In182 In 0.97585 0.74216 0.88764 0.0
O183 O 0.96316 0.76217 -0.00894 0.0
O184 O 0.93676 0.72096 0.9595 0.0
C185 C 0.02349 0.77874 0.82381 0.0
C186 C 0.94515 0.74105 0.75473 0.0
C187 C 0.98812 0.70816 0.96644 0.0
O188 O 0.01593 0.78116 0.90034 0.0
O189 O 0.00732 0.75806 0.78161 0.0
O190 O 0.98014 0.7048 0.88671 0.0
O191 O 0.98994 0.72842 0.00455 0.0
C192 C 0.94078 0.74124 0.00364 0.0
O193 O 0.94769 0.72095 0.77229 0.0
O194 O 0.95859 0.76139 0.80275 0.0
In195 In 0.41436 0.18116 0.4051 0.0
O196 O 0.39268 0.18882 0.51647 0.0
O197 O 0.43236 0.21931 0.48213 0.0
C198 C 0.38619 0.13363 0.32579 0.0
C199 C 0.41286 0.21207 0.27687 0.0
C200 C 0.44742 0.16974 0.49266 0.0
O201 O 0.37562 0.14138 0.38366 0.0
O202 O 0.41039 0.14981 0.3091 0.0
O203 O 0.4537 0.18157 0.41822 0.0
O204 O 0.4248 0.16408 0.52218 0.0
C205 C 0.41209 0.21226 0.53028 0.0
O206 O 0.43439 0.21268 0.29741 0.0
O207 O 0.39244 0.19521 0.31858 0.0
In208 In 0.97917 0.31496 0.40909 0.0
O209 O 0.96904 0.28462 0.52001 0.0
O210 O 0.94409 0.30158 0.49936 0.0
C211 C 0.02268 0.32458 0.31878 0.0
C212 C 0.94476 0.28292 0.28758 0.0
C213 C -0.00103 0.36336 0.48273 0.0
O214 O 0.01757 0.31363 0.39466 0.0
O215 O 0.00585 0.33045 0.28941 0.0
O216 O 0.9797 0.35463 0.42837 0.0
O217 O 0.00783 0.34781 0.49848 0.0
C218 C 0.94824 0.28525 0.54201 0.0
O219 O 0.94921 0.30661 0.29897 0.0
O220 O 0.95799 0.27606 0.33643 0.0
In221 In 0.83374 0.73599 0.38674 0.0
O222 O 0.84212 0.71582 0.2708 0.0
O223 O 0.86721 0.75784 0.29053 0.0
C224 C 0.79044 0.70052 0.47532 0.0
C225 C 0.86939 0.7386 0.50335 0.0
C226 C 0.81473 0.76694 0.32896 0.0
O227 O 0.7947 0.6963 0.39603 0.0
O228 O 0.80807 0.72229 0.50896 0.0
O229 O 0.83497 0.77624 0.37906 0.0
O230 O 0.8045 0.74254 0.30928 0.0
C231 C 0.86249 0.73737 0.24651 0.0
O232 O 0.86437 0.75749 0.49518 0.0
O233 O 0.85611 0.71861 0.4537 0.0
C234 C 0.05203 0.55387 -0.00869 0.0
C235 C 0.07465 0.56127 0.9392 0.0
H236 H 0.0339 0.56573 0.09121 0.0
C237 C 0.09696 0.58699 0.94906 0.0
H238 H 0.03457 0.53422 0.98496 0.0
C239 C 0.09659 0.60507 0.00952 0.0
C240 C 0.07391 0.59774 0.06126 0.0
H241 H 0.11471 0.59327 0.90959 0.0
H242 H 0.11401 0.62476 0.01559 0.0
C243 C 0.05167 0.57196 0.05189 0.0
C244 C 0.60048 0.5805 0.98532 0.0
C245 C 0.59801 0.60106 0.9457 0.0
H246 H 0.58284 0.54636 0.07025 0.0
C247 C 0.57523 0.60301 0.96315 0.0
H248 H 0.61771 0.57841 0.97257 0.0
C249 C 0.55513 0.58455 0.01841 0.0
C250 C 0.55748 0.56382 0.05725 0.0
H251 H 0.57272 0.61861 0.93313 0.0
H252 H 0.53782 0.58653 0.03072 0.0
C253 C 0.5804 0.56205 0.04062 0.0
C254 C 0.57488 0.05275 -0.00984 0.0
C255 C 0.59218 0.07567 0.03872 0.0
H256 H 0.54364 0.03539 0.89393 0.0
C257 C 0.59112 0.09923 0.02656 0.0
H258 H 0.57521 0.03433 -0.00155 0.0
C259 C 0.57302 0.09986 0.96715 0.0
C260 C 0.55566 0.07693 0.91879 0.0
H261 H 0.6042 0.11723 0.06333 0.0
H262 H 0.57266 0.11828 0.95906 0.0
C263 C 0.55677 0.05338 0.93065 0.0
C264 C 0.56596 0.05314 0.4306 0.0
C265 C 0.59112 0.07604 0.41899 0.0
H266 H 0.52846 0.03544 0.49806 0.0
C267 C 0.59759 0.09922 0.46744 0.0
H268 H 0.5604 0.03499 0.39377 0.0
C269 C 0.57927 0.09947 0.52671 0.0
C270 C 0.55416 0.07655 0.53861 0.0
H271 H 0.61677 0.11717 0.45954 0.0
H272 H 0.58489 0.11763 0.56357 0.0
C273 C 0.54763 0.05339 0.48995 0.0
C274 C 0.09724 0.60177 0.46248 0.0
C275 C 0.07294 0.60072 0.44461 0.0
H276 H 0.11714 0.58442 0.53134 0.0
C277 C 0.0496 0.5808 0.48465 0.0
H278 H 0.11558 0.61687 0.43223 0.0
C279 C 0.05051 0.56213 0.54099 0.0
C280 C 0.07478 0.56305 0.55817 0.0
H281 H 0.03059 0.57942 0.47165 0.0
H282 H 0.03217 0.54697 0.57104 0.0
C283 C 0.09815 0.5831 0.5187 0.0
C284 C 0.57978 0.60556 0.50509 0.0
C285 C 0.59375 0.59706 0.55904 0.0
H286 H 0.55058 0.59512 0.40344 0.0
C287 C 0.58855 0.57062 0.55173 0.0
H288 H 0.58335 0.6258 0.50954 0.0
C289 C 0.56979 0.55301 0.49103 0.0
C290 C 0.55589 0.56155 0.43688 0.0
H291 H 0.59903 0.56351 0.59276 0.0
H292 H 0.56627 0.5328 0.48629 0.0
C293 C 0.56099 0.58795 0.4446 0.0
C294 C 0.76396 0.91671 0.28786 0.0
C295 C 0.74104 0.89158 0.27504 0.0
H296 H 0.7816 0.95433 0.35559 0.0
C297 C 0.71798 0.88501 0.32358 0.0
H298 H 0.78205 0.92236 0.25108 0.0
C299 C 0.71778 0.90334 0.38338 0.0
C300 C 0.7406 0.9286 0.39532 0.0
H301 H 0.70005 0.86584 0.31486 0.0
H302 H 0.69965 0.89777 0.4198 0.0
C303 C 0.76372 0.93508 0.34734 0.0
C304 C 0.22108 0.91746 0.35071 0.0
C305 C 0.2242 0.8973 0.39042 0.0
H306 H 0.23763 0.95115 0.2639 0.0
C307 C 0.2474 0.8961 0.37326 0.0
H308 H 0.20352 0.91899 0.36331 0.0
C309 C 0.26704 0.9146 0.31675 0.0
C310 C 0.26382 0.93463 0.2765 0.0
H311 H 0.25042 0.88084 0.40348 0.0
H312 H 0.28455 0.91301 0.30382 0.0
C313 C 0.24072 0.93596 0.29431 0.0
C314 C 0.25709 0.43509 0.3648 0.0
C315 C 0.25925 0.41213 0.37659 0.0
H316 H 0.23737 0.45289 0.29752 0.0
C317 C 0.24264 0.38901 0.32778 0.0
H318 H 0.26962 0.45321 0.4018 0.0
C319 C 0.22413 0.38884 0.26833 0.0
C320 C 0.22192 0.41178 0.25675 0.0
H321 H 0.24384 0.37103 0.33579 0.0
H322 H 0.21156 0.37071 0.23137 0.0
C323 C 0.23858 0.43491 0.3054 0.0
C324 C 0.2454 0.43491 0.86434 0.0
C325 C 0.22077 0.41139 0.87647 0.0
H326 H 0.2829 0.45383 0.79692 0.0
C327 C 0.21514 0.38843 0.82812 0.0
H328 H 0.25032 0.45293 0.90097 0.0
C329 C 0.23386 0.38897 0.7688 0.0
C330 C 0.25852 0.41247 0.75689 0.0
H331 H 0.19637 0.37004 0.83641 0.0
H332 H 0.22897 0.37095 0.73221 0.0
C333 C 0.26411 0.43544 0.80508 0.0
C334 C 0.71773 0.89602 0.8799 0.0
C335 C 0.74173 0.89621 0.89542 0.0
H336 H 0.69813 0.91362 0.81057 0.0
C337 C 0.76505 0.91551 0.85354 0.0
H338 H 0.69943 0.88145 0.91175 0.0
C339 C 0.76429 0.93405 0.79615 0.0
C340 C 0.7402 0.93357 0.77953 0.0
H341 H 0.78383 0.91625 0.86481 0.0
H342 H 0.78255 0.9485 0.76375 0.0
C343 C 0.71697 0.91452 0.82241 0.0
C344 C 0.25634 0.90605 0.88385 0.0
C345 C 0.26003 0.93189 0.89362 0.0
H346 H 0.23545 0.86836 0.81681 0.0
C347 C 0.24467 0.93937 0.84254 0.0
H348 H 0.26789 0.89971 0.92267 0.0
C349 C 0.22606 0.92137 0.78229 0.0
C350 C 0.22251 0.8956 0.77201 0.0
H351 H 0.24704 0.9591 0.84896 0.0
H352 H 0.21458 0.92776 0.74329 0.0
C353 C 0.23775 0.88806 0.8235 0.0
C354 C 0.38761 0.24091 0.70742 0.0
C355 C 0.40958 0.26686 0.7171 0.0
H356 H 0.3712 0.20319 0.64086 0.0
C357 C 0.4324 0.27457 0.66568 0.0
H358 H 0.36974 0.23439 0.74645 0.0
C359 C 0.43321 0.25665 0.60551 0.0
C360 C 0.41123 0.23072 0.59572 0.0
H361 H 0.44961 0.29439 0.672 0.0
H362 H 0.45107 0.26317 0.5664 0.0
C363 C 0.38843 0.223 0.64723 0.0
C364 C 0.88591 0.24923 0.68077 0.0
C365 C 0.88926 0.22924 0.7207 0.0
H366 H 0.90221 0.28289 0.59376 0.0
C367 C 0.91262 0.22831 0.70377 0.0
H368 H 0.86823 0.25055 0.6932 0.0
C369 C 0.93218 0.2469 0.6473 0.0
C370 C 0.92872 0.26676 0.60683 0.0
H371 H 0.91583 0.21319 0.73415 0.0
H372 H 0.94981 0.24551 0.63457 0.0
C373 C 0.90547 0.26783 0.62437 0.0
C374 C 0.92342 0.76304 0.6769 0.0
C375 C 0.9267 0.74068 0.68709 0.0
H376 H 0.90257 0.77986 0.61103 0.0
C377 C 0.91138 0.71787 0.63523 0.0
H378 H 0.93496 0.78093 0.71617 0.0
C379 C 0.89285 0.71731 0.57499 0.0
C380 C 0.88927 0.73951 0.56596 0.0
H381 H 0.91349 0.70037 0.64186 0.0
H382 H 0.88115 0.69937 0.53613 0.0
C383 C 0.90484 0.76244 0.61699 0.0
C384 C 0.90482 0.76281 0.16225 0.0
C385 C 0.8813 0.73851 0.17876 0.0
H386 H 0.94223 0.78268 0.09456 0.0
C387 C 0.87718 0.71527 0.13549 0.0
H388 H 0.90858 0.78108 0.19486 0.0
C389 C 0.89653 0.71623 0.07811 0.0
C390 C 0.92034 0.74042 0.06345 0.0
H391 H 0.8593 0.69627 0.14726 0.0
H392 H 0.89296 0.69794 0.04616 0.0
C393 C 0.92419 0.76374 0.1053 0.0
C394 C 0.43472 0.25103 0.17374 0.0
C395 C 0.41156 0.23082 0.21374 0.0
H396 H 0.45158 0.28474 0.08687 0.0
C397 C 0.38705 0.22939 0.19648 0.0
H398 H 0.45387 0.25273 0.18635 0.0
C399 C 0.38572 0.2478 0.14003 0.0
C400 C 0.40887 0.26797 0.09985 0.0
H401 H 0.36885 0.21408 0.22684 0.0
H402 H 0.36656 0.24609 0.12733 0.0
C403 C 0.43338 0.26945 0.11731 0.0
C404 C 0.92163 0.23829 0.21393 0.0
C405 C 0.92528 0.26413 0.22318 0.0
H406 H 0.90085 0.20053 0.14732 0.0
C407 C 0.91 0.27155 0.17142 0.0
H408 H 0.93312 0.232 0.25326 0.0
C409 C 0.89147 0.25348 0.11113 0.0
C410 C 0.88794 0.22769 0.10147 0.0
H411 H 0.91234 0.29128 0.17742 0.0
H412 H 0.88003 0.2598 0.07164 0.0
C413 C 0.90313 0.22023 0.15353 0.0
C414 C 0.10057 0.7379 0.37592 0.0
C415 C 0.11425 0.72406 0.36024 0.0
H416 H 0.10199 0.77274 0.42971 0.0
C417 C 0.14076 0.73519 0.38883 0.0
H418 H 0.08011 0.72971 0.35451 0.0
C419 C 0.15315 0.75966 0.43459 0.0
C420 C 0.13936 0.7735 0.44959 0.0
H421 H 0.15156 0.72467 0.37801 0.0
H422 H 0.17349 0.76787 0.45721 0.0
C423 C 0.1131 0.76251 0.41896 0.0
C424 C 0.43189 0.49058 0.46799 0.0
C425 C 0.43366 0.49397 0.37544 0.0
H426 H 0.40608 0.47445 0.58074 0.0
C427 C 0.41038 0.4857 0.32589 0.0
H428 H 0.44965 0.49685 0.50748 0.0
C429 C 0.38555 0.47229 0.36738 0.0
C430 C 0.38372 0.46773 0.45929 0.0
H431 H 0.41126 0.48795 0.25445 0.0
H432 H 0.36773 0.46459 0.32717 0.0
C433 C 0.40706 0.47791 0.50989 0.0
C434 C 0.68938 0.00102 0.34406 0.0
C435 C 0.68716 -0.00215 0.43669 0.0
H436 H 0.67965 0.01609 0.22851 0.0
C437 C 0.671 0.00531 0.48331 0.0
H438 H 0.70171 -0.00467 0.30672 0.0
C439 C 0.659 0.01773 0.43898 0.0
C440 C 0.6623 0.02211 0.34708 0.0
H441 H 0.66907 0.00318 0.55472 0.0
H442 H 0.64795 0.02484 0.47708 0.0
C443 C 0.67669 0.01273 0.2993 0.0
C444 C 0.71777 0.13347 0.0314 0.0
C445 C 0.71591 0.12877 0.1232 0.0
H446 H 0.74355 0.14988 0.91896 0.0
C447 C 0.73922 0.13912 0.17406 0.0
H448 H 0.69997 0.12564 -0.009 0.0
C449 C 0.76409 0.1523 0.13253 0.0
C450 C 0.76592 0.15603 0.04014 0.0
H451 H 0.7382 0.13555 0.24484 0.0
H452 H 0.78186 0.15882 0.17219 0.0
C453 C 0.74263 0.1474 -0.00968 0.0
C454 C 0.01035 0.68078 0.96515 0.0
C455 C -0.00342 0.69111 0.01157 0.0
H456 H 0.03466 0.66263 0.97493 0.0
C457 C -0.00627 0.68782 0.10399 0.0
H458 H 0.01293 0.68324 0.89398 0.0
C459 C 0.00551 0.67545 0.14994 0.0
C460 C 0.02099 0.66694 0.10436 0.0
H461 H 0.98312 0.69563 0.14107 0.0
H462 H 0.00392 0.6741 0.22156 0.0
C463 C 0.02283 0.66913 0.01144 0.0
C464 C 0.47441 0.403 0.05071 0.0
C465 C 0.44754 0.391 0.02548 0.0
H466 H 0.50711 0.43623 0.11711 0.0
C467 C 0.43308 0.40378 0.04576 0.0
H468 H 0.48584 0.39332 0.03627 0.0
C469 C 0.44522 0.42824 0.08972 0.0
C470 C 0.47189 0.44011 0.11668 0.0
H471 H 0.41233 0.39491 0.02698 0.0
H472 H 0.43357 0.43772 0.10382 0.0
C473 C 0.48644 0.42729 0.09742 0.0
C474 C -0.00415 0.40125 0.55223 0.0
C475 C 0.01115 0.38992 0.5246 0.0
H476 H -0.0042 0.43395 0.62055 0.0
C477 C 0.03856 0.40346 0.54199 0.0
H478 H 0.9746 0.39096 0.54009 0.0
C479 C 0.05061 0.42795 0.58579 0.0
C480 C 0.0354 0.43912 0.61544 0.0
H481 H 0.05077 0.39511 0.52137 0.0
H482 H 0.07186 0.43794 0.59785 0.0
C483 C 0.00787 0.42559 0.59874 0.0
C484 C 0.71714 0.65889 0.52106 0.0
C485 C 0.71671 0.6601 0.61408 0.0
H486 H 0.74119 0.6701 0.40375 0.0
C487 C 0.74073 0.6712 0.6613 0.0
H488 H 0.69878 0.65035 0.48337 0.0
C489 C 0.76495 0.68307 0.61575 0.0
C490 C 0.7654 0.68328 0.52256 0.0
H491 H 0.74087 0.67249 0.73301 0.0
H492 H 0.78333 0.69315 0.65328 0.0
C493 C 0.74133 0.67006 0.4756 0.0
C494 C 0.46196 0.15694 0.63066 0.0
C495 C 0.46363 0.16032 0.5381 0.0
H496 H 0.47109 0.14032 0.74344 0.0
C497 C 0.47807 0.15136 0.48851 0.0
H498 H 0.45088 0.1637 0.67017 0.0
C499 C 0.4889 0.13738 0.52999 0.0
C500 C 0.48618 0.13292 0.62194 0.0
H501 H 0.47945 0.15356 0.41705 0.0
H502 H 0.49862 0.12923 0.48976 0.0
C503 C 0.47355 0.14369 0.67255 0.0
C504 C 0.38335 0.00404 0.84511 0.0
C505 C 0.38253 0.00095 0.93776 0.0
H506 H 0.40799 0.0193 0.72931 0.0
C507 C 0.40627 0.00895 0.9843 0.0
H508 H 0.36524 -0.00204 0.80788 0.0
C509 C 0.43063 0.02174 0.9398 0.0
C510 C 0.43154 0.02594 0.84781 0.0
H511 H 0.40615 0.00692 0.05574 0.0
H512 H 0.44885 0.02918 0.97776 0.0
C513 C 0.40771 0.0161 0.80017 0.0
C514 C 0.14073 0.48234 0.82757 0.0
C515 C 0.1256 0.49045 0.87727 0.0
H516 H 0.16241 0.46134 0.82834 0.0
C517 C 0.12365 0.4866 0.96961 0.0
H518 H 0.14235 0.48493 0.75626 0.0
C519 C 0.13575 0.47381 0.01117 0.0
C520 C 0.14919 0.46396 0.9604 0.0
H521 H 0.11205 0.49273 0.00919 0.0
H522 H 0.13314 0.47011 0.08189 0.0
C523 C 0.15208 0.46879 0.86867 0.0
C524 C 0.70779 0.73997 0.84808 0.0
C525 C 0.68009 0.7246 0.83851 0.0
H526 H 0.74077 0.77594 0.89754 0.0
C527 C 0.66402 0.73458 0.87026 0.0
H528 H 0.72054 0.73262 0.82408 0.0
C529 C 0.67558 0.75918 0.91489 0.0
C530 C 0.70334 0.77432 0.92567 0.0
H531 H 0.64256 0.72285 0.86413 0.0
H532 H 0.66287 0.76622 0.9416 0.0
C533 C 0.71932 0.76474 0.89004 0.0
C534 C 0.80732 0.06735 0.71797 0.0
C535 C 0.78088 0.05612 0.6885 0.0
H536 H 0.83974 0.10005 0.78732 0.0
C537 C 0.76708 0.06989 0.70319 0.0
H538 H 0.81821 0.05688 0.70794 0.0
C539 C 0.77938 0.09447 0.7464 0.0
C540 C 0.80553 0.10552 0.77815 0.0
H541 H 0.74667 0.06161 0.68111 0.0
H542 H 0.76816 0.10461 0.75655 0.0
C543 C 0.81948 0.09179 0.76386 0.0
C544 C 0.09782 0.82096 0.79902 0.0
C545 C 0.10021 0.82511 0.70683 0.0
H546 H 0.07122 0.80361 0.90942 0.0
C547 C 0.07723 0.81683 0.65559 0.0
H548 H 0.11534 0.82719 0.83977 0.0
C549 C 0.05213 0.80275 0.69494 0.0
C550 C 0.0497 0.79753 0.78643 0.0
H551 H 0.07859 0.81963 0.58435 0.0
H552 H 0.03458 0.7951 0.65337 0.0
C553 C 0.07269 0.80761 0.83885 0.0
C554 C 0.32837 0.35637 0.77365 0.0
C555 C 0.33135 0.36077 0.68169 0.0
H556 H 0.33839 0.34125 0.88809 0.0
C557 C 0.34516 0.35099 0.63261 0.0
H558 H 0.31775 0.36377 0.81272 0.0
C559 C 0.35756 0.33878 0.67604 0.0
C560 C 0.35559 0.33547 0.76862 0.0
H561 H 0.34784 0.35433 0.56175 0.0
H562 H 0.36946 0.33275 0.63769 0.0
C563 C 0.34006 0.34343 0.81665 0.0
C564 C 0.07123 0.34031 0.3184 0.0
C565 C 0.0477 0.33263 0.27101 0.0
H566 H 0.11382 0.36023 0.3134 0.0
C567 C 0.04884 0.33577 0.17836 0.0
H568 H 0.07087 0.33821 0.38985 0.0
C569 C 0.07333 0.34768 0.1343 0.0
C570 C 0.09699 0.35731 0.18281 0.0
H571 H 0.03088 0.32991 0.14045 0.0
H572 H 0.07387 0.35102 0.06346 0.0
C573 C 0.09574 0.35294 0.27476 0.0
C574 C 0.77569 0.77035 0.28286 0.0
C575 C 0.80331 0.78283 0.29483 0.0
H576 H 0.74296 0.77372 0.23458 0.0
C577 C 0.8195 0.80946 0.2677 0.0
H578 H 0.76282 0.74982 0.30331 0.0
C579 C 0.80816 0.82304 0.22581 0.0
C580 C 0.78047 0.81032 0.2132 0.0
H581 H 0.84091 0.81935 0.27575 0.0
H582 H 0.82095 0.84333 0.20315 0.0
C583 C 0.76436 0.78406 0.2436 0.0
C584 C 0.33233 0.06973 0.21926 0.0
C585 C 0.34715 0.05763 0.19432 0.0
H586 H 0.33304 0.10332 0.28379 0.0
C587 C 0.37447 0.0706 0.21319 0.0
H588 H 0.31116 0.05991 0.20588 0.0
C589 C 0.38691 0.09532 0.25549 0.0
C590 C 0.37218 0.10731 0.28215 0.0
H591 H 0.38633 0.06167 0.1946 0.0
H592 H 0.4081 0.10492 0.26854 0.0
C593 C 0.34473 0.09431 0.26429 0.0
loop_
_geom_bond_atom_site_label_1
_geom_bond_atom_site_label_2
_geom_bond_distance
_geom_bond_site_symmetry_2
_ccdc_geom_bond_type
In0 O1 2.294 . S
In0 O2 2.326 . S
In0 O6 2.266 . S
In0 O7 2.326 . S
In0 O8 2.266 . S
In0 O9 2.326 . S
In0 O11 2.294 . S
In0 O12 2.326 . S
O1 In0 2.294 . S
O1 C10 1.240 . S
O2 In0 2.326 . S
O2 C10 1.252 . S
C3 O6 1.252 . S
C3 O7 1.260 . S
C4 O11 1.240 . S
C4 O12 1.252 . S
C5 O8 1.252 . S
C5 O9 1.260 . S
O6 In0 2.266 . S
O6 C3 1.252 . S
O7 In0 2.326 . S
O7 C3 1.260 . S
O8 In0 2.266 . S
O8 C5 1.252 . S
O9 In0 2.326 . S
O9 C5 1.260 . S
C10 O1 1.240 . S
C10 O2 1.252 . S
O11 In0 2.294 . S
O11 C4 1.240 . S
O12 In0 2.326 . S
O12 C4 1.252 . S
In13 O14 2.294 . S
In13 O15 2.326 . S
In13 O19 2.266 . S
In13 O20 2.326 . S
In13 O21 2.266 . S
In13 O22 2.326 . S
In13 O24 2.294 . S
In13 O25 2.326 . S
O14 In13 2.294 . S
O14 C23 1.240 . S
O15 In13 2.326 . S
O15 C23 1.252 . S
C16 O19 1.252 . S
C16 O20 1.260 . S
C17 O24 1.240 . S
C17 O25 1.252 . S
C18 O21 1.252 . S
C18 O22 1.260 . S
O19 In13 2.266 . S
O19 C16 1.252 . S
O20 In13 2.326 . S
O20 C16 1.260 . S
O21 In13 2.266 . S
O21 C18 1.252 . S
O22 In13 2.326 . S
O22 C18 1.260 . S
C23 O14 1.240 . S
C23 O15 1.252 . S
O24 In13 2.294 . S
O24 C17 1.240 . S
O25 In13 2.326 . S
O25 C17 1.252 . S
In26 O27 2.294 . S
In26 O28 2.326 . S
In26 O32 2.266 . S
In26 O33 2.326 . S
In26 O34 2.266 . S
In26 O35 2.326 . S
In26 O37 2.294 . S
In26 O38 2.326 . S
O27 In26 2.294 . S
O27 C36 1.240 . S
O28 In26 2.326 . S
O28 C36 1.252 . S
C29 O32 1.252 . S
C29 O33 1.260 . S
C30 O37 1.240 . S
C30 O38 1.252 . S
C31 O34 1.252 . S
C31 O35 1.260 . S
O32 In26 2.266 . S
O32 C29 1.252 . S
O33 In26 2.326 . S
O33 C29 1.260 . S
O34 In26 2.266 . S
O34 C31 1.252 . S
O35 In26 2.326 . S
O35 C31 1.260 . S
C36 O27 1.240 . S
C36 O28 1.252 . S
O37 In26 2.294 . S
O37 C30 1.240 . S
O38 In26 2.326 . S
O38 C30 1.252 . S
In39 O40 2.294 . S
In39 O41 2.326 . S
In39 O45 2.266 . S
In39 O46 2.326 . S
In39 O47 2.266 . S
In39 O48 2.326 . S
In39 O50 2.294 . S
In39 O51 2.326 . S
O40 In39 2.294 . S
O40 C49 1.240 . S
O41 In39 2.326 . S
O41 C49 1.252 . S
C42 O45 1.252 . S
C42 O46 1.260 . S
C43 O50 1.240 . S
C43 O51 1.252 . S
C44 O47 1.252 . S
C44 O48 1.260 . S
O45 In39 2.266 . S
O45 C42 1.252 . S
O46 In39 2.326 . S
O46 C42 1.260 . S
O47 In39 2.266 . S
O47 C44 1.252 . S
O48 In39 2.326 . S
O48 C44 1.260 . S
C49 O40 1.240 . S
C49 O41 1.252 . S
O50 In39 2.294 . S
O50 C43 1.240 . S
O51 In39 2.326 . S
O51 C43 1.252 . S
In52 O53 2.294 . S
In52 O54 2.326 . S
In52 O58 2.266 . S
In52 O59 2.326 . S
In52 O60 2.266 . S
In52 O61 2.326 . S
In52 O63 2.294 . S
In52 O64 2.326 . S
O53 In52 2.294 . S
O53 C62 1.240 . S
O54 In52 2.326 . S
O54 C62 1.252 . S
C55 O58 1.252 . S
C55 O59 1.260 . S
C56 O63 1.240 . S
C56 O64 1.252 . S
C57 O60 1.252 . S
C57 O61 1.260 . S
O58 In52 2.266 . S
O58 C55 1.252 . S
O59 In52 2.326 . S
O59 C55 1.260 . S
O60 In52 2.266 . S
O60 C57 1.252 . S
O61 In52 2.326 . S
O61 C57 1.260 . S
C62 O53 1.240 . S
C62 O54 1.252 . S
O63 In52 2.294 . S
O63 C56 1.240 . S
O64 In52 2.326 . S
O64 C56 1.252 . S
In65 O66 2.294 . S
In65 O67 2.326 . S
In65 O71 2.266 . S
In65 O72 2.326 . S
In65 O73 2.266 . S
In65 O74 2.326 . S
In65 O76 2.294 . S
In65 O77 2.326 . S
O66 In65 2.294 . S
O66 C75 1.240 . S
O67 In65 2.326 . S
O67 C75 1.252 . S
C68 O71 1.252 . S
C68 O72 1.260 . S
C69 O76 1.240 . S
C69 O77 1.252 . S
C70 O73 1.252 . S
C70 O74 1.260 . S
O71 In65 2.266 . S
O71 C68 1.252 . S
O72 In65 2.326 . S
O72 C68 1.260 . S
O73 In65 2.266 . S
O73 C70 1.252 . S
O74 In65 2.326 . S
O74 C70 1.260 . S
C75 O66 1.240 . S
C75 O67 1.252 . S
O76 In65 2.294 . S
O76 C69 1.240 . S
O77 In65 2.326 . S
O77 C69 1.252 . S
In78 O79 2.294 . S
In78 O80 2.326 . S
In78 O84 2.266 . S
In78 O85 2.326 1_565 S
In78 O86 2.266 1_565 S
In78 O87 2.326 1_565 S
In78 O89 2.294 . S
In78 O90 2.326 . S
O79 In78 2.294 . S
O79 C88 1.240 . S
O80 In78 2.326 . S
O80 C88 1.252 . S
C81 O84 1.252 1_545 S
C81 O85 1.260 . S
C82 O89 1.240 . S
C82 O90 1.252 . S
C83 O86 1.252 . S
C83 O87 1.260 . S
O84 In78 2.266 . S
O84 C81 1.252 1_565 S
O85 In78 2.326 1_545 S
O85 C81 1.260 . S
O86 In78 2.266 1_545 S
O86 C83 1.252 . S
O87 In78 2.326 1_545 S
O87 C83 1.260 . S
C88 O79 1.240 . S
C88 O80 1.252 . S
O89 In78 2.294 . S
O89 C82 1.240 . S
O90 In78 2.326 . S
O90 C82 1.252 . S
In91 O92 2.294 . S
In91 O93 2.326 . S
In91 O97 2.266 . S
In91 O98 2.326 . S
In91 O99 2.266 . S
In91 O100 2.326 . S
In91 O102 2.294 . S
In91 O103 2.326 . S
O92 In91 2.294 . S
O92 C101 1.240 . S
O93 In91 2.326 . S
O93 C101 1.252 . S
C94 O97 1.252 . S
C94 O98 1.260 . S
C95 O102 1.240 . S
C95 O103 1.252 . S
C96 O99 1.252 . S
C96 O100 1.260 . S
O97 In91 2.266 . S
O97 C94 1.252 . S
O98 In91 2.326 . S
O98 C94 1.260 . S
O99 In91 2.266 . S
O99 C96 1.252 . S
O100 In91 2.326 . S
O100 C96 1.260 . S
C101 O92 1.240 . S
C101 O93 1.252 . S
O102 In91 2.294 . S
O102 C95 1.240 . S
O103 In91 2.326 . S
O103 C95 1.252 . S
In104 O105 2.294 . S
In104 O106 2.326 . S
In104 O110 2.266 . S
In104 O111 2.326 . S
In104 O112 2.266 . S
In104 O113 2.326 . S
In104 O115 2.294 . S
In104 O116 2.326 . S
O105 In104 2.294 . S
O105 C114 1.240 . S
O106 In104 2.326 . S
O106 C114 1.252 . S
C107 O110 1.252 . S
C107 O111 1.260 . S
C108 O115 1.240 . S
C108 O116 1.252 . S
C109 O112 1.252 . S
C109 O113 1.260 . S
O110 In104 2.266 . S
O110 C107 1.252 . S
O111 In104 2.326 . S
O111 C107 1.260 . S
O112 In104 2.266 . S
O112 C109 1.252 . S
O113 In104 2.326 . S
O113 C109 1.260 . S
C114 O105 1.240 . S
C114 O106 1.252 . S
O115 In104 2.294 . S
O115 C108 1.240 . S
O116 In104 2.326 . S
O116 C108 1.252 . S
In117 O118 2.294 1_554 S
In117 O119 2.326 1_554 S
In117 O123 2.266 . S
In117 O124 2.326 . S
In117 O125 2.266 . S
In117 O126 2.326 1_554 S
In117 O128 2.294 . S
In117 O129 2.326 . S
O118 In117 2.294 1_556 S
O118 C127 1.240 . S
O119 In117 2.326 1_556 S
O119 C127 1.252 . S
C120 O123 1.252 . S
C120 O124 1.260 . S
C121 O128 1.240 . S
C121 O129 1.252 . S
C122 O125 1.252 . S
C122 O126 1.260 1_554 S
O123 In117 2.266 . S
O123 C120 1.252 . S
O124 In117 2.326 . S
O124 C120 1.260 . S
O125 In117 2.266 . S
O125 C122 1.252 . S
O126 In117 2.326 1_556 S
O126 C122 1.260 1_556 S
C127 O118 1.240 . S
C127 O119 1.252 . S
O128 In117 2.294 . S
O128 C121 1.240 . S
O129 In117 2.326 . S
O129 C121 1.252 . S
In130 O131 2.294 . S
In130 O132 2.326 . S
In130 O136 2.266 . S
In130 O137 2.326 1_564 S
In130 O138 2.266 1_565 S
In130 O139 2.326 1_565 S
In130 O141 2.294 1_554 S
In130 O142 2.326 1_554 S
O131 In130 2.294 . S
O131 C140 1.240 . S
O132 In130 2.326 . S
O132 C140 1.252 . S
C133 O136 1.252 1_545 S
C133 O137 1.260 1_554 S
C134 O141 1.240 . S
C134 O142 1.252 . S
C135 O138 1.252 . S
C135 O139 1.260 . S
O136 In130 2.266 . S
O136 C133 1.252 1_565 S
O137 In130 2.326 1_546 S
O137 C133 1.260 1_556 S
O138 In130 2.266 1_545 S
O138 C135 1.252 . S
O139 In130 2.326 1_545 S
O139 C135 1.260 . S
C140 O131 1.240 . S
C140 O132 1.252 . S
O141 In130 2.294 1_556 S
O141 C134 1.240 . S
O142 In130 2.326 1_556 S
O142 C134 1.252 . S
In143 O144 2.294 1_554 S
In143 O145 2.326 1_554 S
In143 O149 2.266 . S
In143 O150 2.326 . S
In143 O151 2.266 . S
In143 O152 2.326 1_554 S
In143 O154 2.294 . S
In143 O155 2.326 . S
O144 In143 2.294 1_556 S
O144 C153 1.240 . S
O145 In143 2.326 1_556 S
O145 C153 1.252 . S
C146 O149 1.252 . S
C146 O150 1.260 . S
C147 O154 1.240 . S
C147 O155 1.252 . S
C148 O151 1.252 . S
C148 O152 1.260 1_554 S
O149 In143 2.266 . S
O149 C146 1.252 . S
O150 In143 2.326 . S
O150 C146 1.260 . S
O151 In143 2.266 . S
O151 C148 1.252 . S
O152 In143 2.326 1_556 S
O152 C148 1.260 1_556 S
C153 O144 1.240 . S
C153 O145 1.252 . S
O154 In143 2.294 . S
O154 C147 1.240 . S
O155 In143 2.326 . S
O155 C147 1.252 . S
In156 O157 2.294 1_556 S
In156 O158 2.326 1_556 S
In156 O162 2.266 . S
In156 O163 2.326 . S
In156 O164 2.266 . S
In156 O165 2.326 1_556 S
In156 O167 2.294 . S
In156 O168 2.326 . S
O157 In156 2.294 1_554 S
O157 C166 1.240 . S
O158 In156 2.326 1_554 S
O158 C166 1.252 . S
C159 O162 1.252 . S
C159 O163 1.260 . S
C160 O167 1.240 . S
C160 O168 1.252 . S
C161 O164 1.252 . S
C161 O165 1.260 1_556 S
O162 In156 2.266 . S
O162 C159 1.252 . S
O163 In156 2.326 . S
O163 C159 1.260 . S
O164 In156 2.266 . S
O164 C161 1.252 . S
O165 In156 2.326 1_554 S
O165 C161 1.260 1_554 S
C166 O157 1.240 . S
C166 O158 1.252 . S
O167 In156 2.294 . S
O167 C160 1.240 . S
O168 In156 2.326 . S
O168 C160 1.252 . S
In169 O170 2.294 1_556 S
In169 O171 2.326 1_556 S
In169 O175 2.266 . S
In169 O176 2.326 . S
In169 O177 2.266 . S
In169 O178 2.326 1_556 S
In169 O180 2.294 . S
In169 O181 2.326 . S
O170 In169 2.294 1_554 S
O170 C179 1.240 . S
O171 In169 2.326 1_554 S
O171 C179 1.252 . S
C172 O175 1.252 . S
C172 O176 1.260 . S
C173 O180 1.240 . S
C173 O181 1.252 . S
C174 O177 1.252 . S
C174 O178 1.260 1_556 S
O175 In169 2.266 . S
O175 C172 1.252 . S
O176 In169 2.326 . S
O176 C172 1.260 . S
O177 In169 2.266 . S
O177 C174 1.252 . S
O178 In169 2.326 1_554 S
O178 C174 1.260 1_554 S
C179 O170 1.240 . S
C179 O171 1.252 . S
O180 In169 2.294 . S
O180 C173 1.240 . S
O181 In169 2.326 . S
O181 C173 1.252 . S
In182 O183 2.294 1_556 S
In182 O184 2.326 1_556 S
In182 O188 2.266 1_655 S
In182 O189 2.326 1_655 S
In182 O190 2.266 . S
In182 O191 2.326 1_656 S
In182 O193 2.294 . S
In182 O194 2.326 . S
O183 In182 2.294 1_554 S
O183 C192 1.240 . S
O184 In182 2.326 1_554 S
O184 C192 1.252 . S
C185 O188 1.252 . S
C185 O189 1.260 . S
C186 O193 1.240 . S
C186 O194 1.252 . S
C187 O190 1.252 1_455 S
C187 O191 1.260 1_556 S
O188 In182 2.266 1_455 S
O188 C185 1.252 . S
O189 In182 2.326 1_455 S
O189 C185 1.260 . S
O190 In182 2.266 . S
O190 C187 1.252 1_655 S
O191 In182 2.326 1_454 S
O191 C187 1.260 1_554 S
C192 O183 1.240 . S
C192 O184 1.252 . S
O193 In182 2.294 . S
O193 C186 1.240 . S
O194 In182 2.326 . S
O194 C186 1.252 . S
In195 O196 2.294 . S
In195 O197 2.326 . S
In195 O201 2.266 . S
In195 O202 2.326 . S
In195 O203 2.266 . S
In195 O204 2.326 . S
In195 O206 2.294 . S
In195 O207 2.326 . S
O196 In195 2.294 . S
O196 C205 1.240 . S
O197 In195 2.326 . S
O197 C205 1.252 . S
C198 O201 1.252 . S
C198 O202 1.260 . S
C199 O206 1.240 . S
C199 O207 1.252 . S
C200 O203 1.252 . S
C200 O204 1.260 . S
O201 In195 2.266 . S
O201 C198 1.252 . S
O202 In195 2.326 . S
O202 C198 1.260 . S
O203 In195 2.266 . S
O203 C200 1.252 . S
O204 In195 2.326 . S
O204 C200 1.260 . S
C205 O196 1.240 . S
C205 O197 1.252 . S
O206 In195 2.294 . S
O206 C199 1.240 . S
O207 In195 2.326 . S
O207 C199 1.252 . S
In208 O209 2.294 . S
In208 O210 2.326 . S
In208 O214 2.266 1_655 S
In208 O215 2.326 1_655 S
In208 O216 2.266 . S
In208 O217 2.326 1_655 S
In208 O219 2.294 . S
In208 O220 2.326 . S
O209 In208 2.294 . S
O209 C218 1.240 . S
O210 In208 2.326 . S
O210 C218 1.252 . S
C211 O214 1.252 . S
C211 O215 1.260 . S
C212 O219 1.240 . S
C212 O220 1.252 . S
C213 O216 1.252 1_455 S
C213 O217 1.260 . S
O214 In208 2.266 1_455 S
O214 C211 1.252 . S
O215 In208 2.326 1_455 S
O215 C211 1.260 . S
O216 In208 2.266 . S
O216 C213 1.252 1_655 S
O217 In208 2.326 1_455 S
O217 C213 1.260 . S
C218 O209 1.240 . S
C218 O210 1.252 . S
O219 In208 2.294 . S
O219 C212 1.240 . S
O220 In208 2.326 . S
O220 C212 1.252 . S
In221 O222 2.294 . S
In221 O223 2.326 . S
In221 O227 2.266 . S
In221 O228 2.326 . S
In221 O229 2.266 . S
In221 O230 2.326 . S
In221 O232 2.294 . S
In221 O233 2.326 . S
O222 In221 2.294 . S
O222 C231 1.240 . S
O223 In221 2.326 . S
O223 C231 1.252 . S
C224 O227 1.252 . S
C224 O228 1.260 . S
C225 O232 1.240 . S
C225 O233 1.252 . S
C226 O229 1.252 . S
C226 O230 1.260 . S
O227 In221 2.266 . S
O227 C224 1.252 . S
O228 In221 2.326 . S
O228 C224 1.260 . S
O229 In221 2.266 . S
O229 C226 1.252 . S
O230 In221 2.326 . S
O230 C226 1.260 . S
C231 O222 1.240 . S
C231 O223 1.252 . S
O232 In221 2.294 . S
O232 C225 1.240 . S
O233 In221 2.326 . S
O233 C225 1.252 . S
C234 C235 1.387 . S
C234 H238 0.950 . S
C234 C243 1.390 1_556 S
C235 C234 1.387 . S
C235 C237 1.387 . S
H236 C243 0.950 . S
C237 C235 1.387 . S
C237 C239 1.390 1_556 S
C237 H241 0.950 . S
H238 C234 0.950 . S
C239 C237 1.390 1_554 S
C239 C240 1.387 . S
C239 H242 0.950 . S
C240 C239 1.387 . S
C240 C243 1.387 . S
H241 C237 0.950 . S
H242 C239 0.950 . S
C243 C234 1.390 1_554 S
C243 H236 0.950 . S
C243 C240 1.387 . S
C244 C245 1.387 . S
C244 H248 0.950 . S
C244 C253 1.390 . S
C245 C244 1.387 . S
C245 C247 1.387 1_556 S
H246 C253 0.950 . S
C247 C245 1.387 1_554 S
C247 C249 1.390 . S
C247 H251 0.950 . S
H248 C244 0.950 . S
C249 C247 1.390 . S
C249 C250 1.387 . S
C249 H252 0.950 . S
C250 C249 1.387 . S
C250 C253 1.387 1_554 S
H251 C247 0.950 . S
H252 C249 0.950 . S
C253 C244 1.390 . S
C253 H246 0.950 . S
C253 C250 1.387 1_556 S
C254 C255 1.387 . S
C254 H258 0.950 . S
C254 C263 1.390 1_554 S
C255 C254 1.387 . S
C255 C257 1.387 . S
H256 C263 0.950 . S
C257 C255 1.387 . S
C257 C259 1.390 1_554 S
C257 H261 0.950 . S
H258 C254 0.950 . S
C259 C257 1.390 1_556 S
C259 C260 1.387 . S
C259 H262 0.950 . S
C260 C259 1.387 . S
C260 C263 1.387 . S
H261 C257 0.950 . S
H262 C259 0.950 . S
C263 C254 1.390 1_556 S
C263 H256 0.950 . S
C263 C260 1.387 . S
C264 C265 1.387 . S
C264 H268 0.950 . S
C264 C273 1.390 . S
C265 C264 1.387 . S
C265 C267 1.387 . S
H266 C273 0.950 . S
C267 C265 1.387 . S
C267 C269 1.390 . S
C267 H271 0.950 . S
H268 C264 0.950 . S
C269 C267 1.390 . S
C269 C270 1.387 . S
C269 H272 0.950 . S
C270 C269 1.387 . S
C270 C273 1.387 . S
H271 C267 0.950 . S
H272 C269 0.950 . S
C273 C264 1.390 . S
C273 H266 0.950 . S
C273 C270 1.387 . S
C274 C275 1.387 . S
C274 H278 0.950 . S
C274 C283 1.390 . S
C275 C274 1.387 . S
C275 C277 1.387 . S
H276 C283 0.950 . S
C277 C275 1.387 . S
C277 C279 1.390 . S
C277 H281 0.950 . S
H278 C274 0.950 . S
C279 C277 1.390 . S
C279 C280 1.387 . S
C279 H282 0.950 . S
C280 C279 1.387 . S
C280 C283 1.387 . S
H281 C277 0.950 . S
H282 C279 0.950 . S
C283 C274 1.390 . S
C283 H276 0.950 . S
C283 C280 1.387 . S
C284 C285 1.387 . S
C284 H288 0.950 . S
C284 C293 1.390 . S
C285 C284 1.387 . S
C285 C287 1.387 . S
H286 C293 0.950 . S
C287 C285 1.387 . S
C287 C289 1.390 . S
C287 H291 0.950 . S
H288 C284 0.950 . S
C289 C287 1.390 . S
C289 C290 1.387 . S
C289 H292 0.950 . S
C290 C289 1.387 . S
C290 C293 1.387 . S
H291 C287 0.950 . S
H292 C289 0.950 . S
C293 C284 1.390 . S
C293 H286 0.950 . S
C293 C290 1.387 . S
C294 C295 1.387 . S
C294 H298 0.950 . S
C294 C303 1.390 . S
C295 C294 1.387 . S
C295 C297 1.387 . S
H296 C303 0.950 . S
C297 C295 1.387 . S
C297 C299 1.390 . S
C297 H301 0.950 . S
H298 C294 0.950 . S
C299 C297 1.390 . S
C299 C300 1.387 . S
C299 H302 0.950 . S
C300 C299 1.387 . S
C300 C303 1.387 . S
H301 C297 0.950 . S
H302 C299 0.950 . S
C303 C294 1.390 . S
C303 H296 0.950 . S
C303 C300 1.387 . S
C304 C305 1.387 . S
C304 H308 0.950 . S
C304 C313 1.390 . S
C305 C304 1.387 . S
C305 C307 1.387 . S
H306 C313 0.950 . S
C307 C305 1.387 . S
C307 C309 1.390 . S
C307 H311 0.950 . S
H308 C304 0.950 . S
C309 C307 1.390 . S
C309 C310 1.387 . S
C309 H312 0.950 . S
C310 C309 1.387 . S
C310 C313 1.387 . S
H311 C307 0.950 . S
H312 C309 0.950 . S
C313 C304 1.390 . S
C313 H306 0.950 . S
C313 C310 1.387 . S
C314 C315 1.387 . S
C314 H318 0.950 . S
C314 C323 1.390 . S
C315 C314 1.387 . S
C315 C317 1.387 . S
H316 C323 0.950 . S
C317 C315 1.387 . S
C317 C319 1.390 . S
C317 H321 0.950 . S
H318 C314 0.950 . S
C319 C317 1.390 . S
C319 C320 1.387 . S
C319 H322 0.950 . S
C320 C319 1.387 . S
C320 C323 1.387 . S
H321 C317 0.950 . S
H322 C319 0.950 . S
C323 C314 1.390 . S
C323 H316 0.950 . S
C323 C320 1.387 . S
C324 C325 1.387 . S
C324 H328 0.950 . S
C324 C333 1.390 . S
C325 C324 1.387 . S
C325 C327 1.387 . S
H326 C333 0.950 . S
C327 C325 1.387 . S
C327 C329 1.390 . S
C327 H331 0.950 . S
H328 C324 0.950 . S
C329 C327 1.390 . S
C329 C330 1.387 . S
C329 H332 0.950 . S
C330 C329 1.387 . S
C330 C333 1.387 . S
H331 C327 0.950 . S
H332 C329 0.950 . S
C333 C324 1.390 . S
C333 H326 0.950 . S
C333 C330 1.387 . S
C334 C335 1.387 . S
C334 H338 0.950 . S
C334 C343 1.390 . S
C335 C334 1.387 . S
C335 C337 1.387 . S
H336 C343 0.950 . S
C337 C335 1.387 . S
C337 C339 1.390 . S
C337 H341 0.950 . S
H338 C334 0.950 . S
C339 C337 1.390 . S
C339 C340 1.387 . S
C339 H342 0.950 . S
C340 C339 1.387 . S
C340 C343 1.387 . S
H341 C337 0.950 . S
H342 C339 0.950 . S
C343 C334 1.390 . S
C343 H336 0.950 . S
C343 C340 1.387 . S
C344 C345 1.387 . S
C344 H348 0.950 . S
C344 C353 1.390 . S
C345 C344 1.387 . S
C345 C347 1.387 . S
H346 C353 0.950 . S
C347 C345 1.387 . S
C347 C349 1.390 . S
C347 H351 0.950 . S
H348 C344 0.950 . S
C349 C347 1.390 . S
C349 C350 1.387 . S
C349 H352 0.950 . S
C350 C349 1.387 . S
C350 C353 1.387 . S
H351 C347 0.950 . S
H352 C349 0.950 . S
C353 C344 1.390 . S
C353 H346 0.950 . S
C353 C350 1.387 . S
C354 C355 1.387 . S
C354 H358 0.950 . S
C354 C363 1.390 . S
C355 C354 1.387 . S
C355 C357 1.387 . S
H356 C363 0.950 . S
C357 C355 1.387 . S
C357 C359 1.390 . S
C357 H361 0.950 . S
H358 C354 0.950 . S
C359 C357 1.390 . S
C359 C360 1.387 . S
C359 H362 0.950 . S
C360 C359 1.387 . S
C360 C363 1.387 . S
H361 C357 0.950 . S
H362 C359 0.950 . S
C363 C354 1.390 . S
C363 H356 0.950 . S
C363 C360 1.387 . S
C364 C365 1.387 . S
C364 H368 0.950 . S
C364 C373 1.390 . S
C365 C364 1.387 . S
C365 C367 1.387 . S
H366 C373 0.950 . S
C367 C365 1.387 . S
C367 C369 1.390 . S
C367 H371 0.950 . S
H368 C364 0.950 . S
C369 C367 1.390 . S
C369 C370 1.387 . S
C369 H372 0.950 . S
C370 C369 1.387 . S
C370 C373 1.387 . S
H371 C367 0.950 . S
H372 C369 0.950 . S
C373 C364 1.390 . S
C373 H366 0.950 . S
C373 C370 1.387 . S
C374 C375 1.387 . S
C374 H378 0.950 . S
C374 C383 1.390 . S
C375 C374 1.387 . S
C375 C377 1.387 . S
H376 C383 0.950 . S
C377 C375 1.387 . S
C377 C379 1.390 . S
C377 H381 0.950 . S
H378 C374 0.950 . S
C379 C377 1.390 . S
C379 C380 1.387 . S
C379 H382 0.950 . S
C380 C379 1.387 . S
C380 C383 1.387 . S
H381 C377 0.950 . S
H382 C379 0.950 . S
C383 C374 1.390 . S
C383 H376 0.950 . S
C383 C380 1.387 . S
C384 C385 1.387 . S
C384 H388 0.950 . S
C384 C393 1.390 . S
C385 C384 1.387 . S
C385 C387 1.387 . S
H386 C393 0.950 . S
C387 C385 1.387 . S
C387 C389 1.390 . S
C387 H391 0.950 . S
H388 C384 0.950 . S
C389 C387 1.390 . S
C389 C390 1.387 . S
C389 H392 0.950 . S
C390 C389 1.387 . S
C390 C393 1.387 . S
H391 C387 0.950 . S
H392 C389 0.950 . S
C393 C384 1.390 . S
C393 H386 0.950 . S
C393 C390 1.387 . S
C394 C395 1.387 . S
C394 H398 0.950 . S
C394 C403 1.390 . S
C395 C394 1.387 . S
C395 C397 1.387 . S
H396 C403 0.950 . S
C397 C395 1.387 . S
C397 C399 1.390 . S
C397 H401 0.950 . S
H398 C394 0.950 . S
C399 C397 1.390 . S
C399 C400 1.387 . S
C399 H402 0.950 . S
C400 C399 1.387 . S
C400 C403 1.387 . S
H401 C397 0.950 . S
H402 C399 0.950 . S
C403 C394 1.390 . S
C403 H396 0.950 . S
C403 C400 1.387 . S
C404 C405 1.387 . S
C404 H408 0.950 . S
C404 C413 1.390 . S
C405 C404 1.387 . S
C405 C407 1.387 . S
H406 C413 0.950 . S
C407 C405 1.387 . S
C407 C409 1.390 . S
C407 H411 0.950 . S
H408 C404 0.950 . S
C409 C407 1.390 . S
C409 C410 1.387 . S
C409 H412 0.950 . S
C410 C409 1.387 . S
C410 C413 1.387 . S
H411 C407 0.950 . S
H412 C409 0.950 . S
C413 C404 1.390 . S
C413 H406 0.950 . S
C413 C410 1.387 . S
C414 C415 1.387 . S
C414 H418 0.950 . S
C414 C423 1.390 . S
C415 C414 1.387 . S
C415 C417 1.387 . S
H416 C423 0.950 . S
C417 C415 1.387 . S
C417 C419 1.390 . S
C417 H421 0.950 . S
H418 C414 0.950 . S
C419 C417 1.390 . S
C419 C420 1.387 . S
C419 H422 0.950 . S
C420 C419 1.387 . S
C420 C423 1.387 . S
H421 C417 0.950 . S
H422 C419 0.950 . S
C423 C414 1.390 . S
C423 H416 0.950 . S
C423 C420 1.387 . S
C424 C425 1.387 . S
C424 H428 0.950 . S
C424 C433 1.390 . S
C425 C424 1.387 . S
C425 C427 1.387 . S
H426 C433 0.950 . S
C427 C425 1.387 . S
C427 C429 1.390 . S
C427 H431 0.950 . S
H428 C424 0.950 . S
C429 C427 1.390 . S
C429 C430 1.387 . S
C429 H432 0.950 . S
C430 C429 1.387 . S
C430 C433 1.387 . S
H431 C427 0.950 . S
H432 C429 0.950 . S
C433 C424 1.390 . S
C433 H426 0.950 . S
C433 C430 1.387 . S
C434 C435 1.387 . S
C434 H438 0.950 . S
C434 C443 1.390 . S
C435 C434 1.387 . S
C435 C437 1.387 . S
H436 C443 0.950 . S
C437 C435 1.387 . S
C437 C439 1.390 . S
C437 H441 0.950 . S
H438 C434 0.950 . S
C439 C437 1.390 . S
C439 C440 1.387 . S
C439 H442 0.950 . S
C440 C439 1.387 . S
C440 C443 1.387 . S
H441 C437 0.950 . S
H442 C439 0.950 . S
C443 C434 1.390 . S
C443 H436 0.950 . S
C443 C440 1.387 . S
C444 C445 1.387 . S
C444 H448 0.950 . S
C444 C453 1.390 . S
C445 C444 1.387 . S
C445 C447 1.387 . S
H446 C453 0.950 1_556 S
C447 C445 1.387 . S
C447 C449 1.390 . S
C447 H451 0.950 . S
H448 C444 0.950 . S
C449 C447 1.390 . S
C449 C450 1.387 . S
C449 H452 0.950 . S
C450 C449 1.387 . S
C450 C453 1.387 . S
H451 C447 0.950 . S
H452 C449 0.950 . S
C453 C444 1.390 . S
C453 H446 0.950 1_554 S
C453 C450 1.387 . S
C454 C455 1.387 1_556 S
C454 H458 0.950 . S
C454 C463 1.390 1_556 S
C455 C454 1.387 1_554 S
C455 C457 1.387 . S
H456 C463 0.950 . S
C457 C455 1.387 . S
C457 C459 1.390 . S
C457 H461 0.950 . S
H458 C454 0.950 . S
C459 C457 1.390 . S
C459 C460 1.387 . S
C459 H462 0.950 . S
C460 C459 1.387 . S
C460 C463 1.387 . S
H461 C457 0.950 . S
H462 C459 0.950 . S
C463 C454 1.390 1_554 S
C463 H456 0.950 . S
C463 C460 1.387 . S
C464 C465 1.387 . S
C464 H468 0.950 . S
C464 C473 1.390 . S
C465 C464 1.387 . S
C465 C467 1.387 . S
H466 C473 0.950 . S
C467 C465 1.387 . S
C467 C469 1.390 . S
C467 H471 0.950 . S
H468 C464 0.950 . S
C469 C467 1.390 . S
C469 C470 1.387 . S
C469 H472 0.950 . S
C470 C469 1.387 . S
C470 C473 1.387 . S
H471 C467 0.950 . S
H472 C469 0.950 . S
C473 C464 1.390 . S
C473 H466 0.950 . S
C473 C470 1.387 . S
C474 C475 1.412 . S
C474 H478 0.925 1_455 S
C474 C483 1.390 . S
C475 C474 1.412 . S
C475 C477 1.387 . S
H476 C483 0.950 . S
C477 C475 1.387 . S
C477 C479 1.390 . S
C477 H481 0.950 . S
H478 C474 0.925 1_655 S
C479 C477 1.390 . S
C479 C480 1.387 . S
C479 H482 0.950 . S
C480 C479 1.387 . S
C480 C483 1.387 . S
H481 C477 0.950 . S
H482 C479 0.950 . S
C483 C474 1.390 . S
C483 H476 0.950 . S
C483 C480 1.387 . S
C484 C485 1.387 . S
C484 H488 0.950 . S
C484 C493 1.390 . S
C485 C484 1.387 . S
C485 C487 1.387 . S
H486 C493 0.950 . S
C487 C485 1.387 . S
C487 C489 1.390 . S
C487 H491 0.950 . S
H488 C484 0.950 . S
C489 C487 1.390 . S
C489 C490 1.387 . S
C489 H492 0.950 . S
C490 C489 1.387 . S
C490 C493 1.387 . S
H491 C487 0.950 . S
H492 C489 0.950 . S
C493 C484 1.390 . S
C493 H486 0.950 . S
C493 C490 1.387 . S
C494 C495 1.387 . S
C494 H498 0.950 . S
C494 C503 1.390 . S
C495 C494 1.387 . S
C495 C497 1.387 . S
H496 C503 0.950 . S
C497 C495 1.387 . S
C497 C499 1.390 . S
C497 H501 0.950 . S
H498 C494 0.950 . S
C499 C497 1.390 . S
C499 C500 1.387 . S
C499 H502 0.950 . S
C500 C499 1.387 . S
C500 C503 1.387 . S
H501 C497 0.950 . S
H502 C499 0.950 . S
C503 C494 1.390 . S
C503 H496 0.950 . S
C503 C500 1.387 . S
C504 C505 1.387 . S
C504 H508 0.950 1_545 S
C504 C513 1.390 . S
C505 C504 1.387 . S
C505 C507 1.387 1_556 S
H506 C513 0.950 . S
C507 C505 1.387 1_554 S
C507 C509 1.390 1_554 S
C507 H511 0.950 . S
H508 C504 0.950 1_565 S
C509 C507 1.390 1_556 S
C509 C510 1.387 . S
C509 H512 0.950 . S
C510 C509 1.387 . S
C510 C513 1.387 . S
H511 C507 0.950 . S
H512 C509 0.950 . S
C513 C504 1.390 . S
C513 H506 0.950 . S
C513 C510 1.387 . S
C514 C515 1.387 . S
C514 H518 0.950 . S
C514 C523 1.390 . S
C515 C514 1.387 . S
C515 C517 1.387 . S
H516 C523 0.950 . S
C517 C515 1.387 . S
C517 C519 1.390 . S
C517 H521 0.950 . S
H518 C514 0.950 . S
C519 C517 1.390 . S
C519 C520 1.387 . S
C519 H522 0.950 1_556 S
C520 C519 1.387 . S
C520 C523 1.387 . S
H521 C517 0.950 . S
H522 C519 0.950 1_554 S
C523 C514 1.390 . S
C523 H516 0.950 . S
C523 C520 1.387 . S
C524 C525 1.387 . S
C524 H528 0.950 . S
C524 C533 1.390 . S
C525 C524 1.387 . S
C525 C527 1.387 . S
H526 C533 0.950 . S
C527 C525 1.387 . S
C527 C529 1.390 . S
C527 H531 0.950 . S
H528 C524 0.950 . S
C529 C527 1.390 . S
C529 C530 1.387 . S
C529 H532 0.950 . S
C530 C529 1.387 . S
C530 C533 1.387 . S
H531 C527 0.950 . S
H532 C529 0.950 . S
C533 C524 1.390 . S
C533 H526 0.950 . S
C533 C530 1.387 . S
C534 C535 1.387 . S
C534 H538 0.950 . S
C534 C543 1.390 . S
C535 C534 1.387 . S
C535 C537 1.387 . S
H536 C543 0.950 . S
C537 C535 1.387 . S
C537 C539 1.390 . S
C537 H541 0.950 . S
H538 C534 0.950 . S
C539 C537 1.390 . S
C539 C540 1.387 . S
C539 H542 0.950 . S
C540 C539 1.387 . S
C540 C543 1.387 . S
H541 C537 0.950 . S
H542 C539 0.950 . S
C543 C534 1.390 . S
C543 H536 0.950 . S
C543 C540 1.387 . S
C544 C545 1.387 . S
C544 H548 0.950 . S
C544 C553 1.390 . S
C545 C544 1.387 . S
C545 C547 1.387 . S
H546 C553 0.950 . S
C547 C545 1.387 . S
C547 C549 1.390 . S
C547 H551 0.950 . S
H548 C544 0.950 . S
C549 C547 1.390 . S
C549 C550 1.387 . S
C549 H552 0.950 . S
C550 C549 1.387 . S
C550 C553 1.387 . S
H551 C547 0.950 . S
H552 C549 0.950 . S
C553 C544 1.390 . S
C553 H546 0.950 . S
C553 C550 1.387 . S
C554 C555 1.387 . S
C554 H558 0.950 . S
C554 C563 1.390 . S
C555 C554 1.387 . S
C555 C557 1.387 . S
H556 C563 0.950 . S
C557 C555 1.387 . S
C557 C559 1.390 . S
C557 H561 0.950 . S
H558 C554 0.950 . S
C559 C557 1.390 . S
C559 C560 1.387 . S
C559 H562 0.950 . S
C560 C559 1.387 . S
C560 C563 1.387 . S
H561 C557 0.950 . S
H562 C559 0.950 . S
C563 C554 1.390 . S
C563 H556 0.950 . S
C563 C560 1.387 . S
C564 C565 1.387 . S
C564 H568 0.950 . S
C564 C573 1.390 . S
C565 C564 1.387 . S
C565 C567 1.387 . S
H566 C573 0.950 . S
C567 C565 1.387 . S
C567 C569 1.390 . S
C567 H571 0.950 . S
H568 C564 0.950 . S
C569 C567 1.390 . S
C569 C570 1.387 . S
C569 H572 0.950 . S
C570 C569 1.387 . S
C570 C573 1.387 . S
H571 C567 0.950 . S
H572 C569 0.950 . S
C573 C564 1.390 . S
C573 H566 0.950 . S
C573 C570 1.387 . S
C574 C575 1.387 . S
C574 H578 0.950 . S
C574 C583 1.390 . S
C575 C574 1.387 . S
C575 C577 1.387 . S
H576 C583 0.950 . S
C577 C575 1.387 . S
C577 C579 1.390 . S
C577 H581 0.950 . S
H578 C574 0.950 . S
C579 C577 1.390 . S
C579 C580 1.387 . S
C579 H582 0.950 . S
C580 C579 1.387 . S
C580 C583 1.387 . S
H581 C577 0.950 . S
H582 C579 0.950 . S
C583 C574 1.390 . S
C583 H576 0.950 . S
C583 C580 1.387 . S
C584 C585 1.387 . S
C584 H588 0.950 . S
C584 C593 1.390 . S
C585 C584 1.387 . S
C585 C587 1.387 . S
H586 C593 0.950 . S
C587 C585 1.387 . S
C587 C589 1.390 . S
C587 H591 0.950 . S
H588 C584 0.950 . S
C589 C587 1.390 . S
C589 C590 1.387 . S
C589 H592 0.950 . S
C590 C589 1.387 . S
C590 C593 1.387 . S
H591 C587 0.950 . S
H592 C589 0.950 . S
C593 C584 1.390 . S
C593 H586 0.950 . S
C593 C590 1.387 . S
C235 C43 1.420 . S
C240 C10 1.420 . S
C245 C62 1.419 . S
C250 C23 1.419 . S
C255 C36 1.421 . S
C260 C75 1.421 . S
C265 C30 1.421 . S
C270 C69 1.421 . S
C275 C4 1.420 . S
C280 C49 1.420 . S
C285 C56 1.421 . S
C290 C17 1.421 . S
C295 C121 1.419 . S
C300 C82 1.419 . S
C305 C101 1.420 . S
C310 C140 1.420 . S
C315 C114 1.420 . S
C320 C147 1.420 . S
C325 C153 1.420 . S
C330 C108 1.420 . S
C335 C127 1.419 . S
C340 C88 1.419 . S
C345 C134 1.420 . S
C350 C95 1.420 . S
C355 C160 1.421 . S
C360 C205 1.421 . S
C365 C173 1.420 . S
C370 C218 1.420 . S
C375 C186 1.420 . S
C380 C225 1.420 . S
C385 C231 1.420 . S
C390 C192 1.420 . S
C395 C199 1.420 . S
C400 C166 1.420 . S
C405 C212 1.422 . S
C410 C179 1.422 . S
C415 C3 1.395 . S
C420 C96 1.395 . S
C425 C16 1.395 . S
C430 C109 1.396 . S
C435 C81 1.394 . S
C440 C29 1.395 . S
C445 C31 1.395 . S
C450 C174 1.395 1_554 S
C455 C187 1.395 1_554 S
C460 C5 1.394 . S
C465 C161 1.394 1_554 S
C470 C18 1.394 . S
C475 C213 1.395 . S
C480 C44 1.395 . S
C485 C55 1.395 . S
C490 C224 1.394 . S
C495 C200 1.395 . S
C500 C68 1.394 . S
C505 C133 1.395 1_556 S
C510 C70 1.394 . S
C515 C42 1.394 . S
C520 C148 1.394 1_556 S
C525 C57 1.394 . S
C530 C122 1.394 1_556 S
C535 C83 1.394 . S
C540 C172 1.394 . S
C545 C94 1.394 . S
C550 C185 1.395 . S
C555 C107 1.395 . S
C560 C159 1.395 . S
C565 C211 1.394 . S
C570 C146 1.395 . S
C575 C226 1.395 . S
C580 C120 1.394 . S
C585 C135 1.395 . S
C590 C198 1.395 . S
