# Generated by pormake.
# Topology umn, (4)-cn, num edge types: 1
# Building blocks:
#     Node 0, Type 0, BuildingBlock: TATPOV_clean_sbu_0, # of connection points: 4
#     Node 1, Type 0, BuildingBlock: TATPOV_clean_sbu_0, # of connection points: 4
#     Node 2, Type 0, BuildingBlock: TATPOV_clean_sbu_0, # of connection points: 4
#     Node 3, Type 0, BuildingBlock: TATPOV_clean_sbu_0, # of connection points: 4
#     Node 4, Type 0, BuildingBlock: TATPOV_clean_sbu_0, # of connection points: 4
#     Node 5, Type 0, BuildingBlock: TATPOV_clean_sbu_0, # of connection points: 4
#     Node 6, Type 0, BuildingBlock: TATPOV_clean_sbu_0, # of connection points: 4
#     Node 7, Type 0, BuildingBlock: TATPOV_clean_sbu_0, # of connection points: 4
#     Node 8, Type 0, BuildingBlock: TATPOV_clean_sbu_0, # of connection points: 4
#     Node 9, Type 0, BuildingBlock: TATPOV_clean_sbu_0, # of connection points: 4
#     Node 10, Type 0, BuildingBlock: TATPOV_clean_sbu_0, # of connection points: 4
#     Node 11, Type 0, BuildingBlock: TATPOV_clean_sbu_0, # of connection points: 4
#     Node 12, Type 0, BuildingBlock: TATPOV_clean_sbu_0, # of connection points: 4
#     Node 13, Type 0, BuildingBlock: TATPOV_clean_sbu_0, # of connection points: 4
#     Node 14, Type 0, BuildingBlock: TATPOV_clean_sbu_0, # of connection points: 4
#     Node 15, Type 0, BuildingBlock: TATPOV_clean_sbu_0, # of connection points: 4
#     Node 16, Type 0, BuildingBlock: TATPOV_clean_sbu_0, # of connection points: 4
#     Node 17, Type 0, BuildingBlock: TATPOV_clean_sbu_0, # of connection points: 4
#     Node 18, Type 0, BuildingBlock: TATPOV_clean_sbu_0, # of connection points: 4
#     Node 19, Type 0, BuildingBlock: TATPOV_clean_sbu_0, # of connection points: 4
#     Node 20, Type 0, BuildingBlock: TATPOV_clean_sbu_0, # of connection points: 4
#     Node 21, Type 0, BuildingBlock: TATPOV_clean_sbu_0, # of connection points: 4
#     Node 22, Type 0, BuildingBlock: TATPOV_clean_sbu_0, # of connection points: 4
#     Node 23, Type 0, BuildingBlock: TATPOV_clean_sbu_0, # of connection points: 4
#     Node 24, Type 0, BuildingBlock: TATPOV_clean_sbu_0, # of connection points: 4
#     Node 25, Type 0, BuildingBlock: TATPOV_clean_sbu_0, # of connection points: 4
#     Node 26, Type 0, BuildingBlock: TATPOV_clean_sbu_0, # of connection points: 4
#     Node 27, Type 0, BuildingBlock: TATPOV_clean_sbu_0, # of connection points: 4
#     Node 28, Type 0, BuildingBlock: TATPOV_clean_sbu_0, # of connection points: 4
#     Node 29, Type 0, BuildingBlock: TATPOV_clean_sbu_0, # of connection points: 4
#     Node 30, Type 0, BuildingBlock: TATPOV_clean_sbu_0, # of connection points: 4
#     Node 31, Type 0, BuildingBlock: TATPOV_clean_sbu_0, # of connection points: 4
#     Node 32, Type 0, BuildingBlock: TATPOV_clean_sbu_0, # of connection points: 4
#     Node 33, Type 0, BuildingBlock: TATPOV_clean_sbu_0, # of connection points: 4
#     Node 34, Type 0, BuildingBlock: TATPOV_clean_sbu_0, # of connection points: 4
#     Node 35, Type 0, BuildingBlock: TATPOV_clean_sbu_0, # of connection points: 4
#     Edge 36, Type (0, 0), BuildingBlock: XIVTED_clean_linker_0, # of connection points: 2
#     Edge 37, Type (0, 0), BuildingBlock: XIVTED_clean_linker_0, # of connection points: 2
#     Edge 38, Type (0, 0), BuildingBlock: XIVTED_clean_linker_0, # of connection points: 2
#     Edge 39, Type (0, 0), BuildingBlock: XIVTED_clean_linker_0, # of connection points: 2
#     Edge 40, Type (0, 0), BuildingBlock: XIVTED_clean_linker_0, # of connection points: 2
#     Edge 41, Type (0, 0), BuildingBlock: XIVTED_clean_linker_0, # of connection points: 2
#     Edge 42, Type (0, 0), BuildingBlock: XIVTED_clean_linker_0, # of connection points: 2
#     Edge 43, Type (0, 0), BuildingBlock: XIVTED_clean_linker_0, # of connection points: 2
#     Edge 44, Type (0, 0), BuildingBlock: XIVTED_clean_linker_0, # of connection points: 2
#     Edge 45, Type (0, 0), BuildingBlock: XIVTED_clean_linker_0, # of connection points: 2
#     Edge 46, Type (0, 0), BuildingBlock: XIVTED_clean_linker_0, # of connection points: 2
#     Edge 47, Type (0, 0), BuildingBlock: XIVTED_clean_linker_0, # of connection points: 2
#     Edge 48, Type (0, 0), BuildingBlock: XIVTED_clean_linker_0, # of connection points: 2
#     Edge 49, Type (0, 0), BuildingBlock: XIVTED_clean_linker_0, # of connection points: 2
#     Edge 50, Type (0, 0), BuildingBlock: XIVTED_clean_linker_0, # of connection points: 2
#     Edge 51, Type (0, 0), BuildingBlock: XIVTED_clean_linker_0, # of connection points: 2
#     Edge 52, Type (0, 0), BuildingBlock: XIVTED_clean_linker_0, # of connection points: 2
#     Edge 53, Type (0, 0), BuildingBlock: XIVTED_clean_linker_0, # of connection points: 2
#     Edge 54, Type (0, 0), BuildingBlock: XIVTED_clean_linker_0, # of connection points: 2
#     Edge 55, Type (0, 0), BuildingBlock: XIVTED_clean_linker_0, # of connection points: 2
#     Edge 56, Type (0, 0), BuildingBlock: XIVTED_clean_linker_0, # of connection points: 2
#     Edge 57, Type (0, 0), BuildingBlock: XIVTED_clean_linker_0, # of connection points: 2
#     Edge 58, Type (0, 0), BuildingBlock: XIVTED_clean_linker_0, # of connection points: 2
#     Edge 59, Type (0, 0), BuildingBlock: XIVTED_clean_linker_0, # of connection points: 2
#     Edge 60, Type (0, 0), BuildingBlock: XIVTED_clean_linker_0, # of connection points: 2
#     Edge 61, Type (0, 0), BuildingBlock: XIVTED_clean_linker_0, # of connection points: 2
#     Edge 62, Type (0, 0), BuildingBlock: XIVTED_clean_linker_0, # of connection points: 2
#     Edge 63, Type (0, 0), BuildingBlock: XIVTED_clean_linker_0, # of connection points: 2
#     Edge 64, Type (0, 0), BuildingBlock: XIVTED_clean_linker_0, # of connection points: 2
#     Edge 65, Type (0, 0), BuildingBlock: XIVTED_clean_linker_0, # of connection points: 2
#     Edge 66, Type (0, 0), BuildingBlock: XIVTED_clean_linker_0, # of connection points: 2
#     Edge 67, Type (0, 0), BuildingBlock: XIVTED_clean_linker_0, # of connection points: 2
#     Edge 68, Type (0, 0), BuildingBlock: XIVTED_clean_linker_0, # of connection points: 2
#     Edge 69, Type (0, 0), BuildingBlock: XIVTED_clean_linker_0, # of connection points: 2
#     Edge 70, Type (0, 0), BuildingBlock: XIVTED_clean_linker_0, # of connection points: 2
#     Edge 71, Type (0, 0), BuildingBlock: XIVTED_clean_linker_0, # of connection points: 2
#     Edge 72, Type (0, 0), BuildingBlock: XIVTED_clean_linker_0, # of connection points: 2
#     Edge 73, Type (0, 0), BuildingBlock: XIVTED_clean_linker_0, # of connection points: 2
#     Edge 74, Type (0, 0), BuildingBlock: XIVTED_clean_linker_0, # of connection points: 2
#     Edge 75, Type (0, 0), BuildingBlock: XIVTED_clean_linker_0, # of connection points: 2
#     Edge 76, Type (0, 0), BuildingBlock: XIVTED_clean_linker_0, # of connection points: 2
#     Edge 77, Type (0, 0), BuildingBlock: XIVTED_clean_linker_0, # of connection points: 2
#     Edge 78, Type (0, 0), BuildingBlock: XIVTED_clean_linker_0, # of connection points: 2
#     Edge 79, Type (0, 0), BuildingBlock: XIVTED_clean_linker_0, # of connection points: 2
#     Edge 80, Type (0, 0), BuildingBlock: XIVTED_clean_linker_0, # of connection points: 2
#     Edge 81, Type (0, 0), BuildingBlock: XIVTED_clean_linker_0, # of connection points: 2
#     Edge 82, Type (0, 0), BuildingBlock: XIVTED_clean_linker_0, # of connection points: 2
#     Edge 83, Type (0, 0), BuildingBlock: XIVTED_clean_linker_0, # of connection points: 2
#     Edge 84, Type (0, 0), BuildingBlock: XIVTED_clean_linker_0, # of connection points: 2
#     Edge 85, Type (0, 0), BuildingBlock: XIVTED_clean_linker_0, # of connection points: 2
#     Edge 86, Type (0, 0), BuildingBlock: XIVTED_clean_linker_0, # of connection points: 2
#     Edge 87, Type (0, 0), BuildingBlock: XIVTED_clean_linker_0, # of connection points: 2
#     Edge 88, Type (0, 0), BuildingBlock: XIVTED_clean_linker_0, # of connection points: 2
#     Edge 89, Type (0, 0), BuildingBlock: XIVTED_clean_linker_0, # of connection points: 2
#     Edge 90, Type (0, 0), BuildingBlock: XIVTED_clean_linker_0, # of connection points: 2
#     Edge 91, Type (0, 0), BuildingBlock: XIVTED_clean_linker_0, # of connection points: 2
#     Edge 92, Type (0, 0), BuildingBlock: XIVTED_clean_linker_0, # of connection points: 2
#     Edge 93, Type (0, 0), BuildingBlock: XIVTED_clean_linker_0, # of connection points: 2
#     Edge 94, Type (0, 0), BuildingBlock: XIVTED_clean_linker_0, # of connection points: 2
#     Edge 95, Type (0, 0), BuildingBlock: XIVTED_clean_linker_0, # of connection points: 2
#     Edge 96, Type (0, 0), BuildingBlock: XIVTED_clean_linker_0, # of connection points: 2
#     Edge 97, Type (0, 0), BuildingBlock: XIVTED_clean_linker_0, # of connection points: 2
#     Edge 98, Type (0, 0), BuildingBlock: XIVTED_clean_linker_0, # of connection points: 2
#     Edge 99, Type (0, 0), BuildingBlock: XIVTED_clean_linker_0, # of connection points: 2
#     Edge 100, Type (0, 0), BuildingBlock: XIVTED_clean_linker_0, # of connection points: 2
#     Edge 101, Type (0, 0), BuildingBlock: XIVTED_clean_linker_0, # of connection points: 2
#     Edge 102, Type (0, 0), BuildingBlock: XIVTED_clean_linker_0, # of connection points: 2
#     Edge 103, Type (0, 0), BuildingBlock: XIVTED_clean_linker_0, # of connection points: 2
#     Edge 104, Type (0, 0), BuildingBlock: XIVTED_clean_linker_0, # of connection points: 2
#     Edge 105, Type (0, 0), BuildingBlock: XIVTED_clean_linker_0, # of connection points: 2
#     Edge 106, Type (0, 0), BuildingBlock: XIVTED_clean_linker_0, # of connection points: 2
#     Edge 107, Type (0, 0), BuildingBlock: XIVTED_clean_linker_0, # of connection points: 2
# Relax obj value: 0.244
# Max RMSD: 0.289
# Mean RMSD: 0.289
data_MOF--net-umn--node1-TATPOV_clean_sbu_0--edge1-XIVTED_clean_linker_0
_symmetry_space_group_name_H-M    P1
_symmetry_Int_Tables_number       1
_symmetry_cell_setting            triclinic
loop_
_symmetry_equiv_pos_as_xyz
'x, y, z'
_cell_length_a     83.638671
_cell_length_b     83.614844
_cell_length_c     36.212705
_cell_angle_alpha  89.991499
_cell_angle_beta   90.00655
_cell_angle_gamma 119.93193
loop_
_atom_site_label
_atom_site_type_symbol
_atom_site_fract_x
_atom_site_fract_y
_atom_site_fract_z
_atom_type_partial_charge
Zn0 Zn 0.37663 0.10335 0.30203 0.0
Zn1 Zn 0.35356 0.10672 0.25801 0.0
O2 O 0.37726 0.11545 0.22687 0.0
O3 O 0.39701 0.11294 0.26293 0.0
O4 O 0.33836 0.11563 0.23144 0.0
O5 O 0.37443 0.11739 0.346 0.0
O6 O 0.35175 0.11452 0.31115 0.0
C7 C 0.3929 0.11654 0.23149 0.0
C8 C 0.34266 0.06894 0.27893 0.0
O9 O 0.33926 0.07893 0.25748 0.0
O10 O 0.35673 0.07612 0.29982 0.0
C11 C 0.34181 0.1237 0.20031 0.0
O12 O 0.3559 0.1256 0.18083 0.0
C13 C 0.35984 0.11831 0.34237 0.0
Zn14 Zn 0.89792 0.28153 0.28345 0.0
Zn15 Zn 0.89474 0.25507 0.23823 0.0
O16 O 0.88569 0.2699 0.20823 0.0
O17 O 0.88849 0.29239 0.24387 0.0
O18 O 0.88718 0.233 0.20595 0.0
O19 O 0.88253 0.26336 0.32417 0.0
O20 O 0.88451 0.24312 0.28885 0.0
C21 C 0.88451 0.28438 0.21274 0.0
C22 C 0.93251 0.28223 0.26212 0.0
O23 O 0.92253 0.26886 0.24068 0.0
O24 O 0.92533 0.28922 0.28278 0.0
C25 C 0.88867 0.2193 0.21634 0.0
O26 O 0.89687 0.22022 0.24786 0.0
C27 C 0.88031 0.24734 0.31972 0.0
Zn28 Zn 0.69842 0.60092 0.27448 0.0
Zn29 Zn 0.72609 0.62429 0.23232 0.0
O30 O 0.71007 0.60196 0.19919 0.0
O31 O 0.68679 0.58192 0.23269 0.0
O32 O 0.74964 0.6375 0.20359 0.0
O33 O 0.71468 0.60072 0.31652 0.0
O34 O 0.73591 0.62344 0.28382 0.0
C35 C 0.69499 0.5867 0.2018 0.0
C36 C 0.70111 0.63715 0.25712 0.0
O37 O 0.71449 0.64038 0.23578 0.0
O38 O 0.69307 0.62232 0.27578 0.0
C39 C 0.76382 0.65132 0.21711 0.0
O40 O 0.76227 0.65853 0.2482 0.0
C41 C 0.73096 0.61426 0.31377 0.0
Zn42 Zn 0.10374 0.3836 0.24037 0.0
Zn43 Zn 0.10742 0.36054 0.2847 0.0
O44 O 0.11606 0.38424 0.31515 0.0
O45 O 0.11285 0.40382 0.2799 0.0
O46 O 0.11596 0.34628 0.31551 0.0
O47 O 0.11885 0.38141 0.19836 0.0
O48 O 0.11679 0.35894 0.23294 0.0
C49 C 0.11686 0.39976 0.31097 0.0
C50 C 0.06946 0.34949 0.26234 0.0
O51 O 0.07958 0.34618 0.28362 0.0
O52 O 0.07649 0.36362 0.24159 0.0
C53 C 0.11392 0.33095 0.30448 0.0
O54 O 0.10473 0.32366 0.27383 0.0
C55 C 0.12076 0.36738 0.2021 0.0
Zn56 Zn 0.59639 0.70241 0.23409 0.0
Zn57 Zn 0.61796 0.72894 0.2803 0.0
O58 O 0.59349 0.71377 0.30797 0.0
O59 O 0.57492 0.69125 0.27115 0.0
O60 O 0.63054 0.75262 0.30855 0.0
O61 O 0.59979 0.71952 0.19054 0.0
O62 O 0.62121 0.73911 0.22785 0.0
C63 C 0.57806 0.69923 0.30226 0.0
C64 C 0.63057 0.70315 0.26203 0.0
O65 O 0.63301 0.71625 0.28347 0.0
O66 O 0.61702 0.69607 0.23975 0.0
C67 C 0.62184 0.76147 0.30702 0.0
O68 O 0.60578 0.75386 0.29021 0.0
C69 C 0.61401 0.73513 0.19586 0.0
Zn70 Zn 0.29443 0.90339 0.26752 0.0
Zn71 Zn 0.26653 0.89543 0.31213 0.0
O72 O 0.28424 0.89042 0.34328 0.0
O73 O 0.30796 0.89721 0.30739 0.0
O74 O 0.24281 0.88338 0.34048 0.0
O75 O 0.27887 0.88694 0.22484 0.0
O76 O 0.25696 0.88567 0.25993 0.0
C77 C 0.30022 0.89233 0.33872 0.0
C78 C 0.28801 0.93409 0.28931 0.0
O79 O 0.27569 0.92271 0.31121 0.0
O80 O 0.29692 0.92902 0.26856 0.0
C81 C 0.2295 0.88515 0.3285 0.0
O82 O 0.2324 0.89635 0.30063 0.0
C83 C 0.2622 0.88284 0.22885 0.0
Zn84 Zn 0.6086 0.89947 0.73685 0.0
Zn85 Zn 0.63412 0.90041 0.7827 0.0
O86 O 0.61238 0.89636 0.81523 0.0
O87 O 0.59065 0.89507 0.77909 0.0
O88 O 0.64857 0.89309 0.81588 0.0
O89 O 0.60818 0.87974 0.70287 0.0
O90 O 0.63156 0.88471 0.73779 0.0
C91 C 0.59656 0.89487 0.81121 0.0
C92 C 0.64482 0.9349 0.74282 0.0
O93 O 0.6495 0.92724 0.7677 0.0
O94 O 0.62916 0.92601 0.72719 0.0
C95 C 0.66173 0.8915 0.80238 0.0
O96 O 0.66813 0.89852 0.7696 0.0
C97 C 0.62177 0.87741 0.70925 0.0
Zn98 Zn 0.08289 0.69488 0.73681 0.0
Zn99 Zn 0.09345 0.72483 0.7736 0.0
O100 O 0.09796 0.70738 0.80781 0.0
O101 O 0.08982 0.68209 0.77616 0.0
O102 O 0.10742 0.74957 0.79804 0.0
O103 O 0.09669 0.70657 0.68953 0.0
O104 O 0.10086 0.7313 0.7188 0.0
C105 C 0.09565 0.69111 0.80596 0.0
C106 C 0.0542 0.70453 0.75608 0.0
O107 O 0.06659 0.71784 0.77474 0.0
O108 O 0.05792 0.69352 0.73903 0.0
C109 C 0.12481 0.7586 0.79371 0.0
O110 O 0.1328 0.75116 0.77465 0.0
C111 C 0.10134 0.7235 0.68893 0.0
Zn112 Zn 0.28696 0.34043 0.78381 0.0
Zn113 Zn 0.2579 0.34251 0.79016 0.0
O114 O 0.27827 0.36372 0.82257 0.0
O115 O 0.3041 0.36453 0.80771 0.0
O116 O 0.23587 0.34549 0.79977 0.0
O117 O 0.28305 0.33757 0.72871 0.0
O118 O 0.26005 0.34308 0.7334 0.0
C119 C 0.29578 0.37124 0.82536 0.0
C120 C 0.25815 0.3074 0.81229 0.0
O121 O 0.24924 0.31557 0.80387 0.0
O122 O 0.27562 0.31648 0.81257 0.0
C123 C 0.22157 0.33812 0.77946 0.0
O124 O 0.22092 0.32794 0.75123 0.0
C125 C 0.27016 0.33903 0.71367 0.0
Zn126 Zn 0.90198 0.60826 0.77047 0.0
Zn127 Zn 0.88688 0.62067 0.72644 0.0
O128 O 0.88737 0.59912 0.69868 0.0
O129 O 0.89985 0.58789 0.73638 0.0
O130 O 0.86697 0.62344 0.70128 0.0
O131 O 0.88781 0.60535 0.81794 0.0
O132 O 0.88144 0.62238 0.78174 0.0
C133 C 0.89318 0.58788 0.70494 0.0
C134 C 0.92466 0.64679 0.73976 0.0
O135 O 0.9114 0.64366 0.7182 0.0
O136 O 0.92329 0.6346 0.76249 0.0
C137 C 0.86351 0.63564 0.71346 0.0
O138 O 0.87423 0.64708 0.7391 0.0
C139 C 0.88183 0.6165 0.81401 0.0
Zn140 Zn 0.33549 0.2892 0.71234 0.0
Zn141 Zn 0.33816 0.2604 0.70584 0.0
O142 O 0.35927 0.28053 0.67308 0.0
O143 O 0.36019 0.30617 0.69019 0.0
O144 O 0.34017 0.23767 0.6981 0.0
O145 O 0.33142 0.2841 0.76702 0.0
O146 O 0.33967 0.26305 0.76228 0.0
C147 C 0.36692 0.2981 0.67174 0.0
C148 C 0.30288 0.26071 0.68426 0.0
O149 O 0.31114 0.25202 0.69356 0.0
O150 O 0.31206 0.27815 0.68192 0.0
C151 C 0.33056 0.2238 0.71869 0.0
O152 O 0.31945 0.22472 0.74318 0.0
C153 C 0.33409 0.27193 0.78193 0.0
Zn154 Zn 0.69 0.09065 0.77203 0.0
Zn155 Zn 0.72353 0.10717 0.74866 0.0
O156 O 0.70809 0.11648 0.72017 0.0
O157 O 0.68127 0.10637 0.7471 0.0
O158 O 0.74922 0.12507 0.73092 0.0
O159 O 0.6973 0.09257 0.82558 0.0
O160 O 0.72587 0.10653 0.80551 0.0
C161 C 0.69246 0.11569 0.72173 0.0
C162 C 0.70111 0.06781 0.72936 0.0
O163 O 0.71728 0.0818 0.72984 0.0
O164 O 0.68765 0.06864 0.7434 0.0
C165 C 0.764 0.12914 0.7482 0.0
O166 O 0.7631 0.12074 0.77943 0.0
C167 C 0.71438 0.09961 0.83203 0.0
Zn168 Zn 0.05242 0.4094 0.59166 0.0
Zn169 Zn 0.04284 0.43198 0.57018 0.0
O170 O 0.06581 0.43549 0.53962 0.0
O171 O 0.07719 0.42004 0.56731 0.0
O172 O 0.04079 0.45416 0.55573 0.0
O173 O 0.04817 0.41095 0.64592 0.0
O174 O 0.03949 0.43043 0.62747 0.0
C175 C 0.07798 0.43052 0.54132 0.0
C176 C 0.0179 0.3937 0.54908 0.0
O177 O 0.01978 0.40973 0.5505 0.0
O178 O 0.03014 0.39065 0.56246 0.0
C179 C 0.03039 0.45862 0.5731 0.0
O180 O 0.02042 0.44831 0.60079 0.0
C181 C 0.04119 0.42097 0.65324 0.0
Zn182 Zn 0.56243 0.6269 0.5841 0.0
Zn183 Zn 0.54231 0.59478 0.55897 0.0
O184 O 0.53819 0.61399 0.52954 0.0
O185 O 0.55072 0.64017 0.55979 0.0
O186 O 0.52116 0.57056 0.54138 0.0
O187 O 0.5604 0.61968 0.63782 0.0
O188 O 0.54278 0.5918 0.61592 0.0
C189 C 0.54164 0.63065 0.53226 0.0
C190 C 0.58133 0.6112 0.54111 0.0
O191 O 0.56592 0.59623 0.54076 0.0
O192 O 0.5827 0.62568 0.55544 0.0
C193 C 0.51421 0.55578 0.56027 0.0
O194 O 0.52146 0.55573 0.59241 0.0
C195 C 0.55119 0.60242 0.64305 0.0
Zn196 Zn 0.37851 0.95717 0.62558 0.0
Zn197 Zn 0.40957 0.97171 0.59306 0.0
O198 O 0.39123 0.94829 0.56275 0.0
O199 O 0.36552 0.93406 0.59456 0.0
O200 O 0.43468 0.97816 0.57462 0.0
O201 O 0.38735 0.95904 0.67811 0.0
O202 O 0.41396 0.9746 0.64985 0.0
C203 C 0.37465 0.935 0.56594 0.0
C204 C 0.39103 0.99309 0.58811 0.0
O205 O 0.40539 0.99266 0.57835 0.0
O206 O 0.37848 0.9801 0.60692 0.0
C207 C 0.44159 0.98661 0.54456 0.0
O208 O 0.43177 0.9911 0.5231 0.0
C209 C 0.40466 0.96961 0.67973 0.0
Zn210 Zn 0.74636 0.69825 0.57331 0.0
Zn211 Zn 0.74523 0.67252 0.61693 0.0
O212 O 0.75032 0.69449 0.65086 0.0
O213 O 0.75214 0.71665 0.61548 0.0
O214 O 0.75278 0.65777 0.64861 0.0
O215 O 0.76462 0.69823 0.5359 0.0
O216 O 0.75912 0.67413 0.56906 0.0
C217 C 0.75243 0.7106 0.64743 0.0
C218 C 0.71064 0.66227 0.5794 0.0
O219 O 0.71814 0.65732 0.60409 0.0
O220 O 0.71965 0.67805 0.56429 0.0
C221 C 0.75389 0.64434 0.63505 0.0
O222 O 0.74691 0.63815 0.60216 0.0
C223 C 0.76584 0.68384 0.54012 0.0
Zn224 Zn 0.27671 0.03965 0.60236 0.0
Zn225 Zn 0.29775 0.06649 0.64732 0.0
O226 O 0.27619 0.04734 0.67982 0.0
O227 O 0.258 0.02478 0.64266 0.0
O228 O 0.30914 0.08963 0.67762 0.0
O229 O 0.27407 0.05545 0.5625 0.0
O230 O 0.29571 0.07677 0.59693 0.0
C231 C 0.26189 0.03155 0.67492 0.0
C232 C 0.31522 0.04711 0.61534 0.0
O233 O 0.31684 0.05885 0.63959 0.0
O234 O 0.30023 0.03801 0.59752 0.0
C235 C 0.32335 0.10382 0.66522 0.0
O236 O 0.33143 0.10223 0.63545 0.0
C237 C 0.28676 0.07205 0.5667 0.0
Zn238 Zn 0.94773 0.23259 0.57724 0.0
Zn239 Zn 0.92296 0.23171 0.62192 0.0
O240 O 0.94182 0.22908 0.65505 0.0
O241 O 0.96277 0.22945 0.61801 0.0
O242 O 0.90077 0.22295 0.65478 0.0
O243 O 0.93046 0.21303 0.54092 0.0
O244 O 0.91105 0.21742 0.57389 0.0
C245 C 0.9568 0.2288 0.65045 0.0
C246 C 0.94391 0.26633 0.58229 0.0
O247 O 0.9325 0.25851 0.60859 0.0
O248 O 0.95141 0.25818 0.56646 0.0
C249 C 0.88612 0.22202 0.64234 0.0
O250 O 0.8864 0.22875 0.60941 0.0
C251 C 0.9145 0.21099 0.54499 0.0
Zn252 Zn 0.24743 0.22974 0.06658 0.0
Zn253 Zn 0.26812 0.21701 0.09336 0.0
O254 O 0.24448 0.20552 0.12536 0.0
O255 O 0.22686 0.21583 0.10331 0.0
O256 O 0.28107 0.20322 0.10835 0.0
O257 O 0.24757 0.22145 0.01445 0.0
O258 O 0.26839 0.21539 0.03661 0.0
C259 C 0.22972 0.20643 0.12705 0.0
C260 C 0.28359 0.25738 0.09747 0.0
O261 O 0.28533 0.24374 0.10746 0.0
O262 O 0.26933 0.25483 0.08007 0.0
C263 C 0.28057 0.19748 0.14103 0.0
O264 O 0.27174 0.20109 0.16675 0.0
C265 C 0.26009 0.21739 1.00905 0.0
Zn266 Zn 0.72783 0.03394 0.12571 0.0
Zn267 Zn 0.7583 0.06365 0.1337 0.0
O268 O 0.75869 0.04412 0.16947 0.0
O269 O 0.73506 0.01761 0.15272 0.0
O270 O 0.78278 0.08623 0.14338 0.0
O271 O 0.72971 0.03752 0.07041 0.0
O272 O 0.7578 0.06092 0.07708 0.0
C273 C 0.74919 0.02658 0.17268 0.0
C274 C 0.72246 0.06272 0.15196 0.0
O275 O 0.73959 0.07201 0.1445 0.0
O276 O 0.71442 0.04525 0.15202 0.0
C277 C 0.78863 0.10025 0.12247 0.0
O278 O 0.77843 0.0998 0.09446 0.0
C279 C 0.74418 0.05066 0.05631 0.0
Zn280 Zn 0.95273 0.71641 0.06824 0.0
Zn281 Zn 0.92546 0.69788 0.11378 0.0
O282 O 0.94307 0.72246 0.13977 0.0
O283 O 0.9661 0.73885 0.10214 0.0
O284 O 0.90178 0.68869 0.1418 0.0
O285 O 0.93749 0.71395 0.02229 0.0
O286 O 0.91645 0.69399 0.05977 0.0
C287 C 0.95848 0.73694 0.13334 0.0
C288 C 0.94798 0.68122 0.10108 0.0
O289 O 0.93519 0.68046 0.12134 0.0
O290 O 0.95629 0.69422 0.07789 0.0
C291 C 0.88728 0.67434 0.13094 0.0
O292 O 0.88848 0.66454 0.10387 0.0
C293 C 0.92141 0.70039 0.02729 0.0
Zn294 Zn 0.60455 0.9828 0.0752 0.0
Zn295 Zn 0.57954 0.98994 0.0563 0.0
O296 O 0.57564 0.96736 0.02418 0.0
O297 O 0.59374 0.95844 0.04955 0.0
O298 O 0.55902 0.9942 0.04027 0.0
O299 O 0.60013 0.98564 0.12894 0.0
O300 O 0.57611 0.98798 0.1127 0.0
C301 C 0.58165 0.95601 0.02581 0.0
C302 C 0.61975 0.01863 0.04472 0.0
O303 O 0.60301 0.01473 0.04715 0.0
O304 O 0.62386 0.00614 0.05001 0.0
C305 C 0.55735 0.00682 0.05629 0.0
O306 O 0.56941 0.01691 0.08171 0.0
C307 C 0.58687 0.98811 0.13773 0.0
Zn308 Zn 0.04877 0.61257 0.11028 0.0
Zn309 Zn 0.02555 0.58624 0.06566 0.0
O310 O 0.04791 0.60334 0.03314 0.0
O311 O 0.06795 0.62531 0.06919 0.0
O312 O 0.01152 0.56392 0.03364 0.0
O313 O 0.04854 0.59505 0.14984 0.0
O314 O 0.02624 0.5745 0.11526 0.0
C315 C 0.06321 0.61826 0.03726 0.0
C316 C 0.01278 0.61054 0.09598 0.0
O317 O 0.00959 0.59773 0.0731 0.0
O318 O 0.0277 0.61827 0.11435 0.0
C319 C -0.00318 0.54998 0.04516 0.0
O320 O 0.98997 0.55092 0.07722 0.0
C321 C 0.03521 0.57877 0.1455 0.0
Zn322 Zn 0.37376 0.42609 0.115 0.0
Zn323 Zn 0.39877 0.42635 0.068 0.0
O324 O 0.38294 0.43311 0.03612 0.0
O325 O 0.36107 0.43153 0.07224 0.0
O326 O 0.4197 0.43152 0.03401 0.0
O327 O 0.39372 0.44531 0.14872 0.0
O328 O 0.4127 0.44139 0.11316 0.0
C329 C 0.36825 0.43388 0.04044 0.0
C330 C 0.37275 0.39055 0.10406 0.0
O331 O 0.38508 0.39899 0.07955 0.0
O332 O 0.36663 0.3991 0.1231 0.0
C333 C 0.43398 0.43148 0.04584 0.0
O334 O 0.43394 0.42563 0.07954 0.0
C335 C 0.40981 0.44812 0.14218 0.0
Zn336 Zn 0.7015 0.74844 0.94195 0.0
Zn337 Zn 0.68461 0.75932 0.89682 0.0
O338 O 0.70571 0.7596 0.86635 0.0
O339 O 0.72057 0.75085 0.90372 0.0
O340 O 0.67825 0.7761 0.8687 0.0
O341 O 0.70548 0.76565 0.98514 0.0
O342 O 0.68622 0.76903 0.94966 0.0
C343 C 0.7184 0.75563 0.87173 0.0
C344 C 0.66194 0.72177 0.92166 0.0
O345 O 0.6627 0.73344 0.8981 0.0
O346 O 0.67586 0.72538 0.94157 0.0
C347 C 0.66608 0.77933 0.88192 0.0
O348 O 0.65624 0.76961 0.91029 0.0
C349 C 0.69398 0.77117 0.98093 0.0
Zn350 Zn 0.23434 0.94488 0.96801 0.0
Zn351 Zn 0.22943 0.91898 0.92268 0.0
O352 O 0.22405 0.93694 0.89266 0.0
O353 O 0.22747 0.95882 0.93077 0.0
O354 O 0.21781 0.89572 0.89273 0.0
O355 O 0.21891 0.92889 0.01094 0.0
O356 O 0.22074 0.90875 0.97524 0.0
C357 C 0.22427 0.95209 0.89846 0.0
C358 C 0.26719 0.9416 0.94657 0.0
O359 O 0.25687 0.92919 0.92363 0.0
O360 O 0.26071 0.94934 0.96705 0.0
C361 C 0.20029 0.88699 0.89364 0.0
O362 O 0.19182 0.89419 0.91192 0.0
C363 C 0.21708 0.91303 1.00662 0.0
Zn364 Zn 0.04791 0.28416 0.94475 0.0
Zn365 Zn 0.07218 0.30768 0.89898 0.0
O366 O 0.0531 0.28574 0.86719 0.0
O367 O 0.03251 0.26542 0.90507 0.0
O368 O 0.0938 0.32047 0.86472 0.0
O369 O 0.06576 0.28248 0.98065 0.0
O370 O 0.08472 0.30613 0.94686 0.0
C371 C 0.03824 0.27047 0.87241 0.0
C372 C 0.05139 0.32158 0.93805 0.0
O373 O 0.06266 0.32497 0.91158 0.0
O374 O 0.0441 0.30611 0.95453 0.0
C375 C 0.10881 0.33432 0.8753 0.0
O376 O 0.10939 0.34169 0.90767 0.0
C377 C 0.08159 0.29649 0.97602 0.0
Zn378 Zn 0.4228 0.06505 0.93449 0.0
Zn379 Zn 0.43646 0.04957 0.97468 0.0
O380 O 0.43851 0.07135 1.00633 0.0
O381 O 0.42714 0.08492 0.97195 0.0
O382 O 0.45323 0.04216 0.99945 0.0
O383 O 0.43713 0.06824 0.88746 0.0
O384 O 0.44323 0.04971 0.91946 0.0
C385 C 0.43389 0.08369 1.00243 0.0
C386 C 0.39767 0.02631 0.95853 0.0
O387 O 0.41071 0.02784 0.979 0.0
O388 O 0.39981 0.03963 0.93829 0.0
C389 C 0.45337 0.02798 0.98725 0.0
O390 O 0.44184 0.01826 0.96079 0.0
C391 C 0.44299 0.0569 0.88859 0.0
Zn392 Zn 0.94297 0.35547 0.92911 0.0
Zn393 Zn 0.9521 0.38759 0.94967 0.0
O394 O 0.92939 0.36822 0.98073 0.0
O395 O 0.91812 0.34138 0.9532 0.0
O396 O 0.95427 0.41187 0.9635 0.0
O397 O 0.94751 0.36114 0.87482 0.0
O398 O 0.95531 0.38919 0.89241 0.0
C399 C 0.91732 0.35106 0.97921 0.0
C400 C 0.9773 0.37473 0.97192 0.0
O401 O 0.97528 0.38877 0.96951 0.0
O402 O 0.96517 0.35928 0.95905 0.0
C403 C 0.96608 0.42664 0.9476 0.0
O404 O 0.97687 0.42582 0.92222 0.0
C405 C 0.95404 0.37803 0.86704 0.0
Zn406 Zn 0.62141 0.57409 0.90283 0.0
Zn407 Zn 0.59058 0.55482 0.93499 0.0
O408 O 0.61042 0.55293 0.96679 0.0
O409 O 0.63688 0.56865 0.93802 0.0
O410 O 0.56668 0.53369 0.95351 0.0
O411 O 0.61449 0.5644 0.851 0.0
O412 O 0.58751 0.55316 0.87773 0.0
C413 C 0.62778 0.55906 0.96548 0.0
C414 C 0.60251 0.59358 0.93342 0.0
O415 O 0.59068 0.57839 0.94799 0.0
O416 O 0.61571 0.59462 0.91429 0.0
C417 C 0.5516 0.52849 0.93646 0.0
O418 O 0.55148 0.53762 0.90704 0.0
C419 C 0.59715 0.55717 0.84832 0.0
Zn420 Zn 0.95069 0.55925 0.4091 0.0
Zn421 Zn 0.97709 0.56158 0.45126 0.0
O422 O 0.9549 0.55561 0.4856 0.0
O423 O 0.932 0.55245 0.45092 0.0
O424 O 0.9928 0.55536 0.4834 0.0
O425 O 0.95161 0.5418 0.37088 0.0
O426 O 0.97644 0.5484 0.40265 0.0
C427 C 0.93846 0.55268 0.48269 0.0
C428 C 0.98534 0.59601 0.41524 0.0
O429 O 0.99108 0.58877 0.43894 0.0
O430 O 0.96955 0.58647 0.40049 0.0
C431 C 0.00711 0.55555 0.47109 0.0
O432 O 0.01308 0.5621 0.43784 0.0
C433 C 0.96658 0.54154 0.37388 0.0
Zn434 Zn 0.42504 0.38046 0.38498 0.0
Zn435 Zn 0.41955 0.40335 0.42871 0.0
O436 O 0.4259 0.38798 0.46316 0.0
O437 O 0.43105 0.3692 0.4293 0.0
O438 O 0.42139 0.42322 0.46235 0.0
O439 O 0.44389 0.40166 0.35295 0.0
O440 O 0.43631 0.41866 0.38656 0.0
C441 C 0.42972 0.37506 0.46077 0.0
C442 C 0.38714 0.37546 0.38654 0.0
O443 O 0.39327 0.38843 0.41026 0.0
O444 O 0.39773 0.37024 0.37266 0.0
C445 C 0.42114 0.4372 0.44929 0.0
O446 O 0.41686 0.43715 0.41436 0.0
C447 C 0.44486 0.41705 0.35911 0.0
Zn448 Zn 0.64181 0.07549 0.41606 0.0
Zn449 Zn 0.60916 0.05645 0.44608 0.0
O450 O 0.62338 0.07931 0.47968 0.0
O451 O 0.65079 0.09569 0.45457 0.0
O452 O 0.58286 0.04537 0.4624 0.0
O453 O 0.63272 0.07684 0.36523 0.0
O454 O 0.6061 0.0571 0.38976 0.0
C455 C 0.63961 0.09331 0.48041 0.0
C456 C 0.63158 0.03824 0.44384 0.0
O457 O 0.61703 0.03751 0.45643 0.0
O458 O 0.64339 0.05231 0.42614 0.0
C459 C 0.57538 0.03442 0.48937 0.0
O460 O 0.58533 0.02975 0.50995 0.0
C461 C 0.61576 0.06518 0.36138 0.0
Zn462 Zn 0.23394 0.24951 0.424 0.0
Zn463 Zn 0.21629 0.2662 0.40205 0.0
O464 O 0.20652 0.2418 0.37278 0.0
O465 O 0.21819 0.22573 0.3966 0.0
O466 O 0.19892 0.2749 0.38596 0.0
O467 O 0.23105 0.25388 0.47784 0.0
O468 O 0.21651 0.26815 0.45884 0.0
C469 C 0.20795 0.22731 0.37289 0.0
C470 C 0.25614 0.28415 0.38327 0.0
O471 O 0.24161 0.28543 0.38342 0.0
O472 O 0.25597 0.27011 0.39708 0.0
C473 C 0.19801 0.28798 0.40181 0.0
O474 O 0.20917 0.29669 0.42946 0.0
C475 C 0.22344 0.26337 0.48498 0.0
Zn476 Zn 0.71202 0.95007 0.4691 0.0
Zn477 Zn 0.68834 0.92468 0.42157 0.0
O478 O 0.71153 0.94056 0.39132 0.0
O479 O 0.73153 0.96215 0.4282 0.0
O480 O 0.67422 0.90212 0.39032 0.0
O481 O 0.71038 0.93098 0.50675 0.0
O482 O 0.68816 0.91225 0.46983 0.0
C483 C 0.72713 0.95496 0.39632 0.0
C484 C 0.67723 0.95045 0.45149 0.0
O485 O 0.67377 0.93783 0.42789 0.0
O486 O 0.69157 0.95685 0.47162 0.0
C487 C 0.68325 0.89368 0.38662 0.0
O488 O 0.70007 0.90131 0.40009 0.0
C489 C 0.69678 0.91511 0.50017 0.0
Zn490 Zn 0.02967 0.75099 0.41904 0.0
Zn491 Zn 0.06187 0.76771 0.39095 0.0
O492 O 0.04451 0.77383 0.35986 0.0
O493 O 0.01896 0.76443 0.39134 0.0
O494 O 0.08732 0.78594 0.37325 0.0
O495 O 0.03809 0.75488 0.47243 0.0
O496 O 0.06564 0.76967 0.44767 0.0
C497 C 0.0285 0.7721 0.36283 0.0
C498 C 0.04138 0.72783 0.37914 0.0
O499 O 0.05713 0.74228 0.37658 0.0
O500 O 0.02793 0.72846 0.39379 0.0
C501 C 0.10102 0.78592 0.38841 0.0
O502 O 0.09801 0.77318 0.41305 0.0
C503 C 0.05545 0.76329 0.47615 0.0
H504 H 0.28402 0.95444 0.34385 0.0
H505 H 0.32299 0.04595 0.22211 0.0
H506 H 0.30091 0.95718 0.23031 0.0
H507 H 0.33453 0.04656 0.33841 0.0
H508 H 0.30549 0.01202 0.22405 0.0
H509 H 0.29338 0.98732 0.34095 0.0
C510 C 0.28947 0.96191 0.31825 0.0
C511 C 0.29203 0.95329 0.28746 0.0
C512 C 0.31167 0.01968 0.24916 0.0
C513 C 0.30229 0.99043 0.2838 0.0
C514 C 0.32156 0.03893 0.24809 0.0
C515 C 0.33037 0.04889 0.28003 0.0
C516 C 0.31033 0.01055 0.28255 0.0
C517 C 0.32815 0.03927 0.31308 0.0
C518 C 0.29479 0.98058 0.31664 0.0
C519 C 0.29905 0.96348 0.25484 0.0
N520 N 0.31835 0.02058 0.3135 0.0
N521 N 0.30399 0.98158 0.25386 0.0
H522 H 0.0464 0.34205 0.20398 0.0
H523 H 0.9557 0.29898 0.32001 0.0
H524 H 0.04704 0.32885 0.31899 0.0
H525 H 0.95483 0.28261 0.20666 0.0
H526 H 0.98932 0.31288 0.32043 0.0
H527 H 0.01273 0.32301 0.20398 0.0
C528 C 0.03942 0.33506 0.22917 0.0
C529 C 0.04939 0.33704 0.26161 0.0
C530 C 0.98171 0.30607 0.29564 0.0
C531 C 0.0111 0.31561 0.26187 0.0
C532 C 0.96261 0.29829 0.29526 0.0
C533 C 0.95258 0.28978 0.26315 0.0
C534 C 0.99082 0.30574 0.26341 0.0
C535 C 0.96212 0.28907 0.23194 0.0
C536 C 0.02028 0.32415 0.22906 0.0
C537 C 0.03978 0.32762 0.29345 0.0
N538 N 0.98081 0.29724 0.23263 0.0
N539 N 0.02105 0.31751 0.29298 0.0
H540 H 0.68502 0.64328 0.3165 0.0
H541 H 0.64021 0.68975 0.20325 0.0
H542 H 0.70177 0.66073 0.20409 0.0
H543 H 0.65093 0.70138 0.31956 0.0
H544 H 0.66094 0.67706 0.20278 0.0
H545 H 0.67084 0.66276 0.31883 0.0
C546 C 0.68583 0.65136 0.29243 0.0
C547 C 0.69438 0.65033 0.25991 0.0
C548 C 0.65891 0.68258 0.2283 0.0
C549 C 0.67805 0.67228 0.26229 0.0
C550 C 0.64699 0.68965 0.22868 0.0
C551 C 0.64378 0.69642 0.2616 0.0
C552 C 0.66729 0.68184 0.26125 0.0
C553 C 0.65305 0.69622 0.29368 0.0
C554 C 0.67787 0.66252 0.29388 0.0
C555 C 0.69525 0.66116 0.22962 0.0
N556 N 0.6642 0.68871 0.29289 0.0
N557 N 0.68684 0.67146 0.23128 0.0
H558 H 0.67804 0.96018 0.77393 0.0
H559 H 0.67315 0.04332 0.68637 0.0
H560 H 0.63981 0.95401 0.68743 0.0
H561 H 0.72104 0.05111 0.74626 0.0
H562 H 0.66291 0.01056 0.68039 0.0
H563 H 0.69604 0.99323 0.75989 0.0
C564 C 0.67355 0.96571 0.75174 0.0
C565 C 0.65716 0.95439 0.73242 0.0
C566 C 0.6759 0.01943 0.6941 0.0
C567 C 0.67764 0.99204 0.71621 0.0
C568 C 0.68175 0.03813 0.69734 0.0
C569 C 0.69787 0.04976 0.71688 0.0
C570 C 0.68594 0.01224 0.71166 0.0
C571 C 0.70854 0.04248 0.73082 0.0
C572 C 0.68388 0.98455 0.74362 0.0
C573 C 0.65212 0.96225 0.70363 0.0
N574 N 0.70215 0.02402 0.72877 0.0
N575 N 0.66217 0.9806 0.69678 0.0
H576 H 0.03731 0.71919 0.79853 0.0
H577 H 0.94287 0.6685 0.79762 0.0
H578 H 0.02946 0.68575 0.70198 0.0
H579 H 0.94646 0.66354 0.67993 0.0
H580 H 0.97582 0.69034 0.79978 0.0
H581 H 0.00576 0.71364 0.79098 0.0
C582 C 0.02896 0.71071 0.77582 0.0
C583 C 0.03572 0.70237 0.75163 0.0
C584 C 0.96941 0.68524 0.77315 0.0
C585 C -9e-05 0.69605 0.74275 0.0
C586 C 0.95058 0.6727 0.77198 0.0
C587 C 0.94218 0.66418 0.73862 0.0
C588 C 0.97987 0.68885 0.74077 0.0
C589 C 0.95257 0.66986 0.70615 0.0
C590 C 0.011 0.70755 0.77152 0.0
C591 C 0.02457 0.69193 0.72204 0.0
N592 N 0.97109 0.68147 0.70818 0.0
N593 N 0.00719 0.68896 0.71863 0.0
H594 H 0.28192 0.23179 0.73028 0.0
H595 H 0.26758 0.28332 0.84308 0.0
H596 H 0.27851 0.27104 0.65815 0.0
H597 H 0.22996 0.28611 0.76552 0.0
H598 H 0.26607 0.25776 0.80824 0.0
H599 H 0.25756 0.23108 0.76852 0.0
C600 C 0.27539 0.23951 0.7212 0.0
C601 C 0.2829 0.25224 0.69195 0.0
C602 C 0.25732 0.26322 0.79976 0.0
C603 C 0.25522 0.25154 0.73582 0.0
C604 C 0.25815 0.27786 0.81991 0.0
C605 C 0.2494 0.28727 0.80649 0.0
C606 C 0.24815 0.25848 0.76548 0.0
C607 C 0.23731 0.27953 0.77638 0.0
C608 C 0.26159 0.23922 0.74342 0.0
C609 C 0.27358 0.26155 0.68125 0.0
N610 N 0.2378 0.26622 0.75569 0.0
N611 N 0.26059 0.26147 0.70388 0.0
H612 H 0.98427 0.38188 0.57955 0.0
H613 H 0.95766 0.2811 0.51511 0.0
H614 H 0.01263 0.3686 0.49647 0.0
H615 H 0.94 0.29329 0.61811 0.0
H616 H 0.96887 0.31269 0.49506 0.0
H617 H 0.95932 0.34957 0.57954 0.0
C618 C 0.98474 0.37233 0.55996 0.0
C619 C 0.00043 0.37768 0.53808 0.0
C620 C 0.96234 0.30843 0.52186 0.0
C621 C 0.97243 0.34099 0.53848 0.0
C622 C 0.95605 0.29043 0.53349 0.0
C623 C 0.94846 0.28477 0.56887 0.0
C624 C 0.96131 0.321 0.54595 0.0
C625 C 0.94614 0.29725 0.59094 0.0
C626 C 0.97066 0.3539 0.56031 0.0
C627 C 0.0007 0.36486 0.51373 0.0
N628 N 0.95293 0.31497 0.57942 0.0
N629 N 0.98703 0.347 0.51498 0.0
H630 H 0.59238 0.58668 0.56032 0.0
H631 H 0.68396 0.63012 0.61185 0.0
H632 H 0.60949 0.63739 0.50109 0.0
H633 H 0.69406 0.66566 0.51778 0.0
H634 H 0.65174 0.61158 0.59263 0.0
H635 H 0.62462 0.59394 0.56286 0.0
C636 C 0.60289 0.599 0.54668 0.0
C637 C 0.59848 0.61163 0.53091 0.0
C638 C 0.66109 0.62309 0.57556 0.0
C639 C 0.63519 0.62043 0.5351 0.0
C640 C 0.67946 0.63383 0.58686 0.0
C641 C 0.69157 0.64971 0.56694 0.0
C642 C 0.65494 0.62831 0.54402 0.0
C643 C 0.6851 0.6538 0.53456 0.0
C644 C 0.62132 0.60335 0.54884 0.0
C645 C 0.61246 0.62744 0.51384 0.0
N646 N 0.66721 0.64334 0.52446 0.0
N647 N 0.63024 0.63152 0.51684 0.0
H648 H 0.34774 0.05933 0.6534 0.0
H649 H 0.37533 -0.00099 0.5282 0.0
H650 H 0.31874 0.02951 0.55543 0.0
H651 H 0.40045 0.02204 0.63317 0.0
H652 H 0.36124 0.01857 0.52818 0.0
H653 H 0.37272 0.05317 0.63821 0.0
C654 C 0.34668 0.0516 0.62864 0.0
C655 C 0.33093 0.04449 0.60619 0.0
C656 C 0.37029 0.01981 0.55073 0.0
C657 C 0.35947 0.03769 0.58837 0.0
C658 C 0.3785 0.00883 0.55041 0.0
C659 C 0.38899 0.0091 0.58066 0.0
C660 C 0.3723 0.03065 0.58198 0.0
C661 C 0.39246 0.02165 0.6093 0.0
C662 C 0.36097 0.04819 0.61986 0.0
C663 C 0.3304 0.03484 0.57408 0.0
N664 N 0.38379 0.0317 0.60969 0.0
N665 N 0.34436 0.03159 0.56635 0.0
H666 H 0.35637 0.36966 0.16537 0.0
H667 H 0.3082 0.27188 0.1551 0.0
H668 H 0.3687 0.36566 0.05116 0.0
H669 H 0.29404 0.28571 0.04989 0.0
H670 H 0.33356 0.30412 0.161 0.0
H671 H 0.33721 0.33591 0.16777 0.0
C672 C 0.35533 0.36164 0.14107 0.0
C673 C 0.364 0.37039 0.10794 0.0
C674 C 0.32483 0.29995 0.13673 0.0
C675 C 0.3421 0.33212 0.11044 0.0
C676 C 0.31047 0.28169 0.13334 0.0
C677 C 0.29892 0.27635 0.10229 0.0
C678 C 0.32781 0.31257 0.10831 0.0
C679 C 0.30245 0.28941 0.07459 0.0
C680 C 0.34454 0.34244 0.14257 0.0
C681 C 0.36226 0.35943 0.07723 0.0
N682 N 0.31668 0.3069 0.07813 0.0
N683 N 0.35109 0.34085 0.07895 0.0
H684 H 0.61972 0.04469 0.08914 0.0
H685 H 0.69058 0.05489 0.18775 0.0
H686 H 0.65403 0.03553 0.01322 0.0
H687 H 0.72708 0.08816 0.10048 0.0
H688 H 0.66531 0.05632 0.15731 0.0
H689 H 0.64747 0.0684 0.12022 0.0
C690 C 0.63309 0.04844 0.07756 0.0
C691 C 0.63466 0.03787 0.04914 0.0
C692 C 0.67905 0.06417 0.14576 0.0
C693 C 0.66621 0.06477 0.08452 0.0
C694 C 0.6935 0.06337 0.16328 0.0
C695 C 0.71082 0.07113 0.14627 0.0
C696 C 0.68188 0.07209 0.11039 0.0
C697 C 0.71384 0.08182 0.11433 0.0
C698 C 0.64889 0.06184 0.0956 0.0
C699 C 0.65228 0.04319 0.03544 0.0
N700 N 0.69928 0.08119 0.09634 0.0
N701 N 0.66743 0.05603 0.05381 0.0
H702 H 0.94709 0.66095 0.1615 0.0
H703 H 0.00846 0.62748 0.15626 0.0
H704 H 0.96052 0.66887 0.04543 0.0
H705 H 0.98672 0.608 0.04709 0.0
H706 H 0.98839 0.64081 0.16176 0.0
H707 H 0.95909 0.63944 0.16457 0.0
C708 C 0.95239 0.65801 0.13669 0.0
C709 C 0.95323 0.66691 0.10336 0.0
C710 C 0.98765 0.6332 0.13703 0.0
C711 C 0.96677 0.64256 0.10656 0.0
C712 C -0.00074 0.62581 0.13366 0.0
C713 C -0.00065 0.61683 0.10099 0.0
C714 C 0.97633 0.63185 0.10725 0.0
C715 C 0.98709 0.61488 0.07267 0.0
C716 C 0.95931 0.64588 0.13849 0.0
C717 C 0.96003 0.66257 0.07184 0.0
N718 N 0.97634 0.62272 0.07613 0.0
N719 N 0.96657 0.6507 0.07423 0.0
H720 H 0.60238 0.61238 0.99516 0.0
H721 H 0.63542 0.70123 0.87013 0.0
H722 H 0.59928 0.6123 0.87641 0.0
H723 H 0.65031 0.70139 0.98424 0.0
H724 H 0.61156 0.66867 0.87655 0.0
H725 H 0.60886 0.64447 0.99554 0.0
C726 C 0.60239 0.61894 0.96935 0.0
C727 C 0.60067 0.61004 0.93569 0.0
C728 C 0.61979 0.67599 0.90039 0.0
C729 C 0.60827 0.64642 0.93569 0.0
C730 C 0.63337 0.69453 0.8967 0.0
C731 C 0.64517 0.70371 0.92634 0.0
C732 C 0.6181 0.66678 0.93396 0.0
C733 C 0.64183 0.69455 0.96036 0.0
C734 C 0.60618 0.63722 0.96948 0.0
C735 C 0.60085 0.61898 0.90286 0.0
N736 N 0.62881 0.67649 0.96309 0.0
N737 N 0.60494 0.63682 0.90359 0.0
H738 H 0.37746 0.0114 0.89707 0.0
H739 H 0.28945 0.93865 0.89456 0.0
H740 H 0.37856 0.00159 0.01372 0.0
H741 H 0.28975 0.95807 1.00515 0.0
H742 H 0.32321 0.9537 0.89688 0.0
H743 H 0.34669 0.98459 0.89314 0.0
C744 C 0.37125 0.00334 0.92178 0.0
C745 C 0.38027 0.00879 0.95591 0.0
C746 C 0.31582 0.95451 0.92067 0.0
C747 C 0.34519 0.97799 0.95162 0.0
C748 C 0.2966 0.94586 0.91944 0.0
C749 C 0.28695 0.9477 0.94923 0.0
C750 C 0.32523 0.96496 0.95192 0.0
C751 C 0.29678 0.95686 0.98113 0.0
C752 C 0.3538 0.98786 0.91942 0.0
C753 C 0.37187 -0.00217 0.98701 0.0
N754 N 0.31544 0.96535 0.98148 0.0
N755 N 0.35449 0.98316 0.98433 0.0
H756 H 0.05703 0.35316 0.9026 0.0
H757 H 0.98316 0.35674 0.02764 0.0
H758 H 0.03577 0.32205 1.00341 0.0
H759 H 0.01049 0.39535 0.93921 0.0
H760 H 0.00823 0.34985 0.0289 0.0
H761 H 0.04565 0.37372 0.92255 0.0
C762 C 0.05018 0.3508 0.92908 0.0
C763 C 0.04676 0.33553 0.95079 0.0
C764 C 0.00915 0.36028 1.0099 0.0
C765 C 0.03394 0.35897 0.97392 0.0
C766 C -0.00509 0.36433 1.00956 0.0
C767 C -0.00513 0.37651 0.98321 0.0
C768 C 0.02292 0.36789 0.98257 0.0
C769 C 0.01018 0.38588 0.95998 0.0
C770 C 0.0438 0.36259 0.94058 0.0
C771 C 0.03816 0.33329 0.98518 0.0
N772 N 0.02339 0.38093 0.95934 0.0
N773 N 0.03183 0.3447 0.9954 0.0
H774 H 0.01482 0.70219 0.3355 0.0
H775 H 0.01904 0.62231 0.44295 0.0
H776 H 0.06102 0.7121 0.40389 0.0
H777 H 0.97855 0.61363 0.35957 0.0
H778 H 0.0371 0.65469 0.42361 0.0
H779 H 0.00437 0.66929 0.33609 0.0
C780 C 0.02306 0.69739 0.34965 0.0
C781 C 0.03871 0.70967 0.36968 0.0
C782 C 0.02437 0.64559 0.40931 0.0
C783 C 0.02643 0.67206 0.37226 0.0
C784 C 0.014 0.62717 0.42051 0.0
C785 C -0.00294 0.61536 0.40343 0.0
C786 C 0.01767 0.65215 0.38094 0.0
C787 C 0.99132 0.62229 0.37413 0.0
C788 C 0.01705 0.67861 0.35031 0.0
C789 C 0.0489 0.70292 0.38794 0.0
N790 N 0.00151 0.64023 0.3641 0.0
N791 N 0.04232 0.68442 0.38961 0.0
H792 H 0.26663 0.32088 0.38093 0.0
H793 H 0.35964 0.38156 0.41174 0.0
H794 H 0.28611 0.28282 0.3584 0.0
H795 H 0.36951 0.34652 0.33884 0.0
H796 H 0.32655 0.36203 0.40132 0.0
H797 H 0.29817 0.34664 0.37277 0.0
C798 C 0.27749 0.31798 0.37361 0.0
C799 C 0.2739 0.29973 0.37103 0.0
C800 C 0.33595 0.35892 0.38671 0.0
C801 C 0.30986 0.32893 0.36258 0.0
C802 C 0.35488 0.36999 0.39297 0.0
C803 C 0.36736 0.3655 0.37663 0.0
C804 C 0.32953 0.34325 0.36406 0.0
C805 C 0.36041 0.35038 0.35245 0.0
C806 C 0.2955 0.33266 0.36947 0.0
C807 C 0.28838 0.29669 0.36132 0.0
N808 N 0.34196 0.33962 0.34745 0.0
N809 N 0.30575 0.31114 0.35773 0.0
H810 H 0.67109 0.96609 0.51187 0.0
H811 H 0.62139 0.01331 0.50083 0.0
H812 H 0.65702 0.95427 0.39663 0.0
H813 H 0.64789 0.02687 0.39413 0.0
H814 H 0.62816 0.98786 0.506 0.0
H815 H 0.6555 0.9843 0.51306 0.0
C816 C 0.6644 0.96705 0.48703 0.0
C817 C 0.6654 0.95881 0.45402 0.0
C818 C 0.63239 -0.00356 0.48151 0.0
C819 C 0.64776 0.97959 0.45518 0.0
C820 C 0.62851 0.01084 0.47851 0.0
C821 C 0.63444 0.02233 0.44735 0.0
C822 C 0.64182 0.9934 0.4527 0.0
C823 C 0.64344 0.01853 0.41894 0.0
C824 C 0.65539 0.97729 0.48784 0.0
C825 C 0.65651 0.96041 0.42262 0.0
N826 N 0.64681 0.00434 0.42225 0.0
N827 N 0.64845 0.97104 0.42372 0.0
H828 H 0.27284 0.06702 0.49595 0.0
H829 H 0.32559 0.1151 0.34493 0.0
H830 H 0.31926 0.10489 0.56248 0.0
H831 H 0.37032 0.12243 0.41562 0.0
H832 H 0.30584 0.10801 0.39919 0.0
H833 H 0.29006 0.08317 0.44056 0.0
C834 C 0.2864 0.07907 0.49906 0.0
C835 C 0.29458 0.08446 0.53409 0.0
C836 C 0.32002 0.11131 0.40285 0.0
C837 C 0.31456 0.10294 0.47056 0.0
C838 C 0.33143 0.11561 0.3719 0.0
C839 C 0.34965 0.11906 0.37548 0.0
C840 C 0.32683 0.11054 0.43781 0.0
C841 C 0.35636 0.11966 0.41134 0.0
C842 C 0.29627 0.08833 0.46733 0.0
C843 C 0.31234 0.10012 0.53617 0.0
N844 N 0.34491 0.11525 0.44104 0.0
N845 N 0.32188 0.10848 0.50489 0.0
H846 H 0.88043 0.20827 0.54246 0.0
H847 H 0.86929 0.2504 0.3897 0.0
H848 H 0.92038 0.20456 0.47295 0.0
H849 H 0.88477 0.21709 0.32445 0.0
H850 H 0.87157 0.23516 0.44532 0.0
H851 H 0.8656 0.21177 0.48742 0.0
C852 C 0.88587 0.20775 0.51562 0.0
C853 C 0.90205 0.20661 0.51255 0.0
C854 C 0.87386 0.2307 0.41878 0.0
C855 C 0.88532 0.21113 0.4493 0.0
C856 C 0.87262 0.2395 0.38691 0.0
C857 C 0.87696 0.23517 0.35223 0.0
C858 C 0.87975 0.21763 0.41608 0.0
C859 C 0.88134 0.22096 0.35051 0.0
C860 C 0.8775 0.21002 0.48418 0.0
C861 C 0.90815 0.20569 0.47685 0.0
N862 N 0.88307 0.21306 0.38199 0.0
N863 N 0.89997 0.20827 0.44667 0.0
H864 H 0.76732 0.6518 0.5386 0.0
H865 H 0.72528 0.59969 0.38401 0.0
H866 H 0.77311 0.69598 0.46799 0.0
H867 H 0.76272 0.6476 0.32044 0.0
H868 H 0.73994 0.61667 0.44056 0.0
H869 H 0.76375 0.6332 0.48395 0.0
C870 C 0.76826 0.65779 0.51163 0.0
C871 C 0.77 0.67536 0.50807 0.0
C872 C 0.74536 0.62328 0.41421 0.0
C873 C 0.76562 0.65391 0.4453 0.0
C874 C 0.73693 0.61356 0.38182 0.0
C875 C 0.7426 0.62222 0.34728 0.0
C876 C 0.75938 0.64189 0.41208 0.0
C877 C 0.75774 0.64033 0.34635 0.0
C878 C 0.76601 0.64703 0.48043 0.0
C879 C 0.77152 0.68244 0.47224 0.0
N880 N 0.76526 0.6497 0.37823 0.0
N881 N 0.76902 0.67159 0.44227 0.0
H882 H 0.13031 0.38096 0.1313 0.0
H883 H 0.07864 0.28214 0.04591 0.0
H884 H 0.11585 0.33252 0.19692 0.0
H885 H 0.11317 0.33021 0.97986 0.0
H886 H 0.09415 0.29979 0.10141 0.0
H887 H 0.12637 0.36288 0.07543 0.0
C888 C 0.12676 0.36667 0.13407 0.0
C889 C 0.1232 0.35826 0.16898 0.0
C890 C 0.09862 0.30634 0.07468 0.0
C891 C 0.11819 0.3373 0.10497 0.0
C892 C 0.08982 0.29621 0.04289 0.0
C893 C 0.09433 0.30472 1.00803 0.0
C894 C 0.11179 0.3252 0.07169 0.0
C895 C 0.10899 0.32306 1.00606 0.0
C896 C 0.12446 0.35631 0.10211 0.0
C897 C 0.11862 0.33962 0.17069 0.0
N898 N 0.11685 0.3328 0.03742 0.0
N899 N 0.11583 0.32969 0.13919 0.0
H900 H 0.60363 0.73289 0.12282 0.0
H901 H 0.66575 0.77887 0.98172 0.0
H902 H 0.64967 0.76346 0.19642 0.0
H903 H 0.70197 0.77092 0.05484 0.0
H904 H 0.64553 0.77463 0.03392 0.0
H905 H 0.6243 0.74771 0.07023 0.0
C906 C 0.61792 0.74306 0.128 0.0
C907 C 0.62486 0.74684 0.16417 0.0
C908 C 0.65804 0.77407 0.03854 0.0
C909 C 0.64866 0.76361 0.10416 0.0
C910 C 0.66974 0.77668 1.00884 0.0
C911 C 0.68543 0.77478 0.01356 0.0
C912 C 0.66217 0.76984 0.07344 0.0
C913 C 0.68994 0.77226 0.04966 0.0
C914 C 0.62973 0.75155 0.09796 0.0
C915 C 0.64363 0.76006 0.16909 0.0
N916 N 0.67825 0.76966 0.07816 0.0
N917 N 0.65495 0.76758 0.13947 0.0
H918 H 0.26762 0.8754 0.15718 0.0
H919 H 0.21921 0.88136 1.00797 0.0
H920 H 0.22973 0.88327 0.22522 0.0
H921 H 0.21302 0.91902 0.08013 0.0
H922 H 0.22618 0.86818 0.06158 0.0
H923 H 0.25159 0.87731 0.10227 0.0
C924 C 0.25563 0.87699 0.16067 0.0
C925 C 0.25013 0.87925 0.19601 0.0
C926 C 0.22312 0.8792 0.06569 0.0
C927 C 0.23181 0.88172 0.13313 0.0
C928 C 0.21888 0.88662 0.03513 0.0
C929 C 0.21585 0.90164 0.03931 0.0
C930 C 0.2242 0.88671 0.10086 0.0
C931 C 0.21547 0.90764 0.0754 0.0
C932 C 0.24643 0.87805 0.12925 0.0
C933 C 0.23454 0.88147 0.19865 0.0
N934 N 0.2198 0.90029 0.10471 0.0
N935 N 0.22625 0.88311 0.16769 0.0
H936 H 0.6092 0.86709 0.63807 0.0
H937 H 0.70843 0.91688 0.57204 0.0
H938 H 0.65283 0.87429 0.71194 0.0
H939 H 0.66464 0.88201 0.49697 0.0
H940 H 0.68896 0.8988 0.62373 0.0
H941 H 0.62844 0.86881 0.58576 0.0
C942 C 0.62255 0.86841 0.64343 0.0
C943 C 0.62962 0.8712 0.67947 0.0
C944 C 0.68382 0.89479 0.59584 0.0
C945 C 0.65191 0.87375 0.61971 0.0
C946 C 0.69497 0.90512 0.56629 0.0
C947 C 0.68803 0.9013 0.53013 0.0
C948 C 0.66552 0.88087 0.58916 0.0
C949 C 0.67047 0.88576 0.52443 0.0
C950 C 0.6336 0.86948 0.61349 0.0
C951 C 0.647 0.87267 0.6846 0.0
N952 N 0.65961 0.87648 0.55367 0.0
N953 N 0.65781 0.87458 0.65503 0.0
H954 H 0.03824 0.73855 0.53178 0.0
H955 H 0.1152 0.76041 0.67365 0.0
H956 H 0.09172 0.78311 0.4993 0.0
H957 H 0.08526 0.70633 0.62421 0.0
H958 H 0.10575 0.77289 0.62167 0.0
H959 H 0.05296 0.73058 0.58114 0.0
C960 C 0.053 0.74703 0.53562 0.0
C961 C 0.06373 0.76155 0.51121 0.0
C962 C 0.10168 0.75839 0.62201 0.0
C963 C 0.08059 0.75237 0.56778 0.0
C964 C 0.10716 0.75127 0.6514 0.0
C965 C 0.10105 0.73226 0.65338 0.0
C966 C 0.08957 0.7463 0.59524 0.0
C967 C 0.09042 0.72105 0.62391 0.0
C968 C 0.06139 0.74229 0.56351 0.0
C969 C 0.08291 0.77183 0.51748 0.0
N970 N 0.08461 0.72814 0.59665 0.0
N971 N 0.09077 0.76706 0.54524 0.0
H972 H 0.2106 0.28595 0.51072 0.0
H973 H 0.28745 0.3271 0.66654 0.0
H974 H 0.24414 0.26223 0.5422 0.0
H975 H 0.23922 0.33316 0.67492 0.0
H976 H 0.27417 0.30779 0.61229 0.0
H977 H 0.22205 0.30621 0.56506 0.0
C978 C 0.22004 0.2847 0.52937 0.0
C979 C 0.22648 0.27239 0.52164 0.0
C980 C 0.26656 0.31348 0.62579 0.0
C981 C 0.24003 0.29594 0.58287 0.0
C982 C 0.27423 0.32473 0.65657 0.0
C983 C 0.26439 0.33168 0.67571 0.0
C984 C 0.24897 0.30925 0.61351 0.0
C985 C 0.2473 0.32809 0.66114 0.0
C986 C 0.22665 0.29637 0.56017 0.0
C987 C 0.23879 0.27148 0.54679 0.0
N988 N 0.24005 0.317 0.63097 0.0
N989 N 0.24536 0.28328 0.57585 0.0
H990 H 0.92468 0.71006 0.95363 0.0
H991 H 0.87738 0.64682 0.8139 0.0
H992 H 0.89331 0.6646 0.02799 0.0
H993 H 0.8838 0.61005 0.88828 0.0
H994 H 0.88337 0.66807 0.86508 0.0
H995 H 0.9103 0.68899 0.90133 0.0
C996 C 0.91444 0.6958 0.959 0.0
C997 C 0.91019 0.68918 0.99537 0.0
C998 C 0.88326 0.65526 0.87022 0.0
C999 C 0.89396 0.66491 0.93568 0.0
C1000 C 0.87962 0.64294 0.8411 0.0
C1001 C 0.88035 0.62664 0.84649 0.0
C1002 C 0.88742 0.65118 0.90525 0.0
C1003 C 0.88324 0.62247 0.88263 0.0
C1004 C 0.90621 0.68377 0.92914 0.0
C1005 C 0.89696 0.67043 1.00055 0.0
N1006 N 0.88678 0.63473 0.91059 0.0
N1007 N 0.88966 0.6589 0.97112 0.0
H1008 H 0.2876 0.21071 0.9862 0.0
H1009 H 0.3151 0.28344 0.82522 0.0
H1010 H 0.25249 0.23143 0.94763 0.0
H1011 H 0.33398 0.24387 0.82239 0.0
H1012 H 0.29571 0.2673 0.87787 0.0
H1013 H 0.30696 0.22384 0.93115 0.0
C1014 C 0.28367 0.21758 0.96578 0.0
C1015 C 0.26847 0.22013 0.97185 0.0
C1016 C 0.30421 0.26223 0.86593 0.0
C1017 C 0.2909 0.23565 0.90977 0.0
C1018 C 0.31554 0.2716 0.83613 0.0
C1019 C 0.3262 0.265 0.81909 0.0
C1020 C 0.30369 0.24626 0.87942 0.0
C1021 C 0.32602 0.24948 0.83463 0.0
C1022 C 0.29482 0.22518 0.93457 0.0
C1023 C 0.26409 0.22918 0.9444 0.0
N1024 N 0.31488 0.24058 0.86396 0.0
N1025 N 0.27545 0.23692 0.915 0.0
H1026 H 0.69269 0.07973 0.89005 0.0
H1027 H 0.77012 0.0815 0.01858 0.0
H1028 H 0.74971 0.11029 0.85573 0.0
H1029 H 0.7152 0.03453 1.00831 0.0
H1030 H 0.76412 0.09536 0.96424 0.0
H1031 H 0.7017 0.06756 0.94216 0.0
C1032 C 0.70718 0.08421 0.8938 0.0
C1033 C 0.72042 0.09595 0.86809 0.0
C1034 C 0.75356 0.0819 0.97371 0.0
C1035 C 0.73078 0.08178 0.92777 0.0
C1036 C 0.757 0.07387 1.00448 0.0
C1037 C 0.7431 0.05684 0.01837 0.0
C1038 C 0.73601 0.07298 0.95732 0.0
C1039 C 0.72633 0.04771 0.99895 0.0
C1040 C 0.71226 0.07705 0.92336 0.0
C1041 C 0.739 0.10122 0.8747 0.0
N1042 N 0.72316 0.05603 0.96995 0.0
N1043 N 0.74365 0.09403 0.90386 0.0
H1044 H 0.03553 0.396 0.70755 0.0
H1045 H 0.97024 0.41353 0.83909 0.0
H1046 H 0.02299 0.43872 0.67926 0.0
H1047 H 0.96206 0.35936 0.8152 0.0
H1048 H 0.99266 0.42609 0.78806 0.0
H1049 H 0.01319 0.38629 0.7577 0.0
C1050 C 0.02841 0.40365 0.7123 0.0
C1051 C 0.03113 0.41816 0.68876 0.0
C1052 C 0.98571 0.41143 0.79385 0.0
C1053 C 0.00527 0.40688 0.74635 0.0
C1054 C 0.97282 0.40421 0.82274 0.0
C1055 C 0.96419 0.38531 0.83163 0.0
C1056 C 0.99032 0.39975 0.77443 0.0
C1057 C 0.96827 0.37397 0.80956 0.0
C1058 C 0.01547 0.39792 0.74073 0.0
C1059 C 0.02134 0.42744 0.69656 0.0
N1060 N 0.98122 0.3814 0.78254 0.0
N1061 N 0.00878 0.42161 0.72465 0.0
H1062 H 0.61529 0.5778 0.78783 0.0
H1063 H 0.53114 0.56679 0.66983 0.0
H1064 H 0.56039 0.5415 0.82931 0.0
H1065 H 0.57911 0.61965 0.69287 0.0
H1066 H 0.54113 0.55288 0.71816 0.0
H1067 H 0.6021 0.58785 0.73912 0.0
C1068 C 0.60042 0.57148 0.78613 0.0
C1069 C 0.58897 0.55886 0.81306 0.0
C1070 C 0.54925 0.56756 0.71277 0.0
C1071 C 0.57384 0.57051 0.75727 0.0
C1072 C 0.54353 0.57554 0.68547 0.0
C1073 C 0.55425 0.59447 0.67727 0.0
C1074 C 0.56609 0.57848 0.73102 0.0
C1075 C 0.57029 0.60507 0.69825 0.0
C1076 C 0.59295 0.57745 0.75857 0.0
C1077 C 0.56976 0.55133 0.8093 0.0
N1078 N 0.57587 0.59688 0.72356 0.0
N1079 N 0.56277 0.55733 0.78202 0.0
H1080 H 0.42914 0.05773 0.82062 0.0
H1081 H 0.44158 0.99006 0.69795 0.0
H1082 H 0.45735 0.03385 0.87852 0.0
H1083 H 0.3872 0.97411 0.73913 0.0
H1084 H 0.45495 0.01302 0.7481 0.0
H1085 H 0.4219 0.03532 0.77088 0.0
C1086 C 0.43443 0.04827 0.82238 0.0
C1087 C 0.44383 0.04768 0.85407 0.0
C1088 C 0.44013 0.00419 0.7463 0.0
C1089 C 0.43552 0.02206 0.79703 0.0
C1090 C 0.43247 0.99103 0.71796 0.0
C1091 C 0.41319 0.98004 0.7143 0.0
C1092 C 0.4284 0.00665 0.77032 0.0
C1093 C 0.40209 0.98211 0.74086 0.0
C1094 C 0.43009 0.03538 0.79412 0.0
C1095 C 0.45006 0.03482 0.85469 0.0
N1096 N 0.40983 -0.00457 0.76718 0.0
N1097 N 0.44566 0.02237 0.82672 0.0
H1098 H 0.61229 -0.0032 0.19243 0.0
H1099 H 0.57977 0.04176 0.34034 0.0
H1100 H 0.56254 -0.00184 0.16663 0.0
H1101 H 0.63567 0.0689 0.2991 0.0
H1102 H 0.56998 0.0214 0.28591 0.0
H1103 H 0.61756 0.01721 0.24461 0.0
C1104 C 0.60218 0.00096 0.19818 0.0
C1105 C 0.58703 -0.00414 0.17469 0.0
C1106 C 0.58428 0.03211 0.28863 0.0
C1107 C 0.59316 0.01935 0.23454 0.0
C1108 C 0.58989 0.04381 0.31943 0.0
C1109 C 0.60863 0.057 0.32452 0.0
C1110 C 0.59761 0.03336 0.26354 0.0
C1111 C 0.62111 0.05896 0.29656 0.0
C1112 C 0.60537 0.01281 0.22774 0.0
C1113 C 0.57444 0.00179 0.18388 0.0
N1114 N 0.61546 0.04696 0.2678 0.0
N1115 N 0.57782 0.01333 0.21313 0.0
H1116 H 0.9514 0.52946 0.30488 0.0
H1117 H 0.00378 0.54477 0.14804 0.0
H1118 H 0.00157 0.54696 0.36664 0.0
H1119 H 0.04739 0.58464 0.21763 0.0
H1120 H 0.98603 0.52911 0.20314 0.0
H1121 H 0.96838 0.53288 0.24789 0.0
C1122 C 0.96584 0.53342 0.30663 0.0
C1123 C 0.97503 0.53811 0.34078 0.0
C1124 C -0.00048 0.54121 0.20639 0.0
C1125 C -0.00524 0.54225 0.27527 0.0
C1126 C 0.00983 0.55006 0.17488 0.0
C1127 C 0.02701 0.56637 0.17802 0.0
C1128 C 0.00641 0.54867 0.24143 0.0
C1129 C 0.03414 0.5723 0.2137 0.0
C1130 C 0.97559 0.53537 0.27393 0.0
C1131 C -0.00615 0.54331 0.34107 0.0
N1132 N 0.02371 0.56361 0.24395 0.0
N1133 N 0.00316 0.54569 0.30885 0.0
H1134 H 0.44358 0.45027 0.14129 0.0
H1135 H 0.44496 0.44986 0.36015 0.0
H1136 H 0.40821 0.46107 0.21121 0.0
H1137 H 0.45909 0.41678 0.29068 0.0
H1138 H 0.44412 0.46657 0.30562 0.0
H1139 H 0.46119 0.45098 0.19561 0.0
C1140 C 0.43983 0.45339 0.16785 0.0
C1141 C 0.42395 0.45499 0.17181 0.0
C1142 C 0.44796 0.45603 0.30253 0.0
C1143 C 0.44424 0.45595 0.23395 0.0
C1144 C 0.4485 0.44648 0.33365 0.0
C1145 C 0.45142 0.43137 0.32986 0.0
C1146 C 0.4506 0.45062 0.26748 0.0
C1147 C 0.45634 0.428 0.29486 0.0
C1148 C 0.44992 0.45374 0.19884 0.0
C1149 C 0.42007 0.45934 0.2069 0.0
N1150 N 0.45536 0.43727 0.26485 0.0
N1151 N 0.42991 0.4593 0.23677 0.0
H1152 H 0.27929 0.18012 0.20595 0.0
H1153 H 0.34512 0.14245 0.13589 0.0
H1154 H 0.30153 0.18913 0.09543 0.0
H1155 H 0.31506 0.12623 0.23882 0.0
H1156 H 0.32975 0.15999 0.1205 0.0
H1157 H 0.29321 0.16108 0.21899 0.0
C1158 C 0.28713 0.17813 0.18444 0.0
C1159 C 0.28926 0.18625 0.14956 0.0
C1160 C 0.32645 0.15248 0.14633 0.0
C1161 C 0.3052 0.16441 0.16427 0.0
C1162 C 0.33519 0.14245 0.15511 0.0
C1163 C 0.33144 0.13291 0.18876 0.0
C1164 C 0.31398 0.15309 0.17153 0.0
C1165 C 0.31843 0.13338 0.21259 0.0
C1166 C 0.29501 0.16718 0.19185 0.0
C1167 C 0.29953 0.18314 0.12272 0.0
N1168 N 0.31029 0.14341 0.20363 0.0
N1169 N 0.30716 0.1725 0.13067 0.0
H1170 H 0.80451 0.13311 0.08525 0.0
H1171 H 0.88256 0.18527 0.23791 0.0
H1172 H 0.81278 0.10604 0.17882 0.0
H1173 H 0.87076 0.2128 0.15012 0.0
H1174 H 0.86082 0.15556 0.21029 0.0
H1175 H 0.83219 0.16175 0.10272 0.0
C1176 C 0.81222 0.13314 0.10932 0.0
C1177 C 0.80617 0.11722 0.13091 0.0
C1178 C 0.86317 0.16811 0.19683 0.0
C1179 C 0.83787 0.14996 0.15108 0.0
C1180 C 0.87565 0.18509 0.21249 0.0
C1181 C 0.87825 0.20154 0.19663 0.0
C1182 C 0.85325 0.1676 0.16511 0.0
C1183 C 0.86898 0.20046 0.16359 0.0
C1184 C 0.82804 0.1495 0.11926 0.0
C1185 C 0.81682 0.11804 0.1616 0.0
N1186 N 0.85673 0.18377 0.14917 0.0
N1187 N 0.83206 0.13418 0.17096 0.0
H1188 H 0.79758 0.67794 0.24277 0.0
H1189 H 0.85327 0.64745 0.10754 0.0
H1190 H 0.77207 0.63677 0.1573 0.0
H1191 H 0.87969 0.69235 0.1854 0.0
H1192 H 0.82332 0.64288 0.12678 0.0
H1193 H 0.82782 0.68366 0.22215 0.0
C1194 C 0.79833 0.67026 0.21939 0.0
C1195 C 0.78224 0.65679 0.20186 0.0
C1196 C 0.83566 0.65372 0.13972 0.0
C1197 C 0.81678 0.66308 0.1785 0.0
C1198 C 0.85278 0.65626 0.12892 0.0
C1199 C 0.86903 0.67031 0.14486 0.0
C1200 C 0.83475 0.66528 0.16676 0.0
C1201 C 0.86752 0.68134 0.17234 0.0
C1202 C 0.8156 0.67347 0.20775 0.0
C1203 C 0.78408 0.64725 0.17174 0.0
N1204 N 0.85068 0.6786 0.18238 0.0
N1205 N 0.80102 0.65049 0.1612 0.0
H1206 H 0.13515 0.3432 0.36694 0.0
H1207 H 0.17253 0.2723 0.34646 0.0
H1208 H 0.11583 0.3004 0.28411 0.0
H1209 H 0.19222 0.3153 0.4289 0.0
H1210 H 0.15031 0.2812 0.32576 0.0
H1211 H 0.15443 0.33171 0.39299 0.0
C1212 C 0.13481 0.33127 0.35443 0.0
C1213 C 0.12395 0.32284 0.32309 0.0
C1214 C 0.15945 0.28866 0.34845 0.0
C1215 C 0.14614 0.30971 0.35264 0.0
C1216 C 0.17218 0.28361 0.36026 0.0
C1217 C 0.18435 0.29314 0.38935 0.0
C1218 C 0.15886 0.30338 0.36577 0.0
C1219 C 0.18318 0.30762 0.40627 0.0
C1220 C 0.14588 0.32475 0.36928 0.0
C1221 C 0.12404 0.30739 0.30817 0.0
N1222 N 0.1707 0.31234 0.39414 0.0
N1223 N 0.13507 0.30141 0.32292 0.0
H1224 H 0.69908 0.87232 0.37708 0.0
H1225 H 0.60635 0.78351 0.30923 0.0
H1226 H 0.64748 0.87169 0.36319 0.0
H1227 H 0.65669 0.78329 0.33452 0.0
H1228 H 0.62126 0.81597 0.32697 0.0
H1229 H 0.68403 0.84011 0.35828 0.0
C1230 C 0.68459 0.86545 0.36981 0.0
C1231 C 0.6745 0.87471 0.37184 0.0
C1232 C 0.62902 0.80881 0.32877 0.0
C1233 C 0.65712 0.83768 0.35051 0.0
C1234 C 0.62052 0.79026 0.31873 0.0
C1235 C 0.63031 0.78068 0.32036 0.0
C1236 C 0.64749 0.81788 0.34038 0.0
C1237 C 0.64862 0.79012 0.33288 0.0
C1238 C 0.67598 0.847 0.35922 0.0
C1239 C 0.65578 0.86508 0.36202 0.0
N1240 N 0.65663 0.80823 0.34227 0.0
N1241 N 0.64766 0.84704 0.35188 0.0
H1242 H 0.13312 0.7909 0.41877 0.0
H1243 H 0.19744 0.88293 0.30428 0.0
H1244 H 0.1122 0.81513 0.34092 0.0
H1245 H 0.21823 0.85838 0.38168 0.0
H1246 H 0.166 0.85937 0.3203 0.0
H1247 H 0.16431 0.81628 0.40743 0.0
C1248 C 0.13508 0.80152 0.39917 0.0
C1249 C 0.12002 0.80084 0.38065 0.0
C1250 C 0.17744 0.85922 0.33397 0.0
C1251 C 0.15573 0.83004 0.36773 0.0
C1252 C 0.19541 0.87272 0.32496 0.0
C1253 C 0.21051 0.87255 0.34147 0.0
C1254 C 0.17454 0.84542 0.35961 0.0
C1255 C 0.20702 0.859 0.36812 0.0
C1256 C 0.15291 0.81606 0.39282 0.0
C1257 C 0.12341 0.81505 0.35572 0.0
N1258 N 0.1894 0.8459 0.37615 0.0
N1259 N 0.1409 0.82906 0.34996 0.0
H1260 H 0.68464 0.87977 0.77473 0.0
H1261 H 0.64512 0.79299 0.91084 0.0
H1262 H 0.64777 0.87122 0.86559 0.0
H1263 H 0.68554 0.8035 0.82616 0.0
H1264 H 0.64612 0.82178 0.89458 0.0
H1265 H 0.68635 0.85275 0.79465 0.0
C1266 C 0.67717 0.87243 0.79926 0.0
C1267 C 0.66591 0.8777 0.81831 0.0
C1268 C 0.65476 0.8178 0.8795 0.0
C1269 C 0.66753 0.84653 0.84081 0.0
C1270 C 0.65409 0.80126 0.88858 0.0
C1271 C 0.66523 0.79578 0.86978 0.0
C1272 C 0.66662 0.82895 0.8513 0.0
C1273 C 0.67668 0.80715 0.84134 0.0
C1274 C 0.67805 0.85691 0.81045 0.0
C1275 C 0.65653 0.86762 0.84988 0.0
N1276 N 0.67708 0.8232 0.83298 0.0
N1277 N 0.6574 0.85242 0.85988 0.0
H1278 H 0.11253 0.77866 0.83186 0.0
H1279 H 0.2131 0.86722 0.85566 0.0
H1280 H 0.16218 0.78166 0.78927 0.0
H1281 H 0.16288 0.86458 0.89344 0.0
H1282 H 0.19481 0.83597 0.83083 0.0
H1283 H 0.13092 0.81015 0.85493 0.0
C1284 C 0.12731 0.78593 0.82742 0.0
C1285 C 0.13582 0.7775 0.80862 0.0
C1286 C 0.18781 0.84227 0.84446 0.0
C1287 C 0.15698 0.81361 0.83489 0.0
C1288 C 0.19824 0.86012 0.85859 0.0
C1289 C 0.18951 0.86852 0.87672 0.0
C1290 C 0.16853 0.83276 0.84859 0.0
C1291 C 0.17021 0.85866 0.87973 0.0
C1292 C 0.13781 0.80393 0.84054 0.0
C1293 C 0.15503 0.78761 0.80363 0.0
N1294 N 0.16039 0.8413 0.86592 0.0
N1295 N 0.16496 0.80513 0.8167 0.0
H1296 H 0.14424 0.3594 0.89542 0.0
H1297 H 0.18812 0.32294 0.74433 0.0
H1298 H 0.11276 0.32052 0.80948 0.0
H1299 H 0.21868 0.35871 0.83507 0.0
H1300 H 0.1613 0.32547 0.76233 0.0
H1301 H 0.17255 0.36326 0.86759 0.0
C1302 C 0.14328 0.3519 0.87036 0.0
C1303 C 0.12607 0.3394 0.8551 0.0
C1304 C 0.17392 0.33287 0.77813 0.0
C1305 C 0.15842 0.3436 0.82335 0.0
C1306 C 0.18924 0.33142 0.7679 0.0
C1307 C 0.20561 0.34044 0.78849 0.0
C1308 C 0.17497 0.34342 0.8092 0.0
C1309 C 0.20629 0.35135 0.8186 0.0
C1310 C 0.15946 0.35405 0.85457 0.0
C1311 C 0.12571 0.33015 0.82247 0.0
N1312 N 0.19115 0.35242 0.82819 0.0
N1313 N 0.14162 0.33226 0.80794 0.0
H1314 H 0.83858 0.61463 0.65991 0.0
H1315 H 0.77239 0.65615 0.70063 0.0
H1316 H 0.84956 0.6564 0.74184 0.0
H1317 H 0.7654 0.62131 0.60691 0.0
H1318 H 0.79813 0.65254 0.72143 0.0
H1319 H 0.80979 0.61397 0.64414 0.0
C1320 C 0.83498 0.6237 0.67448 0.0
C1321 C 0.84656 0.63567 0.70209 0.0
C1322 C 0.79087 0.64554 0.69649 0.0
C1323 C 0.81355 0.63478 0.68455 0.0
C1324 C 0.77607 0.64748 0.68471 0.0
C1325 C 0.76685 0.6392 0.6517 0.0
C1326 C 0.79653 0.63524 0.67514 0.0
C1327 C 0.77217 0.62804 0.6324 0.0
C1328 C 0.81851 0.62326 0.66556 0.0
C1329 C 0.84114 0.64704 0.7202 0.0
N1330 N 0.78681 0.62654 0.64419 0.0
N1331 N 0.82504 0.6463 0.71113 0.0
H1332 H 0.31221 0.19206 0.75908 0.0
H1333 H 0.34958 0.1375 0.63866 0.0
H1334 H 0.35158 0.21679 0.67037 0.0
H1335 H 0.30806 0.1123 0.72354 0.0
H1336 H 0.35368 0.16759 0.65558 0.0
H1337 H 0.31332 0.16366 0.75135 0.0
C1338 C 0.32114 0.19155 0.73802 0.0
C1339 C 0.33168 0.20678 0.71508 0.0
C1340 C 0.34382 0.1555 0.67078 0.0
C1341 C 0.33305 0.17426 0.70614 0.0
C1342 C 0.34153 0.13831 0.66125 0.0
C1343 C 0.32828 0.1223 0.67939 0.0
C1344 C 0.33276 0.15669 0.6986 0.0
C1345 C 0.31831 0.12423 0.70854 0.0
C1346 C 0.3218 0.17532 0.73369 0.0
C1347 C 0.34311 0.20534 0.68848 0.0
N1348 N 0.32061 0.14108 0.71696 0.0
N1349 N 0.34341 0.18933 0.6846 0.0
H1350 H 0.88017 0.20432 0.70897 0.0
H1351 H 0.7704 0.15031 0.68636 0.0
H1352 H 0.8516 0.21382 0.61988 0.0
H1353 H 0.79851 0.1415 0.77732 0.0
H1354 H 0.80002 0.17458 0.66321 0.0
H1355 H 0.85043 0.18269 0.73658 0.0
C1356 C 0.86766 0.20203 0.69542 0.0
C1357 C 0.8684 0.21082 0.66189 0.0
C1358 C 0.79973 0.16738 0.68828 0.0
C1359 C 0.83429 0.1859 0.69319 0.0
C1360 C 0.7828 0.15345 0.70148 0.0
C1361 C 0.78195 0.14377 0.73378 0.0
C1362 C 0.816 0.17168 0.7074 0.0
C1363 C 0.7985 0.14855 0.75225 0.0
C1364 C 0.85067 0.18962 0.71115 0.0
C1365 C 0.85172 0.20732 0.64565 0.0
N1366 N 0.81485 0.16213 0.73873 0.0
N1367 N 0.83536 0.19504 0.66131 0.0
H1368 H 0.01031 0.47255 0.60528 0.0
H1369 H 0.03422 0.54842 0.4484 0.0
H1370 H 0.04798 0.48217 0.51539 0.0
H1371 H -0.00343 0.53858 0.53846 0.0
H1372 H 0.04231 0.52684 0.47652 0.0
H1373 H 0.00759 0.49889 0.58469 0.0
C1374 C 0.01806 0.48024 0.58127 0.0
C1375 C 0.02925 0.47502 0.56182 0.0
C1376 C 0.03244 0.52956 0.49035 0.0
C1377 C 0.02621 0.50525 0.53808 0.0
C1378 C 0.02787 0.54196 0.47438 0.0
C1379 C 0.01452 0.54515 0.49084 0.0
C1380 C 0.02355 0.52025 0.52294 0.0
C1381 C 0.0068 0.53641 0.52457 0.0
C1382 C 0.01654 0.49532 0.56957 0.0
C1383 C 0.03909 0.4856 0.53108 0.0
N1384 N 0.01127 0.52422 0.53927 0.0
N1385 N 0.03724 0.50013 0.52002 0.0
H1386 H 0.49518 0.55126 0.49592 0.0
H1387 H 0.43209 0.44241 0.52165 0.0
H1388 H 0.49615 0.52171 0.59291 0.0
H1389 H 0.43082 0.47187 0.42477 0.0
H1390 H 0.45234 0.47184 0.55174 0.0
H1391 H 0.46904 0.52286 0.47247 0.0
C1392 C 0.48987 0.53882 0.51235 0.0
C1393 C 0.49801 0.53882 0.54626 0.0
C1394 C 0.44744 0.47189 0.52408 0.0
C1395 C 0.46802 0.50626 0.51959 0.0
C1396 C 0.4358 0.45507 0.50692 0.0
C1397 C 0.42997 0.45466 0.4704 0.0
C1398 C 0.4534 0.48841 0.50451 0.0
C1399 C 0.4351 0.47151 0.45282 0.0
C1400 C 0.47489 0.52261 0.49899 0.0
C1401 C 0.49043 0.52232 0.56648 0.0
N1402 N 0.44674 0.4877 0.46985 0.0
N1403 N 0.47594 0.50668 0.55272 0.0
H1404 H 0.55094 0.04031 0.44993 0.0
H1405 H 0.46546 0.97938 0.58297 0.0
H1406 H 0.55445 0.01127 0.54541 0.0
H1407 H 0.46185 0.00697 0.48517 0.0
H1408 H 0.49784 0.99033 0.56906 0.0
H1409 H 0.51819 0.02783 0.46209 0.0
C1410 C 0.54483 0.03131 0.47351 0.0
C1411 C 0.5555 0.02687 0.49676 0.0
C1412 C 0.48996 0.99394 0.55056 0.0
C1413 C 0.51789 0.01247 0.51081 0.0
C1414 C 0.47144 0.98768 0.55845 0.0
C1415 C 0.46092 0.99233 0.53525 0.0
C1416 C 0.49806 0.00497 0.51928 0.0
C1417 C 0.46943 0.00308 0.50387 0.0
C1418 C 0.52609 0.02415 0.48038 0.0
C1419 C 0.54678 0.01508 0.5268 0.0
N1420 N 0.48752 0.0091 0.49689 0.0
N1421 N 0.52848 0.00832 0.533 0.0
H1422 H 0.4587 -0.00014 0.96401 0.0
H1423 H 0.5498 0.03251 0.08542 0.0
H1424 H 0.48035 0.04608 0.03919 0.0
H1425 H 0.52929 0.98768 1.007 0.0
H1426 H 0.52374 0.03688 0.07077 0.0
H1427 H 0.48354 0.99415 0.98192 0.0
C1428 C 0.4686 0.00874 0.98448 0.0
C1429 C 0.46748 0.02353 1.00001 0.0
C1430 C 0.52493 0.02608 0.05678 0.0
C1431 C 0.49605 0.01713 0.02047 0.0
C1432 C 0.53983 0.02359 0.06508 0.0
C1433 C 0.54176 0.00974 0.04732 0.0
C1434 C 0.51184 0.01463 0.03054 0.0
C1435 C 0.52839 -0.00144 0.02129 0.0
C1436 C 0.48282 0.0055 0.99462 0.0
C1437 C 0.4807 0.03456 0.02643 0.0
N1438 N 0.514 0.00126 0.01368 0.0
N1439 N 0.49448 0.03118 0.0357 0.0
H1440 H 0.00836 0.54305 0.97943 0.0
H1441 H 0.94719 0.43353 1.00126 0.0
H1442 H 0.96839 0.51624 0.06641 0.0
H1443 H 0.98963 0.4607 0.91873 0.0
H1444 H 0.95212 0.4636 0.02103 0.0
H1445 H -0.00125 0.51295 0.95202 0.0
C1446 C -0.0026 0.53085 0.99256 0.0
C1447 C 0.98932 0.53216 0.02554 0.0
C1448 C 0.96027 0.46297 0.99845 0.0
C1449 C 0.97836 0.49761 0.99442 0.0
C1450 C 0.95748 0.4458 0.98715 0.0
C1451 C 0.96815 0.44461 0.95852 0.0
C1452 C 0.97383 0.47906 0.98101 0.0
C1453 C 0.9812 0.46096 0.94112 0.0
C1454 C 0.99196 0.51365 0.97692 0.0
C1455 C 0.9751 0.51588 0.04112 0.0
N1456 N 0.98374 0.47751 0.95278 0.0
N1457 N 0.9702 0.49926 0.02562 0.0
H1458 H 0.46865 0.4398 0.06784 0.0
H1459 H 0.5173 0.51289 0.90509 0.0
H1460 H 0.43925 0.44674 0.97691 0.0
H1461 H 0.5468 0.50677 0.99684 0.0
H1462 H 0.48895 0.48636 0.92752 0.0
H1463 H 0.49777 0.46142 0.0381 0.0
C1464 C 0.4683 0.44561 0.04132 0.0
C1465 C 0.45147 0.44164 0.0251 0.0
C1466 C 0.50164 0.49075 0.94266 0.0
C1467 C 0.48475 0.4666 0.99118 0.0
C1468 C 0.51783 0.50595 0.92993 0.0
C1469 C 0.53442 0.51218 0.94932 0.0
C1470 C 0.50199 0.48172 0.97511 0.0
C1471 C 0.5343 0.50254 0.98116 0.0
C1472 C 0.48495 0.45804 0.02445 0.0
C1473 C 0.45188 0.44955 0.99065 0.0
N1474 N 0.51831 0.48786 0.99318 0.0
N1475 N 0.46825 0.46181 0.97506 0.0
H1476 H 0.42078 0.10793 1.00623 0.0
H1477 H 0.42262 0.11099 0.22735 0.0
H1478 H 0.44556 0.08351 0.07352 0.0
H1479 H 0.38913 0.12549 0.16015 0.0
H1480 H 0.43674 0.10729 0.17122 0.0
H1481 H 0.41483 0.12064 0.06192 0.0
C1482 C 0.42531 0.10551 0.0326 0.0
C1483 C 0.43354 0.09442 0.03503 0.0
C1484 C 0.42651 0.11157 0.16879 0.0
C1485 C 0.42657 0.1089 0.09926 0.0
C1486 C 0.41851 0.11383 0.2009 0.0
C1487 C 0.40447 0.1184 0.19864 0.0
C1488 C 0.42053 0.11396 0.13401 0.0
C1489 C 0.39976 0.12182 0.1634 0.0
C1490 C 0.4218 0.11272 0.06448 0.0
C1491 C 0.43908 0.09185 0.07017 0.0
N1492 N 0.40761 0.11935 0.13257 0.0
N1493 N 0.43533 0.09885 0.10085 0.0
H1494 H 0.89126 0.32002 0.20607 0.0
H1495 H 0.8906 0.31465 0.98584 0.0
H1496 H 0.87255 0.26981 0.1437 0.0
H1497 H 0.91698 0.36572 0.04712 0.0
H1498 H 0.877 0.29799 0.04313 0.0
H1499 H 0.89385 0.33649 0.14845 0.0
C1500 C 0.88724 0.31233 0.18043 0.0
C1501 C 0.8819 0.2935 0.1798 0.0
C1502 C 0.8855 0.31288 0.044 0.0
C1503 C 0.88503 0.31238 0.11358 0.0
C1504 C 0.89321 0.32245 0.01118 0.0
C1505 C 0.90524 0.34164 0.01157 0.0
C1506 C 0.88985 0.32249 0.07768 0.0
C1507 C 0.90794 0.35093 0.04539 0.0
C1508 C 0.88885 0.3218 0.14746 0.0
C1509 C 0.87693 0.28435 0.1456 0.0
N1510 N 0.90058 0.34125 0.07713 0.0
N1511 N 0.87883 0.2939 0.11392 0.0
H1512 H 0.6648 0.57136 0.97295 0.0
H1513 H 0.65887 0.55925 0.19255 0.0
H1514 H 0.6135 0.5435 0.03323 0.0
H1515 H 0.70952 0.59164 0.1321 0.0
H1516 H 0.6424 0.54813 0.13387 0.0
H1517 H 0.68145 0.57362 0.02987 0.0
C1518 C 0.65697 0.56542 0.99799 0.0
C1519 C 0.63767 0.5574 0.99821 0.0
C1520 C 0.65717 0.55743 0.13347 0.0
C1521 C 0.65679 0.56016 0.06393 0.0
C1522 C 0.66663 0.5637 0.16703 0.0
C1523 C 0.68562 0.57659 0.1674 0.0
C1524 C 0.66674 0.56405 0.09996 0.0
C1525 C 0.69487 0.58186 0.1333 0.0
C1526 C 0.66653 0.56679 0.03061 0.0
C1527 C 0.62836 0.5499 0.03165 0.0
N1528 N 0.68533 0.57576 0.10108 0.0
N1529 N 0.63801 0.55167 0.06319 0.0
H1530 H 0.12913 0.39743 0.37988 0.0
H1531 H 0.07927 0.44663 0.47419 0.0
H1532 H 0.10811 0.42724 0.3185 0.0
H1533 H 0.10459 0.42062 0.53481 0.0
H1534 H 0.09423 0.44443 0.41787 0.0
H1535 H 0.12498 0.41042 0.43702 0.0
C1536 C 0.12402 0.40703 0.37829 0.0
C1537 C 0.11877 0.41105 0.34423 0.0
C1538 C 0.0968 0.43952 0.44362 0.0
C1539 C 0.11356 0.42572 0.40997 0.0
C1540 C 0.08832 0.44087 0.47593 0.0
C1541 C 0.09042 0.43356 0.50937 0.0
C1542 C 0.10738 0.4307 0.44462 0.0
C1543 C 0.10235 0.42626 0.5097 0.0
C1544 C 0.12157 0.41441 0.41104 0.0
C1545 C 0.11229 0.42367 0.34405 0.0
N1546 N 0.1101 0.42475 0.47781 0.0
N1547 N 0.10954 0.43027 0.37642 0.0
H1548 H 0.52639 0.61564 0.46484 0.0
H1549 H 0.57804 0.71417 0.36955 0.0
H1550 H 0.55139 0.6671 0.5248 0.0
H1551 H 0.55033 0.66309 0.30858 0.0
H1552 H 0.56323 0.69735 0.42602 0.0
H1553 H 0.52965 0.63259 0.40773 0.0
C1554 C 0.53214 0.63045 0.46623 0.0
C1555 C 0.53891 0.63995 0.49976 0.0
C1556 C 0.56009 0.68983 0.40023 0.0
C1557 C 0.54298 0.65953 0.4341 0.0
C1558 C 0.56851 0.69946 0.36785 0.0
C1559 C 0.56565 0.69003 0.33423 0.0
C1560 C 0.54887 0.67052 0.39924 0.0
C1561 C 0.55305 0.67096 0.33383 0.0
C1562 C 0.53409 0.64015 0.43347 0.0
C1563 C 0.54616 0.65916 0.49965 0.0
N1564 N 0.54541 0.66179 0.36593 0.0
N1565 N 0.5483 0.66832 0.46732 0.0
H1566 H 0.38834 0.93576 0.49636 0.0
H1567 H 0.28761 0.88058 0.40912 0.0
H1568 H 0.33848 0.90735 0.561 0.0
H1569 H 0.3374 0.90451 0.34385 0.0
H1570 H 0.30618 0.88654 0.46488 0.0
H1571 H 0.37043 0.92088 0.44074 0.0
C1572 C 0.37371 0.92609 0.49907 0.0
C1573 C 0.36494 0.923 0.53357 0.0
C1574 C 0.31306 0.89024 0.43835 0.0
C1575 C 0.34421 0.90611 0.4696 0.0
C1576 C 0.30242 0.88676 0.40637 0.0
C1577 C 0.3109 0.89218 0.37158 0.0
C1578 C 0.33241 0.89942 0.43577 0.0
C1579 C 0.3302 0.90012 0.36997 0.0
C1580 C 0.36345 0.91765 0.46717 0.0
C1581 C 0.34589 0.91031 0.5351 0.0
N1582 N 0.34029 0.90376 0.40158 0.0
N1583 N 0.33617 0.90258 0.50362 0.0
H1584 H 0.6005 0.88718 0.88283 0.0
H1585 H 0.56364 0.95165 0.95961 0.0
H1586 H 0.57149 0.90691 0.81515 0.0
H1587 H 0.58848 0.92731 0.02698 0.0
H1588 H 0.56132 0.93127 0.90869 0.0
H1589 H 0.59101 0.89715 0.93774 0.0
C1590 C 0.59178 0.89325 0.87957 0.0
C1591 C 0.58699 0.89642 0.84429 0.0
C1592 C 0.56696 0.93016 0.93485 0.0
C1593 C 0.57643 0.90838 0.90717 0.0
C1594 C 0.56824 0.94177 0.96399 0.0
C1595 C 0.57657 0.94144 0.99744 0.0
C1596 C 0.57412 0.91821 0.93921 0.0
C1597 C 0.58224 0.9283 1.00151 0.0
C1598 C 0.5864 0.89902 0.91098 0.0
C1599 C 0.57556 0.90425 0.8418 0.0
N1600 N 0.58115 0.91744 0.97265 0.0
N1601 N 0.57099 0.91032 0.87276 0.0
H1602 H 0.09327 0.6534 0.03364 0.0
H1603 H 0.10707 0.70581 0.87537 0.0
H1604 H 0.05667 0.60755 0.96454 0.0
H1605 H 0.08636 0.65483 0.8148 0.0
H1606 H 0.10358 0.68905 0.93259 0.0
H1607 H 0.10611 0.67237 0.97845 0.0
C1608 C 0.08806 0.64723 1.00685 0.0
C1609 C 0.07363 0.62886 1.00397 0.0
C1610 C 0.10028 0.68152 0.90685 0.0
C1611 C 0.08787 0.65081 0.94027 0.0
C1612 C 0.10221 0.69115 0.87396 0.0
C1613 C 0.09695 0.68178 0.84002 0.0
C1614 C 0.09295 0.66226 0.90598 0.0
C1615 C 0.0906 0.66271 0.84019 0.0
C1616 C 0.09523 0.6582 0.97522 0.0
C1617 C 0.06761 0.62167 0.96833 0.0
N1618 N 0.08852 0.65359 0.87259 0.0
N1619 N 0.07462 0.63268 0.93805 0.0
H1620 H 0.33286 0.39485 0.82599 0.0
H1621 H 0.38172 0.44793 0.97203 0.0
H1622 H 0.2831 0.38237 0.88473 0.0
H1623 H 0.33078 0.41768 0.03246 0.0
H1624 H 0.36439 0.4389 0.91443 0.0
H1625 H 0.35097 0.41617 0.87433 0.0
C1626 C 0.32571 0.39694 0.84879 0.0
C1627 C 0.30642 0.38664 0.85143 0.0
C1628 C 0.35689 0.43411 0.94012 0.0
C1629 C 0.32724 0.41154 0.90748 0.0
C1630 C 0.36682 0.4396 0.97314 0.0
C1631 C 0.35773 0.43326 1.00706 0.0
C1632 C 0.33777 0.42165 0.94098 0.0
C1633 C 0.33837 0.42276 1.0069 0.0
C1634 C 0.33612 0.40937 0.87648 0.0
C1635 C 0.29795 0.38999 0.8816 0.0
N1636 N 0.32908 0.41692 0.97434 0.0
N1637 N 0.30843 0.40189 0.9088 0.0
H1638 H 0.87939 0.58346 0.63439 0.0
H1639 H 0.94667 0.55 0.55511 0.0
H1640 H 0.91183 0.56855 0.70386 0.0
H1641 H 0.90691 0.55511 0.48769 0.0
H1642 H 0.93247 0.55448 0.61023 0.0
H1643 H 0.88741 0.57089 0.58108 0.0
C1644 C 0.88793 0.57725 0.63863 0.0
C1645 C 0.89501 0.5772 0.67382 0.0
C1646 C 0.92667 0.55437 0.58344 0.0
C1647 C 0.90457 0.56303 0.61246 0.0
C1648 C 0.93477 0.55177 0.55186 0.0
C1649 C 0.92808 0.55227 0.51652 0.0
C1650 C 0.91187 0.55774 0.57982 0.0
C1651 C 0.91259 0.55462 0.51425 0.0
C1652 C 0.89256 0.57011 0.60807 0.0
C1653 C 0.90604 0.56895 0.67738 0.0
N1654 N 0.90519 0.55751 0.54535 0.0
N1655 N 0.91067 0.56246 0.64709 0.0
H1656 H 0.39143 0.33497 0.6752 0.0
H1657 H 0.42319 0.33953 0.46672 0.0
H1658 H 0.37754 0.28662 0.60981 0.0
H1659 H 0.43324 0.38674 0.53227 0.0
H1660 H 0.41305 0.32042 0.52251 0.0
H1661 H 0.41301 0.35417 0.62749 0.0
C1662 C 0.39312 0.32835 0.65097 0.0
C1663 C 0.38242 0.30918 0.6462 0.0
C1664 C 0.41787 0.33504 0.5248 0.0
C1665 C 0.407 0.3312 0.59094 0.0
C1666 C 0.42382 0.34601 0.49298 0.0
C1667 C 0.42878 0.36472 0.49472 0.0
C1668 C 0.41694 0.34288 0.55851 0.0
C1669 C 0.42926 0.37233 0.52952 0.0
C1670 C 0.40547 0.33935 0.62367 0.0
C1671 C 0.38541 0.30137 0.61448 0.0
N1672 N 0.42314 0.36134 0.55986 0.0
N1673 N 0.39718 0.31244 0.58769 0.0
H1674 H 0.62032 0.091 0.54352 0.0
H1675 H 0.71199 0.13481 0.66044 0.0
H1676 H 0.67482 0.12092 0.49589 0.0
H1677 H 0.65755 0.10965 0.70855 0.0
H1678 H 0.69887 0.13611 0.60107 0.0
H1679 H 0.63351 0.10363 0.60396 0.0
C1680 C 0.635 0.10057 0.54554 0.0
C1681 C 0.6465 0.10455 0.51459 0.0
C1682 C 0.68983 0.13067 0.62477 0.0
C1683 C 0.66178 0.11884 0.58403 0.0
C1684 C 0.69734 0.13 0.65882 0.0
C1685 C 0.68582 0.12171 0.68945 0.0
C1686 C 0.67061 0.12279 0.62116 0.0
C1687 C 0.66697 0.1159 0.68562 0.0
C1688 C 0.64255 0.10775 0.58018 0.0
C1689 C 0.66542 0.1172 0.519 0.0
N1690 N 0.6599 0.11615 0.65194 0.0
N1691 N 0.6725 0.12357 0.55315 0.0
H1692 H 0.75716 0.70387 0.71968 0.0
H1693 H 0.71943 0.76728 0.80034 0.0
H1694 H 0.7478 0.74088 0.65198 0.0
H1695 H 0.73995 0.73935 0.86924 0.0
H1696 H 0.73157 0.75945 0.74609 0.0
H1697 H 0.7528 0.71813 0.77484 0.0
C1698 C 0.75446 0.71518 0.71636 0.0
C1699 C 0.75275 0.72108 0.68098 0.0
C1700 C 0.73366 0.75526 0.77311 0.0
C1701 C 0.74742 0.73734 0.74432 0.0
C1702 C 0.72675 0.75976 0.80419 0.0
C1703 C 0.72854 0.75389 0.83955 0.0
C1704 C 0.74223 0.74456 0.77719 0.0
C1705 C 0.7382 0.74418 0.84264 0.0
C1706 C 0.75195 0.72332 0.74795 0.0
C1707 C 0.74924 0.73584 0.67859 0.0
N1708 N 0.74443 0.73961 0.81189 0.0
N1709 N 0.74645 0.74326 0.70974 0.0
H1710 H 0.2354 0.99481 0.67646 0.0
H1711 H 0.23316 0.9885 0.89761 0.0
H1712 H 0.265 0.04195 0.74789 0.0
H1713 H 0.21582 0.94148 0.82588 0.0
H1714 H 0.23882 0.00803 0.84327 0.0
H1715 H 0.22232 0.97521 0.73096 0.0
C1716 C 0.23891 0.00114 0.70353 0.0
C1717 C 0.25148 0.02011 0.70743 0.0
C1718 C 0.23353 0.99339 0.83945 0.0
C1719 C 0.23653 -0.0024 0.77019 0.0
C1720 C 0.23015 0.98217 0.87053 0.0
C1721 C 0.22411 0.96327 0.86647 0.0
C1722 C 0.23075 0.98571 0.8039 0.0
C1723 C 0.22057 0.95596 0.83048 0.0
C1724 C 0.23149 0.98988 0.7347 0.0
C1725 C 0.25548 0.02742 0.74341 0.0
N1726 N 0.22406 0.96719 0.80068 0.0
N1727 N 0.24815 0.01616 0.77331 0.0
H1728 H -0.00678 0.23792 0.65142 0.0
H1729 H 0.00172 0.24344 0.87221 0.0
H1730 H 0.94708 0.22373 0.72391 0.0
H1731 H 0.04785 0.27414 0.79901 0.0
H1732 H 0.98163 0.23004 0.81837 0.0
H1733 H 0.01322 0.24503 0.7055 0.0
C1734 C 0.98719 0.23596 0.67868 0.0
C1735 C 0.96839 0.2303 0.68299 0.0
C1736 C -0.00381 0.23954 0.81413 0.0
C1737 C 0.99134 0.23849 0.74516 0.0
C1738 C 0.00773 0.24712 0.84487 0.0
C1739 C 0.02655 0.26005 0.84024 0.0
C1740 C 0.00351 0.24473 0.77838 0.0
C1741 C 0.03344 0.26433 0.804 0.0
C1742 C -0.00132 0.24015 0.70956 0.0
C1743 C 0.96147 0.22813 0.71915 0.0
N1744 N 0.02194 0.25675 0.77454 0.0
N1745 N 0.97293 0.23229 0.74877 0.0
H1746 H 0.1996 0.20982 0.1443 0.0
H1747 H 0.21414 0.19874 0.35688 0.0
H1748 H 0.23338 0.18842 0.1871 0.0
H1749 H 0.18759 0.22779 0.31387 0.0
H1750 H 0.2123 0.18567 0.29571 0.0
H1751 H 0.18652 0.20711 0.20578 0.0
C1752 C 0.20395 0.2041 0.16636 0.0
C1753 C 0.21802 0.19983 0.16065 0.0
C1754 C 0.20648 0.19456 0.29985 0.0
C1755 C 0.20321 0.1969 0.23133 0.0
C1756 C 0.20742 0.20197 0.3349 0.0
C1757 C 0.20148 0.21483 0.34037 0.0
C1758 C 0.19958 0.20007 0.27006 0.0
C1759 C 0.19271 0.21826 0.31083 0.0
C1760 C 0.1965 0.20262 0.20156 0.0
C1761 C 0.22286 0.19225 0.1903 0.0
N1762 N 0.19239 0.21125 0.27678 0.0
N1763 N 0.21576 0.19139 0.2245 0.0
H1764 H 0.76985 0.04101 0.23576 0.0
H1765 H 0.7255 0.94118 0.3272 0.0
H1766 H 0.7368 0.98966 0.17796 0.0
H1767 H 0.75306 0.99175 0.38982 0.0
H1768 H 0.73667 0.95897 0.27032 0.0
H1769 H 0.77052 0.02357 0.28968 0.0
C1770 C 0.7631 0.02611 0.23407 0.0
C1771 C 0.75301 0.01677 0.20248 0.0
C1772 C 0.74059 0.9662 0.29648 0.0
C1773 C 0.75365 -0.00325 0.26406 0.0
C1774 C 0.73429 0.95601 0.32905 0.0
C1775 C 0.73809 0.96499 0.36336 0.0
C1776 C 0.7506 0.98557 0.29806 0.0
C1777 C 0.74969 0.98425 0.36399 0.0
C1778 C 0.76342 0.01616 0.26493 0.0
C1779 C 0.74452 -0.00256 0.2019 0.0
N1780 N 0.75522 0.99394 0.33178 0.0
N1781 N 0.74486 0.9881 0.2323 0.0
H1782 H -0.0067 0.76646 0.35696 0.0
H1783 H -0.00469 0.76321 0.13661 0.0
H1784 H 0.0428 0.78354 0.29311 0.0
H1785 H 0.9456 0.73847 0.20217 0.0
H1786 H 0.01324 0.7777 0.19246 0.0
H1787 H 0.97645 0.76342 0.2999 0.0
C1788 C 0.00077 0.77002 0.33106 0.0
C1789 C 0.0195 0.775 0.32998 0.0
C1790 C -0.00162 0.76938 0.1945 0.0
C1791 C 0.0001 0.77126 0.26418 0.0
C1792 C 0.98808 0.76119 0.16252 0.0
C1793 C 0.96888 0.74937 0.16464 0.0
C1794 C 0.98944 0.76579 0.22891 0.0
C1795 C 0.96036 0.74728 0.19916 0.0
C1796 C 0.99108 0.76816 0.29838 0.0
C1797 C 0.02836 0.77949 0.29542 0.0
N1798 N 0.9707 0.75519 0.2299 0.0
N1799 N 0.01854 0.77723 0.26392 0.0
loop_
_geom_bond_atom_site_label_1
_geom_bond_atom_site_label_2
_geom_bond_distance
_geom_bond_site_symmetry_2
_ccdc_geom_bond_type
Zn0 O3 2.031 . S
Zn0 O5 2.049 . S
Zn0 O10 2.067 . S
Zn1 O2 1.962 . S
Zn1 O4 1.986 . S
Zn1 O6 1.996 . S
Zn1 O9 1.943 . S
O2 Zn1 1.962 . S
O2 C7 1.254 . S
O3 Zn0 2.031 . S
O3 C7 1.269 . S
O4 Zn1 1.986 . S
O4 C11 1.262 . S
O5 Zn0 2.049 . S
O5 C13 1.260 . S
O6 Zn1 1.996 . S
O6 C13 1.257 . S
C7 O2 1.254 . S
C7 O3 1.269 . S
C8 O9 1.249 . S
C8 O10 1.270 . S
O9 Zn1 1.943 . S
O9 C8 1.249 . S
O10 Zn0 2.067 . S
O10 C8 1.270 . S
C11 O4 1.262 . S
C11 O12 1.232 . S
O12 C11 1.232 . S
C13 O5 1.260 . S
C13 O6 1.257 . S
Zn14 O17 2.031 . S
Zn14 O19 2.049 . S
Zn14 O24 2.067 . S
Zn15 O16 1.962 . S
Zn15 O18 1.986 . S
Zn15 O20 1.996 . S
Zn15 O23 1.943 . S
O16 Zn15 1.962 . S
O16 C21 1.254 . S
O17 Zn14 2.031 . S
O17 C21 1.269 . S
O18 Zn15 1.986 . S
O18 C25 1.262 . S
O19 Zn14 2.049 . S
O19 C27 1.260 . S
O20 Zn15 1.996 . S
O20 C27 1.257 . S
C21 O16 1.254 . S
C21 O17 1.269 . S
C22 O23 1.249 . S
C22 O24 1.270 . S
O23 Zn15 1.943 . S
O23 C22 1.249 . S
O24 Zn14 2.067 . S
O24 C22 1.270 . S
C25 O18 1.262 . S
C25 O26 1.232 . S
O26 C25 1.232 . S
C27 O19 1.260 . S
C27 O20 1.257 . S
Zn28 O31 2.031 . S
Zn28 O33 2.049 . S
Zn28 O38 2.067 . S
Zn29 O30 1.962 . S
Zn29 O32 1.986 . S
Zn29 O34 1.996 . S
Zn29 O37 1.943 . S
O30 Zn29 1.962 . S
O30 C35 1.254 . S
O31 Zn28 2.031 . S
O31 C35 1.269 . S
O32 Zn29 1.986 . S
O32 C39 1.262 . S
O33 Zn28 2.049 . S
O33 C41 1.260 . S
O34 Zn29 1.996 . S
O34 C41 1.257 . S
C35 O30 1.254 . S
C35 O31 1.269 . S
C36 O37 1.249 . S
C36 O38 1.270 . S
O37 Zn29 1.943 . S
O37 C36 1.249 . S
O38 Zn28 2.067 . S
O38 C36 1.270 . S
C39 O32 1.262 . S
C39 O40 1.232 . S
O40 C39 1.232 . S
C41 O33 1.260 . S
C41 O34 1.257 . S
Zn42 O45 2.031 . S
Zn42 O47 2.049 . S
Zn42 O52 2.067 . S
Zn43 O44 1.962 . S
Zn43 O46 1.986 . S
Zn43 O48 1.996 . S
Zn43 O51 1.943 . S
O44 Zn43 1.962 . S
O44 C49 1.254 . S
O45 Zn42 2.031 . S
O45 C49 1.269 . S
O46 Zn43 1.986 . S
O46 C53 1.262 . S
O47 Zn42 2.049 . S
O47 C55 1.260 . S
O48 Zn43 1.996 . S
O48 C55 1.257 . S
C49 O44 1.254 . S
C49 O45 1.269 . S
C50 O51 1.249 . S
C50 O52 1.270 . S
O51 Zn43 1.943 . S
O51 C50 1.249 . S
O52 Zn42 2.067 . S
O52 C50 1.270 . S
C53 O46 1.262 . S
C53 O54 1.232 . S
O54 C53 1.232 . S
C55 O47 1.260 . S
C55 O48 1.257 . S
Zn56 O59 2.031 . S
Zn56 O61 2.049 . S
Zn56 O66 2.067 . S
Zn57 O58 1.962 . S
Zn57 O60 1.986 . S
Zn57 O62 1.996 . S
Zn57 O65 1.943 . S
O58 Zn57 1.962 . S
O58 C63 1.254 . S
O59 Zn56 2.031 . S
O59 C63 1.269 . S
O60 Zn57 1.986 . S
O60 C67 1.262 . S
O61 Zn56 2.049 . S
O61 C69 1.260 . S
O62 Zn57 1.996 . S
O62 C69 1.257 . S
C63 O58 1.254 . S
C63 O59 1.269 . S
C64 O65 1.249 . S
C64 O66 1.270 . S
O65 Zn57 1.943 . S
O65 C64 1.249 . S
O66 Zn56 2.067 . S
O66 C64 1.270 . S
C67 O60 1.262 . S
C67 O68 1.232 . S
O68 C67 1.232 . S
C69 O61 1.260 . S
C69 O62 1.257 . S
Zn70 O73 2.031 . S
Zn70 O75 2.049 . S
Zn70 O80 2.067 . S
Zn71 O72 1.962 . S
Zn71 O74 1.986 . S
Zn71 O76 1.996 . S
Zn71 O79 1.943 . S
O72 Zn71 1.962 . S
O72 C77 1.254 . S
O73 Zn70 2.031 . S
O73 C77 1.269 . S
O74 Zn71 1.986 . S
O74 C81 1.262 . S
O75 Zn70 2.049 . S
O75 C83 1.260 . S
O76 Zn71 1.996 . S
O76 C83 1.257 . S
C77 O72 1.254 . S
C77 O73 1.269 . S
C78 O79 1.249 . S
C78 O80 1.270 . S
O79 Zn71 1.943 . S
O79 C78 1.249 . S
O80 Zn70 2.067 . S
O80 C78 1.270 . S
C81 O74 1.262 . S
C81 O82 1.232 . S
O82 C81 1.232 . S
C83 O75 1.260 . S
C83 O76 1.257 . S
Zn84 O87 2.031 . S
Zn84 O89 2.049 . S
Zn84 O94 2.067 . S
Zn85 O86 1.962 . S
Zn85 O88 1.986 . S
Zn85 O90 1.996 . S
Zn85 O93 1.943 . S
O86 Zn85 1.962 . S
O86 C91 1.254 . S
O87 Zn84 2.031 . S
O87 C91 1.269 . S
O88 Zn85 1.986 . S
O88 C95 1.262 . S
O89 Zn84 2.049 . S
O89 C97 1.260 . S
O90 Zn85 1.996 . S
O90 C97 1.257 . S
C91 O86 1.254 . S
C91 O87 1.269 . S
C92 O93 1.249 . S
C92 O94 1.270 . S
O93 Zn85 1.943 . S
O93 C92 1.249 . S
O94 Zn84 2.067 . S
O94 C92 1.270 . S
C95 O88 1.262 . S
C95 O96 1.232 . S
O96 C95 1.232 . S
C97 O89 1.260 . S
C97 O90 1.257 . S
Zn98 O101 2.031 . S
Zn98 O103 2.049 . S
Zn98 O108 2.067 . S
Zn99 O100 1.962 . S
Zn99 O102 1.986 . S
Zn99 O104 1.996 . S
Zn99 O107 1.943 . S
O100 Zn99 1.962 . S
O100 C105 1.254 . S
O101 Zn98 2.031 . S
O101 C105 1.269 . S
O102 Zn99 1.986 . S
O102 C109 1.262 . S
O103 Zn98 2.049 . S
O103 C111 1.260 . S
O104 Zn99 1.996 . S
O104 C111 1.257 . S
C105 O100 1.254 . S
C105 O101 1.269 . S
C106 O107 1.249 . S
C106 O108 1.270 . S
O107 Zn99 1.943 . S
O107 C106 1.249 . S
O108 Zn98 2.067 . S
O108 C106 1.270 . S
C109 O102 1.262 . S
C109 O110 1.232 . S
O110 C109 1.232 . S
C111 O103 1.260 . S
C111 O104 1.257 . S
Zn112 O115 2.031 . S
Zn112 O117 2.049 . S
Zn112 O122 2.067 . S
Zn113 O114 1.962 . S
Zn113 O116 1.986 . S
Zn113 O118 1.996 . S
Zn113 O121 1.943 . S
O114 Zn113 1.962 . S
O114 C119 1.254 . S
O115 Zn112 2.031 . S
O115 C119 1.269 . S
O116 Zn113 1.986 . S
O116 C123 1.262 . S
O117 Zn112 2.049 . S
O117 C125 1.260 . S
O118 Zn113 1.996 . S
O118 C125 1.257 . S
C119 O114 1.254 . S
C119 O115 1.269 . S
C120 O121 1.249 . S
C120 O122 1.270 . S
O121 Zn113 1.943 . S
O121 C120 1.249 . S
O122 Zn112 2.067 . S
O122 C120 1.270 . S
C123 O116 1.262 . S
C123 O124 1.232 . S
O124 C123 1.232 . S
C125 O117 1.260 . S
C125 O118 1.257 . S
Zn126 O129 2.031 . S
Zn126 O131 2.049 . S
Zn126 O136 2.067 . S
Zn127 O128 1.962 . S
Zn127 O130 1.986 . S
Zn127 O132 1.996 . S
Zn127 O135 1.943 . S
O128 Zn127 1.962 . S
O128 C133 1.254 . S
O129 Zn126 2.031 . S
O129 C133 1.269 . S
O130 Zn127 1.986 . S
O130 C137 1.262 . S
O131 Zn126 2.049 . S
O131 C139 1.260 . S
O132 Zn127 1.996 . S
O132 C139 1.257 . S
C133 O128 1.254 . S
C133 O129 1.269 . S
C134 O135 1.249 . S
C134 O136 1.270 . S
O135 Zn127 1.943 . S
O135 C134 1.249 . S
O136 Zn126 2.067 . S
O136 C134 1.270 . S
C137 O130 1.262 . S
C137 O138 1.232 . S
O138 C137 1.232 . S
C139 O131 1.260 . S
C139 O132 1.257 . S
Zn140 O143 2.031 . S
Zn140 O145 2.049 . S
Zn140 O150 2.067 . S
Zn141 O142 1.962 . S
Zn141 O144 1.986 . S
Zn141 O146 1.996 . S
Zn141 O149 1.943 . S
O142 Zn141 1.962 . S
O142 C147 1.254 . S
O143 Zn140 2.031 . S
O143 C147 1.269 . S
O144 Zn141 1.986 . S
O144 C151 1.262 . S
O145 Zn140 2.049 . S
O145 C153 1.260 . S
O146 Zn141 1.996 . S
O146 C153 1.257 . S
C147 O142 1.254 . S
C147 O143 1.269 . S
C148 O149 1.249 . S
C148 O150 1.270 . S
O149 Zn141 1.943 . S
O149 C148 1.249 . S
O150 Zn140 2.067 . S
O150 C148 1.270 . S
C151 O144 1.262 . S
C151 O152 1.232 . S
O152 C151 1.232 . S
C153 O145 1.260 . S
C153 O146 1.257 . S
Zn154 O157 2.031 . S
Zn154 O159 2.049 . S
Zn154 O164 2.067 . S
Zn155 O156 1.962 . S
Zn155 O158 1.986 . S
Zn155 O160 1.996 . S
Zn155 O163 1.943 . S
O156 Zn155 1.962 . S
O156 C161 1.254 . S
O157 Zn154 2.031 . S
O157 C161 1.269 . S
O158 Zn155 1.986 . S
O158 C165 1.262 . S
O159 Zn154 2.049 . S
O159 C167 1.260 . S
O160 Zn155 1.996 . S
O160 C167 1.257 . S
C161 O156 1.254 . S
C161 O157 1.269 . S
C162 O163 1.249 . S
C162 O164 1.270 . S
O163 Zn155 1.943 . S
O163 C162 1.249 . S
O164 Zn154 2.067 . S
O164 C162 1.270 . S
C165 O158 1.262 . S
C165 O166 1.232 . S
O166 C165 1.232 . S
C167 O159 1.260 . S
C167 O160 1.257 . S
Zn168 O171 2.031 . S
Zn168 O173 2.049 . S
Zn168 O178 2.067 1_455 S
Zn169 O170 1.962 . S
Zn169 O172 1.986 . S
Zn169 O174 1.996 . S
Zn169 O177 1.943 1_455 S
O170 Zn169 1.962 . S
O170 C175 1.254 . S
O171 Zn168 2.031 . S
O171 C175 1.269 . S
O172 Zn169 1.986 . S
O172 C179 1.259 1_455 S
O173 Zn168 2.049 . S
O173 C181 1.260 . S
O174 Zn169 1.996 . S
O174 C181 1.257 . S
C175 O170 1.254 . S
C175 O171 1.269 . S
C176 O177 1.249 . S
C176 O178 1.270 . S
O177 Zn169 1.943 1_655 S
O177 C176 1.249 . S
O178 Zn168 2.067 1_655 S
O178 C176 1.270 . S
C179 O172 1.259 1_655 S
C179 O180 1.229 . S
O180 C179 1.229 . S
C181 O173 1.260 . S
C181 O174 1.257 . S
Zn182 O185 2.031 . S
Zn182 O187 2.049 . S
Zn182 O192 2.067 . S
Zn183 O184 1.962 . S
Zn183 O186 1.986 . S
Zn183 O188 1.996 . S
Zn183 O191 1.943 . S
O184 Zn183 1.962 . S
O184 C189 1.254 . S
O185 Zn182 2.031 . S
O185 C189 1.269 . S
O186 Zn183 1.986 . S
O186 C193 1.262 . S
O187 Zn182 2.049 . S
O187 C195 1.260 . S
O188 Zn183 1.996 . S
O188 C195 1.257 . S
C189 O184 1.254 . S
C189 O185 1.269 . S
C190 O191 1.249 . S
C190 O192 1.270 . S
O191 Zn183 1.943 . S
O191 C190 1.249 . S
O192 Zn182 2.067 . S
O192 C190 1.270 . S
C193 O186 1.262 . S
C193 O194 1.232 . S
O194 C193 1.232 . S
C195 O187 1.260 . S
C195 O188 1.257 . S
Zn196 O199 2.031 . S
Zn196 O201 2.049 . S
Zn196 O206 2.067 1_565 S
Zn197 O198 1.962 . S
Zn197 O200 1.986 . S
Zn197 O202 1.996 . S
Zn197 O205 1.943 1_565 S
O198 Zn197 1.962 . S
O198 C203 1.254 . S
O199 Zn196 2.031 . S
O199 C203 1.269 . S
O200 Zn197 1.986 . S
O200 C207 1.263 1_565 S
O201 Zn196 2.049 . S
O201 C209 1.260 . S
O202 Zn197 1.996 . S
O202 C209 1.257 . S
C203 O198 1.254 . S
C203 O199 1.269 . S
C204 O205 1.249 . S
C204 O206 1.270 . S
O205 Zn197 1.943 1_545 S
O205 C204 1.249 . S
O206 Zn196 2.067 1_545 S
O206 C204 1.270 . S
C207 O200 1.263 1_545 S
C207 O208 1.206 . S
O208 C207 1.206 . S
C209 O201 1.260 . S
C209 O202 1.257 . S
Zn210 O213 2.031 . S
Zn210 O215 2.049 . S
Zn210 O220 2.067 . S
Zn211 O212 1.962 . S
Zn211 O214 1.986 . S
Zn211 O216 1.996 . S
Zn211 O219 1.943 . S
O212 Zn211 1.962 . S
O212 C217 1.254 . S
O213 Zn210 2.031 . S
O213 C217 1.269 . S
O214 Zn211 1.986 . S
O214 C221 1.262 . S
O215 Zn210 2.049 . S
O215 C223 1.260 . S
O216 Zn211 1.996 . S
O216 C223 1.257 . S
C217 O212 1.254 . S
C217 O213 1.269 . S
C218 O219 1.249 . S
C218 O220 1.270 . S
O219 Zn211 1.943 . S
O219 C218 1.249 . S
O220 Zn210 2.067 . S
O220 C218 1.270 . S
C221 O214 1.262 . S
C221 O222 1.232 . S
O222 C221 1.232 . S
C223 O215 1.260 . S
C223 O216 1.257 . S
Zn224 O227 2.031 . S
Zn224 O229 2.049 . S
Zn224 O234 2.067 . S
Zn225 O226 1.962 . S
Zn225 O228 1.986 . S
Zn225 O230 1.996 . S
Zn225 O233 1.943 . S
O226 Zn225 1.962 . S
O226 C231 1.254 . S
O227 Zn224 2.031 . S
O227 C231 1.269 . S
O228 Zn225 1.986 . S
O228 C235 1.262 . S
O229 Zn224 2.049 . S
O229 C237 1.260 . S
O230 Zn225 1.996 . S
O230 C237 1.257 . S
C231 O226 1.254 . S
C231 O227 1.269 . S
C232 O233 1.249 . S
C232 O234 1.270 . S
O233 Zn225 1.943 . S
O233 C232 1.249 . S
O234 Zn224 2.067 . S
O234 C232 1.270 . S
C235 O228 1.262 . S
C235 O236 1.232 . S
O236 C235 1.232 . S
C237 O229 1.260 . S
C237 O230 1.257 . S
Zn238 O241 2.031 . S
Zn238 O243 2.049 . S
Zn238 O248 2.067 . S
Zn239 O240 1.962 . S
Zn239 O242 1.986 . S
Zn239 O244 1.996 . S
Zn239 O247 1.943 . S
O240 Zn239 1.962 . S
O240 C245 1.254 . S
O241 Zn238 2.031 . S
O241 C245 1.269 . S
O242 Zn239 1.986 . S
O242 C249 1.262 . S
O243 Zn238 2.049 . S
O243 C251 1.260 . S
O244 Zn239 1.996 . S
O244 C251 1.257 . S
C245 O240 1.254 . S
C245 O241 1.269 . S
C246 O247 1.249 . S
C246 O248 1.270 . S
O247 Zn239 1.943 . S
O247 C246 1.249 . S
O248 Zn238 2.067 . S
O248 C246 1.270 . S
C249 O242 1.262 . S
C249 O250 1.232 . S
O250 C249 1.232 . S
C251 O243 1.260 . S
C251 O244 1.257 . S
Zn252 O255 2.031 . S
Zn252 O257 2.049 . S
Zn252 O262 2.067 . S
Zn253 O254 1.962 . S
Zn253 O256 1.986 . S
Zn253 O258 1.996 . S
Zn253 O261 1.943 . S
O254 Zn253 1.962 . S
O254 C259 1.254 . S
O255 Zn252 2.031 . S
O255 C259 1.269 . S
O256 Zn253 1.986 . S
O256 C263 1.262 . S
O257 Zn252 2.049 . S
O257 C265 1.260 . S
O258 Zn253 1.996 . S
O258 C265 1.257 . S
C259 O254 1.254 . S
C259 O255 1.269 . S
C260 O261 1.249 . S
C260 O262 1.270 . S
O261 Zn253 1.943 . S
O261 C260 1.249 . S
O262 Zn252 2.067 . S
O262 C260 1.270 . S
C263 O256 1.262 . S
C263 O264 1.232 . S
O264 C263 1.232 . S
C265 O257 1.260 . S
C265 O258 1.257 . S
Zn266 O269 2.031 . S
Zn266 O271 2.049 . S
Zn266 O276 2.067 . S
Zn267 O268 1.962 . S
Zn267 O270 1.986 . S
Zn267 O272 1.996 . S
Zn267 O275 1.943 . S
O268 Zn267 1.962 . S
O268 C273 1.254 . S
O269 Zn266 2.031 . S
O269 C273 1.269 . S
O270 Zn267 1.986 . S
O270 C277 1.262 . S
O271 Zn266 2.049 . S
O271 C279 1.260 . S
O272 Zn267 1.996 . S
O272 C279 1.257 . S
C273 O268 1.254 . S
C273 O269 1.269 . S
C274 O275 1.249 . S
C274 O276 1.270 . S
O275 Zn267 1.943 . S
O275 C274 1.249 . S
O276 Zn266 2.067 . S
O276 C274 1.270 . S
C277 O270 1.262 . S
C277 O278 1.232 . S
O278 C277 1.232 . S
C279 O271 1.260 . S
C279 O272 1.257 . S
Zn280 O283 2.031 . S
Zn280 O285 2.049 . S
Zn280 O290 2.067 . S
Zn281 O282 1.962 . S
Zn281 O284 1.986 . S
Zn281 O286 1.996 . S
Zn281 O289 1.943 . S
O282 Zn281 1.962 . S
O282 C287 1.254 . S
O283 Zn280 2.031 . S
O283 C287 1.269 . S
O284 Zn281 1.986 . S
O284 C291 1.262 . S
O285 Zn280 2.049 . S
O285 C293 1.260 . S
O286 Zn281 1.996 . S
O286 C293 1.257 . S
C287 O282 1.254 . S
C287 O283 1.269 . S
C288 O289 1.249 . S
C288 O290 1.270 . S
O289 Zn281 1.943 . S
O289 C288 1.249 . S
O290 Zn280 2.067 . S
O290 C288 1.270 . S
C291 O284 1.262 . S
C291 O292 1.232 . S
O292 C291 1.232 . S
C293 O285 1.260 . S
C293 O286 1.257 . S
Zn294 O297 2.031 . S
Zn294 O299 2.049 . S
Zn294 O304 2.067 1_565 S
Zn295 O296 1.962 . S
Zn295 O298 1.986 . S
Zn295 O300 1.996 . S
Zn295 O303 1.943 1_565 S
O296 Zn295 1.962 . S
O296 C301 1.254 . S
O297 Zn294 2.031 . S
O297 C301 1.269 . S
O298 Zn295 1.986 . S
O298 C305 1.259 1_565 S
O299 Zn294 2.049 . S
O299 C307 1.260 . S
O300 Zn295 1.996 . S
O300 C307 1.257 . S
C301 O296 1.254 . S
C301 O297 1.269 . S
C302 O303 1.249 . S
C302 O304 1.270 . S
O303 Zn295 1.943 1_545 S
O303 C302 1.249 . S
O304 Zn294 2.067 1_545 S
O304 C302 1.270 . S
C305 O298 1.259 1_545 S
C305 O306 1.229 . S
O306 C305 1.229 . S
C307 O299 1.260 . S
C307 O300 1.257 . S
Zn308 O311 2.031 . S
Zn308 O313 2.049 . S
Zn308 O318 2.067 1_455 S
Zn309 O310 1.962 . S
Zn309 O312 1.986 . S
Zn309 O314 1.996 . S
Zn309 O317 1.943 1_455 S
O310 Zn309 1.962 . S
O310 C315 1.254 . S
O311 Zn308 2.031 . S
O311 C315 1.269 . S
O312 Zn309 1.986 . S
O312 C319 1.263 1_455 S
O313 Zn308 2.049 . S
O313 C321 1.260 . S
O314 Zn309 1.996 . S
O314 C321 1.257 . S
C315 O310 1.254 . S
C315 O311 1.269 . S
C316 O317 1.249 . S
C316 O318 1.270 . S
O317 Zn309 1.943 1_655 S
O317 C316 1.249 . S
O318 Zn308 2.067 1_655 S
O318 C316 1.270 . S
C319 O312 1.263 1_655 S
C319 O320 1.206 . S
O320 C319 1.206 . S
C321 O313 1.260 . S
C321 O314 1.257 . S
Zn322 O325 2.031 . S
Zn322 O327 2.049 . S
Zn322 O332 2.067 . S
Zn323 O324 1.962 . S
Zn323 O326 1.986 . S
Zn323 O328 1.996 . S
Zn323 O331 1.943 . S
O324 Zn323 1.962 . S
O324 C329 1.254 . S
O325 Zn322 2.031 . S
O325 C329 1.269 . S
O326 Zn323 1.986 . S
O326 C333 1.262 . S
O327 Zn322 2.049 . S
O327 C335 1.260 . S
O328 Zn323 1.996 . S
O328 C335 1.257 . S
C329 O324 1.254 . S
C329 O325 1.269 . S
C330 O331 1.249 . S
C330 O332 1.270 . S
O331 Zn323 1.943 . S
O331 C330 1.249 . S
O332 Zn322 2.067 . S
O332 C330 1.270 . S
C333 O326 1.262 . S
C333 O334 1.232 . S
O334 C333 1.232 . S
C335 O327 1.260 . S
C335 O328 1.257 . S
Zn336 O339 2.031 . S
Zn336 O341 2.049 . S
Zn336 O346 2.067 . S
Zn337 O338 1.962 . S
Zn337 O340 1.986 . S
Zn337 O342 1.996 . S
Zn337 O345 1.943 . S
O338 Zn337 1.962 . S
O338 C343 1.254 . S
O339 Zn336 2.031 . S
O339 C343 1.269 . S
O340 Zn337 1.986 . S
O340 C347 1.262 . S
O341 Zn336 2.049 . S
O341 C349 1.260 . S
O342 Zn337 1.996 . S
O342 C349 1.257 . S
C343 O338 1.254 . S
C343 O339 1.269 . S
C344 O345 1.249 . S
C344 O346 1.270 . S
O345 Zn337 1.943 . S
O345 C344 1.249 . S
O346 Zn336 2.067 . S
O346 C344 1.270 . S
C347 O340 1.262 . S
C347 O348 1.232 . S
O348 C347 1.232 . S
C349 O341 1.260 . S
C349 O342 1.257 . S
Zn350 O353 2.031 . S
Zn350 O355 2.049 . S
Zn350 O360 2.067 . S
Zn351 O352 1.962 . S
Zn351 O354 1.986 . S
Zn351 O356 1.996 . S
Zn351 O359 1.943 . S
O352 Zn351 1.962 . S
O352 C357 1.254 . S
O353 Zn350 2.031 . S
O353 C357 1.269 . S
O354 Zn351 1.986 . S
O354 C361 1.262 . S
O355 Zn350 2.049 . S
O355 C363 1.260 . S
O356 Zn351 1.996 . S
O356 C363 1.257 . S
C357 O352 1.254 . S
C357 O353 1.269 . S
C358 O359 1.249 . S
C358 O360 1.270 . S
O359 Zn351 1.943 . S
O359 C358 1.249 . S
O360 Zn350 2.067 . S
O360 C358 1.270 . S
C361 O354 1.262 . S
C361 O362 1.232 . S
O362 C361 1.232 . S
C363 O355 1.260 . S
C363 O356 1.257 . S
Zn364 O367 2.031 . S
Zn364 O369 2.049 . S
Zn364 O374 2.067 . S
Zn365 O366 1.962 . S
Zn365 O368 1.986 . S
Zn365 O370 1.996 . S
Zn365 O373 1.943 . S
O366 Zn365 1.962 . S
O366 C371 1.254 . S
O367 Zn364 2.031 . S
O367 C371 1.269 . S
O368 Zn365 1.986 . S
O368 C375 1.262 . S
O369 Zn364 2.049 . S
O369 C377 1.260 . S
O370 Zn365 1.996 . S
O370 C377 1.257 . S
C371 O366 1.254 . S
C371 O367 1.269 . S
C372 O373 1.249 . S
C372 O374 1.270 . S
O373 Zn365 1.943 . S
O373 C372 1.249 . S
O374 Zn364 2.067 . S
O374 C372 1.270 . S
C375 O368 1.262 . S
C375 O376 1.232 . S
O376 C375 1.232 . S
C377 O369 1.260 . S
C377 O370 1.257 . S
Zn378 O381 2.031 . S
Zn378 O383 2.049 . S
Zn378 O388 2.067 1_545 S
Zn379 O380 1.962 . S
Zn379 O382 1.986 . S
Zn379 O384 1.996 . S
Zn379 O387 1.943 1_545 S
O380 Zn379 1.962 . S
O380 C385 1.254 . S
O381 Zn378 2.031 . S
O381 C385 1.269 . S
O382 Zn379 1.986 . S
O382 C389 1.259 1_545 S
O383 Zn378 2.049 . S
O383 C391 1.260 . S
O384 Zn379 1.996 . S
O384 C391 1.257 . S
C385 O380 1.254 . S
C385 O381 1.269 . S
C386 O387 1.249 . S
C386 O388 1.270 . S
O387 Zn379 1.943 1_565 S
O387 C386 1.249 . S
O388 Zn378 2.067 1_565 S
O388 C386 1.270 . S
C389 O382 1.259 1_565 S
C389 O390 1.229 . S
O390 C389 1.229 . S
C391 O383 1.260 . S
C391 O384 1.257 . S
Zn392 O395 2.031 . S
Zn392 O397 2.049 . S
Zn392 O402 2.067 1_655 S
Zn393 O394 1.962 . S
Zn393 O396 1.986 . S
Zn393 O398 1.996 . S
Zn393 O401 1.943 1_655 S
O394 Zn393 1.962 . S
O394 C399 1.254 . S
O395 Zn392 2.031 . S
O395 C399 1.269 . S
O396 Zn393 1.986 . S
O396 C403 1.263 1_655 S
O397 Zn392 2.049 . S
O397 C405 1.260 . S
O398 Zn393 1.996 . S
O398 C405 1.257 . S
C399 O394 1.254 . S
C399 O395 1.269 . S
C400 O401 1.249 . S
C400 O402 1.270 . S
O401 Zn393 1.943 1_455 S
O401 C400 1.249 . S
O402 Zn392 2.067 1_455 S
O402 C400 1.270 . S
C403 O396 1.263 1_455 S
C403 O404 1.206 . S
O404 C403 1.206 . S
C405 O397 1.260 . S
C405 O398 1.257 . S
Zn406 O409 2.031 . S
Zn406 O411 2.049 . S
Zn406 O416 2.067 . S
Zn407 O408 1.962 . S
Zn407 O410 1.986 . S
Zn407 O412 1.996 . S
Zn407 O415 1.943 . S
O408 Zn407 1.962 . S
O408 C413 1.254 . S
O409 Zn406 2.031 . S
O409 C413 1.269 . S
O410 Zn407 1.986 . S
O410 C417 1.262 . S
O411 Zn406 2.049 . S
O411 C419 1.260 . S
O412 Zn407 1.996 . S
O412 C419 1.257 . S
C413 O408 1.254 . S
C413 O409 1.269 . S
C414 O415 1.249 . S
C414 O416 1.270 . S
O415 Zn407 1.943 . S
O415 C414 1.249 . S
O416 Zn406 2.067 . S
O416 C414 1.270 . S
C417 O410 1.262 . S
C417 O418 1.232 . S
O418 C417 1.232 . S
C419 O411 1.260 . S
C419 O412 1.257 . S
Zn420 O423 2.031 . S
Zn420 O425 2.049 . S
Zn420 O430 2.067 1_655 S
Zn421 O422 1.962 . S
Zn421 O424 1.986 . S
Zn421 O426 1.996 . S
Zn421 O429 1.943 1_655 S
O422 Zn421 1.962 . S
O422 C427 1.254 . S
O423 Zn420 2.031 . S
O423 C427 1.269 . S
O424 Zn421 1.986 . S
O424 C431 1.259 1_655 S
O425 Zn420 2.049 . S
O425 C433 1.260 . S
O426 Zn421 1.996 . S
O426 C433 1.257 . S
C427 O422 1.254 . S
C427 O423 1.269 . S
C428 O429 1.249 . S
C428 O430 1.270 . S
O429 Zn421 1.943 1_455 S
O429 C428 1.249 . S
O430 Zn420 2.067 1_455 S
O430 C428 1.270 . S
C431 O424 1.259 1_455 S
C431 O432 1.229 . S
O432 C431 1.229 . S
C433 O425 1.260 . S
C433 O426 1.257 . S
Zn434 O437 2.031 . S
Zn434 O439 2.049 . S
Zn434 O444 2.067 . S
Zn435 O436 1.962 . S
Zn435 O438 1.986 . S
Zn435 O440 1.996 . S
Zn435 O443 1.943 . S
O436 Zn435 1.962 . S
O436 C441 1.254 . S
O437 Zn434 2.031 . S
O437 C441 1.269 . S
O438 Zn435 1.986 . S
O438 C445 1.262 . S
O439 Zn434 2.049 . S
O439 C447 1.260 . S
O440 Zn435 1.996 . S
O440 C447 1.257 . S
C441 O436 1.254 . S
C441 O437 1.269 . S
C442 O443 1.249 . S
C442 O444 1.270 . S
O443 Zn435 1.943 . S
O443 C442 1.249 . S
O444 Zn434 2.067 . S
O444 C442 1.270 . S
C445 O438 1.262 . S
C445 O446 1.232 . S
O446 C445 1.232 . S
C447 O439 1.260 . S
C447 O440 1.257 . S
Zn448 O451 2.031 . S
Zn448 O453 2.049 . S
Zn448 O458 2.067 1_545 S
Zn449 O450 1.962 . S
Zn449 O452 1.986 . S
Zn449 O454 1.996 . S
Zn449 O457 1.943 1_545 S
O450 Zn449 1.962 . S
O450 C455 1.254 . S
O451 Zn448 2.031 . S
O451 C455 1.269 . S
O452 Zn449 1.986 . S
O452 C459 1.263 1_545 S
O453 Zn448 2.049 . S
O453 C461 1.260 . S
O454 Zn449 1.996 . S
O454 C461 1.257 . S
C455 O450 1.254 . S
C455 O451 1.269 . S
C456 O457 1.249 . S
C456 O458 1.270 . S
O457 Zn449 1.943 1_565 S
O457 C456 1.249 . S
O458 Zn448 2.067 1_565 S
O458 C456 1.270 . S
C459 O452 1.263 1_565 S
C459 O460 1.206 . S
O460 C459 1.206 . S
C461 O453 1.260 . S
C461 O454 1.257 . S
Zn462 O465 2.031 . S
Zn462 O467 2.049 . S
Zn462 O472 2.067 . S
Zn463 O464 1.962 . S
Zn463 O466 1.986 . S
Zn463 O468 1.996 . S
Zn463 O471 1.943 . S
O464 Zn463 1.962 . S
O464 C469 1.254 . S
O465 Zn462 2.031 . S
O465 C469 1.269 . S
O466 Zn463 1.986 . S
O466 C473 1.262 . S
O467 Zn462 2.049 . S
O467 C475 1.260 . S
O468 Zn463 1.996 . S
O468 C475 1.257 . S
C469 O464 1.254 . S
C469 O465 1.269 . S
C470 O471 1.249 . S
C470 O472 1.270 . S
O471 Zn463 1.943 . S
O471 C470 1.249 . S
O472 Zn462 2.067 . S
O472 C470 1.270 . S
C473 O466 1.262 . S
C473 O474 1.232 . S
O474 C473 1.232 . S
C475 O467 1.260 . S
C475 O468 1.257 . S
Zn476 O479 2.031 . S
Zn476 O481 2.049 . S
Zn476 O486 2.067 . S
Zn477 O478 1.962 . S
Zn477 O480 1.986 . S
Zn477 O482 1.996 . S
Zn477 O485 1.943 . S
O478 Zn477 1.962 . S
O478 C483 1.254 . S
O479 Zn476 2.031 . S
O479 C483 1.269 . S
O480 Zn477 1.986 . S
O480 C487 1.262 . S
O481 Zn476 2.049 . S
O481 C489 1.260 . S
O482 Zn477 1.996 . S
O482 C489 1.257 . S
C483 O478 1.254 . S
C483 O479 1.269 . S
C484 O485 1.249 . S
C484 O486 1.270 . S
O485 Zn477 1.943 . S
O485 C484 1.249 . S
O486 Zn476 2.067 . S
O486 C484 1.270 . S
C487 O480 1.262 . S
C487 O488 1.232 . S
O488 C487 1.232 . S
C489 O481 1.260 . S
C489 O482 1.257 . S
Zn490 O493 2.031 . S
Zn490 O495 2.049 . S
Zn490 O500 2.067 . S
Zn491 O492 1.962 . S
Zn491 O494 1.986 . S
Zn491 O496 1.996 . S
Zn491 O499 1.943 . S
O492 Zn491 1.962 . S
O492 C497 1.254 . S
O493 Zn490 2.031 . S
O493 C497 1.269 . S
O494 Zn491 1.986 . S
O494 C501 1.262 . S
O495 Zn490 2.049 . S
O495 C503 1.260 . S
O496 Zn491 1.996 . S
O496 C503 1.257 . S
C497 O492 1.254 . S
C497 O493 1.269 . S
C498 O499 1.249 . S
C498 O500 1.270 . S
O499 Zn491 1.943 . S
O499 C498 1.249 . S
O500 Zn490 2.067 . S
O500 C498 1.270 . S
C501 O494 1.262 . S
C501 O502 1.232 . S
O502 C501 1.232 . S
C503 O495 1.260 . S
C503 O496 1.257 . S
H504 C510 0.930 . S
H505 C514 0.930 . S
H506 C519 0.929 . S
H507 C517 0.929 . S
H508 C512 0.929 . S
H509 C518 0.929 . S
C510 H504 0.930 . S
C510 C511 1.367 . S
C510 C518 1.378 . S
C511 C510 1.367 . S
C511 C519 1.433 . S
C512 H508 0.929 . S
C512 C514 1.378 . S
C512 C516 1.350 . S
C513 C516 1.463 1_565 S
C513 C518 1.350 . S
C513 N521 1.427 . S
C514 H505 0.930 . S
C514 C512 1.378 . S
C514 C515 1.367 . S
C515 C514 1.367 . S
C515 C517 1.433 . S
C516 C512 1.350 . S
C516 C513 1.463 1_545 S
C516 N520 1.427 . S
C517 H507 0.929 . S
C517 C515 1.433 . S
C517 N520 1.384 . S
C518 H509 0.929 . S
C518 C510 1.378 . S
C518 C513 1.350 . S
C519 H506 0.929 . S
C519 C511 1.433 . S
C519 N521 1.384 . S
N520 C516 1.427 . S
N520 C517 1.384 . S
N521 C513 1.427 . S
N521 C519 1.384 . S
H522 C528 0.930 . S
H523 C532 0.930 . S
H524 C537 0.929 . S
H525 C535 0.929 . S
H526 C530 0.929 . S
H527 C536 0.929 . S
C528 H522 0.930 . S
C528 C529 1.367 . S
C528 C536 1.378 . S
C529 C528 1.367 . S
C529 C537 1.433 . S
C530 H526 0.929 . S
C530 C532 1.378 . S
C530 C534 1.350 . S
C531 C534 1.463 1_455 S
C531 C536 1.350 . S
C531 N539 1.427 . S
C532 H523 0.930 . S
C532 C530 1.378 . S
C532 C533 1.367 . S
C533 C532 1.367 . S
C533 C535 1.433 . S
C534 C530 1.350 . S
C534 C531 1.463 1_655 S
C534 N538 1.427 . S
C535 H525 0.929 . S
C535 C533 1.433 . S
C535 N538 1.384 . S
C536 H527 0.929 . S
C536 C528 1.378 . S
C536 C531 1.350 . S
C537 H524 0.929 . S
C537 C529 1.433 . S
C537 N539 1.384 . S
N538 C534 1.427 . S
N538 C535 1.384 . S
N539 C531 1.427 . S
N539 C537 1.384 . S
H540 C546 0.930 . S
H541 C550 0.930 . S
H542 C555 0.929 . S
H543 C553 0.929 . S
H544 C548 0.929 . S
H545 C554 0.929 . S
C546 H540 0.930 . S
C546 C547 1.367 . S
C546 C554 1.378 . S
C547 C546 1.367 . S
C547 C555 1.433 . S
C548 H544 0.929 . S
C548 C550 1.378 . S
C548 C552 1.350 . S
C549 C552 1.463 . S
C549 C554 1.350 . S
C549 N557 1.427 . S
C550 H541 0.930 . S
C550 C548 1.378 . S
C550 C551 1.367 . S
C551 C550 1.367 . S
C551 C553 1.433 . S
C552 C548 1.350 . S
C552 C549 1.463 . S
C552 N556 1.427 . S
C553 H543 0.929 . S
C553 C551 1.433 . S
C553 N556 1.384 . S
C554 H545 0.929 . S
C554 C546 1.378 . S
C554 C549 1.350 . S
C555 H542 0.929 . S
C555 C547 1.433 . S
C555 N557 1.384 . S
N556 C552 1.427 . S
N556 C553 1.384 . S
N557 C549 1.427 . S
N557 C555 1.384 . S
H558 C564 0.930 . S
H559 C568 0.930 . S
H560 C573 0.929 . S
H561 C571 0.929 . S
H562 C566 0.929 . S
H563 C572 0.929 . S
C564 H558 0.930 . S
C564 C565 1.367 . S
C564 C572 1.378 . S
C565 C564 1.367 . S
C565 C573 1.433 . S
C566 H562 0.929 . S
C566 C568 1.378 . S
C566 C570 1.350 . S
C567 C570 1.463 1_565 S
C567 C572 1.350 . S
C567 N575 1.427 . S
C568 H559 0.930 . S
C568 C566 1.378 . S
C568 C569 1.367 . S
C569 C568 1.367 . S
C569 C571 1.433 . S
C570 C566 1.350 . S
C570 C567 1.463 1_545 S
C570 N574 1.427 . S
C571 H561 0.929 . S
C571 C569 1.433 . S
C571 N574 1.384 . S
C572 H563 0.929 . S
C572 C564 1.378 . S
C572 C567 1.350 . S
C573 H560 0.929 . S
C573 C565 1.433 . S
C573 N575 1.384 . S
N574 C570 1.427 . S
N574 C571 1.384 . S
N575 C567 1.427 . S
N575 C573 1.384 . S
H576 C582 0.930 . S
H577 C586 0.930 . S
H578 C591 0.929 . S
H579 C589 0.929 . S
H580 C584 0.929 . S
H581 C590 0.929 . S
C582 H576 0.930 . S
C582 C583 1.367 . S
C582 C590 1.378 . S
C583 C582 1.367 . S
C583 C591 1.433 . S
C584 H580 0.929 . S
C584 C586 1.378 . S
C584 C588 1.350 . S
C585 C588 1.463 1_455 S
C585 C590 1.350 . S
C585 N593 1.427 . S
C586 H577 0.930 . S
C586 C584 1.378 . S
C586 C587 1.367 . S
C587 C586 1.367 . S
C587 C589 1.433 . S
C588 C584 1.350 . S
C588 C585 1.463 1_655 S
C588 N592 1.427 . S
C589 H579 0.929 . S
C589 C587 1.433 . S
C589 N592 1.384 . S
C590 H581 0.929 . S
C590 C582 1.378 . S
C590 C585 1.350 . S
C591 H578 0.929 . S
C591 C583 1.433 . S
C591 N593 1.384 . S
N592 C588 1.427 . S
N592 C589 1.384 . S
N593 C585 1.427 . S
N593 C591 1.384 . S
H594 C600 0.930 . S
H595 C604 0.930 . S
H596 C609 0.929 . S
H597 C607 0.929 . S
H598 C602 0.929 . S
H599 C608 0.929 . S
C600 H594 0.930 . S
C600 C601 1.367 . S
C600 C608 1.378 . S
C601 C600 1.367 . S
C601 C609 1.433 . S
C602 H598 0.929 . S
C602 C604 1.378 . S
C602 C606 1.350 . S
C603 C606 1.463 . S
C603 C608 1.350 . S
C603 N611 1.427 . S
C604 H595 0.930 . S
C604 C602 1.378 . S
C604 C605 1.367 . S
C605 C604 1.367 . S
C605 C607 1.433 . S
C606 C602 1.350 . S
C606 C603 1.463 . S
C606 N610 1.427 . S
C607 H597 0.929 . S
C607 C605 1.433 . S
C607 N610 1.384 . S
C608 H599 0.929 . S
C608 C600 1.378 . S
C608 C603 1.350 . S
C609 H596 0.929 . S
C609 C601 1.433 . S
C609 N611 1.384 . S
N610 C606 1.427 . S
N610 C607 1.384 . S
N611 C603 1.427 . S
N611 C609 1.384 . S
H612 C618 0.930 . S
H613 C622 0.930 . S
H614 C627 0.929 . S
H615 C625 0.929 . S
H616 C620 0.929 . S
H617 C626 0.929 . S
C618 H612 0.930 . S
C618 C619 1.367 . S
C618 C626 1.378 . S
C619 C618 1.367 . S
C619 C627 1.433 . S
C620 H616 0.929 . S
C620 C622 1.378 . S
C620 C624 1.350 . S
C621 C624 1.463 . S
C621 C626 1.350 . S
C621 N629 1.427 . S
C622 H613 0.930 . S
C622 C620 1.378 . S
C622 C623 1.367 . S
C623 C622 1.367 . S
C623 C625 1.433 . S
C624 C620 1.350 . S
C624 C621 1.463 . S
C624 N628 1.427 . S
C625 H615 0.929 . S
C625 C623 1.433 . S
C625 N628 1.384 . S
C626 H617 0.929 . S
C626 C618 1.378 . S
C626 C621 1.350 . S
C627 H614 0.929 . S
C627 C619 1.433 . S
C627 N629 1.384 . S
N628 C624 1.427 . S
N628 C625 1.384 . S
N629 C621 1.427 . S
N629 C627 1.384 . S
H630 C636 0.930 . S
H631 C640 0.930 . S
H632 C645 0.929 . S
H633 C643 0.929 . S
H634 C638 0.929 . S
H635 C644 0.929 . S
C636 H630 0.930 . S
C636 C637 1.367 . S
C636 C644 1.378 . S
C637 C636 1.367 . S
C637 C645 1.433 . S
C638 H634 0.929 . S
C638 C640 1.378 . S
C638 C642 1.350 . S
C639 C642 1.463 . S
C639 C644 1.350 . S
C639 N647 1.427 . S
C640 H631 0.930 . S
C640 C638 1.378 . S
C640 C641 1.367 . S
C641 C640 1.367 . S
C641 C643 1.433 . S
C642 C638 1.350 . S
C642 C639 1.463 . S
C642 N646 1.427 . S
C643 H633 0.929 . S
C643 C641 1.433 . S
C643 N646 1.384 . S
C644 H635 0.929 . S
C644 C636 1.378 . S
C644 C639 1.350 . S
C645 H632 0.929 . S
C645 C637 1.433 . S
C645 N647 1.384 . S
N646 C642 1.427 . S
N646 C643 1.384 . S
N647 C639 1.427 . S
N647 C645 1.384 . S
H648 C654 0.930 . S
H649 C658 0.930 . S
H650 C663 0.929 . S
H651 C661 0.929 . S
H652 C656 0.929 . S
H653 C662 0.929 . S
C654 H648 0.930 . S
C654 C655 1.367 . S
C654 C662 1.378 . S
C655 C654 1.367 . S
C655 C663 1.433 . S
C656 H652 0.929 . S
C656 C658 1.378 . S
C656 C660 1.350 . S
C657 C660 1.463 . S
C657 C662 1.350 . S
C657 N665 1.427 . S
C658 H649 0.930 . S
C658 C656 1.378 . S
C658 C659 1.367 . S
C659 C658 1.367 . S
C659 C661 1.433 . S
C660 C656 1.350 . S
C660 C657 1.463 . S
C660 N664 1.427 . S
C661 H651 0.929 . S
C661 C659 1.433 . S
C661 N664 1.384 . S
C662 H653 0.929 . S
C662 C654 1.378 . S
C662 C657 1.350 . S
C663 H650 0.929 . S
C663 C655 1.433 . S
C663 N665 1.384 . S
N664 C660 1.427 . S
N664 C661 1.384 . S
N665 C657 1.427 . S
N665 C663 1.384 . S
H666 C672 0.930 . S
H667 C676 0.930 . S
H668 C681 0.929 . S
H669 C679 0.929 . S
H670 C674 0.929 . S
H671 C680 0.929 . S
C672 H666 0.930 . S
C672 C673 1.367 . S
C672 C680 1.378 . S
C673 C672 1.367 . S
C673 C681 1.433 . S
C674 H670 0.929 . S
C674 C676 1.378 . S
C674 C678 1.350 . S
C675 C678 1.463 . S
C675 C680 1.350 . S
C675 N683 1.427 . S
C676 H667 0.930 . S
C676 C674 1.378 . S
C676 C677 1.367 . S
C677 C676 1.367 . S
C677 C679 1.433 . S
C678 C674 1.350 . S
C678 C675 1.463 . S
C678 N682 1.427 . S
C679 H669 0.929 . S
C679 C677 1.433 . S
C679 N682 1.384 . S
C680 H671 0.929 . S
C680 C672 1.378 . S
C680 C675 1.350 . S
C681 H668 0.929 . S
C681 C673 1.433 . S
C681 N683 1.384 . S
N682 C678 1.427 . S
N682 C679 1.384 . S
N683 C675 1.427 . S
N683 C681 1.384 . S
H684 C690 0.930 . S
H685 C694 0.930 . S
H686 C699 0.929 . S
H687 C697 0.929 . S
H688 C692 0.929 . S
H689 C698 0.929 . S
C690 H684 0.930 . S
C690 C691 1.367 . S
C690 C698 1.378 . S
C691 C690 1.367 . S
C691 C699 1.433 . S
C692 H688 0.929 . S
C692 C694 1.378 . S
C692 C696 1.350 . S
C693 C696 1.463 . S
C693 C698 1.350 . S
C693 N701 1.427 . S
C694 H685 0.930 . S
C694 C692 1.378 . S
C694 C695 1.367 . S
C695 C694 1.367 . S
C695 C697 1.433 . S
C696 C692 1.350 . S
C696 C693 1.463 . S
C696 N700 1.427 . S
C697 H687 0.929 . S
C697 C695 1.433 . S
C697 N700 1.384 . S
C698 H689 0.929 . S
C698 C690 1.378 . S
C698 C693 1.350 . S
C699 H686 0.929 . S
C699 C691 1.433 . S
C699 N701 1.384 . S
N700 C696 1.427 . S
N700 C697 1.384 . S
N701 C693 1.427 . S
N701 C699 1.384 . S
H702 C708 0.930 . S
H703 C712 0.930 . S
H704 C717 0.929 . S
H705 C715 0.929 . S
H706 C710 0.929 . S
H707 C716 0.929 . S
C708 H702 0.930 . S
C708 C709 1.367 . S
C708 C716 1.378 . S
C709 C708 1.367 . S
C709 C717 1.433 . S
C710 H706 0.929 . S
C710 C712 1.378 . S
C710 C714 1.350 . S
C711 C714 1.463 . S
C711 C716 1.350 . S
C711 N719 1.427 . S
C712 H703 0.930 . S
C712 C710 1.378 . S
C712 C713 1.367 . S
C713 C712 1.367 . S
C713 C715 1.433 . S
C714 C710 1.350 . S
C714 C711 1.463 . S
C714 N718 1.427 . S
C715 H705 0.929 . S
C715 C713 1.433 . S
C715 N718 1.384 . S
C716 H707 0.929 . S
C716 C708 1.378 . S
C716 C711 1.350 . S
C717 H704 0.929 . S
C717 C709 1.433 . S
C717 N719 1.384 . S
N718 C714 1.427 . S
N718 C715 1.384 . S
N719 C711 1.427 . S
N719 C717 1.384 . S
H720 C726 0.930 . S
H721 C730 0.930 . S
H722 C735 0.929 . S
H723 C733 0.929 . S
H724 C728 0.929 . S
H725 C734 0.929 . S
C726 H720 0.930 . S
C726 C727 1.367 . S
C726 C734 1.378 . S
C727 C726 1.367 . S
C727 C735 1.433 . S
C728 H724 0.929 . S
C728 C730 1.378 . S
C728 C732 1.350 . S
C729 C732 1.463 . S
C729 C734 1.350 . S
C729 N737 1.427 . S
C730 H721 0.930 . S
C730 C728 1.378 . S
C730 C731 1.367 . S
C731 C730 1.367 . S
C731 C733 1.433 . S
C732 C728 1.350 . S
C732 C729 1.463 . S
C732 N736 1.427 . S
C733 H723 0.929 . S
C733 C731 1.433 . S
C733 N736 1.384 . S
C734 H725 0.929 . S
C734 C726 1.378 . S
C734 C729 1.350 . S
C735 H722 0.929 . S
C735 C727 1.433 . S
C735 N737 1.384 . S
N736 C732 1.427 . S
N736 C733 1.384 . S
N737 C729 1.427 . S
N737 C735 1.384 . S
H738 C744 0.930 . S
H739 C748 0.930 . S
H740 C753 0.929 1_545 S
H741 C751 0.929 . S
H742 C746 0.929 . S
H743 C752 0.929 . S
C744 H738 0.930 . S
C744 C745 1.367 . S
C744 C752 1.378 . S
C745 C744 1.367 . S
C745 C753 1.433 . S
C746 H742 0.929 . S
C746 C748 1.378 . S
C746 C750 1.350 . S
C747 C750 1.463 . S
C747 C752 1.350 . S
C747 N755 1.427 . S
C748 H739 0.930 . S
C748 C746 1.378 . S
C748 C749 1.367 . S
C749 C748 1.367 . S
C749 C751 1.433 . S
C750 C746 1.350 . S
C750 C747 1.463 . S
C750 N754 1.427 . S
C751 H741 0.929 . S
C751 C749 1.433 . S
C751 N754 1.384 . S
C752 H743 0.929 . S
C752 C744 1.378 . S
C752 C747 1.350 . S
C753 H740 0.929 1_565 S
C753 C745 1.433 . S
C753 N755 1.384 . S
N754 C750 1.427 . S
N754 C751 1.384 . S
N755 C747 1.427 . S
N755 C753 1.384 . S
H756 C762 0.930 . S
H757 C766 0.930 . S
H758 C771 0.929 . S
H759 C769 0.929 . S
H760 C764 0.929 . S
H761 C770 0.929 . S
C762 H756 0.930 . S
C762 C763 1.367 . S
C762 C770 1.378 . S
C763 C762 1.367 . S
C763 C771 1.433 . S
C764 H760 0.929 . S
C764 C766 1.378 . S
C764 C768 1.350 . S
C765 C768 1.463 . S
C765 C770 1.350 . S
C765 N773 1.427 . S
C766 H757 0.930 . S
C766 C764 1.378 . S
C766 C767 1.367 . S
C767 C766 1.367 . S
C767 C769 1.433 . S
C768 C764 1.350 . S
C768 C765 1.463 . S
C768 N772 1.427 . S
C769 H759 0.929 . S
C769 C767 1.433 . S
C769 N772 1.384 . S
C770 H761 0.929 . S
C770 C762 1.378 . S
C770 C765 1.350 . S
C771 H758 0.929 . S
C771 C763 1.433 . S
C771 N773 1.384 . S
N772 C768 1.427 . S
N772 C769 1.384 . S
N773 C765 1.427 . S
N773 C771 1.384 . S
H774 C780 0.930 . S
H775 C784 0.930 . S
H776 C789 0.929 . S
H777 C787 0.929 . S
H778 C782 0.929 . S
H779 C788 0.929 . S
C780 H774 0.930 . S
C780 C781 1.367 . S
C780 C788 1.378 . S
C781 C780 1.367 . S
C781 C789 1.433 . S
C782 H778 0.929 . S
C782 C784 1.378 . S
C782 C786 1.350 . S
C783 C786 1.463 . S
C783 C788 1.350 . S
C783 N791 1.427 . S
C784 H775 0.930 . S
C784 C782 1.378 . S
C784 C785 1.367 . S
C785 C784 1.367 . S
C785 C787 1.433 . S
C786 C782 1.350 . S
C786 C783 1.463 . S
C786 N790 1.427 . S
C787 H777 0.929 . S
C787 C785 1.433 . S
C787 N790 1.384 . S
C788 H779 0.929 . S
C788 C780 1.378 . S
C788 C783 1.350 . S
C789 H776 0.929 . S
C789 C781 1.433 . S
C789 N791 1.384 . S
N790 C786 1.427 . S
N790 C787 1.384 . S
N791 C783 1.427 . S
N791 C789 1.384 . S
H792 C798 0.930 . S
H793 C802 0.930 . S
H794 C807 0.929 . S
H795 C805 0.929 . S
H796 C800 0.929 . S
H797 C806 0.929 . S
C798 H792 0.930 . S
C798 C799 1.367 . S
C798 C806 1.378 . S
C799 C798 1.367 . S
C799 C807 1.433 . S
C800 H796 0.929 . S
C800 C802 1.378 . S
C800 C804 1.350 . S
C801 C804 1.463 . S
C801 C806 1.350 . S
C801 N809 1.427 . S
C802 H793 0.930 . S
C802 C800 1.378 . S
C802 C803 1.367 . S
C803 C802 1.367 . S
C803 C805 1.433 . S
C804 C800 1.350 . S
C804 C801 1.463 . S
C804 N808 1.427 . S
C805 H795 0.929 . S
C805 C803 1.433 . S
C805 N808 1.384 . S
C806 H797 0.929 . S
C806 C798 1.378 . S
C806 C801 1.350 . S
C807 H794 0.929 . S
C807 C799 1.433 . S
C807 N809 1.384 . S
N808 C804 1.427 . S
N808 C805 1.384 . S
N809 C801 1.427 . S
N809 C807 1.384 . S
H810 C816 0.930 . S
H811 C820 0.930 1_545 S
H812 C825 0.929 . S
H813 C823 0.929 . S
H814 C818 0.929 . S
H815 C824 0.929 . S
C816 H810 0.930 . S
C816 C817 1.367 . S
C816 C824 1.378 . S
C817 C816 1.367 . S
C817 C825 1.433 . S
C818 H814 0.929 . S
C818 C820 1.378 . S
C818 C822 1.350 . S
C819 C822 1.463 . S
C819 C824 1.350 . S
C819 N827 1.427 . S
C820 H811 0.930 1_565 S
C820 C818 1.378 . S
C820 C821 1.367 . S
C821 C820 1.367 . S
C821 C823 1.433 . S
C822 C818 1.350 . S
C822 C819 1.463 . S
C822 N826 1.427 . S
C823 H813 0.929 . S
C823 C821 1.433 . S
C823 N826 1.384 . S
C824 H815 0.929 . S
C824 C816 1.378 . S
C824 C819 1.350 . S
C825 H812 0.929 . S
C825 C817 1.433 . S
C825 N827 1.384 . S
N826 C822 1.427 . S
N826 C823 1.384 . S
N827 C819 1.427 . S
N827 C825 1.384 . S
H828 C834 0.930 . S
H829 C838 0.930 . S
H830 C843 0.929 . S
H831 C841 0.929 . S
H832 C836 0.929 . S
H833 C842 0.929 . S
C834 H828 0.930 . S
C834 C835 1.367 . S
C834 C842 1.378 . S
C835 C834 1.367 . S
C835 C843 1.433 . S
C836 H832 0.929 . S
C836 C838 1.378 . S
C836 C840 1.350 . S
C837 C840 1.463 . S
C837 C842 1.350 . S
C837 N845 1.427 . S
C838 H829 0.930 . S
C838 C836 1.378 . S
C838 C839 1.367 . S
C839 C838 1.367 . S
C839 C841 1.433 . S
C840 C836 1.350 . S
C840 C837 1.463 . S
C840 N844 1.427 . S
C841 H831 0.929 . S
C841 C839 1.433 . S
C841 N844 1.384 . S
C842 H833 0.929 . S
C842 C834 1.378 . S
C842 C837 1.350 . S
C843 H830 0.929 . S
C843 C835 1.433 . S
C843 N845 1.384 . S
N844 C840 1.427 . S
N844 C841 1.384 . S
N845 C837 1.427 . S
N845 C843 1.384 . S
H846 C852 0.930 . S
H847 C856 0.930 . S
H848 C861 0.929 . S
H849 C859 0.929 . S
H850 C854 0.929 . S
H851 C860 0.929 . S
C852 H846 0.930 . S
C852 C853 1.367 . S
C852 C860 1.378 . S
C853 C852 1.367 . S
C853 C861 1.433 . S
C854 H850 0.929 . S
C854 C856 1.378 . S
C854 C858 1.350 . S
C855 C858 1.463 . S
C855 C860 1.350 . S
C855 N863 1.427 . S
C856 H847 0.930 . S
C856 C854 1.378 . S
C856 C857 1.367 . S
C857 C856 1.367 . S
C857 C859 1.433 . S
C858 C854 1.350 . S
C858 C855 1.463 . S
C858 N862 1.427 . S
C859 H849 0.929 . S
C859 C857 1.433 . S
C859 N862 1.384 . S
C860 H851 0.929 . S
C860 C852 1.378 . S
C860 C855 1.350 . S
C861 H848 0.929 . S
C861 C853 1.433 . S
C861 N863 1.384 . S
N862 C858 1.427 . S
N862 C859 1.384 . S
N863 C855 1.427 . S
N863 C861 1.384 . S
H864 C870 0.930 . S
H865 C874 0.930 . S
H866 C879 0.929 . S
H867 C877 0.929 . S
H868 C872 0.929 . S
H869 C878 0.929 . S
C870 H864 0.930 . S
C870 C871 1.367 . S
C870 C878 1.378 . S
C871 C870 1.367 . S
C871 C879 1.433 . S
C872 H868 0.929 . S
C872 C874 1.378 . S
C872 C876 1.350 . S
C873 C876 1.463 . S
C873 C878 1.350 . S
C873 N881 1.427 . S
C874 H865 0.930 . S
C874 C872 1.378 . S
C874 C875 1.367 . S
C875 C874 1.367 . S
C875 C877 1.433 . S
C876 C872 1.350 . S
C876 C873 1.463 . S
C876 N880 1.427 . S
C877 H867 0.929 . S
C877 C875 1.433 . S
C877 N880 1.384 . S
C878 H869 0.929 . S
C878 C870 1.378 . S
C878 C873 1.350 . S
C879 H866 0.929 . S
C879 C871 1.433 . S
C879 N881 1.384 . S
N880 C876 1.427 . S
N880 C877 1.384 . S
N881 C873 1.427 . S
N881 C879 1.384 . S
H882 C888 0.930 . S
H883 C892 0.930 . S
H884 C897 0.929 . S
H885 C895 0.929 1_556 S
H886 C890 0.929 . S
H887 C896 0.929 . S
C888 H882 0.930 . S
C888 C889 1.367 . S
C888 C896 1.378 . S
C889 C888 1.367 . S
C889 C897 1.433 . S
C890 H886 0.929 . S
C890 C892 1.378 . S
C890 C894 1.350 . S
C891 C894 1.463 . S
C891 C896 1.350 . S
C891 N899 1.427 . S
C892 H883 0.930 . S
C892 C890 1.378 . S
C892 C893 1.367 1_554 S
C893 C892 1.367 1_556 S
C893 C895 1.433 1_556 S
C894 C890 1.350 . S
C894 C891 1.463 . S
C894 N898 1.427 . S
C895 H885 0.929 1_554 S
C895 C893 1.433 1_554 S
C895 N898 1.384 . S
C896 H887 0.929 . S
C896 C888 1.378 . S
C896 C891 1.350 . S
C897 H884 0.929 . S
C897 C889 1.433 . S
C897 N899 1.384 . S
N898 C894 1.427 . S
N898 C895 1.384 . S
N899 C891 1.427 . S
N899 C897 1.384 . S
H900 C906 0.930 . S
H901 C910 0.928 1_556 S
H902 C915 0.929 . S
H903 C913 0.929 . S
H904 C908 0.929 . S
H905 C914 0.929 . S
C906 H900 0.930 . S
C906 C907 1.367 . S
C906 C914 1.378 . S
C907 C906 1.367 . S
C907 C915 1.433 . S
C908 H904 0.929 . S
C908 C910 1.378 . S
C908 C912 1.350 . S
C909 C912 1.463 . S
C909 C914 1.350 . S
C909 N917 1.427 . S
C910 H901 0.928 1_554 S
C910 C908 1.378 . S
C910 C911 1.367 1_554 S
C911 C910 1.367 1_556 S
C911 C913 1.433 1_556 S
C912 C908 1.350 . S
C912 C909 1.463 . S
C912 N916 1.427 . S
C913 H903 0.929 . S
C913 C911 1.433 1_554 S
C913 N916 1.384 . S
C914 H905 0.929 . S
C914 C906 1.378 . S
C914 C909 1.350 . S
C915 H902 0.929 . S
C915 C907 1.433 . S
C915 N917 1.384 . S
N916 C912 1.427 . S
N916 C913 1.384 . S
N917 C909 1.427 . S
N917 C915 1.384 . S
H918 C924 0.930 . S
H919 C928 0.930 1_556 S
H920 C933 0.929 . S
H921 C931 0.929 . S
H922 C926 0.929 . S
H923 C932 0.929 . S
C924 H918 0.930 . S
C924 C925 1.367 . S
C924 C932 1.378 . S
C925 C924 1.367 . S
C925 C933 1.433 . S
C926 H922 0.929 . S
C926 C928 1.378 . S
C926 C930 1.350 . S
C927 C930 1.463 . S
C927 C932 1.350 . S
C927 N935 1.427 . S
C928 H919 0.930 1_554 S
C928 C926 1.378 . S
C928 C929 1.367 1_554 S
C929 C928 1.367 1_556 S
C929 C931 1.433 1_556 S
C930 C926 1.350 . S
C930 C927 1.463 . S
C930 N934 1.427 . S
C931 H921 0.929 . S
C931 C929 1.433 1_554 S
C931 N934 1.384 . S
C932 H923 0.929 . S
C932 C924 1.378 . S
C932 C927 1.350 . S
C933 H920 0.929 . S
C933 C925 1.433 . S
C933 N935 1.384 . S
N934 C930 1.427 . S
N934 C931 1.384 . S
N935 C927 1.427 . S
N935 C933 1.384 . S
H936 C942 0.930 . S
H937 C946 0.930 . S
H938 C951 0.929 . S
H939 C949 0.929 . S
H940 C944 0.929 . S
H941 C950 0.929 . S
C942 H936 0.930 . S
C942 C943 1.367 . S
C942 C950 1.378 . S
C943 C942 1.367 . S
C943 C951 1.433 . S
C944 H940 0.929 . S
C944 C946 1.378 . S
C944 C948 1.350 . S
C945 C948 1.463 . S
C945 C950 1.350 . S
C945 N953 1.427 . S
C946 H937 0.930 . S
C946 C944 1.378 . S
C946 C947 1.367 . S
C947 C946 1.367 . S
C947 C949 1.433 . S
C948 C944 1.350 . S
C948 C945 1.463 . S
C948 N952 1.427 . S
C949 H939 0.929 . S
C949 C947 1.433 . S
C949 N952 1.384 . S
C950 H941 0.929 . S
C950 C942 1.378 . S
C950 C945 1.350 . S
C951 H938 0.929 . S
C951 C943 1.433 . S
C951 N953 1.384 . S
N952 C948 1.427 . S
N952 C949 1.384 . S
N953 C945 1.427 . S
N953 C951 1.384 . S
H954 C960 0.930 . S
H955 C964 0.930 . S
H956 C969 0.929 . S
H957 C967 0.929 . S
H958 C962 0.929 . S
H959 C968 0.929 . S
C960 H954 0.930 . S
C960 C961 1.367 . S
C960 C968 1.378 . S
C961 C960 1.367 . S
C961 C969 1.433 . S
C962 H958 0.929 . S
C962 C964 1.378 . S
C962 C966 1.350 . S
C963 C966 1.463 . S
C963 C968 1.350 . S
C963 N971 1.427 . S
C964 H955 0.930 . S
C964 C962 1.378 . S
C964 C965 1.367 . S
C965 C964 1.367 . S
C965 C967 1.433 . S
C966 C962 1.350 . S
C966 C963 1.463 . S
C966 N970 1.427 . S
C967 H957 0.929 . S
C967 C965 1.433 . S
C967 N970 1.384 . S
C968 H959 0.929 . S
C968 C960 1.378 . S
C968 C963 1.350 . S
C969 H956 0.929 . S
C969 C961 1.433 . S
C969 N971 1.384 . S
N970 C966 1.427 . S
N970 C967 1.384 . S
N971 C963 1.427 . S
N971 C969 1.384 . S
H972 C978 0.930 . S
H973 C982 0.930 . S
H974 C987 0.929 . S
H975 C985 0.929 . S
H976 C980 0.929 . S
H977 C986 0.929 . S
C978 H972 0.930 . S
C978 C979 1.367 . S
C978 C986 1.378 . S
C979 C978 1.367 . S
C979 C987 1.433 . S
C980 H976 0.929 . S
C980 C982 1.378 . S
C980 C984 1.350 . S
C981 C984 1.463 . S
C981 C986 1.350 . S
C981 N989 1.427 . S
C982 H973 0.930 . S
C982 C980 1.378 . S
C982 C983 1.367 . S
C983 C982 1.367 . S
C983 C985 1.433 . S
C984 C980 1.350 . S
C984 C981 1.463 . S
C984 N988 1.427 . S
C985 H975 0.929 . S
C985 C983 1.433 . S
C985 N988 1.384 . S
C986 H977 0.929 . S
C986 C978 1.378 . S
C986 C981 1.350 . S
C987 H974 0.929 . S
C987 C979 1.433 . S
C987 N989 1.384 . S
N988 C984 1.427 . S
N988 C985 1.384 . S
N989 C981 1.427 . S
N989 C987 1.384 . S
H990 C996 0.930 . S
H991 C1000 0.930 . S
H992 C1005 0.929 1_554 S
H993 C1003 0.929 . S
H994 C998 0.929 . S
H995 C1004 0.929 . S
C996 H990 0.930 . S
C996 C997 1.367 1_556 S
C996 C1004 1.378 . S
C997 C996 1.367 1_554 S
C997 C1005 1.433 1_554 S
C998 H994 0.929 . S
C998 C1000 1.378 . S
C998 C1002 1.350 . S
C999 C1002 1.463 . S
C999 C1004 1.350 . S
C999 N1007 1.427 . S
C1000 H991 0.930 . S
C1000 C998 1.378 . S
C1000 C1001 1.367 . S
C1001 C1000 1.367 . S
C1001 C1003 1.433 . S
C1002 C998 1.350 . S
C1002 C999 1.463 . S
C1002 N1006 1.427 . S
C1003 H993 0.929 . S
C1003 C1001 1.433 . S
C1003 N1006 1.384 . S
C1004 H995 0.929 . S
C1004 C996 1.378 . S
C1004 C999 1.350 . S
C1005 H992 0.929 1_556 S
C1005 C997 1.433 1_556 S
C1005 N1007 1.384 . S
N1006 C1002 1.427 . S
N1006 C1003 1.384 . S
N1007 C999 1.427 . S
N1007 C1005 1.384 . S
H1008 C1014 0.930 1_554 S
H1009 C1018 0.930 . S
H1010 C1023 0.929 . S
H1011 C1021 0.929 . S
H1012 C1016 0.929 . S
H1013 C1022 0.929 . S
C1014 H1008 0.930 1_556 S
C1014 C1015 1.367 1_556 S
C1014 C1022 1.378 . S
C1015 C1014 1.367 1_554 S
C1015 C1023 1.433 1_554 S
C1016 H1012 0.929 . S
C1016 C1018 1.378 . S
C1016 C1020 1.350 . S
C1017 C1020 1.463 . S
C1017 C1022 1.350 . S
C1017 N1025 1.427 . S
C1018 H1009 0.930 . S
C1018 C1016 1.378 . S
C1018 C1019 1.367 . S
C1019 C1018 1.367 . S
C1019 C1021 1.433 . S
C1020 C1016 1.350 . S
C1020 C1017 1.463 . S
C1020 N1024 1.427 . S
C1021 H1011 0.929 . S
C1021 C1019 1.433 . S
C1021 N1024 1.384 . S
C1022 H1013 0.929 . S
C1022 C1014 1.378 . S
C1022 C1017 1.350 . S
C1023 H1010 0.929 . S
C1023 C1015 1.433 1_556 S
C1023 N1025 1.384 . S
N1024 C1020 1.427 . S
N1024 C1021 1.384 . S
N1025 C1017 1.427 . S
N1025 C1023 1.384 . S
H1026 C1032 0.930 . S
H1027 C1036 0.930 . S
H1028 C1041 0.929 . S
H1029 C1039 0.929 1_554 S
H1030 C1034 0.929 . S
H1031 C1040 0.929 . S
C1032 H1026 0.930 . S
C1032 C1033 1.367 . S
C1032 C1040 1.378 . S
C1033 C1032 1.367 . S
C1033 C1041 1.433 . S
C1034 H1030 0.929 . S
C1034 C1036 1.378 . S
C1034 C1038 1.350 . S
C1035 C1038 1.463 . S
C1035 C1040 1.350 . S
C1035 N1043 1.427 . S
C1036 H1027 0.930 . S
C1036 C1034 1.378 . S
C1036 C1037 1.367 1_556 S
C1037 C1036 1.367 1_554 S
C1037 C1039 1.433 1_554 S
C1038 C1034 1.350 . S
C1038 C1035 1.463 . S
C1038 N1042 1.427 . S
C1039 H1029 0.929 1_556 S
C1039 C1037 1.433 1_556 S
C1039 N1042 1.384 . S
C1040 H1031 0.929 . S
C1040 C1032 1.378 . S
C1040 C1035 1.350 . S
C1041 H1028 0.929 . S
C1041 C1033 1.433 . S
C1041 N1043 1.384 . S
N1042 C1038 1.427 . S
N1042 C1039 1.384 . S
N1043 C1035 1.427 . S
N1043 C1041 1.384 . S
H1044 C1050 0.930 . S
H1045 C1054 0.930 . S
H1046 C1059 0.929 . S
H1047 C1057 0.929 . S
H1048 C1052 0.929 . S
H1049 C1058 0.929 . S
C1050 H1044 0.930 . S
C1050 C1051 1.367 . S
C1050 C1058 1.378 . S
C1051 C1050 1.367 . S
C1051 C1059 1.433 . S
C1052 H1048 0.929 . S
C1052 C1054 1.378 . S
C1052 C1056 1.350 . S
C1053 C1056 1.463 1_455 S
C1053 C1058 1.350 . S
C1053 N1061 1.427 . S
C1054 H1045 0.930 . S
C1054 C1052 1.378 . S
C1054 C1055 1.367 . S
C1055 C1054 1.367 . S
C1055 C1057 1.433 . S
C1056 C1052 1.350 . S
C1056 C1053 1.463 1_655 S
C1056 N1060 1.427 . S
C1057 H1047 0.929 . S
C1057 C1055 1.433 . S
C1057 N1060 1.384 . S
C1058 H1049 0.929 . S
C1058 C1050 1.378 . S
C1058 C1053 1.350 . S
C1059 H1046 0.929 . S
C1059 C1051 1.433 . S
C1059 N1061 1.384 . S
N1060 C1056 1.427 . S
N1060 C1057 1.384 . S
N1061 C1053 1.427 . S
N1061 C1059 1.384 . S
H1062 C1068 0.930 . S
H1063 C1072 0.930 . S
H1064 C1077 0.929 . S
H1065 C1075 0.929 . S
H1066 C1070 0.929 . S
H1067 C1076 0.929 . S
C1068 H1062 0.930 . S
C1068 C1069 1.367 . S
C1068 C1076 1.378 . S
C1069 C1068 1.367 . S
C1069 C1077 1.433 . S
C1070 H1066 0.929 . S
C1070 C1072 1.378 . S
C1070 C1074 1.350 . S
C1071 C1074 1.463 . S
C1071 C1076 1.350 . S
C1071 N1079 1.427 . S
C1072 H1063 0.930 . S
C1072 C1070 1.378 . S
C1072 C1073 1.367 . S
C1073 C1072 1.367 . S
C1073 C1075 1.433 . S
C1074 C1070 1.350 . S
C1074 C1071 1.463 . S
C1074 N1078 1.427 . S
C1075 H1065 0.929 . S
C1075 C1073 1.433 . S
C1075 N1078 1.384 . S
C1076 H1067 0.929 . S
C1076 C1068 1.378 . S
C1076 C1071 1.350 . S
C1077 H1064 0.929 . S
C1077 C1069 1.433 . S
C1077 N1079 1.384 . S
N1078 C1074 1.427 . S
N1078 C1075 1.384 . S
N1079 C1071 1.427 . S
N1079 C1077 1.384 . S
H1080 C1086 0.930 . S
H1081 C1090 0.930 . S
H1082 C1095 0.929 . S
H1083 C1093 0.929 . S
H1084 C1088 0.929 . S
H1085 C1094 0.929 . S
C1086 H1080 0.930 . S
C1086 C1087 1.367 . S
C1086 C1094 1.378 1_545 S
C1087 C1086 1.367 . S
C1087 C1095 1.433 . S
C1088 H1084 0.929 . S
C1088 C1090 1.378 1_545 S
C1088 C1092 1.350 1_545 S
C1089 C1092 1.463 1_545 S
C1089 C1094 1.350 1_545 S
C1089 N1097 1.427 . S
C1090 H1081 0.930 . S
C1090 C1088 1.378 1_565 S
C1090 C1091 1.367 . S
C1091 C1090 1.367 . S
C1091 C1093 1.433 . S
C1092 C1088 1.350 1_565 S
C1092 C1089 1.463 1_565 S
C1092 N1096 1.427 . S
C1093 H1083 0.929 . S
C1093 C1091 1.433 . S
C1093 N1096 1.384 . S
C1094 H1085 0.929 . S
C1094 C1086 1.378 1_565 S
C1094 C1089 1.350 1_565 S
C1095 H1082 0.929 . S
C1095 C1087 1.433 . S
C1095 N1097 1.384 . S
N1096 C1092 1.427 . S
N1096 C1093 1.384 . S
N1097 C1089 1.427 . S
N1097 C1095 1.384 . S
H1098 C1104 0.930 . S
H1099 C1108 0.930 . S
H1100 C1113 0.929 . S
H1101 C1111 0.929 . S
H1102 C1106 0.929 . S
H1103 C1112 0.929 . S
C1104 H1098 0.930 . S
C1104 C1105 1.367 . S
C1104 C1112 1.378 . S
C1105 C1104 1.367 . S
C1105 C1113 1.433 . S
C1106 H1102 0.929 . S
C1106 C1108 1.378 . S
C1106 C1110 1.350 . S
C1107 C1110 1.463 1_565 S
C1107 C1112 1.350 . S
C1107 N1115 1.427 1_565 S
C1108 H1099 0.930 . S
C1108 C1106 1.378 . S
C1108 C1109 1.367 . S
C1109 C1108 1.367 . S
C1109 C1111 1.433 . S
C1110 C1106 1.350 . S
C1110 C1107 1.463 1_545 S
C1110 N1114 1.427 1_545 S
C1111 H1101 0.929 . S
C1111 C1109 1.433 . S
C1111 N1114 1.384 1_545 S
C1112 H1103 0.929 . S
C1112 C1104 1.378 . S
C1112 C1107 1.350 . S
C1113 H1100 0.929 . S
C1113 C1105 1.433 . S
C1113 N1115 1.384 1_565 S
N1114 C1110 1.427 1_565 S
N1114 C1111 1.384 1_565 S
N1115 C1107 1.427 1_545 S
N1115 C1113 1.384 1_545 S
H1116 C1122 0.930 . S
H1117 C1126 0.930 . S
H1118 C1131 0.929 . S
H1119 C1129 0.929 . S
H1120 C1124 0.929 . S
H1121 C1130 0.929 . S
C1122 H1116 0.930 . S
C1122 C1123 1.367 . S
C1122 C1130 1.378 1_655 S
C1123 C1122 1.367 . S
C1123 C1131 1.433 . S
C1124 H1120 0.929 . S
C1124 C1126 1.378 1_655 S
C1124 C1128 1.350 1_655 S
C1125 C1128 1.463 1_655 S
C1125 C1130 1.350 1_655 S
C1125 N1133 1.427 . S
C1126 H1117 0.930 . S
C1126 C1124 1.378 1_455 S
C1126 C1127 1.367 . S
C1127 C1126 1.367 . S
C1127 C1129 1.433 . S
C1128 C1124 1.350 1_455 S
C1128 C1125 1.463 1_455 S
C1128 N1132 1.427 . S
C1129 H1119 0.929 . S
C1129 C1127 1.433 . S
C1129 N1132 1.384 . S
C1130 H1121 0.929 . S
C1130 C1122 1.378 1_455 S
C1130 C1125 1.350 1_455 S
C1131 H1118 0.929 . S
C1131 C1123 1.433 . S
C1131 N1133 1.384 . S
N1132 C1128 1.427 . S
N1132 C1129 1.384 . S
N1133 C1125 1.427 . S
N1133 C1131 1.384 . S
H1134 C1140 0.930 . S
H1135 C1144 0.930 . S
H1136 C1149 0.929 . S
H1137 C1147 0.929 . S
H1138 C1142 0.929 . S
H1139 C1148 0.929 . S
C1140 H1134 0.930 . S
C1140 C1141 1.367 . S
C1140 C1148 1.378 . S
C1141 C1140 1.367 . S
C1141 C1149 1.433 . S
C1142 H1138 0.929 . S
C1142 C1144 1.378 . S
C1142 C1146 1.350 . S
C1143 C1146 1.463 . S
C1143 C1148 1.350 . S
C1143 N1151 1.427 . S
C1144 H1135 0.930 . S
C1144 C1142 1.378 . S
C1144 C1145 1.367 . S
C1145 C1144 1.367 . S
C1145 C1147 1.433 . S
C1146 C1142 1.350 . S
C1146 C1143 1.463 . S
C1146 N1150 1.427 . S
C1147 H1137 0.929 . S
C1147 C1145 1.433 . S
C1147 N1150 1.384 . S
C1148 H1139 0.929 . S
C1148 C1140 1.378 . S
C1148 C1143 1.350 . S
C1149 H1136 0.929 . S
C1149 C1141 1.433 . S
C1149 N1151 1.384 . S
N1150 C1146 1.427 . S
N1150 C1147 1.384 . S
N1151 C1143 1.427 . S
N1151 C1149 1.384 . S
H1152 C1158 0.930 . S
H1153 C1162 0.930 . S
H1154 C1167 0.929 . S
H1155 C1165 0.929 . S
H1156 C1160 0.929 . S
H1157 C1166 0.929 . S
C1158 H1152 0.930 . S
C1158 C1159 1.367 . S
C1158 C1166 1.378 . S
C1159 C1158 1.367 . S
C1159 C1167 1.433 . S
C1160 H1156 0.929 . S
C1160 C1162 1.378 . S
C1160 C1164 1.350 . S
C1161 C1164 1.463 . S
C1161 C1166 1.350 . S
C1161 N1169 1.427 . S
C1162 H1153 0.930 . S
C1162 C1160 1.378 . S
C1162 C1163 1.367 . S
C1163 C1162 1.367 . S
C1163 C1165 1.433 . S
C1164 C1160 1.350 . S
C1164 C1161 1.463 . S
C1164 N1168 1.427 . S
C1165 H1155 0.929 . S
C1165 C1163 1.433 . S
C1165 N1168 1.384 . S
C1166 H1157 0.929 . S
C1166 C1158 1.378 . S
C1166 C1161 1.350 . S
C1167 H1154 0.929 . S
C1167 C1159 1.433 . S
C1167 N1169 1.384 . S
N1168 C1164 1.427 . S
N1168 C1165 1.384 . S
N1169 C1161 1.427 . S
N1169 C1167 1.384 . S
H1170 C1176 0.930 . S
H1171 C1180 0.930 . S
H1172 C1185 0.929 . S
H1173 C1183 0.929 . S
H1174 C1178 0.929 . S
H1175 C1184 0.929 . S
C1176 H1170 0.930 . S
C1176 C1177 1.367 . S
C1176 C1184 1.378 . S
C1177 C1176 1.367 . S
C1177 C1185 1.433 . S
C1178 H1174 0.929 . S
C1178 C1180 1.378 . S
C1178 C1182 1.350 . S
C1179 C1182 1.463 . S
C1179 C1184 1.350 . S
C1179 N1187 1.427 . S
C1180 H1171 0.930 . S
C1180 C1178 1.378 . S
C1180 C1181 1.367 . S
C1181 C1180 1.367 . S
C1181 C1183 1.433 . S
C1182 C1178 1.350 . S
C1182 C1179 1.463 . S
C1182 N1186 1.427 . S
C1183 H1173 0.929 . S
C1183 C1181 1.433 . S
C1183 N1186 1.384 . S
C1184 H1175 0.929 . S
C1184 C1176 1.378 . S
C1184 C1179 1.350 . S
C1185 H1172 0.929 . S
C1185 C1177 1.433 . S
C1185 N1187 1.384 . S
N1186 C1182 1.427 . S
N1186 C1183 1.384 . S
N1187 C1179 1.427 . S
N1187 C1185 1.384 . S
H1188 C1194 0.930 . S
H1189 C1198 0.930 . S
H1190 C1203 0.929 . S
H1191 C1201 0.929 . S
H1192 C1196 0.929 . S
H1193 C1202 0.929 . S
C1194 H1188 0.930 . S
C1194 C1195 1.367 . S
C1194 C1202 1.378 . S
C1195 C1194 1.367 . S
C1195 C1203 1.433 . S
C1196 H1192 0.929 . S
C1196 C1198 1.378 . S
C1196 C1200 1.350 . S
C1197 C1200 1.463 . S
C1197 C1202 1.350 . S
C1197 N1205 1.427 . S
C1198 H1189 0.930 . S
C1198 C1196 1.378 . S
C1198 C1199 1.367 . S
C1199 C1198 1.367 . S
C1199 C1201 1.433 . S
C1200 C1196 1.350 . S
C1200 C1197 1.463 . S
C1200 N1204 1.427 . S
C1201 H1191 0.929 . S
C1201 C1199 1.433 . S
C1201 N1204 1.384 . S
C1202 H1193 0.929 . S
C1202 C1194 1.378 . S
C1202 C1197 1.350 . S
C1203 H1190 0.929 . S
C1203 C1195 1.433 . S
C1203 N1205 1.384 . S
N1204 C1200 1.427 . S
N1204 C1201 1.384 . S
N1205 C1197 1.427 . S
N1205 C1203 1.384 . S
H1206 C1212 0.930 . S
H1207 C1216 0.930 . S
H1208 C1221 0.929 . S
H1209 C1219 0.929 . S
H1210 C1214 0.929 . S
H1211 C1220 0.929 . S
C1212 H1206 0.930 . S
C1212 C1213 1.367 . S
C1212 C1220 1.378 . S
C1213 C1212 1.367 . S
C1213 C1221 1.433 . S
C1214 H1210 0.929 . S
C1214 C1216 1.378 . S
C1214 C1218 1.350 . S
C1215 C1218 1.463 . S
C1215 C1220 1.350 . S
C1215 N1223 1.427 . S
C1216 H1207 0.930 . S
C1216 C1214 1.378 . S
C1216 C1217 1.367 . S
C1217 C1216 1.367 . S
C1217 C1219 1.433 . S
C1218 C1214 1.350 . S
C1218 C1215 1.463 . S
C1218 N1222 1.427 . S
C1219 H1209 0.929 . S
C1219 C1217 1.433 . S
C1219 N1222 1.384 . S
C1220 H1211 0.929 . S
C1220 C1212 1.378 . S
C1220 C1215 1.350 . S
C1221 H1208 0.929 . S
C1221 C1213 1.433 . S
C1221 N1223 1.384 . S
N1222 C1218 1.427 . S
N1222 C1219 1.384 . S
N1223 C1215 1.427 . S
N1223 C1221 1.384 . S
H1224 C1230 0.930 . S
H1225 C1234 0.930 . S
H1226 C1239 0.929 . S
H1227 C1237 0.929 . S
H1228 C1232 0.929 . S
H1229 C1238 0.929 . S
C1230 H1224 0.930 . S
C1230 C1231 1.367 . S
C1230 C1238 1.378 . S
C1231 C1230 1.367 . S
C1231 C1239 1.433 . S
C1232 H1228 0.929 . S
C1232 C1234 1.378 . S
C1232 C1236 1.350 . S
C1233 C1236 1.463 . S
C1233 C1238 1.350 . S
C1233 N1241 1.427 . S
C1234 H1225 0.930 . S
C1234 C1232 1.378 . S
C1234 C1235 1.367 . S
C1235 C1234 1.367 . S
C1235 C1237 1.433 . S
C1236 C1232 1.350 . S
C1236 C1233 1.463 . S
C1236 N1240 1.427 . S
C1237 H1227 0.929 . S
C1237 C1235 1.433 . S
C1237 N1240 1.384 . S
C1238 H1229 0.929 . S
C1238 C1230 1.378 . S
C1238 C1233 1.350 . S
C1239 H1226 0.929 . S
C1239 C1231 1.433 . S
C1239 N1241 1.384 . S
N1240 C1236 1.427 . S
N1240 C1237 1.384 . S
N1241 C1233 1.427 . S
N1241 C1239 1.384 . S
H1242 C1248 0.930 . S
H1243 C1252 0.930 . S
H1244 C1257 0.929 . S
H1245 C1255 0.929 . S
H1246 C1250 0.929 . S
H1247 C1256 0.929 . S
C1248 H1242 0.930 . S
C1248 C1249 1.367 . S
C1248 C1256 1.378 . S
C1249 C1248 1.367 . S
C1249 C1257 1.433 . S
C1250 H1246 0.929 . S
C1250 C1252 1.378 . S
C1250 C1254 1.350 . S
C1251 C1254 1.463 . S
C1251 C1256 1.350 . S
C1251 N1259 1.427 . S
C1252 H1243 0.930 . S
C1252 C1250 1.378 . S
C1252 C1253 1.367 . S
C1253 C1252 1.367 . S
C1253 C1255 1.433 . S
C1254 C1250 1.350 . S
C1254 C1251 1.463 . S
C1254 N1258 1.427 . S
C1255 H1245 0.929 . S
C1255 C1253 1.433 . S
C1255 N1258 1.384 . S
C1256 H1247 0.929 . S
C1256 C1248 1.378 . S
C1256 C1251 1.350 . S
C1257 H1244 0.929 . S
C1257 C1249 1.433 . S
C1257 N1259 1.384 . S
N1258 C1254 1.427 . S
N1258 C1255 1.384 . S
N1259 C1251 1.427 . S
N1259 C1257 1.384 . S
H1260 C1266 0.930 . S
H1261 C1270 0.930 . S
H1262 C1275 0.929 . S
H1263 C1273 0.929 . S
H1264 C1268 0.929 . S
H1265 C1274 0.929 . S
C1266 H1260 0.930 . S
C1266 C1267 1.367 . S
C1266 C1274 1.378 . S
C1267 C1266 1.367 . S
C1267 C1275 1.433 . S
C1268 H1264 0.929 . S
C1268 C1270 1.378 . S
C1268 C1272 1.350 . S
C1269 C1272 1.463 . S
C1269 C1274 1.350 . S
C1269 N1277 1.427 . S
C1270 H1261 0.930 . S
C1270 C1268 1.378 . S
C1270 C1271 1.367 . S
C1271 C1270 1.367 . S
C1271 C1273 1.433 . S
C1272 C1268 1.350 . S
C1272 C1269 1.463 . S
C1272 N1276 1.427 . S
C1273 H1263 0.929 . S
C1273 C1271 1.433 . S
C1273 N1276 1.384 . S
C1274 H1265 0.929 . S
C1274 C1266 1.378 . S
C1274 C1269 1.350 . S
C1275 H1262 0.929 . S
C1275 C1267 1.433 . S
C1275 N1277 1.384 . S
N1276 C1272 1.427 . S
N1276 C1273 1.384 . S
N1277 C1269 1.427 . S
N1277 C1275 1.384 . S
H1278 C1284 0.930 . S
H1279 C1288 0.930 . S
H1280 C1293 0.929 . S
H1281 C1291 0.929 . S
H1282 C1286 0.929 . S
H1283 C1292 0.929 . S
C1284 H1278 0.930 . S
C1284 C1285 1.367 . S
C1284 C1292 1.378 . S
C1285 C1284 1.367 . S
C1285 C1293 1.433 . S
C1286 H1282 0.929 . S
C1286 C1288 1.378 . S
C1286 C1290 1.350 . S
C1287 C1290 1.463 . S
C1287 C1292 1.350 . S
C1287 N1295 1.427 . S
C1288 H1279 0.930 . S
C1288 C1286 1.378 . S
C1288 C1289 1.367 . S
C1289 C1288 1.367 . S
C1289 C1291 1.433 . S
C1290 C1286 1.350 . S
C1290 C1287 1.463 . S
C1290 N1294 1.427 . S
C1291 H1281 0.929 . S
C1291 C1289 1.433 . S
C1291 N1294 1.384 . S
C1292 H1283 0.929 . S
C1292 C1284 1.378 . S
C1292 C1287 1.350 . S
C1293 H1280 0.929 . S
C1293 C1285 1.433 . S
C1293 N1295 1.384 . S
N1294 C1290 1.427 . S
N1294 C1291 1.384 . S
N1295 C1287 1.427 . S
N1295 C1293 1.384 . S
H1296 C1302 0.930 . S
H1297 C1306 0.930 . S
H1298 C1311 0.929 . S
H1299 C1309 0.929 . S
H1300 C1304 0.929 . S
H1301 C1310 0.929 . S
C1302 H1296 0.930 . S
C1302 C1303 1.367 . S
C1302 C1310 1.378 . S
C1303 C1302 1.367 . S
C1303 C1311 1.433 . S
C1304 H1300 0.929 . S
C1304 C1306 1.378 . S
C1304 C1308 1.350 . S
C1305 C1308 1.463 . S
C1305 C1310 1.350 . S
C1305 N1313 1.427 . S
C1306 H1297 0.930 . S
C1306 C1304 1.378 . S
C1306 C1307 1.367 . S
C1307 C1306 1.367 . S
C1307 C1309 1.433 . S
C1308 C1304 1.350 . S
C1308 C1305 1.463 . S
C1308 N1312 1.427 . S
C1309 H1299 0.929 . S
C1309 C1307 1.433 . S
C1309 N1312 1.384 . S
C1310 H1301 0.929 . S
C1310 C1302 1.378 . S
C1310 C1305 1.350 . S
C1311 H1298 0.929 . S
C1311 C1303 1.433 . S
C1311 N1313 1.384 . S
N1312 C1308 1.427 . S
N1312 C1309 1.384 . S
N1313 C1305 1.427 . S
N1313 C1311 1.384 . S
H1314 C1320 0.930 . S
H1315 C1324 0.930 . S
H1316 C1329 0.929 . S
H1317 C1327 0.929 . S
H1318 C1322 0.929 . S
H1319 C1328 0.929 . S
C1320 H1314 0.930 . S
C1320 C1321 1.367 . S
C1320 C1328 1.378 . S
C1321 C1320 1.367 . S
C1321 C1329 1.433 . S
C1322 H1318 0.929 . S
C1322 C1324 1.378 . S
C1322 C1326 1.350 . S
C1323 C1326 1.463 . S
C1323 C1328 1.350 . S
C1323 N1331 1.427 . S
C1324 H1315 0.930 . S
C1324 C1322 1.378 . S
C1324 C1325 1.367 . S
C1325 C1324 1.367 . S
C1325 C1327 1.433 . S
C1326 C1322 1.350 . S
C1326 C1323 1.463 . S
C1326 N1330 1.427 . S
C1327 H1317 0.929 . S
C1327 C1325 1.433 . S
C1327 N1330 1.384 . S
C1328 H1319 0.929 . S
C1328 C1320 1.378 . S
C1328 C1323 1.350 . S
C1329 H1316 0.929 . S
C1329 C1321 1.433 . S
C1329 N1331 1.384 . S
N1330 C1326 1.427 . S
N1330 C1327 1.384 . S
N1331 C1323 1.427 . S
N1331 C1329 1.384 . S
H1332 C1338 0.930 . S
H1333 C1342 0.930 . S
H1334 C1347 0.929 . S
H1335 C1345 0.929 . S
H1336 C1340 0.929 . S
H1337 C1346 0.929 . S
C1338 H1332 0.930 . S
C1338 C1339 1.367 . S
C1338 C1346 1.378 . S
C1339 C1338 1.367 . S
C1339 C1347 1.433 . S
C1340 H1336 0.929 . S
C1340 C1342 1.378 . S
C1340 C1344 1.350 . S
C1341 C1344 1.463 . S
C1341 C1346 1.350 . S
C1341 N1349 1.427 . S
C1342 H1333 0.930 . S
C1342 C1340 1.378 . S
C1342 C1343 1.367 . S
C1343 C1342 1.367 . S
C1343 C1345 1.433 . S
C1344 C1340 1.350 . S
C1344 C1341 1.463 . S
C1344 N1348 1.427 . S
C1345 H1335 0.929 . S
C1345 C1343 1.433 . S
C1345 N1348 1.384 . S
C1346 H1337 0.929 . S
C1346 C1338 1.378 . S
C1346 C1341 1.350 . S
C1347 H1334 0.929 . S
C1347 C1339 1.433 . S
C1347 N1349 1.384 . S
N1348 C1344 1.427 . S
N1348 C1345 1.384 . S
N1349 C1341 1.427 . S
N1349 C1347 1.384 . S
H1350 C1356 0.930 . S
H1351 C1360 0.930 . S
H1352 C1365 0.929 . S
H1353 C1363 0.929 . S
H1354 C1358 0.929 . S
H1355 C1364 0.929 . S
C1356 H1350 0.930 . S
C1356 C1357 1.367 . S
C1356 C1364 1.378 . S
C1357 C1356 1.367 . S
C1357 C1365 1.433 . S
C1358 H1354 0.929 . S
C1358 C1360 1.378 . S
C1358 C1362 1.350 . S
C1359 C1362 1.463 . S
C1359 C1364 1.350 . S
C1359 N1367 1.427 . S
C1360 H1351 0.930 . S
C1360 C1358 1.378 . S
C1360 C1361 1.367 . S
C1361 C1360 1.367 . S
C1361 C1363 1.433 . S
C1362 C1358 1.350 . S
C1362 C1359 1.463 . S
C1362 N1366 1.427 . S
C1363 H1353 0.929 . S
C1363 C1361 1.433 . S
C1363 N1366 1.384 . S
C1364 H1355 0.929 . S
C1364 C1356 1.378 . S
C1364 C1359 1.350 . S
C1365 H1352 0.929 . S
C1365 C1357 1.433 . S
C1365 N1367 1.384 . S
N1366 C1362 1.427 . S
N1366 C1363 1.384 . S
N1367 C1359 1.427 . S
N1367 C1365 1.384 . S
H1368 C1374 0.930 . S
H1369 C1378 0.930 . S
H1370 C1383 0.929 . S
H1371 C1381 0.929 . S
H1372 C1376 0.929 . S
H1373 C1382 0.929 . S
C1374 H1368 0.930 . S
C1374 C1375 1.367 . S
C1374 C1382 1.378 . S
C1375 C1374 1.367 . S
C1375 C1383 1.433 1_655 S
C1376 H1372 0.929 . S
C1376 C1378 1.378 . S
C1376 C1380 1.350 . S
C1377 C1380 1.463 1_655 S
C1377 C1382 1.350 . S
C1377 N1385 1.427 1_655 S
C1378 H1369 0.930 . S
C1378 C1376 1.378 . S
C1378 C1379 1.367 . S
C1379 C1378 1.367 . S
C1379 C1381 1.433 1_455 S
C1380 C1376 1.350 . S
C1380 C1377 1.463 1_455 S
C1380 N1384 1.427 1_455 S
C1381 H1371 0.929 . S
C1381 C1379 1.433 1_655 S
C1381 N1384 1.384 . S
C1382 H1373 0.929 . S
C1382 C1374 1.378 . S
C1382 C1377 1.350 . S
C1383 H1370 0.929 . S
C1383 C1375 1.433 1_455 S
C1383 N1385 1.384 . S
N1384 C1380 1.427 1_655 S
N1384 C1381 1.384 . S
N1385 C1377 1.427 1_455 S
N1385 C1383 1.384 . S
H1386 C1392 0.930 . S
H1387 C1396 0.930 . S
H1388 C1401 0.929 . S
H1389 C1399 0.929 . S
H1390 C1394 0.929 . S
H1391 C1400 0.929 . S
C1392 H1386 0.930 . S
C1392 C1393 1.367 . S
C1392 C1400 1.378 . S
C1393 C1392 1.367 . S
C1393 C1401 1.433 . S
C1394 H1390 0.929 . S
C1394 C1396 1.378 . S
C1394 C1398 1.350 . S
C1395 C1398 1.463 . S
C1395 C1400 1.350 . S
C1395 N1403 1.427 . S
C1396 H1387 0.930 . S
C1396 C1394 1.378 . S
C1396 C1397 1.367 . S
C1397 C1396 1.367 . S
C1397 C1399 1.433 . S
C1398 C1394 1.350 . S
C1398 C1395 1.463 . S
C1398 N1402 1.427 . S
C1399 H1389 0.929 . S
C1399 C1397 1.433 . S
C1399 N1402 1.384 . S
C1400 H1391 0.929 . S
C1400 C1392 1.378 . S
C1400 C1395 1.350 . S
C1401 H1388 0.929 . S
C1401 C1393 1.433 . S
C1401 N1403 1.384 . S
N1402 C1398 1.427 . S
N1402 C1399 1.384 . S
N1403 C1395 1.427 . S
N1403 C1401 1.384 . S
H1404 C1410 0.930 . S
H1405 C1414 0.930 . S
H1406 C1419 0.929 . S
H1407 C1417 0.929 . S
H1408 C1412 0.929 . S
H1409 C1418 0.929 . S
C1410 H1404 0.930 . S
C1410 C1411 1.367 1_545 S
C1410 C1418 1.378 . S
C1411 C1410 1.367 1_565 S
C1411 C1419 1.433 . S
C1412 H1408 0.929 . S
C1412 C1414 1.378 . S
C1412 C1416 1.350 1_565 S
C1413 C1416 1.432 1_565 S
C1413 C1418 1.350 1_565 S
C1413 N1421 1.444 . S
C1414 H1405 0.930 . S
C1414 C1412 1.378 . S
C1414 C1415 1.367 1_565 S
C1415 C1414 1.367 1_545 S
C1415 C1417 1.433 . S
C1416 C1412 1.350 1_545 S
C1416 C1413 1.432 1_545 S
C1416 N1420 1.444 . S
C1417 H1407 0.929 . S
C1417 C1415 1.433 . S
C1417 N1420 1.384 . S
C1418 H1409 0.929 . S
C1418 C1410 1.378 . S
C1418 C1413 1.350 1_545 S
C1419 H1406 0.929 . S
C1419 C1411 1.433 . S
C1419 N1421 1.384 . S
N1420 C1416 1.444 . S
N1420 C1417 1.384 . S
N1421 C1413 1.444 . S
N1421 C1419 1.384 . S
H1422 C1428 0.930 . S
H1423 C1432 0.930 . S
H1424 C1437 0.929 . S
H1425 C1435 0.929 . S
H1426 C1430 0.929 . S
H1427 C1436 0.929 . S
C1428 H1422 0.930 . S
C1428 C1429 1.367 1_554 S
C1428 C1436 1.378 . S
C1429 C1428 1.367 1_556 S
C1429 C1437 1.433 1_565 S
C1430 H1426 0.929 . S
C1430 C1432 1.378 . S
C1430 C1434 1.360 1_556 S
C1431 C1434 1.525 1_566 S
C1431 C1436 1.360 1_556 S
C1431 N1439 1.391 1_565 S
C1432 H1423 0.930 . S
C1432 C1430 1.378 . S
C1432 C1433 1.367 1_556 S
C1433 C1432 1.367 1_554 S
C1433 C1435 1.433 1_545 S
C1434 C1430 1.360 1_554 S
C1434 C1431 1.525 1_544 S
C1434 N1438 1.391 1_545 S
C1435 H1425 0.929 . S
C1435 C1433 1.433 1_565 S
C1435 N1438 1.384 . S
C1436 H1427 0.929 . S
C1436 C1428 1.378 . S
C1436 C1431 1.360 1_554 S
C1437 H1424 0.929 . S
C1437 C1429 1.433 1_545 S
C1437 N1439 1.384 . S
N1438 C1434 1.391 1_565 S
N1438 C1435 1.384 . S
N1439 C1431 1.391 1_545 S
N1439 C1437 1.384 . S
H1440 C1446 0.930 . S
H1441 C1450 0.930 . S
H1442 C1455 0.929 . S
H1443 C1453 0.929 . S
H1444 C1448 0.929 . S
H1445 C1454 0.929 . S
C1446 H1440 0.930 . S
C1446 C1447 1.367 . S
C1446 C1454 1.378 . S
C1447 C1446 1.367 . S
C1447 C1455 1.433 1_654 S
C1448 H1444 0.929 . S
C1448 C1450 1.378 . S
C1448 C1452 1.369 . S
C1449 C1452 1.407 1_654 S
C1449 C1454 1.369 . S
C1449 N1457 1.437 1_654 S
C1450 H1441 0.930 . S
C1450 C1448 1.378 . S
C1450 C1451 1.367 . S
C1451 C1450 1.367 . S
C1451 C1453 1.433 1_456 S
C1452 C1448 1.369 . S
C1452 C1449 1.407 1_456 S
C1452 N1456 1.437 1_456 S
C1453 H1443 0.929 . S
C1453 C1451 1.433 1_654 S
C1453 N1456 1.384 . S
C1454 H1445 0.929 . S
C1454 C1446 1.378 . S
C1454 C1449 1.369 . S
C1455 H1442 0.929 . S
C1455 C1447 1.433 1_456 S
C1455 N1457 1.384 . S
N1456 C1452 1.437 1_654 S
N1456 C1453 1.384 . S
N1457 C1449 1.437 1_456 S
N1457 C1455 1.384 . S
H1458 C1464 0.930 . S
H1459 C1468 0.930 . S
H1460 C1473 0.929 . S
H1461 C1471 0.929 . S
H1462 C1466 0.929 . S
H1463 C1472 0.929 . S
C1464 H1458 0.930 . S
C1464 C1465 1.367 . S
C1464 C1472 1.378 . S
C1465 C1464 1.367 . S
C1465 C1473 1.433 1_554 S
C1466 H1462 0.929 . S
C1466 C1468 1.378 . S
C1466 C1470 1.350 . S
C1467 C1470 1.463 1_554 S
C1467 C1472 1.350 . S
C1467 N1475 1.427 1_554 S
C1468 H1459 0.930 . S
C1468 C1466 1.378 . S
C1468 C1469 1.367 . S
C1469 C1468 1.367 . S
C1469 C1471 1.433 1_556 S
C1470 C1466 1.350 . S
C1470 C1467 1.463 1_556 S
C1470 N1474 1.427 1_556 S
C1471 H1461 0.929 . S
C1471 C1469 1.433 1_554 S
C1471 N1474 1.384 . S
C1472 H1463 0.929 . S
C1472 C1464 1.378 . S
C1472 C1467 1.350 . S
C1473 H1460 0.929 . S
C1473 C1465 1.433 1_556 S
C1473 N1475 1.384 . S
N1474 C1470 1.427 1_554 S
N1474 C1471 1.384 . S
N1475 C1467 1.427 1_556 S
N1475 C1473 1.384 . S
H1476 C1482 0.940 . S
H1477 C1486 0.930 . S
H1478 C1491 0.929 . S
H1479 C1489 0.929 . S
H1480 C1484 0.929 . S
H1481 C1490 0.929 . S
C1482 H1476 0.940 . S
C1482 C1483 1.367 . S
C1482 C1490 1.378 . S
C1483 C1482 1.367 . S
C1483 C1491 1.433 . S
C1484 H1480 0.929 . S
C1484 C1486 1.378 . S
C1484 C1488 1.350 . S
C1485 C1488 1.463 . S
C1485 C1490 1.350 . S
C1485 N1493 1.427 . S
C1486 H1477 0.930 . S
C1486 C1484 1.378 . S
C1486 C1487 1.367 . S
C1487 C1486 1.367 . S
C1487 C1489 1.433 . S
C1488 C1484 1.350 . S
C1488 C1485 1.463 . S
C1488 N1492 1.427 . S
C1489 H1479 0.929 . S
C1489 C1487 1.433 . S
C1489 N1492 1.384 . S
C1490 H1481 0.929 . S
C1490 C1482 1.378 . S
C1490 C1485 1.350 . S
C1491 H1478 0.929 . S
C1491 C1483 1.433 . S
C1491 N1493 1.384 . S
N1492 C1488 1.427 . S
N1492 C1489 1.384 . S
N1493 C1485 1.427 . S
N1493 C1491 1.384 . S
H1494 C1500 0.930 . S
H1495 C1504 0.930 1_556 S
H1496 C1509 0.929 . S
H1497 C1507 0.929 . S
H1498 C1502 0.929 . S
H1499 C1508 0.929 . S
C1500 H1494 0.930 . S
C1500 C1501 1.367 . S
C1500 C1508 1.378 . S
C1501 C1500 1.367 . S
C1501 C1509 1.433 . S
C1502 H1498 0.929 . S
C1502 C1504 1.378 . S
C1502 C1506 1.350 . S
C1503 C1506 1.463 . S
C1503 C1508 1.350 . S
C1503 N1511 1.427 . S
C1504 H1495 0.930 1_554 S
C1504 C1502 1.378 . S
C1504 C1505 1.367 . S
C1505 C1504 1.367 . S
C1505 C1507 1.433 . S
C1506 C1502 1.350 . S
C1506 C1503 1.463 . S
C1506 N1510 1.427 . S
C1507 H1497 0.929 . S
C1507 C1505 1.433 . S
C1507 N1510 1.384 . S
C1508 H1499 0.929 . S
C1508 C1500 1.378 . S
C1508 C1503 1.350 . S
C1509 H1496 0.929 . S
C1509 C1501 1.433 . S
C1509 N1511 1.384 . S
N1510 C1506 1.427 . S
N1510 C1507 1.384 . S
N1511 C1503 1.427 . S
N1511 C1509 1.384 . S
H1512 C1518 0.930 1_556 S
H1513 C1522 0.930 . S
H1514 C1527 0.929 . S
H1515 C1525 0.929 . S
H1516 C1520 0.929 . S
H1517 C1526 0.929 . S
C1518 H1512 0.930 1_554 S
C1518 C1519 1.367 . S
C1518 C1526 1.378 . S
C1519 C1518 1.367 . S
C1519 C1527 1.433 . S
C1520 H1516 0.929 . S
C1520 C1522 1.378 . S
C1520 C1524 1.350 . S
C1521 C1524 1.463 . S
C1521 C1526 1.350 . S
C1521 N1529 1.427 . S
C1522 H1513 0.930 . S
C1522 C1520 1.378 . S
C1522 C1523 1.367 . S
C1523 C1522 1.367 . S
C1523 C1525 1.433 . S
C1524 C1520 1.350 . S
C1524 C1521 1.463 . S
C1524 N1528 1.427 . S
C1525 H1515 0.929 . S
C1525 C1523 1.433 . S
C1525 N1528 1.384 . S
C1526 H1517 0.929 . S
C1526 C1518 1.378 . S
C1526 C1521 1.350 . S
C1527 H1514 0.929 . S
C1527 C1519 1.433 . S
C1527 N1529 1.384 . S
N1528 C1524 1.427 . S
N1528 C1525 1.384 . S
N1529 C1521 1.427 . S
N1529 C1527 1.384 . S
H1530 C1536 0.930 . S
H1531 C1540 0.930 . S
H1532 C1545 0.929 . S
H1533 C1543 0.929 . S
H1534 C1538 0.929 . S
H1535 C1544 0.929 . S
C1536 H1530 0.930 . S
C1536 C1537 1.367 . S
C1536 C1544 1.378 . S
C1537 C1536 1.367 . S
C1537 C1545 1.433 . S
C1538 H1534 0.929 . S
C1538 C1540 1.378 . S
C1538 C1542 1.350 . S
C1539 C1542 1.463 . S
C1539 C1544 1.350 . S
C1539 N1547 1.427 . S
C1540 H1531 0.930 . S
C1540 C1538 1.378 . S
C1540 C1541 1.367 . S
C1541 C1540 1.367 . S
C1541 C1543 1.433 . S
C1542 C1538 1.350 . S
C1542 C1539 1.463 . S
C1542 N1546 1.427 . S
C1543 H1533 0.929 . S
C1543 C1541 1.433 . S
C1543 N1546 1.384 . S
C1544 H1535 0.929 . S
C1544 C1536 1.378 . S
C1544 C1539 1.350 . S
C1545 H1532 0.929 . S
C1545 C1537 1.433 . S
C1545 N1547 1.384 . S
N1546 C1542 1.427 . S
N1546 C1543 1.384 . S
N1547 C1539 1.427 . S
N1547 C1545 1.384 . S
H1548 C1554 0.930 . S
H1549 C1558 0.930 . S
H1550 C1563 0.929 . S
H1551 C1561 0.929 . S
H1552 C1556 0.929 . S
H1553 C1562 0.929 . S
C1554 H1548 0.930 . S
C1554 C1555 1.367 . S
C1554 C1562 1.378 . S
C1555 C1554 1.367 . S
C1555 C1563 1.433 . S
C1556 H1552 0.929 . S
C1556 C1558 1.378 . S
C1556 C1560 1.350 . S
C1557 C1560 1.463 . S
C1557 C1562 1.350 . S
C1557 N1565 1.427 . S
C1558 H1549 0.930 . S
C1558 C1556 1.378 . S
C1558 C1559 1.367 . S
C1559 C1558 1.367 . S
C1559 C1561 1.433 . S
C1560 C1556 1.350 . S
C1560 C1557 1.463 . S
C1560 N1564 1.427 . S
C1561 H1551 0.929 . S
C1561 C1559 1.433 . S
C1561 N1564 1.384 . S
C1562 H1553 0.929 . S
C1562 C1554 1.378 . S
C1562 C1557 1.350 . S
C1563 H1550 0.929 . S
C1563 C1555 1.433 . S
C1563 N1565 1.384 . S
N1564 C1560 1.427 . S
N1564 C1561 1.384 . S
N1565 C1557 1.427 . S
N1565 C1563 1.384 . S
H1566 C1572 0.930 . S
H1567 C1576 0.930 . S
H1568 C1581 0.929 . S
H1569 C1579 0.929 . S
H1570 C1574 0.929 . S
H1571 C1580 0.929 . S
C1572 H1566 0.930 . S
C1572 C1573 1.367 . S
C1572 C1580 1.378 . S
C1573 C1572 1.367 . S
C1573 C1581 1.433 . S
C1574 H1570 0.929 . S
C1574 C1576 1.378 . S
C1574 C1578 1.350 . S
C1575 C1578 1.463 . S
C1575 C1580 1.350 . S
C1575 N1583 1.427 . S
C1576 H1567 0.930 . S
C1576 C1574 1.378 . S
C1576 C1577 1.367 . S
C1577 C1576 1.367 . S
C1577 C1579 1.433 . S
C1578 C1574 1.350 . S
C1578 C1575 1.463 . S
C1578 N1582 1.427 . S
C1579 H1569 0.929 . S
C1579 C1577 1.433 . S
C1579 N1582 1.384 . S
C1580 H1571 0.929 . S
C1580 C1572 1.378 . S
C1580 C1575 1.350 . S
C1581 H1568 0.929 . S
C1581 C1573 1.433 . S
C1581 N1583 1.384 . S
N1582 C1578 1.427 . S
N1582 C1579 1.384 . S
N1583 C1575 1.427 . S
N1583 C1581 1.384 . S
H1584 C1590 0.930 . S
H1585 C1594 0.930 . S
H1586 C1599 0.929 . S
H1587 C1597 0.929 1_554 S
H1588 C1592 0.929 . S
H1589 C1598 0.929 . S
C1590 H1584 0.930 . S
C1590 C1591 1.367 . S
C1590 C1598 1.378 . S
C1591 C1590 1.367 . S
C1591 C1599 1.433 . S
C1592 H1588 0.929 . S
C1592 C1594 1.378 . S
C1592 C1596 1.350 . S
C1593 C1596 1.463 . S
C1593 C1598 1.350 . S
C1593 N1601 1.427 . S
C1594 H1585 0.930 . S
C1594 C1592 1.378 . S
C1594 C1595 1.367 . S
C1595 C1594 1.367 . S
C1595 C1597 1.433 . S
C1596 C1592 1.350 . S
C1596 C1593 1.463 . S
C1596 N1600 1.427 . S
C1597 H1587 0.929 1_556 S
C1597 C1595 1.433 . S
C1597 N1600 1.384 . S
C1598 H1589 0.929 . S
C1598 C1590 1.378 . S
C1598 C1593 1.350 . S
C1599 H1586 0.929 . S
C1599 C1591 1.433 . S
C1599 N1601 1.384 . S
N1600 C1596 1.427 . S
N1600 C1597 1.384 . S
N1601 C1593 1.427 . S
N1601 C1599 1.384 . S
H1602 C1608 0.930 . S
H1603 C1612 0.930 . S
H1604 C1617 0.929 . S
H1605 C1615 0.929 . S
H1606 C1610 0.929 . S
H1607 C1616 0.929 . S
C1608 H1602 0.930 . S
C1608 C1609 1.367 . S
C1608 C1616 1.378 . S
C1609 C1608 1.367 . S
C1609 C1617 1.433 . S
C1610 H1606 0.929 . S
C1610 C1612 1.378 . S
C1610 C1614 1.350 . S
C1611 C1614 1.463 . S
C1611 C1616 1.350 . S
C1611 N1619 1.427 . S
C1612 H1603 0.930 . S
C1612 C1610 1.378 . S
C1612 C1613 1.367 . S
C1613 C1612 1.367 . S
C1613 C1615 1.433 . S
C1614 C1610 1.350 . S
C1614 C1611 1.463 . S
C1614 N1618 1.427 . S
C1615 H1605 0.929 . S
C1615 C1613 1.433 . S
C1615 N1618 1.384 . S
C1616 H1607 0.929 . S
C1616 C1608 1.378 . S
C1616 C1611 1.350 . S
C1617 H1604 0.929 . S
C1617 C1609 1.433 . S
C1617 N1619 1.384 . S
N1618 C1614 1.427 . S
N1618 C1615 1.384 . S
N1619 C1611 1.427 . S
N1619 C1617 1.384 . S
H1620 C1626 0.930 . S
H1621 C1630 0.930 . S
H1622 C1635 0.929 . S
H1623 C1633 0.929 . S
H1624 C1628 0.929 . S
H1625 C1634 0.929 . S
C1626 H1620 0.930 . S
C1626 C1627 1.367 . S
C1626 C1634 1.378 . S
C1627 C1626 1.367 . S
C1627 C1635 1.433 . S
C1628 H1624 0.929 . S
C1628 C1630 1.378 . S
C1628 C1632 1.350 . S
C1629 C1632 1.463 . S
C1629 C1634 1.350 . S
C1629 N1637 1.427 . S
C1630 H1621 0.930 . S
C1630 C1628 1.378 . S
C1630 C1631 1.367 . S
C1631 C1630 1.367 . S
C1631 C1633 1.433 . S
C1632 C1628 1.350 . S
C1632 C1629 1.463 . S
C1632 N1636 1.427 . S
C1633 H1623 0.929 . S
C1633 C1631 1.433 . S
C1633 N1636 1.384 . S
C1634 H1625 0.929 . S
C1634 C1626 1.378 . S
C1634 C1629 1.350 . S
C1635 H1622 0.929 . S
C1635 C1627 1.433 . S
C1635 N1637 1.384 . S
N1636 C1632 1.427 . S
N1636 C1633 1.384 . S
N1637 C1629 1.427 . S
N1637 C1635 1.384 . S
H1638 C1644 0.930 . S
H1639 C1648 0.930 . S
H1640 C1653 0.929 . S
H1641 C1651 0.929 . S
H1642 C1646 0.929 . S
H1643 C1652 0.929 . S
C1644 H1638 0.930 . S
C1644 C1645 1.367 . S
C1644 C1652 1.378 . S
C1645 C1644 1.367 . S
C1645 C1653 1.433 . S
C1646 H1642 0.929 . S
C1646 C1648 1.378 . S
C1646 C1650 1.350 . S
C1647 C1650 1.463 . S
C1647 C1652 1.350 . S
C1647 N1655 1.427 . S
C1648 H1639 0.930 . S
C1648 C1646 1.378 . S
C1648 C1649 1.367 . S
C1649 C1648 1.367 . S
C1649 C1651 1.433 . S
C1650 C1646 1.350 . S
C1650 C1647 1.463 . S
C1650 N1654 1.427 . S
C1651 H1641 0.929 . S
C1651 C1649 1.433 . S
C1651 N1654 1.384 . S
C1652 H1643 0.929 . S
C1652 C1644 1.378 . S
C1652 C1647 1.350 . S
C1653 H1640 0.929 . S
C1653 C1645 1.433 . S
C1653 N1655 1.384 . S
N1654 C1650 1.427 . S
N1654 C1651 1.384 . S
N1655 C1647 1.427 . S
N1655 C1653 1.384 . S
H1656 C1662 0.930 . S
H1657 C1666 0.930 . S
H1658 C1671 0.929 . S
H1659 C1669 0.929 . S
H1660 C1664 0.929 . S
H1661 C1670 0.929 . S
C1662 H1656 0.930 . S
C1662 C1663 1.367 . S
C1662 C1670 1.378 . S
C1663 C1662 1.367 . S
C1663 C1671 1.433 . S
C1664 H1660 0.929 . S
C1664 C1666 1.378 . S
C1664 C1668 1.350 . S
C1665 C1668 1.463 . S
C1665 C1670 1.350 . S
C1665 N1673 1.427 . S
C1666 H1657 0.930 . S
C1666 C1664 1.378 . S
C1666 C1667 1.367 . S
C1667 C1666 1.367 . S
C1667 C1669 1.433 . S
C1668 C1664 1.350 . S
C1668 C1665 1.463 . S
C1668 N1672 1.427 . S
C1669 H1659 0.929 . S
C1669 C1667 1.433 . S
C1669 N1672 1.384 . S
C1670 H1661 0.929 . S
C1670 C1662 1.378 . S
C1670 C1665 1.350 . S
C1671 H1658 0.929 . S
C1671 C1663 1.433 . S
C1671 N1673 1.384 . S
N1672 C1668 1.427 . S
N1672 C1669 1.384 . S
N1673 C1665 1.427 . S
N1673 C1671 1.384 . S
H1674 C1680 0.930 . S
H1675 C1684 0.930 . S
H1676 C1689 0.929 . S
H1677 C1687 0.929 . S
H1678 C1682 0.929 . S
H1679 C1688 0.929 . S
C1680 H1674 0.930 . S
C1680 C1681 1.367 . S
C1680 C1688 1.378 . S
C1681 C1680 1.367 . S
C1681 C1689 1.433 . S
C1682 H1678 0.929 . S
C1682 C1684 1.378 . S
C1682 C1686 1.350 . S
C1683 C1686 1.463 . S
C1683 C1688 1.350 . S
C1683 N1691 1.427 . S
C1684 H1675 0.930 . S
C1684 C1682 1.378 . S
C1684 C1685 1.367 . S
C1685 C1684 1.367 . S
C1685 C1687 1.433 . S
C1686 C1682 1.350 . S
C1686 C1683 1.463 . S
C1686 N1690 1.427 . S
C1687 H1677 0.929 . S
C1687 C1685 1.433 . S
C1687 N1690 1.384 . S
C1688 H1679 0.929 . S
C1688 C1680 1.378 . S
C1688 C1683 1.350 . S
C1689 H1676 0.929 . S
C1689 C1681 1.433 . S
C1689 N1691 1.384 . S
N1690 C1686 1.427 . S
N1690 C1687 1.384 . S
N1691 C1683 1.427 . S
N1691 C1689 1.384 . S
H1692 C1698 0.930 . S
H1693 C1702 0.930 . S
H1694 C1707 0.929 . S
H1695 C1705 0.929 . S
H1696 C1700 0.929 . S
H1697 C1706 0.929 . S
C1698 H1692 0.930 . S
C1698 C1699 1.367 . S
C1698 C1706 1.378 . S
C1699 C1698 1.367 . S
C1699 C1707 1.433 . S
C1700 H1696 0.929 . S
C1700 C1702 1.378 . S
C1700 C1704 1.350 . S
C1701 C1704 1.463 . S
C1701 C1706 1.350 . S
C1701 N1709 1.427 . S
C1702 H1693 0.930 . S
C1702 C1700 1.378 . S
C1702 C1703 1.367 . S
C1703 C1702 1.367 . S
C1703 C1705 1.433 . S
C1704 C1700 1.350 . S
C1704 C1701 1.463 . S
C1704 N1708 1.427 . S
C1705 H1695 0.929 . S
C1705 C1703 1.433 . S
C1705 N1708 1.384 . S
C1706 H1697 0.929 . S
C1706 C1698 1.378 . S
C1706 C1701 1.350 . S
C1707 H1694 0.929 . S
C1707 C1699 1.433 . S
C1707 N1709 1.384 . S
N1708 C1704 1.427 . S
N1708 C1705 1.384 . S
N1709 C1701 1.427 . S
N1709 C1707 1.384 . S
H1710 C1716 0.930 . S
H1711 C1720 0.930 . S
H1712 C1725 0.929 . S
H1713 C1723 0.929 . S
H1714 C1718 0.929 1_545 S
H1715 C1724 0.929 1_565 S
C1716 H1710 0.930 . S
C1716 C1717 1.367 . S
C1716 C1724 1.378 . S
C1717 C1716 1.367 . S
C1717 C1725 1.433 . S
C1718 H1714 0.929 1_565 S
C1718 C1720 1.378 . S
C1718 C1722 1.350 . S
C1719 C1722 1.463 1_545 S
C1719 C1724 1.350 . S
C1719 N1727 1.427 . S
C1720 H1711 0.930 . S
C1720 C1718 1.378 . S
C1720 C1721 1.367 . S
C1721 C1720 1.367 . S
C1721 C1723 1.433 . S
C1722 C1718 1.350 . S
C1722 C1719 1.463 1_565 S
C1722 N1726 1.427 . S
C1723 H1713 0.929 . S
C1723 C1721 1.433 . S
C1723 N1726 1.384 . S
C1724 H1715 0.929 1_545 S
C1724 C1716 1.378 . S
C1724 C1719 1.350 . S
C1725 H1712 0.929 . S
C1725 C1717 1.433 . S
C1725 N1727 1.384 . S
N1726 C1722 1.427 . S
N1726 C1723 1.384 . S
N1727 C1719 1.427 . S
N1727 C1725 1.384 . S
H1728 C1734 0.930 . S
H1729 C1738 0.930 . S
H1730 C1743 0.929 . S
H1731 C1741 0.929 . S
H1732 C1736 0.929 1_655 S
H1733 C1742 0.929 1_455 S
C1734 H1728 0.930 . S
C1734 C1735 1.367 . S
C1734 C1742 1.378 . S
C1735 C1734 1.367 . S
C1735 C1743 1.433 . S
C1736 H1732 0.929 1_455 S
C1736 C1738 1.378 . S
C1736 C1740 1.350 . S
C1737 C1740 1.463 1_655 S
C1737 C1742 1.350 . S
C1737 N1745 1.427 . S
C1738 H1729 0.930 . S
C1738 C1736 1.378 . S
C1738 C1739 1.367 . S
C1739 C1738 1.367 . S
C1739 C1741 1.433 . S
C1740 C1736 1.350 . S
C1740 C1737 1.463 1_455 S
C1740 N1744 1.427 . S
C1741 H1731 0.929 . S
C1741 C1739 1.433 . S
C1741 N1744 1.384 . S
C1742 H1733 0.929 1_655 S
C1742 C1734 1.378 . S
C1742 C1737 1.350 . S
C1743 H1730 0.929 . S
C1743 C1735 1.433 . S
C1743 N1745 1.384 . S
N1744 C1740 1.427 . S
N1744 C1741 1.384 . S
N1745 C1737 1.427 . S
N1745 C1743 1.384 . S
H1746 C1752 0.930 . S
H1747 C1756 0.930 . S
H1748 C1761 0.929 . S
H1749 C1759 0.929 . S
H1750 C1754 0.929 . S
H1751 C1760 0.929 . S
C1752 H1746 0.930 . S
C1752 C1753 1.367 . S
C1752 C1760 1.378 . S
C1753 C1752 1.367 . S
C1753 C1761 1.433 . S
C1754 H1750 0.929 . S
C1754 C1756 1.378 . S
C1754 C1758 1.350 . S
C1755 C1758 1.463 . S
C1755 C1760 1.350 . S
C1755 N1763 1.427 . S
C1756 H1747 0.930 . S
C1756 C1754 1.378 . S
C1756 C1757 1.367 . S
C1757 C1756 1.367 . S
C1757 C1759 1.433 . S
C1758 C1754 1.350 . S
C1758 C1755 1.463 . S
C1758 N1762 1.427 . S
C1759 H1749 0.929 . S
C1759 C1757 1.433 . S
C1759 N1762 1.384 . S
C1760 H1751 0.929 . S
C1760 C1752 1.378 . S
C1760 C1755 1.350 . S
C1761 H1748 0.929 . S
C1761 C1753 1.433 . S
C1761 N1763 1.384 . S
N1762 C1758 1.427 . S
N1762 C1759 1.384 . S
N1763 C1755 1.427 . S
N1763 C1761 1.384 . S
H1764 C1770 0.930 . S
H1765 C1774 0.930 . S
H1766 C1779 0.929 . S
H1767 C1777 0.929 . S
H1768 C1772 0.929 . S
H1769 C1778 0.929 . S
C1770 H1764 0.930 . S
C1770 C1771 1.367 . S
C1770 C1778 1.378 . S
C1771 C1770 1.367 . S
C1771 C1779 1.433 . S
C1772 H1768 0.929 . S
C1772 C1774 1.378 . S
C1772 C1776 1.350 . S
C1773 C1776 1.463 1_545 S
C1773 C1778 1.350 . S
C1773 N1781 1.431 . S
C1774 H1765 0.930 . S
C1774 C1772 1.378 . S
C1774 C1775 1.367 . S
C1775 C1774 1.367 . S
C1775 C1777 1.433 . S
C1776 C1772 1.350 . S
C1776 C1773 1.463 1_565 S
C1776 N1780 1.430 . S
C1777 H1767 0.929 . S
C1777 C1775 1.433 . S
C1777 N1780 1.391 . S
C1778 H1769 0.929 . S
C1778 C1770 1.378 . S
C1778 C1773 1.350 . S
C1779 H1766 0.929 . S
C1779 C1771 1.433 . S
C1779 N1781 1.392 . S
N1780 C1776 1.430 . S
N1780 C1777 1.391 . S
N1781 C1773 1.431 . S
N1781 C1779 1.392 . S
H1782 C1788 0.930 . S
H1783 C1792 0.930 . S
H1784 C1797 0.929 . S
H1785 C1795 0.929 . S
H1786 C1790 0.929 1_455 S
H1787 C1796 0.929 1_655 S
C1788 H1782 0.930 . S
C1788 C1789 1.367 . S
C1788 C1796 1.378 . S
C1789 C1788 1.367 . S
C1789 C1797 1.433 . S
C1790 H1786 0.929 1_655 S
C1790 C1792 1.378 . S
C1790 C1794 1.350 . S
C1791 C1794 1.463 1_455 S
C1791 C1796 1.350 . S
C1791 N1799 1.427 . S
C1792 H1783 0.930 . S
C1792 C1790 1.378 . S
C1792 C1793 1.367 . S
C1793 C1792 1.367 . S
C1793 C1795 1.433 . S
C1794 C1790 1.350 . S
C1794 C1791 1.463 1_655 S
C1794 N1798 1.427 . S
C1795 H1785 0.929 . S
C1795 C1793 1.433 . S
C1795 N1798 1.384 . S
C1796 H1787 0.929 1_455 S
C1796 C1788 1.378 . S
C1796 C1791 1.350 . S
C1797 H1784 0.929 . S
C1797 C1789 1.433 . S
C1797 N1799 1.384 . S
N1798 C1794 1.427 . S
N1798 C1795 1.384 . S
N1799 C1791 1.427 . S
N1799 C1797 1.384 . S
C511 C78 0.643 . S
C515 C8 0.653 . S
C529 C50 0.619 . S
C533 C22 0.603 . S
C547 C36 0.605 . S
C551 C64 0.612 . S
C565 C92 0.635 . S
C569 C162 0.655 . S
C583 C106 0.615 . S
C587 C134 0.647 . S
C601 C148 0.653 . S
C605 C120 0.628 . S
C619 C176 0.609 . S
C623 C246 0.607 . S
C637 C190 0.653 . S
C641 C218 0.628 . S
C655 C232 0.638 . S
C659 C204 0.654 . S
C673 C330 0.634 . S
C677 C260 0.606 . S
C691 C302 0.630 . S
C695 C274 0.604 . S
C709 C288 0.604 . S
C713 C316 0.632 . S
C727 C414 0.646 . S
C731 C344 0.653 . S
C745 C386 0.649 . S
C749 C358 0.618 . S
C763 C372 0.644 . S
C767 C400 0.653 . S
C781 C498 0.654 . S
C785 C428 0.639 . S
C799 C470 0.647 . S
C803 C442 0.615 . S
C817 C484 0.639 . S
C821 C456 0.608 . S
C835 C237 1.193 . S
C839 C13 1.213 . S
C853 C251 1.213 . S
C857 C27 1.191 . S
C871 C223 1.213 . S
C875 C41 1.191 . S
C889 C55 1.209 . S
C893 C377 1.199 . S
C907 C69 1.188 . S
C911 C349 1.212 . S
C925 C83 1.190 . S
C929 C363 1.204 . S
C943 C97 1.208 . S
C947 C489 1.201 . S
C961 C503 1.188 . S
C965 C111 1.208 . S
C979 C475 1.209 . S
C983 C125 1.187 . S
C997 C293 1.195 . S
C1001 C139 1.212 . S
C1015 C265 1.207 . S
C1019 C153 1.188 . S
C1033 C167 1.195 . S
C1037 C279 1.212 . S
C1051 C181 1.189 . S
C1055 C405 1.213 . S
C1069 C419 1.187 . S
C1073 C195 1.212 . S
C1087 C391 1.188 . S
C1091 C209 1.207 . S
C1105 C307 1.193 . S
C1109 C461 1.213 . S
C1123 C433 1.188 . S
C1127 C321 1.208 . S
C1141 C335 1.197 . S
C1145 C447 1.195 . S
C1159 C263 1.254 . S
C1163 C11 1.254 . S
C1177 C277 1.264 . S
C1181 C25 1.264 . S
C1195 C39 1.264 . S
C1199 C291 1.264 . S
C1213 C53 1.252 . S
C1217 C473 1.252 . S
C1231 C487 1.255 . S
C1235 C67 1.255 . S
C1249 C501 1.259 . S
C1253 C81 1.259 . S
C1267 C95 1.255 . S
C1271 C347 1.255 . S
C1285 C109 1.261 . S
C1289 C361 1.261 . S
C1303 C375 1.264 . S
C1307 C123 1.264 . S
C1321 C137 1.252 . S
C1325 C221 1.252 . S
C1339 C151 1.256 . S
C1343 C235 1.256 . S
C1357 C249 1.253 . S
C1361 C165 1.253 . S
C1375 C179 1.270 . S
C1379 C431 1.270 . S
C1393 C193 1.261 . S
C1397 C445 1.261 . S
C1411 C459 1.258 . S
C1415 C207 1.258 . S
C1429 C389 1.267 . S
C1433 C305 1.267 . S
C1447 C319 1.261 . S
C1451 C403 1.261 . S
C1465 C333 1.263 . S
C1469 C417 1.263 . S
C1483 C385 1.622 1_554 S
C1487 C7 1.629 . S
C1501 C21 1.624 . S
C1505 C399 1.627 1_554 S
C1519 C413 1.622 1_554 S
C1523 C35 1.628 . S
C1537 C49 1.627 . S
C1541 C175 1.625 . S
C1555 C189 1.629 . S
C1559 C63 1.624 . S
C1573 C203 1.627 . S
C1577 C77 1.626 . S
C1591 C91 1.629 . S
C1595 C301 1.624 1_556 S
C1609 C315 1.622 1_556 S
C1613 C105 1.630 . S
C1627 C119 1.622 . S
C1631 C329 1.630 1_556 S
C1645 C133 1.629 . S
C1649 C427 1.624 . S
C1663 C147 1.626 . S
C1667 C441 1.624 . S
C1681 C455 1.629 . S
C1685 C161 1.623 . S
C1699 C217 1.624 . S
C1703 C343 1.629 . S
C1717 C231 1.623 . S
C1721 C357 1.627 . S
C1735 C245 1.623 . S
C1739 C371 1.628 . S
C1753 C259 1.624 . S
C1757 C469 1.627 . S
C1771 C273 1.627 . S
C1775 C483 1.626 . S
C1789 C497 1.623 . S
C1793 C287 1.628 . S
